0:0:0
     RDKit          3D

 93101  0  0  1  0  0  0  0  0999 V2000
  -29.8050  -21.6800   20.2150 C   0  0  0  0  0  0  0  0  0  0  0  0
  -29.2630  -20.4810   20.5500 N   0  0  0  0  0  0  0  0  0  0  0  0
  -30.8040  -21.8320   19.5030 O   0  0  0  0  0  0  0  0  0  0  0  0
  -28.5390  -20.5440   21.2530 H   0  0  0  0  0  0  0  0  0  0  0  0
  -30.6920  -14.5660   20.4480 C   0  0  0  0  0  0  0  0  0  0  0  0
  -30.4040  -12.3630   19.3790 C   0  0  0  0  0  2  0  0  0  0  0  0
  -29.4880  -12.5720   18.1560 C   0  0  0  0  0  2  0  0  0  0  0  0
  -28.0060  -12.4400   18.5570 C   0  0  0  0  0  2  0  0  0  0  0  0
  -27.6520  -13.2620   19.8270 C   0  0  0  0  0  3  0  0  0  0  0  0
  -28.7020  -13.0790   20.9480 C   0  0  0  0  0  2  0  0  0  0  0  0
  -30.0300  -13.3710   20.3870 N   0  0  0  0  0  0  0  0  0  0  0  0
  -31.8240  -14.7100   19.9800 O   0  0  0  0  0  0  0  0  0  0  0  0
  -29.7540  -18.8490   18.7430 C   0  0  0  0  0  0  0  0  0  0  0  0
  -29.5970  -19.1700   20.0780 C   0  0  0  0  0  0  0  0  0  0  0  0
  -29.9630  -16.9090   20.2790 C   0  0  0  0  0  0  0  0  0  0  0  0
  -29.6030  -19.7120   17.5280 C   0  0  0  0  0  1  0  0  0  0  0  0
  -29.6440  -18.0440   20.9330 N   0  0  0  0  0  0  0  0  0  0  0  0
  -30.0060  -15.6290   20.9210 N   0  0  0  0  0  0  0  0  0  0  0  0
  -30.1610  -17.1580   18.5440 S   0  0  0  0  0  0  0  0  0  0  0  0
  -29.2400  -15.4350   21.5450 H   0  0  0  0  0  0  0  0  0  0  0  0
  -25.2480  -13.8440   20.5280 C   0  0  0  0  0  0  0  0  0  0  0  0
  -24.1820  -13.0670   20.8930 C   0  0  0  0  0  0  0  0  0  0  0  0
  -24.6500  -11.7180   20.8600 C   0  0  0  0  0  0  0  0  0  0  0  0
  -26.2990  -12.9710   20.2960 N   0  0  0  0  0  0  0  0  0  0  0  0
  -25.9420  -11.6840   20.5500 N   0  0  0  0  0  0  0  0  0  0  0  0
  -23.9260  -10.4530   21.0460 C   0  0  0  0  0  0  0  0  0  0  0  0
  -24.3530   -9.4900   21.9850 C   0  0  0  0  0  3  0  0  0  0  0  0
  -23.6310   -8.2890   22.1610 C   0  0  0  0  0  3  0  0  0  0  0  0
  -22.4680   -8.0410   21.3920 C   0  0  0  0  0  0  0  0  0  0  0  0
  -22.0590   -8.9950   20.4440 C   0  0  0  0  0  3  0  0  0  0  0  0
  -22.7820  -10.1870   20.2680 C   0  0  0  0  0  3  0  0  0  0  0  0
  -21.7210   -6.8910   21.4690 O   0  0  0  0  0  0  0  0  0  0  0  0
  -21.6550   -6.1550   22.6250 C   0  0  0  0  0  0  0  0  0  0  0  0
  -21.1700   -6.7050   23.8310 C   0  0  0  0  0  3  0  0  0  0  0  0
  -21.0530   -5.8940   24.9770 C   0  0  0  0  0  3  0  0  0  0  0  0
  -21.4060   -4.5320   24.9190 C   0  0  0  0  0  0  0  0  0  0  0  0
  -21.8820   -3.9830   23.7160 C   0  0  0  0  0  3  0  0  0  0  0  0
  -22.0040   -4.7910   22.5730 C   0  0  0  0  0  0  0  0  0  0  0  0
  -22.4420   -4.2490   21.4130 F   0  0  0  0  0  0  0  0  0  0  0  0
  -21.2870   -3.7530   26.0190 F   0  0  0  0  0  0  0  0  0  0  0  0
  -22.7830  -13.5410   21.1610 C   0  0  0  0  0  0  0  0  0  0  0  0
  -22.0460  -12.8420   22.0130 N   0  0  0  0  0  0  0  0  0  0  0  0
  -22.3490  -14.5720   20.6470 O   0  0  0  0  0  0  0  0  0  0  0  0
  -22.4060  -12.0100   22.4560 H   0  0  0  0  0  0  0  0  0  0  0  0
  -21.1070  -13.1490   22.2250 H   0  0  0  0  0  0  0  0  0  0  0  0
  -25.4040  -15.2150   20.3500 N   0  0  0  0  0  0  0  0  0  0  0  0
  -24.6290  -15.8600   20.4510 H   0  0  0  0  0  0  0  0  0  0  0  0
  -26.2360  -15.6560   19.9810 H   0  0  0  0  0  0  0  0  0  0  0  0
  -29.0430  -22.8910   20.8600 C   0  0  0  0  0  0  0  0  0  0  0  0
  -28.1750  -22.6980   21.7220 O   0  0  0  0  0  0  0  0  0  0  0  0
  -29.4050  -24.3420   20.4380 C   0  0  0  0  0  2  0  0  0  0  0  0
  -28.1630  -25.2260   20.1250 C   0  0  0  0  0  2  0  0  0  0  0  0
  -28.3610  -26.6610   20.2040 O   0  0  0  0  0  0  0  0  0  0  0  0
  -24.5490  -31.8890   23.2550 C   0  0  0  0  0  0  0  0  0  0  0  0
  -27.2060  -27.4350   20.1660 C   0  0  0  0  0  0  0  0  0  0  0  0
  -23.3560  -30.4950   21.6000 C   0  0  0  0  0  3  0  0  0  0  0  0
  -24.8170  -28.9740   20.1710 C   0  0  0  0  0  0  0  0  0  0  0  0
  -25.8850  -30.8510   21.4230 C   0  0  0  0  0  2  0  0  0  0  0  0
  -25.9750  -29.4830   20.7720 C   0  0  0  0  0  0  0  0  0  0  0  0
  -27.1740  -28.7240   20.7640 C   0  0  0  0  0  3  0  0  0  0  0  0
  -26.0220  -26.9590   19.5540 C   0  0  0  0  0  3  0  0  0  0  0  0
  -24.8380  -27.7150   19.5560 C   0  0  0  0  0  3  0  0  0  0  0  0
  -23.5730  -29.8310   20.2170 C   0  0  0  0  0  2  0  0  0  0  0  0
  -24.6150  -31.0930   22.1510 N   0  0  0  0  0  0  0  0  0  0  0  0
  -23.4640  -32.1590   23.7890 O   0  0  0  0  0  0  0  0  0  0  0  0
  -22.7010  -29.4650   22.5500 C   0  0  0  0  0  0  0  0  0  0  0  0
  -21.3810  -29.2770   22.4050 N   0  0  0  0  0  0  0  0  0  0  0  0
  -23.3790  -28.8400   23.3690 O   0  0  0  0  0  0  0  0  0  0  0  0
  -20.8990  -29.8270   21.7090 H   0  0  0  0  0  0  0  0  0  0  0  0
  -18.0010  -28.0820   22.8600 C   0  0  0  0  0  0  0  0  0  0  0  0
  -20.5550  -28.3350   23.1620 C   0  0  0  0  0  3  0  0  0  0  0  0
  -20.6640  -26.9090   22.5770 C   0  0  0  0  0  2  0  0  0  0  0  0
  -19.5700  -26.5920   21.5520 C   0  0  0  0  0  2  0  0  0  0  0  0
  -18.1820  -26.7360   22.1800 C   0  0  0  0  0  2  0  0  0  0  0  0
  -19.1140  -28.8400   23.3050 C   0  0  0  0  0  0  0  0  0  0  0  0
  -18.8880  -30.1020   23.8960 C   0  0  0  0  0  3  0  0  0  0  0  0
  -17.5820  -30.6020   24.0530 C   0  0  0  0  0  3  0  0  0  0  0  0
  -16.4820  -29.8380   23.6250 C   0  0  0  0  0  3  0  0  0  0  0  0
  -16.6920  -28.5800   23.0320 C   0  0  0  0  0  3  0  0  0  0  0  0
  -25.8330  -32.5150   23.8850 C   0  0  0  0  0  3  0  0  0  0  0  0
  -26.3260  -31.7520   25.1730 C   0  0  1  0  0  0  0  0  0  0  0  0
  -25.2150  -31.5240   26.2250 C   0  0  0  0  0  1  0  0  0  0  0  0
  -26.9040  -30.3700   24.7920 C   0  0  0  0  0  1  0  0  0  0  0  0
  -27.4740  -32.5440   25.8420 C   0  0  0  0  0  1  0  0  0  0  0  0
  -25.5310  -33.9200   24.1990 N   0  0  0  0  0  0  0  0  0  0  0  0
  -25.8870  -34.9600   23.4330 C   0  0  0  0  0  0  0  0  0  0  0  0
  -26.5720  -34.8400   22.4140 O   0  0  0  0  0  0  0  0  0  0  0  0
  -24.9330  -34.0880   24.9930 H   0  0  0  0  0  0  0  0  0  0  0  0
  -24.1890  -36.7610   23.0170 C   0  0  0  0  0  1  0  0  0  0  0  0
  -25.4050  -36.3570   23.8660 C   0  0  0  0  0  3  0  0  0  0  0  0
  -27.5230  -37.2220   24.7540 C   0  0  0  0  0  1  0  0  0  0  0  0
  -26.4520  -37.3970   23.7740 N   0  0  0  0  0  0  0  0  0  0  0  0
  -26.0540  -38.3240   23.9040 H   0  0  0  0  0  0  0  0  0  0  0  0
  1  2  1  0
  1 49  1  0
  2  4  1  0
  3  1  2  0
  5 18  1  0
  6 11  1  0
  7  8  1  0
  7  6  1  0
  9  8  1  0
  9 24  1  0
  9 10  1  0
 11  5  1  0
 11 10  1  0
 12  5  2  0
 13 14  2  0
 14  2  1  0
 14 17  1  0
 15 18  1  0
 15 17  2  0
 16 13  1  0
 18 20  1  0
 19 13  1  0
 19 15  1  0
 21 22  2  0
 22 41  1  0
 23 22  1  0
 23 26  1  0
 24 21  1  0
 24 25  1  0
 25 23  2  0
 26 27  1  0
 27 28  2  0
 29 32  1  0
 29 28  1  0
 30 29  2  0
 31 30  1  0
 31 26  2  0
 32 33  1  0
 33 34  1  0
 34 35  2  0
 36 35  1  0
 36 40  1  0
 37 36  2  0
 38 33  2  0
 38 37  1  0
 39 38  1  0
 41 42  1  0
 42 45  1  0
 42 44  1  0
 43 41  2  0
 46 47  1  0
 46 21  1  0
 48 46  1  0
 49 50  2  0
 51 49  1  0
 52 53  1  0
 52 51  1  0
 54 65  2  0
 55 53  1  0
 55 60  1  0
 56 64  1  0
 56 66  1  0
 57 63  1  0
 57 59  1  0
 58 64  1  0
 59 58  1  0
 60 59  2  0
 61 62  1  0
 61 55  2  0
 62 57  2  0
 63 56  1  0
 64 54  1  0
 66 68  2  0
 67 66  1  0
 69 67  1  0
 70 79  2  0
 70 75  1  0
 71 67  1  0
 71 75  1  0
 72 71  1  0
 73 74  1  0
 73 72  1  0
 74 70  1  0
 75 76  2  0
 76 77  1  0
 78 77  2  0
 79 78  1  0
 80 54  1  0
 80 85  1  0
 80 81  1  0
 81 84  1  1
 81 82  1  0
 83 81  1  0
 85 88  1  0
 86 90  1  0
 86 85  1  0
 87 86  2  0
 90 89  1  0
 92 90  1  0
 92 93  1  0
 92 91  1  0
M  ISO  4   5 100  18 100  52 101  53 101
M  END
>  <TORSDO>  (1) 
F 19

>  <SCORE>  (1) 
-14.288

>  <name>  (1) 
0

>  <ligand_id>  (1) 
0

>  <original_smiles>  (1) 
[H]c1c([H])c([H])c2c(c1[H])C([H])([H])C([H])([H])C([H])([H])C2([H])N([H])C(=O)C1([H])N(C(=O)C([H])(N([H])C(=O)C([H])(N([H])C([H])([H])[H])C([H])([H])[H])C(C([H])([H])[H])(C([H])([H])[H])C([H])([H])[H])C([H])([H])c2c([H])c(OC([H])([H])C([H])([H])C(=O)C(=O)N([H])c3nc(N([H])C(=O)N4C([H])([H])C([H])([H])C([H])([H])C([H])(n5nc(-c6c([H])c([H])c(Oc7c([H])c([H])c(F)c([H])c7F)c([H])c6[H])c(C(=O)N([H])[H])c5N([H])[H])C4([H])[H])sc3C([H])([H])[H])c([H])c([H])c2C1([H])[H]

>  <smiles>  (1) 
[H]c1c([H])c([H])c2c(c1[H])C([H])([H])C([H])([H])C([H])([H])C2([H])N([H])C(=O)C1([H])N(C(=O)C([H])(N([H])C(=O)C([H])(N([H])C([H])([H])[H])C([H])([H])[H])C(C([H])([H])[H])(C([H])([H])[H])C([H])([H])[H])C([H])([H])c2c([H])c(OC([H])([H])C([H])([H])C(=O)C(=O)N([H])c3nc(N([H])C(=O)N4C([H])([H])C([H])([H])C([H])([H])C([H])(n5nc(-c6c([H])c([H])c(Oc7c([H])c([H])c(F)c([H])c7F)c([H])c6[H])c(C(=O)N([H])[H])c5N([H])[H])C4([H])[H])sc3C([H])([H])[H])c([H])c([H])c2C1([H])[H]

$$$$
1:0:0
     RDKit          3D

 94102  0  0  1  0  0  0  0  0999 V2000
  -28.7690  -22.5400   20.1850 C   0  0  0  0  0  0  0  0  0  0  0  0
  -29.3230  -21.3280   19.6810 N   0  0  0  0  0  0  0  0  0  0  0  0
  -28.2760  -22.5660   21.3140 O   0  0  0  0  0  0  0  0  0  0  0  0
  -29.8760  -21.5040   18.8510 H   0  0  0  0  0  0  0  0  0  0  0  0
  -27.8930  -19.3610   20.3130 C   0  0  0  0  0  3  0  0  0  0  0  0
  -29.1330  -19.8420   19.9870 C   0  0  0  0  0  0  0  0  0  0  0  0
  -30.0790  -18.6650   19.8930 C   0  0  0  0  0  0  0  0  0  0  0  0
  -29.5830  -17.3460   20.1750 C   0  0  0  0  0  0  0  0  0  0  0  0
  -31.3480  -18.8720   19.6230 F   0  0  0  0  0  0  0  0  0  0  0  0
  -27.8610  -17.6020   20.4700 S   0  0  0  0  0  0  0  0  0  0  0  0
  -30.6080  -14.9330   19.7540 C   0  0  0  0  0  0  0  0  0  0  0  0
  -30.3250  -12.6030   18.7820 C   0  0  0  0  0  2  0  0  0  0  0  0
  -29.3170  -12.6120   17.6100 C   0  0  0  0  0  2  0  0  0  0  0  0
  -27.8790  -12.4400   18.1330 C   0  0  0  0  0  2  0  0  0  0  0  0
  -27.5800  -13.3650   19.3410 C   0  0  0  0  0  3  0  0  0  0  0  0
  -28.7020  -13.3240   20.4000 C   0  0  0  0  0  2  0  0  0  0  0  0
  -29.9570  -13.6960   19.7310 N   0  0  0  0  0  0  0  0  0  0  0  0
  -31.6950  -15.0090   19.1730 O   0  0  0  0  0  0  0  0  0  0  0  0
  -30.1050  -16.0360   20.4940 N   0  0  0  0  0  0  0  0  0  0  0  0
  -25.2610  -14.0020   20.2210 C   0  0  0  0  0  0  0  0  0  0  0  0
  -24.2050  -13.2530   20.6610 C   0  0  0  0  0  0  0  0  0  0  0  0
  -24.6330  -11.8920   20.6030 C   0  0  0  0  0  0  0  0  0  0  0  0
  -26.2670  -13.1000   19.9200 N   0  0  0  0  0  0  0  0  0  0  0  0
  -25.9010  -11.8240   20.2120 N   0  0  0  0  0  0  0  0  0  0  0  0
  -23.8890  -10.6480   20.8420 C   0  0  0  0  0  0  0  0  0  0  0  0
  -24.3310   -9.6890   21.7790 C   0  0  0  0  0  3  0  0  0  0  0  0
  -23.5860   -8.5120   22.0050 C   0  0  0  0  0  3  0  0  0  0  0  0
  -22.3830   -8.2850   21.2940 C   0  0  0  0  0  0  0  0  0  0  0  0
  -21.9590   -9.2330   20.3460 C   0  0  0  0  0  3  0  0  0  0  0  0
  -22.7050  -10.4010   20.1180 C   0  0  0  0  0  3  0  0  0  0  0  0
  -21.6070   -7.1590   21.4290 O   0  0  0  0  0  0  0  0  0  0  0  0
  -21.5570   -6.4580   22.6080 C   0  0  0  0  0  0  0  0  0  0  0  0
  -21.1650   -7.0660   23.8200 C   0  0  0  0  0  3  0  0  0  0  0  0
  -21.0580   -6.2920   24.9940 C   0  0  0  0  0  3  0  0  0  0  0  0
  -21.3330   -4.9120   24.9560 C   0  0  0  0  0  0  0  0  0  0  0  0
  -21.7180   -4.3040   23.7480 C   0  0  0  0  0  3  0  0  0  0  0  0
  -21.8260   -5.0740   22.5760 C   0  0  0  0  0  0  0  0  0  0  0  0
  -22.1760   -4.4790   21.4110 F   0  0  0  0  0  0  0  0  0  0  0  0
  -21.2240   -4.1670   26.0800 F   0  0  0  0  0  0  0  0  0  0  0  0
  -22.8410  -13.7670   21.0190 C   0  0  0  0  0  0  0  0  0  0  0  0
  -22.1570  -13.0950   21.9390 N   0  0  0  0  0  0  0  0  0  0  0  0
  -22.3940  -14.7980   20.5180 O   0  0  0  0  0  0  0  0  0  0  0  0
  -22.5320  -12.2620   22.3650 H   0  0  0  0  0  0  0  0  0  0  0  0
  -21.2440  -13.4220   22.2230 H   0  0  0  0  0  0  0  0  0  0  0  0
  -25.4440  -15.3670   20.0290 N   0  0  0  0  0  0  0  0  0  0  0  0
  -24.7020  -16.0390   20.1910 H   0  0  0  0  0  0  0  0  0  0  0  0
  -26.2850  -15.7870   19.6570 H   0  0  0  0  0  0  0  0  0  0  0  0
  -31.4760  -16.8170   22.4420 C   0  0  0  0  0  1  0  0  0  0  0  0
  -30.3720  -15.8710   21.9400 C   0  0  0  0  0  2  0  0  0  0  0  0
  -28.5180  -25.1760   19.3770 C   0  0  0  0  0  3  0  0  0  0  0  0
  -28.8050  -23.7780   19.2690 C   0  0  0  0  0  0  0  0  0  0  0  0
  -29.1780  -23.4350   18.0250 O   0  0  0  0  0  0  0  0  0  0  0  0
  -29.1760  -24.2190   17.4930 H   0  0  0  0  0  0  0  0  0  0  0  0
  -28.1910  -26.1920   20.3530 O   0  0  0  0  0  0  0  0  0  0  0  0
  -24.5540  -31.8790   23.2060 C   0  0  0  0  0  0  0  0  0  0  0  0
  -27.1790  -27.2000   20.1760 C   0  0  0  0  0  0  0  0  0  0  0  0
  -23.3770  -30.4960   21.5370 C   0  0  0  0  0  3  0  0  0  0  0  0
  -24.8480  -28.9320   20.1170 C   0  0  0  0  0  0  0  0  0  0  0  0
  -25.9320  -30.7630   21.4150 C   0  0  0  0  0  2  0  0  0  0  0  0
  -26.0140  -29.3770   20.7510 C   0  0  0  0  0  0  0  0  0  0  0  0
  -27.1770  -28.5220   20.7740 C   0  0  0  0  0  3  0  0  0  0  0  0
  -25.9900  -26.8510   19.4990 C   0  0  0  0  0  3  0  0  0  0  0  0
  -24.8470  -27.6830   19.4760 C   0  0  0  0  0  3  0  0  0  0  0  0
  -23.6180  -29.8260   20.1560 C   0  0  0  0  0  2  0  0  0  0  0  0
  -24.6390  -31.0670   22.1080 N   0  0  0  0  0  0  0  0  0  0  0  0
  -23.4600  -32.1630   23.7190 O   0  0  0  0  0  0  0  0  0  0  0  0
  -22.6810  -29.4860   22.4830 C   0  0  0  0  0  0  0  0  0  0  0  0
  -21.3560  -29.3120   22.3270 N   0  0  0  0  0  0  0  0  0  0  0  0
  -23.3360  -28.8600   23.3200 O   0  0  0  0  0  0  0  0  0  0  0  0
  -20.8850  -29.8690   21.6280 H   0  0  0  0  0  0  0  0  0  0  0  0
  -17.9700  -28.0910   22.7360 C   0  0  0  0  0  0  0  0  0  0  0  0
  -20.5190  -28.3740   23.0780 C   0  0  0  0  0  3  0  0  0  0  0  0
  -20.6470  -26.9390   22.5140 C   0  0  0  0  0  2  0  0  0  0  0  0
  -19.5780  -26.6040   21.4690 C   0  0  0  0  0  2  0  0  0  0  0  0
  -18.1760  -26.7400   22.0720 C   0  0  0  0  0  2  0  0  0  0  0  0
  -19.0700  -28.8640   23.1950 C   0  0  0  0  0  0  0  0  0  0  0  0
  -18.8230  -30.1270   23.7770 C   0  0  0  0  0  3  0  0  0  0  0  0
  -17.5100  -30.6160   23.9050 C   0  0  0  0  0  3  0  0  0  0  0  0
  -16.4250  -29.8410   23.4610 C   0  0  0  0  0  3  0  0  0  0  0  0
  -16.6550  -28.5800   22.8840 C   0  0  0  0  0  3  0  0  0  0  0  0
  -25.8240  -32.5070   23.8570 C   0  0  0  0  0  3  0  0  0  0  0  0
  -26.3040  -31.7360   25.1480 C   0  0  1  0  0  0  0  0  0  0  0  0
  -25.1820  -31.5030   26.1880 C   0  0  0  0  0  1  0  0  0  0  0  0
  -26.8920  -30.3550   24.7760 C   0  0  0  0  0  1  0  0  0  0  0  0
  -27.4390  -32.5260   25.8390 C   0  0  0  0  0  1  0  0  0  0  0  0
  -25.5150  -33.9080   24.1840 N   0  0  0  0  0  0  0  0  0  0  0  0
  -25.8570  -34.9620   23.4310 C   0  0  0  0  0  0  0  0  0  0  0  0
  -26.5350  -34.8570   22.4050 O   0  0  0  0  0  0  0  0  0  0  0  0
  -24.9140  -34.0630   24.9810 H   0  0  0  0  0  0  0  0  0  0  0  0
  -24.1390  -36.7650   23.0730 C   0  0  0  0  0  1  0  0  0  0  0  0
  -25.3750  -36.3530   23.8890 C   0  0  0  0  0  3  0  0  0  0  0  0
  -27.5110  -37.2290   24.7270 C   0  0  0  0  0  1  0  0  0  0  0  0
  -26.4130  -37.4030   23.7800 N   0  0  0  0  0  0  0  0  0  0  0  0
  -26.0110  -38.3250   23.9270 H   0  0  0  0  0  0  0  0  0  0  0  0
  1  3  2  0
  2  6  1  0
  2  1  1  0
  4  2  1  0
  5 10  1  0
  6  5  2  0
  7  6  1  0
  7  8  2  0
  8 10  1  0
  8 19  1  0
  9  7  1  0
 11 19  1  0
 12 17  1  0
 13 14  1  0
 13 12  1  0
 15 14  1  0
 15 23  1  0
 15 16  1  0
 17 11  1  0
 17 16  1  0
 18 11  2  0
 19 49  1  0
 20 21  2  0
 21 40  1  0
 22 21  1  0
 22 25  1  0
 23 24  1  0
 23 20  1  0
 24 22  2  0
 25 26  1  0
 26 27  2  0
 28 31  1  0
 28 27  1  0
 29 28  2  0
 30 29  1  0
 30 25  2  0
 31 32  1  0
 32 33  1  0
 33 34  2  0
 35 34  1  0
 35 39  1  0
 36 35  2  0
 37 32  2  0
 37 36  1  0
 38 37  1  0
 40 41  1  0
 41 44  1  0
 41 43  1  0
 42 40  2  0
 45 46  1  0
 45 20  1  0
 47 45  1  0
 49 48  1  0
 50 54  1  0
 51 50  2  0
 51  1  1  0
 52 51  1  0
 53 52  1  0
 55 66  2  0
 56 54  1  0
 56 61  1  0
 57 65  1  0
 57 67  1  0
 58 64  1  0
 58 60  1  0
 59 65  1  0
 60 61  2  0
 60 59  1  0
 62 56  2  0
 63 62  1  0
 63 58  2  0
 64 57  1  0
 65 55  1  0
 67 69  2  0
 68 67  1  0
 70 68  1  0
 71 80  2  0
 71 76  1  0
 72 68  1  0
 72 76  1  0
 73 72  1  0
 74 75  1  0
 74 73  1  0
 75 71  1  0
 76 77  2  0
 77 78  1  0
 79 78  2  0
 80 79  1  0
 81 55  1  0
 81 86  1  0
 81 82  1  0
 82 85  1  1
 82 83  1  0
 84 82  1  0
 86 89  1  0
 87 91  1  0
 87 86  1  0
 88 87  2  0
 91 90  1  0
 93 91  1  0
 93 94  1  0
 93 92  1  0
M  ISO  4  11 100  19 100  50 101  54 101
M  END
>  <TORSDO>  (2) 
F 20

>  <SCORE>  (2) 
-12.899

>  <name>  (2) 
1

>  <ligand_id>  (2) 
1

>  <original_smiles>  (2) 
[H]OC(C(=O)N([H])c1c([H])sc(N(C(=O)N2C([H])([H])C([H])([H])C([H])([H])C([H])(n3nc(-c4c([H])c([H])c(Oc5c([H])c([H])c(F)c([H])c5F)c([H])c4[H])c(C(=O)N([H])[H])c3N([H])[H])C2([H])[H])C([H])([H])C([H])([H])[H])c1F)=C([H])Oc1c([H])c([H])c2c(c1[H])C([H])([H])N(C(=O)C([H])(N([H])C(=O)C([H])(N([H])C([H])([H])[H])C([H])([H])[H])C(C([H])([H])[H])(C([H])([H])[H])C([H])([H])[H])C([H])(C(=O)N([H])C1([H])c3c([H])c([H])c([H])c([H])c3C([H])([H])C([H])([H])C1([H])[H])C2([H])[H]

>  <smiles>  (2) 
[H]OC(C(=O)N([H])c1c([H])sc(N(C(=O)N2C([H])([H])C([H])([H])C([H])([H])C([H])(n3nc(-c4c([H])c([H])c(Oc5c([H])c([H])c(F)c([H])c5F)c([H])c4[H])c(C(=O)N([H])[H])c3N([H])[H])C2([H])[H])C([H])([H])C([H])([H])[H])c1F)=C([H])Oc1c([H])c([H])c2c(c1[H])C([H])([H])N(C(=O)C([H])(N([H])C(=O)C([H])(N([H])C([H])([H])[H])C([H])([H])[H])C(C([H])([H])[H])(C([H])([H])[H])C([H])([H])[H])C([H])(C(=O)N([H])C1([H])c3c([H])c([H])c([H])c([H])c3C([H])([H])C([H])([H])C1([H])[H])C2([H])[H]

$$$$
2:0:0
     RDKit          3D

 95103  0  0  1  0  0  0  0  0999 V2000
  -28.6940  -22.2620   20.5680 C   0  0  0  0  0  0  0  0  0  0  0  0
  -29.5510  -21.2500   20.1500 N   0  0  0  0  0  0  0  0  0  0  0  0
  -27.5650  -21.9690   20.9680 O   0  0  0  0  0  0  0  0  0  0  0  0
  -30.3700  -21.6330   19.7030 H   0  0  0  0  0  0  0  0  0  0  0  0
  -30.5850  -14.9060   20.1600 C   0  0  0  0  0  0  0  0  0  0  0  0
  -30.3730  -12.6310   19.1210 C   0  0  0  0  0  2  0  0  0  0  0  0
  -29.4020  -12.6870   17.9230 C   0  0  0  0  0  2  0  0  0  0  0  0
  -27.9500  -12.4790   18.4000 C   0  0  0  0  0  2  0  0  0  0  0  0
  -27.5920  -13.3710   19.6190 C   0  0  0  0  0  3  0  0  0  0  0  0
  -28.6830  -13.3090   20.7090 C   0  0  0  0  0  2  0  0  0  0  0  0
  -29.9520  -13.6830   20.0720 N   0  0  0  0  0  0  0  0  0  0  0  0
  -31.7790  -14.9900   19.8530 O   0  0  0  0  0  0  0  0  0  0  0  0
  -30.9930  -17.5610   21.8050 C   0  0  0  0  0  3  0  0  0  0  0  0
  -31.2440  -18.8110   22.3910 C   0  0  0  0  0  0  0  0  0  0  0  0
  -30.6580  -19.9790   21.8730 C   0  0  0  0  0  0  0  0  0  0  0  0
  -30.1250  -17.4450   20.7040 C   0  0  0  0  0  0  0  0  0  0  0  0
  -29.8310  -19.9060   20.7300 C   0  0  0  0  0  0  0  0  0  0  0  0
  -29.5710  -18.6320   20.1860 N   0  0  0  0  0  0  0  0  0  0  0  0
  -29.7970  -16.0490   20.3000 N   0  0  0  0  0  0  0  0  0  0  0  0
  -32.0760  -18.8890   23.4600 F   0  0  0  0  0  0  0  0  0  0  0  0
  -30.9380  -21.1760   22.4480 F   0  0  0  0  0  0  0  0  0  0  0  0
  -28.8110  -15.8690   20.2170 H   0  0  0  0  0  0  0  0  0  0  0  0
  -25.2250  -13.9420   20.4230 C   0  0  0  0  0  0  0  0  0  0  0  0
  -24.1730  -13.1580   20.8150 C   0  0  0  0  0  0  0  0  0  0  0  0
  -24.6450  -11.8100   20.7630 C   0  0  0  0  0  0  0  0  0  0  0  0
  -26.2660  -13.0700   20.1500 N   0  0  0  0  0  0  0  0  0  0  0  0
  -25.9280  -11.7830   20.4200 N   0  0  0  0  0  0  0  0  0  0  0  0
  -23.9350  -10.5410   20.9640 C   0  0  0  0  0  0  0  0  0  0  0  0
  -24.3800   -9.5840   21.9010 C   0  0  0  0  0  3  0  0  0  0  0  0
  -23.6700   -8.3790   22.0870 C   0  0  0  0  0  3  0  0  0  0  0  0
  -22.4970   -8.1230   21.3370 C   0  0  0  0  0  0  0  0  0  0  0  0
  -22.0690   -9.0710   20.3900 C   0  0  0  0  0  3  0  0  0  0  0  0
  -22.7810  -10.2660   20.2010 C   0  0  0  0  0  3  0  0  0  0  0  0
  -21.7540   -6.9710   21.4350 O   0  0  0  0  0  0  0  0  0  0  0  0
  -21.6960   -6.2480   22.5990 C   0  0  0  0  0  0  0  0  0  0  0  0
  -21.2130   -6.8110   23.8010 C   0  0  0  0  0  3  0  0  0  0  0  0
  -21.1050   -6.0120   24.9580 C   0  0  0  0  0  3  0  0  0  0  0  0
  -21.4690   -4.6530   24.9130 C   0  0  0  0  0  0  0  0  0  0  0  0
  -21.9440   -4.0900   23.7140 C   0  0  0  0  0  3  0  0  0  0  0  0
  -22.0540   -4.8860   22.5600 C   0  0  0  0  0  0  0  0  0  0  0  0
  -22.4940   -4.3340   21.4040 F   0  0  0  0  0  0  0  0  0  0  0  0
  -21.3580   -3.8830   26.0210 F   0  0  0  0  0  0  0  0  0  0  0  0
  -22.7810  -13.6250   21.1250 C   0  0  0  0  0  0  0  0  0  0  0  0
  -22.0740  -12.9140   21.9980 N   0  0  0  0  0  0  0  0  0  0  0  0
  -22.3280  -14.6530   20.6290 O   0  0  0  0  0  0  0  0  0  0  0  0
  -22.4520  -12.0820   22.4270 H   0  0  0  0  0  0  0  0  0  0  0  0
  -21.1400  -13.2100   22.2440 H   0  0  0  0  0  0  0  0  0  0  0  0
  -25.3730  -15.3160   20.2500 N   0  0  0  0  0  0  0  0  0  0  0  0
  -24.6010  -15.9580   20.3840 H   0  0  0  0  0  0  0  0  0  0  0  0
  -26.2000  -15.7640   19.8800 H   0  0  0  0  0  0  0  0  0  0  0  0
  -30.5880  -24.0480   20.2870 C   0  0  0  0  0  1  0  0  0  0  0  0
  -29.0850  -23.8430   20.5540 C   0  0  0  0  0  3  0  0  0  0  0  0
  -28.3540  -24.8810   18.2940 C   0  0  0  0  0  1  0  0  0  0  0  0
  -28.1600  -24.9800   19.8210 C   0  0  0  0  0  3  0  0  0  0  0  0
  -28.2810  -26.4550   20.1780 O   0  0  0  0  0  0  0  0  0  0  0  0
  -24.6200  -31.9620   23.2410 C   0  0  0  0  0  0  0  0  0  0  0  0
  -27.1740  -27.3520   20.1230 C   0  0  0  0  0  0  0  0  0  0  0  0
  -23.3940  -30.5730   21.6130 C   0  0  0  0  0  3  0  0  0  0  0  0
  -24.8200  -29.0220   20.1560 C   0  0  0  0  0  0  0  0  0  0  0  0
  -25.9360  -30.8700   21.3990 C   0  0  0  0  0  2  0  0  0  0  0  0
  -26.0040  -29.4890   20.7410 C   0  0  0  0  0  0  0  0  0  0  0  0
  -27.1790  -28.6670   20.7140 C   0  0  0  0  0  3  0  0  0  0  0  0
  -25.9610  -26.9620   19.5080 C   0  0  0  0  0  3  0  0  0  0  0  0
  -24.8070  -27.7690   19.5280 C   0  0  0  0  0  3  0  0  0  0  0  0
  -23.5860  -29.9010   20.2290 C   0  0  0  0  0  2  0  0  0  0  0  0
  -24.6710  -31.1550   22.1380 N   0  0  0  0  0  0  0  0  0  0  0  0
  -23.5450  -32.2380   23.7910 O   0  0  0  0  0  0  0  0  0  0  0  0
  -22.7390  -29.5570   22.5800 C   0  0  0  0  0  0  0  0  0  0  0  0
  -21.4140  -29.3670   22.4590 N   0  0  0  0  0  0  0  0  0  0  0  0
  -23.4250  -28.9390   23.3980 O   0  0  0  0  0  0  0  0  0  0  0  0
  -20.9150  -29.9140   21.7710 H   0  0  0  0  0  0  0  0  0  0  0  0
  -18.0530  -28.1220   22.9710 C   0  0  0  0  0  0  0  0  0  0  0  0
  -20.6080  -28.4220   23.2370 C   0  0  0  0  0  3  0  0  0  0  0  0
  -20.7320  -26.9890   22.6720 C   0  0  0  0  0  2  0  0  0  0  0  0
  -19.6340  -26.6430   21.6600 C   0  0  0  0  0  2  0  0  0  0  0  0
  -18.2500  -26.7720   22.3030 C   0  0  0  0  0  2  0  0  0  0  0  0
  -19.1610  -28.9040   23.3960 C   0  0  0  0  0  0  0  0  0  0  0  0
  -18.9230  -30.1670   23.9810 C   0  0  0  0  0  3  0  0  0  0  0  0
  -17.6120  -30.6500   24.1440 C   0  0  0  0  0  3  0  0  0  0  0  0
  -16.5190  -29.8660   23.7350 C   0  0  0  0  0  3  0  0  0  0  0  0
  -16.7400  -28.6050   23.1540 C   0  0  0  0  0  3  0  0  0  0  0  0
  -25.9110  -32.5920   23.8480 C   0  0  0  0  0  3  0  0  0  0  0  0
  -25.6060  -33.9900   24.1850 N   0  0  0  0  0  0  0  0  0  0  0  0
  -25.9170  -35.0460   23.4230 C   0  0  0  0  0  0  0  0  0  0  0  0
  -26.5610  -34.9470   22.3740 O   0  0  0  0  0  0  0  0  0  0  0  0
  -25.0270  -34.1410   24.9990 H   0  0  0  0  0  0  0  0  0  0  0  0
  -24.1820  -36.8400   23.1130 C   0  0  0  0  0  1  0  0  0  0  0  0
  -25.4400  -36.4320   23.8970 C   0  0  0  0  0  3  0  0  0  0  0  0
  -27.5900  -37.3140   24.6910 C   0  0  0  0  0  1  0  0  0  0  0  0
  -26.4700  -37.4860   23.7680 N   0  0  0  0  0  0  0  0  0  0  0  0
  -26.0660  -38.4040   23.9270 H   0  0  0  0  0  0  0  0  0  0  0  0
  -26.4430  -31.8210   25.1180 C   0  0  1  0  0  0  0  0  0  0  0  0
  -25.3610  -31.5810   26.1970 C   0  0  0  0  0  1  0  0  0  0  0  0
  -27.0250  -30.4440   24.7220 C   0  0  0  0  0  1  0  0  0  0  0  0
  -27.5980  -32.6170   25.7680 C   0  0  0  0  0  1  0  0  0  0  0  0
  1  3  2  0
  2  1  1  0
  2 17  1  0
  4  2  1  0
  5 19  1  0
  6 11  1  0
  7  8  1  0
  7  6  1  0
  9  8  1  0
  9 26  1  0
  9 10  1  0
 11  5  1  0
 11 10  1  0
 12  5  2  0
 13 14  1  0
 14 20  1  0
 15 14  2  0
 15 21  1  0
 16 13  2  0
 17 15  1  0
 18 16  1  0
 18 17  2  0
 19 16  1  0
 22 19  1  0
 23 24  2  0
 24 43  1  0
 25 24  1  0
 25 28  1  0
 26 27  1  0
 26 23  1  0
 27 25  2  0
 28 29  1  0
 29 30  2  0
 31 34  1  0
 31 30  1  0
 32 31  2  0
 33 32  1  0
 33 28  2  0
 34 35  1  0
 35 36  1  0
 36 37  2  0
 38 37  1  0
 38 42  1  0
 39 38  2  0
 40 35  2  0
 40 39  1  0
 41 40  1  0
 43 44  1  0
 44 47  1  0
 44 46  1  0
 45 43  2  0
 48 49  1  0
 48 23  1  0
 50 48  1  0
 52 51  1  0
 52  1  1  0
 54 53  1  0
 54 55  1  0
 54 52  1  0
 56 67  2  0
 57 55  1  0
 57 62  1  0
 58 66  1  0
 58 68  1  0
 59 65  1  0
 59 61  1  0
 60 66  1  0
 61 60  1  0
 62 61  2  0
 63 64  1  0
 63 57  2  0
 64 59  2  0
 65 58  1  0
 66 56  1  0
 68 70  2  0
 69 68  1  0
 71 69  1  0
 72 81  2  0
 72 77  1  0
 73 69  1  0
 73 77  1  0
 74 73  1  0
 75 76  1  0
 75 74  1  0
 76 72  1  0
 77 78  2  0
 78 79  1  0
 80 79  2  0
 81 80  1  0
 82 56  1  0
 82 83  1  0
 82 92  1  0
 83 86  1  0
 84 88  1  0
 84 83  1  0
 85 84  2  0
 88 87  1  0
 90 88  1  0
 90 91  1  0
 90 89  1  0
 92 95  1  1
 92 93  1  0
 94 92  1  0
M  ISO  4   5 100  19 100  54 101  55 101
M  END
>  <TORSDO>  (3) 
F 18

>  <SCORE>  (3) 
-14.641

>  <name>  (3) 
2

>  <ligand_id>  (3) 
2

>  <original_smiles>  (3) 
[H]c1c([H])c([H])c2c(c1[H])C([H])([H])C([H])([H])C([H])([H])C2([H])N([H])C(=O)C1([H])N(C(=O)C([H])(N([H])C(=O)C([H])(N([H])C([H])([H])[H])C([H])([H])[H])C(C([H])([H])[H])(C([H])([H])[H])C([H])([H])[H])C([H])([H])c2c([H])c(OC([H])(C([H])([H])[H])C([H])(C(=O)N([H])c3nc(N([H])C(=O)N4C([H])([H])C([H])([H])C([H])([H])C([H])(n5nc(-c6c([H])c([H])c(Oc7c([H])c([H])c(F)c([H])c7F)c([H])c6[H])c(C(=O)N([H])[H])c5N([H])[H])C4([H])[H])c([H])c(F)c3F)C([H])([H])[H])c([H])c([H])c2C1([H])[H]

>  <smiles>  (3) 
[H]c1c([H])c([H])c2c(c1[H])C([H])([H])C([H])([H])C([H])([H])C2([H])N([H])C(=O)C1([H])N(C(=O)C([H])(N([H])C(=O)C([H])(N([H])C([H])([H])[H])C([H])([H])[H])C(C([H])([H])[H])(C([H])([H])[H])C([H])([H])[H])C([H])([H])c2c([H])c(OC([H])(C([H])([H])[H])C([H])(C(=O)N([H])c3nc(N([H])C(=O)N4C([H])([H])C([H])([H])C([H])([H])C([H])(n5nc(-c6c([H])c([H])c(Oc7c([H])c([H])c(F)c([H])c7F)c([H])c6[H])c(C(=O)N([H])[H])c5N([H])[H])C4([H])[H])c([H])c(F)c3F)C([H])([H])[H])c([H])c([H])c2C1([H])[H]

$$$$
3:0:0
     RDKit          3D

 93101  0  0  1  0  0  0  0  0999 V2000
  -28.9070  -23.6860   20.2640 C   0  0  0  0  0  0  0  0  0  0  0  0
  -28.3440  -22.4430   20.0190 N   0  0  0  0  0  0  0  0  0  0  0  0
  -29.9530  -23.8230   20.9040 O   0  0  0  0  0  0  0  0  0  0  0  0
  -27.4480  -22.5680   19.5690 H   0  0  0  0  0  0  0  0  0  0  0  0
  -27.7000  -20.0760   20.1130 C   0  0  0  0  0  3  0  0  0  0  0  0
  -28.1760  -18.7130   20.2080 C   0  0  0  0  0  0  0  0  0  0  0  0
  -29.5270  -18.5460   20.3760 C   0  0  0  0  0  0  0  0  0  0  0  0
  -28.6530  -21.0790   20.2010 C   0  0  0  0  0  0  0  0  0  0  0  0
  -27.3500  -17.6950   20.1100 F   0  0  0  0  0  0  0  0  0  0  0  0
  -30.2130  -20.2210   20.4460 S   0  0  0  0  0  0  0  0  0  0  0  0
  -30.6890  -14.7970   20.2990 C   0  0  0  0  0  0  0  0  0  0  0  0
  -30.4470  -12.5120   19.3130 C   0  0  0  0  0  2  0  0  0  0  0  0
  -29.5190  -12.5620   18.0800 C   0  0  0  0  0  2  0  0  0  0  0  0
  -28.0510  -12.3890   18.5090 C   0  0  0  0  0  2  0  0  0  0  0  0
  -27.6660  -13.2960   19.7090 C   0  0  0  0  0  3  0  0  0  0  0  0
  -28.7220  -13.2550   20.8340 C   0  0  0  0  0  2  0  0  0  0  0  0
  -30.0160  -13.5940   20.2300 N   0  0  0  0  0  0  0  0  0  0  0  0
  -31.8900  -14.8020   20.0150 O   0  0  0  0  0  0  0  0  0  0  0  0
  -30.4440  -17.2980   20.4520 C   0  0  0  0  0  0  0  0  0  0  0  0
  -29.9690  -15.9840   20.4480 N   0  0  0  0  0  0  0  0  0  0  0  0
  -31.6550  -17.5370   20.5150 O   0  0  0  0  0  0  0  0  0  0  0  0
  -28.9700  -15.8900   20.5030 H   0  0  0  0  0  0  0  0  0  0  0  0
  -25.2730  -13.8730   20.4240 C   0  0  0  0  0  0  0  0  0  0  0  0
  -24.2110  -13.0940   20.7930 C   0  0  0  0  0  0  0  0  0  0  0  0
  -24.6840  -11.7470   20.7800 C   0  0  0  0  0  0  0  0  0  0  0  0
  -26.3240  -13.0000   20.2010 N   0  0  0  0  0  0  0  0  0  0  0  0
  -25.9770  -11.7160   20.4800 N   0  0  0  0  0  0  0  0  0  0  0  0
  -23.9640  -10.4820   20.9770 C   0  0  0  0  0  0  0  0  0  0  0  0
  -24.3930   -9.5270   21.9260 C   0  0  0  0  0  3  0  0  0  0  0  0
  -23.6710   -8.3280   22.1120 C   0  0  0  0  0  3  0  0  0  0  0  0
  -22.5070   -8.0740   21.3480 C   0  0  0  0  0  0  0  0  0  0  0  0
  -22.0980   -9.0180   20.3900 C   0  0  0  0  0  3  0  0  0  0  0  0
  -22.8200  -10.2080   20.2010 C   0  0  0  0  0  3  0  0  0  0  0  0
  -21.7570   -6.9260   21.4430 O   0  0  0  0  0  0  0  0  0  0  0  0
  -21.6960   -6.2010   22.6050 C   0  0  0  0  0  0  0  0  0  0  0  0
  -21.2390   -6.7690   23.8140 C   0  0  0  0  0  3  0  0  0  0  0  0
  -21.1240   -5.9690   24.9690 C   0  0  0  0  0  3  0  0  0  0  0  0
  -21.4560   -4.6020   24.9160 C   0  0  0  0  0  0  0  0  0  0  0  0
  -21.9070   -4.0340   23.7100 C   0  0  0  0  0  3  0  0  0  0  0  0
  -22.0220   -4.8310   22.5580 C   0  0  0  0  0  0  0  0  0  0  0  0
  -22.4360   -4.2730   21.3950 F   0  0  0  0  0  0  0  0  0  0  0  0
  -21.3400   -3.8320   26.0220 F   0  0  0  0  0  0  0  0  0  0  0  0
  -22.8090  -13.5650   21.0500 C   0  0  0  0  0  0  0  0  0  0  0  0
  -22.0810  -12.8770   21.9220 N   0  0  0  0  0  0  0  0  0  0  0  0
  -22.3660  -14.5800   20.5110 O   0  0  0  0  0  0  0  0  0  0  0  0
  -22.4530  -12.0570   22.3790 H   0  0  0  0  0  0  0  0  0  0  0  0
  -21.1400  -13.1750   22.1370 H   0  0  0  0  0  0  0  0  0  0  0  0
  -25.4230  -15.2440   20.2370 N   0  0  0  0  0  0  0  0  0  0  0  0
  -24.6470  -15.8840   20.3560 H   0  0  0  0  0  0  0  0  0  0  0  0
  -26.2700  -15.7140   19.9410 H   0  0  0  0  0  0  0  0  0  0  0  0
  -28.5220  -25.0860   18.1630 C   0  0  0  0  0  1  0  0  0  0  0  0
  -28.1410  -24.9680   19.6520 C   0  0  0  0  0  3  0  0  0  0  0  0
  -28.2980  -26.3560   20.2390 O   0  0  0  0  0  0  0  0  0  0  0  0
  -24.6140  -31.8830   23.2460 C   0  0  0  0  0  0  0  0  0  0  0  0
  -27.2150  -27.2810   20.1620 C   0  0  0  0  0  0  0  0  0  0  0  0
  -23.4140  -30.4910   21.6050 C   0  0  0  0  0  3  0  0  0  0  0  0
  -24.8650  -28.9550   20.1640 C   0  0  0  0  0  0  0  0  0  0  0  0
  -25.9620  -30.7920   21.4310 C   0  0  0  0  0  2  0  0  0  0  0  0
  -26.0390  -29.4140   20.7730 C   0  0  0  0  0  0  0  0  0  0  0  0
  -27.2140  -28.5870   20.7690 C   0  0  0  0  0  3  0  0  0  0  0  0
  -26.0130  -26.9180   19.5040 C   0  0  0  0  0  3  0  0  0  0  0  0
  -24.8580  -27.7150   19.5200 C   0  0  0  0  0  3  0  0  0  0  0  0
  -23.6310  -29.8330   20.2190 C   0  0  0  0  0  2  0  0  0  0  0  0
  -24.6830  -31.0740   22.1490 N   0  0  0  0  0  0  0  0  0  0  0  0
  -23.5290  -32.1580   23.7800 O   0  0  0  0  0  0  0  0  0  0  0  0
  -22.7530  -29.4660   22.5580 C   0  0  0  0  0  0  0  0  0  0  0  0
  -21.4250  -29.2870   22.4330 N   0  0  0  0  0  0  0  0  0  0  0  0
  -23.4320  -28.8360   23.3720 O   0  0  0  0  0  0  0  0  0  0  0  0
  -20.9350  -29.8480   21.7500 H   0  0  0  0  0  0  0  0  0  0  0  0
  -18.0490  -28.0860   22.9420 C   0  0  0  0  0  0  0  0  0  0  0  0
  -20.6080  -28.3460   23.2020 C   0  0  0  0  0  3  0  0  0  0  0  0
  -20.7090  -26.9170   22.6190 C   0  0  0  0  0  2  0  0  0  0  0  0
  -19.6030  -26.6000   21.6080 C   0  0  0  0  0  2  0  0  0  0  0  0
  -18.2230  -26.7400   22.2580 C   0  0  0  0  0  2  0  0  0  0  0  0
  -19.1690  -28.8470   23.3710 C   0  0  0  0  0  0  0  0  0  0  0  0
  -18.9510  -30.1050   23.9710 C   0  0  0  0  0  3  0  0  0  0  0  0
  -17.6470  -30.6050   24.1460 C   0  0  0  0  0  3  0  0  0  0  0  0
  -16.5410  -29.8420   23.7320 C   0  0  0  0  0  3  0  0  0  0  0  0
  -16.7430  -28.5830   23.1350 C   0  0  0  0  0  3  0  0  0  0  0  0
  -25.8940  -32.5180   23.8700 C   0  0  0  0  0  3  0  0  0  0  0  0
  -25.5800  -33.9160   24.1980 N   0  0  0  0  0  0  0  0  0  0  0  0
  -25.9030  -34.9700   23.4360 C   0  0  0  0  0  0  0  0  0  0  0  0
  -26.5660  -34.8670   22.4010 O   0  0  0  0  0  0  0  0  0  0  0  0
  -24.9910  -34.0710   25.0030 H   0  0  0  0  0  0  0  0  0  0  0  0
  -24.1670  -36.7580   23.0950 C   0  0  0  0  0  1  0  0  0  0  0  0
  -25.4160  -36.3580   23.8960 C   0  0  0  0  0  3  0  0  0  0  0  0
  -27.5530  -37.2520   24.7120 C   0  0  0  0  0  1  0  0  0  0  0  0
  -26.4440  -37.4140   23.7740 N   0  0  0  0  0  0  0  0  0  0  0  0
  -26.0370  -38.3330   23.9210 H   0  0  0  0  0  0  0  0  0  0  0  0
  -26.4060  -31.7500   25.1500 C   0  0  1  0  0  0  0  0  0  0  0  0
  -25.3100  -31.5140   26.2140 C   0  0  0  0  0  1  0  0  0  0  0  0
  -26.9930  -30.3710   24.7650 C   0  0  0  0  0  1  0  0  0  0  0  0
  -27.5540  -32.5470   25.8130 C   0  0  0  0  0  1  0  0  0  0  0  0
  1  3  2  0
  2  8  1  0
  2  1  1  0
  4  2  1  0
  5  8  2  0
  5  6  1  0
  6  7  2  0
  7 10  1  0
  7 19  1  0
  8 10  1  0
  9  6  1  0
 11 20  1  0
 12 17  1  0
 13 14  1  0
 13 12  1  0
 15 14  1  0
 15 26  1  0
 15 16  1  0
 17 11  1  0
 17 16  1  0
 18 11  2  0
 19 21  2  0
 20 19  1  0
 20 22  1  0
 23 24  2  0
 24 43  1  0
 25 24  1  0
 25 28  1  0
 26 23  1  0
 26 27  1  0
 27 25  2  0
 28 29  1  0
 29 30  2  0
 31 34  1  0
 31 30  1  0
 32 31  2  0
 33 32  1  0
 33 28  2  0
 34 35  1  0
 35 36  1  0
 36 37  2  0
 38 37  1  0
 38 42  1  0
 39 38  2  0
 40 35  2  0
 40 39  1  0
 41 40  1  0
 43 44  1  0
 44 47  1  0
 44 46  1  0
 45 43  2  0
 48 49  1  0
 48 23  1  0
 50 48  1  0
 52 51  1  0
 52 53  1  0
 52  1  1  0
 54 65  2  0
 55 53  1  0
 55 60  1  0
 56 64  1  0
 56 66  1  0
 57 63  1  0
 57 59  1  0
 58 64  1  0
 59 58  1  0
 60 59  2  0
 61 62  1  0
 61 55  2  0
 62 57  2  0
 63 56  1  0
 64 54  1  0
 66 68  2  0
 67 66  1  0
 69 67  1  0
 70 79  2  0
 70 75  1  0
 71 67  1  0
 71 75  1  0
 72 71  1  0
 73 74  1  0
 73 72  1  0
 74 70  1  0
 75 76  2  0
 76 77  1  0
 78 77  2  0
 79 78  1  0
 80 54  1  0
 80 81  1  0
 80 90  1  0
 81 84  1  0
 82 86  1  0
 82 81  1  0
 83 82  2  0
 86 85  1  0
 88 86  1  0
 88 89  1  0
 88 87  1  0
 90 93  1  1
 90 91  1  0
 92 90  1  0
M  ISO  4  11 100  20 100  52 101  53 101
M  END
>  <TORSDO>  (4) 
F 18

>  <SCORE>  (4) 
-14.791

>  <name>  (4) 
3

>  <ligand_id>  (4) 
3

>  <original_smiles>  (4) 
[H]c1c([H])c([H])c2c(c1[H])C([H])([H])C([H])([H])C([H])([H])C2([H])N([H])C(=O)C1([H])N(C(=O)C([H])(N([H])C(=O)C([H])(N([H])C([H])([H])[H])C([H])([H])[H])C(C([H])([H])[H])(C([H])([H])[H])C([H])([H])[H])C([H])([H])c2c([H])c(OC([H])(C(=O)N([H])c3sc(C(=O)N([H])C(=O)N4C([H])([H])C([H])([H])C([H])([H])C([H])(n5nc(-c6c([H])c([H])c(Oc7c([H])c([H])c(F)c([H])c7F)c([H])c6[H])c(C(=O)N([H])[H])c5N([H])[H])C4([H])[H])c(F)c3[H])C([H])([H])[H])c([H])c([H])c2C1([H])[H]

>  <smiles>  (4) 
[H]c1c([H])c([H])c2c(c1[H])C([H])([H])C([H])([H])C([H])([H])C2([H])N([H])C(=O)C1([H])N(C(=O)C([H])(N([H])C(=O)C([H])(N([H])C([H])([H])[H])C([H])([H])[H])C(C([H])([H])[H])(C([H])([H])[H])C([H])([H])[H])C([H])([H])c2c([H])c(OC([H])(C(=O)N([H])c3sc(C(=O)N([H])C(=O)N4C([H])([H])C([H])([H])C([H])([H])C([H])(n5nc(-c6c([H])c([H])c(Oc7c([H])c([H])c(F)c([H])c7F)c([H])c6[H])c(C(=O)N([H])[H])c5N([H])[H])C4([H])[H])c(F)c3[H])C([H])([H])[H])c([H])c([H])c2C1([H])[H]

$$$$
4:0:0
     RDKit          3D

 95103  0  0  1  0  0  0  0  0999 V2000
  -28.5920  -23.3440   20.3600 C   0  0  0  0  0  0  0  0  0  0  0  0
  -28.6480  -22.1050   20.9320 N   0  0  0  0  0  0  0  0  0  0  0  0
  -29.0550  -23.5690   19.2390 O   0  0  0  0  0  0  0  0  0  0  0  0
  -28.3570  -22.0690   21.9000 H   0  0  0  0  0  0  0  0  0  0  0  0
  -29.0240  -20.5710   19.0210 C   0  0  0  0  0  3  0  0  0  0  0  0
  -29.4080  -19.2240   18.7230 C   0  0  0  0  0  0  0  0  0  0  0  0
  -29.6930  -18.4800   19.8480 C   0  0  0  0  0  0  0  0  0  0  0  0
  -28.9880  -20.9000   20.3570 C   0  0  0  0  0  0  0  0  0  0  0  0
  -29.3790  -19.4420   21.2930 S   0  0  0  0  0  0  0  0  0  0  0  0
  -29.4900  -18.6990   17.3140 C   0  0  1  0  0  0  0  0  0  0  0  0
  -29.0860  -19.6000   16.4190 F   0  0  0  0  0  0  0  0  0  0  0  0
  -30.7410  -18.3620   16.9950 F   0  0  0  0  0  0  0  0  0  0  0  0
  -28.7270  -17.6150   17.1540 F   0  0  0  0  0  0  0  0  0  0  0  0
  -30.1800  -17.1060   19.8120 C   0  0  0  0  0  3  0  0  0  0  0  0
  -30.0590  -15.9730   20.5600 C   0  0  0  0  0  3  0  0  0  0  0  0
  -30.8050  -14.7670   20.1310 C   0  0  0  0  0  0  0  0  0  0  0  0
  -30.4840  -12.5860   19.0260 C   0  0  0  0  0  2  0  0  0  0  0  0
  -29.5160  -12.7880   17.8410 C   0  0  0  0  0  2  0  0  0  0  0  0
  -28.0580  -12.6260   18.3050 C   0  0  0  0  0  2  0  0  0  0  0  0
  -27.7420  -13.4530   19.5820 C   0  0  0  0  0  3  0  0  0  0  0  0
  -28.8300  -13.2660   20.6590 C   0  0  0  0  0  2  0  0  0  0  0  0
  -30.1310  -13.5810   20.0590 N   0  0  0  0  0  0  0  0  0  0  0  0
  -31.9510  -14.8640   19.6830 O   0  0  0  0  0  0  0  0  0  0  0  0
  -25.3670  -14.0200   20.3850 C   0  0  0  0  0  0  0  0  0  0  0  0
  -24.3200  -13.2330   20.7810 C   0  0  0  0  0  0  0  0  0  0  0  0
  -24.7950  -11.8860   20.7180 C   0  0  0  0  0  0  0  0  0  0  0  0
  -26.4110  -13.1550   20.1040 N   0  0  0  0  0  0  0  0  0  0  0  0
  -26.0740  -11.8640   20.3660 N   0  0  0  0  0  0  0  0  0  0  0  0
  -24.0870  -10.6140   20.9190 C   0  0  0  0  0  0  0  0  0  0  0  0
  -24.5220   -9.6730   21.8780 C   0  0  0  0  0  3  0  0  0  0  0  0
  -23.8160   -8.4650   22.0660 C   0  0  0  0  0  3  0  0  0  0  0  0
  -22.6580   -8.1920   21.2970 C   0  0  0  0  0  0  0  0  0  0  0  0
  -22.2450   -9.1210   20.3280 C   0  0  0  0  0  3  0  0  0  0  0  0
  -22.9520  -10.3210   20.1370 C   0  0  0  0  0  3  0  0  0  0  0  0
  -21.9270   -7.0320   21.3920 O   0  0  0  0  0  0  0  0  0  0  0  0
  -21.8200   -6.3420   22.5730 C   0  0  0  0  0  0  0  0  0  0  0  0
  -21.2600   -6.9250   23.7310 C   0  0  0  0  0  3  0  0  0  0  0  0
  -21.1080   -6.1560   24.9020 C   0  0  0  0  0  3  0  0  0  0  0  0
  -21.5050   -4.8050   24.9140 C   0  0  0  0  0  0  0  0  0  0  0  0
  -22.0570   -4.2220   23.7600 C   0  0  0  0  0  3  0  0  0  0  0  0
  -22.2140   -4.9880   22.5920 C   0  0  0  0  0  0  0  0  0  0  0  0
  -22.7260   -4.4150   21.4760 F   0  0  0  0  0  0  0  0  0  0  0  0
  -21.3540   -4.0640   26.0370 F   0  0  0  0  0  0  0  0  0  0  0  0
  -22.9280  -13.6930   21.1060 C   0  0  0  0  0  0  0  0  0  0  0  0
  -22.2320  -12.9760   21.9820 N   0  0  0  0  0  0  0  0  0  0  0  0
  -22.4640  -14.7210   20.6150 O   0  0  0  0  0  0  0  0  0  0  0  0
  -22.6230  -12.1480   22.4060 H   0  0  0  0  0  0  0  0  0  0  0  0
  -21.2980  -13.2650   22.2330 H   0  0  0  0  0  0  0  0  0  0  0  0
  -25.5170  -15.3950   20.2200 N   0  0  0  0  0  0  0  0  0  0  0  0
  -24.7600  -16.0450   20.3970 H   0  0  0  0  0  0  0  0  0  0  0  0
  -26.3640  -15.8520   19.9040 H   0  0  0  0  0  0  0  0  0  0  0  0
  -27.4730  -24.1490   22.5520 C   0  0  0  0  0  1  0  0  0  0  0  0
  -27.9120  -24.5300   21.1220 C   0  0  0  0  0  3  0  0  0  0  0  0
  -28.7130  -25.8850   21.1350 C   0  0  0  0  0  2  0  0  0  0  0  0
  -28.4990  -26.8130   20.0490 O   0  0  0  0  0  0  0  0  0  0  0  0
  -24.6070  -31.9450   23.1990 C   0  0  0  0  0  0  0  0  0  0  0  0
  -27.3430  -27.5670   20.0950 C   0  0  0  0  0  0  0  0  0  0  0  0
  -23.4440  -30.5620   21.5100 C   0  0  0  0  0  3  0  0  0  0  0  0
  -24.9400  -29.0640   20.0830 C   0  0  0  0  0  0  0  0  0  0  0  0
  -25.9720  -30.9450   21.3660 C   0  0  0  0  0  2  0  0  0  0  0  0
  -26.0840  -29.5830   20.7060 C   0  0  0  0  0  0  0  0  0  0  0  0
  -27.2900  -28.8420   20.7100 C   0  0  0  0  0  3  0  0  0  0  0  0
  -26.1900  -27.0710   19.4550 C   0  0  0  0  0  3  0  0  0  0  0  0
  -24.9880  -27.8060   19.4560 C   0  0  0  0  0  3  0  0  0  0  0  0
  -23.6870  -29.9110   20.1230 C   0  0  0  0  0  2  0  0  0  0  0  0
  -24.6920  -31.1650   22.0840 N   0  0  0  0  0  0  0  0  0  0  0  0
  -23.5140  -32.1940   23.7260 O   0  0  0  0  0  0  0  0  0  0  0  0
  -22.7870  -29.5180   22.4400 C   0  0  0  0  0  0  0  0  0  0  0  0
  -21.4640  -29.3330   22.2930 N   0  0  0  0  0  0  0  0  0  0  0  0
  -23.4630  -28.8780   23.2490 O   0  0  0  0  0  0  0  0  0  0  0  0
  -20.9780  -29.9000   21.6110 H   0  0  0  0  0  0  0  0  0  0  0  0
  -18.0850  -28.1430   22.7520 C   0  0  0  0  0  0  0  0  0  0  0  0
  -20.6440  -28.3740   23.0330 C   0  0  0  0  0  3  0  0  0  0  0  0
  -20.7370  -26.9630   22.4070 C   0  0  0  0  0  2  0  0  0  0  0  0
  -19.6330  -26.6840   21.3840 C   0  0  0  0  0  2  0  0  0  0  0  0
  -18.2510  -26.8160   22.0320 C   0  0  0  0  0  2  0  0  0  0  0  0
  -19.2080  -28.8810   23.2090 C   0  0  0  0  0  0  0  0  0  0  0  0
  -18.9990  -30.1240   23.8430 C   0  0  0  0  0  3  0  0  0  0  0  0
  -17.6960  -30.6290   24.0250 C   0  0  0  0  0  3  0  0  0  0  0  0
  -16.5880  -29.8870   23.5850 C   0  0  0  0  0  3  0  0  0  0  0  0
  -16.7830  -28.6450   22.9560 C   0  0  0  0  0  3  0  0  0  0  0  0
  -25.8740  -32.5770   23.8540 C   0  0  0  0  0  3  0  0  0  0  0  0
  -25.5530  -33.9740   24.1770 N   0  0  0  0  0  0  0  0  0  0  0  0
  -25.9120  -35.0280   23.4320 C   0  0  0  0  0  0  0  0  0  0  0  0
  -26.6160  -34.9280   22.4240 O   0  0  0  0  0  0  0  0  0  0  0  0
  -24.9170  -34.1270   24.9470 H   0  0  0  0  0  0  0  0  0  0  0  0
  -24.2070  -36.8300   23.0160 C   0  0  0  0  0  1  0  0  0  0  0  0
  -25.4100  -36.4150   23.8780 C   0  0  0  0  0  3  0  0  0  0  0  0
  -27.5060  -37.2910   24.8120 C   0  0  0  0  0  1  0  0  0  0  0  0
  -26.4520  -37.4650   23.8170 N   0  0  0  0  0  0  0  0  0  0  0  0
  -26.0420  -38.3880   23.9440 H   0  0  0  0  0  0  0  0  0  0  0  0
  -26.3590  -31.8040   25.1400 C   0  0  1  0  0  0  0  0  0  0  0  0
  -25.2390  -31.5630   26.1780 C   0  0  0  0  0  1  0  0  0  0  0  0
  -26.9540  -30.4290   24.7570 C   0  0  0  0  0  1  0  0  0  0  0  0
  -27.4890  -32.6000   25.8330 C   0  0  0  0  0  1  0  0  0  0  0  0
  1  2  1  0
  1 53  1  0
  2  4  1  0
  3  1  2  0
  5  8  2  0
  6  5  1  0
  6  7  2  0
  7  9  1  0
  8  2  1  0
  8  9  1  0
 10  6  1  0
 10 11  1  6
 12 10  1  0
 13 10  1  0
 14  7  1  0
 14 15  2  0
 16 15  1  0
 17 22  1  0
 18 19  1  0
 18 17  1  0
 20 19  1  0
 20 27  1  0
 20 21  1  0
 22 16  1  0
 22 21  1  0
 23 16  2  0
 24 25  2  0
 25 44  1  0
 26 25  1  0
 26 29  1  0
 27 28  1  0
 27 24  1  0
 28 26  2  0
 29 30  1  0
 30 31  2  0
 32 35  1  0
 32 31  1  0
 33 32  2  0
 34 33  1  0
 34 29  2  0
 35 36  1  0
 36 41  2  0
 36 37  1  0
 37 38  2  0
 38 39  1  0
 39 43  1  0
 40 39  2  0
 41 40  1  0
 42 41  1  0
 44 45  1  0
 45 48  1  0
 45 47  1  0
 46 44  2  0
 49 24  1  0
 49 50  1  0
 51 49  1  0
 53 54  1  0
 53 52  1  0
 55 57  1  0
 55 54  1  0
 56 67  2  0
 57 62  1  0
 58 66  1  0
 58 68  1  0
 59 65  1  0
 59 61  1  0
 60 66  1  0
 61 62  2  0
 61 60  1  0
 63 64  1  0
 63 57  2  0
 64 59  2  0
 65 58  1  0
 66 56  1  0
 68 70  2  0
 69 68  1  0
 71 69  1  0
 72 81  2  0
 72 77  1  0
 73 69  1  0
 73 77  1  0
 74 73  1  0
 75 76  1  0
 75 74  1  0
 76 72  1  0
 77 78  2  0
 78 79  1  0
 80 79  2  0
 81 80  1  0
 82 56  1  0
 82 83  1  0
 82 92  1  0
 83 86  1  0
 84 88  1  0
 84 83  1  0
 85 84  2  0
 88 87  1  0
 90 88  1  0
 90 91  1  0
 90 89  1  0
 92 95  1  1
 92 93  1  0
 94 92  1  0
M  ISO  4  15 100  16 100  54 101  55 101
M  END
>  <TORSDO>  (5) 
F 21

>  <SCORE>  (5) 
-12.660

>  <name>  (5) 
4

>  <ligand_id>  (5) 
4

>  <original_smiles>  (5) 
[H]C(C(=O)N1C([H])([H])C([H])([H])C([H])([H])C([H])(n2nc(-c3c([H])c([H])c(Oc4c([H])c([H])c(F)c([H])c4F)c([H])c3[H])c(C(=O)N([H])[H])c2N([H])[H])C1([H])[H])=C([H])c1sc(N([H])C(=O)C([H])(C([H])([H])[H])C([H])([H])Oc2c([H])c([H])c3c(c2[H])C([H])([H])N(C(=O)C([H])(N([H])C(=O)C([H])(N([H])C([H])([H])[H])C([H])([H])[H])C(C([H])([H])[H])(C([H])([H])[H])C([H])([H])[H])C([H])(C(=O)N([H])C2([H])c4c([H])c([H])c([H])c([H])c4C([H])([H])C([H])([H])C2([H])[H])C3([H])[H])c([H])c1C(F)(F)F

>  <smiles>  (5) 
[H]C(C(=O)N1C([H])([H])C([H])([H])C([H])([H])C([H])(n2nc(-c3c([H])c([H])c(Oc4c([H])c([H])c(F)c([H])c4F)c([H])c3[H])c(C(=O)N([H])[H])c2N([H])[H])C1([H])[H])=C([H])c1sc(N([H])C(=O)C([H])(C([H])([H])[H])C([H])([H])Oc2c([H])c([H])c3c(c2[H])C([H])([H])N(C(=O)C([H])(N([H])C(=O)C([H])(N([H])C([H])([H])[H])C([H])([H])[H])C(C([H])([H])[H])(C([H])([H])[H])C([H])([H])[H])C([H])(C(=O)N([H])C2([H])c4c([H])c([H])c([H])c([H])c4C([H])([H])C([H])([H])C2([H])[H])C3([H])[H])c([H])c1C(F)(F)F

$$$$
5:0:0
     RDKit          3D

 92100  0  0  1  0  0  0  0  0999 V2000
  -30.6670  -18.2040   19.5190 C   0  0  0  0  0  3  0  0  0  0  0  0
  -29.9940  -17.3930   20.4300 C   0  0  0  0  0  0  0  0  0  0  0  0
  -29.6370  -20.0330   20.5980 C   0  0  0  0  0  0  0  0  0  0  0  0
  -29.2360  -22.6840   20.3790 C   0  0  0  0  0  0  0  0  0  0  0  0
  -29.2920  -21.4980   22.5320 C   0  0  0  0  0  1  0  0  0  0  0  0
  -30.4650  -19.6310   19.6110 N   0  0  0  0  0  0  0  0  0  0  0  0
  -29.3390  -21.4400   21.0590 N   0  0  0  0  0  0  0  0  0  0  0  0
  -29.9140  -22.9190   19.3760 O   0  0  0  0  0  0  0  0  0  0  0  0
  -29.0620  -18.5360   21.4520 S   0  0  0  0  0  0  0  0  0  0  0  0
  -30.6550  -14.8880   20.1650 C   0  0  0  0  0  0  0  0  0  0  0  0
  -30.4340  -12.6110   19.1290 C   0  0  0  0  0  2  0  0  0  0  0  0
  -29.4580  -12.7000   17.9340 C   0  0  0  0  0  2  0  0  0  0  0  0
  -27.9990  -12.5290   18.4010 C   0  0  0  0  0  2  0  0  0  0  0  0
  -27.6690  -13.3960   19.6450 C   0  0  0  0  0  3  0  0  0  0  0  0
  -28.7600  -13.2780   20.7340 C   0  0  0  0  0  2  0  0  0  0  0  0
  -30.0420  -13.6490   20.1160 N   0  0  0  0  0  0  0  0  0  0  0  0
  -31.8060  -15.0160   19.7360 O   0  0  0  0  0  0  0  0  0  0  0  0
  -29.8990  -15.9830   20.5870 N   0  0  0  0  0  0  0  0  0  0  0  0
  -29.0590  -15.6900   21.0600 H   0  0  0  0  0  0  0  0  0  0  0  0
  -25.3060  -13.9990   20.4410 C   0  0  0  0  0  0  0  0  0  0  0  0
  -24.2420  -13.2310   20.8300 C   0  0  0  0  0  0  0  0  0  0  0  0
  -24.6910  -11.8760   20.7700 C   0  0  0  0  0  0  0  0  0  0  0  0
  -26.3350  -13.1120   20.1660 N   0  0  0  0  0  0  0  0  0  0  0  0
  -25.9720  -11.8290   20.4270 N   0  0  0  0  0  0  0  0  0  0  0  0
  -23.9550  -10.6200   20.9650 C   0  0  0  0  0  0  0  0  0  0  0  0
  -24.3800   -9.6520   21.9030 C   0  0  0  0  0  3  0  0  0  0  0  0
  -23.6450   -8.4610   22.0860 C   0  0  0  0  0  3  0  0  0  0  0  0
  -22.4700   -8.2280   21.3320 C   0  0  0  0  0  0  0  0  0  0  0  0
  -22.0640   -9.1840   20.3840 C   0  0  0  0  0  3  0  0  0  0  0  0
  -22.7990  -10.3660   20.2000 C   0  0  0  0  0  3  0  0  0  0  0  0
  -21.7070   -7.0890   21.4250 O   0  0  0  0  0  0  0  0  0  0  0  0
  -21.6260   -6.3700   22.5900 C   0  0  0  0  0  0  0  0  0  0  0  0
  -21.1480   -6.9440   23.7890 C   0  0  0  0  0  3  0  0  0  0  0  0
  -21.0140   -6.1500   24.9450 C   0  0  0  0  0  3  0  0  0  0  0  0
  -21.3490   -4.7840   24.9050 C   0  0  0  0  0  0  0  0  0  0  0  0
  -21.8210   -4.2090   23.7120 C   0  0  0  0  0  3  0  0  0  0  0  0
  -21.9560   -5.0000   22.5570 C   0  0  0  0  0  0  0  0  0  0  0  0
  -22.3900   -4.4360   21.4030 F   0  0  0  0  0  0  0  0  0  0  0  0
  -21.2150   -4.0190   26.0140 F   0  0  0  0  0  0  0  0  0  0  0  0
  -22.8580  -13.7200   21.1440 C   0  0  0  0  0  0  0  0  0  0  0  0
  -22.1440  -13.0180   22.0180 N   0  0  0  0  0  0  0  0  0  0  0  0
  -22.4180  -14.7570   20.6510 O   0  0  0  0  0  0  0  0  0  0  0  0
  -22.5140  -12.1790   22.4390 H   0  0  0  0  0  0  0  0  0  0  0  0
  -21.2160  -13.3250   22.2700 H   0  0  0  0  0  0  0  0  0  0  0  0
  -25.4790  -15.3710   20.2750 N   0  0  0  0  0  0  0  0  0  0  0  0
  -24.7200  -16.0290   20.4100 H   0  0  0  0  0  0  0  0  0  0  0  0
  -26.3160  -15.8040   19.9080 H   0  0  0  0  0  0  0  0  0  0  0  0
  -27.9690  -25.0740   20.8730 C   0  0  0  0  0  3  0  0  0  0  0  0
  -28.2110  -23.6850   20.9270 C   0  0  0  0  0  0  0  0  0  0  0  0
  -27.2220  -23.0740   21.6030 O   0  0  0  0  0  0  0  0  0  0  0  0
  -27.3970  -22.1430   21.5680 H   0  0  0  0  0  0  0  0  0  0  0  0
  -28.4450  -26.3140   20.3190 O   0  0  0  0  0  0  0  0  0  0  0  0
  -24.7080  -31.8760   23.2530 C   0  0  0  0  0  0  0  0  0  0  0  0
  -27.4330  -27.3160   20.2040 C   0  0  0  0  0  0  0  0  0  0  0  0
  -23.5550  -30.4670   21.5920 C   0  0  0  0  0  3  0  0  0  0  0  0
  -25.0580  -28.9530   20.1650 C   0  0  0  0  0  0  0  0  0  0  0  0
  -26.0990  -30.8090   21.4530 C   0  0  0  0  0  2  0  0  0  0  0  0
  -26.2150  -29.4330   20.7930 C   0  0  0  0  0  0  0  0  0  0  0  0
  -27.4060  -28.6230   20.8130 C   0  0  0  0  0  3  0  0  0  0  0  0
  -26.2600  -26.9410   19.5080 C   0  0  0  0  0  3  0  0  0  0  0  0
  -25.0880  -27.7170   19.5100 C   0  0  0  0  0  3  0  0  0  0  0  0
  -23.8040  -29.8080   20.2110 C   0  0  0  0  0  2  0  0  0  0  0  0
  -24.8060  -31.0710   22.1550 N   0  0  0  0  0  0  0  0  0  0  0  0
  -23.6120  -32.1320   23.7720 O   0  0  0  0  0  0  0  0  0  0  0  0
  -22.8940  -29.4340   22.5380 C   0  0  0  0  0  0  0  0  0  0  0  0
  -21.5750  -29.2220   22.3850 N   0  0  0  0  0  0  0  0  0  0  0  0
  -23.5710  -28.8270   23.3710 O   0  0  0  0  0  0  0  0  0  0  0  0
  -21.0850  -29.7660   21.6880 H   0  0  0  0  0  0  0  0  0  0  0  0
  -18.2200  -27.9370   22.8320 C   0  0  0  0  0  0  0  0  0  0  0  0
  -20.7680  -28.2640   23.1420 C   0  0  0  0  0  3  0  0  0  0  0  0
  -20.9130  -26.8360   22.5680 C   0  0  0  0  0  2  0  0  0  0  0  0
  -19.8370  -26.4860   21.5350 C   0  0  0  0  0  2  0  0  0  0  0  0
  -18.4420  -26.5940   22.1570 C   0  0  0  0  0  2  0  0  0  0  0  0
  -19.3120  -28.7270   23.2810 C   0  0  0  0  0  0  0  0  0  0  0  0
  -19.0490  -29.9820   23.8730 C   0  0  0  0  0  3  0  0  0  0  0  0
  -17.7290  -30.4490   24.0200 C   0  0  0  0  0  3  0  0  0  0  0  0
  -16.6530  -29.6560   23.5850 C   0  0  0  0  0  3  0  0  0  0  0  0
  -16.8990  -28.4020   22.9970 C   0  0  0  0  0  3  0  0  0  0  0  0
  -25.9680  -32.5340   23.8950 C   0  0  0  0  0  3  0  0  0  0  0  0
  -25.6300  -33.9300   24.2130 N   0  0  0  0  0  0  0  0  0  0  0  0
  -25.9350  -34.9830   23.4440 C   0  0  0  0  0  0  0  0  0  0  0  0
  -26.6000  -34.8830   22.4090 O   0  0  0  0  0  0  0  0  0  0  0  0
  -25.0360  -34.0790   25.0150 H   0  0  0  0  0  0  0  0  0  0  0  0
  -24.1610  -36.7330   23.0950 C   0  0  0  0  0  1  0  0  0  0  0  0
  -25.4240  -36.3660   23.8920 C   0  0  0  0  0  3  0  0  0  0  0  0
  -27.5480  -37.3110   24.6830 C   0  0  0  0  0  1  0  0  0  0  0  0
  -26.4310  -37.4410   23.7510 N   0  0  0  0  0  0  0  0  0  0  0  0
  -26.0060  -38.3540   23.8870 H   0  0  0  0  0  0  0  0  0  0  0  0
  -26.4700  -31.7800   25.1870 C   0  0  1  0  0  0  0  0  0  0  0  0
  -25.3580  -31.5350   26.2360 C   0  0  0  0  0  1  0  0  0  0  0  0
  -27.0800  -30.4070   24.8210 C   0  0  0  0  0  1  0  0  0  0  0  0
  -27.5950  -32.5950   25.8660 C   0  0  0  0  0  1  0  0  0  0  0  0
  1  6  1  0
  1  2  2  0
  2 18  1  0
  2  9  1  0
  3  7  1  0
  3  9  1  0
  4 49  1  0
  4  7  1  0
  6  3  2  0
  7  5  1  0
  8  4  2  0
 10 18  1  0
 11 16  1  0
 12 13  1  0
 12 11  1  0
 14 13  1  0
 14 23  1  0
 14 15  1  0
 16 10  1  0
 16 15  1  0
 17 10  2  0
 18 19  1  0
 20 21  2  0
 21 40  1  0
 22 21  1  0
 22 25  1  0
 23 24  1  0
 23 20  1  0
 24 22  2  0
 25 26  1  0
 26 27  2  0
 28 31  1  0
 28 27  1  0
 29 28  2  0
 30 29  1  0
 30 25  2  0
 31 32  1  0
 32 33  1  0
 33 34  2  0
 35 34  1  0
 35 39  1  0
 36 35  2  0
 37 32  2  0
 37 36  1  0
 38 37  1  0
 40 41  1  0
 41 44  1  0
 41 43  1  0
 42 40  2  0
 45 46  1  0
 45 20  1  0
 47 45  1  0
 48 49  2  0
 49 50  1  0
 51 50  1  0
 52 48  1  0
 53 64  2  0
 54 52  1  0
 54 59  1  0
 55 63  1  0
 55 65  1  0
 56 62  1  0
 56 58  1  0
 57 63  1  0
 58 59  2  0
 58 57  1  0
 60 61  1  0
 60 54  2  0
 61 56  2  0
 62 55  1  0
 63 53  1  0
 65 67  2  0
 66 65  1  0
 68 66  1  0
 69 78  2  0
 69 74  1  0
 70 66  1  0
 70 74  1  0
 71 70  1  0
 72 73  1  0
 72 71  1  0
 73 69  1  0
 74 75  2  0
 75 76  1  0
 77 76  2  0
 78 77  1  0
 79 53  1  0
 79 80  1  0
 79 89  1  0
 80 83  1  0
 81 85  1  0
 81 80  1  0
 82 81  2  0
 85 84  1  0
 87 88  1  0
 87 85  1  0
 87 86  1  0
 89 92  1  1
 89 90  1  0
 91 89  1  0
M  ISO  4  10 100  18 100  48 101  52 101
M  END
>  <TORSDO>  (6) 
F 18

>  <SCORE>  (6) 
-14.095

>  <name>  (6) 
5

>  <ligand_id>  (6) 
5

>  <original_smiles>  (6) 
[H]OC(C(=O)N(c1nc([H])c(N([H])C(=O)N2C([H])([H])C([H])([H])C([H])([H])C([H])(n3nc(-c4c([H])c([H])c(Oc5c([H])c([H])c(F)c([H])c5F)c([H])c4[H])c(C(=O)N([H])[H])c3N([H])[H])C2([H])[H])s1)C([H])([H])[H])=C([H])Oc1c([H])c([H])c2c(c1[H])C([H])([H])N(C(=O)C([H])(N([H])C(=O)C([H])(N([H])C([H])([H])[H])C([H])([H])[H])C(C([H])([H])[H])(C([H])([H])[H])C([H])([H])[H])C([H])(C(=O)N([H])C1([H])c3c([H])c([H])c([H])c([H])c3C([H])([H])C([H])([H])C1([H])[H])C2([H])[H]

>  <smiles>  (6) 
[H]OC(C(=O)N(c1nc([H])c(N([H])C(=O)N2C([H])([H])C([H])([H])C([H])([H])C([H])(n3nc(-c4c([H])c([H])c(Oc5c([H])c([H])c(F)c([H])c5F)c([H])c4[H])c(C(=O)N([H])[H])c3N([H])[H])C2([H])[H])s1)C([H])([H])[H])=C([H])Oc1c([H])c([H])c2c(c1[H])C([H])([H])N(C(=O)C([H])(N([H])C(=O)C([H])(N([H])C([H])([H])[H])C([H])([H])[H])C(C([H])([H])[H])(C([H])([H])[H])C([H])([H])[H])C([H])(C(=O)N([H])C1([H])c3c([H])c([H])c([H])c([H])c3C([H])([H])C([H])([H])C1([H])[H])C2([H])[H]

$$$$
6:0:0
     RDKit          3D

 95103  0  0  1  0  0  0  0  0999 V2000
  -30.6200  -14.7750   20.4330 C   0  0  0  0  0  0  0  0  0  0  0  0
  -30.4060  -12.5020   19.4310 C   0  0  0  0  0  2  0  0  0  0  0  0
  -29.5080  -12.6270   18.1810 C   0  0  0  0  0  2  0  0  0  0  0  0
  -28.0230  -12.4750   18.5690 C   0  0  0  0  0  2  0  0  0  0  0  0
  -27.6360  -13.3510   19.7930 C   0  0  0  0  0  3  0  0  0  0  0  0
  -28.6640  -13.2290   20.9400 C   0  0  0  0  0  2  0  0  0  0  0  0
  -29.9850  -13.5530   20.3840 N   0  0  0  0  0  0  0  0  0  0  0  0
  -31.8040  -14.8580   20.0960 O   0  0  0  0  0  0  0  0  0  0  0  0
  -29.6530  -19.6760   20.2310 C   0  0  0  0  0  0  0  0  0  0  0  0
  -30.7320  -19.5570   19.3580 C   0  0  0  0  0  0  0  0  0  0  0  0
  -30.0770  -17.3100   20.3420 C   0  0  0  0  0  0  0  0  0  0  0  0
  -29.3150  -18.3640   20.7630 N   0  0  0  0  0  0  0  0  0  0  0  0
  -29.8570  -15.8960   20.7120 N   0  0  0  0  0  0  0  0  0  0  0  0
  -31.2970  -17.8760   19.2160 S   0  0  0  0  0  0  0  0  0  0  0  0
  -28.9510  -15.6980   21.1010 H   0  0  0  0  0  0  0  0  0  0  0  0
  -25.2320  -13.9680   20.4490 C   0  0  0  0  0  0  0  0  0  0  0  0
  -24.1530  -13.2070   20.8060 C   0  0  0  0  0  0  0  0  0  0  0  0
  -24.6060  -11.8530   20.8050 C   0  0  0  0  0  0  0  0  0  0  0  0
  -26.2760  -13.0790   20.2510 N   0  0  0  0  0  0  0  0  0  0  0  0
  -25.9040  -11.8020   20.5250 N   0  0  0  0  0  0  0  0  0  0  0  0
  -23.8660  -10.5980   20.9980 C   0  0  0  0  0  0  0  0  0  0  0  0
  -24.2760   -9.6360   21.9470 C   0  0  0  0  0  3  0  0  0  0  0  0
  -23.5370   -8.4470   22.1280 C   0  0  0  0  0  3  0  0  0  0  0  0
  -22.3740   -8.2100   21.3570 C   0  0  0  0  0  0  0  0  0  0  0  0
  -21.9810   -9.1610   20.3990 C   0  0  0  0  0  3  0  0  0  0  0  0
  -22.7210  -10.3430   20.2160 C   0  0  0  0  0  3  0  0  0  0  0  0
  -21.6080   -7.0720   21.4430 O   0  0  0  0  0  0  0  0  0  0  0  0
  -21.5440   -6.3360   22.5990 C   0  0  0  0  0  0  0  0  0  0  0  0
  -21.1230   -6.9020   23.8210 C   0  0  0  0  0  3  0  0  0  0  0  0
  -21.0020   -6.0930   24.9680 C   0  0  0  0  0  3  0  0  0  0  0  0
  -21.2940   -4.7170   24.8930 C   0  0  0  0  0  0  0  0  0  0  0  0
  -21.7090   -4.1500   23.6760 C   0  0  0  0  0  3  0  0  0  0  0  0
  -21.8300   -4.9570   22.5310 C   0  0  0  0  0  0  0  0  0  0  0  0
  -22.2090   -4.4010   21.3540 F   0  0  0  0  0  0  0  0  0  0  0  0
  -21.1730   -3.9370   25.9930 F   0  0  0  0  0  0  0  0  0  0  0  0
  -22.7540  -13.6990   21.0400 C   0  0  0  0  0  0  0  0  0  0  0  0
  -22.0010  -13.0240   21.9010 N   0  0  0  0  0  0  0  0  0  0  0  0
  -22.3360  -14.7190   20.4920 O   0  0  0  0  0  0  0  0  0  0  0  0
  -22.3530  -12.2020   22.3690 H   0  0  0  0  0  0  0  0  0  0  0  0
  -21.0610  -13.3360   22.0970 H   0  0  0  0  0  0  0  0  0  0  0  0
  -25.4080  -15.3350   20.2560 N   0  0  0  0  0  0  0  0  0  0  0  0
  -24.6320  -15.9850   20.3220 H   0  0  0  0  0  0  0  0  0  0  0  0
  -26.2590  -15.7710   19.9250 H   0  0  0  0  0  0  0  0  0  0  0  0
  -32.6000  -20.7210   18.3020 C   0  0  0  0  0  0  0  0  0  0  0  0
  -32.9240  -21.9690   17.4920 C   0  0  0  0  0  1  0  0  0  0  0  0
  -31.3110  -20.5560   18.6320 N   0  0  0  0  0  0  0  0  0  0  0  0
  -33.5090  -19.9570   18.6360 O   0  0  0  0  0  0  0  0  0  0  0  0
  -30.6880  -21.3060   18.3350 H   0  0  0  0  0  0  0  0  0  0  0  0
  -28.9460  -20.9790   20.6610 C   0  0  0  0  0  0  0  0  0  0  0  0
  -28.2720  -21.0120   21.7000 O   0  0  0  0  0  0  0  0  0  0  0  0
  -28.9720  -22.3870   19.8180 C   0  0  0  0  0  0  0  0  0  0  0  0
  -29.1770  -22.3670   18.5970 O   0  0  0  0  0  0  0  0  0  0  0  0
  -28.6910  -23.8040   20.5070 C   0  0  0  0  0  3  0  0  0  0  0  0
  -28.5150  -25.1190   19.5820 C   0  0  0  0  0  3  0  0  0  0  0  0
  -28.4150  -26.5080   20.1480 O   0  0  0  0  0  0  0  0  0  0  0  0
  -24.5880  -31.8680   23.1630 C   0  0  0  0  0  0  0  0  0  0  0  0
  -27.2660  -27.3270   20.0840 C   0  0  0  0  0  0  0  0  0  0  0  0
  -23.4090  -30.4610   21.5140 C   0  0  0  0  0  3  0  0  0  0  0  0
  -24.8830  -28.9340   20.0820 C   0  0  0  0  0  0  0  0  0  0  0  0
  -25.9470  -30.8040   21.3430 C   0  0  0  0  0  2  0  0  0  0  0  0
  -26.0450  -29.4280   20.6840 C   0  0  0  0  0  0  0  0  0  0  0  0
  -27.2340  -28.6350   20.6750 C   0  0  0  0  0  3  0  0  0  0  0  0
  -26.0690  -26.8870   19.4730 C   0  0  0  0  0  3  0  0  0  0  0  0
  -24.8980  -27.6720   19.4700 C   0  0  0  0  0  3  0  0  0  0  0  0
  -23.6340  -29.7920   20.1330 C   0  0  0  0  0  2  0  0  0  0  0  0
  -24.6680  -31.0620   22.0630 N   0  0  0  0  0  0  0  0  0  0  0  0
  -23.4990  -32.1300   23.6950 O   0  0  0  0  0  0  0  0  0  0  0  0
  -22.7570  -29.4330   22.4690 C   0  0  0  0  0  0  0  0  0  0  0  0
  -21.4280  -29.2580   22.3570 N   0  0  0  0  0  0  0  0  0  0  0  0
  -23.4440  -28.7940   23.2710 O   0  0  0  0  0  0  0  0  0  0  0  0
  -20.9320  -29.8250   21.6830 H   0  0  0  0  0  0  0  0  0  0  0  0
  -18.0540  -28.0720   22.8990 C   0  0  0  0  0  0  0  0  0  0  0  0
  -20.6180  -28.3110   23.1240 C   0  0  0  0  0  3  0  0  0  0  0  0
  -20.7000  -26.8900   22.5170 C   0  0  0  0  0  2  0  0  0  0  0  0
  -19.5770  -26.5960   21.5180 C   0  0  0  0  0  2  0  0  0  0  0  0
  -18.2090  -26.7360   22.1930 C   0  0  0  0  0  2  0  0  0  0  0  0
  -19.1850  -28.8200   23.3230 C   0  0  0  0  0  0  0  0  0  0  0  0
  -18.9870  -30.0710   23.9440 C   0  0  0  0  0  3  0  0  0  0  0  0
  -17.6880  -30.5760   24.1480 C   0  0  0  0  0  3  0  0  0  0  0  0
  -16.5720  -29.8250   23.7410 C   0  0  0  0  0  3  0  0  0  0  0  0
  -16.7550  -28.5760   23.1230 C   0  0  0  0  0  3  0  0  0  0  0  0
  -25.8590  -32.5160   23.7930 C   0  0  0  0  0  3  0  0  0  0  0  0
  -26.3870  -31.7420   25.0630 C   0  0  1  0  0  0  0  0  0  0  0  0
  -25.2960  -31.4830   26.1280 C   0  0  0  0  0  1  0  0  0  0  0  0
  -26.9900  -30.3760   24.6630 C   0  0  0  0  0  1  0  0  0  0  0  0
  -27.5290  -32.5460   25.7290 C   0  0  0  0  0  1  0  0  0  0  0  0
  -25.5250  -33.9060   24.1380 N   0  0  0  0  0  0  0  0  0  0  0  0
  -25.8410  -34.9740   23.3920 C   0  0  0  0  0  0  0  0  0  0  0  0
  -26.5110  -34.8910   22.3590 O   0  0  0  0  0  0  0  0  0  0  0  0
  -24.9250  -34.0420   24.9370 H   0  0  0  0  0  0  0  0  0  0  0  0
  -24.0850  -36.7430   23.0600 C   0  0  0  0  0  1  0  0  0  0  0  0
  -25.3340  -36.3490   23.8660 C   0  0  0  0  0  3  0  0  0  0  0  0
  -27.4550  -37.2570   24.7050 C   0  0  0  0  0  1  0  0  0  0  0  0
  -26.3500  -37.4190   23.7630 N   0  0  0  0  0  0  0  0  0  0  0  0
  -25.9300  -38.3310   23.9210 H   0  0  0  0  0  0  0  0  0  0  0  0
  1 13  1  0
  2  7  1  0
  3  4  1  0
  3  2  1  0
  5  4  1  0
  5 19  1  0
  5  6  1  0
  7  1  1  0
  7  6  1  0
  8  1  2  0
  9 49  1  0
  9 12  1  0
 10  9  2  0
 11 13  1  0
 11 12  2  0
 13 15  1  0
 14 10  1  0
 14 11  1  0
 16 17  2  0
 17 36  1  0
 18 17  1  0
 18 21  1  0
 19 16  1  0
 19 20  1  0
 20 18  2  0
 21 22  1  0
 22 23  2  0
 24 27  1  0
 24 23  1  0
 25 24  2  0
 26 25  1  0
 26 21  2  0
 27 28  1  0
 28 29  1  0
 29 30  2  0
 31 30  1  0
 31 35  1  0
 32 31  2  0
 33 28  2  0
 33 32  1  0
 34 33  1  0
 36 37  1  0
 37 40  1  0
 37 39  1  0
 38 36  2  0
 41 42  1  0
 41 16  1  0
 43 41  1  0
 44 46  1  0
 44 47  2  0
 45 44  1  0
 46 10  1  0
 48 46  1  0
 49 50  2  0
 51 53  1  0
 51 49  1  0
 52 51  2  0
 54 55  1  0
 54 53  2  0
 56 67  2  0
 57 55  1  0
 57 62  1  0
 58 66  1  0
 58 68  1  0
 59 65  1  0
 59 61  1  0
 60 66  1  0
 61 60  1  0
 62 61  2  0
 63 57  2  0
 64 63  1  0
 64 59  2  0
 65 58  1  0
 66 56  1  0
 68 70  2  0
 69 68  1  0
 71 69  1  0
 72 81  2  0
 72 77  1  0
 73 69  1  0
 73 77  1  0
 74 73  1  0
 75 76  1  0
 75 74  1  0
 76 72  1  0
 77 78  2  0
 78 79  1  0
 80 79  2  0
 81 80  1  0
 82 56  1  0
 82 87  1  0
 82 83  1  0
 83 86  1  1
 83 84  1  0
 85 83  1  0
 87 90  1  0
 88 92  1  0
 88 87  1  0
 89 88  2  0
 92 91  1  0
 94 92  1  0
 94 95  1  0
 94 93  1  0
M  ISO  4   1 100  13 100  54 101  55 101
M  END
>  <TORSDO>  (7) 
F 20

>  <SCORE>  (7) 
-13.745

>  <name>  (7) 
6

>  <ligand_id>  (7) 
6

>  <original_smiles>  (7) 
[H]c1c([H])c([H])c2c(c1[H])C([H])([H])C([H])([H])C([H])([H])C2([H])N([H])C(=O)C1([H])N(C(=O)C([H])(N([H])C(=O)C([H])(N([H])C([H])([H])[H])C([H])([H])[H])C(C([H])([H])[H])(C([H])([H])[H])C([H])([H])[H])C([H])([H])c2c([H])c(OC([H])([H])C([H])([H])C(=O)C(=O)c3nc(N([H])C(=O)N4C([H])([H])C([H])([H])C([H])([H])C([H])(n5nc(-c6c([H])c([H])c(Oc7c([H])c([H])c(F)c([H])c7F)c([H])c6[H])c(C(=O)N([H])[H])c5N([H])[H])C4([H])[H])sc3N([H])C(=O)C([H])([H])[H])c([H])c([H])c2C1([H])[H]

>  <smiles>  (7) 
[H]c1c([H])c([H])c2c(c1[H])C([H])([H])C([H])([H])C([H])([H])C2([H])N([H])C(=O)C1([H])N(C(=O)C([H])(N([H])C(=O)C([H])(N([H])C([H])([H])[H])C([H])([H])[H])C(C([H])([H])[H])(C([H])([H])[H])C([H])([H])[H])C([H])([H])c2c([H])c(OC([H])([H])C([H])([H])C(=O)C(=O)c3nc(N([H])C(=O)N4C([H])([H])C([H])([H])C([H])([H])C([H])(n5nc(-c6c([H])c([H])c(Oc7c([H])c([H])c(F)c([H])c7F)c([H])c6[H])c(C(=O)N([H])[H])c5N([H])[H])C4([H])[H])sc3N([H])C(=O)C([H])([H])[H])c([H])c([H])c2C1([H])[H]

$$$$
7:0:0
     RDKit          3D

 96104  0  0  1  0  0  0  0  0999 V2000
  -30.6260  -20.5230   20.3100 C   0  0  0  0  0  0  0  0  0  0  0  0
  -29.7360  -21.5350   20.5840 N   0  0  0  0  0  0  0  0  0  0  0  0
  -31.6040  -20.6930   19.4140 N   0  0  0  0  0  4  0  0  0  0  0  0
  -28.9690  -21.2690   21.1850 H   0  0  0  0  0  0  0  0  0  0  0  0
  -32.1820  -19.8860   19.2330 H   0  0  0  0  0  0  0  0  0  0  0  0
  -31.6860  -21.5130   18.8420 H   0  0  0  0  0  0  0  0  0  0  0  0
  -30.5990  -18.0050   23.1200 C   0  0  0  0  0  3  0  0  0  0  0  0
  -30.5650  -19.2290   22.4420 C   0  0  0  0  0  3  0  0  0  0  0  0
  -30.6840  -16.8200   22.3720 C   0  0  0  0  0  3  0  0  0  0  0  0
  -30.6230  -19.2190   21.0390 C   0  0  0  0  0  0  0  0  0  0  0  0
  -30.7850  -16.8480   20.9650 C   0  0  0  0  0  0  0  0  0  0  0  0
  -30.7550  -18.0560   20.3070 N   0  0  0  0  0  0  0  0  0  0  0  0
  -31.4510  -14.5130   20.0330 C   0  0  0  0  0  0  0  0  0  0  0  0
  -31.0870  -12.3350   18.8760 C   0  0  0  0  0  2  0  0  0  0  0  0
  -30.1110  -12.5670   17.6990 C   0  0  0  0  0  2  0  0  0  0  0  0
  -28.6380  -12.5240   18.1620 C   0  0  0  0  0  2  0  0  0  0  0  0
  -28.3850  -13.3600   19.4460 C   0  0  0  0  0  3  0  0  0  0  0  0
  -29.4550  -13.0520   20.5160 C   0  0  0  0  0  2  0  0  0  0  0  0
  -30.7740  -13.3280   19.9160 N   0  0  0  0  0  0  0  0  0  0  0  0
  -32.6140  -14.6510   19.6310 O   0  0  0  0  0  0  0  0  0  0  0  0
  -30.6260  -15.5430   20.3750 N   0  0  0  0  0  0  0  0  0  0  0  0
  -29.7070  -15.1690   20.5420 H   0  0  0  0  0  0  0  0  0  0  0  0
  -26.0610  -14.1320   20.2360 C   0  0  0  0  0  0  0  0  0  0  0  0
  -24.9550  -13.4330   20.6410 C   0  0  0  0  0  0  0  0  0  0  0  0
  -25.3230  -12.0540   20.5960 C   0  0  0  0  0  0  0  0  0  0  0  0
  -27.0330  -13.1800   19.9680 N   0  0  0  0  0  0  0  0  0  0  0  0
  -26.5950  -11.9260   20.2450 N   0  0  0  0  0  0  0  0  0  0  0  0
  -24.5190  -10.8450   20.8140 C   0  0  0  0  0  0  0  0  0  0  0  0
  -24.8710   -9.8910   21.7940 C   0  0  0  0  0  3  0  0  0  0  0  0
  -24.0730   -8.7450   21.9960 C   0  0  0  0  0  3  0  0  0  0  0  0
  -22.9090   -8.5440   21.2170 C   0  0  0  0  0  0  0  0  0  0  0  0
  -22.5740   -9.4850   20.2280 C   0  0  0  0  0  3  0  0  0  0  0  0
  -23.3720  -10.6230   20.0250 C   0  0  0  0  0  3  0  0  0  0  0  0
  -22.0880   -7.4480   21.3250 O   0  0  0  0  0  0  0  0  0  0  0  0
  -21.9000   -6.8050   22.5230 C   0  0  0  0  0  0  0  0  0  0  0  0
  -21.4070   -7.4790   23.6610 C   0  0  0  0  0  3  0  0  0  0  0  0
  -21.1620   -6.7660   24.8500 C   0  0  0  0  0  3  0  0  0  0  0  0
  -21.4010   -5.3790   24.9020 C   0  0  0  0  0  0  0  0  0  0  0  0
  -21.8880   -4.7050   23.7680 C   0  0  0  0  0  3  0  0  0  0  0  0
  -22.1320   -5.4170   22.5810 C   0  0  0  0  0  0  0  0  0  0  0  0
  -22.5810   -4.7600   21.4840 F   0  0  0  0  0  0  0  0  0  0  0  0
  -21.1570   -4.6900   26.0420 F   0  0  0  0  0  0  0  0  0  0  0  0
  -23.6040  -14.0050   20.9570 C   0  0  0  0  0  0  0  0  0  0  0  0
  -22.8720  -13.3740   21.8690 N   0  0  0  0  0  0  0  0  0  0  0  0
  -23.2110  -15.0450   20.4320 O   0  0  0  0  0  0  0  0  0  0  0  0
  -23.2070  -12.5330   22.3160 H   0  0  0  0  0  0  0  0  0  0  0  0
  -21.9640  -13.7360   22.1240 H   0  0  0  0  0  0  0  0  0  0  0  0
  -26.3150  -15.4890   20.0550 N   0  0  0  0  0  0  0  0  0  0  0  0
  -25.5910  -16.1870   20.1840 H   0  0  0  0  0  0  0  0  0  0  0  0
  -27.1700  -15.8740   19.6800 H   0  0  0  0  0  0  0  0  0  0  0  0
  -30.2440  -23.2240   18.7430 C   0  0  0  0  0  1  0  0  0  0  0  0
  -29.7630  -22.9970   20.1980 C   0  0  0  0  0  3  0  0  0  0  0  0
  -28.3810  -23.7350   20.3960 C   0  0  0  0  0  0  0  0  0  0  0  0
  -27.3340  -23.2120   20.0070 O   0  0  0  0  0  0  0  0  0  0  0  0
  -28.3190  -25.1400   21.0900 C   0  0  0  0  0  2  0  0  0  0  0  0
  -28.2030  -26.2770   20.1830 O   0  0  0  0  0  0  0  0  0  0  0  0
  -24.5310  -31.6940   23.1800 C   0  0  0  0  0  0  0  0  0  0  0  0
  -27.0580  -27.0620   20.2370 C   0  0  0  0  0  0  0  0  0  0  0  0
  -23.2960  -30.2950   21.5590 C   0  0  0  0  0  3  0  0  0  0  0  0
  -24.7140  -28.6730   20.1840 C   0  0  0  0  0  0  0  0  0  0  0  0
  -25.8350  -30.5610   21.3780 C   0  0  0  0  0  2  0  0  0  0  0  0
  -25.8850  -29.1670   20.7720 C   0  0  0  0  0  0  0  0  0  0  0  0
  -27.0630  -28.3730   20.7850 C   0  0  0  0  0  3  0  0  0  0  0  0
  -25.8660  -26.5900   19.6500 C   0  0  0  0  0  3  0  0  0  0  0  0
  -24.7010  -27.3850   19.6200 C   0  0  0  0  0  3  0  0  0  0  0  0
  -23.5000  -29.5790   20.1950 C   0  0  0  0  0  2  0  0  0  0  0  0
  -24.5720  -30.8670   22.0960 N   0  0  0  0  0  0  0  0  0  0  0  0
  -23.4530  -32.0120   23.7030 O   0  0  0  0  0  0  0  0  0  0  0  0
  -22.6020  -29.3170   22.5330 C   0  0  0  0  0  0  0  0  0  0  0  0
  -21.2760  -29.1580   22.3850 N   0  0  0  0  0  0  0  0  0  0  0  0
  -23.2530  -28.7050   23.3830 O   0  0  0  0  0  0  0  0  0  0  0  0
  -20.8090  -29.7050   21.6760 H   0  0  0  0  0  0  0  0  0  0  0  0
  -17.8770  -28.0030   22.8180 C   0  0  0  0  0  0  0  0  0  0  0  0
  -20.4270  -28.2570   23.1660 C   0  0  0  0  0  3  0  0  0  0  0  0
  -20.5390  -26.8020   22.6560 C   0  0  0  0  0  2  0  0  0  0  0  0
  -19.4700  -26.4430   21.6180 C   0  0  0  0  0  2  0  0  0  0  0  0
  -18.0680  -26.6230   22.2080 C   0  0  0  0  0  2  0  0  0  0  0  0
  -18.9860  -28.7750   23.2540 C   0  0  0  0  0  0  0  0  0  0  0  0
  -18.7580  -30.0630   23.7840 C   0  0  0  0  0  3  0  0  0  0  0  0
  -17.4520  -30.5810   23.8820 C   0  0  0  0  0  3  0  0  0  0  0  0
  -16.3570  -29.8070   23.4610 C   0  0  0  0  0  3  0  0  0  0  0  0
  -16.5700  -28.5180   22.9380 C   0  0  0  0  0  3  0  0  0  0  0  0
  -25.8310  -32.2980   23.7970 C   0  0  0  0  0  3  0  0  0  0  0  0
  -26.3410  -31.5120   25.0640 C   0  0  1  0  0  0  0  0  0  0  0  0
  -25.2500  -31.2800   26.1350 C   0  0  0  0  0  1  0  0  0  0  0  0
  -26.9100  -30.1320   24.6590 C   0  0  0  0  0  1  0  0  0  0  0  0
  -27.5020  -32.2910   25.7290 C   0  0  0  0  0  1  0  0  0  0  0  0
  -25.5480  -33.6990   24.1360 N   0  0  0  0  0  0  0  0  0  0  0  0
  -25.9070  -34.7500   23.3890 C   0  0  0  0  0  0  0  0  0  0  0  0
  -26.5790  -34.6420   22.3590 O   0  0  0  0  0  0  0  0  0  0  0  0
  -24.9520  -33.8600   24.9350 H   0  0  0  0  0  0  0  0  0  0  0  0
  -24.2100  -36.5750   23.0500 C   0  0  0  0  0  1  0  0  0  0  0  0
  -25.4460  -36.1440   23.8560 C   0  0  0  0  0  3  0  0  0  0  0  0
  -27.5980  -36.9820   24.6870 C   0  0  0  0  0  1  0  0  0  0  0  0
  -26.4970  -37.1790   23.7470 N   0  0  0  0  0  0  0  0  0  0  0  0
  -26.1070  -38.1030   23.9100 H   0  0  0  0  0  0  0  0  0  0  0  0
  1  2  1  0
  1 10  1  0
  2  4  1  0
  3  1  2  0
  5  3  1  0
  6  3  1  0
  8  7  1  0
  9  7  2  0
 10  8  2  0
 11  9  1  0
 12 11  2  0
 12 10  1  0
 13 21  1  0
 14 19  1  0
 15 16  1  0
 15 14  1  0
 17 16  1  0
 17 26  1  0
 17 18  1  0
 19 13  1  0
 19 18  1  0
 20 13  2  0
 21 22  1  0
 21 11  1  0
 23 24  2  0
 24 43  1  0
 25 24  1  0
 25 28  1  0
 26 23  1  0
 26 27  1  0
 27 25  2  0
 28 29  1  0
 29 30  2  0
 31 34  1  0
 31 30  1  0
 32 31  2  0
 33 32  1  0
 33 28  2  0
 34 35  1  0
 35 40  2  0
 35 36  1  0
 36 37  2  0
 37 38  1  0
 38 42  1  0
 39 38  2  0
 40 39  1  0
 41 40  1  0
 43 44  1  0
 44 47  1  0
 44 46  1  0
 45 43  2  0
 48 49  1  0
 48 23  1  0
 50 48  1  0
 52 51  1  0
 52 53  1  0
 52  2  1  0
 53 55  1  0
 54 53  2  0
 56 58  1  0
 56 55  1  0
 57 68  2  0
 58 63  1  0
 59 67  1  0
 59 69  1  0
 60 66  1  0
 60 62  1  0
 61 67  1  0
 62 63  2  0
 62 61  1  0
 64 58  2  0
 65 64  1  0
 65 60  2  0
 66 59  1  0
 67 57  1  0
 69 71  2  0
 70 69  1  0
 72 70  1  0
 73 82  2  0
 73 78  1  0
 74 70  1  0
 74 78  1  0
 75 74  1  0
 76 77  1  0
 76 75  1  0
 77 73  1  0
 78 79  2  0
 79 80  1  0
 81 80  2  0
 82 81  1  0
 83 57  1  0
 83 88  1  0
 83 84  1  0
 84 87  1  1
 84 85  1  0
 86 84  1  0
 88 91  1  0
 89 93  1  0
 89 88  1  0
 90 89  2  0
 93 92  1  0
 95 93  1  0
 95 96  1  0
 95 94  1  0
M  ISO  4  13 100  21 100  55 101  56 101
M  END
>  <TORSDO>  (8) 
F 20

>  <SCORE>  (8) 
-12.362

>  <name>  (8) 
7

>  <ligand_id>  (8) 
7

>  <original_smiles>  (8) 
[H]c1c(C(N([H])C([H])(C(=O)C([H])([H])Oc2c([H])c([H])c3c(c2[H])C([H])([H])N(C(=O)C([H])(N([H])C(=O)C([H])(N([H])C([H])([H])[H])C([H])([H])[H])C(C([H])([H])[H])(C([H])([H])[H])C([H])([H])[H])C([H])(C(=O)N([H])C2([H])c4c([H])c([H])c([H])c([H])c4C([H])([H])C([H])([H])C2([H])[H])C3([H])[H])C([H])([H])[H])=[N+]([H])[H])nc(N([H])C(=O)N2C([H])([H])C([H])([H])C([H])([H])C([H])(n3nc(-c4c([H])c([H])c(Oc5c([H])c([H])c(F)c([H])c5F)c([H])c4[H])c(C(=O)N([H])[H])c3N([H])[H])C2([H])[H])c([H])c1[H]

>  <smiles>  (8) 
[H]c1c(C(N([H])C([H])(C(=O)C([H])([H])Oc2c([H])c([H])c3c(c2[H])C([H])([H])N(C(=O)C([H])(N([H])C(=O)C([H])(N([H])C([H])([H])[H])C([H])([H])[H])C(C([H])([H])[H])(C([H])([H])[H])C([H])([H])[H])C([H])(C(=O)N([H])C2([H])c4c([H])c([H])c([H])c([H])c4C([H])([H])C([H])([H])C2([H])[H])C3([H])[H])C([H])([H])[H])=[N+]([H])[H])nc(N([H])C(=O)N2C([H])([H])C([H])([H])C([H])([H])C([H])(n3nc(-c4c([H])c([H])c(Oc5c([H])c([H])c(F)c([H])c5F)c([H])c4[H])c(C(=O)N([H])[H])c3N([H])[H])C2([H])[H])c([H])c1[H]

$$$$
8:0:0
     RDKit          3D

 96104  0  0  1  0  0  0  0  0999 V2000
  -29.9200  -20.8660   21.6510 C   0  0  0  0  0  0  0  0  0  0  0  0
  -29.9370  -23.2930   21.4170 C   0  0  0  0  0  0  0  0  0  0  0  0
  -29.9350  -22.0220   20.9250 N   0  0  0  0  0  0  0  0  0  0  0  0
  -29.6380  -20.8370   22.8570 O   0  0  0  0  0  0  0  0  0  0  0  0
  -30.1990  -23.5390   22.6000 O   0  0  0  0  0  0  0  0  0  0  0  0
  -29.9550  -21.9150   19.9220 H   0  0  0  0  0  0  0  0  0  0  0  0
  -30.9190  -14.6710   20.0600 C   0  0  0  0  0  0  0  0  0  0  0  0
  -30.5690  -12.5180   18.8930 C   0  0  0  0  0  2  0  0  0  0  0  0
  -29.5390  -12.7300   17.7620 C   0  0  0  0  0  2  0  0  0  0  0  0
  -28.1000  -12.5660   18.2900 C   0  0  0  0  0  2  0  0  0  0  0  0
  -27.8490  -13.3820   19.5850 C   0  0  0  0  0  3  0  0  0  0  0  0
  -28.9780  -13.1450   20.6130 C   0  0  0  0  0  2  0  0  0  0  0  0
  -30.2610  -13.4780   19.9690 N   0  0  0  0  0  0  0  0  0  0  0  0
  -32.0030  -14.8650   19.5010 O   0  0  0  0  0  0  0  0  0  0  0  0
  -30.2260  -19.5500   20.9830 C   0  0  0  0  0  0  0  0  0  0  0  0
  -31.0310  -19.1420   19.9330 C   0  0  0  0  0  0  0  0  0  0  0  0
  -30.3910  -17.0670   20.6790 C   0  0  0  0  0  0  0  0  0  0  0  0
  -31.0920  -17.7470   19.7620 N   0  0  0  0  0  0  0  0  0  0  0  0
  -30.2600  -15.6400   20.7350 N   0  0  0  0  0  0  0  0  0  0  0  0
  -29.5540  -18.1370   21.8000 S   0  0  0  0  0  0  0  0  0  0  0  0
  -29.4680  -15.3140   21.2660 H   0  0  0  0  0  0  0  0  0  0  0  0
  -25.5170  -13.9770   20.5010 C   0  0  0  0  0  0  0  0  0  0  0  0
  -24.4710  -13.1970   20.9160 C   0  0  0  0  0  0  0  0  0  0  0  0
  -24.9140  -11.8450   20.7930 C   0  0  0  0  0  0  0  0  0  0  0  0
  -26.5320  -13.0990   20.1510 N   0  0  0  0  0  0  0  0  0  0  0  0
  -26.1760  -11.8090   20.3840 N   0  0  0  0  0  0  0  0  0  0  0  0
  -24.1910  -10.5810   20.9850 C   0  0  0  0  0  0  0  0  0  0  0  0
  -24.6270   -9.6150   21.9190 C   0  0  0  0  0  3  0  0  0  0  0  0
  -23.9070   -8.4160   22.0980 C   0  0  0  0  0  3  0  0  0  0  0  0
  -22.7350   -8.1720   21.3420 C   0  0  0  0  0  0  0  0  0  0  0  0
  -22.3170   -9.1260   20.3980 C   0  0  0  0  0  3  0  0  0  0  0  0
  -23.0380  -10.3190   20.2170 C   0  0  0  0  0  3  0  0  0  0  0  0
  -21.9850   -7.0240   21.4300 O   0  0  0  0  0  0  0  0  0  0  0  0
  -21.8590   -6.3360   22.6100 C   0  0  0  0  0  0  0  0  0  0  0  0
  -21.3000   -6.9290   23.7630 C   0  0  0  0  0  3  0  0  0  0  0  0
  -21.1240   -6.1630   24.9330 C   0  0  0  0  0  3  0  0  0  0  0  0
  -21.4960   -4.8060   24.9500 C   0  0  0  0  0  0  0  0  0  0  0  0
  -22.0490   -4.2130   23.8010 C   0  0  0  0  0  3  0  0  0  0  0  0
  -22.2280   -4.9750   22.6350 C   0  0  0  0  0  0  0  0  0  0  0  0
  -22.7410   -4.3940   21.5230 F   0  0  0  0  0  0  0  0  0  0  0  0
  -21.3210   -4.0690   26.0710 F   0  0  0  0  0  0  0  0  0  0  0  0
  -23.1030  -13.6740   21.3120 C   0  0  0  0  0  0  0  0  0  0  0  0
  -22.4320  -12.9510   22.2020 N   0  0  0  0  0  0  0  0  0  0  0  0
  -22.6370  -14.7210   20.8660 O   0  0  0  0  0  0  0  0  0  0  0  0
  -22.8200  -12.1030   22.5870 H   0  0  0  0  0  0  0  0  0  0  0  0
  -21.5150  -13.2550   22.5020 H   0  0  0  0  0  0  0  0  0  0  0  0
  -25.6850  -15.3530   20.3750 N   0  0  0  0  0  0  0  0  0  0  0  0
  -24.9300  -16.0040   20.5600 H   0  0  0  0  0  0  0  0  0  0  0  0
  -26.5090  -15.8000   19.9910 H   0  0  0  0  0  0  0  0  0  0  0  0
  -31.7750  -19.9430   19.0640 N   0  0  0  0  0  0  0  0  0  0  0  0
  -32.0810  -20.8600   19.3720 H   0  0  0  0  0  0  0  0  0  0  0  0
  -32.4590  -19.4790   18.4750 H   0  0  0  0  0  0  0  0  0  0  0  0
  -29.7030  -24.5190   20.4770 C   0  0  0  0  0  2  0  0  0  0  0  0
  -28.3160  -25.7940   22.3260 C   0  0  0  0  0  1  0  0  0  0  0  0
  -28.5100  -25.4960   20.8170 C   0  0  0  0  0  3  0  0  0  0  0  0
  -28.6390  -26.7820   20.1390 O   0  0  0  0  0  0  0  0  0  0  0  0
  -24.7090  -31.8750   23.2180 C   0  0  0  0  0  0  0  0  0  0  0  0
  -27.4820  -27.5430   20.0820 C   0  0  0  0  0  0  0  0  0  0  0  0
  -23.5470  -30.4640   21.5510 C   0  0  0  0  0  3  0  0  0  0  0  0
  -25.0490  -28.9940   20.1020 C   0  0  0  0  0  0  0  0  0  0  0  0
  -26.0620  -30.8990   21.3620 C   0  0  0  0  0  2  0  0  0  0  0  0
  -26.1920  -29.5410   20.6980 C   0  0  0  0  0  0  0  0  0  0  0  0
  -27.4160  -28.8290   20.6770 C   0  0  0  0  0  3  0  0  0  0  0  0
  -26.3240  -27.0220   19.4660 C   0  0  0  0  0  3  0  0  0  0  0  0
  -25.1120  -27.7360   19.4770 C   0  0  0  0  0  3  0  0  0  0  0  0
  -23.7810  -29.8150   20.1610 C   0  0  0  0  0  2  0  0  0  0  0  0
  -24.7910  -31.0940   22.1020 N   0  0  0  0  0  0  0  0  0  0  0  0
  -23.6210  -32.1050   23.7630 O   0  0  0  0  0  0  0  0  0  0  0  0
  -22.9230  -29.4100   22.4960 C   0  0  0  0  0  0  0  0  0  0  0  0
  -21.6060  -29.1850   22.3590 N   0  0  0  0  0  0  0  0  0  0  0  0
  -23.6220  -28.7990   23.3100 O   0  0  0  0  0  0  0  0  0  0  0  0
  -21.1000  -29.7350   21.6790 H   0  0  0  0  0  0  0  0  0  0  0  0
  -18.2740  -27.8550   22.8110 C   0  0  0  0  0  0  0  0  0  0  0  0
  -20.8180  -28.2100   23.1120 C   0  0  0  0  0  3  0  0  0  0  0  0
  -20.9810  -26.7880   22.5290 C   0  0  0  0  0  2  0  0  0  0  0  0
  -19.9050  -26.4310   21.4990 C   0  0  0  0  0  2  0  0  0  0  0  0
  -18.5110  -26.5190   22.1280 C   0  0  0  0  0  2  0  0  0  0  0  0
  -19.3590  -28.6550   23.2600 C   0  0  0  0  0  0  0  0  0  0  0  0
  -19.0860  -29.9030   23.8600 C   0  0  0  0  0  3  0  0  0  0  0  0
  -17.7640  -30.3560   24.0120 C   0  0  0  0  0  3  0  0  0  0  0  0
  -16.6930  -29.5550   23.5810 C   0  0  0  0  0  3  0  0  0  0  0  0
  -16.9490  -28.3050   22.9870 C   0  0  0  0  0  3  0  0  0  0  0  0
  -25.9770  -32.5340   23.8480 C   0  0  0  0  0  3  0  0  0  0  0  0
  -26.5090  -31.7690   25.1230 C   0  0  1  0  0  0  0  0  0  0  0  0
  -25.4180  -31.4980   26.1850 C   0  0  0  0  0  1  0  0  0  0  0  0
  -27.1310  -30.4090   24.7260 C   0  0  0  0  0  1  0  0  0  0  0  0
  -27.6310  -32.5930   25.8010 C   0  0  0  0  0  1  0  0  0  0  0  0
  -25.6360  -33.9230   24.1800 N   0  0  0  0  0  0  0  0  0  0  0  0
  -25.9520  -34.9850   23.4250 C   0  0  0  0  0  0  0  0  0  0  0  0
  -26.6360  -34.8990   22.4010 O   0  0  0  0  0  0  0  0  0  0  0  0
  -25.0340  -34.0630   24.9770 H   0  0  0  0  0  0  0  0  0  0  0  0
  -24.1950  -36.7440   23.0490 C   0  0  0  0  0  1  0  0  0  0  0  0
  -25.4290  -36.3590   23.8810 C   0  0  0  0  0  3  0  0  0  0  0  0
  -27.5270  -37.2850   24.7600 C   0  0  0  0  0  1  0  0  0  0  0  0
  -26.4420  -37.4330   23.7940 N   0  0  0  0  0  0  0  0  0  0  0  0
  -26.0130  -38.3440   23.9350 H   0  0  0  0  0  0  0  0  0  0  0  0
  1  4  2  0
  2  5  2  0
  3  2  1  0
  3  1  1  0
  6  3  1  0
  7 19  1  0
  8 13  1  0
  9 10  1  0
  9  8  1  0
 11 10  1  0
 11 25  1  0
 11 12  1  0
 13  7  1  0
 13 12  1  0
 14  7  2  0
 15  1  1  0
 15 20  1  0
 16 15  2  0
 17 19  1  0
 17 20  1  0
 18 16  1  0
 18 17  2  0
 19 21  1  0
 22 23  2  0
 23 42  1  0
 24 23  1  0
 24 27  1  0
 25 26  1  0
 25 22  1  0
 26 24  2  0
 27 28  1  0
 28 29  2  0
 30 33  1  0
 30 29  1  0
 31 30  2  0
 32 31  1  0
 32 27  2  0
 33 34  1  0
 34 39  2  0
 34 35  1  0
 35 36  2  0
 36 37  1  0
 37 41  1  0
 38 37  2  0
 39 38  1  0
 40 39  1  0
 42 43  1  0
 43 46  1  0
 43 45  1  0
 44 42  2  0
 47 22  1  0
 47 48  1  0
 49 47  1  0
 50 51  1  0
 50 16  1  0
 52 50  1  0
 53 55  1  0
 53  2  1  0
 55 54  1  0
 56 55  1  0
 57 68  2  0
 58 56  1  0
 58 63  1  0
 59 67  1  0
 59 69  1  0
 60 66  1  0
 60 62  1  0
 61 67  1  0
 62 61  1  0
 63 62  2  0
 64 65  1  0
 64 58  2  0
 65 60  2  0
 66 59  1  0
 67 57  1  0
 69 71  2  0
 70 69  1  0
 72 70  1  0
 73 82  2  0
 73 78  1  0
 74 70  1  0
 74 78  1  0
 75 74  1  0
 76 77  1  0
 76 75  1  0
 77 73  1  0
 78 79  2  0
 79 80  1  0
 81 80  2  0
 82 81  1  0
 83 57  1  0
 83 88  1  0
 83 84  1  0
 84 87  1  1
 84 85  1  0
 86 84  1  0
 88 91  1  0
 89 93  1  0
 89 88  1  0
 90 89  2  0
 93 92  1  0
 95 93  1  0
 95 96  1  0
 95 94  1  0
M  ISO  4   7 100  19 100  55 101  56 101
M  END
>  <TORSDO>  (9) 
F 19

>  <SCORE>  (9) 
-13.156

>  <name>  (9) 
8

>  <ligand_id>  (9) 
8

>  <original_smiles>  (9) 
[H]c1c([H])c([H])c2c(c1[H])C([H])([H])C([H])([H])C([H])([H])C2([H])N([H])C(=O)C1([H])N(C(=O)C([H])(N([H])C(=O)C([H])(N([H])C([H])([H])[H])C([H])([H])[H])C(C([H])([H])[H])(C([H])([H])[H])C([H])([H])[H])C([H])([H])c2c([H])c(OC([H])(C([H])([H])[H])C([H])([H])C(=O)N([H])C(=O)c3sc(N([H])C(=O)N4C([H])([H])C([H])([H])C([H])([H])C([H])(n5nc(-c6c([H])c([H])c(Oc7c([H])c([H])c(F)c([H])c7F)c([H])c6[H])c(C(=O)N([H])[H])c5N([H])[H])C4([H])[H])nc3N([H])[H])c([H])c([H])c2C1([H])[H]

>  <smiles>  (9) 
[H]c1c([H])c([H])c2c(c1[H])C([H])([H])C([H])([H])C([H])([H])C2([H])N([H])C(=O)C1([H])N(C(=O)C([H])(N([H])C(=O)C([H])(N([H])C([H])([H])[H])C([H])([H])[H])C(C([H])([H])[H])(C([H])([H])[H])C([H])([H])[H])C([H])([H])c2c([H])c(OC([H])(C([H])([H])[H])C([H])([H])C(=O)N([H])C(=O)c3sc(N([H])C(=O)N4C([H])([H])C([H])([H])C([H])([H])C([H])(n5nc(-c6c([H])c([H])c(Oc7c([H])c([H])c(F)c([H])c7F)c([H])c6[H])c(C(=O)N([H])[H])c5N([H])[H])C4([H])[H])nc3N([H])[H])c([H])c([H])c2C1([H])[H]

$$$$
9:0:0
     RDKit          3D

 94102  0  0  1  0  0  0  0  0999 V2000
  -29.2940  -21.5970   20.4250 C   0  0  0  0  0  0  0  0  0  0  0  0
  -29.7680  -20.6810   19.5560 N   0  0  0  0  0  0  0  0  0  0  0  0
  -29.0560  -21.3720   21.6140 O   0  0  0  0  0  0  0  0  0  0  0  0
  -29.9170  -21.0870   18.6420 H   0  0  0  0  0  0  0  0  0  0  0  0
  -30.7080  -14.7340   20.6420 C   0  0  0  0  0  0  0  0  0  0  0  0
  -30.5310  -12.4920   19.6250 C   0  0  0  0  0  2  0  0  0  0  0  0
  -29.6450  -12.5940   18.3630 C   0  0  0  0  0  2  0  0  0  0  0  0
  -28.1500  -12.4740   18.7220 C   0  0  0  0  0  2  0  0  0  0  0  0
  -27.7350  -13.3460   19.9380 C   0  0  0  0  0  3  0  0  0  0  0  0
  -28.7430  -13.2080   21.1020 C   0  0  0  0  0  2  0  0  0  0  0  0
  -30.0820  -13.5210   20.5810 N   0  0  0  0  0  0  0  0  0  0  0  0
  -31.8900  -14.8720   20.3080 O   0  0  0  0  0  0  0  0  0  0  0  0
  -29.2860  -17.6080   17.6880 C   0  0  0  0  0  3  0  0  0  0  0  0
  -29.4660  -16.6080   18.6500 C   0  0  0  0  0  3  0  0  0  0  0  0
  -29.4010  -18.9440   18.0820 C   0  0  0  0  0  0  0  0  0  0  0  0
  -29.7740  -16.9410   19.9880 C   0  0  0  0  0  0  0  0  0  0  0  0
  -29.6530  -19.2580   19.4310 C   0  0  0  0  0  0  0  0  0  0  0  0
  -29.8290  -18.2660   20.3720 N   0  0  0  0  0  0  0  0  0  0  0  0
  -29.9180  -15.8170   20.8820 N   0  0  0  0  0  0  0  0  0  0  0  0
  -29.2610  -19.9310   17.1600 F   0  0  0  0  0  0  0  0  0  0  0  0
  -29.0690  -15.5880   21.3720 H   0  0  0  0  0  0  0  0  0  0  0  0
  -25.3060  -13.9330   20.5480 C   0  0  0  0  0  0  0  0  0  0  0  0
  -24.2320  -13.1530   20.8820 C   0  0  0  0  0  0  0  0  0  0  0  0
  -24.7090  -11.8060   20.8870 C   0  0  0  0  0  0  0  0  0  0  0  0
  -26.3680  -13.0610   20.3690 N   0  0  0  0  0  0  0  0  0  0  0  0
  -26.0110  -11.7790   20.6350 N   0  0  0  0  0  0  0  0  0  0  0  0
  -23.9880  -10.5390   21.0630 C   0  0  0  0  0  0  0  0  0  0  0  0
  -24.3880   -9.5910   22.0320 C   0  0  0  0  0  3  0  0  0  0  0  0
  -23.6700   -8.3870   22.1930 C   0  0  0  0  0  3  0  0  0  0  0  0
  -22.5380   -8.1210   21.3870 C   0  0  0  0  0  0  0  0  0  0  0  0
  -22.1590   -9.0570   20.4090 C   0  0  0  0  0  3  0  0  0  0  0  0
  -22.8770  -10.2540   20.2440 C   0  0  0  0  0  3  0  0  0  0  0  0
  -21.7950   -6.9680   21.4560 O   0  0  0  0  0  0  0  0  0  0  0  0
  -21.6930   -6.2450   22.6170 C   0  0  0  0  0  0  0  0  0  0  0  0
  -21.1730   -6.8080   23.8020 C   0  0  0  0  0  3  0  0  0  0  0  0
  -21.0230   -6.0100   24.9540 C   0  0  0  0  0  3  0  0  0  0  0  0
  -21.3820   -4.6500   24.9200 C   0  0  0  0  0  0  0  0  0  0  0  0
  -21.8950   -4.0850   23.7390 C   0  0  0  0  0  3  0  0  0  0  0  0
  -22.0470   -4.8820   22.5900 C   0  0  0  0  0  0  0  0  0  0  0  0
  -22.5220   -4.3280   21.4480 F   0  0  0  0  0  0  0  0  0  0  0  0
  -21.2290   -3.8800   26.0230 F   0  0  0  0  0  0  0  0  0  0  0  0
  -22.8180  -13.6180   21.0860 C   0  0  0  0  0  0  0  0  0  0  0  0
  -22.0570  -12.9180   21.9200 N   0  0  0  0  0  0  0  0  0  0  0  0
  -22.3950  -14.6360   20.5410 O   0  0  0  0  0  0  0  0  0  0  0  0
  -22.4130  -12.0970   22.3870 H   0  0  0  0  0  0  0  0  0  0  0  0
  -21.1060  -13.2100   22.0960 H   0  0  0  0  0  0  0  0  0  0  0  0
  -25.4640  -15.3040   20.3620 N   0  0  0  0  0  0  0  0  0  0  0  0
  -24.6870  -15.9500   20.4390 H   0  0  0  0  0  0  0  0  0  0  0  0
  -26.3180  -15.7510   20.0580 H   0  0  0  0  0  0  0  0  0  0  0  0
  -29.0770  -23.0140   19.8060 C   0  0  0  0  0  2  0  0  0  0  0  0
  -29.2930  -24.3080   20.6740 C   0  0  0  0  0  2  0  0  0  0  0  0
  -27.5520  -25.3310   22.2090 C   0  0  0  0  0  1  0  0  0  0  0  0
  -28.0790  -25.3020   20.7610 C   0  0  0  0  0  3  0  0  0  0  0  0
  -28.3310  -26.6810   20.3230 O   0  0  0  0  0  0  0  0  0  0  0  0
  -24.5390  -31.9760   23.2870 C   0  0  0  0  0  0  0  0  0  0  0  0
  -27.2090  -27.5030   20.2270 C   0  0  0  0  0  0  0  0  0  0  0  0
  -23.3520  -30.5730   21.6340 C   0  0  0  0  0  3  0  0  0  0  0  0
  -24.8230  -29.0530   20.2040 C   0  0  0  0  0  0  0  0  0  0  0  0
  -25.8840  -30.9300   21.4620 C   0  0  0  0  0  2  0  0  0  0  0  0
  -25.9800  -29.5610   20.8100 C   0  0  0  0  0  0  0  0  0  0  0  0
  -27.1760  -28.7970   20.8160 C   0  0  0  0  0  3  0  0  0  0  0  0
  -26.0400  -27.0450   19.5760 C   0  0  0  0  0  3  0  0  0  0  0  0
  -24.8530  -27.7980   19.5780 C   0  0  0  0  0  3  0  0  0  0  0  0
  -23.5750  -29.9050   20.2520 C   0  0  0  0  0  2  0  0  0  0  0  0
  -24.6110  -31.1750   22.1850 N   0  0  0  0  0  0  0  0  0  0  0  0
  -23.4520  -32.2420   23.8190 O   0  0  0  0  0  0  0  0  0  0  0  0
  -22.6990  -29.5450   22.5860 C   0  0  0  0  0  0  0  0  0  0  0  0
  -21.3750  -29.3580   22.4500 N   0  0  0  0  0  0  0  0  0  0  0  0
  -23.3790  -28.9200   23.4040 O   0  0  0  0  0  0  0  0  0  0  0  0
  -20.8860  -29.9120   21.7610 H   0  0  0  0  0  0  0  0  0  0  0  0
  -18.0000  -28.1570   22.9380 C   0  0  0  0  0  0  0  0  0  0  0  0
  -20.5570  -28.4130   23.2130 C   0  0  0  0  0  3  0  0  0  0  0  0
  -20.6610  -26.9870   22.6250 C   0  0  0  0  0  2  0  0  0  0  0  0
  -19.5600  -26.6720   21.6080 C   0  0  0  0  0  2  0  0  0  0  0  0
  -18.1770  -26.8130   22.2520 C   0  0  0  0  0  2  0  0  0  0  0  0
  -19.1190  -28.9160   23.3750 C   0  0  0  0  0  0  0  0  0  0  0  0
  -18.8990  -30.1750   23.9750 C   0  0  0  0  0  3  0  0  0  0  0  0
  -17.5950  -30.6760   24.1430 C   0  0  0  0  0  3  0  0  0  0  0  0
  -16.4910  -29.9140   23.7240 C   0  0  0  0  0  3  0  0  0  0  0  0
  -16.6940  -28.6560   23.1280 C   0  0  0  0  0  3  0  0  0  0  0  0
  -25.8170  -32.6130   23.9150 C   0  0  0  0  0  3  0  0  0  0  0  0
  -26.3120  -31.8600   25.2090 C   0  0  1  0  0  0  0  0  0  0  0  0
  -25.2030  -31.6390   26.2630 C   0  0  0  0  0  1  0  0  0  0  0  0
  -26.9000  -30.4770   24.8460 C   0  0  0  0  0  1  0  0  0  0  0  0
  -27.4530  -32.6630   25.8780 C   0  0  0  0  0  1  0  0  0  0  0  0
  -25.5070  -34.0180   24.2190 N   0  0  0  0  0  0  0  0  0  0  0  0
  -25.8590  -35.0560   23.4480 C   0  0  0  0  0  0  0  0  0  0  0  0
  -26.5480  -34.9340   22.4320 O   0  0  0  0  0  0  0  0  0  0  0  0
  -24.9000  -34.1870   25.0060 H   0  0  0  0  0  0  0  0  0  0  0  0
  -24.1540  -36.8540   23.0210 C   0  0  0  0  0  1  0  0  0  0  0  0
  -25.3680  -36.4520   23.8750 C   0  0  0  0  0  3  0  0  0  0  0  0
  -27.4820  -37.3320   24.7600 C   0  0  0  0  0  1  0  0  0  0  0  0
  -26.4100  -37.4980   23.7820 N   0  0  0  0  0  0  0  0  0  0  0  0
  -26.0050  -38.4210   23.9100 H   0  0  0  0  0  0  0  0  0  0  0  0
  1  3  2  0
  2  1  1  0
  4  2  1  0
  5 19  1  0
  6 11  1  0
  7  8  1  0
  7  6  1  0
  9  8  1  0
  9 25  1  0
  9 10  1  0
 11  5  1  0
 11 10  1  0
 12  5  2  0
 13 15  2  0
 13 14  1  0
 14 16  2  0
 15 17  1  0
 16 18  1  0
 16 19  1  0
 17  2  1  0
 17 18  2  0
 19 21  1  0
 20 15  1  0
 22 23  2  0
 23 24  1  0
 23 42  1  0
 24 27  1  0
 25 22  1  0
 25 26  1  0
 26 24  2  0
 27 28  1  0
 28 29  2  0
 30 33  1  0
 30 29  1  0
 31 30  2  0
 32 31  1  0
 32 27  2  0
 33 34  1  0
 34 35  1  0
 35 36  2  0
 37 36  1  0
 37 41  1  0
 38 37  2  0
 39 34  2  0
 39 38  1  0
 40 39  1  0
 42 43  1  0
 43 46  1  0
 43 45  1  0
 44 42  2  0
 47 48  1  0
 47 22  1  0
 49 47  1  0
 50  1  1  0
 50 51  1  0
 51 53  1  0
 53 52  1  0
 54 53  1  0
 55 66  2  0
 56 54  1  0
 56 61  1  0
 57 65  1  0
 57 67  1  0
 58 64  1  0
 58 60  1  0
 59 65  1  0
 60 61  2  0
 60 59  1  0
 62 63  1  0
 62 56  2  0
 63 58  2  0
 64 57  1  0
 65 55  1  0
 67 69  2  0
 68 67  1  0
 70 68  1  0
 71 80  2  0
 71 76  1  0
 72 68  1  0
 72 76  1  0
 73 72  1  0
 74 75  1  0
 74 73  1  0
 75 71  1  0
 76 77  2  0
 77 78  1  0
 79 78  2  0
 80 79  1  0
 81 55  1  0
 81 86  1  0
 81 82  1  0
 82 85  1  1
 82 83  1  0
 84 82  1  0
 86 89  1  0
 87 91  1  0
 87 86  1  0
 88 87  2  0
 91 90  1  0
 93 91  1  0
 93 94  1  0
 93 92  1  0
M  ISO  4   5 100  19 100  53 101  54 101
M  END
>  <TORSDO>  (10) 
F 19

>  <SCORE>  (10) 
-13.900

>  <name>  (10) 
9

>  <ligand_id>  (10) 
9

>  <original_smiles>  (10) 
[H]c1c(N([H])C(=O)N2C([H])([H])C([H])([H])C([H])([H])C([H])(n3nc(-c4c([H])c([H])c(Oc5c([H])c([H])c(F)c([H])c5F)c([H])c4[H])c(C(=O)N([H])[H])c3N([H])[H])C2([H])[H])nc(N([H])C(=O)C([H])([H])C([H])([H])C([H])(Oc2c([H])c([H])c3c(c2[H])C([H])([H])N(C(=O)C([H])(N([H])C(=O)C([H])(N([H])C([H])([H])[H])C([H])([H])[H])C(C([H])([H])[H])(C([H])([H])[H])C([H])([H])[H])C([H])(C(=O)N([H])C2([H])c4c([H])c([H])c([H])c([H])c4C([H])([H])C([H])([H])C2([H])[H])C3([H])[H])C([H])([H])[H])c(F)c1[H]

>  <smiles>  (10) 
[H]c1c(N([H])C(=O)N2C([H])([H])C([H])([H])C([H])([H])C([H])(n3nc(-c4c([H])c([H])c(Oc5c([H])c([H])c(F)c([H])c5F)c([H])c4[H])c(C(=O)N([H])[H])c3N([H])[H])C2([H])[H])nc(N([H])C(=O)C([H])([H])C([H])([H])C([H])(Oc2c([H])c([H])c3c(c2[H])C([H])([H])N(C(=O)C([H])(N([H])C(=O)C([H])(N([H])C([H])([H])[H])C([H])([H])[H])C(C([H])([H])[H])(C([H])([H])[H])C([H])([H])[H])C([H])(C(=O)N([H])C2([H])c4c([H])c([H])c([H])c([H])c4C([H])([H])C([H])([H])C2([H])[H])C3([H])[H])C([H])([H])[H])c(F)c1[H]

$$$$
10:0:0
     RDKit          3D

 94102  0  0  1  0  0  0  0  0999 V2000
  -28.7920  -23.4510   21.6440 C   0  0  0  0  0  0  0  0  0  0  0  0
  -28.2030  -22.8110   22.5200 O   0  0  0  0  0  0  0  0  0  0  0  0
  -28.4270  -24.9420   21.4550 C   0  0  2  0  0  0  0  0  0  0  0  0
  -29.2150  -25.6560   22.2630 F   0  0  0  0  0  0  0  0  0  0  0  0
  -27.1610  -25.1150   21.8430 F   0  0  0  0  0  0  0  0  0  0  0  0
  -28.5920  -25.4620   20.0010 C   0  0  0  0  0  2  0  0  0  0  0  0
  -28.5320  -26.8850   19.9280 O   0  0  0  0  0  0  0  0  0  0  0  0
  -24.6670  -31.8270   23.2290 C   0  0  0  0  0  0  0  0  0  0  0  0
  -27.3100  -27.5100   19.9970 C   0  0  0  0  0  0  0  0  0  0  0  0
  -23.4420  -30.4480   21.5780 C   0  0  0  0  0  3  0  0  0  0  0  0
  -24.8830  -28.9510   20.1030 C   0  0  0  0  0  0  0  0  0  0  0  0
  -25.9560  -30.8450   21.3390 C   0  0  0  0  0  2  0  0  0  0  0  0
  -26.0430  -29.4890   20.6720 C   0  0  0  0  0  0  0  0  0  0  0  0
  -27.2580  -28.7780   20.6130 C   0  0  0  0  0  3  0  0  0  0  0  0
  -26.1320  -26.9710   19.4290 C   0  0  0  0  0  3  0  0  0  0  0  0
  -24.9210  -27.6890   19.4820 C   0  0  0  0  0  3  0  0  0  0  0  0
  -23.6300  -29.7900   20.1840 C   0  0  0  0  0  2  0  0  0  0  0  0
  -24.7080  -31.0530   22.1080 N   0  0  0  0  0  0  0  0  0  0  0  0
  -23.5940  -32.0760   23.7950 O   0  0  0  0  0  0  0  0  0  0  0  0
  -22.8190  -29.4010   22.5280 C   0  0  0  0  0  0  0  0  0  0  0  0
  -21.4990  -29.1930   22.4040 N   0  0  0  0  0  0  0  0  0  0  0  0
  -23.5220  -28.7770   23.3290 O   0  0  0  0  0  0  0  0  0  0  0  0
  -20.9950  -29.7460   21.7250 H   0  0  0  0  0  0  0  0  0  0  0  0
  -18.1570  -27.9190   22.8940 C   0  0  0  0  0  0  0  0  0  0  0  0
  -20.7080  -28.2280   23.1640 C   0  0  0  0  0  3  0  0  0  0  0  0
  -20.8420  -26.8080   22.5690 C   0  0  0  0  0  2  0  0  0  0  0  0
  -19.7440  -26.4710   21.5540 C   0  0  0  0  0  2  0  0  0  0  0  0
  -18.3620  -26.5800   22.2050 C   0  0  0  0  0  2  0  0  0  0  0  0
  -19.2590  -28.6990   23.3320 C   0  0  0  0  0  0  0  0  0  0  0  0
  -19.0170  -29.9510   23.9390 C   0  0  0  0  0  3  0  0  0  0  0  0
  -17.7030  -30.4230   24.1130 C   0  0  0  0  0  3  0  0  0  0  0  0
  -16.6140  -29.6410   23.6900 C   0  0  0  0  0  3  0  0  0  0  0  0
  -16.8420  -28.3900   23.0880 C   0  0  0  0  0  3  0  0  0  0  0  0
  -25.9600  -32.4530   23.8360 C   0  0  0  0  0  3  0  0  0  0  0  0
  -26.4850  -31.6810   25.1090 C   0  0  1  0  0  0  0  0  0  0  0  0
  -25.4000  -31.4470   26.1850 C   0  0  0  0  0  1  0  0  0  0  0  0
  -27.0620  -30.3010   24.7110 C   0  0  0  0  0  1  0  0  0  0  0  0
  -27.6410  -32.4740   25.7610 C   0  0  0  0  0  1  0  0  0  0  0  0
  -25.6610  -33.8520   24.1630 N   0  0  0  0  0  0  0  0  0  0  0  0
  -26.0090  -34.9010   23.4030 C   0  0  0  0  0  0  0  0  0  0  0  0
  -26.6870  -34.7900   22.3770 O   0  0  0  0  0  0  0  0  0  0  0  0
  -25.0590  -34.0150   24.9560 H   0  0  0  0  0  0  0  0  0  0  0  0
  -24.3050  -36.7090   23.0180 C   0  0  0  0  0  1  0  0  0  0  0  0
  -25.5280  -36.2930   23.8520 C   0  0  0  0  0  3  0  0  0  0  0  0
  -27.6510  -37.1600   24.7260 C   0  0  0  0  0  1  0  0  0  0  0  0
  -26.5710  -37.3360   23.7580 N   0  0  0  0  0  0  0  0  0  0  0  0
  -26.1700  -38.2610   23.8950 H   0  0  0  0  0  0  0  0  0  0  0  0
  -30.2190  -21.7980   20.7860 C   0  0  0  0  0  3  0  0  0  0  0  0
  -29.8010  -23.0080   20.7920 N   0  0  0  0  0  0  0  0  0  0  0  0
  -29.7490  -20.5930   21.6020 C   0  0  0  0  0  2  0  0  0  0  0  0
  -31.0690  -14.5260   20.1150 C   0  0  0  0  0  0  0  0  0  0  0  0
  -30.6680  -12.4280   18.8960 C   0  0  0  0  0  2  0  0  0  0  0  0
  -29.6480  -12.7160   17.7740 C   0  0  0  0  0  2  0  0  0  0  0  0
  -28.2050  -12.5700   18.2990 C   0  0  0  0  0  2  0  0  0  0  0  0
  -27.9720  -13.3460   19.6220 C   0  0  0  0  0  3  0  0  0  0  0  0
  -29.0980  -13.0450   20.6380 C   0  0  0  0  0  2  0  0  0  0  0  0
  -30.3900  -13.3570   19.9980 N   0  0  0  0  0  0  0  0  0  0  0  0
  -32.1070  -14.7700   19.4880 O   0  0  0  0  0  0  0  0  0  0  0  0
  -30.1230  -19.2390   21.0730 C   0  0  0  0  0  0  0  0  0  0  0  0
  -30.4970  -18.8330   19.8110 C   0  0  0  0  0  0  0  0  0  0  0  0
  -30.4900  -16.8150   20.8270 C   0  0  0  0  0  0  0  0  0  0  0  0
  -30.7070  -17.4590   19.6750 N   0  0  0  0  0  0  0  0  0  0  0  0
  -30.5160  -15.4070   20.9560 N   0  0  0  0  0  0  0  0  0  0  0  0
  -30.6170  -19.6410   18.7850 F   0  0  0  0  0  0  0  0  0  0  0  0
  -30.0160  -17.8660   22.1490 S   0  0  0  0  0  0  0  0  0  0  0  0
  -29.8320  -15.0260   21.5880 H   0  0  0  0  0  0  0  0  0  0  0  0
  -25.6470  -13.9350   20.5610 C   0  0  0  0  0  0  0  0  0  0  0  0
  -24.5980  -13.1480   20.9540 C   0  0  0  0  0  0  0  0  0  0  0  0
  -25.0300  -11.7980   20.7830 C   0  0  0  0  0  0  0  0  0  0  0  0
  -26.6530  -13.0610   20.1800 N   0  0  0  0  0  0  0  0  0  0  0  0
  -26.2890  -11.7670   20.3680 N   0  0  0  0  0  0  0  0  0  0  0  0
  -24.2980  -10.5330   20.9330 C   0  0  0  0  0  0  0  0  0  0  0  0
  -24.7270   -9.5330   21.8330 C   0  0  0  0  0  3  0  0  0  0  0  0
  -23.9930   -8.3340   21.9730 C   0  0  0  0  0  3  0  0  0  0  0  0
  -22.8180   -8.1290   21.2110 C   0  0  0  0  0  0  0  0  0  0  0  0
  -22.4090   -9.1190   20.2990 C   0  0  0  0  0  3  0  0  0  0  0  0
  -23.1440  -10.3090   20.1570 C   0  0  0  0  0  3  0  0  0  0  0  0
  -22.0550   -6.9870   21.2630 O   0  0  0  0  0  0  0  0  0  0  0  0
  -21.9240   -6.2610   22.4190 C   0  0  0  0  0  0  0  0  0  0  0  0
  -21.4020   -6.8300   23.6020 C   0  0  0  0  0  3  0  0  0  0  0  0
  -21.2170   -6.0300   24.7460 C   0  0  0  0  0  3  0  0  0  0  0  0
  -21.5460   -4.6610   24.7110 C   0  0  0  0  0  0  0  0  0  0  0  0
  -22.0630   -4.0920   23.5340 C   0  0  0  0  0  3  0  0  0  0  0  0
  -22.2490   -4.8890   22.3910 C   0  0  0  0  0  0  0  0  0  0  0  0
  -22.7260   -4.3310   21.2520 F   0  0  0  0  0  0  0  0  0  0  0  0
  -21.3630   -3.8910   25.8080 F   0  0  0  0  0  0  0  0  0  0  0  0
  -23.2380  -13.6190   21.3830 C   0  0  0  0  0  0  0  0  0  0  0  0
  -22.5840  -12.8790   22.2700 N   0  0  0  0  0  0  0  0  0  0  0  0
  -22.7680  -14.6770   20.9680 O   0  0  0  0  0  0  0  0  0  0  0  0
  -22.9810  -12.0210   22.6240 H   0  0  0  0  0  0  0  0  0  0  0  0
  -21.6770  -13.1770   22.6050 H   0  0  0  0  0  0  0  0  0  0  0  0
  -25.8200  -15.3140   20.4830 N   0  0  0  0  0  0  0  0  0  0  0  0
  -25.0690  -15.9590   20.7010 H   0  0  0  0  0  0  0  0  0  0  0  0
  -26.6460  -15.7760   20.1240 H   0  0  0  0  0  0  0  0  0  0  0  0
  1  2  2  0
  3  1  1  0
  3  5  1  1
  3  4  1  0
  6  3  1  0
  7  9  1  0
  7  6  1  0
  8 19  2  0
  9 14  1  0
 10 18  1  0
 10 20  1  0
 11 17  1  0
 11 13  1  0
 12 18  1  0
 13 12  1  0
 14 13  2  0
 15 16  1  0
 15  9  2  0
 16 11  2  0
 17 10  1  0
 18  8  1  0
 20 22  2  0
 21 20  1  0
 23 21  1  0
 24 33  2  0
 24 29  1  0
 25 21  1  0
 25 29  1  0
 26 25  1  0
 27 28  1  0
 27 26  1  0
 28 24  1  0
 29 30  2  0
 30 31  1  0
 32 31  2  0
 33 32  1  0
 34  8  1  0
 34 39  1  0
 34 35  1  0
 35 38  1  1
 35 36  1  0
 37 35  1  0
 39 42  1  0
 40 44  1  0
 40 39  1  0
 41 40  2  0
 44 43  1  0
 46 44  1  0
 46 47  1  0
 46 45  1  0
 48 49  2  0
 48 50  1  0
 49  1  1  0
 51 63  1  0
 52 57  1  0
 53 54  1  0
 53 52  1  0
 55 54  1  0
 55 70  1  0
 55 56  1  0
 57 51  1  0
 57 56  1  0
 58 51  2  0
 59 50  1  0
 59 65  1  0
 60 59  2  0
 61 63  1  0
 61 65  1  0
 62 60  1  0
 62 61  2  0
 63 66  1  0
 64 60  1  0
 67 68  2  0
 68 87  1  0
 69 72  1  0
 69 68  1  0
 70 71  1  0
 70 67  1  0
 71 69  2  0
 72 73  1  0
 73 74  2  0
 75 78  1  0
 75 74  1  0
 76 75  2  0
 77 76  1  0
 77 72  2  0
 78 79  1  0
 79 80  1  0
 80 81  2  0
 82 81  1  0
 82 86  1  0
 83 82  2  0
 84 79  2  0
 84 83  1  0
 85 84  1  0
 87 88  1  0
 88 91  1  0
 88 90  1  0
 89 87  2  0
 92 67  1  0
 92 93  1  0
 94 92  1  0
M  ISO  4   6 101   7 101  51 100  63 100
M  END
>  <TORSDO>  (11) 
F 20

>  <SCORE>  (11) 
-12.592

>  <name>  (11) 
10

>  <ligand_id>  (11) 
10

>  <original_smiles>  (11) 
[H]C(=NC(=O)C(F)(F)C([H])([H])Oc1c([H])c([H])c2c(c1[H])C([H])([H])N(C(=O)C([H])(N([H])C(=O)C([H])(N([H])C([H])([H])[H])C([H])([H])[H])C(C([H])([H])[H])(C([H])([H])[H])C([H])([H])[H])C([H])(C(=O)N([H])C1([H])c3c([H])c([H])c([H])c([H])c3C([H])([H])C([H])([H])C1([H])[H])C2([H])[H])C([H])([H])c1sc(N([H])C(=O)N2C([H])([H])C([H])([H])C([H])([H])C([H])(n3nc(-c4c([H])c([H])c(Oc5c([H])c([H])c(F)c([H])c5F)c([H])c4[H])c(C(=O)N([H])[H])c3N([H])[H])C2([H])[H])nc1F

>  <smiles>  (11) 
[H]C(=NC(=O)C(F)(F)C([H])([H])Oc1c([H])c([H])c2c(c1[H])C([H])([H])N(C(=O)C([H])(N([H])C(=O)C([H])(N([H])C([H])([H])[H])C([H])([H])[H])C(C([H])([H])[H])(C([H])([H])[H])C([H])([H])[H])C([H])(C(=O)N([H])C1([H])c3c([H])c([H])c([H])c([H])c3C([H])([H])C([H])([H])C1([H])[H])C2([H])[H])C([H])([H])c1sc(N([H])C(=O)N2C([H])([H])C([H])([H])C([H])([H])C([H])(n3nc(-c4c([H])c([H])c(Oc5c([H])c([H])c(F)c([H])c5F)c([H])c4[H])c(C(=O)N([H])[H])c3N([H])[H])C2([H])[H])nc1F

$$$$
11:0:0
     RDKit          3D

 91 99  0  0  1  0  0  0  0  0999 V2000
  -29.8170  -17.3680   20.3700 C   0  0  0  0  0  0  0  0  0  0  0  0
  -29.8200  -17.5730   19.0110 C   0  0  0  0  0  0  0  0  0  0  0  0
  -29.4470  -19.7260   20.1920 C   0  0  0  0  0  0  0  0  0  0  0  0
  -28.9220  -22.2700   20.0080 C   0  0  0  0  0  0  0  0  0  0  0  0
  -29.5990  -18.6420   21.0210 N   0  0  0  0  0  0  0  0  0  0  0  0
  -29.2130  -21.0950   20.6800 N   0  0  0  0  0  0  0  0  0  0  0  0
  -28.7600  -22.2890   18.7860 O   0  0  0  0  0  0  0  0  0  0  0  0
  -29.9350  -16.5750   18.1010 F   0  0  0  0  0  0  0  0  0  0  0  0
  -29.5850  -19.2380   18.4970 S   0  0  0  0  0  0  0  0  0  0  0  0
  -29.2860  -21.1960   21.6810 H   0  0  0  0  0  0  0  0  0  0  0  0
  -28.7810  -23.6410   20.8110 C   0  0  0  0  0  3  0  0  0  0  0  0
  -30.3630  -24.0120   21.5670 Cl  0  0  0  0  0  0  0  0  0  0  0  0
  -28.1860  -24.9880   20.1040 C   0  0  0  0  0  2  0  0  0  0  0  0
  -28.3430  -26.4700   20.2710 O   0  0  0  0  0  0  0  0  0  0  0  0
  -24.6120  -31.9040   23.2350 C   0  0  0  0  0  0  0  0  0  0  0  0
  -27.2210  -27.3200   20.2040 C   0  0  0  0  0  0  0  0  0  0  0  0
  -23.4060  -30.4960   21.6040 C   0  0  0  0  0  3  0  0  0  0  0  0
  -24.8540  -28.9330   20.1840 C   0  0  0  0  0  0  0  0  0  0  0  0
  -25.9440  -30.8120   21.4150 C   0  0  0  0  0  2  0  0  0  0  0  0
  -26.0230  -29.4290   20.7740 C   0  0  0  0  0  0  0  0  0  0  0  0
  -27.2090  -28.6340   20.7710 C   0  0  0  0  0  3  0  0  0  0  0  0
  -26.0280  -26.8750   19.5920 C   0  0  0  0  0  3  0  0  0  0  0  0
  -24.8600  -27.6630   19.5820 C   0  0  0  0  0  3  0  0  0  0  0  0
  -23.6170  -29.8090   20.2280 C   0  0  0  0  0  2  0  0  0  0  0  0
  -24.6720  -31.0880   22.1410 N   0  0  0  0  0  0  0  0  0  0  0  0
  -23.5290  -32.1840   23.7690 O   0  0  0  0  0  0  0  0  0  0  0  0
  -22.7420  -29.4860   22.5710 C   0  0  0  0  0  0  0  0  0  0  0  0
  -21.4150  -29.3120   22.4480 N   0  0  0  0  0  0  0  0  0  0  0  0
  -23.4200  -28.8630   23.3920 O   0  0  0  0  0  0  0  0  0  0  0  0
  -20.9270  -29.8670   21.7590 H   0  0  0  0  0  0  0  0  0  0  0  0
  -18.0360  -28.1260   22.9600 C   0  0  0  0  0  0  0  0  0  0  0  0
  -20.5950  -28.3800   23.2250 C   0  0  0  0  0  3  0  0  0  0  0  0
  -20.6920  -26.9460   22.6560 C   0  0  0  0  0  2  0  0  0  0  0  0
  -19.5880  -26.6210   21.6440 C   0  0  0  0  0  2  0  0  0  0  0  0
  -18.2070  -26.7740   22.2890 C   0  0  0  0  0  2  0  0  0  0  0  0
  -19.1580  -28.8870   23.3840 C   0  0  0  0  0  0  0  0  0  0  0  0
  -18.9440  -30.1540   23.9700 C   0  0  0  0  0  3  0  0  0  0  0  0
  -17.6390  -30.6600   24.1370 C   0  0  0  0  0  3  0  0  0  0  0  0
  -16.5320  -29.8950   23.7290 C   0  0  0  0  0  3  0  0  0  0  0  0
  -16.7310  -28.6310   23.1460 C   0  0  0  0  0  3  0  0  0  0  0  0
  -25.8950  -32.5390   23.8530 C   0  0  0  0  0  3  0  0  0  0  0  0
  -26.4160  -31.7700   25.1300 C   0  0  1  0  0  0  0  0  0  0  0  0
  -25.3260  -31.5340   26.2020 C   0  0  0  0  0  1  0  0  0  0  0  0
  -26.9990  -30.3920   24.7400 C   0  0  0  0  0  1  0  0  0  0  0  0
  -27.5690  -32.5660   25.7860 C   0  0  0  0  0  1  0  0  0  0  0  0
  -25.5840  -33.9370   24.1840 N   0  0  0  0  0  0  0  0  0  0  0  0
  -25.9140  -34.9910   23.4260 C   0  0  0  0  0  0  0  0  0  0  0  0
  -26.5810  -34.8880   22.3930 O   0  0  0  0  0  0  0  0  0  0  0  0
  -24.9920  -34.0900   24.9870 H   0  0  0  0  0  0  0  0  0  0  0  0
  -24.1850  -36.7840   23.0770 C   0  0  0  0  0  1  0  0  0  0  0  0
  -25.4270  -36.3790   23.8850 C   0  0  0  0  0  3  0  0  0  0  0  0
  -27.5640  -37.2630   24.7120 C   0  0  0  0  0  1  0  0  0  0  0  0
  -26.4600  -37.4330   23.7710 N   0  0  0  0  0  0  0  0  0  0  0  0
  -26.0540  -38.3520   23.9200 H   0  0  0  0  0  0  0  0  0  0  0  0
  -29.8760  -16.0000   21.1430 C   0  0  0  0  0  2  0  0  0  0  0  0
  -30.6000  -14.7130   20.5200 C   0  0  0  0  0  0  0  0  0  0  0  0
  -30.4140  -12.4700   19.4230 C   0  0  0  0  0  2  0  0  0  0  0  0
  -29.4910  -12.5910   18.1890 C   0  0  0  0  0  2  0  0  0  0  0  0
  -28.0100  -12.4330   18.5890 C   0  0  0  0  0  2  0  0  0  0  0  0
  -27.6320  -13.2950   19.8240 C   0  0  0  0  0  3  0  0  0  0  0  0
  -28.6680  -13.1220   20.9550 C   0  0  0  0  0  2  0  0  0  0  0  0
  -29.9820  -13.4870   20.4080 N   0  0  0  0  0  0  0  0  0  0  0  0
  -31.7530  -14.8440   20.0940 O   0  0  0  0  0  0  0  0  0  0  0  0
  -25.2240  -13.9090   20.4720 C   0  0  0  0  0  0  0  0  0  0  0  0
  -24.1460  -13.1440   20.8270 C   0  0  0  0  0  0  0  0  0  0  0  0
  -24.6050  -11.7920   20.8310 C   0  0  0  0  0  0  0  0  0  0  0  0
  -26.2710  -13.0230   20.2790 N   0  0  0  0  0  0  0  0  0  0  0  0
  -25.9030  -11.7450   20.5540 N   0  0  0  0  0  0  0  0  0  0  0  0
  -23.8700  -10.5340   21.0240 C   0  0  0  0  0  0  0  0  0  0  0  0
  -24.2870   -9.5730   21.9700 C   0  0  0  0  0  3  0  0  0  0  0  0
  -23.5530   -8.3800   22.1500 C   0  0  0  0  0  3  0  0  0  0  0  0
  -22.3870   -8.1420   21.3840 C   0  0  0  0  0  0  0  0  0  0  0  0
  -21.9890   -9.0930   20.4270 C   0  0  0  0  0  3  0  0  0  0  0  0
  -22.7240  -10.2760   20.2450 C   0  0  0  0  0  3  0  0  0  0  0  0
  -21.6260   -7.0010   21.4720 O   0  0  0  0  0  0  0  0  0  0  0  0
  -21.5700   -6.2620   22.6260 C   0  0  0  0  0  0  0  0  0  0  0  0
  -21.1580   -6.8250   23.8530 C   0  0  0  0  0  3  0  0  0  0  0  0
  -21.0480   -6.0120   24.9990 C   0  0  0  0  0  3  0  0  0  0  0  0
  -21.3400   -4.6380   24.9190 C   0  0  0  0  0  0  0  0  0  0  0  0
  -21.7460   -4.0740   23.6970 C   0  0  0  0  0  3  0  0  0  0  0  0
  -21.8570   -4.8840   22.5520 C   0  0  0  0  0  0  0  0  0  0  0  0
  -22.2280   -4.3310   21.3720 F   0  0  0  0  0  0  0  0  0  0  0  0
  -21.2270   -3.8550   26.0180 F   0  0  0  0  0  0  0  0  0  0  0  0
  -22.7440  -13.6300   21.0570 C   0  0  0  0  0  0  0  0  0  0  0  0
  -21.9930  -12.9510   21.9170 N   0  0  0  0  0  0  0  0  0  0  0  0
  -22.3220  -14.6470   20.5080 O   0  0  0  0  0  0  0  0  0  0  0  0
  -22.3450  -12.1280   22.3820 H   0  0  0  0  0  0  0  0  0  0  0  0
  -21.0510  -13.2600   22.1150 H   0  0  0  0  0  0  0  0  0  0  0  0
  -25.3960  -15.2760   20.2760 N   0  0  0  0  0  0  0  0  0  0  0  0
  -24.6250  -15.9310   20.3530 H   0  0  0  0  0  0  0  0  0  0  0  0
  -26.2500  -15.7080   19.9490 H   0  0  0  0  0  0  0  0  0  0  0  0
  1  5  1  0
  1 55  1  0
  2  1  2  0
  3  6  1  0
  3  5  2  0
  4  6  1  0
  4 11  1  0
  6 10  1  0
  7  4  2  0
  8  2  1  0
  9  2  1  0
  9  3  1  0
 11 12  1  0
 13 14  1  0
 13 11  1  0
 15 26  2  0
 16 14  1  0
 16 21  1  0
 17 25  1  0
 17 27  1  0
 18 24  1  0
 18 20  1  0
 19 25  1  0
 20 19  1  0
 21 20  2  0
 22 16  2  0
 23 22  1  0
 23 18  2  0
 24 17  1  0
 25 15  1  0
 27 29  2  0
 28 27  1  0
 30 28  1  0
 31 40  2  0
 31 36  1  0
 32 28  1  0
 32 36  1  0
 33 32  1  0
 34 35  1  0
 34 33  1  0
 35 31  1  0
 36 37  2  0
 37 38  1  0
 39 38  2  0
 40 39  1  0
 41 15  1  0
 41 46  1  0
 41 42  1  0
 42 45  1  1
 42 43  1  0
 44 42  1  0
 46 49  1  0
 47 51  1  0
 47 46  1  0
 48 47  2  0
 51 50  1  0
 53 51  1  0
 53 54  1  0
 53 52  1  0
 56 55  1  0
 57 62  1  0
 58 59  1  0
 58 57  1  0
 60 59  1  0
 60 67  1  0
 60 61  1  0
 62 56  1  0
 62 61  1  0
 63 56  2  0
 64 65  2  0
 65 66  1  0
 65 84  1  0
 66 69  1  0
 67 64  1  0
 67 68  1  0
 68 66  2  0
 69 70  1  0
 70 71  2  0
 72 75  1  0
 72 71  1  0
 73 72  2  0
 74 73  1  0
 74 69  2  0
 75 76  1  0
 76 77  1  0
 77 78  2  0
 79 78  1  0
 79 83  1  0
 80 79  2  0
 81 76  2  0
 81 80  1  0
 82 81  1  0
 84 85  1  0
 85 88  1  0
 85 87  1  0
 86 84  2  0
 89 90  1  0
 89 64  1  0
 91 89  1  0
M  ISO  4  13 101  14 101  55 100  56 100
M  END
>  <TORSDO>  (12) 
F 19

>  <SCORE>  (12) 
-14.086

>  <name>  (12) 
11

>  <ligand_id>  (12) 
11

>  <original_smiles>  (12) 
[H]c1c([H])c([H])c2c(c1[H])C([H])([H])C([H])([H])C([H])([H])C2([H])N([H])C(=O)C1([H])N(C(=O)C([H])(N([H])C(=O)C([H])(N([H])C([H])([H])[H])C([H])([H])[H])C(C([H])([H])[H])(C([H])([H])[H])C([H])([H])[H])C([H])([H])c2c([H])c(OC([H])([H])C([H])(Cl)C(=O)N([H])c3nc(C([H])([H])C(=O)N4C([H])([H])C([H])([H])C([H])([H])C([H])(n5nc(-c6c([H])c([H])c(Oc7c([H])c([H])c(F)c([H])c7F)c([H])c6[H])c(C(=O)N([H])[H])c5N([H])[H])C4([H])[H])c(F)s3)c([H])c([H])c2C1([H])[H]

>  <smiles>  (12) 
[H]c1c([H])c([H])c2c(c1[H])C([H])([H])C([H])([H])C([H])([H])C2([H])N([H])C(=O)C1([H])N(C(=O)C([H])(N([H])C(=O)C([H])(N([H])C([H])([H])[H])C([H])([H])[H])C(C([H])([H])[H])(C([H])([H])[H])C([H])([H])[H])C([H])([H])c2c([H])c(OC([H])([H])C([H])(Cl)C(=O)N([H])c3nc(C([H])([H])C(=O)N4C([H])([H])C([H])([H])C([H])([H])C([H])(n5nc(-c6c([H])c([H])c(Oc7c([H])c([H])c(F)c([H])c7F)c([H])c6[H])c(C(=O)N([H])[H])c5N([H])[H])C4([H])[H])c(F)s3)c([H])c([H])c2C1([H])[H]

$$$$
12:0:0
     RDKit          3D

 95103  0  0  1  0  0  0  0  0999 V2000
  -28.9170  -21.2190   19.6850 C   0  0  0  0  0  0  0  0  0  0  0  0
  -28.5180  -23.8050   19.8300 C   0  0  0  0  0  0  0  0  0  0  0  0
  -28.8640  -22.4390   20.3780 N   0  0  0  0  0  0  0  0  0  0  0  0
  -28.5140  -21.2080   18.3980 N   0  0  0  0  0  4  0  0  0  0  0  0
  -28.3830  -23.9500   18.6080 O   0  0  0  0  0  0  0  0  0  0  0  0
  -29.0310  -22.3280   21.3640 H   0  0  0  0  0  0  0  0  0  0  0  0
  -28.5210  -20.3640   17.8450 H   0  0  0  0  0  0  0  0  0  0  0  0
  -28.2590  -22.0800   17.9460 H   0  0  0  0  0  0  0  0  0  0  0  0
  -30.5450  -14.7560   20.3880 C   0  0  0  0  0  0  0  0  0  0  0  0
  -30.3980  -12.4780   19.3660 C   0  0  0  0  0  2  0  0  0  0  0  0
  -29.4540  -12.5480   18.1420 C   0  0  0  0  0  2  0  0  0  0  0  0
  -27.9830  -12.3710   18.5700 C   0  0  0  0  0  2  0  0  0  0  0  0
  -27.6050  -13.2550   19.7860 C   0  0  0  0  0  3  0  0  0  0  0  0
  -28.6590  -13.1450   20.9090 C   0  0  0  0  0  2  0  0  0  0  0  0
  -29.9580  -13.5130   20.3280 N   0  0  0  0  0  0  0  0  0  0  0  0
  -31.7300  -14.9010   20.0670 O   0  0  0  0  0  0  0  0  0  0  0  0
  -29.3760  -19.8610   20.1860 C   0  0  0  0  0  0  0  0  0  0  0  0
  -30.5040  -19.4670   20.8900 C   0  0  0  0  0  0  0  0  0  0  0  0
  -29.7840  -17.2930   20.4750 C   0  0  0  0  0  0  0  0  0  0  0  0
  -30.7320  -18.0620   21.0400 N   0  0  0  0  0  0  0  0  0  0  0  0
  -29.6820  -15.8200   20.5940 N   0  0  0  0  0  0  0  0  0  0  0  0
  -31.3650  -20.3420   21.3560 F   0  0  0  0  0  0  0  0  0  0  0  0
  -28.5240  -18.3530   19.7390 S   0  0  0  0  0  0  0  0  0  0  0  0
  -28.7360  -15.4990   20.7160 H   0  0  0  0  0  0  0  0  0  0  0  0
  -25.2110  -13.8560   20.4970 C   0  0  0  0  0  0  0  0  0  0  0  0
  -24.1440  -13.0840   20.8700 C   0  0  0  0  0  0  0  0  0  0  0  0
  -24.6090  -11.7330   20.8480 C   0  0  0  0  0  0  0  0  0  0  0  0
  -26.2560  -12.9740   20.2700 N   0  0  0  0  0  0  0  0  0  0  0  0
  -25.9000  -11.6940   20.5450 N   0  0  0  0  0  0  0  0  0  0  0  0
  -23.8830  -10.4720   21.0400 C   0  0  0  0  0  0  0  0  0  0  0  0
  -24.3180   -9.5040   21.9730 C   0  0  0  0  0  3  0  0  0  0  0  0
  -23.5930   -8.3070   22.1540 C   0  0  0  0  0  3  0  0  0  0  0  0
  -22.4190   -8.0680   21.4000 C   0  0  0  0  0  0  0  0  0  0  0  0
  -22.0030   -9.0240   20.4560 C   0  0  0  0  0  3  0  0  0  0  0  0
  -22.7290  -10.2130   20.2740 C   0  0  0  0  0  3  0  0  0  0  0  0
  -21.6650   -6.9230   21.4900 O   0  0  0  0  0  0  0  0  0  0  0  0
  -21.6250   -6.1760   22.6400 C   0  0  0  0  0  0  0  0  0  0  0  0
  -21.2110   -6.7270   23.8720 C   0  0  0  0  0  3  0  0  0  0  0  0
  -21.1180   -5.9070   25.0130 C   0  0  0  0  0  3  0  0  0  0  0  0
  -21.4290   -4.5360   24.9250 C   0  0  0  0  0  0  0  0  0  0  0  0
  -21.8350   -3.9850   23.6970 C   0  0  0  0  0  3  0  0  0  0  0  0
  -21.9300   -4.8030   22.5570 C   0  0  0  0  0  0  0  0  0  0  0  0
  -22.3020   -4.2610   21.3720 F   0  0  0  0  0  0  0  0  0  0  0  0
  -21.3320   -3.7470   26.0190 F   0  0  0  0  0  0  0  0  0  0  0  0
  -22.7460  -13.5620   21.1300 C   0  0  0  0  0  0  0  0  0  0  0  0
  -22.0120  -12.8690   21.9930 N   0  0  0  0  0  0  0  0  0  0  0  0
  -22.3110  -14.5850   20.6020 O   0  0  0  0  0  0  0  0  0  0  0  0
  -22.3760  -12.0410   22.4420 H   0  0  0  0  0  0  0  0  0  0  0  0
  -21.0740  -13.1710   22.2110 H   0  0  0  0  0  0  0  0  0  0  0  0
  -25.3740  -15.2260   20.3080 N   0  0  0  0  0  0  0  0  0  0  0  0
  -24.5930  -15.8670   20.3970 H   0  0  0  0  0  0  0  0  0  0  0  0
  -26.1890  -15.6560   19.8950 H   0  0  0  0  0  0  0  0  0  0  0  0
  -29.1790  -25.0690   22.0140 C   0  0  0  0  0  1  0  0  0  0  0  0
  -28.2420  -25.0590   20.7960 C   0  0  0  0  0  3  0  0  0  0  0  0
  -28.3470  -26.4340   20.1970 O   0  0  0  0  0  0  0  0  0  0  0  0
  -24.6100  -31.8800   23.2440 C   0  0  0  0  0  0  0  0  0  0  0  0
  -27.2320  -27.2940   20.2140 C   0  0  0  0  0  0  0  0  0  0  0  0
  -23.4120  -30.4770   21.6040 C   0  0  0  0  0  3  0  0  0  0  0  0
  -24.8670  -28.9170   20.1890 C   0  0  0  0  0  0  0  0  0  0  0  0
  -25.9530  -30.7930   21.4240 C   0  0  0  0  0  2  0  0  0  0  0  0
  -26.0380  -29.4090   20.7840 C   0  0  0  0  0  0  0  0  0  0  0  0
  -27.2250  -28.6120   20.7780 C   0  0  0  0  0  3  0  0  0  0  0  0
  -26.0390  -26.8550   19.6030 C   0  0  0  0  0  3  0  0  0  0  0  0
  -24.8730  -27.6470   19.5890 C   0  0  0  0  0  3  0  0  0  0  0  0
  -23.6310  -29.7940   20.2280 C   0  0  0  0  0  2  0  0  0  0  0  0
  -24.6780  -31.0680   22.1480 N   0  0  0  0  0  0  0  0  0  0  0  0
  -23.5240  -32.1580   23.7750 O   0  0  0  0  0  0  0  0  0  0  0  0
  -22.7470  -29.4630   22.5670 C   0  0  0  0  0  0  0  0  0  0  0  0
  -21.4210  -29.2860   22.4410 N   0  0  0  0  0  0  0  0  0  0  0  0
  -23.4260  -28.8390   23.3870 O   0  0  0  0  0  0  0  0  0  0  0  0
  -20.9310  -29.8420   21.7530 H   0  0  0  0  0  0  0  0  0  0  0  0
  -18.0440  -28.0880   22.9420 C   0  0  0  0  0  0  0  0  0  0  0  0
  -20.6020  -28.3490   23.2120 C   0  0  0  0  0  3  0  0  0  0  0  0
  -20.7060  -26.9160   22.6400 C   0  0  0  0  0  2  0  0  0  0  0  0
  -19.6050  -26.5920   21.6250 C   0  0  0  0  0  2  0  0  0  0  0  0
  -18.2230  -26.7380   22.2680 C   0  0  0  0  0  2  0  0  0  0  0  0
  -19.1620  -28.8510   23.3730 C   0  0  0  0  0  0  0  0  0  0  0  0
  -18.9420  -30.1140   23.9620 C   0  0  0  0  0  3  0  0  0  0  0  0
  -17.6370  -30.6150   24.1270 C   0  0  0  0  0  3  0  0  0  0  0  0
  -16.5340  -29.8490   23.7140 C   0  0  0  0  0  3  0  0  0  0  0  0
  -16.7370  -28.5880   23.1280 C   0  0  0  0  0  3  0  0  0  0  0  0
  -25.8890  -32.5180   23.8670 C   0  0  0  0  0  3  0  0  0  0  0  0
  -25.5770  -33.9190   24.1880 N   0  0  0  0  0  0  0  0  0  0  0  0
  -25.9100  -34.9680   23.4260 C   0  0  0  0  0  0  0  0  0  0  0  0
  -26.5810  -34.8600   22.3960 O   0  0  0  0  0  0  0  0  0  0  0  0
  -24.9820  -34.0770   24.9880 H   0  0  0  0  0  0  0  0  0  0  0  0
  -24.1830  -36.7600   23.0650 C   0  0  0  0  0  1  0  0  0  0  0  0
  -25.4230  -36.3590   23.8780 C   0  0  0  0  0  3  0  0  0  0  0  0
  -27.5590  -37.2470   24.7040 C   0  0  0  0  0  1  0  0  0  0  0  0
  -26.4570  -37.4120   23.7620 N   0  0  0  0  0  0  0  0  0  0  0  0
  -26.0510  -38.3320   23.9080 H   0  0  0  0  0  0  0  0  0  0  0  0
  -26.3990  -31.7570   25.1510 C   0  0  1  0  0  0  0  0  0  0  0  0
  -25.3020  -31.5300   26.2160 C   0  0  0  0  0  1  0  0  0  0  0  0
  -26.9810  -30.3750   24.7710 C   0  0  0  0  0  1  0  0  0  0  0  0
  -27.5500  -32.5530   25.8110 C   0  0  0  0  0  1  0  0  0  0  0  0
  1 17  1  0
  1  3  1  0
  2  3  1  0
  2 54  1  0
  3  6  1  0
  4  1  2  0
  5  2  2  0
  7  4  1  0
  8  4  1  0
  9 21  1  0
 10 15  1  0
 11 12  1  0
 11 10  1  0
 13 12  1  0
 13 28  1  0
 13 14  1  0
 15  9  1  0
 15 14  1  0
 16  9  2  0
 17 18  2  0
 18 20  1  0
 18 22  1  0
 19 21  1  0
 19 20  2  0
 21 24  1  0
 23 17  1  0
 23 19  1  0
 25 26  2  0
 26 45  1  0
 27 26  1  0
 27 30  1  0
 28 25  1  0
 28 29  1  0
 29 27  2  0
 30 31  1  0
 31 32  2  0
 33 36  1  0
 33 32  1  0
 34 33  2  0
 35 34  1  0
 35 30  2  0
 36 37  1  0
 37 38  1  0
 38 39  2  0
 40 39  1  0
 40 44  1  0
 41 40  2  0
 42 37  2  0
 42 41  1  0
 43 42  1  0
 45 46  1  0
 46 49  1  0
 46 48  1  0
 47 45  2  0
 50 51  1  0
 50 25  1  0
 52 50  1  0
 54 53  1  0
 55 57  1  0
 55 54  1  0
 56 67  2  0
 57 62  1  0
 58 66  1  0
 58 68  1  0
 59 65  1  0
 59 61  1  0
 60 66  1  0
 61 60  1  0
 62 61  2  0
 63 57  2  0
 64 63  1  0
 64 59  2  0
 65 58  1  0
 66 56  1  0
 68 70  2  0
 69 68  1  0
 71 69  1  0
 72 81  2  0
 72 77  1  0
 73 69  1  0
 73 77  1  0
 74 73  1  0
 75 76  1  0
 75 74  1  0
 76 72  1  0
 77 78  2  0
 78 79  1  0
 80 79  2  0
 81 80  1  0
 82 56  1  0
 82 83  1  0
 82 92  1  0
 83 86  1  0
 84 88  1  0
 84 83  1  0
 85 84  2  0
 88 87  1  0
 90 88  1  0
 90 91  1  0
 90 89  1  0
 92 95  1  1
 92 93  1  0
 94 92  1  0
M  ISO  4   9 100  21 100  54 101  55 101
M  END
>  <TORSDO>  (13) 
F 17

>  <SCORE>  (13) 
-15.320

>  <name>  (13) 
12

>  <ligand_id>  (13) 
12

>  <original_smiles>  (13) 
[H]c1c([H])c([H])c2c(c1[H])C([H])([H])C([H])([H])C([H])([H])C2([H])N([H])C(=O)C1([H])N(C(=O)C([H])(N([H])C(=O)C([H])(N([H])C([H])([H])[H])C([H])([H])[H])C(C([H])([H])[H])(C([H])([H])[H])C([H])([H])[H])C([H])([H])c2c([H])c(OC([H])(C(=O)N([H])C(c3sc(N([H])C(=O)N4C([H])([H])C([H])([H])C([H])([H])C([H])(n5nc(-c6c([H])c([H])c(Oc7c([H])c([H])c(F)c([H])c7F)c([H])c6[H])c(C(=O)N([H])[H])c5N([H])[H])C4([H])[H])nc3F)=[N+]([H])[H])C([H])([H])[H])c([H])c([H])c2C1([H])[H]

>  <smiles>  (13) 
[H]c1c([H])c([H])c2c(c1[H])C([H])([H])C([H])([H])C([H])([H])C2([H])N([H])C(=O)C1([H])N(C(=O)C([H])(N([H])C(=O)C([H])(N([H])C([H])([H])[H])C([H])([H])[H])C(C([H])([H])[H])(C([H])([H])[H])C([H])([H])[H])C([H])([H])c2c([H])c(OC([H])(C(=O)N([H])C(c3sc(N([H])C(=O)N4C([H])([H])C([H])([H])C([H])([H])C([H])(n5nc(-c6c([H])c([H])c(Oc7c([H])c([H])c(F)c([H])c7F)c([H])c6[H])c(C(=O)N([H])[H])c5N([H])[H])C4([H])[H])nc3F)=[N+]([H])[H])C([H])([H])[H])c([H])c([H])c2C1([H])[H]

$$$$
13:0:0
     RDKit          3D

 93101  0  0  1  0  0  0  0  0999 V2000
  -29.3310  -21.8580   20.3970 O   0  0  0  0  0  0  0  0  0  0  0  0
  -28.9930  -20.7170   21.1320 C   0  0  0  0  0  0  0  0  0  0  0  0
  -28.2250  -20.6930   22.1050 O   0  0  0  0  0  0  0  0  0  0  0  0
  -30.9480  -17.7950   19.6390 C   0  0  0  0  0  3  0  0  0  0  0  0
  -30.5940  -19.1830   19.7410 C   0  0  0  0  0  0  0  0  0  0  0  0
  -29.6470  -19.4650   20.6900 C   0  0  0  0  0  0  0  0  0  0  0  0
  -30.2560  -16.9810   20.5140 C   0  0  0  0  0  0  0  0  0  0  0  0
  -31.1490  -20.0920   18.9710 F   0  0  0  0  0  0  0  0  0  0  0  0
  -29.1700  -17.9700   21.4800 S   0  0  0  0  0  0  0  0  0  0  0  0
  -30.9350  -14.6640   20.0150 C   0  0  0  0  0  0  0  0  0  0  0  0
  -30.6050  -12.4970   18.8720 C   0  0  0  0  0  2  0  0  0  0  0  0
  -29.5890  -12.7070   17.7280 C   0  0  0  0  0  2  0  0  0  0  0  0
  -28.1440  -12.5590   18.2430 C   0  0  0  0  0  2  0  0  0  0  0  0
  -27.8820  -13.3820   19.5330 C   0  0  0  0  0  3  0  0  0  0  0  0
  -29.0000  -13.1430   20.5720 C   0  0  0  0  0  2  0  0  0  0  0  0
  -30.2910  -13.4650   19.9360 N   0  0  0  0  0  0  0  0  0  0  0  0
  -32.0090  -14.8830   19.4470 O   0  0  0  0  0  0  0  0  0  0  0  0
  -30.2650  -15.6220   20.6920 N   0  0  0  0  0  0  0  0  0  0  0  0
  -29.5070  -15.2600   21.2540 H   0  0  0  0  0  0  0  0  0  0  0  0
  -25.5450  -13.9900   20.4260 C   0  0  0  0  0  0  0  0  0  0  0  0
  -24.4910  -13.2150   20.8320 C   0  0  0  0  0  0  0  0  0  0  0  0
  -24.9270  -11.8600   20.7100 C   0  0  0  0  0  0  0  0  0  0  0  0
  -26.5580  -13.1060   20.0870 N   0  0  0  0  0  0  0  0  0  0  0  0
  -26.1930  -11.8190   20.3140 N   0  0  0  0  0  0  0  0  0  0  0  0
  -24.1950  -10.6000   20.8940 C   0  0  0  0  0  0  0  0  0  0  0  0
  -24.5810   -9.6580   21.8730 C   0  0  0  0  0  3  0  0  0  0  0  0
  -23.8510   -8.4620   22.0430 C   0  0  0  0  0  3  0  0  0  0  0  0
  -22.7210   -8.2000   21.2330 C   0  0  0  0  0  0  0  0  0  0  0  0
  -22.3530   -9.1310   20.2450 C   0  0  0  0  0  3  0  0  0  0  0  0
  -23.0840  -10.3170   20.0740 C   0  0  0  0  0  3  0  0  0  0  0  0
  -21.9680   -7.0530   21.3090 O   0  0  0  0  0  0  0  0  0  0  0  0
  -21.7280   -6.4280   22.5070 C   0  0  0  0  0  0  0  0  0  0  0  0
  -21.0840   -7.0880   23.5760 C   0  0  0  0  0  3  0  0  0  0  0  0
  -20.7940   -6.3870   24.7630 C   0  0  0  0  0  3  0  0  0  0  0  0
  -21.1370   -5.0270   24.8810 C   0  0  0  0  0  0  0  0  0  0  0  0
  -21.7730   -4.3660   23.8160 C   0  0  0  0  0  3  0  0  0  0  0  0
  -22.0640   -5.0640   22.6300 C   0  0  0  0  0  0  0  0  0  0  0  0
  -22.6580   -4.4180   21.5980 F   0  0  0  0  0  0  0  0  0  0  0  0
  -20.8500   -4.3510   26.0180 F   0  0  0  0  0  0  0  0  0  0  0  0
  -23.1230  -13.6970   21.2220 C   0  0  0  0  0  0  0  0  0  0  0  0
  -22.4450  -12.9720   22.1030 N   0  0  0  0  0  0  0  0  0  0  0  0
  -22.6670  -14.7510   20.7800 O   0  0  0  0  0  0  0  0  0  0  0  0
  -22.8260  -12.1180   22.4840 H   0  0  0  0  0  0  0  0  0  0  0  0
  -21.5290  -13.2770   22.4050 H   0  0  0  0  0  0  0  0  0  0  0  0
  -25.7200  -15.3650   20.3020 N   0  0  0  0  0  0  0  0  0  0  0  0
  -24.9760  -16.0270   20.4970 H   0  0  0  0  0  0  0  0  0  0  0  0
  -26.5580  -15.8070   19.9420 H   0  0  0  0  0  0  0  0  0  0  0  0
  -28.4570  -22.9480   20.4630 C   0  0  0  0  0  0  0  0  0  0  0  0
  -27.2560  -22.9050   20.7590 O   0  0  0  0  0  0  0  0  0  0  0  0
  -29.0820  -24.3080   20.0460 C   0  0  0  0  0  2  0  0  0  0  0  0
  -29.1250  -25.8160   22.1350 C   0  0  0  0  0  1  0  0  0  0  0  0
  -28.4760  -25.5600   20.7650 C   0  0  0  0  0  3  0  0  0  0  0  0
  -28.5850  -26.7900   20.0040 O   0  0  0  0  0  0  0  0  0  0  0  0
  -24.6400  -31.8210   23.1690 C   0  0  0  0  0  0  0  0  0  0  0  0
  -27.4270  -27.5460   19.9830 C   0  0  0  0  0  0  0  0  0  0  0  0
  -23.4850  -30.4320   21.4800 C   0  0  0  0  0  3  0  0  0  0  0  0
  -24.9930  -28.9880   20.0130 C   0  0  0  0  0  0  0  0  0  0  0  0
  -25.9990  -30.8770   21.3030 C   0  0  0  0  0  2  0  0  0  0  0  0
  -26.1320  -29.5280   20.6230 C   0  0  0  0  0  0  0  0  0  0  0  0
  -27.3570  -28.8150   20.6030 C   0  0  0  0  0  3  0  0  0  0  0  0
  -26.2750  -27.0280   19.3560 C   0  0  0  0  0  3  0  0  0  0  0  0
  -25.0590  -27.7370   19.3730 C   0  0  0  0  0  3  0  0  0  0  0  0
  -23.7200  -29.8020   20.0820 C   0  0  0  0  0  2  0  0  0  0  0  0
  -24.7260  -31.0570   22.0430 N   0  0  0  0  0  0  0  0  0  0  0  0
  -23.5490  -32.0430   23.7130 O   0  0  0  0  0  0  0  0  0  0  0  0
  -22.8610  -29.3640   22.4070 C   0  0  0  0  0  0  0  0  0  0  0  0
  -21.5460  -29.1370   22.2610 N   0  0  0  0  0  0  0  0  0  0  0  0
  -23.5590  -28.7430   23.2130 O   0  0  0  0  0  0  0  0  0  0  0  0
  -21.0420  -29.6930   21.5840 H   0  0  0  0  0  0  0  0  0  0  0  0
  -18.2120  -27.8090   22.6910 C   0  0  0  0  0  0  0  0  0  0  0  0
  -20.7560  -28.1510   22.9990 C   0  0  0  0  0  3  0  0  0  0  0  0
  -20.9150  -26.7400   22.3860 C   0  0  0  0  0  2  0  0  0  0  0  0
  -19.8360  -26.4060   21.3520 C   0  0  0  0  0  2  0  0  0  0  0  0
  -18.4440  -26.4850   21.9830 C   0  0  0  0  0  2  0  0  0  0  0  0
  -19.2980  -28.5990   23.1540 C   0  0  0  0  0  0  0  0  0  0  0  0
  -19.0280  -29.8380   23.7750 C   0  0  0  0  0  3  0  0  0  0  0  0
  -17.7050  -30.2880   23.9380 C   0  0  0  0  0  3  0  0  0  0  0  0
  -16.6320  -29.4970   23.4920 C   0  0  0  0  0  3  0  0  0  0  0  0
  -16.8870  -28.2580   22.8740 C   0  0  0  0  0  3  0  0  0  0  0  0
  -25.9040  -32.4730   23.8130 C   0  0  0  0  0  3  0  0  0  0  0  0
  -25.5570  -33.8550   24.1710 N   0  0  0  0  0  0  0  0  0  0  0  0
  -25.8690  -34.9310   23.4370 C   0  0  0  0  0  0  0  0  0  0  0  0
  -26.5510  -34.8670   22.4100 O   0  0  0  0  0  0  0  0  0  0  0  0
  -24.9490  -33.9760   24.9680 H   0  0  0  0  0  0  0  0  0  0  0  0
  -24.0990  -36.6870   23.1010 C   0  0  0  0  0  1  0  0  0  0  0  0
  -25.3420  -36.2970   23.9180 C   0  0  0  0  0  3  0  0  0  0  0  0
  -27.4390  -37.2200   24.7990 C   0  0  0  0  0  1  0  0  0  0  0  0
  -26.3500  -37.3750   23.8380 N   0  0  0  0  0  0  0  0  0  0  0  0
  -25.9200  -38.2840   23.9890 H   0  0  0  0  0  0  0  0  0  0  0  0
  -26.4360  -31.6860   25.0740 C   0  0  1  0  0  0  0  0  0  0  0  0
  -25.3450  -31.3920   26.1280 C   0  0  0  0  0  1  0  0  0  0  0  0
  -27.0600  -30.3360   24.6490 C   0  0  0  0  0  1  0  0  0  0  0  0
  -27.5590  -32.4970   25.7610 C   0  0  0  0  0  1  0  0  0  0  0  0
  1 48  1  0
  1  2  1  0
  2  3  2  0
  4  5  1  0
  4  7  2  0
  5  6  2  0
  6  2  1  0
  6  9  1  0
  7 18  1  0
  7  9  1  0
  8  5  1  0
 10 18  1  0
 11 16  1  0
 12 13  1  0
 12 11  1  0
 14 13  1  0
 14 23  1  0
 14 15  1  0
 16 10  1  0
 16 15  1  0
 17 10  2  0
 18 19  1  0
 20 21  2  0
 21 40  1  0
 22 21  1  0
 22 25  1  0
 23 24  1  0
 23 20  1  0
 24 22  2  0
 25 26  1  0
 26 27  2  0
 28 31  1  0
 28 27  1  0
 29 28  2  0
 30 29  1  0
 30 25  2  0
 31 32  1  0
 32 37  2  0
 32 33  1  0
 33 34  2  0
 34 35  1  0
 35 39  1  0
 36 35  2  0
 37 36  1  0
 38 37  1  0
 40 41  1  0
 41 44  1  0
 41 43  1  0
 42 40  2  0
 45 20  1  0
 45 46  1  0
 47 45  1  0
 48 49  2  0
 50 48  1  0
 50 52  1  0
 52 51  1  0
 53 52  1  0
 54 65  2  0
 55 53  1  0
 55 60  1  0
 56 64  1  0
 56 66  1  0
 57 63  1  0
 57 59  1  0
 58 64  1  0
 59 58  1  0
 60 59  2  0
 61 62  1  0
 61 55  2  0
 62 57  2  0
 63 56  1  0
 64 54  1  0
 66 68  2  0
 67 66  1  0
 69 67  1  0
 70 79  2  0
 70 75  1  0
 71 67  1  0
 71 75  1  0
 72 71  1  0
 73 74  1  0
 73 72  1  0
 74 70  1  0
 75 76  2  0
 76 77  1  0
 78 77  2  0
 79 78  1  0
 80 54  1  0
 80 81  1  0
 80 90  1  0
 81 84  1  0
 82 86  1  0
 82 81  1  0
 83 82  2  0
 86 85  1  0
 88 86  1  0
 88 89  1  0
 88 87  1  0
 90 93  1  1
 90 91  1  0
 92 90  1  0
M  ISO  4  10 100  18 100  52 101  53 101
M  END
>  <TORSDO>  (14) 
F 21

>  <SCORE>  (14) 
-11.472

>  <name>  (14) 
13

>  <ligand_id>  (14) 
13

>  <original_smiles>  (14) 
[H]c1c([H])c([H])c2c(c1[H])C([H])([H])C([H])([H])C([H])([H])C2([H])N([H])C(=O)C1([H])N(C(=O)C([H])(N([H])C(=O)C([H])(N([H])C([H])([H])[H])C([H])([H])[H])C(C([H])([H])[H])(C([H])([H])[H])C([H])([H])[H])C([H])([H])c2c([H])c(OC([H])(C([H])([H])[H])C([H])([H])C(=O)OC(=O)c3sc(N([H])C(=O)N4C([H])([H])C([H])([H])C([H])([H])C([H])(n5nc(-c6c([H])c([H])c(Oc7c([H])c([H])c(F)c([H])c7F)c([H])c6[H])c(C(=O)N([H])[H])c5N([H])[H])C4([H])[H])c([H])c3F)c([H])c([H])c2C1([H])[H]

>  <smiles>  (14) 
[H]c1c([H])c([H])c2c(c1[H])C([H])([H])C([H])([H])C([H])([H])C2([H])N([H])C(=O)C1([H])N(C(=O)C([H])(N([H])C(=O)C([H])(N([H])C([H])([H])[H])C([H])([H])[H])C(C([H])([H])[H])(C([H])([H])[H])C([H])([H])[H])C([H])([H])c2c([H])c(OC([H])(C([H])([H])[H])C([H])([H])C(=O)OC(=O)c3sc(N([H])C(=O)N4C([H])([H])C([H])([H])C([H])([H])C([H])(n5nc(-c6c([H])c([H])c(Oc7c([H])c([H])c(F)c([H])c7F)c([H])c6[H])c(C(=O)N([H])[H])c5N([H])[H])C4([H])[H])c([H])c3F)c([H])c([H])c2C1([H])[H]

$$$$
14:0:0
     RDKit          3D

 98106  0  0  1  0  0  0  0  0999 V2000
  -28.8070  -21.5630   20.0830 C   0  0  0  0  0  0  0  0  0  0  0  0
  -28.5140  -20.4420   20.7920 N   0  0  0  0  0  0  0  0  0  0  0  0
  -29.7320  -21.5640   19.2690 O   0  0  0  0  0  0  0  0  0  0  0  0
  -27.8660  -20.5650   21.5620 H   0  0  0  0  0  0  0  0  0  0  0  0
  -30.7300  -14.5400   20.1420 C   0  0  0  0  0  0  0  0  0  0  0  0
  -30.3970  -12.4110   18.9250 C   0  0  0  0  0  2  0  0  0  0  0  0
  -29.3970  -12.6530   17.7730 C   0  0  0  0  0  2  0  0  0  0  0  0
  -27.9430  -12.5020   18.2640 C   0  0  0  0  0  2  0  0  0  0  0  0
  -27.6720  -13.2910   19.5760 C   0  0  0  0  0  3  0  0  0  0  0  0
  -28.7790  -13.0200   20.6220 C   0  0  0  0  0  2  0  0  0  0  0  0
  -30.0790  -13.3470   20.0180 N   0  0  0  0  0  0  0  0  0  0  0  0
  -31.7660  -14.7960   19.5180 O   0  0  0  0  0  0  0  0  0  0  0  0
  -28.8220  -18.4170   19.3590 C   0  0  0  0  0  0  0  0  0  0  0  0
  -28.9330  -19.1560   20.5310 C   0  0  0  0  0  0  0  0  0  0  0  0
  -29.7940  -16.7860   20.6530 C   0  0  0  0  0  0  0  0  0  0  0  0
  -29.3780  -17.1230   19.4350 N   0  0  0  0  0  0  0  0  0  0  0  0
  -30.1640  -15.4430   20.9750 N   0  0  0  0  0  0  0  0  0  0  0  0
  -29.5870  -18.1150   21.8060 S   0  0  0  0  0  0  0  0  0  0  0  0
  -29.5880  -15.0330   21.6970 H   0  0  0  0  0  0  0  0  0  0  0  0
  -25.3100  -13.8760   20.4120 C   0  0  0  0  0  0  0  0  0  0  0  0
  -24.2610  -13.0950   20.8180 C   0  0  0  0  0  0  0  0  0  0  0  0
  -24.7190  -11.7440   20.7310 C   0  0  0  0  0  0  0  0  0  0  0  0
  -26.3420  -13.0020   20.1080 N   0  0  0  0  0  0  0  0  0  0  0  0
  -25.9920  -11.7150   20.3560 N   0  0  0  0  0  0  0  0  0  0  0  0
  -24.0030  -10.4770   20.9330 C   0  0  0  0  0  0  0  0  0  0  0  0
  -24.4400   -9.5230   21.8770 C   0  0  0  0  0  3  0  0  0  0  0  0
  -23.7240   -8.3220   22.0630 C   0  0  0  0  0  3  0  0  0  0  0  0
  -22.5560   -8.0670   21.3060 C   0  0  0  0  0  0  0  0  0  0  0  0
  -22.1410   -9.0090   20.3490 C   0  0  0  0  0  3  0  0  0  0  0  0
  -22.8560  -10.2030   20.1620 C   0  0  0  0  0  3  0  0  0  0  0  0
  -21.8140   -6.9160   21.4010 O   0  0  0  0  0  0  0  0  0  0  0  0
  -21.7060   -6.2250   22.5810 C   0  0  0  0  0  0  0  0  0  0  0  0
  -21.1960   -6.8250   23.7530 C   0  0  0  0  0  3  0  0  0  0  0  0
  -21.0350   -6.0580   24.9240 C   0  0  0  0  0  3  0  0  0  0  0  0
  -21.3760   -4.6920   24.9240 C   0  0  0  0  0  0  0  0  0  0  0  0
  -21.8800   -4.0910   23.7580 C   0  0  0  0  0  3  0  0  0  0  0  0
  -22.0410   -4.8550   22.5890 C   0  0  0  0  0  0  0  0  0  0  0  0
  -22.5060   -4.2670   21.4610 F   0  0  0  0  0  0  0  0  0  0  0  0
  -21.2140   -3.9520   26.0460 F   0  0  0  0  0  0  0  0  0  0  0  0
  -22.8800  -13.5660   21.1770 C   0  0  0  0  0  0  0  0  0  0  0  0
  -22.2010  -12.8530   22.0690 N   0  0  0  0  0  0  0  0  0  0  0  0
  -22.4130  -14.6010   20.7010 O   0  0  0  0  0  0  0  0  0  0  0  0
  -22.5900  -12.0140   22.4760 H   0  0  0  0  0  0  0  0  0  0  0  0
  -21.2750  -13.1480   22.3460 H   0  0  0  0  0  0  0  0  0  0  0  0
  -25.4660  -15.2490   20.2520 N   0  0  0  0  0  0  0  0  0  0  0  0
  -24.7090  -15.9030   20.4140 H   0  0  0  0  0  0  0  0  0  0  0  0
  -26.2790  -15.6830   19.8340 H   0  0  0  0  0  0  0  0  0  0  0  0
  -28.1610  -18.7800   18.0490 C   0  0  1  0  0  0  0  0  0  0  0  0
  -27.2220  -19.7130   18.1770 F   0  0  0  0  0  0  0  0  0  0  0  0
  -29.0540  -19.2080   17.1580 F   0  0  0  0  0  0  0  0  0  0  0  0
  -27.5500  -17.7140   17.5200 F   0  0  0  0  0  0  0  0  0  0  0  0
  -27.0070  -22.7630   21.4910 C   0  0  0  0  0  1  0  0  0  0  0  0
  -27.0330  -22.8750   18.9850 C   0  0  0  0  0  1  0  0  0  0  0  0
  -27.9450  -22.8710   20.2550 C   0  0  2  0  0  0  0  0  0  0  0  0
  -28.8530  -24.1930   20.3180 C   0  0  0  0  0  2  0  0  0  0  0  0
  -29.9330  -26.0040   21.8560 C   0  0  0  0  0  1  0  0  0  0  0  0
  -28.6860  -25.6000   21.0440 C   0  0  0  0  0  3  0  0  0  0  0  0
  -28.5480  -26.7280   20.1410 O   0  0  0  0  0  0  0  0  0  0  0  0
  -24.6680  -31.9100   23.2130 C   0  0  0  0  0  0  0  0  0  0  0  0
  -27.3750  -27.4560   20.1930 C   0  0  0  0  0  0  0  0  0  0  0  0
  -23.4860  -30.4880   21.5700 C   0  0  0  0  0  3  0  0  0  0  0  0
  -24.9630  -28.9460   20.1720 C   0  0  0  0  0  0  0  0  0  0  0  0
  -26.0100  -30.8650   21.3880 C   0  0  0  0  0  2  0  0  0  0  0  0
  -26.1140  -29.4880   20.7620 C   0  0  0  0  0  0  0  0  0  0  0  0
  -27.3250  -28.7530   20.7620 C   0  0  0  0  0  3  0  0  0  0  0  0
  -26.2070  -26.9270   19.6080 C   0  0  0  0  0  3  0  0  0  0  0  0
  -25.0050  -27.6650   19.5910 C   0  0  0  0  0  3  0  0  0  0  0  0
  -23.7120  -29.7960   20.1990 C   0  0  0  0  0  2  0  0  0  0  0  0
  -24.7390  -31.1030   22.1160 N   0  0  0  0  0  0  0  0  0  0  0  0
  -23.5830  -32.1730   23.7470 O   0  0  0  0  0  0  0  0  0  0  0  0
  -22.8390  -29.4650   22.5330 C   0  0  0  0  0  0  0  0  0  0  0  0
  -21.5130  -29.2840   22.4150 N   0  0  0  0  0  0  0  0  0  0  0  0
  -23.5230  -28.8380   23.3450 O   0  0  0  0  0  0  0  0  0  0  0  0
  -21.0170  -29.8390   21.7310 H   0  0  0  0  0  0  0  0  0  0  0  0
  -18.1410  -28.0960   22.9370 C   0  0  0  0  0  0  0  0  0  0  0  0
  -20.7020  -28.3440   23.1880 C   0  0  0  0  0  3  0  0  0  0  0  0
  -20.7920  -26.9150   22.6060 C   0  0  0  0  0  2  0  0  0  0  0  0
  -19.6800  -26.6020   21.5990 C   0  0  0  0  0  2  0  0  0  0  0  0
  -18.3060  -26.7500   22.2560 C   0  0  0  0  0  2  0  0  0  0  0  0
  -19.2650  -28.8520   23.3630 C   0  0  0  0  0  0  0  0  0  0  0  0
  -19.0560  -30.1140   23.9600 C   0  0  0  0  0  3  0  0  0  0  0  0
  -17.7550  -30.6190   24.1390 C   0  0  0  0  0  3  0  0  0  0  0  0
  -16.6450  -29.8600   23.7300 C   0  0  0  0  0  3  0  0  0  0  0  0
  -16.8400  -28.6010   23.1370 C   0  0  0  0  0  3  0  0  0  0  0  0
  -25.9450  -32.5560   23.8380 C   0  0  0  0  0  3  0  0  0  0  0  0
  -26.4790  -31.7820   25.1060 C   0  0  1  0  0  0  0  0  0  0  0  0
  -25.3950  -31.5280   26.1790 C   0  0  0  0  0  1  0  0  0  0  0  0
  -27.0730  -30.4120   24.7030 C   0  0  0  0  0  1  0  0  0  0  0  0
  -27.6260  -32.5850   25.7680 C   0  0  0  0  0  1  0  0  0  0  0  0
  -25.6140  -33.9450   24.1770 N   0  0  0  0  0  0  0  0  0  0  0  0
  -25.9160  -35.0070   23.4190 C   0  0  0  0  0  0  0  0  0  0  0  0
  -26.5730  -34.9220   22.3780 O   0  0  0  0  0  0  0  0  0  0  0  0
  -25.0300  -34.0860   24.9900 H   0  0  0  0  0  0  0  0  0  0  0  0
  -24.1430  -36.7620   23.1010 C   0  0  0  0  0  1  0  0  0  0  0  0
  -25.4050  -36.3820   23.8890 C   0  0  0  0  0  3  0  0  0  0  0  0
  -27.5340  -37.3110   24.6880 C   0  0  0  0  0  1  0  0  0  0  0  0
  -26.4130  -37.4580   23.7640 N   0  0  0  0  0  0  0  0  0  0  0  0
  -25.9890  -38.3690   23.9250 H   0  0  0  0  0  0  0  0  0  0  0  0
  1 54  1  0
  1  2  1  0
  2  4  1  0
  3  1  2  0
  5 17  1  0
  6 11  1  0
  7  8  1  0
  7  6  1  0
  9  8  1  0
  9 23  1  0
  9 10  1  0
 11  5  1  0
 11 10  1  0
 12  5  2  0
 13 16  1  0
 13 14  2  0
 14  2  1  0
 14 18  1  0
 15 17  1  0
 15 18  1  0
 16 15  2  0
 17 19  1  0
 20 21  2  0
 21 40  1  0
 22 21  1  0
 22 25  1  0
 23 24  1  0
 23 20  1  0
 24 22  2  0
 25 26  1  0
 26 27  2  0
 28 31  1  0
 28 27  1  0
 29 28  2  0
 30 29  1  0
 30 25  2  0
 31 32  1  0
 32 37  2  0
 32 33  1  0
 33 34  2  0
 35 34  1  0
 35 39  1  0
 36 35  2  0
 37 36  1  0
 38 37  1  0
 40 41  1  0
 41 44  1  0
 41 43  1  0
 42 40  2  0
 45 20  1  0
 45 46  1  0
 47 45  1  0
 48 49  1  1
 48 13  1  0
 50 48  1  0
 51 48  1  0
 54 53  1  6
 54 55  1  0
 54 52  1  0
 55 57  1  0
 57 56  1  0
 58 60  1  0
 58 57  1  0
 59 70  2  0
 60 65  1  0
 61 69  1  0
 61 71  1  0
 62 68  1  0
 62 64  1  0
 63 69  1  0
 64 65  2  0
 64 63  1  0
 66 60  2  0
 67 66  1  0
 67 62  2  0
 68 61  1  0
 69 59  1  0
 71 73  2  0
 72 71  1  0
 74 72  1  0
 75 84  2  0
 75 80  1  0
 76 72  1  0
 76 80  1  0
 77 76  1  0
 78 79  1  0
 78 77  1  0
 79 75  1  0
 80 81  2  0
 81 82  1  0
 83 82  2  0
 84 83  1  0
 85 59  1  0
 85 90  1  0
 85 86  1  0
 86 89  1  1
 86 87  1  0
 88 86  1  0
 90 93  1  0
 91 95  1  0
 91 90  1  0
 92 91  2  0
 95 94  1  0
 97 95  1  0
 97 98  1  0
 97 96  1  0
M  ISO  4   5 100  17 100  57 101  58 101
M  END
>  <TORSDO>  (15) 
F 20

>  <SCORE>  (15) 
-13.669

>  <name>  (15) 
14

>  <ligand_id>  (15) 
14

>  <original_smiles>  (15) 
[H]c1c([H])c([H])c2c(c1[H])C([H])([H])C([H])([H])C([H])([H])C2([H])N([H])C(=O)C1([H])N(C(=O)C([H])(N([H])C(=O)C([H])(N([H])C([H])([H])[H])C([H])([H])[H])C(C([H])([H])[H])(C([H])([H])[H])C([H])([H])[H])C([H])([H])c2c([H])c(OC([H])(C([H])([H])[H])C([H])([H])C(C(=O)N([H])c3sc(N([H])C(=O)N4C([H])([H])C([H])([H])C([H])([H])C([H])(n5nc(-c6c([H])c([H])c(Oc7c([H])c([H])c(F)c([H])c7F)c([H])c6[H])c(C(=O)N([H])[H])c5N([H])[H])C4([H])[H])nc3C(F)(F)F)(C([H])([H])[H])C([H])([H])[H])c([H])c([H])c2C1([H])[H]

>  <smiles>  (15) 
[H]c1c([H])c([H])c2c(c1[H])C([H])([H])C([H])([H])C([H])([H])C2([H])N([H])C(=O)C1([H])N(C(=O)C([H])(N([H])C(=O)C([H])(N([H])C([H])([H])[H])C([H])([H])[H])C(C([H])([H])[H])(C([H])([H])[H])C([H])([H])[H])C([H])([H])c2c([H])c(OC([H])(C([H])([H])[H])C([H])([H])C(C(=O)N([H])c3sc(N([H])C(=O)N4C([H])([H])C([H])([H])C([H])([H])C([H])(n5nc(-c6c([H])c([H])c(Oc7c([H])c([H])c(F)c([H])c7F)c([H])c6[H])c(C(=O)N([H])[H])c5N([H])[H])C4([H])[H])nc3C(F)(F)F)(C([H])([H])[H])C([H])([H])[H])c([H])c([H])c2C1([H])[H]

$$$$
15:0:0
     RDKit          3D

 93101  0  0  1  0  0  0  0  0999 V2000
  -29.1090  -22.2600   20.8200 C   0  0  0  0  0  0  0  0  0  0  0  0
  -29.4440  -21.0800   20.1540 N   0  0  0  0  0  0  0  0  0  0  0  0
  -28.7080  -22.1990   21.9860 O   0  0  0  0  0  0  0  0  0  0  0  0
  -29.5060  -21.1890   19.1500 H   0  0  0  0  0  0  0  0  0  0  0  0
  -30.5770  -14.7960   20.2210 C   0  0  0  0  0  0  0  0  0  0  0  0
  -30.3580  -12.5300   19.1760 C   0  0  0  0  0  2  0  0  0  0  0  0
  -29.3800  -12.6000   17.9820 C   0  0  0  0  0  2  0  0  0  0  0  0
  -27.9240  -12.4220   18.4570 C   0  0  0  0  0  2  0  0  0  0  0  0
  -27.5800  -13.3130   19.6790 C   0  0  0  0  0  3  0  0  0  0  0  0
  -28.6690  -13.2180   20.7700 C   0  0  0  0  0  2  0  0  0  0  0  0
  -29.9450  -13.5750   20.1370 N   0  0  0  0  0  0  0  0  0  0  0  0
  -31.7820  -14.8830   19.9660 O   0  0  0  0  0  0  0  0  0  0  0  0
  -30.8080  -19.5170   21.6210 C   0  0  0  0  0  0  0  0  0  0  0  0
  -29.8460  -19.7260   20.6400 C   0  0  0  0  0  0  0  0  0  0  0  0
  -30.0890  -17.3380   20.5700 C   0  0  0  0  0  0  0  0  0  0  0  0
  -31.5260  -20.5070   22.4890 C   0  0  0  0  0  1  0  0  0  0  0  0
  -29.4530  -18.4530   20.0650 N   0  0  0  0  0  0  0  0  0  0  0  0
  -29.7780  -15.9280   20.2530 N   0  0  0  0  0  0  0  0  0  0  0  0
  -31.2560  -17.8150   21.7930 S   0  0  0  0  0  0  0  0  0  0  0  0
  -28.7990  -15.7440   20.1010 H   0  0  0  0  0  0  0  0  0  0  0  0
  -25.2060  -13.9130   20.4560 C   0  0  0  0  0  0  0  0  0  0  0  0
  -24.1440  -13.1390   20.8380 C   0  0  0  0  0  0  0  0  0  0  0  0
  -24.6050  -11.7860   20.7970 C   0  0  0  0  0  0  0  0  0  0  0  0
  -26.2450  -13.0320   20.2000 N   0  0  0  0  0  0  0  0  0  0  0  0
  -25.8910  -11.7480   20.4690 N   0  0  0  0  0  0  0  0  0  0  0  0
  -23.8790  -10.5250   20.9920 C   0  0  0  0  0  0  0  0  0  0  0  0
  -24.3160   -9.5590   21.9260 C   0  0  0  0  0  3  0  0  0  0  0  0
  -23.5900   -8.3640   22.1120 C   0  0  0  0  0  3  0  0  0  0  0  0
  -22.4120   -8.1250   21.3650 C   0  0  0  0  0  0  0  0  0  0  0  0
  -21.9930   -9.0790   20.4200 C   0  0  0  0  0  3  0  0  0  0  0  0
  -22.7210  -10.2660   20.2330 C   0  0  0  0  0  3  0  0  0  0  0  0
  -21.6580   -6.9810   21.4590 O   0  0  0  0  0  0  0  0  0  0  0  0
  -21.6090   -6.2450   22.6160 C   0  0  0  0  0  0  0  0  0  0  0  0
  -21.1680   -6.8040   23.8350 C   0  0  0  0  0  3  0  0  0  0  0  0
  -21.0670   -5.9940   24.9840 C   0  0  0  0  0  3  0  0  0  0  0  0
  -21.3960   -4.6260   24.9150 C   0  0  0  0  0  0  0  0  0  0  0  0
  -21.8280   -4.0670   23.6990 C   0  0  0  0  0  3  0  0  0  0  0  0
  -21.9310   -4.8740   22.5530 C   0  0  0  0  0  0  0  0  0  0  0  0
  -22.3280   -4.3260   21.3790 F   0  0  0  0  0  0  0  0  0  0  0  0
  -21.2910   -3.8460   26.0150 F   0  0  0  0  0  0  0  0  0  0  0  0
  -22.7510  -13.6180   21.1320 C   0  0  0  0  0  0  0  0  0  0  0  0
  -22.0330  -12.9160   22.0020 N   0  0  0  0  0  0  0  0  0  0  0  0
  -22.3090  -14.6480   20.6260 O   0  0  0  0  0  0  0  0  0  0  0  0
  -22.4010  -12.0760   22.4250 H   0  0  0  0  0  0  0  0  0  0  0  0
  -21.1040  -13.2250   22.2520 H   0  0  0  0  0  0  0  0  0  0  0  0
  -25.3650  -15.2840   20.2830 N   0  0  0  0  0  0  0  0  0  0  0  0
  -24.5980  -15.9280   20.4420 H   0  0  0  0  0  0  0  0  0  0  0  0
  -26.1980  -15.7450   19.9430 H   0  0  0  0  0  0  0  0  0  0  0  0
  -29.4090  -23.5950   18.6210 C   0  0  0  0  0  1  0  0  0  0  0  0
  -30.5530  -24.3180   20.7430 C   0  0  0  0  0  1  0  0  0  0  0  0
  -29.2410  -23.7440   20.1560 C   0  0  2  0  0  0  0  0  0  0  0  0
  -28.0850  -24.8790   20.4470 C   0  0  0  0  0  2  0  0  0  0  0  0
  -28.3110  -26.3760   20.2580 O   0  0  0  0  0  0  0  0  0  0  0  0
  -24.5820  -31.9040   23.2440 C   0  0  0  0  0  0  0  0  0  0  0  0
  -27.2080  -27.2760   20.2260 C   0  0  0  0  0  0  0  0  0  0  0  0
  -23.3930  -30.5000   21.6070 C   0  0  0  0  0  3  0  0  0  0  0  0
  -24.8540  -28.9490   20.1860 C   0  0  0  0  0  0  0  0  0  0  0  0
  -25.9400  -30.8070   21.4380 C   0  0  0  0  0  2  0  0  0  0  0  0
  -26.0250  -29.4190   20.7980 C   0  0  0  0  0  0  0  0  0  0  0  0
  -27.2030  -28.5960   20.8030 C   0  0  0  0  0  3  0  0  0  0  0  0
  -26.0110  -26.8860   19.5780 C   0  0  0  0  0  3  0  0  0  0  0  0
  -24.8560  -27.6940   19.5640 C   0  0  0  0  0  3  0  0  0  0  0  0
  -23.6260  -29.8390   20.2220 C   0  0  0  0  0  2  0  0  0  0  0  0
  -24.6590  -31.0870   22.1570 N   0  0  0  0  0  0  0  0  0  0  0  0
  -23.4930  -32.1840   23.7710 O   0  0  0  0  0  0  0  0  0  0  0  0
  -22.7280  -29.4770   22.5630 C   0  0  0  0  0  0  0  0  0  0  0  0
  -21.4010  -29.3010   22.4420 N   0  0  0  0  0  0  0  0  0  0  0  0
  -23.4080  -28.8530   23.3800 O   0  0  0  0  0  0  0  0  0  0  0  0
  -20.9120  -29.8570   21.7560 H   0  0  0  0  0  0  0  0  0  0  0  0
  -18.0300  -28.0880   22.9350 C   0  0  0  0  0  0  0  0  0  0  0  0
  -20.5850  -28.3610   23.2160 C   0  0  0  0  0  3  0  0  0  0  0  0
  -20.7030  -26.9290   22.6440 C   0  0  0  0  0  2  0  0  0  0  0  0
  -19.6050  -26.5910   21.6300 C   0  0  0  0  0  2  0  0  0  0  0  0
  -18.2180  -26.7370   22.2650 C   0  0  0  0  0  2  0  0  0  0  0  0
  -19.1430  -28.8570   23.3670 C   0  0  0  0  0  0  0  0  0  0  0  0
  -18.9180  -30.1170   23.9560 C   0  0  0  0  0  3  0  0  0  0  0  0
  -17.6110  -30.6170   24.1120 C   0  0  0  0  0  3  0  0  0  0  0  0
  -16.5120  -29.8470   23.6980 C   0  0  0  0  0  3  0  0  0  0  0  0
  -16.7210  -28.5850   23.1140 C   0  0  0  0  0  3  0  0  0  0  0  0
  -25.8580  -32.5500   23.8690 C   0  0  0  0  0  3  0  0  0  0  0  0
  -25.5460  -33.9490   24.1850 N   0  0  0  0  0  0  0  0  0  0  0  0
  -25.8910  -34.9950   23.4240 C   0  0  0  0  0  0  0  0  0  0  0  0
  -26.5710  -34.8820   22.3980 O   0  0  0  0  0  0  0  0  0  0  0  0
  -24.9560  -34.1170   24.9870 H   0  0  0  0  0  0  0  0  0  0  0  0
  -24.1810  -36.7910   23.0270 C   0  0  0  0  0  1  0  0  0  0  0  0
  -25.4040  -36.3890   23.8660 C   0  0  0  0  0  3  0  0  0  0  0  0
  -27.5250  -37.2650   24.7330 C   0  0  0  0  0  1  0  0  0  0  0  0
  -26.4430  -37.4360   23.7670 N   0  0  0  0  0  0  0  0  0  0  0  0
  -26.0400  -38.3580   23.9050 H   0  0  0  0  0  0  0  0  0  0  0  0
  -26.3620  -31.7960   25.1600 C   0  0  1  0  0  0  0  0  0  0  0  0
  -25.2570  -31.5750   26.2200 C   0  0  0  0  0  1  0  0  0  0  0  0
  -26.9530  -30.4200   24.7810 C   0  0  0  0  0  1  0  0  0  0  0  0
  -27.5080  -32.5960   25.8220 C   0  0  0  0  0  1  0  0  0  0  0  0
  1  3  2  0
  2 14  1  0
  2  1  1  0
  4  2  1  0
  5 18  1  0
  6 11  1  0
  7  8  1  0
  7  6  1  0
  9  8  1  0
  9 24  1  0
  9 10  1  0
 11  5  1  0
 11 10  1  0
 12  5  2  0
 13 19  1  0
 13 16  1  0
 14 13  2  0
 15 19  1  0
 17 15  2  0
 17 14  1  0
 18 15  1  0
 20 18  1  0
 21 22  2  0
 22 41  1  0
 23 22  1  0
 23 26  1  0
 24 21  1  0
 24 25  1  0
 25 23  2  0
 26 27  1  0
 27 28  2  0
 29 32  1  0
 29 28  1  0
 30 29  2  0
 31 30  1  0
 31 26  2  0
 32 33  1  0
 33 34  1  0
 34 35  2  0
 36 35  1  0
 36 40  1  0
 37 36  2  0
 38 33  2  0
 38 37  1  0
 39 38  1  0
 41 42  1  0
 42 45  1  0
 42 44  1  0
 43 41  2  0
 46 47  1  0
 46 21  1  0
 48 46  1  0
 51 49  1  6
 51 52  1  0
 51 50  1  0
 51  1  1  0
 53 52  1  0
 54 65  2  0
 55 53  1  0
 55 60  1  0
 56 64  1  0
 56 66  1  0
 57 63  1  0
 57 59  1  0
 58 64  1  0
 59 60  2  0
 59 58  1  0
 61 55  2  0
 62 61  1  0
 62 57  2  0
 63 56  1  0
 64 54  1  0
 66 68  2  0
 67 66  1  0
 69 67  1  0
 70 79  2  0
 70 75  1  0
 71 67  1  0
 71 75  1  0
 72 71  1  0
 73 74  1  0
 73 72  1  0
 74 70  1  0
 75 76  2  0
 76 77  1  0
 78 77  2  0
 79 78  1  0
 80 54  1  0
 80 81  1  0
 80 90  1  0
 81 84  1  0
 82 86  1  0
 82 81  1  0
 83 82  2  0
 86 85  1  0
 88 86  1  0
 88 89  1  0
 88 87  1  0
 90 93  1  1
 90 91  1  0
 92 90  1  0
M  ISO  4   5 100  18 100  52 101  53 101
M  END
>  <TORSDO>  (16) 
F 18

>  <SCORE>  (16) 
-14.961

>  <name>  (16) 
15

>  <ligand_id>  (16) 
15

>  <original_smiles>  (16) 
[H]c1c([H])c([H])c2c(c1[H])C([H])([H])C([H])([H])C([H])([H])C2([H])N([H])C(=O)C1([H])N(C(=O)C([H])(N([H])C(=O)C([H])(N([H])C([H])([H])[H])C([H])([H])[H])C(C([H])([H])[H])(C([H])([H])[H])C([H])([H])[H])C([H])([H])c2c([H])c(OC([H])([H])C(C(=O)N([H])c3nc(N([H])C(=O)N4C([H])([H])C([H])([H])C([H])([H])C([H])(n5nc(-c6c([H])c([H])c(Oc7c([H])c([H])c(F)c([H])c7F)c([H])c6[H])c(C(=O)N([H])[H])c5N([H])[H])C4([H])[H])sc3C([H])([H])[H])(C([H])([H])[H])C([H])([H])[H])c([H])c([H])c2C1([H])[H]

>  <smiles>  (16) 
[H]c1c([H])c([H])c2c(c1[H])C([H])([H])C([H])([H])C([H])([H])C2([H])N([H])C(=O)C1([H])N(C(=O)C([H])(N([H])C(=O)C([H])(N([H])C([H])([H])[H])C([H])([H])[H])C(C([H])([H])[H])(C([H])([H])[H])C([H])([H])[H])C([H])([H])c2c([H])c(OC([H])([H])C(C(=O)N([H])c3nc(N([H])C(=O)N4C([H])([H])C([H])([H])C([H])([H])C([H])(n5nc(-c6c([H])c([H])c(Oc7c([H])c([H])c(F)c([H])c7F)c([H])c6[H])c(C(=O)N([H])[H])c5N([H])[H])C4([H])[H])sc3C([H])([H])[H])(C([H])([H])[H])C([H])([H])[H])c([H])c([H])c2C1([H])[H]

$$$$
16:0:0
     RDKit          3D

 92100  0  0  1  0  0  0  0  0999 V2000
  -29.2420  -22.3620   20.1310 C   0  0  0  0  0  0  0  0  0  0  0  0
  -28.8300  -21.0290   20.2400 N   0  0  0  0  0  0  0  0  0  0  0  0
  -30.4190  -22.6220   19.8790 O   0  0  0  0  0  0  0  0  0  0  0  0
  -27.8940  -20.9270   20.6090 H   0  0  0  0  0  0  0  0  0  0  0  0
  -30.5650  -14.8140   20.2770 C   0  0  0  0  0  0  0  0  0  0  0  0
  -30.3810  -12.5160   19.3060 C   0  0  0  0  0  2  0  0  0  0  0  0
  -29.4370  -12.5810   18.0840 C   0  0  0  0  0  2  0  0  0  0  0  0
  -27.9730  -12.3940   18.5250 C   0  0  0  0  0  2  0  0  0  0  0  0
  -27.6000  -13.2850   19.7420 C   0  0  0  0  0  3  0  0  0  0  0  0
  -28.6670  -13.2140   20.8580 C   0  0  0  0  0  2  0  0  0  0  0  0
  -29.9580  -13.5750   20.2550 N   0  0  0  0  0  0  0  0  0  0  0  0
  -31.7410  -14.9080   19.9130 O   0  0  0  0  0  0  0  0  0  0  0  0
  -30.4180  -19.5280   18.9180 C   0  0  0  0  0  0  0  0  0  0  0  0
  -29.5130  -19.7240   19.9520 C   0  0  0  0  0  0  0  0  0  0  0  0
  -29.9590  -17.3580   20.1410 C   0  0  0  0  0  0  0  0  0  0  0  0
  -30.8900  -20.4740   17.8570 C   0  0  0  0  0  1  0  0  0  0  0  0
  -29.2340  -18.4450   20.5930 N   0  0  0  0  0  0  0  0  0  0  0  0
  -29.7960  -15.9400   20.5660 N   0  0  0  0  0  0  0  0  0  0  0  0
  -31.0380  -17.8730   18.8500 S   0  0  0  0  0  0  0  0  0  0  0  0
  -28.9140  -15.7370   21.0050 H   0  0  0  0  0  0  0  0  0  0  0  0
  -25.2190  -13.8640   20.4930 C   0  0  0  0  0  0  0  0  0  0  0  0
  -24.1600  -13.0850   20.8720 C   0  0  0  0  0  0  0  0  0  0  0  0
  -24.6270  -11.7360   20.8320 C   0  0  0  0  0  0  0  0  0  0  0  0
  -26.2630  -12.9890   20.2440 N   0  0  0  0  0  0  0  0  0  0  0  0
  -25.9150  -11.7030   20.5110 N   0  0  0  0  0  0  0  0  0  0  0  0
  -23.9060  -10.4710   21.0250 C   0  0  0  0  0  0  0  0  0  0  0  0
  -24.3420   -9.5050   21.9580 C   0  0  0  0  0  3  0  0  0  0  0  0
  -23.6200   -8.3060   22.1390 C   0  0  0  0  0  3  0  0  0  0  0  0
  -22.4470   -8.0630   21.3850 C   0  0  0  0  0  0  0  0  0  0  0  0
  -22.0310   -9.0160   20.4400 C   0  0  0  0  0  3  0  0  0  0  0  0
  -22.7530  -10.2080   20.2580 C   0  0  0  0  0  3  0  0  0  0  0  0
  -21.6970   -6.9160   21.4740 O   0  0  0  0  0  0  0  0  0  0  0  0
  -21.6440   -6.1790   22.6290 C   0  0  0  0  0  0  0  0  0  0  0  0
  -21.1910   -6.7320   23.8470 C   0  0  0  0  0  3  0  0  0  0  0  0
  -21.0870   -5.9190   24.9940 C   0  0  0  0  0  3  0  0  0  0  0  0
  -21.4260   -4.5560   24.9250 C   0  0  0  0  0  0  0  0  0  0  0  0
  -21.8720   -4.0010   23.7120 C   0  0  0  0  0  3  0  0  0  0  0  0
  -21.9770   -4.8100   22.5670 C   0  0  0  0  0  0  0  0  0  0  0  0
  -22.3880   -4.2670   21.3960 F   0  0  0  0  0  0  0  0  0  0  0  0
  -21.3180   -3.7730   26.0240 F   0  0  0  0  0  0  0  0  0  0  0  0
  -22.7640  -13.5580   21.1570 C   0  0  0  0  0  0  0  0  0  0  0  0
  -22.0440  -12.8540   22.0230 N   0  0  0  0  0  0  0  0  0  0  0  0
  -22.3200  -14.5860   20.6470 O   0  0  0  0  0  0  0  0  0  0  0  0
  -22.4160  -12.0220   22.4570 H   0  0  0  0  0  0  0  0  0  0  0  0
  -21.1070  -13.1510   22.2570 H   0  0  0  0  0  0  0  0  0  0  0  0
  -25.3770  -15.2360   20.3170 N   0  0  0  0  0  0  0  0  0  0  0  0
  -24.6020  -15.8830   20.4240 H   0  0  0  0  0  0  0  0  0  0  0  0
  -26.2120  -15.6810   19.9580 H   0  0  0  0  0  0  0  0  0  0  0  0
  -28.2880  -23.6410   20.4040 C   0  0  0  0  0  2  0  0  0  0  0  0
  -28.4210  -25.0730   18.1930 C   0  0  0  0  0  1  0  0  0  0  0  0
  -28.6290  -25.0890   19.7190 C   0  0  0  0  0  3  0  0  0  0  0  0
  -28.3720  -26.4590   20.3170 O   0  0  0  0  0  0  0  0  0  0  0  0
  -24.5840  -31.8970   23.2470 C   0  0  0  0  0  0  0  0  0  0  0  0
  -27.2260  -27.2860   20.2250 C   0  0  0  0  0  0  0  0  0  0  0  0
  -23.3960  -30.4890   21.6020 C   0  0  0  0  0  3  0  0  0  0  0  0
  -24.8590  -28.9260   20.1890 C   0  0  0  0  0  0  0  0  0  0  0  0
  -25.9390  -30.8000   21.4370 C   0  0  0  0  0  2  0  0  0  0  0  0
  -26.0240  -29.4150   20.7930 C   0  0  0  0  0  0  0  0  0  0  0  0
  -27.2050  -28.6070   20.7950 C   0  0  0  0  0  3  0  0  0  0  0  0
  -26.0280  -26.8510   19.6210 C   0  0  0  0  0  3  0  0  0  0  0  0
  -24.8670  -27.6520   19.5940 C   0  0  0  0  0  3  0  0  0  0  0  0
  -23.6210  -29.8040   20.2270 C   0  0  0  0  0  2  0  0  0  0  0  0
  -24.6580  -31.0820   22.1520 N   0  0  0  0  0  0  0  0  0  0  0  0
  -23.4950  -32.1750   23.7700 O   0  0  0  0  0  0  0  0  0  0  0  0
  -22.7260  -29.4780   22.5640 C   0  0  0  0  0  0  0  0  0  0  0  0
  -21.3990  -29.3070   22.4330 N   0  0  0  0  0  0  0  0  0  0  0  0
  -23.3990  -28.8510   23.3850 O   0  0  0  0  0  0  0  0  0  0  0  0
  -20.9150  -29.8640   21.7440 H   0  0  0  0  0  0  0  0  0  0  0  0
  -18.0140  -28.1310   22.9360 C   0  0  0  0  0  0  0  0  0  0  0  0
  -20.5740  -28.3710   23.2010 C   0  0  0  0  0  3  0  0  0  0  0  0
  -20.6650  -26.9420   22.6180 C   0  0  0  0  0  2  0  0  0  0  0  0
  -19.5580  -26.6320   21.6050 C   0  0  0  0  0  2  0  0  0  0  0  0
  -18.1790  -26.7840   22.2520 C   0  0  0  0  0  2  0  0  0  0  0  0
  -19.1380  -28.8830   23.3660 C   0  0  0  0  0  0  0  0  0  0  0  0
  -18.9300  -30.1440   23.9660 C   0  0  0  0  0  3  0  0  0  0  0  0
  -17.6280  -30.6530   24.1380 C   0  0  0  0  0  3  0  0  0  0  0  0
  -16.5190  -29.8970   23.7220 C   0  0  0  0  0  3  0  0  0  0  0  0
  -16.7120  -28.6380   23.1270 C   0  0  0  0  0  3  0  0  0  0  0  0
  -25.8590  -32.5350   23.8790 C   0  0  0  0  0  3  0  0  0  0  0  0
  -25.5470  -33.9380   24.1920 N   0  0  0  0  0  0  0  0  0  0  0  0
  -25.8890  -34.9850   23.4290 C   0  0  0  0  0  0  0  0  0  0  0  0
  -26.5690  -34.8700   22.4060 O   0  0  0  0  0  0  0  0  0  0  0  0
  -24.9440  -34.1010   24.9860 H   0  0  0  0  0  0  0  0  0  0  0  0
  -24.1700  -36.7790   23.0390 C   0  0  0  0  0  1  0  0  0  0  0  0
  -25.4000  -36.3780   23.8690 C   0  0  0  0  0  3  0  0  0  0  0  0
  -27.5240  -37.2660   24.7230 C   0  0  0  0  0  1  0  0  0  0  0  0
  -26.4370  -37.4280   23.7610 N   0  0  0  0  0  0  0  0  0  0  0  0
  -26.0320  -38.3500   23.8920 H   0  0  0  0  0  0  0  0  0  0  0  0
  -26.3560  -31.7770   25.1710 C   0  0  1  0  0  0  0  0  0  0  0  0
  -25.2480  -31.5550   26.2270 C   0  0  0  0  0  1  0  0  0  0  0  0
  -26.9410  -30.3940   24.8050 C   0  0  0  0  0  1  0  0  0  0  0  0
  -27.4990  -32.5780   25.8410 C   0  0  0  0  0  1  0  0  0  0  0  0
  1  2  1  0
  1 49  1  0
  2  4  1  0
  3  1  2  0
  5 18  1  0
  6 11  1  0
  7  8  1  0
  7  6  1  0
  9  8  1  0
  9 24  1  0
  9 10  1  0
 11  5  1  0
 11 10  1  0
 12  5  2  0
 13 14  2  0
 14  2  1  0
 14 17  1  0
 15 18  1  0
 15 17  2  0
 16 13  1  0
 18 20  1  0
 19 13  1  0
 19 15  1  0
 21 22  2  0
 22 41  1  0
 23 22  1  0
 23 26  1  0
 24 21  1  0
 24 25  1  0
 25 23  2  0
 26 27  1  0
 27 28  2  0
 29 32  1  0
 29 28  1  0
 30 29  2  0
 31 30  1  0
 31 26  2  0
 32 33  1  0
 33 34  1  0
 34 35  2  0
 36 35  1  0
 36 40  1  0
 37 36  2  0
 38 33  2  0
 38 37  1  0
 39 38  1  0
 41 42  1  0
 42 45  1  0
 42 44  1  0
 43 41  2  0
 46 47  1  0
 46 21  1  0
 48 46  1  0
 51 50  1  0
 51 52  1  0
 51 49  1  0
 53 64  2  0
 54 52  1  0
 54 59  1  0
 55 63  1  0
 55 65  1  0
 56 62  1  0
 56 58  1  0
 57 63  1  0
 58 59  2  0
 58 57  1  0
 60 54  2  0
 61 60  1  0
 61 56  2  0
 62 55  1  0
 63 53  1  0
 65 67  2  0
 66 65  1  0
 68 66  1  0
 69 78  2  0
 69 74  1  0
 70 66  1  0
 70 74  1  0
 71 70  1  0
 72 73  1  0
 72 71  1  0
 73 69  1  0
 74 75  2  0
 75 76  1  0
 77 76  2  0
 78 77  1  0
 79 53  1  0
 79 80  1  0
 79 89  1  0
 80 83  1  0
 81 85  1  0
 81 80  1  0
 82 81  2  0
 85 84  1  0
 87 85  1  0
 87 88  1  0
 87 86  1  0
 89 92  1  1
 89 90  1  0
 91 89  1  0
M  ISO  4   5 100  18 100  51 101  52 101
M  END
>  <TORSDO>  (17) 
F 18

>  <SCORE>  (17) 
-14.677

>  <name>  (17) 
16

>  <ligand_id>  (17) 
16

>  <original_smiles>  (17) 
[H]c1c([H])c([H])c2c(c1[H])C([H])([H])C([H])([H])C([H])([H])C2([H])N([H])C(=O)C1([H])N(C(=O)C([H])(N([H])C(=O)C([H])(N([H])C([H])([H])[H])C([H])([H])[H])C(C([H])([H])[H])(C([H])([H])[H])C([H])([H])[H])C([H])([H])c2c([H])c(OC([H])(C([H])([H])[H])C([H])([H])C(=O)N([H])c3nc(N([H])C(=O)N4C([H])([H])C([H])([H])C([H])([H])C([H])(n5nc(-c6c([H])c([H])c(Oc7c([H])c([H])c(F)c([H])c7F)c([H])c6[H])c(C(=O)N([H])[H])c5N([H])[H])C4([H])[H])sc3C([H])([H])[H])c([H])c([H])c2C1([H])[H]

>  <smiles>  (17) 
[H]c1c([H])c([H])c2c(c1[H])C([H])([H])C([H])([H])C([H])([H])C2([H])N([H])C(=O)C1([H])N(C(=O)C([H])(N([H])C(=O)C([H])(N([H])C([H])([H])[H])C([H])([H])[H])C(C([H])([H])[H])(C([H])([H])[H])C([H])([H])[H])C([H])([H])c2c([H])c(OC([H])(C([H])([H])[H])C([H])([H])C(=O)N([H])c3nc(N([H])C(=O)N4C([H])([H])C([H])([H])C([H])([H])C([H])(n5nc(-c6c([H])c([H])c(Oc7c([H])c([H])c(F)c([H])c7F)c([H])c6[H])c(C(=O)N([H])[H])c5N([H])[H])C4([H])[H])sc3C([H])([H])[H])c([H])c([H])c2C1([H])[H]

$$$$
17:0:0
     RDKit          3D

 95103  0  0  1  0  0  0  0  0999 V2000
  -29.6620  -18.6620   20.1280 C   0  0  0  0  0  0  0  0  0  0  0  0
  -29.4720  -18.8530   18.7630 C   0  0  0  0  0  0  0  0  0  0  0  0
  -29.1250  -21.0350   20.0160 C   0  0  0  0  0  0  0  0  0  0  0  0
  -29.0680  -23.6630   20.1640 C   0  0  0  0  0  0  0  0  0  0  0  0
  -29.4230  -19.9400   20.8070 N   0  0  0  0  0  0  0  0  0  0  0  0
  -28.6030  -22.3730   20.4220 N   0  0  0  0  0  0  0  0  0  0  0  0
  -30.2770  -23.9090   20.2280 O   0  0  0  0  0  0  0  0  0  0  0  0
  -29.0770  -20.5240   18.3330 S   0  0  0  0  0  0  0  0  0  0  0  0
  -27.6020  -22.3630   20.5490 H   0  0  0  0  0  0  0  0  0  0  0  0
  -30.5980  -14.8530   20.4390 C   0  0  0  0  0  0  0  0  0  0  0  0
  -30.4100  -12.5570   19.4290 C   0  0  0  0  0  2  0  0  0  0  0  0
  -29.4950  -12.5700   18.1880 C   0  0  0  0  0  2  0  0  0  0  0  0
  -28.0180  -12.3940   18.5940 C   0  0  0  0  0  2  0  0  0  0  0  0
  -27.6100  -13.3040   19.7840 C   0  0  0  0  0  3  0  0  0  0  0  0
  -28.6530  -13.2740   20.9190 C   0  0  0  0  0  2  0  0  0  0  0  0
  -29.9410  -13.6430   20.3210 N   0  0  0  0  0  0  0  0  0  0  0  0
  -31.8190  -14.8700   20.2660 O   0  0  0  0  0  0  0  0  0  0  0  0
  -30.2790  -17.3380   20.7680 C   0  0  0  0  0  0  0  0  0  0  0  0
  -29.8610  -16.0440   20.4390 N   0  0  0  0  0  0  0  0  0  0  0  0
  -31.1730  -17.4890   21.6100 O   0  0  0  0  0  0  0  0  0  0  0  0
  -28.9260  -15.9800   20.0780 H   0  0  0  0  0  0  0  0  0  0  0  0
  -25.2100  -13.8900   20.4620 C   0  0  0  0  0  0  0  0  0  0  0  0
  -24.1400  -13.1160   20.8210 C   0  0  0  0  0  0  0  0  0  0  0  0
  -24.6100  -11.7660   20.8200 C   0  0  0  0  0  0  0  0  0  0  0  0
  -26.2620  -13.0120   20.2600 N   0  0  0  0  0  0  0  0  0  0  0  0
  -25.9080  -11.7310   20.5410 N   0  0  0  0  0  0  0  0  0  0  0  0
  -23.8840  -10.5030   21.0090 C   0  0  0  0  0  0  0  0  0  0  0  0
  -24.3000   -9.5480   21.9640 C   0  0  0  0  0  3  0  0  0  0  0  0
  -23.5730   -8.3520   22.1420 C   0  0  0  0  0  3  0  0  0  0  0  0
  -22.4160   -8.1010   21.3650 C   0  0  0  0  0  0  0  0  0  0  0  0
  -22.0220   -9.0450   20.4000 C   0  0  0  0  0  3  0  0  0  0  0  0
  -22.7490  -10.2330   20.2200 C   0  0  0  0  0  3  0  0  0  0  0  0
  -21.6630   -6.9550   21.4520 O   0  0  0  0  0  0  0  0  0  0  0  0
  -21.5890   -6.2280   22.6130 C   0  0  0  0  0  0  0  0  0  0  0  0
  -21.1280   -6.7980   23.8200 C   0  0  0  0  0  3  0  0  0  0  0  0
  -21.0020   -5.9960   24.9730 C   0  0  0  0  0  3  0  0  0  0  0  0
  -21.3270   -4.6270   24.9190 C   0  0  0  0  0  0  0  0  0  0  0  0
  -21.7810   -4.0590   23.7160 C   0  0  0  0  0  3  0  0  0  0  0  0
  -21.9090   -4.8560   22.5660 C   0  0  0  0  0  0  0  0  0  0  0  0
  -22.3260   -4.2980   21.4040 F   0  0  0  0  0  0  0  0  0  0  0  0
  -21.1990   -3.8560   26.0230 F   0  0  0  0  0  0  0  0  0  0  0  0
  -22.7350  -13.5900   21.0520 C   0  0  0  0  0  0  0  0  0  0  0  0
  -21.9880  -12.9030   21.9080 N   0  0  0  0  0  0  0  0  0  0  0  0
  -22.3080  -14.6070   20.5060 O   0  0  0  0  0  0  0  0  0  0  0  0
  -22.3470  -12.0790   22.3700 H   0  0  0  0  0  0  0  0  0  0  0  0
  -21.0440  -13.2020   22.1020 H   0  0  0  0  0  0  0  0  0  0  0  0
  -25.3710  -15.2580   20.2650 N   0  0  0  0  0  0  0  0  0  0  0  0
  -24.6020  -15.9130   20.3520 H   0  0  0  0  0  0  0  0  0  0  0  0
  -26.2160  -15.6910   19.9160 H   0  0  0  0  0  0  0  0  0  0  0  0
  -29.6030  -17.9570   17.6990 N   0  0  0  0  0  0  0  0  0  0  0  0
  -29.9750  -17.0150   17.7690 H   0  0  0  0  0  0  0  0  0  0  0  0
  -29.5230  -18.2560   16.7300 H   0  0  0  0  0  0  0  0  0  0  0  0
  -28.1610  -24.9210   18.2000 C   0  0  0  0  0  1  0  0  0  0  0  0
  -28.0650  -24.8710   19.7440 C   0  0  0  0  0  3  0  0  0  0  0  0
  -28.2780  -26.3080   20.2250 O   0  0  0  0  0  0  0  0  0  0  0  0
  -24.6200  -31.9070   23.2370 C   0  0  0  0  0  0  0  0  0  0  0  0
  -27.1960  -27.2480   20.1820 C   0  0  0  0  0  0  0  0  0  0  0  0
  -23.4160  -30.5170   21.5990 C   0  0  0  0  0  3  0  0  0  0  0  0
  -24.8570  -28.9570   20.1750 C   0  0  0  0  0  0  0  0  0  0  0  0
  -25.9680  -30.7940   21.4280 C   0  0  0  0  0  2  0  0  0  0  0  0
  -26.0390  -29.4100   20.7740 C   0  0  0  0  0  0  0  0  0  0  0  0
  -27.2100  -28.5710   20.7630 C   0  0  0  0  0  3  0  0  0  0  0  0
  -25.9690  -26.8790   19.5760 C   0  0  0  0  0  3  0  0  0  0  0  0
  -24.8310  -27.6990   19.5650 C   0  0  0  0  0  3  0  0  0  0  0  0
  -23.6300  -29.8450   20.2200 C   0  0  0  0  0  2  0  0  0  0  0  0
  -24.6890  -31.0900   22.1440 N   0  0  0  0  0  0  0  0  0  0  0  0
  -23.5340  -32.1930   23.7640 O   0  0  0  0  0  0  0  0  0  0  0  0
  -22.7400  -29.5050   22.5570 C   0  0  0  0  0  0  0  0  0  0  0  0
  -21.4130  -29.3340   22.4260 N   0  0  0  0  0  0  0  0  0  0  0  0
  -23.4100  -28.8760   23.3810 O   0  0  0  0  0  0  0  0  0  0  0  0
  -20.9290  -29.8900   21.7350 H   0  0  0  0  0  0  0  0  0  0  0  0
  -18.0260  -28.1590   22.9340 C   0  0  0  0  0  0  0  0  0  0  0  0
  -20.5870  -28.4010   23.1960 C   0  0  0  0  0  3  0  0  0  0  0  0
  -20.6770  -26.9700   22.6160 C   0  0  0  0  0  2  0  0  0  0  0  0
  -19.5690  -26.6580   21.6050 C   0  0  0  0  0  2  0  0  0  0  0  0
  -18.1910  -26.8110   22.2540 C   0  0  0  0  0  2  0  0  0  0  0  0
  -19.1500  -28.9130   23.3630 C   0  0  0  0  0  0  0  0  0  0  0  0
  -18.9410  -30.1740   23.9600 C   0  0  0  0  0  3  0  0  0  0  0  0
  -17.6400  -30.6830   24.1340 C   0  0  0  0  0  3  0  0  0  0  0  0
  -16.5300  -29.9250   23.7220 C   0  0  0  0  0  3  0  0  0  0  0  0
  -16.7230  -28.6660   23.1270 C   0  0  0  0  0  3  0  0  0  0  0  0
  -25.8990  -32.5400   23.8630 C   0  0  0  0  0  3  0  0  0  0  0  0
  -25.5880  -33.9390   24.1960 N   0  0  0  0  0  0  0  0  0  0  0  0
  -25.9180  -34.9950   23.4410 C   0  0  0  0  0  0  0  0  0  0  0  0
  -26.5830  -34.8950   22.4060 O   0  0  0  0  0  0  0  0  0  0  0  0
  -24.9970  -34.0910   25.0000 H   0  0  0  0  0  0  0  0  0  0  0  0
  -24.1910  -36.7940   23.0980 C   0  0  0  0  0  1  0  0  0  0  0  0
  -25.4340  -36.3820   23.9050 C   0  0  0  0  0  3  0  0  0  0  0  0
  -27.5690  -37.2630   24.7380 C   0  0  0  0  0  1  0  0  0  0  0  0
  -26.4670  -37.4340   23.7950 N   0  0  0  0  0  0  0  0  0  0  0  0
  -26.0630  -38.3550   23.9440 H   0  0  0  0  0  0  0  0  0  0  0  0
  -26.4070  -31.7690   25.1430 C   0  0  1  0  0  0  0  0  0  0  0  0
  -25.3090  -31.5340   26.2070 C   0  0  0  0  0  1  0  0  0  0  0  0
  -26.9900  -30.3900   24.7590 C   0  0  0  0  0  1  0  0  0  0  0  0
  -27.5560  -32.5620   25.8100 C   0  0  0  0  0  1  0  0  0  0  0  0
  1 18  1  0
  1  5  1  0
  2  1  2  0
  3  6  1  0
  3  5  2  0
  4  7  2  0
  4  6  1  0
  6  9  1  0
  8  2  1  0
  8  3  1  0
 10 19  1  0
 11 16  1  0
 12 13  1  0
 12 11  1  0
 14 13  1  0
 14 25  1  0
 14 15  1  0
 16 10  1  0
 16 15  1  0
 17 10  2  0
 18 20  2  0
 19 18  1  0
 21 19  1  0
 22 23  2  0
 23 42  1  0
 24 23  1  0
 24 27  1  0
 25 22  1  0
 25 26  1  0
 26 24  2  0
 27 28  1  0
 28 29  2  0
 30 33  1  0
 30 29  1  0
 31 30  2  0
 32 31  1  0
 32 27  2  0
 33 34  1  0
 34 35  1  0
 35 36  2  0
 37 36  1  0
 37 41  1  0
 38 37  2  0
 39 34  2  0
 39 38  1  0
 40 39  1  0
 42 43  1  0
 43 46  1  0
 43 45  1  0
 44 42  2  0
 47 48  1  0
 47 22  1  0
 49 47  1  0
 50 51  1  0
 50  2  1  0
 52 50  1  0
 54 53  1  0
 54  4  1  0
 54 55  1  0
 56 67  2  0
 57 55  1  0
 57 62  1  0
 58 66  1  0
 58 68  1  0
 59 65  1  0
 59 61  1  0
 60 66  1  0
 61 60  1  0
 62 61  2  0
 63 57  2  0
 64 63  1  0
 64 59  2  0
 65 58  1  0
 66 56  1  0
 68 70  2  0
 69 68  1  0
 71 69  1  0
 72 81  2  0
 72 77  1  0
 73 69  1  0
 73 77  1  0
 74 73  1  0
 75 76  1  0
 75 74  1  0
 76 72  1  0
 77 78  2  0
 78 79  1  0
 80 79  2  0
 81 80  1  0
 82 56  1  0
 82 83  1  0
 82 92  1  0
 83 86  1  0
 84 88  1  0
 84 83  1  0
 85 84  2  0
 88 87  1  0
 90 88  1  0
 90 91  1  0
 90 89  1  0
 92 95  1  1
 92 93  1  0
 94 92  1  0
M  ISO  4  10 100  19 100  54 101  55 101
M  END
>  <TORSDO>  (18) 
F 18

>  <SCORE>  (18) 
-15.097

>  <name>  (18) 
17

>  <ligand_id>  (18) 
17

>  <original_smiles>  (18) 
[H]c1c([H])c([H])c2c(c1[H])C([H])([H])C([H])([H])C([H])([H])C2([H])N([H])C(=O)C1([H])N(C(=O)C([H])(N([H])C(=O)C([H])(N([H])C([H])([H])[H])C([H])([H])[H])C(C([H])([H])[H])(C([H])([H])[H])C([H])([H])[H])C([H])([H])c2c([H])c(OC([H])(C(=O)N([H])c3nc(C(=O)N([H])C(=O)N4C([H])([H])C([H])([H])C([H])([H])C([H])(n5nc(-c6c([H])c([H])c(Oc7c([H])c([H])c(F)c([H])c7F)c([H])c6[H])c(C(=O)N([H])[H])c5N([H])[H])C4([H])[H])c(N([H])[H])s3)C([H])([H])[H])c([H])c([H])c2C1([H])[H]

>  <smiles>  (18) 
[H]c1c([H])c([H])c2c(c1[H])C([H])([H])C([H])([H])C([H])([H])C2([H])N([H])C(=O)C1([H])N(C(=O)C([H])(N([H])C(=O)C([H])(N([H])C([H])([H])[H])C([H])([H])[H])C(C([H])([H])[H])(C([H])([H])[H])C([H])([H])[H])C([H])([H])c2c([H])c(OC([H])(C(=O)N([H])c3nc(C(=O)N([H])C(=O)N4C([H])([H])C([H])([H])C([H])([H])C([H])(n5nc(-c6c([H])c([H])c(Oc7c([H])c([H])c(F)c([H])c7F)c([H])c6[H])c(C(=O)N([H])[H])c5N([H])[H])C4([H])[H])c(N([H])[H])s3)C([H])([H])[H])c([H])c([H])c2C1([H])[H]

$$$$
18:0:0
     RDKit          3D

 93101  0  0  1  0  0  0  0  0999 V2000
  -29.2950  -18.6030   20.5650 C   0  0  0  0  0  0  0  0  0  0  0  0
  -29.6030  -19.9180   19.9270 C   0  0  0  0  0  0  0  0  0  0  0  0
  -29.9640  -17.4500   20.0730 C   0  0  0  0  0  0  0  0  0  0  0  0
  -28.9160  -22.4730   19.6060 C   0  0  0  0  0  0  0  0  0  0  0  0
  -30.4910  -19.7740   18.9590 N   0  0  0  0  0  0  0  0  0  0  0  0
  -29.0920  -21.2830   20.3300 N   0  0  0  0  0  0  0  0  0  0  0  0
  -28.9320  -22.4330   18.3730 O   0  0  0  0  0  0  0  0  0  0  0  0
  -28.4230  -18.5240   21.5440 F   0  0  0  0  0  0  0  0  0  0  0  0
  -30.9770  -18.1360   18.8210 S   0  0  0  0  0  0  0  0  0  0  0  0
  -28.8820  -21.3770   21.3130 H   0  0  0  0  0  0  0  0  0  0  0  0
  -30.6120  -14.9370   19.9830 C   0  0  0  0  0  0  0  0  0  0  0  0
  -30.3850  -12.6560   18.9520 C   0  0  0  0  0  2  0  0  0  0  0  0
  -29.3840  -12.7430   17.7760 C   0  0  0  0  0  2  0  0  0  0  0  0
  -27.9390  -12.5530   18.2770 C   0  0  0  0  0  2  0  0  0  0  0  0
  -27.6310  -13.4060   19.5370 C   0  0  0  0  0  3  0  0  0  0  0  0
  -28.7480  -13.3000   20.5980 C   0  0  0  0  0  2  0  0  0  0  0  0
  -30.0060  -13.6910   19.9490 N   0  0  0  0  0  0  0  0  0  0  0  0
  -31.7670  -15.0390   19.5560 O   0  0  0  0  0  0  0  0  0  0  0  0
  -29.8640  -16.0600   20.3720 N   0  0  0  0  0  0  0  0  0  0  0  0
  -29.0240  -15.8180   20.8730 H   0  0  0  0  0  0  0  0  0  0  0  0
  -25.2890  -13.9820   20.4060 C   0  0  0  0  0  0  0  0  0  0  0  0
  -24.2430  -13.2030   20.8160 C   0  0  0  0  0  0  0  0  0  0  0  0
  -24.7000  -11.8520   20.7350 C   0  0  0  0  0  0  0  0  0  0  0  0
  -26.3160  -13.1050   20.0930 N   0  0  0  0  0  0  0  0  0  0  0  0
  -25.9720  -11.8170   20.3560 N   0  0  0  0  0  0  0  0  0  0  0  0
  -23.9800  -10.5890   20.9410 C   0  0  0  0  0  0  0  0  0  0  0  0
  -24.4390   -9.6160   21.8570 C   0  0  0  0  0  3  0  0  0  0  0  0
  -23.7180   -8.4190   22.0520 C   0  0  0  0  0  3  0  0  0  0  0  0
  -22.5230   -8.1830   21.3300 C   0  0  0  0  0  0  0  0  0  0  0  0
  -22.0830   -9.1450   20.4020 C   0  0  0  0  0  3  0  0  0  0  0  0
  -22.8050  -10.3330   20.2070 C   0  0  0  0  0  3  0  0  0  0  0  0
  -21.7720   -7.0380   21.4350 O   0  0  0  0  0  0  0  0  0  0  0  0
  -21.7360   -6.3040   22.5930 C   0  0  0  0  0  0  0  0  0  0  0  0
  -21.2740   -6.8520   23.8090 C   0  0  0  0  0  3  0  0  0  0  0  0
  -21.1870   -6.0420   24.9590 C   0  0  0  0  0  3  0  0  0  0  0  0
  -21.5540   -4.6850   24.8950 C   0  0  0  0  0  0  0  0  0  0  0  0
  -22.0080   -4.1350   23.6830 C   0  0  0  0  0  3  0  0  0  0  0  0
  -22.0960   -4.9410   22.5350 C   0  0  0  0  0  0  0  0  0  0  0  0
  -22.5160   -4.4020   21.3650 F   0  0  0  0  0  0  0  0  0  0  0  0
  -21.4630   -3.9040   25.9970 F   0  0  0  0  0  0  0  0  0  0  0  0
  -22.8640  -13.6790   21.1690 C   0  0  0  0  0  0  0  0  0  0  0  0
  -22.1800  -12.9720   22.0610 N   0  0  0  0  0  0  0  0  0  0  0  0
  -22.4040  -14.7150   20.6890 O   0  0  0  0  0  0  0  0  0  0  0  0
  -22.5650  -12.1350   22.4720 H   0  0  0  0  0  0  0  0  0  0  0  0
  -21.2560  -13.2740   22.3370 H   0  0  0  0  0  0  0  0  0  0  0  0
  -25.4470  -15.3560   20.2460 N   0  0  0  0  0  0  0  0  0  0  0  0
  -24.6840  -16.0040   20.4080 H   0  0  0  0  0  0  0  0  0  0  0  0
  -26.2690  -15.8030   19.8620 H   0  0  0  0  0  0  0  0  0  0  0  0
  -28.3570  -25.0230   19.7270 C   0  0  0  0  0  3  0  0  0  0  0  0
  -28.6990  -23.8040   20.3410 C   0  0  0  0  0  0  0  0  0  0  0  0
  -28.8890  -23.8030   21.6670 O   0  0  0  0  0  0  0  0  0  0  0  0
  -28.7280  -24.6890   21.9660 H   0  0  0  0  0  0  0  0  0  0  0  0
  -28.3050  -26.3570   20.2880 O   0  0  0  0  0  0  0  0  0  0  0  0
  -24.6080  -31.9040   23.2420 C   0  0  0  0  0  0  0  0  0  0  0  0
  -27.2210  -27.2770   20.1710 C   0  0  0  0  0  0  0  0  0  0  0  0
  -23.4160  -30.5180   21.5840 C   0  0  0  0  0  3  0  0  0  0  0  0
  -24.8730  -28.9650   20.1490 C   0  0  0  0  0  0  0  0  0  0  0  0
  -25.9640  -30.8070   21.4300 C   0  0  0  0  0  2  0  0  0  0  0  0
  -26.0420  -29.4270   20.7640 C   0  0  0  0  0  0  0  0  0  0  0  0
  -27.2130  -28.5940   20.7640 C   0  0  0  0  0  3  0  0  0  0  0  0
  -26.0260  -26.8940   19.5250 C   0  0  0  0  0  3  0  0  0  0  0  0
  -24.8730  -27.7090   19.5170 C   0  0  0  0  0  3  0  0  0  0  0  0
  -23.6400  -29.8520   20.1990 C   0  0  0  0  0  2  0  0  0  0  0  0
  -24.6810  -31.0970   22.1410 N   0  0  0  0  0  0  0  0  0  0  0  0
  -23.5190  -32.1810   23.7680 O   0  0  0  0  0  0  0  0  0  0  0  0
  -22.7390  -29.5010   22.5350 C   0  0  0  0  0  0  0  0  0  0  0  0
  -21.4100  -29.3360   22.4060 N   0  0  0  0  0  0  0  0  0  0  0  0
  -23.4080  -28.8640   23.3520 O   0  0  0  0  0  0  0  0  0  0  0  0
  -20.9270  -29.9010   21.7210 H   0  0  0  0  0  0  0  0  0  0  0  0
  -18.0210  -28.1660   22.9100 C   0  0  0  0  0  0  0  0  0  0  0  0
  -20.5840  -28.3960   23.1660 C   0  0  0  0  0  3  0  0  0  0  0  0
  -20.6670  -26.9720   22.5690 C   0  0  0  0  0  2  0  0  0  0  0  0
  -19.5570  -26.6770   21.5550 C   0  0  0  0  0  2  0  0  0  0  0  0
  -18.1800  -26.8270   22.2100 C   0  0  0  0  0  2  0  0  0  0  0  0
  -19.1490  -28.9090   23.3450 C   0  0  0  0  0  0  0  0  0  0  0  0
  -18.9460  -30.1640   23.9620 C   0  0  0  0  0  3  0  0  0  0  0  0
  -17.6470  -30.6730   24.1450 C   0  0  0  0  0  3  0  0  0  0  0  0
  -16.5330  -29.9270   23.7240 C   0  0  0  0  0  3  0  0  0  0  0  0
  -16.7220  -28.6750   23.1120 C   0  0  0  0  0  3  0  0  0  0  0  0
  -25.8840  -32.5340   23.8800 C   0  0  0  0  0  3  0  0  0  0  0  0
  -25.5770  -33.9360   24.1990 N   0  0  0  0  0  0  0  0  0  0  0  0
  -25.9040  -34.9840   23.4310 C   0  0  0  0  0  0  0  0  0  0  0  0
  -26.5620  -34.8720   22.3940 O   0  0  0  0  0  0  0  0  0  0  0  0
  -24.9890  -34.0970   25.0050 H   0  0  0  0  0  0  0  0  0  0  0  0
  -24.1740  -36.7810   23.0860 C   0  0  0  0  0  1  0  0  0  0  0  0
  -25.4260  -36.3780   23.8840 C   0  0  0  0  0  3  0  0  0  0  0  0
  -27.5630  -37.2780   24.6910 C   0  0  0  0  0  1  0  0  0  0  0  0
  -26.4590  -37.4280   23.7470 N   0  0  0  0  0  0  0  0  0  0  0  0
  -26.0550  -38.3510   23.8760 H   0  0  0  0  0  0  0  0  0  0  0  0
  -26.3740  -31.7700   25.1710 C   0  0  1  0  0  0  0  0  0  0  0  0
  -25.2620  -31.5470   26.2240 C   0  0  0  0  0  1  0  0  0  0  0  0
  -26.9560  -30.3860   24.8050 C   0  0  0  0  0  1  0  0  0  0  0  0
  -27.5180  -32.5630   25.8460 C   0  0  0  0  0  1  0  0  0  0  0  0
  1  8  1  0
  2  6  1  0
  2  1  1  0
  3 19  1  0
  3  1  2  0
  4  6  1  0
  4 50  1  0
  5  2  2  0
  6 10  1  0
  7  4  2  0
  9  5  1  0
  9  3  1  0
 11 19  1  0
 12 17  1  0
 13 14  1  0
 13 12  1  0
 15 14  1  0
 15 24  1  0
 15 16  1  0
 17 11  1  0
 17 16  1  0
 18 11  2  0
 19 20  1  0
 21 22  2  0
 22 41  1  0
 23 22  1  0
 23 26  1  0
 24 25  1  0
 24 21  1  0
 25 23  2  0
 26 27  1  0
 27 28  2  0
 29 32  1  0
 29 28  1  0
 30 29  2  0
 31 30  1  0
 31 26  2  0
 32 33  1  0
 33 34  1  0
 34 35  2  0
 36 35  1  0
 36 40  1  0
 37 36  2  0
 38 33  2  0
 38 37  1  0
 39 38  1  0
 41 42  1  0
 42 45  1  0
 42 44  1  0
 43 41  2  0
 46 21  1  0
 46 47  1  0
 48 46  1  0
 49 53  1  0
 49 50  2  0
 50 51  1  0
 51 52  1  0
 54 65  2  0
 55 53  1  0
 55 60  1  0
 56 64  1  0
 56 66  1  0
 57 63  1  0
 57 59  1  0
 58 64  1  0
 59 60  2  0
 59 58  1  0
 61 55  2  0
 62 61  1  0
 62 57  2  0
 63 56  1  0
 64 54  1  0
 66 68  2  0
 67 66  1  0
 69 67  1  0
 70 79  2  0
 70 75  1  0
 71 67  1  0
 71 75  1  0
 72 71  1  0
 73 74  1  0
 73 72  1  0
 74 70  1  0
 75 76  2  0
 76 77  1  0
 78 77  2  0
 79 78  1  0
 80 54  1  0
 80 81  1  0
 80 90  1  0
 81 84  1  0
 82 86  1  0
 82 81  1  0
 83 82  2  0
 86 85  1  0
 88 89  1  0
 88 86  1  0
 88 87  1  0
 90 93  1  1
 90 91  1  0
 92 90  1  0
M  ISO  4  11 100  19 100  49 101  53 101
M  END
>  <TORSDO>  (19) 
F 18

>  <SCORE>  (19) 
-14.216

>  <name>  (19) 
18

>  <ligand_id>  (19) 
18

>  <original_smiles>  (19) 
[H]OC(C(=O)N([H])c1nsc(N([H])C(=O)N2C([H])([H])C([H])([H])C([H])([H])C([H])(n3nc(-c4c([H])c([H])c(Oc5c([H])c([H])c(F)c([H])c5F)c([H])c4[H])c(C(=O)N([H])[H])c3N([H])[H])C2([H])[H])c1F)=C([H])Oc1c([H])c([H])c2c(c1[H])C([H])([H])N(C(=O)C([H])(N([H])C(=O)C([H])(N([H])C([H])([H])[H])C([H])([H])[H])C(C([H])([H])[H])(C([H])([H])[H])C([H])([H])[H])C([H])(C(=O)N([H])C1([H])c3c([H])c([H])c([H])c([H])c3C([H])([H])C([H])([H])C1([H])[H])C2([H])[H]

>  <smiles>  (19) 
[H]OC(C(=O)N([H])c1nsc(N([H])C(=O)N2C([H])([H])C([H])([H])C([H])([H])C([H])(n3nc(-c4c([H])c([H])c(Oc5c([H])c([H])c(F)c([H])c5F)c([H])c4[H])c(C(=O)N([H])[H])c3N([H])[H])C2([H])[H])c1F)=C([H])Oc1c([H])c([H])c2c(c1[H])C([H])([H])N(C(=O)C([H])(N([H])C(=O)C([H])(N([H])C([H])([H])[H])C([H])([H])[H])C(C([H])([H])[H])(C([H])([H])[H])C([H])([H])[H])C([H])(C(=O)N([H])C1([H])c3c([H])c([H])c([H])c([H])c3C([H])([H])C([H])([H])C1([H])[H])C2([H])[H]

$$$$
19:0:0
     RDKit          3D

 98106  0  0  1  0  0  0  0  0999 V2000
  -29.1170  -19.4710   19.6710 C   0  0  0  0  0  3  0  0  0  0  0  0
  -30.4300  -19.5280   21.6700 C   0  0  0  0  0  3  0  0  0  0  0  0
  -29.1930  -18.0360   19.6490 C   0  0  0  0  0  0  0  0  0  0  0  0
  -29.7140  -20.2650   20.6850 C   0  0  0  0  0  0  0  0  0  0  0  0
  -29.8680  -17.3020   20.6830 C   0  0  0  0  0  0  0  0  0  0  0  0
  -30.4870  -18.0970   21.6840 C   0  0  0  0  0  0  0  0  0  0  0  0
  -31.1180  -17.4790   22.7120 F   0  0  0  0  0  0  0  0  0  0  0  0
  -30.5860  -14.7920   20.5710 C   0  0  0  0  0  0  0  0  0  0  0  0
  -30.4470  -12.5230   19.5440 C   0  0  0  0  0  2  0  0  0  0  0  0
  -29.5290  -12.6060   18.3030 C   0  0  0  0  0  2  0  0  0  0  0  0
  -28.0480  -12.4290   18.6980 C   0  0  0  0  0  2  0  0  0  0  0  0
  -27.6470  -13.3070   19.9130 C   0  0  0  0  0  3  0  0  0  0  0  0
  -28.6810  -13.1920   21.0560 C   0  0  0  0  0  2  0  0  0  0  0  0
  -29.9970  -13.5520   20.5030 N   0  0  0  0  0  0  0  0  0  0  0  0
  -31.7620  -14.9580   20.2330 O   0  0  0  0  0  0  0  0  0  0  0  0
  -29.7410  -15.8400   20.8420 N   0  0  0  0  0  0  0  0  0  0  0  0
  -28.8060  -15.5310   21.0580 H   0  0  0  0  0  0  0  0  0  0  0  0
  -25.2380  -13.9030   20.5810 C   0  0  0  0  0  0  0  0  0  0  0  0
  -24.1650  -13.1280   20.9310 C   0  0  0  0  0  0  0  0  0  0  0  0
  -24.6310  -11.7780   20.9100 C   0  0  0  0  0  0  0  0  0  0  0  0
  -26.2890  -13.0230   20.3680 N   0  0  0  0  0  0  0  0  0  0  0  0
  -25.9280  -11.7410   20.6280 N   0  0  0  0  0  0  0  0  0  0  0  0
  -23.9040  -10.5150   21.0850 C   0  0  0  0  0  0  0  0  0  0  0  0
  -24.3160   -9.5490   22.0290 C   0  0  0  0  0  3  0  0  0  0  0  0
  -23.5890   -8.3510   22.1930 C   0  0  0  0  0  3  0  0  0  0  0  0
  -22.4350   -8.1100   21.4100 C   0  0  0  0  0  0  0  0  0  0  0  0
  -22.0410   -9.0640   20.4540 C   0  0  0  0  0  3  0  0  0  0  0  0
  -22.7700  -10.2530   20.2900 C   0  0  0  0  0  3  0  0  0  0  0  0
  -21.6820   -6.9630   21.4810 O   0  0  0  0  0  0  0  0  0  0  0  0
  -21.6000   -6.2250   22.6340 C   0  0  0  0  0  0  0  0  0  0  0  0
  -21.1240   -6.7830   23.8420 C   0  0  0  0  0  3  0  0  0  0  0  0
  -20.9900   -5.9720   24.9870 C   0  0  0  0  0  3  0  0  0  0  0  0
  -21.3210   -4.6050   24.9250 C   0  0  0  0  0  0  0  0  0  0  0  0
  -21.7910   -4.0470   23.7230 C   0  0  0  0  0  3  0  0  0  0  0  0
  -21.9260   -4.8560   22.5800 C   0  0  0  0  0  0  0  0  0  0  0  0
  -22.3590   -4.3090   21.4180 F   0  0  0  0  0  0  0  0  0  0  0  0
  -21.1850   -3.8230   26.0220 F   0  0  0  0  0  0  0  0  0  0  0  0
  -22.7610  -13.6030   21.1680 C   0  0  0  0  0  0  0  0  0  0  0  0
  -22.0140  -12.9080   22.0180 N   0  0  0  0  0  0  0  0  0  0  0  0
  -22.3330  -14.6270   20.6340 O   0  0  0  0  0  0  0  0  0  0  0  0
  -22.3710  -12.0810   22.4740 H   0  0  0  0  0  0  0  0  0  0  0  0
  -21.0710  -13.2090   22.2180 H   0  0  0  0  0  0  0  0  0  0  0  0
  -25.3970  -15.2730   20.4030 N   0  0  0  0  0  0  0  0  0  0  0  0
  -24.6050  -15.9020   20.4600 H   0  0  0  0  0  0  0  0  0  0  0  0
  -26.2000  -15.7000   19.9530 H   0  0  0  0  0  0  0  0  0  0  0  0
  -28.5160  -17.3010   18.4940 C   0  0  1  0  0  0  0  0  0  0  0  0
  -28.1990  -18.1230   17.4930 F   0  0  0  0  0  0  0  0  0  0  0  0
  -29.3140  -16.3560   17.9980 F   0  0  0  0  0  0  0  0  0  0  0  0
  -27.3970  -16.7290   18.9320 F   0  0  0  0  0  0  0  0  0  0  0  0
  -28.6780  -22.6360   20.4240 C   0  0  0  0  0  0  0  0  0  0  0  0
  -29.6900  -21.7430   20.6930 N   0  0  0  0  0  0  0  0  0  0  0  0
  -27.5370  -22.2290   20.1960 O   0  0  0  0  0  0  0  0  0  0  0  0
  -30.5430  -22.2040   20.9880 H   0  0  0  0  0  0  0  0  0  0  0  0
  -28.0920  -25.0980   20.3560 C   0  0  0  0  0  3  0  0  0  0  0  0
  -29.0420  -24.1000   20.4310 C   0  0  0  0  0  0  0  0  0  0  0  0
  -30.3380  -24.4390   20.4950 O   0  0  0  0  0  0  0  0  0  0  0  0
  -30.3730  -25.3870   20.4740 H   0  0  0  0  0  0  0  0  0  0  0  0
  -28.2950  -26.5060   20.2830 O   0  0  0  0  0  0  0  0  0  0  0  0
  -24.6070  -31.9750   23.2810 C   0  0  0  0  0  0  0  0  0  0  0  0
  -27.1900  -27.3830   20.2320 C   0  0  0  0  0  0  0  0  0  0  0  0
  -23.3930  -30.5800   21.6440 C   0  0  0  0  0  3  0  0  0  0  0  0
  -24.8360  -29.0220   20.2140 C   0  0  0  0  0  0  0  0  0  0  0  0
  -25.9360  -30.8780   21.4640 C   0  0  0  0  0  2  0  0  0  0  0  0
  -26.0060  -29.4960   20.8210 C   0  0  0  0  0  0  0  0  0  0  0  0
  -27.1830  -28.6850   20.8280 C   0  0  0  0  0  3  0  0  0  0  0  0
  -26.0050  -26.9860   19.5700 C   0  0  0  0  0  3  0  0  0  0  0  0
  -24.8370  -27.7710   19.5810 C   0  0  0  0  0  3  0  0  0  0  0  0
  -23.6030  -29.9040   20.2640 C   0  0  0  0  0  2  0  0  0  0  0  0
  -24.6630  -31.1630   22.1850 N   0  0  0  0  0  0  0  0  0  0  0  0
  -23.5250  -32.2590   23.8170 O   0  0  0  0  0  0  0  0  0  0  0  0
  -22.7260  -29.5690   22.6060 C   0  0  0  0  0  0  0  0  0  0  0  0
  -21.4010  -29.3900   22.4740 N   0  0  0  0  0  0  0  0  0  0  0  0
  -23.4000  -28.9470   23.4320 O   0  0  0  0  0  0  0  0  0  0  0  0
  -20.9140  -29.9450   21.7830 H   0  0  0  0  0  0  0  0  0  0  0  0
  -18.0220  -28.1950   22.9640 C   0  0  0  0  0  0  0  0  0  0  0  0
  -20.5780  -28.4590   23.2470 C   0  0  0  0  0  3  0  0  0  0  0  0
  -20.6840  -27.0230   22.6820 C   0  0  0  0  0  2  0  0  0  0  0  0
  -19.5890  -26.6920   21.6630 C   0  0  0  0  0  2  0  0  0  0  0  0
  -18.2030  -26.8410   22.2980 C   0  0  0  0  0  2  0  0  0  0  0  0
  -19.1370  -28.9610   23.3950 C   0  0  0  0  0  0  0  0  0  0  0  0
  -18.9140  -30.2260   23.9780 C   0  0  0  0  0  3  0  0  0  0  0  0
  -17.6070  -30.7280   24.1340 C   0  0  0  0  0  3  0  0  0  0  0  0
  -16.5060  -29.9590   23.7190 C   0  0  0  0  0  3  0  0  0  0  0  0
  -16.7140  -28.6940   23.1400 C   0  0  0  0  0  3  0  0  0  0  0  0
  -25.8940  -32.6020   23.8990 C   0  0  0  0  0  3  0  0  0  0  0  0
  -26.4060  -31.8310   25.1790 C   0  0  1  0  0  0  0  0  0  0  0  0
  -25.3120  -31.6040   26.2470 C   0  0  0  0  0  1  0  0  0  0  0  0
  -26.9810  -30.4480   24.7930 C   0  0  0  0  0  1  0  0  0  0  0  0
  -27.5630  -32.6200   25.8360 C   0  0  0  0  0  1  0  0  0  0  0  0
  -25.5930  -34.0020   24.2270 N   0  0  0  0  0  0  0  0  0  0  0  0
  -25.9130  -35.0510   23.4570 C   0  0  0  0  0  0  0  0  0  0  0  0
  -26.5650  -34.9410   22.4140 O   0  0  0  0  0  0  0  0  0  0  0  0
  -25.0120  -34.1620   25.0360 H   0  0  0  0  0  0  0  0  0  0  0  0
  -24.1760  -36.8420   23.1360 C   0  0  0  0  0  1  0  0  0  0  0  0
  -25.4390  -36.4430   23.9160 C   0  0  0  0  0  3  0  0  0  0  0  0
  -27.5940  -37.3350   24.6850 C   0  0  0  0  0  1  0  0  0  0  0  0
  -26.4670  -37.4960   23.7690 N   0  0  0  0  0  0  0  0  0  0  0  0
  -26.0650  -38.4170   23.9190 H   0  0  0  0  0  0  0  0  0  0  0  0
  1  4  1  0
  2  6  1  0
  3  1  2  0
  3  5  1  0
  4 51  1  0
  4  2  2  0
  5 16  1  0
  5  6  2  0
  6  7  1  0
  8 16  1  0
  9 14  1  0
 10 11  1  0
 10  9  1  0
 12 11  1  0
 12 21  1  0
 12 13  1  0
 14  8  1  0
 14 13  1  0
 15  8  2  0
 16 17  1  0
 18 19  2  0
 19 38  1  0
 20 19  1  0
 20 23  1  0
 21 18  1  0
 21 22  1  0
 22 20  2  0
 23 24  1  0
 24 25  2  0
 26 29  1  0
 26 25  1  0
 27 26  2  0
 28 27  1  0
 28 23  2  0
 29 30  1  0
 30 31  1  0
 31 32  2  0
 33 32  1  0
 33 37  1  0
 34 33  2  0
 35 30  2  0
 35 34  1  0
 36 35  1  0
 38 39  1  0
 39 42  1  0
 39 41  1  0
 40 38  2  0
 43 44  1  0
 43 18  1  0
 45 43  1  0
 46 49  1  1
 46  3  1  0
 47 46  1  0
 48 46  1  0
 50 55  1  0
 50 51  1  0
 51 53  1  0
 52 50  2  0
 54 55  2  0
 55 56  1  0
 57 56  1  0
 58 54  1  0
 59 70  2  0
 60 58  1  0
 60 65  1  0
 61 69  1  0
 61 71  1  0
 62 68  1  0
 62 64  1  0
 63 69  1  0
 64 65  2  0
 64 63  1  0
 66 67  1  0
 66 60  2  0
 67 62  2  0
 68 61  1  0
 69 59  1  0
 71 73  2  0
 72 71  1  0
 74 72  1  0
 75 84  2  0
 75 80  1  0
 76 72  1  0
 76 80  1  0
 77 76  1  0
 78 79  1  0
 78 77  1  0
 79 75  1  0
 80 81  2  0
 81 82  1  0
 83 82  2  0
 84 83  1  0
 85 59  1  0
 85 90  1  0
 85 86  1  0
 86 89  1  1
 86 87  1  0
 88 86  1  0
 90 93  1  0
 91 95  1  0
 91 90  1  0
 92 91  2  0
 95 94  1  0
 97 95  1  0
 97 98  1  0
 97 96  1  0
M  ISO  4   8 100  16 100  54 101  58 101
M  END
>  <TORSDO>  (20) 
F 20

>  <SCORE>  (20) 
-14.112

>  <name>  (20) 
19

>  <ligand_id>  (20) 
19

>  <original_smiles>  (20) 
[H]OC(C(=O)N([H])c1c([H])c(F)c(N([H])C(=O)N2C([H])([H])C([H])([H])C([H])([H])C([H])(n3nc(-c4c([H])c([H])c(Oc5c([H])c([H])c(F)c([H])c5F)c([H])c4[H])c(C(=O)N([H])[H])c3N([H])[H])C2([H])[H])c(C(F)(F)F)c1[H])=C([H])Oc1c([H])c([H])c2c(c1[H])C([H])([H])N(C(=O)C([H])(N([H])C(=O)C([H])(N([H])C([H])([H])[H])C([H])([H])[H])C(C([H])([H])[H])(C([H])([H])[H])C([H])([H])[H])C([H])(C(=O)N([H])C1([H])c3c([H])c([H])c([H])c([H])c3C([H])([H])C([H])([H])C1([H])[H])C2([H])[H]

>  <smiles>  (20) 
[H]OC(C(=O)N([H])c1c([H])c(F)c(N([H])C(=O)N2C([H])([H])C([H])([H])C([H])([H])C([H])(n3nc(-c4c([H])c([H])c(Oc5c([H])c([H])c(F)c([H])c5F)c([H])c4[H])c(C(=O)N([H])[H])c3N([H])[H])C2([H])[H])c(C(F)(F)F)c1[H])=C([H])Oc1c([H])c([H])c2c(c1[H])C([H])([H])N(C(=O)C([H])(N([H])C(=O)C([H])(N([H])C([H])([H])[H])C([H])([H])[H])C(C([H])([H])[H])(C([H])([H])[H])C([H])([H])[H])C([H])(C(=O)N([H])C1([H])c3c([H])c([H])c([H])c([H])c3C([H])([H])C([H])([H])C1([H])[H])C2([H])[H]

$$$$
20:0:0
     RDKit          3D

 96104  0  0  1  0  0  0  0  0999 V2000
  -29.3370  -21.7770   20.7580 C   0  0  0  0  0  0  0  0  0  0  0  0
  -29.4440  -20.5820   20.1100 N   0  0  0  0  0  0  0  0  0  0  0  0
  -29.8670  -22.0270   21.8480 O   0  0  0  0  0  0  0  0  0  0  0  0
  -28.8060  -20.4670   19.3330 H   0  0  0  0  0  0  0  0  0  0  0  0
  -30.6420  -14.7090   19.9290 C   0  0  0  0  0  0  0  0  0  0  0  0
  -30.2950  -12.5630   18.7540 C   0  0  0  0  0  2  0  0  0  0  0  0
  -29.2530  -12.7650   17.6370 C   0  0  0  0  0  2  0  0  0  0  0  0
  -27.8230  -12.5950   18.1870 C   0  0  0  0  0  2  0  0  0  0  0  0
  -27.5800  -13.3860   19.5010 C   0  0  0  0  0  3  0  0  0  0  0  0
  -28.7290  -13.1620   20.5070 C   0  0  0  0  0  2  0  0  0  0  0  0
  -29.9810  -13.5220   19.8300 N   0  0  0  0  0  0  0  0  0  0  0  0
  -31.7180  -14.8790   19.3460 O   0  0  0  0  0  0  0  0  0  0  0  0
  -31.8210  -17.2350   21.1020 C   0  0  0  0  0  3  0  0  0  0  0  0
  -32.4480  -18.4790   20.9950 C   0  0  0  0  0  0  0  0  0  0  0  0
  -31.6820  -19.5910   20.5750 C   0  0  0  0  0  0  0  0  0  0  0  0
  -30.4850  -17.0780   20.6980 C   0  0  0  0  0  0  0  0  0  0  0  0
  -30.2700  -19.4410   20.4190 C   0  0  0  0  0  0  0  0  0  0  0  0
  -33.9420  -18.5530   21.2650 C   0  0  0  0  0  1  0  0  0  0  0  0
  -32.4090  -20.8940   20.2540 C   0  0  0  0  0  1  0  0  0  0  0  0
  -29.7230  -18.1860   20.4410 N   0  0  0  0  0  0  0  0  0  0  0  0
  -30.0000  -15.7320   20.5580 N   0  0  0  0  0  0  0  0  0  0  0  0
  -29.0510  -15.5620   20.8500 H   0  0  0  0  0  0  0  0  0  0  0  0
  -25.2580  -13.9220   20.4690 C   0  0  0  0  0  0  0  0  0  0  0  0
  -24.2420  -13.1200   20.9060 C   0  0  0  0  0  0  0  0  0  0  0  0
  -24.7110  -11.7760   20.7670 C   0  0  0  0  0  0  0  0  0  0  0  0
  -26.2830  -13.0680   20.0920 N   0  0  0  0  0  0  0  0  0  0  0  0
  -25.9630  -11.7700   20.3300 N   0  0  0  0  0  0  0  0  0  0  0  0
  -24.0210  -10.4970   20.9710 C   0  0  0  0  0  0  0  0  0  0  0  0
  -24.4770   -9.5550   21.9170 C   0  0  0  0  0  3  0  0  0  0  0  0
  -23.7850   -8.3400   22.1080 C   0  0  0  0  0  3  0  0  0  0  0  0
  -22.6220   -8.0590   21.3530 C   0  0  0  0  0  0  0  0  0  0  0  0
  -22.1870   -8.9920   20.3930 C   0  0  0  0  0  3  0  0  0  0  0  0
  -22.8790  -10.1990   20.2030 C   0  0  0  0  0  3  0  0  0  0  0  0
  -21.9020   -6.8950   21.4500 O   0  0  0  0  0  0  0  0  0  0  0  0
  -21.7670   -6.2300   22.6420 C   0  0  0  0  0  0  0  0  0  0  0  0
  -21.1830   -6.8390   23.7750 C   0  0  0  0  0  3  0  0  0  0  0  0
  -21.0020   -6.0960   24.9580 C   0  0  0  0  0  3  0  0  0  0  0  0
  -21.3930   -4.7450   25.0090 C   0  0  0  0  0  0  0  0  0  0  0  0
  -21.9670   -4.1350   23.8790 C   0  0  0  0  0  3  0  0  0  0  0  0
  -22.1500   -4.8750   22.6990 C   0  0  0  0  0  0  0  0  0  0  0  0
  -22.6870   -4.2770   21.6070 F   0  0  0  0  0  0  0  0  0  0  0  0
  -21.2110   -4.0280   26.1430 F   0  0  0  0  0  0  0  0  0  0  0  0
  -22.8740  -13.5660   21.3360 C   0  0  0  0  0  0  0  0  0  0  0  0
  -22.2430  -12.8320   22.2470 N   0  0  0  0  0  0  0  0  0  0  0  0
  -22.3720  -14.5990   20.8940 O   0  0  0  0  0  0  0  0  0  0  0  0
  -22.6630  -11.9980   22.6270 H   0  0  0  0  0  0  0  0  0  0  0  0
  -21.3270  -13.1120   22.5710 H   0  0  0  0  0  0  0  0  0  0  0  0
  -25.3910  -15.3020   20.3430 N   0  0  0  0  0  0  0  0  0  0  0  0
  -24.6260  -15.9320   20.5630 H   0  0  0  0  0  0  0  0  0  0  0  0
  -26.1930  -15.7780   19.9540 H   0  0  0  0  0  0  0  0  0  0  0  0
  -28.4590  -22.8550   20.0080 C   0  0  0  0  0  0  0  0  0  0  0  0
  -27.8190  -22.5500   18.9920 O   0  0  0  0  0  0  0  0  0  0  0  0
  -28.3930  -24.3080   20.5860 C   0  0  0  0  0  3  0  0  0  0  0  0
  -27.0010  -24.4670   21.7020 Cl  0  0  0  0  0  0  0  0  0  0  0  0
  -28.3370  -25.4590   19.5200 C   0  0  0  0  0  2  0  0  0  0  0  0
  -28.2670  -26.8170   20.0490 O   0  0  0  0  0  0  0  0  0  0  0  0
  -24.5580  -32.0140   23.2930 C   0  0  0  0  0  0  0  0  0  0  0  0
  -27.0850  -27.5500   20.0760 C   0  0  0  0  0  0  0  0  0  0  0  0
  -23.3020  -30.6360   21.6680 C   0  0  0  0  0  3  0  0  0  0  0  0
  -24.7060  -29.1100   20.1810 C   0  0  0  0  0  0  0  0  0  0  0  0
  -25.8300  -30.9740   21.4100 C   0  0  0  0  0  2  0  0  0  0  0  0
  -25.8880  -29.6100   20.7410 C   0  0  0  0  0  0  0  0  0  0  0  0
  -27.0770  -28.8390   20.6790 C   0  0  0  0  0  3  0  0  0  0  0  0
  -25.8680  -27.0720   19.5340 C   0  0  0  0  0  3  0  0  0  0  0  0
  -24.6930  -27.8450   19.5750 C   0  0  0  0  0  3  0  0  0  0  0  0
  -23.4730  -29.9800   20.2730 C   0  0  0  0  0  2  0  0  0  0  0  0
  -24.5820  -31.2240   22.1810 N   0  0  0  0  0  0  0  0  0  0  0  0
  -23.4920  -32.2850   23.8660 O   0  0  0  0  0  0  0  0  0  0  0  0
  -22.6700  -29.6060   22.6330 C   0  0  0  0  0  0  0  0  0  0  0  0
  -21.3520  -29.3860   22.5000 N   0  0  0  0  0  0  0  0  0  0  0  0
  -23.3650  -29.0100   23.4600 O   0  0  0  0  0  0  0  0  0  0  0  0
  -20.8520  -29.9180   21.8010 H   0  0  0  0  0  0  0  0  0  0  0  0
  -18.0200  -28.0500   22.9340 C   0  0  0  0  0  0  0  0  0  0  0  0
  -20.5560  -28.4340   23.2730 C   0  0  0  0  0  3  0  0  0  0  0  0
  -20.7390  -26.9940   22.7390 C   0  0  0  0  0  2  0  0  0  0  0  0
  -19.6840  -26.5940   21.7040 C   0  0  0  0  0  2  0  0  0  0  0  0
  -18.2790  -26.6930   22.3010 C   0  0  0  0  0  2  0  0  0  0  0  0
  -19.0900  -28.8740   23.3750 C   0  0  0  0  0  0  0  0  0  0  0  0
  -18.7960  -30.1410   23.9230 C   0  0  0  0  0  3  0  0  0  0  0  0
  -17.4660  -30.5860   24.0390 C   0  0  0  0  0  3  0  0  0  0  0  0
  -16.4100  -29.7580   23.6150 C   0  0  0  0  0  3  0  0  0  0  0  0
  -16.6880  -28.4940   23.0670 C   0  0  0  0  0  3  0  0  0  0  0  0
  -25.8640  -32.6310   23.8870 C   0  0  0  0  0  3  0  0  0  0  0  0
  -26.4110  -31.8440   25.1400 C   0  0  1  0  0  0  0  0  0  0  0  0
  -25.3350  -31.5710   26.2190 C   0  0  0  0  0  1  0  0  0  0  0  0
  -27.0080  -30.4830   24.7140 C   0  0  0  0  0  1  0  0  0  0  0  0
  -27.5620  -32.6410   25.7990 C   0  0  0  0  0  1  0  0  0  0  0  0
  -25.5760  -34.0280   24.2380 N   0  0  0  0  0  0  0  0  0  0  0  0
  -25.8780  -35.0820   23.4690 C   0  0  0  0  0  0  0  0  0  0  0  0
  -26.5020  -34.9810   22.4080 O   0  0  0  0  0  0  0  0  0  0  0  0
  -25.0250  -34.1810   25.0690 H   0  0  0  0  0  0  0  0  0  0  0  0
  -24.1310  -36.8690   23.2100 C   0  0  0  0  0  1  0  0  0  0  0  0
  -25.4150  -36.4670   23.9530 C   0  0  0  0  0  3  0  0  0  0  0  0
  -27.5850  -37.3550   24.6800 C   0  0  0  0  0  1  0  0  0  0  0  0
  -26.4400  -37.5210   23.7900 N   0  0  0  0  0  0  0  0  0  0  0  0
  -26.0390  -38.4400   23.9590 H   0  0  0  0  0  0  0  0  0  0  0  0
  1  3  2  0
  2 17  1  0
  2  1  1  0
  4  2  1  0
  5 21  1  0
  6 11  1  0
  7  8  1  0
  7  6  1  0
  9  8  1  0
  9 26  1  0
  9 10  1  0
 11  5  1  0
 11 10  1  0
 12  5  2  0
 14 13  1  0
 14 18  1  0
 15 14  2  0
 16 13  2  0
 17 20  2  0
 17 15  1  0
 19 15  1  0
 20 16  1  0
 21 16  1  0
 21 22  1  0
 23 24  2  0
 24 43  1  0
 25 24  1  0
 25 28  1  0
 26 27  1  0
 26 23  1  0
 27 25  2  0
 28 29  1  0
 29 30  2  0
 31 34  1  0
 31 30  1  0
 32 31  2  0
 33 32  1  0
 33 28  2  0
 34 35  1  0
 35 40  2  0
 35 36  1  0
 36 37  2  0
 37 38  1  0
 38 42  1  0
 39 38  2  0
 40 39  1  0
 41 40  1  0
 43 44  1  0
 44 47  1  0
 44 46  1  0
 45 43  2  0
 48 23  1  0
 48 49  1  0
 50 48  1  0
 51 53  1  0
 51  1  1  0
 52 51  2  0
 53 54  1  0
 55 56  1  0
 55 53  1  0
 56 58  1  0
 57 68  2  0
 58 63  1  0
 59 67  1  0
 59 69  1  0
 60 66  1  0
 60 62  1  0
 61 67  1  0
 62 61  1  0
 63 62  2  0
 64 65  1  0
 64 58  2  0
 65 60  2  0
 66 59  1  0
 67 57  1  0
 69 71  2  0
 70 69  1  0
 72 70  1  0
 73 82  2  0
 73 78  1  0
 74 70  1  0
 74 78  1  0
 75 74  1  0
 76 77  1  0
 76 75  1  0
 77 73  1  0
 78 79  2  0
 79 80  1  0
 81 80  2  0
 82 81  1  0
 83 57  1  0
 83 88  1  0
 83 84  1  0
 84 87  1  1
 84 85  1  0
 86 84  1  0
 88 91  1  0
 89 93  1  0
 89 88  1  0
 90 89  2  0
 93 92  1  0
 95 93  1  0
 95 96  1  0
 95 94  1  0
M  ISO  4   5 100  21 100  55 101  56 101
M  END
>  <TORSDO>  (21) 
F 19

>  <SCORE>  (21) 
-13.523

>  <name>  (21) 
20

>  <ligand_id>  (21) 
20

>  <original_smiles>  (21) 
[H]c1c([H])c([H])c2c(c1[H])C([H])([H])C([H])([H])C([H])([H])C2([H])N([H])C(=O)C1([H])N(C(=O)C([H])(N([H])C(=O)C([H])(N([H])C([H])([H])[H])C([H])([H])[H])C(C([H])([H])[H])(C([H])([H])[H])C([H])([H])[H])C([H])([H])c2c([H])c(OC([H])([H])C([H])(Cl)C(=O)C(=O)N([H])c3nc(N([H])C(=O)N4C([H])([H])C([H])([H])C([H])([H])C([H])(n5nc(-c6c([H])c([H])c(Oc7c([H])c([H])c(F)c([H])c7F)c([H])c6[H])c(C(=O)N([H])[H])c5N([H])[H])C4([H])[H])c([H])c(C([H])([H])[H])c3C([H])([H])[H])c([H])c([H])c2C1([H])[H]

>  <smiles>  (21) 
[H]c1c([H])c([H])c2c(c1[H])C([H])([H])C([H])([H])C([H])([H])C2([H])N([H])C(=O)C1([H])N(C(=O)C([H])(N([H])C(=O)C([H])(N([H])C([H])([H])[H])C([H])([H])[H])C(C([H])([H])[H])(C([H])([H])[H])C([H])([H])[H])C([H])([H])c2c([H])c(OC([H])([H])C([H])(Cl)C(=O)C(=O)N([H])c3nc(N([H])C(=O)N4C([H])([H])C([H])([H])C([H])([H])C([H])(n5nc(-c6c([H])c([H])c(Oc7c([H])c([H])c(F)c([H])c7F)c([H])c6[H])c(C(=O)N([H])[H])c5N([H])[H])C4([H])[H])c([H])c(C([H])([H])[H])c3C([H])([H])[H])c([H])c([H])c2C1([H])[H]

$$$$
21:0:0
     RDKit          3D

 96104  0  0  1  0  0  0  0  0999 V2000
  -28.7720  -23.2570   20.4550 C   0  0  0  0  0  0  0  0  0  0  0  0
  -28.9210  -21.9270   19.8960 N   0  0  0  0  0  0  0  0  0  0  0  0
  -28.8600  -23.3730   21.6770 O   0  0  0  0  0  0  0  0  0  0  0  0
  -28.5910  -21.8860   18.9410 H   0  0  0  0  0  0  0  0  0  0  0  0
  -29.2700  -19.1450   20.0300 C   0  0  0  0  0  3  0  0  0  0  0  0
  -29.5880  -20.5850   20.3630 C   0  0  0  0  0  0  0  0  0  0  0  0
  -30.0330  -17.9040   20.4490 C   0  0  0  0  0  0  0  0  0  0  0  0
  -30.7690  -20.6980   21.1360 C   0  0  0  0  0  0  0  0  0  0  0  0
  -31.1600  -18.2290   21.2420 C   0  0  0  0  0  0  0  0  0  0  0  0
  -31.5080  -19.5650   21.5670 C   0  0  0  0  0  0  0  0  0  0  0  0
  -31.2550  -21.9230   21.4530 F   0  0  0  0  0  0  0  0  0  0  0  0
  -31.9290  -17.2390   21.7580 F   0  0  0  0  0  0  0  0  0  0  0  0
  -32.6050  -19.7700   22.3370 F   0  0  0  0  0  0  0  0  0  0  0  0
  -30.4740  -15.1610   20.0900 C   0  0  0  0  0  0  0  0  0  0  0  0
  -30.3230  -12.7990   19.1130 C   0  0  0  0  0  2  0  0  0  0  0  0
  -29.3400  -12.7430   17.9230 C   0  0  0  0  0  2  0  0  0  0  0  0
  -27.9100  -12.4740   18.4280 C   0  0  0  0  0  2  0  0  0  0  0  0
  -27.5360  -13.3780   19.6330 C   0  0  0  0  0  3  0  0  0  0  0  0
  -28.6480  -13.4240   20.7050 C   0  0  0  0  0  2  0  0  0  0  0  0
  -29.8690  -13.8920   20.0290 N   0  0  0  0  0  0  0  0  0  0  0  0
  -31.6660  -15.1900   19.7650 O   0  0  0  0  0  0  0  0  0  0  0  0
  -29.7120  -16.3820   20.2450 N   0  0  0  0  0  0  0  0  0  0  0  0
  -28.7260  -16.1850   20.3140 H   0  0  0  0  0  0  0  0  0  0  0  0
  -25.1880  -13.9080   20.4910 C   0  0  0  0  0  0  0  0  0  0  0  0
  -24.1460  -13.1160   20.8880 C   0  0  0  0  0  0  0  0  0  0  0  0
  -24.6210  -11.7710   20.8060 C   0  0  0  0  0  0  0  0  0  0  0  0
  -26.2270  -13.0470   20.1870 N   0  0  0  0  0  0  0  0  0  0  0  0
  -25.8970  -11.7530   20.4390 N   0  0  0  0  0  0  0  0  0  0  0  0
  -23.9110  -10.4990   21.0000 C   0  0  0  0  0  0  0  0  0  0  0  0
  -24.3520   -9.5390   21.9380 C   0  0  0  0  0  3  0  0  0  0  0  0
  -23.6400   -8.3350   22.1210 C   0  0  0  0  0  3  0  0  0  0  0  0
  -22.4730   -8.0790   21.3630 C   0  0  0  0  0  0  0  0  0  0  0  0
  -22.0490   -9.0260   20.4150 C   0  0  0  0  0  3  0  0  0  0  0  0
  -22.7630  -10.2220   20.2300 C   0  0  0  0  0  3  0  0  0  0  0  0
  -21.7320   -6.9240   21.4560 O   0  0  0  0  0  0  0  0  0  0  0  0
  -21.6590   -6.2070   22.6230 C   0  0  0  0  0  0  0  0  0  0  0  0
  -21.1380   -6.7660   23.8100 C   0  0  0  0  0  3  0  0  0  0  0  0
  -21.0150   -5.9720   24.9680 C   0  0  0  0  0  3  0  0  0  0  0  0
  -21.4030   -4.6190   24.9400 C   0  0  0  0  0  0  0  0  0  0  0  0
  -21.9140   -4.0580   23.7560 C   0  0  0  0  0  3  0  0  0  0  0  0
  -22.0380   -4.8490   22.6000 C   0  0  0  0  0  0  0  0  0  0  0  0
  -22.5140   -4.2970   21.4580 F   0  0  0  0  0  0  0  0  0  0  0  0
  -21.2780   -3.8530   26.0500 F   0  0  0  0  0  0  0  0  0  0  0  0
  -22.7580  -13.5760   21.2310 C   0  0  0  0  0  0  0  0  0  0  0  0
  -22.0690  -12.8470   22.1020 N   0  0  0  0  0  0  0  0  0  0  0  0
  -22.2970  -14.6160   20.7630 O   0  0  0  0  0  0  0  0  0  0  0  0
  -22.4580  -12.0030   22.4960 H   0  0  0  0  0  0  0  0  0  0  0  0
  -21.1410  -13.1360   22.3760 H   0  0  0  0  0  0  0  0  0  0  0  0
  -25.3360  -15.2820   20.3360 N   0  0  0  0  0  0  0  0  0  0  0  0
  -24.5790  -15.9350   20.4980 H   0  0  0  0  0  0  0  0  0  0  0  0
  -26.1670  -15.7270   19.9730 H   0  0  0  0  0  0  0  0  0  0  0  0
  -29.8430  -25.0930   19.0810 C   0  0  0  0  0  1  0  0  0  0  0  0
  -28.4440  -24.6970   19.6070 C   0  0  1  0  0  0  0  0  0  0  0  0
  -26.3100  -23.5450   18.4430 C   0  0  0  0  0  1  0  0  0  0  0  0
  -27.6100  -24.3850   18.3180 C   0  0  0  0  0  2  0  0  0  0  0  0
  -28.2140  -26.1280   20.3040 O   0  0  0  0  0  0  0  0  0  0  0  0
  -24.6410  -31.9500   23.2340 C   0  0  0  0  0  0  0  0  0  0  0  0
  -27.1630  -27.1440   20.2040 C   0  0  0  0  0  0  0  0  0  0  0  0
  -23.4240  -30.5500   21.6200 C   0  0  0  0  0  3  0  0  0  0  0  0
  -24.8460  -28.9570   20.1940 C   0  0  0  0  0  0  0  0  0  0  0  0
  -25.9890  -30.7810   21.4390 C   0  0  0  0  0  2  0  0  0  0  0  0
  -26.0450  -29.3860   20.7780 C   0  0  0  0  0  0  0  0  0  0  0  0
  -27.1970  -28.4980   20.7620 C   0  0  0  0  0  3  0  0  0  0  0  0
  -25.9140  -26.8280   19.6390 C   0  0  0  0  0  3  0  0  0  0  0  0
  -24.7920  -27.6840   19.6170 C   0  0  0  0  0  3  0  0  0  0  0  0
  -23.6340  -29.8770   20.2410 C   0  0  0  0  0  2  0  0  0  0  0  0
  -24.7060  -31.1180   22.1500 N   0  0  0  0  0  0  0  0  0  0  0  0
  -23.5580  -32.2410   23.7690 O   0  0  0  0  0  0  0  0  0  0  0  0
  -22.7470  -29.5500   22.5910 C   0  0  0  0  0  0  0  0  0  0  0  0
  -21.4190  -29.3750   22.4720 N   0  0  0  0  0  0  0  0  0  0  0  0
  -23.4200  -28.9380   23.4250 O   0  0  0  0  0  0  0  0  0  0  0  0
  -20.9310  -29.9190   21.7740 H   0  0  0  0  0  0  0  0  0  0  0  0
  -18.0410  -28.1600   23.0030 C   0  0  0  0  0  0  0  0  0  0  0  0
  -20.6030  -28.4430   23.2560 C   0  0  0  0  0  3  0  0  0  0  0  0
  -20.7100  -27.0030   22.7030 C   0  0  0  0  0  2  0  0  0  0  0  0
  -19.6060  -26.6580   21.6980 C   0  0  0  0  0  2  0  0  0  0  0  0
  -18.2250  -26.8030   22.3430 C   0  0  0  0  0  2  0  0  0  0  0  0
  -19.1590  -28.9350   23.4180 C   0  0  0  0  0  0  0  0  0  0  0  0
  -18.9320  -30.2010   23.9980 C   0  0  0  0  0  3  0  0  0  0  0  0
  -17.6230  -30.6940   24.1670 C   0  0  0  0  0  3  0  0  0  0  0  0
  -16.5230  -29.9180   23.7650 C   0  0  0  0  0  3  0  0  0  0  0  0
  -16.7330  -28.6530   23.1890 C   0  0  0  0  0  3  0  0  0  0  0  0
  -25.9230  -32.5910   23.8460 C   0  0  0  0  0  3  0  0  0  0  0  0
  -26.4410  -31.8280   25.1280 C   0  0  1  0  0  0  0  0  0  0  0  0
  -25.3490  -31.5960   26.1990 C   0  0  0  0  0  1  0  0  0  0  0  0
  -27.0290  -30.4480   24.7550 C   0  0  0  0  0  1  0  0  0  0  0  0
  -27.5920  -32.6330   25.7780 C   0  0  0  0  0  1  0  0  0  0  0  0
  -25.6090  -33.9910   24.1790 N   0  0  0  0  0  0  0  0  0  0  0  0
  -25.9300  -35.0500   23.4210 C   0  0  0  0  0  0  0  0  0  0  0  0
  -26.5850  -34.9460   22.3800 O   0  0  0  0  0  0  0  0  0  0  0  0
  -25.0250  -34.1430   24.9870 H   0  0  0  0  0  0  0  0  0  0  0  0
  -24.2060  -36.8550   23.0930 C   0  0  0  0  0  1  0  0  0  0  0  0
  -25.4540  -36.4410   23.8880 C   0  0  0  0  0  3  0  0  0  0  0  0
  -27.5950  -37.3250   24.7070 C   0  0  0  0  0  1  0  0  0  0  0  0
  -26.4900  -37.4910   23.7660 N   0  0  0  0  0  0  0  0  0  0  0  0
  -26.0860  -38.4120   23.9050 H   0  0  0  0  0  0  0  0  0  0  0  0
  1  3  2  0
  2  6  1  0
  2  1  1  0
  4  2  1  0
  5  6  2  0
  5  7  1  0
  6  8  1  0
  7  9  2  0
  8 11  1  0
  8 10  2  0
  9 10  1  0
  9 12  1  0
 10 13  1  0
 14 22  1  0
 15 20  1  0
 16 17  1  0
 16 15  1  0
 18 17  1  0
 18 27  1  0
 18 19  1  0
 20 14  1  0
 20 19  1  0
 21 14  2  0
 22 23  1  0
 22  7  1  0
 24 25  2  0
 25 44  1  0
 26 25  1  0
 26 29  1  0
 27 28  1  0
 27 24  1  0
 28 26  2  0
 29 30  1  0
 30 31  2  0
 32 35  1  0
 32 31  1  0
 33 32  2  0
 34 33  1  0
 34 29  2  0
 35 36  1  0
 36 37  1  0
 37 38  2  0
 39 38  1  0
 39 43  1  0
 40 39  2  0
 41 36  2  0
 41 40  1  0
 42 41  1  0
 44 45  1  0
 45 48  1  0
 45 47  1  0
 46 44  2  0
 49 24  1  0
 49 50  1  0
 51 49  1  0
 53 52  1  6
 53 56  1  0
 53  1  1  0
 55 54  1  0
 55 53  1  0
 57 68  2  0
 58 56  1  0
 58 63  1  0
 59 67  1  0
 59 69  1  0
 60 66  1  0
 60 62  1  0
 61 67  1  0
 62 61  1  0
 63 62  2  0
 64 58  2  0
 65 64  1  0
 65 60  2  0
 66 59  1  0
 67 57  1  0
 69 71  2  0
 70 69  1  0
 72 70  1  0
 73 82  2  0
 73 78  1  0
 74 70  1  0
 74 78  1  0
 75 74  1  0
 76 77  1  0
 76 75  1  0
 77 73  1  0
 78 79  2  0
 79 80  1  0
 81 80  2  0
 82 81  1  0
 83 57  1  0
 83 88  1  0
 83 84  1  0
 84 87  1  1
 84 85  1  0
 86 84  1  0
 88 91  1  0
 89 93  1  0
 89 88  1  0
 90 89  2  0
 93 92  1  0
 95 93  1  0
 95 96  1  0
 95 94  1  0
M  ISO  4  14 100  22 100  53 101  56 101
M  END
>  <TORSDO>  (22) 
F 19

>  <SCORE>  (22) 
-15.065

>  <name>  (22) 
21

>  <ligand_id>  (22) 
21

>  <original_smiles>  (22) 
[H]c1c([H])c([H])c2c(c1[H])C([H])([H])C([H])([H])C([H])([H])C2([H])N([H])C(=O)C1([H])N(C(=O)C([H])(N([H])C(=O)C([H])(N([H])C([H])([H])[H])C([H])([H])[H])C(C([H])([H])[H])(C([H])([H])[H])C([H])([H])[H])C([H])([H])c2c([H])c(OC(C(=O)N([H])c3c([H])c(N([H])C(=O)N4C([H])([H])C([H])([H])C([H])([H])C([H])(n5nc(-c6c([H])c([H])c(Oc7c([H])c([H])c(F)c([H])c7F)c([H])c6[H])c(C(=O)N([H])[H])c5N([H])[H])C4([H])[H])c(F)c(F)c3F)(C([H])([H])[H])C([H])([H])C([H])([H])[H])c([H])c([H])c2C1([H])[H]

>  <smiles>  (22) 
[H]c1c([H])c([H])c2c(c1[H])C([H])([H])C([H])([H])C([H])([H])C2([H])N([H])C(=O)C1([H])N(C(=O)C([H])(N([H])C(=O)C([H])(N([H])C([H])([H])[H])C([H])([H])[H])C(C([H])([H])[H])(C([H])([H])[H])C([H])([H])[H])C([H])([H])c2c([H])c(OC(C(=O)N([H])c3c([H])c(N([H])C(=O)N4C([H])([H])C([H])([H])C([H])([H])C([H])(n5nc(-c6c([H])c([H])c(Oc7c([H])c([H])c(F)c([H])c7F)c([H])c6[H])c(C(=O)N([H])[H])c5N([H])[H])C4([H])[H])c(F)c(F)c3F)(C([H])([H])[H])C([H])([H])C([H])([H])[H])c([H])c([H])c2C1([H])[H]

$$$$
22:0:0
     RDKit          3D

 93101  0  0  1  0  0  0  0  0999 V2000
  -30.0410  -17.5320   20.3900 C   0  0  0  0  0  0  0  0  0  0  0  0
  -31.1250  -18.0680   19.7210 C   0  0  0  0  0  0  0  0  0  0  0  0
  -29.6030  -19.9470   20.4270 C   0  0  0  0  0  0  0  0  0  0  0  0
  -29.0960  -22.6050   20.4130 C   0  0  0  0  0  0  0  0  0  0  0  0
  -29.1850  -18.6610   20.7810 N   0  0  0  0  0  0  0  0  0  0  0  0
  -28.8960  -21.2440   20.7380 N   0  0  0  0  0  0  0  0  0  0  0  0
  -30.0160  -22.9590   19.6760 O   0  0  0  0  0  0  0  0  0  0  0  0
  -32.1290  -17.3500   19.1680 F   0  0  0  0  0  0  0  0  0  0  0  0
  -31.1390  -19.8290   19.5600 S   0  0  0  0  0  0  0  0  0  0  0  0
  -28.0880  -21.1460   21.3370 H   0  0  0  0  0  0  0  0  0  0  0  0
  -30.5450  -14.8770   20.3620 C   0  0  0  0  0  0  0  0  0  0  0  0
  -30.3530  -12.5670   19.3730 C   0  0  0  0  0  2  0  0  0  0  0  0
  -29.4210  -12.5940   18.1410 C   0  0  0  0  0  2  0  0  0  0  0  0
  -27.9510  -12.4150   18.5650 C   0  0  0  0  0  2  0  0  0  0  0  0
  -27.5640  -13.3140   19.7690 C   0  0  0  0  0  3  0  0  0  0  0  0
  -28.6210  -13.2660   20.8960 C   0  0  0  0  0  2  0  0  0  0  0  0
  -29.9100  -13.6430   20.3020 N   0  0  0  0  0  0  0  0  0  0  0  0
  -31.7410  -14.9080   20.0650 O   0  0  0  0  0  0  0  0  0  0  0  0
  -29.7930  -16.0480   20.5990 N   0  0  0  0  0  0  0  0  0  0  0  0
  -28.8580  -15.8430   20.9080 H   0  0  0  0  0  0  0  0  0  0  0  0
  -25.1770  -13.8980   20.4890 C   0  0  0  0  0  0  0  0  0  0  0  0
  -24.1090  -13.1250   20.8550 C   0  0  0  0  0  0  0  0  0  0  0  0
  -24.5730  -11.7730   20.8370 C   0  0  0  0  0  0  0  0  0  0  0  0
  -26.2220  -13.0180   20.2590 N   0  0  0  0  0  0  0  0  0  0  0  0
  -25.8660  -11.7360   20.5340 N   0  0  0  0  0  0  0  0  0  0  0  0
  -23.8460  -10.5110   21.0300 C   0  0  0  0  0  0  0  0  0  0  0  0
  -24.2740   -9.5450   21.9670 C   0  0  0  0  0  3  0  0  0  0  0  0
  -23.5440   -8.3500   22.1480 C   0  0  0  0  0  3  0  0  0  0  0  0
  -22.3710   -8.1140   21.3930 C   0  0  0  0  0  0  0  0  0  0  0  0
  -21.9620   -9.0690   20.4450 C   0  0  0  0  0  3  0  0  0  0  0  0
  -22.6930  -10.2540   20.2610 C   0  0  0  0  0  3  0  0  0  0  0  0
  -21.6130   -6.9710   21.4830 O   0  0  0  0  0  0  0  0  0  0  0  0
  -21.5640   -6.2290   22.6360 C   0  0  0  0  0  0  0  0  0  0  0  0
  -21.1530   -6.7880   23.8660 C   0  0  0  0  0  3  0  0  0  0  0  0
  -21.0510   -5.9740   25.0110 C   0  0  0  0  0  3  0  0  0  0  0  0
  -21.3500   -4.6000   24.9290 C   0  0  0  0  0  0  0  0  0  0  0  0
  -21.7550   -4.0410   23.7040 C   0  0  0  0  0  3  0  0  0  0  0  0
  -21.8580   -4.8530   22.5600 C   0  0  0  0  0  0  0  0  0  0  0  0
  -22.2280   -4.3040   21.3780 F   0  0  0  0  0  0  0  0  0  0  0  0
  -21.2450   -3.8160   26.0260 F   0  0  0  0  0  0  0  0  0  0  0  0
  -22.7090  -13.6040   21.1120 C   0  0  0  0  0  0  0  0  0  0  0  0
  -21.9730  -12.9140   21.9770 N   0  0  0  0  0  0  0  0  0  0  0  0
  -22.2760  -14.6260   20.5820 O   0  0  0  0  0  0  0  0  0  0  0  0
  -22.3340  -12.0860   22.4290 H   0  0  0  0  0  0  0  0  0  0  0  0
  -21.0350  -13.2180   22.1930 H   0  0  0  0  0  0  0  0  0  0  0  0
  -25.3410  -15.2680   20.3070 N   0  0  0  0  0  0  0  0  0  0  0  0
  -24.5750  -15.9210   20.4300 H   0  0  0  0  0  0  0  0  0  0  0  0
  -26.1850  -15.7090   19.9650 H   0  0  0  0  0  0  0  0  0  0  0  0
  -27.8340  -24.9720   20.9820 C   0  0  0  0  0  3  0  0  0  0  0  0
  -28.1030  -23.5800   21.0440 C   0  0  0  0  0  0  0  0  0  0  0  0
  -27.2640  -22.9430   21.8810 O   0  0  0  0  0  0  0  0  0  0  0  0
  -26.6710  -23.5860   22.2490 H   0  0  0  0  0  0  0  0  0  0  0  0
  -28.2620  -26.2030   20.3580 O   0  0  0  0  0  0  0  0  0  0  0  0
  -24.6270  -31.8820   23.2450 C   0  0  0  0  0  0  0  0  0  0  0  0
  -27.2570  -27.2180   20.2560 C   0  0  0  0  0  0  0  0  0  0  0  0
  -23.4440  -30.4680   21.6070 C   0  0  0  0  0  3  0  0  0  0  0  0
  -24.9140  -28.9090   20.1930 C   0  0  0  0  0  0  0  0  0  0  0  0
  -25.9920  -30.7650   21.4530 C   0  0  0  0  0  2  0  0  0  0  0  0
  -26.0830  -29.3750   20.8110 C   0  0  0  0  0  0  0  0  0  0  0  0
  -27.2580  -28.5410   20.8360 C   0  0  0  0  0  3  0  0  0  0  0  0
  -26.0720  -26.8490   19.5820 C   0  0  0  0  0  3  0  0  0  0  0  0
  -24.9180  -27.6560   19.5630 C   0  0  0  0  0  3  0  0  0  0  0  0
  -23.6760  -29.7870   20.2320 C   0  0  0  0  0  2  0  0  0  0  0  0
  -24.7070  -31.0580   22.1570 N   0  0  0  0  0  0  0  0  0  0  0  0
  -23.5360  -32.1600   23.7660 O   0  0  0  0  0  0  0  0  0  0  0  0
  -22.7700  -29.4600   22.5700 C   0  0  0  0  0  0  0  0  0  0  0  0
  -21.4430  -29.2870   22.4420 N   0  0  0  0  0  0  0  0  0  0  0  0
  -23.4430  -28.8350   23.3940 O   0  0  0  0  0  0  0  0  0  0  0  0
  -20.9570  -29.8410   21.7500 H   0  0  0  0  0  0  0  0  0  0  0  0
  -18.0590  -28.1020   22.9540 C   0  0  0  0  0  0  0  0  0  0  0  0
  -20.6200  -28.3530   23.2160 C   0  0  0  0  0  3  0  0  0  0  0  0
  -20.7150  -26.9210   22.6400 C   0  0  0  0  0  2  0  0  0  0  0  0
  -19.6080  -26.6010   21.6290 C   0  0  0  0  0  2  0  0  0  0  0  0
  -18.2290  -26.7520   22.2770 C   0  0  0  0  0  2  0  0  0  0  0  0
  -19.1830  -28.8610   23.3810 C   0  0  0  0  0  0  0  0  0  0  0  0
  -18.9680  -30.1220   23.9750 C   0  0  0  0  0  3  0  0  0  0  0  0
  -17.6660  -30.6270   24.1470 C   0  0  0  0  0  3  0  0  0  0  0  0
  -16.5580  -29.8660   23.7350 C   0  0  0  0  0  3  0  0  0  0  0  0
  -16.7560  -28.6040   23.1450 C   0  0  0  0  0  3  0  0  0  0  0  0
  -25.9000  -32.5250   23.8730 C   0  0  0  0  0  3  0  0  0  0  0  0
  -25.5780  -33.9250   24.1950 N   0  0  0  0  0  0  0  0  0  0  0  0
  -25.9120  -34.9780   23.4370 C   0  0  0  0  0  0  0  0  0  0  0  0
  -26.5870  -34.8750   22.4100 O   0  0  0  0  0  0  0  0  0  0  0  0
  -24.9790  -34.0790   24.9930 H   0  0  0  0  0  0  0  0  0  0  0  0
  -24.1790  -36.7670   23.0690 C   0  0  0  0  0  1  0  0  0  0  0  0
  -25.4160  -36.3670   23.8890 C   0  0  0  0  0  3  0  0  0  0  0  0
  -27.5440  -37.2600   24.7310 C   0  0  0  0  0  1  0  0  0  0  0  0
  -26.4470  -37.4230   23.7810 N   0  0  0  0  0  0  0  0  0  0  0  0
  -26.0350  -38.3410   23.9250 H   0  0  0  0  0  0  0  0  0  0  0  0
  -26.4060  -31.7660   25.1610 C   0  0  1  0  0  0  0  0  0  0  0  0
  -25.3050  -31.5350   26.2220 C   0  0  0  0  0  1  0  0  0  0  0  0
  -26.9960  -30.3870   24.7890 C   0  0  0  0  0  1  0  0  0  0  0  0
  -27.5490  -32.5690   25.8260 C   0  0  0  0  0  1  0  0  0  0  0  0
  1 19  1  0
  1  5  1  0
  2  1  2  0
  3  6  1  0
  3  5  2  0
  4  6  1  0
  4 50  1  0
  6 10  1  0
  7  4  2  0
  8  2  1  0
  9  2  1  0
  9  3  1  0
 11 19  1  0
 12 17  1  0
 13 14  1  0
 13 12  1  0
 15 14  1  0
 15 24  1  0
 15 16  1  0
 17 11  1  0
 17 16  1  0
 18 11  2  0
 19 20  1  0
 21 22  2  0
 22 41  1  0
 23 22  1  0
 23 26  1  0
 24 21  1  0
 24 25  1  0
 25 23  2  0
 26 27  1  0
 27 28  2  0
 29 32  1  0
 29 28  1  0
 30 29  2  0
 31 30  1  0
 31 26  2  0
 32 33  1  0
 33 34  1  0
 34 35  2  0
 36 35  1  0
 36 40  1  0
 37 36  2  0
 38 33  2  0
 38 37  1  0
 39 38  1  0
 41 42  1  0
 42 45  1  0
 42 44  1  0
 43 41  2  0
 46 47  1  0
 46 21  1  0
 48 46  1  0
 49 50  2  0
 50 51  1  0
 51 52  1  0
 53 49  1  0
 54 65  2  0
 55 53  1  0
 55 60  1  0
 56 64  1  0
 56 66  1  0
 57 63  1  0
 57 59  1  0
 58 64  1  0
 59 60  2  0
 59 58  1  0
 61 55  2  0
 62 61  1  0
 62 57  2  0
 63 56  1  0
 64 54  1  0
 66 68  2  0
 67 66  1  0
 69 67  1  0
 70 79  2  0
 70 75  1  0
 71 67  1  0
 71 75  1  0
 72 71  1  0
 73 74  1  0
 73 72  1  0
 74 70  1  0
 75 76  2  0
 76 77  1  0
 78 77  2  0
 79 78  1  0
 80 54  1  0
 80 81  1  0
 80 90  1  0
 81 84  1  0
 82 86  1  0
 82 81  1  0
 83 82  2  0
 86 85  1  0
 88 86  1  0
 88 89  1  0
 88 87  1  0
 90 93  1  1
 90 91  1  0
 92 90  1  0
M  ISO  4  11 100  19 100  49 101  53 101
M  END
>  <TORSDO>  (23) 
F 18

>  <SCORE>  (23) 
-15.100

>  <name>  (23) 
22

>  <ligand_id>  (23) 
22

>  <original_smiles>  (23) 
[H]OC(C(=O)N([H])c1nc(N([H])C(=O)N2C([H])([H])C([H])([H])C([H])([H])C([H])(n3nc(-c4c([H])c([H])c(Oc5c([H])c([H])c(F)c([H])c5F)c([H])c4[H])c(C(=O)N([H])[H])c3N([H])[H])C2([H])[H])c(F)s1)=C([H])Oc1c([H])c([H])c2c(c1[H])C([H])([H])N(C(=O)C([H])(N([H])C(=O)C([H])(N([H])C([H])([H])[H])C([H])([H])[H])C(C([H])([H])[H])(C([H])([H])[H])C([H])([H])[H])C([H])(C(=O)N([H])C1([H])c3c([H])c([H])c([H])c([H])c3C([H])([H])C([H])([H])C1([H])[H])C2([H])[H]

>  <smiles>  (23) 
[H]OC(C(=O)N([H])c1nc(N([H])C(=O)N2C([H])([H])C([H])([H])C([H])([H])C([H])(n3nc(-c4c([H])c([H])c(Oc5c([H])c([H])c(F)c([H])c5F)c([H])c4[H])c(C(=O)N([H])[H])c3N([H])[H])C2([H])[H])c(F)s1)=C([H])Oc1c([H])c([H])c2c(c1[H])C([H])([H])N(C(=O)C([H])(N([H])C(=O)C([H])(N([H])C([H])([H])[H])C([H])([H])[H])C(C([H])([H])[H])(C([H])([H])[H])C([H])([H])[H])C([H])(C(=O)N([H])C1([H])c3c([H])c([H])c([H])c([H])c3C([H])([H])C([H])([H])C1([H])[H])C2([H])[H]

$$$$
23:0:0
     RDKit          3D

 99107  0  0  1  0  0  0  0  0999 V2000
  -30.0200  -20.8580   19.4690 C   0  0  0  0  0  0  0  0  0  0  0  0
  -29.2090  -21.7500   20.0770 N   0  0  0  0  0  0  0  0  0  0  0  0
  -30.5310  -21.1030   18.3740 O   0  0  0  0  0  0  0  0  0  0  0  0
  -28.8110  -21.5000   20.9710 H   0  0  0  0  0  0  0  0  0  0  0  0
  -30.7090  -14.6060   20.3250 C   0  0  0  0  0  0  0  0  0  0  0  0
  -30.4230  -12.4310   19.1890 C   0  0  0  0  0  2  0  0  0  0  0  0
  -29.4610  -12.6390   17.9990 C   0  0  0  0  0  2  0  0  0  0  0  0
  -27.9960  -12.4790   18.4540 C   0  0  0  0  0  2  0  0  0  0  0  0
  -27.6690  -13.2940   19.7360 C   0  0  0  0  0  3  0  0  0  0  0  0
  -28.7510  -13.0950   20.8220 C   0  0  0  0  0  2  0  0  0  0  0  0
  -30.0550  -13.4130   20.2220 N   0  0  0  0  0  0  0  0  0  0  0  0
  -31.8780  -14.7440   19.9580 O   0  0  0  0  0  0  0  0  0  0  0  0
  -30.3000  -19.5320   20.1030 C   0  0  0  0  0  0  0  0  0  0  0  0
  -31.4070  -19.0090   20.7500 C   0  0  0  0  0  0  0  0  0  0  0  0
  -30.2180  -17.0680   20.5040 C   0  0  0  0  0  0  0  0  0  0  0  0
  -31.3370  -17.6280   20.9880 N   0  0  0  0  0  0  0  0  0  0  0  0
  -29.9180  -15.6690   20.6080 N   0  0  0  0  0  0  0  0  0  0  0  0
  -29.1170  -18.2630   19.8030 S   0  0  0  0  0  0  0  0  0  0  0  0
  -28.9400  -15.4470   20.7030 H   0  0  0  0  0  0  0  0  0  0  0  0
  -25.2800  -13.8640   20.4960 C   0  0  0  0  0  0  0  0  0  0  0  0
  -24.2250  -13.0760   20.8680 C   0  0  0  0  0  0  0  0  0  0  0  0
  -24.6980  -11.7290   20.8100 C   0  0  0  0  0  0  0  0  0  0  0  0
  -26.3290  -12.9970   20.2370 N   0  0  0  0  0  0  0  0  0  0  0  0
  -25.9850  -11.7070   20.4840 N   0  0  0  0  0  0  0  0  0  0  0  0
  -23.9860  -10.4590   20.9900 C   0  0  0  0  0  0  0  0  0  0  0  0
  -24.3950   -9.5110   21.9540 C   0  0  0  0  0  3  0  0  0  0  0  0
  -23.6830   -8.3050   22.1190 C   0  0  0  0  0  3  0  0  0  0  0  0
  -22.5470   -8.0350   21.3170 C   0  0  0  0  0  0  0  0  0  0  0  0
  -22.1580   -8.9710   20.3430 C   0  0  0  0  0  3  0  0  0  0  0  0
  -22.8720  -10.1700   20.1770 C   0  0  0  0  0  3  0  0  0  0  0  0
  -21.8080   -6.8790   21.3920 O   0  0  0  0  0  0  0  0  0  0  0  0
  -21.6830   -6.1770   22.5640 C   0  0  0  0  0  0  0  0  0  0  0  0
  -21.0650   -6.7360   23.7040 C   0  0  0  0  0  3  0  0  0  0  0  0
  -20.8940   -5.9560   24.8650 C   0  0  0  0  0  3  0  0  0  0  0  0
  -21.3330   -4.6200   24.8880 C   0  0  0  0  0  0  0  0  0  0  0  0
  -21.9440   -4.0600   23.7520 C   0  0  0  0  0  3  0  0  0  0  0  0
  -22.1170   -4.8370   22.5930 C   0  0  0  0  0  0  0  0  0  0  0  0
  -22.6870   -4.2850   21.4940 F   0  0  0  0  0  0  0  0  0  0  0  0
  -21.1630   -3.8680   26.0000 F   0  0  0  0  0  0  0  0  0  0  0  0
  -22.8260  -13.5360   21.1640 C   0  0  0  0  0  0  0  0  0  0  0  0
  -22.1080  -12.8080   22.0120 N   0  0  0  0  0  0  0  0  0  0  0  0
  -22.3780  -14.5740   20.6790 O   0  0  0  0  0  0  0  0  0  0  0  0
  -22.4830  -11.9670   22.4240 H   0  0  0  0  0  0  0  0  0  0  0  0
  -21.1690  -13.0960   22.2510 H   0  0  0  0  0  0  0  0  0  0  0  0
  -25.4310  -15.2390   20.3340 N   0  0  0  0  0  0  0  0  0  0  0  0
  -24.6580  -15.8820   20.4640 H   0  0  0  0  0  0  0  0  0  0  0  0
  -26.2530  -15.6860   19.9480 H   0  0  0  0  0  0  0  0  0  0  0  0
  -32.5560  -19.6910   21.1600 N   0  0  0  0  0  0  0  0  0  0  0  0
  -32.7370  -20.6490   20.8750 H   0  0  0  0  0  0  0  0  0  0  0  0
  -33.3670  -19.1820   21.4950 H   0  0  0  0  0  0  0  0  0  0  0  0
  -28.6600  -22.9770   19.4340 C   0  0  0  0  0  3  0  0  0  0  0  0
  -27.1200  -22.9030   19.4530 C   0  0  0  0  0  0  0  0  0  0  0  0
  -26.4870  -22.5720   20.4600 O   0  0  0  0  0  0  0  0  0  0  0  0
  -24.8780  -23.5300   18.3310 C   0  0  0  0  0  1  0  0  0  0  0  0
  -26.3770  -23.2180   18.1450 C   0  0  0  0  0  2  0  0  0  0  0  0
  -29.2760  -24.3130   19.9910 C   0  0  0  0  0  0  0  0  0  0  0  0
  -30.4720  -24.5720   19.8150 O   0  0  0  0  0  0  0  0  0  0  0  0
  -28.4260  -25.3350   20.7970 C   0  0  0  0  0  2  0  0  0  0  0  0
  -28.6340  -26.7180   20.3820 O   0  0  0  0  0  0  0  0  0  0  0  0
  -24.6410  -31.9410   23.2340 C   0  0  0  0  0  0  0  0  0  0  0  0
  -27.4840  -27.4890   20.3090 C   0  0  0  0  0  0  0  0  0  0  0  0
  -23.5330  -30.4980   21.5610 C   0  0  0  0  0  3  0  0  0  0  0  0
  -25.0760  -28.9860   20.2060 C   0  0  0  0  0  0  0  0  0  0  0  0
  -26.0640  -30.8990   21.4690 C   0  0  0  0  0  2  0  0  0  0  0  0
  -26.2030  -29.5240   20.8400 C   0  0  0  0  0  0  0  0  0  0  0  0
  -27.4120  -28.7850   20.8880 C   0  0  0  0  0  3  0  0  0  0  0  0
  -26.3420  -26.9920   19.6440 C   0  0  0  0  0  3  0  0  0  0  0  0
  -25.1420  -27.7190   19.6060 C   0  0  0  0  0  3  0  0  0  0  0  0
  -23.8170  -29.8210   20.1960 C   0  0  0  0  0  2  0  0  0  0  0  0
  -24.7610  -31.1280   22.1460 N   0  0  0  0  0  0  0  0  0  0  0  0
  -23.5320  -32.1980   23.7230 O   0  0  0  0  0  0  0  0  0  0  0  0
  -22.8660  -29.4680   22.5000 C   0  0  0  0  0  0  0  0  0  0  0  0
  -21.5490  -29.2690   22.3310 N   0  0  0  0  0  0  0  0  0  0  0  0
  -23.5300  -28.8530   23.3370 O   0  0  0  0  0  0  0  0  0  0  0  0
  -21.0720  -29.8200   21.6300 H   0  0  0  0  0  0  0  0  0  0  0  0
  -18.1560  -28.1180   22.8130 C   0  0  0  0  0  0  0  0  0  0  0  0
  -20.7190  -28.3220   23.0780 C   0  0  0  0  0  3  0  0  0  0  0  0
  -20.7930  -26.9080   22.4590 C   0  0  0  0  0  2  0  0  0  0  0  0
  -19.6790  -26.6350   21.4420 C   0  0  0  0  0  2  0  0  0  0  0  0
  -18.3030  -26.7850   22.0970 C   0  0  0  0  0  2  0  0  0  0  0  0
  -19.2910  -28.8470   23.2600 C   0  0  0  0  0  0  0  0  0  0  0  0
  -19.1000  -30.0940   23.8890 C   0  0  0  0  0  3  0  0  0  0  0  0
  -17.8060  -30.6170   24.0770 C   0  0  0  0  0  3  0  0  0  0  0  0
  -16.6850  -29.8860   23.6460 C   0  0  0  0  0  3  0  0  0  0  0  0
  -16.8610  -28.6370   23.0240 C   0  0  0  0  0  3  0  0  0  0  0  0
  -25.8860  -32.6050   23.8980 C   0  0  0  0  0  3  0  0  0  0  0  0
  -25.5310  -33.9960   24.2100 N   0  0  0  0  0  0  0  0  0  0  0  0
  -25.8620  -35.0530   23.4570 C   0  0  0  0  0  0  0  0  0  0  0  0
  -26.5700  -34.9640   22.4510 O   0  0  0  0  0  0  0  0  0  0  0  0
  -24.9040  -34.1380   24.9880 H   0  0  0  0  0  0  0  0  0  0  0  0
  -24.1150  -36.8090   23.0120 C   0  0  0  0  0  1  0  0  0  0  0  0
  -25.3180  -36.4280   23.8910 C   0  0  0  0  0  3  0  0  0  0  0  0
  -27.3760  -37.3600   24.8510 C   0  0  0  0  0  1  0  0  0  0  0  0
  -26.3300  -37.5060   23.8430 N   0  0  0  0  0  0  0  0  0  0  0  0
  -25.8920  -38.4150   23.9720 H   0  0  0  0  0  0  0  0  0  0  0  0
  -26.3770  -31.8510   25.1950 C   0  0  1  0  0  0  0  0  0  0  0  0
  -25.2470  -31.5720   26.2110 C   0  0  0  0  0  1  0  0  0  0  0  0
  -27.0320  -30.4990   24.8290 C   0  0  0  0  0  1  0  0  0  0  0  0
  -27.4650  -32.6880   25.9090 C   0  0  0  0  0  1  0  0  0  0  0  0
  1  2  1  0
  1 13  1  0
  2  4  1  0
  3  1  2  0
  5 17  1  0
  6 11  1  0
  7  8  1  0
  7  6  1  0
  9  8  1  0
  9 23  1  0
  9 10  1  0
 11  5  1  0
 11 10  1  0
 12  5  2  0
 13 14  2  0
 14 16  1  0
 14 48  1  0
 15 17  1  0
 15 16  2  0
 17 19  1  0
 18 13  1  0
 18 15  1  0
 20 21  2  0
 21 40  1  0
 22 21  1  0
 22 25  1  0
 23 24  1  0
 23 20  1  0
 24 22  2  0
 25 26  1  0
 26 27  2  0
 28 31  1  0
 28 27  1  0
 29 28  2  0
 30 29  1  0
 30 25  2  0
 31 32  1  0
 32 37  2  0
 32 33  1  0
 33 34  2  0
 34 35  1  0
 35 39  1  0
 36 35  2  0
 37 36  1  0
 38 37  1  0
 40 41  1  0
 41 44  1  0
 41 43  1  0
 42 40  2  0
 45 46  1  0
 45 20  1  0
 47 45  1  0
 48 50  1  0
 49 48  1  0
 51 52  1  0
 51 56  1  0
 51  2  1  0
 52 53  2  0
 55 54  1  0
 55 52  1  0
 56 58  1  0
 57 56  2  0
 59 58  1  0
 60 71  2  0
 61 59  1  0
 61 66  1  0
 62 70  1  0
 62 72  1  0
 63 65  1  0
 64 70  1  0
 65 66  2  0
 65 64  1  0
 67 61  2  0
 68 67  1  0
 68 63  2  0
 69 63  1  0
 69 62  1  0
 70 60  1  0
 72 74  2  0
 73 72  1  0
 75 73  1  0
 76 85  2  0
 76 81  1  0
 77 73  1  0
 77 81  1  0
 78 77  1  0
 79 80  1  0
 79 78  1  0
 80 76  1  0
 81 82  2  0
 82 83  1  0
 84 83  2  0
 85 84  1  0
 86 60  1  0
 86 87  1  0
 86 96  1  0
 87 90  1  0
 88 92  1  0
 88 87  1  0
 89 88  2  0
 92 91  1  0
 94 92  1  0
 94 95  1  0
 94 93  1  0
 96 99  1  1
 96 97  1  0
 98 96  1  0
M  ISO  4   5 100  17 100  58 101  59 101
M  END
>  <TORSDO>  (24) 
F 22

>  <SCORE>  (24) 
-13.571

>  <name>  (24) 
23

>  <ligand_id>  (24) 
23

>  <original_smiles>  (24) 
[H]c1c([H])c([H])c2c(c1[H])C([H])([H])C([H])([H])C([H])([H])C2([H])N([H])C(=O)C1([H])N(C(=O)C([H])(N([H])C(=O)C([H])(N([H])C([H])([H])[H])C([H])([H])[H])C(C([H])([H])[H])(C([H])([H])[H])C([H])([H])[H])C([H])([H])c2c([H])c(OC([H])([H])C(=O)C([H])(C(=O)C([H])([H])C([H])([H])[H])N([H])C(=O)c3sc(N([H])C(=O)N4C([H])([H])C([H])([H])C([H])([H])C([H])(n5nc(-c6c([H])c([H])c(Oc7c([H])c([H])c(F)c([H])c7F)c([H])c6[H])c(C(=O)N([H])[H])c5N([H])[H])C4([H])[H])nc3N([H])[H])c([H])c([H])c2C1([H])[H]

>  <smiles>  (24) 
[H]c1c([H])c([H])c2c(c1[H])C([H])([H])C([H])([H])C([H])([H])C2([H])N([H])C(=O)C1([H])N(C(=O)C([H])(N([H])C(=O)C([H])(N([H])C([H])([H])[H])C([H])([H])[H])C(C([H])([H])[H])(C([H])([H])[H])C([H])([H])[H])C([H])([H])c2c([H])c(OC([H])([H])C(=O)C([H])(C(=O)C([H])([H])C([H])([H])[H])N([H])C(=O)c3sc(N([H])C(=O)N4C([H])([H])C([H])([H])C([H])([H])C([H])(n5nc(-c6c([H])c([H])c(Oc7c([H])c([H])c(F)c([H])c7F)c([H])c6[H])c(C(=O)N([H])[H])c5N([H])[H])C4([H])[H])nc3N([H])[H])c([H])c([H])c2C1([H])[H]

$$$$
24:0:0
     RDKit          3D

 95103  0  0  1  0  0  0  0  0999 V2000
  -28.6770  -21.2660   19.7060 C   0  0  0  0  0  0  0  0  0  0  0  0
  -28.3370  -23.7710   19.8720 C   0  0  0  0  0  0  0  0  0  0  0  0
  -28.7710  -22.5150   20.3220 N   0  0  0  0  0  0  0  0  0  0  0  0
  -28.0510  -21.1500   18.6460 O   0  0  0  0  0  0  0  0  0  0  0  0
  -27.9080  -23.9510   18.7270 O   0  0  0  0  0  0  0  0  0  0  0  0
  -29.1780  -22.5080   21.2440 H   0  0  0  0  0  0  0  0  0  0  0  0
  -30.5330  -14.8050   20.3930 C   0  0  0  0  0  0  0  0  0  0  0  0
  -30.4100  -12.5160   19.3800 C   0  0  0  0  0  2  0  0  0  0  0  0
  -29.4790  -12.5690   18.1470 C   0  0  0  0  0  2  0  0  0  0  0  0
  -28.0050  -12.3850   18.5590 C   0  0  0  0  0  2  0  0  0  0  0  0
  -27.6080  -13.2770   19.7650 C   0  0  0  0  0  3  0  0  0  0  0  0
  -28.6520  -13.1830   20.9000 C   0  0  0  0  0  2  0  0  0  0  0  0
  -29.9540  -13.5560   20.3280 N   0  0  0  0  0  0  0  0  0  0  0  0
  -31.7250  -14.9480   20.1010 O   0  0  0  0  0  0  0  0  0  0  0  0
  -29.2890  -19.9290   20.2510 C   0  0  0  0  0  0  0  0  0  0  0  0
  -30.3990  -19.5430   21.0010 C   0  0  0  0  0  0  0  0  0  0  0  0
  -29.7500  -17.3510   20.4670 C   0  0  0  0  0  0  0  0  0  0  0  0
  -30.6290  -18.1360   21.1220 N   0  0  0  0  0  0  0  0  0  0  0  0
  -29.6580  -15.8710   20.5600 N   0  0  0  0  0  0  0  0  0  0  0  0
  -28.5320  -18.4070   19.6700 S   0  0  0  0  0  0  0  0  0  0  0  0
  -28.7090  -15.5460   20.6370 H   0  0  0  0  0  0  0  0  0  0  0  0
  -25.2070  -13.8720   20.4550 C   0  0  0  0  0  0  0  0  0  0  0  0
  -24.1390  -13.0980   20.8200 C   0  0  0  0  0  0  0  0  0  0  0  0
  -24.6080  -11.7490   20.8090 C   0  0  0  0  0  0  0  0  0  0  0  0
  -26.2570  -12.9930   20.2400 N   0  0  0  0  0  0  0  0  0  0  0  0
  -25.9020  -11.7130   20.5180 N   0  0  0  0  0  0  0  0  0  0  0  0
  -23.8850  -10.4860   21.0020 C   0  0  0  0  0  0  0  0  0  0  0  0
  -24.3030   -9.5320   21.9560 C   0  0  0  0  0  3  0  0  0  0  0  0
  -23.5800   -8.3340   22.1340 C   0  0  0  0  0  3  0  0  0  0  0  0
  -22.4230   -8.0810   21.3600 C   0  0  0  0  0  0  0  0  0  0  0  0
  -22.0240   -9.0220   20.3960 C   0  0  0  0  0  3  0  0  0  0  0  0
  -22.7490  -10.2120   20.2140 C   0  0  0  0  0  3  0  0  0  0  0  0
  -21.6720   -6.9330   21.4470 O   0  0  0  0  0  0  0  0  0  0  0  0
  -21.5980   -6.2080   22.6090 C   0  0  0  0  0  0  0  0  0  0  0  0
  -21.1270   -6.7760   23.8120 C   0  0  0  0  0  3  0  0  0  0  0  0
  -21.0000   -5.9760   24.9660 C   0  0  0  0  0  3  0  0  0  0  0  0
  -21.3350   -4.6110   24.9170 C   0  0  0  0  0  0  0  0  0  0  0  0
  -21.8010   -4.0420   23.7180 C   0  0  0  0  0  3  0  0  0  0  0  0
  -21.9290   -4.8370   22.5670 C   0  0  0  0  0  0  0  0  0  0  0  0
  -22.3570   -4.2810   21.4080 F   0  0  0  0  0  0  0  0  0  0  0  0
  -21.2070   -3.8400   26.0220 F   0  0  0  0  0  0  0  0  0  0  0  0
  -22.7370  -13.5740   21.0640 C   0  0  0  0  0  0  0  0  0  0  0  0
  -21.9950  -12.8840   21.9210 N   0  0  0  0  0  0  0  0  0  0  0  0
  -22.3060  -14.5940   20.5270 O   0  0  0  0  0  0  0  0  0  0  0  0
  -22.3580  -12.0610   22.3790 H   0  0  0  0  0  0  0  0  0  0  0  0
  -21.0540  -13.1860   22.1270 H   0  0  0  0  0  0  0  0  0  0  0  0
  -25.3670  -15.2410   20.2640 N   0  0  0  0  0  0  0  0  0  0  0  0
  -24.5800  -15.8780   20.3410 H   0  0  0  0  0  0  0  0  0  0  0  0
  -26.1850  -15.6780   19.8600 H   0  0  0  0  0  0  0  0  0  0  0  0
  -31.3090  -20.3970   21.6300 N   0  0  0  0  0  0  0  0  0  0  0  0
  -31.3740  -21.3730   21.3610 H   0  0  0  0  0  0  0  0  0  0  0  0
  -32.1800  -20.0150   21.9860 H   0  0  0  0  0  0  0  0  0  0  0  0
  -27.3240  -24.9310   21.9500 C   0  0  0  0  0  1  0  0  0  0  0  0
  -28.3600  -25.0670   20.8180 C   0  0  0  0  0  3  0  0  0  0  0  0
  -28.3550  -26.4450   20.1870 O   0  0  0  0  0  0  0  0  0  0  0  0
  -24.6160  -31.8830   23.2430 C   0  0  0  0  0  0  0  0  0  0  0  0
  -27.2310  -27.2980   20.1970 C   0  0  0  0  0  0  0  0  0  0  0  0
  -23.4150  -30.4820   21.6010 C   0  0  0  0  0  3  0  0  0  0  0  0
  -24.8700  -28.9290   20.1730 C   0  0  0  0  0  0  0  0  0  0  0  0
  -25.9550  -30.8010   21.4180 C   0  0  0  0  0  2  0  0  0  0  0  0
  -26.0380  -29.4180   20.7720 C   0  0  0  0  0  0  0  0  0  0  0  0
  -27.2240  -28.6170   20.7660 C   0  0  0  0  0  3  0  0  0  0  0  0
  -26.0420  -26.8690   19.5740 C   0  0  0  0  0  3  0  0  0  0  0  0
  -24.8760  -27.6630   19.5630 C   0  0  0  0  0  3  0  0  0  0  0  0
  -23.6320  -29.8060   20.2190 C   0  0  0  0  0  2  0  0  0  0  0  0
  -24.6810  -31.0750   22.1440 N   0  0  0  0  0  0  0  0  0  0  0  0
  -23.5310  -32.1560   23.7790 O   0  0  0  0  0  0  0  0  0  0  0  0
  -22.7560  -29.4650   22.5610 C   0  0  0  0  0  0  0  0  0  0  0  0
  -21.4290  -29.2870   22.4390 N   0  0  0  0  0  0  0  0  0  0  0  0
  -23.4360  -28.8370   23.3770 O   0  0  0  0  0  0  0  0  0  0  0  0
  -20.9390  -29.8460   21.7530 H   0  0  0  0  0  0  0  0  0  0  0  0
  -18.0540  -28.0870   22.9480 C   0  0  0  0  0  0  0  0  0  0  0  0
  -20.6130  -28.3470   23.2090 C   0  0  0  0  0  3  0  0  0  0  0  0
  -20.7140  -26.9180   22.6270 C   0  0  0  0  0  2  0  0  0  0  0  0
  -19.6080  -26.5990   21.6150 C   0  0  0  0  0  2  0  0  0  0  0  0
  -18.2280  -26.7400   22.2650 C   0  0  0  0  0  2  0  0  0  0  0  0
  -19.1730  -28.8480   23.3750 C   0  0  0  0  0  0  0  0  0  0  0  0
  -18.9540  -30.1070   23.9730 C   0  0  0  0  0  3  0  0  0  0  0  0
  -17.6500  -30.6050   24.1500 C   0  0  0  0  0  3  0  0  0  0  0  0
  -16.5450  -29.8420   23.7350 C   0  0  0  0  0  3  0  0  0  0  0  0
  -16.7470  -28.5850   23.1390 C   0  0  0  0  0  3  0  0  0  0  0  0
  -25.8960  -32.5170   23.8680 C   0  0  0  0  0  3  0  0  0  0  0  0
  -25.5870  -33.9180   24.1890 N   0  0  0  0  0  0  0  0  0  0  0  0
  -25.9210  -34.9680   23.4260 C   0  0  0  0  0  0  0  0  0  0  0  0
  -26.5910  -34.8590   22.3950 O   0  0  0  0  0  0  0  0  0  0  0  0
  -24.9940  -34.0790   24.9910 H   0  0  0  0  0  0  0  0  0  0  0  0
  -24.1960  -36.7640   23.0600 C   0  0  0  0  0  1  0  0  0  0  0  0
  -25.4350  -36.3600   23.8750 C   0  0  0  0  0  3  0  0  0  0  0  0
  -27.5680  -37.2470   24.7100 C   0  0  0  0  0  1  0  0  0  0  0  0
  -26.4690  -37.4110   23.7590 N   0  0  0  0  0  0  0  0  0  0  0  0
  -26.0640  -38.3330   23.8980 H   0  0  0  0  0  0  0  0  0  0  0  0
  -26.4040  -31.7560   25.1540 C   0  0  1  0  0  0  0  0  0  0  0  0
  -25.3050  -31.5320   26.2190 C   0  0  0  0  0  1  0  0  0  0  0  0
  -26.9850  -30.3730   24.7790 C   0  0  0  0  0  1  0  0  0  0  0  0
  -27.5530  -32.5520   25.8150 C   0  0  0  0  0  1  0  0  0  0  0  0
  1 15  1  0
  1  3  1  0
  2  3  1  0
  2 54  1  0
  3  6  1  0
  4  1  2  0
  5  2  2  0
  7 19  1  0
  8 13  1  0
  9 10  1  0
  9  8  1  0
 11 10  1  0
 11 25  1  0
 11 12  1  0
 13  7  1  0
 13 12  1  0
 14  7  2  0
 15 16  2  0
 16 18  1  0
 16 50  1  0
 17 19  1  0
 17 18  2  0
 19 21  1  0
 20 15  1  0
 20 17  1  0
 22 23  2  0
 23 42  1  0
 24 23  1  0
 24 27  1  0
 25 22  1  0
 25 26  1  0
 26 24  2  0
 27 28  1  0
 28 29  2  0
 30 33  1  0
 30 29  1  0
 31 30  2  0
 32 31  1  0
 32 27  2  0
 33 34  1  0
 34 35  1  0
 35 36  2  0
 37 36  1  0
 37 41  1  0
 38 37  2  0
 39 34  2  0
 39 38  1  0
 40 39  1  0
 42 43  1  0
 43 46  1  0
 43 45  1  0
 44 42  2  0
 47 48  1  0
 47 22  1  0
 49 47  1  0
 50 52  1  0
 51 50  1  0
 54 53  1  0
 55 57  1  0
 55 54  1  0
 56 67  2  0
 57 62  1  0
 58 66  1  0
 58 68  1  0
 59 65  1  0
 59 61  1  0
 60 66  1  0
 61 60  1  0
 62 61  2  0
 63 57  2  0
 64 63  1  0
 64 59  2  0
 65 58  1  0
 66 56  1  0
 68 70  2  0
 69 68  1  0
 71 69  1  0
 72 81  2  0
 72 77  1  0
 73 69  1  0
 73 77  1  0
 74 73  1  0
 75 76  1  0
 75 74  1  0
 76 72  1  0
 77 78  2  0
 78 79  1  0
 80 79  2  0
 81 80  1  0
 82 56  1  0
 82 83  1  0
 82 92  1  0
 83 86  1  0
 84 88  1  0
 84 83  1  0
 85 84  2  0
 88 87  1  0
 90 88  1  0
 90 91  1  0
 90 89  1  0
 92 95  1  1
 92 93  1  0
 94 92  1  0
M  ISO  4   7 100  19 100  54 101  55 101
M  END
>  <TORSDO>  (25) 
F 18

>  <SCORE>  (25) 
-15.062

>  <name>  (25) 
24

>  <ligand_id>  (25) 
24

>  <original_smiles>  (25) 
[H]c1c([H])c([H])c2c(c1[H])C([H])([H])C([H])([H])C([H])([H])C2([H])N([H])C(=O)C1([H])N(C(=O)C([H])(N([H])C(=O)C([H])(N([H])C([H])([H])[H])C([H])([H])[H])C(C([H])([H])[H])(C([H])([H])[H])C([H])([H])[H])C([H])([H])c2c([H])c(OC([H])(C(=O)N([H])C(=O)c3sc(N([H])C(=O)N4C([H])([H])C([H])([H])C([H])([H])C([H])(n5nc(-c6c([H])c([H])c(Oc7c([H])c([H])c(F)c([H])c7F)c([H])c6[H])c(C(=O)N([H])[H])c5N([H])[H])C4([H])[H])nc3N([H])[H])C([H])([H])[H])c([H])c([H])c2C1([H])[H]

>  <smiles>  (25) 
[H]c1c([H])c([H])c2c(c1[H])C([H])([H])C([H])([H])C([H])([H])C2([H])N([H])C(=O)C1([H])N(C(=O)C([H])(N([H])C(=O)C([H])(N([H])C([H])([H])[H])C([H])([H])[H])C(C([H])([H])[H])(C([H])([H])[H])C([H])([H])[H])C([H])([H])c2c([H])c(OC([H])(C(=O)N([H])C(=O)c3sc(N([H])C(=O)N4C([H])([H])C([H])([H])C([H])([H])C([H])(n5nc(-c6c([H])c([H])c(Oc7c([H])c([H])c(F)c([H])c7F)c([H])c6[H])c(C(=O)N([H])[H])c5N([H])[H])C4([H])[H])nc3N([H])[H])C([H])([H])[H])c([H])c([H])c2C1([H])[H]

$$$$
25:0:0
     RDKit          3D

 91 99  0  0  1  0  0  0  0  0999 V2000
  -29.0650  -21.1290   20.2320 C   0  0  0  0  0  0  0  0  0  0  0  0
  -28.0040  -21.1940   19.6040 O   0  0  0  0  0  0  0  0  0  0  0  0
  -30.6500  -14.6800   20.3440 C   0  0  0  0  0  0  0  0  0  0  0  0
  -30.3910  -12.4600   19.2440 C   0  0  0  0  0  2  0  0  0  0  0  0
  -29.4290  -12.6110   18.0390 C   0  0  0  0  0  2  0  0  0  0  0  0
  -27.9640  -12.4380   18.4890 C   0  0  0  0  0  2  0  0  0  0  0  0
  -27.6320  -13.2860   19.7470 C   0  0  0  0  0  3  0  0  0  0  0  0
  -28.7080  -13.1060   20.8470 C   0  0  0  0  0  2  0  0  0  0  0  0
  -30.0100  -13.4620   20.2590 N   0  0  0  0  0  0  0  0  0  0  0  0
  -31.7710  -14.8400   19.8580 O   0  0  0  0  0  0  0  0  0  0  0  0
  -29.6710  -19.7350   20.5010 C   0  0  0  0  0  0  0  0  0  0  0  0
  -30.9580  -19.2910   20.7820 C   0  0  0  0  0  0  0  0  0  0  0  0
  -30.0120  -17.1660   20.7080 C   0  0  0  0  0  0  0  0  0  0  0  0
  -32.1710  -20.1330   20.9890 C   0  0  0  0  0  1  0  0  0  0  0  0
  -31.1310  -17.8800   20.8990 N   0  0  0  0  0  0  0  0  0  0  0  0
  -29.9190  -15.7130   20.8740 N   0  0  0  0  0  0  0  0  0  0  0  0
  -28.6360  -18.2750   20.4040 S   0  0  0  0  0  0  0  0  0  0  0  0
  -29.0610  -15.3980   21.2910 H   0  0  0  0  0  0  0  0  0  0  0  0
  -25.2530  -13.8890   20.5160 C   0  0  0  0  0  0  0  0  0  0  0  0
  -24.1890  -13.1140   20.8980 C   0  0  0  0  0  0  0  0  0  0  0  0
  -24.6460  -11.7640   20.8370 C   0  0  0  0  0  0  0  0  0  0  0  0
  -26.2860  -13.0090   20.2480 N   0  0  0  0  0  0  0  0  0  0  0  0
  -25.9270  -11.7220   20.4980 N   0  0  0  0  0  0  0  0  0  0  0  0
  -23.9200  -10.5020   21.0260 C   0  0  0  0  0  0  0  0  0  0  0  0
  -24.3540   -9.5340   21.9580 C   0  0  0  0  0  3  0  0  0  0  0  0
  -23.6300   -8.3350   22.1300 C   0  0  0  0  0  3  0  0  0  0  0  0
  -22.4580   -8.0970   21.3730 C   0  0  0  0  0  0  0  0  0  0  0  0
  -22.0450   -9.0550   20.4310 C   0  0  0  0  0  3  0  0  0  0  0  0
  -22.7710  -10.2460   20.2560 C   0  0  0  0  0  3  0  0  0  0  0  0
  -21.7020   -6.9530   21.4600 O   0  0  0  0  0  0  0  0  0  0  0  0
  -21.6340   -6.2220   22.6190 C   0  0  0  0  0  0  0  0  0  0  0  0
  -21.1520   -6.7770   23.8260 C   0  0  0  0  0  3  0  0  0  0  0  0
  -21.0280   -5.9680   24.9710 C   0  0  0  0  0  3  0  0  0  0  0  0
  -21.3820   -4.6060   24.9160 C   0  0  0  0  0  0  0  0  0  0  0  0
  -21.8630   -4.0520   23.7170 C   0  0  0  0  0  3  0  0  0  0  0  0
  -21.9860   -4.8570   22.5710 C   0  0  0  0  0  0  0  0  0  0  0  0
  -22.4250   -4.3130   21.4110 F   0  0  0  0  0  0  0  0  0  0  0  0
  -21.2590   -3.8280   26.0160 F   0  0  0  0  0  0  0  0  0  0  0  0
  -22.8000  -13.5950   21.2040 C   0  0  0  0  0  0  0  0  0  0  0  0
  -22.0800  -12.8790   22.0650 N   0  0  0  0  0  0  0  0  0  0  0  0
  -22.3590  -14.6340   20.7170 O   0  0  0  0  0  0  0  0  0  0  0  0
  -22.4470  -12.0390   22.4850 H   0  0  0  0  0  0  0  0  0  0  0  0
  -21.1460  -13.1800   22.3030 H   0  0  0  0  0  0  0  0  0  0  0  0
  -25.4180  -15.2610   20.3510 N   0  0  0  0  0  0  0  0  0  0  0  0
  -24.6560  -15.9170   20.4760 H   0  0  0  0  0  0  0  0  0  0  0  0
  -26.2450  -15.6930   19.9600 H   0  0  0  0  0  0  0  0  0  0  0  0
  -29.6740  -22.5210   20.7290 C   0  0  0  0  0  2  0  0  0  0  0  0
  -29.3600  -23.9820   20.0450 C   0  0  0  0  0  2  0  0  0  0  0  0
  -27.7530  -24.8630   21.9260 C   0  0  0  0  0  1  0  0  0  0  0  0
  -28.1720  -24.9910   20.4510 C   0  0  0  0  0  3  0  0  0  0  0  0
  -28.3710  -26.4680   20.2140 O   0  0  0  0  0  0  0  0  0  0  0  0
  -24.5980  -31.9050   23.2440 C   0  0  0  0  0  0  0  0  0  0  0  0
  -27.2480  -27.3290   20.1920 C   0  0  0  0  0  0  0  0  0  0  0  0
  -23.4030  -30.4810   21.6110 C   0  0  0  0  0  3  0  0  0  0  0  0
  -24.8750  -28.9460   20.1740 C   0  0  0  0  0  0  0  0  0  0  0  0
  -25.9470  -30.8160   21.4330 C   0  0  0  0  0  2  0  0  0  0  0  0
  -26.0390  -29.4380   20.7780 C   0  0  0  0  0  0  0  0  0  0  0  0
  -27.2290  -28.6410   20.7760 C   0  0  0  0  0  3  0  0  0  0  0  0
  -26.0570  -26.9010   19.5680 C   0  0  0  0  0  3  0  0  0  0  0  0
  -24.8900  -27.6880   19.5540 C   0  0  0  0  0  3  0  0  0  0  0  0
  -23.6290  -29.8060   20.2340 C   0  0  0  0  0  2  0  0  0  0  0  0
  -24.6670  -31.0890   22.1500 N   0  0  0  0  0  0  0  0  0  0  0  0
  -23.5110  -32.1700   23.7780 O   0  0  0  0  0  0  0  0  0  0  0  0
  -22.7540  -29.4610   22.5770 C   0  0  0  0  0  0  0  0  0  0  0  0
  -21.4290  -29.2770   22.4620 N   0  0  0  0  0  0  0  0  0  0  0  0
  -23.4390  -28.8410   23.3950 O   0  0  0  0  0  0  0  0  0  0  0  0
  -20.9290  -29.8190   21.7720 H   0  0  0  0  0  0  0  0  0  0  0  0
  -18.0590  -28.0680   22.9610 C   0  0  0  0  0  0  0  0  0  0  0  0
  -20.6160  -28.3390   23.2390 C   0  0  0  0  0  3  0  0  0  0  0  0
  -20.7270  -26.9060   22.6640 C   0  0  0  0  0  2  0  0  0  0  0  0
  -19.6260  -26.5780   21.6510 C   0  0  0  0  0  2  0  0  0  0  0  0
  -18.2440  -26.7180   22.2930 C   0  0  0  0  0  2  0  0  0  0  0  0
  -19.1700  -28.8380   23.3930 C   0  0  0  0  0  0  0  0  0  0  0  0
  -18.9370  -30.1080   23.9690 C   0  0  0  0  0  3  0  0  0  0  0  0
  -17.6260  -30.5940   24.1400 C   0  0  0  0  0  3  0  0  0  0  0  0
  -16.5300  -29.8120   23.7320 C   0  0  0  0  0  3  0  0  0  0  0  0
  -16.7470  -28.5580   23.1370 C   0  0  0  0  0  3  0  0  0  0  0  0
  -25.8780  -32.5480   23.8620 C   0  0  0  0  0  3  0  0  0  0  0  0
  -26.3910  -31.7950   25.1530 C   0  0  1  0  0  0  0  0  0  0  0  0
  -25.2910  -31.5710   26.2160 C   0  0  0  0  0  1  0  0  0  0  0  0
  -26.9830  -30.4160   24.7850 C   0  0  0  0  0  1  0  0  0  0  0  0
  -27.5390  -32.5970   25.8080 C   0  0  0  0  0  1  0  0  0  0  0  0
  -25.5690  -33.9500   24.1730 N   0  0  0  0  0  0  0  0  0  0  0  0
  -25.9010  -34.9930   23.4000 C   0  0  0  0  0  0  0  0  0  0  0  0
  -26.5740  -34.8800   22.3720 O   0  0  0  0  0  0  0  0  0  0  0  0
  -24.9840  -34.1180   24.9770 H   0  0  0  0  0  0  0  0  0  0  0  0
  -24.1840  -36.7850   23.0210 C   0  0  0  0  0  1  0  0  0  0  0  0
  -25.4170  -36.3850   23.8440 C   0  0  0  0  0  3  0  0  0  0  0  0
  -27.5420  -37.2800   24.6910 C   0  0  0  0  0  1  0  0  0  0  0  0
  -26.4530  -37.4370   23.7290 N   0  0  0  0  0  0  0  0  0  0  0  0
  -26.0450  -38.3600   23.8600 H   0  0  0  0  0  0  0  0  0  0  0  0
  1 11  1  0
  1 47  1  0
  2  1  2  0
  3 16  1  0
  4  9  1  0
  5  6  1  0
  5  4  1  0
  7  6  1  0
  7 22  1  0
  7  8  1  0
  9  3  1  0
  9  8  1  0
 10  3  2  0
 11 12  2  0
 12 15  1  0
 12 14  1  0
 13 16  1  0
 13 15  2  0
 16 18  1  0
 17 11  1  0
 17 13  1  0
 19 20  2  0
 20 39  1  0
 21 20  1  0
 21 24  1  0
 22 23  1  0
 22 19  1  0
 23 21  2  0
 24 25  1  0
 25 26  2  0
 27 30  1  0
 27 26  1  0
 28 27  2  0
 29 28  1  0
 29 24  2  0
 30 31  1  0
 31 32  1  0
 32 33  2  0
 34 33  1  0
 34 38  1  0
 35 34  2  0
 36 31  2  0
 36 35  1  0
 37 36  1  0
 39 40  1  0
 40 43  1  0
 40 42  1  0
 41 39  2  0
 44 45  1  0
 44 19  1  0
 46 44  1  0
 48 50  1  0
 48 47  1  0
 50 49  1  0
 51 50  1  0
 52 63  2  0
 53 51  1  0
 53 58  1  0
 54 62  1  0
 54 64  1  0
 55 61  1  0
 55 57  1  0
 56 62  1  0
 57 56  1  0
 58 57  2  0
 59 53  2  0
 60 59  1  0
 60 55  2  0
 61 54  1  0
 62 52  1  0
 64 66  2  0
 65 64  1  0
 67 65  1  0
 68 77  2  0
 68 73  1  0
 69 65  1  0
 69 73  1  0
 70 69  1  0
 71 72  1  0
 71 70  1  0
 72 68  1  0
 73 74  2  0
 74 75  1  0
 76 75  2  0
 77 76  1  0
 78 52  1  0
 78 83  1  0
 78 79  1  0
 79 82  1  1
 79 80  1  0
 81 79  1  0
 83 86  1  0
 84 88  1  0
 84 83  1  0
 85 84  2  0
 88 87  1  0
 90 88  1  0
 90 91  1  0
 90 89  1  0
M  ISO  4   3 100  16 100  50 101  51 101
M  END
>  <TORSDO>  (26) 
F 19

>  <SCORE>  (26) 
-14.468

>  <name>  (26) 
25

>  <ligand_id>  (26) 
25

>  <original_smiles>  (26) 
[H]c1c([H])c([H])c2c(c1[H])C([H])([H])C([H])([H])C([H])([H])C2([H])N([H])C(=O)C1([H])N(C(=O)C([H])(N([H])C(=O)C([H])(N([H])C([H])([H])[H])C([H])([H])[H])C(C([H])([H])[H])(C([H])([H])[H])C([H])([H])[H])C([H])([H])c2c([H])c(OC([H])(C([H])([H])[H])C([H])([H])C([H])([H])C(=O)c3sc(N([H])C(=O)N4C([H])([H])C([H])([H])C([H])([H])C([H])(n5nc(-c6c([H])c([H])c(Oc7c([H])c([H])c(F)c([H])c7F)c([H])c6[H])c(C(=O)N([H])[H])c5N([H])[H])C4([H])[H])nc3C([H])([H])[H])c([H])c([H])c2C1([H])[H]

>  <smiles>  (26) 
[H]c1c([H])c([H])c2c(c1[H])C([H])([H])C([H])([H])C([H])([H])C2([H])N([H])C(=O)C1([H])N(C(=O)C([H])(N([H])C(=O)C([H])(N([H])C([H])([H])[H])C([H])([H])[H])C(C([H])([H])[H])(C([H])([H])[H])C([H])([H])[H])C([H])([H])c2c([H])c(OC([H])(C([H])([H])[H])C([H])([H])C([H])([H])C(=O)c3sc(N([H])C(=O)N4C([H])([H])C([H])([H])C([H])([H])C([H])(n5nc(-c6c([H])c([H])c(Oc7c([H])c([H])c(F)c([H])c7F)c([H])c6[H])c(C(=O)N([H])[H])c5N([H])[H])C4([H])[H])nc3C([H])([H])[H])c([H])c([H])c2C1([H])[H]

$$$$
26:0:0
     RDKit          3D

 95103  0  0  1  0  0  0  0  0999 V2000
  -28.5450  -22.4250   20.5100 C   0  0  0  0  0  0  0  0  0  0  0  0
  -29.5550  -21.5130   20.2500 N   0  0  0  0  0  0  0  0  0  0  0  0
  -27.4580  -22.0490   20.9540 O   0  0  0  0  0  0  0  0  0  0  0  0
  -30.3750  -22.0280   19.9380 H   0  0  0  0  0  0  0  0  0  0  0  0
  -30.5650  -14.8680   20.3050 C   0  0  0  0  0  0  0  0  0  0  0  0
  -30.4070  -12.5720   19.2930 C   0  0  0  0  0  2  0  0  0  0  0  0
  -29.4520  -12.6130   18.0790 C   0  0  0  0  0  2  0  0  0  0  0  0
  -27.9900  -12.4210   18.5270 C   0  0  0  0  0  2  0  0  0  0  0  0
  -27.6180  -13.3080   19.7440 C   0  0  0  0  0  3  0  0  0  0  0  0
  -28.6890  -13.2330   20.8530 C   0  0  0  0  0  2  0  0  0  0  0  0
  -29.9710  -13.6210   20.2480 N   0  0  0  0  0  0  0  0  0  0  0  0
  -31.7470  -14.9770   19.9570 O   0  0  0  0  0  0  0  0  0  0  0  0
  -31.0470  -19.5090   20.2550 C   0  0  0  0  0  0  0  0  0  0  0  0
  -29.7850  -20.1120   20.3570 C   0  0  0  0  0  0  0  0  0  0  0  0
  -29.9180  -17.4570   20.4800 C   0  0  0  0  0  0  0  0  0  0  0  0
  -31.0920  -18.0770   20.3160 N   0  0  0  0  0  0  0  0  0  0  0  0
  -29.7470  -15.9710   20.5680 N   0  0  0  0  0  0  0  0  0  0  0  0
  -28.6300  -18.7460   20.5940 S   0  0  0  0  0  0  0  0  0  0  0  0
  -28.8090  -15.6960   20.8100 H   0  0  0  0  0  0  0  0  0  0  0  0
  -25.2410  -13.8850   20.5120 C   0  0  0  0  0  0  0  0  0  0  0  0
  -24.1830  -13.1050   20.8880 C   0  0  0  0  0  0  0  0  0  0  0  0
  -24.6470  -11.7540   20.8340 C   0  0  0  0  0  0  0  0  0  0  0  0
  -26.2820  -13.0090   20.2490 N   0  0  0  0  0  0  0  0  0  0  0  0
  -25.9340  -11.7230   20.5070 N   0  0  0  0  0  0  0  0  0  0  0  0
  -23.9250  -10.4890   21.0180 C   0  0  0  0  0  0  0  0  0  0  0  0
  -24.3510   -9.5240   21.9590 C   0  0  0  0  0  3  0  0  0  0  0  0
  -23.6280   -8.3250   22.1300 C   0  0  0  0  0  3  0  0  0  0  0  0
  -22.4650   -8.0810   21.3620 C   0  0  0  0  0  0  0  0  0  0  0  0
  -22.0590   -9.0340   20.4110 C   0  0  0  0  0  3  0  0  0  0  0  0
  -22.7830  -10.2250   20.2380 C   0  0  0  0  0  3  0  0  0  0  0  0
  -21.7150   -6.9330   21.4430 O   0  0  0  0  0  0  0  0  0  0  0  0
  -21.6240   -6.2110   22.6060 C   0  0  0  0  0  0  0  0  0  0  0  0
  -21.1140   -6.7770   23.7950 C   0  0  0  0  0  3  0  0  0  0  0  0
  -20.9740   -5.9820   24.9500 C   0  0  0  0  0  3  0  0  0  0  0  0
  -21.3330   -4.6220   24.9160 C   0  0  0  0  0  0  0  0  0  0  0  0
  -21.8350   -4.0550   23.7310 C   0  0  0  0  0  3  0  0  0  0  0  0
  -21.9770   -4.8470   22.5780 C   0  0  0  0  0  0  0  0  0  0  0  0
  -22.4410   -4.2910   21.4340 F   0  0  0  0  0  0  0  0  0  0  0  0
  -21.1910   -3.8540   26.0220 F   0  0  0  0  0  0  0  0  0  0  0  0
  -22.7880  -13.5760   21.1860 C   0  0  0  0  0  0  0  0  0  0  0  0
  -22.0720  -12.8670   22.0520 N   0  0  0  0  0  0  0  0  0  0  0  0
  -22.3430  -14.6080   20.6850 O   0  0  0  0  0  0  0  0  0  0  0  0
  -22.4460  -12.0300   22.4740 H   0  0  0  0  0  0  0  0  0  0  0  0
  -21.1400  -13.1660   22.2960 H   0  0  0  0  0  0  0  0  0  0  0  0
  -25.3980  -15.2570   20.3450 N   0  0  0  0  0  0  0  0  0  0  0  0
  -24.6200  -15.9000   20.4530 H   0  0  0  0  0  0  0  0  0  0  0  0
  -26.2170  -15.6990   19.9500 H   0  0  0  0  0  0  0  0  0  0  0  0
  -32.2910  -20.2790   20.0810 C   0  0  0  0  0  0  0  0  0  0  0  0
  -33.5940  -19.4910   20.1620 C   0  0  0  0  0  1  0  0  0  0  0  0
  -32.3640  -21.4980   19.8860 O   0  0  0  0  0  0  0  0  0  0  0  0
  -28.0330  -24.9730   20.4570 C   0  0  0  0  0  3  0  0  0  0  0  0
  -28.8780  -23.8890   20.2240 C   0  0  0  0  0  0  0  0  0  0  0  0
  -30.0870  -24.1490   19.7030 O   0  0  0  0  0  0  0  0  0  0  0  0
  -30.1320  -25.0890   19.5750 H   0  0  0  0  0  0  0  0  0  0  0  0
  -28.2790  -26.3720   20.2240 O   0  0  0  0  0  0  0  0  0  0  0  0
  -24.6300  -31.9270   23.2340 C   0  0  0  0  0  0  0  0  0  0  0  0
  -27.2040  -27.2970   20.1910 C   0  0  0  0  0  0  0  0  0  0  0  0
  -23.4210  -30.5330   21.5930 C   0  0  0  0  0  3  0  0  0  0  0  0
  -24.8650  -28.9700   20.1640 C   0  0  0  0  0  0  0  0  0  0  0  0
  -25.9670  -30.8220   21.4170 C   0  0  0  0  0  2  0  0  0  0  0  0
  -26.0390  -29.4360   20.7710 C   0  0  0  0  0  0  0  0  0  0  0  0
  -27.2130  -28.6110   20.7750 C   0  0  0  0  0  3  0  0  0  0  0  0
  -26.0120  -26.9080   19.5420 C   0  0  0  0  0  3  0  0  0  0  0  0
  -24.8560  -27.7160   19.5360 C   0  0  0  0  0  3  0  0  0  0  0  0
  -23.6360  -29.8590   20.2130 C   0  0  0  0  0  2  0  0  0  0  0  0
  -24.6910  -31.1140   22.1370 N   0  0  0  0  0  0  0  0  0  0  0  0
  -23.5460  -32.2090   23.7670 O   0  0  0  0  0  0  0  0  0  0  0  0
  -22.7510  -29.5210   22.5550 C   0  0  0  0  0  0  0  0  0  0  0  0
  -21.4240  -29.3470   22.4300 N   0  0  0  0  0  0  0  0  0  0  0  0
  -23.4260  -28.8960   23.3770 O   0  0  0  0  0  0  0  0  0  0  0  0
  -20.9350  -29.9030   21.7420 H   0  0  0  0  0  0  0  0  0  0  0  0
  -18.0440  -28.1640   22.9460 C   0  0  0  0  0  0  0  0  0  0  0  0
  -20.6040  -28.4100   23.2020 C   0  0  0  0  0  3  0  0  0  0  0  0
  -20.6960  -26.9800   22.6220 C   0  0  0  0  0  2  0  0  0  0  0  0
  -19.5870  -26.6670   21.6130 C   0  0  0  0  0  2  0  0  0  0  0  0
  -18.2100  -26.8160   22.2650 C   0  0  0  0  0  2  0  0  0  0  0  0
  -19.1690  -28.9200   23.3720 C   0  0  0  0  0  0  0  0  0  0  0  0
  -18.9570  -30.1810   23.9700 C   0  0  0  0  0  3  0  0  0  0  0  0
  -17.6550  -30.6870   24.1460 C   0  0  0  0  0  3  0  0  0  0  0  0
  -16.5460  -29.9280   23.7340 C   0  0  0  0  0  3  0  0  0  0  0  0
  -16.7400  -28.6690   23.1410 C   0  0  0  0  0  3  0  0  0  0  0  0
  -25.9120  -32.5570   23.8570 C   0  0  0  0  0  3  0  0  0  0  0  0
  -26.4330  -31.7780   25.1280 C   0  0  1  0  0  0  0  0  0  0  0  0
  -25.3400  -31.5340   26.1960 C   0  0  0  0  0  1  0  0  0  0  0  0
  -27.0170  -30.4040   24.7270 C   0  0  0  0  0  1  0  0  0  0  0  0
  -27.5820  -32.5710   25.7920 C   0  0  0  0  0  1  0  0  0  0  0  0
  -25.6020  -33.9530   24.1990 N   0  0  0  0  0  0  0  0  0  0  0  0
  -25.9100  -35.0100   23.4370 C   0  0  0  0  0  0  0  0  0  0  0  0
  -26.5540  -34.9130   22.3880 O   0  0  0  0  0  0  0  0  0  0  0  0
  -25.0290  -34.1030   25.0170 H   0  0  0  0  0  0  0  0  0  0  0  0
  -24.1620  -36.7940   23.1400 C   0  0  0  0  0  1  0  0  0  0  0  0
  -25.4290  -36.3950   23.9140 C   0  0  0  0  0  3  0  0  0  0  0  0
  -27.5780  -37.2950   24.6900 C   0  0  0  0  0  1  0  0  0  0  0  0
  -26.4530  -37.4530   23.7720 N   0  0  0  0  0  0  0  0  0  0  0  0
  -26.0440  -38.3720   23.9210 H   0  0  0  0  0  0  0  0  0  0  0  0
  1  3  2  0
  2 14  1  0
  2  1  1  0
  4  2  1  0
  5 17  1  0
  6 11  1  0
  7  8  1  0
  7  6  1  0
  9  8  1  0
  9 23  1  0
  9 10  1  0
 11  5  1  0
 11 10  1  0
 12  5  2  0
 13 16  1  0
 13 14  2  0
 14 18  1  0
 15 17  1  0
 15 18  1  0
 16 15  2  0
 17 19  1  0
 20 21  2  0
 21 40  1  0
 22 21  1  0
 22 25  1  0
 23 24  1  0
 23 20  1  0
 24 22  2  0
 25 26  1  0
 26 27  2  0
 28 31  1  0
 28 27  1  0
 29 28  2  0
 30 29  1  0
 30 25  2  0
 31 32  1  0
 32 33  1  0
 33 34  2  0
 35 34  1  0
 35 39  1  0
 36 35  2  0
 37 32  2  0
 37 36  1  0
 38 37  1  0
 40 41  1  0
 41 44  1  0
 41 43  1  0
 42 40  2  0
 45 46  1  0
 45 20  1  0
 47 45  1  0
 48 49  1  0
 48 13  1  0
 50 48  2  0
 52 51  2  0
 52  1  1  0
 53 52  1  0
 54 53  1  0
 55 51  1  0
 56 67  2  0
 57 55  1  0
 57 62  1  0
 58 66  1  0
 58 68  1  0
 59 65  1  0
 59 61  1  0
 60 66  1  0
 61 62  2  0
 61 60  1  0
 63 57  2  0
 64 63  1  0
 64 59  2  0
 65 58  1  0
 66 56  1  0
 68 70  2  0
 69 68  1  0
 71 69  1  0
 72 81  2  0
 72 77  1  0
 73 69  1  0
 73 77  1  0
 74 73  1  0
 75 76  1  0
 75 74  1  0
 76 72  1  0
 77 78  2  0
 78 79  1  0
 80 79  2  0
 81 80  1  0
 82 56  1  0
 82 87  1  0
 82 83  1  0
 83 86  1  1
 83 84  1  0
 85 83  1  0
 87 90  1  0
 88 92  1  0
 88 87  1  0
 89 88  2  0
 92 91  1  0
 94 92  1  0
 94 95  1  0
 94 93  1  0
M  ISO  4   5 100  17 100  51 101  55 101
M  END
>  <TORSDO>  (27) 
F 19

>  <SCORE>  (27) 
-14.506

>  <name>  (27) 
26

>  <ligand_id>  (27) 
26

>  <original_smiles>  (27) 
[H]OC(C(=O)N([H])c1sc(N([H])C(=O)N2C([H])([H])C([H])([H])C([H])([H])C([H])(n3nc(-c4c([H])c([H])c(Oc5c([H])c([H])c(F)c([H])c5F)c([H])c4[H])c(C(=O)N([H])[H])c3N([H])[H])C2([H])[H])nc1C(=O)C([H])([H])[H])=C([H])Oc1c([H])c([H])c2c(c1[H])C([H])([H])N(C(=O)C([H])(N([H])C(=O)C([H])(N([H])C([H])([H])[H])C([H])([H])[H])C(C([H])([H])[H])(C([H])([H])[H])C([H])([H])[H])C([H])(C(=O)N([H])C1([H])c3c([H])c([H])c([H])c([H])c3C([H])([H])C([H])([H])C1([H])[H])C2([H])[H]

>  <smiles>  (27) 
[H]OC(C(=O)N([H])c1sc(N([H])C(=O)N2C([H])([H])C([H])([H])C([H])([H])C([H])(n3nc(-c4c([H])c([H])c(Oc5c([H])c([H])c(F)c([H])c5F)c([H])c4[H])c(C(=O)N([H])[H])c3N([H])[H])C2([H])[H])nc1C(=O)C([H])([H])[H])=C([H])Oc1c([H])c([H])c2c(c1[H])C([H])([H])N(C(=O)C([H])(N([H])C(=O)C([H])(N([H])C([H])([H])[H])C([H])([H])[H])C(C([H])([H])[H])(C([H])([H])[H])C([H])([H])[H])C([H])(C(=O)N([H])C1([H])c3c([H])c([H])c([H])c([H])c3C([H])([H])C([H])([H])C1([H])[H])C2([H])[H]

$$$$
27:0:0
     RDKit          3D

 94102  0  0  1  0  0  0  0  0999 V2000
  -29.4590  -18.1530   20.5550 C   0  0  0  0  0  0  0  0  0  0  0  0
  -28.3980  -18.2000   19.6790 C   0  0  0  0  0  0  0  0  0  0  0  0
  -28.9030  -20.4190   20.6040 C   0  0  0  0  0  0  0  0  0  0  0  0
  -29.6930  -19.4460   21.1010 N   0  0  0  0  0  0  0  0  0  0  0  0
  -28.9850  -21.7730   20.9860 N   0  0  0  0  0  0  0  0  0  0  0  0
  -27.9350  -17.1330   18.9810 F   0  0  0  0  0  0  0  0  0  0  0  0
  -27.7140  -19.7980   19.4570 S   0  0  0  0  0  0  0  0  0  0  0  0
  -29.3450  -21.8430   21.9340 H   0  0  0  0  0  0  0  0  0  0  0  0
  -30.6650  -14.5750   20.4330 C   0  0  0  0  0  0  0  0  0  0  0  0
  -30.3670  -12.3700   19.3490 C   0  0  0  0  0  2  0  0  0  0  0  0
  -29.4460  -12.5490   18.1250 C   0  0  0  0  0  2  0  0  0  0  0  0
  -27.9700  -12.4030   18.5480 C   0  0  0  0  0  2  0  0  0  0  0  0
  -27.6130  -13.2590   19.7930 C   0  0  0  0  0  3  0  0  0  0  0  0
  -28.6650  -13.1040   20.9130 C   0  0  0  0  0  2  0  0  0  0  0  0
  -29.9790  -13.3990   20.3310 N   0  0  0  0  0  0  0  0  0  0  0  0
  -31.8530  -14.6320   20.0970 O   0  0  0  0  0  0  0  0  0  0  0  0
  -30.3990  -16.9760   20.7850 C   0  0  0  0  0  0  0  0  0  0  0  0
  -29.9280  -15.7000   20.6680 N   0  0  0  0  0  0  0  0  0  0  0  0
  -31.5750  -17.2270   21.0930 O   0  0  0  0  0  0  0  0  0  0  0  0
  -28.9290  -15.5990   20.6400 H   0  0  0  0  0  0  0  0  0  0  0  0
  -25.2220  -13.8620   20.5090 C   0  0  0  0  0  0  0  0  0  0  0  0
  -24.1530  -13.0910   20.8830 C   0  0  0  0  0  0  0  0  0  0  0  0
  -24.6150  -11.7400   20.8600 C   0  0  0  0  0  0  0  0  0  0  0  0
  -26.2650  -12.9800   20.2780 N   0  0  0  0  0  0  0  0  0  0  0  0
  -25.9060  -11.6990   20.5520 N   0  0  0  0  0  0  0  0  0  0  0  0
  -23.8890  -10.4770   21.0540 C   0  0  0  0  0  0  0  0  0  0  0  0
  -24.3300   -9.5070   21.9810 C   0  0  0  0  0  3  0  0  0  0  0  0
  -23.6030   -8.3110   22.1630 C   0  0  0  0  0  3  0  0  0  0  0  0
  -22.4210   -8.0790   21.4210 C   0  0  0  0  0  0  0  0  0  0  0  0
  -22.0010   -9.0360   20.4820 C   0  0  0  0  0  3  0  0  0  0  0  0
  -22.7290  -10.2230   20.2960 C   0  0  0  0  0  3  0  0  0  0  0  0
  -21.6650   -6.9350   21.5140 O   0  0  0  0  0  0  0  0  0  0  0  0
  -21.6350   -6.1800   22.6570 C   0  0  0  0  0  0  0  0  0  0  0  0
  -21.2450   -6.7250   23.9000 C   0  0  0  0  0  3  0  0  0  0  0  0
  -21.1610   -5.8980   25.0380 C   0  0  0  0  0  3  0  0  0  0  0  0
  -21.4570   -4.5250   24.9330 C   0  0  0  0  0  0  0  0  0  0  0  0
  -21.8390   -3.9800   23.6950 C   0  0  0  0  0  3  0  0  0  0  0  0
  -21.9250   -4.8040   22.5590 C   0  0  0  0  0  0  0  0  0  0  0  0
  -22.2740   -4.2670   21.3640 F   0  0  0  0  0  0  0  0  0  0  0  0
  -21.3690   -3.7280   26.0230 F   0  0  0  0  0  0  0  0  0  0  0  0
  -22.7550  -13.5720   21.1470 C   0  0  0  0  0  0  0  0  0  0  0  0
  -22.0210  -12.8830   22.0110 N   0  0  0  0  0  0  0  0  0  0  0  0
  -22.3200  -14.5950   20.6190 O   0  0  0  0  0  0  0  0  0  0  0  0
  -22.3890  -12.0620   22.4680 H   0  0  0  0  0  0  0  0  0  0  0  0
  -21.0810  -13.1860   22.2220 H   0  0  0  0  0  0  0  0  0  0  0  0
  -25.3820  -15.2320   20.3200 N   0  0  0  0  0  0  0  0  0  0  0  0
  -24.5930  -15.8660   20.4000 H   0  0  0  0  0  0  0  0  0  0  0  0
  -26.1910  -15.6700   19.9000 H   0  0  0  0  0  0  0  0  0  0  0  0
  -29.1500  -22.9520   18.7680 C   0  0  0  0  0  1  0  0  0  0  0  0
  -29.1450  -23.0860   20.3020 C   0  0  0  0  0  3  0  0  0  0  0  0
  -28.1240  -24.2020   20.7230 C   0  0  0  0  0  0  0  0  0  0  0  0
  -26.9130  -23.9690   20.7880 O   0  0  0  0  0  0  0  0  0  0  0  0
  -28.6510  -25.6210   21.1030 C   0  0  0  0  0  2  0  0  0  0  0  0
  -28.4190  -26.6570   20.1180 O   0  0  0  0  0  0  0  0  0  0  0  0
  -24.6020  -31.8830   23.2430 C   0  0  0  0  0  0  0  0  0  0  0  0
  -27.2590  -27.4020   20.2050 C   0  0  0  0  0  0  0  0  0  0  0  0
  -23.4070  -30.4770   21.5960 C   0  0  0  0  0  3  0  0  0  0  0  0
  -24.8680  -28.9250   20.1900 C   0  0  0  0  0  0  0  0  0  0  0  0
  -25.9340  -30.8240   21.4140 C   0  0  0  0  0  2  0  0  0  0  0  0
  -26.0240  -29.4450   20.7890 C   0  0  0  0  0  0  0  0  0  0  0  0
  -27.2250  -28.6910   20.7920 C   0  0  0  0  0  3  0  0  0  0  0  0
  -26.0910  -26.9050   19.5940 C   0  0  0  0  0  3  0  0  0  0  0  0
  -24.8980  -27.6540   19.5870 C   0  0  0  0  0  3  0  0  0  0  0  0
  -23.6270  -29.7910   20.2210 C   0  0  0  0  0  2  0  0  0  0  0  0
  -24.6660  -31.0800   22.1420 N   0  0  0  0  0  0  0  0  0  0  0  0
  -23.5170  -32.1570   23.7750 O   0  0  0  0  0  0  0  0  0  0  0  0
  -22.7490  -29.4610   22.5580 C   0  0  0  0  0  0  0  0  0  0  0  0
  -21.4230  -29.2870   22.4350 N   0  0  0  0  0  0  0  0  0  0  0  0
  -23.4300  -28.8330   23.3730 O   0  0  0  0  0  0  0  0  0  0  0  0
  -20.9360  -29.8540   21.7540 H   0  0  0  0  0  0  0  0  0  0  0  0
  -18.0420  -28.1160   22.9450 C   0  0  0  0  0  0  0  0  0  0  0  0
  -20.6030  -28.3520   23.2030 C   0  0  0  0  0  3  0  0  0  0  0  0
  -20.6880  -26.9220   22.6190 C   0  0  0  0  0  2  0  0  0  0  0  0
  -19.5770  -26.6150   21.6100 C   0  0  0  0  0  2  0  0  0  0  0  0
  -18.2020  -26.7700   22.2630 C   0  0  0  0  0  2  0  0  0  0  0  0
  -19.1690  -28.8670   23.3730 C   0  0  0  0  0  0  0  0  0  0  0  0
  -18.9650  -30.1310   23.9690 C   0  0  0  0  0  3  0  0  0  0  0  0
  -17.6650  -30.6410   24.1450 C   0  0  0  0  0  3  0  0  0  0  0  0
  -16.5520  -29.8880   23.7310 C   0  0  0  0  0  3  0  0  0  0  0  0
  -16.7420  -28.6270   23.1370 C   0  0  0  0  0  3  0  0  0  0  0  0
  -25.8850  -32.5160   23.8690 C   0  0  0  0  0  3  0  0  0  0  0  0
  -26.3980  -31.7440   25.1460 C   0  0  1  0  0  0  0  0  0  0  0  0
  -25.3040  -31.5080   26.2130 C   0  0  0  0  0  1  0  0  0  0  0  0
  -26.9810  -30.3670   24.7510 C   0  0  0  0  0  1  0  0  0  0  0  0
  -27.5490  -32.5370   25.8090 C   0  0  0  0  0  1  0  0  0  0  0  0
  -25.5780  -33.9150   24.1950 N   0  0  0  0  0  0  0  0  0  0  0  0
  -25.9120  -34.9650   23.4330 C   0  0  0  0  0  0  0  0  0  0  0  0
  -26.5850  -34.8590   22.4040 O   0  0  0  0  0  0  0  0  0  0  0  0
  -24.9800  -34.0740   24.9940 H   0  0  0  0  0  0  0  0  0  0  0  0
  -24.1850  -36.7550   23.0660 C   0  0  0  0  0  1  0  0  0  0  0  0
  -25.4230  -36.3530   23.8840 C   0  0  0  0  0  3  0  0  0  0  0  0
  -27.5560  -37.2410   24.7160 C   0  0  0  0  0  1  0  0  0  0  0  0
  -26.4550  -37.4060   23.7710 N   0  0  0  0  0  0  0  0  0  0  0  0
  -26.0480  -38.3280   23.9120 H   0  0  0  0  0  0  0  0  0  0  0  0
  1 17  1  0
  1  4  1  0
  2  1  2  0
  3  5  1  0
  3  4  2  0
  5  8  1  0
  6  2  1  0
  7  2  1  0
  7  3  1  0
  9 18  1  0
 10 15  1  0
 11 12  1  0
 11 10  1  0
 13 12  1  0
 13 24  1  0
 13 14  1  0
 15  9  1  0
 15 14  1  0
 16  9  2  0
 17 19  2  0
 18 17  1  0
 20 18  1  0
 21 22  2  0
 22 41  1  0
 23 22  1  0
 23 26  1  0
 24 21  1  0
 24 25  1  0
 25 23  2  0
 26 27  1  0
 27 28  2  0
 29 32  1  0
 29 28  1  0
 30 29  2  0
 31 30  1  0
 31 26  2  0
 32 33  1  0
 33 34  1  0
 34 35  2  0
 36 35  1  0
 36 40  1  0
 37 36  2  0
 38 33  2  0
 38 37  1  0
 39 38  1  0
 41 42  1  0
 42 45  1  0
 42 44  1  0
 43 41  2  0
 46 47  1  0
 46 21  1  0
 48 46  1  0
 50 49  1  0
 50 51  1  0
 50  5  1  0
 51 52  2  0
 51 53  1  0
 54 56  1  0
 54 53  1  0
 55 66  2  0
 56 61  1  0
 57 65  1  0
 57 67  1  0
 58 64  1  0
 58 60  1  0
 59 65  1  0
 60 61  2  0
 60 59  1  0
 62 56  2  0
 63 62  1  0
 63 58  2  0
 64 57  1  0
 65 55  1  0
 67 69  2  0
 68 67  1  0
 70 68  1  0
 71 80  2  0
 71 76  1  0
 72 68  1  0
 72 76  1  0
 73 72  1  0
 74 75  1  0
 74 73  1  0
 75 71  1  0
 76 77  2  0
 77 78  1  0
 79 78  2  0
 80 79  1  0
 81 55  1  0
 81 86  1  0
 81 82  1  0
 82 85  1  1
 82 83  1  0
 84 82  1  0
 86 89  1  0
 87 91  1  0
 87 86  1  0
 88 87  2  0
 91 90  1  0
 93 91  1  0
 93 94  1  0
 93 92  1  0
M  ISO  4   9 100  18 100  53 101  54 101
M  END
>  <TORSDO>  (28) 
F 19

>  <SCORE>  (28) 
-14.602

>  <name>  (28) 
27

>  <ligand_id>  (28) 
27

>  <original_smiles>  (28) 
[H]c1c([H])c([H])c2c(c1[H])C([H])([H])C([H])([H])C([H])([H])C2([H])N([H])C(=O)C1([H])N(C(=O)C([H])(N([H])C(=O)C([H])(N([H])C([H])([H])[H])C([H])([H])[H])C(C([H])([H])[H])(C([H])([H])[H])C([H])([H])[H])C([H])([H])c2c([H])c(OC([H])([H])C(=O)C([H])(N([H])c3nc(C(=O)N([H])C(=O)N4C([H])([H])C([H])([H])C([H])([H])C([H])(n5nc(-c6c([H])c([H])c(Oc7c([H])c([H])c(F)c([H])c7F)c([H])c6[H])c(C(=O)N([H])[H])c5N([H])[H])C4([H])[H])c(F)s3)C([H])([H])[H])c([H])c([H])c2C1([H])[H]

>  <smiles>  (28) 
[H]c1c([H])c([H])c2c(c1[H])C([H])([H])C([H])([H])C([H])([H])C2([H])N([H])C(=O)C1([H])N(C(=O)C([H])(N([H])C(=O)C([H])(N([H])C([H])([H])[H])C([H])([H])[H])C(C([H])([H])[H])(C([H])([H])[H])C([H])([H])[H])C([H])([H])c2c([H])c(OC([H])([H])C(=O)C([H])(N([H])c3nc(C(=O)N([H])C(=O)N4C([H])([H])C([H])([H])C([H])([H])C([H])(n5nc(-c6c([H])c([H])c(Oc7c([H])c([H])c(F)c([H])c7F)c([H])c6[H])c(C(=O)N([H])[H])c5N([H])[H])C4([H])[H])c(F)s3)C([H])([H])[H])c([H])c([H])c2C1([H])[H]

$$$$
28:0:0
     RDKit          3D

 97105  0  0  1  0  0  0  0  0999 V2000
  -28.5520  -22.3200   20.1010 C   0  0  0  0  0  0  0  0  0  0  0  0
  -29.4390  -21.3020   20.4740 N   0  0  0  0  0  0  0  0  0  0  0  0
  -27.5020  -22.0160   19.5290 O   0  0  0  0  0  0  0  0  0  0  0  0
  -30.1640  -21.6390   21.0910 H   0  0  0  0  0  0  0  0  0  0  0  0
  -30.5850  -14.8740   20.3320 C   0  0  0  0  0  0  0  0  0  0  0  0
  -30.3970  -12.5610   19.3820 C   0  0  0  0  0  2  0  0  0  0  0  0
  -29.4720  -12.5960   18.1440 C   0  0  0  0  0  2  0  0  0  0  0  0
  -28.0020  -12.4100   18.5650 C   0  0  0  0  0  2  0  0  0  0  0  0
  -27.6100  -13.3140   19.7630 C   0  0  0  0  0  3  0  0  0  0  0  0
  -28.6610  -13.2770   20.8960 C   0  0  0  0  0  2  0  0  0  0  0  0
  -29.9560  -13.6390   20.3070 N   0  0  0  0  0  0  0  0  0  0  0  0
  -31.7760  -14.9190   20.0050 O   0  0  0  0  0  0  0  0  0  0  0  0
  -30.5690  -17.4900   18.7060 C   0  0  0  0  0  3  0  0  0  0  0  0
  -30.3370  -19.9250   18.5980 C   0  0  0  0  0  0  0  0  0  0  0  0
  -30.7340  -18.7020   18.0250 C   0  0  0  0  0  0  0  0  0  0  0  0
  -30.0070  -17.4410   19.9920 C   0  0  0  0  0  0  0  0  0  0  0  0
  -29.7110  -19.9390   19.8810 C   0  0  0  0  0  0  0  0  0  0  0  0
  -29.5820  -18.6800   20.5340 N   0  0  0  0  0  0  0  0  0  0  0  0
  -29.8530  -16.0540   20.5660 N   0  0  0  0  0  0  0  0  0  0  0  0
  -31.2990  -18.6680   16.7920 F   0  0  0  0  0  0  0  0  0  0  0  0
  -28.9900  -15.9090   21.0650 H   0  0  0  0  0  0  0  0  0  0  0  0
  -25.2220  -13.8960   20.4860 C   0  0  0  0  0  0  0  0  0  0  0  0
  -24.1560  -13.1200   20.8510 C   0  0  0  0  0  0  0  0  0  0  0  0
  -24.6210  -11.7700   20.8240 C   0  0  0  0  0  0  0  0  0  0  0  0
  -26.2670  -13.0180   20.2510 N   0  0  0  0  0  0  0  0  0  0  0  0
  -25.9130  -11.7340   20.5180 N   0  0  0  0  0  0  0  0  0  0  0  0
  -23.8940  -10.5060   21.0120 C   0  0  0  0  0  0  0  0  0  0  0  0
  -24.3180   -9.5420   21.9520 C   0  0  0  0  0  3  0  0  0  0  0  0
  -23.5900   -8.3460   22.1290 C   0  0  0  0  0  3  0  0  0  0  0  0
  -22.4250   -8.1040   21.3630 C   0  0  0  0  0  0  0  0  0  0  0  0
  -22.0210   -9.0560   20.4110 C   0  0  0  0  0  3  0  0  0  0  0  0
  -22.7490  -10.2450   20.2330 C   0  0  0  0  0  3  0  0  0  0  0  0
  -21.6710   -6.9580   21.4490 O   0  0  0  0  0  0  0  0  0  0  0  0
  -21.6040   -6.2240   22.6060 C   0  0  0  0  0  0  0  0  0  0  0  0
  -21.1420   -6.7830   23.8170 C   0  0  0  0  0  3  0  0  0  0  0  0
  -21.0220   -5.9750   24.9650 C   0  0  0  0  0  3  0  0  0  0  0  0
  -21.3550   -4.6100   24.9040 C   0  0  0  0  0  0  0  0  0  0  0  0
  -21.8100   -4.0490   23.6980 C   0  0  0  0  0  3  0  0  0  0  0  0
  -21.9310   -4.8550   22.5510 C   0  0  0  0  0  0  0  0  0  0  0  0
  -22.3510   -4.3050   21.3860 F   0  0  0  0  0  0  0  0  0  0  0  0
  -21.2330   -3.8310   26.0050 F   0  0  0  0  0  0  0  0  0  0  0  0
  -22.7570  -13.5970   21.1150 C   0  0  0  0  0  0  0  0  0  0  0  0
  -22.0230  -12.8980   21.9740 N   0  0  0  0  0  0  0  0  0  0  0  0
  -22.3240  -14.6250   20.5960 O   0  0  0  0  0  0  0  0  0  0  0  0
  -22.3860  -12.0680   22.4180 H   0  0  0  0  0  0  0  0  0  0  0  0
  -21.0840  -13.2010   22.1930 H   0  0  0  0  0  0  0  0  0  0  0  0
  -25.3830  -15.2670   20.3070 N   0  0  0  0  0  0  0  0  0  0  0  0
  -24.6100  -15.9150   20.4100 H   0  0  0  0  0  0  0  0  0  0  0  0
  -26.2220  -15.7080   19.9540 H   0  0  0  0  0  0  0  0  0  0  0  0
  -30.6230  -21.1360   17.7810 C   0  0  0  0  0  0  0  0  0  0  0  0
  -32.0780  -21.5800   17.7150 C   0  0  0  0  0  1  0  0  0  0  0  0
  -29.7640  -21.7780   17.1720 O   0  0  0  0  0  0  0  0  0  0  0  0
  -28.0670  -24.8620   20.0950 C   0  0  0  0  0  3  0  0  0  0  0  0
  -28.8930  -23.7790   20.4240 C   0  0  0  0  0  0  0  0  0  0  0  0
  -30.0630  -24.0230   21.0290 O   0  0  0  0  0  0  0  0  0  0  0  0
  -30.1250  -24.9630   21.1410 H   0  0  0  0  0  0  0  0  0  0  0  0
  -28.2600  -26.2940   20.2480 O   0  0  0  0  0  0  0  0  0  0  0  0
  -24.6280  -31.8990   23.2490 C   0  0  0  0  0  0  0  0  0  0  0  0
  -27.1860  -27.2400   20.1790 C   0  0  0  0  0  0  0  0  0  0  0  0
  -23.4170  -30.5140   21.6080 C   0  0  0  0  0  3  0  0  0  0  0  0
  -24.8560  -28.9590   20.1670 C   0  0  0  0  0  0  0  0  0  0  0  0
  -25.9690  -30.7850   21.4380 C   0  0  0  0  0  2  0  0  0  0  0  0
  -26.0330  -29.4010   20.7830 C   0  0  0  0  0  0  0  0  0  0  0  0
  -27.1950  -28.5520   20.7850 C   0  0  0  0  0  3  0  0  0  0  0  0
  -25.9890  -26.9040   19.5000 C   0  0  0  0  0  3  0  0  0  0  0  0
  -24.8440  -27.7210   19.5120 C   0  0  0  0  0  3  0  0  0  0  0  0
  -23.6300  -29.8510   20.2230 C   0  0  0  0  0  2  0  0  0  0  0  0
  -24.6900  -31.0870   22.1520 N   0  0  0  0  0  0  0  0  0  0  0  0
  -23.5440  -32.1840   23.7820 O   0  0  0  0  0  0  0  0  0  0  0  0
  -22.7450  -29.4980   22.5640 C   0  0  0  0  0  0  0  0  0  0  0  0
  -21.4190  -29.3170   22.4280 N   0  0  0  0  0  0  0  0  0  0  0  0
  -23.4170  -28.8760   23.3900 O   0  0  0  0  0  0  0  0  0  0  0  0
  -20.9340  -29.8710   21.7360 H   0  0  0  0  0  0  0  0  0  0  0  0
  -18.0430  -28.0990   22.9050 C   0  0  0  0  0  0  0  0  0  0  0  0
  -20.5980  -28.3800   23.1970 C   0  0  0  0  0  3  0  0  0  0  0  0
  -20.7150  -26.9450   22.6330 C   0  0  0  0  0  2  0  0  0  0  0  0
  -19.6250  -26.6080   21.6100 C   0  0  0  0  0  2  0  0  0  0  0  0
  -18.2360  -26.7470   22.2390 C   0  0  0  0  0  2  0  0  0  0  0  0
  -19.1520  -28.8730   23.3410 C   0  0  0  0  0  0  0  0  0  0  0  0
  -18.9170  -30.1370   23.9240 C   0  0  0  0  0  3  0  0  0  0  0  0
  -17.6070  -30.6280   24.0760 C   0  0  0  0  0  3  0  0  0  0  0  0
  -16.5130  -29.8520   23.6550 C   0  0  0  0  0  3  0  0  0  0  0  0
  -16.7320  -28.5900   23.0750 C   0  0  0  0  0  3  0  0  0  0  0  0
  -25.9110  -32.5270   23.8710 C   0  0  0  0  0  3  0  0  0  0  0  0
  -26.4140  -31.7620   25.1580 C   0  0  1  0  0  0  0  0  0  0  0  0
  -25.3120  -31.5450   26.2210 C   0  0  0  0  0  1  0  0  0  0  0  0
  -26.9860  -30.3740   24.7860 C   0  0  0  0  0  1  0  0  0  0  0  0
  -27.5690  -32.5510   25.8180 C   0  0  0  0  0  1  0  0  0  0  0  0
  -25.6110  -33.9310   24.1920 N   0  0  0  0  0  0  0  0  0  0  0  0
  -25.9490  -34.9780   23.4280 C   0  0  0  0  0  0  0  0  0  0  0  0
  -26.6160  -34.8640   22.3960 O   0  0  0  0  0  0  0  0  0  0  0  0
  -25.0170  -34.0930   24.9910 H   0  0  0  0  0  0  0  0  0  0  0  0
  -24.2380  -36.7870   23.0650 C   0  0  0  0  0  1  0  0  0  0  0  0
  -25.4730  -36.3720   23.8800 C   0  0  0  0  0  3  0  0  0  0  0  0
  -27.6150  -37.2410   24.7120 C   0  0  0  0  0  1  0  0  0  0  0  0
  -26.5150  -37.4170   23.7680 N   0  0  0  0  0  0  0  0  0  0  0  0
  -26.1160  -38.3400   23.9170 H   0  0  0  0  0  0  0  0  0  0  0  0
  1 54  1  0
  1  2  1  0
  2  4  1  0
  3  1  2  0
  5 19  1  0
  6 11  1  0
  7  8  1  0
  7  6  1  0
  9  8  1  0
  9 25  1  0
  9 10  1  0
 11  5  1  0
 11 10  1  0
 12  5  2  0
 13 16  1  0
 14 17  2  0
 15 14  1  0
 15 13  2  0
 16 18  2  0
 16 19  1  0
 17  2  1  0
 17 18  1  0
 19 21  1  0
 20 15  1  0
 22 23  2  0
 23 42  1  0
 24 23  1  0
 24 27  1  0
 25 22  1  0
 25 26  1  0
 26 24  2  0
 27 28  1  0
 28 29  2  0
 30 33  1  0
 30 29  1  0
 31 30  2  0
 32 31  1  0
 32 27  2  0
 33 34  1  0
 34 35  1  0
 35 36  2  0
 37 36  1  0
 37 41  1  0
 38 37  2  0
 39 34  2  0
 39 38  1  0
 40 39  1  0
 42 43  1  0
 43 46  1  0
 43 45  1  0
 44 42  2  0
 47 48  1  0
 47 22  1  0
 49 47  1  0
 50 14  1  0
 51 50  1  0
 52 50  2  0
 53 57  1  0
 53 54  2  0
 54 55  1  0
 55 56  1  0
 58 69  2  0
 59 57  1  0
 59 64  1  0
 60 68  1  0
 60 70  1  0
 61 67  1  0
 61 63  1  0
 62 68  1  0
 63 64  2  0
 63 62  1  0
 65 66  1  0
 65 59  2  0
 66 61  2  0
 67 60  1  0
 68 58  1  0
 70 72  2  0
 71 70  1  0
 73 71  1  0
 74 83  2  0
 74 79  1  0
 75 71  1  0
 75 79  1  0
 76 75  1  0
 77 78  1  0
 77 76  1  0
 78 74  1  0
 79 80  2  0
 80 81  1  0
 82 81  2  0
 83 82  1  0
 84 58  1  0
 84 89  1  0
 84 85  1  0
 85 88  1  1
 85 86  1  0
 87 85  1  0
 89 92  1  0
 90 94  1  0
 90 89  1  0
 91 90  2  0
 94 93  1  0
 96 94  1  0
 96 97  1  0
 96 95  1  0
M  ISO  4   5 100  19 100  53 101  57 101
M  END
>  <TORSDO>  (29) 
F 19

>  <SCORE>  (29) 
-14.686

>  <name>  (29) 
28

>  <ligand_id>  (29) 
28

>  <original_smiles>  (29) 
[H]OC(C(=O)N([H])c1nc(N([H])C(=O)N2C([H])([H])C([H])([H])C([H])([H])C([H])(n3nc(-c4c([H])c([H])c(Oc5c([H])c([H])c(F)c([H])c5F)c([H])c4[H])c(C(=O)N([H])[H])c3N([H])[H])C2([H])[H])c([H])c(F)c1C(=O)C([H])([H])[H])=C([H])Oc1c([H])c([H])c2c(c1[H])C([H])([H])N(C(=O)C([H])(N([H])C(=O)C([H])(N([H])C([H])([H])[H])C([H])([H])[H])C(C([H])([H])[H])(C([H])([H])[H])C([H])([H])[H])C([H])(C(=O)N([H])C1([H])c3c([H])c([H])c([H])c([H])c3C([H])([H])C([H])([H])C1([H])[H])C2([H])[H]

>  <smiles>  (29) 
[H]OC(C(=O)N([H])c1nc(N([H])C(=O)N2C([H])([H])C([H])([H])C([H])([H])C([H])(n3nc(-c4c([H])c([H])c(Oc5c([H])c([H])c(F)c([H])c5F)c([H])c4[H])c(C(=O)N([H])[H])c3N([H])[H])C2([H])[H])c([H])c(F)c1C(=O)C([H])([H])[H])=C([H])Oc1c([H])c([H])c2c(c1[H])C([H])([H])N(C(=O)C([H])(N([H])C(=O)C([H])(N([H])C([H])([H])[H])C([H])([H])[H])C(C([H])([H])[H])(C([H])([H])[H])C([H])([H])[H])C([H])(C(=O)N([H])C1([H])c3c([H])c([H])c([H])c([H])c3C([H])([H])C([H])([H])C1([H])[H])C2([H])[H]

$$$$
29:0:0
     RDKit          3D

 96104  0  0  1  0  0  0  0  0999 V2000
  -28.6040  -21.4700   20.1190 C   0  0  0  0  0  0  0  0  0  0  0  0
  -29.6370  -20.6240   20.3680 N   0  0  0  0  0  0  0  0  0  0  0  0
  -27.4460  -21.0800   19.9350 O   0  0  0  0  0  0  0  0  0  0  0  0
  -30.4970  -21.0970   20.6110 H   0  0  0  0  0  0  0  0  0  0  0  0
  -30.6510  -14.5830   20.4650 C   0  0  0  0  0  0  0  0  0  0  0  0
  -30.3920  -12.3800   19.3870 C   0  0  0  0  0  2  0  0  0  0  0  0
  -29.4820  -12.5680   18.1540 C   0  0  0  0  0  2  0  0  0  0  0  0
  -28.0020  -12.4200   18.5520 C   0  0  0  0  0  2  0  0  0  0  0  0
  -27.6320  -13.2690   19.7980 C   0  0  0  0  0  3  0  0  0  0  0  0
  -28.6650  -13.0900   20.9350 C   0  0  0  0  0  2  0  0  0  0  0  0
  -29.9970  -13.3870   20.3900 N   0  0  0  0  0  0  0  0  0  0  0  0
  -31.8070  -14.7150   20.0490 O   0  0  0  0  0  0  0  0  0  0  0  0
  -30.0990  -18.8870   18.6780 C   0  0  0  0  0  0  0  0  0  0  0  0
  -29.7520  -19.2420   19.9710 C   0  0  0  0  0  0  0  0  0  0  0  0
  -29.9660  -16.9540   20.2340 C   0  0  0  0  0  0  0  0  0  0  0  0
  -29.6730  -18.1260   20.8510 N   0  0  0  0  0  0  0  0  0  0  0  0
  -29.9370  -15.6640   20.8760 N   0  0  0  0  0  0  0  0  0  0  0  0
  -30.2990  -17.1590   18.5160 S   0  0  0  0  0  0  0  0  0  0  0  0
  -29.1260  -15.4770   21.4470 H   0  0  0  0  0  0  0  0  0  0  0  0
  -25.2200  -13.8730   20.4530 C   0  0  0  0  0  0  0  0  0  0  0  0
  -24.1480  -13.1030   20.8130 C   0  0  0  0  0  0  0  0  0  0  0  0
  -24.6140  -11.7530   20.8110 C   0  0  0  0  0  0  0  0  0  0  0  0
  -26.2720  -12.9930   20.2540 N   0  0  0  0  0  0  0  0  0  0  0  0
  -25.9110  -11.7140   20.5280 N   0  0  0  0  0  0  0  0  0  0  0  0
  -23.8880  -10.4910   21.0070 C   0  0  0  0  0  0  0  0  0  0  0  0
  -24.3110   -9.5310   21.9520 C   0  0  0  0  0  3  0  0  0  0  0  0
  -23.5830   -8.3360   22.1350 C   0  0  0  0  0  3  0  0  0  0  0  0
  -22.4190   -8.0900   21.3690 C   0  0  0  0  0  0  0  0  0  0  0  0
  -22.0170   -9.0360   20.4110 C   0  0  0  0  0  3  0  0  0  0  0  0
  -22.7450  -10.2230   20.2280 C   0  0  0  0  0  3  0  0  0  0  0  0
  -21.6650   -6.9440   21.4580 O   0  0  0  0  0  0  0  0  0  0  0  0
  -21.6080   -6.2080   22.6150 C   0  0  0  0  0  0  0  0  0  0  0  0
  -21.1750   -6.7690   23.8360 C   0  0  0  0  0  3  0  0  0  0  0  0
  -21.0650   -5.9590   24.9840 C   0  0  0  0  0  3  0  0  0  0  0  0
  -21.3820   -4.5890   24.9120 C   0  0  0  0  0  0  0  0  0  0  0  0
  -21.8090   -4.0280   23.6960 C   0  0  0  0  0  3  0  0  0  0  0  0
  -21.9200   -4.8350   22.5510 C   0  0  0  0  0  0  0  0  0  0  0  0
  -22.3130   -4.2840   21.3760 F   0  0  0  0  0  0  0  0  0  0  0  0
  -21.2700   -3.8090   26.0120 F   0  0  0  0  0  0  0  0  0  0  0  0
  -22.7440  -13.5810   21.0510 C   0  0  0  0  0  0  0  0  0  0  0  0
  -22.0000  -12.8950   21.9120 N   0  0  0  0  0  0  0  0  0  0  0  0
  -22.3150  -14.5970   20.5070 O   0  0  0  0  0  0  0  0  0  0  0  0
  -22.3620  -12.0760   22.3780 H   0  0  0  0  0  0  0  0  0  0  0  0
  -21.0570  -13.1960   22.1120 H   0  0  0  0  0  0  0  0  0  0  0  0
  -25.3880  -15.2420   20.2600 N   0  0  0  0  0  0  0  0  0  0  0  0
  -24.6170  -15.8960   20.3420 H   0  0  0  0  0  0  0  0  0  0  0  0
  -26.2430  -15.6770   19.9390 H   0  0  0  0  0  0  0  0  0  0  0  0
  -30.3480  -19.6790   17.4800 C   0  0  0  0  0  3  0  0  0  0  0  0
  -30.8320  -20.8480   17.4410 N   0  0  0  0  0  0  0  0  0  0  0  0
  -31.0810  -21.2000   18.3570 H   0  0  0  0  0  0  0  0  0  0  0  0
  -29.0110  -23.0150   20.1380 C   0  0  0  0  0  0  0  0  0  0  0  0
  -30.0940  -23.3480   20.6310 O   0  0  0  0  0  0  0  0  0  0  0  0
  -27.4670  -23.6680   18.1720 C   0  0  0  0  0  1  0  0  0  0  0  0
  -28.0490  -24.1170   19.5380 C   0  0  0  0  0  3  0  0  0  0  0  0
  -28.6740  -25.5630   19.3270 C   0  0  0  0  0  2  0  0  0  0  0  0
  -28.4130  -26.6510   20.2550 O   0  0  0  0  0  0  0  0  0  0  0  0
  -24.5980  -31.9020   23.2500 C   0  0  0  0  0  0  0  0  0  0  0  0
  -27.2500  -27.4090   20.1840 C   0  0  0  0  0  0  0  0  0  0  0  0
  -23.3980  -30.4940   21.6100 C   0  0  0  0  0  3  0  0  0  0  0  0
  -24.8570  -28.9530   20.1840 C   0  0  0  0  0  0  0  0  0  0  0  0
  -25.9290  -30.8400   21.4220 C   0  0  0  0  0  2  0  0  0  0  0  0
  -26.0140  -29.4640   20.7820 C   0  0  0  0  0  0  0  0  0  0  0  0
  -27.2060  -28.6960   20.7850 C   0  0  0  0  0  3  0  0  0  0  0  0
  -26.0700  -26.9260   19.5760 C   0  0  0  0  0  3  0  0  0  0  0  0
  -24.8830  -27.6850   19.5790 C   0  0  0  0  0  3  0  0  0  0  0  0
  -23.6110  -29.8130   20.2310 C   0  0  0  0  0  2  0  0  0  0  0  0
  -24.6590  -31.0960   22.1510 N   0  0  0  0  0  0  0  0  0  0  0  0
  -23.5140  -32.1770   23.7840 O   0  0  0  0  0  0  0  0  0  0  0  0
  -22.7440  -29.4760   22.5720 C   0  0  0  0  0  0  0  0  0  0  0  0
  -21.4190  -29.2940   22.4440 N   0  0  0  0  0  0  0  0  0  0  0  0
  -23.4260  -28.8530   23.3900 O   0  0  0  0  0  0  0  0  0  0  0  0
  -20.9300  -29.8470   21.7530 H   0  0  0  0  0  0  0  0  0  0  0  0
  -18.0430  -28.1010   22.9410 C   0  0  0  0  0  0  0  0  0  0  0  0
  -20.6010  -28.3580   23.2160 C   0  0  0  0  0  3  0  0  0  0  0  0
  -20.7050  -26.9260   22.6410 C   0  0  0  0  0  2  0  0  0  0  0  0
  -19.6040  -26.6040   21.6260 C   0  0  0  0  0  2  0  0  0  0  0  0
  -18.2200  -26.7510   22.2680 C   0  0  0  0  0  2  0  0  0  0  0  0
  -19.1620  -28.8630   23.3720 C   0  0  0  0  0  0  0  0  0  0  0  0
  -18.9430  -30.1270   23.9610 C   0  0  0  0  0  3  0  0  0  0  0  0
  -17.6390  -30.6290   24.1230 C   0  0  0  0  0  3  0  0  0  0  0  0
  -16.5340  -29.8650   23.7090 C   0  0  0  0  0  3  0  0  0  0  0  0
  -16.7380  -28.6030   23.1240 C   0  0  0  0  0  3  0  0  0  0  0  0
  -25.8800  -32.5380   23.8710 C   0  0  0  0  0  3  0  0  0  0  0  0
  -26.3930  -31.7760   25.1550 C   0  0  1  0  0  0  0  0  0  0  0  0
  -25.2950  -31.5490   26.2210 C   0  0  0  0  0  1  0  0  0  0  0  0
  -26.9760  -30.3950   24.7750 C   0  0  0  0  0  1  0  0  0  0  0  0
  -27.5430  -32.5740   25.8130 C   0  0  0  0  0  1  0  0  0  0  0  0
  -25.5720  -33.9390   24.1880 N   0  0  0  0  0  0  0  0  0  0  0  0
  -25.9110  -34.9840   23.4220 C   0  0  0  0  0  0  0  0  0  0  0  0
  -26.5860  -34.8710   22.3960 O   0  0  0  0  0  0  0  0  0  0  0  0
  -24.9700  -34.1010   24.9820 H   0  0  0  0  0  0  0  0  0  0  0  0
  -24.1890  -36.7760   23.0410 C   0  0  0  0  0  1  0  0  0  0  0  0
  -25.4230  -36.3760   23.8650 C   0  0  0  0  0  3  0  0  0  0  0  0
  -27.5540  -37.2620   24.7040 C   0  0  0  0  0  1  0  0  0  0  0  0
  -26.4590  -37.4260   23.7510 N   0  0  0  0  0  0  0  0  0  0  0  0
  -26.0540  -38.3490   23.8890 H   0  0  0  0  0  0  0  0  0  0  0  0
  1 51  1  0
  1  2  1  0
  2  4  1  0
  3  1  2  0
  5 17  1  0
  6 11  1  0
  7  8  1  0
  7  6  1  0
  9  8  1  0
  9 23  1  0
  9 10  1  0
 11  5  1  0
 11 10  1  0
 12  5  2  0
 13 14  2  0
 14  2  1  0
 14 16  1  0
 15 16  2  0
 15 17  1  0
 17 19  1  0
 18 13  1  0
 18 15  1  0
 20 21  2  0
 21 40  1  0
 22 21  1  0
 22 25  1  0
 23 20  1  0
 23 24  1  0
 24 22  2  0
 25 26  1  0
 26 27  2  0
 28 31  1  0
 28 27  1  0
 29 28  2  0
 30 29  1  0
 30 25  2  0
 31 32  1  0
 32 33  1  0
 33 34  2  0
 35 34  1  0
 35 39  1  0
 36 35  2  0
 37 32  2  0
 37 36  1  0
 38 37  1  0
 40 41  1  0
 41 44  1  0
 41 43  1  0
 42 40  2  0
 45 46  1  0
 45 20  1  0
 47 45  1  0
 48 13  1  0
 49 48  2  0
 49 50  1  0
 51 52  2  0
 54 53  1  0
 54 51  1  0
 55 54  1  0
 55 56  1  0
 57 68  2  0
 58 56  1  0
 58 63  1  0
 59 67  1  0
 59 69  1  0
 60 66  1  0
 60 62  1  0
 61 67  1  0
 62 63  2  0
 62 61  1  0
 64 65  1  0
 64 58  2  0
 65 60  2  0
 66 59  1  0
 67 57  1  0
 69 71  2  0
 70 69  1  0
 72 70  1  0
 73 82  2  0
 73 78  1  0
 74 70  1  0
 74 78  1  0
 75 74  1  0
 76 77  1  0
 76 75  1  0
 77 73  1  0
 78 79  2  0
 79 80  1  0
 81 80  2  0
 82 81  1  0
 83 57  1  0
 83 88  1  0
 83 84  1  0
 84 87  1  1
 84 85  1  0
 86 84  1  0
 88 91  1  0
 89 93  1  0
 89 88  1  0
 90 89  2  0
 93 92  1  0
 95 93  1  0
 95 96  1  0
 95 94  1  0
M  ISO  4   5 100  17 100  55 101  56 101
M  END
>  <TORSDO>  (30) 
F 20

>  <SCORE>  (30) 
-13.821

>  <name>  (30) 
29

>  <ligand_id>  (30) 
29

>  <original_smiles>  (30) 
[H]N=C([H])c1sc(N([H])C(=O)N2C([H])([H])C([H])([H])C([H])([H])C([H])(n3nc(-c4c([H])c([H])c(Oc5c([H])c([H])c(F)c([H])c5F)c([H])c4[H])c(C(=O)N([H])[H])c3N([H])[H])C2([H])[H])nc1N([H])C(=O)C(=O)C([H])(C([H])([H])[H])C([H])([H])Oc1c([H])c([H])c2c(c1[H])C([H])([H])N(C(=O)C([H])(N([H])C(=O)C([H])(N([H])C([H])([H])[H])C([H])([H])[H])C(C([H])([H])[H])(C([H])([H])[H])C([H])([H])[H])C([H])(C(=O)N([H])C1([H])c3c([H])c([H])c([H])c([H])c3C([H])([H])C([H])([H])C1([H])[H])C2([H])[H]

>  <smiles>  (30) 
[H]N=C([H])c1sc(N([H])C(=O)N2C([H])([H])C([H])([H])C([H])([H])C([H])(n3nc(-c4c([H])c([H])c(Oc5c([H])c([H])c(F)c([H])c5F)c([H])c4[H])c(C(=O)N([H])[H])c3N([H])[H])C2([H])[H])nc1N([H])C(=O)C(=O)C([H])(C([H])([H])[H])C([H])([H])Oc1c([H])c([H])c2c(c1[H])C([H])([H])N(C(=O)C([H])(N([H])C(=O)C([H])(N([H])C([H])([H])[H])C([H])([H])[H])C(C([H])([H])[H])(C([H])([H])[H])C([H])([H])[H])C([H])(C(=O)N([H])C1([H])c3c([H])c([H])c([H])c([H])c3C([H])([H])C([H])([H])C1([H])[H])C2([H])[H]

$$$$
30:0:0
     RDKit          3D

 96104  0  0  1  0  0  0  0  0999 V2000
  -30.5830  -21.3450   19.5390 C   0  0  0  0  0  3  0  0  0  0  0  0
  -30.5090  -22.5560   19.9530 N   0  0  0  0  0  0  0  0  0  0  0  0
  -30.0140  -23.5060   19.0670 C   0  0  0  0  0  0  0  0  0  0  0  0
  -29.6650  -23.3420   17.8940 O   0  0  0  0  0  0  0  0  0  0  0  0
  -30.9950  -25.8300   19.0740 C   0  0  0  0  0  1  0  0  0  0  0  0
  -29.9160  -24.9170   19.6810 C   0  0  0  0  0  3  0  0  0  0  0  0
  -28.4990  -25.5090   19.5050 C   0  0  0  0  0  2  0  0  0  0  0  0
  -28.4130  -26.7770   20.1580 O   0  0  0  0  0  0  0  0  0  0  0  0
  -24.5450  -31.8910   23.2230 C   0  0  0  0  0  0  0  0  0  0  0  0
  -27.2090  -27.4510   20.1500 C   0  0  0  0  0  0  0  0  0  0  0  0
  -23.3430  -30.4810   21.5840 C   0  0  0  0  0  3  0  0  0  0  0  0
  -24.8000  -28.9400   20.1690 C   0  0  0  0  0  0  0  0  0  0  0  0
  -25.8680  -30.8430   21.3880 C   0  0  0  0  0  2  0  0  0  0  0  0
  -25.9550  -29.4700   20.7550 C   0  0  0  0  0  0  0  0  0  0  0  0
  -27.1580  -28.7320   20.7450 C   0  0  0  0  0  3  0  0  0  0  0  0
  -26.0280  -26.9270   19.5700 C   0  0  0  0  0  3  0  0  0  0  0  0
  -24.8300  -27.6650   19.5780 C   0  0  0  0  0  3  0  0  0  0  0  0
  -23.5550  -29.7970   20.2070 C   0  0  0  0  0  2  0  0  0  0  0  0
  -24.6030  -31.0860   22.1230 N   0  0  0  0  0  0  0  0  0  0  0  0
  -23.4630  -32.1630   23.7600 O   0  0  0  0  0  0  0  0  0  0  0  0
  -22.6920  -29.4620   22.5460 C   0  0  0  0  0  0  0  0  0  0  0  0
  -21.3680  -29.2790   22.4180 N   0  0  0  0  0  0  0  0  0  0  0  0
  -23.3740  -28.8380   23.3640 O   0  0  0  0  0  0  0  0  0  0  0  0
  -20.8800  -29.8350   21.7300 H   0  0  0  0  0  0  0  0  0  0  0  0
  -17.9870  -28.1170   22.9350 C   0  0  0  0  0  0  0  0  0  0  0  0
  -20.5490  -28.3450   23.1880 C   0  0  0  0  0  3  0  0  0  0  0  0
  -20.6320  -26.9170   22.6010 C   0  0  0  0  0  2  0  0  0  0  0  0
  -19.5180  -26.6140   21.5940 C   0  0  0  0  0  2  0  0  0  0  0  0
  -18.1430  -26.7690   22.2510 C   0  0  0  0  0  2  0  0  0  0  0  0
  -19.1170  -28.8630   23.3620 C   0  0  0  0  0  0  0  0  0  0  0  0
  -18.9180  -30.1260   23.9610 C   0  0  0  0  0  3  0  0  0  0  0  0
  -17.6200  -30.6410   24.1400 C   0  0  0  0  0  3  0  0  0  0  0  0
  -16.5050  -29.8920   23.7300 C   0  0  0  0  0  3  0  0  0  0  0  0
  -16.6880  -28.6320   23.1340 C   0  0  0  0  0  3  0  0  0  0  0  0
  -25.8300  -32.5230   23.8420 C   0  0  0  0  0  3  0  0  0  0  0  0
  -26.3490  -31.7550   25.1190 C   0  0  1  0  0  0  0  0  0  0  0  0
  -25.2560  -31.5120   26.1850 C   0  0  0  0  0  1  0  0  0  0  0  0
  -26.9390  -30.3800   24.7250 C   0  0  0  0  0  1  0  0  0  0  0  0
  -27.4950  -32.5550   25.7840 C   0  0  0  0  0  1  0  0  0  0  0  0
  -25.5200  -33.9220   24.1680 N   0  0  0  0  0  0  0  0  0  0  0  0
  -25.8600  -34.9720   23.4090 C   0  0  0  0  0  0  0  0  0  0  0  0
  -26.5400  -34.8660   22.3840 O   0  0  0  0  0  0  0  0  0  0  0  0
  -24.9170  -34.0790   24.9630 H   0  0  0  0  0  0  0  0  0  0  0  0
  -24.1480  -36.7730   23.0190 C   0  0  0  0  0  1  0  0  0  0  0  0
  -25.3680  -36.3610   23.8590 C   0  0  0  0  0  3  0  0  0  0  0  0
  -27.4830  -37.2350   24.7480 C   0  0  0  0  0  1  0  0  0  0  0  0
  -26.4080  -37.4090   23.7740 N   0  0  0  0  0  0  0  0  0  0  0  0
  -26.0020  -38.3310   23.9110 H   0  0  0  0  0  0  0  0  0  0  0  0
  -31.0440  -20.1750   20.4050 C   0  0  0  0  0  2  0  0  0  0  0  0
  -30.6800  -14.4520   20.5270 C   0  0  0  0  0  0  0  0  0  0  0  0
  -30.3900  -12.3270   19.3090 C   0  0  0  0  0  2  0  0  0  0  0  0
  -29.4480  -12.5680   18.1100 C   0  0  0  0  0  2  0  0  0  0  0  0
  -27.9700  -12.4360   18.5310 C   0  0  0  0  0  2  0  0  0  0  0  0
  -27.6380  -13.2520   19.8080 C   0  0  0  0  0  3  0  0  0  0  0  0
  -28.6810  -12.9660   20.9140 C   0  0  0  0  0  2  0  0  0  0  0  0
  -30.0210  -13.2720   20.3730 N   0  0  0  0  0  0  0  0  0  0  0  0
  -31.7650  -14.6970   19.9860 O   0  0  0  0  0  0  0  0  0  0  0  0
  -30.5780  -17.6810   20.8020 C   0  0  0  0  0  3  0  0  0  0  0  0
  -30.1100  -18.9620   20.4450 C   0  0  0  0  0  0  0  0  0  0  0  0
  -29.6430  -16.6280   20.8610 C   0  0  0  0  0  0  0  0  0  0  0  0
  -28.0070  -18.1090   20.2670 C   0  0  0  0  0  0  0  0  0  0  0  0
  -28.7980  -19.1550   20.1820 N   0  0  0  0  0  0  0  0  0  0  0  0
  -28.3400  -16.8740   20.5990 N   0  0  0  0  0  0  0  0  0  0  0  0
  -26.6970  -18.3400   20.0110 N   0  0  0  0  0  0  0  0  0  0  0  0
  -30.0360  -15.3420   21.2950 N   0  0  0  0  0  0  0  0  0  0  0  0
  -26.4800  -19.1970   19.5250 H   0  0  0  0  0  0  0  0  0  0  0  0
  -26.1300  -17.5420   19.7660 H   0  0  0  0  0  0  0  0  0  0  0  0
  -29.3020  -14.8780   21.8050 H   0  0  0  0  0  0  0  0  0  0  0  0
  -25.2360  -13.8850   20.4850 C   0  0  0  0  0  0  0  0  0  0  0  0
  -24.1540  -13.1230   20.8360 C   0  0  0  0  0  0  0  0  0  0  0  0
  -24.6060  -11.7680   20.8180 C   0  0  0  0  0  0  0  0  0  0  0  0
  -26.2760  -12.9950   20.2690 N   0  0  0  0  0  0  0  0  0  0  0  0
  -25.8990  -11.7160   20.5230 N   0  0  0  0  0  0  0  0  0  0  0  0
  -23.8710  -10.5110   21.0100 C   0  0  0  0  0  0  0  0  0  0  0  0
  -24.2830   -9.5510   21.9620 C   0  0  0  0  0  3  0  0  0  0  0  0
  -23.5510   -8.3590   22.1380 C   0  0  0  0  0  3  0  0  0  0  0  0
  -22.3920   -8.1160   21.3630 C   0  0  0  0  0  0  0  0  0  0  0  0
  -21.9980   -9.0640   20.4020 C   0  0  0  0  0  3  0  0  0  0  0  0
  -22.7310  -10.2490   20.2230 C   0  0  0  0  0  3  0  0  0  0  0  0
  -21.6330   -6.9740   21.4490 O   0  0  0  0  0  0  0  0  0  0  0  0
  -21.5510   -6.2490   22.6100 C   0  0  0  0  0  0  0  0  0  0  0  0
  -21.0740   -6.8160   23.8120 C   0  0  0  0  0  3  0  0  0  0  0  0
  -20.9420   -6.0160   24.9650 C   0  0  0  0  0  3  0  0  0  0  0  0
  -21.2760   -4.6500   24.9160 C   0  0  0  0  0  0  0  0  0  0  0  0
  -21.7450   -4.0810   23.7180 C   0  0  0  0  0  3  0  0  0  0  0  0
  -21.8790   -4.8790   22.5680 C   0  0  0  0  0  0  0  0  0  0  0  0
  -22.3120   -4.3220   21.4110 F   0  0  0  0  0  0  0  0  0  0  0  0
  -21.1410   -3.8780   26.0200 F   0  0  0  0  0  0  0  0  0  0  0  0
  -22.7570  -13.6100   21.0960 C   0  0  0  0  0  0  0  0  0  0  0  0
  -22.0160  -12.9160   21.9530 N   0  0  0  0  0  0  0  0  0  0  0  0
  -22.3300  -14.6390   20.5740 O   0  0  0  0  0  0  0  0  0  0  0  0
  -22.3730  -12.0830   22.3950 H   0  0  0  0  0  0  0  0  0  0  0  0
  -21.0780  -13.2230   22.1710 H   0  0  0  0  0  0  0  0  0  0  0  0
  -25.4290  -15.2540   20.3280 N   0  0  0  0  0  0  0  0  0  0  0  0
  -24.7100  -15.9120   20.6070 H   0  0  0  0  0  0  0  0  0  0  0  0
  -26.3640  -15.6520   20.3250 H   0  0  0  0  0  0  0  0  0  0  0  0
  1  2  2  0
  1 49  1  0
  3  6  1  0
  3  2  1  0
  4  3  2  0
  6  5  1  0
  7  6  1  0
  7  8  1  0
  9 20  2  0
 10  8  1  0
 10 15  1  0
 11 19  1  0
 11 21  1  0
 12 18  1  0
 12 14  1  0
 13 19  1  0
 14 13  1  0
 15 14  2  0
 16 17  1  0
 16 10  2  0
 17 12  2  0
 18 11  1  0
 19  9  1  0
 21 23  2  0
 22 21  1  0
 24 22  1  0
 25 34  2  0
 25 30  1  0
 26 22  1  0
 26 30  1  0
 27 26  1  0
 28 29  1  0
 28 27  1  0
 29 25  1  0
 30 31  2  0
 31 32  1  0
 33 32  2  0
 34 33  1  0
 35  9  1  0
 35 40  1  0
 35 36  1  0
 36 39  1  1
 36 37  1  0
 38 36  1  0
 40 43  1  0
 41 45  1  0
 41 40  1  0
 42 41  2  0
 45 44  1  0
 47 45  1  0
 47 48  1  0
 47 46  1  0
 49 59  1  0
 50 65  1  0
 51 56  1  0
 52 53  1  0
 52 51  1  0
 54 53  1  0
 54 72  1  0
 54 55  1  0
 56 50  1  0
 56 55  1  0
 57 50  2  0
 58 60  1  0
 59 58  2  0
 60 65  1  0
 61 63  1  0
 62 61  2  0
 62 59  1  0
 63 60  2  0
 64 61  1  0
 65 68  1  0
 66 64  1  0
 67 64  1  0
 69 70  2  0
 70 89  1  0
 71 70  1  0
 71 74  1  0
 72 69  1  0
 72 73  1  0
 73 71  2  0
 74 75  1  0
 75 76  2  0
 77 80  1  0
 77 76  1  0
 78 77  2  0
 79 78  1  0
 79 74  2  0
 80 81  1  0
 81 82  1  0
 82 83  2  0
 84 83  1  0
 84 88  1  0
 85 84  2  0
 86 81  2  0
 86 85  1  0
 87 86  1  0
 89 90  1  0
 90 93  1  0
 90 92  1  0
 91 89  2  0
 94 69  1  0
 94 95  1  0
 96 94  1  0
M  ISO  4   7 101   8 101  50 100  65 100
M  END
>  <TORSDO>  (31) 
F 20

>  <SCORE>  (31) 
-14.394

>  <name>  (31) 
30

>  <ligand_id>  (31) 
30

>  <original_smiles>  (31) 
[H]C(=NC(=O)C([H])(C([H])([H])[H])C([H])([H])Oc1c([H])c([H])c2c(c1[H])C([H])([H])N(C(=O)C([H])(N([H])C(=O)C([H])(N([H])C([H])([H])[H])C([H])([H])[H])C(C([H])([H])[H])(C([H])([H])[H])C([H])([H])[H])C([H])(C(=O)N([H])C1([H])c3c([H])c([H])c([H])c([H])c3C([H])([H])C([H])([H])C1([H])[H])C2([H])[H])C([H])([H])c1nc(N([H])[H])nc(N([H])C(=O)N2C([H])([H])C([H])([H])C([H])([H])C([H])(n3nc(-c4c([H])c([H])c(Oc5c([H])c([H])c(F)c([H])c5F)c([H])c4[H])c(C(=O)N([H])[H])c3N([H])[H])C2([H])[H])c1[H]

>  <smiles>  (31) 
[H]C(=NC(=O)C([H])(C([H])([H])[H])C([H])([H])Oc1c([H])c([H])c2c(c1[H])C([H])([H])N(C(=O)C([H])(N([H])C(=O)C([H])(N([H])C([H])([H])[H])C([H])([H])[H])C(C([H])([H])[H])(C([H])([H])[H])C([H])([H])[H])C([H])(C(=O)N([H])C1([H])c3c([H])c([H])c([H])c([H])c3C([H])([H])C([H])([H])C1([H])[H])C2([H])[H])C([H])([H])c1nc(N([H])[H])nc(N([H])C(=O)N2C([H])([H])C([H])([H])C([H])([H])C([H])(n3nc(-c4c([H])c([H])c(Oc5c([H])c([H])c(F)c([H])c5F)c([H])c4[H])c(C(=O)N([H])[H])c3N([H])[H])C2([H])[H])c1[H]

$$$$
31:0:0
     RDKit          3D

 95103  0  0  1  0  0  0  0  0999 V2000
  -28.9710  -19.7640   18.7660 C   0  0  0  0  0  3  0  0  0  0  0  0
  -28.9650  -18.4870   18.1750 C   0  0  0  0  0  0  0  0  0  0  0  0
  -29.3070  -17.3530   18.9330 C   0  0  0  0  0  0  0  0  0  0  0  0
  -29.3010  -19.9530   20.1240 C   0  0  0  0  0  0  0  0  0  0  0  0
  -29.6760  -17.4810   20.2910 C   0  0  0  0  0  0  0  0  0  0  0  0
  -28.4650  -22.4610   20.2330 C   0  0  0  0  0  0  0  0  0  0  0  0
  -28.5590  -18.3230   16.7230 C   0  0  0  0  0  1  0  0  0  0  0  0
  -29.6550  -18.7870   20.8490 N   0  0  0  0  0  0  0  0  0  0  0  0
  -29.3170  -21.3950   20.5670 N   0  0  0  0  0  0  0  0  0  0  0  0
  -27.3500  -22.2050   19.7690 O   0  0  0  0  0  0  0  0  0  0  0  0
  -29.2250  -16.1320   18.3490 F   0  0  0  0  0  0  0  0  0  0  0  0
  -30.1210  -21.6700   21.1150 H   0  0  0  0  0  0  0  0  0  0  0  0
  -30.6160  -15.0370   20.6470 C   0  0  0  0  0  0  0  0  0  0  0  0
  -30.5300  -12.7070   19.7120 C   0  0  0  0  0  2  0  0  0  0  0  0
  -29.6610  -12.7150   18.4340 C   0  0  0  0  0  2  0  0  0  0  0  0
  -28.1740  -12.5130   18.7880 C   0  0  0  0  0  2  0  0  0  0  0  0
  -27.7170  -13.4150   19.9660 C   0  0  0  0  0  3  0  0  0  0  0  0
  -28.7190  -13.3930   21.1420 C   0  0  0  0  0  2  0  0  0  0  0  0
  -30.0340  -13.7790   20.6150 N   0  0  0  0  0  0  0  0  0  0  0  0
  -31.7980  -15.1470   20.2990 O   0  0  0  0  0  0  0  0  0  0  0  0
  -29.8540  -16.1630   20.9920 N   0  0  0  0  0  0  0  0  0  0  0  0
  -29.0380  -15.9100   21.5200 H   0  0  0  0  0  0  0  0  0  0  0  0
  -25.2930  -13.9640   20.5870 C   0  0  0  0  0  0  0  0  0  0  0  0
  -24.2250  -13.1740   20.9150 C   0  0  0  0  0  0  0  0  0  0  0  0
  -24.7090  -11.8300   20.9080 C   0  0  0  0  0  0  0  0  0  0  0  0
  -26.3580  -13.1020   20.3960 N   0  0  0  0  0  0  0  0  0  0  0  0
  -26.0140  -11.8130   20.6540 N   0  0  0  0  0  0  0  0  0  0  0  0
  -23.9950  -10.5570   21.0730 C   0  0  0  0  0  0  0  0  0  0  0  0
  -24.3960   -9.6010   22.0340 C   0  0  0  0  0  3  0  0  0  0  0  0
  -23.6800   -8.3960   22.1870 C   0  0  0  0  0  3  0  0  0  0  0  0
  -22.5480   -8.1340   21.3780 C   0  0  0  0  0  0  0  0  0  0  0  0
  -22.1660   -9.0770   20.4090 C   0  0  0  0  0  3  0  0  0  0  0  0
  -22.8840  -10.2760   20.2530 C   0  0  0  0  0  3  0  0  0  0  0  0
  -21.8060   -6.9780   21.4380 O   0  0  0  0  0  0  0  0  0  0  0  0
  -21.7040   -6.2490   22.5950 C   0  0  0  0  0  0  0  0  0  0  0  0
  -21.1820   -6.8030   23.7840 C   0  0  0  0  0  3  0  0  0  0  0  0
  -21.0290   -5.9980   24.9300 C   0  0  0  0  0  3  0  0  0  0  0  0
  -21.3890   -4.6370   24.8880 C   0  0  0  0  0  0  0  0  0  0  0  0
  -21.9050   -4.0810   23.7040 C   0  0  0  0  0  3  0  0  0  0  0  0
  -22.0590   -4.8850   22.5600 C   0  0  0  0  0  0  0  0  0  0  0  0
  -22.5360   -4.3400   21.4150 F   0  0  0  0  0  0  0  0  0  0  0  0
  -21.2360   -3.8590   25.9850 F   0  0  0  0  0  0  0  0  0  0  0  0
  -22.8110  -13.6310   21.1240 C   0  0  0  0  0  0  0  0  0  0  0  0
  -22.0580  -12.9290   21.9640 N   0  0  0  0  0  0  0  0  0  0  0  0
  -22.3800  -14.6460   20.5800 O   0  0  0  0  0  0  0  0  0  0  0  0
  -22.4170  -12.1050   22.4250 H   0  0  0  0  0  0  0  0  0  0  0  0
  -21.1090  -13.2180   22.1480 H   0  0  0  0  0  0  0  0  0  0  0  0
  -25.4410  -15.3370   20.4140 N   0  0  0  0  0  0  0  0  0  0  0  0
  -24.6540  -15.9730   20.4870 H   0  0  0  0  0  0  0  0  0  0  0  0
  -26.2840  -15.7880   20.0830 H   0  0  0  0  0  0  0  0  0  0  0  0
  -28.0240  -25.0040   20.2400 C   0  0  0  0  0  3  0  0  0  0  0  0
  -28.8840  -23.9180   20.4560 C   0  0  0  0  0  0  0  0  0  0  0  0
  -30.1430  -24.1570   20.8480 O   0  0  0  0  0  0  0  0  0  0  0  0
  -30.2360  -25.1000   20.9140 H   0  0  0  0  0  0  0  0  0  0  0  0
  -28.2420  -26.4390   20.3130 O   0  0  0  0  0  0  0  0  0  0  0  0
  -24.5880  -32.0230   23.3420 C   0  0  0  0  0  0  0  0  0  0  0  0
  -27.1640  -27.3810   20.2590 C   0  0  0  0  0  0  0  0  0  0  0  0
  -23.3780  -30.6300   21.7040 C   0  0  0  0  0  3  0  0  0  0  0  0
  -24.8210  -29.0810   20.2570 C   0  0  0  0  0  0  0  0  0  0  0  0
  -25.9260  -30.9170   21.5220 C   0  0  0  0  0  2  0  0  0  0  0  0
  -25.9970  -29.5320   20.8680 C   0  0  0  0  0  0  0  0  0  0  0  0
  -27.1660  -28.6930   20.8670 C   0  0  0  0  0  3  0  0  0  0  0  0
  -25.9710  -27.0400   19.5780 C   0  0  0  0  0  3  0  0  0  0  0  0
  -24.8170  -27.8450   19.5990 C   0  0  0  0  0  3  0  0  0  0  0  0
  -23.5900  -29.9670   20.3180 C   0  0  0  0  0  2  0  0  0  0  0  0
  -24.6500  -31.2110   22.2440 N   0  0  0  0  0  0  0  0  0  0  0  0
  -23.5060  -32.3010   23.8800 O   0  0  0  0  0  0  0  0  0  0  0  0
  -22.7150  -29.6130   22.6640 C   0  0  0  0  0  0  0  0  0  0  0  0
  -21.3950  -29.4040   22.5150 N   0  0  0  0  0  0  0  0  0  0  0  0
  -23.3890  -29.0140   23.5060 O   0  0  0  0  0  0  0  0  0  0  0  0
  -20.9070  -29.9420   21.8130 H   0  0  0  0  0  0  0  0  0  0  0  0
  -18.0450  -28.0960   22.9430 C   0  0  0  0  0  0  0  0  0  0  0  0
  -20.5840  -28.4560   23.2820 C   0  0  0  0  0  3  0  0  0  0  0  0
  -20.7550  -27.0150   22.7480 C   0  0  0  0  0  2  0  0  0  0  0  0
  -19.6970  -26.6270   21.7100 C   0  0  0  0  0  2  0  0  0  0  0  0
  -18.2920  -26.7380   22.3060 C   0  0  0  0  0  2  0  0  0  0  0  0
  -19.1220  -28.9080   23.3870 C   0  0  0  0  0  0  0  0  0  0  0  0
  -18.8370  -30.1760   23.9410 C   0  0  0  0  0  3  0  0  0  0  0  0
  -17.5110  -30.6310   24.0560 C   0  0  0  0  0  3  0  0  0  0  0  0
  -16.4490  -29.8160   23.6260 C   0  0  0  0  0  3  0  0  0  0  0  0
  -16.7170  -28.5500   23.0760 C   0  0  0  0  0  3  0  0  0  0  0  0
  -25.8710  -32.6570   23.9590 C   0  0  0  0  0  3  0  0  0  0  0  0
  -25.5720  -34.0640   24.2630 N   0  0  0  0  0  0  0  0  0  0  0  0
  -25.9060  -35.1020   23.4850 C   0  0  0  0  0  0  0  0  0  0  0  0
  -26.5680  -34.9760   22.4510 O   0  0  0  0  0  0  0  0  0  0  0  0
  -24.9880  -34.2370   25.0680 H   0  0  0  0  0  0  0  0  0  0  0  0
  -24.1890  -36.9030   23.1120 C   0  0  0  0  0  1  0  0  0  0  0  0
  -25.4320  -36.5030   23.9220 C   0  0  0  0  0  3  0  0  0  0  0  0
  -27.5760  -37.3900   24.7270 C   0  0  0  0  0  1  0  0  0  0  0  0
  -26.4710  -37.5470   23.7840 N   0  0  0  0  0  0  0  0  0  0  0  0
  -26.0730  -38.4730   23.9140 H   0  0  0  0  0  0  0  0  0  0  0  0
  -26.3720  -31.9070   25.2540 C   0  0  1  0  0  0  0  0  0  0  0  0
  -25.2680  -31.6940   26.3160 C   0  0  0  0  0  1  0  0  0  0  0  0
  -26.9530  -30.5190   24.8960 C   0  0  0  0  0  1  0  0  0  0  0  0
  -27.5210  -32.7080   25.9120 C   0  0  0  0  0  1  0  0  0  0  0  0
  1  4  1  0
  2  1  2  0
  2  3  1  0
  3  5  2  0
  4  9  1  0
  4  8  2  0
  5  8  1  0
  5 21  1  0
  6 52  1  0
  6  9  1  0
  7  2  1  0
  9 12  1  0
 10  6  2  0
 11  3  1  0
 13 21  1  0
 14 19  1  0
 15 16  1  0
 15 14  1  0
 17 16  1  0
 17 26  1  0
 17 18  1  0
 19 13  1  0
 19 18  1  0
 20 13  2  0
 21 22  1  0
 23 24  2  0
 24 43  1  0
 25 24  1  0
 25 28  1  0
 26 23  1  0
 26 27  1  0
 27 25  2  0
 28 29  1  0
 29 30  2  0
 31 34  1  0
 31 30  1  0
 32 31  2  0
 33 32  1  0
 33 28  2  0
 34 35  1  0
 35 36  1  0
 36 37  2  0
 38 37  1  0
 38 42  1  0
 39 38  2  0
 40 35  2  0
 40 39  1  0
 41 40  1  0
 43 44  1  0
 44 47  1  0
 44 46  1  0
 45 43  2  0
 48 49  1  0
 48 23  1  0
 50 48  1  0
 51 55  1  0
 51 52  2  0
 52 53  1  0
 53 54  1  0
 56 67  2  0
 57 55  1  0
 57 62  1  0
 58 66  1  0
 58 68  1  0
 59 65  1  0
 59 61  1  0
 60 66  1  0
 61 60  1  0
 62 61  2  0
 63 64  1  0
 63 57  2  0
 64 59  2  0
 65 58  1  0
 66 56  1  0
 68 70  2  0
 69 68  1  0
 71 69  1  0
 72 81  2  0
 72 77  1  0
 73 69  1  0
 73 77  1  0
 74 73  1  0
 75 76  1  0
 75 74  1  0
 76 72  1  0
 77 78  2  0
 78 79  1  0
 80 79  2  0
 81 80  1  0
 82 56  1  0
 82 83  1  0
 82 92  1  0
 83 86  1  0
 84 88  1  0
 84 83  1  0
 85 84  2  0
 88 87  1  0
 90 91  1  0
 90 88  1  0
 90 89  1  0
 92 95  1  1
 92 93  1  0
 94 92  1  0
M  ISO  4  13 100  21 100  51 101  55 101
M  END
>  <TORSDO>  (32) 
F 18

>  <SCORE>  (32) 
-14.647

>  <name>  (32) 
31

>  <ligand_id>  (32) 
31

>  <original_smiles>  (32) 
[H]OC(C(=O)N([H])c1nc(N([H])C(=O)N2C([H])([H])C([H])([H])C([H])([H])C([H])(n3nc(-c4c([H])c([H])c(Oc5c([H])c([H])c(F)c([H])c5F)c([H])c4[H])c(C(=O)N([H])[H])c3N([H])[H])C2([H])[H])c(F)c(C([H])([H])[H])c1[H])=C([H])Oc1c([H])c([H])c2c(c1[H])C([H])([H])N(C(=O)C([H])(N([H])C(=O)C([H])(N([H])C([H])([H])[H])C([H])([H])[H])C(C([H])([H])[H])(C([H])([H])[H])C([H])([H])[H])C([H])(C(=O)N([H])C1([H])c3c([H])c([H])c([H])c([H])c3C([H])([H])C([H])([H])C1([H])[H])C2([H])[H]

>  <smiles>  (32) 
[H]OC(C(=O)N([H])c1nc(N([H])C(=O)N2C([H])([H])C([H])([H])C([H])([H])C([H])(n3nc(-c4c([H])c([H])c(Oc5c([H])c([H])c(F)c([H])c5F)c([H])c4[H])c(C(=O)N([H])[H])c3N([H])[H])C2([H])[H])c(F)c(C([H])([H])[H])c1[H])=C([H])Oc1c([H])c([H])c2c(c1[H])C([H])([H])N(C(=O)C([H])(N([H])C(=O)C([H])(N([H])C([H])([H])[H])C([H])([H])[H])C(C([H])([H])[H])(C([H])([H])[H])C([H])([H])[H])C([H])(C(=O)N([H])C1([H])c3c([H])c([H])c([H])c([H])c3C([H])([H])C([H])([H])C1([H])[H])C2([H])[H]

$$$$
32:0:0
     RDKit          3D

 95103  0  0  1  0  0  0  0  0999 V2000
  -29.2180  -21.9130   20.5430 C   0  0  0  0  0  0  0  0  0  0  0  0
  -29.8140  -20.9440   21.2750 N   0  0  0  0  0  0  0  0  0  0  0  0
  -28.8080  -21.7460   19.3940 O   0  0  0  0  0  0  0  0  0  0  0  0
  -30.1320  -21.3120   22.1610 H   0  0  0  0  0  0  0  0  0  0  0  0
  -30.7160  -14.7560   20.0390 C   0  0  0  0  0  0  0  0  0  0  0  0
  -30.5010  -12.5480   18.9360 C   0  0  0  0  0  2  0  0  0  0  0  0
  -29.4700  -12.6640   17.7920 C   0  0  0  0  0  2  0  0  0  0  0  0
  -28.0350  -12.4530   18.3180 C   0  0  0  0  0  2  0  0  0  0  0  0
  -27.7300  -13.3010   19.5810 C   0  0  0  0  0  3  0  0  0  0  0  0
  -28.8630  -13.1540   20.6230 C   0  0  0  0  0  2  0  0  0  0  0  0
  -30.1240  -13.5300   19.9630 N   0  0  0  0  0  0  0  0  0  0  0  0
  -31.8490  -14.9750   19.5930 O   0  0  0  0  0  0  0  0  0  0  0  0
  -30.7220  -18.8440   22.0530 C   0  0  0  0  0  0  0  0  0  0  0  0
  -30.0140  -19.5930   21.1310 C   0  0  0  0  0  0  0  0  0  0  0  0
  -30.1380  -17.1240   20.6770 C   0  0  0  0  0  0  0  0  0  0  0  0
  -30.8060  -17.4700   21.7780 N   0  0  0  0  0  0  0  0  0  0  0  0
  -29.8710  -15.7520   20.3850 N   0  0  0  0  0  0  0  0  0  0  0  0
  -29.3890  -18.5230   19.8710 S   0  0  0  0  0  0  0  0  0  0  0  0
  -28.9120  -15.4700   20.5000 H   0  0  0  0  0  0  0  0  0  0  0  0
  -25.3860  -13.8270   20.5010 C   0  0  0  0  0  0  0  0  0  0  0  0
  -24.3630  -13.0150   20.9130 C   0  0  0  0  0  0  0  0  0  0  0  0
  -24.8440  -11.6770   20.7830 C   0  0  0  0  0  0  0  0  0  0  0  0
  -26.4240  -12.9770   20.1490 N   0  0  0  0  0  0  0  0  0  0  0  0
  -26.1060  -11.6770   20.3770 N   0  0  0  0  0  0  0  0  0  0  0  0
  -24.1560  -10.3920   20.9650 C   0  0  0  0  0  0  0  0  0  0  0  0
  -24.5750   -9.4630   21.9430 C   0  0  0  0  0  3  0  0  0  0  0  0
  -23.8870   -8.2430   22.1110 C   0  0  0  0  0  3  0  0  0  0  0  0
  -22.7670   -7.9420   21.3000 C   0  0  0  0  0  0  0  0  0  0  0  0
  -22.3710   -8.8580   20.3090 C   0  0  0  0  0  3  0  0  0  0  0  0
  -23.0600  -10.0710   20.1400 C   0  0  0  0  0  3  0  0  0  0  0  0
  -22.0540   -6.7700   21.3740 O   0  0  0  0  0  0  0  0  0  0  0  0
  -21.8400   -6.1320   22.5700 C   0  0  0  0  0  0  0  0  0  0  0  0
  -21.1500   -6.7540   23.6340 C   0  0  0  0  0  3  0  0  0  0  0  0
  -20.8920   -6.0380   24.8200 C   0  0  0  0  0  3  0  0  0  0  0  0
  -21.3150   -4.7000   24.9410 C   0  0  0  0  0  0  0  0  0  0  0  0
  -21.9990   -4.0780   23.8820 C   0  0  0  0  0  3  0  0  0  0  0  0
  -22.2580   -4.7920   22.6990 C   0  0  0  0  0  0  0  0  0  0  0  0
  -22.8980   -4.1820   21.6730 F   0  0  0  0  0  0  0  0  0  0  0  0
  -21.0630   -4.0100   26.0770 F   0  0  0  0  0  0  0  0  0  0  0  0
  -22.9800  -13.4490   21.3100 C   0  0  0  0  0  0  0  0  0  0  0  0
  -22.3420  -12.7080   22.2100 N   0  0  0  0  0  0  0  0  0  0  0  0
  -22.4780  -14.4770   20.8590 O   0  0  0  0  0  0  0  0  0  0  0  0
  -22.7630  -11.8760   22.5940 H   0  0  0  0  0  0  0  0  0  0  0  0
  -21.4170  -12.9760   22.5170 H   0  0  0  0  0  0  0  0  0  0  0  0
  -25.5150  -15.2070   20.3730 N   0  0  0  0  0  0  0  0  0  0  0  0
  -24.7470  -15.8410   20.5610 H   0  0  0  0  0  0  0  0  0  0  0  0
  -26.3060  -15.6690   19.9440 H   0  0  0  0  0  0  0  0  0  0  0  0
  -32.6700  -20.1120   23.0350 C   0  0  0  0  0  1  0  0  0  0  0  0
  -31.3650  -19.3590   23.3110 C   0  0  0  0  0  2  0  0  0  0  0  0
  -30.0890  -23.4170   22.4200 C   0  0  0  0  0  1  0  0  0  0  0  0
  -27.6540  -23.2880   21.9300 C   0  0  0  0  0  1  0  0  0  0  0  0
  -29.0500  -23.3000   21.2680 C   0  0  2  0  0  0  0  0  0  0  0  0
  -29.2760  -24.5840   20.3530 C   0  0  0  0  0  2  0  0  0  0  0  0
  -28.0640  -25.3700   19.7620 C   0  0  0  0  0  2  0  0  0  0  0  0
  -28.2660  -26.8090   19.7460 O   0  0  0  0  0  0  0  0  0  0  0  0
  -24.6440  -31.9390   23.1620 C   0  0  0  0  0  0  0  0  0  0  0  0
  -27.1170  -27.5890   19.7910 C   0  0  0  0  0  0  0  0  0  0  0  0
  -23.3620  -30.6150   21.5160 C   0  0  0  0  0  3  0  0  0  0  0  0
  -24.7420  -29.1350   19.9640 C   0  0  0  0  0  0  0  0  0  0  0  0
  -25.8820  -30.9640   21.2260 C   0  0  0  0  0  2  0  0  0  0  0  0
  -25.9320  -29.6200   20.5220 C   0  0  0  0  0  0  0  0  0  0  0  0
  -27.1240  -28.8570   20.4280 C   0  0  0  0  0  3  0  0  0  0  0  0
  -25.9070  -27.1360   19.2190 C   0  0  0  0  0  3  0  0  0  0  0  0
  -24.7260  -27.8940   19.3070 C   0  0  0  0  0  3  0  0  0  0  0  0
  -23.5110  -30.0020   20.0990 C   0  0  0  0  0  2  0  0  0  0  0  0
  -24.6510  -31.1840   22.0270 N   0  0  0  0  0  0  0  0  0  0  0  0
  -23.5880  -32.1910   23.7600 O   0  0  0  0  0  0  0  0  0  0  0  0
  -22.7490  -29.5510   22.4550 C   0  0  0  0  0  0  0  0  0  0  0  0
  -21.4230  -29.3530   22.3570 N   0  0  0  0  0  0  0  0  0  0  0  0
  -23.4600  -28.9080   23.2320 O   0  0  0  0  0  0  0  0  0  0  0  0
  -20.9090  -29.9280   21.7030 H   0  0  0  0  0  0  0  0  0  0  0  0
  -18.0820  -28.0870   22.8890 C   0  0  0  0  0  0  0  0  0  0  0  0
  -20.6400  -28.3810   23.1200 C   0  0  0  0  0  3  0  0  0  0  0  0
  -20.7550  -26.9690   22.5010 C   0  0  0  0  0  2  0  0  0  0  0  0
  -19.6390  -26.6560   21.4990 C   0  0  0  0  0  2  0  0  0  0  0  0
  -18.2680  -26.7580   22.1750 C   0  0  0  0  0  2  0  0  0  0  0  0
  -19.1960  -28.8550   23.3190 C   0  0  0  0  0  0  0  0  0  0  0  0
  -18.9700  -30.0990   23.9450 C   0  0  0  0  0  3  0  0  0  0  0  0
  -17.6610  -30.5730   24.1520 C   0  0  0  0  0  3  0  0  0  0  0  0
  -16.5610  -29.8020   23.7390 C   0  0  0  0  0  3  0  0  0  0  0  0
  -16.7720  -28.5620   23.1110 C   0  0  0  0  0  3  0  0  0  0  0  0
  -25.9560  -32.5400   23.7510 C   0  0  0  0  0  3  0  0  0  0  0  0
  -26.5180  -31.7260   24.9800 C   0  0  1  0  0  0  0  0  0  0  0  0
  -25.4620  -31.4580   26.0780 C   0  0  0  0  0  1  0  0  0  0  0  0
  -27.0840  -30.3630   24.5180 C   0  0  0  0  0  1  0  0  0  0  0  0
  -27.6950  -32.4950   25.6250 C   0  0  0  0  0  1  0  0  0  0  0  0
  -25.6750  -33.9310   24.1330 N   0  0  0  0  0  0  0  0  0  0  0  0
  -25.9840  -35.0010   23.3890 C   0  0  0  0  0  0  0  0  0  0  0  0
  -26.6080  -34.9210   22.3260 O   0  0  0  0  0  0  0  0  0  0  0  0
  -25.1110  -34.0670   24.9590 H   0  0  0  0  0  0  0  0  0  0  0  0
  -24.2540  -36.8120   23.1570 C   0  0  0  0  0  1  0  0  0  0  0  0
  -25.5260  -36.3800   23.9040 C   0  0  0  0  0  3  0  0  0  0  0  0
  -27.6960  -37.2330   24.6750 C   0  0  0  0  0  1  0  0  0  0  0  0
  -26.5620  -37.4290   23.7750 N   0  0  0  0  0  0  0  0  0  0  0  0
  -26.1680  -38.3490   23.9560 H   0  0  0  0  0  0  0  0  0  0  0  0
  1 52  1  0
  1  2  1  0
  2  4  1  0
  3  1  2  0
  5 17  1  0
  6 11  1  0
  7  8  1  0
  7  6  1  0
  9  8  1  0
  9 23  1  0
  9 10  1  0
 11  5  1  0
 11 10  1  0
 12  5  2  0
 13 49  1  0
 14  2  1  0
 14 13  2  0
 15 16  2  0
 16 13  1  0
 17 19  1  0
 17 15  1  0
 18 15  1  0
 18 14  1  0
 20 21  2  0
 21 40  1  0
 22 21  1  0
 22 25  1  0
 23 24  1  0
 23 20  1  0
 24 22  2  0
 25 26  1  0
 26 27  2  0
 28 31  1  0
 28 27  1  0
 29 28  2  0
 30 29  1  0
 30 25  2  0
 31 32  1  0
 32 37  2  0
 32 33  1  0
 33 34  2  0
 34 35  1  0
 35 39  1  0
 36 35  2  0
 37 36  1  0
 38 37  1  0
 40 41  1  0
 41 44  1  0
 41 43  1  0
 42 40  2  0
 45 20  1  0
 45 46  1  0
 47 45  1  0
 48 49  1  0
 52 51  1  1
 52 50  1  0
 53 52  1  0
 54 53  1  0
 55 54  1  0
 55 57  1  0
 56 67  2  0
 57 62  1  0
 58 66  1  0
 58 68  1  0
 59 65  1  0
 59 61  1  0
 60 66  1  0
 61 60  1  0
 62 61  2  0
 63 64  1  0
 63 57  2  0
 64 59  2  0
 65 58  1  0
 66 56  1  0
 68 70  2  0
 69 68  1  0
 71 69  1  0
 72 81  2  0
 72 77  1  0
 73 69  1  0
 73 77  1  0
 74 73  1  0
 75 76  1  0
 75 74  1  0
 76 72  1  0
 77 78  2  0
 78 79  1  0
 80 79  2  0
 81 80  1  0
 82 56  1  0
 82 87  1  0
 82 83  1  0
 83 86  1  1
 83 84  1  0
 85 83  1  0
 87 90  1  0
 88 92  1  0
 88 87  1  0
 89 88  2  0
 92 91  1  0
 94 92  1  0
 94 95  1  0
 94 93  1  0
M  ISO  4   5 100  17 100  54 101  55 101
M  END
>  <TORSDO>  (33) 
F 20

>  <SCORE>  (33) 
-13.244

>  <name>  (33) 
32

>  <ligand_id>  (33) 
32

>  <original_smiles>  (33) 
[H]c1c([H])c([H])c2c(c1[H])C([H])([H])C([H])([H])C([H])([H])C2([H])N([H])C(=O)C1([H])N(C(=O)C([H])(N([H])C(=O)C([H])(N([H])C([H])([H])[H])C([H])([H])[H])C(C([H])([H])[H])(C([H])([H])[H])C([H])([H])[H])C([H])([H])c2c([H])c(OC([H])([H])C([H])([H])C(C(=O)N([H])c3sc(N([H])C(=O)N4C([H])([H])C([H])([H])C([H])([H])C([H])(n5nc(-c6c([H])c([H])c(Oc7c([H])c([H])c(F)c([H])c7F)c([H])c6[H])c(C(=O)N([H])[H])c5N([H])[H])C4([H])[H])nc3C([H])([H])C([H])([H])[H])(C([H])([H])[H])C([H])([H])[H])c([H])c([H])c2C1([H])[H]

>  <smiles>  (33) 
[H]c1c([H])c([H])c2c(c1[H])C([H])([H])C([H])([H])C([H])([H])C2([H])N([H])C(=O)C1([H])N(C(=O)C([H])(N([H])C(=O)C([H])(N([H])C([H])([H])[H])C([H])([H])[H])C(C([H])([H])[H])(C([H])([H])[H])C([H])([H])[H])C([H])([H])c2c([H])c(OC([H])([H])C([H])([H])C(C(=O)N([H])c3sc(N([H])C(=O)N4C([H])([H])C([H])([H])C([H])([H])C([H])(n5nc(-c6c([H])c([H])c(Oc7c([H])c([H])c(F)c([H])c7F)c([H])c6[H])c(C(=O)N([H])[H])c5N([H])[H])C4([H])[H])nc3C([H])([H])C([H])([H])[H])(C([H])([H])[H])C([H])([H])[H])c([H])c([H])c2C1([H])[H]

$$$$
33:0:0
     RDKit          3D

 93100  0  0  1  0  0  0  0  0999 V2000
  -29.2120  -21.8490   22.1190 C   0  0  0  0  0  1  0  0  0  0  0  0
  -30.7400  -22.6860   20.3660 C   0  0  0  0  0  1  0  0  0  0  0  0
  -29.3340  -22.0960   20.5960 C   0  0  1  0  0  0  0  0  0  0  0  0
  -29.1640  -19.2740   20.3010 C   0  0  0  0  0  0  0  0  0  0  0  0
  -29.4120  -20.6350   19.9170 N   0  0  0  0  0  0  0  0  0  0  0  0
  -28.1590  -19.0340   20.9710 O   0  0  0  0  0  0  0  0  0  0  0  0
  -30.0920  -20.6530   19.1680 H   0  0  0  0  0  0  0  0  0  0  0  0
  -30.1900  -17.9570   20.0530 C   0  0  0  0  0  3  0  0  0  0  0  0
  -30.5040  -15.1600   19.9230 C   0  0  0  0  0  0  0  0  0  0  0  0
  -30.3190  -12.7760   19.0350 C   0  0  0  0  0  2  0  0  0  0  0  0
  -29.3380  -12.6930   17.8440 C   0  0  0  0  0  2  0  0  0  0  0  0
  -27.9050  -12.4680   18.3550 C   0  0  0  0  0  2  0  0  0  0  0  0
  -27.5430  -13.4170   19.5260 C   0  0  0  0  0  3  0  0  0  0  0  0
  -28.6480  -13.4890   20.6030 C   0  0  0  0  0  2  0  0  0  0  0  0
  -29.8840  -13.9020   19.9270 N   0  0  0  0  0  0  0  0  0  0  0  0
  -31.6620  -15.1610   19.5000 O   0  0  0  0  0  0  0  0  0  0  0  0
  -29.8190  -16.3950   20.2030 N   0  0  0  0  0  0  0  0  0  0  0  0
  -28.8720  -16.2580   20.5250 H   0  0  0  0  0  0  0  0  0  0  0  0
  -25.2100  -13.9800   20.4070 C   0  0  0  0  0  0  0  0  0  0  0  0
  -24.1670  -13.2000   20.8230 C   0  0  0  0  0  0  0  0  0  0  0  0
  -24.6270  -11.8490   20.7480 C   0  0  0  0  0  0  0  0  0  0  0  0
  -26.2370  -13.1060   20.0960 N   0  0  0  0  0  0  0  0  0  0  0  0
  -25.8990  -11.8180   20.3670 N   0  0  0  0  0  0  0  0  0  0  0  0
  -23.9090  -10.5850   20.9590 C   0  0  0  0  0  0  0  0  0  0  0  0
  -24.3570   -9.6270   21.8940 C   0  0  0  0  0  3  0  0  0  0  0  0
  -23.6360   -8.4290   22.0950 C   0  0  0  0  0  3  0  0  0  0  0  0
  -22.4530   -8.1820   21.3590 C   0  0  0  0  0  0  0  0  0  0  0  0
  -22.0220   -9.1300   20.4130 C   0  0  0  0  0  3  0  0  0  0  0  0
  -22.7440  -10.3180   20.2100 C   0  0  0  0  0  3  0  0  0  0  0  0
  -21.7010   -7.0370   21.4690 O   0  0  0  0  0  0  0  0  0  0  0  0
  -21.6380   -6.3280   22.6410 C   0  0  0  0  0  0  0  0  0  0  0  0
  -21.1940   -6.9180   23.8460 C   0  0  0  0  0  3  0  0  0  0  0  0
  -21.0790   -6.1340   25.0120 C   0  0  0  0  0  3  0  0  0  0  0  0
  -21.3960   -4.7630   24.9740 C   0  0  0  0  0  0  0  0  0  0  0  0
  -21.8310   -4.1730   23.7740 C   0  0  0  0  0  3  0  0  0  0  0  0
  -21.9480   -4.9540   22.6110 C   0  0  0  0  0  0  0  0  0  0  0  0
  -22.3490   -4.3750   21.4520 F   0  0  0  0  0  0  0  0  0  0  0  0
  -21.2760   -4.0080   26.0910 F   0  0  0  0  0  0  0  0  0  0  0  0
  -22.7880  -13.6760   21.1740 C   0  0  0  0  0  0  0  0  0  0  0  0
  -22.1040  -12.9690   22.0660 N   0  0  0  0  0  0  0  0  0  0  0  0
  -22.3280  -14.7100   20.6930 O   0  0  0  0  0  0  0  0  0  0  0  0
  -22.4890  -12.1300   22.4760 H   0  0  0  0  0  0  0  0  0  0  0  0
  -21.1810  -13.2700   22.3440 H   0  0  0  0  0  0  0  0  0  0  0  0
  -25.3660  -15.3530   20.2400 N   0  0  0  0  0  0  0  0  0  0  0  0
  -24.6060  -16.0050   20.4040 H   0  0  0  0  0  0  0  0  0  0  0  0
  -26.1940  -15.7970   19.8640 H   0  0  0  0  0  0  0  0  0  0  0  0
  -31.2480  -17.8530   22.4290 C   0  0  0  0  0  1  0  0  0  0  0  0
  -32.8080  -17.8290   20.4490 C   0  0  0  0  0  1  0  0  0  0  0  0
  -31.4310  -18.2890   20.9610 C   0  0  0  0  0  3  0  0  0  0  0  0
  -28.2390  -23.3460   20.2830 C   0  0  0  0  0  0  0  0  0  0  0  0
  -27.0590  -23.0920   20.5470 O   0  0  0  0  0  0  0  0  0  0  0  0
  -28.5150  -24.8840   19.6500 C   0  0  0  0  0  2  0  0  0  0  0  0
  -28.2910  -26.2810   20.3460 O   0  0  0  0  0  0  0  0  0  0  0  0
  -24.6230  -31.9570   23.2610 C   0  0  0  0  0  0  0  0  0  0  0  0
  -27.2250  -27.2540   20.1940 C   0  0  0  0  0  0  0  0  0  0  0  0
  -23.4250  -30.5550   21.6230 C   0  0  0  0  0  3  0  0  0  0  0  0
  -24.8790  -28.9930   20.1730 C   0  0  0  0  0  0  0  0  0  0  0  0
  -25.9750  -30.8390   21.4430 C   0  0  0  0  0  2  0  0  0  0  0  0
  -26.0530  -29.4460   20.7840 C   0  0  0  0  0  0  0  0  0  0  0  0
  -27.2190  -28.5880   20.7810 C   0  0  0  0  0  3  0  0  0  0  0  0
  -26.0280  -26.9080   19.5320 C   0  0  0  0  0  3  0  0  0  0  0  0
  -24.8810  -27.7430   19.5300 C   0  0  0  0  0  3  0  0  0  0  0  0
  -23.6420  -29.8800   20.2380 C   0  0  0  0  0  2  0  0  0  0  0  0
  -24.6930  -31.1420   22.1630 N   0  0  0  0  0  0  0  0  0  0  0  0
  -23.5370  -32.2290   23.7990 O   0  0  0  0  0  0  0  0  0  0  0  0
  -22.7610  -29.5440   22.5870 C   0  0  0  0  0  0  0  0  0  0  0  0
  -21.4360  -29.3460   22.4550 N   0  0  0  0  0  0  0  0  0  0  0  0
  -23.4390  -28.9370   23.4200 O   0  0  0  0  0  0  0  0  0  0  0  0
  -20.9420  -29.8880   21.7580 H   0  0  0  0  0  0  0  0  0  0  0  0
  -18.0830  -28.0530   22.9230 C   0  0  0  0  0  0  0  0  0  0  0  0
  -20.6300  -28.3960   23.2250 C   0  0  0  0  0  3  0  0  0  0  0  0
  -20.7810  -26.9590   22.6690 C   0  0  0  0  0  2  0  0  0  0  0  0
  -19.7050  -26.5930   21.6430 C   0  0  0  0  0  2  0  0  0  0  0  0
  -18.3090  -26.7040   22.2630 C   0  0  0  0  0  2  0  0  0  0  0  0
  -19.1730  -28.8540   23.3590 C   0  0  0  0  0  0  0  0  0  0  0  0
  -18.9070  -30.1140   23.9350 C   0  0  0  0  0  3  0  0  0  0  0  0
  -17.5850  -30.5760   24.0800 C   0  0  0  0  0  3  0  0  0  0  0  0
  -16.5100  -29.7750   23.6570 C   0  0  0  0  0  3  0  0  0  0  0  0
  -16.7600  -28.5150   23.0850 C   0  0  0  0  0  3  0  0  0  0  0  0
  -25.8990  -32.6020   23.8860 C   0  0  0  0  0  3  0  0  0  0  0  0
  -25.5840  -34.0040   24.2070 N   0  0  0  0  0  0  0  0  0  0  0  0
  -25.9110  -35.0580   23.4470 C   0  0  0  0  0  0  0  0  0  0  0  0
  -26.5750  -34.9530   22.4140 O   0  0  0  0  0  0  0  0  0  0  0  0
  -24.9970  -34.1620   25.0140 H   0  0  0  0  0  0  0  0  0  0  0  0
  -24.1710  -36.8430   23.1090 C   0  0  0  0  0  1  0  0  0  0  0  0
  -25.4240  -36.4470   23.9060 C   0  0  0  0  0  3  0  0  0  0  0  0
  -27.5640  -37.3480   24.7020 C   0  0  0  0  0  1  0  0  0  0  0  0
  -26.4490  -37.5060   23.7720 N   0  0  0  0  0  0  0  0  0  0  0  0
  -26.0380  -38.4250   23.9180 H   0  0  0  0  0  0  0  0  0  0  0  0
  -26.4100  -31.8470   25.1740 C   0  0  1  0  0  0  0  0  0  0  0  0
  -25.3110  -31.6130   26.2360 C   0  0  0  0  0  1  0  0  0  0  0  0
  -27.0030  -30.4690   24.8040 C   0  0  0  0  0  1  0  0  0  0  0  0
  -27.5510  -32.6550   25.8380 C   0  0  0  0  0  1  0  0  0  0  0  0
  3  2  1  1
  3  1  1  0
  4  6  2  0
  5  4  1  0
  5  3  1  0
  7  5  1  0
  8 17  1  0
  8  4  1  0
  8 49  1  0
  9 15  1  0
  9 17  1  0
 10 15  1  0
 11 12  1  0
 11 10  1  0
 13 12  1  0
 13 22  1  0
 13 14  1  0
 15 14  1  0
 16  9  2  0
 17 18  1  0
 19 20  2  0
 20 39  1  0
 21 20  1  0
 21 24  1  0
 22 23  1  0
 22 19  1  0
 23 21  2  0
 24 25  1  0
 25 26  2  0
 27 30  1  0
 27 26  1  0
 28 27  2  0
 29 28  1  0
 29 24  2  0
 30 31  1  0
 31 32  1  0
 32 33  2  0
 34 33  1  0
 34 38  1  0
 35 34  2  0
 36 31  2  0
 36 35  1  0
 37 36  1  0
 39 40  1  0
 40 43  1  0
 40 42  1  0
 41 39  2  0
 44 45  1  0
 44 19  1  0
 46 44  1  0
 48 49  1  0
 49 47  1  0
 50 51  2  0
 50  3  1  0
 52 50  1  0
 52 53  1  0
 54 65  2  0
 55 53  1  0
 55 60  1  0
 56 64  1  0
 56 66  1  0
 57 63  1  0
 57 59  1  0
 58 64  1  0
 59 58  1  0
 60 59  2  0
 61 55  2  0
 62 61  1  0
 62 57  2  0
 63 56  1  0
 64 54  1  0
 66 68  2  0
 67 66  1  0
 69 67  1  0
 70 79  2  0
 70 75  1  0
 71 67  1  0
 71 75  1  0
 72 71  1  0
 73 74  1  0
 73 72  1  0
 74 70  1  0
 75 76  2  0
 76 77  1  0
 78 77  2  0
 79 78  1  0
 80 54  1  0
 80 81  1  0
 80 90  1  0
 81 84  1  0
 82 86  1  0
 82 81  1  0
 83 82  2  0
 86 85  1  0
 88 86  1  0
 88 89  1  0
 88 87  1  0
 90 93  1  1
 90 91  1  0
 92 90  1  0
M  ISO  4   9 100  17 100  52 101  53 101
M  END
>  <TORSDO>  (34) 
F 21

>  <SCORE>  (34) 
-13.285

>  <name>  (34) 
33

>  <ligand_id>  (34) 
33

>  <original_smiles>  (34) 
[H]c1c([H])c([H])c2c(c1[H])C([H])([H])C([H])([H])C([H])([H])C2([H])N([H])C(=O)C1([H])N(C(=O)C([H])(N([H])C(=O)C([H])(N([H])C([H])([H])[H])C([H])([H])[H])C(C([H])([H])[H])(C([H])([H])[H])C([H])([H])[H])C([H])([H])c2c([H])c(OC([H])([H])C(=O)C(N([H])C(=O)C([H])(N([H])C(=O)N3C([H])([H])C([H])([H])C([H])([H])C([H])(n4nc(-c5c([H])c([H])c(Oc6c([H])c([H])c(F)c([H])c6F)c([H])c5[H])c(C(=O)N([H])[H])c4N([H])[H])C3([H])[H])C([H])(C([H])([H])[H])C([H])([H])[H])(C([H])([H])[H])C([H])([H])[H])c([H])c([H])c2C1([H])[H]

>  <smiles>  (34) 
[H]c1c([H])c([H])c2c(c1[H])C([H])([H])C([H])([H])C([H])([H])C2([H])N([H])C(=O)C1([H])N(C(=O)C([H])(N([H])C(=O)C([H])(N([H])C([H])([H])[H])C([H])([H])[H])C(C([H])([H])[H])(C([H])([H])[H])C([H])([H])[H])C([H])([H])c2c([H])c(OC([H])([H])C(=O)C(N([H])C(=O)C([H])(N([H])C(=O)N3C([H])([H])C([H])([H])C([H])([H])C([H])(n4nc(-c5c([H])c([H])c(Oc6c([H])c([H])c(F)c([H])c6F)c([H])c5[H])c(C(=O)N([H])[H])c4N([H])[H])C3([H])[H])C([H])(C([H])([H])[H])C([H])([H])[H])(C([H])([H])[H])C([H])([H])[H])c([H])c([H])c2C1([H])[H]

$$$$
34:0:0
     RDKit          3D

 94102  0  0  1  0  0  0  0  0999 V2000
  -29.0890  -22.4880   20.3350 C   0  0  0  0  0  3  0  0  0  0  0  0
  -28.8050  -21.2030   19.8830 C   0  0  0  0  0  0  0  0  0  0  0  0
  -30.5520  -14.7500   20.3730 C   0  0  0  0  0  0  0  0  0  0  0  0
  -30.3990  -12.4710   19.3560 C   0  0  0  0  0  2  0  0  0  0  0  0
  -29.4550  -12.5500   18.1350 C   0  0  0  0  0  2  0  0  0  0  0  0
  -27.9860  -12.3690   18.5670 C   0  0  0  0  0  2  0  0  0  0  0  0
  -27.6090  -13.2550   19.7840 C   0  0  0  0  0  3  0  0  0  0  0  0
  -28.6670  -13.1450   20.9050 C   0  0  0  0  0  2  0  0  0  0  0  0
  -29.9660  -13.5070   20.3200 N   0  0  0  0  0  0  0  0  0  0  0  0
  -31.7360  -14.8930   20.0460 O   0  0  0  0  0  0  0  0  0  0  0  0
  -29.3780  -19.8450   20.1940 C   0  0  0  0  0  0  0  0  0  0  0  0
  -30.6740  -19.4410   20.5020 C   0  0  0  0  0  0  0  0  0  0  0  0
  -29.7820  -17.2820   20.4520 C   0  0  0  0  0  0  0  0  0  0  0  0
  -30.8840  -18.0360   20.6280 N   0  0  0  0  0  0  0  0  0  0  0  0
  -29.6910  -15.8120   20.5830 N   0  0  0  0  0  0  0  0  0  0  0  0
  -28.3800  -18.3610   20.1310 S   0  0  0  0  0  0  0  0  0  0  0  0
  -28.7510  -15.4910   20.7480 H   0  0  0  0  0  0  0  0  0  0  0  0
  -25.2200  -13.8540   20.5080 C   0  0  0  0  0  0  0  0  0  0  0  0
  -24.1540  -13.0810   20.8810 C   0  0  0  0  0  0  0  0  0  0  0  0
  -24.6170  -11.7290   20.8520 C   0  0  0  0  0  0  0  0  0  0  0  0
  -26.2640  -12.9720   20.2730 N   0  0  0  0  0  0  0  0  0  0  0  0
  -25.9070  -11.6900   20.5440 N   0  0  0  0  0  0  0  0  0  0  0  0
  -23.8920  -10.4660   21.0440 C   0  0  0  0  0  0  0  0  0  0  0  0
  -24.3280   -9.4990   21.9760 C   0  0  0  0  0  3  0  0  0  0  0  0
  -23.6020   -8.3020   22.1560 C   0  0  0  0  0  3  0  0  0  0  0  0
  -22.4280   -8.0620   21.4030 C   0  0  0  0  0  0  0  0  0  0  0  0
  -22.0130   -9.0180   20.4600 C   0  0  0  0  0  3  0  0  0  0  0  0
  -22.7380  -10.2080   20.2780 C   0  0  0  0  0  3  0  0  0  0  0  0
  -21.6760   -6.9160   21.4910 O   0  0  0  0  0  0  0  0  0  0  0  0
  -21.6330   -6.1700   22.6400 C   0  0  0  0  0  0  0  0  0  0  0  0
  -21.2120   -6.7210   23.8710 C   0  0  0  0  0  3  0  0  0  0  0  0
  -21.1170   -5.9020   25.0130 C   0  0  0  0  0  3  0  0  0  0  0  0
  -21.4320   -4.5330   24.9270 C   0  0  0  0  0  0  0  0  0  0  0  0
  -21.8450   -3.9810   23.7020 C   0  0  0  0  0  3  0  0  0  0  0  0
  -21.9430   -4.7980   22.5610 C   0  0  0  0  0  0  0  0  0  0  0  0
  -22.3220   -4.2560   21.3780 F   0  0  0  0  0  0  0  0  0  0  0  0
  -21.3330   -3.7440   26.0220 F   0  0  0  0  0  0  0  0  0  0  0  0
  -22.7570  -13.5570   21.1500 C   0  0  0  0  0  0  0  0  0  0  0  0
  -22.0250  -12.8600   22.0130 N   0  0  0  0  0  0  0  0  0  0  0  0
  -22.3190  -14.5820   20.6290 O   0  0  0  0  0  0  0  0  0  0  0  0
  -22.3900  -12.0300   22.4570 H   0  0  0  0  0  0  0  0  0  0  0  0
  -21.0880  -13.1620   22.2350 H   0  0  0  0  0  0  0  0  0  0  0  0
  -25.3800  -15.2250   20.3270 N   0  0  0  0  0  0  0  0  0  0  0  0
  -24.6000  -15.8650   20.4240 H   0  0  0  0  0  0  0  0  0  0  0  0
  -26.1990  -15.6630   19.9270 H   0  0  0  0  0  0  0  0  0  0  0  0
  -31.7750  -20.2860   20.6490 N   0  0  0  0  0  0  0  0  0  0  0  0
  -31.7100  -21.2410   20.3170 H   0  0  0  0  0  0  0  0  0  0  0  0
  -32.7080  -19.8910   20.5990 H   0  0  0  0  0  0  0  0  0  0  0  0
  -28.5230  -23.8360   19.8130 C   0  0  0  0  0  0  0  0  0  0  0  0
  -28.2950  -24.0000   18.6100 O   0  0  0  0  0  0  0  0  0  0  0  0
  -28.2230  -25.0860   20.7580 C   0  0  0  0  0  2  0  0  0  0  0  0
  -28.3460  -26.4620   20.1790 O   0  0  0  0  0  0  0  0  0  0  0  0
  -24.6040  -31.8810   23.2300 C   0  0  0  0  0  0  0  0  0  0  0  0
  -27.2240  -27.3080   20.1910 C   0  0  0  0  0  0  0  0  0  0  0  0
  -23.4020  -30.4760   21.5940 C   0  0  0  0  0  3  0  0  0  0  0  0
  -24.8570  -28.9190   20.1740 C   0  0  0  0  0  0  0  0  0  0  0  0
  -25.9400  -30.7990   21.4060 C   0  0  0  0  0  2  0  0  0  0  0  0
  -26.0250  -29.4160   20.7640 C   0  0  0  0  0  0  0  0  0  0  0  0
  -27.2160  -28.6250   20.7540 C   0  0  0  0  0  3  0  0  0  0  0  0
  -26.0330  -26.8590   19.5870 C   0  0  0  0  0  3  0  0  0  0  0  0
  -24.8630  -27.6480   19.5750 C   0  0  0  0  0  3  0  0  0  0  0  0
  -23.6170  -29.7910   20.2180 C   0  0  0  0  0  2  0  0  0  0  0  0
  -24.6680  -31.0700   22.1330 N   0  0  0  0  0  0  0  0  0  0  0  0
  -23.5190  -32.1580   23.7660 O   0  0  0  0  0  0  0  0  0  0  0  0
  -22.7410  -29.4620   22.5590 C   0  0  0  0  0  0  0  0  0  0  0  0
  -21.4150  -29.2870   22.4370 N   0  0  0  0  0  0  0  0  0  0  0  0
  -23.4220  -28.8360   23.3750 O   0  0  0  0  0  0  0  0  0  0  0  0
  -20.9240  -29.8450   21.7510 H   0  0  0  0  0  0  0  0  0  0  0  0
  -18.0380  -28.0950   22.9500 C   0  0  0  0  0  0  0  0  0  0  0  0
  -20.5970  -28.3500   23.2110 C   0  0  0  0  0  3  0  0  0  0  0  0
  -20.6950  -26.9180   22.6320 C   0  0  0  0  0  2  0  0  0  0  0  0
  -19.5880  -26.5980   21.6230 C   0  0  0  0  0  2  0  0  0  0  0  0
  -18.2090  -26.7460   22.2720 C   0  0  0  0  0  2  0  0  0  0  0  0
  -19.1590  -28.8540   23.3770 C   0  0  0  0  0  0  0  0  0  0  0  0
  -18.9440  -30.1170   23.9720 C   0  0  0  0  0  3  0  0  0  0  0  0
  -17.6420  -30.6200   24.1440 C   0  0  0  0  0  3  0  0  0  0  0  0
  -16.5350  -29.8560   23.7350 C   0  0  0  0  0  3  0  0  0  0  0  0
  -16.7330  -28.5970   23.1430 C   0  0  0  0  0  3  0  0  0  0  0  0
  -25.8860  -32.5190   23.8520 C   0  0  0  0  0  3  0  0  0  0  0  0
  -26.4030  -31.7540   25.1320 C   0  0  1  0  0  0  0  0  0  0  0  0
  -25.3080  -31.5200   26.2010 C   0  0  0  0  0  1  0  0  0  0  0  0
  -26.9880  -30.3760   24.7460 C   0  0  0  0  0  1  0  0  0  0  0  0
  -27.5520  -32.5520   25.7910 C   0  0  0  0  0  1  0  0  0  0  0  0
  -25.5750  -33.9190   24.1790 N   0  0  0  0  0  0  0  0  0  0  0  0
  -25.9070  -34.9700   23.4200 C   0  0  0  0  0  0  0  0  0  0  0  0
  -26.5780  -34.8660   22.3890 O   0  0  0  0  0  0  0  0  0  0  0  0
  -24.9840  -34.0740   24.9830 H   0  0  0  0  0  0  0  0  0  0  0  0
  -24.1860  -36.7660   23.0550 C   0  0  0  0  0  1  0  0  0  0  0  0
  -25.4200  -36.3590   23.8750 C   0  0  0  0  0  3  0  0  0  0  0  0
  -27.5510  -37.2390   24.7200 C   0  0  0  0  0  1  0  0  0  0  0  0
  -26.4550  -37.4110   23.7710 N   0  0  0  0  0  0  0  0  0  0  0  0
  -26.0500  -38.3310   23.9160 H   0  0  0  0  0  0  0  0  0  0  0  0
  -27.8680  -21.0850   18.9270 O   0  0  0  0  0  0  0  0  0  0  0  0
  -27.7810  -20.1650   18.7150 H   0  0  0  0  0  0  0  0  0  0  0  0
  2 11  1  0
  2  1  2  0
  3 15  1  0
  4  9  1  0
  5  6  1  0
  5  4  1  0
  7  6  1  0
  7 21  1  0
  7  8  1  0
  9  3  1  0
  9  8  1  0
 10  3  2  0
 11 12  2  0
 12 14  1  0
 12 46  1  0
 13 15  1  0
 13 14  2  0
 15 17  1  0
 16 11  1  0
 16 13  1  0
 18 19  2  0
 19 38  1  0
 20 19  1  0
 20 23  1  0
 21 18  1  0
 21 22  1  0
 22 20  2  0
 23 24  1  0
 24 25  2  0
 26 29  1  0
 26 25  1  0
 27 26  2  0
 28 27  1  0
 28 23  2  0
 29 30  1  0
 30 31  1  0
 31 32  2  0
 33 32  1  0
 33 37  1  0
 34 33  2  0
 35 30  2  0
 35 34  1  0
 36 35  1  0
 38 39  1  0
 39 42  1  0
 39 41  1  0
 40 38  2  0
 43 44  1  0
 43 18  1  0
 45 43  1  0
 47 46  1  0
 48 46  1  0
 49  1  1  0
 49 51  1  0
 50 49  2  0
 52 54  1  0
 52 51  1  0
 53 64  2  0
 54 59  1  0
 55 63  1  0
 55 65  1  0
 56 62  1  0
 56 58  1  0
 57 63  1  0
 58 57  1  0
 59 58  2  0
 60 54  2  0
 61 60  1  0
 61 56  2  0
 62 55  1  0
 63 53  1  0
 65 67  2  0
 66 65  1  0
 68 66  1  0
 69 78  2  0
 69 74  1  0
 70 66  1  0
 70 74  1  0
 71 70  1  0
 72 73  1  0
 72 71  1  0
 73 69  1  0
 74 75  2  0
 75 76  1  0
 77 76  2  0
 78 77  1  0
 79 53  1  0
 79 84  1  0
 79 80  1  0
 80 83  1  1
 80 81  1  0
 82 80  1  0
 84 87  1  0
 85 89  1  0
 85 84  1  0
 86 85  2  0
 89 88  1  0
 91 89  1  0
 91 92  1  0
 91 90  1  0
 93  2  1  0
 94 93  1  0
M  ISO  4   3 100  15 100  51 101  52 101
M  END
>  <TORSDO>  (35) 
F 20

>  <SCORE>  (35) 
-14.410

>  <name>  (35) 
34

>  <ligand_id>  (35) 
34

>  <original_smiles>  (35) 
[H]OC(=C([H])C(=O)C([H])([H])Oc1c([H])c([H])c2c(c1[H])C([H])([H])N(C(=O)C([H])(N([H])C(=O)C([H])(N([H])C([H])([H])[H])C([H])([H])[H])C(C([H])([H])[H])(C([H])([H])[H])C([H])([H])[H])C([H])(C(=O)N([H])C1([H])c3c([H])c([H])c([H])c([H])c3C([H])([H])C([H])([H])C1([H])[H])C2([H])[H])c1sc(N([H])C(=O)N2C([H])([H])C([H])([H])C([H])([H])C([H])(n3nc(-c4c([H])c([H])c(Oc5c([H])c([H])c(F)c([H])c5F)c([H])c4[H])c(C(=O)N([H])[H])c3N([H])[H])C2([H])[H])nc1N([H])[H]

>  <smiles>  (35) 
[H]OC(=C([H])C(=O)C([H])([H])Oc1c([H])c([H])c2c(c1[H])C([H])([H])N(C(=O)C([H])(N([H])C(=O)C([H])(N([H])C([H])([H])[H])C([H])([H])[H])C(C([H])([H])[H])(C([H])([H])[H])C([H])([H])[H])C([H])(C(=O)N([H])C1([H])c3c([H])c([H])c([H])c([H])c3C([H])([H])C([H])([H])C1([H])[H])C2([H])[H])c1sc(N([H])C(=O)N2C([H])([H])C([H])([H])C([H])([H])C([H])(n3nc(-c4c([H])c([H])c(Oc5c([H])c([H])c(F)c([H])c5F)c([H])c4[H])c(C(=O)N([H])[H])c3N([H])[H])C2([H])[H])nc1N([H])[H]

$$$$
35:0:0
     RDKit          3D

 96104  0  0  1  0  0  0  0  0999 V2000
  -29.0600  -20.1050   19.1800 C   0  0  0  0  0  3  0  0  0  0  0  0
  -29.0300  -20.9590   20.2150 C   0  0  0  0  0  3  0  0  0  0  0  0
  -30.7370  -14.7000   21.1050 C   0  0  0  0  0  0  0  0  0  0  0  0
  -30.6030  -12.4820   20.0770 C   0  0  0  0  0  2  0  0  0  0  0  0
  -29.7890  -12.6080   18.7720 C   0  0  0  0  0  2  0  0  0  0  0  0
  -28.2760  -12.4930   19.0460 C   0  0  0  0  0  2  0  0  0  0  0  0
  -27.7970  -13.3670   20.2360 C   0  0  0  0  0  3  0  0  0  0  0  0
  -28.7380  -13.2110   21.4560 C   0  0  0  0  0  2  0  0  0  0  0  0
  -30.1110  -13.5000   21.0140 N   0  0  0  0  0  0  0  0  0  0  0  0
  -31.9240  -14.8760   20.8180 O   0  0  0  0  0  0  0  0  0  0  0  0
  -29.3060  -18.6630   19.2310 C   0  0  0  0  0  0  0  0  0  0  0  0
  -29.5730  -17.9330   18.0940 C   0  0  0  0  0  0  0  0  0  0  0  0
  -29.7730  -16.6860   20.2080 C   0  0  0  0  0  0  0  0  0  0  0  0
  -29.3870  -17.9480   20.4370 N   0  0  0  0  0  0  0  0  0  0  0  0
  -29.9210  -15.7490   21.2590 N   0  0  0  0  0  0  0  0  0  0  0  0
  -30.0070  -16.3050   18.4950 S   0  0  0  0  0  0  0  0  0  0  0  0
  -29.0750  -15.5690   21.7760 H   0  0  0  0  0  0  0  0  0  0  0  0
  -25.3250  -13.9390   20.6920 C   0  0  0  0  0  0  0  0  0  0  0  0
  -24.2420  -13.1510   20.9760 C   0  0  0  0  0  0  0  0  0  0  0  0
  -24.7320  -11.8100   21.0220 C   0  0  0  0  0  0  0  0  0  0  0  0
  -26.4070  -13.0770   20.5860 N   0  0  0  0  0  0  0  0  0  0  0  0
  -26.0460  -11.7930   20.8430 N   0  0  0  0  0  0  0  0  0  0  0  0
  -24.0180  -10.5350   21.1720 C   0  0  0  0  0  0  0  0  0  0  0  0
  -24.3850   -9.5940   22.1590 C   0  0  0  0  0  3  0  0  0  0  0  0
  -23.6740   -8.3830   22.2940 C   0  0  0  0  0  3  0  0  0  0  0  0
  -22.5800   -8.1040   21.4400 C   0  0  0  0  0  0  0  0  0  0  0  0
  -22.2330   -9.0340   20.4450 C   0  0  0  0  0  3  0  0  0  0  0  0
  -22.9470  -10.2360   20.3070 C   0  0  0  0  0  3  0  0  0  0  0  0
  -21.8460   -6.9440   21.4820 O   0  0  0  0  0  0  0  0  0  0  0  0
  -21.7090   -6.2210   22.6390 C   0  0  0  0  0  0  0  0  0  0  0  0
  -21.1230   -6.7740   23.7980 C   0  0  0  0  0  3  0  0  0  0  0  0
  -20.9370   -5.9740   24.9430 C   0  0  0  0  0  3  0  0  0  0  0  0
  -21.3270   -4.6210   24.9290 C   0  0  0  0  0  0  0  0  0  0  0  0
  -21.9080   -4.0670   23.7740 C   0  0  0  0  0  3  0  0  0  0  0  0
  -22.0940   -4.8650   22.6320 C   0  0  0  0  0  0  0  0  0  0  0  0
  -22.6350   -4.3210   21.5140 F   0  0  0  0  0  0  0  0  0  0  0  0
  -21.1400   -3.8500   26.0250 F   0  0  0  0  0  0  0  0  0  0  0  0
  -22.8150  -13.6030   21.1010 C   0  0  0  0  0  0  0  0  0  0  0  0
  -22.0220  -12.9100   21.9100 N   0  0  0  0  0  0  0  0  0  0  0  0
  -22.4070  -14.6030   20.5110 O   0  0  0  0  0  0  0  0  0  0  0  0
  -22.3600  -12.1020   22.4120 H   0  0  0  0  0  0  0  0  0  0  0  0
  -21.0620  -13.1960   22.0360 H   0  0  0  0  0  0  0  0  0  0  0  0
  -25.4800  -15.3080   20.4980 N   0  0  0  0  0  0  0  0  0  0  0  0
  -24.6930  -15.9480   20.5240 H   0  0  0  0  0  0  0  0  0  0  0  0
  -26.3450  -15.7580   20.2270 H   0  0  0  0  0  0  0  0  0  0  0  0
  -29.5690  -18.3350   16.7590 N   0  0  0  0  0  0  0  0  0  0  0  0
  -29.2840  -19.2590   16.4480 H   0  0  0  0  0  0  0  0  0  0  0  0
  -29.7430  -17.7040   15.9830 H   0  0  0  0  0  0  0  0  0  0  0  0
  -28.9510  -23.3010   20.8820 C   0  0  0  0  0  0  0  0  0  0  0  0
  -28.8700  -22.3210   19.9770 N   0  0  0  0  0  0  0  0  0  0  0  0
  -29.0250  -23.1500   22.1060 O   0  0  0  0  0  0  0  0  0  0  0  0
  -28.8300  -22.6330   19.0160 H   0  0  0  0  0  0  0  0  0  0  0  0
  -28.9720  -24.6690   20.1680 C   0  0  0  0  0  0  0  0  0  0  0  0
  -29.4510  -24.8080   19.0330 O   0  0  0  0  0  0  0  0  0  0  0  0
  -28.3390  -25.8380   20.9150 C   0  0  0  0  0  2  0  0  0  0  0  0
  -28.3140  -26.9880   20.0700 O   0  0  0  0  0  0  0  0  0  0  0  0
  -24.5000  -31.9940   23.3020 C   0  0  0  0  0  0  0  0  0  0  0  0
  -27.1300  -27.6700   20.1060 C   0  0  0  0  0  0  0  0  0  0  0  0
  -23.2720  -30.6050   21.6600 C   0  0  0  0  0  3  0  0  0  0  0  0
  -24.7140  -29.1080   20.1830 C   0  0  0  0  0  0  0  0  0  0  0  0
  -25.7820  -31.0100   21.4100 C   0  0  0  0  0  2  0  0  0  0  0  0
  -25.8720  -29.6510   20.7510 C   0  0  0  0  0  0  0  0  0  0  0  0
  -27.0860  -28.9400   20.7080 C   0  0  0  0  0  3  0  0  0  0  0  0
  -25.9620  -27.1230   19.5330 C   0  0  0  0  0  3  0  0  0  0  0  0
  -24.7500  -27.8400   19.5720 C   0  0  0  0  0  3  0  0  0  0  0  0
  -23.4590  -29.9450   20.2650 C   0  0  0  0  0  2  0  0  0  0  0  0
  -24.5370  -31.2160   22.1830 N   0  0  0  0  0  0  0  0  0  0  0  0
  -23.4290  -32.2450   23.8710 O   0  0  0  0  0  0  0  0  0  0  0  0
  -22.6540  -29.5620   22.6170 C   0  0  0  0  0  0  0  0  0  0  0  0
  -21.3360  -29.3430   22.4900 N   0  0  0  0  0  0  0  0  0  0  0  0
  -23.3570  -28.9520   23.4280 O   0  0  0  0  0  0  0  0  0  0  0  0
  -20.8300  -29.8890   21.8070 H   0  0  0  0  0  0  0  0  0  0  0  0
  -18.0000  -28.0410   22.9590 C   0  0  0  0  0  0  0  0  0  0  0  0
  -20.5450  -28.3810   23.2560 C   0  0  0  0  0  3  0  0  0  0  0  0
  -20.6990  -26.9530   22.6810 C   0  0  0  0  0  2  0  0  0  0  0  0
  -19.6170  -26.5940   21.6570 C   0  0  0  0  0  2  0  0  0  0  0  0
  -18.2260  -26.6960   22.2890 C   0  0  0  0  0  2  0  0  0  0  0  0
  -19.0900  -28.8400   23.3980 C   0  0  0  0  0  0  0  0  0  0  0  0
  -18.8260  -30.0970   23.9820 C   0  0  0  0  0  3  0  0  0  0  0  0
  -17.5050  -30.5580   24.1330 C   0  0  0  0  0  3  0  0  0  0  0  0
  -16.4300  -29.7570   23.7120 C   0  0  0  0  0  3  0  0  0  0  0  0
  -16.6780  -28.5010   23.1310 C   0  0  0  0  0  3  0  0  0  0  0  0
  -25.7950  -32.6250   23.9050 C   0  0  0  0  0  3  0  0  0  0  0  0
  -26.3220  -31.8630   25.1820 C   0  0  1  0  0  0  0  0  0  0  0  0
  -25.2390  -31.6310   26.2600 C   0  0  0  0  0  1  0  0  0  0  0  0
  -26.9030  -30.4830   24.7920 C   0  0  0  0  0  1  0  0  0  0  0  0
  -27.4780  -32.6610   25.8310 C   0  0  0  0  0  1  0  0  0  0  0  0
  -25.4980  -34.0270   24.2210 N   0  0  0  0  0  0  0  0  0  0  0  0
  -25.8520  -35.0690   23.4570 C   0  0  0  0  0  0  0  0  0  0  0  0
  -26.5370  -34.9500   22.4370 O   0  0  0  0  0  0  0  0  0  0  0  0
  -24.8930  -34.1950   25.0110 H   0  0  0  0  0  0  0  0  0  0  0  0
  -24.1700  -36.8880   23.0360 C   0  0  0  0  0  1  0  0  0  0  0  0
  -25.3710  -36.4660   23.8950 C   0  0  0  0  0  3  0  0  0  0  0  0
  -27.4840  -37.3180   24.8100 C   0  0  0  0  0  1  0  0  0  0  0  0
  -26.4260  -37.5000   23.8210 N   0  0  0  0  0  0  0  0  0  0  0  0
  -26.0300  -38.4280   23.9470 H   0  0  0  0  0  0  0  0  0  0  0  0
  1 11  1  0
  1  2  2  0
  3 15  1  0
  4  9  1  0
  5  6  1  0
  5  4  1  0
  7  6  1  0
  7 21  1  0
  7  8  1  0
  9  3  1  0
  9  8  1  0
 10  3  2  0
 11 14  1  0
 12 16  1  0
 12 11  2  0
 13 14  2  0
 13 15  1  0
 15 17  1  0
 16 13  1  0
 18 19  2  0
 19 20  1  0
 19 38  1  0
 20 23  1  0
 21 18  1  0
 21 22  1  0
 22 20  2  0
 23 24  1  0
 24 25  2  0
 26 29  1  0
 26 25  1  0
 27 26  2  0
 28 27  1  0
 28 23  2  0
 29 30  1  0
 30 31  1  0
 31 32  2  0
 33 32  1  0
 33 37  1  0
 34 33  2  0
 35 30  2  0
 35 34  1  0
 36 35  1  0
 38 39  1  0
 39 42  1  0
 39 41  1  0
 40 38  2  0
 43 44  1  0
 43 18  1  0
 45 43  1  0
 46 12  1  0
 47 46  1  0
 48 46  1  0
 49 51  2  0
 50  2  1  0
 50 49  1  0
 52 50  1  0
 53 49  1  0
 53 55  1  0
 54 53  2  0
 56 58  1  0
 56 55  1  0
 57 68  2  0
 58 63  1  0
 59 67  1  0
 59 69  1  0
 60 66  1  0
 60 62  1  0
 61 67  1  0
 62 61  1  0
 63 62  2  0
 64 65  1  0
 64 58  2  0
 65 60  2  0
 66 59  1  0
 67 57  1  0
 69 71  2  0
 70 69  1  0
 72 70  1  0
 73 82  2  0
 73 78  1  0
 74 70  1  0
 74 78  1  0
 75 74  1  0
 76 77  1  0
 76 75  1  0
 77 73  1  0
 78 79  2  0
 79 80  1  0
 81 80  2  0
 82 81  1  0
 83 57  1  0
 83 88  1  0
 83 84  1  0
 84 87  1  1
 84 85  1  0
 86 84  1  0
 88 91  1  0
 89 93  1  0
 89 88  1  0
 90 89  2  0
 93 92  1  0
 95 93  1  0
 95 96  1  0
 95 94  1  0
M  ISO  4   3 100  15 100  55 101  56 101
M  END
>  <TORSDO>  (36) 
F 20

>  <SCORE>  (36) 
-13.557

>  <name>  (36) 
35

>  <ligand_id>  (36) 
35

>  <original_smiles>  (36) 
[H]C(=C([H])N([H])C(=O)C(=O)C([H])([H])Oc1c([H])c([H])c2c(c1[H])C([H])([H])N(C(=O)C([H])(N([H])C(=O)C([H])(N([H])C([H])([H])[H])C([H])([H])[H])C(C([H])([H])[H])(C([H])([H])[H])C([H])([H])[H])C([H])(C(=O)N([H])C1([H])c3c([H])c([H])c([H])c([H])c3C([H])([H])C([H])([H])C1([H])[H])C2([H])[H])c1nc(N([H])C(=O)N2C([H])([H])C([H])([H])C([H])([H])C([H])(n3nc(-c4c([H])c([H])c(Oc5c([H])c([H])c(F)c([H])c5F)c([H])c4[H])c(C(=O)N([H])[H])c3N([H])[H])C2([H])[H])sc1N([H])[H]

>  <smiles>  (36) 
[H]C(=C([H])N([H])C(=O)C(=O)C([H])([H])Oc1c([H])c([H])c2c(c1[H])C([H])([H])N(C(=O)C([H])(N([H])C(=O)C([H])(N([H])C([H])([H])[H])C([H])([H])[H])C(C([H])([H])[H])(C([H])([H])[H])C([H])([H])[H])C([H])(C(=O)N([H])C1([H])c3c([H])c([H])c([H])c([H])c3C([H])([H])C([H])([H])C1([H])[H])C2([H])[H])c1nc(N([H])C(=O)N2C([H])([H])C([H])([H])C([H])([H])C([H])(n3nc(-c4c([H])c([H])c(Oc5c([H])c([H])c(F)c([H])c5F)c([H])c4[H])c(C(=O)N([H])[H])c3N([H])[H])C2([H])[H])sc1N([H])[H]

$$$$
36:0:0
     RDKit          3D

 96104  0  0  1  0  0  0  0  0999 V2000
  -29.3740  -21.1550   19.8260 C   0  0  0  0  0  3  0  0  0  0  0  0
  -30.7540  -14.7030   20.7510 C   0  0  0  0  0  0  0  0  0  0  0  0
  -30.6050  -12.4280   19.7380 C   0  0  0  0  0  2  0  0  0  0  0  0
  -29.7320  -12.5060   18.4650 C   0  0  0  0  0  2  0  0  0  0  0  0
  -28.2370  -12.3520   18.8140 C   0  0  0  0  0  2  0  0  0  0  0  0
  -27.8050  -13.2540   19.9990 C   0  0  0  0  0  3  0  0  0  0  0  0
  -28.7990  -13.1470   21.1790 C   0  0  0  0  0  2  0  0  0  0  0  0
  -30.1370  -13.4790   20.6680 N   0  0  0  0  0  0  0  0  0  0  0  0
  -31.9460  -14.8240   20.4480 O   0  0  0  0  0  0  0  0  0  0  0  0
  -29.8510  -19.7730   20.4200 C   0  0  0  0  0  0  0  0  0  0  0  0
  -31.1340  -19.3060   20.6610 C   0  0  0  0  0  0  0  0  0  0  0  0
  -30.1000  -17.2320   20.8300 C   0  0  0  0  0  0  0  0  0  0  0  0
  -31.2590  -17.9100   20.8860 N   0  0  0  0  0  0  0  0  0  0  0  0
  -29.9360  -15.7810   20.9970 N   0  0  0  0  0  0  0  0  0  0  0  0
  -28.7490  -18.3800   20.5640 S   0  0  0  0  0  0  0  0  0  0  0  0
  -28.9860  -15.5020   21.1850 H   0  0  0  0  0  0  0  0  0  0  0  0
  -25.3800  -13.8750   20.5730 C   0  0  0  0  0  0  0  0  0  0  0  0
  -24.2890  -13.1130   20.8950 C   0  0  0  0  0  0  0  0  0  0  0  0
  -24.7450  -11.7590   20.9120 C   0  0  0  0  0  0  0  0  0  0  0  0
  -26.4310  -12.9860   20.4120 N   0  0  0  0  0  0  0  0  0  0  0  0
  -26.0510  -11.7090   20.6780 N   0  0  0  0  0  0  0  0  0  0  0  0
  -24.0020  -10.5030   21.0800 C   0  0  0  0  0  0  0  0  0  0  0  0
  -24.3810   -9.5460   22.0470 C   0  0  0  0  0  3  0  0  0  0  0  0
  -23.6420   -8.3540   22.2020 C   0  0  0  0  0  3  0  0  0  0  0  0
  -22.5070   -8.1120   21.3920 C   0  0  0  0  0  0  0  0  0  0  0  0
  -22.1470   -9.0570   20.4160 C   0  0  0  0  0  3  0  0  0  0  0  0
  -22.8880  -10.2410   20.2580 C   0  0  0  0  0  3  0  0  0  0  0  0
  -21.7420   -6.9720   21.4560 O   0  0  0  0  0  0  0  0  0  0  0  0
  -21.6430   -6.2360   22.6100 C   0  0  0  0  0  0  0  0  0  0  0  0
  -21.1430   -6.7930   23.8070 C   0  0  0  0  0  3  0  0  0  0  0  0
  -20.9920   -5.9820   24.9510 C   0  0  0  0  0  3  0  0  0  0  0  0
  -21.3300   -4.6160   24.8960 C   0  0  0  0  0  0  0  0  0  0  0  0
  -21.8220   -4.0600   23.7020 C   0  0  0  0  0  3  0  0  0  0  0  0
  -21.9740   -4.8670   22.5610 C   0  0  0  0  0  0  0  0  0  0  0  0
  -22.4290   -4.3220   21.4080 F   0  0  0  0  0  0  0  0  0  0  0  0
  -21.1780   -3.8360   25.9910 F   0  0  0  0  0  0  0  0  0  0  0  0
  -22.8820  -13.6000   21.0790 C   0  0  0  0  0  0  0  0  0  0  0  0
  -22.1030  -12.9220   21.9150 N   0  0  0  0  0  0  0  0  0  0  0  0
  -22.4780  -14.6170   20.5140 O   0  0  0  0  0  0  0  0  0  0  0  0
  -22.4430  -12.0990   22.3910 H   0  0  0  0  0  0  0  0  0  0  0  0
  -21.1560  -13.2260   22.0810 H   0  0  0  0  0  0  0  0  0  0  0  0
  -25.5620  -15.2410   20.3800 N   0  0  0  0  0  0  0  0  0  0  0  0
  -24.7880  -15.8960   20.4250 H   0  0  0  0  0  0  0  0  0  0  0  0
  -26.4140  -15.6610   20.0310 H   0  0  0  0  0  0  0  0  0  0  0  0
  -32.2880  -20.0820   20.6140 N   0  0  0  0  0  0  0  0  0  0  0  0
  -32.1930  -21.0920   20.6710 H   0  0  0  0  0  0  0  0  0  0  0  0
  -33.1720  -19.7170   20.9480 H   0  0  0  0  0  0  0  0  0  0  0  0
  -29.3900  -22.5170   20.7090 C   0  0  0  0  0  3  0  0  0  0  0  0
  -30.5750  -22.5530   21.3240 F   0  0  0  0  0  0  0  0  0  0  0  0
  -29.1540  -23.9650   20.0560 C   0  0  0  0  0  0  0  0  0  0  0  0
  -29.8600  -24.3260   19.1070 O   0  0  0  0  0  0  0  0  0  0  0  0
  -28.1190  -25.0100   20.6530 C   0  0  0  0  0  2  0  0  0  0  0  0
  -28.3260  -26.4430   20.2810 O   0  0  0  0  0  0  0  0  0  0  0  0
  -24.5390  -31.8530   23.2540 C   0  0  0  0  0  0  0  0  0  0  0  0
  -27.2070  -27.2920   20.2490 C   0  0  0  0  0  0  0  0  0  0  0  0
  -23.3700  -30.4740   21.5710 C   0  0  0  0  0  3  0  0  0  0  0  0
  -24.8500  -28.9170   20.1780 C   0  0  0  0  0  0  0  0  0  0  0  0
  -25.9150  -30.7760   21.4550 C   0  0  0  0  0  2  0  0  0  0  0  0
  -26.0040  -29.3970   20.8080 C   0  0  0  0  0  0  0  0  0  0  0  0
  -27.1860  -28.5990   20.8310 C   0  0  0  0  0  3  0  0  0  0  0  0
  -26.0310  -26.8650   19.5910 C   0  0  0  0  0  3  0  0  0  0  0  0
  -24.8660  -27.6570   19.5570 C   0  0  0  0  0  3  0  0  0  0  0  0
  -23.6190  -29.8040   20.1930 C   0  0  0  0  0  2  0  0  0  0  0  0
  -24.6250  -31.0520   22.1510 N   0  0  0  0  0  0  0  0  0  0  0  0
  -23.4440  -32.1330   23.7640 O   0  0  0  0  0  0  0  0  0  0  0  0
  -22.6740  -29.4570   22.5080 C   0  0  0  0  0  0  0  0  0  0  0  0
  -21.3450  -29.3150   22.3700 N   0  0  0  0  0  0  0  0  0  0  0  0
  -23.3300  -28.7980   23.3200 O   0  0  0  0  0  0  0  0  0  0  0  0
  -20.8740  -29.8990   21.6920 H   0  0  0  0  0  0  0  0  0  0  0  0
  -17.9280  -28.2310   22.8630 C   0  0  0  0  0  0  0  0  0  0  0  0
  -20.4980  -28.3840   23.1170 C   0  0  0  0  0  3  0  0  0  0  0  0
  -20.5410  -26.9690   22.4950 C   0  0  0  0  0  2  0  0  0  0  0  0
  -19.4190  -26.7230   21.4810 C   0  0  0  0  0  2  0  0  0  0  0  0
  -18.0490  -26.9000   22.1410 C   0  0  0  0  0  2  0  0  0  0  0  0
  -19.0790  -28.9360   23.3090 C   0  0  0  0  0  0  0  0  0  0  0  0
  -18.9130  -30.1850   23.9440 C   0  0  0  0  0  3  0  0  0  0  0  0
  -17.6300  -30.7290   24.1380 C   0  0  0  0  0  3  0  0  0  0  0  0
  -16.4940  -30.0220   23.7080 C   0  0  0  0  0  3  0  0  0  0  0  0
  -16.6440  -28.7740   23.0780 C   0  0  0  0  0  3  0  0  0  0  0  0
  -25.8090  -32.4740   23.9140 C   0  0  0  0  0  3  0  0  0  0  0  0
  -26.2730  -31.7050   25.2120 C   0  0  1  0  0  0  0  0  0  0  0  0
  -25.1420  -31.4850   26.2430 C   0  0  0  0  0  1  0  0  0  0  0  0
  -26.8550  -30.3190   24.8460 C   0  0  0  0  0  1  0  0  0  0  0  0
  -27.4080  -32.4900   25.9110 C   0  0  0  0  0  1  0  0  0  0  0  0
  -25.5080  -33.8780   24.2260 N   0  0  0  0  0  0  0  0  0  0  0  0
  -25.8860  -34.9220   23.4770 C   0  0  0  0  0  0  0  0  0  0  0  0
  -26.5920  -34.8040   22.4720 O   0  0  0  0  0  0  0  0  0  0  0  0
  -24.8900  -34.0460   25.0060 H   0  0  0  0  0  0  0  0  0  0  0  0
  -24.2160  -36.7510   23.0340 C   0  0  0  0  0  1  0  0  0  0  0  0
  -25.4030  -36.3200   23.9100 C   0  0  0  0  0  3  0  0  0  0  0  0
  -27.5060  -37.1640   24.8570 C   0  0  0  0  0  1  0  0  0  0  0  0
  -26.4610  -37.3520   23.8540 N   0  0  0  0  0  0  0  0  0  0  0  0
  -26.0660  -38.2800   23.9810 H   0  0  0  0  0  0  0  0  0  0  0  0
  -30.0290  -21.2830   18.4250 C   0  0  0  0  0  2  0  0  0  0  0  0
  -29.7470  -21.5250   15.9050 C   0  0  0  0  0  1  0  0  0  0  0  0
  -29.0740  -21.6520   17.2760 C   0  0  0  0  0  2  0  0  0  0  0  0
  1 94  1  0
  1 10  1  0
  1 48  1  0
  2 14  1  0
  3  8  1  0
  4  5  1  0
  4  3  1  0
  6  5  1  0
  6 20  1  0
  6  7  1  0
  8  2  1  0
  8  7  1  0
  9  2  2  0
 10 15  1  0
 10 11  2  0
 11 13  1  0
 12 13  2  0
 12 14  1  0
 14 16  1  0
 15 12  1  0
 17 18  2  0
 18 19  1  0
 18 37  1  0
 19 22  1  0
 20 17  1  0
 20 21  1  0
 21 19  2  0
 22 23  1  0
 23 24  2  0
 25 28  1  0
 25 24  1  0
 26 25  2  0
 27 26  1  0
 27 22  2  0
 28 29  1  0
 29 30  1  0
 30 31  2  0
 32 31  1  0
 32 36  1  0
 33 32  2  0
 34 29  2  0
 34 33  1  0
 35 34  1  0
 37 38  1  0
 38 41  1  0
 38 40  1  0
 39 37  2  0
 42 43  1  0
 42 17  1  0
 44 42  1  0
 45 11  1  0
 45 46  1  0
 45 47  1  0
 48 49  1  0
 50 52  1  0
 50 48  1  0
 51 50  2  0
 53 52  1  0
 54 65  2  0
 55 53  1  0
 55 60  1  0
 56 64  1  0
 56 66  1  0
 57 63  1  0
 57 59  1  0
 58 64  1  0
 59 60  2  0
 59 58  1  0
 61 55  2  0
 62 61  1  0
 62 57  2  0
 63 56  1  0
 64 54  1  0
 66 68  2  0
 67 66  1  0
 69 67  1  0
 70 79  2  0
 70 75  1  0
 71 67  1  0
 71 75  1  0
 72 71  1  0
 73 74  1  0
 73 72  1  0
 74 70  1  0
 75 76  2  0
 76 77  1  0
 78 77  2  0
 79 78  1  0
 80 54  1  0
 80 85  1  0
 80 81  1  0
 81 84  1  1
 81 82  1  0
 83 81  1  0
 85 88  1  0
 86 90  1  0
 86 85  1  0
 87 86  2  0
 90 89  1  0
 92 90  1  0
 92 93  1  0
 92 91  1  0
 95 96  1  0
 96 94  1  0
M  ISO  4   2 100  14 100  52 101  53 101
M  END
>  <TORSDO>  (37) 
F 22

>  <SCORE>  (37) 
-13.338

>  <name>  (37) 
36

>  <ligand_id>  (37) 
36

>  <original_smiles>  (37) 
[H]c1c([H])c([H])c2c(c1[H])C([H])([H])C([H])([H])C([H])([H])C2([H])N([H])C(=O)C1([H])N(C(=O)C([H])(N([H])C(=O)C([H])(N([H])C([H])([H])[H])C([H])([H])[H])C(C([H])([H])[H])(C([H])([H])[H])C([H])([H])[H])C([H])([H])c2c([H])c(OC([H])([H])C(=O)C([H])(F)C([H])(c3sc(N([H])C(=O)N4C([H])([H])C([H])([H])C([H])([H])C([H])(n5nc(-c6c([H])c([H])c(Oc7c([H])c([H])c(F)c([H])c7F)c([H])c6[H])c(C(=O)N([H])[H])c5N([H])[H])C4([H])[H])nc3N([H])[H])C([H])([H])C([H])([H])C([H])([H])[H])c([H])c([H])c2C1([H])[H]

>  <smiles>  (37) 
[H]c1c([H])c([H])c2c(c1[H])C([H])([H])C([H])([H])C([H])([H])C2([H])N([H])C(=O)C1([H])N(C(=O)C([H])(N([H])C(=O)C([H])(N([H])C([H])([H])[H])C([H])([H])[H])C(C([H])([H])[H])(C([H])([H])[H])C([H])([H])[H])C([H])([H])c2c([H])c(OC([H])([H])C(=O)C([H])(F)C([H])(c3sc(N([H])C(=O)N4C([H])([H])C([H])([H])C([H])([H])C([H])(n5nc(-c6c([H])c([H])c(Oc7c([H])c([H])c(F)c([H])c7F)c([H])c6[H])c(C(=O)N([H])[H])c5N([H])[H])C4([H])[H])nc3N([H])[H])C([H])([H])C([H])([H])C([H])([H])[H])c([H])c([H])c2C1([H])[H]

$$$$
37:0:0
     RDKit          3D

 93101  0  0  1  0  0  0  0  0999 V2000
  -30.2290  -17.0800   18.9460 C   0  0  0  0  0  3  0  0  0  0  0  0
  -29.8710  -16.8490   20.2550 C   0  0  0  0  0  0  0  0  0  0  0  0
  -29.4710  -19.1070   20.1330 C   0  0  0  0  0  0  0  0  0  0  0  0
  -29.0190  -21.5590   19.9390 C   0  0  0  0  0  0  0  0  0  0  0  0
  -29.4160  -18.0110   20.9190 N   0  0  0  0  0  0  0  0  0  0  0  0
  -29.1350  -20.4020   20.6310 N   0  0  0  0  0  0  0  0  0  0  0  0
  -29.0240  -21.6540   18.7060 O   0  0  0  0  0  0  0  0  0  0  0  0
  -30.0520  -18.7550   18.5010 S   0  0  0  0  0  0  0  0  0  0  0  0
  -29.0190  -20.4920   21.6310 H   0  0  0  0  0  0  0  0  0  0  0  0
  -30.6330  -14.4910   20.4520 C   0  0  0  0  0  0  0  0  0  0  0  0
  -30.3580  -12.3170   19.3390 C   0  0  0  0  0  2  0  0  0  0  0  0
  -29.4290  -12.5600   18.1310 C   0  0  0  0  0  2  0  0  0  0  0  0
  -27.9460  -12.4410   18.5430 C   0  0  0  0  0  2  0  0  0  0  0  0
  -27.6150  -13.2490   19.8270 C   0  0  0  0  0  3  0  0  0  0  0  0
  -28.6620  -12.9930   20.9350 C   0  0  0  0  0  2  0  0  0  0  0  0
  -29.9900  -13.2920   20.3790 N   0  0  0  0  0  0  0  0  0  0  0  0
  -31.7830  -14.6460   20.0310 O   0  0  0  0  0  0  0  0  0  0  0  0
  -29.8790  -15.5450   20.8510 N   0  0  0  0  0  0  0  0  0  0  0  0
  -29.0720  -15.3230   21.4140 H   0  0  0  0  0  0  0  0  0  0  0  0
  -25.2170  -13.8700   20.5240 C   0  0  0  0  0  0  0  0  0  0  0  0
  -24.1410  -13.1050   20.8890 C   0  0  0  0  0  0  0  0  0  0  0  0
  -24.5930  -11.7500   20.8560 C   0  0  0  0  0  0  0  0  0  0  0  0
  -26.2570  -12.9820   20.2970 N   0  0  0  0  0  0  0  0  0  0  0  0
  -25.8850  -11.7020   20.5520 N   0  0  0  0  0  0  0  0  0  0  0  0
  -23.8560  -10.4950   21.0480 C   0  0  0  0  0  0  0  0  0  0  0  0
  -24.2770   -9.5260   21.9850 C   0  0  0  0  0  3  0  0  0  0  0  0
  -23.5430   -8.3320   22.1590 C   0  0  0  0  0  3  0  0  0  0  0  0
  -22.3720   -8.1020   21.3960 C   0  0  0  0  0  0  0  0  0  0  0  0
  -21.9710   -9.0590   20.4500 C   0  0  0  0  0  3  0  0  0  0  0  0
  -22.7050  -10.2430   20.2730 C   0  0  0  0  0  3  0  0  0  0  0  0
  -21.6080   -6.9630   21.4820 O   0  0  0  0  0  0  0  0  0  0  0  0
  -21.5450   -6.2220   22.6350 C   0  0  0  0  0  0  0  0  0  0  0  0
  -21.1120   -6.7820   23.8580 C   0  0  0  0  0  3  0  0  0  0  0  0
  -20.9960   -5.9670   25.0010 C   0  0  0  0  0  3  0  0  0  0  0  0
  -21.3040   -4.5950   24.9240 C   0  0  0  0  0  0  0  0  0  0  0  0
  -21.7300   -4.0360   23.7070 C   0  0  0  0  0  3  0  0  0  0  0  0
  -21.8480   -4.8490   22.5650 C   0  0  0  0  0  0  0  0  0  0  0  0
  -22.2400   -4.2990   21.3880 F   0  0  0  0  0  0  0  0  0  0  0  0
  -21.1840   -3.8120   26.0210 F   0  0  0  0  0  0  0  0  0  0  0  0
  -22.7460  -13.5940   21.1540 C   0  0  0  0  0  0  0  0  0  0  0  0
  -22.0070  -12.9000   22.0150 N   0  0  0  0  0  0  0  0  0  0  0  0
  -22.3200  -14.6260   20.6370 O   0  0  0  0  0  0  0  0  0  0  0  0
  -22.3670  -12.0670   22.4570 H   0  0  0  0  0  0  0  0  0  0  0  0
  -21.0700  -13.2060   22.2330 H   0  0  0  0  0  0  0  0  0  0  0  0
  -25.3920  -15.2380   20.3480 N   0  0  0  0  0  0  0  0  0  0  0  0
  -24.6250  -15.8930   20.4610 H   0  0  0  0  0  0  0  0  0  0  0  0
  -26.2420  -15.6760   20.0150 H   0  0  0  0  0  0  0  0  0  0  0  0
  -28.8330  -22.8170   20.8540 C   0  0  0  0  0  0  0  0  0  0  0  0
  -28.4810  -22.7040   22.0350 O   0  0  0  0  0  0  0  0  0  0  0  0
  -30.6310  -24.5620   20.3420 C   0  0  0  0  0  1  0  0  0  0  0  0
  -29.1310  -24.2190   20.2430 C   0  0  0  0  0  3  0  0  0  0  0  0
  -28.2740  -25.3460   20.8830 C   0  0  0  0  0  2  0  0  0  0  0  0
  -28.4390  -26.6380   20.2490 O   0  0  0  0  0  0  0  0  0  0  0  0
  -24.6130  -31.8820   23.2240 C   0  0  0  0  0  0  0  0  0  0  0  0
  -27.2970  -27.4110   20.2150 C   0  0  0  0  0  0  0  0  0  0  0  0
  -23.4280  -30.4630   21.5790 C   0  0  0  0  0  3  0  0  0  0  0  0
  -24.9050  -28.9180   20.1820 C   0  0  0  0  0  0  0  0  0  0  0  0
  -25.9560  -30.8240   21.4090 C   0  0  0  0  0  2  0  0  0  0  0  0
  -26.0560  -29.4470   20.7830 C   0  0  0  0  0  0  0  0  0  0  0  0
  -27.2580  -28.7000   20.7980 C   0  0  0  0  0  3  0  0  0  0  0  0
  -26.1380  -26.9110   19.5860 C   0  0  0  0  0  3  0  0  0  0  0  0
  -24.9410  -27.6500   19.5790 C   0  0  0  0  0  3  0  0  0  0  0  0
  -23.6570  -29.7740   20.2070 C   0  0  0  0  0  2  0  0  0  0  0  0
  -24.6830  -31.0730   22.1290 N   0  0  0  0  0  0  0  0  0  0  0  0
  -23.5260  -32.1540   23.7510 O   0  0  0  0  0  0  0  0  0  0  0  0
  -22.7710  -29.4470   22.5400 C   0  0  0  0  0  0  0  0  0  0  0  0
  -21.4470  -29.2690   22.4120 N   0  0  0  0  0  0  0  0  0  0  0  0
  -23.4520  -28.8220   23.3580 O   0  0  0  0  0  0  0  0  0  0  0  0
  -20.9570  -29.8310   21.7280 H   0  0  0  0  0  0  0  0  0  0  0  0
  -18.0670  -28.0950   22.9160 C   0  0  0  0  0  0  0  0  0  0  0  0
  -20.6270  -28.3350   23.1830 C   0  0  0  0  0  3  0  0  0  0  0  0
  -20.7160  -26.9040   22.6050 C   0  0  0  0  0  2  0  0  0  0  0  0
  -19.6110  -26.5890   21.5910 C   0  0  0  0  0  2  0  0  0  0  0  0
  -18.2320  -26.7450   22.2380 C   0  0  0  0  0  2  0  0  0  0  0  0
  -19.1910  -28.8480   23.3450 C   0  0  0  0  0  0  0  0  0  0  0  0
  -18.9840  -30.1120   23.9370 C   0  0  0  0  0  3  0  0  0  0  0  0
  -17.6830  -30.6250   24.1030 C   0  0  0  0  0  3  0  0  0  0  0  0
  -16.5730  -29.8700   23.6900 C   0  0  0  0  0  3  0  0  0  0  0  0
  -16.7660  -28.6070   23.1030 C   0  0  0  0  0  3  0  0  0  0  0  0
  -25.8920  -32.5230   23.8490 C   0  0  0  0  0  3  0  0  0  0  0  0
  -26.4080  -31.7590   25.1300 C   0  0  1  0  0  0  0  0  0  0  0  0
  -25.3130  -31.5130   26.1930 C   0  0  0  0  0  1  0  0  0  0  0  0
  -27.0060  -30.3850   24.7420 C   0  0  0  0  0  1  0  0  0  0  0  0
  -27.5460  -32.5650   25.8020 C   0  0  0  0  0  1  0  0  0  0  0  0
  -25.5720  -33.9190   24.1740 N   0  0  0  0  0  0  0  0  0  0  0  0
  -25.9050  -34.9720   23.4130 C   0  0  0  0  0  0  0  0  0  0  0  0
  -26.5860  -34.8700   22.3890 O   0  0  0  0  0  0  0  0  0  0  0  0
  -24.9720  -34.0710   24.9700 H   0  0  0  0  0  0  0  0  0  0  0  0
  -24.1780  -36.7610   23.0230 C   0  0  0  0  0  1  0  0  0  0  0  0
  -25.4030  -36.3580   23.8610 C   0  0  0  0  0  3  0  0  0  0  0  0
  -27.5140  -37.2520   24.7400 C   0  0  0  0  0  1  0  0  0  0  0  0
  -26.4320  -37.4140   23.7710 N   0  0  0  0  0  0  0  0  0  0  0  0
  -26.0190  -38.3320   23.9090 H   0  0  0  0  0  0  0  0  0  0  0  0
  1  2  2  0
  2 18  1  0
  2  5  1  0
  3  6  1  0
  3  5  2  0
  4  6  1  0
  4 48  1  0
  6  9  1  0
  7  4  2  0
  8  1  1  0
  8  3  1  0
 10 18  1  0
 11 16  1  0
 12 13  1  0
 12 11  1  0
 14 13  1  0
 14 23  1  0
 14 15  1  0
 16 10  1  0
 16 15  1  0
 17 10  2  0
 18 19  1  0
 20 21  2  0
 21 40  1  0
 22 21  1  0
 22 25  1  0
 23 20  1  0
 23 24  1  0
 24 22  2  0
 25 26  1  0
 26 27  2  0
 28 31  1  0
 28 27  1  0
 29 28  2  0
 30 29  1  0
 30 25  2  0
 31 32  1  0
 32 33  1  0
 33 34  2  0
 35 34  1  0
 35 39  1  0
 36 35  2  0
 37 32  2  0
 37 36  1  0
 38 37  1  0
 40 41  1  0
 41 44  1  0
 41 43  1  0
 42 40  2  0
 45 46  1  0
 45 20  1  0
 47 45  1  0
 48 49  2  0
 51 50  1  0
 51 48  1  0
 51 52  1  0
 53 52  1  0
 54 65  2  0
 55 53  1  0
 55 60  1  0
 56 64  1  0
 56 66  1  0
 57 63  1  0
 57 59  1  0
 58 64  1  0
 59 60  2  0
 59 58  1  0
 61 55  2  0
 62 61  1  0
 62 57  2  0
 63 56  1  0
 64 54  1  0
 66 68  2  0
 67 66  1  0
 69 67  1  0
 70 79  2  0
 70 75  1  0
 71 67  1  0
 71 75  1  0
 72 71  1  0
 73 74  1  0
 73 72  1  0
 74 70  1  0
 75 76  2  0
 76 77  1  0
 78 77  2  0
 79 78  1  0
 80 54  1  0
 80 85  1  0
 80 81  1  0
 81 84  1  1
 81 82  1  0
 83 81  1  0
 85 88  1  0
 86 90  1  0
 86 85  1  0
 87 86  2  0
 90 89  1  0
 92 90  1  0
 92 93  1  0
 92 91  1  0
M  ISO  4  10 100  18 100  52 101  53 101
M  END
>  <TORSDO>  (38) 
F 19

>  <SCORE>  (38) 
-14.422

>  <name>  (38) 
37

>  <ligand_id>  (38) 
37

>  <original_smiles>  (38) 
[H]c1sc(N([H])C(=O)C(=O)C([H])(C([H])([H])[H])C([H])([H])Oc2c([H])c([H])c3c(c2[H])C([H])([H])N(C(=O)C([H])(N([H])C(=O)C([H])(N([H])C([H])([H])[H])C([H])([H])[H])C(C([H])([H])[H])(C([H])([H])[H])C([H])([H])[H])C([H])(C(=O)N([H])C2([H])c4c([H])c([H])c([H])c([H])c4C([H])([H])C([H])([H])C2([H])[H])C3([H])[H])nc1N([H])C(=O)N1C([H])([H])C([H])([H])C([H])([H])C([H])(n2nc(-c3c([H])c([H])c(Oc4c([H])c([H])c(F)c([H])c4F)c([H])c3[H])c(C(=O)N([H])[H])c2N([H])[H])C1([H])[H]

>  <smiles>  (38) 
[H]c1sc(N([H])C(=O)C(=O)C([H])(C([H])([H])[H])C([H])([H])Oc2c([H])c([H])c3c(c2[H])C([H])([H])N(C(=O)C([H])(N([H])C(=O)C([H])(N([H])C([H])([H])[H])C([H])([H])[H])C(C([H])([H])[H])(C([H])([H])[H])C([H])([H])[H])C([H])(C(=O)N([H])C2([H])c4c([H])c([H])c([H])c([H])c4C([H])([H])C([H])([H])C2([H])[H])C3([H])[H])nc1N([H])C(=O)N1C([H])([H])C([H])([H])C([H])([H])C([H])(n2nc(-c3c([H])c([H])c(Oc4c([H])c([H])c(F)c([H])c4F)c([H])c3[H])c(C(=O)N([H])[H])c2N([H])[H])C1([H])[H]

$$$$
38:0:0
     RDKit          3D

 98106  0  0  1  0  0  0  0  0999 V2000
  -30.5240  -14.8540   20.3770 C   0  0  0  0  0  0  0  0  0  0  0  0
  -30.3520  -12.5410   19.3880 C   0  0  0  0  0  2  0  0  0  0  0  0
  -29.4060  -12.5630   18.1660 C   0  0  0  0  0  2  0  0  0  0  0  0
  -27.9390  -12.3820   18.6060 C   0  0  0  0  0  2  0  0  0  0  0  0
  -27.5620  -13.2830   19.8120 C   0  0  0  0  0  3  0  0  0  0  0  0
  -28.6290  -13.2360   20.9250 C   0  0  0  0  0  2  0  0  0  0  0  0
  -29.9060  -13.6160   20.3080 N   0  0  0  0  0  0  0  0  0  0  0  0
  -31.7330  -14.9190   20.1290 O   0  0  0  0  0  0  0  0  0  0  0  0
  -30.9520  -19.7340   21.3340 C   0  0  0  0  0  0  0  0  0  0  0  0
  -29.7810  -19.8950   20.6090 C   0  0  0  0  0  0  0  0  0  0  0  0
  -30.0420  -17.4690   20.6120 C   0  0  0  0  0  0  0  0  0  0  0  0
  -29.2840  -18.5700   20.2180 N   0  0  0  0  0  0  0  0  0  0  0  0
  -29.7260  -16.0100   20.4290 N   0  0  0  0  0  0  0  0  0  0  0  0
  -31.4500  -18.0380   21.5000 S   0  0  0  0  0  0  0  0  0  0  0  0
  -28.7410  -15.8150   20.3630 H   0  0  0  0  0  0  0  0  0  0  0  0
  -25.1870  -13.8800   20.5690 C   0  0  0  0  0  0  0  0  0  0  0  0
  -24.1200  -13.1110   20.9400 C   0  0  0  0  0  0  0  0  0  0  0  0
  -24.5740  -11.7570   20.8950 C   0  0  0  0  0  0  0  0  0  0  0  0
  -26.2240  -12.9960   20.3170 N   0  0  0  0  0  0  0  0  0  0  0  0
  -25.8630  -11.7130   20.5780 N   0  0  0  0  0  0  0  0  0  0  0  0
  -23.8380  -10.5000   21.0810 C   0  0  0  0  0  0  0  0  0  0  0  0
  -24.2710   -9.5170   21.9980 C   0  0  0  0  0  3  0  0  0  0  0  0
  -23.5350   -8.3250   22.1710 C   0  0  0  0  0  3  0  0  0  0  0  0
  -22.3530   -8.1080   21.4240 C   0  0  0  0  0  0  0  0  0  0  0  0
  -21.9410   -9.0770   20.4930 C   0  0  0  0  0  3  0  0  0  0  0  0
  -22.6770  -10.2600   20.3200 C   0  0  0  0  0  3  0  0  0  0  0  0
  -21.5870   -6.9700   21.5070 O   0  0  0  0  0  0  0  0  0  0  0  0
  -21.5420   -6.2140   22.6510 C   0  0  0  0  0  0  0  0  0  0  0  0
  -21.1260   -6.7580   23.8860 C   0  0  0  0  0  3  0  0  0  0  0  0
  -21.0280   -5.9310   25.0220 C   0  0  0  0  0  3  0  0  0  0  0  0
  -21.3360   -4.5590   24.9240 C   0  0  0  0  0  0  0  0  0  0  0  0
  -21.7440   -4.0150   23.6940 C   0  0  0  0  0  3  0  0  0  0  0  0
  -21.8440   -4.8400   22.5600 C   0  0  0  0  0  0  0  0  0  0  0  0
  -22.2190   -4.3080   21.3710 F   0  0  0  0  0  0  0  0  0  0  0  0
  -21.2340   -3.7620   26.0120 F   0  0  0  0  0  0  0  0  0  0  0  0
  -22.7280  -13.5960   21.2210 C   0  0  0  0  0  0  0  0  0  0  0  0
  -22.0000  -12.9030   22.0890 N   0  0  0  0  0  0  0  0  0  0  0  0
  -22.2950  -14.6270   20.7060 O   0  0  0  0  0  0  0  0  0  0  0  0
  -22.3660  -12.0720   22.5280 H   0  0  0  0  0  0  0  0  0  0  0  0
  -21.0650  -13.2090   22.3180 H   0  0  0  0  0  0  0  0  0  0  0  0
  -25.3540  -15.2530   20.3960 N   0  0  0  0  0  0  0  0  0  0  0  0
  -24.5730  -15.8930   20.4890 H   0  0  0  0  0  0  0  0  0  0  0  0
  -26.1760  -15.6920   20.0060 H   0  0  0  0  0  0  0  0  0  0  0  0
  -28.6840  -22.3350   20.7820 C   0  0  0  0  0  0  0  0  0  0  0  0
  -29.3510  -21.2730   20.1540 N   0  0  0  0  0  0  0  0  0  0  0  0
  -27.9580  -22.1000   21.7510 O   0  0  0  0  0  0  0  0  0  0  0  0
  -29.8170  -21.5930   19.3150 H   0  0  0  0  0  0  0  0  0  0  0  0
  -28.1500  -24.8970   20.6530 C   0  0  0  0  0  3  0  0  0  0  0  0
  -28.8560  -23.7580   20.2270 C   0  0  0  0  0  0  0  0  0  0  0  0
  -29.7850  -23.9240   19.2760 O   0  0  0  0  0  0  0  0  0  0  0  0
  -29.7980  -24.8480   19.0640 H   0  0  0  0  0  0  0  0  0  0  0  0
  -28.3180  -26.2840   20.2730 O   0  0  0  0  0  0  0  0  0  0  0  0
  -24.6140  -31.8770   23.2540 C   0  0  0  0  0  0  0  0  0  0  0  0
  -27.2320  -27.2090   20.2720 C   0  0  0  0  0  0  0  0  0  0  0  0
  -23.4260  -30.4730   21.6090 C   0  0  0  0  0  3  0  0  0  0  0  0
  -24.8890  -28.8970   20.2090 C   0  0  0  0  0  0  0  0  0  0  0  0
  -25.9750  -30.7590   21.4590 C   0  0  0  0  0  2  0  0  0  0  0  0
  -26.0570  -29.3670   20.8220 C   0  0  0  0  0  0  0  0  0  0  0  0
  -27.2340  -28.5370   20.8370 C   0  0  0  0  0  3  0  0  0  0  0  0
  -26.0400  -26.8170   19.6280 C   0  0  0  0  0  3  0  0  0  0  0  0
  -24.8880  -27.6310   19.5990 C   0  0  0  0  0  3  0  0  0  0  0  0
  -23.6570  -29.7880   20.2360 C   0  0  0  0  0  2  0  0  0  0  0  0
  -24.6900  -31.0570   22.1630 N   0  0  0  0  0  0  0  0  0  0  0  0
  -23.5250  -32.1620   23.7750 O   0  0  0  0  0  0  0  0  0  0  0  0
  -22.7440  -29.4680   22.5700 C   0  0  0  0  0  0  0  0  0  0  0  0
  -21.4160  -29.3040   22.4400 N   0  0  0  0  0  0  0  0  0  0  0  0
  -23.4120  -28.8380   23.3940 O   0  0  0  0  0  0  0  0  0  0  0  0
  -20.9350  -29.8630   21.7490 H   0  0  0  0  0  0  0  0  0  0  0  0
  -18.0250  -28.1410   22.9460 C   0  0  0  0  0  0  0  0  0  0  0  0
  -20.5870  -28.3730   23.2090 C   0  0  0  0  0  3  0  0  0  0  0  0
  -20.6710  -26.9420   22.6290 C   0  0  0  0  0  2  0  0  0  0  0  0
  -19.5630  -26.6350   21.6160 C   0  0  0  0  0  2  0  0  0  0  0  0
  -18.1850  -26.7940   22.2650 C   0  0  0  0  0  2  0  0  0  0  0  0
  -19.1520  -28.8900   23.3760 C   0  0  0  0  0  0  0  0  0  0  0  0
  -18.9480  -30.1520   23.9740 C   0  0  0  0  0  3  0  0  0  0  0  0
  -17.6490  -30.6650   24.1480 C   0  0  0  0  0  3  0  0  0  0  0  0
  -16.5360  -29.9130   23.7340 C   0  0  0  0  0  3  0  0  0  0  0  0
  -16.7250  -28.6540   23.1380 C   0  0  0  0  0  3  0  0  0  0  0  0
  -25.8890  -32.5130   23.8890 C   0  0  0  0  0  3  0  0  0  0  0  0
  -26.3910  -31.7470   25.1760 C   0  0  1  0  0  0  0  0  0  0  0  0
  -25.2860  -31.5230   26.2360 C   0  0  0  0  0  1  0  0  0  0  0  0
  -26.9700  -30.3630   24.8020 C   0  0  0  0  0  1  0  0  0  0  0  0
  -27.5380  -32.5410   25.8430 C   0  0  0  0  0  1  0  0  0  0  0  0
  -25.5780  -33.9130   24.2120 N   0  0  0  0  0  0  0  0  0  0  0  0
  -25.9030  -34.9640   23.4470 C   0  0  0  0  0  0  0  0  0  0  0  0
  -26.5660  -34.8570   22.4120 O   0  0  0  0  0  0  0  0  0  0  0  0
  -24.9900  -34.0700   25.0170 H   0  0  0  0  0  0  0  0  0  0  0  0
  -24.1630  -36.7490   23.1060 C   0  0  0  0  0  1  0  0  0  0  0  0
  -25.4170  -36.3550   23.9010 C   0  0  0  0  0  3  0  0  0  0  0  0
  -27.5600  -37.2550   24.6950 C   0  0  0  0  0  1  0  0  0  0  0  0
  -26.4430  -37.4120   23.7670 N   0  0  0  0  0  0  0  0  0  0  0  0
  -26.0340  -38.3300   23.9150 H   0  0  0  0  0  0  0  0  0  0  0  0
  -31.8660  -20.7830   21.9080 C   0  0  0  0  0  3  0  0  0  0  0  0
  -31.1970  -21.7820   22.4880 F   0  0  0  0  0  0  0  0  0  0  0  0
  -32.8880  -21.3460   20.9010 C   0  0  1  0  0  0  0  0  0  0  0  0
  -33.5840  -20.3460   20.3570 F   0  0  0  0  0  0  0  0  0  0  0  0
  -32.2810  -22.0200   19.9230 F   0  0  0  0  0  0  0  0  0  0  0  0
  -33.7470  -22.1540   21.5240 F   0  0  0  0  0  0  0  0  0  0  0  0
  1 13  1  0
  2  7  1  0
  3  4  1  0
  3  2  1  0
  5  4  1  0
  5 19  1  0
  5  6  1  0
  7  1  1  0
  7  6  1  0
  8  1  2  0
  9 14  1  0
  9 93  1  0
 10  9  2  0
 11 14  1  0
 12 10  1  0
 12 11  2  0
 13 11  1  0
 15 13  1  0
 16 17  2  0
 17 36  1  0
 18 17  1  0
 18 21  1  0
 19 16  1  0
 19 20  1  0
 20 18  2  0
 21 22  1  0
 22 23  2  0
 24 27  1  0
 24 23  1  0
 25 24  2  0
 26 25  1  0
 26 21  2  0
 27 28  1  0
 28 29  1  0
 29 30  2  0
 31 30  1  0
 31 35  1  0
 32 31  2  0
 33 28  2  0
 33 32  1  0
 34 33  1  0
 36 37  1  0
 37 40  1  0
 37 39  1  0
 38 36  2  0
 41 42  1  0
 41 16  1  0
 43 41  1  0
 44 46  2  0
 45 10  1  0
 45 44  1  0
 47 45  1  0
 49 48  2  0
 49 44  1  0
 50 49  1  0
 51 50  1  0
 52 48  1  0
 53 64  2  0
 54 52  1  0
 54 59  1  0
 55 63  1  0
 55 65  1  0
 56 62  1  0
 56 58  1  0
 57 63  1  0
 58 59  2  0
 58 57  1  0
 60 54  2  0
 61 60  1  0
 61 56  2  0
 62 55  1  0
 63 53  1  0
 65 67  2  0
 66 65  1  0
 68 66  1  0
 69 78  2  0
 69 74  1  0
 70 66  1  0
 70 74  1  0
 71 70  1  0
 72 73  1  0
 72 71  1  0
 73 69  1  0
 74 75  2  0
 75 76  1  0
 77 76  2  0
 78 77  1  0
 79 53  1  0
 79 84  1  0
 79 80  1  0
 80 83  1  1
 80 81  1  0
 82 80  1  0
 84 87  1  0
 85 89  1  0
 85 84  1  0
 86 85  2  0
 89 88  1  0
 91 89  1  0
 91 92  1  0
 91 90  1  0
 93 94  1  0
 95 98  1  1
 95 93  1  0
 96 95  1  0
 97 95  1  0
M  ISO  4   1 100  13 100  48 101  52 101
M  END
>  <TORSDO>  (39) 
F 20

>  <SCORE>  (39) 
-14.215

>  <name>  (39) 
38

>  <ligand_id>  (39) 
38

>  <original_smiles>  (39) 
[H]OC(C(=O)N([H])c1nc(N([H])C(=O)N2C([H])([H])C([H])([H])C([H])([H])C([H])(n3nc(-c4c([H])c([H])c(Oc5c([H])c([H])c(F)c([H])c5F)c([H])c4[H])c(C(=O)N([H])[H])c3N([H])[H])C2([H])[H])sc1C([H])(F)C(F)(F)F)=C([H])Oc1c([H])c([H])c2c(c1[H])C([H])([H])N(C(=O)C([H])(N([H])C(=O)C([H])(N([H])C([H])([H])[H])C([H])([H])[H])C(C([H])([H])[H])(C([H])([H])[H])C([H])([H])[H])C([H])(C(=O)N([H])C1([H])c3c([H])c([H])c([H])c([H])c3C([H])([H])C([H])([H])C1([H])[H])C2([H])[H]

>  <smiles>  (39) 
[H]OC(C(=O)N([H])c1nc(N([H])C(=O)N2C([H])([H])C([H])([H])C([H])([H])C([H])(n3nc(-c4c([H])c([H])c(Oc5c([H])c([H])c(F)c([H])c5F)c([H])c4[H])c(C(=O)N([H])[H])c3N([H])[H])C2([H])[H])sc1C([H])(F)C(F)(F)F)=C([H])Oc1c([H])c([H])c2c(c1[H])C([H])([H])N(C(=O)C([H])(N([H])C(=O)C([H])(N([H])C([H])([H])[H])C([H])([H])[H])C(C([H])([H])[H])(C([H])([H])[H])C([H])([H])[H])C([H])(C(=O)N([H])C1([H])c3c([H])c([H])c([H])c([H])c3C([H])([H])C([H])([H])C1([H])[H])C2([H])[H]

$$$$
39:0:0
     RDKit          3D

 91 99  0  0  1  0  0  0  0  0999 V2000
  -31.1860  -17.8850   20.1260 C   0  0  0  0  0  3  0  0  0  0  0  0
  -30.0340  -17.2310   20.5250 C   0  0  0  0  0  0  0  0  0  0  0  0
  -29.9060  -19.8360   20.2620 C   0  0  0  0  0  0  0  0  0  0  0  0
  -29.0490  -22.2950   20.6460 C   0  0  0  0  0  0  0  0  0  0  0  0
  -31.0950  -19.2930   19.9500 N   0  0  0  0  0  0  0  0  0  0  0  0
  -29.6670  -21.2650   19.9670 N   0  0  0  0  0  0  0  0  0  0  0  0
  -28.6180  -22.1050   21.7870 O   0  0  0  0  0  0  0  0  0  0  0  0
  -28.7970  -18.5170   20.7990 S   0  0  0  0  0  0  0  0  0  0  0  0
  -30.1280  -21.5770   19.1240 H   0  0  0  0  0  0  0  0  0  0  0  0
  -30.5710  -14.7460   20.3380 C   0  0  0  0  0  0  0  0  0  0  0  0
  -30.3670  -12.4950   19.2690 C   0  0  0  0  0  2  0  0  0  0  0  0
  -29.4190  -12.5890   18.0530 C   0  0  0  0  0  2  0  0  0  0  0  0
  -27.9520  -12.3990   18.4860 C   0  0  0  0  0  2  0  0  0  0  0  0
  -27.5790  -13.2970   19.6970 C   0  0  0  0  0  3  0  0  0  0  0  0
  -28.6350  -13.1660   20.8160 C   0  0  0  0  0  2  0  0  0  0  0  0
  -29.9410  -13.5270   20.2420 N   0  0  0  0  0  0  0  0  0  0  0  0
  -31.7450  -14.8610   19.9740 O   0  0  0  0  0  0  0  0  0  0  0  0
  -29.8000  -15.8490   20.6790 N   0  0  0  0  0  0  0  0  0  0  0  0
  -28.8660  -15.6070   20.9770 H   0  0  0  0  0  0  0  0  0  0  0  0
  -25.1840  -13.9020   20.4160 C   0  0  0  0  0  0  0  0  0  0  0  0
  -24.1190  -13.1320   20.8000 C   0  0  0  0  0  0  0  0  0  0  0  0
  -24.5820  -11.7820   20.7820 C   0  0  0  0  0  0  0  0  0  0  0  0
  -26.2300  -13.0210   20.1870 N   0  0  0  0  0  0  0  0  0  0  0  0
  -25.8720  -11.7420   20.4690 N   0  0  0  0  0  0  0  0  0  0  0  0
  -23.8600  -10.5190   20.9840 C   0  0  0  0  0  0  0  0  0  0  0  0
  -24.2960   -9.5590   21.9240 C   0  0  0  0  0  3  0  0  0  0  0  0
  -23.5730   -8.3620   22.1160 C   0  0  0  0  0  3  0  0  0  0  0  0
  -22.4000   -8.1140   21.3640 C   0  0  0  0  0  0  0  0  0  0  0  0
  -21.9820   -9.0610   20.4130 C   0  0  0  0  0  3  0  0  0  0  0  0
  -22.7040  -10.2510   20.2210 C   0  0  0  0  0  3  0  0  0  0  0  0
  -21.6520   -6.9650   21.4630 O   0  0  0  0  0  0  0  0  0  0  0  0
  -21.6070   -6.2320   22.6200 C   0  0  0  0  0  0  0  0  0  0  0  0
  -21.1840   -6.7970   23.8440 C   0  0  0  0  0  3  0  0  0  0  0  0
  -21.0900   -5.9890   24.9950 C   0  0  0  0  0  3  0  0  0  0  0  0
  -21.4070   -4.6190   24.9230 C   0  0  0  0  0  0  0  0  0  0  0  0
  -21.8230   -4.0550   23.7040 C   0  0  0  0  0  3  0  0  0  0  0  0
  -21.9200   -4.8590   22.5560 C   0  0  0  0  0  0  0  0  0  0  0  0
  -22.3020   -4.3080   21.3780 F   0  0  0  0  0  0  0  0  0  0  0  0
  -21.3050   -3.8410   26.0260 F   0  0  0  0  0  0  0  0  0  0  0  0
  -22.7210  -13.6090   21.0690 C   0  0  0  0  0  0  0  0  0  0  0  0
  -21.9900  -12.9250   21.9430 N   0  0  0  0  0  0  0  0  0  0  0  0
  -22.2820  -14.6290   20.5360 O   0  0  0  0  0  0  0  0  0  0  0  0
  -22.3490  -12.1020   22.4040 H   0  0  0  0  0  0  0  0  0  0  0  0
  -21.0520  -13.2330   22.1630 H   0  0  0  0  0  0  0  0  0  0  0  0
  -25.3410  -15.2710   20.2180 N   0  0  0  0  0  0  0  0  0  0  0  0
  -24.5550  -15.9100   20.2850 H   0  0  0  0  0  0  0  0  0  0  0  0
  -26.1580  -15.7010   19.8020 H   0  0  0  0  0  0  0  0  0  0  0  0
  -28.9350  -23.7650   19.9840 C   0  0  0  0  0  2  0  0  0  0  0  0
  -26.8220  -24.6360   21.2230 C   0  0  0  0  0  1  0  0  0  0  0  0
  -28.2470  -25.0190   20.7590 C   0  0  0  0  0  3  0  0  0  0  0  0
  -28.3620  -26.4220   20.1910 O   0  0  0  0  0  0  0  0  0  0  0  0
  -24.6100  -31.8650   23.2280 C   0  0  0  0  0  0  0  0  0  0  0  0
  -27.2670  -27.3140   20.1640 C   0  0  0  0  0  0  0  0  0  0  0  0
  -23.4270  -30.4710   21.5690 C   0  0  0  0  0  3  0  0  0  0  0  0
  -24.9010  -28.9390   20.1370 C   0  0  0  0  0  0  0  0  0  0  0  0
  -25.9680  -30.7950   21.4160 C   0  0  0  0  0  2  0  0  0  0  0  0
  -26.0600  -29.4170   20.7660 C   0  0  0  0  0  0  0  0  0  0  0  0
  -27.2440  -28.6100   20.7790 C   0  0  0  0  0  3  0  0  0  0  0  0
  -26.1070  -26.9330   19.4600 C   0  0  0  0  0  3  0  0  0  0  0  0
  -24.9310  -27.7060   19.4670 C   0  0  0  0  0  3  0  0  0  0  0  0
  -23.6580  -29.8070   20.1850 C   0  0  0  0  0  2  0  0  0  0  0  0
  -24.6850  -31.0620   22.1270 N   0  0  0  0  0  0  0  0  0  0  0  0
  -23.5190  -32.1330   23.7540 O   0  0  0  0  0  0  0  0  0  0  0  0
  -22.7620  -29.4450   22.5200 C   0  0  0  0  0  0  0  0  0  0  0  0
  -21.4360  -29.2750   22.3930 N   0  0  0  0  0  0  0  0  0  0  0  0
  -23.4390  -28.8100   23.3330 O   0  0  0  0  0  0  0  0  0  0  0  0
  -20.9470  -29.8470   21.7180 H   0  0  0  0  0  0  0  0  0  0  0  0
  -18.0500  -28.1000   22.8970 C   0  0  0  0  0  0  0  0  0  0  0  0
  -20.6130  -28.3340   23.1540 C   0  0  0  0  0  3  0  0  0  0  0  0
  -20.6970  -26.9120   22.5550 C   0  0  0  0  0  2  0  0  0  0  0  0
  -19.5860  -26.6130   21.5440 C   0  0  0  0  0  2  0  0  0  0  0  0
  -18.2100  -26.7600   22.1980 C   0  0  0  0  0  2  0  0  0  0  0  0
  -19.1780  -28.8470   23.3310 C   0  0  0  0  0  0  0  0  0  0  0  0
  -18.9730  -30.1010   23.9430 C   0  0  0  0  0  3  0  0  0  0  0  0
  -17.6730  -30.6080   24.1320 C   0  0  0  0  0  3  0  0  0  0  0  0
  -16.5590  -29.8600   23.7100 C   0  0  0  0  0  3  0  0  0  0  0  0
  -16.7490  -28.6090   23.0980 C   0  0  0  0  0  3  0  0  0  0  0  0
  -25.8840  -32.4970   23.8660 C   0  0  0  0  0  3  0  0  0  0  0  0
  -25.5700  -33.8970   24.1880 N   0  0  0  0  0  0  0  0  0  0  0  0
  -25.9100  -34.9480   23.4310 C   0  0  0  0  0  0  0  0  0  0  0  0
  -26.5920  -34.8400   22.4080 O   0  0  0  0  0  0  0  0  0  0  0  0
  -24.9600  -34.0500   24.9780 H   0  0  0  0  0  0  0  0  0  0  0  0
  -24.1870  -36.7440   23.0580 C   0  0  0  0  0  1  0  0  0  0  0  0
  -25.4200  -36.3380   23.8810 C   0  0  0  0  0  3  0  0  0  0  0  0
  -27.5480  -37.2280   24.7240 C   0  0  0  0  0  1  0  0  0  0  0  0
  -26.4530  -37.3910   23.7730 N   0  0  0  0  0  0  0  0  0  0  0  0
  -26.0430  -38.3100   23.9110 H   0  0  0  0  0  0  0  0  0  0  0  0
  -26.3860  -31.7280   25.1500 C   0  0  1  0  0  0  0  0  0  0  0  0
  -25.2800  -31.4940   26.2080 C   0  0  0  0  0  1  0  0  0  0  0  0
  -26.9710  -30.3480   24.7710 C   0  0  0  0  0  1  0  0  0  0  0  0
  -27.5280  -32.5240   25.8230 C   0  0  0  0  0  1  0  0  0  0  0  0
  1  2  2  0
  2 18  1  0
  2  8  1  0
  3  8  1  0
  4  7  2  0
  5  1  1  0
  5  3  2  0
  6  3  1  0
  6  4  1  0
  9  6  1  0
 10 18  1  0
 11 16  1  0
 12 13  1  0
 12 11  1  0
 14 13  1  0
 14 23  1  0
 14 15  1  0
 16 10  1  0
 16 15  1  0
 17 10  2  0
 18 19  1  0
 20 21  2  0
 21 40  1  0
 22 21  1  0
 22 25  1  0
 23 20  1  0
 23 24  1  0
 24 22  2  0
 25 26  1  0
 26 27  2  0
 28 31  1  0
 28 27  1  0
 29 28  2  0
 30 29  1  0
 30 25  2  0
 31 32  1  0
 32 33  1  0
 33 34  2  0
 35 34  1  0
 35 39  1  0
 36 35  2  0
 37 32  2  0
 37 36  1  0
 38 37  1  0
 40 41  1  0
 41 44  1  0
 41 43  1  0
 42 40  2  0
 45 46  1  0
 45 20  1  0
 47 45  1  0
 48  4  1  0
 48 50  1  0
 50 49  1  0
 51 50  1  0
 52 63  2  0
 53 51  1  0
 53 58  1  0
 54 62  1  0
 54 64  1  0
 55 61  1  0
 55 57  1  0
 56 62  1  0
 57 58  2  0
 57 56  1  0
 59 60  1  0
 59 53  2  0
 60 55  2  0
 61 54  1  0
 62 52  1  0
 64 66  2  0
 65 64  1  0
 67 65  1  0
 68 77  2  0
 68 73  1  0
 69 65  1  0
 69 73  1  0
 70 69  1  0
 71 72  1  0
 71 70  1  0
 72 68  1  0
 73 74  2  0
 74 75  1  0
 76 75  2  0
 77 76  1  0
 78 52  1  0
 78 79  1  0
 78 88  1  0
 79 82  1  0
 80 84  1  0
 80 79  1  0
 81 80  2  0
 84 83  1  0
 86 84  1  0
 86 87  1  0
 86 85  1  0
 88 91  1  1
 88 89  1  0
 90 88  1  0
M  ISO  4  10 100  18 100  50 101  51 101
M  END
>  <TORSDO>  (40) 
F 18

>  <SCORE>  (40) 
-14.507

>  <name>  (40) 
39

>  <ligand_id>  (40) 
39

>  <original_smiles>  (40) 
[H]c1nc(N([H])C(=O)C([H])([H])C([H])(Oc2c([H])c([H])c3c(c2[H])C([H])([H])N(C(=O)C([H])(N([H])C(=O)C([H])(N([H])C([H])([H])[H])C([H])([H])[H])C(C([H])([H])[H])(C([H])([H])[H])C([H])([H])[H])C([H])(C(=O)N([H])C2([H])c4c([H])c([H])c([H])c([H])c4C([H])([H])C([H])([H])C2([H])[H])C3([H])[H])C([H])([H])[H])sc1N([H])C(=O)N1C([H])([H])C([H])([H])C([H])([H])C([H])(n2nc(-c3c([H])c([H])c(Oc4c([H])c([H])c(F)c([H])c4F)c([H])c3[H])c(C(=O)N([H])[H])c2N([H])[H])C1([H])[H]

>  <smiles>  (40) 
[H]c1nc(N([H])C(=O)C([H])([H])C([H])(Oc2c([H])c([H])c3c(c2[H])C([H])([H])N(C(=O)C([H])(N([H])C(=O)C([H])(N([H])C([H])([H])[H])C([H])([H])[H])C(C([H])([H])[H])(C([H])([H])[H])C([H])([H])[H])C([H])(C(=O)N([H])C2([H])c4c([H])c([H])c([H])c([H])c4C([H])([H])C([H])([H])C2([H])[H])C3([H])[H])C([H])([H])[H])sc1N([H])C(=O)N1C([H])([H])C([H])([H])C([H])([H])C([H])(n2nc(-c3c([H])c([H])c(Oc4c([H])c([H])c(F)c([H])c4F)c([H])c3[H])c(C(=O)N([H])[H])c2N([H])[H])C1([H])[H]

$$$$
40:0:0
     RDKit          3D

 94102  0  0  1  0  0  0  0  0999 V2000
  -28.2550  -20.8500   20.2380 C   0  0  0  0  0  0  0  0  0  0  0  0
  -28.3110  -23.3290   20.3730 C   0  0  0  0  0  0  0  0  0  0  0  0
  -28.7650  -22.0560   20.6280 N   0  0  0  0  0  0  0  0  0  0  0  0
  -27.0980  -20.7310   19.8170 O   0  0  0  0  0  0  0  0  0  0  0  0
  -27.6130  -23.6130   19.3950 O   0  0  0  0  0  0  0  0  0  0  0  0
  -29.5360  -22.0140   21.2750 H   0  0  0  0  0  0  0  0  0  0  0  0
  -30.4490  -19.3600   20.2200 C   0  0  0  0  0  3  0  0  0  0  0  0
  -30.8370  -17.9660   20.2400 C   0  0  0  0  0  3  0  0  0  0  0  0
  -29.1020  -19.5900   20.3570 C   0  0  0  0  0  0  0  0  0  0  0  0
  -29.7980  -17.0720   20.4100 C   0  0  0  0  0  0  0  0  0  0  0  0
  -28.2990  -18.0170   20.5110 S   0  0  0  0  0  0  0  0  0  0  0  0
  -30.6260  -14.6980   20.0700 C   0  0  0  0  0  0  0  0  0  0  0  0
  -30.4020  -12.5060   18.9260 C   0  0  0  0  0  2  0  0  0  0  0  0
  -29.3860  -12.6900   17.7770 C   0  0  0  0  0  2  0  0  0  0  0  0
  -27.9400  -12.5060   18.2860 C   0  0  0  0  0  2  0  0  0  0  0  0
  -27.6560  -13.3160   19.5790 C   0  0  0  0  0  3  0  0  0  0  0  0
  -28.7720  -13.0850   20.6210 C   0  0  0  0  0  2  0  0  0  0  0  0
  -30.0480  -13.4610   19.9910 N   0  0  0  0  0  0  0  0  0  0  0  0
  -31.7600  -14.9100   19.6250 O   0  0  0  0  0  0  0  0  0  0  0  0
  -29.7800  -15.6880   20.5010 N   0  0  0  0  0  0  0  0  0  0  0  0
  -28.9010  -15.3130   20.8220 H   0  0  0  0  0  0  0  0  0  0  0  0
  -25.3150  -13.9140   20.4530 C   0  0  0  0  0  0  0  0  0  0  0  0
  -24.2660  -13.1370   20.8650 C   0  0  0  0  0  0  0  0  0  0  0  0
  -24.7150  -11.7840   20.7640 C   0  0  0  0  0  0  0  0  0  0  0  0
  -26.3340  -13.0330   20.1300 N   0  0  0  0  0  0  0  0  0  0  0  0
  -25.9840  -11.7460   20.3780 N   0  0  0  0  0  0  0  0  0  0  0  0
  -23.9960  -10.5210   20.9620 C   0  0  0  0  0  0  0  0  0  0  0  0
  -24.4490   -9.5490   21.8810 C   0  0  0  0  0  3  0  0  0  0  0  0
  -23.7320   -8.3490   22.0640 C   0  0  0  0  0  3  0  0  0  0  0  0
  -22.5480   -8.1100   21.3280 C   0  0  0  0  0  0  0  0  0  0  0  0
  -22.1130   -9.0710   20.3990 C   0  0  0  0  0  3  0  0  0  0  0  0
  -22.8300  -10.2640   20.2130 C   0  0  0  0  0  3  0  0  0  0  0  0
  -21.7980   -6.9620   21.4230 O   0  0  0  0  0  0  0  0  0  0  0  0
  -21.7370   -6.2350   22.5840 C   0  0  0  0  0  0  0  0  0  0  0  0
  -21.2450   -6.7900   23.7850 C   0  0  0  0  0  3  0  0  0  0  0  0
  -21.1330   -5.9880   24.9370 C   0  0  0  0  0  3  0  0  0  0  0  0
  -21.5050   -4.6320   24.8910 C   0  0  0  0  0  0  0  0  0  0  0  0
  -21.9890   -4.0760   23.6940 C   0  0  0  0  0  3  0  0  0  0  0  0
  -22.1030   -4.8750   22.5430 C   0  0  0  0  0  0  0  0  0  0  0  0
  -22.5510   -4.3290   21.3870 F   0  0  0  0  0  0  0  0  0  0  0  0
  -21.3910   -3.8580   25.9950 F   0  0  0  0  0  0  0  0  0  0  0  0
  -22.8910  -13.6120   21.2360 C   0  0  0  0  0  0  0  0  0  0  0  0
  -22.2100  -12.8910   22.1210 N   0  0  0  0  0  0  0  0  0  0  0  0
  -22.4280  -14.6540   20.7760 O   0  0  0  0  0  0  0  0  0  0  0  0
  -22.5980  -12.0490   22.5180 H   0  0  0  0  0  0  0  0  0  0  0  0
  -21.2880  -13.1890   22.4090 H   0  0  0  0  0  0  0  0  0  0  0  0
  -25.4730  -15.2890   20.3060 N   0  0  0  0  0  0  0  0  0  0  0  0
  -24.7000  -15.9280   20.4540 H   0  0  0  0  0  0  0  0  0  0  0  0
  -26.2850  -15.7400   19.9080 H   0  0  0  0  0  0  0  0  0  0  0  0
  -28.6830  -25.6900   21.3370 C   0  0  0  0  0  3  0  0  0  0  0  0
  -28.6970  -24.3140   21.4180 C   0  0  0  0  0  0  0  0  0  0  0  0
  -29.0810  -23.7910   22.5950 O   0  0  0  0  0  0  0  0  0  0  0  0
  -29.2620  -24.5120   23.1820 H   0  0  0  0  0  0  0  0  0  0  0  0
  -28.4480  -26.5440   20.2690 O   0  0  0  0  0  0  0  0  0  0  0  0
  -24.5580  -31.8870   23.2350 C   0  0  0  0  0  0  0  0  0  0  0  0
  -27.3400  -27.3810   20.3020 C   0  0  0  0  0  0  0  0  0  0  0  0
  -23.4350  -30.4610   21.5620 C   0  0  0  0  0  3  0  0  0  0  0  0
  -24.9580  -28.9270   20.2040 C   0  0  0  0  0  0  0  0  0  0  0  0
  -25.9700  -30.8290   21.4610 C   0  0  0  0  0  2  0  0  0  0  0  0
  -26.0950  -29.4460   20.8400 C   0  0  0  0  0  0  0  0  0  0  0  0
  -27.2960  -28.6790   20.8900 C   0  0  0  0  0  3  0  0  0  0  0  0
  -26.1910  -26.9040   19.6500 C   0  0  0  0  0  3  0  0  0  0  0  0
  -25.0050  -27.6570   19.6030 C   0  0  0  0  0  3  0  0  0  0  0  0
  -23.7060  -29.7770   20.1980 C   0  0  0  0  0  2  0  0  0  0  0  0
  -24.6700  -31.0760   22.1430 N   0  0  0  0  0  0  0  0  0  0  0  0
  -23.4520  -32.1480   23.7330 O   0  0  0  0  0  0  0  0  0  0  0  0
  -22.7610  -29.4350   22.5040 C   0  0  0  0  0  0  0  0  0  0  0  0
  -21.4360  -29.2600   22.3560 N   0  0  0  0  0  0  0  0  0  0  0  0
  -23.4290  -28.8010   23.3240 O   0  0  0  0  0  0  0  0  0  0  0  0
  -20.9560  -29.8180   21.6640 H   0  0  0  0  0  0  0  0  0  0  0  0
  -18.0390  -28.1270   22.8580 C   0  0  0  0  0  0  0  0  0  0  0  0
  -20.6060  -28.3190   23.1080 C   0  0  0  0  0  3  0  0  0  0  0  0
  -20.6680  -26.9020   22.4910 C   0  0  0  0  0  2  0  0  0  0  0  0
  -19.5480  -26.6370   21.4800 C   0  0  0  0  0  2  0  0  0  0  0  0
  -18.1770  -26.7960   22.1420 C   0  0  0  0  0  2  0  0  0  0  0  0
  -19.1790  -28.8510   23.2980 C   0  0  0  0  0  0  0  0  0  0  0  0
  -18.9950  -30.1030   23.9260 C   0  0  0  0  0  3  0  0  0  0  0  0
  -17.7030  -30.6260   24.1220 C   0  0  0  0  0  3  0  0  0  0  0  0
  -16.5780  -29.8980   23.6990 C   0  0  0  0  0  3  0  0  0  0  0  0
  -16.7470  -28.6520   23.0700 C   0  0  0  0  0  3  0  0  0  0  0  0
  -25.8080  -32.5440   23.8970 C   0  0  0  0  0  3  0  0  0  0  0  0
  -26.2910  -31.7920   25.1970 C   0  0  1  0  0  0  0  0  0  0  0  0
  -25.1650  -31.5410   26.2270 C   0  0  0  0  0  1  0  0  0  0  0  0
  -26.9150  -30.4230   24.8360 C   0  0  0  0  0  1  0  0  0  0  0  0
  -27.4010  -32.6100   25.8980 C   0  0  0  0  0  1  0  0  0  0  0  0
  -25.4690  -33.9400   24.2060 N   0  0  0  0  0  0  0  0  0  0  0  0
  -25.7970  -34.9880   23.4420 C   0  0  0  0  0  0  0  0  0  0  0  0
  -26.4940  -34.8860   22.4280 O   0  0  0  0  0  0  0  0  0  0  0  0
  -24.8600  -34.0880   24.9970 H   0  0  0  0  0  0  0  0  0  0  0  0
  -24.0490  -36.7470   23.0210 C   0  0  0  0  0  1  0  0  0  0  0  0
  -25.2740  -36.3730   23.8720 C   0  0  0  0  0  3  0  0  0  0  0  0
  -27.3610  -37.3130   24.7610 C   0  0  0  0  0  1  0  0  0  0  0  0
  -26.2930  -37.4420   23.7760 N   0  0  0  0  0  0  0  0  0  0  0  0
  -25.8650  -38.3580   23.8860 H   0  0  0  0  0  0  0  0  0  0  0  0
  1  9  1  0
  1  3  1  0
  2  3  1  0
  2 51  1  0
  3  6  1  0
  4  1  2  0
  5  2  2  0
  7  8  1  0
  7  9  2  0
  8 10  2  0
  9 11  1  0
 10 20  1  0
 10 11  1  0
 12 20  1  0
 13 18  1  0
 14 15  1  0
 14 13  1  0
 16 15  1  0
 16 25  1  0
 16 17  1  0
 18 12  1  0
 18 17  1  0
 19 12  2  0
 20 21  1  0
 22 23  2  0
 23 42  1  0
 24 23  1  0
 24 27  1  0
 25 26  1  0
 25 22  1  0
 26 24  2  0
 27 28  1  0
 28 29  2  0
 30 33  1  0
 30 29  1  0
 31 30  2  0
 32 31  1  0
 32 27  2  0
 33 34  1  0
 34 35  1  0
 35 36  2  0
 37 36  1  0
 37 41  1  0
 38 37  2  0
 39 34  2  0
 39 38  1  0
 40 39  1  0
 42 43  1  0
 43 46  1  0
 43 45  1  0
 44 42  2  0
 47 22  1  0
 47 48  1  0
 49 47  1  0
 50 51  2  0
 51 52  1  0
 52 53  1  0
 54 56  1  0
 54 50  1  0
 55 66  2  0
 56 61  1  0
 57 65  1  0
 57 67  1  0
 58 60  1  0
 59 65  1  0
 60 61  2  0
 60 59  1  0
 62 56  2  0
 63 62  1  0
 63 58  2  0
 64 58  1  0
 64 57  1  0
 65 55  1  0
 67 69  2  0
 68 67  1  0
 70 68  1  0
 71 80  2  0
 71 76  1  0
 72 68  1  0
 72 76  1  0
 73 72  1  0
 74 75  1  0
 74 73  1  0
 75 71  1  0
 76 77  2  0
 77 78  1  0
 79 78  2  0
 80 79  1  0
 81 55  1  0
 81 86  1  0
 81 82  1  0
 82 85  1  1
 82 83  1  0
 84 82  1  0
 86 89  1  0
 87 91  1  0
 87 86  1  0
 88 87  2  0
 91 90  1  0
 93 91  1  0
 93 94  1  0
 93 92  1  0
M  ISO  4  12 100  20 100  50 101  54 101
M  END
>  <TORSDO>  (41) 
F 19

>  <SCORE>  (41) 
-14.390

>  <name>  (41) 
40

>  <ligand_id>  (41) 
40

>  <original_smiles>  (41) 
[H]OC(C(=O)N([H])C(=O)c1sc(N([H])C(=O)N2C([H])([H])C([H])([H])C([H])([H])C([H])(n3nc(-c4c([H])c([H])c(Oc5c([H])c([H])c(F)c([H])c5F)c([H])c4[H])c(C(=O)N([H])[H])c3N([H])[H])C2([H])[H])c([H])c1[H])=C([H])Oc1c([H])c([H])c2c(c1[H])C([H])([H])N(C(=O)C([H])(N([H])C(=O)C([H])(N([H])C([H])([H])[H])C([H])([H])[H])C(C([H])([H])[H])(C([H])([H])[H])C([H])([H])[H])C([H])(C(=O)N([H])C1([H])c3c([H])c([H])c([H])c([H])c3C([H])([H])C([H])([H])C1([H])[H])C2([H])[H]

>  <smiles>  (41) 
[H]OC(C(=O)N([H])C(=O)c1sc(N([H])C(=O)N2C([H])([H])C([H])([H])C([H])([H])C([H])(n3nc(-c4c([H])c([H])c(Oc5c([H])c([H])c(F)c([H])c5F)c([H])c4[H])c(C(=O)N([H])[H])c3N([H])[H])C2([H])[H])c([H])c1[H])=C([H])Oc1c([H])c([H])c2c(c1[H])C([H])([H])N(C(=O)C([H])(N([H])C(=O)C([H])(N([H])C([H])([H])[H])C([H])([H])[H])C(C([H])([H])[H])(C([H])([H])[H])C([H])([H])[H])C([H])(C(=O)N([H])C1([H])c3c([H])c([H])c([H])c([H])c3C([H])([H])C([H])([H])C1([H])[H])C2([H])[H]

$$$$
41:0:0
     RDKit          3D

 94102  0  0  1  0  0  0  0  0999 V2000
  -29.4600  -20.9000   19.7620 C   0  0  0  0  0  0  0  0  0  0  0  0
  -30.0030  -21.6680   18.9610 O   0  0  0  0  0  0  0  0  0  0  0  0
  -30.6430  -14.5330   20.2180 C   0  0  0  0  0  0  0  0  0  0  0  0
  -30.3440  -12.3480   19.1180 C   0  0  0  0  0  2  0  0  0  0  0  0
  -29.3790  -12.5610   17.9310 C   0  0  0  0  0  2  0  0  0  0  0  0
  -27.9140  -12.4220   18.3900 C   0  0  0  0  0  2  0  0  0  0  0  0
  -27.6030  -13.2430   19.6700 C   0  0  0  0  0  3  0  0  0  0  0  0
  -28.6860  -13.0310   20.7530 C   0  0  0  0  0  2  0  0  0  0  0  0
  -29.9910  -13.3370   20.1510 N   0  0  0  0  0  0  0  0  0  0  0  0
  -31.8030  -14.6580   19.8120 O   0  0  0  0  0  0  0  0  0  0  0  0
  -29.8460  -19.4560   19.7990 C   0  0  0  0  0  0  0  0  0  0  0  0
  -30.8380  -18.8000   19.0890 C   0  0  0  0  0  0  0  0  0  0  0  0
  -30.0240  -16.9860   20.2370 C   0  0  0  0  0  0  0  0  0  0  0  0
  -30.9210  -17.4270   19.3470 N   0  0  0  0  0  0  0  0  0  0  0  0
  -29.8860  -15.5960   20.6010 N   0  0  0  0  0  0  0  0  0  0  0  0
  -28.9830  -18.3040   20.8260 S   0  0  0  0  0  0  0  0  0  0  0  0
  -29.0110  -15.3570   21.0380 H   0  0  0  0  0  0  0  0  0  0  0  0
  -25.2240  -13.8440   20.4340 C   0  0  0  0  0  0  0  0  0  0  0  0
  -24.1650  -13.0700   20.8260 C   0  0  0  0  0  0  0  0  0  0  0  0
  -24.6260  -11.7190   20.7820 C   0  0  0  0  0  0  0  0  0  0  0  0
  -26.2630  -12.9640   20.1780 N   0  0  0  0  0  0  0  0  0  0  0  0
  -25.9100  -11.6810   20.4480 N   0  0  0  0  0  0  0  0  0  0  0  0
  -23.9060  -10.4560   20.9870 C   0  0  0  0  0  0  0  0  0  0  0  0
  -24.3530   -9.4910   21.9160 C   0  0  0  0  0  3  0  0  0  0  0  0
  -23.6340   -8.2930   22.1050 C   0  0  0  0  0  3  0  0  0  0  0  0
  -22.4530   -8.0480   21.3670 C   0  0  0  0  0  0  0  0  0  0  0  0
  -22.0240   -9.0010   20.4250 C   0  0  0  0  0  3  0  0  0  0  0  0
  -22.7430  -10.1920   20.2340 C   0  0  0  0  0  3  0  0  0  0  0  0
  -21.7030   -6.9020   21.4650 O   0  0  0  0  0  0  0  0  0  0  0  0
  -21.6670   -6.1640   22.6210 C   0  0  0  0  0  0  0  0  0  0  0  0
  -21.2370   -6.7170   23.8460 C   0  0  0  0  0  3  0  0  0  0  0  0
  -21.1500   -5.9050   24.9940 C   0  0  0  0  0  3  0  0  0  0  0  0
  -21.4810   -4.5390   24.9180 C   0  0  0  0  0  0  0  0  0  0  0  0
  -21.9040   -3.9840   23.6970 C   0  0  0  0  0  3  0  0  0  0  0  0
  -21.9940   -4.7940   22.5510 C   0  0  0  0  0  0  0  0  0  0  0  0
  -22.3810   -4.2500   21.3720 F   0  0  0  0  0  0  0  0  0  0  0  0
  -21.3900   -3.7550   26.0190 F   0  0  0  0  0  0  0  0  0  0  0  0
  -22.7750  -13.5450   21.1280 C   0  0  0  0  0  0  0  0  0  0  0  0
  -22.0650  -12.8440   22.0050 N   0  0  0  0  0  0  0  0  0  0  0  0
  -22.3260  -14.5730   20.6220 O   0  0  0  0  0  0  0  0  0  0  0  0
  -22.4420  -12.0130   22.4340 H   0  0  0  0  0  0  0  0  0  0  0  0
  -21.1320  -13.1430   22.2510 H   0  0  0  0  0  0  0  0  0  0  0  0
  -25.3850  -15.2150   20.2540 N   0  0  0  0  0  0  0  0  0  0  0  0
  -24.6090  -15.8610   20.3530 H   0  0  0  0  0  0  0  0  0  0  0  0
  -26.2150  -15.6490   19.8680 H   0  0  0  0  0  0  0  0  0  0  0  0
  -31.7420  -19.3390   18.1680 N   0  0  0  0  0  0  0  0  0  0  0  0
  -31.7570  -20.3350   17.9640 H   0  0  0  0  0  0  0  0  0  0  0  0
  -32.4590  -18.7810   17.7190 H   0  0  0  0  0  0  0  0  0  0  0  0
  -28.4050  -21.5180   20.7070 C   0  0  0  0  0  2  0  0  0  0  0  0
  -27.7490  -22.8400   20.1620 C   0  0  0  0  0  2  0  0  0  0  0  0
  -28.3010  -24.1830   20.6960 C   0  0  0  0  0  0  0  0  0  0  0  0
  -28.5530  -24.3260   21.8980 O   0  0  0  0  0  0  0  0  0  0  0  0
  -28.5360  -25.3360   19.6800 C   0  0  0  0  0  2  0  0  0  0  0  0
  -28.4480  -26.6640   20.2600 O   0  0  0  0  0  0  0  0  0  0  0  0
  -24.6090  -31.8910   23.2390 C   0  0  0  0  0  0  0  0  0  0  0  0
  -27.2620  -27.3850   20.2190 C   0  0  0  0  0  0  0  0  0  0  0  0
  -23.4090  -30.4720   21.6080 C   0  0  0  0  0  3  0  0  0  0  0  0
  -24.8690  -28.9160   20.2070 C   0  0  0  0  0  0  0  0  0  0  0  0
  -25.9390  -30.8210   21.4160 C   0  0  0  0  0  2  0  0  0  0  0  0
  -26.0260  -29.4400   20.7930 C   0  0  0  0  0  0  0  0  0  0  0  0
  -27.2220  -28.6810   20.7960 C   0  0  0  0  0  3  0  0  0  0  0  0
  -26.0790  -26.8830   19.6300 C   0  0  0  0  0  3  0  0  0  0  0  0
  -24.8920  -27.6390   19.6240 C   0  0  0  0  0  3  0  0  0  0  0  0
  -23.6240  -29.7760   20.2380 C   0  0  0  0  0  2  0  0  0  0  0  0
  -24.6710  -31.0780   22.1460 N   0  0  0  0  0  0  0  0  0  0  0  0
  -23.5250  -32.1700   23.7720 O   0  0  0  0  0  0  0  0  0  0  0  0
  -22.7520  -29.4630   22.5790 C   0  0  0  0  0  0  0  0  0  0  0  0
  -21.4290  -29.2760   22.4460 N   0  0  0  0  0  0  0  0  0  0  0  0
  -23.4330  -28.8490   23.4060 O   0  0  0  0  0  0  0  0  0  0  0  0
  -20.9410  -29.8200   21.7480 H   0  0  0  0  0  0  0  0  0  0  0  0
  -18.0570  -28.0740   22.9410 C   0  0  0  0  0  0  0  0  0  0  0  0
  -20.6120  -28.3450   23.2240 C   0  0  0  0  0  3  0  0  0  0  0  0
  -20.7240  -26.9080   22.6650 C   0  0  0  0  0  2  0  0  0  0  0  0
  -19.6290  -26.5700   21.6480 C   0  0  0  0  0  2  0  0  0  0  0  0
  -18.2420  -26.7180   22.2810 C   0  0  0  0  0  2  0  0  0  0  0  0
  -19.1700  -28.8450   23.3680 C   0  0  0  0  0  0  0  0  0  0  0  0
  -18.9450  -30.1140   23.9440 C   0  0  0  0  0  3  0  0  0  0  0  0
  -17.6370  -30.6140   24.0930 C   0  0  0  0  0  3  0  0  0  0  0  0
  -16.5390  -29.8420   23.6810 C   0  0  0  0  0  3  0  0  0  0  0  0
  -16.7480  -28.5740   23.1120 C   0  0  0  0  0  3  0  0  0  0  0  0
  -25.8910  -32.5310   23.8580 C   0  0  0  0  0  3  0  0  0  0  0  0
  -25.5780  -33.9310   24.1740 N   0  0  0  0  0  0  0  0  0  0  0  0
  -25.9110  -34.9770   23.4070 C   0  0  0  0  0  0  0  0  0  0  0  0
  -26.5840  -34.8660   22.3780 O   0  0  0  0  0  0  0  0  0  0  0  0
  -24.9800  -34.0920   24.9710 H   0  0  0  0  0  0  0  0  0  0  0  0
  -24.1820  -36.7650   23.0230 C   0  0  0  0  0  1  0  0  0  0  0  0
  -25.4160  -36.3670   23.8490 C   0  0  0  0  0  3  0  0  0  0  0  0
  -27.5460  -37.2540   24.6880 C   0  0  0  0  0  1  0  0  0  0  0  0
  -26.4450  -37.4250   23.7440 N   0  0  0  0  0  0  0  0  0  0  0  0
  -26.0330  -38.3410   23.9040 H   0  0  0  0  0  0  0  0  0  0  0  0
  -26.4080  -31.7700   25.1410 C   0  0  1  0  0  0  0  0  0  0  0  0
  -25.3130  -31.5360   26.2090 C   0  0  0  0  0  1  0  0  0  0  0  0
  -26.9970  -30.3920   24.7600 C   0  0  0  0  0  1  0  0  0  0  0  0
  -27.5560  -32.5740   25.7990 C   0  0  0  0  0  1  0  0  0  0  0  0
  1 11  1  0
  1 49  1  0
  2  1  2  0
  3 15  1  0
  4  9  1  0
  5  6  1  0
  5  4  1  0
  7  6  1  0
  7 21  1  0
  7  8  1  0
  9  3  1  0
  9  8  1  0
 10  3  2  0
 11 16  1  0
 12 14  1  0
 12 11  2  0
 13 15  1  0
 13 16  1  0
 14 13  2  0
 15 17  1  0
 18 19  2  0
 19 38  1  0
 20 19  1  0
 20 23  1  0
 21 18  1  0
 21 22  1  0
 22 20  2  0
 23 24  1  0
 24 25  2  0
 26 29  1  0
 26 25  1  0
 27 26  2  0
 28 27  1  0
 28 23  2  0
 29 30  1  0
 30 31  1  0
 31 32  2  0
 33 32  1  0
 33 37  1  0
 34 33  2  0
 35 30  2  0
 35 34  1  0
 36 35  1  0
 38 39  1  0
 39 42  1  0
 39 41  1  0
 40 38  2  0
 43 44  1  0
 43 18  1  0
 45 43  1  0
 46 12  1  0
 47 46  1  0
 48 46  1  0
 50 51  1  0
 50 49  1  0
 51 52  2  0
 53 54  1  0
 53 51  1  0
 55 66  2  0
 56 54  1  0
 56 61  1  0
 57 65  1  0
 57 67  1  0
 58 64  1  0
 58 60  1  0
 59 65  1  0
 60 61  2  0
 60 59  1  0
 62 56  2  0
 63 62  1  0
 63 58  2  0
 64 57  1  0
 65 55  1  0
 67 69  2  0
 68 67  1  0
 70 68  1  0
 71 80  2  0
 71 76  1  0
 72 68  1  0
 72 76  1  0
 73 72  1  0
 74 75  1  0
 74 73  1  0
 75 71  1  0
 76 77  2  0
 77 78  1  0
 79 78  2  0
 80 79  1  0
 81 55  1  0
 81 82  1  0
 81 91  1  0
 82 85  1  0
 83 87  1  0
 83 82  1  0
 84 83  2  0
 87 86  1  0
 89 87  1  0
 89 90  1  0
 89 88  1  0
 91 94  1  1
 91 92  1  0
 93 91  1  0
M  ISO  4   3 100  15 100  53 101  54 101
M  END
>  <TORSDO>  (42) 
F 21

>  <SCORE>  (42) 
-13.607

>  <name>  (42) 
41

>  <ligand_id>  (42) 
41

>  <original_smiles>  (42) 
[H]c1c([H])c([H])c2c(c1[H])C([H])([H])C([H])([H])C([H])([H])C2([H])N([H])C(=O)C1([H])N(C(=O)C([H])(N([H])C(=O)C([H])(N([H])C([H])([H])[H])C([H])([H])[H])C(C([H])([H])[H])(C([H])([H])[H])C([H])([H])[H])C([H])([H])c2c([H])c(OC([H])([H])C(=O)C([H])([H])C([H])([H])C(=O)c3sc(N([H])C(=O)N4C([H])([H])C([H])([H])C([H])([H])C([H])(n5nc(-c6c([H])c([H])c(Oc7c([H])c([H])c(F)c([H])c7F)c([H])c6[H])c(C(=O)N([H])[H])c5N([H])[H])C4([H])[H])nc3N([H])[H])c([H])c([H])c2C1([H])[H]

>  <smiles>  (42) 
[H]c1c([H])c([H])c2c(c1[H])C([H])([H])C([H])([H])C([H])([H])C2([H])N([H])C(=O)C1([H])N(C(=O)C([H])(N([H])C(=O)C([H])(N([H])C([H])([H])[H])C([H])([H])[H])C(C([H])([H])[H])(C([H])([H])[H])C([H])([H])[H])C([H])([H])c2c([H])c(OC([H])([H])C(=O)C([H])([H])C([H])([H])C(=O)c3sc(N([H])C(=O)N4C([H])([H])C([H])([H])C([H])([H])C([H])(n5nc(-c6c([H])c([H])c(Oc7c([H])c([H])c(F)c([H])c7F)c([H])c6[H])c(C(=O)N([H])[H])c5N([H])[H])C4([H])[H])nc3N([H])[H])c([H])c([H])c2C1([H])[H]

$$$$
42:0:0
     RDKit          3D

100108  0  0  1  0  0  0  0  0999 V2000
  -29.3230  -21.9000   19.7480 C   0  0  0  0  0  0  0  0  0  0  0  0
  -30.4850  -22.5610   17.5310 C   0  0  0  0  0  1  0  0  0  0  0  0
  -30.6640  -21.9530   18.9360 C   0  0  2  0  0  0  0  0  0  0  0  0
  -31.1850  -20.7450   18.7230 F   0  0  0  0  0  0  0  0  0  0  0  0
  -31.5830  -22.6680   19.5840 F   0  0  0  0  0  0  0  0  0  0  0  0
  -29.0580  -23.1510   20.6720 C   0  0  0  0  0  0  0  0  0  0  0  0
  -28.6910  -23.0160   21.8410 O   0  0  0  0  0  0  0  0  0  0  0  0
  -29.2600  -24.6040   20.1440 C   0  0  0  0  0  2  0  0  0  0  0  0
  -27.9710  -25.4700   19.9790 C   0  0  0  0  0  2  0  0  0  0  0  0
  -28.1640  -26.9150   20.0330 O   0  0  0  0  0  0  0  0  0  0  0  0
  -24.5050  -32.0920   23.3740 C   0  0  0  0  0  0  0  0  0  0  0  0
  -27.0180  -27.7030   20.0630 C   0  0  0  0  0  0  0  0  0  0  0  0
  -23.2400  -30.7540   21.7290 C   0  0  0  0  0  3  0  0  0  0  0  0
  -24.6360  -29.2610   20.2030 C   0  0  0  0  0  0  0  0  0  0  0  0
  -25.7670  -31.0970   21.4620 C   0  0  0  0  0  2  0  0  0  0  0  0
  -25.8230  -29.7470   20.7650 C   0  0  0  0  0  0  0  0  0  0  0  0
  -27.0170  -28.9820   20.6840 C   0  0  0  0  0  3  0  0  0  0  0  0
  -25.8040  -27.2510   19.4880 C   0  0  0  0  0  3  0  0  0  0  0  0
  -24.6260  -28.0140   19.5590 C   0  0  0  0  0  3  0  0  0  0  0  0
  -23.4010  -30.1260   20.3200 C   0  0  0  0  0  2  0  0  0  0  0  0
  -24.5250  -31.3270   22.2460 N   0  0  0  0  0  0  0  0  0  0  0  0
  -23.4430  -32.3510   23.9550 O   0  0  0  0  0  0  0  0  0  0  0  0
  -22.6130  -29.7010   22.6730 C   0  0  0  0  0  0  0  0  0  0  0  0
  -21.2950  -29.4770   22.5350 N   0  0  0  0  0  0  0  0  0  0  0  0
  -23.3080  -29.0880   23.4880 O   0  0  0  0  0  0  0  0  0  0  0  0
  -20.7930  -30.0280   21.8530 H   0  0  0  0  0  0  0  0  0  0  0  0
  -17.9630  -28.1400   22.9590 C   0  0  0  0  0  0  0  0  0  0  0  0
  -20.5010  -28.5050   23.2870 C   0  0  0  0  0  3  0  0  0  0  0  0
  -20.6760  -27.0780   22.7160 C   0  0  0  0  0  2  0  0  0  0  0  0
  -19.6130  -26.7110   21.6770 C   0  0  0  0  0  2  0  0  0  0  0  0
  -18.2110  -26.7980   22.2900 C   0  0  0  0  0  2  0  0  0  0  0  0
  -19.0390  -28.9490   23.4110 C   0  0  0  0  0  0  0  0  0  0  0  0
  -18.7560  -30.2030   23.9920 C   0  0  0  0  0  3  0  0  0  0  0  0
  -17.4280  -30.6510   24.1300 C   0  0  0  0  0  3  0  0  0  0  0  0
  -16.3670  -29.8400   23.6940 C   0  0  0  0  0  3  0  0  0  0  0  0
  -16.6340  -28.5870   23.1140 C   0  0  0  0  0  3  0  0  0  0  0  0
  -25.8140  -32.6970   23.9710 C   0  0  0  0  0  3  0  0  0  0  0  0
  -25.5510  -34.1120   24.2670 N   0  0  0  0  0  0  0  0  0  0  0  0
  -25.9340  -35.1360   23.4940 C   0  0  0  0  0  0  0  0  0  0  0  0
  -26.6160  -34.9870   22.4750 O   0  0  0  0  0  0  0  0  0  0  0  0
  -24.9480  -34.3040   25.0550 H   0  0  0  0  0  0  0  0  0  0  0  0
  -24.3020  -36.9960   23.0450 C   0  0  0  0  0  1  0  0  0  0  0  0
  -25.4900  -36.5510   23.9130 C   0  0  0  0  0  3  0  0  0  0  0  0
  -27.6140  -37.3610   24.8380 C   0  0  0  0  0  1  0  0  0  0  0  0
  -26.5710  -37.5570   23.8340 N   0  0  0  0  0  0  0  0  0  0  0  0
  -26.2000  -38.4970   23.9390 H   0  0  0  0  0  0  0  0  0  0  0  0
  -26.3120  -31.9400   25.2630 C   0  0  1  0  0  0  0  0  0  0  0  0
  -25.2120  -31.7470   26.3350 C   0  0  0  0  0  1  0  0  0  0  0  0
  -26.8650  -30.5440   24.8960 C   0  0  0  0  0  1  0  0  0  0  0  0
  -27.4780  -32.7220   25.9100 C   0  0  0  0  0  1  0  0  0  0  0  0
  -28.9340  -20.5750   20.3200 N   0  0  0  0  0  4  0  0  0  0  0  0
  -28.1340  -20.1810   19.8470 H   0  0  0  0  0  0  0  0  0  0  0  0
  -30.6390  -14.8740   20.2960 C   0  0  0  0  0  0  0  0  0  0  0  0
  -30.4010  -12.6510   19.2120 C   0  0  0  0  0  2  0  0  0  0  0  0
  -29.4370  -12.8010   18.0140 C   0  0  0  0  0  2  0  0  0  0  0  0
  -27.9740  -12.6360   18.4730 C   0  0  0  0  0  2  0  0  0  0  0  0
  -27.6340  -13.4830   19.7310 C   0  0  0  0  0  3  0  0  0  0  0  0
  -28.7210  -13.3210   20.8190 C   0  0  0  0  0  2  0  0  0  0  0  0
  -30.0160  -13.6630   20.2090 N   0  0  0  0  0  0  0  0  0  0  0  0
  -31.7630  -15.0700   19.8180 O   0  0  0  0  0  0  0  0  0  0  0  0
  -31.2080  -17.4780   22.0150 C   0  0  0  0  0  3  0  0  0  0  0  0
  -30.7340  -19.8650   21.8960 C   0  0  0  0  0  0  0  0  0  0  0  0
  -31.4720  -18.7890   22.4350 C   0  0  0  0  0  0  0  0  0  0  0  0
  -30.1990  -17.2460   21.0620 C   0  0  0  0  0  0  0  0  0  0  0  0
  -29.7520  -19.5800   20.9190 C   0  0  0  0  0  0  0  0  0  0  0  0
  -29.4780  -18.2920   20.5560 N   0  0  0  0  0  0  0  0  0  0  0  0
  -29.8630  -15.8830   20.7670 N   0  0  0  0  0  0  0  0  0  0  0  0
  -32.4110  -19.0210   23.3840 F   0  0  0  0  0  0  0  0  0  0  0  0
  -28.9020  -15.6310   20.9340 H   0  0  0  0  0  0  0  0  0  0  0  0
  -25.2460  -14.0310   20.5260 C   0  0  0  0  0  0  0  0  0  0  0  0
  -24.2060  -13.2320   20.9140 C   0  0  0  0  0  0  0  0  0  0  0  0
  -24.6870  -11.8900   20.8380 C   0  0  0  0  0  0  0  0  0  0  0  0
  -26.3010  -13.1750   20.2450 N   0  0  0  0  0  0  0  0  0  0  0  0
  -25.9670  -11.8800   20.4870 N   0  0  0  0  0  0  0  0  0  0  0  0
  -23.9860  -10.6120   21.0210 C   0  0  0  0  0  0  0  0  0  0  0  0
  -24.4240   -9.6510   21.9610 C   0  0  0  0  0  3  0  0  0  0  0  0
  -23.7150   -8.4420   22.1340 C   0  0  0  0  0  3  0  0  0  0  0  0
  -22.5560   -8.1830   21.3640 C   0  0  0  0  0  0  0  0  0  0  0  0
  -22.1380   -9.1310   20.4130 C   0  0  0  0  0  3  0  0  0  0  0  0
  -22.8490  -10.3300   20.2370 C   0  0  0  0  0  3  0  0  0  0  0  0
  -21.8240   -7.0230   21.4420 O   0  0  0  0  0  0  0  0  0  0  0  0
  -21.7540   -6.2950   22.6040 C   0  0  0  0  0  0  0  0  0  0  0  0
  -21.2010   -6.8310   23.7860 C   0  0  0  0  0  3  0  0  0  0  0  0
  -21.0810   -6.0250   24.9360 C   0  0  0  0  0  3  0  0  0  0  0  0
  -21.5070   -4.6830   24.9040 C   0  0  0  0  0  0  0  0  0  0  0  0
  -22.0590   -4.1480   23.7260 C   0  0  0  0  0  3  0  0  0  0  0  0
  -22.1760   -4.9510   22.5790 C   0  0  0  0  0  0  0  0  0  0  0  0
  -22.6870   -4.4220   21.4400 F   0  0  0  0  0  0  0  0  0  0  0  0
  -21.3890   -3.9080   26.0060 F   0  0  0  0  0  0  0  0  0  0  0  0
  -22.8110  -13.6830   21.2430 C   0  0  0  0  0  0  0  0  0  0  0  0
  -22.1180  -12.9550   22.1130 N   0  0  0  0  0  0  0  0  0  0  0  0
  -22.3450  -14.7160   20.7670 O   0  0  0  0  0  0  0  0  0  0  0  0
  -22.5090  -12.1210   22.5250 H   0  0  0  0  0  0  0  0  0  0  0  0
  -21.1860  -13.2450   22.3770 H   0  0  0  0  0  0  0  0  0  0  0  0
  -25.3750  -15.4100   20.3750 N   0  0  0  0  0  0  0  0  0  0  0  0
  -24.5810  -16.0250   20.5150 H   0  0  0  0  0  0  0  0  0  0  0  0
  -26.1860  -15.8910   20.0080 H   0  0  0  0  0  0  0  0  0  0  0  0
  -30.9530  -21.1540   22.3800 N   0  0  0  0  0  0  0  0  0  0  0  0
  -31.8220  -21.3720   22.8540 H   0  0  0  0  0  0  0  0  0  0  0  0
  -30.5070  -21.9300   21.9110 H   0  0  0  0  0  0  0  0  0  0  0  0
  1 51  2  3
  1  6  1  0
  3  2  1  6
  3  5  1  0
  3  1  1  0
  4  3  1  0
  6  7  2  0
  8  6  1  0
  9 10  1  0
  9  8  1  0
 10 12  1  0
 11 22  2  0
 12 17  1  0
 13 21  1  0
 13 23  1  0
 14 20  1  0
 14 16  1  0
 15 21  1  0
 16 15  1  0
 17 16  2  0
 18 19  1  0
 18 12  2  0
 19 14  2  0
 20 13  1  0
 21 11  1  0
 23 25  2  0
 24 23  1  0
 26 24  1  0
 27 36  2  0
 27 32  1  0
 28 24  1  0
 28 32  1  0
 29 28  1  0
 30 31  1  0
 30 29  1  0
 31 27  1  0
 32 33  2  0
 33 34  1  0
 35 34  2  0
 36 35  1  0
 37 11  1  0
 37 38  1  0
 37 47  1  0
 38 41  1  0
 39 43  1  0
 39 38  1  0
 40 39  2  0
 43 42  1  0
 45 43  1  0
 45 46  1  0
 45 44  1  0
 47 50  1  1
 47 48  1  0
 49 47  1  0
 51 65  1  0
 52 51  1  0
 53 67  1  0
 54 59  1  0
 55 56  1  0
 55 54  1  0
 57 56  1  0
 57 73  1  0
 57 58  1  0
 59 53  1  0
 59 58  1  0
 60 53  2  0
 61 63  1  0
 62 98  1  0
 62 63  2  0
 63 68  1  0
 64 61  2  0
 65 62  1  0
 66 65  2  0
 66 64  1  0
 67 69  1  0
 67 64  1  0
 70 71  2  0
 71 90  1  0
 72 71  1  0
 72 75  1  0
 73 74  1  0
 73 70  1  0
 74 72  2  0
 75 76  1  0
 76 77  2  0
 78 81  1  0
 78 77  1  0
 79 78  2  0
 80 79  1  0
 80 75  2  0
 81 82  1  0
 82 83  1  0
 83 84  2  0
 85 84  1  0
 85 89  1  0
 86 85  2  0
 87 82  2  0
 87 86  1  0
 88 87  1  0
 90 91  1  0
 91 94  1  0
 91 93  1  0
 92 90  2  0
 95 96  1  0
 95 70  1  0
 97 95  1  0
 98 99  1  0
100 98  1  0
M  ISO  4   9 101  10 101  53 100  67 100
M  END
>  <TORSDO>  (43) 
F 22

>  <SCORE>  (43) 
-12.926

>  <name>  (43) 
42

>  <ligand_id>  (43) 
42

>  <original_smiles>  (43) 
[H]c1c([H])c([H])c2c(c1[H])C([H])([H])C([H])([H])C([H])([H])C2([H])N([H])C(=O)C1([H])N(C(=O)C([H])(N([H])C(=O)C([H])(N([H])C([H])([H])[H])C([H])([H])[H])C(C([H])([H])[H])(C([H])([H])[H])C([H])([H])[H])C([H])([H])c2c([H])c(OC([H])([H])C([H])([H])C(=O)C([H])(N([H])c3nc(N([H])C(=O)N4C([H])([H])C([H])([H])C([H])([H])C([H])(n5nc(-c6c([H])c([H])c(Oc7c([H])c([H])c(F)c([H])c7F)c([H])c6[H])c(C(=O)N([H])[H])c5N([H])[H])C4([H])[H])c([H])c(F)c3N([H])[H])C(F)(F)C([H])([H])[H])c([H])c([H])c2C1([H])[H]

>  <smiles>  (43) 
[H]c1c([H])c([H])c2c(c1[H])C([H])([H])C([H])([H])C([H])([H])C2([H])N([H])C(=O)C1([H])N(C(=O)C([H])(N([H])C(=O)C([H])(N([H])C([H])([H])[H])C([H])([H])[H])C(C([H])([H])[H])(C([H])([H])[H])C([H])([H])[H])C([H])([H])c2c([H])c(OC([H])([H])C([H])([H])C(=O)C([H])(N([H])c3nc(N([H])C(=O)N4C([H])([H])C([H])([H])C([H])([H])C([H])(n5nc(-c6c([H])c([H])c(Oc7c([H])c([H])c(F)c([H])c7F)c([H])c6[H])c(C(=O)N([H])[H])c5N([H])[H])C4([H])[H])c([H])c(F)c3N([H])[H])C(F)(F)C([H])([H])[H])c([H])c([H])c2C1([H])[H]

$$$$
43:0:0
     RDKit          3D

 95103  0  0  1  0  0  0  0  0999 V2000
  -29.2710  -22.7180   21.8250 C   0  0  0  0  0  0  0  0  0  0  0  0
  -29.0430  -23.0850   22.9860 O   0  0  0  0  0  0  0  0  0  0  0  0
  -28.8470  -23.7450   20.7380 C   0  0  0  0  0  0  0  0  0  0  0  0
  -27.8700  -23.5650   20.0000 O   0  0  0  0  0  0  0  0  0  0  0  0
  -29.7320  -24.9900   20.6040 C   0  0  0  0  0  2  0  0  0  0  0  0
  -30.0730  -27.3820   21.3120 C   0  0  0  0  0  1  0  0  0  0  0  0
  -29.0240  -26.3300   20.9060 C   0  0  0  0  0  3  0  0  0  0  0  0
  -28.3440  -26.7490   19.7200 O   0  0  0  0  0  0  0  0  0  0  0  0
  -24.5270  -31.7380   23.1370 C   0  0  0  0  0  0  0  0  0  0  0  0
  -27.1750  -27.4600   19.8640 C   0  0  0  0  0  0  0  0  0  0  0  0
  -23.2990  -30.3710   21.4780 C   0  0  0  0  0  3  0  0  0  0  0  0
  -24.7430  -28.8950   19.9780 C   0  0  0  0  0  0  0  0  0  0  0  0
  -25.8070  -30.7830   21.2280 C   0  0  0  0  0  2  0  0  0  0  0  0
  -25.9000  -29.4300   20.5560 C   0  0  0  0  0  0  0  0  0  0  0  0
  -27.1170  -28.7200   20.5000 C   0  0  0  0  0  3  0  0  0  0  0  0
  -26.0040  -26.9350   19.2800 C   0  0  0  0  0  3  0  0  0  0  0  0
  -24.7870  -27.6420   19.3400 C   0  0  0  0  0  3  0  0  0  0  0  0
  -23.4840  -29.7300   20.0750 C   0  0  0  0  0  2  0  0  0  0  0  0
  -24.5640  -30.9770   22.0070 N   0  0  0  0  0  0  0  0  0  0  0  0
  -23.4570  -31.9770   23.7130 O   0  0  0  0  0  0  0  0  0  0  0  0
  -22.6880  -29.3120   22.4230 C   0  0  0  0  0  0  0  0  0  0  0  0
  -21.3710  -29.0840   22.2910 N   0  0  0  0  0  0  0  0  0  0  0  0
  -23.3940  -28.6970   23.2260 O   0  0  0  0  0  0  0  0  0  0  0  0
  -20.8630  -29.6360   21.6140 H   0  0  0  0  0  0  0  0  0  0  0  0
  -18.0500  -27.7340   22.7280 C   0  0  0  0  0  0  0  0  0  0  0  0
  -20.5880  -28.1050   23.0420 C   0  0  0  0  0  3  0  0  0  0  0  0
  -20.7650  -26.6840   22.4590 C   0  0  0  0  0  2  0  0  0  0  0  0
  -19.6950  -26.3180   21.4250 C   0  0  0  0  0  2  0  0  0  0  0  0
  -18.2980  -26.3970   22.0490 C   0  0  0  0  0  2  0  0  0  0  0  0
  -19.1260  -28.5430   23.1800 C   0  0  0  0  0  0  0  0  0  0  0  0
  -18.8410  -29.7920   23.7730 C   0  0  0  0  0  3  0  0  0  0  0  0
  -17.5130  -30.2340   23.9190 C   0  0  0  0  0  3  0  0  0  0  0  0
  -16.4510  -29.4230   23.4840 C   0  0  0  0  0  3  0  0  0  0  0  0
  -16.7200  -28.1740   22.8940 C   0  0  0  0  0  3  0  0  0  0  0  0
  -25.8220  -32.3660   23.7450 C   0  0  0  0  0  3  0  0  0  0  0  0
  -25.5110  -33.7530   24.1100 N   0  0  0  0  0  0  0  0  0  0  0  0
  -25.8360  -34.8250   23.3730 C   0  0  0  0  0  0  0  0  0  0  0  0
  -26.5020  -34.7470   22.3370 O   0  0  0  0  0  0  0  0  0  0  0  0
  -24.9190  -33.8880   24.9170 H   0  0  0  0  0  0  0  0  0  0  0  0
  -24.1000  -36.6170   23.0640 C   0  0  0  0  0  1  0  0  0  0  0  0
  -25.3450  -36.1990   23.8630 C   0  0  0  0  0  3  0  0  0  0  0  0
  -27.4790  -37.0700   24.7080 C   0  0  0  0  0  1  0  0  0  0  0  0
  -26.3740  -37.2580   23.7730 N   0  0  0  0  0  0  0  0  0  0  0  0
  -25.9650  -38.1720   23.9440 H   0  0  0  0  0  0  0  0  0  0  0  0
  -26.3740  -31.5690   24.9900 C   0  0  1  0  0  0  0  0  0  0  0  0
  -25.3030  -31.2770   26.0660 C   0  0  0  0  0  1  0  0  0  0  0  0
  -26.9800  -30.2170   24.5470 C   0  0  0  0  0  1  0  0  0  0  0  0
  -27.5180  -32.3680   25.6580 C   0  0  0  0  0  1  0  0  0  0  0  0
  -29.8430  -21.5380   21.4540 N   0  0  0  0  0  2  0  0  0  0  0  0
  -30.4660  -20.6430   22.2610 C   0  0  0  0  0  0  0  0  0  0  0  0
  -30.7180  -20.7340   23.4670 O   0  0  0  0  0  0  0  0  0  0  0  0
  -31.5040  -14.6890   20.1410 C   0  0  0  0  0  0  0  0  0  0  0  0
  -31.0820  -12.5830   18.9190 C   0  0  0  0  0  2  0  0  0  0  0  0
  -30.0850  -12.8500   17.7720 C   0  0  0  0  0  2  0  0  0  0  0  0
  -28.6290  -12.7530   18.2700 C   0  0  0  0  0  2  0  0  0  0  0  0
  -28.3860  -13.5710   19.5670 C   0  0  0  0  0  3  0  0  0  0  0  0
  -29.4790  -13.2590   20.6130 C   0  0  0  0  0  2  0  0  0  0  0  0
  -30.7950  -13.5360   20.0020 N   0  0  0  0  0  0  0  0  0  0  0  0
  -32.5510  -14.9080   19.5190 O   0  0  0  0  0  0  0  0  0  0  0  0
  -30.8360  -19.3840   21.5590 C   0  0  0  0  0  0  0  0  0  0  0  0
  -31.6330  -19.1020   20.4650 C   0  0  0  0  0  0  0  0  0  0  0  0
  -31.0670  -16.9750   21.0610 C   0  0  0  0  0  0  0  0  0  0  0  0
  -32.3710  -20.0740   19.5910 C   0  0  0  0  0  1  0  0  0  0  0  0
  -31.7460  -17.7300   20.1880 N   0  0  0  0  0  0  0  0  0  0  0  0
  -30.9650  -15.5610   21.0070 N   0  0  0  0  0  0  0  0  0  0  0  0
  -30.2210  -17.9080   22.2800 S   0  0  0  0  0  0  0  0  0  0  0  0
  -30.2290  -15.1730   21.5760 H   0  0  0  0  0  0  0  0  0  0  0  0
  -26.0670  -14.2600   20.4510 C   0  0  0  0  0  0  0  0  0  0  0  0
  -24.9780  -13.5230   20.8310 C   0  0  0  0  0  0  0  0  0  0  0  0
  -25.3570  -12.1540   20.6810 C   0  0  0  0  0  0  0  0  0  0  0  0
  -27.0460  -13.3420   20.1010 N   0  0  0  0  0  0  0  0  0  0  0  0
  -26.6220  -12.0660   20.2930 N   0  0  0  0  0  0  0  0  0  0  0  0
  -24.5720  -10.9220   20.8300 C   0  0  0  0  0  0  0  0  0  0  0  0
  -24.9380   -9.9210   21.7560 C   0  0  0  0  0  3  0  0  0  0  0  0
  -24.1560   -8.7540   21.8930 C   0  0  0  0  0  3  0  0  0  0  0  0
  -22.9960   -8.5790   21.1020 C   0  0  0  0  0  0  0  0  0  0  0  0
  -22.6490   -9.5690   20.1660 C   0  0  0  0  0  3  0  0  0  0  0  0
  -23.4290  -10.7280   20.0270 C   0  0  0  0  0  3  0  0  0  0  0  0
  -22.1910   -7.4660   21.1490 O   0  0  0  0  0  0  0  0  0  0  0  0
  -21.9810   -6.7770   22.3170 C   0  0  0  0  0  0  0  0  0  0  0  0
  -21.4500   -7.4040   23.4650 C   0  0  0  0  0  3  0  0  0  0  0  0
  -21.1860   -6.6430   24.6220 C   0  0  0  0  0  3  0  0  0  0  0  0
  -21.4430   -5.2590   24.6310 C   0  0  0  0  0  0  0  0  0  0  0  0
  -21.9660   -4.6330   23.4860 C   0  0  0  0  0  3  0  0  0  0  0  0
  -22.2320   -5.3910   22.3310 C   0  0  0  0  0  0  0  0  0  0  0  0
  -22.7170   -4.7790   21.2230 F   0  0  0  0  0  0  0  0  0  0  0  0
  -21.1810   -4.5270   25.7380 F   0  0  0  0  0  0  0  0  0  0  0  0
  -23.6280  -14.0540   21.2220 C   0  0  0  0  0  0  0  0  0  0  0  0
  -22.9290  -13.3580   22.1110 N   0  0  0  0  0  0  0  0  0  0  0  0
  -23.2060  -15.1200   20.7740 O   0  0  0  0  0  0  0  0  0  0  0  0
  -23.2850  -12.4950   22.4950 H   0  0  0  0  0  0  0  0  0  0  0  0
  -22.0260  -13.6950   22.4150 H   0  0  0  0  0  0  0  0  0  0  0  0
  -26.3010  -15.6290   20.3560 N   0  0  0  0  0  0  0  0  0  0  0  0
  -25.5820  -16.3170   20.5530 H   0  0  0  0  0  0  0  0  0  0  0  0
  -27.1550  -16.0430   20.0050 H   0  0  0  0  0  0  0  0  0  0  0  0
  1  2  2  0
  3  1  1  0
  4  3  2  0
  5  3  1  0
  5  7  1  0
  7  6  1  0
  8 10  1  0
  8  7  1  0
  9 20  2  0
 10 15  1  0
 11 19  1  0
 11 21  1  0
 12 18  1  0
 12 14  1  0
 13 19  1  0
 14 13  1  0
 15 14  2  0
 16 17  1  0
 16 10  2  0
 17 12  2  0
 18 11  1  0
 19  9  1  0
 21 23  2  0
 22 21  1  0
 24 22  1  0
 25 34  2  0
 25 30  1  0
 26 22  1  0
 26 30  1  0
 27 26  1  0
 28 29  1  0
 28 27  1  0
 29 25  1  0
 30 31  2  0
 31 32  1  0
 33 32  2  0
 34 33  1  0
 35  9  1  0
 35 36  1  0
 35 45  1  0
 36 39  1  0
 37 41  1  0
 37 36  1  0
 38 37  2  0
 41 40  1  0
 43 41  1  0
 43 44  1  0
 43 42  1  0
 45 48  1  1
 45 46  1  0
 47 45  1  0
 49  1  1  0
 49 50  1  0
 50 51  2  0
 52 65  1  0
 53 58  1  0
 54 55  1  0
 54 53  1  0
 56 55  1  0
 56 71  1  0
 56 57  1  0
 58 52  1  0
 58 57  1  0
 59 52  2  0
 60 50  1  0
 60 66  1  0
 61 60  2  0
 62 66  1  0
 63 61  1  0
 64 61  1  0
 64 62  2  0
 65 62  1  0
 65 67  1  0
 68 69  2  0
 69 88  1  0
 70 73  1  0
 70 69  1  0
 71 72  1  0
 71 68  1  0
 72 70  2  0
 73 74  1  0
 74 75  2  0
 76 79  1  0
 76 75  1  0
 77 76  2  0
 78 77  1  0
 78 73  2  0
 79 80  1  0
 80 85  2  0
 80 81  1  0
 81 82  2  0
 82 83  1  0
 83 87  1  0
 84 83  2  0
 85 84  1  0
 86 85  1  0
 88 89  1  0
 89 92  1  0
 89 91  1  0
 90 88  2  0
 93 68  1  0
 93 94  1  0
 95 93  1  0
M  ISO  4   7 101   8 101  52 100  65 100
M  END
>  <TORSDO>  (44) 
F 21

>  <SCORE>  (44) 
-12.120

>  <name>  (44) 
43

>  <ligand_id>  (44) 
43

>  <original_smiles>  (44) 
[H]c1c([H])c([H])c2c(c1[H])C([H])([H])C([H])([H])C([H])([H])C2([H])N([H])C(=O)C1([H])N(C(=O)C([H])(N([H])C(=O)C([H])(N([H])C([H])([H])[H])C([H])([H])[H])C(C([H])([H])[H])(C([H])([H])[H])C([H])([H])[H])C([H])([H])c2c([H])c(OC([H])(C([H])([H])[H])C([H])([H])C(=O)C(=O)[N-]C(=O)c3sc(N([H])C(=O)N4C([H])([H])C([H])([H])C([H])([H])C([H])(n5nc(-c6c([H])c([H])c(Oc7c([H])c([H])c(F)c([H])c7F)c([H])c6[H])c(C(=O)N([H])[H])c5N([H])[H])C4([H])[H])nc3C([H])([H])[H])c([H])c([H])c2C1([H])[H]

>  <smiles>  (44) 
[H]c1c([H])c([H])c2c(c1[H])C([H])([H])C([H])([H])C([H])([H])C2([H])N([H])C(=O)C1([H])N(C(=O)C([H])(N([H])C(=O)C([H])(N([H])C([H])([H])[H])C([H])([H])[H])C(C([H])([H])[H])(C([H])([H])[H])C([H])([H])[H])C([H])([H])c2c([H])c(OC([H])(C([H])([H])[H])C([H])([H])C(=O)C(=O)[N-]C(=O)c3sc(N([H])C(=O)N4C([H])([H])C([H])([H])C([H])([H])C([H])(n5nc(-c6c([H])c([H])c(Oc7c([H])c([H])c(F)c([H])c7F)c([H])c6[H])c(C(=O)N([H])[H])c5N([H])[H])C4([H])[H])nc3C([H])([H])[H])c([H])c([H])c2C1([H])[H]

$$$$
44:0:0
     RDKit          3D

 91 99  0  0  1  0  0  0  0  0999 V2000
  -28.5540  -23.6960   19.9170 C   0  0  0  0  0  0  0  0  0  0  0  0
  -28.9580  -22.4800   20.4790 N   0  0  0  0  0  0  0  0  0  0  0  0
  -28.3860  -23.7990   18.6990 O   0  0  0  0  0  0  0  0  0  0  0  0
  -29.2200  -22.5630   21.4510 H   0  0  0  0  0  0  0  0  0  0  0  0
  -28.2300  -20.6370   18.9180 C   0  0  0  0  0  3  0  0  0  0  0  0
  -29.0170  -21.0840   19.9520 C   0  0  0  0  0  0  0  0  0  0  0  0
  -29.6480  -18.7490   19.8470 C   0  0  0  0  0  0  0  0  0  0  0  0
  -29.8010  -19.9760   20.4670 N   0  0  0  0  0  0  0  0  0  0  0  0
  -28.4310  -18.9120   18.5770 S   0  0  0  0  0  0  0  0  0  0  0  0
  -30.5460  -17.4420   20.0130 C   0  0  0  0  0  2  0  0  0  0  0  0
  -30.6380  -14.8330   20.0020 C   0  0  0  0  0  0  0  0  0  0  0  0
  -30.3820  -12.5660   18.9360 C   0  0  0  0  0  2  0  0  0  0  0  0
  -29.3600  -12.6090   17.7770 C   0  0  0  0  0  2  0  0  0  0  0  0
  -27.9210  -12.4130   18.2960 C   0  0  0  0  0  2  0  0  0  0  0  0
  -27.6230  -13.2780   19.5490 C   0  0  0  0  0  3  0  0  0  0  0  0
  -28.7550  -13.1390   20.5870 C   0  0  0  0  0  2  0  0  0  0  0  0
  -29.9890  -13.6020   19.9300 N   0  0  0  0  0  0  0  0  0  0  0  0
  -31.7860  -14.8910   19.5470 O   0  0  0  0  0  0  0  0  0  0  0  0
  -28.9670  -16.1260   21.3760 C   0  0  0  0  0  1  0  0  0  0  0  0
  -29.9640  -16.0420   20.3050 N   0  0  0  0  0  0  0  0  0  0  0  0
  -25.2890  -13.8610   20.4390 C   0  0  0  0  0  0  0  0  0  0  0  0
  -24.2480  -13.0830   20.8640 C   0  0  0  0  0  0  0  0  0  0  0  0
  -24.7030  -11.7310   20.7710 C   0  0  0  0  0  0  0  0  0  0  0  0
  -26.3120  -12.9840   20.1180 N   0  0  0  0  0  0  0  0  0  0  0  0
  -25.9700  -11.6970   20.3780 N   0  0  0  0  0  0  0  0  0  0  0  0
  -23.9840  -10.4670   20.9760 C   0  0  0  0  0  0  0  0  0  0  0  0
  -24.4520   -9.4900   21.8800 C   0  0  0  0  0  3  0  0  0  0  0  0
  -23.7330   -8.2910   22.0740 C   0  0  0  0  0  3  0  0  0  0  0  0
  -22.5300   -8.0620   21.3630 C   0  0  0  0  0  0  0  0  0  0  0  0
  -22.0800   -9.0290   20.4470 C   0  0  0  0  0  3  0  0  0  0  0  0
  -22.8010  -10.2190   20.2510 C   0  0  0  0  0  3  0  0  0  0  0  0
  -21.7780   -6.9170   21.4690 O   0  0  0  0  0  0  0  0  0  0  0  0
  -21.7470   -6.1810   22.6260 C   0  0  0  0  0  0  0  0  0  0  0  0
  -21.3380   -6.7430   23.8550 C   0  0  0  0  0  3  0  0  0  0  0  0
  -21.2540   -5.9340   25.0060 C   0  0  0  0  0  3  0  0  0  0  0  0
  -21.5670   -4.5630   24.9290 C   0  0  0  0  0  0  0  0  0  0  0  0
  -21.9690   -4.0010   23.7040 C   0  0  0  0  0  3  0  0  0  0  0  0
  -22.0550   -4.8080   22.5550 C   0  0  0  0  0  0  0  0  0  0  0  0
  -22.4220   -4.2560   21.3730 F   0  0  0  0  0  0  0  0  0  0  0  0
  -21.4780   -3.7840   26.0310 F   0  0  0  0  0  0  0  0  0  0  0  0
  -22.8740  -13.5580   21.2360 C   0  0  0  0  0  0  0  0  0  0  0  0
  -22.2010  -12.8470   22.1330 N   0  0  0  0  0  0  0  0  0  0  0  0
  -22.4090  -14.5960   20.7680 O   0  0  0  0  0  0  0  0  0  0  0  0
  -22.5930  -12.0070   22.5340 H   0  0  0  0  0  0  0  0  0  0  0  0
  -21.2820  -13.1460   22.4240 H   0  0  0  0  0  0  0  0  0  0  0  0
  -25.4390  -15.2350   20.2760 N   0  0  0  0  0  0  0  0  0  0  0  0
  -24.6790  -15.8830   20.4470 H   0  0  0  0  0  0  0  0  0  0  0  0
  -26.2550  -15.6800   19.8760 H   0  0  0  0  0  0  0  0  0  0  0  0
  -29.1400  -25.0250   22.0840 C   0  0  0  0  0  1  0  0  0  0  0  0
  -28.2640  -25.0100   20.8220 C   0  0  0  0  0  3  0  0  0  0  0  0
  -28.4050  -26.3890   20.2160 O   0  0  0  0  0  0  0  0  0  0  0  0
  -24.6840  -31.8890   23.2600 C   0  0  0  0  0  0  0  0  0  0  0  0
  -27.3040  -27.2770   20.2350 C   0  0  0  0  0  0  0  0  0  0  0  0
  -23.4890  -30.4870   21.6180 C   0  0  0  0  0  3  0  0  0  0  0  0
  -24.9450  -28.9220   20.2060 C   0  0  0  0  0  0  0  0  0  0  0  0
  -26.0330  -30.7930   21.4460 C   0  0  0  0  0  2  0  0  0  0  0  0
  -26.1160  -29.4060   20.8050 C   0  0  0  0  0  0  0  0  0  0  0  0
  -27.3020  -28.5990   20.8010 C   0  0  0  0  0  3  0  0  0  0  0  0
  -26.1090  -26.8540   19.6180 C   0  0  0  0  0  3  0  0  0  0  0  0
  -24.9460  -27.6540   19.6030 C   0  0  0  0  0  3  0  0  0  0  0  0
  -23.7110  -29.8050   20.2430 C   0  0  0  0  0  2  0  0  0  0  0  0
  -24.7540  -31.0760   22.1640 N   0  0  0  0  0  0  0  0  0  0  0  0
  -23.5980  -32.1700   23.7880 O   0  0  0  0  0  0  0  0  0  0  0  0
  -22.8180  -29.4770   22.5800 C   0  0  0  0  0  0  0  0  0  0  0  0
  -21.4930  -29.2970   22.4450 N   0  0  0  0  0  0  0  0  0  0  0  0
  -23.4910  -28.8550   23.4060 O   0  0  0  0  0  0  0  0  0  0  0  0
  -21.0080  -29.8510   21.7530 H   0  0  0  0  0  0  0  0  0  0  0  0
  -18.1180  -28.0770   22.9170 C   0  0  0  0  0  0  0  0  0  0  0  0
  -20.6710  -28.3600   23.2150 C   0  0  0  0  0  3  0  0  0  0  0  0
  -20.7900  -26.9240   22.6520 C   0  0  0  0  0  2  0  0  0  0  0  0
  -19.7030  -26.5840   21.6290 C   0  0  0  0  0  2  0  0  0  0  0  0
  -18.3130  -26.7240   22.2550 C   0  0  0  0  0  2  0  0  0  0  0  0
  -19.2250  -28.8530   23.3540 C   0  0  0  0  0  0  0  0  0  0  0  0
  -18.9900  -30.1170   23.9330 C   0  0  0  0  0  3  0  0  0  0  0  0
  -17.6800  -30.6090   24.0820 C   0  0  0  0  0  3  0  0  0  0  0  0
  -16.5860  -29.8320   23.6610 C   0  0  0  0  0  3  0  0  0  0  0  0
  -16.8060  -28.5690   23.0850 C   0  0  0  0  0  3  0  0  0  0  0  0
  -25.9630  -32.5250   23.8880 C   0  0  0  0  0  3  0  0  0  0  0  0
  -26.4680  -31.7620   25.1740 C   0  0  1  0  0  0  0  0  0  0  0  0
  -25.3660  -31.5330   26.2350 C   0  0  0  0  0  1  0  0  0  0  0  0
  -27.0520  -30.3810   24.7960 C   0  0  0  0  0  1  0  0  0  0  0  0
  -27.6150  -32.5590   25.8390 C   0  0  0  0  0  1  0  0  0  0  0  0
  -25.6520  -33.9250   24.2110 N   0  0  0  0  0  0  0  0  0  0  0  0
  -25.9840  -34.9760   23.4490 C   0  0  0  0  0  0  0  0  0  0  0  0
  -26.6540  -34.8680   22.4170 O   0  0  0  0  0  0  0  0  0  0  0  0
  -25.0570  -34.0830   25.0110 H   0  0  0  0  0  0  0  0  0  0  0  0
  -24.2520  -36.7670   23.0950 C   0  0  0  0  0  1  0  0  0  0  0  0
  -25.4980  -36.3670   23.9010 C   0  0  0  0  0  3  0  0  0  0  0  0
  -27.6380  -37.2580   24.7130 C   0  0  0  0  0  1  0  0  0  0  0  0
  -26.5290  -37.4210   23.7760 N   0  0  0  0  0  0  0  0  0  0  0  0
  -26.1220  -38.3410   23.9260 H   0  0  0  0  0  0  0  0  0  0  0  0
  1  2  1  0
  1 50  1  0
  2  4  1  0
  3  1  2  0
  5  6  2  0
  6  8  1  0
  6  2  1  0
  7 10  1  0
  7  8  2  0
  9  5  1  0
  9  7  1  0
 10 20  1  0
 11 20  1  0
 12 17  1  0
 13 14  1  0
 13 12  1  0
 15 14  1  0
 15 24  1  0
 15 16  1  0
 17 11  1  0
 17 16  1  0
 18 11  2  0
 20 19  1  0
 21 22  2  0
 22 41  1  0
 23 22  1  0
 23 26  1  0
 24 25  1  0
 24 21  1  0
 25 23  2  0
 26 27  1  0
 27 28  2  0
 29 32  1  0
 29 28  1  0
 30 29  2  0
 31 30  1  0
 31 26  2  0
 32 33  1  0
 33 34  1  0
 34 35  2  0
 36 35  1  0
 36 40  1  0
 37 36  2  0
 38 33  2  0
 38 37  1  0
 39 38  1  0
 41 42  1  0
 42 45  1  0
 42 44  1  0
 43 41  2  0
 46 21  1  0
 46 47  1  0
 48 46  1  0
 50 49  1  0
 51 53  1  0
 51 50  1  0
 52 63  2  0
 53 58  1  0
 54 62  1  0
 54 64  1  0
 55 61  1  0
 55 57  1  0
 56 62  1  0
 57 56  1  0
 58 57  2  0
 59 53  2  0
 60 59  1  0
 60 55  2  0
 61 54  1  0
 62 52  1  0
 64 66  2  0
 65 64  1  0
 67 65  1  0
 68 77  2  0
 68 73  1  0
 69 65  1  0
 69 73  1  0
 70 69  1  0
 71 72  1  0
 71 70  1  0
 72 68  1  0
 73 74  2  0
 74 75  1  0
 76 75  2  0
 77 76  1  0
 78 52  1  0
 78 83  1  0
 78 79  1  0
 79 82  1  1
 79 80  1  0
 81 79  1  0
 83 86  1  0
 84 88  1  0
 84 83  1  0
 85 84  2  0
 88 87  1  0
 90 88  1  0
 90 91  1  0
 90 89  1  0
M  ISO  4  11 100  20 100  50 101  51 101
M  END
>  <TORSDO>  (45) 
F 19

>  <SCORE>  (45) 
-13.861

>  <name>  (45) 
44

>  <ligand_id>  (45) 
44

>  <original_smiles>  (45) 
[H]c1sc(C([H])([H])N(C(=O)N2C([H])([H])C([H])([H])C([H])([H])C([H])(n3nc(-c4c([H])c([H])c(Oc5c([H])c([H])c(F)c([H])c5F)c([H])c4[H])c(C(=O)N([H])[H])c3N([H])[H])C2([H])[H])C([H])([H])[H])nc1N([H])C(=O)C([H])(Oc1c([H])c([H])c2c(c1[H])C([H])([H])N(C(=O)C([H])(N([H])C(=O)C([H])(N([H])C([H])([H])[H])C([H])([H])[H])C(C([H])([H])[H])(C([H])([H])[H])C([H])([H])[H])C([H])(C(=O)N([H])C1([H])c3c([H])c([H])c([H])c([H])c3C([H])([H])C([H])([H])C1([H])[H])C2([H])[H])C([H])([H])[H]

>  <smiles>  (45) 
[H]c1sc(C([H])([H])N(C(=O)N2C([H])([H])C([H])([H])C([H])([H])C([H])(n3nc(-c4c([H])c([H])c(Oc5c([H])c([H])c(F)c([H])c5F)c([H])c4[H])c(C(=O)N([H])[H])c3N([H])[H])C2([H])[H])C([H])([H])[H])nc1N([H])C(=O)C([H])(Oc1c([H])c([H])c2c(c1[H])C([H])([H])N(C(=O)C([H])(N([H])C(=O)C([H])(N([H])C([H])([H])[H])C([H])([H])[H])C(C([H])([H])[H])(C([H])([H])[H])C([H])([H])[H])C([H])(C(=O)N([H])C1([H])c3c([H])c([H])c([H])c([H])c3C([H])([H])C([H])([H])C1([H])[H])C2([H])[H])C([H])([H])[H]

$$$$
45:0:0
     RDKit          3D

 96104  0  0  1  0  0  0  0  0999 V2000
  -31.2990  -18.1310   21.6610 C   0  0  0  0  0  0  0  0  0  0  0  0
  -31.0380  -18.1040   23.0180 C   0  0  0  0  0  0  0  0  0  0  0  0
  -30.4120  -20.2270   21.9320 C   0  0  0  0  0  0  0  0  0  0  0  0
  -29.6370  -22.1270   20.5100 C   0  0  0  0  0  0  0  0  0  0  0  0
  -30.9110  -19.3410   21.0570 N   0  0  0  0  0  0  0  0  0  0  0  0
  -30.1930  -21.5940   21.6150 N   0  0  0  0  0  0  0  0  0  0  0  0
  -28.9220  -21.4810   19.7350 O   0  0  0  0  0  0  0  0  0  0  0  0
  -30.3250  -19.6040   23.5720 S   0  0  0  0  0  0  0  0  0  0  0  0
  -30.5780  -22.2480   22.2810 H   0  0  0  0  0  0  0  0  0  0  0  0
  -31.3130  -17.1110   23.9530 N   0  0  0  0  0  0  0  0  0  0  0  0
  -32.0040  -16.3820   23.8020 H   0  0  0  0  0  0  0  0  0  0  0  0
  -31.1560  -17.2760   24.9430 H   0  0  0  0  0  0  0  0  0  0  0  0
  -32.0060  -17.0950   20.8120 C   0  0  0  0  0  2  0  0  0  0  0  0
  -31.8890  -14.7100   20.1410 C   0  0  0  0  0  0  0  0  0  0  0  0
  -31.4620  -12.4300   19.2970 C   0  0  0  0  0  2  0  0  0  0  0  0
  -30.5510  -12.4800   18.0530 C   0  0  0  0  0  2  0  0  0  0  0  0
  -29.0720  -12.4820   18.4760 C   0  0  0  0  0  2  0  0  0  0  0  0
  -28.7660  -13.5520   19.5580 C   0  0  0  0  0  3  0  0  0  0  0  0
  -29.7790  -13.4560   20.7200 C   0  0  0  0  0  2  0  0  0  0  0  0
  -31.1310  -13.5820   20.1500 N   0  0  0  0  0  0  0  0  0  0  0  0
  -32.9830  -14.7770   19.5710 O   0  0  0  0  0  0  0  0  0  0  0  0
  -31.3590  -15.7820   20.7510 N   0  0  0  0  0  0  0  0  0  0  0  0
  -30.4590  -15.6840   21.2010 H   0  0  0  0  0  0  0  0  0  0  0  0
  -26.4640  -14.4580   20.2740 C   0  0  0  0  0  0  0  0  0  0  0  0
  -25.3060  -13.8230   20.6310 C   0  0  0  0  0  0  0  0  0  0  0  0
  -25.5920  -12.4230   20.5890 C   0  0  0  0  0  0  0  0  0  0  0  0
  -27.3870  -13.4520   20.0330 N   0  0  0  0  0  0  0  0  0  0  0  0
  -26.8650  -12.2220   20.2780 N   0  0  0  0  0  0  0  0  0  0  0  0
  -24.7140  -11.2600   20.7700 C   0  0  0  0  0  0  0  0  0  0  0  0
  -25.0210  -10.2400   21.6970 C   0  0  0  0  0  3  0  0  0  0  0  0
  -24.1540   -9.1410   21.8670 C   0  0  0  0  0  3  0  0  0  0  0  0
  -22.9620   -9.0550   21.1080 C   0  0  0  0  0  0  0  0  0  0  0  0
  -22.6720  -10.0620   20.1700 C   0  0  0  0  0  3  0  0  0  0  0  0
  -23.5390  -11.1520   19.9990 C   0  0  0  0  0  3  0  0  0  0  0  0
  -22.0720   -8.0110   21.1850 O   0  0  0  0  0  0  0  0  0  0  0  0
  -21.9080   -7.2890   22.3390 C   0  0  0  0  0  0  0  0  0  0  0  0
  -21.5200   -7.9030   23.5510 C   0  0  0  0  0  3  0  0  0  0  0  0
  -21.2950   -7.1160   24.6990 C   0  0  0  0  0  3  0  0  0  0  0  0
  -21.4470   -5.7170   24.6350 C   0  0  0  0  0  0  0  0  0  0  0  0
  -21.8270   -5.1050   23.4270 C   0  0  0  0  0  3  0  0  0  0  0  0
  -22.0540   -5.8890   22.2810 C   0  0  0  0  0  0  0  0  0  0  0  0
  -22.4000   -5.2900   21.1150 F   0  0  0  0  0  0  0  0  0  0  0  0
  -21.2230   -4.9590   25.7350 F   0  0  0  0  0  0  0  0  0  0  0  0
  -23.9810  -14.4700   20.9140 C   0  0  0  0  0  0  0  0  0  0  0  0
  -23.1830  -13.8750   21.7930 N   0  0  0  0  0  0  0  0  0  0  0  0
  -23.6680  -15.5380   20.3910 O   0  0  0  0  0  0  0  0  0  0  0  0
  -23.4520  -13.0090   22.2370 H   0  0  0  0  0  0  0  0  0  0  0  0
  -22.2920  -14.2910   22.0260 H   0  0  0  0  0  0  0  0  0  0  0  0
  -26.8080  -15.7980   20.1230 N   0  0  0  0  0  0  0  0  0  0  0  0
  -26.1540  -16.5500   20.3040 H   0  0  0  0  0  0  0  0  0  0  0  0
  -27.7390  -16.1250   19.8990 H   0  0  0  0  0  0  0  0  0  0  0  0
  -29.9370  -23.6130   20.2310 C   0  0  0  0  0  2  0  0  0  0  0  0
  -28.7120  -24.5380   20.3480 C   0  0  0  0  0  0  0  0  0  0  0  0
  -28.0190  -24.5540   21.3730 O   0  0  0  0  0  0  0  0  0  0  0  0
  -28.4140  -25.4860   19.1650 C   0  0  0  0  0  2  0  0  0  0  0  0
  -28.3750  -26.8650   19.5810 O   0  0  0  0  0  0  0  0  0  0  0  0
  -24.6880  -31.6660   23.3160 C   0  0  0  0  0  0  0  0  0  0  0  0
  -27.1810  -27.5550   19.6800 C   0  0  0  0  0  0  0  0  0  0  0  0
  -23.4130  -30.4540   21.5770 C   0  0  0  0  0  3  0  0  0  0  0  0
  -24.7980  -29.0690   19.9450 C   0  0  0  0  0  0  0  0  0  0  0  0
  -25.9320  -30.8190   21.3230 C   0  0  0  0  0  2  0  0  0  0  0  0
  -25.9810  -29.5220   20.5400 C   0  0  0  0  0  0  0  0  0  0  0  0
  -27.1720  -28.7720   20.4030 C   0  0  0  0  0  3  0  0  0  0  0  0
  -25.9720  -27.1150   19.0900 C   0  0  0  0  0  3  0  0  0  0  0  0
  -24.7890  -27.8650   19.2190 C   0  0  0  0  0  3  0  0  0  0  0  0
  -23.5660  -29.9290   20.1260 C   0  0  0  0  0  2  0  0  0  0  0  0
  -24.7010  -30.9870   22.1320 N   0  0  0  0  0  0  0  0  0  0  0  0
  -23.6290  -31.8860   23.9190 O   0  0  0  0  0  0  0  0  0  0  0  0
  -22.7880  -29.3380   22.4450 C   0  0  0  0  0  0  0  0  0  0  0  0
  -21.4690  -29.1350   22.2960 N   0  0  0  0  0  0  0  0  0  0  0  0
  -23.4850  -28.6650   23.2080 O   0  0  0  0  0  0  0  0  0  0  0  0
  -20.9710  -29.7380   21.6570 H   0  0  0  0  0  0  0  0  0  0  0  0
  -18.1400  -27.7620   22.6100 C   0  0  0  0  0  0  0  0  0  0  0  0
  -20.6740  -28.1150   22.9790 C   0  0  0  0  0  3  0  0  0  0  0  0
  -20.8590  -26.7290   22.3200 C   0  0  0  0  0  2  0  0  0  0  0  0
  -19.8060  -26.4240   21.2520 C   0  0  0  0  0  2  0  0  0  0  0  0
  -18.3980  -26.4680   21.8540 C   0  0  0  0  0  2  0  0  0  0  0  0
  -19.2100  -28.5430   23.1210 C   0  0  0  0  0  0  0  0  0  0  0  0
  -18.9160  -29.7560   23.7830 C   0  0  0  0  0  3  0  0  0  0  0  0
  -17.5860  -30.1880   23.9380 C   0  0  0  0  0  3  0  0  0  0  0  0
  -16.5310  -29.4050   23.4380 C   0  0  0  0  0  3  0  0  0  0  0  0
  -16.8090  -28.1920   22.7830 C   0  0  0  0  0  3  0  0  0  0  0  0
  -26.0010  -32.2220   23.9520 C   0  0  0  0  0  3  0  0  0  0  0  0
  -25.7300  -33.5950   24.3990 N   0  0  0  0  0  0  0  0  0  0  0  0
  -26.0850  -34.6980   23.7260 C   0  0  0  0  0  0  0  0  0  0  0  0
  -26.7470  -34.6620   22.6840 O   0  0  0  0  0  0  0  0  0  0  0  0
  -25.1440  -33.6970   25.2130 H   0  0  0  0  0  0  0  0  0  0  0  0
  -24.3900  -36.5480   23.5390 C   0  0  0  0  0  1  0  0  0  0  0  0
  -25.6330  -36.0540   24.2990 C   0  0  0  0  0  3  0  0  0  0  0  0
  -27.7900  -36.8310   25.1760 C   0  0  0  0  0  1  0  0  0  0  0  0
  -26.6870  -37.0900   24.2540 N   0  0  0  0  0  0  0  0  0  0  0  0
  -26.3030  -38.0070   24.4710 H   0  0  0  0  0  0  0  0  0  0  0  0
  -26.5320  -31.3410   25.1490 C   0  0  1  0  0  0  0  0  0  0  0  0
  -25.4640  -31.0520   26.2310 C   0  0  0  0  0  1  0  0  0  0  0  0
  -27.0580  -29.9830   24.6320 C   0  0  0  0  0  1  0  0  0  0  0  0
  -27.7300  -32.0450   25.8280 C   0  0  0  0  0  1  0  0  0  0  0  0
  1  2  2  0
  2  8  1  0
  2 10  1  0
  3  8  1  0
  4  6  1  0
  5  1  1  0
  5  3  2  0
  6  3  1  0
  6  9  1  0
  7  4  2  0
 10 12  1  0
 11 10  1  0
 13  1  1  0
 14 20  1  0
 14 22  1  0
 15 20  1  0
 16 17  1  0
 16 15  1  0
 18 17  1  0
 18 27  1  0
 18 19  1  0
 20 19  1  0
 21 14  2  0
 22 13  1  0
 22 23  1  0
 24 25  2  0
 25 44  1  0
 26 25  1  0
 26 29  1  0
 27 24  1  0
 27 28  1  0
 28 26  2  0
 29 30  1  0
 30 31  2  0
 32 35  1  0
 32 31  1  0
 33 32  2  0
 34 33  1  0
 34 29  2  0
 35 36  1  0
 36 37  1  0
 37 38  2  0
 39 38  1  0
 39 43  1  0
 40 39  2  0
 41 36  2  0
 41 40  1  0
 42 41  1  0
 44 45  1  0
 45 48  1  0
 45 47  1  0
 46 44  2  0
 49 24  1  0
 49 50  1  0
 51 49  1  0
 52 53  1  0
 52  4  1  0
 53 54  2  0
 55 56  1  0
 55 53  1  0
 56 58  1  0
 57 68  2  0
 58 63  1  0
 59 67  1  0
 59 69  1  0
 60 66  1  0
 60 62  1  0
 61 67  1  0
 62 61  1  0
 63 62  2  0
 64 65  1  0
 64 58  2  0
 65 60  2  0
 66 59  1  0
 67 57  1  0
 69 71  2  0
 70 69  1  0
 72 70  1  0
 73 82  2  0
 73 78  1  0
 74 70  1  0
 74 78  1  0
 75 74  1  0
 76 77  1  0
 76 75  1  0
 77 73  1  0
 78 79  2  0
 79 80  1  0
 81 80  2  0
 82 81  1  0
 83 57  1  0
 83 84  1  0
 83 93  1  0
 84 87  1  0
 85 89  1  0
 85 84  1  0
 86 85  2  0
 89 88  1  0
 91 89  1  0
 91 92  1  0
 91 90  1  0
 93 96  1  1
 93 94  1  0
 95 93  1  0
M  ISO  4  14 100  22 100  55 101  56 101
M  END
>  <TORSDO>  (46) 
F 21

>  <SCORE>  (46) 
-9.669

>  <name>  (46) 
45

>  <ligand_id>  (46) 
45

>  <original_smiles>  (46) 
[H]c1c([H])c([H])c2c(c1[H])C([H])([H])C([H])([H])C([H])([H])C2([H])N([H])C(=O)C1([H])N(C(=O)C([H])(N([H])C(=O)C([H])(N([H])C([H])([H])[H])C([H])([H])[H])C(C([H])([H])[H])(C([H])([H])[H])C([H])([H])[H])C([H])([H])c2c([H])c(OC([H])([H])C(=O)C([H])([H])C(=O)N([H])c3nc(C([H])([H])N([H])C(=O)N4C([H])([H])C([H])([H])C([H])([H])C([H])(n5nc(-c6c([H])c([H])c(Oc7c([H])c([H])c(F)c([H])c7F)c([H])c6[H])c(C(=O)N([H])[H])c5N([H])[H])C4([H])[H])c(N([H])[H])s3)c([H])c([H])c2C1([H])[H]

>  <smiles>  (46) 
[H]c1c([H])c([H])c2c(c1[H])C([H])([H])C([H])([H])C([H])([H])C2([H])N([H])C(=O)C1([H])N(C(=O)C([H])(N([H])C(=O)C([H])(N([H])C([H])([H])[H])C([H])([H])[H])C(C([H])([H])[H])(C([H])([H])[H])C([H])([H])[H])C([H])([H])c2c([H])c(OC([H])([H])C(=O)C([H])([H])C(=O)N([H])c3nc(C([H])([H])N([H])C(=O)N4C([H])([H])C([H])([H])C([H])([H])C([H])(n5nc(-c6c([H])c([H])c(Oc7c([H])c([H])c(F)c([H])c7F)c([H])c6[H])c(C(=O)N([H])[H])c5N([H])[H])C4([H])[H])c(N([H])[H])s3)c([H])c([H])c2C1([H])[H]

$$$$
46:0:0
     RDKit          3D

 92100  0  0  1  0  0  0  0  0999 V2000
  -29.7980  -22.4320   20.9040 C   0  0  0  0  0  3  0  0  0  0  0  0
  -29.4490  -21.1310   20.9560 C   0  0  0  0  0  3  0  0  0  0  0  0
  -29.3560  -23.2870   19.7930 C   0  0  0  0  0  0  0  0  0  0  0  0
  -28.7690  -22.8460   18.7980 O   0  0  0  0  0  0  0  0  0  0  0  0
  -29.6230  -24.7890   19.8720 C   0  0  0  0  0  2  0  0  0  0  0  0
  -28.6530  -25.6450   22.0980 C   0  0  0  0  0  1  0  0  0  0  0  0
  -28.4790  -25.5500   20.5710 C   0  0  0  0  0  3  0  0  0  0  0  0
  -28.4590  -26.8670   20.0300 O   0  0  0  0  0  0  0  0  0  0  0  0
  -24.5440  -31.8570   23.1850 C   0  0  0  0  0  0  0  0  0  0  0  0
  -27.2550  -27.5240   20.0620 C   0  0  0  0  0  0  0  0  0  0  0  0
  -23.3540  -30.4660   21.5190 C   0  0  0  0  0  3  0  0  0  0  0  0
  -24.8280  -28.9590   20.0850 C   0  0  0  0  0  0  0  0  0  0  0  0
  -25.8720  -30.8650   21.3320 C   0  0  0  0  0  2  0  0  0  0  0  0
  -25.9740  -29.5060   20.6770 C   0  0  0  0  0  0  0  0  0  0  0  0
  -27.1910  -28.7960   20.6580 C   0  0  0  0  0  3  0  0  0  0  0  0
  -26.0940  -26.9760   19.4670 C   0  0  0  0  0  3  0  0  0  0  0  0
  -24.8800  -27.6910   19.4780 C   0  0  0  0  0  3  0  0  0  0  0  0
  -23.5720  -29.7980   20.1350 C   0  0  0  0  0  2  0  0  0  0  0  0
  -24.6080  -31.0750   22.0720 N   0  0  0  0  0  0  0  0  0  0  0  0
  -23.4580  -32.1130   23.7230 O   0  0  0  0  0  0  0  0  0  0  0  0
  -22.7140  -29.4270   22.4680 C   0  0  0  0  0  0  0  0  0  0  0  0
  -21.3950  -29.2180   22.3200 N   0  0  0  0  0  0  0  0  0  0  0  0
  -23.3980  -28.8090   23.2880 O   0  0  0  0  0  0  0  0  0  0  0  0
  -20.8980  -29.7750   21.6370 H   0  0  0  0  0  0  0  0  0  0  0  0
  -18.0440  -27.9460   22.7500 C   0  0  0  0  0  0  0  0  0  0  0  0
  -20.5890  -28.2570   23.0730 C   0  0  0  0  0  3  0  0  0  0  0  0
  -20.7360  -26.8310   22.4970 C   0  0  0  0  0  2  0  0  0  0  0  0
  -19.6610  -26.4840   21.4620 C   0  0  0  0  0  2  0  0  0  0  0  0
  -18.2630  -26.6010   22.0780 C   0  0  0  0  0  2  0  0  0  0  0  0
  -19.1370  -28.7290   23.2040 C   0  0  0  0  0  0  0  0  0  0  0  0
  -18.8810  -29.9870   23.7910 C   0  0  0  0  0  3  0  0  0  0  0  0
  -17.5640  -30.4640   23.9310 C   0  0  0  0  0  3  0  0  0  0  0  0
  -16.4840  -29.6770   23.4970 C   0  0  0  0  0  3  0  0  0  0  0  0
  -16.7250  -28.4210   22.9120 C   0  0  0  0  0  3  0  0  0  0  0  0
  -25.8240  -32.4920   23.8160 C   0  0  0  0  0  3  0  0  0  0  0  0
  -25.5080  -33.8860   24.1490 N   0  0  0  0  0  0  0  0  0  0  0  0
  -25.8510  -34.9410   23.4000 C   0  0  0  0  0  0  0  0  0  0  0  0
  -26.5390  -34.8430   22.3790 O   0  0  0  0  0  0  0  0  0  0  0  0
  -24.9110  -34.0370   24.9480 H   0  0  0  0  0  0  0  0  0  0  0  0
  -24.1340  -36.7370   23.0110 C   0  0  0  0  0  1  0  0  0  0  0  0
  -25.3520  -36.3260   23.8540 C   0  0  0  0  0  3  0  0  0  0  0  0
  -27.4610  -37.2060   24.7530 C   0  0  0  0  0  1  0  0  0  0  0  0
  -26.3880  -37.3780   23.7780 N   0  0  0  0  0  0  0  0  0  0  0  0
  -25.9740  -38.2940   23.9190 H   0  0  0  0  0  0  0  0  0  0  0  0
  -26.3370  -31.7150   25.0900 C   0  0  1  0  0  0  0  0  0  0  0  0
  -25.2340  -31.4590   26.1450 C   0  0  0  0  0  1  0  0  0  0  0  0
  -26.9380  -30.3430   24.6950 C   0  0  0  0  0  1  0  0  0  0  0  0
  -27.4720  -32.5140   25.7700 C   0  0  0  0  0  1  0  0  0  0  0  0
  -29.8860  -20.1530   22.0290 C   0  0  0  0  0  2  0  0  0  0  0  0
  -29.8690  -17.6340   21.6540 C   0  0  0  0  0  3  0  0  0  0  0  0
  -31.4230  -18.7610   20.6200 C   0  0  0  0  0  3  0  0  0  0  0  0
  -30.6510  -16.7840   20.9070 C   0  0  0  0  0  0  0  0  0  0  0  0
  -31.6440  -17.5050   20.2420 N   0  0  0  0  0  0  0  0  0  0  0  0
  -30.3800  -18.9120   21.4530 N   0  0  0  0  0  0  0  0  0  0  0  0
  -31.0160  -14.4490   20.1080 C   0  0  0  0  0  0  0  0  0  0  0  0
  -30.6160  -12.3210   18.9250 C   0  0  0  0  0  2  0  0  0  0  0  0
  -29.6360  -12.5910   17.7690 C   0  0  0  0  0  2  0  0  0  0  0  0
  -28.1750  -12.4740   18.2520 C   0  0  0  0  0  2  0  0  0  0  0  0
  -27.9090  -13.2770   19.5540 C   0  0  0  0  0  3  0  0  0  0  0  0
  -29.0060  -13.0060   20.6090 C   0  0  0  0  0  2  0  0  0  0  0  0
  -30.3170  -13.2860   19.9930 N   0  0  0  0  0  0  0  0  0  0  0  0
  -32.0840  -14.6420   19.5180 O   0  0  0  0  0  0  0  0  0  0  0  0
  -30.4080  -15.3890   20.8520 N   0  0  0  0  0  0  0  0  0  0  0  0
  -29.5760  -15.0700   21.3230 H   0  0  0  0  0  0  0  0  0  0  0  0
  -25.5500  -13.8950   20.3830 C   0  0  0  0  0  0  0  0  0  0  0  0
  -24.4980  -13.1290   20.8040 C   0  0  0  0  0  0  0  0  0  0  0  0
  -24.9450  -11.7750   20.7400 C   0  0  0  0  0  0  0  0  0  0  0  0
  -26.5760  -13.0090   20.0930 N   0  0  0  0  0  0  0  0  0  0  0  0
  -26.2170  -11.7270   20.3610 N   0  0  0  0  0  0  0  0  0  0  0  0
  -24.2210  -10.5160   20.9590 C   0  0  0  0  0  0  0  0  0  0  0  0
  -24.6300   -9.5910   21.9450 C   0  0  0  0  0  3  0  0  0  0  0  0
  -23.9080   -8.3960   22.1490 C   0  0  0  0  0  3  0  0  0  0  0  0
  -22.7620   -8.1170   21.3690 C   0  0  0  0  0  0  0  0  0  0  0  0
  -22.3730   -9.0300   20.3730 C   0  0  0  0  0  3  0  0  0  0  0  0
  -23.0950  -10.2170   20.1660 C   0  0  0  0  0  3  0  0  0  0  0  0
  -22.0140   -6.9710   21.4800 O   0  0  0  0  0  0  0  0  0  0  0  0
  -21.8470   -6.3320   22.6810 C   0  0  0  0  0  0  0  0  0  0  0  0
  -21.2680   -6.9790   23.7960 C   0  0  0  0  0  3  0  0  0  0  0  0
  -21.0510   -6.2630   24.9910 C   0  0  0  0  0  3  0  0  0  0  0  0
  -21.4070   -4.9040   25.0710 C   0  0  0  0  0  0  0  0  0  0  0  0
  -21.9770   -4.2560   23.9610 C   0  0  0  0  0  3  0  0  0  0  0  0
  -22.1950   -4.9690   22.7700 C   0  0  0  0  0  0  0  0  0  0  0  0
  -22.7270   -4.3360   21.6960 F   0  0  0  0  0  0  0  0  0  0  0  0
  -21.1910   -4.2140   26.2160 F   0  0  0  0  0  0  0  0  0  0  0  0
  -23.1190  -13.6150   21.1500 C   0  0  0  0  0  0  0  0  0  0  0  0
  -22.4300  -12.9190   22.0480 N   0  0  0  0  0  0  0  0  0  0  0  0
  -22.6640  -14.6460   20.6570 O   0  0  0  0  0  0  0  0  0  0  0  0
  -22.8080  -12.0820   22.4680 H   0  0  0  0  0  0  0  0  0  0  0  0
  -21.5060  -13.2270   22.3170 H   0  0  0  0  0  0  0  0  0  0  0  0
  -25.7180  -15.2660   20.2040 N   0  0  0  0  0  0  0  0  0  0  0  0
  -24.9600  -15.9250   20.3460 H   0  0  0  0  0  0  0  0  0  0  0  0
  -26.5460  -15.6960   19.8070 H   0  0  0  0  0  0  0  0  0  0  0  0
  1  2  2  0
  2 49  1  0
  3  5  1  0
  3  1  1  0
  4  3  2  0
  5  7  1  0
  7  6  1  0
  8 10  1  0
  8  7  1  0
  9 20  2  0
 10 15  1  0
 11 19  1  0
 11 21  1  0
 12 18  1  0
 12 14  1  0
 13 19  1  0
 14 13  1  0
 15 14  2  0
 16 17  1  0
 16 10  2  0
 17 12  2  0
 18 11  1  0
 19  9  1  0
 21 23  2  0
 22 21  1  0
 24 22  1  0
 25 34  2  0
 25 30  1  0
 26 22  1  0
 26 30  1  0
 27 26  1  0
 28 29  1  0
 28 27  1  0
 29 25  1  0
 30 31  2  0
 31 32  1  0
 33 32  2  0
 34 33  1  0
 35  9  1  0
 35 36  1  0
 35 45  1  0
 36 39  1  0
 37 41  1  0
 37 36  1  0
 38 37  2  0
 41 40  1  0
 43 41  1  0
 43 44  1  0
 43 42  1  0
 45 48  1  1
 45 46  1  0
 47 45  1  0
 51 54  1  0
 52 50  2  0
 53 51  2  0
 53 52  1  0
 54 50  1  0
 54 49  1  0
 55 63  1  0
 56 61  1  0
 57 58  1  0
 57 56  1  0
 59 58  1  0
 59 68  1  0
 59 60  1  0
 61 55  1  0
 61 60  1  0
 62 55  2  0
 63 52  1  0
 63 64  1  0
 65 66  2  0
 66 85  1  0
 67 66  1  0
 67 70  1  0
 68 69  1  0
 68 65  1  0
 69 67  2  0
 70 71  1  0
 71 72  2  0
 73 76  1  0
 73 72  1  0
 74 73  2  0
 75 74  1  0
 75 70  2  0
 76 77  1  0
 77 82  2  0
 77 78  1  0
 78 79  2  0
 79 80  1  0
 80 84  1  0
 81 80  2  0
 82 81  1  0
 83 82  1  0
 85 86  1  0
 86 89  1  0
 86 88  1  0
 87 85  2  0
 90 91  1  0
 90 65  1  0
 92 90  1  0
M  ISO  4   7 101   8 101  55 100  63 100
M  END
>  <TORSDO>  (47) 
F 21

>  <SCORE>  (47) 
-12.758

>  <name>  (47) 
46

>  <ligand_id>  (47) 
46

>  <original_smiles>  (47) 
[H]C(C(=O)C([H])([H])C([H])(Oc1c([H])c([H])c2c(c1[H])C([H])([H])N(C(=O)C([H])(N([H])C(=O)C([H])(N([H])C([H])([H])[H])C([H])([H])[H])C(C([H])([H])[H])(C([H])([H])[H])C([H])([H])[H])C([H])(C(=O)N([H])C1([H])c3c([H])c([H])c([H])c([H])c3C([H])([H])C([H])([H])C1([H])[H])C2([H])[H])C([H])([H])[H])=C([H])C([H])([H])n1c([H])nc(N([H])C(=O)N2C([H])([H])C([H])([H])C([H])([H])C([H])(n3nc(-c4c([H])c([H])c(Oc5c([H])c([H])c(F)c([H])c5F)c([H])c4[H])c(C(=O)N([H])[H])c3N([H])[H])C2([H])[H])c1[H]

>  <smiles>  (47) 
[H]C(C(=O)C([H])([H])C([H])(Oc1c([H])c([H])c2c(c1[H])C([H])([H])N(C(=O)C([H])(N([H])C(=O)C([H])(N([H])C([H])([H])[H])C([H])([H])[H])C(C([H])([H])[H])(C([H])([H])[H])C([H])([H])[H])C([H])(C(=O)N([H])C1([H])c3c([H])c([H])c([H])c([H])c3C([H])([H])C([H])([H])C1([H])[H])C2([H])[H])C([H])([H])[H])=C([H])C([H])([H])n1c([H])nc(N([H])C(=O)N2C([H])([H])C([H])([H])C([H])([H])C([H])(n3nc(-c4c([H])c([H])c(Oc5c([H])c([H])c(F)c([H])c5F)c([H])c4[H])c(C(=O)N([H])[H])c3N([H])[H])C2([H])[H])c1[H]

$$$$
47:0:0
     RDKit          3D

 98106  0  0  1  0  0  0  0  0999 V2000
  -29.0230  -21.7280   20.3110 C   0  0  0  0  0  0  0  0  0  0  0  0
  -29.8980  -20.9190   20.9540 N   0  0  0  0  0  0  0  0  0  0  0  0
  -28.3590  -21.3630   19.3380 O   0  0  0  0  0  0  0  0  0  0  0  0
  -30.4630  -21.4080   21.6360 H   0  0  0  0  0  0  0  0  0  0  0  0
  -31.4530  -19.0030   20.9580 C   0  0  0  0  0  0  0  0  0  0  0  0
  -31.4260  -17.5740   20.8430 C   0  0  0  0  0  0  0  0  0  0  0  0
  -30.2030  -19.5840   20.7910 C   0  0  0  0  0  0  0  0  0  0  0  0
  -30.2060  -17.0010   20.5840 C   0  0  0  0  0  0  0  0  0  0  0  0
  -32.5150  -16.8660   21.0360 F   0  0  0  0  0  0  0  0  0  0  0  0
  -29.0220  -18.3040   20.4670 S   0  0  0  0  0  0  0  0  0  0  0  0
  -30.6140  -14.6330   20.0420 C   0  0  0  0  0  0  0  0  0  0  0  0
  -30.3030  -12.4420   18.9370 C   0  0  0  0  0  2  0  0  0  0  0  0
  -29.2930  -12.6090   17.7830 C   0  0  0  0  0  2  0  0  0  0  0  0
  -27.8470  -12.4500   18.2940 C   0  0  0  0  0  2  0  0  0  0  0  0
  -27.5650  -13.2960   19.5650 C   0  0  0  0  0  3  0  0  0  0  0  0
  -28.6830  -13.1110   20.6150 C   0  0  0  0  0  2  0  0  0  0  0  0
  -29.9640  -13.4360   19.9690 N   0  0  0  0  0  0  0  0  0  0  0  0
  -31.7320  -14.7990   19.5480 O   0  0  0  0  0  0  0  0  0  0  0  0
  -29.8670  -15.6720   20.4920 N   0  0  0  0  0  0  0  0  0  0  0  0
  -28.9110  -15.4430   20.7120 H   0  0  0  0  0  0  0  0  0  0  0  0
  -25.2190  -13.8860   20.4400 C   0  0  0  0  0  0  0  0  0  0  0  0
  -24.1730  -13.1070   20.8520 C   0  0  0  0  0  0  0  0  0  0  0  0
  -24.6250  -11.7550   20.7520 C   0  0  0  0  0  0  0  0  0  0  0  0
  -26.2440  -13.0090   20.1190 N   0  0  0  0  0  0  0  0  0  0  0  0
  -25.8940  -11.7220   20.3650 N   0  0  0  0  0  0  0  0  0  0  0  0
  -23.9060  -10.4890   20.9480 C   0  0  0  0  0  0  0  0  0  0  0  0
  -24.3410   -9.5300   21.8880 C   0  0  0  0  0  3  0  0  0  0  0  0
  -23.6230   -8.3290   22.0710 C   0  0  0  0  0  3  0  0  0  0  0  0
  -22.4540   -8.0790   21.3130 C   0  0  0  0  0  0  0  0  0  0  0  0
  -22.0380   -9.0270   20.3620 C   0  0  0  0  0  3  0  0  0  0  0  0
  -22.7580  -10.2210   20.1770 C   0  0  0  0  0  3  0  0  0  0  0  0
  -21.7070   -6.9300   21.4040 O   0  0  0  0  0  0  0  0  0  0  0  0
  -21.6100   -6.2270   22.5780 C   0  0  0  0  0  0  0  0  0  0  0  0
  -21.0790   -6.8040   23.7520 C   0  0  0  0  0  3  0  0  0  0  0  0
  -20.9340   -6.0240   24.9160 C   0  0  0  0  0  3  0  0  0  0  0  0
  -21.3080   -4.6670   24.9070 C   0  0  0  0  0  0  0  0  0  0  0  0
  -21.8320   -4.0890   23.7380 C   0  0  0  0  0  3  0  0  0  0  0  0
  -21.9800   -4.8670   22.5750 C   0  0  0  0  0  0  0  0  0  0  0  0
  -22.4650   -4.2980   21.4450 F   0  0  0  0  0  0  0  0  0  0  0  0
  -21.1620   -3.9150   26.0240 F   0  0  0  0  0  0  0  0  0  0  0  0
  -22.7960  -13.5800   21.2230 C   0  0  0  0  0  0  0  0  0  0  0  0
  -22.1160  -12.8550   22.1050 N   0  0  0  0  0  0  0  0  0  0  0  0
  -22.3350  -14.6240   20.7670 O   0  0  0  0  0  0  0  0  0  0  0  0
  -22.5030  -12.0090   22.4950 H   0  0  0  0  0  0  0  0  0  0  0  0
  -21.1970  -13.1520   22.3960 H   0  0  0  0  0  0  0  0  0  0  0  0
  -25.3790  -15.2610   20.2920 N   0  0  0  0  0  0  0  0  0  0  0  0
  -24.6160  -15.9100   20.4540 H   0  0  0  0  0  0  0  0  0  0  0  0
  -26.1940  -15.7070   19.8890 H   0  0  0  0  0  0  0  0  0  0  0  0
  -32.7500  -19.7160   21.2510 C   0  0  1  0  0  0  0  0  0  0  0  0
  -33.6790  -19.4190   20.3420 F   0  0  0  0  0  0  0  0  0  0  0  0
  -32.6190  -21.0440   21.2560 F   0  0  0  0  0  0  0  0  0  0  0  0
  -33.2300  -19.3730   22.4470 F   0  0  0  0  0  0  0  0  0  0  0  0
  -28.9820  -23.0790   20.9020 C   0  0  0  0  0  3  0  0  0  0  0  0
  -28.4360  -24.1960   20.3390 C   0  0  0  0  0  0  0  0  0  0  0  0
  -27.8850  -24.2370   19.1150 O   0  0  0  0  0  0  0  0  0  0  0  0
  -27.9300  -23.3590   18.7500 H   0  0  0  0  0  0  0  0  0  0  0  0
  -28.3550  -25.5780   21.0320 C   0  0  0  0  0  2  0  0  0  0  0  0
  -28.3780  -26.7480   20.1750 O   0  0  0  0  0  0  0  0  0  0  0  0
  -24.6000  -31.9940   23.2740 C   0  0  0  0  0  0  0  0  0  0  0  0
  -27.2310  -27.5230   20.1980 C   0  0  0  0  0  0  0  0  0  0  0  0
  -23.3900  -30.5880   21.6390 C   0  0  0  0  0  3  0  0  0  0  0  0
  -24.8410  -29.0460   20.2110 C   0  0  0  0  0  0  0  0  0  0  0  0
  -25.9180  -30.9440   21.4310 C   0  0  0  0  0  2  0  0  0  0  0  0
  -26.0040  -29.5690   20.7930 C   0  0  0  0  0  0  0  0  0  0  0  0
  -27.2050  -28.8160   20.7800 C   0  0  0  0  0  3  0  0  0  0  0  0
  -26.0530  -27.0210   19.6120 C   0  0  0  0  0  3  0  0  0  0  0  0
  -24.8620  -27.7720   19.6150 C   0  0  0  0  0  3  0  0  0  0  0  0
  -23.5960  -29.9060   20.2590 C   0  0  0  0  0  2  0  0  0  0  0  0
  -24.6550  -31.1900   22.1730 N   0  0  0  0  0  0  0  0  0  0  0  0
  -23.5210  -32.2650   23.8170 O   0  0  0  0  0  0  0  0  0  0  0  0
  -22.7430  -29.5690   22.6050 C   0  0  0  0  0  0  0  0  0  0  0  0
  -21.4200  -29.3720   22.4720 N   0  0  0  0  0  0  0  0  0  0  0  0
  -23.4270  -28.9570   23.4280 O   0  0  0  0  0  0  0  0  0  0  0  0
  -20.9280  -29.9190   21.7790 H   0  0  0  0  0  0  0  0  0  0  0  0
  -18.0540  -28.1520   22.9650 C   0  0  0  0  0  0  0  0  0  0  0  0
  -20.6080  -28.4320   23.2440 C   0  0  0  0  0  3  0  0  0  0  0  0
  -20.7250  -26.9990   22.6750 C   0  0  0  0  0  2  0  0  0  0  0  0
  -19.6290  -26.6630   21.6590 C   0  0  0  0  0  2  0  0  0  0  0  0
  -18.2430  -26.8010   22.2980 C   0  0  0  0  0  2  0  0  0  0  0  0
  -19.1650  -28.9250   23.3960 C   0  0  0  0  0  0  0  0  0  0  0  0
  -18.9340  -30.1890   23.9790 C   0  0  0  0  0  3  0  0  0  0  0  0
  -17.6250  -30.6820   24.1370 C   0  0  0  0  0  3  0  0  0  0  0  0
  -16.5290  -29.9060   23.7240 C   0  0  0  0  0  3  0  0  0  0  0  0
  -16.7440  -28.6440   23.1440 C   0  0  0  0  0  3  0  0  0  0  0  0
  -25.8870  -32.6290   23.8880 C   0  0  0  0  0  3  0  0  0  0  0  0
  -25.5790  -34.0260   24.2190 N   0  0  0  0  0  0  0  0  0  0  0  0
  -25.9070  -35.0780   23.4570 C   0  0  0  0  0  0  0  0  0  0  0  0
  -26.5730  -34.9730   22.4230 O   0  0  0  0  0  0  0  0  0  0  0  0
  -24.9870  -34.1810   25.0220 H   0  0  0  0  0  0  0  0  0  0  0  0
  -24.1830  -36.8730   23.0960 C   0  0  0  0  0  1  0  0  0  0  0  0
  -25.4190  -36.4660   23.9140 C   0  0  0  0  0  3  0  0  0  0  0  0
  -27.5460  -37.3520   24.7620 C   0  0  0  0  0  1  0  0  0  0  0  0
  -26.4530  -37.5180   23.8070 N   0  0  0  0  0  0  0  0  0  0  0  0
  -26.0470  -38.4390   23.9460 H   0  0  0  0  0  0  0  0  0  0  0  0
  -26.4130  -31.8590   25.1610 C   0  0  1  0  0  0  0  0  0  0  0  0
  -25.3220  -31.6010   26.2260 C   0  0  0  0  0  1  0  0  0  0  0  0
  -27.0150  -30.4910   24.7600 C   0  0  0  0  0  1  0  0  0  0  0  0
  -27.5530  -32.6640   25.8280 C   0  0  0  0  0  1  0  0  0  0  0  0
  1 53  1  0
  1  2  1  0
  2  4  1  0
  3  1  2  0
  5 49  1  0
  6  5  1  0
  6  9  1  0
  7  2  1  0
  7  5  2  0
  8  6  2  0
 10  8  1  0
 10  7  1  0
 11 19  1  0
 12 17  1  0
 13 14  1  0
 13 12  1  0
 15 14  1  0
 15 24  1  0
 15 16  1  0
 17 11  1  0
 17 16  1  0
 18 11  2  0
 19  8  1  0
 19 20  1  0
 21 22  2  0
 22 41  1  0
 23 22  1  0
 23 26  1  0
 24 25  1  0
 24 21  1  0
 25 23  2  0
 26 27  1  0
 27 28  2  0
 29 32  1  0
 29 28  1  0
 30 29  2  0
 31 30  1  0
 31 26  2  0
 32 33  1  0
 33 34  1  0
 34 35  2  0
 36 35  1  0
 36 40  1  0
 37 36  2  0
 38 33  2  0
 38 37  1  0
 39 38  1  0
 41 42  1  0
 42 45  1  0
 42 44  1  0
 43 41  2  0
 46 21  1  0
 46 47  1  0
 48 46  1  0
 49 51  1  1
 49 52  1  0
 50 49  1  0
 54 53  2  0
 54 57  1  0
 55 54  1  0
 56 55  1  0
 58 60  1  0
 58 57  1  0
 59 70  2  0
 60 65  1  0
 61 69  1  0
 61 71  1  0
 62 68  1  0
 62 64  1  0
 63 69  1  0
 64 63  1  0
 65 64  2  0
 66 67  1  0
 66 60  2  0
 67 62  2  0
 68 61  1  0
 69 59  1  0
 71 73  2  0
 72 71  1  0
 74 72  1  0
 75 84  2  0
 75 80  1  0
 76 72  1  0
 76 80  1  0
 77 76  1  0
 78 79  1  0
 78 77  1  0
 79 75  1  0
 80 81  2  0
 81 82  1  0
 83 82  2  0
 84 83  1  0
 85 59  1  0
 85 86  1  0
 85 95  1  0
 86 89  1  0
 87 91  1  0
 87 86  1  0
 88 87  2  0
 91 90  1  0
 93 91  1  0
 93 94  1  0
 93 92  1  0
 95 98  1  1
 95 96  1  0
 97 95  1  0
M  ISO  4  11 100  19 100  57 101  58 101
M  END
>  <TORSDO>  (48) 
F 21

>  <SCORE>  (48) 
-13.858

>  <name>  (48) 
47

>  <ligand_id>  (48) 
47

>  <original_smiles>  (48) 
[H]OC(=C([H])C(=O)N([H])c1sc(N([H])C(=O)N2C([H])([H])C([H])([H])C([H])([H])C([H])(n3nc(-c4c([H])c([H])c(Oc5c([H])c([H])c(F)c([H])c5F)c([H])c4[H])c(C(=O)N([H])[H])c3N([H])[H])C2([H])[H])c(F)c1C(F)(F)F)C([H])([H])Oc1c([H])c([H])c2c(c1[H])C([H])([H])N(C(=O)C([H])(N([H])C(=O)C([H])(N([H])C([H])([H])[H])C([H])([H])[H])C(C([H])([H])[H])(C([H])([H])[H])C([H])([H])[H])C([H])(C(=O)N([H])C1([H])c3c([H])c([H])c([H])c([H])c3C([H])([H])C([H])([H])C1([H])[H])C2([H])[H]

>  <smiles>  (48) 
[H]OC(=C([H])C(=O)N([H])c1sc(N([H])C(=O)N2C([H])([H])C([H])([H])C([H])([H])C([H])(n3nc(-c4c([H])c([H])c(Oc5c([H])c([H])c(F)c([H])c5F)c([H])c4[H])c(C(=O)N([H])[H])c3N([H])[H])C2([H])[H])c(F)c1C(F)(F)F)C([H])([H])Oc1c([H])c([H])c2c(c1[H])C([H])([H])N(C(=O)C([H])(N([H])C(=O)C([H])(N([H])C([H])([H])[H])C([H])([H])[H])C(C([H])([H])[H])(C([H])([H])[H])C([H])([H])[H])C([H])(C(=O)N([H])C1([H])c3c([H])c([H])c([H])c([H])c3C([H])([H])C([H])([H])C1([H])[H])C2([H])[H]

$$$$
48:0:0
     RDKit          3D

 95103  0  0  1  0  0  0  0  0999 V2000
  -29.0280  -23.1840   22.4800 C   0  0  0  0  0  1  0  0  0  0  0  0
  -27.2630  -22.6950   20.7570 C   0  0  0  0  0  1  0  0  0  0  0  0
  -28.7690  -23.0440   20.9600 C   0  0  2  0  0  0  0  0  0  0  0  0
  -30.8870  -14.6130   20.0970 C   0  0  0  0  0  0  0  0  0  0  0  0
  -30.5480  -12.4740   18.9120 C   0  0  0  0  0  2  0  0  0  0  0  0
  -29.5390  -12.7050   17.7670 C   0  0  0  0  0  2  0  0  0  0  0  0
  -28.0890  -12.5570   18.2710 C   0  0  0  0  0  2  0  0  0  0  0  0
  -27.8220  -13.3620   19.5690 C   0  0  0  0  0  3  0  0  0  0  0  0
  -28.9330  -13.0980   20.6120 C   0  0  0  0  0  2  0  0  0  0  0  0
  -30.2310  -13.4230   19.9890 N   0  0  0  0  0  0  0  0  0  0  0  0
  -31.9630  -14.8330   19.5310 O   0  0  0  0  0  0  0  0  0  0  0  0
  -29.7360  -19.3160   20.6730 C   0  0  0  0  0  0  0  0  0  0  0  0
  -30.2210  -16.9560   20.6730 C   0  0  0  0  0  0  0  0  0  0  0  0
  -29.6520  -21.8380   20.4960 C   0  0  0  0  0  0  0  0  0  0  0  0
  -30.8720  -19.0350   20.0120 N   0  0  0  0  0  0  0  0  0  0  0  0
  -31.1530  -17.6660   20.0110 N   0  0  0  0  0  0  0  0  0  0  0  0
  -29.1920  -20.6170   20.8390 N   0  0  0  0  0  0  0  0  0  0  0  0
  -30.2240  -15.5390   20.8090 N   0  0  0  0  0  0  0  0  0  0  0  0
  -30.7160  -22.0250   19.9010 O   0  0  0  0  0  0  0  0  0  0  0  0
  -28.9200  -17.9170   21.3640 S   0  0  0  0  0  0  0  0  0  0  0  0
  -28.3130  -20.6420   21.3340 H   0  0  0  0  0  0  0  0  0  0  0  0
  -29.4290  -15.1720   21.3060 H   0  0  0  0  0  0  0  0  0  0  0  0
  -25.4700  -13.9620   20.4290 C   0  0  0  0  0  0  0  0  0  0  0  0
  -24.4180  -13.1840   20.8330 C   0  0  0  0  0  0  0  0  0  0  0  0
  -24.8650  -11.8310   20.7300 C   0  0  0  0  0  0  0  0  0  0  0  0
  -26.4940  -13.0830   20.1110 N   0  0  0  0  0  0  0  0  0  0  0  0
  -26.1350  -11.7950   20.3470 N   0  0  0  0  0  0  0  0  0  0  0  0
  -24.1420  -10.5680   20.9210 C   0  0  0  0  0  0  0  0  0  0  0  0
  -24.5640   -9.6120   21.8720 C   0  0  0  0  0  3  0  0  0  0  0  0
  -23.8430   -8.4110   22.0480 C   0  0  0  0  0  3  0  0  0  0  0  0
  -22.6870   -8.1580   21.2730 C   0  0  0  0  0  0  0  0  0  0  0  0
  -22.2830   -9.1020   20.3120 C   0  0  0  0  0  3  0  0  0  0  0  0
  -23.0060  -10.2950   20.1340 C   0  0  0  0  0  3  0  0  0  0  0  0
  -21.9390   -7.0090   21.3570 O   0  0  0  0  0  0  0  0  0  0  0  0
  -21.7840   -6.3360   22.5420 C   0  0  0  0  0  0  0  0  0  0  0  0
  -21.2100   -6.9510   23.6770 C   0  0  0  0  0  3  0  0  0  0  0  0
  -21.0030   -6.2020   24.8530 C   0  0  0  0  0  3  0  0  0  0  0  0
  -21.3620   -4.8410   24.8950 C   0  0  0  0  0  0  0  0  0  0  0  0
  -21.9280   -4.2270   23.7640 C   0  0  0  0  0  3  0  0  0  0  0  0
  -22.1350   -4.9720   22.5910 C   0  0  0  0  0  0  0  0  0  0  0  0
  -22.6610   -4.3700   21.4970 F   0  0  0  0  0  0  0  0  0  0  0  0
  -21.1580   -4.1200   26.0220 F   0  0  0  0  0  0  0  0  0  0  0  0
  -23.0420  -13.6600   21.2010 C   0  0  0  0  0  0  0  0  0  0  0  0
  -22.3580  -12.9390   22.0820 N   0  0  0  0  0  0  0  0  0  0  0  0
  -22.5830  -14.7060   20.7430 O   0  0  0  0  0  0  0  0  0  0  0  0
  -22.7400  -12.0900   22.4740 H   0  0  0  0  0  0  0  0  0  0  0  0
  -21.4390  -13.2420   22.3710 H   0  0  0  0  0  0  0  0  0  0  0  0
  -25.6350  -15.3350   20.2880 N   0  0  0  0  0  0  0  0  0  0  0  0
  -24.8750  -15.9880   20.4510 H   0  0  0  0  0  0  0  0  0  0  0  0
  -26.4560  -15.7780   19.8940 H   0  0  0  0  0  0  0  0  0  0  0  0
  -29.1150  -24.4060   20.2250 C   0  0  0  0  0  3  0  0  0  0  0  0
  -28.5970  -24.3820   18.8990 O   0  0  0  0  0  0  0  0  0  0  0  0
  -27.6500  -24.3800   18.9640 H   0  0  0  0  0  0  0  0  0  0  0  0
  -28.5240  -25.6640   20.9260 C   0  0  0  0  0  2  0  0  0  0  0  0
  -28.6640  -26.8890   20.1880 O   0  0  0  0  0  0  0  0  0  0  0  0
  -24.7220  -31.9570   23.2540 C   0  0  0  0  0  0  0  0  0  0  0  0
  -27.5010  -27.6240   20.1540 C   0  0  0  0  0  0  0  0  0  0  0  0
  -23.5650  -30.5470   21.5820 C   0  0  0  0  0  3  0  0  0  0  0  0
  -25.0710  -29.0630   20.1540 C   0  0  0  0  0  0  0  0  0  0  0  0
  -26.0820  -30.9720   21.4140 C   0  0  0  0  0  2  0  0  0  0  0  0
  -26.2090  -29.6110   20.7600 C   0  0  0  0  0  0  0  0  0  0  0  0
  -27.4300  -28.8990   20.7560 C   0  0  0  0  0  3  0  0  0  0  0  0
  -26.3490  -27.0880   19.5380 C   0  0  0  0  0  3  0  0  0  0  0  0
  -25.1360  -27.8010   19.5390 C   0  0  0  0  0  3  0  0  0  0  0  0
  -23.8030  -29.8880   20.1970 C   0  0  0  0  0  2  0  0  0  0  0  0
  -24.8080  -31.1720   22.1420 N   0  0  0  0  0  0  0  0  0  0  0  0
  -23.6290  -32.2000   23.7840 O   0  0  0  0  0  0  0  0  0  0  0  0
  -22.9240  -29.5030   22.5230 C   0  0  0  0  0  0  0  0  0  0  0  0
  -21.6090  -29.2840   22.3670 N   0  0  0  0  0  0  0  0  0  0  0  0
  -23.6090  -28.8930   23.3500 O   0  0  0  0  0  0  0  0  0  0  0  0
  -21.1160  -29.8360   21.6780 H   0  0  0  0  0  0  0  0  0  0  0  0
  -18.2640  -27.9790   22.7770 C   0  0  0  0  0  0  0  0  0  0  0  0
  -20.8050  -28.3150   23.1100 C   0  0  0  0  0  3  0  0  0  0  0  0
  -20.9690  -26.8930   22.5260 C   0  0  0  0  0  2  0  0  0  0  0  0
  -19.8990  -26.5370   21.4900 C   0  0  0  0  0  2  0  0  0  0  0  0
  -18.5000  -26.6360   22.1060 C   0  0  0  0  0  2  0  0  0  0  0  0
  -19.3490  -28.7730   23.2350 C   0  0  0  0  0  0  0  0  0  0  0  0
  -19.0780  -30.0280   23.8240 C   0  0  0  0  0  3  0  0  0  0  0  0
  -17.7570  -30.4910   23.9570 C   0  0  0  0  0  3  0  0  0  0  0  0
  -16.6860  -29.6950   23.5160 C   0  0  0  0  0  3  0  0  0  0  0  0
  -16.9400  -28.4400   22.9320 C   0  0  0  0  0  3  0  0  0  0  0  0
  -25.9880  -32.6070   23.8970 C   0  0  0  0  0  3  0  0  0  0  0  0
  -26.4870  -31.8510   25.1890 C   0  0  1  0  0  0  0  0  0  0  0  0
  -25.3710  -31.5840   26.2240 C   0  0  0  0  0  1  0  0  0  0  0  0
  -27.1180  -30.4900   24.8120 C   0  0  0  0  0  1  0  0  0  0  0  0
  -27.5970  -32.6740   25.8830 C   0  0  0  0  0  1  0  0  0  0  0  0
  -25.6580  -34.0050   24.2080 N   0  0  0  0  0  0  0  0  0  0  0  0
  -26.0030  -35.0530   23.4480 C   0  0  0  0  0  0  0  0  0  0  0  0
  -26.7040  -34.9450   22.4370 O   0  0  0  0  0  0  0  0  0  0  0  0
  -25.0390  -34.1610   24.9900 H   0  0  0  0  0  0  0  0  0  0  0  0
  -24.2770  -36.8280   23.0170 C   0  0  0  0  0  1  0  0  0  0  0  0
  -25.4900  -36.4400   23.8770 C   0  0  0  0  0  3  0  0  0  0  0  0
  -27.5830  -37.3480   24.7860 C   0  0  0  0  0  1  0  0  0  0  0  0
  -26.5200  -37.4990   23.7950 N   0  0  0  0  0  0  0  0  0  0  0  0
  -26.1020  -38.4180   23.9160 H   0  0  0  0  0  0  0  0  0  0  0  0
  3  2  1  1
  3  1  1  0
  4 18  1  0
  5 10  1  0
  6  7  1  0
  6  5  1  0
  8  7  1  0
  8 26  1  0
  8  9  1  0
 10  4  1  0
 10  9  1  0
 11  4  2  0
 12 17  1  0
 12 20  1  0
 13 18  1  0
 13 20  1  0
 14 17  1  0
 14  3  1  0
 15 12  2  0
 16 15  1  0
 16 13  2  0
 17 21  1  0
 18 22  1  0
 19 14  2  0
 23 24  2  0
 24 43  1  0
 25 24  1  0
 25 28  1  0
 26 27  1  0
 26 23  1  0
 27 25  2  0
 28 29  1  0
 29 30  2  0
 31 34  1  0
 31 30  1  0
 32 31  2  0
 33 32  1  0
 33 28  2  0
 34 35  1  0
 35 40  2  0
 35 36  1  0
 36 37  2  0
 37 38  1  0
 38 42  1  0
 39 38  2  0
 40 39  1  0
 41 40  1  0
 43 44  1  0
 44 47  1  0
 44 46  1  0
 45 43  2  0
 48 23  1  0
 48 49  1  0
 50 48  1  0
 51 54  1  0
 51  3  1  0
 52 53  1  0
 52 51  1  0
 55 54  1  0
 56 67  2  0
 57 55  1  0
 57 62  1  0
 58 66  1  0
 58 68  1  0
 59 65  1  0
 59 61  1  0
 60 66  1  0
 61 60  1  0
 62 61  2  0
 63 64  1  0
 63 57  2  0
 64 59  2  0
 65 58  1  0
 66 56  1  0
 68 70  2  0
 69 68  1  0
 71 69  1  0
 72 81  2  0
 72 77  1  0
 73 69  1  0
 73 77  1  0
 74 73  1  0
 75 76  1  0
 75 74  1  0
 76 72  1  0
 77 78  2  0
 78 79  1  0
 80 79  2  0
 81 80  1  0
 82 56  1  0
 82 87  1  0
 82 83  1  0
 83 86  1  1
 83 84  1  0
 85 83  1  0
 87 90  1  0
 88 92  1  0
 88 87  1  0
 89 88  2  0
 92 91  1  0
 94 92  1  0
 94 95  1  0
 94 93  1  0
M  ISO  4   4 100  18 100  54 101  55 101
M  END
>  <TORSDO>  (49) 
F 19

>  <SCORE>  (49) 
-13.408

>  <name>  (49) 
48

>  <ligand_id>  (49) 
48

>  <original_smiles>  (49) 
[H]OC([H])(C([H])([H])Oc1c([H])c([H])c2c(c1[H])C([H])([H])N(C(=O)C([H])(N([H])C(=O)C([H])(N([H])C([H])([H])[H])C([H])([H])[H])C(C([H])([H])[H])(C([H])([H])[H])C([H])([H])[H])C([H])(C(=O)N([H])C1([H])c3c([H])c([H])c([H])c([H])c3C([H])([H])C([H])([H])C1([H])[H])C2([H])[H])C(C(=O)N([H])c1nnc(N([H])C(=O)N2C([H])([H])C([H])([H])C([H])([H])C([H])(n3nc(-c4c([H])c([H])c(Oc5c([H])c([H])c(F)c([H])c5F)c([H])c4[H])c(C(=O)N([H])[H])c3N([H])[H])C2([H])[H])s1)(C([H])([H])[H])C([H])([H])[H]

>  <smiles>  (49) 
[H]OC([H])(C([H])([H])Oc1c([H])c([H])c2c(c1[H])C([H])([H])N(C(=O)C([H])(N([H])C(=O)C([H])(N([H])C([H])([H])[H])C([H])([H])[H])C(C([H])([H])[H])(C([H])([H])[H])C([H])([H])[H])C([H])(C(=O)N([H])C1([H])c3c([H])c([H])c([H])c([H])c3C([H])([H])C([H])([H])C1([H])[H])C2([H])[H])C(C(=O)N([H])c1nnc(N([H])C(=O)N2C([H])([H])C([H])([H])C([H])([H])C([H])(n3nc(-c4c([H])c([H])c(Oc5c([H])c([H])c(F)c([H])c5F)c([H])c4[H])c(C(=O)N([H])[H])c3N([H])[H])C2([H])[H])s1)(C([H])([H])[H])C([H])([H])[H]

$$$$
49:0:0
     RDKit          3D

 94102  0  0  1  0  0  0  0  0999 V2000
  -28.6920  -20.4410   19.7590 C   0  0  0  0  0  0  0  0  0  0  0  0
  -28.4670  -22.8630   19.5040 C   0  0  0  0  0  0  0  0  0  0  0  0
  -28.9370  -21.7360   20.1180 N   0  0  0  0  0  0  0  0  0  0  0  0
  -27.7830  -20.1210   18.9810 O   0  0  0  0  0  0  0  0  0  0  0  0
  -27.9130  -22.8360   18.3980 O   0  0  0  0  0  0  0  0  0  0  0  0
  -29.5200  -21.8910   20.9260 H   0  0  0  0  0  0  0  0  0  0  0  0
  -30.6220  -14.6150   20.4840 C   0  0  0  0  0  0  0  0  0  0  0  0
  -30.4020  -12.3970   19.4010 C   0  0  0  0  0  2  0  0  0  0  0  0
  -29.4680  -12.5390   18.1800 C   0  0  0  0  0  2  0  0  0  0  0  0
  -27.9890  -12.3870   18.5980 C   0  0  0  0  0  2  0  0  0  0  0  0
  -27.6230  -13.2500   19.8340 C   0  0  0  0  0  3  0  0  0  0  0  0
  -28.6720  -13.0850   20.9570 C   0  0  0  0  0  2  0  0  0  0  0  0
  -29.9910  -13.4080   20.3910 N   0  0  0  0  0  0  0  0  0  0  0  0
  -31.7940  -14.7660   20.1220 O   0  0  0  0  0  0  0  0  0  0  0  0
  -30.8670  -19.4320   20.7250 C   0  0  0  0  0  3  0  0  0  0  0  0
  -29.5470  -19.3200   20.3480 C   0  0  0  0  0  0  0  0  0  0  0  0
  -30.0850  -17.0780   20.7150 C   0  0  0  0  0  0  0  0  0  0  0  0
  -29.1180  -17.9630   20.3950 N   0  0  0  0  0  0  0  0  0  0  0  0
  -29.8120  -15.6680   20.7770 N   0  0  0  0  0  0  0  0  0  0  0  0
  -31.6170  -17.8770   21.0640 S   0  0  0  0  0  0  0  0  0  0  0  0
  -28.8500  -15.4240   20.9340 H   0  0  0  0  0  0  0  0  0  0  0  0
  -25.2240  -13.8580   20.5320 C   0  0  0  0  0  0  0  0  0  0  0  0
  -24.1540  -13.0850   20.8940 C   0  0  0  0  0  0  0  0  0  0  0  0
  -24.6140  -11.7320   20.8650 C   0  0  0  0  0  0  0  0  0  0  0  0
  -26.2700  -12.9740   20.3070 N   0  0  0  0  0  0  0  0  0  0  0  0
  -25.9070  -11.6930   20.5690 N   0  0  0  0  0  0  0  0  0  0  0  0
  -23.8850  -10.4710   21.0490 C   0  0  0  0  0  0  0  0  0  0  0  0
  -24.3070   -9.5060   21.9900 C   0  0  0  0  0  3  0  0  0  0  0  0
  -23.5800   -8.3060   22.1590 C   0  0  0  0  0  3  0  0  0  0  0  0
  -22.4190   -8.0670   21.3890 C   0  0  0  0  0  0  0  0  0  0  0  0
  -22.0150   -9.0220   20.4370 C   0  0  0  0  0  3  0  0  0  0  0  0
  -22.7420  -10.2110   20.2660 C   0  0  0  0  0  3  0  0  0  0  0  0
  -21.6640   -6.9210   21.4680 O   0  0  0  0  0  0  0  0  0  0  0  0
  -21.5900   -6.1870   22.6250 C   0  0  0  0  0  0  0  0  0  0  0  0
  -21.1140   -6.7420   23.8320 C   0  0  0  0  0  3  0  0  0  0  0  0
  -20.9900   -5.9330   24.9800 C   0  0  0  0  0  3  0  0  0  0  0  0
  -21.3330   -4.5680   24.9190 C   0  0  0  0  0  0  0  0  0  0  0  0
  -21.8030   -4.0120   23.7160 C   0  0  0  0  0  3  0  0  0  0  0  0
  -21.9280   -4.8190   22.5720 C   0  0  0  0  0  0  0  0  0  0  0  0
  -22.3610   -4.2730   21.4100 F   0  0  0  0  0  0  0  0  0  0  0  0
  -21.2070   -3.7890   26.0180 F   0  0  0  0  0  0  0  0  0  0  0  0
  -22.7550  -13.5620   21.1560 C   0  0  0  0  0  0  0  0  0  0  0  0
  -22.0150  -12.8600   22.0080 N   0  0  0  0  0  0  0  0  0  0  0  0
  -22.3240  -14.5930   20.6400 O   0  0  0  0  0  0  0  0  0  0  0  0
  -22.3750  -12.0280   22.4500 H   0  0  0  0  0  0  0  0  0  0  0  0
  -21.0770  -13.1660   22.2260 H   0  0  0  0  0  0  0  0  0  0  0  0
  -25.3900  -15.2280   20.3530 N   0  0  0  0  0  0  0  0  0  0  0  0
  -24.6140  -15.8760   20.4290 H   0  0  0  0  0  0  0  0  0  0  0  0
  -26.2300  -15.6630   19.9920 H   0  0  0  0  0  0  0  0  0  0  0  0
  -28.2780  -25.3150   19.6610 C   0  0  0  0  0  3  0  0  0  0  0  0
  -28.6530  -24.1360   20.2430 C   0  0  0  0  0  0  0  0  0  0  0  0
  -29.1610  -24.1160   21.4840 O   0  0  0  0  0  0  0  0  0  0  0  0
  -29.1760  -25.0170   21.7830 H   0  0  0  0  0  0  0  0  0  0  0  0
  -28.3090  -26.5880   20.2350 O   0  0  0  0  0  0  0  0  0  0  0  0
  -24.5600  -31.9230   23.2410 C   0  0  0  0  0  0  0  0  0  0  0  0
  -27.1700  -27.3960   20.1780 C   0  0  0  0  0  0  0  0  0  0  0  0
  -23.3550  -30.5340   21.5940 C   0  0  0  0  0  3  0  0  0  0  0  0
  -24.8020  -28.9870   20.1730 C   0  0  0  0  0  0  0  0  0  0  0  0
  -25.8930  -30.8510   21.4180 C   0  0  0  0  0  2  0  0  0  0  0  0
  -25.9680  -29.4780   20.7710 C   0  0  0  0  0  0  0  0  0  0  0  0
  -27.1540  -28.6920   20.7680 C   0  0  0  0  0  3  0  0  0  0  0  0
  -25.9700  -26.9400   19.5780 C   0  0  0  0  0  3  0  0  0  0  0  0
  -24.8010  -27.7200   19.5700 C   0  0  0  0  0  3  0  0  0  0  0  0
  -23.5680  -29.8620   20.2140 C   0  0  0  0  0  2  0  0  0  0  0  0
  -24.6210  -31.1190   22.1420 N   0  0  0  0  0  0  0  0  0  0  0  0
  -23.4770  -32.2070   23.7720 O   0  0  0  0  0  0  0  0  0  0  0  0
  -22.6870  -29.5150   22.5490 C   0  0  0  0  0  0  0  0  0  0  0  0
  -21.3610  -29.3450   22.4150 N   0  0  0  0  0  0  0  0  0  0  0  0
  -23.3590  -28.8830   23.3680 O   0  0  0  0  0  0  0  0  0  0  0  0
  -20.8790  -29.9080   21.7280 H   0  0  0  0  0  0  0  0  0  0  0  0
  -17.9680  -28.2020   22.9200 C   0  0  0  0  0  0  0  0  0  0  0  0
  -20.5310  -28.4140   23.1820 C   0  0  0  0  0  3  0  0  0  0  0  0
  -20.6050  -26.9870   22.5910 C   0  0  0  0  0  2  0  0  0  0  0  0
  -19.4930  -26.6930   21.5780 C   0  0  0  0  0  2  0  0  0  0  0  0
  -18.1170  -26.8560   22.2320 C   0  0  0  0  0  2  0  0  0  0  0  0
  -19.1020  -28.9410   23.3520 C   0  0  0  0  0  0  0  0  0  0  0  0
  -18.9060  -30.2020   23.9550 C   0  0  0  0  0  3  0  0  0  0  0  0
  -17.6110  -30.7240   24.1340 C   0  0  0  0  0  3  0  0  0  0  0  0
  -16.4930  -29.9810   23.7180 C   0  0  0  0  0  3  0  0  0  0  0  0
  -16.6710  -28.7230   23.1160 C   0  0  0  0  0  3  0  0  0  0  0  0
  -25.8450  -32.5460   23.8680 C   0  0  0  0  0  3  0  0  0  0  0  0
  -25.5480  -33.9500   24.1840 N   0  0  0  0  0  0  0  0  0  0  0  0
  -25.8940  -34.9920   23.4160 C   0  0  0  0  0  0  0  0  0  0  0  0
  -26.5670  -34.8720   22.3890 O   0  0  0  0  0  0  0  0  0  0  0  0
  -24.9520  -34.1180   24.9820 H   0  0  0  0  0  0  0  0  0  0  0  0
  -24.1900  -36.8020   23.0290 C   0  0  0  0  0  1  0  0  0  0  0  0
  -25.4160  -36.3890   23.8570 C   0  0  0  0  0  3  0  0  0  0  0  0
  -27.5490  -37.2590   24.7120 C   0  0  0  0  0  1  0  0  0  0  0  0
  -26.4620  -37.4290   23.7490 N   0  0  0  0  0  0  0  0  0  0  0  0
  -26.0640  -38.3540   23.8820 H   0  0  0  0  0  0  0  0  0  0  0  0
  -26.3420  -31.7790   25.1560 C   0  0  1  0  0  0  0  0  0  0  0  0
  -25.2360  -31.5620   26.2140 C   0  0  0  0  0  1  0  0  0  0  0  0
  -26.9150  -30.3930   24.7790 C   0  0  0  0  0  1  0  0  0  0  0  0
  -27.4940  -32.5670   25.8230 C   0  0  0  0  0  1  0  0  0  0  0  0
  1  3  1  0
  1 16  1  0
  2  3  1  0
  2 51  1  0
  3  6  1  0
  4  1  2  0
  5  2  2  0
  7 19  1  0
  8 13  1  0
  9 10  1  0
  9  8  1  0
 11 10  1  0
 11 25  1  0
 11 12  1  0
 13  7  1  0
 13 12  1  0
 14  7  2  0
 15 20  1  0
 16 18  1  0
 16 15  2  0
 17 19  1  0
 17 20  1  0
 18 17  2  0
 19 21  1  0
 22 23  2  0
 23 42  1  0
 24 23  1  0
 24 27  1  0
 25 22  1  0
 25 26  1  0
 26 24  2  0
 27 28  1  0
 28 29  2  0
 30 33  1  0
 30 29  1  0
 31 30  2  0
 32 31  1  0
 32 27  2  0
 33 34  1  0
 34 35  1  0
 35 36  2  0
 37 36  1  0
 37 41  1  0
 38 37  2  0
 39 34  2  0
 39 38  1  0
 40 39  1  0
 42 43  1  0
 43 46  1  0
 43 45  1  0
 44 42  2  0
 47 48  1  0
 47 22  1  0
 49 47  1  0
 50 54  1  0
 50 51  2  0
 51 52  1  0
 52 53  1  0
 55 66  2  0
 56 54  1  0
 56 61  1  0
 57 65  1  0
 57 67  1  0
 58 64  1  0
 58 60  1  0
 59 65  1  0
 60 59  1  0
 61 60  2  0
 62 56  2  0
 63 62  1  0
 63 58  2  0
 64 57  1  0
 65 55  1  0
 67 69  2  0
 68 67  1  0
 70 68  1  0
 71 80  2  0
 71 76  1  0
 72 68  1  0
 72 76  1  0
 73 72  1  0
 74 75  1  0
 74 73  1  0
 75 71  1  0
 76 77  2  0
 77 78  1  0
 79 78  2  0
 80 79  1  0
 81 55  1  0
 81 82  1  0
 81 91  1  0
 82 85  1  0
 83 87  1  0
 83 82  1  0
 84 83  2  0
 87 86  1  0
 89 87  1  0
 89 90  1  0
 89 88  1  0
 91 94  1  1
 91 92  1  0
 93 91  1  0
M  ISO  4   7 100  19 100  50 101  54 101
M  END
>  <TORSDO>  (50) 
F 18

>  <SCORE>  (50) 
-15.128

>  <name>  (50) 
49

>  <ligand_id>  (50) 
49

>  <original_smiles>  (50) 
[H]OC(C(=O)N([H])C(=O)c1nc(N([H])C(=O)N2C([H])([H])C([H])([H])C([H])([H])C([H])(n3nc(-c4c([H])c([H])c(Oc5c([H])c([H])c(F)c([H])c5F)c([H])c4[H])c(C(=O)N([H])[H])c3N([H])[H])C2([H])[H])sc1[H])=C([H])Oc1c([H])c([H])c2c(c1[H])C([H])([H])N(C(=O)C([H])(N([H])C(=O)C([H])(N([H])C([H])([H])[H])C([H])([H])[H])C(C([H])([H])[H])(C([H])([H])[H])C([H])([H])[H])C([H])(C(=O)N([H])C1([H])c3c([H])c([H])c([H])c([H])c3C([H])([H])C([H])([H])C1([H])[H])C2([H])[H]

>  <smiles>  (50) 
[H]OC(C(=O)N([H])C(=O)c1nc(N([H])C(=O)N2C([H])([H])C([H])([H])C([H])([H])C([H])(n3nc(-c4c([H])c([H])c(Oc5c([H])c([H])c(F)c([H])c5F)c([H])c4[H])c(C(=O)N([H])[H])c3N([H])[H])C2([H])[H])sc1[H])=C([H])Oc1c([H])c([H])c2c(c1[H])C([H])([H])N(C(=O)C([H])(N([H])C(=O)C([H])(N([H])C([H])([H])[H])C([H])([H])[H])C(C([H])([H])[H])(C([H])([H])[H])C([H])([H])[H])C([H])(C(=O)N([H])C1([H])c3c([H])c([H])c([H])c([H])c3C([H])([H])C([H])([H])C1([H])[H])C2([H])[H]

$$$$
50:0:0
     RDKit          3D

 96104  0  0  1  0  0  0  0  0999 V2000
  -29.7190  -21.6920   20.4760 C   0  0  0  0  0  0  0  0  0  0  0  0
  -29.2320  -20.5890   19.8720 N   0  0  0  0  0  0  0  0  0  0  0  0
  -30.5160  -21.6870   21.4150 O   0  0  0  0  0  0  0  0  0  0  0  0
  -28.5850  -20.8170   19.1260 H   0  0  0  0  0  0  0  0  0  0  0  0
  -30.8970  -14.6720   20.6140 C   0  0  0  0  0  0  0  0  0  0  0  0
  -30.6590  -12.5250   19.4140 C   0  0  0  0  0  2  0  0  0  0  0  0
  -29.7420  -12.7470   18.1920 C   0  0  0  0  0  2  0  0  0  0  0  0
  -28.2560  -12.5970   18.5770 C   0  0  0  0  0  2  0  0  0  0  0  0
  -27.8870  -13.4040   19.8500 C   0  0  0  0  0  3  0  0  0  0  0  0
  -28.9140  -13.1510   20.9780 C   0  0  0  0  0  2  0  0  0  0  0  0
  -30.2560  -13.4770   20.4610 N   0  0  0  0  0  0  0  0  0  0  0  0
  -32.0070  -14.9060   20.1240 O   0  0  0  0  0  0  0  0  0  0  0  0
  -28.5600  -18.2840   19.4930 C   0  0  0  0  0  0  0  0  0  0  0  0
  -29.3650  -19.2430   20.0940 C   0  0  0  0  0  0  0  0  0  0  0  0
  -29.8650  -16.8760   20.7290 C   0  0  0  0  0  0  0  0  0  0  0  0
  -28.8290  -16.9660   19.9020 N   0  0  0  0  0  0  0  0  0  0  0  0
  -30.2020  -15.6110   21.2820 N   0  0  0  0  0  0  0  0  0  0  0  0
  -30.5540  -18.4530   21.1430 S   0  0  0  0  0  0  0  0  0  0  0  0
  -29.4330  -15.1910   21.7770 H   0  0  0  0  0  0  0  0  0  0  0  0
  -25.4680  -14.0060   20.4880 C   0  0  0  0  0  0  0  0  0  0  0  0
  -24.3920  -13.2320   20.8300 C   0  0  0  0  0  0  0  0  0  0  0  0
  -24.8590  -11.8820   20.8190 C   0  0  0  0  0  0  0  0  0  0  0  0
  -26.5220  -13.1270   20.2900 N   0  0  0  0  0  0  0  0  0  0  0  0
  -26.1570  -11.8450   20.5460 N   0  0  0  0  0  0  0  0  0  0  0  0
  -24.1360  -10.6180   20.9980 C   0  0  0  0  0  0  0  0  0  0  0  0
  -24.5250   -9.6770   21.9760 C   0  0  0  0  0  3  0  0  0  0  0  0
  -23.8040   -8.4750   22.1410 C   0  0  0  0  0  3  0  0  0  0  0  0
  -22.6780   -8.2060   21.3280 C   0  0  0  0  0  0  0  0  0  0  0  0
  -22.3070   -9.1350   20.3410 C   0  0  0  0  0  3  0  0  0  0  0  0
  -23.0290  -10.3290   20.1740 C   0  0  0  0  0  3  0  0  0  0  0  0
  -21.9320   -7.0550   21.3990 O   0  0  0  0  0  0  0  0  0  0  0  0
  -21.7870   -6.3620   22.5750 C   0  0  0  0  0  0  0  0  0  0  0  0
  -21.1870   -6.9450   23.7140 C   0  0  0  0  0  3  0  0  0  0  0  0
  -20.9940   -6.1770   24.8790 C   0  0  0  0  0  3  0  0  0  0  0  0
  -21.3900   -4.8250   24.9050 C   0  0  0  0  0  0  0  0  0  0  0  0
  -21.9810   -4.2420   23.7700 C   0  0  0  0  0  3  0  0  0  0  0  0
  -22.1750   -5.0080   22.6080 C   0  0  0  0  0  0  0  0  0  0  0  0
  -22.7260   -4.4360   21.5110 F   0  0  0  0  0  0  0  0  0  0  0  0
  -21.1970   -4.0840   26.0210 F   0  0  0  0  0  0  0  0  0  0  0  0
  -22.9860  -13.7040   21.0620 C   0  0  0  0  0  0  0  0  0  0  0  0
  -22.2420  -13.0170   21.9230 N   0  0  0  0  0  0  0  0  0  0  0  0
  -22.5510  -14.7160   20.5140 O   0  0  0  0  0  0  0  0  0  0  0  0
  -22.6040  -12.1980   22.3900 H   0  0  0  0  0  0  0  0  0  0  0  0
  -21.2980  -13.3160   22.1190 H   0  0  0  0  0  0  0  0  0  0  0  0
  -25.6380  -15.3760   20.3140 N   0  0  0  0  0  0  0  0  0  0  0  0
  -24.8730  -16.0360   20.3980 H   0  0  0  0  0  0  0  0  0  0  0  0
  -26.5150  -15.8130   20.0580 H   0  0  0  0  0  0  0  0  0  0  0  0
  -27.4270  -18.4950   18.5060 C   0  0  1  0  0  0  0  0  0  0  0  0
  -27.3360  -19.7630   18.0970 F   0  0  0  0  0  0  0  0  0  0  0  0
  -27.5900  -17.7410   17.4170 F   0  0  0  0  0  0  0  0  0  0  0  0
  -26.2530  -18.1710   19.0470 F   0  0  0  0  0  0  0  0  0  0  0  0
  -29.1550  -23.0040   19.8770 C   0  0  0  0  0  2  0  0  0  0  0  0
  -30.9180  -24.8680   20.1450 C   0  0  0  0  0  1  0  0  0  0  0  0
  -29.4950  -24.4020   20.4980 C   0  0  0  0  0  3  0  0  0  0  0  0
  -28.4220  -25.4180   20.0010 C   0  0  0  0  0  2  0  0  0  0  0  0
  -28.5110  -26.7970   20.4320 O   0  0  0  0  0  0  0  0  0  0  0  0
  -24.5940  -32.0070   23.3700 C   0  0  0  0  0  0  0  0  0  0  0  0
  -27.3450  -27.5550   20.3540 C   0  0  0  0  0  0  0  0  0  0  0  0
  -23.4400  -30.5910   21.7070 C   0  0  0  0  0  3  0  0  0  0  0  0
  -24.9390  -29.0720   20.3120 C   0  0  0  0  0  0  0  0  0  0  0  0
  -25.9720  -30.9610   21.5740 C   0  0  0  0  0  2  0  0  0  0  0  0
  -26.0830  -29.5920   20.9300 C   0  0  0  0  0  0  0  0  0  0  0  0
  -27.2850  -28.8400   20.9520 C   0  0  0  0  0  3  0  0  0  0  0  0
  -26.1770  -27.0740   19.7080 C   0  0  0  0  0  3  0  0  0  0  0  0
  -24.9830  -27.8130   19.6980 C   0  0  0  0  0  3  0  0  0  0  0  0
  -23.6860  -29.9180   20.3320 C   0  0  0  0  0  2  0  0  0  0  0  0
  -24.6850  -31.2020   22.2730 N   0  0  0  0  0  0  0  0  0  0  0  0
  -23.4970  -32.2720   23.8820 O   0  0  0  0  0  0  0  0  0  0  0  0
  -22.7770  -29.5630   22.6530 C   0  0  0  0  0  0  0  0  0  0  0  0
  -21.4570  -29.3670   22.4950 N   0  0  0  0  0  0  0  0  0  0  0  0
  -23.4470  -28.9460   23.4840 O   0  0  0  0  0  0  0  0  0  0  0  0
  -20.9770  -29.9180   21.7980 H   0  0  0  0  0  0  0  0  0  0  0  0
  -18.0770  -28.1680   22.9450 C   0  0  0  0  0  0  0  0  0  0  0  0
  -20.6310  -28.4230   23.2480 C   0  0  0  0  0  3  0  0  0  0  0  0
  -20.7400  -26.9960   22.6610 C   0  0  0  0  0  2  0  0  0  0  0  0
  -19.6490  -26.6830   21.6320 C   0  0  0  0  0  2  0  0  0  0  0  0
  -18.2600  -26.8240   22.2620 C   0  0  0  0  0  2  0  0  0  0  0  0
  -19.1900  -28.9260   23.3940 C   0  0  0  0  0  0  0  0  0  0  0  0
  -18.9650  -30.1860   23.9910 C   0  0  0  0  0  3  0  0  0  0  0  0
  -17.6590  -30.6870   24.1440 C   0  0  0  0  0  3  0  0  0  0  0  0
  -16.5590  -29.9250   23.7130 C   0  0  0  0  0  3  0  0  0  0  0  0
  -16.7690  -28.6680   23.1180 C   0  0  0  0  0  3  0  0  0  0  0  0
  -25.8580  -32.6530   24.0160 C   0  0  0  0  0  3  0  0  0  0  0  0
  -26.3270  -31.9200   25.3320 C   0  0  1  0  0  0  0  0  0  0  0  0
  -25.1940  -31.7000   26.3600 C   0  0  0  0  0  1  0  0  0  0  0  0
  -26.9370  -30.5380   25.0000 C   0  0  0  0  0  1  0  0  0  0  0  0
  -27.4420  -32.7420   26.0190 C   0  0  0  0  0  1  0  0  0  0  0  0
  -25.5430  -34.0610   24.2910 N   0  0  0  0  0  0  0  0  0  0  0  0
  -25.8980  -35.0880   23.5060 C   0  0  0  0  0  0  0  0  0  0  0  0
  -26.5960  -34.9490   22.4970 O   0  0  0  0  0  0  0  0  0  0  0  0
  -24.9250  -34.2420   25.0670 H   0  0  0  0  0  0  0  0  0  0  0  0
  -24.1870  -36.8700   23.0430 C   0  0  0  0  0  1  0  0  0  0  0  0
  -25.4020  -36.4900   23.9050 C   0  0  0  0  0  3  0  0  0  0  0  0
  -27.5060  -37.4020   24.7800 C   0  0  0  0  0  1  0  0  0  0  0  0
  -26.4400  -37.5380   23.7910 N   0  0  0  0  0  0  0  0  0  0  0  0
  -26.0310  -38.4620   23.8920 H   0  0  0  0  0  0  0  0  0  0  0  0
  1  3  2  0
  2 14  1  0
  2  1  1  0
  4  2  1  0
  5 17  1  0
  6 11  1  0
  7  8  1  0
  7  6  1  0
  9  8  1  0
  9 23  1  0
  9 10  1  0
 11  5  1  0
 11 10  1  0
 12  5  2  0
 13 16  1  0
 13 14  2  0
 14 18  1  0
 15 18  1  0
 15 17  1  0
 16 15  2  0
 17 19  1  0
 20 21  2  0
 21 40  1  0
 22 21  1  0
 22 25  1  0
 23 20  1  0
 23 24  1  0
 24 22  2  0
 25 26  1  0
 26 27  2  0
 28 31  1  0
 28 27  1  0
 29 28  2  0
 30 29  1  0
 30 25  2  0
 31 32  1  0
 32 37  2  0
 32 33  1  0
 33 34  2  0
 34 35  1  0
 35 39  1  0
 36 35  2  0
 37 36  1  0
 38 37  1  0
 40 41  1  0
 41 44  1  0
 41 43  1  0
 42 40  2  0
 45 46  1  0
 45 20  1  0
 47 45  1  0
 48 51  1  1
 48 13  1  0
 49 48  1  0
 50 48  1  0
 52  1  1  0
 52 54  1  0
 54 53  1  0
 55 56  1  0
 55 54  1  0
 57 68  2  0
 58 56  1  0
 58 63  1  0
 59 67  1  0
 59 69  1  0
 60 66  1  0
 60 62  1  0
 61 67  1  0
 62 63  2  0
 62 61  1  0
 64 58  2  0
 65 64  1  0
 65 60  2  0
 66 59  1  0
 67 57  1  0
 69 71  2  0
 70 69  1  0
 72 70  1  0
 73 82  2  0
 73 78  1  0
 74 70  1  0
 74 78  1  0
 75 74  1  0
 76 77  1  0
 76 75  1  0
 77 73  1  0
 78 79  2  0
 79 80  1  0
 81 80  2  0
 82 81  1  0
 83 57  1  0
 83 88  1  0
 83 84  1  0
 84 87  1  1
 84 85  1  0
 86 84  1  0
 88 91  1  0
 89 93  1  0
 89 88  1  0
 90 89  2  0
 93 92  1  0
 95 96  1  0
 95 93  1  0
 95 94  1  0
M  ISO  4   5 100  17 100  55 101  56 101
M  END
>  <TORSDO>  (51) 
F 20

>  <SCORE>  (51) 
-13.901

>  <name>  (51) 
50

>  <ligand_id>  (51) 
50

>  <original_smiles>  (51) 
[H]c1c([H])c([H])c2c(c1[H])C([H])([H])C([H])([H])C([H])([H])C2([H])N([H])C(=O)C1([H])N(C(=O)C([H])(N([H])C(=O)C([H])(N([H])C([H])([H])[H])C([H])([H])[H])C(C([H])([H])[H])(C([H])([H])[H])C([H])([H])[H])C([H])([H])c2c([H])c(OC([H])([H])C([H])(C([H])([H])[H])C([H])([H])C(=O)N([H])c3sc(N([H])C(=O)N4C([H])([H])C([H])([H])C([H])([H])C([H])(n5nc(-c6c([H])c([H])c(Oc7c([H])c([H])c(F)c([H])c7F)c([H])c6[H])c(C(=O)N([H])[H])c5N([H])[H])C4([H])[H])nc3C(F)(F)F)c([H])c([H])c2C1([H])[H]

>  <smiles>  (51) 
[H]c1c([H])c([H])c2c(c1[H])C([H])([H])C([H])([H])C([H])([H])C2([H])N([H])C(=O)C1([H])N(C(=O)C([H])(N([H])C(=O)C([H])(N([H])C([H])([H])[H])C([H])([H])[H])C(C([H])([H])[H])(C([H])([H])[H])C([H])([H])[H])C([H])([H])c2c([H])c(OC([H])([H])C([H])(C([H])([H])[H])C([H])([H])C(=O)N([H])c3sc(N([H])C(=O)N4C([H])([H])C([H])([H])C([H])([H])C([H])(n5nc(-c6c([H])c([H])c(Oc7c([H])c([H])c(F)c([H])c7F)c([H])c6[H])c(C(=O)N([H])[H])c5N([H])[H])C4([H])[H])nc3C(F)(F)F)c([H])c([H])c2C1([H])[H]

$$$$
51:0:0
     RDKit          3D

 99107  0  0  1  0  0  0  0  0999 V2000
  -30.4020  -21.0860   20.4520 C   0  0  0  0  0  0  0  0  0  0  0  0
  -29.2850  -21.8570   20.4790 N   0  0  0  0  0  0  0  0  0  0  0  0
  -31.4780  -21.6030   20.1480 O   0  0  0  0  0  0  0  0  0  0  0  0
  -28.4030  -21.4450   20.7480 H   0  0  0  0  0  0  0  0  0  0  0  0
  -30.6170  -14.6310   20.4130 C   0  0  0  0  0  0  0  0  0  0  0  0
  -30.3780  -12.4210   19.3200 C   0  0  0  0  0  2  0  0  0  0  0  0
  -29.4360  -12.5770   18.1070 C   0  0  0  0  0  2  0  0  0  0  0  0
  -27.9590  -12.4290   18.5290 C   0  0  0  0  0  2  0  0  0  0  0  0
  -27.6050  -13.2730   19.7840 C   0  0  0  0  0  3  0  0  0  0  0  0
  -28.6650  -13.1010   20.8950 C   0  0  0  0  0  2  0  0  0  0  0  0
  -29.9740  -13.4300   20.3120 N   0  0  0  0  0  0  0  0  0  0  0  0
  -31.7970  -14.7600   20.0700 O   0  0  0  0  0  0  0  0  0  0  0  0
  -30.4270  -19.6170   20.8290 C   0  0  0  0  0  0  0  0  0  0  0  0
  -31.3930  -18.8950   21.5180 C   0  0  0  0  0  0  0  0  0  0  0  0
  -30.1680  -17.1020   20.7860 C   0  0  0  0  0  0  0  0  0  0  0  0
  -31.2280  -17.5040   21.4960 N   0  0  0  0  0  0  0  0  0  0  0  0
  -29.8170  -15.7080   20.6500 N   0  0  0  0  0  0  0  0  0  0  0  0
  -29.2370  -18.4930   20.1550 S   0  0  0  0  0  0  0  0  0  0  0  0
  -28.8300  -15.5080   20.6570 H   0  0  0  0  0  0  0  0  0  0  0  0
  -25.2090  -13.8650   20.5020 C   0  0  0  0  0  0  0  0  0  0  0  0
  -24.1450  -13.0880   20.8700 C   0  0  0  0  0  0  0  0  0  0  0  0
  -24.6120  -11.7390   20.8370 C   0  0  0  0  0  0  0  0  0  0  0  0
  -26.2570  -12.9870   20.2680 N   0  0  0  0  0  0  0  0  0  0  0  0
  -25.9040  -11.7040   20.5310 N   0  0  0  0  0  0  0  0  0  0  0  0
  -23.8900  -10.4730   21.0260 C   0  0  0  0  0  0  0  0  0  0  0  0
  -24.3150   -9.5120   21.9700 C   0  0  0  0  0  3  0  0  0  0  0  0
  -23.5920   -8.3140   22.1430 C   0  0  0  0  0  3  0  0  0  0  0  0
  -22.4310   -8.0670   21.3740 C   0  0  0  0  0  0  0  0  0  0  0  0
  -22.0260   -9.0160   20.4190 C   0  0  0  0  0  3  0  0  0  0  0  0
  -22.7500  -10.2070   20.2430 C   0  0  0  0  0  3  0  0  0  0  0  0
  -21.6780   -6.9190   21.4580 O   0  0  0  0  0  0  0  0  0  0  0  0
  -21.6100   -6.1850   22.6150 C   0  0  0  0  0  0  0  0  0  0  0  0
  -21.1360   -6.7420   23.8230 C   0  0  0  0  0  3  0  0  0  0  0  0
  -21.0160   -5.9340   24.9720 C   0  0  0  0  0  3  0  0  0  0  0  0
  -21.3630   -4.5710   24.9130 C   0  0  0  0  0  0  0  0  0  0  0  0
  -21.8320   -4.0140   23.7100 C   0  0  0  0  0  3  0  0  0  0  0  0
  -21.9530   -4.8190   22.5650 C   0  0  0  0  0  0  0  0  0  0  0  0
  -22.3830   -4.2730   21.4010 F   0  0  0  0  0  0  0  0  0  0  0  0
  -21.2430   -3.7920   26.0130 F   0  0  0  0  0  0  0  0  0  0  0  0
  -22.7460  -13.5610   21.1390 C   0  0  0  0  0  0  0  0  0  0  0  0
  -22.0150  -12.8540   21.9950 N   0  0  0  0  0  0  0  0  0  0  0  0
  -22.3080  -14.5890   20.6260 O   0  0  0  0  0  0  0  0  0  0  0  0
  -22.3820  -12.0200   22.4300 H   0  0  0  0  0  0  0  0  0  0  0  0
  -21.0760  -13.1500   22.2170 H   0  0  0  0  0  0  0  0  0  0  0  0
  -25.3680  -15.2370   20.3250 N   0  0  0  0  0  0  0  0  0  0  0  0
  -24.5910  -15.8800   20.4370 H   0  0  0  0  0  0  0  0  0  0  0  0
  -26.1960  -15.6830   19.9560 H   0  0  0  0  0  0  0  0  0  0  0  0
  -32.5020  -19.4010   22.2030 N   0  0  0  0  0  0  0  0  0  0  0  0
  -32.8040  -20.3530   22.0160 H   0  0  0  0  0  0  0  0  0  0  0  0
  -33.2490  -18.7690   22.4750 H   0  0  0  0  0  0  0  0  0  0  0  0
  -29.2580  -23.2950   20.0320 C   0  0  0  0  0  3  0  0  0  0  0  0
  -29.0460  -23.3830   18.5030 C   0  0  2  0  0  0  0  0  0  0  0  0
  -30.0260  -22.7720   17.8370 F   0  0  0  0  0  0  0  0  0  0  0  0
  -29.0130  -24.6540   18.0990 F   0  0  0  0  0  0  0  0  0  0  0  0
  -27.8880  -22.8130   18.1650 F   0  0  0  0  0  0  0  0  0  0  0  0
  -28.2740  -24.2300   20.8140 C   0  0  0  0  0  0  0  0  0  0  0  0
  -27.1720  -23.8260   21.2040 O   0  0  0  0  0  0  0  0  0  0  0  0
  -28.7060  -25.6920   21.1680 C   0  0  0  0  0  2  0  0  0  0  0  0
  -28.4630  -26.6810   20.1360 O   0  0  0  0  0  0  0  0  0  0  0  0
  -24.6040  -31.9000   23.2370 C   0  0  0  0  0  0  0  0  0  0  0  0
  -27.3030  -27.4300   20.2130 C   0  0  0  0  0  0  0  0  0  0  0  0
  -23.4280  -30.4940   21.5780 C   0  0  0  0  0  3  0  0  0  0  0  0
  -24.9090  -28.9520   20.1810 C   0  0  0  0  0  0  0  0  0  0  0  0
  -25.9550  -30.8560   21.4150 C   0  0  0  0  0  2  0  0  0  0  0  0
  -26.0570  -29.4750   20.7890 C   0  0  0  0  0  0  0  0  0  0  0  0
  -27.2590  -28.7190   20.8060 C   0  0  0  0  0  3  0  0  0  0  0  0
  -26.1390  -26.9330   19.5950 C   0  0  0  0  0  3  0  0  0  0  0  0
  -24.9450  -27.6820   19.5810 C   0  0  0  0  0  3  0  0  0  0  0  0
  -23.6610  -29.8080   20.2040 C   0  0  0  0  0  2  0  0  0  0  0  0
  -24.6800  -31.0990   22.1360 N   0  0  0  0  0  0  0  0  0  0  0  0
  -23.5140  -32.1710   23.7610 O   0  0  0  0  0  0  0  0  0  0  0  0
  -22.7620  -29.4750   22.5310 C   0  0  0  0  0  0  0  0  0  0  0  0
  -21.4400  -29.2900   22.3810 N   0  0  0  0  0  0  0  0  0  0  0  0
  -23.4320  -28.8490   23.3560 O   0  0  0  0  0  0  0  0  0  0  0  0
  -20.9590  -29.8470   21.6890 H   0  0  0  0  0  0  0  0  0  0  0  0
  -18.0560  -28.1000   22.8420 C   0  0  0  0  0  0  0  0  0  0  0  0
  -20.6130  -28.3480   23.1360 C   0  0  0  0  0  3  0  0  0  0  0  0
  -20.7180  -26.9220   22.5500 C   0  0  0  0  0  2  0  0  0  0  0  0
  -19.6230  -26.6090   21.5240 C   0  0  0  0  0  2  0  0  0  0  0  0
  -18.2350  -26.7540   22.1570 C   0  0  0  0  0  2  0  0  0  0  0  0
  -19.1730  -28.8550   23.2880 C   0  0  0  0  0  0  0  0  0  0  0  0
  -18.9550  -30.1150   23.8850 C   0  0  0  0  0  3  0  0  0  0  0  0
  -17.6500  -30.6210   24.0410 C   0  0  0  0  0  3  0  0  0  0  0  0
  -16.5470  -29.8610   23.6130 C   0  0  0  0  0  3  0  0  0  0  0  0
  -16.7520  -28.6030   23.0220 C   0  0  0  0  0  3  0  0  0  0  0  0
  -25.8780  -32.5350   23.8760 C   0  0  0  0  0  3  0  0  0  0  0  0
  -25.5680  -33.9350   24.1920 N   0  0  0  0  0  0  0  0  0  0  0  0
  -25.9160  -34.9810   23.4300 C   0  0  0  0  0  0  0  0  0  0  0  0
  -26.6030  -34.8670   22.4120 O   0  0  0  0  0  0  0  0  0  0  0  0
  -24.9620  -34.0980   24.9820 H   0  0  0  0  0  0  0  0  0  0  0  0
  -24.2060  -36.7760   23.0180 C   0  0  0  0  0  1  0  0  0  0  0  0
  -25.4210  -36.3710   23.8690 C   0  0  0  0  0  3  0  0  0  0  0  0
  -27.5290  -37.2550   24.7610 C   0  0  0  0  0  1  0  0  0  0  0  0
  -26.4580  -37.4200   23.7810 N   0  0  0  0  0  0  0  0  0  0  0  0
  -26.0520  -38.3430   23.9130 H   0  0  0  0  0  0  0  0  0  0  0  0
  -26.3730  -31.7710   25.1660 C   0  0  1  0  0  0  0  0  0  0  0  0
  -25.2600  -31.5380   26.2150 C   0  0  0  0  0  1  0  0  0  0  0  0
  -26.9650  -30.3920   24.7880 C   0  0  0  0  0  1  0  0  0  0  0  0
  -27.5110  -32.5690   25.8440 C   0  0  0  0  0  1  0  0  0  0  0  0
  1  2  1  0
  1 13  1  0
  2  4  1  0
  3  1  2  0
  5 17  1  0
  6 11  1  0
  7  8  1  0
  7  6  1  0
  9  8  1  0
  9 23  1  0
  9 10  1  0
 11  5  1  0
 11 10  1  0
 12  5  2  0
 13 14  2  0
 14 48  1  0
 15 16  2  0
 16 14  1  0
 17 19  1  0
 17 15  1  0
 18 15  1  0
 18 13  1  0
 20 21  2  0
 21 40  1  0
 22 21  1  0
 22 25  1  0
 23 20  1  0
 23 24  1  0
 24 22  2  0
 25 26  1  0
 26 27  2  0
 28 31  1  0
 28 27  1  0
 29 28  2  0
 30 29  1  0
 30 25  2  0
 31 32  1  0
 32 33  1  0
 33 34  2  0
 35 34  1  0
 35 39  1  0
 36 35  2  0
 37 32  2  0
 37 36  1  0
 38 37  1  0
 40 41  1  0
 41 44  1  0
 41 43  1  0
 42 40  2  0
 45 46  1  0
 45 20  1  0
 47 45  1  0
 48 50  1  0
 49 48  1  0
 51  2  1  0
 51 56  1  0
 52 51  1  0
 52 53  1  6
 54 52  1  0
 55 52  1  0
 56 58  1  0
 56 57  2  0
 59 61  1  0
 59 58  1  0
 60 71  2  0
 61 66  1  0
 62 70  1  0
 62 72  1  0
 63 69  1  0
 63 65  1  0
 64 70  1  0
 65 66  2  0
 65 64  1  0
 67 61  2  0
 68 67  1  0
 68 63  2  0
 69 62  1  0
 70 60  1  0
 72 74  2  0
 73 72  1  0
 75 73  1  0
 76 85  2  0
 76 81  1  0
 77 73  1  0
 77 81  1  0
 78 77  1  0
 79 80  1  0
 79 78  1  0
 80 76  1  0
 81 82  2  0
 82 83  1  0
 84 83  2  0
 85 84  1  0
 86 60  1  0
 86 87  1  0
 86 96  1  0
 87 90  1  0
 88 92  1  0
 88 87  1  0
 89 88  2  0
 92 91  1  0
 94 92  1  0
 94 95  1  0
 94 93  1  0
 96 99  1  1
 96 97  1  0
 98 96  1  0
M  ISO  4   5 100  17 100  58 101  59 101
M  END
>  <TORSDO>  (52) 
F 21

>  <SCORE>  (52) 
-14.055

>  <name>  (52) 
51

>  <ligand_id>  (52) 
51

>  <original_smiles>  (52) 
[H]c1c([H])c([H])c2c(c1[H])C([H])([H])C([H])([H])C([H])([H])C2([H])N([H])C(=O)C1([H])N(C(=O)C([H])(N([H])C(=O)C([H])(N([H])C([H])([H])[H])C([H])([H])[H])C(C([H])([H])[H])(C([H])([H])[H])C([H])([H])[H])C([H])([H])c2c([H])c(OC([H])([H])C(=O)C([H])(N([H])C(=O)c3sc(N([H])C(=O)N4C([H])([H])C([H])([H])C([H])([H])C([H])(n5nc(-c6c([H])c([H])c(Oc7c([H])c([H])c(F)c([H])c7F)c([H])c6[H])c(C(=O)N([H])[H])c5N([H])[H])C4([H])[H])nc3N([H])[H])C(F)(F)F)c([H])c([H])c2C1([H])[H]

>  <smiles>  (52) 
[H]c1c([H])c([H])c2c(c1[H])C([H])([H])C([H])([H])C([H])([H])C2([H])N([H])C(=O)C1([H])N(C(=O)C([H])(N([H])C(=O)C([H])(N([H])C([H])([H])[H])C([H])([H])[H])C(C([H])([H])[H])(C([H])([H])[H])C([H])([H])[H])C([H])([H])c2c([H])c(OC([H])([H])C(=O)C([H])(N([H])C(=O)c3sc(N([H])C(=O)N4C([H])([H])C([H])([H])C([H])([H])C([H])(n5nc(-c6c([H])c([H])c(Oc7c([H])c([H])c(F)c([H])c7F)c([H])c6[H])c(C(=O)N([H])[H])c5N([H])[H])C4([H])[H])nc3N([H])[H])C(F)(F)F)c([H])c([H])c2C1([H])[H]

$$$$
52:0:0
     RDKit          3D

 94102  0  0  1  0  0  0  0  0999 V2000
  -30.2040  -19.7810   21.9590 C   0  0  0  0  0  3  0  0  0  0  0  0
  -30.5840  -18.5660   22.5630 C   0  0  0  0  0  0  0  0  0  0  0  0
  -30.6860  -17.3950   21.7830 C   0  0  0  0  0  0  0  0  0  0  0  0
  -29.9470  -19.8620   20.5740 C   0  0  0  0  0  0  0  0  0  0  0  0
  -30.4220  -17.4380   20.3960 C   0  0  0  0  0  0  0  0  0  0  0  0
  -28.9690  -22.2890   20.6010 C   0  0  0  0  0  0  0  0  0  0  0  0
  -30.8510  -18.5250   24.0560 C   0  0  0  0  0  1  0  0  0  0  0  0
  -30.0650  -18.6760   19.8270 N   0  0  0  0  0  0  0  0  0  0  0  0
  -29.7240  -21.2450   20.0650 N   0  0  0  0  0  0  0  0  0  0  0  0
  -27.9890  -22.0330   21.3080 O   0  0  0  0  0  0  0  0  0  0  0  0
  -30.9800  -16.2140   22.3840 F   0  0  0  0  0  0  0  0  0  0  0  0
  -30.3490  -21.5100   19.3170 H   0  0  0  0  0  0  0  0  0  0  0  0
  -31.1330  -14.9680   19.7740 C   0  0  0  0  0  0  0  0  0  0  0  0
  -30.8500  -12.6900   18.7480 C   0  0  0  0  0  2  0  0  0  0  0  0
  -29.8250  -12.7620   17.5950 C   0  0  0  0  0  2  0  0  0  0  0  0
  -28.3850  -12.6180   18.1260 C   0  0  0  0  0  2  0  0  0  0  0  0
  -28.1110  -13.5150   19.3620 C   0  0  0  0  0  3  0  0  0  0  0  0
  -29.2430  -13.4070   20.4070 C   0  0  0  0  0  2  0  0  0  0  0  0
  -30.4910  -13.7490   19.7150 N   0  0  0  0  0  0  0  0  0  0  0  0
  -32.3300  -15.0410   19.4780 O   0  0  0  0  0  0  0  0  0  0  0  0
  -30.3200  -16.0980   19.7700 N   0  0  0  0  0  0  0  0  0  0  0  0
  -29.3590  -15.8310   19.6440 H   0  0  0  0  0  0  0  0  0  0  0  0
  -25.8020  -14.1720   20.2650 C   0  0  0  0  0  0  0  0  0  0  0  0
  -24.7410  -13.4240   20.6940 C   0  0  0  0  0  0  0  0  0  0  0  0
  -25.1570  -12.0590   20.6060 C   0  0  0  0  0  0  0  0  0  0  0  0
  -26.7980  -13.2630   19.9430 N   0  0  0  0  0  0  0  0  0  0  0  0
  -26.4220  -11.9880   20.2120 N   0  0  0  0  0  0  0  0  0  0  0  0
  -24.4040  -10.8160   20.8160 C   0  0  0  0  0  0  0  0  0  0  0  0
  -24.8150   -9.8560   21.7660 C   0  0  0  0  0  3  0  0  0  0  0  0
  -24.0600   -8.6800   21.9670 C   0  0  0  0  0  3  0  0  0  0  0  0
  -22.8830   -8.4560   21.2170 C   0  0  0  0  0  0  0  0  0  0  0  0
  -22.4930   -9.4030   20.2530 C   0  0  0  0  0  3  0  0  0  0  0  0
  -23.2470  -10.5710   20.0510 C   0  0  0  0  0  3  0  0  0  0  0  0
  -22.1040   -7.3300   21.3230 O   0  0  0  0  0  0  0  0  0  0  0  0
  -21.9640   -6.6600   22.5120 C   0  0  0  0  0  0  0  0  0  0  0  0
  -21.4560   -7.2930   23.6690 C   0  0  0  0  0  3  0  0  0  0  0  0
  -21.2640   -6.5480   24.8510 C   0  0  0  0  0  3  0  0  0  0  0  0
  -21.5730   -5.1750   24.8760 C   0  0  0  0  0  0  0  0  0  0  0  0
  -22.0730   -4.5440   23.7250 C   0  0  0  0  0  3  0  0  0  0  0  0
  -22.2650   -5.2830   22.5460 C   0  0  0  0  0  0  0  0  0  0  0  0
  -22.7270   -4.6650   21.4320 F   0  0  0  0  0  0  0  0  0  0  0  0
  -21.3800   -4.4590   26.0080 F   0  0  0  0  0  0  0  0  0  0  0  0
  -23.3800  -13.9380   21.0630 C   0  0  0  0  0  0  0  0  0  0  0  0
  -22.6940  -13.2510   21.9690 N   0  0  0  0  0  0  0  0  0  0  0  0
  -22.9390  -14.9840   20.5840 O   0  0  0  0  0  0  0  0  0  0  0  0
  -23.0700  -12.4040   22.3690 H   0  0  0  0  0  0  0  0  0  0  0  0
  -21.7840  -13.5740   22.2640 H   0  0  0  0  0  0  0  0  0  0  0  0
  -25.9940  -15.5400   20.0970 N   0  0  0  0  0  0  0  0  0  0  0  0
  -25.2390  -16.1970   20.2520 H   0  0  0  0  0  0  0  0  0  0  0  0
  -26.7880  -15.9630   19.6360 H   0  0  0  0  0  0  0  0  0  0  0  0
  -29.2960  -23.8530   20.3740 C   0  0  0  0  0  2  0  0  0  0  0  0
  -27.8820  -24.6790   18.4100 C   0  0  0  0  0  1  0  0  0  0  0  0
  -28.1600  -24.9220   19.9080 C   0  0  0  0  0  3  0  0  0  0  0  0
  -28.3450  -26.4190   20.0980 O   0  0  0  0  0  0  0  0  0  0  0  0
  -24.6510  -31.8580   23.2500 C   0  0  0  0  0  0  0  0  0  0  0  0
  -27.2260  -27.2980   20.0920 C   0  0  0  0  0  0  0  0  0  0  0  0
  -23.4200  -30.4470   21.6460 C   0  0  0  0  0  3  0  0  0  0  0  0
  -24.8510  -28.9320   20.1640 C   0  0  0  0  0  0  0  0  0  0  0  0
  -25.9540  -30.7950   21.3820 C   0  0  0  0  0  2  0  0  0  0  0  0
  -26.0360  -29.4160   20.7240 C   0  0  0  0  0  0  0  0  0  0  0  0
  -27.2280  -28.6150   20.6730 C   0  0  0  0  0  3  0  0  0  0  0  0
  -25.9980  -26.8840   19.5210 C   0  0  0  0  0  3  0  0  0  0  0  0
  -24.8360  -27.6730   19.5510 C   0  0  0  0  0  3  0  0  0  0  0  0
  -23.6060  -29.7940   20.2540 C   0  0  0  0  0  2  0  0  0  0  0  0
  -24.6980  -31.0510   22.1490 N   0  0  0  0  0  0  0  0  0  0  0  0
  -23.5800  -32.1110   23.8210 O   0  0  0  0  0  0  0  0  0  0  0  0
  -22.8100  -29.4080   22.6190 C   0  0  0  0  0  0  0  0  0  0  0  0
  -21.5040  -29.1240   22.4660 N   0  0  0  0  0  0  0  0  0  0  0  0
  -23.5110  -28.8620   23.4750 O   0  0  0  0  0  0  0  0  0  0  0  0
  -20.9920  -29.6220   21.7510 H   0  0  0  0  0  0  0  0  0  0  0  0
  -18.2480  -27.5920   22.8360 C   0  0  0  0  0  0  0  0  0  0  0  0
  -20.7370  -28.1530   23.2500 C   0  0  0  0  0  3  0  0  0  0  0  0
  -21.0350  -26.7070   22.7860 C   0  0  0  0  0  2  0  0  0  0  0  0
  -20.0490  -26.1980   21.7290 C   0  0  0  0  0  2  0  0  0  0  0  0
  -18.6170  -26.2300   22.2700 C   0  0  0  0  0  2  0  0  0  0  0  0
  -19.2440  -28.5000   23.2830 C   0  0  0  0  0  0  0  0  0  0  0  0
  -18.8480  -29.7650   23.7690 C   0  0  0  0  0  3  0  0  0  0  0  0
  -17.4890  -30.1270   23.8100 C   0  0  0  0  0  3  0  0  0  0  0  0
  -16.5060  -29.2190   23.3820 C   0  0  0  0  0  3  0  0  0  0  0  0
  -16.8850  -27.9530   22.9020 C   0  0  0  0  0  3  0  0  0  0  0  0
  -25.9380  -32.5180   23.8320 C   0  0  0  0  0  3  0  0  0  0  0  0
  -25.6180  -33.9160   24.1610 N   0  0  0  0  0  0  0  0  0  0  0  0
  -25.9480  -34.9690   23.4040 C   0  0  0  0  0  0  0  0  0  0  0  0
  -26.6230  -34.8690   22.3750 O   0  0  0  0  0  0  0  0  0  0  0  0
  -25.0300  -34.0700   24.9670 H   0  0  0  0  0  0  0  0  0  0  0  0
  -24.2160  -36.7530   23.0340 C   0  0  0  0  0  1  0  0  0  0  0  0
  -25.4490  -36.3540   23.8590 C   0  0  0  0  0  3  0  0  0  0  0  0
  -27.5700  -37.2450   24.7170 C   0  0  0  0  0  1  0  0  0  0  0  0
  -26.4780  -37.4130   23.7610 N   0  0  0  0  0  0  0  0  0  0  0  0
  -26.0660  -38.3300   23.9120 H   0  0  0  0  0  0  0  0  0  0  0  0
  -26.4990  -31.7680   25.1020 C   0  0  1  0  0  0  0  0  0  0  0  0
  -25.4310  -31.4960   26.1860 C   0  0  0  0  0  1  0  0  0  0  0  0
  -27.1150  -30.4100   24.6980 C   0  0  0  0  0  1  0  0  0  0  0  0
  -27.6380  -32.5940   25.7430 C   0  0  0  0  0  1  0  0  0  0  0  0
  1  2  1  0
  2  7  1  0
  3 11  1  0
  3  2  2  0
  4  1  2  0
  5  3  1  0
  6 10  2  0
  8  5  2  0
  8  4  1  0
  9  4  1  0
  9  6  1  0
 12  9  1  0
 14 19  1  0
 15 16  1  0
 15 14  1  0
 17 16  1  0
 17 26  1  0
 17 18  1  0
 19 13  1  0
 19 18  1  0
 20 13  2  0
 21 13  1  0
 21  5  1  0
 22 21  1  0
 23 24  2  0
 24 43  1  0
 25 24  1  0
 25 28  1  0
 26 27  1  0
 26 23  1  0
 27 25  2  0
 28 29  1  0
 29 30  2  0
 31 34  1  0
 31 30  1  0
 32 31  2  0
 33 32  1  0
 33 28  2  0
 34 35  1  0
 35 40  2  0
 35 36  1  0
 36 37  2  0
 37 38  1  0
 38 42  1  0
 39 38  2  0
 40 39  1  0
 41 40  1  0
 43 44  1  0
 44 47  1  0
 44 46  1  0
 45 43  2  0
 48 49  1  0
 48 23  1  0
 50 48  1  0
 51  6  1  0
 53 52  1  0
 53 54  1  0
 53 51  1  0
 55 66  2  0
 56 54  1  0
 56 61  1  0
 57 65  1  0
 57 67  1  0
 58 64  1  0
 58 60  1  0
 59 65  1  0
 60 59  1  0
 61 60  2  0
 62 63  1  0
 62 56  2  0
 63 58  2  0
 64 57  1  0
 65 55  1  0
 67 69  2  0
 68 67  1  0
 70 68  1  0
 71 80  2  0
 71 76  1  0
 72 68  1  0
 72 76  1  0
 73 72  1  0
 74 75  1  0
 74 73  1  0
 75 71  1  0
 76 77  2  0
 77 78  1  0
 79 78  2  0
 80 79  1  0
 81 55  1  0
 81 82  1  0
 81 91  1  0
 82 85  1  0
 83 87  1  0
 83 82  1  0
 84 83  2  0
 87 86  1  0
 89 87  1  0
 89 90  1  0
 89 88  1  0
 91 94  1  1
 91 92  1  0
 93 91  1  0
M  ISO  4  13 100  21 100  53 101  54 101
M  END
>  <TORSDO>  (53) 
F 18

>  <SCORE>  (53) 
-12.952

>  <name>  (53) 
52

>  <ligand_id>  (53) 
52

>  <original_smiles>  (53) 
[H]c1c([H])c([H])c2c(c1[H])C([H])([H])C([H])([H])C([H])([H])C2([H])N([H])C(=O)C1([H])N(C(=O)C([H])(N([H])C(=O)C([H])(N([H])C([H])([H])[H])C([H])([H])[H])C(C([H])([H])[H])(C([H])([H])[H])C([H])([H])[H])C([H])([H])c2c([H])c(OC([H])(C([H])([H])[H])C([H])([H])C(=O)N([H])c3nc(N([H])C(=O)N4C([H])([H])C([H])([H])C([H])([H])C([H])(n5nc(-c6c([H])c([H])c(Oc7c([H])c([H])c(F)c([H])c7F)c([H])c6[H])c(C(=O)N([H])[H])c5N([H])[H])C4([H])[H])c(F)c(C([H])([H])[H])c3[H])c([H])c([H])c2C1([H])[H]

>  <smiles>  (53) 
[H]c1c([H])c([H])c2c(c1[H])C([H])([H])C([H])([H])C([H])([H])C2([H])N([H])C(=O)C1([H])N(C(=O)C([H])(N([H])C(=O)C([H])(N([H])C([H])([H])[H])C([H])([H])[H])C(C([H])([H])[H])(C([H])([H])[H])C([H])([H])[H])C([H])([H])c2c([H])c(OC([H])(C([H])([H])[H])C([H])([H])C(=O)N([H])c3nc(N([H])C(=O)N4C([H])([H])C([H])([H])C([H])([H])C([H])(n5nc(-c6c([H])c([H])c(Oc7c([H])c([H])c(F)c([H])c7F)c([H])c6[H])c(C(=O)N([H])[H])c5N([H])[H])C4([H])[H])c(F)c(C([H])([H])[H])c3[H])c([H])c([H])c2C1([H])[H]

$$$$
53:0:0
     RDKit          3D

100108  0  0  1  0  0  0  0  0999 V2000
  -30.8400  -13.8040   20.0360 C   0  0  0  0  0  0  0  0  0  0  0  0
  -30.7710  -11.3640   19.6220 C   0  0  0  0  0  2  0  0  0  0  0  0
  -30.0200  -11.0970   18.3010 C   0  0  0  0  0  2  0  0  0  0  0  0
  -28.4970  -11.0250   18.5290 C   0  0  0  0  0  2  0  0  0  0  0  0
  -27.9640  -12.2090   19.3770 C   0  0  0  0  0  3  0  0  0  0  0  0
  -28.8300  -12.4010   20.6410 C   0  0  0  0  0  2  0  0  0  0  0  0
  -30.2300  -12.5980   20.2140 N   0  0  0  0  0  0  0  0  0  0  0  0
  -31.9880  -13.9170   19.5860 O   0  0  0  0  0  0  0  0  0  0  0  0
  -30.3410  -17.8260   18.2450 C   0  0  0  0  0  3  0  0  0  0  0  0
  -29.3180  -18.6670   18.7340 C   0  0  0  0  0  0  0  0  0  0  0  0
  -28.8900  -16.9340   20.4050 C   0  0  0  0  0  0  0  0  0  0  0  0
  -28.6010  -18.2060   19.8520 C   0  0  0  0  0  0  0  0  0  0  0  0
  -29.9250  -16.1520   19.8380 C   0  0  0  0  0  0  0  0  0  0  0  0
  -30.6340  -16.6130   18.7800 N   0  0  0  0  0  0  0  0  0  0  0  0
  -30.0840  -14.8510   20.4100 N   0  0  0  0  0  0  0  0  0  0  0  0
  -27.6420  -19.0010   20.3920 F   0  0  0  0  0  0  0  0  0  0  0  0
  -29.2960  -14.5640   20.9630 H   0  0  0  0  0  0  0  0  0  0  0  0
  -25.5060  -12.9380   19.6140 C   0  0  0  0  0  0  0  0  0  0  0  0
  -24.3800  -12.2550   19.9860 C   0  0  0  0  0  0  0  0  0  0  0  0
  -24.8080  -10.9260   20.2850 C   0  0  0  0  0  0  0  0  0  0  0  0
  -26.5510  -12.0330   19.7100 N   0  0  0  0  0  0  0  0  0  0  0  0
  -26.1260  -10.8280   20.1680 N   0  0  0  0  0  0  0  0  0  0  0  0
  -24.0330   -9.7250   20.6230 C   0  0  0  0  0  0  0  0  0  0  0  0
  -24.4550   -8.8350   21.6360 C   0  0  0  0  0  3  0  0  0  0  0  0
  -23.6830   -7.6970   21.9540 C   0  0  0  0  0  3  0  0  0  0  0  0
  -22.4770   -7.4400   21.2600 C   0  0  0  0  0  0  0  0  0  0  0  0
  -22.0750   -8.3160   20.2360 C   0  0  0  0  0  3  0  0  0  0  0  0
  -22.8460   -9.4460   19.9170 C   0  0  0  0  0  3  0  0  0  0  0  0
  -21.6770   -6.3460   21.4840 O   0  0  0  0  0  0  0  0  0  0  0  0
  -21.6570   -5.7050   22.6960 C   0  0  0  0  0  0  0  0  0  0  0  0
  -21.2850   -6.3700   23.8840 C   0  0  0  0  0  3  0  0  0  0  0  0
  -21.2090   -5.6560   25.0980 C   0  0  0  0  0  3  0  0  0  0  0  0
  -21.4980   -4.2780   25.1220 C   0  0  0  0  0  0  0  0  0  0  0  0
  -21.8650   -3.6130   23.9380 C   0  0  0  0  0  3  0  0  0  0  0  0
  -21.9400   -4.3250   22.7290 C   0  0  0  0  0  0  0  0  0  0  0  0
  -22.2730   -3.6740   21.5880 F   0  0  0  0  0  0  0  0  0  0  0  0
  -21.4190   -3.5890   26.2850 F   0  0  0  0  0  0  0  0  0  0  0  0
  -22.9710  -12.7740   19.9750 C   0  0  0  0  0  0  0  0  0  0  0  0
  -22.1570  -12.3540   20.9370 N   0  0  0  0  0  0  0  0  0  0  0  0
  -22.5980  -13.5940   19.1370 O   0  0  0  0  0  0  0  0  0  0  0  0
  -22.4710  -11.6950   21.6350 H   0  0  0  0  0  0  0  0  0  0  0  0
  -21.2070  -12.6950   20.9760 H   0  0  0  0  0  0  0  0  0  0  0  0
  -25.7240  -14.2420   19.1840 N   0  0  0  0  0  0  0  0  0  0  0  0
  -24.9810  -14.9320   19.1680 H   0  0  0  0  0  0  0  0  0  0  0  0
  -26.6320  -14.6440   18.9910 H   0  0  0  0  0  0  0  0  0  0  0  0
  -26.9880  -15.8050   21.4710 C   0  0  0  0  0  0  0  0  0  0  0  0
  -28.1650  -16.4400   21.5270 N   0  0  0  0  0  0  0  0  0  0  0  0
  -26.3510  -15.6610   20.4260 O   0  0  0  0  0  0  0  0  0  0  0  0
  -28.6230  -16.4760   22.4270 H   0  0  0  0  0  0  0  0  0  0  0  0
  -25.5550  -14.4640   22.9030 C   0  0  0  0  0  2  0  0  0  0  0  0
  -26.5880  -15.3140   22.7760 C   0  0  0  0  0  3  0  0  0  0  0  0
  -29.5540  -20.6960   17.2510 C   0  0  0  0  0  0  0  0  0  0  0  0
  -28.9200  -19.9160   18.1490 N   0  0  0  0  0  0  0  0  0  0  0  0
  -30.6940  -20.4870   16.8260 O   0  0  0  0  0  0  0  0  0  0  0  0
  -28.0270  -20.2840   18.4570 H   0  0  0  0  0  0  0  0  0  0  0  0
  -28.6910  -21.9280   16.8100 C   0  0  0  0  0  0  0  0  0  0  0  0
  -27.4890  -21.8060   16.5420 O   0  0  0  0  0  0  0  0  0  0  0  0
  -29.3930  -23.3030   16.7510 C   0  0  0  0  0  2  0  0  0  0  0  0
  -28.7400  -24.4580   17.5660 C   0  0  0  0  0  2  0  0  0  0  0  0
  -28.2810  -25.5470   16.7520 O   0  0  0  0  0  0  0  0  0  0  0  0
  -25.5620  -28.2990   22.7600 C   0  0  0  0  0  0  0  0  0  0  0  0
  -27.3150  -26.3210   17.3550 C   0  0  0  0  0  0  0  0  0  0  0  0
  -24.1300  -28.4320   20.7470 C   0  0  0  0  0  3  0  0  0  0  0  0
  -25.2730  -27.8770   18.5330 C   0  0  0  0  0  0  0  0  0  0  0  0
  -26.6790  -28.4020   20.5340 C   0  0  0  0  0  2  0  0  0  0  0  0
  -26.5010  -27.7210   19.1900 C   0  0  0  0  0  0  0  0  0  0  0  0
  -27.5280  -26.9450   18.6060 C   0  0  0  0  0  3  0  0  0  0  0  0
  -26.0800  -26.4920   16.7010 C   0  0  0  0  0  3  0  0  0  0  0  0
  -25.0560  -27.2620   17.2870 C   0  0  0  0  0  3  0  0  0  0  0  0
  -24.2250  -28.7210   19.2240 C   0  0  0  0  0  2  0  0  0  0  0  0
  -25.4770  -28.3500   21.3990 N   0  0  0  0  0  0  0  0  0  0  0  0
  -24.5480  -28.3590   23.4680 O   0  0  0  0  0  0  0  0  0  0  0  0
  -23.2700  -27.1650   20.9580 C   0  0  0  0  0  0  0  0  0  0  0  0
  -21.9480  -27.2990   20.7620 N   0  0  0  0  0  0  0  0  0  0  0  0
  -23.7930  -26.0910   21.2660 O   0  0  0  0  0  0  0  0  0  0  0  0
  -21.5960  -28.2150   20.5210 H   0  0  0  0  0  0  0  0  0  0  0  0
  -18.4410  -26.5400   20.3260 C   0  0  0  0  0  0  0  0  0  0  0  0
  -20.9520  -26.2330   20.8640 C   0  0  0  0  0  3  0  0  0  0  0  0
  -20.9980  -25.3050   19.6290 C   0  0  0  0  0  2  0  0  0  0  0  0
  -20.0190  -25.7190   18.5250 C   0  0  0  0  0  2  0  0  0  0  0  0
  -18.5820  -25.7190   19.0550 C   0  0  0  0  0  2  0  0  0  0  0  0
  -19.5570  -26.7940   21.1680 C   0  0  0  0  0  0  0  0  0  0  0  0
  -19.3780  -27.5920   22.3190 C   0  0  0  0  0  3  0  0  0  0  0  0
  -18.1160  -28.1260   22.6360 C   0  0  0  0  0  3  0  0  0  0  0  0
  -17.0120  -27.8590   21.8080 C   0  0  0  0  0  3  0  0  0  0  0  0
  -17.1750  -27.0650   20.6590 C   0  0  0  0  0  3  0  0  0  0  0  0
  -26.9370  -28.1880   23.4890 C   0  0  0  0  0  3  0  0  0  0  0  0
  -26.8830  -29.0580   24.6710 N   0  0  0  0  0  0  0  0  0  0  0  0
  -27.5300  -30.2250   24.7850 C   0  0  0  0  0  0  0  0  0  0  0  0
  -28.3000  -30.6520   23.9190 O   0  0  0  0  0  0  0  0  0  0  0  0
  -26.2280  -28.7980   25.3930 H   0  0  0  0  0  0  0  0  0  0  0  0
  -26.3470  -32.2280   25.7430 C   0  0  0  0  0  1  0  0  0  0  0  0
  -27.2830  -31.0520   26.0620 C   0  0  0  0  0  3  0  0  0  0  0  0
  -29.3500  -30.5050   27.2690 C   0  0  0  0  0  1  0  0  0  0  0  0
  -28.5260  -31.5590   26.6820 N   0  0  0  0  0  0  0  0  0  0  0  0
  -28.3150  -32.2360   27.4090 H   0  0  0  0  0  0  0  0  0  0  0  0
  -27.3060  -26.7090   23.9000 C   0  0  1  0  0  0  0  0  0  0  0  0
  -26.1970  -25.9910   24.7030 C   0  0  0  0  0  1  0  0  0  0  0  0
  -27.6130  -25.8550   22.6480 C   0  0  0  0  0  1  0  0  0  0  0  0
  -28.5930  -26.7110   24.7600 C   0  0  0  0  0  1  0  0  0  0  0  0
  1  7  1  0
  1 15  1  0
  2  7  1  0
  3  4  1  0
  3  2  1  0
  5  4  1  0
  5 21  1  0
  5  6  1  0
  7  6  1  0
  8  1  2  0
  9 10  2  0
  9 14  1  0
 10 12  1  0
 11 47  1  0
 12 16  1  0
 12 11  2  0
 13 11  1  0
 13 15  1  0
 14 13  2  0
 15 17  1  0
 18 21  1  0
 18 19  2  0
 19 20  1  0
 20 23  1  0
 21 22  1  0
 22 20  2  0
 23 24  1  0
 24 25  2  0
 26 29  1  0
 26 25  1  0
 27 26  2  0
 28 27  1  0
 28 23  2  0
 29 30  1  0
 30 35  2  0
 30 31  1  0
 31 32  2  0
 32 33  1  0
 33 37  1  0
 34 33  2  0
 35 34  1  0
 36 35  1  0
 38 19  1  0
 38 39  1  0
 39 42  1  0
 39 41  1  0
 40 38  2  0
 43 18  1  0
 44 43  1  0
 45 43  1  0
 46 47  1  0
 46 51  1  0
 47 49  1  0
 48 46  2  0
 51 50  2  0
 52 53  1  0
 53 55  1  0
 53 10  1  0
 54 52  2  0
 56 52  1  0
 57 56  2  0
 58 56  1  0
 58 59  1  0
 60 62  1  0
 60 59  1  0
 61 72  2  0
 62 67  1  0
 63 73  1  0
 63 71  1  0
 64 66  1  0
 64 70  1  0
 65 71  1  0
 66 65  1  0
 67 66  2  0
 68 69  1  0
 68 62  2  0
 69 64  2  0
 70 63  1  0
 71 61  1  0
 73 75  2  0
 74 73  1  0
 76 74  1  0
 77 86  2  0
 77 82  1  0
 78 74  1  0
 78 82  1  0
 79 78  1  0
 80 81  1  0
 80 79  1  0
 81 77  1  0
 82 83  2  0
 83 84  1  0
 85 84  2  0
 86 85  1  0
 87 61  1  0
 87 97  1  0
 87 88  1  0
 88 89  1  0
 88 91  1  0
 89 93  1  0
 90 89  2  0
 93 92  1  0
 93 95  1  0
 95 94  1  0
 95 96  1  0
 97 98  1  1
 97100  1  0
 99 97  1  0
M  ISO  4   1 100  15 100  59 101  60 101
M  END
>  <TORSDO>  (54) 
F 21

>  <SCORE>  (54) 
1.296

>  <name>  (54) 
53

>  <ligand_id>  (54) 
53

>  <original_smiles>  (54) 
[H]C([H])=C([H])C(=O)N([H])c1c(N([H])C(=O)N2C([H])([H])C([H])([H])C([H])([H])C([H])(n3nc(-c4c([H])c([H])c(Oc5c([H])c([H])c(F)c([H])c5F)c([H])c4[H])c(C(=O)N([H])[H])c3N([H])[H])C2([H])[H])nc([H])c(N([H])C(=O)C(=O)C([H])([H])C([H])([H])Oc2c([H])c([H])c3c(c2[H])C([H])([H])N(C(=O)C([H])(N([H])C(=O)C([H])(N([H])C([H])([H])[H])C([H])([H])[H])C(C([H])([H])[H])(C([H])([H])[H])C([H])([H])[H])C([H])(C(=O)N([H])C2([H])c4c([H])c([H])c([H])c([H])c4C([H])([H])C([H])([H])C2([H])[H])C3([H])[H])c1F

>  <smiles>  (54) 
[H]C([H])=C([H])C(=O)N([H])c1c(N([H])C(=O)N2C([H])([H])C([H])([H])C([H])([H])C([H])(n3nc(-c4c([H])c([H])c(Oc5c([H])c([H])c(F)c([H])c5F)c([H])c4[H])c(C(=O)N([H])[H])c3N([H])[H])C2([H])[H])nc([H])c(N([H])C(=O)C(=O)C([H])([H])C([H])([H])Oc2c([H])c([H])c3c(c2[H])C([H])([H])N(C(=O)C([H])(N([H])C(=O)C([H])(N([H])C([H])([H])[H])C([H])([H])[H])C(C([H])([H])[H])(C([H])([H])[H])C([H])([H])[H])C([H])(C(=O)N([H])C2([H])c4c([H])c([H])c([H])c([H])c4C([H])([H])C([H])([H])C2([H])[H])C3([H])[H])c1F

$$$$
54:0:0
     RDKit          3D

 93101  0  0  1  0  0  0  0  0999 V2000
  -28.9310  -22.7350   20.2000 C   0  0  0  0  0  0  0  0  0  0  0  0
  -29.3460  -21.4940   19.6650 N   0  0  0  0  0  0  0  0  0  0  0  0
  -28.6620  -22.8480   21.3960 O   0  0  0  0  0  0  0  0  0  0  0  0
  -29.5640  -21.6220   18.6830 H   0  0  0  0  0  0  0  0  0  0  0  0
  -30.6180  -14.9110   19.9560 C   0  0  0  0  0  0  0  0  0  0  0  0
  -30.4280  -12.6110   18.9290 C   0  0  0  0  0  2  0  0  0  0  0  0
  -29.4010  -12.6610   17.7730 C   0  0  0  0  0  2  0  0  0  0  0  0
  -27.9660  -12.4600   18.2990 C   0  0  0  0  0  2  0  0  0  0  0  0
  -27.6680  -13.3290   19.5480 C   0  0  0  0  0  3  0  0  0  0  0  0
  -28.8020  -13.2340   20.5930 C   0  0  0  0  0  2  0  0  0  0  0  0
  -30.0470  -13.6460   19.9260 N   0  0  0  0  0  0  0  0  0  0  0  0
  -31.7550  -15.0580   19.4910 O   0  0  0  0  0  0  0  0  0  0  0  0
  -29.2070  -19.5790   21.3570 C   0  0  0  0  0  3  0  0  0  0  0  0
  -29.4910  -20.1480   20.1240 C   0  0  0  0  0  0  0  0  0  0  0  0
  -29.8330  -17.4880   20.4070 C   0  0  0  0  0  0  0  0  0  0  0  0
  -29.3630  -18.1560   21.4820 N   0  0  0  0  0  0  0  0  0  0  0  0
  -29.8260  -15.9770   20.4090 N   0  0  0  0  0  0  0  0  0  0  0  0
  -30.0750  -18.7440   19.1070 S   0  0  0  0  0  0  0  0  0  0  0  0
  -29.0150  -15.6150   20.8830 H   0  0  0  0  0  0  0  0  0  0  0  0
  -25.3470  -13.9100   20.4680 C   0  0  0  0  0  0  0  0  0  0  0  0
  -24.3010  -13.1330   20.8870 C   0  0  0  0  0  0  0  0  0  0  0  0
  -24.7470  -11.7790   20.7750 C   0  0  0  0  0  0  0  0  0  0  0  0
  -26.3610  -13.0310   20.1240 N   0  0  0  0  0  0  0  0  0  0  0  0
  -26.0120  -11.7420   20.3710 N   0  0  0  0  0  0  0  0  0  0  0  0
  -24.0220  -10.5170   20.9720 C   0  0  0  0  0  0  0  0  0  0  0  0
  -24.4770   -9.5380   21.8820 C   0  0  0  0  0  3  0  0  0  0  0  0
  -23.7520   -8.3410   22.0690 C   0  0  0  0  0  3  0  0  0  0  0  0
  -22.5570   -8.1160   21.3460 C   0  0  0  0  0  0  0  0  0  0  0  0
  -22.1190   -9.0840   20.4260 C   0  0  0  0  0  3  0  0  0  0  0  0
  -22.8450  -10.2720   20.2360 C   0  0  0  0  0  3  0  0  0  0  0  0
  -21.8000   -6.9730   21.4450 O   0  0  0  0  0  0  0  0  0  0  0  0
  -21.7410   -6.2470   22.6070 C   0  0  0  0  0  0  0  0  0  0  0  0
  -21.2920   -6.8150   23.8200 C   0  0  0  0  0  3  0  0  0  0  0  0
  -21.1820   -6.0130   24.9740 C   0  0  0  0  0  3  0  0  0  0  0  0
  -21.5090   -4.6460   24.9160 C   0  0  0  0  0  0  0  0  0  0  0  0
  -21.9510   -4.0770   23.7090 C   0  0  0  0  0  3  0  0  0  0  0  0
  -22.0630   -4.8760   22.5560 C   0  0  0  0  0  0  0  0  0  0  0  0
  -22.4690   -4.3180   21.3900 F   0  0  0  0  0  0  0  0  0  0  0  0
  -21.3960   -3.8740   26.0220 F   0  0  0  0  0  0  0  0  0  0  0  0
  -22.9320  -13.6120   21.2750 C   0  0  0  0  0  0  0  0  0  0  0  0
  -22.2620  -12.8930   22.1690 N   0  0  0  0  0  0  0  0  0  0  0  0
  -22.4700  -14.6580   20.8220 O   0  0  0  0  0  0  0  0  0  0  0  0
  -22.6500  -12.0470   22.5560 H   0  0  0  0  0  0  0  0  0  0  0  0
  -21.3460  -13.1960   22.4700 H   0  0  0  0  0  0  0  0  0  0  0  0
  -25.5120  -15.2850   20.3270 N   0  0  0  0  0  0  0  0  0  0  0  0
  -24.7580  -15.9370   20.5160 H   0  0  0  0  0  0  0  0  0  0  0  0
  -26.3290  -15.7310   19.9320 H   0  0  0  0  0  0  0  0  0  0  0  0
  -28.8510  -23.8850   19.1870 C   0  0  0  0  0  0  0  0  0  0  0  0
  -28.5580  -25.2820   19.2210 C   0  0  0  0  0  0  0  0  0  0  0  0
  -28.6560  -26.0530   17.8970 C   0  0  0  0  0  1  0  0  0  0  0  0
  -29.1290  -23.4370   17.9490 O   0  0  0  0  0  0  0  0  0  0  0  0
  -29.0610  -24.1850   17.3700 H   0  0  0  0  0  0  0  0  0  0  0  0
  -28.2350  -26.2430   20.2430 O   0  0  0  0  0  0  0  0  0  0  0  0
  -24.5980  -31.8740   23.1930 C   0  0  0  0  0  0  0  0  0  0  0  0
  -27.1810  -27.2120   20.1360 C   0  0  0  0  0  0  0  0  0  0  0  0
  -23.3870  -30.4670   21.5690 C   0  0  0  0  0  3  0  0  0  0  0  0
  -24.8290  -28.9010   20.1320 C   0  0  0  0  0  0  0  0  0  0  0  0
  -25.9330  -30.7570   21.3750 C   0  0  0  0  0  2  0  0  0  0  0  0
  -26.0090  -29.3690   20.7260 C   0  0  0  0  0  0  0  0  0  0  0  0
  -27.1830  -28.5350   20.7210 C   0  0  0  0  0  3  0  0  0  0  0  0
  -25.9700  -26.8260   19.5200 C   0  0  0  0  0  3  0  0  0  0  0  0
  -24.8190  -27.6400   19.5160 C   0  0  0  0  0  3  0  0  0  0  0  0
  -23.5950  -29.7860   20.1900 C   0  0  0  0  0  2  0  0  0  0  0  0
  -24.6590  -31.0530   22.1010 N   0  0  0  0  0  0  0  0  0  0  0  0
  -23.5170  -32.1550   23.7320 O   0  0  0  0  0  0  0  0  0  0  0  0
  -22.7230  -29.4600   22.5400 C   0  0  0  0  0  0  0  0  0  0  0  0
  -21.3950  -29.2820   22.4250 N   0  0  0  0  0  0  0  0  0  0  0  0
  -23.4050  -28.8400   23.3610 O   0  0  0  0  0  0  0  0  0  0  0  0
  -20.9020  -29.8350   21.7360 H   0  0  0  0  0  0  0  0  0  0  0  0
  -18.0240  -28.0670   22.9490 C   0  0  0  0  0  0  0  0  0  0  0  0
  -20.5820  -28.3470   23.2070 C   0  0  0  0  0  3  0  0  0  0  0  0
  -20.6920  -26.9110   22.6450 C   0  0  0  0  0  2  0  0  0  0  0  0
  -19.5880  -26.5720   21.6360 C   0  0  0  0  0  2  0  0  0  0  0  0
  -18.2070  -26.7130   22.2830 C   0  0  0  0  0  2  0  0  0  0  0  0
  -19.1390  -28.8410   23.3670 C   0  0  0  0  0  0  0  0  0  0  0  0
  -18.9120  -30.1070   23.9520 C   0  0  0  0  0  3  0  0  0  0  0  0
  -17.6040  -30.5990   24.1190 C   0  0  0  0  0  3  0  0  0  0  0  0
  -16.5040  -29.8220   23.7160 C   0  0  0  0  0  3  0  0  0  0  0  0
  -16.7150  -28.5590   23.1360 C   0  0  0  0  0  3  0  0  0  0  0  0
  -25.8810  -32.5130   23.8060 C   0  0  0  0  0  3  0  0  0  0  0  0
  -25.5660  -33.9100   24.1460 N   0  0  0  0  0  0  0  0  0  0  0  0
  -25.8810  -34.9700   23.3890 C   0  0  0  0  0  0  0  0  0  0  0  0
  -26.5350  -34.8750   22.3470 O   0  0  0  0  0  0  0  0  0  0  0  0
  -24.9820  -34.0560   24.9560 H   0  0  0  0  0  0  0  0  0  0  0  0
  -24.1380  -36.7590   23.0750 C   0  0  0  0  0  1  0  0  0  0  0  0
  -25.3950  -36.3530   23.8630 C   0  0  0  0  0  3  0  0  0  0  0  0
  -27.5370  -37.2490   24.6660 C   0  0  0  0  0  1  0  0  0  0  0  0
  -26.4210  -37.4130   23.7380 N   0  0  0  0  0  0  0  0  0  0  0  0
  -26.0120  -38.3300   23.8920 H   0  0  0  0  0  0  0  0  0  0  0  0
  -26.4120  -31.7440   25.0780 C   0  0  1  0  0  0  0  0  0  0  0  0
  -25.3290  -31.5000   26.1550 C   0  0  0  0  0  1  0  0  0  0  0  0
  -26.9990  -30.3690   24.6830 C   0  0  0  0  0  1  0  0  0  0  0  0
  -27.5640  -32.5430   25.7310 C   0  0  0  0  0  1  0  0  0  0  0  0
  1  3  2  0
  2 14  1  0
  2  1  1  0
  4  2  1  0
  5 17  1  0
  6 11  1  0
  7  8  1  0
  7  6  1  0
  9  8  1  0
  9 23  1  0
  9 10  1  0
 11  5  1  0
 11 10  1  0
 12  5  2  0
 13 16  1  0
 14 13  2  0
 15 17  1  0
 15 16  2  0
 17 19  1  0
 18 14  1  0
 18 15  1  0
 20 21  2  0
 21 40  1  0
 22 21  1  0
 22 25  1  0
 23 24  1  0
 23 20  1  0
 24 22  2  0
 25 26  1  0
 26 27  2  0
 28 31  1  0
 28 27  1  0
 29 28  2  0
 30 29  1  0
 30 25  2  0
 31 32  1  0
 32 33  1  0
 33 34  2  0
 35 34  1  0
 35 39  1  0
 36 35  2  0
 37 32  2  0
 37 36  1  0
 38 37  1  0
 40 41  1  0
 41 44  1  0
 41 43  1  0
 42 40  2  0
 45 20  1  0
 45 46  1  0
 47 45  1  0
 48 49  2  0
 48  1  1  0
 49 53  1  0
 50 49  1  0
 51 48  1  0
 52 51  1  0
 54 65  2  0
 55 53  1  0
 55 60  1  0
 56 64  1  0
 56 66  1  0
 57 63  1  0
 57 59  1  0
 58 64  1  0
 59 58  1  0
 60 59  2  0
 61 55  2  0
 62 61  1  0
 62 57  2  0
 63 56  1  0
 64 54  1  0
 66 68  2  0
 67 66  1  0
 69 67  1  0
 70 79  2  0
 70 75  1  0
 71 67  1  0
 71 75  1  0
 72 71  1  0
 73 74  1  0
 73 72  1  0
 74 70  1  0
 75 76  2  0
 76 77  1  0
 78 77  2  0
 79 78  1  0
 80 54  1  0
 80 81  1  0
 80 90  1  0
 81 84  1  0
 82 86  1  0
 82 81  1  0
 83 82  2  0
 86 85  1  0
 88 86  1  0
 88 89  1  0
 88 87  1  0
 90 93  1  1
 90 91  1  0
 92 90  1  0
M  ISO  4   5 100  17 100  49 101  53 101
M  END
>  <TORSDO>  (55) 
F 18

>  <SCORE>  (55) 
-13.906

>  <name>  (55) 
54

>  <ligand_id>  (55) 
54

>  <original_smiles>  (55) 
[H]OC(C(=O)N([H])c1sc(N([H])C(=O)N2C([H])([H])C([H])([H])C([H])([H])C([H])(n3nc(-c4c([H])c([H])c(Oc5c([H])c([H])c(F)c([H])c5F)c([H])c4[H])c(C(=O)N([H])[H])c3N([H])[H])C2([H])[H])nc1[H])=C(Oc1c([H])c([H])c2c(c1[H])C([H])([H])N(C(=O)C([H])(N([H])C(=O)C([H])(N([H])C([H])([H])[H])C([H])([H])[H])C(C([H])([H])[H])(C([H])([H])[H])C([H])([H])[H])C([H])(C(=O)N([H])C1([H])c3c([H])c([H])c([H])c([H])c3C([H])([H])C([H])([H])C1([H])[H])C2([H])[H])C([H])([H])[H]

>  <smiles>  (55) 
[H]OC(C(=O)N([H])c1sc(N([H])C(=O)N2C([H])([H])C([H])([H])C([H])([H])C([H])(n3nc(-c4c([H])c([H])c(Oc5c([H])c([H])c(F)c([H])c5F)c([H])c4[H])c(C(=O)N([H])[H])c3N([H])[H])C2([H])[H])nc1[H])=C(Oc1c([H])c([H])c2c(c1[H])C([H])([H])N(C(=O)C([H])(N([H])C(=O)C([H])(N([H])C([H])([H])[H])C([H])([H])[H])C(C([H])([H])[H])(C([H])([H])[H])C([H])([H])[H])C([H])(C(=O)N([H])C1([H])c3c([H])c([H])c([H])c([H])c3C([H])([H])C([H])([H])C1([H])[H])C2([H])[H])C([H])([H])[H]

$$$$
55:0:0
     RDKit          3D

 93101  0  0  1  0  0  0  0  0999 V2000
  -29.3280  -21.6950   20.1930 C   0  0  0  0  0  0  0  0  0  0  0  0
  -30.3600  -20.8230   20.1970 N   0  0  0  0  0  0  0  0  0  0  0  0
  -28.2410  -21.4560   20.7200 O   0  0  0  0  0  0  0  0  0  0  0  0
  -31.2270  -21.2160   19.8580 H   0  0  0  0  0  0  0  0  0  0  0  0
  -30.6640  -14.5460   20.4030 C   0  0  0  0  0  0  0  0  0  0  0  0
  -30.3710  -12.3690   19.2640 C   0  0  0  0  0  2  0  0  0  0  0  0
  -29.4280  -12.5630   18.0580 C   0  0  0  0  0  2  0  0  0  0  0  0
  -27.9550  -12.4160   18.4900 C   0  0  0  0  0  2  0  0  0  0  0  0
  -27.6150  -13.2560   19.7510 C   0  0  0  0  0  3  0  0  0  0  0  0
  -28.6740  -13.0520   20.8580 C   0  0  0  0  0  2  0  0  0  0  0  0
  -29.9940  -13.3630   20.2840 N   0  0  0  0  0  0  0  0  0  0  0  0
  -31.8140  -14.6820   19.9710 O   0  0  0  0  0  0  0  0  0  0  0  0
  -31.5870  -18.8570   20.9370 C   0  0  0  0  0  0  0  0  0  0  0  0
  -30.4300  -19.4950   20.5370 C   0  0  0  0  0  0  0  0  0  0  0  0
  -30.2630  -16.9960   20.8020 C   0  0  0  0  0  0  0  0  0  0  0  0
  -32.9080  -19.5170   21.1970 C   0  0  0  0  0  1  0  0  0  0  0  0
  -31.4820  -17.4640   21.0850 N   0  0  0  0  0  0  0  0  0  0  0  0
  -29.9300  -15.5970   20.8430 N   0  0  0  0  0  0  0  0  0  0  0  0
  -29.1240  -18.3060   20.4200 S   0  0  0  0  0  0  0  0  0  0  0  0
  -28.9700  -15.3860   21.0600 H   0  0  0  0  0  0  0  0  0  0  0  0
  -25.2190  -13.8560   20.4640 C   0  0  0  0  0  0  0  0  0  0  0  0
  -24.1530  -13.0820   20.8360 C   0  0  0  0  0  0  0  0  0  0  0  0
  -24.6170  -11.7300   20.8070 C   0  0  0  0  0  0  0  0  0  0  0  0
  -26.2650  -12.9760   20.2320 N   0  0  0  0  0  0  0  0  0  0  0  0
  -25.9070  -11.6940   20.4980 N   0  0  0  0  0  0  0  0  0  0  0  0
  -23.8940  -10.4670   20.9980 C   0  0  0  0  0  0  0  0  0  0  0  0
  -24.3150   -9.5110   21.9480 C   0  0  0  0  0  3  0  0  0  0  0  0
  -23.5910   -8.3130   22.1280 C   0  0  0  0  0  3  0  0  0  0  0  0
  -22.4320   -8.0620   21.3550 C   0  0  0  0  0  0  0  0  0  0  0  0
  -22.0310   -9.0060   20.3940 C   0  0  0  0  0  3  0  0  0  0  0  0
  -22.7550  -10.1960   20.2130 C   0  0  0  0  0  3  0  0  0  0  0  0
  -21.6820   -6.9130   21.4420 O   0  0  0  0  0  0  0  0  0  0  0  0
  -21.6030   -6.1910   22.6050 C   0  0  0  0  0  0  0  0  0  0  0  0
  -21.1120   -6.7570   23.8020 C   0  0  0  0  0  3  0  0  0  0  0  0
  -20.9830   -5.9590   24.9570 C   0  0  0  0  0  3  0  0  0  0  0  0
  -21.3360   -4.5970   24.9150 C   0  0  0  0  0  0  0  0  0  0  0  0
  -21.8200   -4.0310   23.7230 C   0  0  0  0  0  3  0  0  0  0  0  0
  -21.9500   -4.8260   22.5710 C   0  0  0  0  0  0  0  0  0  0  0  0
  -22.3970   -4.2690   21.4180 F   0  0  0  0  0  0  0  0  0  0  0  0
  -21.2050   -3.8290   26.0210 F   0  0  0  0  0  0  0  0  0  0  0  0
  -22.7540  -13.5570   21.1080 C   0  0  0  0  0  0  0  0  0  0  0  0
  -22.0260  -12.8540   21.9670 N   0  0  0  0  0  0  0  0  0  0  0  0
  -22.3180  -14.5840   20.5920 O   0  0  0  0  0  0  0  0  0  0  0  0
  -22.3910  -12.0220   22.4060 H   0  0  0  0  0  0  0  0  0  0  0  0
  -21.0880  -13.1550   22.1910 H   0  0  0  0  0  0  0  0  0  0  0  0
  -25.3810  -15.2270   20.2820 N   0  0  0  0  0  0  0  0  0  0  0  0
  -24.6060  -15.8750   20.3760 H   0  0  0  0  0  0  0  0  0  0  0  0
  -26.2160  -15.6630   19.9130 H   0  0  0  0  0  0  0  0  0  0  0  0
  -29.5570  -23.0370   19.4440 C   0  0  0  0  0  2  0  0  0  0  0  0
  -29.5490  -24.3890   20.2380 C   0  0  0  0  0  2  0  0  0  0  0  0
  -27.4660  -24.7770   21.6360 C   0  0  0  0  0  1  0  0  0  0  0  0
  -28.1930  -25.1530   20.3270 C   0  0  0  0  0  3  0  0  0  0  0  0
  -28.3610  -26.6040   20.2560 O   0  0  0  0  0  0  0  0  0  0  0  0
  -24.5540  -31.8710   23.2420 C   0  0  0  0  0  0  0  0  0  0  0  0
  -27.2170  -27.3950   20.1810 C   0  0  0  0  0  0  0  0  0  0  0  0
  -23.3670  -30.4730   21.5880 C   0  0  0  0  0  3  0  0  0  0  0  0
  -24.8350  -28.9460   20.1660 C   0  0  0  0  0  0  0  0  0  0  0  0
  -25.9010  -30.8210   21.4210 C   0  0  0  0  0  2  0  0  0  0  0  0
  -25.9930  -29.4540   20.7690 C   0  0  0  0  0  0  0  0  0  0  0  0
  -27.1880  -28.6880   20.7660 C   0  0  0  0  0  3  0  0  0  0  0  0
  -26.0380  -26.9300   19.5500 C   0  0  0  0  0  3  0  0  0  0  0  0
  -24.8550  -27.6870   19.5510 C   0  0  0  0  0  3  0  0  0  0  0  0
  -23.5910  -29.8040   20.2080 C   0  0  0  0  0  2  0  0  0  0  0  0
  -24.6260  -31.0710   22.1410 N   0  0  0  0  0  0  0  0  0  0  0  0
  -23.4670  -32.1430   23.7720 O   0  0  0  0  0  0  0  0  0  0  0  0
  -22.7060  -29.4460   22.5390 C   0  0  0  0  0  0  0  0  0  0  0  0
  -21.3820  -29.2700   22.4060 N   0  0  0  0  0  0  0  0  0  0  0  0
  -23.3840  -28.8120   23.3530 O   0  0  0  0  0  0  0  0  0  0  0  0
  -20.8960  -29.8340   21.7210 H   0  0  0  0  0  0  0  0  0  0  0  0
  -17.9960  -28.1070   22.9070 C   0  0  0  0  0  0  0  0  0  0  0  0
  -20.5580  -28.3310   23.1670 C   0  0  0  0  0  3  0  0  0  0  0  0
  -20.6390  -26.9070   22.5700 C   0  0  0  0  0  2  0  0  0  0  0  0
  -19.5280  -26.6110   21.5580 C   0  0  0  0  0  2  0  0  0  0  0  0
  -18.1510  -26.7650   22.2120 C   0  0  0  0  0  2  0  0  0  0  0  0
  -19.1250  -28.8490   23.3410 C   0  0  0  0  0  0  0  0  0  0  0  0
  -18.9270  -30.1070   23.9520 C   0  0  0  0  0  3  0  0  0  0  0  0
  -17.6300  -30.6230   24.1300 C   0  0  0  0  0  3  0  0  0  0  0  0
  -16.5140  -29.8790   23.7120 C   0  0  0  0  0  3  0  0  0  0  0  0
  -16.6970  -28.6210   23.1080 C   0  0  0  0  0  3  0  0  0  0  0  0
  -25.8320  -32.5040   23.8750 C   0  0  0  0  0  3  0  0  0  0  0  0
  -26.3310  -31.7430   25.1640 C   0  0  1  0  0  0  0  0  0  0  0  0
  -25.2220  -31.5140   26.2180 C   0  0  0  0  0  1  0  0  0  0  0  0
  -26.9180  -30.3610   24.7910 C   0  0  0  0  0  1  0  0  0  0  0  0
  -27.4710  -32.5420   25.8370 C   0  0  0  0  0  1  0  0  0  0  0  0
  -25.5230  -33.9060   24.1870 N   0  0  0  0  0  0  0  0  0  0  0  0
  -25.8730  -34.9500   23.4220 C   0  0  0  0  0  0  0  0  0  0  0  0
  -26.5600  -34.8330   22.4040 O   0  0  0  0  0  0  0  0  0  0  0  0
  -24.9140  -34.0700   24.9750 H   0  0  0  0  0  0  0  0  0  0  0  0
  -24.1680  -36.7520   23.0080 C   0  0  0  0  0  1  0  0  0  0  0  0
  -25.3820  -36.3440   23.8570 C   0  0  0  0  0  3  0  0  0  0  0  0
  -27.4970  -37.2210   24.7460 C   0  0  0  0  0  1  0  0  0  0  0  0
  -26.4260  -37.3890   23.7670 N   0  0  0  0  0  0  0  0  0  0  0  0
  -26.0220  -38.3120   23.8950 H   0  0  0  0  0  0  0  0  0  0  0  0
  1  2  1  0
  1  3  2  0
  2 14  1  0
  4  2  1  0
  5 18  1  0
  6 11  1  0
  7  8  1  0
  7  6  1  0
  9  8  1  0
  9 24  1  0
  9 10  1  0
 11  5  1  0
 11 10  1  0
 12  5  2  0
 13 17  1  0
 13 16  1  0
 14 13  2  0
 15 18  1  0
 15 17  2  0
 18 20  1  0
 19 14  1  0
 19 15  1  0
 21 22  2  0
 22 41  1  0
 23 22  1  0
 23 26  1  0
 24 21  1  0
 24 25  1  0
 25 23  2  0
 26 27  1  0
 27 28  2  0
 29 32  1  0
 29 28  1  0
 30 29  2  0
 31 30  1  0
 31 26  2  0
 32 33  1  0
 33 34  1  0
 34 35  2  0
 36 35  1  0
 36 40  1  0
 37 36  2  0
 38 33  2  0
 38 37  1  0
 39 38  1  0
 41 42  1  0
 42 45  1  0
 42 44  1  0
 43 41  2  0
 46 47  1  0
 46 21  1  0
 48 46  1  0
 49  1  1  0
 49 50  1  0
 50 52  1  0
 52 51  1  0
 53 52  1  0
 54 65  2  0
 55 53  1  0
 55 60  1  0
 56 64  1  0
 56 66  1  0
 57 63  1  0
 57 59  1  0
 58 64  1  0
 59 58  1  0
 60 59  2  0
 61 62  1  0
 61 55  2  0
 62 57  2  0
 63 56  1  0
 64 54  1  0
 66 68  2  0
 67 66  1  0
 69 67  1  0
 70 79  2  0
 70 75  1  0
 71 67  1  0
 71 75  1  0
 72 71  1  0
 73 74  1  0
 73 72  1  0
 74 70  1  0
 75 76  2  0
 76 77  1  0
 78 77  2  0
 79 78  1  0
 80 54  1  0
 80 85  1  0
 80 81  1  0
 81 84  1  1
 81 82  1  0
 83 81  1  0
 85 88  1  0
 86 90  1  0
 86 85  1  0
 87 86  2  0
 90 89  1  0
 92 90  1  0
 92 93  1  0
 92 91  1  0
M  ISO  4   5 100  18 100  52 101  53 101
M  END
>  <TORSDO>  (56) 
F 19

>  <SCORE>  (56) 
-14.548

>  <name>  (56) 
55

>  <ligand_id>  (56) 
55

>  <original_smiles>  (56) 
[H]c1c([H])c([H])c2c(c1[H])C([H])([H])C([H])([H])C([H])([H])C2([H])N([H])C(=O)C1([H])N(C(=O)C([H])(N([H])C(=O)C([H])(N([H])C([H])([H])[H])C([H])([H])[H])C(C([H])([H])[H])(C([H])([H])[H])C([H])([H])[H])C([H])([H])c2c([H])c(OC([H])(C([H])([H])[H])C([H])([H])C([H])([H])C(=O)N([H])c3sc(N([H])C(=O)N4C([H])([H])C([H])([H])C([H])([H])C([H])(n5nc(-c6c([H])c([H])c(Oc7c([H])c([H])c(F)c([H])c7F)c([H])c6[H])c(C(=O)N([H])[H])c5N([H])[H])C4([H])[H])nc3C([H])([H])[H])c([H])c([H])c2C1([H])[H]

>  <smiles>  (56) 
[H]c1c([H])c([H])c2c(c1[H])C([H])([H])C([H])([H])C([H])([H])C2([H])N([H])C(=O)C1([H])N(C(=O)C([H])(N([H])C(=O)C([H])(N([H])C([H])([H])[H])C([H])([H])[H])C(C([H])([H])[H])(C([H])([H])[H])C([H])([H])[H])C([H])([H])c2c([H])c(OC([H])(C([H])([H])[H])C([H])([H])C([H])([H])C(=O)N([H])c3sc(N([H])C(=O)N4C([H])([H])C([H])([H])C([H])([H])C([H])(n5nc(-c6c([H])c([H])c(Oc7c([H])c([H])c(F)c([H])c7F)c([H])c6[H])c(C(=O)N([H])[H])c5N([H])[H])C4([H])[H])nc3C([H])([H])[H])c([H])c([H])c2C1([H])[H]

$$$$
56:0:0
     RDKit          3D

 94102  0  0  1  0  0  0  0  0999 V2000
  -28.6300  -19.3520   20.7110 C   0  0  0  0  0  3  0  0  0  0  0  0
  -30.9110  -18.0920   19.8660 C   0  0  0  0  0  3  0  0  0  0  0  0
  -29.8950  -17.2380   20.3680 C   0  0  0  0  0  0  0  0  0  0  0  0
  -28.7390  -17.9350   20.7930 C   0  0  0  0  0  0  0  0  0  0  0  0
  -29.6850  -20.1470   20.1920 C   0  0  0  0  0  0  0  0  0  0  0  0
  -28.6650  -22.5720   20.3980 C   0  0  0  0  0  0  0  0  0  0  0  0
  -30.8030  -19.4640   19.7860 N   0  0  0  0  0  0  0  0  0  0  0  0
  -29.6170  -21.6220   20.0770 N   0  0  0  0  0  0  0  0  0  0  0  0
  -27.5850  -22.2560   20.9030 O   0  0  0  0  0  0  0  0  0  0  0  0
  -27.6980  -17.2200   21.2860 F   0  0  0  0  0  0  0  0  0  0  0  0
  -30.4390  -22.0510   19.6770 H   0  0  0  0  0  0  0  0  0  0  0  0
  -30.7030  -14.7580   19.9840 C   0  0  0  0  0  0  0  0  0  0  0  0
  -30.4770  -12.5320   18.8740 C   0  0  0  0  0  2  0  0  0  0  0  0
  -29.4440  -12.6660   17.7320 C   0  0  0  0  0  2  0  0  0  0  0  0
  -28.0060  -12.4730   18.2580 C   0  0  0  0  0  2  0  0  0  0  0  0
  -27.7270  -13.2960   19.5430 C   0  0  0  0  0  3  0  0  0  0  0  0
  -28.8640  -13.1190   20.5760 C   0  0  0  0  0  2  0  0  0  0  0  0
  -30.1230  -13.5130   19.9220 N   0  0  0  0  0  0  0  0  0  0  0  0
  -31.8220  -14.9670   19.5050 O   0  0  0  0  0  0  0  0  0  0  0  0
  -29.9050  -15.7650   20.4720 N   0  0  0  0  0  0  0  0  0  0  0  0
  -29.0660  -15.4020   20.9010 H   0  0  0  0  0  0  0  0  0  0  0  0
  -25.3920  -13.8580   20.4580 C   0  0  0  0  0  0  0  0  0  0  0  0
  -24.3540  -13.0680   20.8690 C   0  0  0  0  0  0  0  0  0  0  0  0
  -24.8120  -11.7200   20.7490 C   0  0  0  0  0  0  0  0  0  0  0  0
  -26.4170  -12.9900   20.1120 N   0  0  0  0  0  0  0  0  0  0  0  0
  -26.0770  -11.6970   20.3470 N   0  0  0  0  0  0  0  0  0  0  0  0
  -24.1000  -10.4500   20.9380 C   0  0  0  0  0  0  0  0  0  0  0  0
  -24.5360   -9.4920   21.8800 C   0  0  0  0  0  3  0  0  0  0  0  0
  -23.8230   -8.2860   22.0570 C   0  0  0  0  0  3  0  0  0  0  0  0
  -22.6610   -8.0290   21.2900 C   0  0  0  0  0  0  0  0  0  0  0  0
  -22.2460   -8.9760   20.3380 C   0  0  0  0  0  3  0  0  0  0  0  0
  -22.9590  -10.1730   20.1590 C   0  0  0  0  0  3  0  0  0  0  0  0
  -21.9220   -6.8750   21.3760 O   0  0  0  0  0  0  0  0  0  0  0  0
  -21.7730   -6.2000   22.5620 C   0  0  0  0  0  0  0  0  0  0  0  0
  -21.1940   -6.8080   23.6970 C   0  0  0  0  0  3  0  0  0  0  0  0
  -20.9980   -6.0580   24.8730 C   0  0  0  0  0  3  0  0  0  0  0  0
  -21.3690   -4.7000   24.9150 C   0  0  0  0  0  0  0  0  0  0  0  0
  -21.9410   -4.0920   23.7830 C   0  0  0  0  0  3  0  0  0  0  0  0
  -22.1390   -4.8400   22.6090 C   0  0  0  0  0  0  0  0  0  0  0  0
  -22.6710   -4.2440   21.5150 F   0  0  0  0  0  0  0  0  0  0  0  0
  -21.1740   -3.9780   26.0420 F   0  0  0  0  0  0  0  0  0  0  0  0
  -22.9800  -13.5300   21.2620 C   0  0  0  0  0  0  0  0  0  0  0  0
  -22.3190  -12.7990   22.1530 N   0  0  0  0  0  0  0  0  0  0  0  0
  -22.5050  -14.5740   20.8180 O   0  0  0  0  0  0  0  0  0  0  0  0
  -22.7180  -11.9540   22.5340 H   0  0  0  0  0  0  0  0  0  0  0  0
  -21.4000  -13.0890   22.4580 H   0  0  0  0  0  0  0  0  0  0  0  0
  -25.5430  -15.2350   20.3280 N   0  0  0  0  0  0  0  0  0  0  0  0
  -24.7960  -15.8820   20.5570 H   0  0  0  0  0  0  0  0  0  0  0  0
  -26.3860  -15.7010   20.0200 H   0  0  0  0  0  0  0  0  0  0  0  0
  -28.1590  -25.0620   20.3610 C   0  0  0  0  0  3  0  0  0  0  0  0
  -29.0180  -24.0080   20.1010 C   0  0  0  0  0  0  0  0  0  0  0  0
  -30.2170  -24.2690   19.5580 O   0  0  0  0  0  0  0  0  0  0  0  0
  -30.2650  -25.2110   19.4410 H   0  0  0  0  0  0  0  0  0  0  0  0
  -28.3730  -26.4500   20.1330 O   0  0  0  0  0  0  0  0  0  0  0  0
  -24.6240  -31.8600   23.1970 C   0  0  0  0  0  0  0  0  0  0  0  0
  -27.2660  -27.3210   20.1170 C   0  0  0  0  0  0  0  0  0  0  0  0
  -23.4330  -30.4690   21.5410 C   0  0  0  0  0  3  0  0  0  0  0  0
  -24.8960  -28.9340   20.1080 C   0  0  0  0  0  0  0  0  0  0  0  0
  -25.9730  -30.7950   21.3720 C   0  0  0  0  0  2  0  0  0  0  0  0
  -26.0610  -29.4200   20.7160 C   0  0  0  0  0  0  0  0  0  0  0  0
  -27.2490  -28.6240   20.7140 C   0  0  0  0  0  3  0  0  0  0  0  0
  -26.0810  -26.8980   19.4780 C   0  0  0  0  0  3  0  0  0  0  0  0
  -24.9080  -27.6790   19.4790 C   0  0  0  0  0  3  0  0  0  0  0  0
  -23.6560  -29.8050   20.1570 C   0  0  0  0  0  2  0  0  0  0  0  0
  -24.6960  -31.0590   22.0940 N   0  0  0  0  0  0  0  0  0  0  0  0
  -23.5390  -32.1300   23.7300 O   0  0  0  0  0  0  0  0  0  0  0  0
  -22.7690  -29.4440   22.4920 C   0  0  0  0  0  0  0  0  0  0  0  0
  -21.4420  -29.2710   22.3660 N   0  0  0  0  0  0  0  0  0  0  0  0
  -23.4480  -28.8090   23.3030 O   0  0  0  0  0  0  0  0  0  0  0  0
  -20.9530  -29.8360   21.6850 H   0  0  0  0  0  0  0  0  0  0  0  0
  -18.0570  -28.1120   22.8980 C   0  0  0  0  0  0  0  0  0  0  0  0
  -20.6230  -28.3260   23.1280 C   0  0  0  0  0  3  0  0  0  0  0  0
  -20.6930  -26.9080   22.5150 C   0  0  0  0  0  2  0  0  0  0  0  0
  -19.5680  -26.6270   21.5130 C   0  0  0  0  0  2  0  0  0  0  0  0
  -18.2010  -26.7770   22.1860 C   0  0  0  0  0  2  0  0  0  0  0  0
  -19.1940  -28.8460   23.3270 C   0  0  0  0  0  0  0  0  0  0  0  0
  -19.0040  -30.0960   23.9530 C   0  0  0  0  0  3  0  0  0  0  0  0
  -17.7100  -30.6120   24.1560 C   0  0  0  0  0  3  0  0  0  0  0  0
  -16.5870  -29.8740   23.7430 C   0  0  0  0  0  3  0  0  0  0  0  0
  -16.7610  -28.6250   23.1200 C   0  0  0  0  0  3  0  0  0  0  0  0
  -25.9030  -32.4920   23.8280 C   0  0  0  0  0  3  0  0  0  0  0  0
  -25.5840  -33.8850   24.1780 N   0  0  0  0  0  0  0  0  0  0  0  0
  -25.8890  -34.9490   23.4250 C   0  0  0  0  0  0  0  0  0  0  0  0
  -26.5380  -34.8640   22.3790 O   0  0  0  0  0  0  0  0  0  0  0  0
  -25.0030  -34.0230   24.9930 H   0  0  0  0  0  0  0  0  0  0  0  0
  -24.1270  -36.7210   23.1370 C   0  0  0  0  0  1  0  0  0  0  0  0
  -25.3970  -36.3280   23.9080 C   0  0  0  0  0  3  0  0  0  0  0  0
  -27.5390  -37.2430   24.6870 C   0  0  0  0  0  1  0  0  0  0  0  0
  -26.4110  -37.3960   23.7700 N   0  0  0  0  0  0  0  0  0  0  0  0
  -25.9950  -38.3100   23.9280 H   0  0  0  0  0  0  0  0  0  0  0  0
  -26.4230  -31.7080   25.0960 C   0  0  1  0  0  0  0  0  0  0  0  0
  -25.3290  -31.4420   26.1560 C   0  0  0  0  0  1  0  0  0  0  0  0
  -27.0240  -30.3430   24.6860 C   0  0  0  0  0  1  0  0  0  0  0  0
  -27.5620  -32.5050   25.7740 C   0  0  0  0  0  1  0  0  0  0  0  0
  1  4  1  0
  2  3  1  0
  3 20  1  0
  3  4  2  0
  4 10  1  0
  5  1  2  0
  6  9  2  0
  7  2  2  0
  7  5  1  0
  8  5  1  0
  8  6  1  0
 11  8  1  0
 12 20  1  0
 13 18  1  0
 14 15  1  0
 14 13  1  0
 16 15  1  0
 16 25  1  0
 16 17  1  0
 18 12  1  0
 18 17  1  0
 19 12  2  0
 20 21  1  0
 22 23  2  0
 23 42  1  0
 24 23  1  0
 24 27  1  0
 25 26  1  0
 25 22  1  0
 26 24  2  0
 27 28  1  0
 28 29  2  0
 30 33  1  0
 30 29  1  0
 31 30  2  0
 32 31  1  0
 32 27  2  0
 33 34  1  0
 34 39  2  0
 34 35  1  0
 35 36  2  0
 36 37  1  0
 37 41  1  0
 38 37  2  0
 39 38  1  0
 40 39  1  0
 42 43  1  0
 43 46  1  0
 43 45  1  0
 44 42  2  0
 47 22  1  0
 47 48  1  0
 49 47  1  0
 51 50  2  0
 51  6  1  0
 52 51  1  0
 53 52  1  0
 54 50  1  0
 55 66  2  0
 56 54  1  0
 56 61  1  0
 57 65  1  0
 57 67  1  0
 58 64  1  0
 58 60  1  0
 59 65  1  0
 60 59  1  0
 61 60  2  0
 62 63  1  0
 62 56  2  0
 63 58  2  0
 64 57  1  0
 65 55  1  0
 67 69  2  0
 68 67  1  0
 70 68  1  0
 71 80  2  0
 71 76  1  0
 72 68  1  0
 72 76  1  0
 73 72  1  0
 74 75  1  0
 74 73  1  0
 75 71  1  0
 76 77  2  0
 77 78  1  0
 79 78  2  0
 80 79  1  0
 81 55  1  0
 81 82  1  0
 81 91  1  0
 82 85  1  0
 83 87  1  0
 83 82  1  0
 84 83  2  0
 87 86  1  0
 89 87  1  0
 89 90  1  0
 89 88  1  0
 91 94  1  1
 91 92  1  0
 93 91  1  0
M  ISO  4  12 100  20 100  50 101  54 101
M  END
>  <TORSDO>  (57) 
F 18

>  <SCORE>  (57) 
-14.062

>  <name>  (57) 
56

>  <ligand_id>  (57) 
56

>  <original_smiles>  (57) 
[H]OC(C(=O)N([H])c1nc([H])c(N([H])C(=O)N2C([H])([H])C([H])([H])C([H])([H])C([H])(n3nc(-c4c([H])c([H])c(Oc5c([H])c([H])c(F)c([H])c5F)c([H])c4[H])c(C(=O)N([H])[H])c3N([H])[H])C2([H])[H])c(F)c1[H])=C([H])Oc1c([H])c([H])c2c(c1[H])C([H])([H])N(C(=O)C([H])(N([H])C(=O)C([H])(N([H])C([H])([H])[H])C([H])([H])[H])C(C([H])([H])[H])(C([H])([H])[H])C([H])([H])[H])C([H])(C(=O)N([H])C1([H])c3c([H])c([H])c([H])c([H])c3C([H])([H])C([H])([H])C1([H])[H])C2([H])[H]

>  <smiles>  (57) 
[H]OC(C(=O)N([H])c1nc([H])c(N([H])C(=O)N2C([H])([H])C([H])([H])C([H])([H])C([H])(n3nc(-c4c([H])c([H])c(Oc5c([H])c([H])c(F)c([H])c5F)c([H])c4[H])c(C(=O)N([H])[H])c3N([H])[H])C2([H])[H])c(F)c1[H])=C([H])Oc1c([H])c([H])c2c(c1[H])C([H])([H])N(C(=O)C([H])(N([H])C(=O)C([H])(N([H])C([H])([H])[H])C([H])([H])[H])C(C([H])([H])[H])(C([H])([H])[H])C([H])([H])[H])C([H])(C(=O)N([H])C1([H])c3c([H])c([H])c([H])c([H])c3C([H])([H])C([H])([H])C1([H])[H])C2([H])[H]

$$$$
57:0:0
     RDKit          3D

 98106  0  0  1  0  0  0  0  0999 V2000
  -30.5050  -20.6380   20.2140 C   0  0  0  0  0  3  0  0  0  0  0  0
  -30.6420  -14.5870   20.1410 C   0  0  0  0  0  0  0  0  0  0  0  0
  -30.3590  -12.4360   18.9500 C   0  0  0  0  0  2  0  0  0  0  0  0
  -29.3510  -12.6520   17.7990 C   0  0  0  0  0  2  0  0  0  0  0  0
  -27.8970  -12.4920   18.2930 C   0  0  0  0  0  2  0  0  0  0  0  0
  -27.6150  -13.2860   19.5990 C   0  0  0  0  0  3  0  0  0  0  0  0
  -28.7240  -13.0320   20.6430 C   0  0  0  0  0  2  0  0  0  0  0  0
  -30.0080  -13.3860   20.0170 N   0  0  0  0  0  0  0  0  0  0  0  0
  -31.7930  -14.7700   19.7360 O   0  0  0  0  0  0  0  0  0  0  0  0
  -30.2940  -19.2580   20.9010 C   0  0  0  0  0  0  0  0  0  0  0  0
  -30.6040  -18.9890   22.2220 C   0  0  0  0  0  0  0  0  0  0  0  0
  -30.1520  -16.9300   20.9350 C   0  0  0  0  0  0  0  0  0  0  0  0
  -29.9500  -18.0540   20.2120 N   0  0  0  0  0  0  0  0  0  0  0  0
  -29.8210  -15.6140   20.4740 N   0  0  0  0  0  0  0  0  0  0  0  0
  -30.6170  -17.2740   22.5890 S   0  0  0  0  0  0  0  0  0  0  0  0
  -28.8650  -15.3430   20.6260 H   0  0  0  0  0  0  0  0  0  0  0  0
  -25.2570  -13.8790   20.4390 C   0  0  0  0  0  0  0  0  0  0  0  0
  -24.2080  -13.1010   20.8470 C   0  0  0  0  0  0  0  0  0  0  0  0
  -24.6660  -11.7490   20.7690 C   0  0  0  0  0  0  0  0  0  0  0  0
  -26.2870  -13.0020   20.1380 N   0  0  0  0  0  0  0  0  0  0  0  0
  -25.9390  -11.7150   20.3940 N   0  0  0  0  0  0  0  0  0  0  0  0
  -23.9480  -10.4850   20.9710 C   0  0  0  0  0  0  0  0  0  0  0  0
  -24.4050   -9.5180   21.8940 C   0  0  0  0  0  3  0  0  0  0  0  0
  -23.6900   -8.3160   22.0830 C   0  0  0  0  0  3  0  0  0  0  0  0
  -22.5050   -8.0730   21.3500 C   0  0  0  0  0  0  0  0  0  0  0  0
  -22.0670   -9.0290   20.4160 C   0  0  0  0  0  3  0  0  0  0  0  0
  -22.7820  -10.2220   20.2250 C   0  0  0  0  0  3  0  0  0  0  0  0
  -21.7580   -6.9240   21.4480 O   0  0  0  0  0  0  0  0  0  0  0  0
  -21.7070   -6.1960   22.6090 C   0  0  0  0  0  0  0  0  0  0  0  0
  -21.2640   -6.7630   23.8240 C   0  0  0  0  0  3  0  0  0  0  0  0
  -21.1600   -5.9630   24.9790 C   0  0  0  0  0  3  0  0  0  0  0  0
  -21.4890   -4.5950   24.9200 C   0  0  0  0  0  0  0  0  0  0  0  0
  -21.9250   -4.0280   23.7090 C   0  0  0  0  0  3  0  0  0  0  0  0
  -22.0310   -4.8260   22.5580 C   0  0  0  0  0  0  0  0  0  0  0  0
  -22.4310   -4.2700   21.3890 F   0  0  0  0  0  0  0  0  0  0  0  0
  -21.3810   -3.8240   26.0270 F   0  0  0  0  0  0  0  0  0  0  0  0
  -22.8250  -13.5740   21.1910 C   0  0  0  0  0  0  0  0  0  0  0  0
  -22.1360  -12.8640   22.0760 N   0  0  0  0  0  0  0  0  0  0  0  0
  -22.3670  -14.6100   20.7090 O   0  0  0  0  0  0  0  0  0  0  0  0
  -22.5220  -12.0300   22.4940 H   0  0  0  0  0  0  0  0  0  0  0  0
  -21.2090  -13.1620   22.3440 H   0  0  0  0  0  0  0  0  0  0  0  0
  -25.4090  -15.2520   20.2820 N   0  0  0  0  0  0  0  0  0  0  0  0
  -24.6330  -15.8870   20.4370 H   0  0  0  0  0  0  0  0  0  0  0  0
  -26.2130  -15.7060   19.8690 H   0  0  0  0  0  0  0  0  0  0  0  0
  -30.9600  -19.8790   23.2290 N   0  0  0  0  0  0  0  0  0  0  0  0
  -30.8890  -20.8900   23.1350 H   0  0  0  0  0  0  0  0  0  0  0  0
  -31.1290  -19.5880   24.1880 H   0  0  0  0  0  0  0  0  0  0  0  0
  -29.4620  -22.8440   20.9070 C   0  0  0  0  0  0  0  0  0  0  0  0
  -29.3940  -21.6360   20.2860 N   0  0  0  0  0  0  0  0  0  0  0  0
  -30.2180  -23.0480   21.8620 O   0  0  0  0  0  0  0  0  0  0  0  0
  -28.7530  -21.5900   19.5060 H   0  0  0  0  0  0  0  0  0  0  0  0
  -28.5910  -24.0140   20.2560 C   0  0  0  0  0  0  0  0  0  0  0  0
  -28.0620  -23.8660   19.1470 O   0  0  0  0  0  0  0  0  0  0  0  0
  -28.4090  -25.3560   21.0450 C   0  0  0  0  0  2  0  0  0  0  0  0
  -28.4390  -26.5770   20.2360 O   0  0  0  0  0  0  0  0  0  0  0  0
  -24.5930  -31.8770   23.2000 C   0  0  0  0  0  0  0  0  0  0  0  0
  -27.2900  -27.3540   20.2370 C   0  0  0  0  0  0  0  0  0  0  0  0
  -23.4190  -30.4530   21.5540 C   0  0  0  0  0  3  0  0  0  0  0  0
  -24.8990  -28.8920   20.1750 C   0  0  0  0  0  0  0  0  0  0  0  0
  -25.9500  -30.8030   21.3960 C   0  0  0  0  0  2  0  0  0  0  0  0
  -26.0490  -29.4170   20.7780 C   0  0  0  0  0  0  0  0  0  0  0  0
  -27.2510  -28.6590   20.7980 C   0  0  0  0  0  3  0  0  0  0  0  0
  -26.1210  -26.8550   19.6260 C   0  0  0  0  0  3  0  0  0  0  0  0
  -24.9330  -27.6120   19.5930 C   0  0  0  0  0  3  0  0  0  0  0  0
  -23.6550  -29.7560   20.1870 C   0  0  0  0  0  2  0  0  0  0  0  0
  -24.6720  -31.0620   22.1080 N   0  0  0  0  0  0  0  0  0  0  0  0
  -23.5040  -32.1530   23.7200 O   0  0  0  0  0  0  0  0  0  0  0  0
  -22.7510  -29.4430   22.5160 C   0  0  0  0  0  0  0  0  0  0  0  0
  -21.4290  -29.2620   22.3740 N   0  0  0  0  0  0  0  0  0  0  0  0
  -23.4230  -28.8240   23.3460 O   0  0  0  0  0  0  0  0  0  0  0  0
  -20.9480  -29.8120   21.6760 H   0  0  0  0  0  0  0  0  0  0  0  0
  -18.0480  -28.0670   22.8410 C   0  0  0  0  0  0  0  0  0  0  0  0
  -20.6030  -28.3290   23.1420 C   0  0  0  0  0  3  0  0  0  0  0  0
  -20.7120  -26.8940   22.5780 C   0  0  0  0  0  2  0  0  0  0  0  0
  -19.6220  -26.5630   21.5540 C   0  0  0  0  0  2  0  0  0  0  0  0
  -18.2330  -26.7130   22.1790 C   0  0  0  0  0  2  0  0  0  0  0  0
  -19.1610  -28.8330   23.2790 C   0  0  0  0  0  0  0  0  0  0  0  0
  -18.9350  -30.1000   23.8580 C   0  0  0  0  0  3  0  0  0  0  0  0
  -17.6280  -30.6030   24.0040 C   0  0  0  0  0  3  0  0  0  0  0  0
  -16.5300  -29.8360   23.5800 C   0  0  0  0  0  3  0  0  0  0  0  0
  -16.7400  -28.5700   23.0060 C   0  0  0  0  0  3  0  0  0  0  0  0
  -25.8680  -32.5160   23.8360 C   0  0  0  0  0  3  0  0  0  0  0  0
  -25.5450  -33.9100   24.1680 N   0  0  0  0  0  0  0  0  0  0  0  0
  -25.8740  -34.9670   23.4130 C   0  0  0  0  0  0  0  0  0  0  0  0
  -26.5540  -34.8720   22.3880 O   0  0  0  0  0  0  0  0  0  0  0  0
  -24.9510  -34.0580   24.9700 H   0  0  0  0  0  0  0  0  0  0  0  0
  -24.1330  -36.7420   23.0480 C   0  0  0  0  0  1  0  0  0  0  0  0
  -25.3710  -36.3490   23.8710 C   0  0  0  0  0  3  0  0  0  0  0  0
  -27.4880  -37.2490   24.7230 C   0  0  0  0  0  1  0  0  0  0  0  0
  -26.3950  -37.4120   23.7690 N   0  0  0  0  0  0  0  0  0  0  0  0
  -25.9790  -38.3280   23.9180 H   0  0  0  0  0  0  0  0  0  0  0  0
  -26.3820  -31.7430   25.1130 C   0  0  1  0  0  0  0  0  0  0  0  0
  -25.2830  -31.4930   26.1710 C   0  0  0  0  0  1  0  0  0  0  0  0
  -26.9790  -30.3730   24.7160 C   0  0  0  0  0  1  0  0  0  0  0  0
  -27.5200  -32.5470   25.7870 C   0  0  0  0  0  1  0  0  0  0  0  0
  -30.8970  -20.4090   18.7370 C   0  0  0  0  0  0  0  0  0  0  0  0
  -32.2150  -19.6920   18.4500 C   0  0  0  0  0  1  0  0  0  0  0  0
  -30.2140  -20.8140   17.7900 O   0  0  0  0  0  0  0  0  0  0  0  0
  1 96  1  0
  1 49  1  0
  1 10  1  0
  2 14  1  0
  3  8  1  0
  4  5  1  0
  4  3  1  0
  6  5  1  0
  6 20  1  0
  6  7  1  0
  8  2  1  0
  8  7  1  0
  9  2  2  0
 10 11  2  0
 11 15  1  0
 11 45  1  0
 12 15  1  0
 13 10  1  0
 13 12  2  0
 14 16  1  0
 14 12  1  0
 17 18  2  0
 18 37  1  0
 19 18  1  0
 19 22  1  0
 20 21  1  0
 20 17  1  0
 21 19  2  0
 22 23  1  0
 23 24  2  0
 25 28  1  0
 25 24  1  0
 26 25  2  0
 27 26  1  0
 27 22  2  0
 28 29  1  0
 29 30  1  0
 30 31  2  0
 32 31  1  0
 32 36  1  0
 33 32  2  0
 34 29  2  0
 34 33  1  0
 35 34  1  0
 37 38  1  0
 38 41  1  0
 38 40  1  0
 39 37  2  0
 42 43  1  0
 42 17  1  0
 44 42  1  0
 45 47  1  0
 46 45  1  0
 48 50  2  0
 49 48  1  0
 51 49  1  0
 52 48  1  0
 52 54  1  0
 53 52  2  0
 55 57  1  0
 55 54  1  0
 56 67  2  0
 57 62  1  0
 58 66  1  0
 58 68  1  0
 59 65  1  0
 59 61  1  0
 60 66  1  0
 61 62  2  0
 61 60  1  0
 63 57  2  0
 64 63  1  0
 64 59  2  0
 65 58  1  0
 66 56  1  0
 68 70  2  0
 69 68  1  0
 71 69  1  0
 72 81  2  0
 72 77  1  0
 73 69  1  0
 73 77  1  0
 74 73  1  0
 75 76  1  0
 75 74  1  0
 76 72  1  0
 77 78  2  0
 78 79  1  0
 80 79  2  0
 81 80  1  0
 82 56  1  0
 82 83  1  0
 82 92  1  0
 83 86  1  0
 84 88  1  0
 84 83  1  0
 85 84  2  0
 88 87  1  0
 90 88  1  0
 90 91  1  0
 90 89  1  0
 92 95  1  1
 92 93  1  0
 94 92  1  0
 97 96  1  0
 98 96  2  0
M  ISO  4   2 100  14 100  54 101  55 101
M  END
>  <TORSDO>  (58) 
F 21

>  <SCORE>  (58) 
-13.739

>  <name>  (58) 
57

>  <ligand_id>  (58) 
57

>  <original_smiles>  (58) 
[H]c1c([H])c([H])c2c(c1[H])C([H])([H])C([H])([H])C([H])([H])C2([H])N([H])C(=O)C1([H])N(C(=O)C([H])(N([H])C(=O)C([H])(N([H])C([H])([H])[H])C([H])([H])[H])C(C([H])([H])[H])(C([H])([H])[H])C([H])([H])[H])C([H])([H])c2c([H])c(OC([H])([H])C(=O)C(=O)N([H])C([H])(C(=O)C([H])([H])[H])c3nc(N([H])C(=O)N4C([H])([H])C([H])([H])C([H])([H])C([H])(n5nc(-c6c([H])c([H])c(Oc7c([H])c([H])c(F)c([H])c7F)c([H])c6[H])c(C(=O)N([H])[H])c5N([H])[H])C4([H])[H])sc3N([H])[H])c([H])c([H])c2C1([H])[H]

>  <smiles>  (58) 
[H]c1c([H])c([H])c2c(c1[H])C([H])([H])C([H])([H])C([H])([H])C2([H])N([H])C(=O)C1([H])N(C(=O)C([H])(N([H])C(=O)C([H])(N([H])C([H])([H])[H])C([H])([H])[H])C(C([H])([H])[H])(C([H])([H])[H])C([H])([H])[H])C([H])([H])c2c([H])c(OC([H])([H])C(=O)C(=O)N([H])C([H])(C(=O)C([H])([H])[H])c3nc(N([H])C(=O)N4C([H])([H])C([H])([H])C([H])([H])C([H])(n5nc(-c6c([H])c([H])c(Oc7c([H])c([H])c(F)c([H])c7F)c([H])c6[H])c(C(=O)N([H])[H])c5N([H])[H])C4([H])[H])sc3N([H])[H])c([H])c([H])c2C1([H])[H]

$$$$
58:0:0
     RDKit          3D

 92100  0  0  1  0  0  0  0  0999 V2000
  -28.5740  -23.3640   19.9350 C   0  0  0  0  0  0  0  0  0  0  0  0
  -29.2460  -22.2300   20.4770 N   0  0  0  0  0  0  0  0  0  0  0  0
  -28.0800  -23.2870   18.8080 O   0  0  0  0  0  0  0  0  0  0  0  0
  -29.7490  -22.4840   21.3150 H   0  0  0  0  0  0  0  0  0  0  0  0
  -30.5250  -15.0470   19.9460 C   0  0  0  0  0  0  0  0  0  0  0  0
  -30.3920  -12.6990   18.9690 C   0  0  0  0  0  2  0  0  0  0  0  0
  -29.3880  -12.6610   17.7920 C   0  0  0  0  0  2  0  0  0  0  0  0
  -27.9510  -12.4310   18.3000 C   0  0  0  0  0  2  0  0  0  0  0  0
  -27.6040  -13.3370   19.5090 C   0  0  0  0  0  3  0  0  0  0  0  0
  -28.7200  -13.3290   20.5770 C   0  0  0  0  0  2  0  0  0  0  0  0
  -29.9580  -13.7690   19.9140 N   0  0  0  0  0  0  0  0  0  0  0  0
  -31.7030  -15.1460   19.5800 O   0  0  0  0  0  0  0  0  0  0  0  0
  -30.5220  -19.9990   19.8660 C   0  0  0  0  0  3  0  0  0  0  0  0
  -28.4850  -18.4470   20.5540 C   0  0  0  0  0  0  0  0  0  0  0  0
  -29.3100  -20.7150   20.2190 C   0  0  0  0  0  0  0  0  0  0  0  0
  -29.6870  -17.7190   20.1790 C   0  0  0  0  0  0  0  0  0  0  0  0
  -27.2550  -17.7240   21.0550 C   0  0  0  0  0  1  0  0  0  0  0  0
  -30.6950  -18.6000   19.8260 N   0  0  0  0  0  0  0  0  0  0  0  0
  -28.3100  -19.8340   20.5540 N   0  0  0  0  0  0  0  0  0  0  0  0
  -29.6900  -16.1720   20.2200 N   0  0  0  0  0  0  0  0  0  0  0  0
  -28.7860  -15.8260   20.4930 H   0  0  0  0  0  0  0  0  0  0  0  0
  -25.2620  -13.8960   20.3810 C   0  0  0  0  0  0  0  0  0  0  0  0
  -24.2230  -13.1190   20.8030 C   0  0  0  0  0  0  0  0  0  0  0  0
  -24.6830  -11.7690   20.7160 C   0  0  0  0  0  0  0  0  0  0  0  0
  -26.2940  -13.0260   20.0710 N   0  0  0  0  0  0  0  0  0  0  0  0
  -25.9560  -11.7390   20.3350 N   0  0  0  0  0  0  0  0  0  0  0  0
  -23.9620  -10.5070   20.9120 C   0  0  0  0  0  0  0  0  0  0  0  0
  -24.4210   -9.5290   21.8230 C   0  0  0  0  0  3  0  0  0  0  0  0
  -23.6970   -8.3310   22.0080 C   0  0  0  0  0  3  0  0  0  0  0  0
  -22.5020   -8.1030   21.2860 C   0  0  0  0  0  0  0  0  0  0  0  0
  -22.0630   -9.0700   20.3640 C   0  0  0  0  0  3  0  0  0  0  0  0
  -22.7870  -10.2590   20.1750 C   0  0  0  0  0  3  0  0  0  0  0  0
  -21.7480   -6.9590   21.3830 O   0  0  0  0  0  0  0  0  0  0  0  0
  -21.7030   -6.2250   22.5410 C   0  0  0  0  0  0  0  0  0  0  0  0
  -21.2770   -6.7870   23.7650 C   0  0  0  0  0  3  0  0  0  0  0  0
  -21.1800   -5.9790   24.9150 C   0  0  0  0  0  3  0  0  0  0  0  0
  -21.4990   -4.6100   24.8430 C   0  0  0  0  0  0  0  0  0  0  0  0
  -21.9210   -4.0470   23.6250 C   0  0  0  0  0  3  0  0  0  0  0  0
  -22.0190   -4.8530   22.4760 C   0  0  0  0  0  0  0  0  0  0  0  0
  -22.4050   -4.3010   21.3010 F   0  0  0  0  0  0  0  0  0  0  0  0
  -21.3990   -3.8310   25.9450 F   0  0  0  0  0  0  0  0  0  0  0  0
  -22.8440  -13.5960   21.1590 C   0  0  0  0  0  0  0  0  0  0  0  0
  -22.1660  -12.8930   22.0580 N   0  0  0  0  0  0  0  0  0  0  0  0
  -22.3810  -14.6280   20.6750 O   0  0  0  0  0  0  0  0  0  0  0  0
  -22.5550  -12.0580   22.4710 H   0  0  0  0  0  0  0  0  0  0  0  0
  -21.2440  -13.1950   22.3390 H   0  0  0  0  0  0  0  0  0  0  0  0
  -25.4010  -15.2640   20.1980 N   0  0  0  0  0  0  0  0  0  0  0  0
  -24.5930  -15.8710   20.2890 H   0  0  0  0  0  0  0  0  0  0  0  0
  -26.1280  -15.6620   19.6200 H   0  0  0  0  0  0  0  0  0  0  0  0
  -27.1880  -24.6700   21.6990 C   0  0  0  0  0  1  0  0  0  0  0  0
  -28.3910  -24.8110   20.7490 C   0  0  0  0  0  3  0  0  0  0  0  0
  -28.4050  -26.2340   20.0900 O   0  0  0  0  0  0  0  0  0  0  0  0
  -24.6730  -31.8400   23.1920 C   0  0  0  0  0  0  0  0  0  0  0  0
  -27.3210  -27.1900   20.1250 C   0  0  0  0  0  0  0  0  0  0  0  0
  -23.4990  -30.4610   21.5200 C   0  0  0  0  0  3  0  0  0  0  0  0
  -24.9750  -28.9130   20.0920 C   0  0  0  0  0  0  0  0  0  0  0  0
  -26.0520  -30.7490   21.3810 C   0  0  0  0  0  2  0  0  0  0  0  0
  -26.1450  -29.3630   20.7170 C   0  0  0  0  0  0  0  0  0  0  0  0
  -27.3200  -28.5200   20.7140 C   0  0  0  0  0  3  0  0  0  0  0  0
  -26.1270  -26.8410   19.4620 C   0  0  0  0  0  3  0  0  0  0  0  0
  -24.9770  -27.6630   19.4500 C   0  0  0  0  0  3  0  0  0  0  0  0
  -23.7410  -29.8020   20.1360 C   0  0  0  0  0  2  0  0  0  0  0  0
  -24.7610  -31.0380   22.0880 N   0  0  0  0  0  0  0  0  0  0  0  0
  -23.5800  -32.1090   23.7140 O   0  0  0  0  0  0  0  0  0  0  0  0
  -22.8180  -29.4350   22.4610 C   0  0  0  0  0  0  0  0  0  0  0  0
  -21.4870  -29.2820   22.3410 N   0  0  0  0  0  0  0  0  0  0  0  0
  -23.4900  -28.7810   23.2620 O   0  0  0  0  0  0  0  0  0  0  0  0
  -21.0010  -29.8620   21.6720 H   0  0  0  0  0  0  0  0  0  0  0  0
  -18.0950  -28.1170   22.8540 C   0  0  0  0  0  0  0  0  0  0  0  0
  -20.6620  -28.3330   23.0930 C   0  0  0  0  0  3  0  0  0  0  0  0
  -20.7340  -26.9190   22.4710 C   0  0  0  0  0  2  0  0  0  0  0  0
  -19.6120  -26.6460   21.4630 C   0  0  0  0  0  2  0  0  0  0  0  0
  -18.2420  -26.7900   22.1300 C   0  0  0  0  0  2  0  0  0  0  0  0
  -19.2320  -28.8490   23.2920 C   0  0  0  0  0  0  0  0  0  0  0  0
  -19.0390  -30.0930   23.9320 C   0  0  0  0  0  3  0  0  0  0  0  0
  -17.7440  -30.6050   24.1370 C   0  0  0  0  0  3  0  0  0  0  0  0
  -16.6230  -29.8710   23.7140 C   0  0  0  0  0  3  0  0  0  0  0  0
  -16.8000  -28.6290   23.0780 C   0  0  0  0  0  3  0  0  0  0  0  0
  -25.9400  -32.4750   23.8420 C   0  0  0  0  0  3  0  0  0  0  0  0
  -25.6100  -33.8620   24.2080 N   0  0  0  0  0  0  0  0  0  0  0  0
  -25.9280  -34.9410   23.4800 C   0  0  0  0  0  0  0  0  0  0  0  0
  -26.5960  -34.8740   22.4450 O   0  0  0  0  0  0  0  0  0  0  0  0
  -25.0140  -33.9870   25.0120 H   0  0  0  0  0  0  0  0  0  0  0  0
  -24.1740  -36.7230   23.1910 C   0  0  0  0  0  1  0  0  0  0  0  0
  -25.4280  -36.3110   23.9800 C   0  0  0  0  0  3  0  0  0  0  0  0
  -27.5560  -37.2060   24.8160 C   0  0  0  0  0  1  0  0  0  0  0  0
  -26.4450  -37.3810   23.8860 N   0  0  0  0  0  0  0  0  0  0  0  0
  -26.0270  -38.2910   24.0580 H   0  0  0  0  0  0  0  0  0  0  0  0
  -26.4520  -31.6810   25.1060 C   0  0  1  0  0  0  0  0  0  0  0  0
  -25.3520  -31.4120   26.1590 C   0  0  0  0  0  1  0  0  0  0  0  0
  -27.0510  -30.3170   24.6920 C   0  0  0  0  0  1  0  0  0  0  0  0
  -27.5890  -32.4710   25.7960 C   0  0  0  0  0  1  0  0  0  0  0  0
  1  2  1  0
  1 51  1  0
  2  4  1  0
  3  1  2  0
  5 20  1  0
  6 11  1  0
  7  8  1  0
  7  6  1  0
  9  8  1  0
  9 25  1  0
  9 10  1  0
 11  5  1  0
 11 10  1  0
 12  5  2  0
 13 15  1  0
 14 17  1  0
 15  2  1  0
 15 19  2  0
 16 20  1  0
 16 14  2  0
 18 13  2  0
 18 16  1  0
 19 14  1  0
 20 21  1  0
 22 23  2  0
 23 42  1  0
 24 23  1  0
 24 27  1  0
 25 26  1  0
 25 22  1  0
 26 24  2  0
 27 28  1  0
 28 29  2  0
 30 33  1  0
 30 29  1  0
 31 30  2  0
 32 31  1  0
 32 27  2  0
 33 34  1  0
 34 35  1  0
 35 36  2  0
 37 36  1  0
 37 41  1  0
 38 37  2  0
 39 34  2  0
 39 38  1  0
 40 39  1  0
 42 43  1  0
 43 46  1  0
 43 45  1  0
 44 42  2  0
 47 48  1  0
 47 22  1  0
 49 47  1  0
 51 50  1  0
 52 54  1  0
 52 51  1  0
 53 64  2  0
 54 59  1  0
 55 63  1  0
 55 65  1  0
 56 62  1  0
 56 58  1  0
 57 63  1  0
 58 57  1  0
 59 58  2  0
 60 54  2  0
 61 60  1  0
 61 56  2  0
 62 55  1  0
 63 53  1  0
 65 67  2  0
 66 65  1  0
 68 66  1  0
 69 78  2  0
 69 74  1  0
 70 66  1  0
 70 74  1  0
 71 70  1  0
 72 73  1  0
 72 71  1  0
 73 69  1  0
 74 75  2  0
 75 76  1  0
 77 76  2  0
 78 77  1  0
 79 53  1  0
 79 80  1  0
 79 89  1  0
 80 83  1  0
 81 85  1  0
 81 80  1  0
 82 81  2  0
 85 84  1  0
 87 85  1  0
 87 88  1  0
 87 86  1  0
 89 92  1  1
 89 90  1  0
 91 89  1  0
M  ISO  4   5 100  20 100  51 101  52 101
M  END
>  <TORSDO>  (59) 
F 17

>  <SCORE>  (59) 
-13.853

>  <name>  (59) 
58

>  <ligand_id>  (59) 
58

>  <original_smiles>  (59) 
[H]c1nc(N([H])C(=O)N2C([H])([H])C([H])([H])C([H])([H])C([H])(n3nc(-c4c([H])c([H])c(Oc5c([H])c([H])c(F)c([H])c5F)c([H])c4[H])c(C(=O)N([H])[H])c3N([H])[H])C2([H])[H])c(C([H])([H])[H])nc1N([H])C(=O)C([H])(Oc1c([H])c([H])c2c(c1[H])C([H])([H])N(C(=O)C([H])(N([H])C(=O)C([H])(N([H])C([H])([H])[H])C([H])([H])[H])C(C([H])([H])[H])(C([H])([H])[H])C([H])([H])[H])C([H])(C(=O)N([H])C1([H])c3c([H])c([H])c([H])c([H])c3C([H])([H])C([H])([H])C1([H])[H])C2([H])[H])C([H])([H])[H]

>  <smiles>  (59) 
[H]c1nc(N([H])C(=O)N2C([H])([H])C([H])([H])C([H])([H])C([H])(n3nc(-c4c([H])c([H])c(Oc5c([H])c([H])c(F)c([H])c5F)c([H])c4[H])c(C(=O)N([H])[H])c3N([H])[H])C2([H])[H])c(C([H])([H])[H])nc1N([H])C(=O)C([H])(Oc1c([H])c([H])c2c(c1[H])C([H])([H])N(C(=O)C([H])(N([H])C(=O)C([H])(N([H])C([H])([H])[H])C([H])([H])[H])C(C([H])([H])[H])(C([H])([H])[H])C([H])([H])[H])C([H])(C(=O)N([H])C1([H])c3c([H])c([H])c([H])c([H])c3C([H])([H])C([H])([H])C1([H])[H])C2([H])[H])C([H])([H])[H]

$$$$
59:0:0
     RDKit          3D

 93101  0  0  1  0  0  0  0  0999 V2000
  -29.8600  -20.8820   19.6370 C   0  0  0  0  0  0  0  0  0  0  0  0
  -29.0470  -23.1820   19.9510 C   0  0  0  0  0  0  0  0  0  0  0  0
  -29.2040  -21.8690   20.3130 N   0  0  0  0  0  0  0  0  0  0  0  0
  -30.3150  -21.0290   18.4980 O   0  0  0  0  0  0  0  0  0  0  0  0
  -29.6060  -23.6930   18.9750 O   0  0  0  0  0  0  0  0  0  0  0  0
  -28.7870  -21.5890   21.1870 H   0  0  0  0  0  0  0  0  0  0  0  0
  -30.6180  -14.5800   20.4450 C   0  0  0  0  0  0  0  0  0  0  0  0
  -30.3730  -12.3720   19.3470 C   0  0  0  0  0  2  0  0  0  0  0  0
  -29.4360  -12.5390   18.1310 C   0  0  0  0  0  2  0  0  0  0  0  0
  -27.9600  -12.3930   18.5510 C   0  0  0  0  0  2  0  0  0  0  0  0
  -27.6050  -13.2420   19.8030 C   0  0  0  0  0  3  0  0  0  0  0  0
  -28.6570  -13.0590   20.9200 C   0  0  0  0  0  2  0  0  0  0  0  0
  -29.9750  -13.3760   20.3500 N   0  0  0  0  0  0  0  0  0  0  0  0
  -31.7850  -14.7200   20.0640 O   0  0  0  0  0  0  0  0  0  0  0  0
  -30.1060  -19.5370   20.2720 C   0  0  0  0  0  0  0  0  0  0  0  0
  -31.2560  -19.0190   20.8370 C   0  0  0  0  0  0  0  0  0  0  0  0
  -30.0860  -17.0510   20.6610 C   0  0  0  0  0  0  0  0  0  0  0  0
  -32.5140  -19.7750   21.1440 C   0  0  0  0  0  1  0  0  0  0  0  0
  -31.2240  -17.6270   21.0680 N   0  0  0  0  0  0  0  0  0  0  0  0
  -29.8280  -15.6360   20.7780 N   0  0  0  0  0  0  0  0  0  0  0  0
  -28.9210  -18.2500   20.0440 S   0  0  0  0  0  0  0  0  0  0  0  0
  -28.8670  -15.3900   20.9510 H   0  0  0  0  0  0  0  0  0  0  0  0
  -25.2060  -13.8490   20.4980 C   0  0  0  0  0  0  0  0  0  0  0  0
  -24.1360  -13.0780   20.8650 C   0  0  0  0  0  0  0  0  0  0  0  0
  -24.6000  -11.7260   20.8460 C   0  0  0  0  0  0  0  0  0  0  0  0
  -26.2530  -12.9670   20.2780 N   0  0  0  0  0  0  0  0  0  0  0  0
  -25.8920  -11.6860   20.5470 N   0  0  0  0  0  0  0  0  0  0  0  0
  -23.8740  -10.4650   21.0400 C   0  0  0  0  0  0  0  0  0  0  0  0
  -24.3060   -9.5000   21.9760 C   0  0  0  0  0  3  0  0  0  0  0  0
  -23.5790   -8.3020   22.1580 C   0  0  0  0  0  3  0  0  0  0  0  0
  -22.4060   -8.0630   21.4030 C   0  0  0  0  0  0  0  0  0  0  0  0
  -21.9930   -9.0170   20.4560 C   0  0  0  0  0  3  0  0  0  0  0  0
  -22.7210  -10.2050   20.2740 C   0  0  0  0  0  3  0  0  0  0  0  0
  -21.6510   -6.9180   21.4940 O   0  0  0  0  0  0  0  0  0  0  0  0
  -21.6090   -6.1740   22.6450 C   0  0  0  0  0  0  0  0  0  0  0  0
  -21.1960   -6.7290   23.8770 C   0  0  0  0  0  3  0  0  0  0  0  0
  -21.1010   -5.9110   25.0200 C   0  0  0  0  0  3  0  0  0  0  0  0
  -21.4060   -4.5390   24.9330 C   0  0  0  0  0  0  0  0  0  0  0  0
  -21.8110   -3.9850   23.7060 C   0  0  0  0  0  3  0  0  0  0  0  0
  -21.9080   -4.7990   22.5650 C   0  0  0  0  0  0  0  0  0  0  0  0
  -22.2780   -4.2550   21.3800 F   0  0  0  0  0  0  0  0  0  0  0  0
  -21.3070   -3.7510   26.0280 F   0  0  0  0  0  0  0  0  0  0  0  0
  -22.7360  -13.5550   21.1230 C   0  0  0  0  0  0  0  0  0  0  0  0
  -22.0030  -12.8620   21.9870 N   0  0  0  0  0  0  0  0  0  0  0  0
  -22.3020  -14.5770   20.5950 O   0  0  0  0  0  0  0  0  0  0  0  0
  -22.3670  -12.0330   22.4330 H   0  0  0  0  0  0  0  0  0  0  0  0
  -21.0620  -13.1620   22.2020 H   0  0  0  0  0  0  0  0  0  0  0  0
  -25.3710  -15.2180   20.3140 N   0  0  0  0  0  0  0  0  0  0  0  0
  -24.6010  -15.8700   20.4220 H   0  0  0  0  0  0  0  0  0  0  0  0
  -26.2130  -15.6610   19.9690 H   0  0  0  0  0  0  0  0  0  0  0  0
  -28.1020  -24.1020   20.7800 C   0  0  0  0  0  2  0  0  0  0  0  0
  -28.5730  -25.5720   21.1010 C   0  0  0  0  0  2  0  0  0  0  0  0
  -28.4060  -26.6300   20.1220 O   0  0  0  0  0  0  0  0  0  0  0  0
  -24.6140  -31.8820   23.2410 C   0  0  0  0  0  0  0  0  0  0  0  0
  -27.2510  -27.3900   20.1890 C   0  0  0  0  0  0  0  0  0  0  0  0
  -23.4090  -30.4730   21.6040 C   0  0  0  0  0  3  0  0  0  0  0  0
  -24.8640  -28.9240   20.1880 C   0  0  0  0  0  0  0  0  0  0  0  0
  -25.9380  -30.8230   21.4070 C   0  0  0  0  0  2  0  0  0  0  0  0
  -26.0240  -29.4430   20.7770 C   0  0  0  0  0  0  0  0  0  0  0  0
  -27.2230  -28.6850   20.7700 C   0  0  0  0  0  3  0  0  0  0  0  0
  -26.0740  -26.8930   19.5950 C   0  0  0  0  0  3  0  0  0  0  0  0
  -24.8840  -27.6490   19.5950 C   0  0  0  0  0  3  0  0  0  0  0  0
  -23.6200  -29.7880   20.2290 C   0  0  0  0  0  2  0  0  0  0  0  0
  -24.6710  -31.0750   22.1430 N   0  0  0  0  0  0  0  0  0  0  0  0
  -23.5330  -32.1570   23.7790 O   0  0  0  0  0  0  0  0  0  0  0  0
  -22.7550  -29.4570   22.5680 C   0  0  0  0  0  0  0  0  0  0  0  0
  -21.4300  -29.2770   22.4420 N   0  0  0  0  0  0  0  0  0  0  0  0
  -23.4370  -28.8340   23.3860 O   0  0  0  0  0  0  0  0  0  0  0  0
  -20.9400  -29.8310   21.7530 H   0  0  0  0  0  0  0  0  0  0  0  0
  -18.0540  -28.0850   22.9450 C   0  0  0  0  0  0  0  0  0  0  0  0
  -20.6130  -28.3400   23.2140 C   0  0  0  0  0  3  0  0  0  0  0  0
  -20.7130  -26.9080   22.6380 C   0  0  0  0  0  2  0  0  0  0  0  0
  -19.6090  -26.5870   21.6250 C   0  0  0  0  0  2  0  0  0  0  0  0
  -18.2280  -26.7350   22.2700 C   0  0  0  0  0  2  0  0  0  0  0  0
  -19.1740  -28.8460   23.3730 C   0  0  0  0  0  0  0  0  0  0  0  0
  -18.9570  -30.1110   23.9620 C   0  0  0  0  0  3  0  0  0  0  0  0
  -17.6550  -30.6150   24.1280 C   0  0  0  0  0  3  0  0  0  0  0  0
  -16.5490  -29.8510   23.7180 C   0  0  0  0  0  3  0  0  0  0  0  0
  -16.7500  -28.5870   23.1330 C   0  0  0  0  0  3  0  0  0  0  0  0
  -25.8990  -32.5150   23.8600 C   0  0  0  0  0  3  0  0  0  0  0  0
  -25.5900  -33.9120   24.1890 N   0  0  0  0  0  0  0  0  0  0  0  0
  -25.9190  -34.9640   23.4280 C   0  0  0  0  0  0  0  0  0  0  0  0
  -26.5870  -34.8590   22.3960 O   0  0  0  0  0  0  0  0  0  0  0  0
  -25.0000  -34.0680   24.9940 H   0  0  0  0  0  0  0  0  0  0  0  0
  -24.1890  -36.7520   23.0690 C   0  0  0  0  0  1  0  0  0  0  0  0
  -25.4290  -36.3520   23.8830 C   0  0  0  0  0  3  0  0  0  0  0  0
  -27.5650  -37.2360   24.7100 C   0  0  0  0  0  1  0  0  0  0  0  0
  -26.4590  -37.4080   23.7730 N   0  0  0  0  0  0  0  0  0  0  0  0
  -26.0510  -38.3260   23.9300 H   0  0  0  0  0  0  0  0  0  0  0  0
  -26.4200  -31.7440   25.1350 C   0  0  1  0  0  0  0  0  0  0  0  0
  -25.3300  -31.5050   26.2070 C   0  0  0  0  0  1  0  0  0  0  0  0
  -27.0030  -30.3670   24.7400 C   0  0  0  0  0  1  0  0  0  0  0  0
  -27.5740  -32.5380   25.7930 C   0  0  0  0  0  1  0  0  0  0  0  0
  1 15  1  0
  1  3  1  0
  2  3  1  0
  2 51  1  0
  3  6  1  0
  4  1  2  0
  5  2  2  0
  7 20  1  0
  8 13  1  0
  9 10  1  0
  9  8  1  0
 11 10  1  0
 11 26  1  0
 11 12  1  0
 13  7  1  0
 13 12  1  0
 14  7  2  0
 15 16  2  0
 16 19  1  0
 16 18  1  0
 17 20  1  0
 17 19  2  0
 20 22  1  0
 21 15  1  0
 21 17  1  0
 23 24  2  0
 24 43  1  0
 25 24  1  0
 25 28  1  0
 26 23  1  0
 26 27  1  0
 27 25  2  0
 28 29  1  0
 29 30  2  0
 31 34  1  0
 31 30  1  0
 32 31  2  0
 33 32  1  0
 33 28  2  0
 34 35  1  0
 35 36  1  0
 36 37  2  0
 38 37  1  0
 38 42  1  0
 39 38  2  0
 40 35  2  0
 40 39  1  0
 41 40  1  0
 43 44  1  0
 44 47  1  0
 44 46  1  0
 45 43  2  0
 48 49  1  0
 48 23  1  0
 50 48  1  0
 51 52  1  0
 53 55  1  0
 53 52  1  0
 54 65  2  0
 55 60  1  0
 56 64  1  0
 56 66  1  0
 57 63  1  0
 57 59  1  0
 58 64  1  0
 59 58  1  0
 60 59  2  0
 61 62  1  0
 61 55  2  0
 62 57  2  0
 63 56  1  0
 64 54  1  0
 66 68  2  0
 67 66  1  0
 69 67  1  0
 70 79  2  0
 70 75  1  0
 71 67  1  0
 71 75  1  0
 72 71  1  0
 73 74  1  0
 73 72  1  0
 74 70  1  0
 75 76  2  0
 76 77  1  0
 78 77  2  0
 79 78  1  0
 80 54  1  0
 80 81  1  0
 80 90  1  0
 81 84  1  0
 82 86  1  0
 82 81  1  0
 83 82  2  0
 86 85  1  0
 88 86  1  0
 88 89  1  0
 88 87  1  0
 90 93  1  1
 90 91  1  0
 92 90  1  0
M  ISO  4   7 100  20 100  52 101  53 101
M  END
>  <TORSDO>  (60) 
F 18

>  <SCORE>  (60) 
-14.836

>  <name>  (60) 
59

>  <ligand_id>  (60) 
59

>  <original_smiles>  (60) 
[H]c1c([H])c([H])c2c(c1[H])C([H])([H])C([H])([H])C([H])([H])C2([H])N([H])C(=O)C1([H])N(C(=O)C([H])(N([H])C(=O)C([H])(N([H])C([H])([H])[H])C([H])([H])[H])C(C([H])([H])[H])(C([H])([H])[H])C([H])([H])[H])C([H])([H])c2c([H])c(OC([H])([H])C([H])([H])C(=O)N([H])C(=O)c3sc(N([H])C(=O)N4C([H])([H])C([H])([H])C([H])([H])C([H])(n5nc(-c6c([H])c([H])c(Oc7c([H])c([H])c(F)c([H])c7F)c([H])c6[H])c(C(=O)N([H])[H])c5N([H])[H])C4([H])[H])nc3C([H])([H])[H])c([H])c([H])c2C1([H])[H]

>  <smiles>  (60) 
[H]c1c([H])c([H])c2c(c1[H])C([H])([H])C([H])([H])C([H])([H])C2([H])N([H])C(=O)C1([H])N(C(=O)C([H])(N([H])C(=O)C([H])(N([H])C([H])([H])[H])C([H])([H])[H])C(C([H])([H])[H])(C([H])([H])[H])C([H])([H])[H])C([H])([H])c2c([H])c(OC([H])([H])C([H])([H])C(=O)N([H])C(=O)c3sc(N([H])C(=O)N4C([H])([H])C([H])([H])C([H])([H])C([H])(n5nc(-c6c([H])c([H])c(Oc7c([H])c([H])c(F)c([H])c7F)c([H])c6[H])c(C(=O)N([H])[H])c5N([H])[H])C4([H])[H])nc3C([H])([H])[H])c([H])c([H])c2C1([H])[H]

$$$$
60:0:0
     RDKit          3D

 93101  0  0  1  0  0  0  0  0999 V2000
  -28.6350  -20.8970   20.1560 C   0  0  0  0  0  0  0  0  0  0  0  0
  -27.5090  -20.7780   19.6520 O   0  0  0  0  0  0  0  0  0  0  0  0
  -30.5820  -14.7560   20.3890 C   0  0  0  0  0  0  0  0  0  0  0  0
  -30.4080  -12.4730   19.3920 C   0  0  0  0  0  2  0  0  0  0  0  0
  -29.4800  -12.5450   18.1570 C   0  0  0  0  0  2  0  0  0  0  0  0
  -28.0050  -12.3710   18.5750 C   0  0  0  0  0  2  0  0  0  0  0  0
  -27.6160  -13.2650   19.7830 C   0  0  0  0  0  3  0  0  0  0  0  0
  -28.6660  -13.1780   20.9140 C   0  0  0  0  0  2  0  0  0  0  0  0
  -29.9680  -13.5260   20.3320 N   0  0  0  0  0  0  0  0  0  0  0  0
  -31.7810  -14.8560   20.1100 O   0  0  0  0  0  0  0  0  0  0  0  0
  -29.5470  -19.6720   20.3450 C   0  0  0  0  0  0  0  0  0  0  0  0
  -30.9360  -19.6760   20.4450 C   0  0  0  0  0  0  0  0  0  0  0  0
  -30.0410  -17.3160   20.4630 C   0  0  0  0  0  0  0  0  0  0  0  0
  -29.0860  -18.2930   20.3590 N   0  0  0  0  0  0  0  0  0  0  0  0
  -29.7590  -15.8660   20.5180 N   0  0  0  0  0  0  0  0  0  0  0  0
  -31.6370  -18.0550   20.5440 S   0  0  0  0  0  0  0  0  0  0  0  0
  -28.7840  -15.6330   20.6140 H   0  0  0  0  0  0  0  0  0  0  0  0
  -25.2190  -13.8570   20.4760 C   0  0  0  0  0  0  0  0  0  0  0  0
  -24.1510  -13.0840   20.8420 C   0  0  0  0  0  0  0  0  0  0  0  0
  -24.6190  -11.7340   20.8330 C   0  0  0  0  0  0  0  0  0  0  0  0
  -26.2680  -12.9780   20.2610 N   0  0  0  0  0  0  0  0  0  0  0  0
  -25.9150  -11.6970   20.5410 N   0  0  0  0  0  0  0  0  0  0  0  0
  -23.8950  -10.4710   21.0260 C   0  0  0  0  0  0  0  0  0  0  0  0
  -24.3260   -9.5090   21.9650 C   0  0  0  0  0  3  0  0  0  0  0  0
  -23.6000   -8.3120   22.1460 C   0  0  0  0  0  3  0  0  0  0  0  0
  -22.4330   -8.0680   21.3870 C   0  0  0  0  0  0  0  0  0  0  0  0
  -22.0220   -9.0180   20.4350 C   0  0  0  0  0  3  0  0  0  0  0  0
  -22.7480  -10.2070   20.2520 C   0  0  0  0  0  3  0  0  0  0  0  0
  -21.6780   -6.9220   21.4770 O   0  0  0  0  0  0  0  0  0  0  0  0
  -21.6320   -6.1800   22.6290 C   0  0  0  0  0  0  0  0  0  0  0  0
  -21.2120   -6.7370   23.8580 C   0  0  0  0  0  3  0  0  0  0  0  0
  -21.1130   -5.9200   25.0020 C   0  0  0  0  0  3  0  0  0  0  0  0
  -21.4250   -4.5500   24.9190 C   0  0  0  0  0  0  0  0  0  0  0  0
  -21.8370   -3.9940   23.6960 C   0  0  0  0  0  3  0  0  0  0  0  0
  -21.9380   -4.8070   22.5540 C   0  0  0  0  0  0  0  0  0  0  0  0
  -22.3160   -4.2610   21.3730 F   0  0  0  0  0  0  0  0  0  0  0  0
  -21.3220   -3.7640   26.0160 F   0  0  0  0  0  0  0  0  0  0  0  0
  -22.7470  -13.5590   21.0850 C   0  0  0  0  0  0  0  0  0  0  0  0
  -22.0080  -12.8710   21.9480 N   0  0  0  0  0  0  0  0  0  0  0  0
  -22.3150  -14.5760   20.5450 O   0  0  0  0  0  0  0  0  0  0  0  0
  -22.3710  -12.0510   22.4100 H   0  0  0  0  0  0  0  0  0  0  0  0
  -21.0680  -13.1750   22.1540 H   0  0  0  0  0  0  0  0  0  0  0  0
  -25.3760  -15.2270   20.2840 N   0  0  0  0  0  0  0  0  0  0  0  0
  -24.6010  -15.8720   20.3880 H   0  0  0  0  0  0  0  0  0  0  0  0
  -26.2100  -15.6730   19.9220 H   0  0  0  0  0  0  0  0  0  0  0  0
  -31.8380  -20.7420   20.4560 N   0  0  0  0  0  0  0  0  0  0  0  0
  -31.5510  -21.6590   20.7970 H   0  0  0  0  0  0  0  0  0  0  0  0
  -32.8190  -20.5730   20.6610 H   0  0  0  0  0  0  0  0  0  0  0  0
  -29.0190  -22.4120   20.6470 C   0  0  0  0  0  0  0  0  0  0  0  0
  -29.7410  -22.5560   21.6420 O   0  0  0  0  0  0  0  0  0  0  0  0
  -28.4730  -23.7370   19.9260 C   0  0  0  0  0  2  0  0  0  0  0  0
  -28.2850  -25.0920   20.7900 C   0  0  0  0  0  2  0  0  0  0  0  0
  -28.3680  -26.4670   20.2100 O   0  0  0  0  0  0  0  0  0  0  0  0
  -24.6050  -31.8820   23.2570 C   0  0  0  0  0  0  0  0  0  0  0  0
  -27.2420  -27.3050   20.2320 C   0  0  0  0  0  0  0  0  0  0  0  0
  -23.4140  -30.4760   21.6140 C   0  0  0  0  0  3  0  0  0  0  0  0
  -24.8740  -28.9150   20.2060 C   0  0  0  0  0  0  0  0  0  0  0  0
  -25.9530  -30.7970   21.4400 C   0  0  0  0  0  2  0  0  0  0  0  0
  -26.0410  -29.4130   20.8030 C   0  0  0  0  0  0  0  0  0  0  0  0
  -27.2300  -28.6210   20.7990 C   0  0  0  0  0  3  0  0  0  0  0  0
  -26.0530  -26.8550   19.6270 C   0  0  0  0  0  3  0  0  0  0  0  0
  -24.8830  -27.6410   19.6110 C   0  0  0  0  0  3  0  0  0  0  0  0
  -23.6370  -29.7910   20.2400 C   0  0  0  0  0  2  0  0  0  0  0  0
  -24.6760  -31.0700   22.1600 N   0  0  0  0  0  0  0  0  0  0  0  0
  -23.5180  -32.1590   23.7840 O   0  0  0  0  0  0  0  0  0  0  0  0
  -22.7470  -29.4620   22.5740 C   0  0  0  0  0  0  0  0  0  0  0  0
  -21.4220  -29.2820   22.4400 N   0  0  0  0  0  0  0  0  0  0  0  0
  -23.4200  -28.8400   23.4000 O   0  0  0  0  0  0  0  0  0  0  0  0
  -20.9360  -29.8360   21.7480 H   0  0  0  0  0  0  0  0  0  0  0  0
  -18.0440  -28.0770   22.9190 C   0  0  0  0  0  0  0  0  0  0  0  0
  -20.6000  -28.3450   23.2070 C   0  0  0  0  0  3  0  0  0  0  0  0
  -20.7100  -26.9130   22.6350 C   0  0  0  0  0  2  0  0  0  0  0  0
  -19.6160  -26.5830   21.6140 C   0  0  0  0  0  2  0  0  0  0  0  0
  -18.2290  -26.7270   22.2480 C   0  0  0  0  0  2  0  0  0  0  0  0
  -19.1580  -28.8440   23.3560 C   0  0  0  0  0  0  0  0  0  0  0  0
  -18.9310  -30.1080   23.9430 C   0  0  0  0  0  3  0  0  0  0  0  0
  -17.6240  -30.6060   24.0990 C   0  0  0  0  0  3  0  0  0  0  0  0
  -16.5250  -29.8360   23.6800 C   0  0  0  0  0  3  0  0  0  0  0  0
  -16.7350  -28.5740   23.0960 C   0  0  0  0  0  3  0  0  0  0  0  0
  -25.8820  -32.5200   23.8870 C   0  0  0  0  0  3  0  0  0  0  0  0
  -26.3870  -31.7570   25.1740 C   0  0  1  0  0  0  0  0  0  0  0  0
  -25.2840  -31.5300   26.2340 C   0  0  0  0  0  1  0  0  0  0  0  0
  -26.9710  -30.3770   24.7960 C   0  0  0  0  0  1  0  0  0  0  0  0
  -27.5340  -32.5540   25.8390 C   0  0  0  0  0  1  0  0  0  0  0  0
  -25.5700  -33.9200   24.2070 N   0  0  0  0  0  0  0  0  0  0  0  0
  -25.9070  -34.9690   23.4450 C   0  0  0  0  0  0  0  0  0  0  0  0
  -26.5830  -34.8590   22.4180 O   0  0  0  0  0  0  0  0  0  0  0  0
  -24.9760  -34.0790   25.0080 H   0  0  0  0  0  0  0  0  0  0  0  0
  -24.1830  -36.7620   23.0710 C   0  0  0  0  0  1  0  0  0  0  0  0
  -25.4190  -36.3620   23.8920 C   0  0  0  0  0  3  0  0  0  0  0  0
  -27.5500  -37.2480   24.7310 C   0  0  0  0  0  1  0  0  0  0  0  0
  -26.4550  -37.4130   23.7790 N   0  0  0  0  0  0  0  0  0  0  0  0
  -26.0480  -38.3340   23.9180 H   0  0  0  0  0  0  0  0  0  0  0  0
  1 11  1  0
  1 49  1  0
  2  1  2  0
  3 15  1  0
  4  9  1  0
  5  6  1  0
  5  4  1  0
  7  6  1  0
  7 21  1  0
  7  8  1  0
  9  3  1  0
  9  8  1  0
 10  3  2  0
 11 14  1  0
 11 12  2  0
 12 46  1  0
 12 16  1  0
 13 15  1  0
 13 16  1  0
 14 13  2  0
 15 17  1  0
 18 19  2  0
 19 38  1  0
 20 19  1  0
 20 23  1  0
 21 18  1  0
 21 22  1  0
 22 20  2  0
 23 24  1  0
 24 25  2  0
 26 29  1  0
 26 25  1  0
 27 26  2  0
 28 27  1  0
 28 23  2  0
 29 30  1  0
 30 31  1  0
 31 32  2  0
 33 32  1  0
 33 37  1  0
 34 33  2  0
 35 30  2  0
 35 34  1  0
 36 35  1  0
 38 39  1  0
 39 42  1  0
 39 41  1  0
 40 38  2  0
 43 44  1  0
 43 18  1  0
 45 43  1  0
 46 48  1  0
 46 47  1  0
 49 50  2  0
 51 49  1  0
 51 52  1  0
 53 55  1  0
 53 52  1  0
 54 65  2  0
 55 60  1  0
 56 64  1  0
 56 66  1  0
 57 63  1  0
 57 59  1  0
 58 64  1  0
 59 58  1  0
 60 59  2  0
 61 55  2  0
 62 61  1  0
 62 57  2  0
 63 56  1  0
 64 54  1  0
 66 68  2  0
 67 66  1  0
 69 67  1  0
 70 79  2  0
 70 75  1  0
 71 67  1  0
 71 75  1  0
 72 71  1  0
 73 74  1  0
 73 72  1  0
 74 70  1  0
 75 76  2  0
 76 77  1  0
 78 77  2  0
 79 78  1  0
 80 54  1  0
 80 85  1  0
 80 81  1  0
 81 84  1  1
 81 82  1  0
 83 81  1  0
 85 88  1  0
 86 90  1  0
 86 85  1  0
 87 86  2  0
 90 89  1  0
 92 90  1  0
 92 93  1  0
 92 91  1  0
M  ISO  4   3 100  15 100  52 101  53 101
M  END
>  <TORSDO>  (61) 
F 20

>  <SCORE>  (61) 
-14.166

>  <name>  (61) 
60

>  <ligand_id>  (61) 
60

>  <original_smiles>  (61) 
[H]c1c([H])c([H])c2c(c1[H])C([H])([H])C([H])([H])C([H])([H])C2([H])N([H])C(=O)C1([H])N(C(=O)C([H])(N([H])C(=O)C([H])(N([H])C([H])([H])[H])C([H])([H])[H])C(C([H])([H])[H])(C([H])([H])[H])C([H])([H])[H])C([H])([H])c2c([H])c(OC([H])([H])C([H])([H])C(=O)C(=O)c3nc(N([H])C(=O)N4C([H])([H])C([H])([H])C([H])([H])C([H])(n5nc(-c6c([H])c([H])c(Oc7c([H])c([H])c(F)c([H])c7F)c([H])c6[H])c(C(=O)N([H])[H])c5N([H])[H])C4([H])[H])sc3N([H])[H])c([H])c([H])c2C1([H])[H]

>  <smiles>  (61) 
[H]c1c([H])c([H])c2c(c1[H])C([H])([H])C([H])([H])C([H])([H])C2([H])N([H])C(=O)C1([H])N(C(=O)C([H])(N([H])C(=O)C([H])(N([H])C([H])([H])[H])C([H])([H])[H])C(C([H])([H])[H])(C([H])([H])[H])C([H])([H])[H])C([H])([H])c2c([H])c(OC([H])([H])C([H])([H])C(=O)C(=O)c3nc(N([H])C(=O)N4C([H])([H])C([H])([H])C([H])([H])C([H])(n5nc(-c6c([H])c([H])c(Oc7c([H])c([H])c(F)c([H])c7F)c([H])c6[H])c(C(=O)N([H])[H])c5N([H])[H])C4([H])[H])sc3N([H])[H])c([H])c([H])c2C1([H])[H]

$$$$
61:0:0
     RDKit          3D

 94102  0  0  1  0  0  0  0  0999 V2000
  -28.9910  -22.7510   20.0800 C   0  0  0  0  0  0  0  0  0  0  0  0
  -28.8940  -21.4040   20.4820 N   0  0  0  0  0  0  0  0  0  0  0  0
  -29.6230  -23.0900   19.0780 O   0  0  0  0  0  0  0  0  0  0  0  0
  -28.2560  -21.3900   21.2700 H   0  0  0  0  0  0  0  0  0  0  0  0
  -30.6290  -14.9040   19.9480 C   0  0  0  0  0  0  0  0  0  0  0  0
  -30.4160  -12.6090   18.9410 C   0  0  0  0  0  2  0  0  0  0  0  0
  -29.4010  -12.6690   17.7770 C   0  0  0  0  0  2  0  0  0  0  0  0
  -27.9630  -12.4690   18.2920 C   0  0  0  0  0  2  0  0  0  0  0  0
  -27.6550  -13.3390   19.5410 C   0  0  0  0  0  3  0  0  0  0  0  0
  -28.7850  -13.2560   20.5920 C   0  0  0  0  0  2  0  0  0  0  0  0
  -30.0380  -13.6510   19.9310 N   0  0  0  0  0  0  0  0  0  0  0  0
  -31.7770  -15.0270   19.5090 O   0  0  0  0  0  0  0  0  0  0  0  0
  -30.4000  -19.6380   19.3170 C   0  0  0  0  0  0  0  0  0  0  0  0
  -29.3980  -20.1130   20.1640 C   0  0  0  0  0  0  0  0  0  0  0  0
  -29.8760  -17.4860   20.1660 C   0  0  0  0  0  0  0  0  0  0  0  0
  -31.2370  -20.4820   18.4020 C   0  0  0  0  0  1  0  0  0  0  0  0
  -30.6520  -18.2160   19.3360 N   0  0  0  0  0  0  0  0  0  0  0  0
  -29.8470  -15.9920   20.3400 N   0  0  0  0  0  0  0  0  0  0  0  0
  -28.7540  -18.6420   20.9850 S   0  0  0  0  0  0  0  0  0  0  0  0
  -29.0100  -15.6770   20.8040 H   0  0  0  0  0  0  0  0  0  0  0  0
  -25.3160  -13.8990   20.4340 C   0  0  0  0  0  0  0  0  0  0  0  0
  -24.2780  -13.1110   20.8530 C   0  0  0  0  0  0  0  0  0  0  0  0
  -24.7410  -11.7640   20.7540 C   0  0  0  0  0  0  0  0  0  0  0  0
  -26.3460  -13.0310   20.1090 N   0  0  0  0  0  0  0  0  0  0  0  0
  -26.0100  -11.7390   20.3620 N   0  0  0  0  0  0  0  0  0  0  0  0
  -24.0300  -10.4940   20.9550 C   0  0  0  0  0  0  0  0  0  0  0  0
  -24.4880   -9.5280   21.8780 C   0  0  0  0  0  3  0  0  0  0  0  0
  -23.7760   -8.3240   22.0670 C   0  0  0  0  0  3  0  0  0  0  0  0
  -22.5910   -8.0770   21.3350 C   0  0  0  0  0  0  0  0  0  0  0  0
  -22.1520   -9.0310   20.3990 C   0  0  0  0  0  3  0  0  0  0  0  0
  -22.8640  -10.2270   20.2080 C   0  0  0  0  0  3  0  0  0  0  0  0
  -21.8480   -6.9260   21.4350 O   0  0  0  0  0  0  0  0  0  0  0  0
  -21.7880   -6.2070   22.6030 C   0  0  0  0  0  0  0  0  0  0  0  0
  -21.3040   -6.7720   23.8020 C   0  0  0  0  0  3  0  0  0  0  0  0
  -21.1950   -5.9770   24.9610 C   0  0  0  0  0  3  0  0  0  0  0  0
  -21.5590   -4.6180   24.9200 C   0  0  0  0  0  0  0  0  0  0  0  0
  -22.0360   -4.0530   23.7250 C   0  0  0  0  0  3  0  0  0  0  0  0
  -22.1470   -4.8440   22.5680 C   0  0  0  0  0  0  0  0  0  0  0  0
  -22.5880   -4.2890   21.4150 F   0  0  0  0  0  0  0  0  0  0  0  0
  -21.4480   -3.8530   26.0320 F   0  0  0  0  0  0  0  0  0  0  0  0
  -22.9000  -13.5760   21.2280 C   0  0  0  0  0  0  0  0  0  0  0  0
  -22.2280  -12.8500   22.1130 N   0  0  0  0  0  0  0  0  0  0  0  0
  -22.4320  -14.6190   20.7700 O   0  0  0  0  0  0  0  0  0  0  0  0
  -22.6210  -12.0080   22.5050 H   0  0  0  0  0  0  0  0  0  0  0  0
  -21.3040  -13.1400   22.4020 H   0  0  0  0  0  0  0  0  0  0  0  0
  -25.4670  -15.2730   20.2790 N   0  0  0  0  0  0  0  0  0  0  0  0
  -24.6970  -15.9170   20.4250 H   0  0  0  0  0  0  0  0  0  0  0  0
  -26.2750  -15.7140   19.8590 H   0  0  0  0  0  0  0  0  0  0  0  0
  -28.2410  -23.7080   21.0050 C   0  0  0  0  0  0  0  0  0  0  0  0
  -28.0190  -25.1140   21.1070 C   0  0  0  0  0  0  0  0  0  0  0  0
  -27.2510  -25.5870   22.3630 C   0  0  0  0  0  1  0  0  0  0  0  0
  -27.6310  -23.0090   21.9830 O   0  0  0  0  0  0  0  0  0  0  0  0
  -27.1810  -23.6440   22.5250 H   0  0  0  0  0  0  0  0  0  0  0  0
  -28.3530  -26.2890   20.3270 O   0  0  0  0  0  0  0  0  0  0  0  0
  -24.6460  -31.8950   23.2030 C   0  0  0  0  0  0  0  0  0  0  0  0
  -27.3490  -27.3000   20.1810 C   0  0  0  0  0  0  0  0  0  0  0  0
  -23.4950  -30.4930   21.5310 C   0  0  0  0  0  3  0  0  0  0  0  0
  -24.9930  -28.9620   20.1170 C   0  0  0  0  0  0  0  0  0  0  0  0
  -26.0410  -30.8160   21.4110 C   0  0  0  0  0  2  0  0  0  0  0  0
  -26.1520  -29.4380   20.7470 C   0  0  0  0  0  0  0  0  0  0  0  0
  -27.3370  -28.6210   20.7650 C   0  0  0  0  0  3  0  0  0  0  0  0
  -26.1740  -26.9120   19.5050 C   0  0  0  0  0  3  0  0  0  0  0  0
  -25.0130  -27.7120   19.4800 C   0  0  0  0  0  3  0  0  0  0  0  0
  -23.7470  -29.8290   20.1520 C   0  0  0  0  0  2  0  0  0  0  0  0
  -24.7450  -31.0870   22.1050 N   0  0  0  0  0  0  0  0  0  0  0  0
  -23.5460  -32.1620   23.7120 O   0  0  0  0  0  0  0  0  0  0  0  0
  -22.8140  -29.4700   22.4740 C   0  0  0  0  0  0  0  0  0  0  0  0
  -21.4880  -29.2990   22.3320 N   0  0  0  0  0  0  0  0  0  0  0  0
  -23.4800  -28.8350   23.2960 O   0  0  0  0  0  0  0  0  0  0  0  0
  -21.0110  -29.8670   21.6450 H   0  0  0  0  0  0  0  0  0  0  0  0
  -18.0990  -28.0990   22.7890 C   0  0  0  0  0  0  0  0  0  0  0  0
  -20.6570  -28.3520   23.0800 C   0  0  0  0  0  3  0  0  0  0  0  0
  -20.7600  -26.9290   22.4860 C   0  0  0  0  0  2  0  0  0  0  0  0
  -19.6660  -26.6230   21.4570 C   0  0  0  0  0  2  0  0  0  0  0  0
  -18.2800  -26.7600   22.0930 C   0  0  0  0  0  2  0  0  0  0  0  0
  -19.2160  -28.8540   23.2380 C   0  0  0  0  0  0  0  0  0  0  0  0
  -18.9950  -30.1060   23.8500 C   0  0  0  0  0  3  0  0  0  0  0  0
  -17.6900  -30.6050   24.0160 C   0  0  0  0  0  3  0  0  0  0  0  0
  -16.5880  -29.8480   23.5830 C   0  0  0  0  0  3  0  0  0  0  0  0
  -16.7930  -28.5960   22.9760 C   0  0  0  0  0  3  0  0  0  0  0  0
  -25.9040  -32.5410   23.8590 C   0  0  0  0  0  3  0  0  0  0  0  0
  -25.5740  -33.9390   24.1730 N   0  0  0  0  0  0  0  0  0  0  0  0
  -25.9160  -34.9940   23.4210 C   0  0  0  0  0  0  0  0  0  0  0  0
  -26.6090  -34.8930   22.4050 O   0  0  0  0  0  0  0  0  0  0  0  0
  -24.9550  -34.0910   24.9570 H   0  0  0  0  0  0  0  0  0  0  0  0
  -24.1860  -36.7790   23.0250 C   0  0  0  0  0  1  0  0  0  0  0  0
  -25.4110  -36.3820   23.8630 C   0  0  0  0  0  3  0  0  0  0  0  0
  -27.5180  -37.2840   24.7450 C   0  0  0  0  0  1  0  0  0  0  0  0
  -26.4410  -37.4410   23.7710 N   0  0  0  0  0  0  0  0  0  0  0  0
  -26.0280  -38.3600   23.9050 H   0  0  0  0  0  0  0  0  0  0  0  0
  -26.3850  -31.7830   25.1580 C   0  0  1  0  0  0  0  0  0  0  0  0
  -25.2600  -31.5490   26.1950 C   0  0  0  0  0  1  0  0  0  0  0  0
  -26.9840  -30.4030   24.8000 C   0  0  0  0  0  1  0  0  0  0  0  0
  -27.5090  -32.5900   25.8510 C   0  0  0  0  0  1  0  0  0  0  0  0
  1  2  1  0
  1 49  1  0
  2  4  1  0
  3  1  2  0
  5 18  1  0
  6 11  1  0
  7  8  1  0
  7  6  1  0
  9  8  1  0
  9 24  1  0
  9 10  1  0
 11  5  1  0
 11 10  1  0
 12  5  2  0
 13 17  1  0
 13 14  2  0
 14  2  1  0
 14 19  1  0
 15 18  1  0
 15 19  1  0
 16 13  1  0
 17 15  2  0
 18 20  1  0
 21 22  2  0
 22 41  1  0
 23 22  1  0
 23 26  1  0
 24 25  1  0
 24 21  1  0
 25 23  2  0
 26 27  1  0
 27 28  2  0
 29 32  1  0
 29 28  1  0
 30 29  2  0
 31 30  1  0
 31 26  2  0
 32 33  1  0
 33 34  1  0
 34 35  2  0
 36 35  1  0
 36 40  1  0
 37 36  2  0
 38 33  2  0
 38 37  1  0
 39 38  1  0
 41 42  1  0
 42 45  1  0
 42 44  1  0
 43 41  2  0
 46 47  1  0
 46 21  1  0
 48 46  1  0
 49 50  2  0
 49 52  1  0
 50 51  1  0
 52 53  1  0
 54 50  1  0
 55 66  2  0
 56 54  1  0
 56 61  1  0
 57 65  1  0
 57 67  1  0
 58 64  1  0
 58 60  1  0
 59 65  1  0
 60 61  2  0
 60 59  1  0
 62 56  2  0
 63 62  1  0
 63 58  2  0
 64 57  1  0
 65 55  1  0
 67 69  2  0
 68 67  1  0
 70 68  1  0
 71 80  2  0
 71 76  1  0
 72 68  1  0
 72 76  1  0
 73 72  1  0
 74 75  1  0
 74 73  1  0
 75 71  1  0
 76 77  2  0
 77 78  1  0
 79 78  2  0
 80 79  1  0
 81 55  1  0
 81 82  1  0
 81 91  1  0
 82 85  1  0
 83 87  1  0
 83 82  1  0
 84 83  2  0
 87 86  1  0
 89 87  1  0
 89 90  1  0
 89 88  1  0
 91 94  1  1
 91 92  1  0
 93 91  1  0
M  ISO  4   5 100  18 100  50 101  54 101
M  END
>  <TORSDO>  (62) 
F 18

>  <SCORE>  (62) 
-14.615

>  <name>  (62) 
61

>  <ligand_id>  (62) 
61

>  <original_smiles>  (62) 
[H]OC(C(=O)N([H])c1sc(N([H])C(=O)N2C([H])([H])C([H])([H])C([H])([H])C([H])(n3nc(-c4c([H])c([H])c(Oc5c([H])c([H])c(F)c([H])c5F)c([H])c4[H])c(C(=O)N([H])[H])c3N([H])[H])C2([H])[H])nc1C([H])([H])[H])=C(Oc1c([H])c([H])c2c(c1[H])C([H])([H])N(C(=O)C([H])(N([H])C(=O)C([H])(N([H])C([H])([H])[H])C([H])([H])[H])C(C([H])([H])[H])(C([H])([H])[H])C([H])([H])[H])C([H])(C(=O)N([H])C1([H])c3c([H])c([H])c([H])c([H])c3C([H])([H])C([H])([H])C1([H])[H])C2([H])[H])C([H])([H])[H]

>  <smiles>  (62) 
[H]OC(C(=O)N([H])c1sc(N([H])C(=O)N2C([H])([H])C([H])([H])C([H])([H])C([H])(n3nc(-c4c([H])c([H])c(Oc5c([H])c([H])c(F)c([H])c5F)c([H])c4[H])c(C(=O)N([H])[H])c3N([H])[H])C2([H])[H])nc1C([H])([H])[H])=C(Oc1c([H])c([H])c2c(c1[H])C([H])([H])N(C(=O)C([H])(N([H])C(=O)C([H])(N([H])C([H])([H])[H])C([H])([H])[H])C(C([H])([H])[H])(C([H])([H])[H])C([H])([H])[H])C([H])(C(=O)N([H])C1([H])c3c([H])c([H])c([H])c([H])c3C([H])([H])C([H])([H])C1([H])[H])C2([H])[H])C([H])([H])[H]

$$$$
62:0:0
     RDKit          3D

 95103  0  0  1  0  0  0  0  0999 V2000
  -28.4060  -22.2220   20.3340 C   0  0  0  0  0  0  0  0  0  0  0  0
  -29.2390  -21.4830   19.5920 N   0  0  0  0  0  0  0  0  0  0  0  0
  -27.3370  -21.7870   20.7690 O   0  0  0  0  0  0  0  0  0  0  0  0
  -30.0850  -21.9290   19.2680 H   0  0  0  0  0  0  0  0  0  0  0  0
  -28.8940  -23.5840   20.5090 C   0  0  0  0  0  3  0  0  0  0  0  0
  -28.1930  -24.5590   21.1340 C   0  0  0  0  0  0  0  0  0  0  0  0
  -26.9800  -24.4000   21.6900 O   0  0  0  0  0  0  0  0  0  0  0  0
  -26.7260  -23.4910   21.5520 H   0  0  0  0  0  0  0  0  0  0  0  0
  -28.6790  -25.9890   21.3180 C   0  0  0  0  0  2  0  0  0  0  0  0
  -28.4230  -26.7740   20.1580 O   0  0  0  0  0  0  0  0  0  0  0  0
  -24.5720  -31.9000   23.2500 C   0  0  0  0  0  0  0  0  0  0  0  0
  -27.2520  -27.4870   20.1970 C   0  0  0  0  0  0  0  0  0  0  0  0
  -23.3770  -30.4910   21.6030 C   0  0  0  0  0  3  0  0  0  0  0  0
  -24.8460  -28.9540   20.1930 C   0  0  0  0  0  0  0  0  0  0  0  0
  -25.8980  -30.8670   21.4150 C   0  0  0  0  0  2  0  0  0  0  0  0
  -25.9950  -29.4930   20.7870 C   0  0  0  0  0  0  0  0  0  0  0  0
  -27.2020  -28.7640   20.7920 C   0  0  0  0  0  3  0  0  0  0  0  0
  -26.0940  -26.9520   19.5980 C   0  0  0  0  0  3  0  0  0  0  0  0
  -24.8870  -27.6790   19.5990 C   0  0  0  0  0  3  0  0  0  0  0  0
  -23.5950  -29.8040   20.2280 C   0  0  0  0  0  2  0  0  0  0  0  0
  -24.6340  -31.1010   22.1490 N   0  0  0  0  0  0  0  0  0  0  0  0
  -23.4880  -32.1700   23.7850 O   0  0  0  0  0  0  0  0  0  0  0  0
  -22.7240  -29.4710   22.5630 C   0  0  0  0  0  0  0  0  0  0  0  0
  -21.4000  -29.2920   22.4330 N   0  0  0  0  0  0  0  0  0  0  0  0
  -23.4060  -28.8430   23.3770 O   0  0  0  0  0  0  0  0  0  0  0  0
  -20.9120  -29.8490   21.7460 H   0  0  0  0  0  0  0  0  0  0  0  0
  -18.0190  -28.1260   22.9410 C   0  0  0  0  0  0  0  0  0  0  0  0
  -20.5800  -28.3560   23.2010 C   0  0  0  0  0  3  0  0  0  0  0  0
  -20.6660  -26.9290   22.6120 C   0  0  0  0  0  2  0  0  0  0  0  0
  -19.5550  -26.6260   21.6010 C   0  0  0  0  0  2  0  0  0  0  0  0
  -18.1790  -26.7800   22.2540 C   0  0  0  0  0  2  0  0  0  0  0  0
  -19.1480  -28.8730   23.3700 C   0  0  0  0  0  0  0  0  0  0  0  0
  -18.9450  -30.1350   23.9700 C   0  0  0  0  0  3  0  0  0  0  0  0
  -17.6480  -30.6500   24.1450 C   0  0  0  0  0  3  0  0  0  0  0  0
  -16.5330  -29.8990   23.7330 C   0  0  0  0  0  3  0  0  0  0  0  0
  -16.7200  -28.6400   23.1370 C   0  0  0  0  0  3  0  0  0  0  0  0
  -25.8540  -32.5350   23.8760 C   0  0  0  0  0  3  0  0  0  0  0  0
  -26.3680  -31.7680   25.1560 C   0  0  1  0  0  0  0  0  0  0  0  0
  -25.2700  -31.5280   26.2180 C   0  0  0  0  0  1  0  0  0  0  0  0
  -26.9580  -30.3920   24.7670 C   0  0  0  0  0  1  0  0  0  0  0  0
  -27.5130  -32.5660   25.8210 C   0  0  0  0  0  1  0  0  0  0  0  0
  -25.5450  -33.9340   24.1950 N   0  0  0  0  0  0  0  0  0  0  0  0
  -25.8850  -34.9810   23.4320 C   0  0  0  0  0  0  0  0  0  0  0  0
  -26.5650  -34.8710   22.4090 O   0  0  0  0  0  0  0  0  0  0  0  0
  -24.9450  -34.0950   24.9910 H   0  0  0  0  0  0  0  0  0  0  0  0
  -24.1680  -36.7750   23.0400 C   0  0  0  0  0  1  0  0  0  0  0  0
  -25.3930  -36.3720   23.8760 C   0  0  0  0  0  3  0  0  0  0  0  0
  -27.5120  -37.2560   24.7440 C   0  0  0  0  0  1  0  0  0  0  0  0
  -26.4300  -37.4220   23.7780 N   0  0  0  0  0  0  0  0  0  0  0  0
  -26.0230  -38.3440   23.9130 H   0  0  0  0  0  0  0  0  0  0  0  0
  -28.9400  -20.1630   19.0370 C   0  0  0  0  0  2  0  0  0  0  0  0
  -30.7090  -14.4750   20.5380 C   0  0  0  0  0  0  0  0  0  0  0  0
  -30.4060  -12.3380   19.3540 C   0  0  0  0  0  2  0  0  0  0  0  0
  -29.4800  -12.5780   18.1440 C   0  0  0  0  0  2  0  0  0  0  0  0
  -27.9990  -12.4530   18.5530 C   0  0  0  0  0  2  0  0  0  0  0  0
  -27.6570  -13.2750   19.8240 C   0  0  0  0  0  3  0  0  0  0  0  0
  -28.6940  -13.0110   20.9410 C   0  0  0  0  0  2  0  0  0  0  0  0
  -30.0350  -13.3030   20.3990 N   0  0  0  0  0  0  0  0  0  0  0  0
  -31.8280  -14.6650   20.0480 O   0  0  0  0  0  0  0  0  0  0  0  0
  -30.8660  -18.8250   20.1740 C   0  0  0  0  0  0  0  0  0  0  0  0
  -29.5580  -19.0060   19.7740 C   0  0  0  0  0  0  0  0  0  0  0  0
  -30.0200  -16.7920   20.7420 C   0  0  0  0  0  0  0  0  0  0  0  0
  -32.0040  -19.7880   20.0230 C   0  0  0  0  0  1  0  0  0  0  0  0
  -31.1110  -17.5650   20.7380 N   0  0  0  0  0  0  0  0  0  0  0  0
  -30.0230  -15.4440   21.1600 N   0  0  0  0  0  0  0  0  0  0  0  0
  -28.5810  -17.6050   20.1530 S   0  0  0  0  0  0  0  0  0  0  0  0
  -29.1490  -15.1200   21.5410 H   0  0  0  0  0  0  0  0  0  0  0  0
  -25.2480  -13.8970   20.4870 C   0  0  0  0  0  0  0  0  0  0  0  0
  -24.1720  -13.1290   20.8450 C   0  0  0  0  0  0  0  0  0  0  0  0
  -24.6290  -11.7760   20.8290 C   0  0  0  0  0  0  0  0  0  0  0  0
  -26.2950  -13.0100   20.2810 N   0  0  0  0  0  0  0  0  0  0  0  0
  -25.9230  -11.7300   20.5410 N   0  0  0  0  0  0  0  0  0  0  0  0
  -23.8970  -10.5170   21.0160 C   0  0  0  0  0  0  0  0  0  0  0  0
  -24.3080   -9.5570   21.9670 C   0  0  0  0  0  3  0  0  0  0  0  0
  -23.5760   -8.3620   22.1400 C   0  0  0  0  0  3  0  0  0  0  0  0
  -22.4200   -8.1190   21.3620 C   0  0  0  0  0  0  0  0  0  0  0  0
  -22.0280   -9.0660   20.4010 C   0  0  0  0  0  3  0  0  0  0  0  0
  -22.7600  -10.2530   20.2250 C   0  0  0  0  0  3  0  0  0  0  0  0
  -21.6620   -6.9750   21.4440 O   0  0  0  0  0  0  0  0  0  0  0  0
  -21.5840   -6.2460   22.6040 C   0  0  0  0  0  0  0  0  0  0  0  0
  -21.1140   -6.8120   23.8090 C   0  0  0  0  0  3  0  0  0  0  0  0
  -20.9840   -6.0080   24.9600 C   0  0  0  0  0  3  0  0  0  0  0  0
  -21.3100   -4.6410   24.9060 C   0  0  0  0  0  0  0  0  0  0  0  0
  -21.7730   -4.0740   23.7040 C   0  0  0  0  0  3  0  0  0  0  0  0
  -21.9050   -4.8740   22.5560 C   0  0  0  0  0  0  0  0  0  0  0  0
  -22.3310   -4.3190   21.3950 F   0  0  0  0  0  0  0  0  0  0  0  0
  -21.1780   -3.8660   26.0080 F   0  0  0  0  0  0  0  0  0  0  0  0
  -22.7720  -13.6120   21.0940 C   0  0  0  0  0  0  0  0  0  0  0  0
  -22.0290  -12.9190   21.9510 N   0  0  0  0  0  0  0  0  0  0  0  0
  -22.3440  -14.6370   20.5660 O   0  0  0  0  0  0  0  0  0  0  0  0
  -22.3860  -12.0880   22.3980 H   0  0  0  0  0  0  0  0  0  0  0  0
  -21.0890  -13.2240   22.1620 H   0  0  0  0  0  0  0  0  0  0  0  0
  -25.4190  -15.2650   20.3030 N   0  0  0  0  0  0  0  0  0  0  0  0
  -24.6500  -15.9200   20.3890 H   0  0  0  0  0  0  0  0  0  0  0  0
  -26.2690  -15.6960   19.9610 H   0  0  0  0  0  0  0  0  0  0  0  0
  1  5  1  0
  1  3  2  0
  2  1  1  0
  4  2  1  0
  5  6  2  0
  6  9  1  0
  6  7  1  0
  8  7  1  0
 10 12  1  0
 10  9  1  0
 11 22  2  0
 12 17  1  0
 13 21  1  0
 13 23  1  0
 14 20  1  0
 14 16  1  0
 15 21  1  0
 16 17  2  0
 16 15  1  0
 18 19  1  0
 18 12  2  0
 19 14  2  0
 20 13  1  0
 21 11  1  0
 23 25  2  0
 24 23  1  0
 26 24  1  0
 27 36  2  0
 27 32  1  0
 28 24  1  0
 28 32  1  0
 29 28  1  0
 30 31  1  0
 30 29  1  0
 31 27  1  0
 32 33  2  0
 33 34  1  0
 35 34  2  0
 36 35  1  0
 37 11  1  0
 37 42  1  0
 37 38  1  0
 38 41  1  1
 38 39  1  0
 40 38  1  0
 42 45  1  0
 43 47  1  0
 43 42  1  0
 44 43  2  0
 47 46  1  0
 49 47  1  0
 49 50  1  0
 49 48  1  0
 51  2  1  0
 51 61  1  0
 52 65  1  0
 53 58  1  0
 54 55  1  0
 54 53  1  0
 56 55  1  0
 56 71  1  0
 56 57  1  0
 58 52  1  0
 58 57  1  0
 59 52  2  0
 60 64  1  0
 61 66  1  0
 61 60  2  0
 62 65  1  0
 63 60  1  0
 64 62  2  0
 65 67  1  0
 66 62  1  0
 68 69  2  0
 69 88  1  0
 70 69  1  0
 70 73  1  0
 71 68  1  0
 71 72  1  0
 72 70  2  0
 73 74  1  0
 74 75  2  0
 76 79  1  0
 76 75  1  0
 77 76  2  0
 78 77  1  0
 78 73  2  0
 79 80  1  0
 80 81  1  0
 81 82  2  0
 83 82  1  0
 83 87  1  0
 84 83  2  0
 85 80  2  0
 85 84  1  0
 86 85  1  0
 88 89  1  0
 89 92  1  0
 89 91  1  0
 90 88  2  0
 93 94  1  0
 93 68  1  0
 95 93  1  0
M  ISO  4   9 101  10 101  52 100  65 100
M  END
>  <TORSDO>  (63) 
F 20

>  <SCORE>  (63) 
-14.276

>  <name>  (63) 
62

>  <ligand_id>  (63) 
62

>  <original_smiles>  (63) 
[H]OC(=C([H])C(=O)N([H])C([H])([H])c1sc(N([H])C(=O)N2C([H])([H])C([H])([H])C([H])([H])C([H])(n3nc(-c4c([H])c([H])c(Oc5c([H])c([H])c(F)c([H])c5F)c([H])c4[H])c(C(=O)N([H])[H])c3N([H])[H])C2([H])[H])nc1C([H])([H])[H])C([H])([H])Oc1c([H])c([H])c2c(c1[H])C([H])([H])N(C(=O)C([H])(N([H])C(=O)C([H])(N([H])C([H])([H])[H])C([H])([H])[H])C(C([H])([H])[H])(C([H])([H])[H])C([H])([H])[H])C([H])(C(=O)N([H])C1([H])c3c([H])c([H])c([H])c([H])c3C([H])([H])C([H])([H])C1([H])[H])C2([H])[H]

>  <smiles>  (63) 
[H]OC(=C([H])C(=O)N([H])C([H])([H])c1sc(N([H])C(=O)N2C([H])([H])C([H])([H])C([H])([H])C([H])(n3nc(-c4c([H])c([H])c(Oc5c([H])c([H])c(F)c([H])c5F)c([H])c4[H])c(C(=O)N([H])[H])c3N([H])[H])C2([H])[H])nc1C([H])([H])[H])C([H])([H])Oc1c([H])c([H])c2c(c1[H])C([H])([H])N(C(=O)C([H])(N([H])C(=O)C([H])(N([H])C([H])([H])[H])C([H])([H])[H])C(C([H])([H])[H])(C([H])([H])[H])C([H])([H])[H])C([H])(C(=O)N([H])C1([H])c3c([H])c([H])c([H])c([H])c3C([H])([H])C([H])([H])C1([H])[H])C2([H])[H]

$$$$
63:0:0
     RDKit          3D

 95103  0  0  1  0  0  0  0  0999 V2000
  -30.1670  -18.0650   21.5040 C   0  0  0  0  0  0  0  0  0  0  0  0
  -29.5530  -17.5730   20.3560 C   0  0  0  0  0  0  0  0  0  0  0  0
  -29.0540  -19.9620   20.1950 C   0  0  0  0  0  0  0  0  0  0  0  0
  -28.2290  -22.4750   20.2990 C   0  0  0  0  0  0  0  0  0  0  0  0
  -28.9300  -18.6930   19.6360 N   0  0  0  0  0  0  0  0  0  0  0  0
  -28.6060  -21.2920   19.6410 N   0  0  0  0  0  0  0  0  0  0  0  0
  -27.9460  -22.4180   21.4980 O   0  0  0  0  0  0  0  0  0  0  0  0
  -29.9890  -19.8270   21.6780 S   0  0  0  0  0  0  0  0  0  0  0  0
  -28.6550  -21.3800   18.6370 H   0  0  0  0  0  0  0  0  0  0  0  0
  -30.2550  -15.0030   19.8900 C   0  0  0  0  0  0  0  0  0  0  0  0
  -30.1500  -12.6820   18.9020 C   0  0  0  0  0  2  0  0  0  0  0  0
  -29.1110  -12.6390   17.7590 C   0  0  0  0  0  2  0  0  0  0  0  0
  -27.6970  -12.3670   18.3110 C   0  0  0  0  0  2  0  0  0  0  0  0
  -27.3590  -13.2470   19.5440 C   0  0  0  0  0  3  0  0  0  0  0  0
  -28.5110  -13.2720   20.5720 C   0  0  0  0  0  2  0  0  0  0  0  0
  -29.7110  -13.7280   19.8600 N   0  0  0  0  0  0  0  0  0  0  0  0
  -31.4230  -15.1560   19.5190 O   0  0  0  0  0  0  0  0  0  0  0  0
  -29.3860  -16.0990   20.0570 N   0  0  0  0  0  0  0  0  0  0  0  0
  -28.4230  -15.8080   20.0510 H   0  0  0  0  0  0  0  0  0  0  0  0
  -25.0390  -13.7060   20.5290 C   0  0  0  0  0  0  0  0  0  0  0  0
  -24.0400  -12.8750   20.9570 C   0  0  0  0  0  0  0  0  0  0  0  0
  -24.5430  -11.5460   20.8140 C   0  0  0  0  0  0  0  0  0  0  0  0
  -26.0830  -12.8800   20.1480 N   0  0  0  0  0  0  0  0  0  0  0  0
  -25.7990  -11.5730   20.3830 N   0  0  0  0  0  0  0  0  0  0  0  0
  -23.8790  -10.2500   21.0050 C   0  0  0  0  0  0  0  0  0  0  0  0
  -24.3420   -9.3160   21.9580 C   0  0  0  0  0  3  0  0  0  0  0  0
  -23.6750   -8.0850   22.1380 C   0  0  0  0  0  3  0  0  0  0  0  0
  -22.5310   -7.7790   21.3630 C   0  0  0  0  0  0  0  0  0  0  0  0
  -22.0880   -8.7010   20.3970 C   0  0  0  0  0  3  0  0  0  0  0  0
  -22.7560   -9.9240   20.2170 C   0  0  0  0  0  3  0  0  0  0  0  0
  -21.8330   -6.5980   21.4520 O   0  0  0  0  0  0  0  0  0  0  0  0
  -21.6960   -5.9290   22.6420 C   0  0  0  0  0  0  0  0  0  0  0  0
  -21.0500   -6.5120   23.7540 C   0  0  0  0  0  3  0  0  0  0  0  0
  -20.8700   -5.7640   24.9340 C   0  0  0  0  0  3  0  0  0  0  0  0
  -21.3270   -4.4340   25.0030 C   0  0  0  0  0  0  0  0  0  0  0  0
  -21.9650   -3.8500   23.8950 C   0  0  0  0  0  3  0  0  0  0  0  0
  -22.1470   -4.5960   22.7160 C   0  0  0  0  0  0  0  0  0  0  0  0
  -22.7450   -4.0210   21.6450 F   0  0  0  0  0  0  0  0  0  0  0  0
  -21.1470   -3.7130   26.1340 F   0  0  0  0  0  0  0  0  0  0  0  0
  -22.6600  -13.2850   21.3810 C   0  0  0  0  0  0  0  0  0  0  0  0
  -22.0370  -12.5200   22.2710 N   0  0  0  0  0  0  0  0  0  0  0  0
  -22.1430  -14.3200   20.9570 O   0  0  0  0  0  0  0  0  0  0  0  0
  -22.4690  -11.6830   22.6320 H   0  0  0  0  0  0  0  0  0  0  0  0
  -21.1160  -12.7760   22.5940 H   0  0  0  0  0  0  0  0  0  0  0  0
  -25.1370  -15.0890   20.4040 N   0  0  0  0  0  0  0  0  0  0  0  0
  -24.3600  -15.7000   20.6330 H   0  0  0  0  0  0  0  0  0  0  0  0
  -25.8990  -15.5760   19.9520 H   0  0  0  0  0  0  0  0  0  0  0  0
  -30.8590  -17.3880   22.6160 C   0  0  0  0  0  0  0  0  0  0  0  0
  -31.3090  -18.1970   23.8320 C   0  0  0  0  0  1  0  0  0  0  0  0
  -31.0830  -16.1750   22.6210 O   0  0  0  0  0  0  0  0  0  0  0  0
  -27.6600  -25.0140   20.0720 C   0  0  0  0  0  3  0  0  0  0  0  0
  -28.1620  -23.8110   19.5420 C   0  0  0  0  0  0  0  0  0  0  0  0
  -28.6630  -23.8290   18.2990 O   0  0  0  0  0  0  0  0  0  0  0  0
  -28.5750  -24.7190   17.9810 H   0  0  0  0  0  0  0  0  0  0  0  0
  -27.6960  -26.3560   19.5350 O   0  0  0  0  0  0  0  0  0  0  0  0
  -24.4630  -31.8700   23.1700 C   0  0  0  0  0  0  0  0  0  0  0  0
  -26.6440  -27.3020   19.7160 C   0  0  0  0  0  0  0  0  0  0  0  0
  -23.0910  -30.6150   21.5470 C   0  0  0  0  0  3  0  0  0  0  0  0
  -24.3720  -29.0680   19.9480 C   0  0  0  0  0  0  0  0  0  0  0  0
  -25.6300  -30.8140   21.2060 C   0  0  0  0  0  2  0  0  0  0  0  0
  -25.6050  -29.4600   20.4890 C   0  0  0  0  0  0  0  0  0  0  0  0
  -26.7450  -28.5920   20.3560 C   0  0  0  0  0  3  0  0  0  0  0  0
  -25.3880  -26.9850   19.1610 C   0  0  0  0  0  3  0  0  0  0  0  0
  -24.2700  -27.8400   19.2740 C   0  0  0  0  0  3  0  0  0  0  0  0
  -23.1850  -30.0010   20.1240 C   0  0  0  0  0  2  0  0  0  0  0  0
  -24.4190  -31.1170   22.0300 N   0  0  0  0  0  0  0  0  0  0  0  0
  -23.4310  -32.1620   23.7930 O   0  0  0  0  0  0  0  0  0  0  0  0
  -22.4430  -29.5810   22.5000 C   0  0  0  0  0  0  0  0  0  0  0  0
  -21.1230  -29.3710   22.3650 N   0  0  0  0  0  0  0  0  0  0  0  0
  -23.1320  -28.9720   23.3220 O   0  0  0  0  0  0  0  0  0  0  0  0
  -20.6240  -29.9150   21.6750 H   0  0  0  0  0  0  0  0  0  0  0  0
  -17.7990  -27.9940   22.7690 C   0  0  0  0  0  0  0  0  0  0  0  0
  -20.3270  -28.4050   23.1270 C   0  0  0  0  0  3  0  0  0  0  0  0
  -20.5300  -26.9700   22.5870 C   0  0  0  0  0  2  0  0  0  0  0  0
  -19.4870  -26.5650   21.5410 C   0  0  0  0  0  2  0  0  0  0  0  0
  -18.0760  -26.6440   22.1300 C   0  0  0  0  0  2  0  0  0  0  0  0
  -18.8560  -28.8270   23.2230 C   0  0  0  0  0  0  0  0  0  0  0  0
  -18.5440  -30.0860   23.7800 C   0  0  0  0  0  3  0  0  0  0  0  0
  -17.2080  -30.5150   23.8890 C   0  0  0  0  0  3  0  0  0  0  0  0
  -16.1650  -29.6810   23.4510 C   0  0  0  0  0  3  0  0  0  0  0  0
  -16.4600  -28.4230   22.8970 C   0  0  0  0  0  3  0  0  0  0  0  0
  -25.8100  -32.4160   23.7350 C   0  0  0  0  0  3  0  0  0  0  0  0
  -26.3630  -31.5680   24.9470 C   0  0  1  0  0  0  0  0  0  0  0  0
  -25.3160  -31.3120   26.0560 C   0  0  0  0  0  1  0  0  0  0  0  0
  -26.8810  -30.1930   24.4650 C   0  0  0  0  0  1  0  0  0  0  0  0
  -27.5700  -32.2940   25.5880 C   0  0  0  0  0  1  0  0  0  0  0  0
  -25.5900  -33.8120   24.1430 N   0  0  0  0  0  0  0  0  0  0  0  0
  -25.9010  -34.8830   23.4010 C   0  0  0  0  0  0  0  0  0  0  0  0
  -26.4730  -34.7960   22.3110 O   0  0  0  0  0  0  0  0  0  0  0  0
  -25.0740  -33.9560   24.9990 H   0  0  0  0  0  0  0  0  0  0  0  0
  -24.2150  -36.7480   23.2950 C   0  0  0  0  0  1  0  0  0  0  0  0
  -25.5190  -36.2710   23.9530 C   0  0  0  0  0  3  0  0  0  0  0  0
  -27.7560  -37.0620   24.5870 C   0  0  0  0  0  1  0  0  0  0  0  0
  -26.5720  -37.2920   23.7630 N   0  0  0  0  0  0  0  0  0  0  0  0
  -26.2150  -38.2200   23.9730 H   0  0  0  0  0  0  0  0  0  0  0  0
  1  8  1  0
  1 48  1  0
  2  1  2  0
  3  8  1  0
  4  7  2  0
  5  3  2  0
  5  2  1  0
  6  3  1  0
  6  4  1  0
  9  6  1  0
 10 18  1  0
 11 16  1  0
 12 13  1  0
 12 11  1  0
 14 13  1  0
 14 23  1  0
 14 15  1  0
 16 10  1  0
 16 15  1  0
 17 10  2  0
 18  2  1  0
 19 18  1  0
 20 21  2  0
 21 40  1  0
 22 21  1  0
 22 25  1  0
 23 24  1  0
 23 20  1  0
 24 22  2  0
 25 26  1  0
 26 27  2  0
 28 31  1  0
 28 27  1  0
 29 28  2  0
 30 29  1  0
 30 25  2  0
 31 32  1  0
 32 37  2  0
 32 33  1  0
 33 34  2  0
 34 35  1  0
 35 39  1  0
 36 35  2  0
 37 36  1  0
 38 37  1  0
 40 41  1  0
 41 44  1  0
 41 43  1  0
 42 40  2  0
 45 20  1  0
 45 46  1  0
 47 45  1  0
 48 50  2  0
 48 49  1  0
 52 51  2  0
 52  4  1  0
 53 52  1  0
 54 53  1  0
 55 57  1  0
 55 51  1  0
 56 67  2  0
 57 62  1  0
 58 66  1  0
 58 68  1  0
 59 65  1  0
 59 61  1  0
 60 66  1  0
 61 60  1  0
 62 61  2  0
 63 64  1  0
 63 57  2  0
 64 59  2  0
 65 58  1  0
 66 56  1  0
 68 70  2  0
 69 68  1  0
 71 69  1  0
 72 81  2  0
 72 77  1  0
 73 69  1  0
 73 77  1  0
 74 73  1  0
 75 76  1  0
 75 74  1  0
 76 72  1  0
 77 78  2  0
 78 79  1  0
 80 79  2  0
 81 80  1  0
 82 56  1  0
 82 87  1  0
 82 83  1  0
 83 86  1  1
 83 84  1  0
 85 83  1  0
 87 90  1  0
 88 92  1  0
 88 87  1  0
 89 88  2  0
 92 91  1  0
 94 92  1  0
 94 95  1  0
 94 93  1  0
M  ISO  4  10 100  18 100  51 101  55 101
M  END
>  <TORSDO>  (64) 
F 19

>  <SCORE>  (64) 
-12.645

>  <name>  (64) 
63

>  <ligand_id>  (64) 
63

>  <original_smiles>  (64) 
[H]OC(C(=O)N([H])c1nc(N([H])C(=O)N2C([H])([H])C([H])([H])C([H])([H])C([H])(n3nc(-c4c([H])c([H])c(Oc5c([H])c([H])c(F)c([H])c5F)c([H])c4[H])c(C(=O)N([H])[H])c3N([H])[H])C2([H])[H])c(C(=O)C([H])([H])[H])s1)=C([H])Oc1c([H])c([H])c2c(c1[H])C([H])([H])N(C(=O)C([H])(N([H])C(=O)C([H])(N([H])C([H])([H])[H])C([H])([H])[H])C(C([H])([H])[H])(C([H])([H])[H])C([H])([H])[H])C([H])(C(=O)N([H])C1([H])c3c([H])c([H])c([H])c([H])c3C([H])([H])C([H])([H])C1([H])[H])C2([H])[H]

>  <smiles>  (64) 
[H]OC(C(=O)N([H])c1nc(N([H])C(=O)N2C([H])([H])C([H])([H])C([H])([H])C([H])(n3nc(-c4c([H])c([H])c(Oc5c([H])c([H])c(F)c([H])c5F)c([H])c4[H])c(C(=O)N([H])[H])c3N([H])[H])C2([H])[H])c(C(=O)C([H])([H])[H])s1)=C([H])Oc1c([H])c([H])c2c(c1[H])C([H])([H])N(C(=O)C([H])(N([H])C(=O)C([H])(N([H])C([H])([H])[H])C([H])([H])[H])C(C([H])([H])[H])(C([H])([H])[H])C([H])([H])[H])C([H])(C(=O)N([H])C1([H])c3c([H])c([H])c([H])c([H])c3C([H])([H])C([H])([H])C1([H])[H])C2([H])[H]

$$$$
64:0:0
     RDKit          3D

 95103  0  0  1  0  0  0  0  0999 V2000
  -29.2000  -18.8170   21.0460 C   0  0  0  0  0  3  0  0  0  0  0  0
  -31.5140  -17.5220   20.3300 C   0  0  0  0  0  3  0  0  0  0  0  0
  -30.4080  -16.7370   20.7180 C   0  0  0  0  0  0  0  0  0  0  0  0
  -29.2360  -17.4150   21.0830 C   0  0  0  0  0  0  0  0  0  0  0  0
  -30.3460  -19.5350   20.6430 C   0  0  0  0  0  0  0  0  0  0  0  0
  -29.3590  -21.8460   20.5440 C   0  0  0  0  0  0  0  0  0  0  0  0
  -31.4820  -18.8760   20.3070 N   0  0  0  0  0  0  0  0  0  0  0  0
  -30.3640  -20.9570   20.6970 N   0  0  0  0  0  0  0  0  0  0  0  0
  -28.2580  -21.5410   20.0800 O   0  0  0  0  0  0  0  0  0  0  0  0
  -28.1460  -16.7120   21.4730 F   0  0  0  0  0  0  0  0  0  0  0  0
  -31.2570  -21.3680   20.9210 H   0  0  0  0  0  0  0  0  0  0  0  0
  -30.9980  -14.4130   20.0050 C   0  0  0  0  0  0  0  0  0  0  0  0
  -30.6390  -12.2650   18.8410 C   0  0  0  0  0  2  0  0  0  0  0  0
  -29.5980  -12.4680   17.7190 C   0  0  0  0  0  2  0  0  0  0  0  0
  -28.1610  -12.3310   18.2610 C   0  0  0  0  0  2  0  0  0  0  0  0
  -27.9240  -13.1640   19.5480 C   0  0  0  0  0  3  0  0  0  0  0  0
  -29.0570  -12.9080   20.5670 C   0  0  0  0  0  2  0  0  0  0  0  0
  -30.3420  -13.2270   19.9140 N   0  0  0  0  0  0  0  0  0  0  0  0
  -32.0330  -14.6670   19.3830 O   0  0  0  0  0  0  0  0  0  0  0  0
  -30.3840  -15.3130   20.7890 N   0  0  0  0  0  0  0  0  0  0  0  0
  -29.5880  -14.9400   21.2860 H   0  0  0  0  0  0  0  0  0  0  0  0
  -25.6100  -13.7920   20.4930 C   0  0  0  0  0  0  0  0  0  0  0  0
  -24.5560  -13.0260   20.9110 C   0  0  0  0  0  0  0  0  0  0  0  0
  -24.9720  -11.6680   20.7620 C   0  0  0  0  0  0  0  0  0  0  0  0
  -26.6070  -12.9000   20.1240 N   0  0  0  0  0  0  0  0  0  0  0  0
  -26.2280  -11.6140   20.3380 N   0  0  0  0  0  0  0  0  0  0  0  0
  -24.2280  -10.4150   20.9440 C   0  0  0  0  0  0  0  0  0  0  0  0
  -24.6480   -9.4350   21.8720 C   0  0  0  0  0  3  0  0  0  0  0  0
  -23.9060   -8.2470   22.0400 C   0  0  0  0  0  3  0  0  0  0  0  0
  -22.7320   -8.0290   21.2810 C   0  0  0  0  0  0  0  0  0  0  0  0
  -22.3330   -8.9950   20.3420 C   0  0  0  0  0  3  0  0  0  0  0  0
  -23.0740  -10.1770   20.1720 C   0  0  0  0  0  3  0  0  0  0  0  0
  -21.9630   -6.8920   21.3600 O   0  0  0  0  0  0  0  0  0  0  0  0
  -21.8080   -6.2080   22.5390 C   0  0  0  0  0  0  0  0  0  0  0  0
  -21.2450   -6.8150   23.6830 C   0  0  0  0  0  3  0  0  0  0  0  0
  -21.0400   -6.0550   24.8520 C   0  0  0  0  0  3  0  0  0  0  0  0
  -21.3870   -4.6910   24.8780 C   0  0  0  0  0  0  0  0  0  0  0  0
  -21.9430   -4.0850   23.7380 C   0  0  0  0  0  3  0  0  0  0  0  0
  -22.1500   -4.8410   22.5700 C   0  0  0  0  0  0  0  0  0  0  0  0
  -22.6660   -4.2470   21.4680 F   0  0  0  0  0  0  0  0  0  0  0  0
  -21.1830   -3.9600   25.9980 F   0  0  0  0  0  0  0  0  0  0  0  0
  -23.2030  -13.5190   21.3370 C   0  0  0  0  0  0  0  0  0  0  0  0
  -22.5410  -12.7960   22.2330 N   0  0  0  0  0  0  0  0  0  0  0  0
  -22.7460  -14.5800   20.9130 O   0  0  0  0  0  0  0  0  0  0  0  0
  -22.9240  -11.9350   22.5970 H   0  0  0  0  0  0  0  0  0  0  0  0
  -21.6360  -13.1040   22.5600 H   0  0  0  0  0  0  0  0  0  0  0  0
  -25.8000  -15.1650   20.3810 N   0  0  0  0  0  0  0  0  0  0  0  0
  -25.0770  -15.8340   20.6210 H   0  0  0  0  0  0  0  0  0  0  0  0
  -26.6570  -15.6040   20.0730 H   0  0  0  0  0  0  0  0  0  0  0  0
  -31.1400  -23.6420   20.9790 C   0  0  0  0  0  1  0  0  0  0  0  0
  -29.0890  -23.4400   22.4270 C   0  0  0  0  0  1  0  0  0  0  0  0
  -29.6220  -23.3210   20.9820 C   0  0  2  0  0  0  0  0  0  0  0  0
  -28.8700  -24.3280   20.0450 C   0  0  0  0  0  2  0  0  0  0  0  0
  -28.7420  -25.7840   20.5670 C   0  0  0  0  0  2  0  0  0  0  0  0
  -28.4380  -26.6870   19.5040 O   0  0  0  0  0  0  0  0  0  0  0  0
  -24.6360  -31.6030   23.0200 C   0  0  0  0  0  0  0  0  0  0  0  0
  -27.2640  -27.3870   19.6380 C   0  0  0  0  0  0  0  0  0  0  0  0
  -23.4090  -30.2790   21.3270 C   0  0  0  0  0  3  0  0  0  0  0  0
  -24.8500  -28.8380   19.7900 C   0  0  0  0  0  0  0  0  0  0  0  0
  -25.9230  -30.6840   21.0940 C   0  0  0  0  0  2  0  0  0  0  0  0
  -26.0120  -29.3500   20.3830 C   0  0  0  0  0  0  0  0  0  0  0  0
  -27.2240  -28.6280   20.3100 C   0  0  0  0  0  3  0  0  0  0  0  0
  -26.0910  -26.8810   19.0470 C   0  0  0  0  0  3  0  0  0  0  0  0
  -24.8810  -27.6000   19.1230 C   0  0  0  0  0  3  0  0  0  0  0  0
  -23.5960  -29.6770   19.9070 C   0  0  0  0  0  2  0  0  0  0  0  0
  -24.6750  -30.8670   21.8730 N   0  0  0  0  0  0  0  0  0  0  0  0
  -23.5650  -31.8320   23.5970 O   0  0  0  0  0  0  0  0  0  0  0  0
  -22.7910  -29.1980   22.2420 C   0  0  0  0  0  0  0  0  0  0  0  0
  -21.4630  -29.0210   22.1450 N   0  0  0  0  0  0  0  0  0  0  0  0
  -23.5000  -28.5260   22.9950 O   0  0  0  0  0  0  0  0  0  0  0  0
  -20.9530  -29.6190   21.5090 H   0  0  0  0  0  0  0  0  0  0  0  0
  -18.1060  -27.7990   22.6750 C   0  0  0  0  0  0  0  0  0  0  0  0
  -20.6710  -28.0350   22.8780 C   0  0  0  0  0  3  0  0  0  0  0  0
  -20.7510  -26.6450   22.2030 C   0  0  0  0  0  2  0  0  0  0  0  0
  -19.6140  -26.3920   21.2080 C   0  0  0  0  0  2  0  0  0  0  0  0
  -18.2560  -26.4950   21.9060 C   0  0  0  0  0  2  0  0  0  0  0  0
  -19.2400  -28.5280   23.1170 C   0  0  0  0  0  0  0  0  0  0  0  0
  -19.0470  -29.7510   23.7950 C   0  0  0  0  0  3  0  0  0  0  0  0
  -17.7510  -30.2430   24.0380 C   0  0  0  0  0  3  0  0  0  0  0  0
  -16.6300  -29.5080   23.6130 C   0  0  0  0  0  3  0  0  0  0  0  0
  -16.8090  -28.2870   22.9370 C   0  0  0  0  0  3  0  0  0  0  0  0
  -25.9300  -32.2110   23.6460 C   0  0  0  0  0  3  0  0  0  0  0  0
  -26.5030  -31.3580   24.8440 C   0  0  1  0  0  0  0  0  0  0  0  0
  -25.4500  -31.0230   25.9260 C   0  0  0  0  0  1  0  0  0  0  0  0
  -27.0950  -30.0250   24.3300 C   0  0  0  0  0  1  0  0  0  0  0  0
  -27.6620  -32.1240   25.5260 C   0  0  0  0  0  1  0  0  0  0  0  0
  -25.6110  -33.5750   24.0840 N   0  0  0  0  0  0  0  0  0  0  0  0
  -25.9120  -34.6850   23.3960 C   0  0  0  0  0  0  0  0  0  0  0  0
  -26.5610  -34.6680   22.3460 O   0  0  0  0  0  0  0  0  0  0  0  0
  -25.0330  -33.6620   24.9070 H   0  0  0  0  0  0  0  0  0  0  0  0
  -24.1540  -36.4720   23.2030 C   0  0  0  0  0  1  0  0  0  0  0  0
  -25.4140  -36.0290   23.9630 C   0  0  0  0  0  3  0  0  0  0  0  0
  -27.5440  -36.8870   24.8330 C   0  0  0  0  0  1  0  0  0  0  0  0
  -26.4310  -37.1020   23.9110 N   0  0  0  0  0  0  0  0  0  0  0  0
  -26.0140  -38.0040   24.1240 H   0  0  0  0  0  0  0  0  0  0  0  0
  1  4  1  0
  2  3  1  0
  3 20  1  0
  3  4  2  0
  4 10  1  0
  5  8  1  0
  5  1  2  0
  6  8  1  0
  6 52  1  0
  7  2  2  0
  7  5  1  0
  8 11  1  0
  9  6  2  0
 12 20  1  0
 13 18  1  0
 14 15  1  0
 14 13  1  0
 16 15  1  0
 16 25  1  0
 16 17  1  0
 18 12  1  0
 18 17  1  0
 19 12  2  0
 20 21  1  0
 22 23  2  0
 23 42  1  0
 24 23  1  0
 24 27  1  0
 25 26  1  0
 25 22  1  0
 26 24  2  0
 27 28  1  0
 28 29  2  0
 30 33  1  0
 30 29  1  0
 31 30  2  0
 32 31  1  0
 32 27  2  0
 33 34  1  0
 34 39  2  0
 34 35  1  0
 35 36  2  0
 36 37  1  0
 37 41  1  0
 38 37  2  0
 39 38  1  0
 40 39  1  0
 42 43  1  0
 43 46  1  0
 43 45  1  0
 44 42  2  0
 47 22  1  0
 47 48  1  0
 49 47  1  0
 52 50  1  1
 52 51  1  0
 53 54  1  0
 53 52  1  0
 55 57  1  0
 55 54  1  0
 56 67  2  0
 57 62  1  0
 58 66  1  0
 58 68  1  0
 59 65  1  0
 59 61  1  0
 60 66  1  0
 61 60  1  0
 62 61  2  0
 63 64  1  0
 63 57  2  0
 64 59  2  0
 65 58  1  0
 66 56  1  0
 68 70  2  0
 69 68  1  0
 71 69  1  0
 72 81  2  0
 72 77  1  0
 73 69  1  0
 73 77  1  0
 74 73  1  0
 75 76  1  0
 75 74  1  0
 76 72  1  0
 77 78  2  0
 78 79  1  0
 80 79  2  0
 81 80  1  0
 82 56  1  0
 82 87  1  0
 82 83  1  0
 83 86  1  1
 83 84  1  0
 85 83  1  0
 87 90  1  0
 88 92  1  0
 88 87  1  0
 89 88  2  0
 92 91  1  0
 94 92  1  0
 94 95  1  0
 94 93  1  0
M  ISO  4  12 100  20 100  54 101  55 101
M  END
>  <TORSDO>  (65) 
F 19

>  <SCORE>  (65) 
-12.815

>  <name>  (65) 
64

>  <ligand_id>  (65) 
64

>  <original_smiles>  (65) 
[H]c1nc(N([H])C(=O)C(C([H])([H])[H])(C([H])([H])[H])C([H])([H])C([H])([H])Oc2c([H])c([H])c3c(c2[H])C([H])([H])N(C(=O)C([H])(N([H])C(=O)C([H])(N([H])C([H])([H])[H])C([H])([H])[H])C(C([H])([H])[H])(C([H])([H])[H])C([H])([H])[H])C([H])(C(=O)N([H])C2([H])c4c([H])c([H])c([H])c([H])c4C([H])([H])C([H])([H])C2([H])[H])C3([H])[H])c([H])c(F)c1N([H])C(=O)N1C([H])([H])C([H])([H])C([H])([H])C([H])(n2nc(-c3c([H])c([H])c(Oc4c([H])c([H])c(F)c([H])c4F)c([H])c3[H])c(C(=O)N([H])[H])c2N([H])[H])C1([H])[H]

>  <smiles>  (65) 
[H]c1nc(N([H])C(=O)C(C([H])([H])[H])(C([H])([H])[H])C([H])([H])C([H])([H])Oc2c([H])c([H])c3c(c2[H])C([H])([H])N(C(=O)C([H])(N([H])C(=O)C([H])(N([H])C([H])([H])[H])C([H])([H])[H])C(C([H])([H])[H])(C([H])([H])[H])C([H])([H])[H])C([H])(C(=O)N([H])C2([H])c4c([H])c([H])c([H])c([H])c4C([H])([H])C([H])([H])C2([H])[H])C3([H])[H])c([H])c(F)c1N([H])C(=O)N1C([H])([H])C([H])([H])C([H])([H])C([H])(n2nc(-c3c([H])c([H])c(Oc4c([H])c([H])c(F)c([H])c4F)c([H])c3[H])c(C(=O)N([H])[H])c2N([H])[H])C1([H])[H]

$$$$
65:0:0
     RDKit          3D

 94102  0  0  1  0  0  0  0  0999 V2000
  -28.7220  -22.3790   19.8370 C   0  0  0  0  0  0  0  0  0  0  0  0
  -29.1830  -21.2820   20.5810 N   0  0  0  0  0  0  0  0  0  0  0  0
  -28.3220  -22.1880   18.6850 O   0  0  0  0  0  0  0  0  0  0  0  0
  -29.3080  -21.5020   21.5600 H   0  0  0  0  0  0  0  0  0  0  0  0
  -30.5740  -14.8970   20.3710 C   0  0  0  0  0  0  0  0  0  0  0  0
  -30.4330  -12.5770   19.4120 C   0  0  0  0  0  2  0  0  0  0  0  0
  -29.5200  -12.6000   18.1640 C   0  0  0  0  0  2  0  0  0  0  0  0
  -28.0450  -12.4090   18.5690 C   0  0  0  0  0  2  0  0  0  0  0  0
  -27.6360  -13.3100   19.7640 C   0  0  0  0  0  3  0  0  0  0  0  0
  -28.6740  -13.2690   20.9070 C   0  0  0  0  0  2  0  0  0  0  0  0
  -29.9710  -13.6490   20.3340 N   0  0  0  0  0  0  0  0  0  0  0  0
  -31.7630  -14.9770   20.0470 O   0  0  0  0  0  0  0  0  0  0  0  0
  -30.7070  -19.7190   19.2690 C   0  0  0  0  0  0  0  0  0  0  0  0
  -29.6690  -19.9080   20.1710 C   0  0  0  0  0  0  0  0  0  0  0  0
  -30.0100  -17.4910   20.2700 C   0  0  0  0  0  0  0  0  0  0  0  0
  -29.3090  -18.6000   20.7360 N   0  0  0  0  0  0  0  0  0  0  0  0
  -29.8020  -16.0440   20.6300 N   0  0  0  0  0  0  0  0  0  0  0  0
  -31.1850  -18.0260   19.0710 S   0  0  0  0  0  0  0  0  0  0  0  0
  -28.8980  -15.8440   21.0250 H   0  0  0  0  0  0  0  0  0  0  0  0
  -25.2340  -13.8830   20.4450 C   0  0  0  0  0  0  0  0  0  0  0  0
  -24.1670  -13.1040   20.8040 C   0  0  0  0  0  0  0  0  0  0  0  0
  -24.6410  -11.7570   20.7960 C   0  0  0  0  0  0  0  0  0  0  0  0
  -26.2880  -13.0100   20.2350 N   0  0  0  0  0  0  0  0  0  0  0  0
  -25.9390  -11.7270   20.5110 N   0  0  0  0  0  0  0  0  0  0  0  0
  -23.9210  -10.4910   20.9850 C   0  0  0  0  0  0  0  0  0  0  0  0
  -24.3350   -9.5400   21.9430 C   0  0  0  0  0  3  0  0  0  0  0  0
  -23.6130   -8.3400   22.1190 C   0  0  0  0  0  3  0  0  0  0  0  0
  -22.4620   -8.0810   21.3360 C   0  0  0  0  0  0  0  0  0  0  0  0
  -22.0680   -9.0210   20.3670 C   0  0  0  0  0  3  0  0  0  0  0  0
  -22.7910  -10.2130   20.1890 C   0  0  0  0  0  3  0  0  0  0  0  0
  -21.7130   -6.9320   21.4200 O   0  0  0  0  0  0  0  0  0  0  0  0
  -21.6280   -6.2120   22.5850 C   0  0  0  0  0  0  0  0  0  0  0  0
  -21.1360   -6.7820   23.7800 C   0  0  0  0  0  3  0  0  0  0  0  0
  -21.0010   -5.9870   24.9360 C   0  0  0  0  0  3  0  0  0  0  0  0
  -21.3480   -4.6240   24.8980 C   0  0  0  0  0  0  0  0  0  0  0  0
  -21.8330   -4.0530   23.7080 C   0  0  0  0  0  3  0  0  0  0  0  0
  -21.9700   -4.8450   22.5540 C   0  0  0  0  0  0  0  0  0  0  0  0
  -22.4180   -4.2850   21.4040 F   0  0  0  0  0  0  0  0  0  0  0  0
  -21.2100   -3.8580   26.0050 F   0  0  0  0  0  0  0  0  0  0  0  0
  -22.7620  -13.5740   21.0430 C   0  0  0  0  0  0  0  0  0  0  0  0
  -22.0210  -12.8800   21.8980 N   0  0  0  0  0  0  0  0  0  0  0  0
  -22.3300  -14.5920   20.5050 O   0  0  0  0  0  0  0  0  0  0  0  0
  -22.3830  -12.0560   22.3560 H   0  0  0  0  0  0  0  0  0  0  0  0
  -21.0760  -13.1760   22.1010 H   0  0  0  0  0  0  0  0  0  0  0  0
  -25.3900  -15.2530   20.2560 N   0  0  0  0  0  0  0  0  0  0  0  0
  -24.6110  -15.8980   20.3420 H   0  0  0  0  0  0  0  0  0  0  0  0
  -26.2310  -15.6960   19.9100 H   0  0  0  0  0  0  0  0  0  0  0  0
  -31.5320  -20.6450   18.4960 C   0  0  0  0  0  3  0  0  0  0  0  0
  -31.6120  -21.8550   18.7240 O   0  0  0  0  0  0  0  0  0  0  0  0
  -28.2100  -24.9370   19.8320 C   0  0  0  0  0  3  0  0  0  0  0  0
  -28.7100  -23.7830   20.4590 C   0  0  0  0  0  0  0  0  0  0  0  0
  -29.2470  -23.9120   21.6810 O   0  0  0  0  0  0  0  0  0  0  0  0
  -29.1790  -24.8290   21.9150 H   0  0  0  0  0  0  0  0  0  0  0  0
  -28.2560  -26.3200   20.2580 O   0  0  0  0  0  0  0  0  0  0  0  0
  -24.6030  -31.8880   23.2380 C   0  0  0  0  0  0  0  0  0  0  0  0
  -27.1730  -27.2460   20.1590 C   0  0  0  0  0  0  0  0  0  0  0  0
  -23.3910  -30.5030   21.5950 C   0  0  0  0  0  3  0  0  0  0  0  0
  -24.8310  -28.9440   20.1510 C   0  0  0  0  0  0  0  0  0  0  0  0
  -25.9390  -30.7840   21.4160 C   0  0  0  0  0  2  0  0  0  0  0  0
  -26.0080  -29.4010   20.7570 C   0  0  0  0  0  0  0  0  0  0  0  0
  -27.1760  -28.5640   20.7500 C   0  0  0  0  0  3  0  0  0  0  0  0
  -25.9700  -26.8700   19.5200 C   0  0  0  0  0  3  0  0  0  0  0  0
  -24.8220  -27.6890   19.5210 C   0  0  0  0  0  3  0  0  0  0  0  0
  -23.6010  -29.8340   20.2100 C   0  0  0  0  0  2  0  0  0  0  0  0
  -24.6640  -31.0790   22.1390 N   0  0  0  0  0  0  0  0  0  0  0  0
  -23.5220  -32.1700   23.7760 O   0  0  0  0  0  0  0  0  0  0  0  0
  -22.7210  -29.4890   22.5550 C   0  0  0  0  0  0  0  0  0  0  0  0
  -21.3960  -29.3030   22.4190 N   0  0  0  0  0  0  0  0  0  0  0  0
  -23.3940  -28.8720   23.3850 O   0  0  0  0  0  0  0  0  0  0  0  0
  -20.9100  -29.8540   21.7250 H   0  0  0  0  0  0  0  0  0  0  0  0
  -18.0280  -28.0580   22.8800 C   0  0  0  0  0  0  0  0  0  0  0  0
  -20.5780  -28.3620   23.1870 C   0  0  0  0  0  3  0  0  0  0  0  0
  -20.7110  -26.9260   22.6310 C   0  0  0  0  0  2  0  0  0  0  0  0
  -19.6320  -26.5750   21.6020 C   0  0  0  0  0  2  0  0  0  0  0  0
  -18.2370  -26.7040   22.2220 C   0  0  0  0  0  2  0  0  0  0  0  0
  -19.1270  -28.8430   23.3190 C   0  0  0  0  0  0  0  0  0  0  0  0
  -18.8780  -30.1060   23.8950 C   0  0  0  0  0  3  0  0  0  0  0  0
  -17.5620  -30.5880   24.0360 C   0  0  0  0  0  3  0  0  0  0  0  0
  -16.4780  -29.8000   23.6120 C   0  0  0  0  0  3  0  0  0  0  0  0
  -16.7110  -28.5370   23.0390 C   0  0  0  0  0  3  0  0  0  0  0  0
  -25.8880  -32.5160   23.8610 C   0  0  0  0  0  3  0  0  0  0  0  0
  -26.3970  -31.7460   25.1420 C   0  0  1  0  0  0  0  0  0  0  0  0
  -25.3020  -31.5190   26.2090 C   0  0  0  0  0  1  0  0  0  0  0  0
  -26.9720  -30.3620   24.7590 C   0  0  0  0  0  1  0  0  0  0  0  0
  -27.5520  -32.5340   25.8020 C   0  0  0  0  0  1  0  0  0  0  0  0
  -25.5860  -33.9170   24.1920 N   0  0  0  0  0  0  0  0  0  0  0  0
  -25.9130  -34.9690   23.4290 C   0  0  0  0  0  0  0  0  0  0  0  0
  -26.5690  -34.8620   22.3890 O   0  0  0  0  0  0  0  0  0  0  0  0
  -25.0010  -34.0750   25.0000 H   0  0  0  0  0  0  0  0  0  0  0  0
  -24.1880  -36.7720   23.0980 C   0  0  0  0  0  1  0  0  0  0  0  0
  -25.4380  -36.3610   23.8920 C   0  0  0  0  0  3  0  0  0  0  0  0
  -27.5850  -37.2420   24.6970 C   0  0  0  0  0  1  0  0  0  0  0  0
  -26.4740  -37.4090   23.7630 N   0  0  0  0  0  0  0  0  0  0  0  0
  -26.0730  -38.3320   23.9090 H   0  0  0  0  0  0  0  0  0  0  0  0
  1 51  1  0
  1  2  1  0
  2  4  1  0
  3  1  2  0
  5 17  1  0
  6 11  1  0
  7  8  1  0
  7  6  1  0
  9  8  1  0
  9 23  1  0
  9 10  1  0
 11  5  1  0
 11 10  1  0
 12  5  2  0
 13 14  2  0
 14  2  1  0
 14 16  1  0
 15 17  1  0
 15 16  2  0
 17 19  1  0
 18 13  1  0
 18 15  1  0
 20 21  2  0
 21 40  1  0
 22 21  1  0
 22 25  1  0
 23 20  1  0
 23 24  1  0
 24 22  2  0
 25 26  1  0
 26 27  2  0
 28 31  1  0
 28 27  1  0
 29 28  2  0
 30 29  1  0
 30 25  2  0
 31 32  1  0
 32 33  1  0
 33 34  2  0
 35 34  1  0
 35 39  1  0
 36 35  2  0
 37 32  2  0
 37 36  1  0
 38 37  1  0
 40 41  1  0
 41 44  1  0
 41 43  1  0
 42 40  2  0
 45 46  1  0
 45 20  1  0
 47 45  1  0
 48 49  2  0
 48 13  1  0
 50 54  1  0
 50 51  2  0
 51 52  1  0
 52 53  1  0
 55 66  2  0
 56 54  1  0
 56 61  1  0
 57 65  1  0
 57 67  1  0
 58 64  1  0
 58 60  1  0
 59 65  1  0
 60 59  1  0
 61 60  2  0
 62 63  1  0
 62 56  2  0
 63 58  2  0
 64 57  1  0
 65 55  1  0
 67 69  2  0
 68 67  1  0
 70 68  1  0
 71 80  2  0
 71 76  1  0
 72 68  1  0
 72 76  1  0
 73 72  1  0
 74 75  1  0
 74 73  1  0
 75 71  1  0
 76 77  2  0
 77 78  1  0
 79 78  2  0
 80 79  1  0
 81 55  1  0
 81 86  1  0
 81 82  1  0
 82 85  1  1
 82 83  1  0
 84 82  1  0
 86 89  1  0
 87 91  1  0
 87 86  1  0
 88 87  2  0
 91 90  1  0
 93 91  1  0
 93 94  1  0
 93 92  1  0
M  ISO  4   5 100  17 100  50 101  54 101
M  END
>  <TORSDO>  (66) 
F 19

>  <SCORE>  (66) 
-14.454

>  <name>  (66) 
65

>  <ligand_id>  (66) 
65

>  <original_smiles>  (66) 
[H]OC(C(=O)N([H])c1nc(N([H])C(=O)N2C([H])([H])C([H])([H])C([H])([H])C([H])(n3nc(-c4c([H])c([H])c(Oc5c([H])c([H])c(F)c([H])c5F)c([H])c4[H])c(C(=O)N([H])[H])c3N([H])[H])C2([H])[H])sc1C([H])=O)=C([H])Oc1c([H])c([H])c2c(c1[H])C([H])([H])N(C(=O)C([H])(N([H])C(=O)C([H])(N([H])C([H])([H])[H])C([H])([H])[H])C(C([H])([H])[H])(C([H])([H])[H])C([H])([H])[H])C([H])(C(=O)N([H])C1([H])c3c([H])c([H])c([H])c([H])c3C([H])([H])C([H])([H])C1([H])[H])C2([H])[H]

>  <smiles>  (66) 
[H]OC(C(=O)N([H])c1nc(N([H])C(=O)N2C([H])([H])C([H])([H])C([H])([H])C([H])(n3nc(-c4c([H])c([H])c(Oc5c([H])c([H])c(F)c([H])c5F)c([H])c4[H])c(C(=O)N([H])[H])c3N([H])[H])C2([H])[H])sc1C([H])=O)=C([H])Oc1c([H])c([H])c2c(c1[H])C([H])([H])N(C(=O)C([H])(N([H])C(=O)C([H])(N([H])C([H])([H])[H])C([H])([H])[H])C(C([H])([H])[H])(C([H])([H])[H])C([H])([H])[H])C([H])(C(=O)N([H])C1([H])c3c([H])c([H])c([H])c([H])c3C([H])([H])C([H])([H])C1([H])[H])C2([H])[H]

$$$$
66:0:0
     RDKit          3D

 93101  0  0  1  0  0  0  0  0999 V2000
  -29.2300  -22.2430   20.0170 C   0  0  0  0  0  0  0  0  0  0  0  0
  -29.9650  -22.7780   19.1810 O   0  0  0  0  0  0  0  0  0  0  0  0
  -30.4350  -15.1060   20.2860 C   0  0  0  0  0  0  0  0  0  0  0  0
  -30.3610  -12.7160   19.3610 C   0  0  0  0  0  2  0  0  0  0  0  0
  -29.4270  -12.6190   18.1300 C   0  0  0  0  0  2  0  0  0  0  0  0
  -27.9710  -12.3810   18.5680 C   0  0  0  0  0  2  0  0  0  0  0  0
  -27.5500  -13.3130   19.7330 C   0  0  0  0  0  3  0  0  0  0  0  0
  -28.6080  -13.3700   20.8560 C   0  0  0  0  0  2  0  0  0  0  0  0
  -29.8620  -13.8220   20.2380 N   0  0  0  0  0  0  0  0  0  0  0  0
  -31.6460  -15.1530   20.0280 O   0  0  0  0  0  0  0  0  0  0  0  0
  -29.5490  -20.6510   20.2640 C   0  0  0  0  0  0  0  0  0  0  0  0
  -30.8040  -20.0160   20.3130 C   0  0  0  0  0  0  0  0  0  0  0  0
  -29.7440  -17.8550   20.3590 C   0  0  0  0  0  0  0  0  0  0  0  0
  -30.8920  -18.5680   20.3680 N   0  0  0  0  0  0  0  0  0  0  0  0
  -29.6160  -16.2910   20.4150 N   0  0  0  0  0  0  0  0  0  0  0  0
  -28.4190  -19.1920   20.3070 S   0  0  0  0  0  0  0  0  0  0  0  0
  -28.6560  -16.0180   20.5490 H   0  0  0  0  0  0  0  0  0  0  0  0
  -25.1730  -13.8810   20.4810 C   0  0  0  0  0  0  0  0  0  0  0  0
  -24.1130  -13.1030   20.8570 C   0  0  0  0  0  0  0  0  0  0  0  0
  -24.5820  -11.7530   20.8280 C   0  0  0  0  0  0  0  0  0  0  0  0
  -26.2170  -13.0060   20.2390 N   0  0  0  0  0  0  0  0  0  0  0  0
  -25.8730  -11.7200   20.5140 N   0  0  0  0  0  0  0  0  0  0  0  0
  -23.8590  -10.4900   21.0210 C   0  0  0  0  0  0  0  0  0  0  0  0
  -24.2910   -9.5250   21.9580 C   0  0  0  0  0  3  0  0  0  0  0  0
  -23.5660   -8.3280   22.1400 C   0  0  0  0  0  3  0  0  0  0  0  0
  -22.3930   -8.0860   21.3850 C   0  0  0  0  0  0  0  0  0  0  0  0
  -21.9790   -9.0400   20.4380 C   0  0  0  0  0  3  0  0  0  0  0  0
  -22.7050  -10.2290   20.2540 C   0  0  0  0  0  3  0  0  0  0  0  0
  -21.6390   -6.9410   21.4750 O   0  0  0  0  0  0  0  0  0  0  0  0
  -21.5920   -6.2000   22.6290 C   0  0  0  0  0  0  0  0  0  0  0  0
  -21.1640   -6.7550   23.8540 C   0  0  0  0  0  3  0  0  0  0  0  0
  -21.0640   -5.9400   25.0010 C   0  0  0  0  0  3  0  0  0  0  0  0
  -21.3830   -4.5720   24.9220 C   0  0  0  0  0  0  0  0  0  0  0  0
  -21.8030   -4.0150   23.7000 C   0  0  0  0  0  3  0  0  0  0  0  0
  -21.9040   -4.8270   22.5570 C   0  0  0  0  0  0  0  0  0  0  0  0
  -22.2900   -4.2820   21.3780 F   0  0  0  0  0  0  0  0  0  0  0  0
  -21.2810   -3.7870   26.0200 F   0  0  0  0  0  0  0  0  0  0  0  0
  -22.7140  -13.5760   21.1240 C   0  0  0  0  0  0  0  0  0  0  0  0
  -21.9870  -12.8830   21.9920 N   0  0  0  0  0  0  0  0  0  0  0  0
  -22.2750  -14.6000   20.6000 O   0  0  0  0  0  0  0  0  0  0  0  0
  -22.3540  -12.0560   22.4390 H   0  0  0  0  0  0  0  0  0  0  0  0
  -21.0480  -13.1840   22.2130 H   0  0  0  0  0  0  0  0  0  0  0  0
  -25.3280  -15.2510   20.2960 N   0  0  0  0  0  0  0  0  0  0  0  0
  -24.5450  -15.8900   20.3870 H   0  0  0  0  0  0  0  0  0  0  0  0
  -26.1440  -15.6890   19.8900 H   0  0  0  0  0  0  0  0  0  0  0  0
  -32.0320  -20.6840   20.3000 N   0  0  0  0  0  0  0  0  0  0  0  0
  -32.0570  -21.6480   19.9840 H   0  0  0  0  0  0  0  0  0  0  0  0
  -32.8730  -20.1580   20.0890 H   0  0  0  0  0  0  0  0  0  0  0  0
  -27.8370  -24.6630   20.7340 C   0  0  0  0  0  3  0  0  0  0  0  0
  -28.1740  -23.2450   20.7050 C   0  0  0  0  0  0  0  0  0  0  0  0
  -27.3740  -22.5050   21.4880 O   0  0  0  0  0  0  0  0  0  0  0  0
  -26.7550  -23.0900   21.9020 H   0  0  0  0  0  0  0  0  0  0  0  0
  -28.2020  -26.0200   20.2480 O   0  0  0  0  0  0  0  0  0  0  0  0
  -24.6190  -31.8740   23.2070 C   0  0  0  0  0  0  0  0  0  0  0  0
  -27.2010  -27.0870   20.2170 C   0  0  0  0  0  0  0  0  0  0  0  0
  -23.4270  -30.4680   21.5720 C   0  0  0  0  0  3  0  0  0  0  0  0
  -24.8840  -28.8790   20.1600 C   0  0  0  0  0  0  0  0  0  0  0  0
  -25.9870  -30.7170   21.4210 C   0  0  0  0  0  2  0  0  0  0  0  0
  -26.0660  -29.3130   20.7780 C   0  0  0  0  0  0  0  0  0  0  0  0
  -27.2260  -28.4350   20.7890 C   0  0  0  0  0  3  0  0  0  0  0  0
  -25.9940  -26.7760   19.5540 C   0  0  0  0  0  3  0  0  0  0  0  0
  -24.8650  -27.6260   19.5320 C   0  0  0  0  0  3  0  0  0  0  0  0
  -23.6570  -29.7820   20.1990 C   0  0  0  0  0  2  0  0  0  0  0  0
  -24.6980  -31.0430   22.1210 N   0  0  0  0  0  0  0  0  0  0  0  0
  -23.5300  -32.1610   23.7280 O   0  0  0  0  0  0  0  0  0  0  0  0
  -22.7420  -29.4680   22.5400 C   0  0  0  0  0  0  0  0  0  0  0  0
  -21.4120  -29.3040   22.4160 N   0  0  0  0  0  0  0  0  0  0  0  0
  -23.4110  -28.8430   23.3660 O   0  0  0  0  0  0  0  0  0  0  0  0
  -20.9290  -29.8570   21.7240 H   0  0  0  0  0  0  0  0  0  0  0  0
  -18.0250  -28.1190   22.9380 C   0  0  0  0  0  0  0  0  0  0  0  0
  -20.5880  -28.3710   23.1920 C   0  0  0  0  0  3  0  0  0  0  0  0
  -20.6800  -26.9390   22.6180 C   0  0  0  0  0  2  0  0  0  0  0  0
  -19.5720  -26.6190   21.6090 C   0  0  0  0  0  2  0  0  0  0  0  0
  -18.1940  -26.7690   22.2600 C   0  0  0  0  0  2  0  0  0  0  0  0
  -19.1490  -28.8780   23.3610 C   0  0  0  0  0  0  0  0  0  0  0  0
  -18.9370  -30.1390   23.9580 C   0  0  0  0  0  3  0  0  0  0  0  0
  -17.6340  -30.6420   24.1350 C   0  0  0  0  0  3  0  0  0  0  0  0
  -16.5250  -29.8810   23.7260 C   0  0  0  0  0  3  0  0  0  0  0  0
  -16.7210  -28.6220   23.1320 C   0  0  0  0  0  3  0  0  0  0  0  0
  -25.8920  -32.5180   23.8360 C   0  0  0  0  0  3  0  0  0  0  0  0
  -26.3990  -31.7550   25.1220 C   0  0  1  0  0  0  0  0  0  0  0  0
  -25.2990  -31.5260   26.1850 C   0  0  0  0  0  1  0  0  0  0  0  0
  -26.9830  -30.3720   24.7500 C   0  0  0  0  0  1  0  0  0  0  0  0
  -27.5440  -32.5530   25.7860 C   0  0  0  0  0  1  0  0  0  0  0  0
  -25.5720  -33.9170   24.1660 N   0  0  0  0  0  0  0  0  0  0  0  0
  -25.9020  -34.9750   23.4130 C   0  0  0  0  0  0  0  0  0  0  0  0
  -26.5720  -34.8770   22.3820 O   0  0  0  0  0  0  0  0  0  0  0  0
  -24.9730  -34.0660   24.9650 H   0  0  0  0  0  0  0  0  0  0  0  0
  -24.1710  -36.7720   23.0690 C   0  0  0  0  0  1  0  0  0  0  0  0
  -25.4130  -36.3620   23.8770 C   0  0  0  0  0  3  0  0  0  0  0  0
  -27.5480  -37.2480   24.7110 C   0  0  0  0  0  1  0  0  0  0  0  0
  -26.4440  -37.4180   23.7680 N   0  0  0  0  0  0  0  0  0  0  0  0
  -26.0380  -38.3370   23.9170 H   0  0  0  0  0  0  0  0  0  0  0  0
  1 11  1  0
  1 50  1  0
  2  1  2  0
  3 15  1  0
  4  9  1  0
  5  6  1  0
  5  4  1  0
  7  6  1  0
  7 21  1  0
  7  8  1  0
  9  3  1  0
  9  8  1  0
 10  3  2  0
 11 16  1  0
 11 12  2  0
 12 14  1  0
 13 14  2  0
 13 15  1  0
 15 17  1  0
 16 13  1  0
 18 19  2  0
 19 38  1  0
 20 19  1  0
 20 23  1  0
 21 18  1  0
 21 22  1  0
 22 20  2  0
 23 24  1  0
 24 25  2  0
 26 29  1  0
 26 25  1  0
 27 26  2  0
 28 27  1  0
 28 23  2  0
 29 30  1  0
 30 31  1  0
 31 32  2  0
 33 32  1  0
 33 37  1  0
 34 33  2  0
 35 30  2  0
 35 34  1  0
 36 35  1  0
 38 39  1  0
 39 42  1  0
 39 41  1  0
 40 38  2  0
 43 44  1  0
 43 18  1  0
 45 43  1  0
 46 12  1  0
 47 46  1  0
 48 46  1  0
 50 49  2  0
 50 51  1  0
 51 52  1  0
 53 49  1  0
 54 65  2  0
 55 53  1  0
 55 60  1  0
 56 64  1  0
 56 66  1  0
 57 63  1  0
 57 59  1  0
 58 64  1  0
 59 60  2  0
 59 58  1  0
 61 55  2  0
 62 61  1  0
 62 57  2  0
 63 56  1  0
 64 54  1  0
 66 68  2  0
 67 66  1  0
 69 67  1  0
 70 79  2  0
 70 75  1  0
 71 67  1  0
 71 75  1  0
 72 71  1  0
 73 74  1  0
 73 72  1  0
 74 70  1  0
 75 76  2  0
 76 77  1  0
 78 77  2  0
 79 78  1  0
 80 54  1  0
 80 85  1  0
 80 81  1  0
 81 84  1  1
 81 82  1  0
 83 81  1  0
 85 88  1  0
 86 90  1  0
 86 85  1  0
 87 86  2  0
 90 89  1  0
 92 90  1  0
 92 93  1  0
 92 91  1  0
M  ISO  4   3 100  15 100  49 101  53 101
M  END
>  <TORSDO>  (67) 
F 19

>  <SCORE>  (67) 
-14.823

>  <name>  (67) 
66

>  <ligand_id>  (67) 
66

>  <original_smiles>  (67) 
[H]OC(C(=O)c1sc(N([H])C(=O)N2C([H])([H])C([H])([H])C([H])([H])C([H])(n3nc(-c4c([H])c([H])c(Oc5c([H])c([H])c(F)c([H])c5F)c([H])c4[H])c(C(=O)N([H])[H])c3N([H])[H])C2([H])[H])nc1N([H])[H])=C([H])Oc1c([H])c([H])c2c(c1[H])C([H])([H])N(C(=O)C([H])(N([H])C(=O)C([H])(N([H])C([H])([H])[H])C([H])([H])[H])C(C([H])([H])[H])(C([H])([H])[H])C([H])([H])[H])C([H])(C(=O)N([H])C1([H])c3c([H])c([H])c([H])c([H])c3C([H])([H])C([H])([H])C1([H])[H])C2([H])[H]

>  <smiles>  (67) 
[H]OC(C(=O)c1sc(N([H])C(=O)N2C([H])([H])C([H])([H])C([H])([H])C([H])(n3nc(-c4c([H])c([H])c(Oc5c([H])c([H])c(F)c([H])c5F)c([H])c4[H])c(C(=O)N([H])[H])c3N([H])[H])C2([H])[H])nc1N([H])[H])=C([H])Oc1c([H])c([H])c2c(c1[H])C([H])([H])N(C(=O)C([H])(N([H])C(=O)C([H])(N([H])C([H])([H])[H])C([H])([H])[H])C(C([H])([H])[H])(C([H])([H])[H])C([H])([H])[H])C([H])(C(=O)N([H])C1([H])c3c([H])c([H])c([H])c([H])c3C([H])([H])C([H])([H])C1([H])[H])C2([H])[H]

$$$$
67:0:0
     RDKit          3D

 95103  0  0  1  0  0  0  0  0999 V2000
  -29.0080  -22.9560   20.2120 C   0  0  0  0  0  0  0  0  0  0  0  0
  -29.2390  -21.6930   19.6570 N   0  0  0  0  0  0  0  0  0  0  0  0
  -28.9870  -23.1370   21.4300 O   0  0  0  0  0  0  0  0  0  0  0  0
  -29.1470  -21.7810   18.6500 H   0  0  0  0  0  0  0  0  0  0  0  0
  -30.1240  -19.8440   21.2260 C   0  0  0  0  0  3  0  0  0  0  0  0
  -30.3420  -18.3850   21.2520 C   0  0  0  0  0  0  0  0  0  0  0  0
  -29.9320  -17.7050   20.1120 C   0  0  0  0  0  0  0  0  0  0  0  0
  -29.5550  -20.3820   20.0810 C   0  0  0  0  0  0  0  0  0  0  0  0
  -30.9400  -17.6920   22.4380 C   0  0  0  0  0  1  0  0  0  0  0  0
  -29.3040  -18.9790   19.0090 S   0  0  0  0  0  0  0  0  0  0  0  0
  -29.7980  -16.2170   19.6850 C   0  0  0  0  0  0  0  0  0  0  0  0
  -29.0000  -16.0190   18.7230 N   0  0  0  0  0  0  0  0  0  0  0  0
  -29.0160  -15.0430   18.4480 H   0  0  0  0  0  0  0  0  0  0  0  0
  -30.6550  -14.9220   20.1810 C   0  0  0  0  0  0  0  0  0  0  0  0
  -30.4690  -12.5970   19.2510 C   0  0  0  0  0  2  0  0  0  0  0  0
  -29.5020  -12.5880   18.0450 C   0  0  0  0  0  2  0  0  0  0  0  0
  -28.0430  -12.3840   18.5100 C   0  0  0  0  0  2  0  0  0  0  0  0
  -27.6590  -13.2920   19.7070 C   0  0  0  0  0  3  0  0  0  0  0  0
  -28.7530  -13.3200   20.7960 C   0  0  0  0  0  2  0  0  0  0  0  0
  -30.0300  -13.6830   20.1580 N   0  0  0  0  0  0  0  0  0  0  0  0
  -31.8820  -14.9770   20.0770 O   0  0  0  0  0  0  0  0  0  0  0  0
  -25.3060  -13.8940   20.5060 C   0  0  0  0  0  0  0  0  0  0  0  0
  -24.2440  -13.1200   20.8800 C   0  0  0  0  0  0  0  0  0  0  0  0
  -24.7030  -11.7690   20.8260 C   0  0  0  0  0  0  0  0  0  0  0  0
  -26.3380  -13.0060   20.2390 N   0  0  0  0  0  0  0  0  0  0  0  0
  -25.9880  -11.7250   20.4970 N   0  0  0  0  0  0  0  0  0  0  0  0
  -23.9800  -10.5070   21.0080 C   0  0  0  0  0  0  0  0  0  0  0  0
  -24.4040   -9.5440   21.9500 C   0  0  0  0  0  3  0  0  0  0  0  0
  -23.6810   -8.3450   22.1210 C   0  0  0  0  0  3  0  0  0  0  0  0
  -22.5220   -8.1010   21.3480 C   0  0  0  0  0  0  0  0  0  0  0  0
  -22.1180   -9.0510   20.3950 C   0  0  0  0  0  3  0  0  0  0  0  0
  -22.8410  -10.2420   20.2210 C   0  0  0  0  0  3  0  0  0  0  0  0
  -21.7710   -6.9530   21.4290 O   0  0  0  0  0  0  0  0  0  0  0  0
  -21.6810   -6.2350   22.5940 C   0  0  0  0  0  0  0  0  0  0  0  0
  -21.1600   -6.7980   23.7790 C   0  0  0  0  0  3  0  0  0  0  0  0
  -21.0200   -6.0030   24.9330 C   0  0  0  0  0  3  0  0  0  0  0  0
  -21.3910   -4.6450   24.9040 C   0  0  0  0  0  0  0  0  0  0  0  0
  -21.9060   -4.0810   23.7230 C   0  0  0  0  0  3  0  0  0  0  0  0
  -22.0470   -4.8740   22.5710 C   0  0  0  0  0  0  0  0  0  0  0  0
  -22.5230   -4.3200   21.4290 F   0  0  0  0  0  0  0  0  0  0  0  0
  -21.2500   -3.8790   26.0110 F   0  0  0  0  0  0  0  0  0  0  0  0
  -22.8520  -13.5980   21.1750 C   0  0  0  0  0  0  0  0  0  0  0  0
  -22.1300  -12.8850   22.0330 N   0  0  0  0  0  0  0  0  0  0  0  0
  -22.4140  -14.6360   20.6810 O   0  0  0  0  0  0  0  0  0  0  0  0
  -22.5000  -12.0460   22.4550 H   0  0  0  0  0  0  0  0  0  0  0  0
  -21.1960  -13.1850   22.2750 H   0  0  0  0  0  0  0  0  0  0  0  0
  -25.4730  -15.2670   20.3410 N   0  0  0  0  0  0  0  0  0  0  0  0
  -24.7140  -15.9250   20.4710 H   0  0  0  0  0  0  0  0  0  0  0  0
  -26.3190  -15.7010   19.9880 H   0  0  0  0  0  0  0  0  0  0  0  0
  -28.8050  -24.0410   19.1630 C   0  0  0  0  0  0  0  0  0  0  0  0
  -28.5150  -25.4230   19.1960 C   0  0  0  0  0  0  0  0  0  0  0  0
  -28.5190  -26.1900   17.8650 C   0  0  0  0  0  1  0  0  0  0  0  0
  -28.9480  -23.5580   17.9130 O   0  0  0  0  0  0  0  0  0  0  0  0
  -28.8050  -24.2880   17.3240 H   0  0  0  0  0  0  0  0  0  0  0  0
  -28.2480  -26.3570   20.2410 O   0  0  0  0  0  0  0  0  0  0  0  0
  -24.5660  -31.9050   23.2350 C   0  0  0  0  0  0  0  0  0  0  0  0
  -27.1650  -27.2850   20.1760 C   0  0  0  0  0  0  0  0  0  0  0  0
  -23.3570  -30.5000   21.6060 C   0  0  0  0  0  3  0  0  0  0  0  0
  -24.8030  -28.9390   20.1770 C   0  0  0  0  0  0  0  0  0  0  0  0
  -25.9020  -30.8030   21.4150 C   0  0  0  0  0  2  0  0  0  0  0  0
  -25.9810  -29.4170   20.7680 C   0  0  0  0  0  0  0  0  0  0  0  0
  -27.1620  -28.6020   20.7590 C   0  0  0  0  0  3  0  0  0  0  0  0
  -25.9530  -26.8710   19.5790 C   0  0  0  0  0  3  0  0  0  0  0  0
  -24.7940  -27.6730   19.5740 C   0  0  0  0  0  3  0  0  0  0  0  0
  -23.5690  -29.8200   20.2290 C   0  0  0  0  0  2  0  0  0  0  0  0
  -24.6290  -31.0890   22.1410 N   0  0  0  0  0  0  0  0  0  0  0  0
  -23.4840  -32.1860   23.7720 O   0  0  0  0  0  0  0  0  0  0  0  0
  -22.6950  -29.4900   22.5750 C   0  0  0  0  0  0  0  0  0  0  0  0
  -21.3680  -29.3070   22.4510 N   0  0  0  0  0  0  0  0  0  0  0  0
  -23.3750  -28.8730   23.4000 O   0  0  0  0  0  0  0  0  0  0  0  0
  -20.8770  -29.8550   21.7580 H   0  0  0  0  0  0  0  0  0  0  0  0
  -17.9950  -28.1020   22.9700 C   0  0  0  0  0  0  0  0  0  0  0  0
  -20.5550  -28.3710   23.2290 C   0  0  0  0  0  3  0  0  0  0  0  0
  -20.6590  -26.9380   22.6610 C   0  0  0  0  0  2  0  0  0  0  0  0
  -19.5540  -26.6060   21.6510 C   0  0  0  0  0  2  0  0  0  0  0  0
  -18.1750  -26.7500   22.2990 C   0  0  0  0  0  2  0  0  0  0  0  0
  -19.1130  -28.8690   23.3920 C   0  0  0  0  0  0  0  0  0  0  0  0
  -18.8910  -30.1340   23.9820 C   0  0  0  0  0  3  0  0  0  0  0  0
  -17.5850  -30.6310   24.1490 C   0  0  0  0  0  3  0  0  0  0  0  0
  -16.4820  -29.8590   23.7420 C   0  0  0  0  0  3  0  0  0  0  0  0
  -16.6890  -28.5970   23.1590 C   0  0  0  0  0  3  0  0  0  0  0  0
  -25.8500  -32.5420   23.8510 C   0  0  0  0  0  3  0  0  0  0  0  0
  -26.3680  -31.7790   25.1310 C   0  0  1  0  0  0  0  0  0  0  0  0
  -25.2760  -31.5460   26.2010 C   0  0  0  0  0  1  0  0  0  0  0  0
  -26.9510  -30.3990   24.7470 C   0  0  0  0  0  1  0  0  0  0  0  0
  -27.5190  -32.5770   25.7880 C   0  0  0  0  0  1  0  0  0  0  0  0
  -25.5410  -33.9420   24.1760 N   0  0  0  0  0  0  0  0  0  0  0  0
  -25.8700  -34.9930   23.4120 C   0  0  0  0  0  0  0  0  0  0  0  0
  -26.5350  -34.8860   22.3780 O   0  0  0  0  0  0  0  0  0  0  0  0
  -24.9510  -34.1010   24.9790 H   0  0  0  0  0  0  0  0  0  0  0  0
  -24.1570  -36.7980   23.0440 C   0  0  0  0  0  1  0  0  0  0  0  0
  -25.3870  -36.3840   23.8690 C   0  0  0  0  0  3  0  0  0  0  0  0
  -27.5130  -37.2600   24.7300 C   0  0  0  0  0  1  0  0  0  0  0  0
  -26.4280  -37.4310   23.7680 N   0  0  0  0  0  0  0  0  0  0  0  0
  -26.0250  -38.3540   23.9050 H   0  0  0  0  0  0  0  0  0  0  0  0
  1  3  2  0
  2  8  1  0
  2  1  1  0
  4  2  1  0
  5  6  1  0
  6  9  1  0
  7  6  2  0
  8  5  2  0
 10  8  1  0
 10  7  1  0
 11  7  1  0
 11 14  1  0
 12 11  2  0
 13 12  1  0
 15 20  1  0
 16 17  1  0
 16 15  1  0
 18 17  1  0
 18 25  1  0
 18 19  1  0
 20 14  1  0
 20 19  1  0
 21 14  2  0
 22 23  2  0
 23 42  1  0
 24 23  1  0
 24 27  1  0
 25 26  1  0
 25 22  1  0
 26 24  2  0
 27 28  1  0
 28 29  2  0
 30 33  1  0
 30 29  1  0
 31 30  2  0
 32 31  1  0
 32 27  2  0
 33 34  1  0
 34 35  1  0
 35 36  2  0
 37 36  1  0
 37 41  1  0
 38 37  2  0
 39 34  2  0
 39 38  1  0
 40 39  1  0
 42 43  1  0
 43 46  1  0
 43 45  1  0
 44 42  2  0
 47 48  1  0
 47 22  1  0
 49 47  1  0
 50 51  2  0
 50  1  1  0
 51 55  1  0
 52 51  1  0
 53 50  1  0
 54 53  1  0
 56 67  2  0
 57 55  1  0
 57 62  1  0
 58 66  1  0
 58 68  1  0
 59 65  1  0
 59 61  1  0
 60 66  1  0
 61 60  1  0
 62 61  2  0
 63 57  2  0
 64 63  1  0
 64 59  2  0
 65 58  1  0
 66 56  1  0
 68 70  2  0
 69 68  1  0
 71 69  1  0
 72 81  2  0
 72 77  1  0
 73 69  1  0
 73 77  1  0
 74 73  1  0
 75 76  1  0
 75 74  1  0
 76 72  1  0
 77 78  2  0
 78 79  1  0
 80 79  2  0
 81 80  1  0
 82 56  1  0
 82 87  1  0
 82 83  1  0
 83 86  1  1
 83 84  1  0
 85 83  1  0
 87 90  1  0
 88 92  1  0
 88 87  1  0
 89 88  2  0
 92 91  1  0
 94 92  1  0
 94 95  1  0
 94 93  1  0
M  ISO  4  11 100  14 100  51 101  55 101
M  END
>  <TORSDO>  (68) 
F 20

>  <SCORE>  (68) 
-14.095

>  <name>  (68) 
67

>  <ligand_id>  (68) 
67

>  <original_smiles>  (68) 
[H]N=C(C(=O)N1C([H])([H])C([H])([H])C([H])([H])C([H])(n2nc(-c3c([H])c([H])c(Oc4c([H])c([H])c(F)c([H])c4F)c([H])c3[H])c(C(=O)N([H])[H])c2N([H])[H])C1([H])[H])c1sc(N([H])C(=O)C(O[H])=C(Oc2c([H])c([H])c3c(c2[H])C([H])([H])N(C(=O)C([H])(N([H])C(=O)C([H])(N([H])C([H])([H])[H])C([H])([H])[H])C(C([H])([H])[H])(C([H])([H])[H])C([H])([H])[H])C([H])(C(=O)N([H])C2([H])c4c([H])c([H])c([H])c([H])c4C([H])([H])C([H])([H])C2([H])[H])C3([H])[H])C([H])([H])[H])c([H])c1C([H])([H])[H]

>  <smiles>  (68) 
[H]N=C(C(=O)N1C([H])([H])C([H])([H])C([H])([H])C([H])(n2nc(-c3c([H])c([H])c(Oc4c([H])c([H])c(F)c([H])c4F)c([H])c3[H])c(C(=O)N([H])[H])c2N([H])[H])C1([H])[H])c1sc(N([H])C(=O)C(O[H])=C(Oc2c([H])c([H])c3c(c2[H])C([H])([H])N(C(=O)C([H])(N([H])C(=O)C([H])(N([H])C([H])([H])[H])C([H])([H])[H])C(C([H])([H])[H])(C([H])([H])[H])C([H])([H])[H])C([H])(C(=O)N([H])C2([H])c4c([H])c([H])c([H])c([H])c4C([H])([H])C([H])([H])C2([H])[H])C3([H])[H])C([H])([H])[H])c([H])c1C([H])([H])[H]

$$$$
68:0:0
     RDKit          3D

 97105  0  0  1  0  0  0  0  0999 V2000
  -28.9430  -21.6940   20.3120 C   0  0  0  0  0  0  0  0  0  0  0  0
  -29.8670  -20.8410   19.8250 N   0  0  0  0  0  0  0  0  0  0  0  0
  -28.0880  -21.3800   21.1450 O   0  0  0  0  0  0  0  0  0  0  0  0
  -30.5440  -21.2840   19.2150 H   0  0  0  0  0  0  0  0  0  0  0  0
  -30.6710  -14.5420   20.2780 C   0  0  0  0  0  0  0  0  0  0  0  0
  -30.3580  -12.3620   19.1700 C   0  0  0  0  0  2  0  0  0  0  0  0
  -29.3980  -12.5660   17.9780 C   0  0  0  0  0  2  0  0  0  0  0  0
  -27.9330  -12.4250   18.4320 C   0  0  0  0  0  2  0  0  0  0  0  0
  -27.6150  -13.2590   19.7030 C   0  0  0  0  0  3  0  0  0  0  0  0
  -28.6920  -13.0560   20.7920 C   0  0  0  0  0  2  0  0  0  0  0  0
  -30.0020  -13.3580   20.1960 N   0  0  0  0  0  0  0  0  0  0  0  0
  -31.8280  -14.6520   19.8580 O   0  0  0  0  0  0  0  0  0  0  0  0
  -31.2460  -18.8550   19.5700 C   0  0  0  0  0  0  0  0  0  0  0  0
  -30.1020  -19.5010   20.0120 C   0  0  0  0  0  0  0  0  0  0  0  0
  -30.1640  -17.0100   20.4190 C   0  0  0  0  0  0  0  0  0  0  0  0
  -31.2610  -17.4740   19.8200 N   0  0  0  0  0  0  0  0  0  0  0  0
  -29.9400  -15.6110   20.6860 N   0  0  0  0  0  0  0  0  0  0  0  0
  -29.0190  -18.3200   20.7720 S   0  0  0  0  0  0  0  0  0  0  0  0
  -29.0360  -15.3860   21.0680 H   0  0  0  0  0  0  0  0  0  0  0  0
  -25.2310  -13.8560   20.4590 C   0  0  0  0  0  0  0  0  0  0  0  0
  -24.1720  -13.0810   20.8460 C   0  0  0  0  0  0  0  0  0  0  0  0
  -24.6360  -11.7300   20.8030 C   0  0  0  0  0  0  0  0  0  0  0  0
  -26.2730  -12.9780   20.2070 N   0  0  0  0  0  0  0  0  0  0  0  0
  -25.9200  -11.6940   20.4720 N   0  0  0  0  0  0  0  0  0  0  0  0
  -23.9150  -10.4660   21.0020 C   0  0  0  0  0  0  0  0  0  0  0  0
  -24.3590   -9.5010   21.9310 C   0  0  0  0  0  3  0  0  0  0  0  0
  -23.6390   -8.3010   22.1180 C   0  0  0  0  0  3  0  0  0  0  0  0
  -22.4590   -8.0580   21.3740 C   0  0  0  0  0  0  0  0  0  0  0  0
  -22.0350   -9.0120   20.4330 C   0  0  0  0  0  3  0  0  0  0  0  0
  -22.7550  -10.2030   20.2450 C   0  0  0  0  0  3  0  0  0  0  0  0
  -21.7100   -6.9120   21.4700 O   0  0  0  0  0  0  0  0  0  0  0  0
  -21.6680   -6.1740   22.6260 C   0  0  0  0  0  0  0  0  0  0  0  0
  -21.2380   -6.7300   23.8500 C   0  0  0  0  0  3  0  0  0  0  0  0
  -21.1440   -5.9180   24.9980 C   0  0  0  0  0  3  0  0  0  0  0  0
  -21.4690   -4.5510   24.9230 C   0  0  0  0  0  0  0  0  0  0  0  0
  -21.8920   -3.9940   23.7030 C   0  0  0  0  0  3  0  0  0  0  0  0
  -21.9880   -4.8020   22.5570 C   0  0  0  0  0  0  0  0  0  0  0  0
  -22.3760   -4.2560   21.3800 F   0  0  0  0  0  0  0  0  0  0  0  0
  -21.3720   -3.7680   26.0230 F   0  0  0  0  0  0  0  0  0  0  0  0
  -22.7790  -13.5550   21.1430 C   0  0  0  0  0  0  0  0  0  0  0  0
  -22.0670  -12.8540   22.0190 N   0  0  0  0  0  0  0  0  0  0  0  0
  -22.3310  -14.5820   20.6340 O   0  0  0  0  0  0  0  0  0  0  0  0
  -22.4420  -12.0240   22.4530 H   0  0  0  0  0  0  0  0  0  0  0  0
  -21.1330  -13.1540   22.2610 H   0  0  0  0  0  0  0  0  0  0  0  0
  -25.3910  -15.2270   20.2810 N   0  0  0  0  0  0  0  0  0  0  0  0
  -24.6200  -15.8760   20.3970 H   0  0  0  0  0  0  0  0  0  0  0  0
  -26.2220  -15.6670   19.9060 H   0  0  0  0  0  0  0  0  0  0  0  0
  -33.7230  -19.3050   19.6930 C   0  0  0  0  0  1  0  0  0  0  0  0
  -32.6150  -18.8490   17.4530 C   0  0  0  0  0  1  0  0  0  0  0  0
  -32.4450  -19.4520   18.8550 C   0  0  1  0  0  0  0  0  0  0  0  0
  -32.3010  -20.7650   18.6540 F   0  0  0  0  0  0  0  0  0  0  0  0
  -29.0980  -23.0350   19.7250 C   0  0  0  0  0  3  0  0  0  0  0  0
  -28.4080  -24.1580   20.0680 C   0  0  0  0  0  0  0  0  0  0  0  0
  -27.4820  -24.2160   21.0390 O   0  0  0  0  0  0  0  0  0  0  0  0
  -27.4010  -23.3430   21.4090 H   0  0  0  0  0  0  0  0  0  0  0  0
  -28.5920  -25.5310   19.3850 C   0  0  0  0  0  2  0  0  0  0  0  0
  -28.4000  -26.7010   20.2160 O   0  0  0  0  0  0  0  0  0  0  0  0
  -24.5870  -31.9010   23.2630 C   0  0  0  0  0  0  0  0  0  0  0  0
  -27.2180  -27.4270   20.1770 C   0  0  0  0  0  0  0  0  0  0  0  0
  -23.3780  -30.5030   21.6200 C   0  0  0  0  0  3  0  0  0  0  0  0
  -24.8260  -28.9610   20.1930 C   0  0  0  0  0  0  0  0  0  0  0  0
  -25.9070  -30.8470   21.4250 C   0  0  0  0  0  2  0  0  0  0  0  0
  -25.9860  -29.4740   20.7830 C   0  0  0  0  0  0  0  0  0  0  0  0
  -27.1810  -28.7130   20.7750 C   0  0  0  0  0  3  0  0  0  0  0  0
  -26.0300  -26.9300   19.5930 C   0  0  0  0  0  3  0  0  0  0  0  0
  -24.8440  -27.6880   19.5960 C   0  0  0  0  0  3  0  0  0  0  0  0
  -23.5850  -29.8250   20.2390 C   0  0  0  0  0  2  0  0  0  0  0  0
  -24.6430  -31.0990   22.1610 N   0  0  0  0  0  0  0  0  0  0  0  0
  -23.5060  -32.1760   23.8030 O   0  0  0  0  0  0  0  0  0  0  0  0
  -22.7230  -29.4840   22.5800 C   0  0  0  0  0  0  0  0  0  0  0  0
  -21.3990  -29.3060   22.4540 N   0  0  0  0  0  0  0  0  0  0  0  0
  -23.4050  -28.8560   23.3940 O   0  0  0  0  0  0  0  0  0  0  0  0
  -20.9100  -29.8640   21.7680 H   0  0  0  0  0  0  0  0  0  0  0  0
  -18.0190  -28.1260   22.9540 C   0  0  0  0  0  0  0  0  0  0  0  0
  -20.5790  -28.3700   23.2230 C   0  0  0  0  0  3  0  0  0  0  0  0
  -20.6730  -26.9400   22.6420 C   0  0  0  0  0  2  0  0  0  0  0  0
  -19.5680  -26.6270   21.6280 C   0  0  0  0  0  2  0  0  0  0  0  0
  -18.1880  -26.7760   22.2760 C   0  0  0  0  0  2  0  0  0  0  0  0
  -19.1420  -28.8800   23.3850 C   0  0  0  0  0  0  0  0  0  0  0  0
  -18.9310  -30.1440   23.9790 C   0  0  0  0  0  3  0  0  0  0  0  0
  -17.6290  -30.6510   24.1470 C   0  0  0  0  0  3  0  0  0  0  0  0
  -16.5200  -29.8940   23.7340 C   0  0  0  0  0  3  0  0  0  0  0  0
  -16.7160  -28.6320   23.1430 C   0  0  0  0  0  3  0  0  0  0  0  0
  -25.8750  -32.5290   23.8830 C   0  0  0  0  0  3  0  0  0  0  0  0
  -26.3860  -31.7610   25.1640 C   0  0  1  0  0  0  0  0  0  0  0  0
  -25.2900  -31.5330   26.2300 C   0  0  0  0  0  1  0  0  0  0  0  0
  -26.9640  -30.3800   24.7770 C   0  0  0  0  0  1  0  0  0  0  0  0
  -27.5390  -32.5530   25.8240 C   0  0  0  0  0  1  0  0  0  0  0  0
  -25.5720  -33.9300   24.2050 N   0  0  0  0  0  0  0  0  0  0  0  0
  -25.9110  -34.9760   23.4400 C   0  0  0  0  0  0  0  0  0  0  0  0
  -26.5820  -34.8630   22.4110 O   0  0  0  0  0  0  0  0  0  0  0  0
  -24.9760  -34.0920   25.0040 H   0  0  0  0  0  0  0  0  0  0  0  0
  -24.1920  -36.7750   23.0700 C   0  0  0  0  0  1  0  0  0  0  0  0
  -25.4290  -36.3690   23.8880 C   0  0  0  0  0  3  0  0  0  0  0  0
  -27.5650  -37.2490   24.7200 C   0  0  0  0  0  1  0  0  0  0  0  0
  -26.4670  -37.4170   23.7720 N   0  0  0  0  0  0  0  0  0  0  0  0
  -26.0650  -38.3400   23.9120 H   0  0  0  0  0  0  0  0  0  0  0  0
  1  3  2  0
  2 14  1  0
  2  1  1  0
  4  2  1  0
  5 17  1  0
  6 11  1  0
  7  8  1  0
  7  6  1  0
  9  8  1  0
  9 23  1  0
  9 10  1  0
 11  5  1  0
 11 10  1  0
 12  5  2  0
 13 16  1  0
 13 14  2  0
 14 18  1  0
 15 17  1  0
 15 18  1  0
 16 15  2  0
 17 19  1  0
 20 21  2  0
 21 40  1  0
 22 21  1  0
 22 25  1  0
 23 20  1  0
 23 24  1  0
 24 22  2  0
 25 26  1  0
 26 27  2  0
 28 31  1  0
 28 27  1  0
 29 28  2  0
 30 29  1  0
 30 25  2  0
 31 32  1  0
 32 33  1  0
 33 34  2  0
 35 34  1  0
 35 39  1  0
 36 35  2  0
 37 32  2  0
 37 36  1  0
 38 37  1  0
 40 41  1  0
 41 44  1  0
 41 43  1  0
 42 40  2  0
 45 46  1  0
 45 20  1  0
 47 45  1  0
 50 49  1  6
 50 13  1  0
 50 48  1  0
 51 50  1  0
 52 53  2  0
 52  1  1  0
 53 54  1  0
 54 55  1  0
 56 53  1  0
 56 57  1  0
 58 69  2  0
 59 57  1  0
 59 64  1  0
 60 68  1  0
 60 70  1  0
 61 67  1  0
 61 63  1  0
 62 68  1  0
 63 62  1  0
 64 63  2  0
 65 66  1  0
 65 59  2  0
 66 61  2  0
 67 60  1  0
 68 58  1  0
 70 72  2  0
 71 70  1  0
 73 71  1  0
 74 83  2  0
 74 79  1  0
 75 71  1  0
 75 79  1  0
 76 75  1  0
 77 78  1  0
 77 76  1  0
 78 74  1  0
 79 80  2  0
 80 81  1  0
 82 81  2  0
 83 82  1  0
 84 58  1  0
 84 89  1  0
 84 85  1  0
 85 88  1  1
 85 86  1  0
 87 85  1  0
 89 92  1  0
 90 94  1  0
 90 89  1  0
 91 90  2  0
 94 93  1  0
 96 94  1  0
 96 97  1  0
 96 95  1  0
M  ISO  4   5 100  17 100  56 101  57 101
M  END
>  <TORSDO>  (69) 
F 20

>  <SCORE>  (69) 
-14.150

>  <name>  (69) 
68

>  <ligand_id>  (69) 
68

>  <original_smiles>  (69) 
[H]OC(=C([H])C(=O)N([H])c1sc(N([H])C(=O)N2C([H])([H])C([H])([H])C([H])([H])C([H])(n3nc(-c4c([H])c([H])c(Oc5c([H])c([H])c(F)c([H])c5F)c([H])c4[H])c(C(=O)N([H])[H])c3N([H])[H])C2([H])[H])nc1C(F)(C([H])([H])[H])C([H])([H])[H])C([H])([H])Oc1c([H])c([H])c2c(c1[H])C([H])([H])N(C(=O)C([H])(N([H])C(=O)C([H])(N([H])C([H])([H])[H])C([H])([H])[H])C(C([H])([H])[H])(C([H])([H])[H])C([H])([H])[H])C([H])(C(=O)N([H])C1([H])c3c([H])c([H])c([H])c([H])c3C([H])([H])C([H])([H])C1([H])[H])C2([H])[H]

>  <smiles>  (69) 
[H]OC(=C([H])C(=O)N([H])c1sc(N([H])C(=O)N2C([H])([H])C([H])([H])C([H])([H])C([H])(n3nc(-c4c([H])c([H])c(Oc5c([H])c([H])c(F)c([H])c5F)c([H])c4[H])c(C(=O)N([H])[H])c3N([H])[H])C2([H])[H])nc1C(F)(C([H])([H])[H])C([H])([H])[H])C([H])([H])Oc1c([H])c([H])c2c(c1[H])C([H])([H])N(C(=O)C([H])(N([H])C(=O)C([H])(N([H])C([H])([H])[H])C([H])([H])[H])C(C([H])([H])[H])(C([H])([H])[H])C([H])([H])[H])C([H])(C(=O)N([H])C1([H])c3c([H])c([H])c([H])c([H])c3C([H])([H])C([H])([H])C1([H])[H])C2([H])[H]

$$$$
69:0:0
     RDKit          3D

 93101  0  0  1  0  0  0  0  0999 V2000
  -29.2480  -23.8480   20.3760 C   0  0  0  0  0  0  0  0  0  0  0  0
  -29.1060  -22.4530   20.2340 N   0  0  0  0  0  0  0  0  0  0  0  0
  -30.3430  -24.3890   20.5700 O   0  0  0  0  0  0  0  0  0  0  0  0
  -28.2600  -22.1700   19.7620 H   0  0  0  0  0  0  0  0  0  0  0  0
  -29.8950  -21.3890   20.7130 C   0  0  0  0  0  0  0  0  0  0  0  0
  -31.1280  -21.5920   21.8450 S   0  0  0  0  0  0  0  0  0  0  0  0
  -30.5320  -14.7670   20.0190 C   0  0  0  0  0  0  0  0  0  0  0  0
  -30.2790  -12.5070   18.9770 C   0  0  0  0  0  2  0  0  0  0  0  0
  -29.2690  -12.6130   17.8110 C   0  0  0  0  0  2  0  0  0  0  0  0
  -27.8260  -12.4360   18.3210 C   0  0  0  0  0  2  0  0  0  0  0  0
  -27.5320  -13.3040   19.5730 C   0  0  0  0  0  3  0  0  0  0  0  0
  -28.6470  -13.1720   20.6340 C   0  0  0  0  0  2  0  0  0  0  0  0
  -29.9180  -13.5320   19.9870 N   0  0  0  0  0  0  0  0  0  0  0  0
  -31.6680  -14.8970   19.5470 O   0  0  0  0  0  0  0  0  0  0  0  0
  -29.7300  -19.9460   20.3020 C   0  0  0  0  0  0  0  0  0  0  0  0
  -29.8790  -19.3210   19.0720 C   0  0  0  0  0  0  0  0  0  0  0  0
  -29.8720  -17.3090   20.2540 C   0  0  0  0  0  0  0  0  0  0  0  0
  -29.9710  -17.8920   19.0470 N   0  0  0  0  0  0  0  0  0  0  0  0
  -29.7980  -15.8450   20.4870 N   0  0  0  0  0  0  0  0  0  0  0  0
  -30.0180  -20.0120   17.9640 F   0  0  0  0  0  0  0  0  0  0  0  0
  -29.5820  -18.5910   21.4850 S   0  0  0  0  0  0  0  0  0  0  0  0
  -29.0010  -15.5690   21.0390 H   0  0  0  0  0  0  0  0  0  0  0  0
  -25.1990  -13.9080   20.4470 C   0  0  0  0  0  0  0  0  0  0  0  0
  -24.1460  -13.1400   20.8590 C   0  0  0  0  0  0  0  0  0  0  0  0
  -24.5850  -11.7830   20.7670 C   0  0  0  0  0  0  0  0  0  0  0  0
  -26.2140  -13.0210   20.1280 N   0  0  0  0  0  0  0  0  0  0  0  0
  -25.8550  -11.7370   20.3810 N   0  0  0  0  0  0  0  0  0  0  0  0
  -23.8530  -10.5250   20.9600 C   0  0  0  0  0  0  0  0  0  0  0  0
  -24.2980   -9.5460   21.8750 C   0  0  0  0  0  3  0  0  0  0  0  0
  -23.5660   -8.3530   22.0600 C   0  0  0  0  0  3  0  0  0  0  0  0
  -22.3750   -8.1310   21.3290 C   0  0  0  0  0  0  0  0  0  0  0  0
  -21.9480   -9.0990   20.4040 C   0  0  0  0  0  3  0  0  0  0  0  0
  -22.6790  -10.2840   20.2170 C   0  0  0  0  0  3  0  0  0  0  0  0
  -21.6110   -6.9920   21.4250 O   0  0  0  0  0  0  0  0  0  0  0  0
  -21.5450   -6.2660   22.5870 C   0  0  0  0  0  0  0  0  0  0  0  0
  -21.0980   -6.8370   23.7990 C   0  0  0  0  0  3  0  0  0  0  0  0
  -20.9810   -6.0360   24.9520 C   0  0  0  0  0  3  0  0  0  0  0  0
  -21.3000   -4.6660   24.8950 C   0  0  0  0  0  0  0  0  0  0  0  0
  -21.7410   -4.0960   23.6880 C   0  0  0  0  0  3  0  0  0  0  0  0
  -21.8610   -4.8930   22.5380 C   0  0  0  0  0  0  0  0  0  0  0  0
  -22.2660   -4.3340   21.3710 F   0  0  0  0  0  0  0  0  0  0  0  0
  -21.1810   -3.8950   26.0020 F   0  0  0  0  0  0  0  0  0  0  0  0
  -22.7740  -13.6270   21.2240 C   0  0  0  0  0  0  0  0  0  0  0  0
  -22.0840  -12.9170   22.1100 N   0  0  0  0  0  0  0  0  0  0  0  0
  -22.3220  -14.6710   20.7550 O   0  0  0  0  0  0  0  0  0  0  0  0
  -22.4630  -12.0720   22.5110 H   0  0  0  0  0  0  0  0  0  0  0  0
  -21.1660  -13.2270   22.3950 H   0  0  0  0  0  0  0  0  0  0  0  0
  -25.3740  -15.2790   20.2900 N   0  0  0  0  0  0  0  0  0  0  0  0
  -24.6130  -15.9360   20.4280 H   0  0  0  0  0  0  0  0  0  0  0  0
  -26.1890  -15.7020   19.8650 H   0  0  0  0  0  0  0  0  0  0  0  0
  -27.1290  -24.5690   21.5510 C   0  0  0  0  0  1  0  0  0  0  0  0
  -27.9980  -24.8550   20.3030 C   0  0  0  0  0  3  0  0  0  0  0  0
  -28.2960  -26.3500   20.2710 O   0  0  0  0  0  0  0  0  0  0  0  0
  -24.6270  -31.8870   23.2420 C   0  0  0  0  0  0  0  0  0  0  0  0
  -27.2210  -27.2750   20.1870 C   0  0  0  0  0  0  0  0  0  0  0  0
  -23.4230  -30.4900   21.6030 C   0  0  0  0  0  3  0  0  0  0  0  0
  -24.8720  -28.9400   20.1700 C   0  0  0  0  0  0  0  0  0  0  0  0
  -25.9690  -30.7900   21.4260 C   0  0  0  0  0  2  0  0  0  0  0  0
  -26.0450  -29.4100   20.7730 C   0  0  0  0  0  0  0  0  0  0  0  0
  -27.2240  -28.5900   20.7690 C   0  0  0  0  0  3  0  0  0  0  0  0
  -26.0290  -26.8930   19.5280 C   0  0  0  0  0  3  0  0  0  0  0  0
  -24.8690  -27.6910   19.5360 C   0  0  0  0  0  3  0  0  0  0  0  0
  -23.6370  -29.8180   20.2220 C   0  0  0  0  0  2  0  0  0  0  0  0
  -24.6920  -31.0750   22.1450 N   0  0  0  0  0  0  0  0  0  0  0  0
  -23.5430  -32.1660   23.7740 O   0  0  0  0  0  0  0  0  0  0  0  0
  -22.7560  -29.4760   22.5630 C   0  0  0  0  0  0  0  0  0  0  0  0
  -21.4290  -29.3030   22.4370 N   0  0  0  0  0  0  0  0  0  0  0  0
  -23.4330  -28.8480   23.3810 O   0  0  0  0  0  0  0  0  0  0  0  0
  -20.9420  -29.8600   21.7480 H   0  0  0  0  0  0  0  0  0  0  0  0
  -18.0480  -28.1170   22.9460 C   0  0  0  0  0  0  0  0  0  0  0  0
  -20.6070  -28.3670   23.2080 C   0  0  0  0  0  3  0  0  0  0  0  0
  -20.7040  -26.9360   22.6300 C   0  0  0  0  0  2  0  0  0  0  0  0
  -19.5980  -26.6190   21.6180 C   0  0  0  0  0  2  0  0  0  0  0  0
  -18.2180  -26.7680   22.2670 C   0  0  0  0  0  2  0  0  0  0  0  0
  -19.1710  -28.8740   23.3740 C   0  0  0  0  0  0  0  0  0  0  0  0
  -18.9580  -30.1350   23.9710 C   0  0  0  0  0  3  0  0  0  0  0  0
  -17.6550  -30.6400   24.1430 C   0  0  0  0  0  3  0  0  0  0  0  0
  -16.5470  -29.8790   23.7320 C   0  0  0  0  0  3  0  0  0  0  0  0
  -16.7440  -28.6200   23.1380 C   0  0  0  0  0  3  0  0  0  0  0  0
  -25.9080  -32.5190   23.8660 C   0  0  0  0  0  3  0  0  0  0  0  0
  -25.5960  -33.9150   24.2010 N   0  0  0  0  0  0  0  0  0  0  0  0
  -25.9150  -34.9730   23.4440 C   0  0  0  0  0  0  0  0  0  0  0  0
  -26.5750  -34.8760   22.4050 O   0  0  0  0  0  0  0  0  0  0  0  0
  -25.0080  -34.0650   25.0080 H   0  0  0  0  0  0  0  0  0  0  0  0
  -24.1750  -36.7640   23.1190 C   0  0  0  0  0  1  0  0  0  0  0  0
  -25.4290  -36.3590   23.9120 C   0  0  0  0  0  3  0  0  0  0  0  0
  -27.5690  -37.2550   24.7190 C   0  0  0  0  0  1  0  0  0  0  0  0
  -26.4550  -37.4160   23.7880 N   0  0  0  0  0  0  0  0  0  0  0  0
  -26.0460  -38.3350   23.9410 H   0  0  0  0  0  0  0  0  0  0  0  0
  -26.4240  -31.7450   25.1410 C   0  0  1  0  0  0  0  0  0  0  0  0
  -25.3300  -31.5050   26.2070 C   0  0  0  0  0  1  0  0  0  0  0  0
  -27.0100  -30.3680   24.7490 C   0  0  0  0  0  1  0  0  0  0  0  0
  -27.5730  -32.5390   25.8070 C   0  0  0  0  0  1  0  0  0  0  0  0
  1  3  2  0
  2  1  1  0
  2  5  1  0
  4  2  1  0
  5  6  2  0
  7 19  1  0
  8 13  1  0
  9 10  1  0
  9  8  1  0
 11 10  1  0
 11 26  1  0
 11 12  1  0
 13  7  1  0
 13 12  1  0
 14  7  2  0
 15  5  1  0
 15 21  1  0
 16 15  2  0
 17 19  1  0
 17 21  1  0
 18 16  1  0
 18 17  2  0
 19 22  1  0
 20 16  1  0
 23 24  2  0
 24 43  1  0
 25 24  1  0
 25 28  1  0
 26 27  1  0
 26 23  1  0
 27 25  2  0
 28 29  1  0
 29 30  2  0
 31 34  1  0
 31 30  1  0
 32 31  2  0
 33 32  1  0
 33 28  2  0
 34 35  1  0
 35 36  1  0
 36 37  2  0
 38 37  1  0
 38 42  1  0
 39 38  2  0
 40 35  2  0
 40 39  1  0
 41 40  1  0
 43 44  1  0
 44 47  1  0
 44 46  1  0
 45 43  2  0
 48 49  1  0
 48 23  1  0
 50 48  1  0
 52  1  1  0
 52 51  1  0
 53 52  1  0
 54 65  2  0
 55 53  1  0
 55 60  1  0
 56 64  1  0
 56 66  1  0
 57 63  1  0
 57 59  1  0
 58 64  1  0
 59 58  1  0
 60 59  2  0
 61 62  1  0
 61 55  2  0
 62 57  2  0
 63 56  1  0
 64 54  1  0
 66 68  2  0
 67 66  1  0
 69 67  1  0
 70 79  2  0
 70 75  1  0
 71 67  1  0
 71 75  1  0
 72 71  1  0
 73 74  1  0
 73 72  1  0
 74 70  1  0
 75 76  2  0
 76 77  1  0
 78 77  2  0
 79 78  1  0
 80 54  1  0
 80 81  1  0
 80 90  1  0
 81 84  1  0
 82 86  1  0
 82 81  1  0
 83 82  2  0
 86 85  1  0
 88 86  1  0
 88 89  1  0
 88 87  1  0
 90 93  1  1
 90 91  1  0
 92 90  1  0
M  ISO  4   7 100  19 100  52 101  53 101
M  END
>  <TORSDO>  (70) 
F 18

>  <SCORE>  (70) 
-14.191

>  <name>  (70) 
69

>  <ligand_id>  (70) 
69

>  <original_smiles>  (70) 
[H]c1c([H])c([H])c2c(c1[H])C([H])([H])C([H])([H])C([H])([H])C2([H])N([H])C(=O)C1([H])N(C(=O)C([H])(N([H])C(=O)C([H])(N([H])C([H])([H])[H])C([H])([H])[H])C(C([H])([H])[H])(C([H])([H])[H])C([H])([H])[H])C([H])([H])c2c([H])c(OC([H])(C(=O)N([H])C(=S)c3sc(N([H])C(=O)N4C([H])([H])C([H])([H])C([H])([H])C([H])(n5nc(-c6c([H])c([H])c(Oc7c([H])c([H])c(F)c([H])c7F)c([H])c6[H])c(C(=O)N([H])[H])c5N([H])[H])C4([H])[H])nc3F)C([H])([H])[H])c([H])c([H])c2C1([H])[H]

>  <smiles>  (70) 
[H]c1c([H])c([H])c2c(c1[H])C([H])([H])C([H])([H])C([H])([H])C2([H])N([H])C(=O)C1([H])N(C(=O)C([H])(N([H])C(=O)C([H])(N([H])C([H])([H])[H])C([H])([H])[H])C(C([H])([H])[H])(C([H])([H])[H])C([H])([H])[H])C([H])([H])c2c([H])c(OC([H])(C(=O)N([H])C(=S)c3sc(N([H])C(=O)N4C([H])([H])C([H])([H])C([H])([H])C([H])(n5nc(-c6c([H])c([H])c(Oc7c([H])c([H])c(F)c([H])c7F)c([H])c6[H])c(C(=O)N([H])[H])c5N([H])[H])C4([H])[H])nc3F)C([H])([H])[H])c([H])c([H])c2C1([H])[H]

$$$$
70:0:0
     RDKit          3D

 93101  0  0  1  0  0  0  0  0999 V2000
  -28.9600  -22.5970   19.9340 C   0  0  0  0  0  0  0  0  0  0  0  0
  -28.7800  -21.2150   20.2100 N   0  0  0  0  0  0  0  0  0  0  0  0
  -29.7700  -22.9960   19.0980 O   0  0  0  0  0  0  0  0  0  0  0  0
  -28.0620  -21.1400   20.9190 H   0  0  0  0  0  0  0  0  0  0  0  0
  -30.5180  -14.8870   20.2300 C   0  0  0  0  0  0  0  0  0  0  0  0
  -30.3940  -12.5490   19.3160 C   0  0  0  0  0  2  0  0  0  0  0  0
  -29.4440  -12.5790   18.0970 C   0  0  0  0  0  2  0  0  0  0  0  0
  -27.9840  -12.3720   18.5430 C   0  0  0  0  0  2  0  0  0  0  0  0
  -27.6000  -13.2750   19.7470 C   0  0  0  0  0  3  0  0  0  0  0  0
  -28.6710  -13.2210   20.8570 C   0  0  0  0  0  2  0  0  0  0  0  0
  -29.9450  -13.6210   20.2450 N   0  0  0  0  0  0  0  0  0  0  0  0
  -31.7040  -14.9830   19.8960 O   0  0  0  0  0  0  0  0  0  0  0  0
  -30.1340  -19.6390   18.6490 C   0  0  0  0  0  0  0  0  0  0  0  0
  -29.3750  -19.8780   19.7950 C   0  0  0  0  0  0  0  0  0  0  0  0
  -29.8300  -17.4670   19.9820 C   0  0  0  0  0  0  0  0  0  0  0  0
  -30.5110  -20.5560   17.5220 C   0  0  0  0  0  1  0  0  0  0  0  0
  -29.1790  -18.5900   20.4840 N   0  0  0  0  0  0  0  0  0  0  0  0
  -29.7170  -16.0290   20.4480 N   0  0  0  0  0  0  0  0  0  0  0  0
  -30.7150  -17.9580   18.5390 S   0  0  0  0  0  0  0  0  0  0  0  0
  -28.8330  -15.8060   20.8730 H   0  0  0  0  0  0  0  0  0  0  0  0
  -25.2200  -13.8540   20.5110 C   0  0  0  0  0  0  0  0  0  0  0  0
  -24.1560  -13.0730   20.8770 C   0  0  0  0  0  0  0  0  0  0  0  0
  -24.6270  -11.7250   20.8390 C   0  0  0  0  0  0  0  0  0  0  0  0
  -26.2620  -12.9780   20.2540 N   0  0  0  0  0  0  0  0  0  0  0  0
  -25.9150  -11.6910   20.5200 N   0  0  0  0  0  0  0  0  0  0  0  0
  -23.9050  -10.4610   21.0310 C   0  0  0  0  0  0  0  0  0  0  0  0
  -24.3470   -9.4930   21.9610 C   0  0  0  0  0  3  0  0  0  0  0  0
  -23.6240   -8.2940   22.1430 C   0  0  0  0  0  3  0  0  0  0  0  0
  -22.4470   -8.0530   21.3980 C   0  0  0  0  0  0  0  0  0  0  0  0
  -22.0260   -9.0100   20.4550 C   0  0  0  0  0  3  0  0  0  0  0  0
  -22.7470  -10.2010   20.2710 C   0  0  0  0  0  3  0  0  0  0  0  0
  -21.6960   -6.9040   21.4930 O   0  0  0  0  0  0  0  0  0  0  0  0
  -21.6640   -6.1560   22.6420 C   0  0  0  0  0  0  0  0  0  0  0  0
  -21.2450   -6.7050   23.8740 C   0  0  0  0  0  3  0  0  0  0  0  0
  -21.1590   -5.8850   25.0150 C   0  0  0  0  0  3  0  0  0  0  0  0
  -21.4750   -4.5160   24.9280 C   0  0  0  0  0  0  0  0  0  0  0  0
  -21.8840   -3.9660   23.7000 C   0  0  0  0  0  3  0  0  0  0  0  0
  -21.9750   -4.7820   22.5600 C   0  0  0  0  0  0  0  0  0  0  0  0
  -22.3500   -4.2440   21.3740 F   0  0  0  0  0  0  0  0  0  0  0  0
  -21.3800   -3.7260   26.0230 F   0  0  0  0  0  0  0  0  0  0  0  0
  -22.7590  -13.5450   21.1550 C   0  0  0  0  0  0  0  0  0  0  0  0
  -22.0350  -12.8460   22.0190 N   0  0  0  0  0  0  0  0  0  0  0  0
  -22.3190  -14.5750   20.6420 O   0  0  0  0  0  0  0  0  0  0  0  0
  -22.4040  -12.0120   22.4530 H   0  0  0  0  0  0  0  0  0  0  0  0
  -21.0990  -13.1490   22.2560 H   0  0  0  0  0  0  0  0  0  0  0  0
  -25.3810  -15.2270   20.3610 N   0  0  0  0  0  0  0  0  0  0  0  0
  -24.6330  -15.8780   20.5760 H   0  0  0  0  0  0  0  0  0  0  0  0
  -26.2570  -15.6870   20.1560 H   0  0  0  0  0  0  0  0  0  0  0  0
  -27.8660  -24.9540   20.8290 C   0  0  0  0  0  3  0  0  0  0  0  0
  -28.1060  -23.5500   20.7740 C   0  0  0  0  0  0  0  0  0  0  0  0
  -27.4230  -22.8800   21.7180 O   0  0  0  0  0  0  0  0  0  0  0  0
  -26.9710  -23.5120   22.2600 H   0  0  0  0  0  0  0  0  0  0  0  0
  -28.2300  -26.2070   20.2090 O   0  0  0  0  0  0  0  0  0  0  0  0
  -24.6190  -31.8740   23.2370 C   0  0  0  0  0  0  0  0  0  0  0  0
  -27.2120  -27.2180   20.1810 C   0  0  0  0  0  0  0  0  0  0  0  0
  -23.4210  -30.4720   21.6000 C   0  0  0  0  0  3  0  0  0  0  0  0
  -24.8710  -28.9170   20.1600 C   0  0  0  0  0  0  0  0  0  0  0  0
  -25.9670  -30.7580   21.4290 C   0  0  0  0  0  2  0  0  0  0  0  0
  -26.0490  -29.3730   20.7760 C   0  0  0  0  0  0  0  0  0  0  0  0
  -27.2250  -28.5360   20.7790 C   0  0  0  0  0  3  0  0  0  0  0  0
  -26.0150  -26.8560   19.5310 C   0  0  0  0  0  3  0  0  0  0  0  0
  -24.8650  -27.6710   19.5230 C   0  0  0  0  0  3  0  0  0  0  0  0
  -23.6360  -29.8010   20.2170 C   0  0  0  0  0  2  0  0  0  0  0  0
  -24.6880  -31.0550   22.1440 N   0  0  0  0  0  0  0  0  0  0  0  0
  -23.5320  -32.1560   23.7710 O   0  0  0  0  0  0  0  0  0  0  0  0
  -22.7530  -29.4580   22.5620 C   0  0  0  0  0  0  0  0  0  0  0  0
  -21.4240  -29.2840   22.4360 N   0  0  0  0  0  0  0  0  0  0  0  0
  -23.4270  -28.8330   23.3820 O   0  0  0  0  0  0  0  0  0  0  0  0
  -20.9370  -29.8400   21.7480 H   0  0  0  0  0  0  0  0  0  0  0  0
  -18.0450  -28.0830   22.9420 C   0  0  0  0  0  0  0  0  0  0  0  0
  -20.6040  -28.3460   23.2090 C   0  0  0  0  0  3  0  0  0  0  0  0
  -20.7050  -26.9130   22.6370 C   0  0  0  0  0  2  0  0  0  0  0  0
  -19.6050  -26.5880   21.6220 C   0  0  0  0  0  2  0  0  0  0  0  0
  -18.2240  -26.7310   22.2680 C   0  0  0  0  0  2  0  0  0  0  0  0
  -19.1640  -28.8460   23.3670 C   0  0  0  0  0  0  0  0  0  0  0  0
  -18.9460  -30.1090   23.9620 C   0  0  0  0  0  3  0  0  0  0  0  0
  -17.6420  -30.6060   24.1360 C   0  0  0  0  0  3  0  0  0  0  0  0
  -16.5380  -29.8410   23.7220 C   0  0  0  0  0  3  0  0  0  0  0  0
  -16.7380  -28.5790   23.1320 C   0  0  0  0  0  3  0  0  0  0  0  0
  -25.8990  -32.5090   23.8590 C   0  0  0  0  0  3  0  0  0  0  0  0
  -25.5880  -33.9100   24.1870 N   0  0  0  0  0  0  0  0  0  0  0  0
  -25.9130  -34.9630   23.4240 C   0  0  0  0  0  0  0  0  0  0  0  0
  -26.5830  -34.8560   22.3920 O   0  0  0  0  0  0  0  0  0  0  0  0
  -24.9950  -34.0630   24.9890 H   0  0  0  0  0  0  0  0  0  0  0  0
  -24.1820  -36.7530   23.0720 C   0  0  0  0  0  1  0  0  0  0  0  0
  -25.4260  -36.3500   23.8790 C   0  0  0  0  0  3  0  0  0  0  0  0
  -27.5590  -37.2450   24.7030 C   0  0  0  0  0  1  0  0  0  0  0  0
  -26.4550  -37.4040   23.7580 N   0  0  0  0  0  0  0  0  0  0  0  0
  -26.0480  -38.3250   23.8970 H   0  0  0  0  0  0  0  0  0  0  0  0
  -26.4060  -31.7460   25.1430 C   0  0  1  0  0  0  0  0  0  0  0  0
  -25.3050  -31.5250   26.2060 C   0  0  0  0  0  1  0  0  0  0  0  0
  -26.9930  -30.3650   24.7730 C   0  0  0  0  0  1  0  0  0  0  0  0
  -27.5570  -32.5410   25.8020 C   0  0  0  0  0  1  0  0  0  0  0  0
  1  2  1  0
  1 50  1  0
  2  4  1  0
  3  1  2  0
  5 11  1  0
  5 18  1  0
  6 11  1  0
  7  8  1  0
  7  6  1  0
  9  8  1  0
  9 24  1  0
  9 10  1  0
 11 10  1  0
 12  5  2  0
 13 14  2  0
 14  2  1  0
 14 17  1  0
 15 18  1  0
 15 17  2  0
 16 13  1  0
 18 20  1  0
 19 13  1  0
 19 15  1  0
 21 22  2  0
 22 41  1  0
 23 22  1  0
 23 26  1  0
 24 21  1  0
 24 25  1  0
 25 23  2  0
 26 27  1  0
 27 28  2  0
 29 32  1  0
 29 28  1  0
 30 29  2  0
 31 30  1  0
 31 26  2  0
 32 33  1  0
 33 34  1  0
 34 35  2  0
 36 35  1  0
 36 40  1  0
 37 36  2  0
 38 33  2  0
 38 37  1  0
 39 38  1  0
 41 42  1  0
 42 45  1  0
 42 44  1  0
 43 41  2  0
 46 21  1  0
 46 47  1  0
 48 46  1  0
 50 49  2  0
 50 51  1  0
 51 52  1  0
 53 49  1  0
 54 65  2  0
 55 53  1  0
 55 60  1  0
 56 64  1  0
 56 66  1  0
 57 63  1  0
 57 59  1  0
 58 64  1  0
 59 60  2  0
 59 58  1  0
 61 55  2  0
 62 61  1  0
 62 57  2  0
 63 56  1  0
 64 54  1  0
 66 68  2  0
 67 66  1  0
 69 67  1  0
 70 79  2  0
 70 75  1  0
 71 67  1  0
 71 75  1  0
 72 71  1  0
 73 74  1  0
 73 72  1  0
 74 70  1  0
 75 76  2  0
 76 77  1  0
 78 77  2  0
 79 78  1  0
 80 54  1  0
 80 81  1  0
 80 90  1  0
 81 84  1  0
 82 86  1  0
 82 81  1  0
 83 82  2  0
 86 85  1  0
 88 86  1  0
 88 89  1  0
 88 87  1  0
 90 93  1  1
 90 91  1  0
 92 90  1  0
M  ISO  4   5 100  18 100  49 101  53 101
M  END
>  <TORSDO>  (71) 
F 18

>  <SCORE>  (71) 
-15.078

>  <name>  (71) 
70

>  <ligand_id>  (71) 
70

>  <original_smiles>  (71) 
[H]OC(C(=O)N([H])c1nc(N([H])C(=O)N2C([H])([H])C([H])([H])C([H])([H])C([H])(n3nc(-c4c([H])c([H])c(Oc5c([H])c([H])c(F)c([H])c5F)c([H])c4[H])c(C(=O)N([H])[H])c3N([H])[H])C2([H])[H])sc1C([H])([H])[H])=C([H])Oc1c([H])c([H])c2c(c1[H])C([H])([H])N(C(=O)C([H])(N([H])C(=O)C([H])(N([H])C([H])([H])[H])C([H])([H])[H])C(C([H])([H])[H])(C([H])([H])[H])C([H])([H])[H])C([H])(C(=O)N([H])C1([H])c3c([H])c([H])c([H])c([H])c3C([H])([H])C([H])([H])C1([H])[H])C2([H])[H]

>  <smiles>  (71) 
[H]OC(C(=O)N([H])c1nc(N([H])C(=O)N2C([H])([H])C([H])([H])C([H])([H])C([H])(n3nc(-c4c([H])c([H])c(Oc5c([H])c([H])c(F)c([H])c5F)c([H])c4[H])c(C(=O)N([H])[H])c3N([H])[H])C2([H])[H])sc1C([H])([H])[H])=C([H])Oc1c([H])c([H])c2c(c1[H])C([H])([H])N(C(=O)C([H])(N([H])C(=O)C([H])(N([H])C([H])([H])[H])C([H])([H])[H])C(C([H])([H])[H])(C([H])([H])[H])C([H])([H])[H])C([H])(C(=O)N([H])C1([H])c3c([H])c([H])c([H])c([H])c3C([H])([H])C([H])([H])C1([H])[H])C2([H])[H]

$$$$
71:0:0
     RDKit          3D

 95103  0  0  1  0  0  0  0  0999 V2000
  -29.2120  -22.5320   20.3880 C   0  0  0  0  0  0  0  0  0  0  0  0
  -28.8260  -21.2120   20.5680 N   0  0  0  0  0  0  0  0  0  0  0  0
  -30.4000  -22.8520   20.3820 O   0  0  0  0  0  0  0  0  0  0  0  0
  -27.8190  -21.1320   20.5450 H   0  0  0  0  0  0  0  0  0  0  0  0
  -30.6040  -14.8270   20.2560 C   0  0  0  0  0  0  0  0  0  0  0  0
  -30.4220  -12.5640   19.1780 C   0  0  0  0  0  2  0  0  0  0  0  0
  -29.4580  -12.6670   17.9740 C   0  0  0  0  0  2  0  0  0  0  0  0
  -28.0000  -12.4640   18.4320 C   0  0  0  0  0  2  0  0  0  0  0  0
  -27.6460  -13.3270   19.6710 C   0  0  0  0  0  3  0  0  0  0  0  0
  -28.7250  -13.2100   20.7720 C   0  0  0  0  0  2  0  0  0  0  0  0
  -30.0130  -13.5850   20.1690 N   0  0  0  0  0  0  0  0  0  0  0  0
  -31.7710  -14.9850   19.8720 O   0  0  0  0  0  0  0  0  0  0  0  0
  -30.7970  -19.5010   20.8110 C   0  0  0  0  0  0  0  0  0  0  0  0
  -29.4750  -19.9540   20.6410 C   0  0  0  0  0  0  0  0  0  0  0  0
  -29.8660  -17.3550   20.5820 C   0  0  0  0  0  0  0  0  0  0  0  0
  -30.9820  -18.0820   20.7060 N   0  0  0  0  0  0  0  0  0  0  0  0
  -29.7690  -15.8760   20.6030 N   0  0  0  0  0  0  0  0  0  0  0  0
  -28.4710  -18.4750   20.5130 S   0  0  0  0  0  0  0  0  0  0  0  0
  -28.8460  -15.5520   20.8450 H   0  0  0  0  0  0  0  0  0  0  0  0
  -25.2670  -13.9030   20.4390 C   0  0  0  0  0  0  0  0  0  0  0  0
  -24.2140  -13.1210   20.8250 C   0  0  0  0  0  0  0  0  0  0  0  0
  -24.6850  -11.7710   20.7750 C   0  0  0  0  0  0  0  0  0  0  0  0
  -26.3130  -13.0300   20.1790 N   0  0  0  0  0  0  0  0  0  0  0  0
  -25.9700  -11.7430   20.4450 N   0  0  0  0  0  0  0  0  0  0  0  0
  -23.9670  -10.5040   20.9730 C   0  0  0  0  0  0  0  0  0  0  0  0
  -24.4120   -9.5450   21.9120 C   0  0  0  0  0  3  0  0  0  0  0  0
  -23.6960   -8.3420   22.1010 C   0  0  0  0  0  3  0  0  0  0  0  0
  -22.5260   -8.0880   21.3480 C   0  0  0  0  0  0  0  0  0  0  0  0
  -22.1010   -9.0340   20.4000 C   0  0  0  0  0  3  0  0  0  0  0  0
  -22.8140  -10.2290   20.2110 C   0  0  0  0  0  3  0  0  0  0  0  0
  -21.7840   -6.9360   21.4430 O   0  0  0  0  0  0  0  0  0  0  0  0
  -21.7250   -6.2080   22.6050 C   0  0  0  0  0  0  0  0  0  0  0  0
  -21.2580   -6.7730   23.8100 C   0  0  0  0  0  3  0  0  0  0  0  0
  -21.1490   -5.9750   24.9670 C   0  0  0  0  0  3  0  0  0  0  0  0
  -21.4950   -4.6110   24.9170 C   0  0  0  0  0  0  0  0  0  0  0  0
  -21.9570   -4.0460   23.7160 C   0  0  0  0  0  3  0  0  0  0  0  0
  -22.0700   -4.8430   22.5620 C   0  0  0  0  0  0  0  0  0  0  0  0
  -22.4940   -4.2890   21.4000 F   0  0  0  0  0  0  0  0  0  0  0  0
  -21.3840   -3.8410   26.0240 F   0  0  0  0  0  0  0  0  0  0  0  0
  -22.8180  -13.5870   21.1260 C   0  0  0  0  0  0  0  0  0  0  0  0
  -22.1110  -12.8760   21.9950 N   0  0  0  0  0  0  0  0  0  0  0  0
  -22.3640  -14.6120   20.6210 O   0  0  0  0  0  0  0  0  0  0  0  0
  -22.4910  -12.0440   22.4210 H   0  0  0  0  0  0  0  0  0  0  0  0
  -21.1770  -13.1740   22.2440 H   0  0  0  0  0  0  0  0  0  0  0  0
  -25.4180  -15.2770   20.2660 N   0  0  0  0  0  0  0  0  0  0  0  0
  -24.6370  -15.9160   20.3810 H   0  0  0  0  0  0  0  0  0  0  0  0
  -26.2350  -15.7260   19.8770 H   0  0  0  0  0  0  0  0  0  0  0  0
  -32.8180  -20.3900   19.6420 C   0  0  0  0  0  1  0  0  0  0  0  0
  -33.0010  -19.6800   22.0950 C   0  0  0  0  0  1  0  0  0  0  0  0
  -32.0870  -20.2800   20.9940 C   0  0  0  0  0  3  0  0  0  0  0  0
  -26.7310  -23.2320   20.6650 C   0  0  0  0  0  1  0  0  0  0  0  0
  -27.9950  -23.8400   18.5620 C   0  0  0  0  0  1  0  0  0  0  0  0
  -28.1200  -23.7040   20.1130 C   0  0  2  0  0  0  0  0  0  0  0  0
  -28.4320  -25.1680   20.7790 C   0  0  0  0  0  2  0  0  0  0  0  0
  -28.3690  -26.5190   20.1210 O   0  0  0  0  0  0  0  0  0  0  0  0
  -24.5910  -31.9280   23.2360 C   0  0  0  0  0  0  0  0  0  0  0  0
  -27.2340  -27.3460   20.1980 C   0  0  0  0  0  0  0  0  0  0  0  0
  -23.4040  -30.5200   21.5850 C   0  0  0  0  0  3  0  0  0  0  0  0
  -24.8680  -28.9670   20.1790 C   0  0  0  0  0  0  0  0  0  0  0  0
  -25.9460  -30.8420   21.4260 C   0  0  0  0  0  2  0  0  0  0  0  0
  -26.0370  -29.4590   20.7780 C   0  0  0  0  0  0  0  0  0  0  0  0
  -27.2240  -28.6640   20.7710 C   0  0  0  0  0  3  0  0  0  0  0  0
  -26.0390  -26.9040   19.5980 C   0  0  0  0  0  3  0  0  0  0  0  0
  -24.8740  -27.6940   19.5830 C   0  0  0  0  0  3  0  0  0  0  0  0
  -23.6340  -29.8440   20.2080 C   0  0  0  0  0  2  0  0  0  0  0  0
  -24.6630  -31.1200   22.1350 N   0  0  0  0  0  0  0  0  0  0  0  0
  -23.5060  -32.1960   23.7700 O   0  0  0  0  0  0  0  0  0  0  0  0
  -22.7420  -29.5030   22.5460 C   0  0  0  0  0  0  0  0  0  0  0  0
  -21.4160  -29.3280   22.4300 N   0  0  0  0  0  0  0  0  0  0  0  0
  -23.4250  -28.8670   23.3510 O   0  0  0  0  0  0  0  0  0  0  0  0
  -20.9290  -29.9080   21.7620 H   0  0  0  0  0  0  0  0  0  0  0  0
  -18.0370  -28.1170   22.9040 C   0  0  0  0  0  0  0  0  0  0  0  0
  -20.5960  -28.3820   23.1870 C   0  0  0  0  0  3  0  0  0  0  0  0
  -20.7060  -26.9540   22.6040 C   0  0  0  0  0  2  0  0  0  0  0  0
  -19.6060  -26.6270   21.5890 C   0  0  0  0  0  2  0  0  0  0  0  0
  -18.2190  -26.7670   22.2260 C   0  0  0  0  0  2  0  0  0  0  0  0
  -19.1530  -28.8780   23.3410 C   0  0  0  0  0  0  0  0  0  0  0  0
  -18.9310  -30.1350   23.9440 C   0  0  0  0  0  3  0  0  0  0  0  0
  -17.6260  -30.6360   24.1080 C   0  0  0  0  0  3  0  0  0  0  0  0
  -16.5250  -29.8720   23.6870 C   0  0  0  0  0  3  0  0  0  0  0  0
  -16.7300  -28.6140   23.0920 C   0  0  0  0  0  3  0  0  0  0  0  0
  -25.8680  -32.5650   23.8640 C   0  0  0  0  0  3  0  0  0  0  0  0
  -26.3750  -31.8060   25.1530 C   0  0  1  0  0  0  0  0  0  0  0  0
  -25.2690  -31.5750   26.2100 C   0  0  0  0  0  1  0  0  0  0  0  0
  -26.9700  -30.4280   24.7780 C   0  0  0  0  0  1  0  0  0  0  0  0
  -27.5200  -32.6070   25.8180 C   0  0  0  0  0  1  0  0  0  0  0  0
  -25.5610  -33.9660   24.1880 N   0  0  0  0  0  0  0  0  0  0  0  0
  -25.9010  -35.0160   23.4300 C   0  0  0  0  0  0  0  0  0  0  0  0
  -26.5780  -34.9080   22.4040 O   0  0  0  0  0  0  0  0  0  0  0  0
  -24.9760  -34.1230   24.9940 H   0  0  0  0  0  0  0  0  0  0  0  0
  -24.1900  -36.8190   23.0410 C   0  0  0  0  0  1  0  0  0  0  0  0
  -25.4130  -36.4090   23.8760 C   0  0  0  0  0  3  0  0  0  0  0  0
  -27.5320  -37.2930   24.7440 C   0  0  0  0  0  1  0  0  0  0  0  0
  -26.4510  -37.4560   23.7760 N   0  0  0  0  0  0  0  0  0  0  0  0
  -26.0510  -38.3820   23.9010 H   0  0  0  0  0  0  0  0  0  0  0  0
  1  2  1  0
  2 14  1  0
  3  1  2  0
  4  2  1  0
  5 17  1  0
  6 11  1  0
  7  8  1  0
  7  6  1  0
  9  8  1  0
  9 23  1  0
  9 10  1  0
 11  5  1  0
 11 10  1  0
 12  5  2  0
 13 50  1  0
 14 13  2  0
 15 17  1  0
 15 16  2  0
 16 13  1  0
 17 19  1  0
 18 15  1  0
 18 14  1  0
 20 21  2  0
 21 40  1  0
 22 21  1  0
 22 25  1  0
 23 20  1  0
 23 24  1  0
 24 22  2  0
 25 26  1  0
 26 27  2  0
 28 31  1  0
 28 27  1  0
 29 28  2  0
 30 29  1  0
 30 25  2  0
 31 32  1  0
 32 33  1  0
 33 34  2  0
 35 34  1  0
 35 39  1  0
 36 35  2  0
 37 32  2  0
 37 36  1  0
 38 37  1  0
 40 41  1  0
 41 44  1  0
 41 43  1  0
 42 40  2  0
 45 46  1  0
 45 20  1  0
 47 45  1  0
 48 50  1  0
 50 49  1  0
 53 52  1  6
 53  1  1  0
 53 51  1  0
 53 54  1  0
 55 57  1  0
 55 54  1  0
 56 67  2  0
 57 62  1  0
 58 66  1  0
 58 68  1  0
 59 65  1  0
 59 61  1  0
 60 66  1  0
 61 60  1  0
 62 61  2  0
 63 57  2  0
 64 63  1  0
 64 59  2  0
 65 58  1  0
 66 56  1  0
 68 70  2  0
 69 68  1  0
 71 69  1  0
 72 81  2  0
 72 77  1  0
 73 69  1  0
 73 77  1  0
 74 73  1  0
 75 76  1  0
 75 74  1  0
 76 72  1  0
 77 78  2  0
 78 79  1  0
 80 79  2  0
 81 80  1  0
 82 56  1  0
 82 87  1  0
 82 83  1  0
 83 86  1  1
 83 84  1  0
 85 83  1  0
 87 90  1  0
 88 92  1  0
 88 87  1  0
 89 88  2  0
 92 91  1  0
 94 92  1  0
 94 95  1  0
 94 93  1  0
M  ISO  4   5 100  17 100  54 101  55 101
M  END
>  <TORSDO>  (72) 
F 19

>  <SCORE>  (72) 
-14.563

>  <name>  (72) 
71

>  <ligand_id>  (72) 
71

>  <original_smiles>  (72) 
[H]c1c([H])c([H])c2c(c1[H])C([H])([H])C([H])([H])C([H])([H])C2([H])N([H])C(=O)C1([H])N(C(=O)C([H])(N([H])C(=O)C([H])(N([H])C([H])([H])[H])C([H])([H])[H])C(C([H])([H])[H])(C([H])([H])[H])C([H])([H])[H])C([H])([H])c2c([H])c(OC([H])([H])C(C(=O)N([H])c3sc(N([H])C(=O)N4C([H])([H])C([H])([H])C([H])([H])C([H])(n5nc(-c6c([H])c([H])c(Oc7c([H])c([H])c(F)c([H])c7F)c([H])c6[H])c(C(=O)N([H])[H])c5N([H])[H])C4([H])[H])nc3C([H])(C([H])([H])[H])C([H])([H])[H])(C([H])([H])[H])C([H])([H])[H])c([H])c([H])c2C1([H])[H]

>  <smiles>  (72) 
[H]c1c([H])c([H])c2c(c1[H])C([H])([H])C([H])([H])C([H])([H])C2([H])N([H])C(=O)C1([H])N(C(=O)C([H])(N([H])C(=O)C([H])(N([H])C([H])([H])[H])C([H])([H])[H])C(C([H])([H])[H])(C([H])([H])[H])C([H])([H])[H])C([H])([H])c2c([H])c(OC([H])([H])C(C(=O)N([H])c3sc(N([H])C(=O)N4C([H])([H])C([H])([H])C([H])([H])C([H])(n5nc(-c6c([H])c([H])c(Oc7c([H])c([H])c(F)c([H])c7F)c([H])c6[H])c(C(=O)N([H])[H])c5N([H])[H])C4([H])[H])nc3C([H])(C([H])([H])[H])C([H])([H])[H])(C([H])([H])[H])C([H])([H])[H])c([H])c([H])c2C1([H])[H]

$$$$
72:0:0
     RDKit          3D

 93101  0  0  1  0  0  0  0  0999 V2000
  -29.0380  -22.9280   20.9330 C   0  0  0  0  0  3  0  0  0  0  0  0
  -29.3240  -21.6700   20.4910 C   0  0  0  0  0  0  0  0  0  0  0  0
  -28.8120  -24.1520   20.1050 C   0  0  0  0  0  0  0  0  0  0  0  0
  -28.9490  -24.1610   18.8760 O   0  0  0  0  0  0  0  0  0  0  0  0
  -28.3690  -25.4430   20.8470 C   0  0  0  0  0  2  0  0  0  0  0  0
  -28.4330  -26.6450   20.0410 O   0  0  0  0  0  0  0  0  0  0  0  0
  -24.6860  -31.8550   23.1990 C   0  0  0  0  0  0  0  0  0  0  0  0
  -27.2830  -27.4090   20.0710 C   0  0  0  0  0  0  0  0  0  0  0  0
  -23.4530  -30.4480   21.5820 C   0  0  0  0  0  3  0  0  0  0  0  0
  -24.8850  -28.9140   20.1270 C   0  0  0  0  0  0  0  0  0  0  0  0
  -25.9730  -30.8160   21.3310 C   0  0  0  0  0  2  0  0  0  0  0  0
  -26.0550  -29.4430   20.6890 C   0  0  0  0  0  0  0  0  0  0  0  0
  -27.2600  -28.7000   20.6530 C   0  0  0  0  0  3  0  0  0  0  0  0
  -26.0990  -26.8980   19.5030 C   0  0  0  0  0  3  0  0  0  0  0  0
  -24.9030  -27.6410   19.5290 C   0  0  0  0  0  3  0  0  0  0  0  0
  -23.6380  -29.7680   20.1980 C   0  0  0  0  0  2  0  0  0  0  0  0
  -24.7240  -31.0540   22.0950 N   0  0  0  0  0  0  0  0  0  0  0  0
  -23.6150  -32.1220   23.7620 O   0  0  0  0  0  0  0  0  0  0  0  0
  -22.8240  -29.4250   22.5560 C   0  0  0  0  0  0  0  0  0  0  0  0
  -21.5010  -29.2260   22.4460 N   0  0  0  0  0  0  0  0  0  0  0  0
  -23.5260  -28.8110   23.3650 O   0  0  0  0  0  0  0  0  0  0  0  0
  -20.9950  -29.7730   21.7640 H   0  0  0  0  0  0  0  0  0  0  0  0
  -18.1510  -27.9710   22.9690 C   0  0  0  0  0  0  0  0  0  0  0  0
  -20.7050  -28.2820   23.2300 C   0  0  0  0  0  3  0  0  0  0  0  0
  -20.8340  -26.8470   22.6700 C   0  0  0  0  0  2  0  0  0  0  0  0
  -19.7340  -26.4910   21.6630 C   0  0  0  0  0  2  0  0  0  0  0  0
  -18.3520  -26.6180   22.3090 C   0  0  0  0  0  2  0  0  0  0  0  0
  -19.2570  -28.7600   23.3870 C   0  0  0  0  0  0  0  0  0  0  0  0
  -19.0160  -30.0260   23.9630 C   0  0  0  0  0  3  0  0  0  0  0  0
  -17.7020  -30.5050   24.1260 C   0  0  0  0  0  3  0  0  0  0  0  0
  -16.6130  -29.7150   23.7260 C   0  0  0  0  0  3  0  0  0  0  0  0
  -16.8370  -28.4500   23.1530 C   0  0  0  0  0  3  0  0  0  0  0  0
  -25.9810  -32.4910   23.7930 C   0  0  0  0  0  3  0  0  0  0  0  0
  -25.6680  -33.8810   24.1510 N   0  0  0  0  0  0  0  0  0  0  0  0
  -25.9740  -34.9470   23.3990 C   0  0  0  0  0  0  0  0  0  0  0  0
  -26.6210  -34.8640   22.3510 O   0  0  0  0  0  0  0  0  0  0  0  0
  -25.0920  -34.0190   24.9680 H   0  0  0  0  0  0  0  0  0  0  0  0
  -24.2240  -36.7280   23.1050 C   0  0  0  0  0  1  0  0  0  0  0  0
  -25.4850  -36.3230   23.8860 C   0  0  0  0  0  3  0  0  0  0  0  0
  -27.6280  -37.2150   24.6850 C   0  0  0  0  0  1  0  0  0  0  0  0
  -26.5050  -37.3870   23.7670 N   0  0  0  0  0  0  0  0  0  0  0  0
  -26.0950  -38.3020   23.9360 H   0  0  0  0  0  0  0  0  0  0  0  0
  -26.5440  -31.7060   25.0420 C   0  0  1  0  0  0  0  0  0  0  0  0
  -25.4850  -31.4390   26.1360 C   0  0  0  0  0  1  0  0  0  0  0  0
  -27.1320  -30.3430   24.6100 C   0  0  0  0  0  1  0  0  0  0  0  0
  -27.7030  -32.5050   25.6840 C   0  0  0  0  0  1  0  0  0  0  0  0
  -29.4450  -21.3350   19.1960 O   0  0  0  0  0  0  0  0  0  0  0  0
  -29.3250  -22.1310   18.6860 H   0  0  0  0  0  0  0  0  0  0  0  0
  -29.5310  -20.4630   21.4370 C   0  0  0  0  0  2  0  0  0  0  0  0
  -31.4380  -17.6900   20.2690 C   0  0  0  0  0  3  0  0  0  0  0  0
  -30.2690  -16.9590   20.6200 C   0  0  0  0  0  0  0  0  0  0  0  0
  -29.3580  -17.9050   21.0170 C   0  0  0  0  0  0  0  0  0  0  0  0
  -27.9580  -17.7480   21.5200 C   0  0  0  0  0  1  0  0  0  0  0  0
  -31.2680  -18.9960   20.4780 N   0  0  0  0  0  0  0  0  0  0  0  0
  -29.9920  -19.1470   20.9280 N   0  0  0  0  0  0  0  0  0  0  0  0
  -30.7530  -14.5690   19.9730 C   0  0  0  0  0  0  0  0  0  0  0  0
  -30.3820  -12.4740   18.7170 C   0  0  0  0  0  2  0  0  0  0  0  0
  -29.3430  -12.7530   17.6090 C   0  0  0  0  0  2  0  0  0  0  0  0
  -27.9060  -12.5930   18.1450 C   0  0  0  0  0  2  0  0  0  0  0  0
  -27.6790  -13.3440   19.4840 C   0  0  0  0  0  3  0  0  0  0  0  0
  -28.8170  -13.0350   20.4840 C   0  0  0  0  0  2  0  0  0  0  0  0
  -30.0930  -13.3850   19.8360 N   0  0  0  0  0  0  0  0  0  0  0  0
  -31.8480  -14.7860   19.4450 O   0  0  0  0  0  0  0  0  0  0  0  0
  -30.0500  -15.5380   20.6030 N   0  0  0  0  0  0  0  0  0  0  0  0
  -29.1850  -15.2180   21.0130 H   0  0  0  0  0  0  0  0  0  0  0  0
  -25.3600  -13.9270   20.4370 C   0  0  0  0  0  0  0  0  0  0  0  0
  -24.3100  -13.1430   20.8320 C   0  0  0  0  0  0  0  0  0  0  0  0
  -24.7390  -11.7910   20.6520 C   0  0  0  0  0  0  0  0  0  0  0  0
  -26.3640  -13.0520   20.0490 N   0  0  0  0  0  0  0  0  0  0  0  0
  -25.9970  -11.7580   20.2350 N   0  0  0  0  0  0  0  0  0  0  0  0
  -24.0030  -10.5280   20.7990 C   0  0  0  0  0  0  0  0  0  0  0  0
  -24.4750   -9.4920   21.6340 C   0  0  0  0  0  3  0  0  0  0  0  0
  -23.7420   -8.2940   21.7720 C   0  0  0  0  0  3  0  0  0  0  0  0
  -22.5210   -8.1250   21.0760 C   0  0  0  0  0  0  0  0  0  0  0  0
  -22.0680   -9.1500   20.2280 C   0  0  0  0  0  3  0  0  0  0  0  0
  -22.8010  -10.3400   20.0870 C   0  0  0  0  0  3  0  0  0  0  0  0
  -21.7550   -6.9860   21.1290 O   0  0  0  0  0  0  0  0  0  0  0  0
  -21.7450   -6.1770   22.2360 C   0  0  0  0  0  0  0  0  0  0  0  0
  -21.3920   -6.6650   23.5130 C   0  0  0  0  0  3  0  0  0  0  0  0
  -21.3280   -5.7840   24.6120 C   0  0  0  0  0  3  0  0  0  0  0  0
  -21.6060   -4.4160   24.4340 C   0  0  0  0  0  0  0  0  0  0  0  0
  -21.9510   -3.9260   23.1620 C   0  0  0  0  0  3  0  0  0  0  0  0
  -22.0170   -4.8050   22.0660 C   0  0  0  0  0  0  0  0  0  0  0  0
  -22.3310   -4.3240   20.8380 F   0  0  0  0  0  0  0  0  0  0  0  0
  -21.5350   -3.5670   25.4860 F   0  0  0  0  0  0  0  0  0  0  0  0
  -22.9510  -13.6160   21.2580 C   0  0  0  0  0  0  0  0  0  0  0  0
  -22.2860  -12.8670   22.1300 N   0  0  0  0  0  0  0  0  0  0  0  0
  -22.4890  -14.6830   20.8550 O   0  0  0  0  0  0  0  0  0  0  0  0
  -22.6730  -12.0010   22.4780 H   0  0  0  0  0  0  0  0  0  0  0  0
  -21.3780  -13.1620   22.4570 H   0  0  0  0  0  0  0  0  0  0  0  0
  -25.5390  -15.3050   20.3530 N   0  0  0  0  0  0  0  0  0  0  0  0
  -24.7880  -15.9540   20.5570 H   0  0  0  0  0  0  0  0  0  0  0  0
  -26.3450  -15.7510   19.9360 H   0  0  0  0  0  0  0  0  0  0  0  0
  2  1  2  0
  2 49  1  0
  3  5  1  0
  3  1  1  0
  4  3  2  0
  6  8  1  0
  6  5  1  0
  7 18  2  0
  8 13  1  0
  9 17  1  0
  9 19  1  0
 10 16  1  0
 10 12  1  0
 11 17  1  0
 12 11  1  0
 13 12  2  0
 14 15  1  0
 14  8  2  0
 15 10  2  0
 16  9  1  0
 17  7  1  0
 19 21  2  0
 20 19  1  0
 22 20  1  0
 23 32  2  0
 23 28  1  0
 24 20  1  0
 24 28  1  0
 25 24  1  0
 26 27  1  0
 26 25  1  0
 27 23  1  0
 28 29  2  0
 29 30  1  0
 31 30  2  0
 32 31  1  0
 33  7  1  0
 33 34  1  0
 33 43  1  0
 34 37  1  0
 35 39  1  0
 35 34  1  0
 36 35  2  0
 39 38  1  0
 41 39  1  0
 41 42  1  0
 41 40  1  0
 43 46  1  1
 43 44  1  0
 45 43  1  0
 47  2  1  0
 48 47  1  0
 50 54  2  0
 50 51  1  0
 51 52  2  0
 52 53  1  0
 54 55  1  0
 55 52  1  0
 55 49  1  0
 56 64  1  0
 57 62  1  0
 58 59  1  0
 58 57  1  0
 60 59  1  0
 60 69  1  0
 60 61  1  0
 62 56  1  0
 62 61  1  0
 63 56  2  0
 64 51  1  0
 64 65  1  0
 66 67  2  0
 67 86  1  0
 68 71  1  0
 68 67  1  0
 69 70  1  0
 69 66  1  0
 70 68  2  0
 71 72  1  0
 72 73  2  0
 74 77  1  0
 74 73  1  0
 75 74  2  0
 76 75  1  0
 76 71  2  0
 77 78  1  0
 78 79  1  0
 79 80  2  0
 81 80  1  0
 81 85  1  0
 82 81  2  0
 83 78  2  0
 83 82  1  0
 84 83  1  0
 86 87  1  0
 87 90  1  0
 87 89  1  0
 88 86  2  0
 91 66  1  0
 91 92  1  0
 93 91  1  0
M  ISO  4   5 101   6 101  56 100  64 100
M  END
>  <TORSDO>  (73) 
F 21

>  <SCORE>  (73) 
-11.083

>  <name>  (73) 
72

>  <ligand_id>  (73) 
72

>  <original_smiles>  (73) 
[H]OC(=C([H])C(=O)C([H])([H])Oc1c([H])c([H])c2c(c1[H])C([H])([H])N(C(=O)C([H])(N([H])C(=O)C([H])(N([H])C([H])([H])[H])C([H])([H])[H])C(C([H])([H])[H])(C([H])([H])[H])C([H])([H])[H])C([H])(C(=O)N([H])C1([H])c3c([H])c([H])c([H])c([H])c3C([H])([H])C([H])([H])C1([H])[H])C2([H])[H])C([H])([H])n1nc([H])c(N([H])C(=O)N2C([H])([H])C([H])([H])C([H])([H])C([H])(n3nc(-c4c([H])c([H])c(Oc5c([H])c([H])c(F)c([H])c5F)c([H])c4[H])c(C(=O)N([H])[H])c3N([H])[H])C2([H])[H])c1C([H])([H])[H]

>  <smiles>  (73) 
[H]OC(=C([H])C(=O)C([H])([H])Oc1c([H])c([H])c2c(c1[H])C([H])([H])N(C(=O)C([H])(N([H])C(=O)C([H])(N([H])C([H])([H])[H])C([H])([H])[H])C(C([H])([H])[H])(C([H])([H])[H])C([H])([H])[H])C([H])(C(=O)N([H])C1([H])c3c([H])c([H])c([H])c([H])c3C([H])([H])C([H])([H])C1([H])[H])C2([H])[H])C([H])([H])n1nc([H])c(N([H])C(=O)N2C([H])([H])C([H])([H])C([H])([H])C([H])(n3nc(-c4c([H])c([H])c(Oc5c([H])c([H])c(F)c([H])c5F)c([H])c4[H])c(C(=O)N([H])[H])c3N([H])[H])C2([H])[H])c1C([H])([H])[H]

$$$$
73:0:0
     RDKit          3D

 98106  0  0  1  0  0  0  0  0999 V2000
  -30.1980  -20.4720   19.7510 C   0  0  0  0  0  0  0  0  0  0  0  0
  -30.1960  -20.4520   18.4040 N   0  0  0  0  0  4  0  0  0  0  0  0
  -30.0940  -21.6710   20.4090 N   0  0  0  0  0  0  0  0  0  0  0  0
  -30.3810  -19.5690   17.9440 H   0  0  0  0  0  0  0  0  0  0  0  0
  -30.0780  -21.2560   17.8090 H   0  0  0  0  0  0  0  0  0  0  0  0
  -30.3870  -21.6950   21.3760 H   0  0  0  0  0  0  0  0  0  0  0  0
  -30.9980  -14.4420   19.9830 C   0  0  0  0  0  0  0  0  0  0  0  0
  -30.5550  -12.3440   18.7560 C   0  0  0  0  0  2  0  0  0  0  0  0
  -29.5170  -12.6440   17.6570 C   0  0  0  0  0  2  0  0  0  0  0  0
  -28.0830  -12.4920   18.2090 C   0  0  0  0  0  2  0  0  0  0  0  0
  -27.8720  -13.2690   19.5370 C   0  0  0  0  0  3  0  0  0  0  0  0
  -29.0210  -12.9580   20.5250 C   0  0  0  0  0  2  0  0  0  0  0  0
  -30.3080  -13.2710   19.8720 N   0  0  0  0  0  0  0  0  0  0  0  0
  -31.9820  -14.7040   19.2840 O   0  0  0  0  0  0  0  0  0  0  0  0
  -30.3110  -19.1650   20.4240 C   0  0  0  0  0  0  0  0  0  0  0  0
  -30.1790  -18.7950   21.7530 C   0  0  0  0  0  0  0  0  0  0  0  0
  -30.5050  -16.7090   20.8700 C   0  0  0  0  0  0  0  0  0  0  0  0
  -30.2840  -17.4150   21.9820 N   0  0  0  0  0  0  0  0  0  0  0  0
  -30.5650  -15.2850   20.9370 N   0  0  0  0  0  0  0  0  0  0  0  0
  -30.6020  -17.7220   19.4330 S   0  0  0  0  0  0  0  0  0  0  0  0
  -30.0610  -14.8730   21.7020 H   0  0  0  0  0  0  0  0  0  0  0  0
  -25.5690  -13.8760   20.5390 C   0  0  0  0  0  0  0  0  0  0  0  0
  -24.5240  -13.1090   20.9670 C   0  0  0  0  0  0  0  0  0  0  0  0
  -24.9340  -11.7510   20.7900 C   0  0  0  0  0  0  0  0  0  0  0  0
  -26.5600  -12.9940   20.1290 N   0  0  0  0  0  0  0  0  0  0  0  0
  -26.1810  -11.7030   20.3330 N   0  0  0  0  0  0  0  0  0  0  0  0
  -24.1910  -10.4970   20.9730 C   0  0  0  0  0  0  0  0  0  0  0  0
  -24.6210   -9.5160   21.8940 C   0  0  0  0  0  3  0  0  0  0  0  0
  -23.8860   -8.3250   22.0670 C   0  0  0  0  0  3  0  0  0  0  0  0
  -22.7060   -8.1050   21.3170 C   0  0  0  0  0  0  0  0  0  0  0  0
  -22.2900   -9.0760   20.3910 C   0  0  0  0  0  3  0  0  0  0  0  0
  -23.0240  -10.2600   20.2160 C   0  0  0  0  0  3  0  0  0  0  0  0
  -21.9420   -6.9630   21.3960 O   0  0  0  0  0  0  0  0  0  0  0  0
  -21.7920   -6.2780   22.5750 C   0  0  0  0  0  0  0  0  0  0  0  0
  -21.2420   -6.8830   23.7260 C   0  0  0  0  0  3  0  0  0  0  0  0
  -21.0410   -6.1210   24.8930 C   0  0  0  0  0  3  0  0  0  0  0  0
  -21.3840   -4.7560   24.9130 C   0  0  0  0  0  0  0  0  0  0  0  0
  -21.9310   -4.1510   23.7670 C   0  0  0  0  0  3  0  0  0  0  0  0
  -22.1350   -4.9110   22.6010 C   0  0  0  0  0  0  0  0  0  0  0  0
  -22.6420   -4.3200   21.4930 F   0  0  0  0  0  0  0  0  0  0  0  0
  -21.1840   -4.0210   26.0310 F   0  0  0  0  0  0  0  0  0  0  0  0
  -23.1790  -13.5990   21.4240 C   0  0  0  0  0  0  0  0  0  0  0  0
  -22.5290  -12.8860   22.3340 N   0  0  0  0  0  0  0  0  0  0  0  0
  -22.7170  -14.6640   21.0100 O   0  0  0  0  0  0  0  0  0  0  0  0
  -22.9030  -12.0240   22.7010 H   0  0  0  0  0  0  0  0  0  0  0  0
  -21.6370  -13.2200   22.6730 H   0  0  0  0  0  0  0  0  0  0  0  0
  -25.7550  -15.2560   20.4540 N   0  0  0  0  0  0  0  0  0  0  0  0
  -25.0140  -15.9040   20.6990 H   0  0  0  0  0  0  0  0  0  0  0  0
  -26.5820  -15.7150   20.0970 H   0  0  0  0  0  0  0  0  0  0  0  0
  -29.9820  -19.6070   22.8720 N   0  0  0  0  0  0  0  0  0  0  0  0
  -29.6210  -20.5530   22.8460 H   0  0  0  0  0  0  0  0  0  0  0  0
  -29.9690  -19.1770   23.7890 H   0  0  0  0  0  0  0  0  0  0  0  0
  -29.7980  -22.9890   19.7600 C   0  0  0  0  0  2  0  0  0  0  0  0
  -28.2400  -23.7990   21.6480 C   0  0  0  0  0  1  0  0  0  0  0  0
  -30.5110  -24.8690   21.4190 C   0  0  0  0  0  1  0  0  0  0  0  0
  -29.3350  -24.2270   20.6400 C   0  0  1  0  0  0  0  0  0  0  0  0
  -28.7660  -25.3240   19.6540 C   0  0  0  0  0  2  0  0  0  0  0  0
  -28.5220  -26.6340   20.2210 O   0  0  0  0  0  0  0  0  0  0  0  0
  -24.5460  -31.7620   23.1250 C   0  0  0  0  0  0  0  0  0  0  0  0
  -27.3060  -27.3050   20.1260 C   0  0  0  0  0  0  0  0  0  0  0  0
  -23.3800  -30.3210   21.4940 C   0  0  0  0  0  3  0  0  0  0  0  0
  -24.8710  -28.7890   20.0880 C   0  0  0  0  0  0  0  0  0  0  0  0
  -25.9030  -30.7010   21.3180 C   0  0  0  0  0  2  0  0  0  0  0  0
  -26.0120  -29.3260   20.6960 C   0  0  0  0  0  0  0  0  0  0  0  0
  -27.2230  -28.5960   20.7040 C   0  0  0  0  0  3  0  0  0  0  0  0
  -26.1430  -26.7900   19.4980 C   0  0  0  0  0  3  0  0  0  0  0  0
  -24.9370  -27.5260   19.4720 C   0  0  0  0  0  3  0  0  0  0  0  0
  -23.6120  -29.6340   20.1220 C   0  0  0  0  0  2  0  0  0  0  0  0
  -24.6270  -30.9430   22.0370 N   0  0  0  0  0  0  0  0  0  0  0  0
  -23.4560  -32.0260   23.6560 O   0  0  0  0  0  0  0  0  0  0  0  0
  -22.7370  -29.2970   22.4570 C   0  0  0  0  0  0  0  0  0  0  0  0
  -21.4210  -29.0730   22.3060 N   0  0  0  0  0  0  0  0  0  0  0  0
  -23.4230  -28.7120   23.3010 O   0  0  0  0  0  0  0  0  0  0  0  0
  -20.9320  -29.5940   21.5900 H   0  0  0  0  0  0  0  0  0  0  0  0
  -18.0820  -27.7680   22.7490 C   0  0  0  0  0  0  0  0  0  0  0  0
  -20.6170  -28.1380   23.0880 C   0  0  0  0  0  3  0  0  0  0  0  0
  -20.7880  -26.6930   22.5650 C   0  0  0  0  0  2  0  0  0  0  0  0
  -19.7400  -26.3050   21.5120 C   0  0  0  0  0  2  0  0  0  0  0  0
  -18.3320  -26.4100   22.1060 C   0  0  0  0  0  2  0  0  0  0  0  0
  -19.1590  -28.5850   23.1900 C   0  0  0  0  0  0  0  0  0  0  0  0
  -18.8760  -29.8520   23.7420 C   0  0  0  0  0  3  0  0  0  0  0  0
  -17.5510  -30.3060   23.8630 C   0  0  0  0  0  3  0  0  0  0  0  0
  -16.4870  -29.4910   23.4430 C   0  0  0  0  0  3  0  0  0  0  0  0
  -16.7520  -28.2220   22.8970 C   0  0  0  0  0  3  0  0  0  0  0  0
  -25.8190  -32.4230   23.7390 C   0  0  0  0  0  3  0  0  0  0  0  0
  -26.3730  -31.6470   24.9960 C   0  0  1  0  0  0  0  0  0  0  0  0
  -25.2860  -31.3420   26.0530 C   0  0  0  0  0  1  0  0  0  0  0  0
  -27.0120  -30.3020   24.5760 C   0  0  0  0  0  1  0  0  0  0  0  0
  -27.5000  -32.4680   25.6620 C   0  0  0  0  0  1  0  0  0  0  0  0
  -25.4680  -33.8040   24.0960 N   0  0  0  0  0  0  0  0  0  0  0  0
  -25.7450  -34.8780   23.3440 C   0  0  0  0  0  0  0  0  0  0  0  0
  -26.4000  -34.8110   22.2990 O   0  0  0  0  0  0  0  0  0  0  0  0
  -24.8930  -33.9240   24.9160 H   0  0  0  0  0  0  0  0  0  0  0  0
  -23.9350  -36.5990   23.0490 C   0  0  0  0  0  1  0  0  0  0  0  0
  -25.2120  -36.2420   23.8260 C   0  0  0  0  0  3  0  0  0  0  0  0
  -27.3230  -37.2040   24.6230 C   0  0  0  0  0  1  0  0  0  0  0  0
  -26.2010  -37.3360   23.7010 N   0  0  0  0  0  0  0  0  0  0  0  0
  -25.7640  -38.2380   23.8580 H   0  0  0  0  0  0  0  0  0  0  0  0
  1  3  1  0
  1 15  1  0
  2  1  2  0
  3  6  1  0
  4  2  1  0
  5  2  1  0
  7 19  1  0
  8 13  1  0
  9 10  1  0
  9  8  1  0
 11 10  1  0
 11 25  1  0
 11 12  1  0
 13  7  1  0
 13 12  1  0
 14  7  2  0
 15 16  2  0
 16 18  1  0
 16 50  1  0
 17 19  1  0
 17 18  2  0
 19 21  1  0
 20 15  1  0
 20 17  1  0
 22 23  2  0
 23 42  1  0
 24 23  1  0
 24 27  1  0
 25 26  1  0
 25 22  1  0
 26 24  2  0
 27 28  1  0
 28 29  2  0
 30 33  1  0
 30 29  1  0
 31 30  2  0
 32 31  1  0
 32 27  2  0
 33 34  1  0
 34 39  2  0
 34 35  1  0
 35 36  2  0
 36 37  1  0
 37 41  1  0
 38 37  2  0
 39 38  1  0
 40 39  1  0
 42 43  1  0
 43 46  1  0
 43 45  1  0
 44 42  2  0
 47 22  1  0
 47 48  1  0
 49 47  1  0
 50 52  1  0
 51 50  1  0
 53  3  1  0
 53 56  1  0
 56 55  1  1
 56 54  1  0
 57 58  1  0
 57 56  1  0
 59 70  2  0
 60 58  1  0
 60 65  1  0
 61 69  1  0
 61 71  1  0
 62 68  1  0
 62 64  1  0
 63 69  1  0
 64 65  2  0
 64 63  1  0
 66 60  2  0
 67 66  1  0
 67 62  2  0
 68 61  1  0
 69 59  1  0
 71 73  2  0
 72 71  1  0
 74 72  1  0
 75 84  2  0
 75 80  1  0
 76 72  1  0
 76 80  1  0
 77 76  1  0
 78 79  1  0
 78 77  1  0
 79 75  1  0
 80 81  2  0
 81 82  1  0
 83 82  2  0
 84 83  1  0
 85 59  1  0
 85 90  1  0
 85 86  1  0
 86 89  1  1
 86 87  1  0
 88 86  1  0
 90 93  1  0
 91 95  1  0
 91 90  1  0
 92 91  2  0
 95 94  1  0
 97 95  1  0
 97 98  1  0
 97 96  1  0
M  ISO  4   7 100  19 100  57 101  58 101
M  END
>  <TORSDO>  (74) 
F 20

>  <SCORE>  (74) 
-12.657

>  <name>  (74) 
73

>  <ligand_id>  (74) 
73

>  <original_smiles>  (74) 
[H]c1c([H])c([H])c2c(c1[H])C([H])([H])C([H])([H])C([H])([H])C2([H])N([H])C(=O)C1([H])N(C(=O)C([H])(N([H])C(=O)C([H])(N([H])C([H])([H])[H])C([H])([H])[H])C(C([H])([H])[H])(C([H])([H])[H])C([H])([H])[H])C([H])([H])c2c([H])c(OC([H])([H])C(C([H])([H])[H])(C([H])([H])[H])C([H])([H])[N+]([H])=C(c3sc(N([H])C(=O)N4C([H])([H])C([H])([H])C([H])([H])C([H])(n5nc(-c6c([H])c([H])c(Oc7c([H])c([H])c(F)c([H])c7F)c([H])c6[H])c(C(=O)N([H])[H])c5N([H])[H])C4([H])[H])nc3N([H])[H])N([H])[H])c([H])c([H])c2C1([H])[H]

>  <smiles>  (74) 
[H]c1c([H])c([H])c2c(c1[H])C([H])([H])C([H])([H])C([H])([H])C2([H])N([H])C(=O)C1([H])N(C(=O)C([H])(N([H])C(=O)C([H])(N([H])C([H])([H])[H])C([H])([H])[H])C(C([H])([H])[H])(C([H])([H])[H])C([H])([H])[H])C([H])([H])c2c([H])c(OC([H])([H])C(C([H])([H])[H])(C([H])([H])[H])C([H])([H])[N+]([H])=C(c3sc(N([H])C(=O)N4C([H])([H])C([H])([H])C([H])([H])C([H])(n5nc(-c6c([H])c([H])c(Oc7c([H])c([H])c(F)c([H])c7F)c([H])c6[H])c(C(=O)N([H])[H])c5N([H])[H])C4([H])[H])nc3N([H])[H])N([H])[H])c([H])c([H])c2C1([H])[H]

$$$$
74:0:0
     RDKit          3D

 94102  0  0  1  0  0  0  0  0999 V2000
  -27.0580  -21.1280   19.6070 C   0  0  0  0  0  1  0  0  0  0  0  0
  -28.5460  -21.4740   19.8080 C   0  0  0  0  0  3  0  0  0  0  0  0
  -28.8840  -22.7990   19.0420 C   0  0  0  0  0  0  0  0  0  0  0  0
  -29.6850  -22.7820   18.1010 O   0  0  0  0  0  0  0  0  0  0  0  0
  -28.2020  -24.1390   19.4610 C   0  0  0  0  0  2  0  0  0  0  0  0
  -28.3590  -25.5190   17.2130 C   0  0  0  0  0  1  0  0  0  0  0  0
  -28.6960  -25.4350   18.7210 C   0  0  0  0  0  3  0  0  0  0  0  0
  -28.4990  -26.7070   19.4000 O   0  0  0  0  0  0  0  0  0  0  0  0
  -24.7180  -31.6080   22.9510 C   0  0  0  0  0  0  0  0  0  0  0  0
  -27.2930  -27.3920   19.4690 C   0  0  0  0  0  0  0  0  0  0  0  0
  -23.4670  -30.3020   21.2650 C   0  0  0  0  0  3  0  0  0  0  0  0
  -24.8820  -28.8820   19.6830 C   0  0  0  0  0  0  0  0  0  0  0  0
  -25.9820  -30.7030   20.9960 C   0  0  0  0  0  2  0  0  0  0  0  0
  -26.0580  -29.3790   20.2560 C   0  0  0  0  0  0  0  0  0  0  0  0
  -27.2630  -28.6420   20.1400 C   0  0  0  0  0  3  0  0  0  0  0  0
  -26.0860  -26.9030   18.9240 C   0  0  0  0  0  3  0  0  0  0  0  0
  -24.8920  -27.6460   19.0150 C   0  0  0  0  0  3  0  0  0  0  0  0
  -23.6310  -29.7230   19.8360 C   0  0  0  0  0  2  0  0  0  0  0  0
  -24.7440  -30.8830   21.7960 N   0  0  0  0  0  0  0  0  0  0  0  0
  -23.6540  -31.8270   23.5470 O   0  0  0  0  0  0  0  0  0  0  0  0
  -22.8680  -29.2080   22.1780 C   0  0  0  0  0  0  0  0  0  0  0  0
  -21.5400  -29.0210   22.0960 N   0  0  0  0  0  0  0  0  0  0  0  0
  -23.5900  -28.5330   22.9150 O   0  0  0  0  0  0  0  0  0  0  0  0
  -21.0150  -29.6200   21.4740 H   0  0  0  0  0  0  0  0  0  0  0  0
  -18.2020  -27.7530   22.6530 C   0  0  0  0  0  0  0  0  0  0  0  0
  -20.7660  -28.0230   22.8340 C   0  0  0  0  0  3  0  0  0  0  0  0
  -20.8590  -26.6380   22.1550 C   0  0  0  0  0  2  0  0  0  0  0  0
  -19.7180  -26.3710   21.1680 C   0  0  0  0  0  2  0  0  0  0  0  0
  -18.3630  -26.4550   21.8770 C   0  0  0  0  0  2  0  0  0  0  0  0
  -19.3300  -28.4960   23.0870 C   0  0  0  0  0  0  0  0  0  0  0  0
  -19.1260  -29.7130   23.7730 C   0  0  0  0  0  3  0  0  0  0  0  0
  -17.8260  -30.1860   24.0300 C   0  0  0  0  0  3  0  0  0  0  0  0
  -16.7120  -29.4390   23.6120 C   0  0  0  0  0  3  0  0  0  0  0  0
  -16.9000  -28.2240   22.9300 C   0  0  0  0  0  3  0  0  0  0  0  0
  -26.0170  -32.2200   23.5630 C   0  0  0  0  0  3  0  0  0  0  0  0
  -26.6080  -31.3620   24.7490 C   0  0  1  0  0  0  0  0  0  0  0  0
  -25.5730  -31.0190   25.8470 C   0  0  0  0  0  1  0  0  0  0  0  0
  -27.1920  -30.0310   24.2220 C   0  0  0  0  0  1  0  0  0  0  0  0
  -27.7770  -32.1260   25.4150 C   0  0  0  0  0  1  0  0  0  0  0  0
  -25.6960  -33.5790   24.0180 N   0  0  0  0  0  0  0  0  0  0  0  0
  -25.9740  -34.6970   23.3340 C   0  0  0  0  0  0  0  0  0  0  0  0
  -26.6000  -34.6940   22.2700 O   0  0  0  0  0  0  0  0  0  0  0  0
  -25.1470  -33.6550   24.8620 H   0  0  0  0  0  0  0  0  0  0  0  0
  -24.1920  -36.4660   23.1960 C   0  0  0  0  0  1  0  0  0  0  0  0
  -25.4780  -36.0320   23.9190 C   0  0  0  0  0  3  0  0  0  0  0  0
  -27.6270  -36.9010   24.7290 C   0  0  0  0  0  1  0  0  0  0  0  0
  -26.4820  -37.1160   23.8500 N   0  0  0  0  0  0  0  0  0  0  0  0
  -26.0610  -38.0090   24.0910 H   0  0  0  0  0  0  0  0  0  0  0  0
  -29.3910  -20.3550   19.3490 N   0  0  0  0  0  0  0  0  0  0  0  0
  -29.7720  -20.5140   18.4190 H   0  0  0  0  0  0  0  0  0  0  0  0
  -30.9600  -14.5850   19.1070 C   0  0  0  0  0  0  0  0  0  0  0  0
  -30.5120  -12.3720   18.1420 C   0  0  0  0  0  2  0  0  0  0  0  0
  -29.3380  -12.5340   17.1530 C   0  0  0  0  0  2  0  0  0  0  0  0
  -27.9880  -12.3840   17.8850 C   0  0  0  0  0  2  0  0  0  0  0  0
  -27.8960  -13.2370   19.1790 C   0  0  0  0  0  3  0  0  0  0  0  0
  -29.1690  -13.0930   20.0430 C   0  0  0  0  0  2  0  0  0  0  0  0
  -30.3230  -13.3870   19.1860 N   0  0  0  0  0  0  0  0  0  0  0  0
  -32.1080  -14.6910   18.6710 O   0  0  0  0  0  0  0  0  0  0  0  0
  -29.1680  -18.5680   21.1240 C   0  0  0  0  0  0  0  0  0  0  0  0
  -29.4430  -19.0260   19.8490 C   0  0  0  0  0  0  0  0  0  0  0  0
  -29.8830  -16.7760   19.5870 C   0  0  0  0  0  0  0  0  0  0  0  0
  -28.7140  -19.3420   22.3200 C   0  0  0  0  0  1  0  0  0  0  0  0
  -29.8400  -17.9830   18.9950 N   0  0  0  0  0  0  0  0  0  0  0  0
  -30.1250  -15.6020   18.8220 N   0  0  0  0  0  0  0  0  0  0  0  0
  -29.4470  -16.8360   21.2810 S   0  0  0  0  0  0  0  0  0  0  0  0
  -30.2000  -15.8300   17.8430 H   0  0  0  0  0  0  0  0  0  0  0  0
  -25.8180  -13.8140   20.5780 C   0  0  0  0  0  0  0  0  0  0  0  0
  -24.7950  -13.0410   21.0600 C   0  0  0  0  0  0  0  0  0  0  0  0
  -25.0980  -11.6990   20.6740 C   0  0  0  0  0  0  0  0  0  0  0  0
  -26.6820  -12.9420   19.9360 N   0  0  0  0  0  0  0  0  0  0  0  0
  -26.2680  -11.6540   20.0490 N   0  0  0  0  0  0  0  0  0  0  0  0
  -24.3150  -10.4650   20.8110 C   0  0  0  0  0  0  0  0  0  0  0  0
  -24.8070   -9.3520   21.5270 C   0  0  0  0  0  3  0  0  0  0  0  0
  -24.0260   -8.1840   21.6610 C   0  0  0  0  0  3  0  0  0  0  0  0
  -22.7390   -8.1200   21.0770 C   0  0  0  0  0  0  0  0  0  0  0  0
  -22.2620   -9.2220   20.3450 C   0  0  0  0  0  3  0  0  0  0  0  0
  -23.0430  -10.3820   20.2080 C   0  0  0  0  0  3  0  0  0  0  0  0
  -21.9220   -7.0170   21.1330 O   0  0  0  0  0  0  0  0  0  0  0  0
  -21.9230   -6.1750   22.2160 C   0  0  0  0  0  0  0  0  0  0  0  0
  -21.6530   -6.6390   23.5220 C   0  0  0  0  0  3  0  0  0  0  0  0
  -21.5970   -5.7280   24.5940 C   0  0  0  0  0  3  0  0  0  0  0  0
  -21.8010   -4.3540   24.3630 C   0  0  0  0  0  0  0  0  0  0  0  0
  -22.0660   -3.8900   23.0630 C   0  0  0  0  0  3  0  0  0  0  0  0
  -22.1240   -4.7980   21.9920 C   0  0  0  0  0  0  0  0  0  0  0  0
  -22.3570   -4.3440   20.7370 F   0  0  0  0  0  0  0  0  0  0  0  0
  -21.7370   -3.4750   25.3920 F   0  0  0  0  0  0  0  0  0  0  0  0
  -23.5580  -13.5280   21.7560 C   0  0  0  0  0  0  0  0  0  0  0  0
  -22.9980  -12.7240   22.6530 N   0  0  0  0  0  0  0  0  0  0  0  0
  -23.1060  -14.6540   21.5440 O   0  0  0  0  0  0  0  0  0  0  0  0
  -23.3810  -11.8090   22.8450 H   0  0  0  0  0  0  0  0  0  0  0  0
  -22.1740  -13.0240   23.1540 H   0  0  0  0  0  0  0  0  0  0  0  0
  -26.0760  -15.1810   20.6120 N   0  0  0  0  0  0  0  0  0  0  0  0
  -25.4370  -15.8440   21.0360 H   0  0  0  0  0  0  0  0  0  0  0  0
  -26.8720  -15.6210   20.1670 H   0  0  0  0  0  0  0  0  0  0  0  0
  2  1  1  0
  3  5  1  0
  3  2  1  0
  4  3  2  0
  7  6  1  0
  7  8  1  0
  7  5  1  0
  8 10  1  0
  9 20  2  0
 10 15  1  0
 11 19  1  0
 11 21  1  0
 12 18  1  0
 12 14  1  0
 13 19  1  0
 14 13  1  0
 15 14  2  0
 16 17  1  0
 16 10  2  0
 17 12  2  0
 18 11  1  0
 19  9  1  0
 21 23  2  0
 22 21  1  0
 24 22  1  0
 25 34  2  0
 25 30  1  0
 26 22  1  0
 26 30  1  0
 27 26  1  0
 28 29  1  0
 28 27  1  0
 29 25  1  0
 30 31  2  0
 31 32  1  0
 33 32  2  0
 34 33  1  0
 35  9  1  0
 35 40  1  0
 35 36  1  0
 36 39  1  1
 36 37  1  0
 38 36  1  0
 40 43  1  0
 41 45  1  0
 41 40  1  0
 42 41  2  0
 45 44  1  0
 47 45  1  0
 47 48  1  0
 47 46  1  0
 49  2  1  0
 49 60  1  0
 50 49  1  0
 51 57  1  0
 52 57  1  0
 53 54  1  0
 53 52  1  0
 55 54  1  0
 55 70  1  0
 55 56  1  0
 57 56  1  0
 58 51  2  0
 59 65  1  0
 59 62  1  0
 60 59  2  0
 61 65  1  0
 63 61  2  0
 63 60  1  0
 64 51  1  0
 64 61  1  0
 66 64  1  0
 67 92  1  0
 67 68  2  0
 68 87  1  0
 69 72  1  0
 69 68  1  0
 70 71  1  0
 70 67  1  0
 71 69  2  0
 72 73  1  0
 73 74  2  0
 75 78  1  0
 75 74  1  0
 76 75  2  0
 77 76  1  0
 77 72  2  0
 78 79  1  0
 79 80  1  0
 80 81  2  0
 82 81  1  0
 82 86  1  0
 83 82  2  0
 84 79  2  0
 84 83  1  0
 85 84  1  0
 87 88  1  0
 88 90  1  0
 88 91  1  0
 89 87  2  0
 92 93  1  0
 94 92  1  0
M  ISO  4   7 101   8 101  51 100  64 100
M  END
>  <TORSDO>  (75) 
F 20

>  <SCORE>  (75) 
-7.221

>  <name>  (75) 
74

>  <ligand_id>  (75) 
74

>  <original_smiles>  (75) 
[H]c1c([H])c([H])c2c(c1[H])C([H])([H])C([H])([H])C([H])([H])C2([H])N([H])C(=O)C1([H])N(C(=O)C([H])(N([H])C(=O)C([H])(N([H])C([H])([H])[H])C([H])([H])[H])C(C([H])([H])[H])(C([H])([H])[H])C([H])([H])[H])C([H])([H])c2c([H])c(OC([H])(C([H])([H])[H])C([H])([H])C(=O)C([H])(N([H])c3nc(N([H])C(=O)N4C([H])([H])C([H])([H])C([H])([H])C([H])(n5nc(-c6c([H])c([H])c(Oc7c([H])c([H])c(F)c([H])c7F)c([H])c6[H])c(C(=O)N([H])[H])c5N([H])[H])C4([H])[H])sc3C([H])([H])[H])C([H])([H])[H])c([H])c([H])c2C1([H])[H]

>  <smiles>  (75) 
[H]c1c([H])c([H])c2c(c1[H])C([H])([H])C([H])([H])C([H])([H])C2([H])N([H])C(=O)C1([H])N(C(=O)C([H])(N([H])C(=O)C([H])(N([H])C([H])([H])[H])C([H])([H])[H])C(C([H])([H])[H])(C([H])([H])[H])C([H])([H])[H])C([H])([H])c2c([H])c(OC([H])(C([H])([H])[H])C([H])([H])C(=O)C([H])(N([H])c3nc(N([H])C(=O)N4C([H])([H])C([H])([H])C([H])([H])C([H])(n5nc(-c6c([H])c([H])c(Oc7c([H])c([H])c(F)c([H])c7F)c([H])c6[H])c(C(=O)N([H])[H])c5N([H])[H])C4([H])[H])sc3C([H])([H])[H])C([H])([H])[H])c([H])c([H])c2C1([H])[H]

$$$$
75:0:0
     RDKit          3D

 93101  0  0  1  0  0  0  0  0999 V2000
  -29.5600  -21.5670   20.3840 C   0  0  0  0  0  0  0  0  0  0  0  0
  -29.0360  -20.3430   20.6470 N   0  0  0  0  0  0  0  0  0  0  0  0
  -30.6190  -21.7430   19.7780 O   0  0  0  0  0  0  0  0  0  0  0  0
  -28.2160  -20.3360   21.2350 H   0  0  0  0  0  0  0  0  0  0  0  0
  -30.6850  -14.4980   20.5130 C   0  0  0  0  0  0  0  0  0  0  0  0
  -30.3850  -12.3370   19.3710 C   0  0  0  0  0  2  0  0  0  0  0  0
  -29.4630  -12.5600   18.1560 C   0  0  0  0  0  2  0  0  0  0  0  0
  -27.9800  -12.4260   18.5620 C   0  0  0  0  0  2  0  0  0  0  0  0
  -27.6360  -13.2430   19.8380 C   0  0  0  0  0  3  0  0  0  0  0  0
  -28.6820  -13.0260   20.9540 C   0  0  0  0  0  2  0  0  0  0  0  0
  -30.0110  -13.3190   20.4030 N   0  0  0  0  0  0  0  0  0  0  0  0
  -31.8150  -14.6600   20.0440 O   0  0  0  0  0  0  0  0  0  0  0  0
  -29.7320  -18.7500   18.8890 C   0  0  0  0  0  0  0  0  0  0  0  0
  -29.4830  -19.0570   20.2110 C   0  0  0  0  0  0  0  0  0  0  0  0
  -29.9340  -16.8190   20.4230 C   0  0  0  0  0  0  0  0  0  0  0  0
  -29.6110  -19.6000   17.6670 C   0  0  0  0  0  1  0  0  0  0  0  0
  -29.5370  -17.9350   21.0700 N   0  0  0  0  0  0  0  0  0  0  0  0
  -30.0030  -15.5350   21.0430 N   0  0  0  0  0  0  0  0  0  0  0  0
  -30.2090  -17.0830   18.7040 S   0  0  0  0  0  0  0  0  0  0  0  0
  -29.2400  -15.3050   21.6580 H   0  0  0  0  0  0  0  0  0  0  0  0
  -25.2340  -13.8430   20.5290 C   0  0  0  0  0  0  0  0  0  0  0  0
  -24.1670  -13.0660   20.8970 C   0  0  0  0  0  0  0  0  0  0  0  0
  -24.6300  -11.7170   20.8670 C   0  0  0  0  0  0  0  0  0  0  0  0
  -26.2820  -12.9630   20.3070 N   0  0  0  0  0  0  0  0  0  0  0  0
  -25.9220  -11.6800   20.5690 N   0  0  0  0  0  0  0  0  0  0  0  0
  -23.9050  -10.4530   21.0570 C   0  0  0  0  0  0  0  0  0  0  0  0
  -24.3390   -9.4880   21.9930 C   0  0  0  0  0  3  0  0  0  0  0  0
  -23.6140   -8.2890   22.1710 C   0  0  0  0  0  3  0  0  0  0  0  0
  -22.4440   -8.0470   21.4140 C   0  0  0  0  0  0  0  0  0  0  0  0
  -22.0300   -9.0010   20.4670 C   0  0  0  0  0  3  0  0  0  0  0  0
  -22.7540  -10.1920   20.2860 C   0  0  0  0  0  3  0  0  0  0  0  0
  -21.6920   -6.9000   21.4990 O   0  0  0  0  0  0  0  0  0  0  0  0
  -21.6410   -6.1560   22.6500 C   0  0  0  0  0  0  0  0  0  0  0  0
  -21.2060   -6.7090   23.8750 C   0  0  0  0  0  3  0  0  0  0  0  0
  -21.1020   -5.8900   25.0190 C   0  0  0  0  0  3  0  0  0  0  0  0
  -21.4230   -4.5220   24.9360 C   0  0  0  0  0  0  0  0  0  0  0  0
  -21.8540   -3.9700   23.7170 C   0  0  0  0  0  3  0  0  0  0  0  0
  -21.9580   -4.7850   22.5770 C   0  0  0  0  0  0  0  0  0  0  0  0
  -22.3510   -4.2430   21.3980 F   0  0  0  0  0  0  0  0  0  0  0  0
  -21.3180   -3.7340   26.0330 F   0  0  0  0  0  0  0  0  0  0  0  0
  -22.7670  -13.5410   21.1590 C   0  0  0  0  0  0  0  0  0  0  0  0
  -22.0340  -12.8480   22.0210 N   0  0  0  0  0  0  0  0  0  0  0  0
  -22.3300  -14.5640   20.6320 O   0  0  0  0  0  0  0  0  0  0  0  0
  -22.3950  -12.0190   22.4720 H   0  0  0  0  0  0  0  0  0  0  0  0
  -21.0940  -13.1510   22.2340 H   0  0  0  0  0  0  0  0  0  0  0  0
  -25.3990  -15.2130   20.3510 N   0  0  0  0  0  0  0  0  0  0  0  0
  -24.6310  -15.8690   20.4560 H   0  0  0  0  0  0  0  0  0  0  0  0
  -26.2540  -15.6510   20.0380 H   0  0  0  0  0  0  0  0  0  0  0  0
  -28.7630  -22.7810   20.9130 C   0  0  0  0  0  2  0  0  0  0  0  0
  -29.1950  -24.2180   20.4540 C   0  0  0  0  0  2  0  0  0  0  0  0
  -27.7990  -25.3660   22.2760 C   0  0  0  0  0  1  0  0  0  0  0  0
  -28.0970  -25.2800   20.7650 C   0  0  0  0  0  3  0  0  0  0  0  0
  -28.3520  -26.6200   20.2530 O   0  0  0  0  0  0  0  0  0  0  0  0
  -24.5750  -31.8850   23.2430 C   0  0  0  0  0  0  0  0  0  0  0  0
  -27.2260  -27.4290   20.1690 C   0  0  0  0  0  0  0  0  0  0  0  0
  -23.3790  -30.4880   21.5970 C   0  0  0  0  0  3  0  0  0  0  0  0
  -24.8390  -28.9640   20.1670 C   0  0  0  0  0  0  0  0  0  0  0  0
  -25.9140  -30.8380   21.4210 C   0  0  0  0  0  2  0  0  0  0  0  0
  -26.0010  -29.4770   20.7560 C   0  0  0  0  0  0  0  0  0  0  0  0
  -27.2040  -28.7250   20.7420 C   0  0  0  0  0  3  0  0  0  0  0  0
  -26.0510  -26.9550   19.5420 C   0  0  0  0  0  3  0  0  0  0  0  0
  -24.8630  -27.7040   19.5500 C   0  0  0  0  0  3  0  0  0  0  0  0
  -23.5940  -29.8170   20.2180 C   0  0  0  0  0  2  0  0  0  0  0  0
  -24.6400  -31.0830   22.1420 N   0  0  0  0  0  0  0  0  0  0  0  0
  -23.4900  -32.1560   23.7770 O   0  0  0  0  0  0  0  0  0  0  0  0
  -22.7220  -29.4630   22.5510 C   0  0  0  0  0  0  0  0  0  0  0  0
  -21.3970  -29.2840   22.4200 N   0  0  0  0  0  0  0  0  0  0  0  0
  -23.4020  -28.8320   23.3650 O   0  0  0  0  0  0  0  0  0  0  0  0
  -20.9070  -29.8400   21.7330 H   0  0  0  0  0  0  0  0  0  0  0  0
  -18.0170  -28.1020   22.9190 C   0  0  0  0  0  0  0  0  0  0  0  0
  -20.5770  -28.3470   23.1900 C   0  0  0  0  0  3  0  0  0  0  0  0
  -20.6730  -26.9180   22.6090 C   0  0  0  0  0  2  0  0  0  0  0  0
  -19.5690  -26.6030   21.5940 C   0  0  0  0  0  2  0  0  0  0  0  0
  -18.1880  -26.7540   22.2410 C   0  0  0  0  0  2  0  0  0  0  0  0
  -19.1400  -28.8580   23.3520 C   0  0  0  0  0  0  0  0  0  0  0  0
  -18.9280  -30.1200   23.9460 C   0  0  0  0  0  3  0  0  0  0  0  0
  -17.6260  -30.6270   24.1150 C   0  0  0  0  0  3  0  0  0  0  0  0
  -16.5170  -29.8690   23.7000 C   0  0  0  0  0  3  0  0  0  0  0  0
  -16.7140  -28.6080   23.1070 C   0  0  0  0  0  3  0  0  0  0  0  0
  -25.8580  -32.5160   23.8650 C   0  0  0  0  0  3  0  0  0  0  0  0
  -26.3690  -31.7500   25.1470 C   0  0  1  0  0  0  0  0  0  0  0  0
  -25.2700  -31.5240   26.2120 C   0  0  0  0  0  1  0  0  0  0  0  0
  -26.9530  -30.3690   24.7680 C   0  0  0  0  0  1  0  0  0  0  0  0
  -27.5170  -32.5480   25.8070 C   0  0  0  0  0  1  0  0  0  0  0  0
  -25.5480  -33.9130   24.1890 N   0  0  0  0  0  0  0  0  0  0  0  0
  -25.8860  -34.9640   23.4290 C   0  0  0  0  0  0  0  0  0  0  0  0
  -26.5610  -34.8570   22.4010 O   0  0  0  0  0  0  0  0  0  0  0  0
  -24.9450  -34.0680   24.9850 H   0  0  0  0  0  0  0  0  0  0  0  0
  -24.1640  -36.7590   23.0580 C   0  0  0  0  0  1  0  0  0  0  0  0
  -25.3970  -36.3550   23.8810 C   0  0  0  0  0  3  0  0  0  0  0  0
  -27.5270  -37.2360   24.7270 C   0  0  0  0  0  1  0  0  0  0  0  0
  -26.4320  -37.4060   23.7750 N   0  0  0  0  0  0  0  0  0  0  0  0
  -26.0240  -38.3260   23.9210 H   0  0  0  0  0  0  0  0  0  0  0  0
  1  2  1  0
  1 49  1  0
  2  4  1  0
  3  1  2  0
  5 18  1  0
  6 11  1  0
  7  8  1  0
  7  6  1  0
  9  8  1  0
  9 24  1  0
  9 10  1  0
 11  5  1  0
 11 10  1  0
 12  5  2  0
 13 14  2  0
 14  2  1  0
 14 17  1  0
 15 18  1  0
 15 17  2  0
 16 13  1  0
 18 20  1  0
 19 13  1  0
 19 15  1  0
 21 22  2  0
 22 41  1  0
 23 22  1  0
 23 26  1  0
 24 21  1  0
 24 25  1  0
 25 23  2  0
 26 27  1  0
 27 28  2  0
 29 32  1  0
 29 28  1  0
 30 29  2  0
 31 30  1  0
 31 26  2  0
 32 33  1  0
 33 34  1  0
 34 35  2  0
 36 35  1  0
 36 40  1  0
 37 36  2  0
 38 33  2  0
 38 37  1  0
 39 38  1  0
 41 42  1  0
 42 45  1  0
 42 44  1  0
 43 41  2  0
 46 47  1  0
 46 21  1  0
 48 46  1  0
 50 52  1  0
 50 49  1  0
 52 51  1  0
 53 52  1  0
 54 65  2  0
 55 53  1  0
 55 60  1  0
 56 64  1  0
 56 66  1  0
 57 63  1  0
 57 59  1  0
 58 64  1  0
 59 58  1  0
 60 59  2  0
 61 62  1  0
 61 55  2  0
 62 57  2  0
 63 56  1  0
 64 54  1  0
 66 68  2  0
 67 66  1  0
 69 67  1  0
 70 79  2  0
 70 75  1  0
 71 67  1  0
 71 75  1  0
 72 71  1  0
 73 74  1  0
 73 72  1  0
 74 70  1  0
 75 76  2  0
 76 77  1  0
 78 77  2  0
 79 78  1  0
 80 54  1  0
 80 85  1  0
 80 81  1  0
 81 84  1  1
 81 82  1  0
 83 81  1  0
 85 88  1  0
 86 90  1  0
 86 85  1  0
 87 86  2  0
 90 89  1  0
 92 90  1  0
 92 93  1  0
 92 91  1  0
M  ISO  4   5 100  18 100  52 101  53 101
M  END
>  <TORSDO>  (76) 
F 19

>  <SCORE>  (76) 
-14.366

>  <name>  (76) 
75

>  <ligand_id>  (76) 
75

>  <original_smiles>  (76) 
[H]c1c([H])c([H])c2c(c1[H])C([H])([H])C([H])([H])C([H])([H])C2([H])N([H])C(=O)C1([H])N(C(=O)C([H])(N([H])C(=O)C([H])(N([H])C([H])([H])[H])C([H])([H])[H])C(C([H])([H])[H])(C([H])([H])[H])C([H])([H])[H])C([H])([H])c2c([H])c(OC([H])(C([H])([H])[H])C([H])([H])C([H])([H])C(=O)N([H])c3nc(N([H])C(=O)N4C([H])([H])C([H])([H])C([H])([H])C([H])(n5nc(-c6c([H])c([H])c(Oc7c([H])c([H])c(F)c([H])c7F)c([H])c6[H])c(C(=O)N([H])[H])c5N([H])[H])C4([H])[H])sc3C([H])([H])[H])c([H])c([H])c2C1([H])[H]

>  <smiles>  (76) 
[H]c1c([H])c([H])c2c(c1[H])C([H])([H])C([H])([H])C([H])([H])C2([H])N([H])C(=O)C1([H])N(C(=O)C([H])(N([H])C(=O)C([H])(N([H])C([H])([H])[H])C([H])([H])[H])C(C([H])([H])[H])(C([H])([H])[H])C([H])([H])[H])C([H])([H])c2c([H])c(OC([H])(C([H])([H])[H])C([H])([H])C([H])([H])C(=O)N([H])c3nc(N([H])C(=O)N4C([H])([H])C([H])([H])C([H])([H])C([H])(n5nc(-c6c([H])c([H])c(Oc7c([H])c([H])c(F)c([H])c7F)c([H])c6[H])c(C(=O)N([H])[H])c5N([H])[H])C4([H])[H])sc3C([H])([H])[H])c([H])c([H])c2C1([H])[H]

$$$$
76:0:0
     RDKit          3D

 93101  0  0  1  0  0  0  0  0999 V2000
  -29.2510  -21.6930   20.2710 C   0  0  0  0  0  0  0  0  0  0  0  0
  -30.1170  -20.8210   19.7220 N   0  0  0  0  0  0  0  0  0  0  0  0
  -28.3170  -21.4060   21.0290 O   0  0  0  0  0  0  0  0  0  0  0  0
  -30.8050  -21.3020   19.1530 H   0  0  0  0  0  0  0  0  0  0  0  0
  -30.6600  -14.5200   20.2670 C   0  0  0  0  0  0  0  0  0  0  0  0
  -30.3400  -12.3420   19.1890 C   0  0  0  0  0  2  0  0  0  0  0  0
  -29.3830  -12.5600   17.9980 C   0  0  0  0  0  2  0  0  0  0  0  0
  -27.9180  -12.4120   18.4510 C   0  0  0  0  0  2  0  0  0  0  0  0
  -27.5980  -13.2510   19.7180 C   0  0  0  0  0  3  0  0  0  0  0  0
  -28.6730  -13.0480   20.8110 C   0  0  0  0  0  2  0  0  0  0  0  0
  -29.9850  -13.3390   20.2110 N   0  0  0  0  0  0  0  0  0  0  0  0
  -31.8420  -14.6030   19.9240 O   0  0  0  0  0  0  0  0  0  0  0  0
  -31.3290  -18.7710   19.3200 C   0  0  0  0  0  0  0  0  0  0  0  0
  -30.2490  -19.4660   19.8200 C   0  0  0  0  0  0  0  0  0  0  0  0
  -30.1820  -16.9870   20.1840 C   0  0  0  0  0  0  0  0  0  0  0  0
  -32.5270  -19.3600   18.6280 C   0  0  0  0  0  1  0  0  0  0  0  0
  -31.2760  -17.3880   19.5260 N   0  0  0  0  0  0  0  0  0  0  0  0
  -29.8990  -15.6160   20.5080 N   0  0  0  0  0  0  0  0  0  0  0  0
  -29.1060  -18.3400   20.5620 S   0  0  0  0  0  0  0  0  0  0  0  0
  -28.9600  -15.4340   20.8270 H   0  0  0  0  0  0  0  0  0  0  0  0
  -25.2150  -13.8540   20.4700 C   0  0  0  0  0  0  0  0  0  0  0  0
  -24.1550  -13.0800   20.8530 C   0  0  0  0  0  0  0  0  0  0  0  0
  -24.6170  -11.7280   20.8160 C   0  0  0  0  0  0  0  0  0  0  0  0
  -26.2560  -12.9730   20.2200 N   0  0  0  0  0  0  0  0  0  0  0  0
  -25.9030  -11.6910   20.4880 N   0  0  0  0  0  0  0  0  0  0  0  0
  -23.8960  -10.4650   21.0140 C   0  0  0  0  0  0  0  0  0  0  0  0
  -24.3430   -9.4980   21.9430 C   0  0  0  0  0  3  0  0  0  0  0  0
  -23.6240   -8.2980   22.1280 C   0  0  0  0  0  3  0  0  0  0  0  0
  -22.4430   -8.0570   21.3870 C   0  0  0  0  0  0  0  0  0  0  0  0
  -22.0150   -9.0120   20.4480 C   0  0  0  0  0  3  0  0  0  0  0  0
  -22.7350  -10.2020   20.2600 C   0  0  0  0  0  3  0  0  0  0  0  0
  -21.6920   -6.9100   21.4840 O   0  0  0  0  0  0  0  0  0  0  0  0
  -21.6610   -6.1660   22.6360 C   0  0  0  0  0  0  0  0  0  0  0  0
  -21.2460   -6.7160   23.8670 C   0  0  0  0  0  3  0  0  0  0  0  0
  -21.1610   -5.8980   25.0120 C   0  0  0  0  0  3  0  0  0  0  0  0
  -21.4830   -4.5300   24.9260 C   0  0  0  0  0  0  0  0  0  0  0  0
  -21.8900   -3.9790   23.6980 C   0  0  0  0  0  3  0  0  0  0  0  0
  -21.9760   -4.7940   22.5560 C   0  0  0  0  0  0  0  0  0  0  0  0
  -22.3500   -4.2540   21.3710 F   0  0  0  0  0  0  0  0  0  0  0  0
  -21.3940   -3.7430   26.0220 F   0  0  0  0  0  0  0  0  0  0  0  0
  -22.7600  -13.5520   21.1470 C   0  0  0  0  0  0  0  0  0  0  0  0
  -22.0460  -12.8470   22.0170 N   0  0  0  0  0  0  0  0  0  0  0  0
  -22.3140  -14.5820   20.6400 O   0  0  0  0  0  0  0  0  0  0  0  0
  -22.4200  -12.0100   22.4380 H   0  0  0  0  0  0  0  0  0  0  0  0
  -21.1100  -13.1400   22.2590 H   0  0  0  0  0  0  0  0  0  0  0  0
  -25.3820  -15.2240   20.2920 N   0  0  0  0  0  0  0  0  0  0  0  0
  -24.6210  -15.8820   20.4080 H   0  0  0  0  0  0  0  0  0  0  0  0
  -26.2220  -15.6530   19.9260 H   0  0  0  0  0  0  0  0  0  0  0  0
  -29.5970  -23.1490   19.8180 C   0  0  0  0  0  0  0  0  0  0  0  0
  -30.4900  -23.3520   18.9820 O   0  0  0  0  0  0  0  0  0  0  0  0
  -28.8520  -24.3370   20.4590 C   0  0  0  0  0  2  0  0  0  0  0  0
  -28.6530  -25.5350   19.4790 C   0  0  0  0  0  2  0  0  0  0  0  0
  -28.4380  -26.7680   20.1900 O   0  0  0  0  0  0  0  0  0  0  0  0
  -24.5850  -31.8910   23.2540 C   0  0  0  0  0  0  0  0  0  0  0  0
  -27.2250  -27.4310   20.1780 C   0  0  0  0  0  0  0  0  0  0  0  0
  -23.3760  -30.4870   21.6140 C   0  0  0  0  0  3  0  0  0  0  0  0
  -24.8260  -28.9430   20.1980 C   0  0  0  0  0  0  0  0  0  0  0  0
  -25.9010  -30.8500   21.4060 C   0  0  0  0  0  2  0  0  0  0  0  0
  -25.9860  -29.4740   20.7720 C   0  0  0  0  0  0  0  0  0  0  0  0
  -27.1840  -28.7260   20.7490 C   0  0  0  0  0  3  0  0  0  0  0  0
  -26.0290  -26.8950   19.6470 C   0  0  0  0  0  3  0  0  0  0  0  0
  -24.8420  -27.6560   19.6390 C   0  0  0  0  0  3  0  0  0  0  0  0
  -23.5840  -29.8050   20.2370 C   0  0  0  0  0  2  0  0  0  0  0  0
  -24.6390  -31.0910   22.1520 N   0  0  0  0  0  0  0  0  0  0  0  0
  -23.5060  -32.1640   23.7950 O   0  0  0  0  0  0  0  0  0  0  0  0
  -22.7250  -29.4670   22.5800 C   0  0  0  0  0  0  0  0  0  0  0  0
  -21.4000  -29.2890   22.4610 N   0  0  0  0  0  0  0  0  0  0  0  0
  -23.4110  -28.8410   23.3920 O   0  0  0  0  0  0  0  0  0  0  0  0
  -20.9080  -29.8570   21.7850 H   0  0  0  0  0  0  0  0  0  0  0  0
  -18.0230  -28.0970   22.9570 C   0  0  0  0  0  0  0  0  0  0  0  0
  -20.5830  -28.3490   23.2290 C   0  0  0  0  0  3  0  0  0  0  0  0
  -20.6820  -26.9160   22.6530 C   0  0  0  0  0  2  0  0  0  0  0  0
  -19.5780  -26.5960   21.6410 C   0  0  0  0  0  2  0  0  0  0  0  0
  -18.1970  -26.7460   22.2820 C   0  0  0  0  0  2  0  0  0  0  0  0
  -19.1440  -28.8560   23.3860 C   0  0  0  0  0  0  0  0  0  0  0  0
  -18.9280  -30.1220   23.9730 C   0  0  0  0  0  3  0  0  0  0  0  0
  -17.6260  -30.6260   24.1400 C   0  0  0  0  0  3  0  0  0  0  0  0
  -16.5200  -29.8610   23.7300 C   0  0  0  0  0  3  0  0  0  0  0  0
  -16.7190  -28.6000   23.1400 C   0  0  0  0  0  3  0  0  0  0  0  0
  -25.8720  -32.5250   23.8710 C   0  0  0  0  0  3  0  0  0  0  0  0
  -26.3900  -31.7570   25.1480 C   0  0  1  0  0  0  0  0  0  0  0  0
  -25.2960  -31.5100   26.2130 C   0  0  0  0  0  1  0  0  0  0  0  0
  -26.9860  -30.3860   24.7500 C   0  0  0  0  0  1  0  0  0  0  0  0
  -27.5320  -32.5590   25.8200 C   0  0  0  0  0  1  0  0  0  0  0  0
  -25.5680  -33.9250   24.1970 N   0  0  0  0  0  0  0  0  0  0  0  0
  -25.8990  -34.9730   23.4310 C   0  0  0  0  0  0  0  0  0  0  0  0
  -26.5680  -34.8630   22.4010 O   0  0  0  0  0  0  0  0  0  0  0  0
  -24.9890  -34.0860   25.0070 H   0  0  0  0  0  0  0  0  0  0  0  0
  -24.1800  -36.7670   23.0560 C   0  0  0  0  0  1  0  0  0  0  0  0
  -25.4110  -36.3620   23.8810 C   0  0  0  0  0  3  0  0  0  0  0  0
  -27.5430  -37.2420   24.7240 C   0  0  0  0  0  1  0  0  0  0  0  0
  -26.4460  -37.4130   23.7770 N   0  0  0  0  0  0  0  0  0  0  0  0
  -26.0380  -38.3310   23.9290 H   0  0  0  0  0  0  0  0  0  0  0  0
  1  3  2  0
  2 14  1  0
  2  1  1  0
  4  2  1  0
  5 18  1  0
  6 11  1  0
  7  8  1  0
  7  6  1  0
  9  8  1  0
  9 24  1  0
  9 10  1  0
 11  5  1  0
 11 10  1  0
 12  5  2  0
 13 17  1  0
 13 14  2  0
 14 19  1  0
 15 18  1  0
 15 19  1  0
 16 13  1  0
 17 15  2  0
 18 20  1  0
 21 22  2  0
 22 41  1  0
 23 22  1  0
 23 26  1  0
 24 21  1  0
 24 25  1  0
 25 23  2  0
 26 27  1  0
 27 28  2  0
 29 32  1  0
 29 28  1  0
 30 29  2  0
 31 30  1  0
 31 26  2  0
 32 33  1  0
 33 34  1  0
 34 35  2  0
 36 35  1  0
 36 40  1  0
 37 36  2  0
 38 33  2  0
 38 37  1  0
 39 38  1  0
 41 42  1  0
 42 45  1  0
 42 44  1  0
 43 41  2  0
 46 47  1  0
 46 21  1  0
 48 46  1  0
 49  1  1  0
 49 51  1  0
 50 49  2  0
 52 53  1  0
 52 51  1  0
 54 65  2  0
 55 53  1  0
 55 60  1  0
 56 64  1  0
 56 66  1  0
 57 63  1  0
 57 59  1  0
 58 64  1  0
 59 58  1  0
 60 59  2  0
 61 55  2  0
 62 61  1  0
 62 57  2  0
 63 56  1  0
 64 54  1  0
 66 68  2  0
 67 66  1  0
 69 67  1  0
 70 79  2  0
 70 75  1  0
 71 67  1  0
 71 75  1  0
 72 71  1  0
 73 74  1  0
 73 72  1  0
 74 70  1  0
 75 76  2  0
 76 77  1  0
 78 77  2  0
 79 78  1  0
 80 54  1  0
 80 85  1  0
 80 81  1  0
 81 84  1  1
 81 82  1  0
 83 81  1  0
 85 88  1  0
 86 90  1  0
 86 85  1  0
 87 86  2  0
 90 89  1  0
 92 90  1  0
 92 93  1  0
 92 91  1  0
M  ISO  4   5 100  18 100  52 101  53 101
M  END
>  <TORSDO>  (77) 
F 19

>  <SCORE>  (77) 
-14.274

>  <name>  (77) 
76

>  <ligand_id>  (77) 
76

>  <original_smiles>  (77) 
[H]c1c([H])c([H])c2c(c1[H])C([H])([H])C([H])([H])C([H])([H])C2([H])N([H])C(=O)C1([H])N(C(=O)C([H])(N([H])C(=O)C([H])(N([H])C([H])([H])[H])C([H])([H])[H])C(C([H])([H])[H])(C([H])([H])[H])C([H])([H])[H])C([H])([H])c2c([H])c(OC([H])([H])C([H])([H])C(=O)C(=O)N([H])c3sc(N([H])C(=O)N4C([H])([H])C([H])([H])C([H])([H])C([H])(n5nc(-c6c([H])c([H])c(Oc7c([H])c([H])c(F)c([H])c7F)c([H])c6[H])c(C(=O)N([H])[H])c5N([H])[H])C4([H])[H])nc3C([H])([H])[H])c([H])c([H])c2C1([H])[H]

>  <smiles>  (77) 
[H]c1c([H])c([H])c2c(c1[H])C([H])([H])C([H])([H])C([H])([H])C2([H])N([H])C(=O)C1([H])N(C(=O)C([H])(N([H])C(=O)C([H])(N([H])C([H])([H])[H])C([H])([H])[H])C(C([H])([H])[H])(C([H])([H])[H])C([H])([H])[H])C([H])([H])c2c([H])c(OC([H])([H])C([H])([H])C(=O)C(=O)N([H])c3sc(N([H])C(=O)N4C([H])([H])C([H])([H])C([H])([H])C([H])(n5nc(-c6c([H])c([H])c(Oc7c([H])c([H])c(F)c([H])c7F)c([H])c6[H])c(C(=O)N([H])[H])c5N([H])[H])C4([H])[H])nc3C([H])([H])[H])c([H])c([H])c2C1([H])[H]

$$$$
77:0:0
     RDKit          3D

 96104  0  0  1  0  0  0  0  0999 V2000
  -28.8690  -21.0300   19.9710 C   0  0  0  0  0  0  0  0  0  0  0  0
  -29.5490  -19.8550   20.3670 N   0  0  0  0  0  0  0  0  0  0  0  0
  -28.0540  -20.9560   19.0490 O   0  0  0  0  0  0  0  0  0  0  0  0
  -29.9740  -19.8720   21.2840 H   0  0  0  0  0  0  0  0  0  0  0  0
  -30.3010  -19.0880   18.1800 C   0  0  0  0  0  3  0  0  0  0  0  0
  -29.9020  -18.6800   19.5050 C   0  0  0  0  0  0  0  0  0  0  0  0
  -30.0470  -17.2390   19.6940 C   0  0  0  0  0  0  0  0  0  0  0  0
  -30.6080  -18.0620   17.3600 C   0  0  0  0  0  0  0  0  0  0  0  0
  -30.9870  -18.2040   16.0670 F   0  0  0  0  0  0  0  0  0  0  0  0
  -30.4620  -16.5370   18.1100 S   0  0  0  0  0  0  0  0  0  0  0  0
  -30.6730  -15.0760   20.8240 C   0  0  0  0  0  0  0  0  0  0  0  0
  -30.6870  -12.6710   20.1410 C   0  0  0  0  0  2  0  0  0  0  0  0
  -29.9020  -12.5080   18.8190 C   0  0  0  0  0  2  0  0  0  0  0  0
  -28.4030  -12.3040   19.1070 C   0  0  0  0  0  2  0  0  0  0  0  0
  -27.8490  -13.3260   20.1360 C   0  0  0  0  0  3  0  0  0  0  0  0
  -28.7660  -13.4650   21.3690 C   0  0  0  0  0  2  0  0  0  0  0  0
  -30.0980  -13.8220   20.8750 N   0  0  0  0  0  0  0  0  0  0  0  0
  -31.9000  -15.1440   20.6910 O   0  0  0  0  0  0  0  0  0  0  0  0
  -29.8840  -16.2400   20.6860 N   0  0  0  0  0  0  0  0  0  0  0  0
  -28.9650  -16.1970   21.1010 H   0  0  0  0  0  0  0  0  0  0  0  0
  -25.4070  -13.8930   20.6460 C   0  0  0  0  0  0  0  0  0  0  0  0
  -24.3230  -13.1120   20.9420 C   0  0  0  0  0  0  0  0  0  0  0  0
  -24.8050  -11.7680   20.9820 C   0  0  0  0  0  0  0  0  0  0  0  0
  -26.4760  -13.0230   20.5170 N   0  0  0  0  0  0  0  0  0  0  0  0
  -26.1180  -11.7420   20.7860 N   0  0  0  0  0  0  0  0  0  0  0  0
  -24.0810  -10.4990   21.1390 C   0  0  0  0  0  0  0  0  0  0  0  0
  -24.4460   -9.5560   22.1260 C   0  0  0  0  0  3  0  0  0  0  0  0
  -23.7220   -8.3530   22.2700 C   0  0  0  0  0  3  0  0  0  0  0  0
  -22.6170   -8.0850   21.4260 C   0  0  0  0  0  0  0  0  0  0  0  0
  -22.2720   -9.0160   20.4310 C   0  0  0  0  0  3  0  0  0  0  0  0
  -22.9970  -10.2110   20.2860 C   0  0  0  0  0  3  0  0  0  0  0  0
  -21.8720   -6.9320   21.4750 O   0  0  0  0  0  0  0  0  0  0  0  0
  -21.7460   -6.2040   22.6320 C   0  0  0  0  0  0  0  0  0  0  0  0
  -21.2090   -6.7670   23.8110 C   0  0  0  0  0  3  0  0  0  0  0  0
  -21.0350   -5.9640   24.9570 C   0  0  0  0  0  3  0  0  0  0  0  0
  -21.3860   -4.6010   24.9230 C   0  0  0  0  0  0  0  0  0  0  0  0
  -21.9160   -4.0390   23.7480 C   0  0  0  0  0  3  0  0  0  0  0  0
  -22.0930   -4.8390   22.6050 C   0  0  0  0  0  0  0  0  0  0  0  0
  -22.5850   -4.2880   21.4700 F   0  0  0  0  0  0  0  0  0  0  0  0
  -21.2120   -3.8290   26.0200 F   0  0  0  0  0  0  0  0  0  0  0  0
  -22.9030  -13.5750   21.0770 C   0  0  0  0  0  0  0  0  0  0  0  0
  -22.1110  -12.8900   21.8930 N   0  0  0  0  0  0  0  0  0  0  0  0
  -22.5020  -14.5810   20.4930 O   0  0  0  0  0  0  0  0  0  0  0  0
  -22.4510  -12.0780   22.3860 H   0  0  0  0  0  0  0  0  0  0  0  0
  -21.1550  -13.1820   22.0250 H   0  0  0  0  0  0  0  0  0  0  0  0
  -25.5740  -15.2610   20.4530 N   0  0  0  0  0  0  0  0  0  0  0  0
  -24.7980  -15.9130   20.4900 H   0  0  0  0  0  0  0  0  0  0  0  0
  -26.4430  -15.6960   20.1710 H   0  0  0  0  0  0  0  0  0  0  0  0
  -29.0280  -22.5110   20.6400 C   0  0  1  0  0  0  0  0  0  0  0  0
  -29.9500  -21.6080   23.0040 C   0  0  0  0  0  1  0  0  0  0  0  0
  -28.9220  -22.4260   22.1960 C   0  0  0  0  0  2  0  0  0  0  0  0
  -30.3400  -22.9760   20.3800 O   0  0  0  0  0  0  0  0  0  0  0  0
  -30.9420  -22.4080   20.8460 H   0  0  0  0  0  0  0  0  0  0  0  0
  -27.9770  -23.7450   20.2340 C   0  0  0  0  0  2  0  0  0  0  0  0
  -28.2290  -25.0730   19.3100 C   0  0  0  0  0  2  0  0  0  0  0  0
  -28.1730  -26.5320   19.7340 O   0  0  0  0  0  0  0  0  0  0  0  0
  -24.5150  -31.8050   23.0800 C   0  0  0  0  0  0  0  0  0  0  0  0
  -27.0490  -27.3900   19.6980 C   0  0  0  0  0  0  0  0  0  0  0  0
  -23.2630  -30.4680   21.4250 C   0  0  0  0  0  3  0  0  0  0  0  0
  -24.6730  -29.0110   19.8510 C   0  0  0  0  0  0  0  0  0  0  0  0
  -25.7920  -30.8260   21.1510 C   0  0  0  0  0  2  0  0  0  0  0  0
  -25.8600  -29.4780   20.4280 C   0  0  0  0  0  0  0  0  0  0  0  0
  -27.0430  -28.6780   20.3420 C   0  0  0  0  0  3  0  0  0  0  0  0
  -25.8440  -26.9970   19.0770 C   0  0  0  0  0  3  0  0  0  0  0  0
  -24.6740  -27.7820   19.1620 C   0  0  0  0  0  3  0  0  0  0  0  0
  -23.4240  -29.8630   20.0040 C   0  0  0  0  0  2  0  0  0  0  0  0
  -24.5450  -31.0520   21.9400 N   0  0  0  0  0  0  0  0  0  0  0  0
  -23.4530  -32.0350   23.6760 O   0  0  0  0  0  0  0  0  0  0  0  0
  -22.6590  -29.3950   22.3630 C   0  0  0  0  0  0  0  0  0  0  0  0
  -21.3380  -29.1700   22.2540 N   0  0  0  0  0  0  0  0  0  0  0  0
  -23.3760  -28.7700   23.1500 O   0  0  0  0  0  0  0  0  0  0  0  0
  -20.8170  -29.7270   21.5920 H   0  0  0  0  0  0  0  0  0  0  0  0
  -18.0360  -27.7630   22.7110 C   0  0  0  0  0  0  0  0  0  0  0  0
  -20.5720  -28.1740   23.0060 C   0  0  0  0  0  3  0  0  0  0  0  0
  -20.7670  -26.7610   22.4090 C   0  0  0  0  0  2  0  0  0  0  0  0
  -19.6930  -26.3890   21.3800 C   0  0  0  0  0  2  0  0  0  0  0  0
  -18.3000  -26.4360   22.0150 C   0  0  0  0  0  2  0  0  0  0  0  0
  -19.1030  -28.5830   23.1600 C   0  0  0  0  0  0  0  0  0  0  0  0
  -18.8060  -29.8190   23.7730 C   0  0  0  0  0  3  0  0  0  0  0  0
  -17.4740  -30.2370   23.9440 C   0  0  0  0  0  3  0  0  0  0  0  0
  -16.4180  -29.4120   23.5140 C   0  0  0  0  0  3  0  0  0  0  0  0
  -16.7000  -28.1790   22.9010 C   0  0  0  0  0  3  0  0  0  0  0  0
  -25.8130  -32.4330   23.6770 C   0  0  0  0  0  3  0  0  0  0  0  0
  -25.4960  -33.8110   24.0800 N   0  0  0  0  0  0  0  0  0  0  0  0
  -25.8300  -34.9070   23.3860 C   0  0  0  0  0  0  0  0  0  0  0  0
  -26.5040  -34.8620   22.3540 O   0  0  0  0  0  0  0  0  0  0  0  0
  -24.8940  -33.9160   24.8840 H   0  0  0  0  0  0  0  0  0  0  0  0
  -24.1030  -36.7220   23.1260 C   0  0  0  0  0  1  0  0  0  0  0  0
  -25.3370  -36.2660   23.9220 C   0  0  0  0  0  3  0  0  0  0  0  0
  -27.4630  -37.1000   24.8260 C   0  0  0  0  0  1  0  0  0  0  0  0
  -26.3710  -37.3240   23.8820 N   0  0  0  0  0  0  0  0  0  0  0  0
  -25.9640  -38.2340   24.0800 H   0  0  0  0  0  0  0  0  0  0  0  0
  -26.3890  -31.6160   24.9000 C   0  0  1  0  0  0  0  0  0  0  0  0
  -25.3440  -31.3290   26.0050 C   0  0  0  0  0  1  0  0  0  0  0  0
  -26.9680  -30.2590   24.4360 C   0  0  0  0  0  1  0  0  0  0  0  0
  -27.5580  -32.3990   25.5450 C   0  0  0  0  0  1  0  0  0  0  0  0
  1  2  1  0
  1 49  1  0
  2  4  1  0
  3  1  2  0
  5  6  1  0
  6  7  2  0
  6  2  1  0
  7 19  1  0
  8 10  1  0
  8  5  2  0
  9  8  1  0
 10  7  1  0
 11 17  1  0
 12 17  1  0
 13 14  1  0
 13 12  1  0
 15 14  1  0
 15 24  1  0
 15 16  1  0
 17 16  1  0
 18 11  2  0
 19 11  1  0
 19 20  1  0
 21 22  2  0
 22 23  1  0
 22 41  1  0
 23 26  1  0
 24 21  1  0
 24 25  1  0
 25 23  2  0
 26 27  1  0
 27 28  2  0
 29 32  1  0
 29 28  1  0
 30 29  2  0
 31 30  1  0
 31 26  2  0
 32 33  1  0
 33 34  1  0
 34 35  2  0
 36 35  1  0
 36 40  1  0
 37 36  2  0
 38 33  2  0
 38 37  1  0
 39 38  1  0
 41 42  1  0
 42 45  1  0
 42 44  1  0
 43 41  2  0
 46 47  1  0
 46 21  1  0
 48 46  1  0
 49 54  1  6
 49 51  1  0
 51 50  1  0
 52 49  1  0
 52 53  1  0
 55 56  1  0
 55 54  1  0
 57 68  2  0
 58 56  1  0
 58 63  1  0
 59 67  1  0
 59 69  1  0
 60 66  1  0
 60 62  1  0
 61 67  1  0
 62 61  1  0
 63 62  2  0
 64 65  1  0
 64 58  2  0
 65 60  2  0
 66 59  1  0
 67 57  1  0
 69 71  2  0
 70 69  1  0
 72 70  1  0
 73 82  2  0
 73 78  1  0
 74 70  1  0
 74 78  1  0
 75 74  1  0
 76 77  1  0
 76 75  1  0
 77 73  1  0
 78 79  2  0
 79 80  1  0
 81 80  2  0
 82 81  1  0
 83 57  1  0
 83 84  1  0
 83 93  1  0
 84 87  1  0
 85 89  1  0
 85 84  1  0
 86 85  2  0
 89 88  1  0
 91 89  1  0
 91 92  1  0
 91 90  1  0
 93 96  1  1
 93 94  1  0
 95 93  1  0
M  ISO  4  11 100  19 100  55 101  56 101
M  END
>  <TORSDO>  (78) 
F 22

>  <SCORE>  (78) 
-12.688

>  <name>  (78) 
77

>  <ligand_id>  (78) 
77

>  <original_smiles>  (78) 
[H]OC(C(=O)N([H])c1c(N([H])C(=O)N2C([H])([H])C([H])([H])C([H])([H])C([H])(n3nc(-c4c([H])c([H])c(Oc5c([H])c([H])c(F)c([H])c5F)c([H])c4[H])c(C(=O)N([H])[H])c3N([H])[H])C2([H])[H])sc(F)c1[H])(C([H])([H])C([H])([H])[H])C([H])([H])C([H])([H])Oc1c([H])c([H])c2c(c1[H])C([H])([H])N(C(=O)C([H])(N([H])C(=O)C([H])(N([H])C([H])([H])[H])C([H])([H])[H])C(C([H])([H])[H])(C([H])([H])[H])C([H])([H])[H])C([H])(C(=O)N([H])C1([H])c3c([H])c([H])c([H])c([H])c3C([H])([H])C([H])([H])C1([H])[H])C2([H])[H]

>  <smiles>  (78) 
[H]OC(C(=O)N([H])c1c(N([H])C(=O)N2C([H])([H])C([H])([H])C([H])([H])C([H])(n3nc(-c4c([H])c([H])c(Oc5c([H])c([H])c(F)c([H])c5F)c([H])c4[H])c(C(=O)N([H])[H])c3N([H])[H])C2([H])[H])sc(F)c1[H])(C([H])([H])C([H])([H])[H])C([H])([H])C([H])([H])Oc1c([H])c([H])c2c(c1[H])C([H])([H])N(C(=O)C([H])(N([H])C(=O)C([H])(N([H])C([H])([H])[H])C([H])([H])[H])C(C([H])([H])[H])(C([H])([H])[H])C([H])([H])[H])C([H])(C(=O)N([H])C1([H])c3c([H])c([H])c([H])c([H])c3C([H])([H])C([H])([H])C1([H])[H])C2([H])[H]

$$$$
78:0:0
     RDKit          3D

 96104  0  0  1  0  0  0  0  0999 V2000
  -30.3980  -22.7400   21.2550 C   0  0  0  0  0  0  0  0  0  0  0  0
  -29.7310  -21.5820   21.4190 N   0  0  0  0  0  0  0  0  0  0  0  0
  -31.5820  -22.8040   20.9080 O   0  0  0  0  0  0  0  0  0  0  0  0
  -28.7550  -21.6790   21.6600 H   0  0  0  0  0  0  0  0  0  0  0  0
  -31.3660  -19.8170   20.7550 C   0  0  0  0  0  3  0  0  0  0  0  0
  -31.4400  -18.3890   20.6360 C   0  0  0  0  0  0  0  0  0  0  0  0
  -30.2630  -17.7680   21.0130 C   0  0  0  0  0  0  0  0  0  0  0  0
  -30.1610  -20.3040   21.2080 C   0  0  0  0  0  0  0  0  0  0  0  0
  -32.6810  -17.7140   20.1340 C   0  0  0  0  0  1  0  0  0  0  0  0
  -29.0900  -18.9690   21.5240 S   0  0  0  0  0  0  0  0  0  0  0  0
  -30.8630  -14.5420   20.0850 C   0  0  0  0  0  0  0  0  0  0  0  0
  -30.4710  -12.4110   18.8780 C   0  0  0  0  0  2  0  0  0  0  0  0
  -29.4330  -12.6080   17.7550 C   0  0  0  0  0  2  0  0  0  0  0  0
  -28.0030  -12.4300   18.2970 C   0  0  0  0  0  2  0  0  0  0  0  0
  -27.7520  -13.2640   19.5770 C   0  0  0  0  0  3  0  0  0  0  0  0
  -28.8870  -13.0480   20.6080 C   0  0  0  0  0  2  0  0  0  0  0  0
  -30.1820  -13.3640   19.9670 N   0  0  0  0  0  0  0  0  0  0  0  0
  -31.7850  -14.8510   19.3270 O   0  0  0  0  0  0  0  0  0  0  0  0
  -29.7290  -16.3650   21.0470 C   0  0  0  0  0  0  0  0  0  0  0  0
  -30.5450  -15.2990   21.1480 N   0  0  0  0  0  0  0  0  0  0  0  0
  -28.5080  -16.1890   21.1140 O   0  0  0  0  0  0  0  0  0  0  0  0
  -30.1100  -14.6580   21.7870 H   0  0  0  0  0  0  0  0  0  0  0  0
  -25.4110  -13.8480   20.4800 C   0  0  0  0  0  0  0  0  0  0  0  0
  -24.3630  -13.0620   20.8840 C   0  0  0  0  0  0  0  0  0  0  0  0
  -24.8170  -11.7140   20.7670 C   0  0  0  0  0  0  0  0  0  0  0  0
  -26.4360  -12.9760   20.1450 N   0  0  0  0  0  0  0  0  0  0  0  0
  -26.0830  -11.6830   20.3710 N   0  0  0  0  0  0  0  0  0  0  0  0
  -24.1040  -10.4440   20.9610 C   0  0  0  0  0  0  0  0  0  0  0  0
  -24.5340   -9.4910   21.9110 C   0  0  0  0  0  3  0  0  0  0  0  0
  -23.8180   -8.2870   22.0950 C   0  0  0  0  0  3  0  0  0  0  0  0
  -22.6570   -8.0280   21.3280 C   0  0  0  0  0  0  0  0  0  0  0  0
  -22.2470   -8.9700   20.3680 C   0  0  0  0  0  3  0  0  0  0  0  0
  -22.9640  -10.1640   20.1810 C   0  0  0  0  0  3  0  0  0  0  0  0
  -21.9110   -6.8780   21.4220 O   0  0  0  0  0  0  0  0  0  0  0  0
  -21.7700   -6.2050   22.6090 C   0  0  0  0  0  0  0  0  0  0  0  0
  -21.2060   -6.8190   23.7490 C   0  0  0  0  0  3  0  0  0  0  0  0
  -21.0130   -6.0700   24.9280 C   0  0  0  0  0  3  0  0  0  0  0  0
  -21.3750   -4.7100   24.9660 C   0  0  0  0  0  0  0  0  0  0  0  0
  -21.9330   -4.0970   23.8300 C   0  0  0  0  0  3  0  0  0  0  0  0
  -22.1260   -4.8420   22.6540 C   0  0  0  0  0  0  0  0  0  0  0  0
  -22.6430   -4.2410   21.5540 F   0  0  0  0  0  0  0  0  0  0  0  0
  -21.1850   -3.9890   26.0970 F   0  0  0  0  0  0  0  0  0  0  0  0
  -22.9930  -13.5280   21.2870 C   0  0  0  0  0  0  0  0  0  0  0  0
  -22.3390  -12.8040   22.1920 N   0  0  0  0  0  0  0  0  0  0  0  0
  -22.5150  -14.5680   20.8400 O   0  0  0  0  0  0  0  0  0  0  0  0
  -22.7400  -11.9620   22.5740 H   0  0  0  0  0  0  0  0  0  0  0  0
  -21.4220  -13.0940   22.5050 H   0  0  0  0  0  0  0  0  0  0  0  0
  -25.5800  -15.2230   20.3580 N   0  0  0  0  0  0  0  0  0  0  0  0
  -24.8570  -15.8900   20.6110 H   0  0  0  0  0  0  0  0  0  0  0  0
  -26.5100  -15.6340   20.3530 H   0  0  0  0  0  0  0  0  0  0  0  0
  -29.5520  -23.9020   21.5070 C   0  0  0  0  0  3  0  0  0  0  0  0
  -29.8430  -25.1520   21.0700 C   0  0  0  0  0  0  0  0  0  0  0  0
  -30.9390  -25.4850   20.3680 O   0  0  0  0  0  0  0  0  0  0  0  0
  -31.4640  -24.6970   20.2660 H   0  0  0  0  0  0  0  0  0  0  0  0
  -28.9730  -26.3850   21.2770 C   0  0  0  0  0  2  0  0  0  0  0  0
  -28.6030  -26.9380   20.0170 O   0  0  0  0  0  0  0  0  0  0  0  0
  -24.5190  -31.8300   23.1830 C   0  0  0  0  0  0  0  0  0  0  0  0
  -27.4230  -27.6330   20.0380 C   0  0  0  0  0  0  0  0  0  0  0  0
  -23.4020  -30.4120   21.4850 C   0  0  0  0  0  3  0  0  0  0  0  0
  -24.9530  -28.9860   20.0470 C   0  0  0  0  0  0  0  0  0  0  0  0
  -25.9030  -30.9110   21.3320 C   0  0  0  0  0  2  0  0  0  0  0  0
  -26.0700  -29.5600   20.6710 C   0  0  0  0  0  0  0  0  0  0  0  0
  -27.3090  -28.8860   20.6750 C   0  0  0  0  0  3  0  0  0  0  0  0
  -26.3040  -27.0700   19.3970 C   0  0  0  0  0  3  0  0  0  0  0  0
  -25.0620  -27.7370   19.4090 C   0  0  0  0  0  3  0  0  0  0  0  0
  -23.6650  -29.7740   20.0940 C   0  0  0  0  0  2  0  0  0  0  0  0
  -24.6230  -31.0660   22.0600 N   0  0  0  0  0  0  0  0  0  0  0  0
  -23.4200  -32.0340   23.7170 O   0  0  0  0  0  0  0  0  0  0  0  0
  -22.7910  -29.3380   22.4110 C   0  0  0  0  0  0  0  0  0  0  0  0
  -21.4800  -29.0890   22.2540 N   0  0  0  0  0  0  0  0  0  0  0  0
  -23.4910  -28.7290   23.2250 O   0  0  0  0  0  0  0  0  0  0  0  0
  -20.9750  -29.6420   21.5750 H   0  0  0  0  0  0  0  0  0  0  0  0
  -18.1700  -27.7030   22.6370 C   0  0  0  0  0  0  0  0  0  0  0  0
  -20.6990  -28.0960   22.9890 C   0  0  0  0  0  3  0  0  0  0  0  0
  -20.8970  -26.6820   22.3960 C   0  0  0  0  0  2  0  0  0  0  0  0
  -19.8480  -26.3180   21.3420 C   0  0  0  0  0  2  0  0  0  0  0  0
  -18.4390  -26.3810   21.9400 C   0  0  0  0  0  2  0  0  0  0  0  0
  -19.2320  -28.5160   23.1130 C   0  0  0  0  0  0  0  0  0  0  0  0
  -18.9280  -29.7570   23.7140 C   0  0  0  0  0  3  0  0  0  0  0  0
  -17.5930  -30.1830   23.8520 C   0  0  0  0  0  3  0  0  0  0  0  0
  -16.5450  -29.3650   23.3970 C   0  0  0  0  0  3  0  0  0  0  0  0
  -16.8330  -28.1270   22.7940 C   0  0  0  0  0  3  0  0  0  0  0  0
  -25.7680  -32.5040   23.8360 C   0  0  0  0  0  3  0  0  0  0  0  0
  -26.2930  -31.7400   25.1130 C   0  0  1  0  0  0  0  0  0  0  0  0
  -25.1880  -31.4390   26.1520 C   0  0  0  0  0  1  0  0  0  0  0  0
  -26.9420  -30.3940   24.7150 C   0  0  0  0  0  1  0  0  0  0  0  0
  -27.3950  -32.5730   25.8080 C   0  0  0  0  0  1  0  0  0  0  0  0
  -25.4010  -33.8860   24.1710 N   0  0  0  0  0  0  0  0  0  0  0  0
  -25.7040  -34.9550   23.4230 C   0  0  0  0  0  0  0  0  0  0  0  0
  -26.3960  -34.8870   22.4030 O   0  0  0  0  0  0  0  0  0  0  0  0
  -24.8000  -34.0130   24.9710 H   0  0  0  0  0  0  0  0  0  0  0  0
  -23.9240  -36.6850   23.0270 C   0  0  0  0  0  1  0  0  0  0  0  0
  -25.1510  -36.3190   23.8780 C   0  0  0  0  0  3  0  0  0  0  0  0
  -27.2220  -37.2700   24.7930 C   0  0  0  0  0  1  0  0  0  0  0  0
  -26.1460  -37.4110   23.8150 N   0  0  0  0  0  0  0  0  0  0  0  0
  -25.7000  -38.3130   23.9660 H   0  0  0  0  0  0  0  0  0  0  0  0
  1  2  1  0
  1 51  1  0
  2  4  1  0
  3  1  2  0
  5  8  2  0
  6  5  1  0
  6  7  2  0
  7 19  1  0
  7 10  1  0
  8  2  1  0
  8 10  1  0
  9  6  1  0
 11 20  1  0
 12 17  1  0
 13 14  1  0
 13 12  1  0
 15 14  1  0
 15 26  1  0
 15 16  1  0
 17 11  1  0
 17 16  1  0
 18 11  2  0
 19 21  2  0
 19 20  1  0
 20 22  1  0
 23 24  2  0
 24 43  1  0
 25 24  1  0
 25 28  1  0
 26 27  1  0
 26 23  1  0
 27 25  2  0
 28 29  1  0
 29 30  2  0
 31 34  1  0
 31 30  1  0
 32 31  2  0
 33 32  1  0
 33 28  2  0
 34 35  1  0
 35 40  2  0
 35 36  1  0
 36 37  2  0
 37 38  1  0
 38 42  1  0
 39 38  2  0
 40 39  1  0
 41 40  1  0
 43 44  1  0
 44 47  1  0
 44 46  1  0
 45 43  2  0
 48 23  1  0
 48 49  1  0
 50 48  1  0
 52 55  1  0
 52 51  2  0
 53 52  1  0
 54 53  1  0
 56 58  1  0
 56 55  1  0
 57 68  2  0
 58 63  1  0
 59 67  1  0
 59 69  1  0
 60 66  1  0
 60 62  1  0
 61 67  1  0
 62 63  2  0
 62 61  1  0
 64 65  1  0
 64 58  2  0
 65 60  2  0
 66 59  1  0
 67 57  1  0
 69 71  2  0
 70 69  1  0
 72 70  1  0
 73 82  2  0
 73 78  1  0
 74 70  1  0
 74 78  1  0
 75 74  1  0
 76 77  1  0
 76 75  1  0
 77 73  1  0
 78 79  2  0
 79 80  1  0
 81 80  2  0
 82 81  1  0
 83 57  1  0
 83 88  1  0
 83 84  1  0
 84 87  1  1
 84 85  1  0
 86 84  1  0
 88 91  1  0
 89 93  1  0
 89 88  1  0
 90 89  2  0
 93 92  1  0
 95 93  1  0
 95 96  1  0
 95 94  1  0
M  ISO  4  11 100  20 100  55 101  56 101
M  END
>  <TORSDO>  (79) 
F 20

>  <SCORE>  (79) 
-12.957

>  <name>  (79) 
78

>  <ligand_id>  (79) 
78

>  <original_smiles>  (79) 
[H]OC(=C([H])C(=O)N([H])c1sc(C(=O)N([H])C(=O)N2C([H])([H])C([H])([H])C([H])([H])C([H])(n3nc(-c4c([H])c([H])c(Oc5c([H])c([H])c(F)c([H])c5F)c([H])c4[H])c(C(=O)N([H])[H])c3N([H])[H])C2([H])[H])c(C([H])([H])[H])c1[H])C([H])([H])Oc1c([H])c([H])c2c(c1[H])C([H])([H])N(C(=O)C([H])(N([H])C(=O)C([H])(N([H])C([H])([H])[H])C([H])([H])[H])C(C([H])([H])[H])(C([H])([H])[H])C([H])([H])[H])C([H])(C(=O)N([H])C1([H])c3c([H])c([H])c([H])c([H])c3C([H])([H])C([H])([H])C1([H])[H])C2([H])[H]

>  <smiles>  (79) 
[H]OC(=C([H])C(=O)N([H])c1sc(C(=O)N([H])C(=O)N2C([H])([H])C([H])([H])C([H])([H])C([H])(n3nc(-c4c([H])c([H])c(Oc5c([H])c([H])c(F)c([H])c5F)c([H])c4[H])c(C(=O)N([H])[H])c3N([H])[H])C2([H])[H])c(C([H])([H])[H])c1[H])C([H])([H])Oc1c([H])c([H])c2c(c1[H])C([H])([H])N(C(=O)C([H])(N([H])C(=O)C([H])(N([H])C([H])([H])[H])C([H])([H])[H])C(C([H])([H])[H])(C([H])([H])[H])C([H])([H])[H])C([H])(C(=O)N([H])C1([H])c3c([H])c([H])c([H])c([H])c3C([H])([H])C([H])([H])C1([H])[H])C2([H])[H]

$$$$
79:0:0
     RDKit          3D

 97105  0  0  1  0  0  0  0  0999 V2000
  -29.9660  -18.6550   20.3800 C   0  0  0  0  0  0  0  0  0  0  0  0
  -31.0150  -19.1230   19.6000 C   0  0  0  0  0  0  0  0  0  0  0  0
  -29.4480  -21.0260   20.2220 C   0  0  0  0  0  0  0  0  0  0  0  0
  -29.0820  -23.6440   20.2600 C   0  0  0  0  0  0  0  0  0  0  0  0
  -29.0860  -19.7790   20.7030 N   0  0  0  0  0  0  0  0  0  0  0  0
  -28.6740  -22.3050   20.3180 N   0  0  0  0  0  0  0  0  0  0  0  0
  -30.2450  -23.9490   20.5390 O   0  0  0  0  0  0  0  0  0  0  0  0
  -30.9340  -20.8690   19.2900 S   0  0  0  0  0  0  0  0  0  0  0  0
  -27.6720  -22.1820   20.2880 H   0  0  0  0  0  0  0  0  0  0  0  0
  -30.5540  -14.8230   20.3920 C   0  0  0  0  0  0  0  0  0  0  0  0
  -30.3520  -12.5590   19.3070 C   0  0  0  0  0  2  0  0  0  0  0  0
  -29.3970  -12.5850   18.0960 C   0  0  0  0  0  2  0  0  0  0  0  0
  -27.9310  -12.4050   18.5430 C   0  0  0  0  0  2  0  0  0  0  0  0
  -27.5590  -13.2920   19.7640 C   0  0  0  0  0  3  0  0  0  0  0  0
  -28.6350  -13.2340   20.8650 C   0  0  0  0  0  2  0  0  0  0  0  0
  -29.8980  -13.6210   20.2320 N   0  0  0  0  0  0  0  0  0  0  0  0
  -31.7740  -14.8570   20.2190 O   0  0  0  0  0  0  0  0  0  0  0  0
  -30.0480  -17.2050   21.0400 C   0  0  0  0  0  0  0  0  0  0  0  0
  -29.8210  -16.0120   20.3570 N   0  0  0  0  0  0  0  0  0  0  0  0
  -30.3940  -17.1480   22.2260 O   0  0  0  0  0  0  0  0  0  0  0  0
  -29.0870  -16.0410   19.6680 H   0  0  0  0  0  0  0  0  0  0  0  0
  -25.1920  -13.8800   20.5440 C   0  0  0  0  0  0  0  0  0  0  0  0
  -24.1270  -13.1070   20.9120 C   0  0  0  0  0  0  0  0  0  0  0  0
  -24.5800  -11.7540   20.8530 C   0  0  0  0  0  0  0  0  0  0  0  0
  -26.2260  -12.9980   20.2770 N   0  0  0  0  0  0  0  0  0  0  0  0
  -25.8670  -11.7130   20.5280 N   0  0  0  0  0  0  0  0  0  0  0  0
  -23.8450  -10.4950   21.0300 C   0  0  0  0  0  0  0  0  0  0  0  0
  -24.2650   -9.5200   21.9610 C   0  0  0  0  0  3  0  0  0  0  0  0
  -23.5330   -8.3250   22.1250 C   0  0  0  0  0  3  0  0  0  0  0  0
  -22.3640   -8.0970   21.3610 C   0  0  0  0  0  0  0  0  0  0  0  0
  -21.9620   -9.0610   20.4190 C   0  0  0  0  0  3  0  0  0  0  0  0
  -22.6960  -10.2480   20.2530 C   0  0  0  0  0  3  0  0  0  0  0  0
  -21.6040   -6.9550   21.4370 O   0  0  0  0  0  0  0  0  0  0  0  0
  -21.5250   -6.2150   22.5900 C   0  0  0  0  0  0  0  0  0  0  0  0
  -21.0340   -6.7640   23.7940 C   0  0  0  0  0  3  0  0  0  0  0  0
  -20.9060   -5.9510   24.9370 C   0  0  0  0  0  3  0  0  0  0  0  0
  -21.2580   -4.5890   24.8770 C   0  0  0  0  0  0  0  0  0  0  0  0
  -21.7430   -4.0390   23.6770 C   0  0  0  0  0  3  0  0  0  0  0  0
  -21.8720   -4.8510   22.5360 C   0  0  0  0  0  0  0  0  0  0  0  0
  -22.3190   -4.3110   21.3770 F   0  0  0  0  0  0  0  0  0  0  0  0
  -21.1270   -3.8050   25.9740 F   0  0  0  0  0  0  0  0  0  0  0  0
  -22.7360  -13.5890   21.2030 C   0  0  0  0  0  0  0  0  0  0  0  0
  -22.0090  -12.8770   22.0550 N   0  0  0  0  0  0  0  0  0  0  0  0
  -22.3040  -14.6310   20.7090 O   0  0  0  0  0  0  0  0  0  0  0  0
  -22.3750  -12.0390   22.4830 H   0  0  0  0  0  0  0  0  0  0  0  0
  -21.0730  -13.1740   22.2850 H   0  0  0  0  0  0  0  0  0  0  0  0
  -25.3650  -15.2540   20.3890 N   0  0  0  0  0  0  0  0  0  0  0  0
  -24.6020  -15.9120   20.5030 H   0  0  0  0  0  0  0  0  0  0  0  0
  -26.2160  -15.6890   20.0540 H   0  0  0  0  0  0  0  0  0  0  0  0
  -33.2630  -18.3540   19.8040 C   0  0  0  0  0  0  0  0  0  0  0  0
  -34.2720  -17.3120   19.3350 C   0  0  0  0  0  1  0  0  0  0  0  0
  -32.0810  -18.3980   19.1710 N   0  0  0  0  0  0  0  0  0  0  0  0
  -33.5530  -19.1000   20.7400 O   0  0  0  0  0  0  0  0  0  0  0  0
  -31.9260  -17.7310   18.4250 H   0  0  0  0  0  0  0  0  0  0  0  0
  -28.2460  -24.9160   18.2630 C   0  0  0  0  0  1  0  0  0  0  0  0
  -28.0820  -24.8410   19.7970 C   0  0  0  0  0  3  0  0  0  0  0  0
  -28.2640  -26.2800   20.2980 O   0  0  0  0  0  0  0  0  0  0  0  0
  -24.6090  -31.8990   23.2720 C   0  0  0  0  0  0  0  0  0  0  0  0
  -27.1890  -27.2270   20.2320 C   0  0  0  0  0  0  0  0  0  0  0  0
  -23.4080  -30.5120   21.6250 C   0  0  0  0  0  3  0  0  0  0  0  0
  -24.8560  -28.9450   20.2100 C   0  0  0  0  0  0  0  0  0  0  0  0
  -25.9630  -30.7820   21.4680 C   0  0  0  0  0  2  0  0  0  0  0  0
  -26.0370  -29.3950   20.8160 C   0  0  0  0  0  0  0  0  0  0  0  0
  -27.2030  -28.5500   20.8130 C   0  0  0  0  0  3  0  0  0  0  0  0
  -25.9720  -26.8670   19.6020 C   0  0  0  0  0  3  0  0  0  0  0  0
  -24.8320  -27.6890   19.5940 C   0  0  0  0  0  3  0  0  0  0  0  0
  -23.6320  -29.8400   20.2470 C   0  0  0  0  0  2  0  0  0  0  0  0
  -24.6800  -31.0830   22.1780 N   0  0  0  0  0  0  0  0  0  0  0  0
  -23.5210  -32.1870   23.7930 O   0  0  0  0  0  0  0  0  0  0  0  0
  -22.7240  -29.5020   22.5810 C   0  0  0  0  0  0  0  0  0  0  0  0
  -21.3980  -29.3340   22.4440 N   0  0  0  0  0  0  0  0  0  0  0  0
  -23.3900  -28.8730   23.4080 O   0  0  0  0  0  0  0  0  0  0  0  0
  -20.9200  -29.8960   21.7550 H   0  0  0  0  0  0  0  0  0  0  0  0
  -18.0020  -28.1730   22.9400 C   0  0  0  0  0  0  0  0  0  0  0  0
  -20.5640  -28.4030   23.2080 C   0  0  0  0  0  3  0  0  0  0  0  0
  -20.6470  -26.9740   22.6250 C   0  0  0  0  0  2  0  0  0  0  0  0
  -19.5400  -26.6670   21.6090 C   0  0  0  0  0  2  0  0  0  0  0  0
  -18.1610  -26.8270   22.2550 C   0  0  0  0  0  2  0  0  0  0  0  0
  -19.1300  -28.9210   23.3720 C   0  0  0  0  0  0  0  0  0  0  0  0
  -18.9240  -30.1810   23.9740 C   0  0  0  0  0  3  0  0  0  0  0  0
  -17.6250  -30.6950   24.1460 C   0  0  0  0  0  3  0  0  0  0  0  0
  -16.5120  -29.9450   23.7280 C   0  0  0  0  0  3  0  0  0  0  0  0
  -16.7010  -28.6850   23.1320 C   0  0  0  0  0  3  0  0  0  0  0  0
  -25.8860  -32.5250   23.9050 C   0  0  0  0  0  3  0  0  0  0  0  0
  -25.5800  -33.9270   24.2260 N   0  0  0  0  0  0  0  0  0  0  0  0
  -25.9140  -34.9750   23.4600 C   0  0  0  0  0  0  0  0  0  0  0  0
  -26.5760  -34.8630   22.4250 O   0  0  0  0  0  0  0  0  0  0  0  0
  -24.9850  -34.0880   25.0240 H   0  0  0  0  0  0  0  0  0  0  0  0
  -24.1920  -36.7840   23.1190 C   0  0  0  0  0  1  0  0  0  0  0  0
  -25.4380  -36.3690   23.9170 C   0  0  0  0  0  3  0  0  0  0  0  0
  -27.5820  -37.2530   24.7280 C   0  0  0  0  0  1  0  0  0  0  0  0
  -26.4760  -37.4150   23.7880 N   0  0  0  0  0  0  0  0  0  0  0  0
  -26.0740  -38.3380   23.9270 H   0  0  0  0  0  0  0  0  0  0  0  0
  -26.3790  -31.7570   25.1930 C   0  0  1  0  0  0  0  0  0  0  0  0
  -25.2710  -31.5300   26.2490 C   0  0  0  0  0  1  0  0  0  0  0  0
  -26.9620  -30.3730   24.8200 C   0  0  0  0  0  1  0  0  0  0  0  0
  -27.5240  -32.5510   25.8660 C   0  0  0  0  0  1  0  0  0  0  0  0
  1  5  1  0
  1 18  1  0
  2  1  2  0
  3  6  1  0
  3  5  2  0
  4  6  1  0
  4  7  2  0
  8  2  1  0
  8  3  1  0
  9  6  1  0
 11 16  1  0
 12 13  1  0
 12 11  1  0
 14 13  1  0
 14 25  1  0
 14 15  1  0
 16 10  1  0
 16 15  1  0
 17 10  2  0
 18 20  2  0
 19 10  1  0
 19 18  1  0
 21 19  1  0
 22 23  2  0
 23 42  1  0
 24 23  1  0
 24 27  1  0
 25 26  1  0
 25 22  1  0
 26 24  2  0
 27 28  1  0
 28 29  2  0
 30 33  1  0
 30 29  1  0
 31 30  2  0
 32 31  1  0
 32 27  2  0
 33 34  1  0
 34 35  1  0
 35 36  2  0
 37 36  1  0
 37 41  1  0
 38 37  2  0
 39 34  2  0
 39 38  1  0
 40 39  1  0
 42 43  1  0
 43 46  1  0
 43 45  1  0
 44 42  2  0
 47 48  1  0
 47 22  1  0
 49 47  1  0
 50 53  2  0
 51 50  1  0
 52  2  1  0
 52 50  1  0
 54 52  1  0
 56 55  1  0
 56  4  1  0
 56 57  1  0
 58 69  2  0
 59 57  1  0
 59 64  1  0
 60 68  1  0
 60 70  1  0
 61 67  1  0
 61 63  1  0
 62 68  1  0
 63 62  1  0
 64 63  2  0
 65 59  2  0
 66 65  1  0
 66 61  2  0
 67 60  1  0
 68 58  1  0
 70 72  2  0
 71 70  1  0
 73 71  1  0
 74 83  2  0
 74 79  1  0
 75 71  1  0
 75 79  1  0
 76 75  1  0
 77 78  1  0
 77 76  1  0
 78 74  1  0
 79 80  2  0
 80 81  1  0
 82 81  2  0
 83 82  1  0
 84 58  1  0
 84 85  1  0
 84 94  1  0
 85 88  1  0
 86 90  1  0
 86 85  1  0
 87 86  2  0
 90 89  1  0
 92 90  1  0
 92 93  1  0
 92 91  1  0
 94 97  1  1
 94 95  1  0
 96 94  1  0
M  ISO  4  10 100  19 100  56 101  57 101
M  END
>  <TORSDO>  (80) 
F 18

>  <SCORE>  (80) 
-14.991

>  <name>  (80) 
79

>  <ligand_id>  (80) 
79

>  <original_smiles>  (80) 
[H]c1c([H])c([H])c2c(c1[H])C([H])([H])C([H])([H])C([H])([H])C2([H])N([H])C(=O)C1([H])N(C(=O)C([H])(N([H])C(=O)C([H])(N([H])C([H])([H])[H])C([H])([H])[H])C(C([H])([H])[H])(C([H])([H])[H])C([H])([H])[H])C([H])([H])c2c([H])c(OC([H])(C(=O)N([H])c3nc(C(=O)N([H])C(=O)N4C([H])([H])C([H])([H])C([H])([H])C([H])(n5nc(-c6c([H])c([H])c(Oc7c([H])c([H])c(F)c([H])c7F)c([H])c6[H])c(C(=O)N([H])[H])c5N([H])[H])C4([H])[H])c(N([H])C(=O)C([H])([H])[H])s3)C([H])([H])[H])c([H])c([H])c2C1([H])[H]

>  <smiles>  (80) 
[H]c1c([H])c([H])c2c(c1[H])C([H])([H])C([H])([H])C([H])([H])C2([H])N([H])C(=O)C1([H])N(C(=O)C([H])(N([H])C(=O)C([H])(N([H])C([H])([H])[H])C([H])([H])[H])C(C([H])([H])[H])(C([H])([H])[H])C([H])([H])[H])C([H])([H])c2c([H])c(OC([H])(C(=O)N([H])c3nc(C(=O)N([H])C(=O)N4C([H])([H])C([H])([H])C([H])([H])C([H])(n5nc(-c6c([H])c([H])c(Oc7c([H])c([H])c(F)c([H])c7F)c([H])c6[H])c(C(=O)N([H])[H])c5N([H])[H])C4([H])[H])c(N([H])C(=O)C([H])([H])[H])s3)C([H])([H])[H])c([H])c([H])c2C1([H])[H]

$$$$
80:0:0
     RDKit          3D

 94102  0  0  1  0  0  0  0  0999 V2000
  -29.9230  -21.8560   22.0990 C   0  0  0  0  0  1  0  0  0  0  0  0
  -31.7530  -21.2900   20.5490 C   0  0  0  0  0  1  0  0  0  0  0  0
  -30.2000  -21.3340   20.6710 C   0  0  1  0  0  0  0  0  0  0  0  0
  -30.9210  -14.9510   20.3430 C   0  0  0  0  0  0  0  0  0  0  0  0
  -30.8090  -12.6410   19.3280 C   0  0  0  0  0  2  0  0  0  0  0  0
  -29.8820  -12.6530   18.0860 C   0  0  0  0  0  2  0  0  0  0  0  0
  -28.4040  -12.5020   18.4940 C   0  0  0  0  0  2  0  0  0  0  0  0
  -28.0160  -13.4130   19.6890 C   0  0  0  0  0  3  0  0  0  0  0  0
  -29.0470  -13.2940   20.8310 C   0  0  0  0  0  2  0  0  0  0  0  0
  -30.3520  -13.6880   20.2850 N   0  0  0  0  0  0  0  0  0  0  0  0
  -32.0450  -15.1180   19.8560 O   0  0  0  0  0  0  0  0  0  0  0  0
  -29.6640  -19.8150   20.5390 C   0  0  0  0  0  0  0  0  0  0  0  0
  -28.3230  -19.4610   20.5220 C   0  0  0  0  0  0  0  0  0  0  0  0
  -29.7880  -17.3770   20.6110 C   0  0  0  0  0  0  0  0  0  0  0  0
  -30.4700  -18.5870   20.6480 N   0  0  0  0  0  0  0  0  0  0  0  0
  -30.2060  -15.9760   20.9690 N   0  0  0  0  0  0  0  0  0  0  0  0
  -28.0590  -17.7210   20.4970 S   0  0  0  0  0  0  0  0  0  0  0  0
  -29.4890  -15.5420   21.5370 H   0  0  0  0  0  0  0  0  0  0  0  0
  -25.6230  -14.0650   20.3450 C   0  0  0  0  0  0  0  0  0  0  0  0
  -24.5390  -13.3200   20.7190 C   0  0  0  0  0  0  0  0  0  0  0  0
  -24.9710  -11.9600   20.7110 C   0  0  0  0  0  0  0  0  0  0  0  0
  -26.6550  -13.1610   20.1510 N   0  0  0  0  0  0  0  0  0  0  0  0
  -26.2680  -11.8890   20.4270 N   0  0  0  0  0  0  0  0  0  0  0  0
  -24.2100  -10.7210   20.9080 C   0  0  0  0  0  0  0  0  0  0  0  0
  -24.6130   -9.7510   21.8510 C   0  0  0  0  0  3  0  0  0  0  0  0
  -23.8570   -8.5740   22.0340 C   0  0  0  0  0  3  0  0  0  0  0  0
  -22.6840   -8.3610   21.2760 C   0  0  0  0  0  0  0  0  0  0  0  0
  -22.3010   -9.3180   20.3220 C   0  0  0  0  0  3  0  0  0  0  0  0
  -23.0550  -10.4850   20.1360 C   0  0  0  0  0  3  0  0  0  0  0  0
  -21.9000   -7.2370   21.3680 O   0  0  0  0  0  0  0  0  0  0  0  0
  -21.7850   -6.5330   22.5390 C   0  0  0  0  0  0  0  0  0  0  0  0
  -21.2710   -7.1220   23.7140 C   0  0  0  0  0  3  0  0  0  0  0  0
  -21.1090   -6.3460   24.8790 C   0  0  0  0  0  3  0  0  0  0  0  0
  -21.4480   -4.9800   24.8670 C   0  0  0  0  0  0  0  0  0  0  0  0
  -21.9560   -4.3890   23.6970 C   0  0  0  0  0  3  0  0  0  0  0  0
  -22.1210   -5.1630   22.5350 C   0  0  0  0  0  0  0  0  0  0  0  0
  -22.5900   -4.5870   21.4010 F   0  0  0  0  0  0  0  0  0  0  0  0
  -21.2850   -4.2280   25.9820 F   0  0  0  0  0  0  0  0  0  0  0  0
  -23.1510  -13.8360   20.9680 C   0  0  0  0  0  0  0  0  0  0  0  0
  -22.4200  -13.2000   21.8730 N   0  0  0  0  0  0  0  0  0  0  0  0
  -22.7290  -14.8390   20.3920 O   0  0  0  0  0  0  0  0  0  0  0  0
  -22.7820  -12.3910   22.3550 H   0  0  0  0  0  0  0  0  0  0  0  0
  -21.4820  -13.5160   22.0800 H   0  0  0  0  0  0  0  0  0  0  0  0
  -25.8020  -15.4210   20.1250 N   0  0  0  0  0  0  0  0  0  0  0  0
  -25.0160  -16.0660   20.1430 H   0  0  0  0  0  0  0  0  0  0  0  0
  -26.6380  -15.8350   19.7330 H   0  0  0  0  0  0  0  0  0  0  0  0
  -27.1990  -20.2880   20.5860 N   0  0  0  0  0  0  0  0  0  0  0  0
  -27.2910  -21.2450   20.9160 H   0  0  0  0  0  0  0  0  0  0  0  0
  -26.2990  -19.9020   20.8640 H   0  0  0  0  0  0  0  0  0  0  0  0
  -29.6790  -22.4760   19.5920 C   0  0  0  0  0  2  0  0  0  0  0  0
  -28.6890  -23.7760   19.8240 C   0  0  0  0  0  2  0  0  0  0  0  0
  -28.9920  -25.4310   21.8230 C   0  0  0  0  0  1  0  0  0  0  0  0
  -29.1390  -25.2630   20.3070 C   0  0  0  0  0  3  0  0  0  0  0  0
  -28.7490  -26.5790   19.6760 O   0  0  0  0  0  0  0  0  0  0  0  0
  -24.6040  -31.5860   23.0460 C   0  0  0  0  0  0  0  0  0  0  0  0
  -27.5400  -27.3010   19.8270 C   0  0  0  0  0  0  0  0  0  0  0  0
  -23.5190  -30.2340   21.2820 C   0  0  0  0  0  3  0  0  0  0  0  0
  -25.0940  -28.8220   19.8330 C   0  0  0  0  0  0  0  0  0  0  0  0
  -26.0460  -30.6650   21.2110 C   0  0  0  0  0  2  0  0  0  0  0  0
  -26.2190  -29.3250   20.4940 C   0  0  0  0  0  0  0  0  0  0  0  0
  -27.4420  -28.5780   20.4790 C   0  0  0  0  0  3  0  0  0  0  0  0
  -26.3840  -26.8460   19.1590 C   0  0  0  0  0  3  0  0  0  0  0  0
  -25.1810  -27.5900   19.1580 C   0  0  0  0  0  3  0  0  0  0  0  0
  -23.8170  -29.6460   19.8750 C   0  0  0  0  0  2  0  0  0  0  0  0
  -24.7380  -30.8460   21.9040 N   0  0  0  0  0  0  0  0  0  0  0  0
  -23.4920  -31.7830   23.5570 O   0  0  0  0  0  0  0  0  0  0  0  0
  -22.8670  -29.1400   22.1610 C   0  0  0  0  0  0  0  0  0  0  0  0
  -21.5420  -28.9720   22.0410 N   0  0  0  0  0  0  0  0  0  0  0  0
  -23.5580  -28.4430   22.9070 O   0  0  0  0  0  0  0  0  0  0  0  0
  -21.0380  -29.5860   21.4180 H   0  0  0  0  0  0  0  0  0  0  0  0
  -18.1660  -27.7800   22.5700 C   0  0  0  0  0  0  0  0  0  0  0  0
  -20.7380  -27.9630   22.7360 C   0  0  0  0  0  3  0  0  0  0  0  0
  -20.7830  -26.6090   21.9900 C   0  0  0  0  0  2  0  0  0  0  0  0
  -19.6260  -26.4290   21.0020 C   0  0  0  0  0  2  0  0  0  0  0  0
  -18.2790  -26.5190   21.7290 C   0  0  0  0  0  2  0  0  0  0  0  0
  -19.3210  -28.4650   23.0280 C   0  0  0  0  0  0  0  0  0  0  0  0
  -19.1650  -29.6460   23.7820 C   0  0  0  0  0  3  0  0  0  0  0  0
  -17.8830  -30.1500   24.0770 C   0  0  0  0  0  3  0  0  0  0  0  0
  -16.7430  -29.4610   23.6350 C   0  0  0  0  0  3  0  0  0  0  0  0
  -16.8840  -28.2780   22.8890 C   0  0  0  0  0  3  0  0  0  0  0  0
  -25.8350  -32.2360   23.7500 C   0  0  0  0  0  3  0  0  0  0  0  0
  -26.2940  -31.4650   25.0490 C   0  0  1  0  0  0  0  0  0  0  0  0
  -25.1480  -31.2010   26.0530 C   0  0  0  0  0  1  0  0  0  0  0  0
  -26.9250  -30.1020   24.6840 C   0  0  0  0  0  1  0  0  0  0  0  0
  -27.3870  -32.2760   25.7850 C   0  0  0  0  0  1  0  0  0  0  0  0
  -25.4840  -33.6280   24.0730 N   0  0  0  0  0  0  0  0  0  0  0  0
  -25.8370  -34.6960   23.3450 C   0  0  0  0  0  0  0  0  0  0  0  0
  -26.5620  -34.6130   22.3480 O   0  0  0  0  0  0  0  0  0  0  0  0
  -24.8530  -33.7710   24.8490 H   0  0  0  0  0  0  0  0  0  0  0  0
  -24.1150  -36.4780   22.9020 C   0  0  0  0  0  1  0  0  0  0  0  0
  -25.3040  -36.0730   23.7910 C   0  0  0  0  0  3  0  0  0  0  0  0
  -27.3550  -36.9780   24.7920 C   0  0  0  0  0  1  0  0  0  0  0  0
  -26.3280  -37.1420   23.7660 N   0  0  0  0  0  0  0  0  0  0  0  0
  -25.8990  -38.0540   23.8950 H   0  0  0  0  0  0  0  0  0  0  0  0
  3  2  1  1
  3  1  1  0
  4 16  1  0
  5 10  1  0
  6  7  1  0
  6  5  1  0
  8  7  1  0
  8 22  1  0
  8  9  1  0
 10  4  1  0
 10  9  1  0
 11  4  2  0
 12 15  1  0
 12  3  1  0
 13 12  2  0
 13 47  1  0
 14 15  2  0
 14 16  1  0
 16 18  1  0
 17 13  1  0
 17 14  1  0
 19 20  2  0
 20 39  1  0
 21 20  1  0
 21 24  1  0
 22 19  1  0
 22 23  1  0
 23 21  2  0
 24 25  1  0
 25 26  2  0
 27 30  1  0
 27 26  1  0
 28 27  2  0
 29 28  1  0
 29 24  2  0
 30 31  1  0
 31 32  1  0
 32 33  2  0
 34 33  1  0
 34 38  1  0
 35 34  2  0
 36 31  2  0
 36 35  1  0
 37 36  1  0
 39 40  1  0
 40 43  1  0
 40 42  1  0
 41 39  2  0
 44 45  1  0
 44 19  1  0
 46 44  1  0
 47 49  1  0
 47 48  1  0
 50 51  1  0
 50  3  1  0
 51 53  1  0
 53 52  1  0
 54 56  1  0
 54 53  1  0
 55 66  2  0
 56 61  1  0
 57 65  1  0
 57 67  1  0
 58 64  1  0
 58 60  1  0
 59 65  1  0
 60 59  1  0
 61 60  2  0
 62 56  2  0
 63 62  1  0
 63 58  2  0
 64 57  1  0
 65 55  1  0
 67 69  2  0
 68 67  1  0
 70 68  1  0
 71 80  2  0
 71 76  1  0
 72 68  1  0
 72 76  1  0
 73 72  1  0
 74 75  1  0
 74 73  1  0
 75 71  1  0
 76 77  2  0
 77 78  1  0
 79 78  2  0
 80 79  1  0
 81 55  1  0
 81 86  1  0
 81 82  1  0
 82 85  1  1
 82 83  1  0
 84 82  1  0
 86 89  1  0
 87 91  1  0
 87 86  1  0
 88 87  2  0
 91 90  1  0
 93 91  1  0
 93 94  1  0
 93 92  1  0
M  ISO  4   4 100  16 100  53 101  54 101
M  END
>  <TORSDO>  (81) 
F 20

>  <SCORE>  (81) 
-13.086

>  <name>  (81) 
80

>  <ligand_id>  (81) 
80

>  <original_smiles>  (81) 
[H]c1c([H])c([H])c2c(c1[H])C([H])([H])C([H])([H])C([H])([H])C2([H])N([H])C(=O)C1([H])N(C(=O)C([H])(N([H])C(=O)C([H])(N([H])C([H])([H])[H])C([H])([H])[H])C(C([H])([H])[H])(C([H])([H])[H])C([H])([H])[H])C([H])([H])c2c([H])c(OC([H])(C([H])([H])[H])C([H])([H])C([H])([H])C(c3nc(N([H])C(=O)N4C([H])([H])C([H])([H])C([H])([H])C([H])(n5nc(-c6c([H])c([H])c(Oc7c([H])c([H])c(F)c([H])c7F)c([H])c6[H])c(C(=O)N([H])[H])c5N([H])[H])C4([H])[H])sc3N([H])[H])(C([H])([H])[H])C([H])([H])[H])c([H])c([H])c2C1([H])[H]

>  <smiles>  (81) 
[H]c1c([H])c([H])c2c(c1[H])C([H])([H])C([H])([H])C([H])([H])C2([H])N([H])C(=O)C1([H])N(C(=O)C([H])(N([H])C(=O)C([H])(N([H])C([H])([H])[H])C([H])([H])[H])C(C([H])([H])[H])(C([H])([H])[H])C([H])([H])[H])C([H])([H])c2c([H])c(OC([H])(C([H])([H])[H])C([H])([H])C([H])([H])C(c3nc(N([H])C(=O)N4C([H])([H])C([H])([H])C([H])([H])C([H])(n5nc(-c6c([H])c([H])c(Oc7c([H])c([H])c(F)c([H])c7F)c([H])c6[H])c(C(=O)N([H])[H])c5N([H])[H])C4([H])[H])sc3N([H])[H])(C([H])([H])[H])C([H])([H])[H])c([H])c([H])c2C1([H])[H]

$$$$
81:0:0
     RDKit          3D

 95103  0  0  1  0  0  0  0  0999 V2000
  -29.2150  -20.2850   20.1160 C   0  0  0  0  0  2  0  0  0  0  0  0
  -30.5570  -15.1110   20.1230 C   0  0  0  0  0  0  0  0  0  0  0  0
  -30.3590  -12.7680   19.1620 C   0  0  0  0  0  2  0  0  0  0  0  0
  -29.3810  -12.6800   17.9700 C   0  0  0  0  0  2  0  0  0  0  0  0
  -27.9510  -12.4340   18.4790 C   0  0  0  0  0  2  0  0  0  0  0  0
  -27.5690  -13.3690   19.6560 C   0  0  0  0  0  3  0  0  0  0  0  0
  -28.6730  -13.4480   20.7320 C   0  0  0  0  0  2  0  0  0  0  0  0
  -29.8960  -13.8820   20.0460 N   0  0  0  0  0  0  0  0  0  0  0  0
  -31.7690  -15.0740   19.8750 O   0  0  0  0  0  0  0  0  0  0  0  0
  -32.3940  -18.7130   21.4410 C   0  0  0  0  0  3  0  0  0  0  0  0
  -31.4390  -19.6720   21.3160 C   0  0  0  0  0  0  0  0  0  0  0  0
  -30.5680  -17.7590   20.5610 C   0  0  0  0  0  3  0  0  0  0  0  0
  -30.3030  -19.1930   20.6550 N   0  0  0  0  0  0  0  0  0  0  0  0
  -31.8430  -17.5910   20.9370 N   0  0  0  0  0  0  0  0  0  0  0  0
  -29.9140  -16.3980   20.2350 N   0  0  0  0  0  0  0  0  0  0  0  0
  -32.3400  -16.7120   20.8280 H   0  0  0  0  0  0  0  0  0  0  0  0
  -28.9050  -16.4000   20.2280 H   0  0  0  0  0  0  0  0  0  0  0  0
  -25.2260  -13.9040   20.5210 C   0  0  0  0  0  0  0  0  0  0  0  0
  -24.1840  -13.1120   20.9140 C   0  0  0  0  0  0  0  0  0  0  0  0
  -24.6570  -11.7660   20.8340 C   0  0  0  0  0  0  0  0  0  0  0  0
  -26.2640  -13.0420   20.2160 N   0  0  0  0  0  0  0  0  0  0  0  0
  -25.9360  -11.7490   20.4730 N   0  0  0  0  0  0  0  0  0  0  0  0
  -23.9470  -10.4950   21.0210 C   0  0  0  0  0  0  0  0  0  0  0  0
  -24.4000   -9.5230   21.9400 C   0  0  0  0  0  3  0  0  0  0  0  0
  -23.6870   -8.3160   22.1160 C   0  0  0  0  0  3  0  0  0  0  0  0
  -22.5080   -8.0740   21.3720 C   0  0  0  0  0  0  0  0  0  0  0  0
  -22.0750   -9.0340   20.4410 C   0  0  0  0  0  3  0  0  0  0  0  0
  -22.7890  -10.2320   20.2640 C   0  0  0  0  0  3  0  0  0  0  0  0
  -21.7640   -6.9210   21.4600 O   0  0  0  0  0  0  0  0  0  0  0  0
  -21.7130   -6.1850   22.6160 C   0  0  0  0  0  0  0  0  0  0  0  0
  -21.2320   -6.7300   23.8270 C   0  0  0  0  0  3  0  0  0  0  0  0
  -21.1320   -5.9170   24.9740 C   0  0  0  0  0  3  0  0  0  0  0  0
  -21.5010   -4.5590   24.9110 C   0  0  0  0  0  0  0  0  0  0  0  0
  -21.9720   -4.0140   23.7030 C   0  0  0  0  0  3  0  0  0  0  0  0
  -22.0750   -4.8240   22.5590 C   0  0  0  0  0  0  0  0  0  0  0  0
  -22.5120   -4.2880   21.3940 F   0  0  0  0  0  0  0  0  0  0  0  0
  -21.3960   -3.7760   26.0090 F   0  0  0  0  0  0  0  0  0  0  0  0
  -22.7950  -13.5710   21.2480 C   0  0  0  0  0  0  0  0  0  0  0  0
  -22.1000  -12.8450   22.1150 N   0  0  0  0  0  0  0  0  0  0  0  0
  -22.3380  -14.6110   20.7740 O   0  0  0  0  0  0  0  0  0  0  0  0
  -22.4850  -12.0030   22.5170 H   0  0  0  0  0  0  0  0  0  0  0  0
  -21.1690  -13.1340   22.3800 H   0  0  0  0  0  0  0  0  0  0  0  0
  -25.3710  -15.2800   20.3680 N   0  0  0  0  0  0  0  0  0  0  0  0
  -24.5940  -15.9180   20.5090 H   0  0  0  0  0  0  0  0  0  0  0  0
  -26.1950  -15.7350   20.0020 H   0  0  0  0  0  0  0  0  0  0  0  0
  -31.6620  -20.9620   21.7980 N   0  0  0  0  0  0  0  0  0  0  0  0
  -32.3500  -21.0900   22.5320 H   0  0  0  0  0  0  0  0  0  0  0  0
  -30.8570  -21.5660   21.9100 H   0  0  0  0  0  0  0  0  0  0  0  0
  -28.9980  -21.9180   20.6690 C   0  0  0  0  0  2  0  0  0  0  0  0
  -29.7090  -23.7410   18.8990 C   0  0  0  0  0  1  0  0  0  0  0  0
  -28.5750  -23.3510   19.8580 C   0  0  1  0  0  0  0  0  0  0  0  0
  -27.4630  -22.9830   19.0620 O   0  0  0  0  0  0  0  0  0  0  0  0
  -27.1950  -23.7480   18.5640 H   0  0  0  0  0  0  0  0  0  0  0  0
  -28.0940  -24.7790   20.6510 C   0  0  0  0  0  2  0  0  0  0  0  0
  -28.2800  -26.2730   20.2480 O   0  0  0  0  0  0  0  0  0  0  0  0
  -24.6030  -31.9560   23.2420 C   0  0  0  0  0  0  0  0  0  0  0  0
  -27.2020  -27.2290   20.2550 C   0  0  0  0  0  0  0  0  0  0  0  0
  -23.4120  -30.5370   21.6140 C   0  0  0  0  0  3  0  0  0  0  0  0
  -24.8660  -28.9550   20.2080 C   0  0  0  0  0  0  0  0  0  0  0  0
  -25.9630  -30.8180   21.4450 C   0  0  0  0  0  2  0  0  0  0  0  0
  -26.0460  -29.4180   20.8110 C   0  0  0  0  0  0  0  0  0  0  0  0
  -27.2170  -28.5700   20.8110 C   0  0  0  0  0  3  0  0  0  0  0  0
  -25.9960  -26.8560   19.6310 C   0  0  0  0  0  3  0  0  0  0  0  0
  -24.8530  -27.6890   19.6020 C   0  0  0  0  0  3  0  0  0  0  0  0
  -23.6380  -29.8500   20.2410 C   0  0  0  0  0  2  0  0  0  0  0  0
  -24.6780  -31.1280   22.1560 N   0  0  0  0  0  0  0  0  0  0  0  0
  -23.5150  -32.2390   23.7670 O   0  0  0  0  0  0  0  0  0  0  0  0
  -22.7390  -29.5340   22.5860 C   0  0  0  0  0  0  0  0  0  0  0  0
  -21.4120  -29.3510   22.4550 N   0  0  0  0  0  0  0  0  0  0  0  0
  -23.4130  -28.9230   23.4200 O   0  0  0  0  0  0  0  0  0  0  0  0
  -20.9260  -29.9030   21.7640 H   0  0  0  0  0  0  0  0  0  0  0  0
  -18.0360  -28.1340   22.9610 C   0  0  0  0  0  0  0  0  0  0  0  0
  -20.5930  -28.4160   23.2320 C   0  0  0  0  0  3  0  0  0  0  0  0
  -20.7040  -26.9770   22.6710 C   0  0  0  0  0  2  0  0  0  0  0  0
  -19.6080  -26.6380   21.6570 C   0  0  0  0  0  2  0  0  0  0  0  0
  -18.2240  -26.7800   22.2960 C   0  0  0  0  0  2  0  0  0  0  0  0
  -19.1490  -28.9080   23.3850 C   0  0  0  0  0  0  0  0  0  0  0  0
  -18.9190  -30.1730   23.9670 C   0  0  0  0  0  3  0  0  0  0  0  0
  -17.6110  -30.6650   24.1300 C   0  0  0  0  0  3  0  0  0  0  0  0
  -16.5120  -29.8880   23.7240 C   0  0  0  0  0  3  0  0  0  0  0  0
  -16.7250  -28.6250   23.1450 C   0  0  0  0  0  3  0  0  0  0  0  0
  -25.8770  -32.6070   23.8620 C   0  0  0  0  0  3  0  0  0  0  0  0
  -25.5550  -34.0070   24.1840 N   0  0  0  0  0  0  0  0  0  0  0  0
  -25.8840  -35.0610   23.4250 C   0  0  0  0  0  0  0  0  0  0  0  0
  -26.5590  -34.9560   22.3950 O   0  0  0  0  0  0  0  0  0  0  0  0
  -24.9620  -34.1610   24.9850 H   0  0  0  0  0  0  0  0  0  0  0  0
  -24.1600  -36.8570   23.0520 C   0  0  0  0  0  1  0  0  0  0  0  0
  -25.3900  -36.4500   23.8770 C   0  0  0  0  0  3  0  0  0  0  0  0
  -27.5120  -37.3390   24.7390 C   0  0  0  0  0  1  0  0  0  0  0  0
  -26.4240  -37.5040   23.7780 N   0  0  0  0  0  0  0  0  0  0  0  0
  -26.0140  -38.4210   23.9230 H   0  0  0  0  0  0  0  0  0  0  0  0
  -26.3900  -31.8560   25.1530 C   0  0  1  0  0  0  0  0  0  0  0  0
  -25.2910  -31.6170   26.2170 C   0  0  0  0  0  1  0  0  0  0  0  0
  -26.9910  -30.4780   24.7810 C   0  0  0  0  0  1  0  0  0  0  0  0
  -27.5300  -32.6670   25.8130 C   0  0  0  0  0  1  0  0  0  0  0  0
  1 13  1  0
  1 49  1  0
  2 15  1  0
  3  8  1  0
  4  5  1  0
  4  3  1  0
  6  5  1  0
  6 21  1  0
  6  7  1  0
  8  2  1  0
  8  7  1  0
  9  2  2  0
 11 10  2  0
 11 46  1  0
 12 15  1  0
 12 13  1  0
 12 14  1  0
 13 11  1  0
 14 10  1  0
 16 14  1  0
 17 15  1  0
 18 19  2  0
 19 38  1  0
 20 19  1  0
 20 23  1  0
 21 22  1  0
 21 18  1  0
 22 20  2  0
 23 24  1  0
 24 25  2  0
 26 29  1  0
 26 25  1  0
 27 26  2  0
 28 27  1  0
 28 23  2  0
 29 30  1  0
 30 31  1  0
 31 32  2  0
 33 32  1  0
 33 37  1  0
 34 33  2  0
 35 30  2  0
 35 34  1  0
 36 35  1  0
 38 39  1  0
 39 42  1  0
 39 41  1  0
 40 38  2  0
 43 44  1  0
 43 18  1  0
 45 43  1  0
 46 48  1  0
 46 47  1  0
 51 50  1  6
 51 54  1  0
 51 49  1  0
 52 51  1  0
 53 52  1  0
 55 57  1  0
 55 54  1  0
 56 67  2  0
 57 62  1  0
 58 66  1  0
 58 68  1  0
 59 65  1  0
 59 61  1  0
 60 66  1  0
 61 60  1  0
 62 61  2  0
 63 57  2  0
 64 63  1  0
 64 59  2  0
 65 58  1  0
 66 56  1  0
 68 70  2  0
 69 68  1  0
 71 69  1  0
 72 81  2  0
 72 77  1  0
 73 69  1  0
 73 77  1  0
 74 73  1  0
 75 76  1  0
 75 74  1  0
 76 72  1  0
 77 78  2  0
 78 79  1  0
 80 79  2  0
 81 80  1  0
 82 56  1  0
 82 83  1  0
 82 92  1  0
 83 86  1  0
 84 88  1  0
 84 83  1  0
 85 84  2  0
 88 87  1  0
 90 88  1  0
 90 91  1  0
 90 89  1  0
 92 95  1  1
 92 93  1  0
 94 92  1  0
M  ISO  4   2 100  15 100  54 101  55 101
M  END
>  <TORSDO>  (82) 
F 21

>  <SCORE>  (82) 
-15.706

>  <name>  (82) 
81

>  <ligand_id>  (82) 
81

>  <original_smiles>  (82) 
[H]OC(C([H])([H])[H])(C([H])([H])Oc1c([H])c([H])c2c(c1[H])C([H])([H])N(C(=O)C([H])(N([H])C(=O)C([H])(N([H])C([H])([H])[H])C([H])([H])[H])C(C([H])([H])[H])(C([H])([H])[H])C([H])([H])[H])C([H])(C(=O)N([H])C1([H])c3c([H])c([H])c([H])c([H])c3C([H])([H])C([H])([H])C1([H])[H])C2([H])[H])C([H])([H])C([H])([H])n1c(N([H])[H])c([H])[n+]([H])c1N([H])C(=O)N1C([H])([H])C([H])([H])C([H])([H])C([H])(n2nc(-c3c([H])c([H])c(Oc4c([H])c([H])c(F)c([H])c4F)c([H])c3[H])c(C(=O)N([H])[H])c2N([H])[H])C1([H])[H]

>  <smiles>  (82) 
[H]OC(C([H])([H])[H])(C([H])([H])Oc1c([H])c([H])c2c(c1[H])C([H])([H])N(C(=O)C([H])(N([H])C(=O)C([H])(N([H])C([H])([H])[H])C([H])([H])[H])C(C([H])([H])[H])(C([H])([H])[H])C([H])([H])[H])C([H])(C(=O)N([H])C1([H])c3c([H])c([H])c([H])c([H])c3C([H])([H])C([H])([H])C1([H])[H])C2([H])[H])C([H])([H])C([H])([H])n1c(N([H])[H])c([H])[n+]([H])c1N([H])C(=O)N1C([H])([H])C([H])([H])C([H])([H])C([H])(n2nc(-c3c([H])c([H])c(Oc4c([H])c([H])c(F)c([H])c4F)c([H])c3[H])c(C(=O)N([H])[H])c2N([H])[H])C1([H])[H]

$$$$
82:0:0
     RDKit          3D

100109  0  0  1  0  0  0  0  0999 V2000
  -30.6300  -18.6120   19.8110 C   0  0  0  0  0  3  0  0  0  0  0  0
  -30.8640  -17.2210   19.9400 C   0  0  0  0  0  3  0  0  0  0  0  0
  -28.3680  -18.3060   20.6550 C   0  0  0  0  0  3  0  0  0  0  0  0
  -29.3780  -19.1700   20.1770 C   0  0  0  0  0  0  0  0  0  0  0  0
  -29.8440  -16.3670   20.4240 C   0  0  0  0  0  0  0  0  0  0  0  0
  -28.5870  -16.9100   20.7570 C   0  0  0  0  0  0  0  0  0  0  0  0
  -30.7310  -14.0310   20.0030 C   0  0  0  0  0  0  0  0  0  0  0  0
  -30.6330  -11.8140   18.9320 C   0  0  0  0  0  2  0  0  0  0  0  0
  -29.7020  -11.9270   17.7060 C   0  0  0  0  0  2  0  0  0  0  0  0
  -28.2260  -11.7160   18.1040 C   0  0  0  0  0  2  0  0  0  0  0  0
  -27.8070  -12.5510   19.3440 C   0  0  0  0  0  3  0  0  0  0  0  0
  -28.8560  -12.4020   20.4710 C   0  0  0  0  0  2  0  0  0  0  0  0
  -30.1740  -12.7890   19.9280 N   0  0  0  0  0  0  0  0  0  0  0  0
  -31.8350  -14.3060   19.5250 O   0  0  0  0  0  0  0  0  0  0  0  0
  -29.9380  -14.9470   20.5750 N   0  0  0  0  0  0  0  0  0  0  0  0
  -29.1780  -14.5500   21.1050 H   0  0  0  0  0  0  0  0  0  0  0  0
  -25.3210  -13.0040   19.8570 C   0  0  0  0  0  0  0  0  0  0  0  0
  -24.3070  -12.1840   20.2740 C   0  0  0  0  0  0  0  0  0  0  0  0
  -24.8900  -10.8880   20.4300 C   0  0  0  0  0  0  0  0  0  0  0  0
  -26.4560  -12.2080   19.7930 N   0  0  0  0  0  0  0  0  0  0  0  0
  -26.1950  -10.9360   20.1870 N   0  0  0  0  0  0  0  0  0  0  0  0
  -24.2680   -9.5930   20.7410 C   0  0  0  0  0  0  0  0  0  0  0  0
  -24.6720   -8.8290   21.8580 C   0  0  0  0  0  3  0  0  0  0  0  0
  -24.0460   -7.5990   22.1480 C   0  0  0  0  0  3  0  0  0  0  0  0
  -23.0060   -7.1180   21.3180 C   0  0  0  0  0  0  0  0  0  0  0  0
  -22.6200   -7.8710   20.1940 C   0  0  0  0  0  3  0  0  0  0  0  0
  -23.2500   -9.0960   19.9040 C   0  0  0  0  0  3  0  0  0  0  0  0
  -22.3640   -5.9180   21.5060 O   0  0  0  0  0  0  0  0  0  0  0  0
  -22.1280   -5.4130   22.7600 C   0  0  0  0  0  0  0  0  0  0  0  0
  -21.3990   -6.1390   23.7280 C   0  0  0  0  0  3  0  0  0  0  0  0
  -21.1180   -5.5570   24.9800 C   0  0  0  0  0  3  0  0  0  0  0  0
  -21.5590   -4.2500   25.2640 C   0  0  0  0  0  0  0  0  0  0  0  0
  -22.2830   -3.5260   24.3020 C   0  0  0  0  0  3  0  0  0  0  0  0
  -22.5640   -4.1050   23.0520 C   0  0  0  0  0  0  0  0  0  0  0  0
  -23.2420   -3.3930   22.1200 F   0  0  0  0  0  0  0  0  0  0  0  0
  -21.2840   -3.6900   26.4660 F   0  0  0  0  0  0  0  0  0  0  0  0
  -22.8580  -12.5570   20.4310 C   0  0  0  0  0  0  0  0  0  0  0  0
  -22.1560  -11.9280   21.3650 N   0  0  0  0  0  0  0  0  0  0  0  0
  -22.3530  -13.4470   19.7510 O   0  0  0  0  0  0  0  0  0  0  0  0
  -22.5720  -11.2140   21.9430 H   0  0  0  0  0  0  0  0  0  0  0  0
  -21.1850  -12.1720   21.5060 H   0  0  0  0  0  0  0  0  0  0  0  0
  -25.3740  -14.3490   19.5120 N   0  0  0  0  0  4  0  0  0  0  0  0
  -24.5520  -14.9440   19.5080 H   0  0  0  0  0  0  0  0  0  0  0  0
  -26.2240  -14.8400   19.2690 H   0  0  0  0  0  0  0  0  0  0  0  0
  -29.4340  -21.5260   19.2750 C   0  0  0  0  0  0  0  0  0  0  0  0
  -29.1170  -20.5780   20.1830 N   0  0  0  0  0  0  0  0  0  0  0  0
  -29.7000  -21.2630   18.0990 O   0  0  0  0  0  0  0  0  0  0  0  0
  -28.7070  -20.9350   21.0370 H   0  0  0  0  0  0  0  0  0  0  0  0
  -30.7320  -23.2150   20.6430 C   0  0  0  0  0  1  0  0  0  0  0  0
  -29.4330  -22.9840   19.8160 C   0  0  0  0  0  3  0  0  0  0  0  0
  -29.2230  -24.0830   18.7320 C   0  0  0  0  0  0  0  0  0  0  0  0
  -30.1330  -24.4050   17.9560 O   0  0  0  0  0  0  0  0  0  0  0  0
  -27.8760  -24.8270   18.6630 C   0  0  0  0  0  2  0  0  0  0  0  0
  -28.0450  -26.2170   19.0330 O   0  0  0  0  0  0  0  0  0  0  0  0
  -24.7530  -31.2650   22.8900 C   0  0  0  0  0  0  0  0  0  0  0  0
  -26.9140  -27.0030   19.1920 C   0  0  0  0  0  0  0  0  0  0  0  0
  -23.3660  -30.1190   21.1940 C   0  0  0  0  0  3  0  0  0  0  0  0
  -24.6310  -28.6590   19.5260 C   0  0  0  0  0  0  0  0  0  0  0  0
  -25.8980  -30.3370   20.8760 C   0  0  0  0  0  2  0  0  0  0  0  0
  -25.8550  -29.0390   20.0900 C   0  0  0  0  0  0  0  0  0  0  0  0
  -26.9970  -28.2170   19.9250 C   0  0  0  0  0  3  0  0  0  0  0  0
  -25.6650  -26.6460   18.6340 C   0  0  0  0  0  3  0  0  0  0  0  0
  -24.5320  -27.4620   18.7990 C   0  0  0  0  0  3  0  0  0  0  0  0
  -23.4510  -29.5810   19.7420 C   0  0  0  0  0  2  0  0  0  0  0  0
  -24.6950  -30.5820   21.7100 N   0  0  0  0  0  0  0  0  0  0  0  0
  -23.7250  -31.5440   23.5210 O   0  0  0  0  0  0  0  0  0  0  0  0
  -22.7030  -29.0420   22.0830 C   0  0  0  0  0  0  0  0  0  0  0  0
  -21.3650  -28.9470   22.0120 N   0  0  0  0  0  0  0  0  0  0  0  0
  -23.3870  -28.3010   22.7930 O   0  0  0  0  0  0  0  0  0  0  0  0
  -20.8750  -29.5930   21.4090 H   0  0  0  0  0  0  0  0  0  0  0  0
  -17.9560  -27.9030   22.5800 C   0  0  0  0  0  0  0  0  0  0  0  0
  -20.5350  -27.9850   22.7340 C   0  0  0  0  0  3  0  0  0  0  0  0
  -20.5210  -26.6180   22.0130 C   0  0  0  0  0  2  0  0  0  0  0  0
  -19.3520  -26.4640   21.0350 C   0  0  0  0  0  2  0  0  0  0  0  0
  -18.0150  -26.6220   21.7650 C   0  0  0  0  0  2  0  0  0  0  0  0
  -19.1380  -28.5520   23.0210 C   0  0  0  0  0  0  0  0  0  0  0  0
  -19.0280  -29.7600   23.7450 C   0  0  0  0  0  3  0  0  0  0  0  0
  -17.7660  -30.3130   24.0320 C   0  0  0  0  0  3  0  0  0  0  0  0
  -16.5980  -29.6580   23.6050 C   0  0  0  0  0  3  0  0  0  0  0  0
  -16.6940  -28.4530   22.8860 C   0  0  0  0  0  3  0  0  0  0  0  0
  -26.1110  -31.7490   23.4870 C   0  0  0  0  0  3  0  0  0  0  0  0
  -25.8870  -33.0780   24.0730 N   0  0  0  0  0  0  0  0  0  0  0  0
  -26.2340  -34.2340   23.4910 C   0  0  0  0  0  0  0  0  0  0  0  0
  -26.8500  -34.2880   22.4230 O   0  0  0  0  0  0  0  0  0  0  0  0
  -25.3390  -33.1110   24.9200 H   0  0  0  0  0  0  0  0  0  0  0  0
  -24.5900  -36.1350   23.5410 C   0  0  0  0  0  1  0  0  0  0  0  0
  -25.8360  -35.5360   24.2100 C   0  0  0  0  0  3  0  0  0  0  0  0
  -28.0410  -36.1650   25.0880 C   0  0  0  0  0  1  0  0  0  0  0  0
  -26.9160  -36.5460   24.2380 N   0  0  0  0  0  0  0  0  0  0  0  0
  -26.5620  -37.4400   24.5670 H   0  0  0  0  0  0  0  0  0  0  0  0
  -26.7070  -30.7590   24.5610 C   0  0  1  0  0  0  0  0  0  0  0  0
  -25.7020  -30.3660   25.6690 C   0  0  0  0  0  1  0  0  0  0  0  0
  -27.2000  -29.4560   23.8890 C   0  0  0  0  0  1  0  0  0  0  0  0
  -27.9380  -31.4020   25.2410 C   0  0  0  0  0  1  0  0  0  0  0  0
  -27.6120  -15.9970   21.0950 O   0  0  0  0  0  0  0  0  0  0  0  0
  -26.5180  -16.3970   21.9040 C   0  0  0  0  0  2  0  0  0  0  0  0
  -24.4510  -15.4950   22.9860 C   0  0  0  0  0  1  0  0  0  0  0  0
  -26.1580  -13.8870   22.0930 C   0  0  0  0  0  1  0  0  0  0  0  0
  -24.7610  -15.2440   20.5120 C   0  0  0  0  0  2  0  0  0  0  0  0
  -25.4790  -15.2540   21.8730 C   0  0  2  0  0  0  0  0  0  0  0  0
  1  2  2  0
  1  4  1  0
  2  5  1  0
  3  6  1  0
  4 46  1  0
  4  3  2  0
  5 15  1  0
  5  6  2  0
  6 95  1  0
  7 15  1  0
  8 13  1  0
  9 10  1  0
  9  8  1  0
 11 10  1  0
 11 20  1  0
 11 12  1  0
 13  7  1  0
 13 12  1  0
 14  7  2  0
 15 16  1  0
 17 18  2  0
 18 19  1  0
 18 37  1  0
 19 22  1  0
 20 17  1  0
 20 21  1  0
 21 19  2  0
 22 23  1  0
 23 24  2  0
 25 28  1  0
 25 24  1  0
 26 25  2  0
 27 26  1  0
 27 22  2  0
 28 29  1  0
 29 34  2  0
 29 30  1  0
 30 31  2  0
 31 32  1  0
 32 36  1  0
 33 32  2  0
 34 33  1  0
 35 34  1  0
 37 38  1  0
 38 41  1  0
 38 40  1  0
 39 37  2  0
 42 17  1  0
 42 99  1  0
 43 42  1  0
 44 42  1  0
 45 50  1  0
 45 46  1  0
 46 48  1  0
 47 45  2  0
 50 49  1  0
 51 50  1  0
 52 51  2  0
 53 51  1  0
 53 54  1  0
 54 56  1  0
 55 66  2  0
 56 61  1  0
 57 65  1  0
 57 67  1  0
 58 64  1  0
 58 60  1  0
 59 65  1  0
 60 59  1  0
 61 60  2  0
 62 63  1  0
 62 56  2  0
 63 58  2  0
 64 57  1  0
 65 55  1  0
 67 69  2  0
 68 67  1  0
 70 68  1  0
 71 80  2  0
 71 76  1  0
 72 68  1  0
 72 76  1  0
 73 72  1  0
 74 75  1  0
 74 73  1  0
 75 71  1  0
 76 77  2  0
 77 78  1  0
 79 78  2  0
 80 79  1  0
 81 55  1  0
 81 82  1  0
 81 91  1  0
 82 85  1  0
 83 82  1  0
 83 87  1  0
 84 83  2  0
 87 86  1  0
 87 89  1  0
 89 90  1  0
 89 88  1  0
 91 94  1  1
 91 92  1  0
 93 91  1  0
 95 96  1  0
 99100  1  0
100 96  1  0
100 98  1  1
100 97  1  0
M  ISO  4   7 100  15 100  53 101  54 101
M  END
>  <TORSDO>  (83) 
F 23

>  <SCORE>  (83) 
-1.087

>  <name>  (83) 
82

>  <ligand_id>  (83) 
82

>  <original_smiles>  (83) 
[H]c1c([H])c([H])c2c(c1[H])C([H])([H])C([H])([H])C([H])([H])C2([H])N([H])C(=O)C1([H])N(C(=O)C([H])(N([H])C(=O)C([H])(N([H])C([H])([H])[H])C([H])([H])[H])C(C([H])([H])[H])(C([H])([H])[H])C([H])([H])[H])C([H])([H])c2c([H])c(OC([H])([H])C(=O)C([H])(C(=O)N([H])c3c([H])c([H])c(N([H])C(=O)N4C([H])([H])C([H])([H])C([H])([H])C([H])(n5nc(-c6c([H])c([H])c(Oc7c([H])c([H])c(F)c([H])c7F)c([H])c6[H])c(C(=O)N([H])[H])c5N([H])[H])C4([H])[H])c(OC([H])([H])C(C([H])([H])[H])(C([H])([H])[H])C([H])([H])[H])c3[H])C([H])([H])[H])c([H])c([H])c2C1([H])[H]

>  <smiles>  (83) 
[H]c1c([H])c([H])c2c(c1[H])C([H])([H])C([H])([H])C([H])([H])C2([H])N([H])C(=O)C1([H])N(C(=O)C([H])(N([H])C(=O)C([H])(N([H])C([H])([H])[H])C([H])([H])[H])C(C([H])([H])[H])(C([H])([H])[H])C([H])([H])[H])C([H])([H])c2c([H])c(OC([H])([H])C(=O)C([H])(C(=O)N([H])c3c([H])c([H])c(N([H])C(=O)N4C([H])([H])C([H])([H])C([H])([H])C([H])(n5nc(-c6c([H])c([H])c(Oc7c([H])c([H])c(F)c([H])c7F)c([H])c6[H])c(C(=O)N([H])[H])c5N([H])[H])C4([H])[H])c(OC([H])([H])C(C([H])([H])[H])(C([H])([H])[H])C([H])([H])[H])c3[H])C([H])([H])[H])c([H])c([H])c2C1([H])[H]

$$$$
83:0:0
     RDKit          3D

 95103  0  0  1  0  0  0  0  0999 V2000
  -29.6590  -21.4210   18.9010 C   0  0  0  0  0  1  0  0  0  0  0  0
  -28.6840  -21.4650   20.0930 C   0  0  0  0  0  3  0  0  0  0  0  0
  -31.6840  -17.3400   21.0000 C   0  0  0  0  0  3  0  0  0  0  0  0
  -30.3130  -17.0230   20.7750 C   0  0  0  0  0  0  0  0  0  0  0  0
  -29.8450  -19.3420   20.9640 C   0  0  0  0  0  0  0  0  0  0  0  0
  -31.2230  -19.5890   21.1990 C   0  0  0  0  0  0  0  0  0  0  0  0
  -32.1380  -18.5980   21.2020 N   0  0  0  0  0  0  0  0  0  0  0  0
  -29.3990  -18.0570   20.7520 N   0  0  0  0  0  0  0  0  0  0  0  0
  -28.9080  -20.3990   21.1080 N   0  0  0  0  0  0  0  0  0  0  0  0
  -31.6450  -20.8470   21.4720 F   0  0  0  0  0  0  0  0  0  0  0  0
  -29.1940  -20.9370   21.9260 H   0  0  0  0  0  0  0  0  0  0  0  0
  -30.6380  -14.5470   20.2470 C   0  0  0  0  0  0  0  0  0  0  0  0
  -30.3190  -12.3580   19.1350 C   0  0  0  0  0  2  0  0  0  0  0  0
  -29.3520  -12.5490   17.9480 C   0  0  0  0  0  2  0  0  0  0  0  0
  -27.8890  -12.4060   18.4150 C   0  0  0  0  0  2  0  0  0  0  0  0
  -27.5810  -13.2450   19.6840 C   0  0  0  0  0  3  0  0  0  0  0  0
  -28.6670  -13.0520   20.7670 C   0  0  0  0  0  2  0  0  0  0  0  0
  -29.9660  -13.3620   20.1550 N   0  0  0  0  0  0  0  0  0  0  0  0
  -31.7830  -14.6620   19.7980 O   0  0  0  0  0  0  0  0  0  0  0  0
  -29.9150  -15.6320   20.6550 N   0  0  0  0  0  0  0  0  0  0  0  0
  -28.9470  -15.4420   20.8570 H   0  0  0  0  0  0  0  0  0  0  0  0
  -25.2090  -13.8530   20.4650 C   0  0  0  0  0  0  0  0  0  0  0  0
  -24.1490  -13.0830   20.8600 C   0  0  0  0  0  0  0  0  0  0  0  0
  -24.6040  -11.7290   20.8100 C   0  0  0  0  0  0  0  0  0  0  0  0
  -26.2430  -12.9680   20.2010 N   0  0  0  0  0  0  0  0  0  0  0  0
  -25.8850  -11.6860   20.4670 N   0  0  0  0  0  0  0  0  0  0  0  0
  -23.8760  -10.4690   21.0110 C   0  0  0  0  0  0  0  0  0  0  0  0
  -24.3240   -9.4980   21.9340 C   0  0  0  0  0  3  0  0  0  0  0  0
  -23.5970   -8.3030   22.1250 C   0  0  0  0  0  3  0  0  0  0  0  0
  -22.4100   -8.0700   21.3910 C   0  0  0  0  0  0  0  0  0  0  0  0
  -21.9800   -9.0300   20.4580 C   0  0  0  0  0  3  0  0  0  0  0  0
  -22.7080  -10.2170   20.2650 C   0  0  0  0  0  3  0  0  0  0  0  0
  -21.6530   -6.9270   21.4910 O   0  0  0  0  0  0  0  0  0  0  0  0
  -21.6210   -6.1840   22.6430 C   0  0  0  0  0  0  0  0  0  0  0  0
  -21.2040   -6.7340   23.8740 C   0  0  0  0  0  3  0  0  0  0  0  0
  -21.1200   -5.9180   25.0180 C   0  0  0  0  0  3  0  0  0  0  0  0
  -21.4410   -4.5490   24.9340 C   0  0  0  0  0  0  0  0  0  0  0  0
  -21.8520   -3.9980   23.7070 C   0  0  0  0  0  3  0  0  0  0  0  0
  -21.9380   -4.8120   22.5640 C   0  0  0  0  0  0  0  0  0  0  0  0
  -22.3130   -4.2710   21.3800 F   0  0  0  0  0  0  0  0  0  0  0  0
  -21.3540   -3.7620   26.0310 F   0  0  0  0  0  0  0  0  0  0  0  0
  -22.7610  -13.5660   21.1710 C   0  0  0  0  0  0  0  0  0  0  0  0
  -22.0550  -12.8700   22.0560 N   0  0  0  0  0  0  0  0  0  0  0  0
  -22.3130  -14.5940   20.6660 O   0  0  0  0  0  0  0  0  0  0  0  0
  -22.4310  -12.0390   22.4870 H   0  0  0  0  0  0  0  0  0  0  0  0
  -21.1250  -13.1740   22.3070 H   0  0  0  0  0  0  0  0  0  0  0  0
  -25.3730  -15.2230   20.2890 N   0  0  0  0  0  0  0  0  0  0  0  0
  -24.6050  -15.8740   20.4120 H   0  0  0  0  0  0  0  0  0  0  0  0
  -26.2060  -15.6640   19.9190 H   0  0  0  0  0  0  0  0  0  0  0  0
  -28.7000  -22.9030   20.7410 C   0  0  0  0  0  0  0  0  0  0  0  0
  -29.3190  -23.0970   21.7890 O   0  0  0  0  0  0  0  0  0  0  0  0
  -27.8970  -24.0810   20.1040 C   0  0  0  0  0  2  0  0  0  0  0  0
  -28.7830  -25.5160   18.1240 C   0  0  0  0  0  1  0  0  0  0  0  0
  -28.7020  -25.3590   19.6510 C   0  0  0  0  0  3  0  0  0  0  0  0
  -28.4620  -26.6500   20.2910 O   0  0  0  0  0  0  0  0  0  0  0  0
  -24.5930  -31.8800   23.2210 C   0  0  0  0  0  0  0  0  0  0  0  0
  -27.2790  -27.3780   20.2050 C   0  0  0  0  0  0  0  0  0  0  0  0
  -23.4100  -30.4660   21.5710 C   0  0  0  0  0  3  0  0  0  0  0  0
  -24.8830  -28.9170   20.1710 C   0  0  0  0  0  0  0  0  0  0  0  0
  -25.9400  -30.8180   21.4010 C   0  0  0  0  0  2  0  0  0  0  0  0
  -26.0350  -29.4390   20.7700 C   0  0  0  0  0  0  0  0  0  0  0  0
  -27.2300  -28.6760   20.7830 C   0  0  0  0  0  3  0  0  0  0  0  0
  -26.1040  -26.8790   19.6030 C   0  0  0  0  0  3  0  0  0  0  0  0
  -24.9160  -27.6400   19.5830 C   0  0  0  0  0  3  0  0  0  0  0  0
  -23.6380  -29.7760   20.1970 C   0  0  0  0  0  2  0  0  0  0  0  0
  -24.6660  -31.0730   22.1230 N   0  0  0  0  0  0  0  0  0  0  0  0
  -23.5050  -32.1520   23.7460 O   0  0  0  0  0  0  0  0  0  0  0  0
  -22.7470  -29.4520   22.5310 C   0  0  0  0  0  0  0  0  0  0  0  0
  -21.4240  -29.2690   22.3910 N   0  0  0  0  0  0  0  0  0  0  0  0
  -23.4220  -28.8320   23.3570 O   0  0  0  0  0  0  0  0  0  0  0  0
  -20.9410  -29.8210   21.6970 H   0  0  0  0  0  0  0  0  0  0  0  0
  -18.0420  -28.0870   22.8760 C   0  0  0  0  0  0  0  0  0  0  0  0
  -20.6020  -28.3320   23.1560 C   0  0  0  0  0  3  0  0  0  0  0  0
  -20.6990  -26.9020   22.5780 C   0  0  0  0  0  2  0  0  0  0  0  0
  -19.5990  -26.5890   21.5580 C   0  0  0  0  0  2  0  0  0  0  0  0
  -18.2160  -26.7390   22.1970 C   0  0  0  0  0  2  0  0  0  0  0  0
  -19.1640  -28.8430   23.3120 C   0  0  0  0  0  0  0  0  0  0  0  0
  -18.9490  -30.1050   23.9070 C   0  0  0  0  0  3  0  0  0  0  0  0
  -17.6450  -30.6120   24.0680 C   0  0  0  0  0  3  0  0  0  0  0  0
  -16.5390  -29.8540   23.6460 C   0  0  0  0  0  3  0  0  0  0  0  0
  -16.7380  -28.5930   23.0570 C   0  0  0  0  0  3  0  0  0  0  0  0
  -25.8680  -32.5200   23.8540 C   0  0  0  0  0  3  0  0  0  0  0  0
  -26.3740  -31.7530   25.1380 C   0  0  1  0  0  0  0  0  0  0  0  0
  -25.2710  -31.5140   26.1960 C   0  0  0  0  0  1  0  0  0  0  0  0
  -26.9650  -30.3770   24.7550 C   0  0  0  0  0  1  0  0  0  0  0  0
  -27.5140  -32.5530   25.8110 C   0  0  0  0  0  1  0  0  0  0  0  0
  -25.5500  -33.9170   24.1770 N   0  0  0  0  0  0  0  0  0  0  0  0
  -25.8910  -34.9690   23.4210 C   0  0  0  0  0  0  0  0  0  0  0  0
  -26.5760  -34.8650   22.4000 O   0  0  0  0  0  0  0  0  0  0  0  0
  -24.9420  -34.0700   24.9680 H   0  0  0  0  0  0  0  0  0  0  0  0
  -24.1680  -36.7590   23.0270 C   0  0  0  0  0  1  0  0  0  0  0  0
  -25.3920  -36.3570   23.8660 C   0  0  0  0  0  3  0  0  0  0  0  0
  -27.5060  -37.2470   24.7440 C   0  0  0  0  0  1  0  0  0  0  0  0
  -26.4250  -37.4120   23.7750 N   0  0  0  0  0  0  0  0  0  0  0  0
  -26.0150  -38.3320   23.9090 H   0  0  0  0  0  0  0  0  0  0  0  0
  2  1  1  0
  2 50  1  0
  2  9  1  0
  3  7  1  0
  4  3  2  0
  5  9  1  0
  5  6  1  0
  6  7  2  0
  6 10  1  0
  8  4  1  0
  8  5  2  0
  9 11  1  0
 12 20  1  0
 13 18  1  0
 14 15  1  0
 14 13  1  0
 16 15  1  0
 16 25  1  0
 16 17  1  0
 18 12  1  0
 18 17  1  0
 19 12  2  0
 20  4  1  0
 20 21  1  0
 22 23  2  0
 23 42  1  0
 24 23  1  0
 24 27  1  0
 25 22  1  0
 25 26  1  0
 26 24  2  0
 27 28  1  0
 28 29  2  0
 30 33  1  0
 30 29  1  0
 31 30  2  0
 32 31  1  0
 32 27  2  0
 33 34  1  0
 34 35  1  0
 35 36  2  0
 37 36  1  0
 37 41  1  0
 38 37  2  0
 39 34  2  0
 39 38  1  0
 40 39  1  0
 42 43  1  0
 43 46  1  0
 43 45  1  0
 44 42  2  0
 47 48  1  0
 47 22  1  0
 49 47  1  0
 50 51  2  0
 52 50  1  0
 54 53  1  0
 54 52  1  0
 54 55  1  0
 56 67  2  0
 57 55  1  0
 57 62  1  0
 58 66  1  0
 58 68  1  0
 59 65  1  0
 59 61  1  0
 60 66  1  0
 61 62  2  0
 61 60  1  0
 63 57  2  0
 64 63  1  0
 64 59  2  0
 65 58  1  0
 66 56  1  0
 68 70  2  0
 69 68  1  0
 71 69  1  0
 72 81  2  0
 72 77  1  0
 73 69  1  0
 73 77  1  0
 74 73  1  0
 75 76  1  0
 75 74  1  0
 76 72  1  0
 77 78  2  0
 78 79  1  0
 80 79  2  0
 81 80  1  0
 82 56  1  0
 82 87  1  0
 82 83  1  0
 83 86  1  1
 83 84  1  0
 85 83  1  0
 87 90  1  0
 88 92  1  0
 88 87  1  0
 89 88  2  0
 92 91  1  0
 94 92  1  0
 94 95  1  0
 94 93  1  0
M  ISO  4  12 100  20 100  54 101  55 101
M  END
>  <TORSDO>  (84) 
F 20

>  <SCORE>  (84) 
-14.333

>  <name>  (84) 
83

>  <ligand_id>  (84) 
83

>  <original_smiles>  (84) 
[H]c1nc(F)c(N([H])C([H])(C(=O)C([H])([H])C([H])(Oc2c([H])c([H])c3c(c2[H])C([H])([H])N(C(=O)C([H])(N([H])C(=O)C([H])(N([H])C([H])([H])[H])C([H])([H])[H])C(C([H])([H])[H])(C([H])([H])[H])C([H])([H])[H])C([H])(C(=O)N([H])C2([H])c4c([H])c([H])c([H])c([H])c4C([H])([H])C([H])([H])C2([H])[H])C3([H])[H])C([H])([H])[H])C([H])([H])[H])nc1N([H])C(=O)N1C([H])([H])C([H])([H])C([H])([H])C([H])(n2nc(-c3c([H])c([H])c(Oc4c([H])c([H])c(F)c([H])c4F)c([H])c3[H])c(C(=O)N([H])[H])c2N([H])[H])C1([H])[H]

>  <smiles>  (84) 
[H]c1nc(F)c(N([H])C([H])(C(=O)C([H])([H])C([H])(Oc2c([H])c([H])c3c(c2[H])C([H])([H])N(C(=O)C([H])(N([H])C(=O)C([H])(N([H])C([H])([H])[H])C([H])([H])[H])C(C([H])([H])[H])(C([H])([H])[H])C([H])([H])[H])C([H])(C(=O)N([H])C2([H])c4c([H])c([H])c([H])c([H])c4C([H])([H])C([H])([H])C2([H])[H])C3([H])[H])C([H])([H])[H])C([H])([H])[H])nc1N([H])C(=O)N1C([H])([H])C([H])([H])C([H])([H])C([H])(n2nc(-c3c([H])c([H])c(Oc4c([H])c([H])c(F)c([H])c4F)c([H])c3[H])c(C(=O)N([H])[H])c2N([H])[H])C1([H])[H]

$$$$
84:0:0
     RDKit          3D

 98106  0  0  1  0  0  0  0  0999 V2000
  -28.7810  -20.1120   20.0690 C   0  0  0  0  0  0  0  0  0  0  0  0
  -29.7870  -19.2260   19.7850 N   0  0  0  0  0  0  0  0  0  0  0  0
  -27.9490  -19.8660   20.9540 O   0  0  0  0  0  0  0  0  0  0  0  0
  -30.3910  -19.5010   19.0200 H   0  0  0  0  0  0  0  0  0  0  0  0
  -31.2880  -18.6270   23.1080 C   0  0  0  0  0  3  0  0  0  0  0  0
  -30.3940  -18.4350   20.8400 C   0  0  0  0  0  0  0  0  0  0  0  0
  -30.9180  -19.2190   21.9020 C   0  0  0  0  0  0  0  0  0  0  0  0
  -30.4960  -16.9910   20.9770 C   0  0  0  0  0  0  0  0  0  0  0  0
  -31.1680  -17.2440   23.2140 C   0  0  0  0  0  0  0  0  0  0  0  0
  -30.8370  -16.4630   22.1740 N   0  0  0  0  0  0  0  0  0  0  0  0
  -31.0360  -20.5650   21.7770 F   0  0  0  0  0  0  0  0  0  0  0  0
  -31.4030  -16.6500   24.4050 F   0  0  0  0  0  0  0  0  0  0  0  0
  -30.9650  -14.8890   19.7510 C   0  0  0  0  0  0  0  0  0  0  0  0
  -30.7350  -12.5840   18.8410 C   0  0  0  0  0  2  0  0  0  0  0  0
  -29.7200  -12.5620   17.6790 C   0  0  0  0  0  2  0  0  0  0  0  0
  -28.2840  -12.4010   18.2060 C   0  0  0  0  0  2  0  0  0  0  0  0
  -27.9650  -13.3670   19.3800 C   0  0  0  0  0  3  0  0  0  0  0  0
  -29.0790  -13.3470   20.4410 C   0  0  0  0  0  2  0  0  0  0  0  0
  -30.3320  -13.6740   19.7490 N   0  0  0  0  0  0  0  0  0  0  0  0
  -32.1260  -14.9970   19.3400 O   0  0  0  0  0  0  0  0  0  0  0  0
  -30.1980  -16.0050   19.9730 N   0  0  0  0  0  0  0  0  0  0  0  0
  -29.2110  -15.8240   19.9000 H   0  0  0  0  0  0  0  0  0  0  0  0
  -25.6610  -13.9970   20.3180 C   0  0  0  0  0  0  0  0  0  0  0  0
  -24.6080  -13.2370   20.7460 C   0  0  0  0  0  0  0  0  0  0  0  0
  -25.0300  -11.8780   20.6240 C   0  0  0  0  0  0  0  0  0  0  0  0
  -26.6570  -13.1020   19.9670 N   0  0  0  0  0  0  0  0  0  0  0  0
  -26.2900  -11.8200   20.2140 N   0  0  0  0  0  0  0  0  0  0  0  0
  -24.2890  -10.6250   20.8230 C   0  0  0  0  0  0  0  0  0  0  0  0
  -24.6770   -9.6840   21.8030 C   0  0  0  0  0  3  0  0  0  0  0  0
  -23.9370   -8.4970   21.9880 C   0  0  0  0  0  3  0  0  0  0  0  0
  -22.7940   -8.2420   21.1910 C   0  0  0  0  0  0  0  0  0  0  0  0
  -22.4290   -9.1680   20.1980 C   0  0  0  0  0  3  0  0  0  0  0  0
  -23.1700  -10.3480   20.0130 C   0  0  0  0  0  3  0  0  0  0  0  0
  -22.0290   -7.1060   21.2810 O   0  0  0  0  0  0  0  0  0  0  0  0
  -21.7710   -6.5050   22.4860 C   0  0  0  0  0  0  0  0  0  0  0  0
  -21.1350   -7.1950   23.5420 C   0  0  0  0  0  3  0  0  0  0  0  0
  -20.8250   -6.5210   24.7390 C   0  0  0  0  0  3  0  0  0  0  0  0
  -21.1450   -5.1560   24.8810 C   0  0  0  0  0  0  0  0  0  0  0  0
  -21.7740   -4.4670   23.8290 C   0  0  0  0  0  3  0  0  0  0  0  0
  -22.0830   -5.1400   22.6340 C   0  0  0  0  0  0  0  0  0  0  0  0
  -22.6700   -4.4640   21.6160 F   0  0  0  0  0  0  0  0  0  0  0  0
  -20.8420   -4.5050   26.0270 F   0  0  0  0  0  0  0  0  0  0  0  0
  -23.2470  -13.7330   21.1430 C   0  0  0  0  0  0  0  0  0  0  0  0
  -22.5780  -13.0310   22.0490 N   0  0  0  0  0  0  0  0  0  0  0  0
  -22.7910  -14.7800   20.6810 O   0  0  0  0  0  0  0  0  0  0  0  0
  -22.9680  -12.1870   22.4450 H   0  0  0  0  0  0  0  0  0  0  0  0
  -21.6640  -13.3370   22.3540 H   0  0  0  0  0  0  0  0  0  0  0  0
  -25.8420  -15.3700   20.1680 N   0  0  0  0  0  0  0  0  0  0  0  0
  -25.0860  -16.0250   20.3360 H   0  0  0  0  0  0  0  0  0  0  0  0
  -26.6430  -15.8060   19.7330 H   0  0  0  0  0  0  0  0  0  0  0  0
  -28.6930  -21.4660   19.2220 C   0  0  0  0  0  0  0  0  0  0  0  0
  -28.7210  -21.4530   17.9860 O   0  0  0  0  0  0  0  0  0  0  0  0
  -28.6060  -22.8160   20.0250 C   0  0  0  0  0  2  0  0  0  0  0  0
  -27.6660  -24.0520   19.6310 C   0  0  0  0  0  3  0  0  0  0  0  0
  -26.3770  -23.5690   19.2780 O   0  0  0  0  0  0  0  0  0  0  0  0
  -25.7640  -23.8600   19.9450 H   0  0  0  0  0  0  0  0  0  0  0  0
  -28.1140  -25.2200   18.6450 C   0  0  0  0  0  2  0  0  0  0  0  0
  -28.1290  -26.6210   19.1240 O   0  0  0  0  0  0  0  0  0  0  0  0
  -24.6490  -31.5380   23.0670 C   0  0  0  0  0  0  0  0  0  0  0  0
  -26.9860  -27.4240   19.2480 C   0  0  0  0  0  0  0  0  0  0  0  0
  -23.3140  -30.3900   21.3330 C   0  0  0  0  0  3  0  0  0  0  0  0
  -24.6460  -29.0250   19.6190 C   0  0  0  0  0  0  0  0  0  0  0  0
  -25.8420  -30.7040   21.0310 C   0  0  0  0  0  2  0  0  0  0  0  0
  -25.8530  -29.4260   20.2010 C   0  0  0  0  0  0  0  0  0  0  0  0
  -27.0230  -28.6350   20.0070 C   0  0  0  0  0  3  0  0  0  0  0  0
  -25.7520  -27.0660   18.6670 C   0  0  0  0  0  3  0  0  0  0  0  0
  -24.5970  -27.8510   18.8480 C   0  0  0  0  0  3  0  0  0  0  0  0
  -23.4280  -29.8950   19.8640 C   0  0  0  0  0  2  0  0  0  0  0  0
  -24.6230  -30.8880   21.8660 N   0  0  0  0  0  0  0  0  0  0  0  0
  -23.6100  -31.7550   23.7070 O   0  0  0  0  0  0  0  0  0  0  0  0
  -22.6940  -29.2620   22.1920 C   0  0  0  0  0  0  0  0  0  0  0  0
  -21.3720  -29.0590   22.0610 N   0  0  0  0  0  0  0  0  0  0  0  0
  -23.4010  -28.5780   22.9380 O   0  0  0  0  0  0  0  0  0  0  0  0
  -20.8610  -29.6760   21.4470 H   0  0  0  0  0  0  0  0  0  0  0  0
  -18.0590  -27.6440   22.3850 C   0  0  0  0  0  0  0  0  0  0  0  0
  -20.5930  -28.0160   22.7350 C   0  0  0  0  0  3  0  0  0  0  0  0
  -20.7870  -26.6430   22.0490 C   0  0  0  0  0  2  0  0  0  0  0  0
  -19.7240  -26.3430   20.9880 C   0  0  0  0  0  2  0  0  0  0  0  0
  -18.3250  -26.3630   21.6090 C   0  0  0  0  0  2  0  0  0  0  0  0
  -19.1250  -28.4270   22.9010 C   0  0  0  0  0  0  0  0  0  0  0  0
  -18.8290  -29.6240   23.5870 C   0  0  0  0  0  3  0  0  0  0  0  0
  -17.4970  -30.0430   23.7610 C   0  0  0  0  0  3  0  0  0  0  0  0
  -16.4440  -29.2580   23.2580 C   0  0  0  0  0  3  0  0  0  0  0  0
  -16.7270  -28.0590   22.5810 C   0  0  0  0  0  3  0  0  0  0  0  0
  -25.9830  -32.0650   23.6830 C   0  0  0  0  0  3  0  0  0  0  0  0
  -25.7280  -33.4150   24.2120 N   0  0  0  0  0  0  0  0  0  0  0  0
  -26.0460  -34.5530   23.5830 C   0  0  0  0  0  0  0  0  0  0  0  0
  -26.6560  -34.5740   22.5100 O   0  0  0  0  0  0  0  0  0  0  0  0
  -25.1810  -33.4730   25.0590 H   0  0  0  0  0  0  0  0  0  0  0  0
  -24.3520  -36.4110   23.5650 C   0  0  0  0  0  1  0  0  0  0  0  0
  -25.6220  -35.8770   24.2460 C   0  0  0  0  0  3  0  0  0  0  0  0
  -27.8100  -36.6090   25.0810 C   0  0  0  0  0  1  0  0  0  0  0  0
  -26.6750  -36.9160   24.2170 N   0  0  0  0  0  0  0  0  0  0  0  0
  -26.2990  -37.8200   24.4930 H   0  0  0  0  0  0  0  0  0  0  0  0
  -26.5600  -31.1280   24.8160 C   0  0  1  0  0  0  0  0  0  0  0  0
  -25.5170  -30.7300   25.8850 C   0  0  0  0  0  1  0  0  0  0  0  0
  -27.1340  -29.8250   24.2110 C   0  0  0  0  0  1  0  0  0  0  0  0
  -27.7320  -31.8360   25.5370 C   0  0  0  0  0  1  0  0  0  0  0  0
  1  3  2  0
  2  1  1  0
  2  6  1  0
  4  2  1  0
  5  9  1  0
  6  8  2  0
  6  7  1  0
  7  5  2  0
  8 10  1  0
  9 12  1  0
 10  9  2  0
 11  7  1  0
 13 21  1  0
 14 19  1  0
 15 16  1  0
 15 14  1  0
 17 16  1  0
 17 26  1  0
 17 18  1  0
 19 13  1  0
 19 18  1  0
 20 13  2  0
 21  8  1  0
 22 21  1  0
 23 24  2  0
 24 43  1  0
 25 24  1  0
 25 28  1  0
 26 27  1  0
 26 23  1  0
 27 25  2  0
 28 29  1  0
 29 30  2  0
 31 34  1  0
 31 30  1  0
 32 31  2  0
 33 32  1  0
 33 28  2  0
 34 35  1  0
 35 40  2  0
 35 36  1  0
 36 37  2  0
 37 38  1  0
 38 42  1  0
 39 38  2  0
 40 39  1  0
 41 40  1  0
 43 44  1  0
 44 47  1  0
 44 46  1  0
 45 43  2  0
 48 23  1  0
 48 49  1  0
 50 48  1  0
 51 53  1  0
 51  1  1  0
 52 51  2  0
 54 57  1  0
 54 53  1  0
 55 54  1  0
 55 56  1  0
 57 58  1  0
 58 60  1  0
 59 70  2  0
 60 65  1  0
 61 69  1  0
 61 71  1  0
 62 68  1  0
 62 64  1  0
 63 69  1  0
 64 63  1  0
 65 64  2  0
 66 67  1  0
 66 60  2  0
 67 62  2  0
 68 61  1  0
 69 59  1  0
 71 73  2  0
 72 71  1  0
 74 72  1  0
 75 84  2  0
 75 80  1  0
 76 72  1  0
 76 80  1  0
 77 76  1  0
 78 79  1  0
 78 77  1  0
 79 75  1  0
 80 81  2  0
 81 82  1  0
 83 82  2  0
 84 83  1  0
 85 59  1  0
 85 86  1  0
 85 95  1  0
 86 89  1  0
 87 86  1  0
 87 91  1  0
 88 87  2  0
 91 90  1  0
 93 91  1  0
 93 94  1  0
 93 92  1  0
 95 98  1  1
 95 96  1  0
 97 95  1  0
M  ISO  4  13 100  21 100  57 101  58 101
M  END
>  <TORSDO>  (85) 
F 22

>  <SCORE>  (85) 
-10.141

>  <name>  (85) 
84

>  <ligand_id>  (85) 
84

>  <original_smiles>  (85) 
[H]OC([H])(C([H])([H])Oc1c([H])c([H])c2c(c1[H])C([H])([H])N(C(=O)C([H])(N([H])C(=O)C([H])(N([H])C([H])([H])[H])C([H])([H])[H])C(C([H])([H])[H])(C([H])([H])[H])C([H])([H])[H])C([H])(C(=O)N([H])C1([H])c3c([H])c([H])c([H])c([H])c3C([H])([H])C([H])([H])C1([H])[H])C2([H])[H])C([H])([H])C(=O)C(=O)N([H])c1c(N([H])C(=O)N2C([H])([H])C([H])([H])C([H])([H])C([H])(n3nc(-c4c([H])c([H])c(Oc5c([H])c([H])c(F)c([H])c5F)c([H])c4[H])c(C(=O)N([H])[H])c3N([H])[H])C2([H])[H])nc(F)c([H])c1F

>  <smiles>  (85) 
[H]OC([H])(C([H])([H])Oc1c([H])c([H])c2c(c1[H])C([H])([H])N(C(=O)C([H])(N([H])C(=O)C([H])(N([H])C([H])([H])[H])C([H])([H])[H])C(C([H])([H])[H])(C([H])([H])[H])C([H])([H])[H])C([H])(C(=O)N([H])C1([H])c3c([H])c([H])c([H])c([H])c3C([H])([H])C([H])([H])C1([H])[H])C2([H])[H])C([H])([H])C(=O)C(=O)N([H])c1c(N([H])C(=O)N2C([H])([H])C([H])([H])C([H])([H])C([H])(n3nc(-c4c([H])c([H])c(Oc5c([H])c([H])c(F)c([H])c5F)c([H])c4[H])c(C(=O)N([H])[H])c3N([H])[H])C2([H])[H])nc(F)c([H])c1F

$$$$
85:0:0
     RDKit          3D

 90 98  0  0  1  0  0  0  0  0999 V2000
  -29.0500  -22.3260   20.0360 C   0  0  0  0  0  2  0  0  0  0  0  0
  -28.5300  -23.7610   20.5800 C   0  0  0  0  0  0  0  0  0  0  0  0
  -28.1520  -23.8630   21.7510 O   0  0  0  0  0  0  0  0  0  0  0  0
  -28.4380  -25.0570   19.6380 C   0  0  0  0  0  2  0  0  0  0  0  0
  -28.3460  -26.4260   20.2700 O   0  0  0  0  0  0  0  0  0  0  0  0
  -24.6070  -31.8850   23.2440 C   0  0  0  0  0  0  0  0  0  0  0  0
  -27.2230  -27.2860   20.1820 C   0  0  0  0  0  0  0  0  0  0  0  0
  -23.4120  -30.4990   21.5880 C   0  0  0  0  0  3  0  0  0  0  0  0
  -24.8650  -28.9430   20.1620 C   0  0  0  0  0  0  0  0  0  0  0  0
  -25.9560  -30.7950   21.4280 C   0  0  0  0  0  2  0  0  0  0  0  0
  -26.0340  -29.4150   20.7720 C   0  0  0  0  0  0  0  0  0  0  0  0
  -27.2090  -28.5980   20.7730 C   0  0  0  0  0  3  0  0  0  0  0  0
  -26.0260  -26.8790   19.5500 C   0  0  0  0  0  3  0  0  0  0  0  0
  -24.8670  -27.6830   19.5420 C   0  0  0  0  0  3  0  0  0  0  0  0
  -23.6340  -29.8280   20.2070 C   0  0  0  0  0  2  0  0  0  0  0  0
  -24.6780  -31.0790   22.1420 N   0  0  0  0  0  0  0  0  0  0  0  0
  -23.5210  -32.1650   23.7710 O   0  0  0  0  0  0  0  0  0  0  0  0
  -22.7360  -29.4840   22.5410 C   0  0  0  0  0  0  0  0  0  0  0  0
  -21.4080  -29.3160   22.4070 N   0  0  0  0  0  0  0  0  0  0  0  0
  -23.4040  -28.8500   23.3610 O   0  0  0  0  0  0  0  0  0  0  0  0
  -20.9270  -29.8790   21.7200 H   0  0  0  0  0  0  0  0  0  0  0  0
  -18.0200  -28.1370   22.8870 C   0  0  0  0  0  0  0  0  0  0  0  0
  -20.5800  -28.3790   23.1680 C   0  0  0  0  0  3  0  0  0  0  0  0
  -20.6740  -26.9500   22.5820 C   0  0  0  0  0  2  0  0  0  0  0  0
  -19.5740  -26.6420   21.5610 C   0  0  0  0  0  2  0  0  0  0  0  0
  -18.1900  -26.7920   22.2010 C   0  0  0  0  0  2  0  0  0  0  0  0
  -19.1420  -28.8890   23.3260 C   0  0  0  0  0  0  0  0  0  0  0  0
  -18.9290  -30.1480   23.9270 C   0  0  0  0  0  3  0  0  0  0  0  0
  -17.6270  -30.6560   24.0930 C   0  0  0  0  0  3  0  0  0  0  0  0
  -16.5190  -29.9020   23.6690 C   0  0  0  0  0  3  0  0  0  0  0  0
  -16.7160  -28.6430   23.0730 C   0  0  0  0  0  3  0  0  0  0  0  0
  -25.8870  -32.5120   23.8790 C   0  0  0  0  0  3  0  0  0  0  0  0
  -26.3790  -31.7450   25.1670 C   0  0  1  0  0  0  0  0  0  0  0  0
  -25.2700  -31.5240   26.2230 C   0  0  0  0  0  1  0  0  0  0  0  0
  -26.9560  -30.3600   24.7930 C   0  0  0  0  0  1  0  0  0  0  0  0
  -27.5280  -32.5330   25.8400 C   0  0  0  0  0  1  0  0  0  0  0  0
  -25.5830  -33.9150   24.2000 N   0  0  0  0  0  0  0  0  0  0  0  0
  -25.9280  -34.9640   23.4400 C   0  0  0  0  0  0  0  0  0  0  0  0
  -26.6020  -34.8510   22.4130 O   0  0  0  0  0  0  0  0  0  0  0  0
  -24.9870  -34.0770   24.9980 H   0  0  0  0  0  0  0  0  0  0  0  0
  -24.2150  -36.7690   23.0710 C   0  0  0  0  0  1  0  0  0  0  0  0
  -25.4490  -36.3570   23.8910 C   0  0  0  0  0  3  0  0  0  0  0  0
  -27.5840  -37.2300   24.7310 C   0  0  0  0  0  1  0  0  0  0  0  0
  -26.4890  -37.4030   23.7800 N   0  0  0  0  0  0  0  0  0  0  0  0
  -26.0890  -38.3250   23.9210 H   0  0  0  0  0  0  0  0  0  0  0  0
  -30.0730  -21.3050   22.2130 C   0  0  0  0  0  1  0  0  0  0  0  0
  -29.1410  -21.0220   21.0170 C   0  0  0  0  0  3  0  0  0  0  0  0
  -30.8580  -18.0870   19.6680 C   0  0  0  0  0  3  0  0  0  0  0  0
  -29.0640  -18.3440   20.8970 C   0  0  0  0  0  3  0  0  0  0  0  0
  -29.8870  -17.3360   20.3990 C   0  0  0  0  0  0  0  0  0  0  0  0
  -30.6470  -19.4200   19.7420 N   0  0  0  0  0  0  0  0  0  0  0  0
  -29.5300  -19.6270   20.4990 N   0  0  0  0  0  0  0  0  0  0  0  0
  -30.5630  -14.7880   20.2140 C   0  0  0  0  0  0  0  0  0  0  0  0
  -30.3750  -12.5180   19.1750 C   0  0  0  0  0  2  0  0  0  0  0  0
  -29.4040  -12.6090   17.9750 C   0  0  0  0  0  2  0  0  0  0  0  0
  -27.9440  -12.4280   18.4370 C   0  0  0  0  0  2  0  0  0  0  0  0
  -27.6010  -13.2970   19.6750 C   0  0  0  0  0  3  0  0  0  0  0  0
  -28.6820  -13.1730   20.7700 C   0  0  0  0  0  2  0  0  0  0  0  0
  -29.9690  -13.5440   20.1630 N   0  0  0  0  0  0  0  0  0  0  0  0
  -31.7210  -14.9370   19.8100 O   0  0  0  0  0  0  0  0  0  0  0  0
  -29.7640  -15.8610   20.5810 N   0  0  0  0  0  0  0  0  0  0  0  0
  -28.8830  -15.5620   20.9730 H   0  0  0  0  0  0  0  0  0  0  0  0
  -25.2260  -13.8920   20.4430 C   0  0  0  0  0  0  0  0  0  0  0  0
  -24.1670  -13.1180   20.8350 C   0  0  0  0  0  0  0  0  0  0  0  0
  -24.6300  -11.7660   20.7970 C   0  0  0  0  0  0  0  0  0  0  0  0
  -26.2660  -13.0120   20.1880 N   0  0  0  0  0  0  0  0  0  0  0  0
  -25.9150  -11.7290   20.4620 N   0  0  0  0  0  0  0  0  0  0  0  0
  -23.9090  -10.5030   21.0000 C   0  0  0  0  0  0  0  0  0  0  0  0
  -24.3570   -9.5380   21.9280 C   0  0  0  0  0  3  0  0  0  0  0  0
  -23.6350   -8.3400   22.1200 C   0  0  0  0  0  3  0  0  0  0  0  0
  -22.4510   -8.1000   21.3820 C   0  0  0  0  0  0  0  0  0  0  0  0
  -22.0220   -9.0540   20.4440 C   0  0  0  0  0  3  0  0  0  0  0  0
  -22.7450  -10.2430   20.2490 C   0  0  0  0  0  3  0  0  0  0  0  0
  -21.6990   -6.9540   21.4840 O   0  0  0  0  0  0  0  0  0  0  0  0
  -21.6670   -6.2140   22.6380 C   0  0  0  0  0  0  0  0  0  0  0  0
  -21.2540   -6.7690   23.8690 C   0  0  0  0  0  3  0  0  0  0  0  0
  -21.1710   -5.9540   25.0160 C   0  0  0  0  0  3  0  0  0  0  0  0
  -21.4900   -4.5850   24.9330 C   0  0  0  0  0  0  0  0  0  0  0  0
  -21.8970   -4.0300   23.7070 C   0  0  0  0  0  3  0  0  0  0  0  0
  -21.9820   -4.8410   22.5630 C   0  0  0  0  0  0  0  0  0  0  0  0
  -22.3540   -4.2970   21.3800 F   0  0  0  0  0  0  0  0  0  0  0  0
  -21.4030   -3.8010   26.0320 F   0  0  0  0  0  0  0  0  0  0  0  0
  -22.7760  -13.5940   21.1330 C   0  0  0  0  0  0  0  0  0  0  0  0
  -22.0640  -12.8970   22.0120 N   0  0  0  0  0  0  0  0  0  0  0  0
  -22.3280  -14.6190   20.6210 O   0  0  0  0  0  0  0  0  0  0  0  0
  -22.4390  -12.0670   22.4470 H   0  0  0  0  0  0  0  0  0  0  0  0
  -21.1310  -13.1980   22.2550 H   0  0  0  0  0  0  0  0  0  0  0  0
  -25.3870  -15.2620   20.2610 N   0  0  0  0  0  0  0  0  0  0  0  0
  -24.6170  -15.9120   20.3710 H   0  0  0  0  0  0  0  0  0  0  0  0
  -26.2170  -15.6950   19.8770 H   0  0  0  0  0  0  0  0  0  0  0  0
  1  2  1  0
  1 47  1  0
  2  3  2  0
  4  5  1  0
  4  2  1  0
  6 17  2  0
  7  5  1  0
  7 12  1  0
  8 16  1  0
  8 18  1  0
  9 15  1  0
  9 11  1  0
 10 16  1  0
 11 12  2  0
 11 10  1  0
 13  7  2  0
 14 13  1  0
 14  9  2  0
 15  8  1  0
 16  6  1  0
 18 20  2  0
 19 18  1  0
 21 19  1  0
 22 31  2  0
 22 27  1  0
 23 19  1  0
 23 27  1  0
 24 23  1  0
 25 26  1  0
 25 24  1  0
 26 22  1  0
 27 28  2  0
 28 29  1  0
 30 29  2  0
 31 30  1  0
 32  6  1  0
 32 37  1  0
 32 33  1  0
 33 36  1  1
 33 34  1  0
 35 33  1  0
 37 40  1  0
 38 42  1  0
 38 37  1  0
 39 38  2  0
 42 41  1  0
 44 42  1  0
 44 45  1  0
 44 43  1  0
 47 46  1  0
 48 51  2  0
 48 50  1  0
 50 61  1  0
 50 49  2  0
 51 52  1  0
 52 49  1  0
 52 47  1  0
 53 61  1  0
 54 59  1  0
 55 56  1  0
 55 54  1  0
 57 56  1  0
 57 66  1  0
 57 58  1  0
 59 53  1  0
 59 58  1  0
 60 53  2  0
 61 62  1  0
 63 64  2  0
 64 83  1  0
 65 64  1  0
 65 68  1  0
 66 63  1  0
 66 67  1  0
 67 65  2  0
 68 69  1  0
 69 70  2  0
 71 74  1  0
 71 70  1  0
 72 71  2  0
 73 72  1  0
 73 68  2  0
 74 75  1  0
 75 76  1  0
 76 77  2  0
 78 77  1  0
 78 82  1  0
 79 78  2  0
 80 75  2  0
 80 79  1  0
 81 80  1  0
 83 84  1  0
 84 87  1  0
 84 86  1  0
 85 83  2  0
 88 89  1  0
 88 63  1  0
 90 88  1  0
M  ISO  4   4 101   5 101  53 100  61 100
M  END
>  <TORSDO>  (86) 
F 20

>  <SCORE>  (86) 
-13.909

>  <name>  (86) 
85

>  <ligand_id>  (86) 
85

>  <original_smiles>  (86) 
[H]c1nn(C([H])(C([H])([H])[H])C([H])([H])C(=O)C([H])([H])Oc2c([H])c([H])c3c(c2[H])C([H])([H])N(C(=O)C([H])(N([H])C(=O)C([H])(N([H])C([H])([H])[H])C([H])([H])[H])C(C([H])([H])[H])(C([H])([H])[H])C([H])([H])[H])C([H])(C(=O)N([H])C2([H])c4c([H])c([H])c([H])c([H])c4C([H])([H])C([H])([H])C2([H])[H])C3([H])[H])c([H])c1N([H])C(=O)N1C([H])([H])C([H])([H])C([H])([H])C([H])(n2nc(-c3c([H])c([H])c(Oc4c([H])c([H])c(F)c([H])c4F)c([H])c3[H])c(C(=O)N([H])[H])c2N([H])[H])C1([H])[H]

>  <smiles>  (86) 
[H]c1nn(C([H])(C([H])([H])[H])C([H])([H])C(=O)C([H])([H])Oc2c([H])c([H])c3c(c2[H])C([H])([H])N(C(=O)C([H])(N([H])C(=O)C([H])(N([H])C([H])([H])[H])C([H])([H])[H])C(C([H])([H])[H])(C([H])([H])[H])C([H])([H])[H])C([H])(C(=O)N([H])C2([H])c4c([H])c([H])c([H])c([H])c4C([H])([H])C([H])([H])C2([H])[H])C3([H])[H])c([H])c1N([H])C(=O)N1C([H])([H])C([H])([H])C([H])([H])C([H])(n2nc(-c3c([H])c([H])c(Oc4c([H])c([H])c(F)c([H])c4F)c([H])c3[H])c(C(=O)N([H])[H])c2N([H])[H])C1([H])[H]

$$$$
86:0:0
     RDKit          3D

 98106  0  0  1  0  0  0  0  0999 V2000
  -29.9430  -21.1080   20.1990 C   0  0  0  0  0  0  0  0  0  0  0  0
  -28.6980  -21.5490   19.9360 N   0  0  0  0  0  0  0  0  0  0  0  0
  -30.8680  -21.9150   20.3120 O   0  0  0  0  0  0  0  0  0  0  0  0
  -27.9730  -20.8480   19.8980 H   0  0  0  0  0  0  0  0  0  0  0  0
  -30.6550  -14.6100   20.2550 C   0  0  0  0  0  0  0  0  0  0  0  0
  -30.3310  -12.4220   19.1530 C   0  0  0  0  0  2  0  0  0  0  0  0
  -29.3710  -12.6240   17.9620 C   0  0  0  0  0  2  0  0  0  0  0  0
  -27.9040  -12.4920   18.4180 C   0  0  0  0  0  2  0  0  0  0  0  0
  -27.5940  -13.3250   19.6910 C   0  0  0  0  0  3  0  0  0  0  0  0
  -28.6740  -13.1230   20.7780 C   0  0  0  0  0  2  0  0  0  0  0  0
  -29.9800  -13.4250   20.1760 N   0  0  0  0  0  0  0  0  0  0  0  0
  -31.8140  -14.7060   19.8420 O   0  0  0  0  0  0  0  0  0  0  0  0
  -30.2510  -19.6230   20.1880 C   0  0  0  0  0  0  0  0  0  0  0  0
  -31.4080  -18.9580   19.8160 C   0  0  0  0  0  0  0  0  0  0  0  0
  -30.1990  -17.1040   20.4390 C   0  0  0  0  0  0  0  0  0  0  0  0
  -31.3630  -17.5680   19.9640 N   0  0  0  0  0  0  0  0  0  0  0  0
  -29.9270  -15.6950   20.6420 N   0  0  0  0  0  0  0  0  0  0  0  0
  -29.0560  -18.4410   20.7530 S   0  0  0  0  0  0  0  0  0  0  0  0
  -29.0060  -15.4840   20.9930 H   0  0  0  0  0  0  0  0  0  0  0  0
  -25.2170  -13.9320   20.4560 C   0  0  0  0  0  0  0  0  0  0  0  0
  -24.1540  -13.1610   20.8410 C   0  0  0  0  0  0  0  0  0  0  0  0
  -24.6100  -11.8080   20.7940 C   0  0  0  0  0  0  0  0  0  0  0  0
  -26.2530  -13.0490   20.1980 N   0  0  0  0  0  0  0  0  0  0  0  0
  -25.8930  -11.7660   20.4610 N   0  0  0  0  0  0  0  0  0  0  0  0
  -23.8830  -10.5480   20.9900 C   0  0  0  0  0  0  0  0  0  0  0  0
  -24.3150   -9.5810   21.9240 C   0  0  0  0  0  3  0  0  0  0  0  0
  -23.5870   -8.3870   22.1090 C   0  0  0  0  0  3  0  0  0  0  0  0
  -22.4120   -8.1490   21.3580 C   0  0  0  0  0  0  0  0  0  0  0  0
  -21.9970   -9.1040   20.4120 C   0  0  0  0  0  3  0  0  0  0  0  0
  -22.7260  -10.2900   20.2270 C   0  0  0  0  0  3  0  0  0  0  0  0
  -21.6550   -7.0060   21.4510 O   0  0  0  0  0  0  0  0  0  0  0  0
  -21.6000   -6.2710   22.6070 C   0  0  0  0  0  0  0  0  0  0  0  0
  -21.1500   -6.8290   23.8240 C   0  0  0  0  0  3  0  0  0  0  0  0
  -21.0440   -6.0210   24.9730 C   0  0  0  0  0  3  0  0  0  0  0  0
  -21.3780   -4.6550   24.9070 C   0  0  0  0  0  0  0  0  0  0  0  0
  -21.8200   -4.0960   23.6950 C   0  0  0  0  0  3  0  0  0  0  0  0
  -21.9280   -4.9020   22.5480 C   0  0  0  0  0  0  0  0  0  0  0  0
  -22.3350   -4.3540   21.3770 F   0  0  0  0  0  0  0  0  0  0  0  0
  -21.2700   -3.8750   26.0090 F   0  0  0  0  0  0  0  0  0  0  0  0
  -22.7640  -13.6430   21.1430 C   0  0  0  0  0  0  0  0  0  0  0  0
  -22.0480  -12.9390   22.0120 N   0  0  0  0  0  0  0  0  0  0  0  0
  -22.3230  -14.6770   20.6430 O   0  0  0  0  0  0  0  0  0  0  0  0
  -22.4180  -12.1010   22.4350 H   0  0  0  0  0  0  0  0  0  0  0  0
  -21.1150  -13.2410   22.2560 H   0  0  0  0  0  0  0  0  0  0  0  0
  -25.3830  -15.3030   20.2780 N   0  0  0  0  0  0  0  0  0  0  0  0
  -24.6150  -15.9560   20.3910 H   0  0  0  0  0  0  0  0  0  0  0  0
  -26.2120  -15.7350   19.8890 H   0  0  0  0  0  0  0  0  0  0  0  0
  -32.5830  -19.5150   19.3030 N   0  0  0  0  0  0  0  0  0  0  0  0
  -32.7240  -20.5190   19.3570 H   0  0  0  0  0  0  0  0  0  0  0  0
  -33.4320  -18.9630   19.2460 H   0  0  0  0  0  0  0  0  0  0  0  0
  -28.3380  -22.8690   19.3340 C   0  0  0  0  0  3  0  0  0  0  0  0
  -25.8230  -22.7490   19.9940 C   0  0  0  0  0  1  0  0  0  0  0  0
  -26.6370  -21.5940   17.8940 C   0  0  0  0  0  1  0  0  0  0  0  0
  -26.8600  -22.7820   18.8500 C   0  0  0  0  0  3  0  0  0  0  0  0
  -28.5320  -24.1600   20.2200 C   0  0  0  0  0  0  0  0  0  0  0  0
  -28.5800  -24.1290   21.4540 O   0  0  0  0  0  0  0  0  0  0  0  0
  -28.6510  -25.5190   19.4550 C   0  0  0  0  0  2  0  0  0  0  0  0
  -28.4730  -26.7160   20.2650 O   0  0  0  0  0  0  0  0  0  0  0  0
  -24.5780  -31.9130   23.2600 C   0  0  0  0  0  0  0  0  0  0  0  0
  -27.2900  -27.4480   20.2120 C   0  0  0  0  0  0  0  0  0  0  0  0
  -23.4030  -30.5020   21.6040 C   0  0  0  0  0  3  0  0  0  0  0  0
  -24.8850  -28.9720   20.1960 C   0  0  0  0  0  0  0  0  0  0  0  0
  -25.9320  -30.8660   21.4430 C   0  0  0  0  0  2  0  0  0  0  0  0
  -26.0340  -29.4940   20.7980 C   0  0  0  0  0  0  0  0  0  0  0  0
  -27.2370  -28.7410   20.8010 C   0  0  0  0  0  3  0  0  0  0  0  0
  -26.1100  -26.9470   19.6140 C   0  0  0  0  0  3  0  0  0  0  0  0
  -24.9200  -27.7000   19.6020 C   0  0  0  0  0  3  0  0  0  0  0  0
  -23.6340  -29.8240   20.2270 C   0  0  0  0  0  2  0  0  0  0  0  0
  -24.6540  -31.1100   22.1600 N   0  0  0  0  0  0  0  0  0  0  0  0
  -23.4870  -32.1790   23.7840 O   0  0  0  0  0  0  0  0  0  0  0  0
  -22.7440  -29.4770   22.5560 C   0  0  0  0  0  0  0  0  0  0  0  0
  -21.4210  -29.2920   22.4190 N   0  0  0  0  0  0  0  0  0  0  0  0
  -23.4240  -28.8510   23.3750 O   0  0  0  0  0  0  0  0  0  0  0  0
  -20.9350  -29.8510   21.7310 H   0  0  0  0  0  0  0  0  0  0  0  0
  -18.0420  -28.1040   22.9100 C   0  0  0  0  0  0  0  0  0  0  0  0
  -20.6010  -28.3500   23.1790 C   0  0  0  0  0  3  0  0  0  0  0  0
  -20.6970  -26.9240   22.5880 C   0  0  0  0  0  2  0  0  0  0  0  0
  -19.5920  -26.6170   21.5720 C   0  0  0  0  0  2  0  0  0  0  0  0
  -18.2110  -26.7610   22.2180 C   0  0  0  0  0  2  0  0  0  0  0  0
  -19.1650  -28.8580   23.3440 C   0  0  0  0  0  0  0  0  0  0  0  0
  -18.9540  -30.1160   23.9470 C   0  0  0  0  0  3  0  0  0  0  0  0
  -17.6510  -30.6200   24.1240 C   0  0  0  0  0  3  0  0  0  0  0  0
  -16.5430  -29.8630   23.7060 C   0  0  0  0  0  3  0  0  0  0  0  0
  -16.7400  -28.6090   23.1020 C   0  0  0  0  0  3  0  0  0  0  0  0
  -25.8500  -32.5550   23.8940 C   0  0  0  0  0  3  0  0  0  0  0  0
  -25.5320  -33.9560   24.2040 N   0  0  0  0  0  0  0  0  0  0  0  0
  -25.8720  -35.0020   23.4370 C   0  0  0  0  0  0  0  0  0  0  0  0
  -26.5580  -34.8890   22.4180 O   0  0  0  0  0  0  0  0  0  0  0  0
  -24.9300  -34.1180   24.9980 H   0  0  0  0  0  0  0  0  0  0  0  0
  -24.1510  -36.7880   23.0240 C   0  0  0  0  0  1  0  0  0  0  0  0
  -25.3710  -36.3930   23.8710 C   0  0  0  0  0  3  0  0  0  0  0  0
  -27.4790  -37.2890   24.7570 C   0  0  0  0  0  1  0  0  0  0  0  0
  -26.4060  -37.4460   23.7770 N   0  0  0  0  0  0  0  0  0  0  0  0
  -25.9940  -38.3670   23.9040 H   0  0  0  0  0  0  0  0  0  0  0  0
  -26.3500  -31.7990   25.1880 C   0  0  1  0  0  0  0  0  0  0  0  0
  -25.2410  -31.5630   26.2390 C   0  0  0  0  0  1  0  0  0  0  0  0
  -26.9510  -30.4210   24.8200 C   0  0  0  0  0  1  0  0  0  0  0  0
  -27.4840  -32.6070   25.8610 C   0  0  0  0  0  1  0  0  0  0  0  0
  1  3  2  0
  2  1  1  0
  4  2  1  0
  5 17  1  0
  6 11  1  0
  7  8  1  0
  7  6  1  0
  9  8  1  0
  9 23  1  0
  9 10  1  0
 11  5  1  0
 11 10  1  0
 12  5  2  0
 13  1  1  0
 13 18  1  0
 14 16  1  0
 14 13  2  0
 15 17  1  0
 15 18  1  0
 16 15  2  0
 17 19  1  0
 20 21  2  0
 21 40  1  0
 22 21  1  0
 22 25  1  0
 23 20  1  0
 23 24  1  0
 24 22  2  0
 25 26  1  0
 26 27  2  0
 28 31  1  0
 28 27  1  0
 29 28  2  0
 30 29  1  0
 30 25  2  0
 31 32  1  0
 32 33  1  0
 33 34  2  0
 35 34  1  0
 35 39  1  0
 36 35  2  0
 37 32  2  0
 37 36  1  0
 38 37  1  0
 40 41  1  0
 41 44  1  0
 41 43  1  0
 42 40  2  0
 45 46  1  0
 45 20  1  0
 47 45  1  0
 48 49  1  0
 48 14  1  0
 50 48  1  0
 51 54  1  0
 51  2  1  0
 51 55  1  0
 53 54  1  0
 54 52  1  0
 55 56  2  0
 57 55  1  0
 57 58  1  0
 59 70  2  0
 60 58  1  0
 60 65  1  0
 61 69  1  0
 61 71  1  0
 62 68  1  0
 62 64  1  0
 63 69  1  0
 64 65  2  0
 64 63  1  0
 66 60  2  0
 67 66  1  0
 67 62  2  0
 68 61  1  0
 69 59  1  0
 71 73  2  0
 72 71  1  0
 74 72  1  0
 75 84  2  0
 75 80  1  0
 76 72  1  0
 76 80  1  0
 77 76  1  0
 78 79  1  0
 78 77  1  0
 79 75  1  0
 80 81  2  0
 81 82  1  0
 83 82  2  0
 84 83  1  0
 85 59  1  0
 85 86  1  0
 85 95  1  0
 86 89  1  0
 87 91  1  0
 87 86  1  0
 88 87  2  0
 91 90  1  0
 93 91  1  0
 93 94  1  0
 93 92  1  0
 95 98  1  1
 95 96  1  0
 97 95  1  0
M  ISO  4   5 100  17 100  57 101  58 101
M  END
>  <TORSDO>  (87) 
F 21

>  <SCORE>  (87) 
-13.703

>  <name>  (87) 
86

>  <ligand_id>  (87) 
86

>  <original_smiles>  (87) 
[H]c1c([H])c([H])c2c(c1[H])C([H])([H])C([H])([H])C([H])([H])C2([H])N([H])C(=O)C1([H])N(C(=O)C([H])(N([H])C(=O)C([H])(N([H])C([H])([H])[H])C([H])([H])[H])C(C([H])([H])[H])(C([H])([H])[H])C([H])([H])[H])C([H])([H])c2c([H])c(OC([H])([H])C(=O)C([H])(N([H])C(=O)c3sc(N([H])C(=O)N4C([H])([H])C([H])([H])C([H])([H])C([H])(n5nc(-c6c([H])c([H])c(Oc7c([H])c([H])c(F)c([H])c7F)c([H])c6[H])c(C(=O)N([H])[H])c5N([H])[H])C4([H])[H])nc3N([H])[H])C([H])(C([H])([H])[H])C([H])([H])[H])c([H])c([H])c2C1([H])[H]

>  <smiles>  (87) 
[H]c1c([H])c([H])c2c(c1[H])C([H])([H])C([H])([H])C([H])([H])C2([H])N([H])C(=O)C1([H])N(C(=O)C([H])(N([H])C(=O)C([H])(N([H])C([H])([H])[H])C([H])([H])[H])C(C([H])([H])[H])(C([H])([H])[H])C([H])([H])[H])C([H])([H])c2c([H])c(OC([H])([H])C(=O)C([H])(N([H])C(=O)c3sc(N([H])C(=O)N4C([H])([H])C([H])([H])C([H])([H])C([H])(n5nc(-c6c([H])c([H])c(Oc7c([H])c([H])c(F)c([H])c7F)c([H])c6[H])c(C(=O)N([H])[H])c5N([H])[H])C4([H])[H])nc3N([H])[H])C([H])(C([H])([H])[H])C([H])([H])[H])c([H])c([H])c2C1([H])[H]

$$$$
87:0:0
     RDKit          3D

 92100  0  0  1  0  0  0  0  0999 V2000
  -29.0500  -22.1650   19.7470 C   0  0  0  0  0  0  0  0  0  0  0  0
  -29.7080  -21.0410   20.2610 N   0  0  0  0  0  0  0  0  0  0  0  0
  -28.2590  -22.0220   18.8130 O   0  0  0  0  0  0  0  0  0  0  0  0
  -30.5100  -21.2750   20.8330 H   0  0  0  0  0  0  0  0  0  0  0  0
  -30.3090  -18.5530   20.4030 C   0  0  0  0  0  3  0  0  0  0  0  0
  -28.2910  -17.6990   19.9420 C   0  0  0  0  0  3  0  0  0  0  0  0
  -29.5640  -17.2960   20.2680 C   0  0  0  0  0  0  0  0  0  0  0  0
  -29.4500  -19.6490   20.1450 C   0  0  0  0  0  0  0  0  0  0  0  0
  -26.9260  -19.7820   19.6630 C   0  0  0  0  0  1  0  0  0  0  0  0
  -28.1920  -19.0900   19.8860 N   0  0  0  0  0  0  0  0  0  0  0  0
  -30.6470  -14.7950   20.1430 C   0  0  0  0  0  0  0  0  0  0  0  0
  -30.4970  -12.4800   19.1650 C   0  0  0  0  0  2  0  0  0  0  0  0
  -29.5120  -12.5080   17.9690 C   0  0  0  0  0  2  0  0  0  0  0  0
  -28.0550  -12.3450   18.4480 C   0  0  0  0  0  2  0  0  0  0  0  0
  -27.7160  -13.2700   19.6430 C   0  0  0  0  0  3  0  0  0  0  0  0
  -28.7980  -13.1570   20.7400 C   0  0  0  0  0  2  0  0  0  0  0  0
  -30.0840  -13.5320   20.1270 N   0  0  0  0  0  0  0  0  0  0  0  0
  -31.8030  -14.9570   19.7330 O   0  0  0  0  0  0  0  0  0  0  0  0
  -29.7990  -15.8330   20.5310 N   0  0  0  0  0  0  0  0  0  0  0  0
  -28.9620  -15.3990   20.8900 H   0  0  0  0  0  0  0  0  0  0  0  0
  -25.3730  -13.9360   20.4430 C   0  0  0  0  0  0  0  0  0  0  0  0
  -24.2920  -13.1970   20.8380 C   0  0  0  0  0  0  0  0  0  0  0  0
  -24.7050  -11.8300   20.7690 C   0  0  0  0  0  0  0  0  0  0  0  0
  -26.3760  -13.0230   20.1600 N   0  0  0  0  0  0  0  0  0  0  0  0
  -25.9820  -11.7500   20.4160 N   0  0  0  0  0  0  0  0  0  0  0  0
  -23.9380  -10.5910   20.9520 C   0  0  0  0  0  0  0  0  0  0  0  0
  -24.3620   -9.5890   21.8520 C   0  0  0  0  0  3  0  0  0  0  0  0
  -23.5980   -8.4150   22.0280 C   0  0  0  0  0  3  0  0  0  0  0  0
  -22.3960   -8.2360   21.3030 C   0  0  0  0  0  0  0  0  0  0  0  0
  -21.9900   -9.2270   20.3920 C   0  0  0  0  0  3  0  0  0  0  0  0
  -22.7540  -10.3920   20.2150 C   0  0  0  0  0  3  0  0  0  0  0  0
  -21.6030   -7.1190   21.3920 O   0  0  0  0  0  0  0  0  0  0  0  0
  -21.5610   -6.3570   22.5310 C   0  0  0  0  0  0  0  0  0  0  0  0
  -21.1770   -6.8960   23.7780 C   0  0  0  0  0  3  0  0  0  0  0  0
  -21.0830   -6.0600   24.9080 C   0  0  0  0  0  3  0  0  0  0  0  0
  -21.3600   -4.6850   24.7930 C   0  0  0  0  0  0  0  0  0  0  0  0
  -21.7380   -4.1450   23.5510 C   0  0  0  0  0  3  0  0  0  0  0  0
  -21.8350   -4.9770   22.4220 C   0  0  0  0  0  0  0  0  0  0  0  0
  -22.1790   -4.4480   21.2250 F   0  0  0  0  0  0  0  0  0  0  0  0
  -21.2600   -3.8800   25.8750 F   0  0  0  0  0  0  0  0  0  0  0  0
  -22.9220  -13.7190   21.1570 C   0  0  0  0  0  0  0  0  0  0  0  0
  -22.2010  -13.0390   22.0440 N   0  0  0  0  0  0  0  0  0  0  0  0
  -22.5050  -14.7650   20.6620 O   0  0  0  0  0  0  0  0  0  0  0  0
  -22.5510  -12.1870   22.4560 H   0  0  0  0  0  0  0  0  0  0  0  0
  -21.2850  -13.3710   22.3070 H   0  0  0  0  0  0  0  0  0  0  0  0
  -25.5830  -15.2980   20.2700 N   0  0  0  0  0  0  0  0  0  0  0  0
  -24.8160  -15.9590   20.3280 H   0  0  0  0  0  0  0  0  0  0  0  0
  -26.3580  -15.6400   19.7200 H   0  0  0  0  0  0  0  0  0  0  0  0
  -29.3530  -23.6950   20.1840 C   0  0  0  0  0  2  0  0  0  0  0  0
  -26.7780  -24.1640   20.3940 C   0  0  0  0  0  1  0  0  0  0  0  0
  -28.1810  -24.8030   20.5350 C   0  0  0  0  0  3  0  0  0  0  0  0
  -28.3150  -26.2830   20.1410 O   0  0  0  0  0  0  0  0  0  0  0  0
  -24.5240  -31.7660   23.1750 C   0  0  0  0  0  0  0  0  0  0  0  0
  -27.2180  -27.1960   20.1210 C   0  0  0  0  0  0  0  0  0  0  0  0
  -23.3650  -30.3790   21.4990 C   0  0  0  0  0  3  0  0  0  0  0  0
  -24.8580  -28.8570   20.0760 C   0  0  0  0  0  0  0  0  0  0  0  0
  -25.9130  -30.6970   21.3780 C   0  0  0  0  0  2  0  0  0  0  0  0
  -26.0150  -29.3210   20.7160 C   0  0  0  0  0  0  0  0  0  0  0  0
  -27.1970  -28.5030   20.7320 C   0  0  0  0  0  3  0  0  0  0  0  0
  -26.0550  -26.8440   19.4040 C   0  0  0  0  0  3  0  0  0  0  0  0
  -24.8850  -27.6230   19.4110 C   0  0  0  0  0  3  0  0  0  0  0  0
  -23.6130  -29.7250   20.1140 C   0  0  0  0  0  2  0  0  0  0  0  0
  -24.6180  -30.9670   22.0730 N   0  0  0  0  0  0  0  0  0  0  0  0
  -23.4280  -32.0270   23.6910 O   0  0  0  0  0  0  0  0  0  0  0  0
  -22.6900  -29.3440   22.4330 C   0  0  0  0  0  0  0  0  0  0  0  0
  -21.3680  -29.1550   22.2800 N   0  0  0  0  0  0  0  0  0  0  0  0
  -23.3600  -28.7160   23.2590 O   0  0  0  0  0  0  0  0  0  0  0  0
  -20.8900  -29.7060   21.5800 H   0  0  0  0  0  0  0  0  0  0  0  0
  -17.9960  -27.9190   22.7180 C   0  0  0  0  0  0  0  0  0  0  0  0
  -20.5470  -28.2020   23.0290 C   0  0  0  0  0  3  0  0  0  0  0  0
  -20.6740  -26.7770   22.4400 C   0  0  0  0  0  2  0  0  0  0  0  0
  -19.5900  -26.4580   21.4050 C   0  0  0  0  0  2  0  0  0  0  0  0
  -18.1990  -26.5810   22.0260 C   0  0  0  0  0  2  0  0  0  0  0  0
  -19.1000  -28.6880   23.1750 C   0  0  0  0  0  0  0  0  0  0  0  0
  -18.8580  -29.9410   23.7780 C   0  0  0  0  0  3  0  0  0  0  0  0
  -17.5450  -30.4250   23.9310 C   0  0  0  0  0  3  0  0  0  0  0  0
  -16.4550  -29.6530   23.4920 C   0  0  0  0  0  3  0  0  0  0  0  0
  -16.6820  -28.4030   22.8890 C   0  0  0  0  0  3  0  0  0  0  0  0
  -25.7860  -32.4070   23.8270 C   0  0  0  0  0  3  0  0  0  0  0  0
  -26.2760  -31.6390   25.1160 C   0  0  1  0  0  0  0  0  0  0  0  0
  -25.1590  -31.3910   26.1550 C   0  0  0  0  0  1  0  0  0  0  0  0
  -26.8800  -30.2660   24.7430 C   0  0  0  0  0  1  0  0  0  0  0  0
  -27.4020  -32.4420   25.8080 C   0  0  0  0  0  1  0  0  0  0  0  0
  -25.4570  -33.8020   24.1520 N   0  0  0  0  0  0  0  0  0  0  0  0
  -25.8040  -34.8620   23.4080 C   0  0  0  0  0  0  0  0  0  0  0  0
  -26.5000  -34.7670   22.3950 O   0  0  0  0  0  0  0  0  0  0  0  0
  -24.8400  -33.9490   24.9370 H   0  0  0  0  0  0  0  0  0  0  0  0
  -24.0810  -36.6510   23.0160 C   0  0  0  0  0  1  0  0  0  0  0  0
  -25.2990  -36.2460   23.8610 C   0  0  0  0  0  3  0  0  0  0  0  0
  -27.4010  -37.1370   24.7660 C   0  0  0  0  0  1  0  0  0  0  0  0
  -26.3310  -37.3030   23.7860 N   0  0  0  0  0  0  0  0  0  0  0  0
  -25.9160  -38.2220   23.9190 H   0  0  0  0  0  0  0  0  0  0  0  0
  1 49  1  0
  1  2  1  0
  2  4  1  0
  3  1  2  0
  6  7  2  0
  7  5  1  0
  7 19  1  0
  8  2  1  0
  8  5  2  0
  9 10  1  0
 10  6  1  0
 10  8  1  0
 11 19  1  0
 12 17  1  0
 13 14  1  0
 13 12  1  0
 15 14  1  0
 15 24  1  0
 15 16  1  0
 17 11  1  0
 17 16  1  0
 18 11  2  0
 19 20  1  0
 21 22  2  0
 22 41  1  0
 23 22  1  0
 23 26  1  0
 24 25  1  0
 24 21  1  0
 25 23  2  0
 26 27  1  0
 27 28  2  0
 29 32  1  0
 29 28  1  0
 30 29  2  0
 31 30  1  0
 31 26  2  0
 32 33  1  0
 33 34  1  0
 34 35  2  0
 36 35  1  0
 36 40  1  0
 37 36  2  0
 38 33  2  0
 38 37  1  0
 39 38  1  0
 41 42  1  0
 42 45  1  0
 42 44  1  0
 43 41  2  0
 46 47  1  0
 46 21  1  0
 48 46  1  0
 49 51  1  0
 51 50  1  0
 52 51  1  0
 53 64  2  0
 54 52  1  0
 54 59  1  0
 55 63  1  0
 55 65  1  0
 56 62  1  0
 56 58  1  0
 57 63  1  0
 58 59  2  0
 58 57  1  0
 60 61  1  0
 60 54  2  0
 61 56  2  0
 62 55  1  0
 63 53  1  0
 65 67  2  0
 66 65  1  0
 68 66  1  0
 69 78  2  0
 69 74  1  0
 70 66  1  0
 70 74  1  0
 71 70  1  0
 72 73  1  0
 72 71  1  0
 73 69  1  0
 74 75  2  0
 75 76  1  0
 77 76  2  0
 78 77  1  0
 79 53  1  0
 79 84  1  0
 79 80  1  0
 80 83  1  1
 80 81  1  0
 82 80  1  0
 84 87  1  0
 85 89  1  0
 85 84  1  0
 86 85  2  0
 89 88  1  0
 91 89  1  0
 91 92  1  0
 91 90  1  0
M  ISO  4  11 100  19 100  51 101  52 101
M  END
>  <TORSDO>  (88) 
F 19

>  <SCORE>  (88) 
-13.884

>  <name>  (88) 
87

>  <ligand_id>  (88) 
87

>  <original_smiles>  (88) 
[H]c1c([H])c([H])c2c(c1[H])C([H])([H])C([H])([H])C([H])([H])C2([H])N([H])C(=O)C1([H])N(C(=O)C([H])(N([H])C(=O)C([H])(N([H])C([H])([H])[H])C([H])([H])[H])C(C([H])([H])[H])(C([H])([H])[H])C([H])([H])[H])C([H])([H])c2c([H])c(OC([H])(C([H])([H])[H])C([H])([H])C(=O)N([H])c3c([H])c(N([H])C(=O)N4C([H])([H])C([H])([H])C([H])([H])C([H])(n5nc(-c6c([H])c([H])c(Oc7c([H])c([H])c(F)c([H])c7F)c([H])c6[H])c(C(=O)N([H])[H])c5N([H])[H])C4([H])[H])c([H])n3C([H])([H])[H])c([H])c([H])c2C1([H])[H]

>  <smiles>  (88) 
[H]c1c([H])c([H])c2c(c1[H])C([H])([H])C([H])([H])C([H])([H])C2([H])N([H])C(=O)C1([H])N(C(=O)C([H])(N([H])C(=O)C([H])(N([H])C([H])([H])[H])C([H])([H])[H])C(C([H])([H])[H])(C([H])([H])[H])C([H])([H])[H])C([H])([H])c2c([H])c(OC([H])(C([H])([H])[H])C([H])([H])C(=O)N([H])c3c([H])c(N([H])C(=O)N4C([H])([H])C([H])([H])C([H])([H])C([H])(n5nc(-c6c([H])c([H])c(Oc7c([H])c([H])c(F)c([H])c7F)c([H])c6[H])c(C(=O)N([H])[H])c5N([H])[H])C4([H])[H])c([H])n3C([H])([H])[H])c([H])c([H])c2C1([H])[H]

$$$$
88:0:0
     RDKit          3D

 94102  0  0  1  0  0  0  0  0999 V2000
  -28.1930  -20.2020   19.2280 C   0  0  0  0  0  3  0  0  0  0  0  0
  -28.6030  -18.8180   19.3520 C   0  0  0  0  0  0  0  0  0  0  0  0
  -29.5590  -18.5910   20.3210 C   0  0  0  0  0  0  0  0  0  0  0  0
  -28.8140  -21.1430   20.0230 C   0  0  0  0  0  0  0  0  0  0  0  0
  -29.9750  -20.2080   21.0280 S   0  0  0  0  0  0  0  0  0  0  0  0
  -28.0540  -17.7430   18.4500 C   0  0  1  0  0  0  0  0  0  0  0  0
  -27.2850  -18.2500   17.4870 F   0  0  0  0  0  0  0  0  0  0  0  0
  -29.0290  -17.0620   17.8450 F   0  0  0  0  0  0  0  0  0  0  0  0
  -27.3080  -16.8800   19.1280 F   0  0  0  0  0  0  0  0  0  0  0  0
  -28.8860  -23.7510   20.3700 C   0  0  0  0  0  0  0  0  0  0  0  0
  -28.4790  -22.5070   19.9150 N   0  0  0  0  0  0  0  0  0  0  0  0
  -29.7700  -23.8980   21.2170 O   0  0  0  0  0  0  0  0  0  0  0  0
  -27.7250  -22.6440   19.2560 H   0  0  0  0  0  0  0  0  0  0  0  0
  -28.5100  -25.1200   18.2310 C   0  0  0  0  0  1  0  0  0  0  0  0
  -28.1300  -25.0230   19.7210 C   0  0  0  0  0  3  0  0  0  0  0  0
  -28.2720  -26.4200   20.2850 O   0  0  0  0  0  0  0  0  0  0  0  0
  -24.5790  -31.9660   23.2420 C   0  0  0  0  0  0  0  0  0  0  0  0
  -27.1810  -27.3360   20.2000 C   0  0  0  0  0  0  0  0  0  0  0  0
  -23.3760  -30.5570   21.6150 C   0  0  0  0  0  3  0  0  0  0  0  0
  -24.8260  -29.0050   20.1900 C   0  0  0  0  0  0  0  0  0  0  0  0
  -25.9230  -30.8570   21.4350 C   0  0  0  0  0  2  0  0  0  0  0  0
  -26.0000  -29.4720   20.7920 C   0  0  0  0  0  0  0  0  0  0  0  0
  -27.1760  -28.6480   20.7950 C   0  0  0  0  0  3  0  0  0  0  0  0
  -25.9780  -26.9610   19.5500 C   0  0  0  0  0  3  0  0  0  0  0  0
  -24.8210  -27.7570   19.5600 C   0  0  0  0  0  3  0  0  0  0  0  0
  -23.5900  -29.8820   20.2370 C   0  0  0  0  0  2  0  0  0  0  0  0
  -24.6450  -31.1450   22.1520 N   0  0  0  0  0  0  0  0  0  0  0  0
  -23.4950  -32.2460   23.7740 O   0  0  0  0  0  0  0  0  0  0  0  0
  -22.7150  -29.5430   22.5810 C   0  0  0  0  0  0  0  0  0  0  0  0
  -21.3880  -29.3640   22.4600 N   0  0  0  0  0  0  0  0  0  0  0  0
  -23.3950  -28.9220   23.4010 O   0  0  0  0  0  0  0  0  0  0  0  0
  -20.8970  -29.9170   21.7710 H   0  0  0  0  0  0  0  0  0  0  0  0
  -18.0140  -28.1600   22.9770 C   0  0  0  0  0  0  0  0  0  0  0  0
  -20.5720  -28.4300   23.2390 C   0  0  0  0  0  3  0  0  0  0  0  0
  -20.6760  -26.9940   22.6750 C   0  0  0  0  0  2  0  0  0  0  0  0
  -19.5740  -26.6590   21.6660 C   0  0  0  0  0  2  0  0  0  0  0  0
  -18.1930  -26.8060   22.3120 C   0  0  0  0  0  2  0  0  0  0  0  0
  -19.1310  -28.9290   23.3990 C   0  0  0  0  0  0  0  0  0  0  0  0
  -18.9080  -30.1960   23.9810 C   0  0  0  0  0  3  0  0  0  0  0  0
  -17.6020  -30.6940   24.1460 C   0  0  0  0  0  3  0  0  0  0  0  0
  -16.5000  -29.9230   23.7400 C   0  0  0  0  0  3  0  0  0  0  0  0
  -16.7060  -28.6570   23.1610 C   0  0  0  0  0  3  0  0  0  0  0  0
  -25.8600  -32.6070   23.8570 C   0  0  0  0  0  3  0  0  0  0  0  0
  -26.3780  -31.8470   25.1390 C   0  0  1  0  0  0  0  0  0  0  0  0
  -25.2850  -31.6160   26.2090 C   0  0  0  0  0  1  0  0  0  0  0  0
  -26.9650  -30.4680   24.7620 C   0  0  0  0  0  1  0  0  0  0  0  0
  -27.5270  -32.6510   25.7940 C   0  0  0  0  0  1  0  0  0  0  0  0
  -25.5460  -34.0070   24.1770 N   0  0  0  0  0  0  0  0  0  0  0  0
  -25.8810  -35.0580   23.4160 C   0  0  0  0  0  0  0  0  0  0  0  0
  -26.5570  -34.9500   22.3890 O   0  0  0  0  0  0  0  0  0  0  0  0
  -24.9460  -34.1640   24.9740 H   0  0  0  0  0  0  0  0  0  0  0  0
  -24.1610  -36.8550   23.0380 C   0  0  0  0  0  1  0  0  0  0  0  0
  -25.3910  -36.4480   23.8650 C   0  0  0  0  0  3  0  0  0  0  0  0
  -27.5170  -37.3290   24.7230 C   0  0  0  0  0  1  0  0  0  0  0  0
  -26.4270  -37.4990   23.7650 N   0  0  0  0  0  0  0  0  0  0  0  0
  -26.0220  -38.4200   23.9050 H   0  0  0  0  0  0  0  0  0  0  0  0
  -30.2430  -17.2610   20.6580 C   0  0  0  0  0  3  0  0  0  0  0  0
  -29.7540  -16.0330   20.6580 N   0  0  0  0  0  0  0  0  0  0  0  0
  -30.6090  -14.8710   20.6150 C   0  0  0  0  0  0  0  0  0  0  0  0
  -30.4710  -12.5610   19.6770 C   0  0  0  0  0  2  0  0  0  0  0  0
  -29.5960  -12.6170   18.4030 C   0  0  0  0  0  2  0  0  0  0  0  0
  -28.1070  -12.4410   18.7570 C   0  0  0  0  0  2  0  0  0  0  0  0
  -27.6640  -13.3460   19.9350 C   0  0  0  0  0  3  0  0  0  0  0  0
  -28.6680  -13.2980   21.1050 C   0  0  0  0  0  2  0  0  0  0  0  0
  -30.0000  -13.6330   20.5850 N   0  0  0  0  0  0  0  0  0  0  0  0
  -31.8230  -14.9240   20.4050 O   0  0  0  0  0  0  0  0  0  0  0  0
  -25.2370  -13.9220   20.5460 C   0  0  0  0  0  0  0  0  0  0  0  0
  -24.1610  -13.1460   20.8740 C   0  0  0  0  0  0  0  0  0  0  0  0
  -24.6380  -11.8000   20.8890 C   0  0  0  0  0  0  0  0  0  0  0  0
  -26.3000  -13.0520   20.3700 N   0  0  0  0  0  0  0  0  0  0  0  0
  -25.9430  -11.7690   20.6430 N   0  0  0  0  0  0  0  0  0  0  0  0
  -23.9120  -10.5360   21.0670 C   0  0  0  0  0  0  0  0  0  0  0  0
  -24.3110   -9.5830   22.0290 C   0  0  0  0  0  3  0  0  0  0  0  0
  -23.5840   -8.3850   22.1940 C   0  0  0  0  0  3  0  0  0  0  0  0
  -22.4430   -8.1310   21.3950 C   0  0  0  0  0  0  0  0  0  0  0  0
  -22.0630   -9.0740   20.4230 C   0  0  0  0  0  3  0  0  0  0  0  0
  -22.7910  -10.2630   20.2570 C   0  0  0  0  0  3  0  0  0  0  0  0
  -21.6910   -6.9840   21.4680 O   0  0  0  0  0  0  0  0  0  0  0  0
  -21.6050   -6.2510   22.6250 C   0  0  0  0  0  0  0  0  0  0  0  0
  -21.1350   -6.8170   23.8310 C   0  0  0  0  0  3  0  0  0  0  0  0
  -20.9970   -6.0120   24.9790 C   0  0  0  0  0  3  0  0  0  0  0  0
  -21.3160   -4.6420   24.9220 C   0  0  0  0  0  0  0  0  0  0  0  0
  -21.7790   -4.0760   23.7210 C   0  0  0  0  0  3  0  0  0  0  0  0
  -21.9190   -4.8790   22.5750 C   0  0  0  0  0  0  0  0  0  0  0  0
  -22.3450   -4.3240   21.4140 F   0  0  0  0  0  0  0  0  0  0  0  0
  -21.1760   -3.8660   26.0220 F   0  0  0  0  0  0  0  0  0  0  0  0
  -22.7480  -13.6180   21.0650 C   0  0  0  0  0  0  0  0  0  0  0  0
  -21.9830  -12.9330   21.9070 N   0  0  0  0  0  0  0  0  0  0  0  0
  -22.3300  -14.6290   20.5030 O   0  0  0  0  0  0  0  0  0  0  0  0
  -22.3330  -12.1160   22.3840 H   0  0  0  0  0  0  0  0  0  0  0  0
  -21.0340  -13.2310   22.0780 H   0  0  0  0  0  0  0  0  0  0  0  0
  -25.3870  -15.2900   20.3630 N   0  0  0  0  0  0  0  0  0  0  0  0
  -24.6080  -15.9340   20.4230 H   0  0  0  0  0  0  0  0  0  0  0  0
  -26.2470  -15.7350   20.0560 H   0  0  0  0  0  0  0  0  0  0  0  0
  1  2  1  0
  1  4  2  0
  2  3  2  0
  3 57  1  0
  3  5  1  0
  4  5  1  0
  6  9  1  1
  6  2  1  0
  7  6  1  0
  8  6  1  0
 10 12  2  0
 11  4  1  0
 11 10  1  0
 13 11  1  0
 15 14  1  0
 15 16  1  0
 15 10  1  0
 17 28  2  0
 18 16  1  0
 18 23  1  0
 19 27  1  0
 19 29  1  0
 20 26  1  0
 20 22  1  0
 21 27  1  0
 22 23  2  0
 22 21  1  0
 24 25  1  0
 24 18  2  0
 25 20  2  0
 26 19  1  0
 27 17  1  0
 29 31  2  0
 30 29  1  0
 32 30  1  0
 33 42  2  0
 33 38  1  0
 34 30  1  0
 34 38  1  0
 35 34  1  0
 36 37  1  0
 36 35  1  0
 37 33  1  0
 38 39  2  0
 39 40  1  0
 41 40  2  0
 42 41  1  0
 43 17  1  0
 43 48  1  0
 43 44  1  0
 44 47  1  1
 44 45  1  0
 46 44  1  0
 48 51  1  0
 49 53  1  0
 49 48  1  0
 50 49  2  0
 53 52  1  0
 55 53  1  0
 55 56  1  0
 55 54  1  0
 58 57  2  0
 59 58  1  0
 60 65  1  0
 61 62  1  0
 61 60  1  0
 63 62  1  0
 63 70  1  0
 63 64  1  0
 65 59  1  0
 65 64  1  0
 66 59  2  0
 67 68  2  0
 68 69  1  0
 68 87  1  0
 69 72  1  0
 70 67  1  0
 70 71  1  0
 71 69  2  0
 72 73  1  0
 73 74  2  0
 75 78  1  0
 75 74  1  0
 76 75  2  0
 77 76  1  0
 77 72  2  0
 78 79  1  0
 79 80  1  0
 80 81  2  0
 82 81  1  0
 82 86  1  0
 83 82  2  0
 84 79  2  0
 84 83  1  0
 85 84  1  0
 87 88  1  0
 88 91  1  0
 88 90  1  0
 89 87  2  0
 92 93  1  0
 92 67  1  0
 94 92  1  0
M  ISO  4  15 101  16 101  58 100  59 100
M  END
>  <TORSDO>  (89) 
F 20

>  <SCORE>  (89) 
-13.913

>  <name>  (89) 
88

>  <ligand_id>  (89) 
88

>  <original_smiles>  (89) 
[H]C(=NC(=O)N1C([H])([H])C([H])([H])C([H])([H])C([H])(n2nc(-c3c([H])c([H])c(Oc4c([H])c([H])c(F)c([H])c4F)c([H])c3[H])c(C(=O)N([H])[H])c2N([H])[H])C1([H])[H])c1sc(N([H])C(=O)C([H])(Oc2c([H])c([H])c3c(c2[H])C([H])([H])N(C(=O)C([H])(N([H])C(=O)C([H])(N([H])C([H])([H])[H])C([H])([H])[H])C(C([H])([H])[H])(C([H])([H])[H])C([H])([H])[H])C([H])(C(=O)N([H])C2([H])c4c([H])c([H])c([H])c([H])c4C([H])([H])C([H])([H])C2([H])[H])C3([H])[H])C([H])([H])[H])c([H])c1C(F)(F)F

>  <smiles>  (89) 
[H]C(=NC(=O)N1C([H])([H])C([H])([H])C([H])([H])C([H])(n2nc(-c3c([H])c([H])c(Oc4c([H])c([H])c(F)c([H])c4F)c([H])c3[H])c(C(=O)N([H])[H])c2N([H])[H])C1([H])[H])c1sc(N([H])C(=O)C([H])(Oc2c([H])c([H])c3c(c2[H])C([H])([H])N(C(=O)C([H])(N([H])C(=O)C([H])(N([H])C([H])([H])[H])C([H])([H])[H])C(C([H])([H])[H])(C([H])([H])[H])C([H])([H])[H])C([H])(C(=O)N([H])C2([H])c4c([H])c([H])c([H])c([H])c4C([H])([H])C([H])([H])C2([H])[H])C3([H])[H])C([H])([H])[H])c([H])c1C(F)(F)F

$$$$
89:0:0
     RDKit          3D

 94102  0  0  1  0  0  0  0  0999 V2000
  -28.9280  -22.9940   19.8780 C   0  0  0  0  0  0  0  0  0  0  0  0
  -28.3650  -22.7480   18.8060 O   0  0  0  0  0  0  0  0  0  0  0  0
  -28.4530  -25.4430   19.7500 C   0  0  0  0  0  3  0  0  0  0  0  0
  -28.9540  -24.3880   20.4370 C   0  0  0  0  0  0  0  0  0  0  0  0
  -29.4880  -24.5620   21.6540 O   0  0  0  0  0  0  0  0  0  0  0  0
  -29.4230  -25.4890   21.8470 H   0  0  0  0  0  0  0  0  0  0  0  0
  -28.4360  -26.7480   20.2200 O   0  0  0  0  0  0  0  0  0  0  0  0
  -24.5730  -31.9320   23.2600 C   0  0  0  0  0  0  0  0  0  0  0  0
  -27.2620  -27.4890   20.1790 C   0  0  0  0  0  0  0  0  0  0  0  0
  -23.3920  -30.5410   21.5940 C   0  0  0  0  0  3  0  0  0  0  0  0
  -24.8660  -29.0180   20.1740 C   0  0  0  0  0  0  0  0  0  0  0  0
  -25.9230  -30.8960   21.4360 C   0  0  0  0  0  2  0  0  0  0  0  0
  -26.0180  -29.5290   20.7820 C   0  0  0  0  0  0  0  0  0  0  0  0
  -27.2160  -28.7720   20.7820 C   0  0  0  0  0  3  0  0  0  0  0  0
  -26.0800  -26.9990   19.5690 C   0  0  0  0  0  3  0  0  0  0  0  0
  -24.8930  -27.7530   19.5670 C   0  0  0  0  0  3  0  0  0  0  0  0
  -23.6210  -29.8760   20.2110 C   0  0  0  0  0  2  0  0  0  0  0  0
  -24.6470  -31.1380   22.1540 N   0  0  0  0  0  0  0  0  0  0  0  0
  -23.4830  -32.2000   23.7860 O   0  0  0  0  0  0  0  0  0  0  0  0
  -22.7280  -29.5120   22.5370 C   0  0  0  0  0  0  0  0  0  0  0  0
  -21.4080  -29.3190   22.3800 N   0  0  0  0  0  0  0  0  0  0  0  0
  -23.3990  -28.8890   23.3640 O   0  0  0  0  0  0  0  0  0  0  0  0
  -20.9300  -29.8730   21.6820 H   0  0  0  0  0  0  0  0  0  0  0  0
  -18.0250  -28.1290   22.8350 C   0  0  0  0  0  0  0  0  0  0  0  0
  -20.5820  -28.3730   23.1290 C   0  0  0  0  0  3  0  0  0  0  0  0
  -20.6840  -26.9520   22.5310 C   0  0  0  0  0  2  0  0  0  0  0  0
  -19.5890  -26.6490   21.5030 C   0  0  0  0  0  2  0  0  0  0  0  0
  -18.2020  -26.7890   22.1390 C   0  0  0  0  0  2  0  0  0  0  0  0
  -19.1440  -28.8800   23.2850 C   0  0  0  0  0  0  0  0  0  0  0  0
  -18.9260  -30.1340   23.8940 C   0  0  0  0  0  3  0  0  0  0  0  0
  -17.6220  -30.6390   24.0560 C   0  0  0  0  0  3  0  0  0  0  0  0
  -16.5190  -29.8850   23.6220 C   0  0  0  0  0  3  0  0  0  0  0  0
  -16.7200  -28.6310   23.0190 C   0  0  0  0  0  3  0  0  0  0  0  0
  -25.8490  -32.5600   23.9040 C   0  0  0  0  0  3  0  0  0  0  0  0
  -26.3270  -31.8020   25.2030 C   0  0  1  0  0  0  0  0  0  0  0  0
  -25.2020  -31.5820   26.2410 C   0  0  0  0  0  1  0  0  0  0  0  0
  -26.9150  -30.4180   24.8450 C   0  0  0  0  0  1  0  0  0  0  0  0
  -27.4620  -32.6000   25.8860 C   0  0  0  0  0  1  0  0  0  0  0  0
  -25.5470  -33.9660   24.2020 N   0  0  0  0  0  0  0  0  0  0  0  0
  -25.8800  -34.9990   23.4170 C   0  0  0  0  0  0  0  0  0  0  0  0
  -26.5450  -34.8680   22.3860 O   0  0  0  0  0  0  0  0  0  0  0  0
  -24.9550  -34.1420   25.0010 H   0  0  0  0  0  0  0  0  0  0  0  0
  -24.1530  -36.7860   23.0290 C   0  0  0  0  0  1  0  0  0  0  0  0
  -25.3980  -36.4000   23.8430 C   0  0  0  0  0  3  0  0  0  0  0  0
  -27.5320  -37.3100   24.6480 C   0  0  0  0  0  1  0  0  0  0  0  0
  -26.4330  -37.4470   23.6950 N   0  0  0  0  0  0  0  0  0  0  0  0
  -26.0290  -38.3730   23.8070 H   0  0  0  0  0  0  0  0  0  0  0  0
  -29.6690  -21.8500   20.6240 C   0  0  0  0  0  2  0  0  0  0  0  0
  -28.9360  -20.4850   20.5710 C   0  0  0  0  0  0  0  0  0  0  0  0
  -27.7950  -20.4250   21.0450 O   0  0  0  0  0  0  0  0  0  0  0  0
  -30.8000  -14.6050   20.1650 C   0  0  0  0  0  0  0  0  0  0  0  0
  -30.4910  -12.3960   19.1190 C   0  0  0  0  0  2  0  0  0  0  0  0
  -29.5110  -12.5650   17.9380 C   0  0  0  0  0  2  0  0  0  0  0  0
  -28.0530  -12.4260   18.4180 C   0  0  0  0  0  2  0  0  0  0  0  0
  -27.7500  -13.2870   19.6730 C   0  0  0  0  0  3  0  0  0  0  0  0
  -28.8440  -13.1160   20.7520 C   0  0  0  0  0  2  0  0  0  0  0  0
  -30.1440  -13.4110   20.1300 N   0  0  0  0  0  0  0  0  0  0  0  0
  -31.9370  -14.7370   19.7000 O   0  0  0  0  0  0  0  0  0  0  0  0
  -29.6750  -19.2820   20.1080 C   0  0  0  0  0  0  0  0  0  0  0  0
  -30.5250  -19.2030   19.0150 C   0  0  0  0  0  0  0  0  0  0  0  0
  -30.2040  -17.0220   20.1600 C   0  0  0  0  0  0  0  0  0  0  0  0
  -30.9180  -20.2560   18.0220 C   0  0  0  0  0  1  0  0  0  0  0  0
  -29.4860  -18.0100   20.7160 N   0  0  0  0  0  0  0  0  0  0  0  0
  -30.0840  -15.6650   20.6050 N   0  0  0  0  0  0  0  0  0  0  0  0
  -31.1690  -17.5870   18.7990 S   0  0  0  0  0  0  0  0  0  0  0  0
  -29.2440  -15.4480   21.1160 H   0  0  0  0  0  0  0  0  0  0  0  0
  -25.3910  -13.8960   20.5000 C   0  0  0  0  0  0  0  0  0  0  0  0
  -24.3310  -13.1250   20.8930 C   0  0  0  0  0  0  0  0  0  0  0  0
  -24.7770  -11.7700   20.8090 C   0  0  0  0  0  0  0  0  0  0  0  0
  -26.4160  -13.0110   20.2030 N   0  0  0  0  0  0  0  0  0  0  0  0
  -26.0530  -11.7260   20.4470 N   0  0  0  0  0  0  0  0  0  0  0  0
  -24.0460  -10.5100   20.9980 C   0  0  0  0  0  0  0  0  0  0  0  0
  -24.4710   -9.5420   21.9340 C   0  0  0  0  0  3  0  0  0  0  0  0
  -23.7410   -8.3470   22.1100 C   0  0  0  0  0  3  0  0  0  0  0  0
  -22.5720   -8.1100   21.3490 C   0  0  0  0  0  0  0  0  0  0  0  0
  -22.1650   -9.0680   20.4020 C   0  0  0  0  0  3  0  0  0  0  0  0
  -22.8960  -10.2550   20.2250 C   0  0  0  0  0  3  0  0  0  0  0  0
  -21.8140   -6.9680   21.4340 O   0  0  0  0  0  0  0  0  0  0  0  0
  -21.7160   -6.2530   22.6010 C   0  0  0  0  0  0  0  0  0  0  0  0
  -21.1690   -6.8170   23.7760 C   0  0  0  0  0  3  0  0  0  0  0  0
  -21.0220   -6.0270   24.9330 C   0  0  0  0  0  3  0  0  0  0  0  0
  -21.4130   -4.6750   24.9170 C   0  0  0  0  0  0  0  0  0  0  0  0
  -21.9550   -4.1110   23.7490 C   0  0  0  0  0  3  0  0  0  0  0  0
  -22.1030   -4.8980   22.5940 C   0  0  0  0  0  0  0  0  0  0  0  0
  -22.6050   -4.3440   21.4640 F   0  0  0  0  0  0  0  0  0  0  0  0
  -21.2660   -3.9140   26.0260 F   0  0  0  0  0  0  0  0  0  0  0  0
  -22.9520  -13.6080   21.2360 C   0  0  0  0  0  0  0  0  0  0  0  0
  -22.2540  -12.8950   22.1130 N   0  0  0  0  0  0  0  0  0  0  0  0
  -22.5030  -14.6500   20.7610 O   0  0  0  0  0  0  0  0  0  0  0  0
  -22.6310  -12.0510   22.5160 H   0  0  0  0  0  0  0  0  0  0  0  0
  -21.3310  -13.2010   22.3860 H   0  0  0  0  0  0  0  0  0  0  0  0
  -25.5660  -15.2700   20.3500 N   0  0  0  0  0  0  0  0  0  0  0  0
  -24.8130  -15.9310   20.5060 H   0  0  0  0  0  0  0  0  0  0  0  0
  -26.4080  -15.7080   19.9980 H   0  0  0  0  0  0  0  0  0  0  0  0
  1  4  1  0
  1 48  1  0
  2  1  2  0
  3  7  1  0
  3  4  2  0
  4  5  1  0
  5  6  1  0
  8 19  2  0
  9  7  1  0
  9 14  1  0
 10 18  1  0
 10 20  1  0
 11 17  1  0
 11 13  1  0
 12 18  1  0
 13 12  1  0
 14 13  2  0
 15  9  2  0
 16 15  1  0
 16 11  2  0
 17 10  1  0
 18  8  1  0
 20 22  2  0
 21 20  1  0
 23 21  1  0
 24 33  2  0
 24 29  1  0
 25 21  1  0
 25 29  1  0
 26 25  1  0
 27 28  1  0
 27 26  1  0
 28 24  1  0
 29 30  2  0
 30 31  1  0
 32 31  2  0
 33 32  1  0
 34  8  1  0
 34 39  1  0
 34 35  1  0
 35 38  1  1
 35 36  1  0
 37 35  1  0
 39 42  1  0
 40 44  1  0
 40 39  1  0
 41 40  2  0
 44 43  1  0
 46 47  1  0
 46 44  1  0
 46 45  1  0
 49 48  1  0
 49 50  2  0
 51 64  1  0
 52 57  1  0
 53 54  1  0
 53 52  1  0
 55 54  1  0
 55 70  1  0
 55 56  1  0
 57 51  1  0
 57 56  1  0
 58 51  2  0
 59 49  1  0
 59 63  1  0
 60 59  2  0
 61 64  1  0
 61 63  2  0
 62 60  1  0
 64 66  1  0
 65 60  1  0
 65 61  1  0
 67 68  2  0
 68 87  1  0
 69 68  1  0
 69 72  1  0
 70 71  1  0
 70 67  1  0
 71 69  2  0
 72 73  1  0
 73 74  2  0
 75 78  1  0
 75 74  1  0
 76 75  2  0
 77 76  1  0
 77 72  2  0
 78 79  1  0
 79 80  1  0
 80 81  2  0
 82 81  1  0
 82 86  1  0
 83 82  2  0
 84 79  2  0
 84 83  1  0
 85 84  1  0
 87 88  1  0
 88 91  1  0
 88 90  1  0
 89 87  2  0
 92 67  1  0
 92 93  1  0
 94 92  1  0
M  ISO  4   3 101   7 101  51 100  64 100
M  END
>  <TORSDO>  (90) 
F 20

>  <SCORE>  (90) 
-13.969

>  <name>  (90) 
89

>  <ligand_id>  (90) 
89

>  <original_smiles>  (90) 
[H]OC(C(=O)C([H])([H])C(=O)c1nc(N([H])C(=O)N2C([H])([H])C([H])([H])C([H])([H])C([H])(n3nc(-c4c([H])c([H])c(Oc5c([H])c([H])c(F)c([H])c5F)c([H])c4[H])c(C(=O)N([H])[H])c3N([H])[H])C2([H])[H])sc1C([H])([H])[H])=C([H])Oc1c([H])c([H])c2c(c1[H])C([H])([H])N(C(=O)C([H])(N([H])C(=O)C([H])(N([H])C([H])([H])[H])C([H])([H])[H])C(C([H])([H])[H])(C([H])([H])[H])C([H])([H])[H])C([H])(C(=O)N([H])C1([H])c3c([H])c([H])c([H])c([H])c3C([H])([H])C([H])([H])C1([H])[H])C2([H])[H]

>  <smiles>  (90) 
[H]OC(C(=O)C([H])([H])C(=O)c1nc(N([H])C(=O)N2C([H])([H])C([H])([H])C([H])([H])C([H])(n3nc(-c4c([H])c([H])c(Oc5c([H])c([H])c(F)c([H])c5F)c([H])c4[H])c(C(=O)N([H])[H])c3N([H])[H])C2([H])[H])sc1C([H])([H])[H])=C([H])Oc1c([H])c([H])c2c(c1[H])C([H])([H])N(C(=O)C([H])(N([H])C(=O)C([H])(N([H])C([H])([H])[H])C([H])([H])[H])C(C([H])([H])[H])(C([H])([H])[H])C([H])([H])[H])C([H])(C(=O)N([H])C1([H])c3c([H])c([H])c([H])c([H])c3C([H])([H])C([H])([H])C1([H])[H])C2([H])[H]

$$$$
90:0:0
     RDKit          3D

 96104  0  0  1  0  0  0  0  0999 V2000
  -29.4210  -21.3590   21.8100 C   0  0  0  0  0  0  0  0  0  0  0  0
  -30.5590  -20.6440   21.7800 N   0  0  0  0  0  0  0  0  0  0  0  0
  -28.3240  -20.9350   21.4400 O   0  0  0  0  0  0  0  0  0  0  0  0
  -31.3900  -21.1600   22.0370 H   0  0  0  0  0  0  0  0  0  0  0  0
  -31.8210  -17.4990   20.4390 C   0  0  0  0  0  3  0  0  0  0  0  0
  -31.9030  -18.8910   20.7580 C   0  0  0  0  0  0  0  0  0  0  0  0
  -30.6560  -16.8840   20.8270 C   0  0  0  0  0  0  0  0  0  0  0  0
  -30.7630  -19.3600   21.3750 C   0  0  0  0  0  0  0  0  0  0  0  0
  -29.6220  -18.0430   21.6200 S   0  0  0  0  0  0  0  0  0  0  0  0
  -30.8910  -14.6110   19.9950 C   0  0  0  0  0  0  0  0  0  0  0  0
  -30.5750  -12.4010   18.9450 C   0  0  0  0  0  2  0  0  0  0  0  0
  -29.5750  -12.5080   17.7780 C   0  0  0  0  0  2  0  0  0  0  0  0
  -28.1270  -12.3590   18.2830 C   0  0  0  0  0  2  0  0  0  0  0  0
  -27.8240  -13.2650   19.5050 C   0  0  0  0  0  3  0  0  0  0  0  0
  -28.9280  -13.1300   20.5760 C   0  0  0  0  0  2  0  0  0  0  0  0
  -30.2230  -13.4270   19.9370 N   0  0  0  0  0  0  0  0  0  0  0  0
  -31.9470  -14.8070   19.3880 O   0  0  0  0  0  0  0  0  0  0  0  0
  -30.2700  -15.5850   20.6870 N   0  0  0  0  0  0  0  0  0  0  0  0
  -29.3630  -15.3400   21.0540 H   0  0  0  0  0  0  0  0  0  0  0  0
  -25.4720  -13.8700   20.3610 C   0  0  0  0  0  0  0  0  0  0  0  0
  -24.4240  -13.0940   20.7790 C   0  0  0  0  0  0  0  0  0  0  0  0
  -24.8760  -11.7420   20.6970 C   0  0  0  0  0  0  0  0  0  0  0  0
  -26.4980  -12.9890   20.0560 N   0  0  0  0  0  0  0  0  0  0  0  0
  -26.1460  -11.7030   20.3140 N   0  0  0  0  0  0  0  0  0  0  0  0
  -24.1580  -10.4780   20.9080 C   0  0  0  0  0  0  0  0  0  0  0  0
  -24.5800   -9.5420   21.8770 C   0  0  0  0  0  3  0  0  0  0  0  0
  -23.8620   -8.3420   22.0730 C   0  0  0  0  0  3  0  0  0  0  0  0
  -22.7090   -8.0710   21.2990 C   0  0  0  0  0  0  0  0  0  0  0  0
  -22.3070   -8.9960   20.3190 C   0  0  0  0  0  3  0  0  0  0  0  0
  -23.0260  -10.1870   20.1230 C   0  0  0  0  0  3  0  0  0  0  0  0
  -21.9640   -6.9210   21.4010 O   0  0  0  0  0  0  0  0  0  0  0  0
  -21.8080   -6.2690   22.5980 C   0  0  0  0  0  0  0  0  0  0  0  0
  -21.2530   -6.9070   23.7280 C   0  0  0  0  0  3  0  0  0  0  0  0
  -21.0460   -6.1790   24.9170 C   0  0  0  0  0  3  0  0  0  0  0  0
  -21.3860   -4.8150   24.9760 C   0  0  0  0  0  0  0  0  0  0  0  0
  -21.9360   -4.1760   23.8500 C   0  0  0  0  0  3  0  0  0  0  0  0
  -22.1430   -4.9010   22.6640 C   0  0  0  0  0  0  0  0  0  0  0  0
  -22.6530   -4.2760   21.5760 F   0  0  0  0  0  0  0  0  0  0  0  0
  -21.1820   -4.1130   26.1150 F   0  0  0  0  0  0  0  0  0  0  0  0
  -23.0480  -13.5700   21.1440 C   0  0  0  0  0  0  0  0  0  0  0  0
  -22.3780  -12.8710   22.0540 N   0  0  0  0  0  0  0  0  0  0  0  0
  -22.5760  -14.5980   20.6580 O   0  0  0  0  0  0  0  0  0  0  0  0
  -22.7750  -12.0400   22.4670 H   0  0  0  0  0  0  0  0  0  0  0  0
  -21.4570  -13.1720   22.3410 H   0  0  0  0  0  0  0  0  0  0  0  0
  -25.6330  -15.2420   20.1990 N   0  0  0  0  0  0  0  0  0  0  0  0
  -24.8780  -15.8990   20.3650 H   0  0  0  0  0  0  0  0  0  0  0  0
  -26.4670  -15.6830   19.8310 H   0  0  0  0  0  0  0  0  0  0  0  0
  -33.0160  -20.2560   18.9710 C   0  0  0  0  0  1  0  0  0  0  0  0
  -34.4350  -19.0190   20.6630 C   0  0  0  0  0  1  0  0  0  0  0  0
  -33.1020  -19.7440   20.4160 C   0  0  0  0  0  3  0  0  0  0  0  0
  -29.5390  -22.7950   22.3260 C   0  0  0  0  0  2  0  0  0  0  0  0
  -29.3940  -23.8490   21.1990 C   0  0  0  0  0  2  0  0  0  0  0  0
  -28.4890  -25.0320   21.5570 C   0  0  0  0  0  0  0  0  0  0  0  0
  -27.3770  -24.8520   22.0670 O   0  0  0  0  0  0  0  0  0  0  0  0
  -29.0080  -26.4460   21.2530 C   0  0  0  0  0  2  0  0  0  0  0  0
  -28.4650  -26.9170   20.0180 O   0  0  0  0  0  0  0  0  0  0  0  0
  -24.6470  -31.9970   23.2760 C   0  0  0  0  0  0  0  0  0  0  0  0
  -27.3020  -27.6390   20.1120 C   0  0  0  0  0  0  0  0  0  0  0  0
  -23.4310  -30.5960   21.6380 C   0  0  0  0  0  3  0  0  0  0  0  0
  -24.8840  -29.0910   20.1780 C   0  0  0  0  0  0  0  0  0  0  0  0
  -25.9450  -30.9940   21.4050 C   0  0  0  0  0  2  0  0  0  0  0  0
  -26.0390  -29.6290   20.7590 C   0  0  0  0  0  0  0  0  0  0  0  0
  -27.2520  -28.9060   20.7340 C   0  0  0  0  0  3  0  0  0  0  0  0
  -26.1370  -27.1130   19.5180 C   0  0  0  0  0  3  0  0  0  0  0  0
  -24.9250  -27.8290   19.5600 C   0  0  0  0  0  3  0  0  0  0  0  0
  -23.6270  -29.9280   20.2510 C   0  0  0  0  0  2  0  0  0  0  0  0
  -24.6930  -31.2100   22.1640 N   0  0  0  0  0  0  0  0  0  0  0  0
  -23.5730  -32.2490   23.8370 O   0  0  0  0  0  0  0  0  0  0  0  0
  -22.8100  -29.5570   22.6000 C   0  0  0  0  0  0  0  0  0  0  0  0
  -21.4950  -29.3250   22.4600 N   0  0  0  0  0  0  0  0  0  0  0  0
  -23.5090  -28.9620   23.4230 O   0  0  0  0  0  0  0  0  0  0  0  0
  -20.9930  -29.8560   21.7620 H   0  0  0  0  0  0  0  0  0  0  0  0
  -18.1690  -27.9870   22.9000 C   0  0  0  0  0  0  0  0  0  0  0  0
  -20.7040  -28.3630   23.2280 C   0  0  0  0  0  3  0  0  0  0  0  0
  -20.8870  -26.9300   22.6770 C   0  0  0  0  0  2  0  0  0  0  0  0
  -19.8250  -26.5430   21.6430 C   0  0  0  0  0  2  0  0  0  0  0  0
  -18.4220  -26.6360   22.2520 C   0  0  0  0  0  2  0  0  0  0  0  0
  -19.2420  -28.8040   23.3430 C   0  0  0  0  0  0  0  0  0  0  0  0
  -18.9540  -30.0660   23.9070 C   0  0  0  0  0  3  0  0  0  0  0  0
  -17.6240  -30.5120   24.0330 C   0  0  0  0  0  3  0  0  0  0  0  0
  -16.5650  -29.6900   23.6100 C   0  0  0  0  0  3  0  0  0  0  0  0
  -16.8380  -28.4310   23.0480 C   0  0  0  0  0  3  0  0  0  0  0  0
  -25.9380  -32.6360   23.8800 C   0  0  0  0  0  3  0  0  0  0  0  0
  -25.6210  -34.0280   24.2230 N   0  0  0  0  0  0  0  0  0  0  0  0
  -25.9360  -35.0880   23.4680 C   0  0  0  0  0  0  0  0  0  0  0  0
  -26.5970  -34.9980   22.4290 O   0  0  0  0  0  0  0  0  0  0  0  0
  -25.0320  -34.1730   25.0310 H   0  0  0  0  0  0  0  0  0  0  0  0
  -24.1880  -36.8660   23.1410 C   0  0  0  0  0  1  0  0  0  0  0  0
  -25.4390  -36.4680   23.9390 C   0  0  0  0  0  3  0  0  0  0  0  0
  -27.5740  -37.3650   24.7550 C   0  0  0  0  0  1  0  0  0  0  0  0
  -26.4610  -37.5310   23.8250 N   0  0  0  0  0  0  0  0  0  0  0  0
  -26.0500  -38.4460   23.9820 H   0  0  0  0  0  0  0  0  0  0  0  0
  -26.4850  -31.8610   25.1410 C   0  0  1  0  0  0  0  0  0  0  0  0
  -25.4070  -31.5860   26.2160 C   0  0  0  0  0  1  0  0  0  0  0  0
  -27.0960  -30.5020   24.7250 C   0  0  0  0  0  1  0  0  0  0  0  0
  -27.6240  -32.6730   25.8010 C   0  0  0  0  0  1  0  0  0  0  0  0
  1 51  1  0
  2  1  1  0
  2  4  1  0
  3  1  2  0
  5  6  1  0
  5  7  2  0
  6  8  2  0
  7  9  1  0
  8  9  1  0
  8  2  1  0
 10 18  1  0
 11 16  1  0
 12 13  1  0
 12 11  1  0
 14 13  1  0
 14 23  1  0
 14 15  1  0
 16 10  1  0
 16 15  1  0
 17 10  2  0
 18  7  1  0
 18 19  1  0
 20 21  2  0
 21 40  1  0
 22 21  1  0
 22 25  1  0
 23 24  1  0
 23 20  1  0
 24 22  2  0
 25 26  1  0
 26 27  2  0
 28 31  1  0
 28 27  1  0
 29 28  2  0
 30 29  1  0
 30 25  2  0
 31 32  1  0
 32 37  2  0
 32 33  1  0
 33 34  2  0
 34 35  1  0
 35 39  1  0
 36 35  2  0
 37 36  1  0
 38 37  1  0
 40 41  1  0
 41 44  1  0
 41 43  1  0
 42 40  2  0
 45 20  1  0
 45 46  1  0
 47 45  1  0
 48 50  1  0
 50 49  1  0
 50  6  1  0
 52 53  1  0
 52 51  1  0
 53 54  2  0
 55 53  1  0
 56 58  1  0
 56 55  1  0
 57 68  2  0
 58 63  1  0
 59 67  1  0
 59 69  1  0
 60 66  1  0
 60 62  1  0
 61 67  1  0
 62 61  1  0
 63 62  2  0
 64 65  1  0
 64 58  2  0
 65 60  2  0
 66 59  1  0
 67 57  1  0
 69 71  2  0
 70 69  1  0
 72 70  1  0
 73 82  2  0
 73 78  1  0
 74 70  1  0
 74 78  1  0
 75 74  1  0
 76 77  1  0
 76 75  1  0
 77 73  1  0
 78 79  2  0
 79 80  1  0
 81 80  2  0
 82 81  1  0
 83 57  1  0
 83 84  1  0
 83 93  1  0
 84 87  1  0
 85 89  1  0
 85 84  1  0
 86 85  2  0
 89 88  1  0
 91 89  1  0
 91 92  1  0
 91 90  1  0
 93 96  1  1
 93 94  1  0
 95 93  1  0
M  ISO  4  10 100  18 100  55 101  56 101
M  END
>  <TORSDO>  (91) 
F 22

>  <SCORE>  (91) 
-12.761

>  <name>  (91) 
90

>  <ligand_id>  (91) 
90

>  <original_smiles>  (91) 
[H]c1c([H])c([H])c2c(c1[H])C([H])([H])C([H])([H])C([H])([H])C2([H])N([H])C(=O)C1([H])N(C(=O)C([H])(N([H])C(=O)C([H])(N([H])C([H])([H])[H])C([H])([H])[H])C(C([H])([H])[H])(C([H])([H])[H])C([H])([H])[H])C([H])([H])c2c([H])c(OC([H])([H])C(=O)C([H])([H])C([H])([H])C(=O)N([H])c3sc(N([H])C(=O)N4C([H])([H])C([H])([H])C([H])([H])C([H])(n5nc(-c6c([H])c([H])c(Oc7c([H])c([H])c(F)c([H])c7F)c([H])c6[H])c(C(=O)N([H])[H])c5N([H])[H])C4([H])[H])c([H])c3C([H])(C([H])([H])[H])C([H])([H])[H])c([H])c([H])c2C1([H])[H]

>  <smiles>  (91) 
[H]c1c([H])c([H])c2c(c1[H])C([H])([H])C([H])([H])C([H])([H])C2([H])N([H])C(=O)C1([H])N(C(=O)C([H])(N([H])C(=O)C([H])(N([H])C([H])([H])[H])C([H])([H])[H])C(C([H])([H])[H])(C([H])([H])[H])C([H])([H])[H])C([H])([H])c2c([H])c(OC([H])([H])C(=O)C([H])([H])C([H])([H])C(=O)N([H])c3sc(N([H])C(=O)N4C([H])([H])C([H])([H])C([H])([H])C([H])(n5nc(-c6c([H])c([H])c(Oc7c([H])c([H])c(F)c([H])c7F)c([H])c6[H])c(C(=O)N([H])[H])c5N([H])[H])C4([H])[H])c([H])c3C([H])(C([H])([H])[H])C([H])([H])[H])c([H])c([H])c2C1([H])[H]

$$$$
91:0:0
     RDKit          3D

 93101  0  0  1  0  0  0  0  0999 V2000
  -28.6080  -22.8400   20.1460 C   0  0  0  0  0  0  0  0  0  0  0  0
  -28.8670  -21.9150   21.1050 N   0  0  0  0  0  0  0  0  0  0  0  0
  -28.5840  -22.5220   18.9530 O   0  0  0  0  0  0  0  0  0  0  0  0
  -28.6460  -22.2470   22.0350 H   0  0  0  0  0  0  0  0  0  0  0  0
  -28.2920  -25.2790   19.8150 C   0  0  0  0  0  3  0  0  0  0  0  0
  -28.5000  -24.2280   20.6590 C   0  0  0  0  0  0  0  0  0  0  0  0
  -28.6640  -24.4520   21.9770 O   0  0  0  0  0  0  0  0  0  0  0  0
  -28.5890  -25.3840   22.1200 H   0  0  0  0  0  0  0  0  0  0  0  0
  -28.3270  -26.6180   20.1980 O   0  0  0  0  0  0  0  0  0  0  0  0
  -24.6650  -31.9010   23.2890 C   0  0  0  0  0  0  0  0  0  0  0  0
  -27.1900  -27.4070   20.1510 C   0  0  0  0  0  0  0  0  0  0  0  0
  -23.4200  -30.5280   21.6500 C   0  0  0  0  0  3  0  0  0  0  0  0
  -24.8300  -28.9870   20.1870 C   0  0  0  0  0  0  0  0  0  0  0  0
  -25.9500  -30.8460   21.4240 C   0  0  0  0  0  2  0  0  0  0  0  0
  -26.0030  -29.4770   20.7690 C   0  0  0  0  0  0  0  0  0  0  0  0
  -27.1830  -28.6940   20.7550 C   0  0  0  0  0  3  0  0  0  0  0  0
  -26.0020  -26.9520   19.5370 C   0  0  0  0  0  3  0  0  0  0  0  0
  -24.8300  -27.7300   19.5580 C   0  0  0  0  0  3  0  0  0  0  0  0
  -23.5970  -29.8610   20.2620 C   0  0  0  0  0  2  0  0  0  0  0  0
  -24.6980  -31.1060   22.1800 N   0  0  0  0  0  0  0  0  0  0  0  0
  -23.5940  -32.1820   23.8420 O   0  0  0  0  0  0  0  0  0  0  0  0
  -22.7670  -29.5070   22.6120 C   0  0  0  0  0  0  0  0  0  0  0  0
  -21.4430  -29.3190   22.4820 N   0  0  0  0  0  0  0  0  0  0  0  0
  -23.4520  -28.8800   23.4250 O   0  0  0  0  0  0  0  0  0  0  0  0
  -20.9440  -29.8760   21.8040 H   0  0  0  0  0  0  0  0  0  0  0  0
  -18.0780  -28.0900   22.9530 C   0  0  0  0  0  0  0  0  0  0  0  0
  -20.6300  -28.3790   23.2530 C   0  0  0  0  0  3  0  0  0  0  0  0
  -20.7510  -26.9400   22.6910 C   0  0  0  0  0  2  0  0  0  0  0  0
  -19.6660  -26.5980   21.6670 C   0  0  0  0  0  2  0  0  0  0  0  0
  -18.2750  -26.7390   22.2930 C   0  0  0  0  0  2  0  0  0  0  0  0
  -19.1840  -28.8700   23.3890 C   0  0  0  0  0  0  0  0  0  0  0  0
  -18.9410  -30.1400   23.9590 C   0  0  0  0  0  3  0  0  0  0  0  0
  -17.6280  -30.6250   24.1040 C   0  0  0  0  0  3  0  0  0  0  0  0
  -16.5400  -29.8410   23.6820 C   0  0  0  0  0  3  0  0  0  0  0  0
  -16.7660  -28.5760   23.1140 C   0  0  0  0  0  3  0  0  0  0  0  0
  -25.9680  -32.5120   23.8950 C   0  0  0  0  0  3  0  0  0  0  0  0
  -26.4980  -31.7290   25.1630 C   0  0  1  0  0  0  0  0  0  0  0  0
  -25.4180  -31.4970   26.2450 C   0  0  0  0  0  1  0  0  0  0  0  0
  -27.0570  -30.3460   24.7520 C   0  0  0  0  0  1  0  0  0  0  0  0
  -27.6610  -32.5130   25.8180 C   0  0  0  0  0  1  0  0  0  0  0  0
  -25.6780  -33.9080   24.2410 N   0  0  0  0  0  0  0  0  0  0  0  0
  -25.9760  -34.9620   23.4680 C   0  0  0  0  0  0  0  0  0  0  0  0
  -26.5990  -34.8610   22.4080 O   0  0  0  0  0  0  0  0  0  0  0  0
  -25.1360  -34.0670   25.0770 H   0  0  0  0  0  0  0  0  0  0  0  0
  -24.2220  -36.7420   23.2120 C   0  0  0  0  0  1  0  0  0  0  0  0
  -25.5130  -36.3480   23.9490 C   0  0  0  0  0  3  0  0  0  0  0  0
  -27.6900  -37.2440   24.6460 C   0  0  0  0  0  1  0  0  0  0  0  0
  -26.5290  -37.4080   23.7730 N   0  0  0  0  0  0  0  0  0  0  0  0
  -26.1300  -38.3250   23.9510 H   0  0  0  0  0  0  0  0  0  0  0  0
  -29.9960  -20.9450   21.0700 C   0  0  0  0  0  2  0  0  0  0  0  0
  -30.7050  -14.5940   20.3320 C   0  0  0  0  0  0  0  0  0  0  0  0
  -30.4840  -12.4060   19.1810 C   0  0  0  0  0  2  0  0  0  0  0  0
  -29.5190  -12.5750   17.9860 C   0  0  0  0  0  2  0  0  0  0  0  0
  -28.0530  -12.3940   18.4380 C   0  0  0  0  0  2  0  0  0  0  0  0
  -27.7200  -13.2240   19.7030 C   0  0  0  0  0  3  0  0  0  0  0  0
  -28.7900  -13.0190   20.7980 C   0  0  0  0  0  2  0  0  0  0  0  0
  -30.1000  -13.3760   20.2240 N   0  0  0  0  0  0  0  0  0  0  0  0
  -31.8000  -14.8270   19.7980 O   0  0  0  0  0  0  0  0  0  0  0  0
  -29.3680  -18.8540   19.6020 C   0  0  0  0  0  3  0  0  0  0  0  0
  -29.7520  -19.4620   20.7810 C   0  0  0  0  0  0  0  0  0  0  0  0
  -29.9240  -16.9500   20.7660 C   0  0  0  0  0  0  0  0  0  0  0  0
  -29.4760  -17.4430   19.6000 N   0  0  0  0  0  0  0  0  0  0  0  0
  -30.0160  -15.5390   21.0220 N   0  0  0  0  0  0  0  0  0  0  0  0
  -30.1510  -18.2220   21.9790 S   0  0  0  0  0  0  0  0  0  0  0  0
  -29.2920  -15.1810   21.6240 H   0  0  0  0  0  0  0  0  0  0  0  0
  -25.3310  -13.8130   20.4570 C   0  0  0  0  0  0  0  0  0  0  0  0
  -24.2740  -13.0330   20.8400 C   0  0  0  0  0  0  0  0  0  0  0  0
  -24.7430  -11.6850   20.7890 C   0  0  0  0  0  0  0  0  0  0  0  0
  -26.3760  -12.9390   20.1990 N   0  0  0  0  0  0  0  0  0  0  0  0
  -26.0270  -11.6550   20.4540 N   0  0  0  0  0  0  0  0  0  0  0  0
  -24.0310  -10.4160   20.9830 C   0  0  0  0  0  0  0  0  0  0  0  0
  -24.4720   -9.4590   21.9240 C   0  0  0  0  0  3  0  0  0  0  0  0
  -23.7590   -8.2540   22.1040 C   0  0  0  0  0  3  0  0  0  0  0  0
  -22.5930   -7.9980   21.3440 C   0  0  0  0  0  0  0  0  0  0  0  0
  -22.1740   -8.9450   20.3920 C   0  0  0  0  0  3  0  0  0  0  0  0
  -22.8860  -10.1420   20.2080 C   0  0  0  0  0  3  0  0  0  0  0  0
  -21.8500   -6.8430   21.4320 O   0  0  0  0  0  0  0  0  0  0  0  0
  -21.7750   -6.1260   22.5980 C   0  0  0  0  0  0  0  0  0  0  0  0
  -21.2990   -6.6980   23.7960 C   0  0  0  0  0  3  0  0  0  0  0  0
  -21.1680   -5.9050   24.9540 C   0  0  0  0  0  3  0  0  0  0  0  0
  -21.5080   -4.5400   24.9150 C   0  0  0  0  0  0  0  0  0  0  0  0
  -21.9790   -3.9660   23.7190 C   0  0  0  0  0  3  0  0  0  0  0  0
  -22.1110   -4.7560   22.5630 C   0  0  0  0  0  0  0  0  0  0  0  0
  -22.5430   -4.1950   21.4090 F   0  0  0  0  0  0  0  0  0  0  0  0
  -21.3800   -3.7750   26.0260 F   0  0  0  0  0  0  0  0  0  0  0  0
  -22.8790  -13.4990   21.1420 C   0  0  0  0  0  0  0  0  0  0  0  0
  -22.1730  -12.7950   22.0210 N   0  0  0  0  0  0  0  0  0  0  0  0
  -22.4230  -14.5240   20.6350 O   0  0  0  0  0  0  0  0  0  0  0  0
  -22.5540  -11.9650   22.4510 H   0  0  0  0  0  0  0  0  0  0  0  0
  -21.2340  -13.0840   22.2560 H   0  0  0  0  0  0  0  0  0  0  0  0
  -25.4870  -15.1850   20.2860 N   0  0  0  0  0  0  0  0  0  0  0  0
  -24.7120  -15.8320   20.3680 H   0  0  0  0  0  0  0  0  0  0  0  0
  -26.3340  -15.6270   19.9500 H   0  0  0  0  0  0  0  0  0  0  0  0
  1  6  1  0
  1  2  1  0
  2  4  1  0
  3  1  2  0
  5  9  1  0
  5  6  2  0
  6  7  1  0
  7  8  1  0
 10 21  2  0
 11  9  1  0
 11 16  1  0
 12 20  1  0
 12 22  1  0
 13 19  1  0
 13 15  1  0
 14 20  1  0
 15 14  1  0
 16 15  2  0
 17 18  1  0
 17 11  2  0
 18 13  2  0
 19 12  1  0
 20 10  1  0
 22 24  2  0
 23 22  1  0
 25 23  1  0
 26 35  2  0
 26 31  1  0
 27 23  1  0
 27 31  1  0
 28 27  1  0
 29 30  1  0
 29 28  1  0
 30 26  1  0
 31 32  2  0
 32 33  1  0
 34 33  2  0
 35 34  1  0
 36 10  1  0
 36 41  1  0
 36 37  1  0
 37 40  1  1
 37 38  1  0
 39 37  1  0
 41 44  1  0
 42 46  1  0
 42 41  1  0
 43 42  2  0
 46 45  1  0
 48 46  1  0
 48 49  1  0
 48 47  1  0
 50  2  1  0
 51 63  1  0
 52 57  1  0
 53 54  1  0
 53 52  1  0
 55 54  1  0
 55 69  1  0
 55 56  1  0
 57 51  1  0
 57 56  1  0
 58 51  2  0
 59 60  2  0
 60 50  1  0
 60 64  1  0
 61 63  1  0
 61 64  1  0
 62 59  1  0
 62 61  2  0
 63 65  1  0
 66 67  2  0
 67 86  1  0
 68 67  1  0
 68 71  1  0
 69 70  1  0
 69 66  1  0
 70 68  2  0
 71 72  1  0
 72 73  2  0
 74 77  1  0
 74 73  1  0
 75 74  2  0
 76 75  1  0
 76 71  2  0
 77 78  1  0
 78 79  1  0
 79 80  2  0
 81 80  1  0
 81 85  1  0
 82 81  2  0
 83 78  2  0
 83 82  1  0
 84 83  1  0
 86 87  1  0
 87 90  1  0
 87 89  1  0
 88 86  2  0
 91 92  1  0
 91 66  1  0
 93 91  1  0
M  ISO  4   5 101   9 101  51 100  63 100
M  END
>  <TORSDO>  (92) 
F 19

>  <SCORE>  (92) 
-14.114

>  <name>  (92) 
91

>  <ligand_id>  (92) 
91

>  <original_smiles>  (92) 
[H]OC(C(=O)N([H])C([H])([H])c1sc(N([H])C(=O)N2C([H])([H])C([H])([H])C([H])([H])C([H])(n3nc(-c4c([H])c([H])c(Oc5c([H])c([H])c(F)c([H])c5F)c([H])c4[H])c(C(=O)N([H])[H])c3N([H])[H])C2([H])[H])nc1[H])=C([H])Oc1c([H])c([H])c2c(c1[H])C([H])([H])N(C(=O)C([H])(N([H])C(=O)C([H])(N([H])C([H])([H])[H])C([H])([H])[H])C(C([H])([H])[H])(C([H])([H])[H])C([H])([H])[H])C([H])(C(=O)N([H])C1([H])c3c([H])c([H])c([H])c([H])c3C([H])([H])C([H])([H])C1([H])[H])C2([H])[H]

>  <smiles>  (92) 
[H]OC(C(=O)N([H])C([H])([H])c1sc(N([H])C(=O)N2C([H])([H])C([H])([H])C([H])([H])C([H])(n3nc(-c4c([H])c([H])c(Oc5c([H])c([H])c(F)c([H])c5F)c([H])c4[H])c(C(=O)N([H])[H])c3N([H])[H])C2([H])[H])nc1[H])=C([H])Oc1c([H])c([H])c2c(c1[H])C([H])([H])N(C(=O)C([H])(N([H])C(=O)C([H])(N([H])C([H])([H])[H])C([H])([H])[H])C(C([H])([H])[H])(C([H])([H])[H])C([H])([H])[H])C([H])(C(=O)N([H])C1([H])c3c([H])c([H])c([H])c([H])c3C([H])([H])C([H])([H])C1([H])[H])C2([H])[H]

$$$$
92:0:0
     RDKit          3D

 96104  0  0  1  0  0  0  0  0999 V2000
  -28.2400  -18.3990   18.2830 C   0  0  0  0  0  3  0  0  0  0  0  0
  -28.3600  -19.7130   18.7720 C   0  0  0  0  0  0  0  0  0  0  0  0
  -28.8030  -17.3020   18.9620 C   0  0  0  0  0  0  0  0  0  0  0  0
  -29.0750  -19.9750   19.9610 C   0  0  0  0  0  0  0  0  0  0  0  0
  -29.4800  -17.4820   20.1870 C   0  0  0  0  0  0  0  0  0  0  0  0
  -28.6110  -22.6320   20.3790 C   0  0  0  0  0  0  0  0  0  0  0  0
  -29.6050  -18.8350   20.6480 N   0  0  0  0  0  0  0  0  0  0  0  0
  -29.3650  -21.4610   20.1100 N   0  0  0  0  0  0  0  0  0  0  0  0
  -27.8410  -22.6740   21.3420 O   0  0  0  0  0  0  0  0  0  0  0  0
  -27.8330  -20.7280   18.0440 F   0  0  0  0  0  0  0  0  0  0  0  0
  -28.6430  -16.0640   18.4350 F   0  0  0  0  0  0  0  0  0  0  0  0
  -30.0230  -21.7450   19.3960 H   0  0  0  0  0  0  0  0  0  0  0  0
  -30.5120  -15.0080   20.5550 C   0  0  0  0  0  0  0  0  0  0  0  0
  -30.4450  -12.6450   19.6690 C   0  0  0  0  0  2  0  0  0  0  0  0
  -29.5610  -12.6040   18.4000 C   0  0  0  0  0  2  0  0  0  0  0  0
  -28.0860  -12.3800   18.7770 C   0  0  0  0  0  2  0  0  0  0  0  0
  -27.6260  -13.3060   19.9330 C   0  0  0  0  0  3  0  0  0  0  0  0
  -28.6380  -13.3320   21.1010 C   0  0  0  0  0  2  0  0  0  0  0  0
  -29.9400  -13.7380   20.5510 N   0  0  0  0  0  0  0  0  0  0  0  0
  -31.6960  -15.0930   20.2090 O   0  0  0  0  0  0  0  0  0  0  0  0
  -29.7610  -16.1610   20.8950 N   0  0  0  0  0  0  0  0  0  0  0  0
  -28.9600  -15.8840   21.4370 H   0  0  0  0  0  0  0  0  0  0  0  0
  -25.2120  -13.8730   20.5640 C   0  0  0  0  0  0  0  0  0  0  0  0
  -24.1410  -13.0920   20.8990 C   0  0  0  0  0  0  0  0  0  0  0  0
  -24.6200  -11.7460   20.9020 C   0  0  0  0  0  0  0  0  0  0  0  0
  -26.2720  -13.0020   20.3770 N   0  0  0  0  0  0  0  0  0  0  0  0
  -25.9220  -11.7180   20.6450 N   0  0  0  0  0  0  0  0  0  0  0  0
  -23.9000  -10.4780   21.0760 C   0  0  0  0  0  0  0  0  0  0  0  0
  -24.3020   -9.5270   22.0380 C   0  0  0  0  0  3  0  0  0  0  0  0
  -23.5810   -8.3240   22.2010 C   0  0  0  0  0  3  0  0  0  0  0  0
  -22.4440   -8.0650   21.4000 C   0  0  0  0  0  0  0  0  0  0  0  0
  -22.0620   -9.0050   20.4270 C   0  0  0  0  0  3  0  0  0  0  0  0
  -22.7830  -10.1990   20.2640 C   0  0  0  0  0  3  0  0  0  0  0  0
  -21.6970   -6.9130   21.4690 O   0  0  0  0  0  0  0  0  0  0  0  0
  -21.6020   -6.1870   22.6290 C   0  0  0  0  0  0  0  0  0  0  0  0
  -21.1060   -6.7510   23.8240 C   0  0  0  0  0  3  0  0  0  0  0  0
  -20.9600   -5.9490   24.9740 C   0  0  0  0  0  3  0  0  0  0  0  0
  -21.3010   -4.5840   24.9300 C   0  0  0  0  0  0  0  0  0  0  0  0
  -21.7910   -4.0200   23.7390 C   0  0  0  0  0  3  0  0  0  0  0  0
  -21.9390   -4.8190   22.5920 C   0  0  0  0  0  0  0  0  0  0  0  0
  -22.3910   -4.2650   21.4410 F   0  0  0  0  0  0  0  0  0  0  0  0
  -21.1550   -3.8120   26.0310 F   0  0  0  0  0  0  0  0  0  0  0  0
  -22.7300  -13.5580   21.1070 C   0  0  0  0  0  0  0  0  0  0  0  0
  -21.9710  -12.8620   21.9470 N   0  0  0  0  0  0  0  0  0  0  0  0
  -22.3070  -14.5770   20.5620 O   0  0  0  0  0  0  0  0  0  0  0  0
  -22.3260  -12.0410   22.4130 H   0  0  0  0  0  0  0  0  0  0  0  0
  -21.0230  -13.1580   22.1280 H   0  0  0  0  0  0  0  0  0  0  0  0
  -25.3700  -15.2430   20.3740 N   0  0  0  0  0  0  0  0  0  0  0  0
  -24.5840  -15.8830   20.4200 H   0  0  0  0  0  0  0  0  0  0  0  0
  -26.2070  -15.6670   19.9940 H   0  0  0  0  0  0  0  0  0  0  0  0
  -28.8360  -23.8220   19.4270 C   0  0  0  0  0  0  0  0  0  0  0  0
  -28.6010  -25.2380   19.4140 C   0  0  0  0  0  0  0  0  0  0  0  0
  -28.9350  -25.9960   18.1250 C   0  0  0  0  0  1  0  0  0  0  0  0
  -29.3750  -23.3710   18.2790 O   0  0  0  0  0  0  0  0  0  0  0  0
  -29.4620  -24.1250   17.7080 H   0  0  0  0  0  0  0  0  0  0  0  0
  -28.1910  -26.2370   20.3720 O   0  0  0  0  0  0  0  0  0  0  0  0
  -24.5480  -31.9130   23.2090 C   0  0  0  0  0  0  0  0  0  0  0  0
  -27.1730  -27.2360   20.1880 C   0  0  0  0  0  0  0  0  0  0  0  0
  -23.3600  -30.5010   21.5720 C   0  0  0  0  0  3  0  0  0  0  0  0
  -24.8240  -28.9370   20.1460 C   0  0  0  0  0  0  0  0  0  0  0  0
  -25.9080  -30.7920   21.4090 C   0  0  0  0  0  2  0  0  0  0  0  0
  -25.9950  -29.4030   20.7590 C   0  0  0  0  0  0  0  0  0  0  0  0
  -27.1670  -28.5620   20.7750 C   0  0  0  0  0  3  0  0  0  0  0  0
  -25.9810  -26.8630   19.5330 C   0  0  0  0  0  3  0  0  0  0  0  0
  -24.8290  -27.6800   19.5180 C   0  0  0  0  0  3  0  0  0  0  0  0
  -23.5870  -29.8200   20.1950 C   0  0  0  0  0  2  0  0  0  0  0  0
  -24.6240  -31.0910   22.1180 N   0  0  0  0  0  0  0  0  0  0  0  0
  -23.4600  -32.1920   23.7350 O   0  0  0  0  0  0  0  0  0  0  0  0
  -22.6890  -29.4930   22.5390 C   0  0  0  0  0  0  0  0  0  0  0  0
  -21.3600  -29.3190   22.4170 N   0  0  0  0  0  0  0  0  0  0  0  0
  -23.3650  -28.8700   23.3610 O   0  0  0  0  0  0  0  0  0  0  0  0
  -20.8720  -29.8720   21.7260 H   0  0  0  0  0  0  0  0  0  0  0  0
  -17.9830  -28.1240   22.9400 C   0  0  0  0  0  0  0  0  0  0  0  0
  -20.5430  -28.3830   23.1930 C   0  0  0  0  0  3  0  0  0  0  0  0
  -20.6400  -26.9510   22.6180 C   0  0  0  0  0  2  0  0  0  0  0  0
  -19.5330  -26.6300   21.6100 C   0  0  0  0  0  2  0  0  0  0  0  0
  -18.1550  -26.7750   22.2610 C   0  0  0  0  0  2  0  0  0  0  0  0
  -19.1040  -28.8860   23.3630 C   0  0  0  0  0  0  0  0  0  0  0  0
  -18.8880  -30.1460   23.9610 C   0  0  0  0  0  3  0  0  0  0  0  0
  -17.5840  -30.6460   24.1370 C   0  0  0  0  0  3  0  0  0  0  0  0
  -16.4770  -29.8820   23.7280 C   0  0  0  0  0  3  0  0  0  0  0  0
  -16.6770  -28.6230   23.1360 C   0  0  0  0  0  3  0  0  0  0  0  0
  -25.8220  -32.5590   23.8340 C   0  0  0  0  0  3  0  0  0  0  0  0
  -25.5010  -33.9590   24.1540 N   0  0  0  0  0  0  0  0  0  0  0  0
  -25.8440  -35.0140   23.4020 C   0  0  0  0  0  0  0  0  0  0  0  0
  -26.5280  -34.9090   22.3800 O   0  0  0  0  0  0  0  0  0  0  0  0
  -24.8950  -34.1130   24.9470 H   0  0  0  0  0  0  0  0  0  0  0  0
  -24.1300  -36.8150   23.0130 C   0  0  0  0  0  1  0  0  0  0  0  0
  -25.3510  -36.4030   23.8520 C   0  0  0  0  0  3  0  0  0  0  0  0
  -27.4680  -37.2830   24.7330 C   0  0  0  0  0  1  0  0  0  0  0  0
  -26.3880  -37.4530   23.7650 N   0  0  0  0  0  0  0  0  0  0  0  0
  -25.9810  -38.3750   23.9020 H   0  0  0  0  0  0  0  0  0  0  0  0
  -26.3330  -31.8030   25.1230 C   0  0  1  0  0  0  0  0  0  0  0  0
  -25.2330  -31.5740   26.1870 C   0  0  0  0  0  1  0  0  0  0  0  0
  -26.9240  -30.4240   24.7530 C   0  0  0  0  0  1  0  0  0  0  0  0
  -27.4760  -32.6090   25.7840 C   0  0  0  0  0  1  0  0  0  0  0  0
  1  2  2  0
  1  3  1  0
  2  4  1  0
  3  5  2  0
  4  8  1  0
  4  7  2  0
  5  7  1  0
  5 21  1  0
  6  9  2  0
  8  6  1  0
 10  2  1  0
 11  3  1  0
 12  8  1  0
 13 21  1  0
 14 19  1  0
 15 16  1  0
 15 14  1  0
 17 16  1  0
 17 26  1  0
 17 18  1  0
 19 13  1  0
 19 18  1  0
 20 13  2  0
 21 22  1  0
 23 24  2  0
 24 25  1  0
 24 43  1  0
 25 28  1  0
 26 23  1  0
 26 27  1  0
 27 25  2  0
 28 29  1  0
 29 30  2  0
 31 34  1  0
 31 30  1  0
 32 31  2  0
 33 32  1  0
 33 28  2  0
 34 35  1  0
 35 36  1  0
 36 37  2  0
 38 37  1  0
 38 42  1  0
 39 38  2  0
 40 35  2  0
 40 39  1  0
 41 40  1  0
 43 44  1  0
 44 47  1  0
 44 46  1  0
 45 43  2  0
 48 49  1  0
 48 23  1  0
 50 48  1  0
 51  6  1  0
 52 51  2  0
 52 56  1  0
 53 52  1  0
 54 51  1  0
 55 54  1  0
 57 68  2  0
 58 56  1  0
 58 63  1  0
 59 67  1  0
 59 69  1  0
 60 66  1  0
 60 62  1  0
 61 67  1  0
 62 63  2  0
 62 61  1  0
 64 58  2  0
 65 64  1  0
 65 60  2  0
 66 59  1  0
 67 57  1  0
 69 71  2  0
 70 69  1  0
 72 70  1  0
 73 82  2  0
 73 78  1  0
 74 70  1  0
 74 78  1  0
 75 74  1  0
 76 77  1  0
 76 75  1  0
 77 73  1  0
 78 79  2  0
 79 80  1  0
 81 80  2  0
 82 81  1  0
 83 57  1  0
 83 84  1  0
 83 93  1  0
 84 87  1  0
 85 89  1  0
 85 84  1  0
 86 85  2  0
 89 88  1  0
 91 89  1  0
 91 92  1  0
 91 90  1  0
 93 96  1  1
 93 94  1  0
 95 93  1  0
M  ISO  4  13 100  21 100  52 101  56 101
M  END
>  <TORSDO>  (93) 
F 18

>  <SCORE>  (93) 
-15.094

>  <name>  (93) 
92

>  <ligand_id>  (93) 
92

>  <original_smiles>  (93) 
[H]OC(C(=O)N([H])c1nc(N([H])C(=O)N2C([H])([H])C([H])([H])C([H])([H])C([H])(n3nc(-c4c([H])c([H])c(Oc5c([H])c([H])c(F)c([H])c5F)c([H])c4[H])c(C(=O)N([H])[H])c3N([H])[H])C2([H])[H])c(F)c([H])c1F)=C(Oc1c([H])c([H])c2c(c1[H])C([H])([H])N(C(=O)C([H])(N([H])C(=O)C([H])(N([H])C([H])([H])[H])C([H])([H])[H])C(C([H])([H])[H])(C([H])([H])[H])C([H])([H])[H])C([H])(C(=O)N([H])C1([H])c3c([H])c([H])c([H])c([H])c3C([H])([H])C([H])([H])C1([H])[H])C2([H])[H])C([H])([H])[H]

>  <smiles>  (93) 
[H]OC(C(=O)N([H])c1nc(N([H])C(=O)N2C([H])([H])C([H])([H])C([H])([H])C([H])(n3nc(-c4c([H])c([H])c(Oc5c([H])c([H])c(F)c([H])c5F)c([H])c4[H])c(C(=O)N([H])[H])c3N([H])[H])C2([H])[H])c(F)c([H])c1F)=C(Oc1c([H])c([H])c2c(c1[H])C([H])([H])N(C(=O)C([H])(N([H])C(=O)C([H])(N([H])C([H])([H])[H])C([H])([H])[H])C(C([H])([H])[H])(C([H])([H])[H])C([H])([H])[H])C([H])(C(=O)N([H])C1([H])c3c([H])c([H])c([H])c([H])c3C([H])([H])C([H])([H])C1([H])[H])C2([H])[H])C([H])([H])[H]

$$$$
