0:0:0
     RDKit          3D

 93101  0  0  1  0  0  0  0  0999 V2000
  -28.5240  -22.2930   20.4820 C   0  0  0  0  0  0  0  0  0  0  0  0
  -29.5580  -21.3690   20.2950 N   0  0  0  0  0  0  0  0  0  0  0  0
  -27.3980  -21.9070   20.8020 O   0  0  0  0  0  0  0  0  0  0  0  0
  -30.3910  -21.8950   20.0660 H   0  0  0  0  0  0  0  0  0  0  0  0
  -30.5630  -14.9780   20.2680 C   0  0  0  0  0  0  0  0  0  0  0  0
  -30.4120  -12.6540   19.2870 C   0  0  0  0  0  2  0  0  0  0  0  0
  -29.4500  -12.6450   18.0760 C   0  0  0  0  0  2  0  0  0  0  0  0
  -27.9970  -12.4310   18.5420 C   0  0  0  0  0  2  0  0  0  0  0  0
  -27.6180  -13.3390   19.7400 C   0  0  0  0  0  3  0  0  0  0  0  0
  -28.6970  -13.3210   20.8430 C   0  0  0  0  0  2  0  0  0  0  0  0
  -29.9620  -13.7260   20.2170 N   0  0  0  0  0  0  0  0  0  0  0  0
  -31.7560  -15.0460   19.9440 O   0  0  0  0  0  0  0  0  0  0  0  0
  -29.0750  -18.7630   20.4960 C   0  0  0  0  0  3  0  0  0  0  0  0
  -30.0310  -17.6260   20.4150 C   0  0  0  0  0  0  0  0  0  0  0  0
  -29.8120  -19.9610   20.3590 C   0  0  0  0  0  0  0  0  0  0  0  0
  -32.3260  -20.3060   20.0880 C   0  0  0  0  0  1  0  0  0  0  0  0
  -31.2470  -18.1440   20.2730 N   0  0  0  0  0  0  0  0  0  0  0  0
  -31.1210  -19.5090   20.2410 N   0  0  0  0  0  0  0  0  0  0  0  0
  -29.7690  -16.1310   20.4780 N   0  0  0  0  0  0  0  0  0  0  0  0
  -28.8080  -15.8980   20.6740 H   0  0  0  0  0  0  0  0  0  0  0  0
  -25.2560  -13.9050   20.5510 C   0  0  0  0  0  0  0  0  0  0  0  0
  -24.2010  -13.1220   20.9300 C   0  0  0  0  0  0  0  0  0  0  0  0
  -24.6640  -11.7720   20.8570 C   0  0  0  0  0  0  0  0  0  0  0  0
  -26.2920  -13.0320   20.2630 N   0  0  0  0  0  0  0  0  0  0  0  0
  -25.9460  -11.7430   20.5130 N   0  0  0  0  0  0  0  0  0  0  0  0
  -23.9430  -10.5050   21.0320 C   0  0  0  0  0  0  0  0  0  0  0  0
  -24.3670   -9.5360   21.9680 C   0  0  0  0  0  3  0  0  0  0  0  0
  -23.6430   -8.3350   22.1330 C   0  0  0  0  0  3  0  0  0  0  0  0
  -22.4810   -8.0950   21.3630 C   0  0  0  0  0  0  0  0  0  0  0  0
  -22.0750   -9.0530   20.4170 C   0  0  0  0  0  3  0  0  0  0  0  0
  -22.8000  -10.2450   20.2500 C   0  0  0  0  0  3  0  0  0  0  0  0
  -21.7300   -6.9470   21.4380 O   0  0  0  0  0  0  0  0  0  0  0  0
  -21.6350   -6.2230   22.6010 C   0  0  0  0  0  0  0  0  0  0  0  0
  -21.1070   -6.7820   23.7860 C   0  0  0  0  0  3  0  0  0  0  0  0
  -20.9640   -5.9830   24.9370 C   0  0  0  0  0  3  0  0  0  0  0  0
  -21.3380   -4.6260   24.9040 C   0  0  0  0  0  0  0  0  0  0  0  0
  -21.8590   -4.0670   23.7230 C   0  0  0  0  0  3  0  0  0  0  0  0
  -22.0040   -4.8630   22.5740 C   0  0  0  0  0  0  0  0  0  0  0  0
  -22.4860   -4.3140   21.4340 F   0  0  0  0  0  0  0  0  0  0  0  0
  -21.1940   -3.8550   26.0070 F   0  0  0  0  0  0  0  0  0  0  0  0
  -22.8120  -13.5920   21.2460 C   0  0  0  0  0  0  0  0  0  0  0  0
  -22.1010  -12.8720   22.1060 N   0  0  0  0  0  0  0  0  0  0  0  0
  -22.3650  -14.6320   20.7630 O   0  0  0  0  0  0  0  0  0  0  0  0
  -22.4740  -12.0280   22.5150 H   0  0  0  0  0  0  0  0  0  0  0  0
  -21.1680  -13.1670   22.3600 H   0  0  0  0  0  0  0  0  0  0  0  0
  -25.4160  -15.2800   20.3970 N   0  0  0  0  0  0  0  0  0  0  0  0
  -24.6440  -15.9260   20.5200 H   0  0  0  0  0  0  0  0  0  0  0  0
  -26.2340  -15.7180   19.9960 H   0  0  0  0  0  0  0  0  0  0  0  0
  -28.0030  -24.8810   20.4330 C   0  0  0  0  0  3  0  0  0  0  0  0
  -28.8700  -23.7820   20.2650 C   0  0  0  0  0  0  0  0  0  0  0  0
  -30.1240  -24.0480   19.8750 O   0  0  0  0  0  0  0  0  0  0  0  0
  -30.1890  -24.9890   19.7740 H   0  0  0  0  0  0  0  0  0  0  0  0
  -28.2550  -26.3050   20.2590 O   0  0  0  0  0  0  0  0  0  0  0  0
  -24.6220  -31.9390   23.2500 C   0  0  0  0  0  0  0  0  0  0  0  0
  -27.1910  -27.2620   20.2250 C   0  0  0  0  0  0  0  0  0  0  0  0
  -23.4150  -30.5470   21.6120 C   0  0  0  0  0  3  0  0  0  0  0  0
  -24.8590  -28.9750   20.1850 C   0  0  0  0  0  0  0  0  0  0  0  0
  -25.9660  -30.8220   21.4380 C   0  0  0  0  0  2  0  0  0  0  0  0
  -26.0370  -29.4310   20.7960 C   0  0  0  0  0  0  0  0  0  0  0  0
  -27.2050  -28.5880   20.8040 C   0  0  0  0  0  3  0  0  0  0  0  0
  -25.9980  -26.9010   19.5670 C   0  0  0  0  0  3  0  0  0  0  0  0
  -24.8490  -27.7220   19.5560 C   0  0  0  0  0  3  0  0  0  0  0  0
  -23.6320  -29.8710   20.2320 C   0  0  0  0  0  2  0  0  0  0  0  0
  -24.6880  -31.1250   22.1540 N   0  0  0  0  0  0  0  0  0  0  0  0
  -23.5380  -32.2210   23.7830 O   0  0  0  0  0  0  0  0  0  0  0  0
  -22.7450  -29.5350   22.5740 C   0  0  0  0  0  0  0  0  0  0  0  0
  -21.4190  -29.3550   22.4450 N   0  0  0  0  0  0  0  0  0  0  0  0
  -23.4190  -28.9170   23.4020 O   0  0  0  0  0  0  0  0  0  0  0  0
  -20.9330  -29.9070   21.7530 H   0  0  0  0  0  0  0  0  0  0  0  0
  -18.0380  -28.1590   22.9520 C   0  0  0  0  0  0  0  0  0  0  0  0
  -20.5990  -28.4200   23.2180 C   0  0  0  0  0  3  0  0  0  0  0  0
  -20.6990  -26.9880   22.6410 C   0  0  0  0  0  2  0  0  0  0  0  0
  -19.5940  -26.6650   21.6300 C   0  0  0  0  0  2  0  0  0  0  0  0
  -18.2130  -26.8100   22.2750 C   0  0  0  0  0  2  0  0  0  0  0  0
  -19.1580  -28.9210   23.3810 C   0  0  0  0  0  0  0  0  0  0  0  0
  -18.9380  -30.1830   23.9750 C   0  0  0  0  0  3  0  0  0  0  0  0
  -17.6330  -30.6820   24.1460 C   0  0  0  0  0  3  0  0  0  0  0  0
  -16.5300  -29.9170   23.7330 C   0  0  0  0  0  3  0  0  0  0  0  0
  -16.7320  -28.6580   23.1410 C   0  0  0  0  0  3  0  0  0  0  0  0
  -25.9030  -32.5720   23.8730 C   0  0  0  0  0  3  0  0  0  0  0  0
  -25.5930  -33.9710   24.2050 N   0  0  0  0  0  0  0  0  0  0  0  0
  -25.9080  -35.0270   23.4410 C   0  0  0  0  0  0  0  0  0  0  0  0
  -26.5590  -34.9240   22.3980 O   0  0  0  0  0  0  0  0  0  0  0  0
  -25.0150  -34.1220   25.0200 H   0  0  0  0  0  0  0  0  0  0  0  0
  -24.1680  -36.8160   23.1230 C   0  0  0  0  0  1  0  0  0  0  0  0
  -25.4290  -36.4150   23.9070 C   0  0  0  0  0  3  0  0  0  0  0  0
  -27.5730  -37.3150   24.6990 C   0  0  0  0  0  1  0  0  0  0  0  0
  -26.4570  -37.4700   23.7690 N   0  0  0  0  0  0  0  0  0  0  0  0
  -26.0500  -38.3910   23.9090 H   0  0  0  0  0  0  0  0  0  0  0  0
  -26.4150  -31.8030   25.1520 C   0  0  1  0  0  0  0  0  0  0  0  0
  -25.3170  -31.5670   26.2170 C   0  0  0  0  0  1  0  0  0  0  0  0
  -27.0030  -30.4260   24.7650 C   0  0  0  0  0  1  0  0  0  0  0  0
  -27.5620  -32.5990   25.8180 C   0  0  0  0  0  1  0  0  0  0  0  0
  1  3  2  0
  2 15  1  0
  2  1  1  0
  4  2  1  0
  5 19  1  0
  6 11  1  0
  7  8  1  0
  7  6  1  0
  9  8  1  0
  9 24  1  0
  9 10  1  0
 11  5  1  0
 11 10  1  0
 12  5  2  0
 14 19  1  0
 14 13  1  0
 15 13  2  0
 16 18  1  0
 17 14  2  0
 18 17  1  0
 18 15  1  0
 19 20  1  0
 21 22  2  0
 22 41  1  0
 23 22  1  0
 23 26  1  0
 24 25  1  0
 24 21  1  0
 25 23  2  0
 26 27  1  0
 27 28  2  0
 29 32  1  0
 29 28  1  0
 30 29  2  0
 31 30  1  0
 31 26  2  0
 32 33  1  0
 33 34  1  0
 34 35  2  0
 36 35  1  0
 36 40  1  0
 37 36  2  0
 38 33  2  0
 38 37  1  0
 39 38  1  0
 41 42  1  0
 42 45  1  0
 42 44  1  0
 43 41  2  0
 46 47  1  0
 46 21  1  0
 48 46  1  0
 50 49  2  0
 50  1  1  0
 51 50  1  0
 52 51  1  0
 53 49  1  0
 54 65  2  0
 55 53  1  0
 55 60  1  0
 56 64  1  0
 56 66  1  0
 57 63  1  0
 57 59  1  0
 58 64  1  0
 59 60  2  0
 59 58  1  0
 61 55  2  0
 62 61  1  0
 62 57  2  0
 63 56  1  0
 64 54  1  0
 66 68  2  0
 67 66  1  0
 69 67  1  0
 70 79  2  0
 70 75  1  0
 71 67  1  0
 71 75  1  0
 72 71  1  0
 73 74  1  0
 73 72  1  0
 74 70  1  0
 75 76  2  0
 76 77  1  0
 78 77  2  0
 79 78  1  0
 80 54  1  0
 80 81  1  0
 80 90  1  0
 81 84  1  0
 82 86  1  0
 82 81  1  0
 83 82  2  0
 86 85  1  0
 88 86  1  0
 88 89  1  0
 88 87  1  0
 90 93  1  1
 90 91  1  0
 92 90  1  0
M  ISO  4   5 100  19 100  49 101  53 101
M  END
>  <TORSDO>  (1) 
F 18

>  <SCORE>  (1) 
-14.907

>  <name>  (1) 
0

>  <ligand_id>  (1) 
0

>  <original_smiles>  (1) 
[H]OC(C(=O)N([H])c1c([H])c(N([H])C(=O)N2C([H])([H])C([H])([H])C([H])([H])C([H])(n3nc(-c4c([H])c([H])c(Oc5c([H])c([H])c(F)c([H])c5F)c([H])c4[H])c(C(=O)N([H])[H])c3N([H])[H])C2([H])[H])nn1C([H])([H])[H])=C([H])Oc1c([H])c([H])c2c(c1[H])C([H])([H])N(C(=O)C([H])(N([H])C(=O)C([H])(N([H])C([H])([H])[H])C([H])([H])[H])C(C([H])([H])[H])(C([H])([H])[H])C([H])([H])[H])C([H])(C(=O)N([H])C1([H])c3c([H])c([H])c([H])c([H])c3C([H])([H])C([H])([H])C1([H])[H])C2([H])[H]

>  <smiles>  (1) 
[H]OC(C(=O)N([H])c1c([H])c(N([H])C(=O)N2C([H])([H])C([H])([H])C([H])([H])C([H])(n3nc(-c4c([H])c([H])c(Oc5c([H])c([H])c(F)c([H])c5F)c([H])c4[H])c(C(=O)N([H])[H])c3N([H])[H])C2([H])[H])nn1C([H])([H])[H])=C([H])Oc1c([H])c([H])c2c(c1[H])C([H])([H])N(C(=O)C([H])(N([H])C(=O)C([H])(N([H])C([H])([H])[H])C([H])([H])[H])C(C([H])([H])[H])(C([H])([H])[H])C([H])([H])[H])C([H])(C(=O)N([H])C1([H])c3c([H])c([H])c([H])c([H])c3C([H])([H])C([H])([H])C1([H])[H])C2([H])[H]

$$$$
1:0:0
     RDKit          3D

 96104  0  0  1  0  0  0  0  0999 V2000
  -29.4110  -22.3920   19.8790 C   0  0  0  0  0  3  0  0  0  0  0  0
  -30.9450  -22.6740   19.8310 C   0  0  2  0  0  0  0  0  0  0  0  0
  -31.2040  -23.8370   19.2300 F   0  0  0  0  0  0  0  0  0  0  0  0
  -31.6120  -21.7270   19.1700 F   0  0  0  0  0  0  0  0  0  0  0  0
  -31.4350  -22.7330   21.0710 F   0  0  0  0  0  0  0  0  0  0  0  0
  -28.6710  -23.7140   20.5150 C   0  0  0  0  0  0  0  0  0  0  0  0
  -28.3100  -23.7140   21.6970 O   0  0  0  0  0  0  0  0  0  0  0  0
  -28.3520  -25.0280   19.6220 C   0  0  0  0  0  2  0  0  0  0  0  0
  -28.2920  -26.4030   20.2730 O   0  0  0  0  0  0  0  0  0  0  0  0
  -24.5740  -31.9230   23.2330 C   0  0  0  0  0  0  0  0  0  0  0  0
  -27.1860  -27.2940   20.1780 C   0  0  0  0  0  0  0  0  0  0  0  0
  -23.3820  -30.5310   21.5820 C   0  0  0  0  0  3  0  0  0  0  0  0
  -24.8390  -28.9750   20.1570 C   0  0  0  0  0  0  0  0  0  0  0  0
  -25.9310  -30.8170   21.4330 C   0  0  0  0  0  2  0  0  0  0  0  0
  -26.0060  -29.4350   20.7760 C   0  0  0  0  0  0  0  0  0  0  0  0
  -27.1770  -28.6030   20.7800 C   0  0  0  0  0  3  0  0  0  0  0  0
  -25.9890  -26.9130   19.5260 C   0  0  0  0  0  3  0  0  0  0  0  0
  -24.8370  -27.7250   19.5230 C   0  0  0  0  0  3  0  0  0  0  0  0
  -23.6100  -29.8660   20.1990 C   0  0  0  0  0  2  0  0  0  0  0  0
  -24.6470  -31.1100   22.1360 N   0  0  0  0  0  0  0  0  0  0  0  0
  -23.4870  -32.2040   23.7570 O   0  0  0  0  0  0  0  0  0  0  0  0
  -22.7090  -29.5140   22.5340 C   0  0  0  0  0  0  0  0  0  0  0  0
  -21.3820  -29.3360   22.3970 N   0  0  0  0  0  0  0  0  0  0  0  0
  -23.3780  -28.8870   23.3590 O   0  0  0  0  0  0  0  0  0  0  0  0
  -20.8990  -29.9000   21.7110 H   0  0  0  0  0  0  0  0  0  0  0  0
  -17.9990  -28.1370   22.8710 C   0  0  0  0  0  0  0  0  0  0  0  0
  -20.5560  -28.3980   23.1600 C   0  0  0  0  0  3  0  0  0  0  0  0
  -20.6620  -26.9660   22.5840 C   0  0  0  0  0  2  0  0  0  0  0  0
  -19.5680  -26.6430   21.5620 C   0  0  0  0  0  2  0  0  0  0  0  0
  -18.1810  -26.7880   22.1950 C   0  0  0  0  0  2  0  0  0  0  0  0
  -19.1150  -28.8990   23.3100 C   0  0  0  0  0  0  0  0  0  0  0  0
  -18.8920  -30.1610   23.9020 C   0  0  0  0  0  3  0  0  0  0  0  0
  -17.5860  -30.6620   24.0590 C   0  0  0  0  0  3  0  0  0  0  0  0
  -16.4840  -29.8970   23.6350 C   0  0  0  0  0  3  0  0  0  0  0  0
  -16.6930  -28.6360   23.0480 C   0  0  0  0  0  3  0  0  0  0  0  0
  -25.8520  -32.5530   23.8650 C   0  0  0  0  0  3  0  0  0  0  0  0
  -26.3410  -31.7980   25.1630 C   0  0  1  0  0  0  0  0  0  0  0  0
  -25.2270  -31.5860   26.2160 C   0  0  0  0  0  1  0  0  0  0  0  0
  -26.9190  -30.4090   24.8040 C   0  0  0  0  0  1  0  0  0  0  0  0
  -27.4840  -32.5960   25.8320 C   0  0  0  0  0  1  0  0  0  0  0  0
  -25.5500  -33.9600   24.1730 N   0  0  0  0  0  0  0  0  0  0  0  0
  -25.9020  -35.0030   23.4100 C   0  0  0  0  0  0  0  0  0  0  0  0
  -26.5870  -34.8820   22.3910 O   0  0  0  0  0  0  0  0  0  0  0  0
  -24.9500  -34.1260   24.9670 H   0  0  0  0  0  0  0  0  0  0  0  0
  -24.2080  -36.8140   23.0020 C   0  0  0  0  0  1  0  0  0  0  0  0
  -25.4220  -36.4000   23.8460 C   0  0  0  0  0  3  0  0  0  0  0  0
  -27.5420  -37.2720   24.7270 C   0  0  0  0  0  1  0  0  0  0  0  0
  -26.4700  -37.4380   23.7500 N   0  0  0  0  0  0  0  0  0  0  0  0
  -26.0720  -38.3660   23.8700 H   0  0  0  0  0  0  0  0  0  0  0  0
  -29.1650  -21.0080   20.4980 N   0  0  0  0  0  0  0  0  0  0  0  0
  -29.0730  -21.0060   21.5060 H   0  0  0  0  0  0  0  0  0  0  0  0
  -30.5800  -14.8280   20.2930 C   0  0  0  0  0  0  0  0  0  0  0  0
  -30.3890  -12.5500   19.2980 C   0  0  0  0  0  2  0  0  0  0  0  0
  -29.4390  -12.6330   18.0810 C   0  0  0  0  0  2  0  0  0  0  0  0
  -27.9730  -12.4620   18.5200 C   0  0  0  0  0  2  0  0  0  0  0  0
  -27.6110  -13.3270   19.7560 C   0  0  0  0  0  3  0  0  0  0  0  0
  -28.6810  -13.2190   20.8650 C   0  0  0  0  0  2  0  0  0  0  0  0
  -29.9710  -13.5900   20.2690 N   0  0  0  0  0  0  0  0  0  0  0  0
  -31.7470  -14.9290   19.8940 O   0  0  0  0  0  0  0  0  0  0  0  0
  -29.9010  -17.2770   18.5580 C   0  0  0  0  0  3  0  0  0  0  0  0
  -29.5370  -19.6820   18.4560 C   0  0  0  0  0  3  0  0  0  0  0  0
  -29.7750  -18.4580   17.8130 C   0  0  0  0  0  0  0  0  0  0  0  0
  -29.7850  -17.2930   19.9630 C   0  0  0  0  0  0  0  0  0  0  0  0
  -29.4250  -19.7320   19.8570 C   0  0  0  0  0  0  0  0  0  0  0  0
  -29.5240  -18.5340   20.5750 N   0  0  0  0  0  0  0  0  0  0  0  0
  -29.8310  -15.9580   20.6210 N   0  0  0  0  0  0  0  0  0  0  0  0
  -29.8740  -18.4160   16.4630 F   0  0  0  0  0  0  0  0  0  0  0  0
  -29.0420  -15.7740   21.2180 H   0  0  0  0  0  0  0  0  0  0  0  0
  -25.2200  -13.8980   20.4960 C   0  0  0  0  0  0  0  0  0  0  0  0
  -24.1630  -13.1190   20.8800 C   0  0  0  0  0  0  0  0  0  0  0  0
  -24.6350  -11.7700   20.8460 C   0  0  0  0  0  0  0  0  0  0  0  0
  -26.2700  -13.0270   20.2530 N   0  0  0  0  0  0  0  0  0  0  0  0
  -25.9250  -11.7410   20.5260 N   0  0  0  0  0  0  0  0  0  0  0  0
  -23.9190  -10.5030   21.0450 C   0  0  0  0  0  0  0  0  0  0  0  0
  -24.3580   -9.5460   21.9860 C   0  0  0  0  0  3  0  0  0  0  0  0
  -23.6420   -8.3440   22.1720 C   0  0  0  0  0  3  0  0  0  0  0  0
  -22.4720   -8.0910   21.4170 C   0  0  0  0  0  0  0  0  0  0  0  0
  -22.0530   -9.0370   20.4640 C   0  0  0  0  0  3  0  0  0  0  0  0
  -22.7700  -10.2300   20.2770 C   0  0  0  0  0  3  0  0  0  0  0  0
  -21.7240   -6.9430   21.5140 O   0  0  0  0  0  0  0  0  0  0  0  0
  -21.6710   -6.2140   22.6760 C   0  0  0  0  0  0  0  0  0  0  0  0
  -21.2030   -6.7750   23.8840 C   0  0  0  0  0  3  0  0  0  0  0  0
  -21.0960   -5.9720   25.0380 C   0  0  0  0  0  3  0  0  0  0  0  0
  -21.4490   -4.6110   24.9840 C   0  0  0  0  0  0  0  0  0  0  0  0
  -21.9100   -4.0500   23.7790 C   0  0  0  0  0  3  0  0  0  0  0  0
  -22.0180   -4.8490   22.6290 C   0  0  0  0  0  0  0  0  0  0  0  0
  -22.4420   -4.2990   21.4660 F   0  0  0  0  0  0  0  0  0  0  0  0
  -21.3410   -3.8370   26.0900 F   0  0  0  0  0  0  0  0  0  0  0  0
  -22.7640  -13.5880   21.1600 C   0  0  0  0  0  0  0  0  0  0  0  0
  -22.0430  -12.8870   22.0280 N   0  0  0  0  0  0  0  0  0  0  0  0
  -22.3180  -14.6110   20.6420 O   0  0  0  0  0  0  0  0  0  0  0  0
  -22.4200  -12.0670   22.4800 H   0  0  0  0  0  0  0  0  0  0  0  0
  -21.1050  -13.1850   22.2550 H   0  0  0  0  0  0  0  0  0  0  0  0
  -25.3720  -15.2680   20.3100 N   0  0  0  0  0  0  0  0  0  0  0  0
  -24.6050  -15.9160   20.4430 H   0  0  0  0  0  0  0  0  0  0  0  0
  -26.1980  -15.7090   19.9280 H   0  0  0  0  0  0  0  0  0  0  0  0
  1 50  1  0
  1  6  1  0
  2  1  1  0
  2  5  1  1
  3  2  1  0
  4  2  1  0
  6  7  2  0
  8  9  1  0
  8  6  1  0
 10 21  2  0
 11  9  1  0
 11 16  1  0
 12 20  1  0
 12 22  1  0
 13 19  1  0
 13 15  1  0
 14 20  1  0
 15 16  2  0
 15 14  1  0
 17 11  2  0
 18 17  1  0
 18 13  2  0
 19 12  1  0
 20 10  1  0
 22 24  2  0
 23 22  1  0
 25 23  1  0
 26 35  2  0
 26 31  1  0
 27 23  1  0
 27 31  1  0
 28 27  1  0
 29 30  1  0
 29 28  1  0
 30 26  1  0
 31 32  2  0
 32 33  1  0
 34 33  2  0
 35 34  1  0
 36 10  1  0
 36 41  1  0
 36 37  1  0
 37 40  1  1
 37 38  1  0
 39 37  1  0
 41 44  1  0
 42 46  1  0
 42 41  1  0
 43 42  2  0
 46 45  1  0
 48 46  1  0
 48 49  1  0
 48 47  1  0
 50 51  1  0
 52 66  1  0
 53 58  1  0
 54 55  1  0
 54 53  1  0
 56 55  1  0
 56 72  1  0
 56 57  1  0
 58 52  1  0
 58 57  1  0
 59 52  2  0
 60 63  1  0
 61 64  2  0
 62 61  1  0
 62 60  2  0
 63 65  2  0
 63 66  1  0
 64 50  1  0
 64 65  1  0
 66 68  1  0
 67 62  1  0
 69 70  2  0
 70 89  1  0
 71 70  1  0
 71 74  1  0
 72 69  1  0
 72 73  1  0
 73 71  2  0
 74 75  1  0
 75 76  2  0
 77 80  1  0
 77 76  1  0
 78 77  2  0
 79 78  1  0
 79 74  2  0
 80 81  1  0
 81 82  1  0
 82 83  2  0
 84 83  1  0
 84 88  1  0
 85 84  2  0
 86 81  2  0
 86 85  1  0
 87 86  1  0
 89 90  1  0
 90 93  1  0
 90 92  1  0
 91 89  2  0
 94 95  1  0
 94 69  1  0
 96 94  1  0
M  ISO  4   8 101   9 101  52 100  66 100
M  END
>  <TORSDO>  (2) 
F 20

>  <SCORE>  (2) 
-14.116

>  <name>  (2) 
1

>  <ligand_id>  (2) 
1

>  <original_smiles>  (2) 
[H]c1c([H])c([H])c2c(c1[H])C([H])([H])C([H])([H])C([H])([H])C2([H])N([H])C(=O)C1([H])N(C(=O)C([H])(N([H])C(=O)C([H])(N([H])C([H])([H])[H])C([H])([H])[H])C(C([H])([H])[H])(C([H])([H])[H])C([H])([H])[H])C([H])([H])c2c([H])c(OC([H])([H])C(=O)C([H])(N([H])c3nc(N([H])C(=O)N4C([H])([H])C([H])([H])C([H])([H])C([H])(n5nc(-c6c([H])c([H])c(Oc7c([H])c([H])c(F)c([H])c7F)c([H])c6[H])c(C(=O)N([H])[H])c5N([H])[H])C4([H])[H])c([H])c(F)c3[H])C(F)(F)F)c([H])c([H])c2C1([H])[H]

>  <smiles>  (2) 
[H]c1c([H])c([H])c2c(c1[H])C([H])([H])C([H])([H])C([H])([H])C2([H])N([H])C(=O)C1([H])N(C(=O)C([H])(N([H])C(=O)C([H])(N([H])C([H])([H])[H])C([H])([H])[H])C(C([H])([H])[H])(C([H])([H])[H])C([H])([H])[H])C([H])([H])c2c([H])c(OC([H])([H])C(=O)C([H])(N([H])c3nc(N([H])C(=O)N4C([H])([H])C([H])([H])C([H])([H])C([H])(n5nc(-c6c([H])c([H])c(Oc7c([H])c([H])c(F)c([H])c7F)c([H])c6[H])c(C(=O)N([H])[H])c5N([H])[H])C4([H])[H])c([H])c(F)c3[H])C(F)(F)F)c([H])c([H])c2C1([H])[H]

$$$$
2:0:0
     RDKit          3D

 92100  0  0  1  0  0  0  0  0999 V2000
  -30.4790  -15.0740   20.4000 C   0  0  0  0  0  0  0  0  0  0  0  0
  -30.4100  -12.6900   19.4930 C   0  0  0  0  0  2  0  0  0  0  0  0
  -29.4950  -12.5820   18.2490 C   0  0  0  0  0  2  0  0  0  0  0  0
  -28.0300  -12.3550   18.6680 C   0  0  0  0  0  2  0  0  0  0  0  0
  -27.5890  -13.3180   19.8010 C   0  0  0  0  0  3  0  0  0  0  0  0
  -28.6230  -13.3740   20.9450 C   0  0  0  0  0  2  0  0  0  0  0  0
  -29.8940  -13.8010   20.3450 N   0  0  0  0  0  0  0  0  0  0  0  0
  -31.7010  -15.1190   20.2160 O   0  0  0  0  0  0  0  0  0  0  0  0
  -29.4250  -20.2720   20.4010 C   0  0  0  0  0  0  0  0  0  0  0  0
  -30.7410  -20.2050   20.8550 C   0  0  0  0  0  0  0  0  0  0  0  0
  -29.9010  -17.7850   20.4650 C   0  0  0  0  0  0  0  0  0  0  0  0
  -29.0010  -18.8450   20.2230 N   0  0  0  0  0  0  0  0  0  0  0  0
  -29.6630  -16.2560   20.4130 N   0  0  0  0  0  0  0  0  0  0  0  0
  -31.4110  -18.5480   20.9630 S   0  0  0  0  0  0  0  0  0  0  0  0
  -28.6840  -16.0260   20.4030 H   0  0  0  0  0  0  0  0  0  0  0  0
  -25.1980  -13.9070   20.4910 C   0  0  0  0  0  0  0  0  0  0  0  0
  -24.1270  -13.1380   20.8480 C   0  0  0  0  0  0  0  0  0  0  0  0
  -24.5920  -11.7860   20.8470 C   0  0  0  0  0  0  0  0  0  0  0  0
  -26.2460  -13.0260   20.2840 N   0  0  0  0  0  0  0  0  0  0  0  0
  -25.8880  -11.7450   20.5630 N   0  0  0  0  0  0  0  0  0  0  0  0
  -23.8610  -10.5260   21.0330 C   0  0  0  0  0  0  0  0  0  0  0  0
  -24.2760   -9.5650   21.9810 C   0  0  0  0  0  3  0  0  0  0  0  0
  -23.5450   -8.3700   22.1560 C   0  0  0  0  0  3  0  0  0  0  0  0
  -22.3850   -8.1290   21.3830 C   0  0  0  0  0  0  0  0  0  0  0  0
  -21.9890   -9.0790   20.4250 C   0  0  0  0  0  3  0  0  0  0  0  0
  -22.7210  -10.2640   20.2480 C   0  0  0  0  0  3  0  0  0  0  0  0
  -21.6250   -6.9870   21.4690 O   0  0  0  0  0  0  0  0  0  0  0  0
  -21.5590   -6.2530   22.6260 C   0  0  0  0  0  0  0  0  0  0  0  0
  -21.1090   -6.8140   23.8400 C   0  0  0  0  0  3  0  0  0  0  0  0
  -20.9890   -6.0050   24.9890 C   0  0  0  0  0  3  0  0  0  0  0  0
  -21.3090   -4.6370   24.9220 C   0  0  0  0  0  0  0  0  0  0  0  0
  -21.7510   -4.0740   23.7120 C   0  0  0  0  0  3  0  0  0  0  0  0
  -21.8730   -4.8790   22.5670 C   0  0  0  0  0  0  0  0  0  0  0  0
  -22.2790   -4.3280   21.3970 F   0  0  0  0  0  0  0  0  0  0  0  0
  -21.1870   -3.8570   26.0220 F   0  0  0  0  0  0  0  0  0  0  0  0
  -22.7240  -13.6170   21.0800 C   0  0  0  0  0  0  0  0  0  0  0  0
  -21.9780  -12.9370   21.9420 N   0  0  0  0  0  0  0  0  0  0  0  0
  -22.2980  -14.6320   20.5300 O   0  0  0  0  0  0  0  0  0  0  0  0
  -22.3340  -12.1170   22.4100 H   0  0  0  0  0  0  0  0  0  0  0  0
  -21.0350  -13.2410   22.1390 H   0  0  0  0  0  0  0  0  0  0  0  0
  -25.3650  -15.2750   20.2950 N   0  0  0  0  0  0  0  0  0  0  0  0
  -24.5900  -15.9240   20.3720 H   0  0  0  0  0  0  0  0  0  0  0  0
  -26.1950  -15.7030   19.9050 H   0  0  0  0  0  0  0  0  0  0  0  0
  -31.5960  -21.2350   21.2460 N   0  0  0  0  0  0  0  0  0  0  0  0
  -31.2410  -22.0940   21.6520 H   0  0  0  0  0  0  0  0  0  0  0  0
  -32.5010  -20.9960   21.6410 H   0  0  0  0  0  0  0  0  0  0  0  0
  -28.5780  -21.6150   20.1320 C   0  0  0  0  0  0  0  0  0  0  0  0
  -27.4390  -21.4870   19.6680 O   0  0  0  0  0  0  0  0  0  0  0  0
  -28.9860  -23.2260   20.4040 C   0  0  0  0  0  2  0  0  0  0  0  0
  -28.1470  -24.5680   18.3360 C   0  0  0  0  0  1  0  0  0  0  0  0
  -28.0920  -24.5970   19.8800 C   0  0  0  0  0  3  0  0  0  0  0  0
  -28.2700  -26.1270   20.2690 O   0  0  0  0  0  0  0  0  0  0  0  0
  -24.6380  -31.8870   23.2520 C   0  0  0  0  0  0  0  0  0  0  0  0
  -27.2150  -27.1330   20.2110 C   0  0  0  0  0  0  0  0  0  0  0  0
  -23.4440  -30.4880   21.6170 C   0  0  0  0  0  3  0  0  0  0  0  0
  -24.8920  -28.9180   20.1920 C   0  0  0  0  0  0  0  0  0  0  0  0
  -26.0040  -30.7480   21.4520 C   0  0  0  0  0  2  0  0  0  0  0  0
  -26.0810  -29.3550   20.7920 C   0  0  0  0  0  0  0  0  0  0  0  0
  -27.2440  -28.4830   20.7750 C   0  0  0  0  0  3  0  0  0  0  0  0
  -25.9810  -26.8050   19.6030 C   0  0  0  0  0  3  0  0  0  0  0  0
  -24.8580  -27.6590   19.5810 C   0  0  0  0  0  3  0  0  0  0  0  0
  -23.6680  -29.8170   20.2380 C   0  0  0  0  0  2  0  0  0  0  0  0
  -24.7160  -31.0620   22.1630 N   0  0  0  0  0  0  0  0  0  0  0  0
  -23.5480  -32.1700   23.7770 O   0  0  0  0  0  0  0  0  0  0  0  0
  -22.7640  -29.4770   22.5770 C   0  0  0  0  0  0  0  0  0  0  0  0
  -21.4370  -29.3010   22.4470 N   0  0  0  0  0  0  0  0  0  0  0  0
  -23.4380  -28.8560   23.4030 O   0  0  0  0  0  0  0  0  0  0  0  0
  -20.9520  -29.8550   21.7540 H   0  0  0  0  0  0  0  0  0  0  0  0
  -18.0620  -28.0820   22.9430 C   0  0  0  0  0  0  0  0  0  0  0  0
  -20.6200  -28.3600   23.2190 C   0  0  0  0  0  3  0  0  0  0  0  0
  -20.7310  -26.9270   22.6480 C   0  0  0  0  0  2  0  0  0  0  0  0
  -19.6340  -26.5950   21.6320 C   0  0  0  0  0  2  0  0  0  0  0  0
  -18.2500  -26.7330   22.2720 C   0  0  0  0  0  2  0  0  0  0  0  0
  -19.1740  -28.8530   23.3760 C   0  0  0  0  0  0  0  0  0  0  0  0
  -18.9430  -30.1160   23.9650 C   0  0  0  0  0  3  0  0  0  0  0  0
  -17.6330  -30.6060   24.1290 C   0  0  0  0  0  3  0  0  0  0  0  0
  -16.5370  -29.8320   23.7120 C   0  0  0  0  0  3  0  0  0  0  0  0
  -16.7520  -28.5710   23.1260 C   0  0  0  0  0  3  0  0  0  0  0  0
  -25.9110  -32.5290   23.8790 C   0  0  0  0  0  3  0  0  0  0  0  0
  -26.4150  -31.7680   25.1680 C   0  0  1  0  0  0  0  0  0  0  0  0
  -25.3130  -31.5400   26.2300 C   0  0  0  0  0  1  0  0  0  0  0  0
  -27.0000  -30.3860   24.7980 C   0  0  0  0  0  1  0  0  0  0  0  0
  -27.5650  -32.5640   25.8270 C   0  0  0  0  0  1  0  0  0  0  0  0
  -25.5930  -33.9280   24.2050 N   0  0  0  0  0  0  0  0  0  0  0  0
  -25.9180  -34.9830   23.4460 C   0  0  0  0  0  0  0  0  0  0  0  0
  -26.5800  -34.8790   22.4120 O   0  0  0  0  0  0  0  0  0  0  0  0
  -25.0030  -34.0830   25.0100 H   0  0  0  0  0  0  0  0  0  0  0  0
  -24.1750  -36.7660   23.1090 C   0  0  0  0  0  1  0  0  0  0  0  0
  -25.4300  -36.3710   23.9040 C   0  0  0  0  0  3  0  0  0  0  0  0
  -27.5700  -37.2750   24.7010 C   0  0  0  0  0  1  0  0  0  0  0  0
  -26.4550  -37.4290   23.7700 N   0  0  0  0  0  0  0  0  0  0  0  0
  -26.0470  -38.3480   23.9160 H   0  0  0  0  0  0  0  0  0  0  0  0
  1 13  1  0
  2  7  1  0
  3  4  1  0
  3  2  1  0
  5  4  1  0
  5 19  1  0
  5  6  1  0
  7  1  1  0
  7  6  1  0
  8  1  2  0
  9 10  2  0
 10 14  1  0
 10 44  1  0
 11 14  1  0
 12  9  1  0
 12 11  2  0
 13 11  1  0
 15 13  1  0
 16 17  2  0
 17 36  1  0
 18 17  1  0
 18 21  1  0
 19 16  1  0
 19 20  1  0
 20 18  2  0
 21 22  1  0
 22 23  2  0
 24 27  1  0
 24 23  1  0
 25 24  2  0
 26 25  1  0
 26 21  2  0
 27 28  1  0
 28 29  1  0
 29 30  2  0
 31 30  1  0
 31 35  1  0
 32 31  2  0
 33 28  2  0
 33 32  1  0
 34 33  1  0
 36 37  1  0
 37 40  1  0
 37 39  1  0
 38 36  2  0
 41 42  1  0
 41 16  1  0
 43 41  1  0
 44 46  1  0
 44 45  1  0
 47  9  1  0
 47 49  1  0
 48 47  2  0
 51 50  1  0
 51 52  1  0
 51 49  1  0
 53 64  2  0
 54 52  1  0
 54 59  1  0
 55 63  1  0
 55 65  1  0
 56 62  1  0
 56 58  1  0
 57 63  1  0
 58 57  1  0
 59 58  2  0
 60 54  2  0
 61 60  1  0
 61 56  2  0
 62 55  1  0
 63 53  1  0
 65 67  2  0
 66 65  1  0
 68 66  1  0
 69 78  2  0
 69 74  1  0
 70 66  1  0
 70 74  1  0
 71 70  1  0
 72 73  1  0
 72 71  1  0
 73 69  1  0
 74 75  2  0
 75 76  1  0
 77 76  2  0
 78 77  1  0
 79 53  1  0
 79 84  1  0
 79 80  1  0
 80 83  1  1
 80 81  1  0
 82 80  1  0
 84 87  1  0
 85 89  1  0
 85 84  1  0
 86 85  2  0
 89 88  1  0
 91 89  1  0
 91 92  1  0
 91 90  1  0
M  ISO  4   1 100  13 100  51 101  52 101
M  END
>  <TORSDO>  (3) 
F 19

>  <SCORE>  (3) 
-15.133

>  <name>  (3) 
2

>  <ligand_id>  (3) 
2

>  <original_smiles>  (3) 
[H]c1c([H])c([H])c2c(c1[H])C([H])([H])C([H])([H])C([H])([H])C2([H])N([H])C(=O)C1([H])N(C(=O)C([H])(N([H])C(=O)C([H])(N([H])C([H])([H])[H])C([H])([H])[H])C(C([H])([H])[H])(C([H])([H])[H])C([H])([H])[H])C([H])([H])c2c([H])c(OC([H])(C([H])([H])[H])C([H])([H])C(=O)c3nc(N([H])C(=O)N4C([H])([H])C([H])([H])C([H])([H])C([H])(n5nc(-c6c([H])c([H])c(Oc7c([H])c([H])c(F)c([H])c7F)c([H])c6[H])c(C(=O)N([H])[H])c5N([H])[H])C4([H])[H])sc3N([H])[H])c([H])c([H])c2C1([H])[H]

>  <smiles>  (3) 
[H]c1c([H])c([H])c2c(c1[H])C([H])([H])C([H])([H])C([H])([H])C2([H])N([H])C(=O)C1([H])N(C(=O)C([H])(N([H])C(=O)C([H])(N([H])C([H])([H])[H])C([H])([H])[H])C(C([H])([H])[H])(C([H])([H])[H])C([H])([H])[H])C([H])([H])c2c([H])c(OC([H])(C([H])([H])[H])C([H])([H])C(=O)c3nc(N([H])C(=O)N4C([H])([H])C([H])([H])C([H])([H])C([H])(n5nc(-c6c([H])c([H])c(Oc7c([H])c([H])c(F)c([H])c7F)c([H])c6[H])c(C(=O)N([H])[H])c5N([H])[H])C4([H])[H])sc3N([H])[H])c([H])c([H])c2C1([H])[H]

$$$$
3:0:0
     RDKit          3D

 96104  0  0  1  0  0  0  0  0999 V2000
  -29.5920  -21.5280   20.6500 C   0  0  0  0  0  3  0  0  0  0  0  0
  -30.9860  -21.4320   19.9660 C   0  0  2  0  0  0  0  0  0  0  0  0
  -31.6650  -20.3760   20.4190 F   0  0  0  0  0  0  0  0  0  0  0  0
  -31.7130  -22.5170   20.2310 F   0  0  0  0  0  0  0  0  0  0  0  0
  -30.8660  -21.3340   18.6430 F   0  0  0  0  0  0  0  0  0  0  0  0
  -28.7810  -22.7550   20.1090 C   0  0  0  0  0  0  0  0  0  0  0  0
  -27.7250  -22.5610   19.4930 O   0  0  0  0  0  0  0  0  0  0  0  0
  -29.2730  -24.2190   20.3120 C   0  0  0  0  0  2  0  0  0  0  0  0
  -28.1520  -25.2470   20.6690 C   0  0  0  0  0  2  0  0  0  0  0  0
  -28.3740  -26.6200   20.2330 O   0  0  0  0  0  0  0  0  0  0  0  0
  -24.6060  -31.9210   23.2260 C   0  0  0  0  0  0  0  0  0  0  0  0
  -27.2400  -27.4180   20.1880 C   0  0  0  0  0  0  0  0  0  0  0  0
  -23.4060  -30.5170   21.5840 C   0  0  0  0  0  3  0  0  0  0  0  0
  -24.8630  -28.9730   20.1700 C   0  0  0  0  0  0  0  0  0  0  0  0
  -25.9400  -30.8550   21.4060 C   0  0  0  0  0  2  0  0  0  0  0  0
  -26.0230  -29.4790   20.7680 C   0  0  0  0  0  0  0  0  0  0  0  0
  -27.2160  -28.7120   20.7720 C   0  0  0  0  0  3  0  0  0  0  0  0
  -26.0650  -26.9550   19.5520 C   0  0  0  0  0  3  0  0  0  0  0  0
  -24.8810  -27.7120   19.5540 C   0  0  0  0  0  3  0  0  0  0  0  0
  -23.6220  -29.8380   20.2070 C   0  0  0  0  0  2  0  0  0  0  0  0
  -24.6680  -31.1130   22.1300 N   0  0  0  0  0  0  0  0  0  0  0  0
  -23.5230  -32.2000   23.7560 O   0  0  0  0  0  0  0  0  0  0  0  0
  -22.7440  -29.5010   22.5440 C   0  0  0  0  0  0  0  0  0  0  0  0
  -21.4170  -29.3320   22.4200 N   0  0  0  0  0  0  0  0  0  0  0  0
  -23.4220  -28.8680   23.3580 O   0  0  0  0  0  0  0  0  0  0  0  0
  -20.9310  -29.8960   21.7360 H   0  0  0  0  0  0  0  0  0  0  0  0
  -18.0280  -28.1860   22.9370 C   0  0  0  0  0  0  0  0  0  0  0  0
  -20.5920  -28.4020   23.1900 C   0  0  0  0  0  3  0  0  0  0  0  0
  -20.6680  -26.9730   22.6030 C   0  0  0  0  0  2  0  0  0  0  0  0
  -19.5530  -26.6740   21.5960 C   0  0  0  0  0  2  0  0  0  0  0  0
  -18.1780  -26.8370   22.2520 C   0  0  0  0  0  2  0  0  0  0  0  0
  -19.1620  -28.9270   23.3640 C   0  0  0  0  0  0  0  0  0  0  0  0
  -18.9680  -30.1900   23.9640 C   0  0  0  0  0  3  0  0  0  0  0  0
  -17.6730  -30.7110   24.1420 C   0  0  0  0  0  3  0  0  0  0  0  0
  -16.5530  -29.9670   23.7320 C   0  0  0  0  0  3  0  0  0  0  0  0
  -16.7320  -28.7060   23.1360 C   0  0  0  0  0  3  0  0  0  0  0  0
  -25.8900  -32.5520   23.8500 C   0  0  0  0  0  3  0  0  0  0  0  0
  -25.5810  -33.9500   24.1780 N   0  0  0  0  0  0  0  0  0  0  0  0
  -25.9180  -35.0000   23.4170 C   0  0  0  0  0  0  0  0  0  0  0  0
  -26.5910  -34.8940   22.3870 O   0  0  0  0  0  0  0  0  0  0  0  0
  -24.9830  -34.1080   24.9750 H   0  0  0  0  0  0  0  0  0  0  0  0
  -24.1940  -36.7940   23.0510 C   0  0  0  0  0  1  0  0  0  0  0  0
  -25.4310  -36.3900   23.8690 C   0  0  0  0  0  3  0  0  0  0  0  0
  -27.5640  -37.2700   24.7070 C   0  0  0  0  0  1  0  0  0  0  0  0
  -26.4650  -37.4410   23.7600 N   0  0  0  0  0  0  0  0  0  0  0  0
  -26.0600  -38.3620   23.9060 H   0  0  0  0  0  0  0  0  0  0  0  0
  -26.4030  -31.7790   25.1280 C   0  0  1  0  0  0  0  0  0  0  0  0
  -25.3070  -31.5450   26.1930 C   0  0  0  0  0  1  0  0  0  0  0  0
  -26.9840  -30.4010   24.7370 C   0  0  0  0  0  1  0  0  0  0  0  0
  -27.5530  -32.5720   25.7910 C   0  0  0  0  0  1  0  0  0  0  0  0
  -28.7530  -20.3120   20.5120 N   0  0  0  0  0  0  0  0  0  0  0  0
  -28.0390  -20.6330   19.8600 H   0  0  0  0  0  0  0  0  0  0  0  0
  -30.6630  -14.5320   20.4580 C   0  0  0  0  0  0  0  0  0  0  0  0
  -30.3780  -12.3570   19.3440 C   0  0  0  0  0  2  0  0  0  0  0  0
  -29.4480  -12.5660   18.1300 C   0  0  0  0  0  2  0  0  0  0  0  0
  -27.9710  -12.4260   18.5500 C   0  0  0  0  0  2  0  0  0  0  0  0
  -27.6250  -13.2580   19.8140 C   0  0  0  0  0  3  0  0  0  0  0  0
  -28.6750  -13.0450   20.9300 C   0  0  0  0  0  2  0  0  0  0  0  0
  -30.0040  -13.3430   20.3720 N   0  0  0  0  0  0  0  0  0  0  0  0
  -31.7860  -14.7030   19.9730 O   0  0  0  0  0  0  0  0  0  0  0  0
  -29.2080  -19.0400   20.0800 C   0  0  0  0  0  0  0  0  0  0  0  0
  -29.2940  -18.6360   18.7710 C   0  0  0  0  0  0  0  0  0  0  0  0
  -29.8080  -16.8240   20.3120 C   0  0  0  0  0  0  0  0  0  0  0  0
  -29.5010  -17.9720   20.9620 N   0  0  0  0  0  0  0  0  0  0  0  0
  -29.9790  -15.5710   20.9840 N   0  0  0  0  0  0  0  0  0  0  0  0
  -28.9820  -19.4260   17.7140 F   0  0  0  0  0  0  0  0  0  0  0  0
  -29.7960  -16.9870   18.5520 S   0  0  0  0  0  0  0  0  0  0  0  0
  -29.2440  -15.3320   21.6300 H   0  0  0  0  0  0  0  0  0  0  0  0
  -25.2210  -13.8580   20.5110 C   0  0  0  0  0  0  0  0  0  0  0  0
  -24.1550  -13.0850   20.8800 C   0  0  0  0  0  0  0  0  0  0  0  0
  -24.6190  -11.7340   20.8530 C   0  0  0  0  0  0  0  0  0  0  0  0
  -26.2690  -12.9790   20.2870 N   0  0  0  0  0  0  0  0  0  0  0  0
  -25.9100  -11.6960   20.5500 N   0  0  0  0  0  0  0  0  0  0  0  0
  -23.8950  -10.4700   21.0470 C   0  0  0  0  0  0  0  0  0  0  0  0
  -24.3360   -9.4990   21.9710 C   0  0  0  0  0  3  0  0  0  0  0  0
  -23.6120   -8.3010   22.1510 C   0  0  0  0  0  3  0  0  0  0  0  0
  -22.4320   -8.0660   21.4070 C   0  0  0  0  0  0  0  0  0  0  0  0
  -22.0090   -9.0260   20.4710 C   0  0  0  0  0  3  0  0  0  0  0  0
  -22.7340  -10.2150   20.2890 C   0  0  0  0  0  3  0  0  0  0  0  0
  -21.6780   -6.9210   21.4960 O   0  0  0  0  0  0  0  0  0  0  0  0
  -21.6490   -6.1650   22.6410 C   0  0  0  0  0  0  0  0  0  0  0  0
  -21.2510   -6.7080   23.8830 C   0  0  0  0  0  3  0  0  0  0  0  0
  -21.1690   -5.8790   25.0190 C   0  0  0  0  0  3  0  0  0  0  0  0
  -21.4770   -4.5100   24.9170 C   0  0  0  0  0  0  0  0  0  0  0  0
  -21.8680   -3.9660   23.6810 C   0  0  0  0  0  3  0  0  0  0  0  0
  -21.9510   -4.7920   22.5460 C   0  0  0  0  0  0  0  0  0  0  0  0
  -22.3090   -4.2590   21.3530 F   0  0  0  0  0  0  0  0  0  0  0  0
  -21.3910   -3.7110   26.0070 F   0  0  0  0  0  0  0  0  0  0  0  0
  -22.7550  -13.5600   21.1470 C   0  0  0  0  0  0  0  0  0  0  0  0
  -22.0270  -12.8640   22.0140 N   0  0  0  0  0  0  0  0  0  0  0  0
  -22.3160  -14.5830   20.6230 O   0  0  0  0  0  0  0  0  0  0  0  0
  -22.3920  -12.0380   22.4610 H   0  0  0  0  0  0  0  0  0  0  0  0
  -21.0880  -13.1660   22.2340 H   0  0  0  0  0  0  0  0  0  0  0  0
  -25.3830  -15.2290   20.3300 N   0  0  0  0  0  0  0  0  0  0  0  0
  -24.6120  -15.8800   20.4320 H   0  0  0  0  0  0  0  0  0  0  0  0
  -26.2300  -15.6710   19.9980 H   0  0  0  0  0  0  0  0  0  0  0  0
  1  6  1  0
  2  4  1  6
  2  3  1  0
  2  1  1  0
  5  2  1  0
  6  8  1  0
  7  6  2  0
  8  9  1  0
 10  9  1  0
 11 22  2  0
 12 10  1  0
 12 17  1  0
 13 21  1  0
 13 23  1  0
 14 20  1  0
 14 16  1  0
 15 21  1  0
 16 17  2  0
 16 15  1  0
 18 19  1  0
 18 12  2  0
 19 14  2  0
 20 13  1  0
 21 11  1  0
 23 25  2  0
 24 23  1  0
 26 24  1  0
 27 36  2  0
 27 32  1  0
 28 24  1  0
 28 32  1  0
 29 28  1  0
 30 31  1  0
 30 29  1  0
 31 27  1  0
 32 33  2  0
 33 34  1  0
 35 34  2  0
 36 35  1  0
 37 11  1  0
 37 38  1  0
 37 47  1  0
 38 41  1  0
 39 43  1  0
 39 38  1  0
 40 39  2  0
 43 42  1  0
 45 43  1  0
 45 46  1  0
 45 44  1  0
 47 50  1  1
 47 48  1  0
 49 47  1  0
 51  1  1  0
 52 51  1  0
 53 65  1  0
 54 59  1  0
 55 56  1  0
 55 54  1  0
 57 56  1  0
 57 72  1  0
 57 58  1  0
 59 53  1  0
 59 58  1  0
 60 53  2  0
 61 51  1  0
 61 64  1  0
 62 61  2  0
 63 64  2  0
 63 65  1  0
 65 68  1  0
 66 62  1  0
 67 62  1  0
 67 63  1  0
 69 70  2  0
 70 89  1  0
 71 70  1  0
 71 74  1  0
 72 69  1  0
 72 73  1  0
 73 71  2  0
 74 75  1  0
 75 76  2  0
 77 80  1  0
 77 76  1  0
 78 77  2  0
 79 78  1  0
 79 74  2  0
 80 81  1  0
 81 82  1  0
 82 83  2  0
 84 83  1  0
 84 88  1  0
 85 84  2  0
 86 81  2  0
 86 85  1  0
 87 86  1  0
 89 90  1  0
 90 93  1  0
 90 92  1  0
 91 89  2  0
 94 95  1  0
 94 69  1  0
 96 94  1  0
M  ISO  4   9 101  10 101  53 100  65 100
M  END
>  <TORSDO>  (4) 
F 21

>  <SCORE>  (4) 
-13.667

>  <name>  (4) 
3

>  <ligand_id>  (4) 
3

>  <original_smiles>  (4) 
[H]c1c([H])c([H])c2c(c1[H])C([H])([H])C([H])([H])C([H])([H])C2([H])N([H])C(=O)C1([H])N(C(=O)C([H])(N([H])C(=O)C([H])(N([H])C([H])([H])[H])C([H])([H])[H])C(C([H])([H])[H])(C([H])([H])[H])C([H])([H])[H])C([H])([H])c2c([H])c(OC([H])([H])C([H])([H])C(=O)C([H])(N([H])c3nc(N([H])C(=O)N4C([H])([H])C([H])([H])C([H])([H])C([H])(n5nc(-c6c([H])c([H])c(Oc7c([H])c([H])c(F)c([H])c7F)c([H])c6[H])c(C(=O)N([H])[H])c5N([H])[H])C4([H])[H])sc3F)C(F)(F)F)c([H])c([H])c2C1([H])[H]

>  <smiles>  (4) 
[H]c1c([H])c([H])c2c(c1[H])C([H])([H])C([H])([H])C([H])([H])C2([H])N([H])C(=O)C1([H])N(C(=O)C([H])(N([H])C(=O)C([H])(N([H])C([H])([H])[H])C([H])([H])[H])C(C([H])([H])[H])(C([H])([H])[H])C([H])([H])[H])C([H])([H])c2c([H])c(OC([H])([H])C([H])([H])C(=O)C([H])(N([H])c3nc(N([H])C(=O)N4C([H])([H])C([H])([H])C([H])([H])C([H])(n5nc(-c6c([H])c([H])c(Oc7c([H])c([H])c(F)c([H])c7F)c([H])c6[H])c(C(=O)N([H])[H])c5N([H])[H])C4([H])[H])sc3F)C(F)(F)F)c([H])c([H])c2C1([H])[H]

$$$$
4:0:0
     RDKit          3D

 97105  0  0  1  0  0  0  0  0999 V2000
  -28.9300  -21.6900   20.5130 C   0  0  0  0  0  0  0  0  0  0  0  0
  -29.6680  -20.6040   20.8810 N   0  0  0  0  0  0  0  0  0  0  0  0
  -28.1720  -21.6860   19.5430 O   0  0  0  0  0  0  0  0  0  0  0  0
  -30.1240  -20.7200   21.7750 H   0  0  0  0  0  0  0  0  0  0  0  0
  -30.6520  -14.5840   20.3880 C   0  0  0  0  0  0  0  0  0  0  0  0
  -30.3690  -12.3830   19.3040 C   0  0  0  0  0  2  0  0  0  0  0  0
  -29.4450  -12.5780   18.0850 C   0  0  0  0  0  2  0  0  0  0  0  0
  -27.9670  -12.4350   18.5000 C   0  0  0  0  0  2  0  0  0  0  0  0
  -27.6170  -13.2750   19.7570 C   0  0  0  0  0  3  0  0  0  0  0  0
  -28.6690  -13.0880   20.8750 C   0  0  0  0  0  2  0  0  0  0  0  0
  -29.9900  -13.3910   20.3110 N   0  0  0  0  0  0  0  0  0  0  0  0
  -31.8020  -14.7080   19.9560 O   0  0  0  0  0  0  0  0  0  0  0  0
  -30.3500  -19.1020   18.9810 C   0  0  0  0  0  0  0  0  0  0  0  0
  -29.8490  -19.3140   20.2600 C   0  0  0  0  0  0  0  0  0  0  0  0
  -30.0630  -17.0020   20.3180 C   0  0  0  0  0  0  0  0  0  0  0  0
  -29.6900  -18.1080   21.0010 N   0  0  0  0  0  0  0  0  0  0  0  0
  -29.9550  -15.6610   20.8370 N   0  0  0  0  0  0  0  0  0  0  0  0
  -30.6140  -17.3880   18.6940 S   0  0  0  0  0  0  0  0  0  0  0  0
  -29.1340  -15.4680   21.3900 H   0  0  0  0  0  0  0  0  0  0  0  0
  -25.2160  -13.8680   20.4510 C   0  0  0  0  0  0  0  0  0  0  0  0
  -24.1510  -13.0940   20.8210 C   0  0  0  0  0  0  0  0  0  0  0  0
  -24.6200  -11.7440   20.8090 C   0  0  0  0  0  0  0  0  0  0  0  0
  -26.2660  -12.9920   20.2330 N   0  0  0  0  0  0  0  0  0  0  0  0
  -25.9120  -11.7090   20.5080 N   0  0  0  0  0  0  0  0  0  0  0  0
  -23.8990  -10.4800   21.0050 C   0  0  0  0  0  0  0  0  0  0  0  0
  -24.3290   -9.5220   21.9500 C   0  0  0  0  0  3  0  0  0  0  0  0
  -23.6050   -8.3230   22.1340 C   0  0  0  0  0  3  0  0  0  0  0  0
  -22.4380   -8.0740   21.3730 C   0  0  0  0  0  0  0  0  0  0  0  0
  -22.0280   -9.0210   20.4160 C   0  0  0  0  0  3  0  0  0  0  0  0
  -22.7530  -10.2100   20.2310 C   0  0  0  0  0  3  0  0  0  0  0  0
  -21.6880   -6.9270   21.4680 O   0  0  0  0  0  0  0  0  0  0  0  0
  -21.6320   -6.1950   22.6270 C   0  0  0  0  0  0  0  0  0  0  0  0
  -21.1790   -6.7560   23.8410 C   0  0  0  0  0  3  0  0  0  0  0  0
  -21.0720   -5.9500   24.9920 C   0  0  0  0  0  3  0  0  0  0  0  0
  -21.4070   -4.5840   24.9300 C   0  0  0  0  0  0  0  0  0  0  0  0
  -21.8520   -4.0230   23.7200 C   0  0  0  0  0  3  0  0  0  0  0  0
  -21.9610   -4.8260   22.5720 C   0  0  0  0  0  0  0  0  0  0  0  0
  -22.3710   -4.2740   21.4040 F   0  0  0  0  0  0  0  0  0  0  0  0
  -21.2970   -3.8080   26.0340 F   0  0  0  0  0  0  0  0  0  0  0  0
  -22.7490  -13.5650   21.0830 C   0  0  0  0  0  0  0  0  0  0  0  0
  -22.0200  -12.8680   21.9460 N   0  0  0  0  0  0  0  0  0  0  0  0
  -22.3100  -14.5860   20.5560 O   0  0  0  0  0  0  0  0  0  0  0  0
  -22.3880  -12.0400   22.3940 H   0  0  0  0  0  0  0  0  0  0  0  0
  -21.0780  -13.1640   22.1640 H   0  0  0  0  0  0  0  0  0  0  0  0
  -25.3770  -15.2390   20.2630 N   0  0  0  0  0  0  0  0  0  0  0  0
  -24.6090  -15.8960   20.3570 H   0  0  0  0  0  0  0  0  0  0  0  0
  -26.2320  -15.6760   19.9410 H   0  0  0  0  0  0  0  0  0  0  0  0
  -31.5310  -21.2870   18.2320 C   0  0  0  0  0  1  0  0  0  0  0  0
  -29.6000  -20.2910   16.8640 C   0  0  0  0  0  1  0  0  0  0  0  0
  -30.7490  -20.0200   17.8470 C   0  0  0  0  0  3  0  0  0  0  0  0
  -28.9920  -22.9490   21.4360 C   0  0  1  0  0  0  0  0  0  0  0  0
  -27.8200  -23.0620   22.0630 F   0  0  0  0  0  0  0  0  0  0  0  0
  -29.9130  -22.7080   22.3740 F   0  0  0  0  0  0  0  0  0  0  0  0
  -29.3640  -24.3650   20.8390 C   0  0  0  0  0  2  0  0  0  0  0  0
  -28.6390  -24.9710   18.4600 C   0  0  0  0  0  1  0  0  0  0  0  0
  -28.3430  -25.1670   19.9580 C   0  0  0  0  0  3  0  0  0  0  0  0
  -28.4080  -26.6070   20.2170 O   0  0  0  0  0  0  0  0  0  0  0  0
  -24.6110  -31.8810   23.2310 C   0  0  0  0  0  0  0  0  0  0  0  0
  -27.2480  -27.3800   20.1650 C   0  0  0  0  0  0  0  0  0  0  0  0
  -23.4100  -30.4800   21.5880 C   0  0  0  0  0  3  0  0  0  0  0  0
  -24.8640  -28.9410   20.1650 C   0  0  0  0  0  0  0  0  0  0  0  0
  -25.9440  -30.8220   21.4010 C   0  0  0  0  0  2  0  0  0  0  0  0
  -26.0280  -29.4480   20.7570 C   0  0  0  0  0  0  0  0  0  0  0  0
  -27.2200  -28.6780   20.7480 C   0  0  0  0  0  3  0  0  0  0  0  0
  -26.0600  -26.9100   19.5560 C   0  0  0  0  0  3  0  0  0  0  0  0
  -24.8800  -27.6750   19.5600 C   0  0  0  0  0  3  0  0  0  0  0  0
  -23.6230  -29.8040   20.2090 C   0  0  0  0  0  2  0  0  0  0  0  0
  -24.6740  -31.0780   22.1300 N   0  0  0  0  0  0  0  0  0  0  0  0
  -23.5260  -32.1540   23.7640 O   0  0  0  0  0  0  0  0  0  0  0  0
  -22.7530  -29.4610   22.5460 C   0  0  0  0  0  0  0  0  0  0  0  0
  -21.4270  -29.2830   22.4170 N   0  0  0  0  0  0  0  0  0  0  0  0
  -23.4340  -28.8330   23.3630 O   0  0  0  0  0  0  0  0  0  0  0  0
  -20.9410  -29.8410   21.7290 H   0  0  0  0  0  0  0  0  0  0  0  0
  -18.0460  -28.1060   22.9270 C   0  0  0  0  0  0  0  0  0  0  0  0
  -20.6070  -28.3470   23.1860 C   0  0  0  0  0  3  0  0  0  0  0  0
  -20.6960  -26.9180   22.6010 C   0  0  0  0  0  2  0  0  0  0  0  0
  -19.5890  -26.6070   21.5900 C   0  0  0  0  0  2  0  0  0  0  0  0
  -18.2110  -26.7580   22.2420 C   0  0  0  0  0  2  0  0  0  0  0  0
  -19.1710  -28.8580   23.3550 C   0  0  0  0  0  0  0  0  0  0  0  0
  -18.9640  -30.1200   23.9570 C   0  0  0  0  0  3  0  0  0  0  0  0
  -17.6630  -30.6290   24.1300 C   0  0  0  0  0  3  0  0  0  0  0  0
  -16.5530  -29.8730   23.7170 C   0  0  0  0  0  3  0  0  0  0  0  0
  -16.7440  -28.6130   23.1230 C   0  0  0  0  0  3  0  0  0  0  0  0
  -25.8920  -32.5160   23.8570 C   0  0  0  0  0  3  0  0  0  0  0  0
  -26.4050  -31.7480   25.1380 C   0  0  1  0  0  0  0  0  0  0  0  0
  -25.3060  -31.5100   26.2000 C   0  0  0  0  0  1  0  0  0  0  0  0
  -26.9910  -30.3710   24.7500 C   0  0  0  0  0  1  0  0  0  0  0  0
  -27.5510  -32.5460   25.8010 C   0  0  0  0  0  1  0  0  0  0  0  0
  -25.5800  -33.9160   24.1800 N   0  0  0  0  0  0  0  0  0  0  0  0
  -25.9140  -34.9650   23.4190 C   0  0  0  0  0  0  0  0  0  0  0  0
  -26.5870  -34.8590   22.3900 O   0  0  0  0  0  0  0  0  0  0  0  0
  -24.9840  -34.0740   24.9800 H   0  0  0  0  0  0  0  0  0  0  0  0
  -24.1880  -36.7600   23.0490 C   0  0  0  0  0  1  0  0  0  0  0  0
  -25.4230  -36.3550   23.8710 C   0  0  0  0  0  3  0  0  0  0  0  0
  -27.5490  -37.2390   24.7260 C   0  0  0  0  0  1  0  0  0  0  0  0
  -26.4580  -37.4060   23.7680 N   0  0  0  0  0  0  0  0  0  0  0  0
  -26.0520  -38.3280   23.9060 H   0  0  0  0  0  0  0  0  0  0  0  0
  1  2  1  0
  1 51  1  0
  2  4  1  0
  3  1  2  0
  5 17  1  0
  6 11  1  0
  7  8  1  0
  7  6  1  0
  9  8  1  0
  9 23  1  0
  9 10  1  0
 11  5  1  0
 11 10  1  0
 12  5  2  0
 13 14  2  0
 14  2  1  0
 14 16  1  0
 15 17  1  0
 15 16  2  0
 17 19  1  0
 18 13  1  0
 18 15  1  0
 20 21  2  0
 21 40  1  0
 22 21  1  0
 22 25  1  0
 23 20  1  0
 23 24  1  0
 24 22  2  0
 25 26  1  0
 26 27  2  0
 28 31  1  0
 28 27  1  0
 29 28  2  0
 30 29  1  0
 30 25  2  0
 31 32  1  0
 32 33  1  0
 33 34  2  0
 35 34  1  0
 35 39  1  0
 36 35  2  0
 37 32  2  0
 37 36  1  0
 38 37  1  0
 40 41  1  0
 41 44  1  0
 41 43  1  0
 42 40  2  0
 45 46  1  0
 45 20  1  0
 47 45  1  0
 49 50  1  0
 50 48  1  0
 50 13  1  0
 51 52  1  1
 51 53  1  0
 54 51  1  0
 56 55  1  0
 56 57  1  0
 56 54  1  0
 58 69  2  0
 59 57  1  0
 59 64  1  0
 60 68  1  0
 60 70  1  0
 61 67  1  0
 61 63  1  0
 62 68  1  0
 63 62  1  0
 64 63  2  0
 65 66  1  0
 65 59  2  0
 66 61  2  0
 67 60  1  0
 68 58  1  0
 70 72  2  0
 71 70  1  0
 73 71  1  0
 74 83  2  0
 74 79  1  0
 75 71  1  0
 75 79  1  0
 76 75  1  0
 77 78  1  0
 77 76  1  0
 78 74  1  0
 79 80  2  0
 80 81  1  0
 82 81  2  0
 83 82  1  0
 84 58  1  0
 84 89  1  0
 84 85  1  0
 85 88  1  1
 85 86  1  0
 87 85  1  0
 89 92  1  0
 90 94  1  0
 90 89  1  0
 91 90  2  0
 94 93  1  0
 96 94  1  0
 96 97  1  0
 96 95  1  0
M  ISO  4   5 100  17 100  56 101  57 101
M  END
>  <TORSDO>  (5) 
F 20

>  <SCORE>  (5) 
-14.235

>  <name>  (5) 
4

>  <ligand_id>  (5) 
4

>  <original_smiles>  (5) 
[H]c1c([H])c([H])c2c(c1[H])C([H])([H])C([H])([H])C([H])([H])C2([H])N([H])C(=O)C1([H])N(C(=O)C([H])(N([H])C(=O)C([H])(N([H])C([H])([H])[H])C([H])([H])[H])C(C([H])([H])[H])(C([H])([H])[H])C([H])([H])[H])C([H])([H])c2c([H])c(OC([H])(C([H])([H])[H])C([H])([H])C(F)(F)C(=O)N([H])c3nc(N([H])C(=O)N4C([H])([H])C([H])([H])C([H])([H])C([H])(n5nc(-c6c([H])c([H])c(Oc7c([H])c([H])c(F)c([H])c7F)c([H])c6[H])c(C(=O)N([H])[H])c5N([H])[H])C4([H])[H])sc3C([H])(C([H])([H])[H])C([H])([H])[H])c([H])c([H])c2C1([H])[H]

>  <smiles>  (5) 
[H]c1c([H])c([H])c2c(c1[H])C([H])([H])C([H])([H])C([H])([H])C2([H])N([H])C(=O)C1([H])N(C(=O)C([H])(N([H])C(=O)C([H])(N([H])C([H])([H])[H])C([H])([H])[H])C(C([H])([H])[H])(C([H])([H])[H])C([H])([H])[H])C([H])([H])c2c([H])c(OC([H])(C([H])([H])[H])C([H])([H])C(F)(F)C(=O)N([H])c3nc(N([H])C(=O)N4C([H])([H])C([H])([H])C([H])([H])C([H])(n5nc(-c6c([H])c([H])c(Oc7c([H])c([H])c(F)c([H])c7F)c([H])c6[H])c(C(=O)N([H])[H])c5N([H])[H])C4([H])[H])sc3C([H])(C([H])([H])[H])C([H])([H])[H])c([H])c([H])c2C1([H])[H]

$$$$
5:0:0
     RDKit          3D

 91 99  0  0  1  0  0  0  0  0999 V2000
  -29.8740  -22.0420   20.3450 C   0  0  0  0  0  3  0  0  0  0  0  0
  -29.0680  -23.0520   20.2720 N   0  0  0  0  0  0  0  0  0  0  0  0
  -29.5000  -24.3140   20.7300 C   0  0  0  0  0  0  0  0  0  0  0  0
  -30.6730  -24.6500   20.9090 O   0  0  0  0  0  0  0  0  0  0  0  0
  -27.0130  -24.6800   21.3330 C   0  0  0  0  0  1  0  0  0  0  0  0
  -28.3810  -25.3620   21.0800 C   0  0  0  0  0  3  0  0  0  0  0  0
  -28.3950  -26.5300   20.1880 O   0  0  0  0  0  0  0  0  0  0  0  0
  -24.6340  -31.8600   23.2210 C   0  0  0  0  0  0  0  0  0  0  0  0
  -27.2740  -27.3530   20.1830 C   0  0  0  0  0  0  0  0  0  0  0  0
  -23.4330  -30.4490   21.5840 C   0  0  0  0  0  3  0  0  0  0  0  0
  -24.8930  -28.9060   20.1650 C   0  0  0  0  0  0  0  0  0  0  0  0
  -25.9670  -30.7920   21.3980 C   0  0  0  0  0  2  0  0  0  0  0  0
  -26.0540  -29.4140   20.7650 C   0  0  0  0  0  0  0  0  0  0  0  0
  -27.2490  -28.6450   20.7740 C   0  0  0  0  0  3  0  0  0  0  0  0
  -26.1080  -26.8970   19.5330 C   0  0  0  0  0  3  0  0  0  0  0  0
  -24.9180  -27.6480   19.5440 C   0  0  0  0  0  3  0  0  0  0  0  0
  -23.6500  -29.7670   20.2070 C   0  0  0  0  0  2  0  0  0  0  0  0
  -24.6960  -31.0500   22.1240 N   0  0  0  0  0  0  0  0  0  0  0  0
  -23.5510  -32.1350   23.7560 O   0  0  0  0  0  0  0  0  0  0  0  0
  -22.7770  -29.4330   22.5480 C   0  0  0  0  0  0  0  0  0  0  0  0
  -21.4500  -29.2600   22.4300 N   0  0  0  0  0  0  0  0  0  0  0  0
  -23.4600  -28.8040   23.3610 O   0  0  0  0  0  0  0  0  0  0  0  0
  -20.9590  -29.8180   21.7460 H   0  0  0  0  0  0  0  0  0  0  0  0
  -18.0720  -28.0850   22.9540 C   0  0  0  0  0  0  0  0  0  0  0  0
  -20.6340  -28.3270   23.2060 C   0  0  0  0  0  3  0  0  0  0  0  0
  -20.7230  -26.8950   22.6290 C   0  0  0  0  0  2  0  0  0  0  0  0
  -19.6120  -26.5790   21.6230 C   0  0  0  0  0  2  0  0  0  0  0  0
  -18.2360  -26.7330   22.2780 C   0  0  0  0  0  2  0  0  0  0  0  0
  -19.1990  -28.8380   23.3780 C   0  0  0  0  0  0  0  0  0  0  0  0
  -18.9920  -30.1020   23.9710 C   0  0  0  0  0  3  0  0  0  0  0  0
  -17.6920  -30.6130   24.1450 C   0  0  0  0  0  3  0  0  0  0  0  0
  -16.5800  -29.8550   23.7390 C   0  0  0  0  0  3  0  0  0  0  0  0
  -16.7710  -28.5920   23.1500 C   0  0  0  0  0  3  0  0  0  0  0  0
  -25.9170  -32.4970   23.8390 C   0  0  0  0  0  3  0  0  0  0  0  0
  -26.4420  -31.7260   25.1120 C   0  0  1  0  0  0  0  0  0  0  0  0
  -25.3530  -31.4820   26.1840 C   0  0  0  0  0  1  0  0  0  0  0  0
  -27.0310  -30.3520   24.7160 C   0  0  0  0  0  1  0  0  0  0  0  0
  -27.5910  -32.5250   25.7710 C   0  0  0  0  0  1  0  0  0  0  0  0
  -25.6020  -33.8940   24.1710 N   0  0  0  0  0  0  0  0  0  0  0  0
  -25.9300  -34.9480   23.4100 C   0  0  0  0  0  0  0  0  0  0  0  0
  -26.5990  -34.8470   22.3780 O   0  0  0  0  0  0  0  0  0  0  0  0
  -25.0070  -34.0460   24.9710 H   0  0  0  0  0  0  0  0  0  0  0  0
  -24.1940  -36.7330   23.0590 C   0  0  0  0  0  1  0  0  0  0  0  0
  -25.4380  -36.3340   23.8700 C   0  0  0  0  0  3  0  0  0  0  0  0
  -27.5700  -37.2260   24.6970 C   0  0  0  0  0  1  0  0  0  0  0  0
  -26.4660  -37.3910   23.7550 N   0  0  0  0  0  0  0  0  0  0  0  0
  -26.0580  -38.3090   23.9030 H   0  0  0  0  0  0  0  0  0  0  0  0
  -29.6150  -20.6760   19.6540 C   0  0  0  0  0  2  0  0  0  0  0  0
  -30.1540  -19.0750   21.6780 C   0  0  0  0  0  3  0  0  0  0  0  0
  -30.2840  -17.6740   21.9700 C   0  0  0  0  0  3  0  0  0  0  0  0
  -29.9620  -19.3520   20.3470 C   0  0  0  0  0  0  0  0  0  0  0  0
  -30.2270  -16.8390   20.8750 C   0  0  0  0  0  0  0  0  0  0  0  0
  -30.0570  -17.8390   19.4310 S   0  0  0  0  0  0  0  0  0  0  0  0
  -30.7760  -14.5360   20.1360 C   0  0  0  0  0  0  0  0  0  0  0  0
  -30.4420  -12.3860   18.9430 C   0  0  0  0  0  2  0  0  0  0  0  0
  -29.4340  -12.6100   17.7950 C   0  0  0  0  0  2  0  0  0  0  0  0
  -27.9850  -12.4560   18.2960 C   0  0  0  0  0  2  0  0  0  0  0  0
  -27.7180  -13.2630   19.5950 C   0  0  0  0  0  3  0  0  0  0  0  0
  -28.8280  -13.0030   20.6390 C   0  0  0  0  0  2  0  0  0  0  0  0
  -30.1240  -13.3390   20.0220 N   0  0  0  0  0  0  0  0  0  0  0  0
  -31.8380  -14.7670   19.5480 O   0  0  0  0  0  0  0  0  0  0  0  0
  -30.1670  -15.4660   20.9120 N   0  0  0  0  0  0  0  0  0  0  0  0
  -29.4400  -15.0860   21.5000 H   0  0  0  0  0  0  0  0  0  0  0  0
  -25.3600  -13.8720   20.4300 C   0  0  0  0  0  0  0  0  0  0  0  0
  -24.3060  -13.1000   20.8370 C   0  0  0  0  0  0  0  0  0  0  0  0
  -24.7550  -11.7460   20.7600 C   0  0  0  0  0  0  0  0  0  0  0  0
  -26.3880  -12.9870   20.1330 N   0  0  0  0  0  0  0  0  0  0  0  0
  -26.0290  -11.7030   20.3880 N   0  0  0  0  0  0  0  0  0  0  0  0
  -24.0290  -10.4850   20.9640 C   0  0  0  0  0  0  0  0  0  0  0  0
  -24.4760   -9.5150   21.8880 C   0  0  0  0  0  3  0  0  0  0  0  0
  -23.7510   -8.3200   22.0790 C   0  0  0  0  0  3  0  0  0  0  0  0
  -22.5630   -8.0860   21.3460 C   0  0  0  0  0  0  0  0  0  0  0  0
  -22.1340   -9.0440   20.4120 C   0  0  0  0  0  3  0  0  0  0  0  0
  -22.8600  -10.2310   20.2180 C   0  0  0  0  0  3  0  0  0  0  0  0
  -21.8070   -6.9430   21.4480 O   0  0  0  0  0  0  0  0  0  0  0  0
  -21.7470   -6.2200   22.6130 C   0  0  0  0  0  0  0  0  0  0  0  0
  -21.3160   -6.7980   23.8270 C   0  0  0  0  0  3  0  0  0  0  0  0
  -21.2040   -6.0030   24.9850 C   0  0  0  0  0  3  0  0  0  0  0  0
  -21.5130   -4.6300   24.9290 C   0  0  0  0  0  0  0  0  0  0  0  0
  -21.9370   -4.0520   23.7190 C   0  0  0  0  0  3  0  0  0  0  0  0
  -22.0510   -4.8450   22.5650 C   0  0  0  0  0  0  0  0  0  0  0  0
  -22.4400   -4.2790   21.3960 F   0  0  0  0  0  0  0  0  0  0  0  0
  -21.3980   -3.8640   26.0380 F   0  0  0  0  0  0  0  0  0  0  0  0
  -22.9270  -13.5810   21.1900 C   0  0  0  0  0  0  0  0  0  0  0  0
  -22.2440  -12.8760   22.0850 N   0  0  0  0  0  0  0  0  0  0  0  0
  -22.4680  -14.6150   20.7070 O   0  0  0  0  0  0  0  0  0  0  0  0
  -22.6310  -12.0380   22.4920 H   0  0  0  0  0  0  0  0  0  0  0  0
  -21.3230  -13.1790   22.3670 H   0  0  0  0  0  0  0  0  0  0  0  0
  -25.5280  -15.2450   20.2690 N   0  0  0  0  0  0  0  0  0  0  0  0
  -24.7760  -15.9050   20.4290 H   0  0  0  0  0  0  0  0  0  0  0  0
  -26.3760  -15.6830   19.9290 H   0  0  0  0  0  0  0  0  0  0  0  0
  2  1  2  0
  2  3  1  0
  3  4  2  0
  3  6  1  0
  6  5  1  0
  7  6  1  0
  8 19  2  0
  9  7  1  0
  9 14  1  0
 10 18  1  0
 10 20  1  0
 11 17  1  0
 11 13  1  0
 12 18  1  0
 13 14  2  0
 13 12  1  0
 15 16  1  0
 15  9  2  0
 16 11  2  0
 17 10  1  0
 18  8  1  0
 20 22  2  0
 21 20  1  0
 23 21  1  0
 24 33  2  0
 24 29  1  0
 25 21  1  0
 25 29  1  0
 26 25  1  0
 27 28  1  0
 27 26  1  0
 28 24  1  0
 29 30  2  0
 30 31  1  0
 32 31  2  0
 33 32  1  0
 34  8  1  0
 34 39  1  0
 34 35  1  0
 35 38  1  1
 35 36  1  0
 37 35  1  0
 39 42  1  0
 40 44  1  0
 40 39  1  0
 41 40  2  0
 44 43  1  0
 46 44  1  0
 46 47  1  0
 46 45  1  0
 48  1  1  0
 48 51  1  0
 49 50  1  0
 51 49  2  0
 52 62  1  0
 52 50  2  0
 53 51  1  0
 53 52  1  0
 54 62  1  0
 55 60  1  0
 56 57  1  0
 56 55  1  0
 58 57  1  0
 58 67  1  0
 58 59  1  0
 60 54  1  0
 60 59  1  0
 61 54  2  0
 62 63  1  0
 64 65  2  0
 65 84  1  0
 66 65  1  0
 66 69  1  0
 67 68  1  0
 67 64  1  0
 68 66  2  0
 69 70  1  0
 70 71  2  0
 72 75  1  0
 72 71  1  0
 73 72  2  0
 74 73  1  0
 74 69  2  0
 75 76  1  0
 76 77  1  0
 77 78  2  0
 79 78  1  0
 79 83  1  0
 80 79  2  0
 81 76  2  0
 81 80  1  0
 82 81  1  0
 84 85  1  0
 85 88  1  0
 85 87  1  0
 86 84  2  0
 89 90  1  0
 89 64  1  0
 91 89  1  0
M  ISO  4   6 101   7 101  54 100  62 100
M  END
>  <TORSDO>  (6) 
F 20

>  <SCORE>  (6) 
-13.503

>  <name>  (6) 
5

>  <ligand_id>  (6) 
5

>  <original_smiles>  (6) 
[H]C(=NC(=O)C([H])(Oc1c([H])c([H])c2c(c1[H])C([H])([H])N(C(=O)C([H])(N([H])C(=O)C([H])(N([H])C([H])([H])[H])C([H])([H])[H])C(C([H])([H])[H])(C([H])([H])[H])C([H])([H])[H])C([H])(C(=O)N([H])C1([H])c3c([H])c([H])c([H])c([H])c3C([H])([H])C([H])([H])C1([H])[H])C2([H])[H])C([H])([H])[H])C([H])([H])c1sc(N([H])C(=O)N2C([H])([H])C([H])([H])C([H])([H])C([H])(n3nc(-c4c([H])c([H])c(Oc5c([H])c([H])c(F)c([H])c5F)c([H])c4[H])c(C(=O)N([H])[H])c3N([H])[H])C2([H])[H])c([H])c1[H]

>  <smiles>  (6) 
[H]C(=NC(=O)C([H])(Oc1c([H])c([H])c2c(c1[H])C([H])([H])N(C(=O)C([H])(N([H])C(=O)C([H])(N([H])C([H])([H])[H])C([H])([H])[H])C(C([H])([H])[H])(C([H])([H])[H])C([H])([H])[H])C([H])(C(=O)N([H])C1([H])c3c([H])c([H])c([H])c([H])c3C([H])([H])C([H])([H])C1([H])[H])C2([H])[H])C([H])([H])[H])C([H])([H])c1sc(N([H])C(=O)N2C([H])([H])C([H])([H])C([H])([H])C([H])(n3nc(-c4c([H])c([H])c(Oc5c([H])c([H])c(F)c([H])c5F)c([H])c4[H])c(C(=O)N([H])[H])c3N([H])[H])C2([H])[H])c([H])c1[H]

$$$$
6:0:0
     RDKit          3D

 93101  0  0  1  0  0  0  0  0999 V2000
  -29.2300  -22.2430   20.0170 C   0  0  0  0  0  0  0  0  0  0  0  0
  -29.9650  -22.7780   19.1810 O   0  0  0  0  0  0  0  0  0  0  0  0
  -30.4350  -15.1060   20.2860 C   0  0  0  0  0  0  0  0  0  0  0  0
  -30.3610  -12.7160   19.3610 C   0  0  0  0  0  2  0  0  0  0  0  0
  -29.4270  -12.6190   18.1300 C   0  0  0  0  0  2  0  0  0  0  0  0
  -27.9710  -12.3810   18.5680 C   0  0  0  0  0  2  0  0  0  0  0  0
  -27.5500  -13.3130   19.7330 C   0  0  0  0  0  3  0  0  0  0  0  0
  -28.6080  -13.3700   20.8560 C   0  0  0  0  0  2  0  0  0  0  0  0
  -29.8620  -13.8220   20.2380 N   0  0  0  0  0  0  0  0  0  0  0  0
  -31.6460  -15.1530   20.0280 O   0  0  0  0  0  0  0  0  0  0  0  0
  -29.5490  -20.6510   20.2640 C   0  0  0  0  0  0  0  0  0  0  0  0
  -30.8040  -20.0160   20.3130 C   0  0  0  0  0  0  0  0  0  0  0  0
  -29.7440  -17.8550   20.3590 C   0  0  0  0  0  0  0  0  0  0  0  0
  -30.8920  -18.5680   20.3680 N   0  0  0  0  0  0  0  0  0  0  0  0
  -29.6160  -16.2910   20.4150 N   0  0  0  0  0  0  0  0  0  0  0  0
  -28.4190  -19.1920   20.3070 S   0  0  0  0  0  0  0  0  0  0  0  0
  -28.6560  -16.0180   20.5490 H   0  0  0  0  0  0  0  0  0  0  0  0
  -25.1730  -13.8810   20.4810 C   0  0  0  0  0  0  0  0  0  0  0  0
  -24.1130  -13.1030   20.8570 C   0  0  0  0  0  0  0  0  0  0  0  0
  -24.5820  -11.7530   20.8280 C   0  0  0  0  0  0  0  0  0  0  0  0
  -26.2170  -13.0060   20.2390 N   0  0  0  0  0  0  0  0  0  0  0  0
  -25.8730  -11.7200   20.5140 N   0  0  0  0  0  0  0  0  0  0  0  0
  -23.8590  -10.4900   21.0210 C   0  0  0  0  0  0  0  0  0  0  0  0
  -24.2910   -9.5250   21.9580 C   0  0  0  0  0  3  0  0  0  0  0  0
  -23.5660   -8.3280   22.1400 C   0  0  0  0  0  3  0  0  0  0  0  0
  -22.3930   -8.0860   21.3850 C   0  0  0  0  0  0  0  0  0  0  0  0
  -21.9790   -9.0400   20.4380 C   0  0  0  0  0  3  0  0  0  0  0  0
  -22.7050  -10.2290   20.2540 C   0  0  0  0  0  3  0  0  0  0  0  0
  -21.6390   -6.9410   21.4750 O   0  0  0  0  0  0  0  0  0  0  0  0
  -21.5920   -6.2000   22.6290 C   0  0  0  0  0  0  0  0  0  0  0  0
  -21.1640   -6.7550   23.8540 C   0  0  0  0  0  3  0  0  0  0  0  0
  -21.0640   -5.9400   25.0010 C   0  0  0  0  0  3  0  0  0  0  0  0
  -21.3830   -4.5720   24.9220 C   0  0  0  0  0  0  0  0  0  0  0  0
  -21.8030   -4.0150   23.7000 C   0  0  0  0  0  3  0  0  0  0  0  0
  -21.9040   -4.8270   22.5570 C   0  0  0  0  0  0  0  0  0  0  0  0
  -22.2900   -4.2820   21.3780 F   0  0  0  0  0  0  0  0  0  0  0  0
  -21.2810   -3.7870   26.0200 F   0  0  0  0  0  0  0  0  0  0  0  0
  -22.7140  -13.5760   21.1240 C   0  0  0  0  0  0  0  0  0  0  0  0
  -21.9870  -12.8830   21.9920 N   0  0  0  0  0  0  0  0  0  0  0  0
  -22.2750  -14.6000   20.6000 O   0  0  0  0  0  0  0  0  0  0  0  0
  -22.3540  -12.0560   22.4390 H   0  0  0  0  0  0  0  0  0  0  0  0
  -21.0480  -13.1840   22.2130 H   0  0  0  0  0  0  0  0  0  0  0  0
  -25.3280  -15.2510   20.2960 N   0  0  0  0  0  0  0  0  0  0  0  0
  -24.5450  -15.8900   20.3870 H   0  0  0  0  0  0  0  0  0  0  0  0
  -26.1440  -15.6890   19.8900 H   0  0  0  0  0  0  0  0  0  0  0  0
  -32.0320  -20.6840   20.3000 N   0  0  0  0  0  0  0  0  0  0  0  0
  -32.0570  -21.6480   19.9840 H   0  0  0  0  0  0  0  0  0  0  0  0
  -32.8730  -20.1580   20.0890 H   0  0  0  0  0  0  0  0  0  0  0  0
  -27.8370  -24.6630   20.7340 C   0  0  0  0  0  3  0  0  0  0  0  0
  -28.1740  -23.2450   20.7050 C   0  0  0  0  0  0  0  0  0  0  0  0
  -27.3740  -22.5050   21.4880 O   0  0  0  0  0  0  0  0  0  0  0  0
  -26.7550  -23.0900   21.9020 H   0  0  0  0  0  0  0  0  0  0  0  0
  -28.2020  -26.0200   20.2480 O   0  0  0  0  0  0  0  0  0  0  0  0
  -24.6190  -31.8740   23.2070 C   0  0  0  0  0  0  0  0  0  0  0  0
  -27.2010  -27.0870   20.2170 C   0  0  0  0  0  0  0  0  0  0  0  0
  -23.4270  -30.4680   21.5720 C   0  0  0  0  0  3  0  0  0  0  0  0
  -24.8840  -28.8790   20.1600 C   0  0  0  0  0  0  0  0  0  0  0  0
  -25.9870  -30.7170   21.4210 C   0  0  0  0  0  2  0  0  0  0  0  0
  -26.0660  -29.3130   20.7780 C   0  0  0  0  0  0  0  0  0  0  0  0
  -27.2260  -28.4350   20.7890 C   0  0  0  0  0  3  0  0  0  0  0  0
  -25.9940  -26.7760   19.5540 C   0  0  0  0  0  3  0  0  0  0  0  0
  -24.8650  -27.6260   19.5320 C   0  0  0  0  0  3  0  0  0  0  0  0
  -23.6570  -29.7820   20.1990 C   0  0  0  0  0  2  0  0  0  0  0  0
  -24.6980  -31.0430   22.1210 N   0  0  0  0  0  0  0  0  0  0  0  0
  -23.5300  -32.1610   23.7280 O   0  0  0  0  0  0  0  0  0  0  0  0
  -22.7420  -29.4680   22.5400 C   0  0  0  0  0  0  0  0  0  0  0  0
  -21.4120  -29.3040   22.4160 N   0  0  0  0  0  0  0  0  0  0  0  0
  -23.4110  -28.8430   23.3660 O   0  0  0  0  0  0  0  0  0  0  0  0
  -20.9290  -29.8570   21.7240 H   0  0  0  0  0  0  0  0  0  0  0  0
  -18.0250  -28.1190   22.9380 C   0  0  0  0  0  0  0  0  0  0  0  0
  -20.5880  -28.3710   23.1920 C   0  0  0  0  0  3  0  0  0  0  0  0
  -20.6800  -26.9390   22.6180 C   0  0  0  0  0  2  0  0  0  0  0  0
  -19.5720  -26.6190   21.6090 C   0  0  0  0  0  2  0  0  0  0  0  0
  -18.1940  -26.7690   22.2600 C   0  0  0  0  0  2  0  0  0  0  0  0
  -19.1490  -28.8780   23.3610 C   0  0  0  0  0  0  0  0  0  0  0  0
  -18.9370  -30.1390   23.9580 C   0  0  0  0  0  3  0  0  0  0  0  0
  -17.6340  -30.6420   24.1350 C   0  0  0  0  0  3  0  0  0  0  0  0
  -16.5250  -29.8810   23.7260 C   0  0  0  0  0  3  0  0  0  0  0  0
  -16.7210  -28.6220   23.1320 C   0  0  0  0  0  3  0  0  0  0  0  0
  -25.8920  -32.5180   23.8360 C   0  0  0  0  0  3  0  0  0  0  0  0
  -26.3990  -31.7550   25.1220 C   0  0  1  0  0  0  0  0  0  0  0  0
  -25.2990  -31.5260   26.1850 C   0  0  0  0  0  1  0  0  0  0  0  0
  -26.9830  -30.3720   24.7500 C   0  0  0  0  0  1  0  0  0  0  0  0
  -27.5440  -32.5530   25.7860 C   0  0  0  0  0  1  0  0  0  0  0  0
  -25.5720  -33.9170   24.1660 N   0  0  0  0  0  0  0  0  0  0  0  0
  -25.9020  -34.9750   23.4130 C   0  0  0  0  0  0  0  0  0  0  0  0
  -26.5720  -34.8770   22.3820 O   0  0  0  0  0  0  0  0  0  0  0  0
  -24.9730  -34.0660   24.9650 H   0  0  0  0  0  0  0  0  0  0  0  0
  -24.1710  -36.7720   23.0690 C   0  0  0  0  0  1  0  0  0  0  0  0
  -25.4130  -36.3620   23.8770 C   0  0  0  0  0  3  0  0  0  0  0  0
  -27.5480  -37.2480   24.7110 C   0  0  0  0  0  1  0  0  0  0  0  0
  -26.4440  -37.4180   23.7680 N   0  0  0  0  0  0  0  0  0  0  0  0
  -26.0380  -38.3370   23.9170 H   0  0  0  0  0  0  0  0  0  0  0  0
  1 11  1  0
  1 50  1  0
  2  1  2  0
  3 15  1  0
  4  9  1  0
  5  6  1  0
  5  4  1  0
  7  6  1  0
  7 21  1  0
  7  8  1  0
  9  3  1  0
  9  8  1  0
 10  3  2  0
 11 16  1  0
 11 12  2  0
 12 14  1  0
 13 14  2  0
 13 15  1  0
 15 17  1  0
 16 13  1  0
 18 19  2  0
 19 38  1  0
 20 19  1  0
 20 23  1  0
 21 18  1  0
 21 22  1  0
 22 20  2  0
 23 24  1  0
 24 25  2  0
 26 29  1  0
 26 25  1  0
 27 26  2  0
 28 27  1  0
 28 23  2  0
 29 30  1  0
 30 31  1  0
 31 32  2  0
 33 32  1  0
 33 37  1  0
 34 33  2  0
 35 30  2  0
 35 34  1  0
 36 35  1  0
 38 39  1  0
 39 42  1  0
 39 41  1  0
 40 38  2  0
 43 44  1  0
 43 18  1  0
 45 43  1  0
 46 12  1  0
 47 46  1  0
 48 46  1  0
 50 49  2  0
 50 51  1  0
 51 52  1  0
 53 49  1  0
 54 65  2  0
 55 53  1  0
 55 60  1  0
 56 64  1  0
 56 66  1  0
 57 63  1  0
 57 59  1  0
 58 64  1  0
 59 60  2  0
 59 58  1  0
 61 55  2  0
 62 61  1  0
 62 57  2  0
 63 56  1  0
 64 54  1  0
 66 68  2  0
 67 66  1  0
 69 67  1  0
 70 79  2  0
 70 75  1  0
 71 67  1  0
 71 75  1  0
 72 71  1  0
 73 74  1  0
 73 72  1  0
 74 70  1  0
 75 76  2  0
 76 77  1  0
 78 77  2  0
 79 78  1  0
 80 54  1  0
 80 85  1  0
 80 81  1  0
 81 84  1  1
 81 82  1  0
 83 81  1  0
 85 88  1  0
 86 90  1  0
 86 85  1  0
 87 86  2  0
 90 89  1  0
 92 90  1  0
 92 93  1  0
 92 91  1  0
M  ISO  4   3 100  15 100  49 101  53 101
M  END
>  <TORSDO>  (7) 
F 19

>  <SCORE>  (7) 
-14.823

>  <name>  (7) 
6

>  <ligand_id>  (7) 
6

>  <original_smiles>  (7) 
[H]OC(C(=O)c1sc(N([H])C(=O)N2C([H])([H])C([H])([H])C([H])([H])C([H])(n3nc(-c4c([H])c([H])c(Oc5c([H])c([H])c(F)c([H])c5F)c([H])c4[H])c(C(=O)N([H])[H])c3N([H])[H])C2([H])[H])nc1N([H])[H])=C([H])Oc1c([H])c([H])c2c(c1[H])C([H])([H])N(C(=O)C([H])(N([H])C(=O)C([H])(N([H])C([H])([H])[H])C([H])([H])[H])C(C([H])([H])[H])(C([H])([H])[H])C([H])([H])[H])C([H])(C(=O)N([H])C1([H])c3c([H])c([H])c([H])c([H])c3C([H])([H])C([H])([H])C1([H])[H])C2([H])[H]

>  <smiles>  (7) 
[H]OC(C(=O)c1sc(N([H])C(=O)N2C([H])([H])C([H])([H])C([H])([H])C([H])(n3nc(-c4c([H])c([H])c(Oc5c([H])c([H])c(F)c([H])c5F)c([H])c4[H])c(C(=O)N([H])[H])c3N([H])[H])C2([H])[H])nc1N([H])[H])=C([H])Oc1c([H])c([H])c2c(c1[H])C([H])([H])N(C(=O)C([H])(N([H])C(=O)C([H])(N([H])C([H])([H])[H])C([H])([H])[H])C(C([H])([H])[H])(C([H])([H])[H])C([H])([H])[H])C([H])(C(=O)N([H])C1([H])c3c([H])c([H])c([H])c([H])c3C([H])([H])C([H])([H])C1([H])[H])C2([H])[H]

$$$$
7:0:0
     RDKit          3D

 96104  0  0  1  0  0  0  0  0999 V2000
  -28.7990  -21.4970   21.0560 C   0  0  0  0  0  3  0  0  0  0  0  0
  -28.6570  -22.4000   20.1620 N   0  0  0  0  0  0  0  0  0  0  0  0
  -29.1370  -23.6800   20.4350 C   0  0  0  0  0  0  0  0  0  0  0  0
  -29.5380  -24.1170   21.5170 O   0  0  0  0  0  0  0  0  0  0  0  0
  -29.0800  -24.5980   19.1930 C   0  0  0  0  0  2  0  0  0  0  0  0
  -29.9650  -26.5470   17.7570 C   0  0  0  0  0  1  0  0  0  0  0  0
  -31.3090  -25.7710   19.6610 C   0  0  0  0  0  1  0  0  0  0  0  0
  -29.8490  -25.9750   19.1930 C   0  0  2  0  0  0  0  0  0  0  0  0
  -29.3510  -27.0040   20.0850 O   0  0  0  0  0  0  0  0  0  0  0  0
  -24.8820  -31.6030   23.1840 C   0  0  0  0  0  0  0  0  0  0  0  0
  -28.0840  -27.5700   20.0270 C   0  0  0  0  0  0  0  0  0  0  0  0
  -23.8820  -30.1440   21.4570 C   0  0  0  0  0  3  0  0  0  0  0  0
  -25.5330  -28.8280   20.0270 C   0  0  0  0  0  0  0  0  0  0  0  0
  -26.3640  -30.7670   21.3630 C   0  0  0  0  0  2  0  0  0  0  0  0
  -26.6120  -29.4370   20.6760 C   0  0  0  0  0  0  0  0  0  0  0  0
  -27.8800  -28.8120   20.6820 C   0  0  0  0  0  3  0  0  0  0  0  0
  -26.9770  -26.9820   19.3750 C   0  0  0  0  0  3  0  0  0  0  0  0
  -25.7120  -27.5960   19.3790 C   0  0  0  0  0  3  0  0  0  0  0  0
  -24.2030  -29.5450   20.0610 C   0  0  0  0  0  2  0  0  0  0  0  0
  -25.0570  -30.8530   22.0590 N   0  0  0  0  0  0  0  0  0  0  0  0
  -23.7620  -31.7390   23.6970 O   0  0  0  0  0  0  0  0  0  0  0  0
  -23.3180  -29.0230   22.3580 C   0  0  0  0  0  0  0  0  0  0  0  0
  -22.0490  -28.6500   22.1250 N   0  0  0  0  0  0  0  0  0  0  0  0
  -24.0210  -28.4920   23.2230 O   0  0  0  0  0  0  0  0  0  0  0  0
  -21.5360  -29.1350   21.4030 H   0  0  0  0  0  0  0  0  0  0  0  0
  -18.8750  -26.9330   22.3110 C   0  0  0  0  0  0  0  0  0  0  0  0
  -21.3210  -27.5910   22.8260 C   0  0  0  0  0  3  0  0  0  0  0  0
  -21.7050  -26.1970   22.2760 C   0  0  0  0  0  2  0  0  0  0  0  0
  -20.7710  -25.7100   21.1640 C   0  0  0  0  0  2  0  0  0  0  0  0
  -19.3270  -25.6310   21.6700 C   0  0  0  0  0  2  0  0  0  0  0  0
  -19.8120  -27.8600   22.8390 C   0  0  0  0  0  0  0  0  0  0  0  0
  -19.3410  -29.0710   23.3900 C   0  0  0  0  0  3  0  0  0  0  0  0
  -17.9640  -29.3600   23.4230 C   0  0  0  0  0  3  0  0  0  0  0  0
  -17.0400  -28.4320   22.9140 C   0  0  0  0  0  3  0  0  0  0  0  0
  -17.4950  -27.2200   22.3640 C   0  0  0  0  0  3  0  0  0  0  0  0
  -26.0740  -32.3420   23.8670 C   0  0  0  0  0  3  0  0  0  0  0  0
  -25.6350  -33.7110   24.1690 N   0  0  0  0  0  0  0  0  0  0  0  0
  -25.9210  -34.7840   23.4200 C   0  0  0  0  0  0  0  0  0  0  0  0
  -26.6570  -34.7320   22.4310 O   0  0  0  0  0  0  0  0  0  0  0  0
  -24.9870  -33.8200   24.9350 H   0  0  0  0  0  0  0  0  0  0  0  0
  -24.0670  -36.4130   22.9480 C   0  0  0  0  0  1  0  0  0  0  0  0
  -25.2900  -36.1270   23.8340 C   0  0  0  0  0  3  0  0  0  0  0  0
  -27.2820  -37.2000   24.7810 C   0  0  0  0  0  1  0  0  0  0  0  0
  -26.2320  -37.2660   23.7680 N   0  0  0  0  0  0  0  0  0  0  0  0
  -25.7390  -38.1470   23.8800 H   0  0  0  0  0  0  0  0  0  0  0  0
  -26.5860  -31.6200   25.1750 C   0  0  1  0  0  0  0  0  0  0  0  0
  -25.4600  -31.2800   26.1780 C   0  0  0  0  0  1  0  0  0  0  0  0
  -27.3130  -30.3010   24.8200 C   0  0  0  0  0  1  0  0  0  0  0  0
  -27.6210  -32.5130   25.8990 C   0  0  0  0  0  1  0  0  0  0  0  0
  -28.1700  -20.1100   20.9450 C   0  0  0  0  0  2  0  0  0  0  0  0
  -31.1330  -14.5930   19.6060 C   0  0  0  0  0  0  0  0  0  0  0  0
  -30.7580  -12.4050   18.5130 C   0  0  0  0  0  2  0  0  0  0  0  0
  -29.6750  -12.5560   17.4240 C   0  0  0  0  0  2  0  0  0  0  0  0
  -28.2570  -12.4280   18.0190 C   0  0  0  0  0  2  0  0  0  0  0  0
  -28.0610  -13.2980   19.2890 C   0  0  0  0  0  3  0  0  0  0  0  0
  -29.2310  -13.0810   20.2730 C   0  0  0  0  0  2  0  0  0  0  0  0
  -30.4920  -13.3920   19.5710 N   0  0  0  0  0  0  0  0  0  0  0  0
  -32.0970  -14.8650   18.8800 O   0  0  0  0  0  0  0  0  0  0  0  0
  -29.0680  -18.9700   20.5270 C   0  0  0  0  0  0  0  0  0  0  0  0
  -29.7570  -18.7710   19.3510 C   0  0  0  0  0  0  0  0  0  0  0  0
  -30.2290  -16.7880   20.3730 C   0  0  0  0  0  0  0  0  0  0  0  0
  -30.4210  -17.5390   19.2790 N   0  0  0  0  0  0  0  0  0  0  0  0
  -30.6590  -15.4410   20.5350 N   0  0  0  0  0  0  0  0  0  0  0  0
  -29.2530  -17.5930   21.5930 S   0  0  0  0  0  0  0  0  0  0  0  0
  -30.1740  -14.9640   21.2790 H   0  0  0  0  0  0  0  0  0  0  0  0
  -25.7980  -13.9390   20.3460 C   0  0  0  0  0  0  0  0  0  0  0  0
  -24.7570  -13.1790   20.8060 C   0  0  0  0  0  0  0  0  0  0  0  0
  -25.1490  -11.8180   20.6220 C   0  0  0  0  0  0  0  0  0  0  0  0
  -26.7670  -13.0410   19.9210 N   0  0  0  0  0  0  0  0  0  0  0  0
  -26.3840  -11.7560   20.1380 N   0  0  0  0  0  0  0  0  0  0  0  0
  -24.4000  -10.5710   20.8240 C   0  0  0  0  0  0  0  0  0  0  0  0
  -24.7920   -9.6240   21.7950 C   0  0  0  0  0  3  0  0  0  0  0  0
  -24.0450   -8.4410   21.9830 C   0  0  0  0  0  3  0  0  0  0  0  0
  -22.8920   -8.1980   21.1990 C   0  0  0  0  0  0  0  0  0  0  0  0
  -22.5190   -9.1330   20.2180 C   0  0  0  0  0  3  0  0  0  0  0  0
  -23.2670  -10.3080   20.0290 C   0  0  0  0  0  3  0  0  0  0  0  0
  -22.1200   -7.0650   21.2940 O   0  0  0  0  0  0  0  0  0  0  0  0
  -21.8630   -6.4670   22.5010 C   0  0  0  0  0  0  0  0  0  0  0  0
  -21.2200   -7.1570   23.5520 C   0  0  0  0  0  3  0  0  0  0  0  0
  -20.9130   -6.4840   24.7510 C   0  0  0  0  0  3  0  0  0  0  0  0
  -21.2390   -5.1230   24.8990 C   0  0  0  0  0  0  0  0  0  0  0  0
  -21.8750   -4.4330   23.8520 C   0  0  0  0  0  3  0  0  0  0  0  0
  -22.1830   -5.1030   22.6560 C   0  0  0  0  0  0  0  0  0  0  0  0
  -22.7760   -4.4280   21.6410 F   0  0  0  0  0  0  0  0  0  0  0  0
  -20.9390   -4.4750   26.0490 F   0  0  0  0  0  0  0  0  0  0  0  0
  -23.4310  -13.6830   21.3010 C   0  0  0  0  0  0  0  0  0  0  0  0
  -22.8180  -12.9780   22.2450 N   0  0  0  0  0  0  0  0  0  0  0  0
  -22.9520  -14.7360   20.8810 O   0  0  0  0  0  0  0  0  0  0  0  0
  -23.2220  -12.1260   22.6060 H   0  0  0  0  0  0  0  0  0  0  0  0
  -21.9330  -13.2980   22.6140 H   0  0  0  0  0  0  0  0  0  0  0  0
  -25.9960  -15.3120   20.2390 N   0  0  0  0  0  0  0  0  0  0  0  0
  -25.2700  -15.9760   20.4840 H   0  0  0  0  0  0  0  0  0  0  0  0
  -26.7970  -15.7470   19.7990 H   0  0  0  0  0  0  0  0  0  0  0  0
  -29.8070  -19.6490   18.2710 N   0  0  0  0  0  0  0  0  0  0  0  0
  -29.2380  -20.4900   18.2510 H   0  0  0  0  0  0  0  0  0  0  0  0
  -30.2720  -19.4060   17.4030 H   0  0  0  0  0  0  0  0  0  0  0  0
  2  3  1  0
  2  1  2  0
  3  4  2  0
  5  8  1  0
  5  3  1  0
  8  6  1  6
  8  7  1  0
  8  9  1  0
 10 21  2  0
 11  9  1  0
 11 16  1  0
 12 20  1  0
 12 22  1  0
 13 19  1  0
 13 15  1  0
 14 20  1  0
 15 16  2  0
 15 14  1  0
 17 18  1  0
 17 11  2  0
 18 13  2  0
 19 12  1  0
 20 10  1  0
 22 24  2  0
 23 22  1  0
 25 23  1  0
 26 35  2  0
 26 31  1  0
 27 23  1  0
 27 31  1  0
 28 27  1  0
 29 30  1  0
 29 28  1  0
 30 26  1  0
 31 32  2  0
 32 33  1  0
 34 33  2  0
 35 34  1  0
 36 10  1  0
 36 37  1  0
 36 46  1  0
 37 40  1  0
 38 42  1  0
 38 37  1  0
 39 38  2  0
 42 41  1  0
 44 42  1  0
 44 45  1  0
 44 43  1  0
 46 49  1  1
 46 47  1  0
 48 46  1  0
 50  1  1  0
 51 63  1  0
 52 57  1  0
 53 54  1  0
 53 52  1  0
 55 54  1  0
 55 69  1  0
 55 56  1  0
 57 51  1  0
 57 56  1  0
 58 51  2  0
 59 50  1  0
 59 64  1  0
 60 59  2  0
 61 63  1  0
 61 64  1  0
 62 60  1  0
 62 61  2  0
 63 65  1  0
 66 67  2  0
 67 86  1  0
 68 67  1  0
 68 71  1  0
 69 70  1  0
 69 66  1  0
 70 68  2  0
 71 72  1  0
 72 73  2  0
 74 77  1  0
 74 73  1  0
 75 74  2  0
 76 75  1  0
 76 71  2  0
 77 78  1  0
 78 83  2  0
 78 79  1  0
 79 80  2  0
 80 81  1  0
 81 85  1  0
 82 81  2  0
 83 82  1  0
 84 83  1  0
 86 87  1  0
 87 89  1  0
 87 90  1  0
 88 86  2  0
 91 66  1  0
 91 92  1  0
 93 91  1  0
 94 60  1  0
 95 94  1  0
 96 94  1  0
M  ISO  4   8 101   9 101  51 100  63 100
M  END
>  <TORSDO>  (8) 
F 21

>  <SCORE>  (8) 
-10.587

>  <name>  (8) 
7

>  <ligand_id>  (8) 
7

>  <original_smiles>  (8) 
[H]C(=NC(=O)C([H])([H])C(Oc1c([H])c([H])c2c(c1[H])C([H])([H])N(C(=O)C([H])(N([H])C(=O)C([H])(N([H])C([H])([H])[H])C([H])([H])[H])C(C([H])([H])[H])(C([H])([H])[H])C([H])([H])[H])C([H])(C(=O)N([H])C1([H])c3c([H])c([H])c([H])c([H])c3C([H])([H])C([H])([H])C1([H])[H])C2([H])[H])(C([H])([H])[H])C([H])([H])[H])C([H])([H])c1sc(N([H])C(=O)N2C([H])([H])C([H])([H])C([H])([H])C([H])(n3nc(-c4c([H])c([H])c(Oc5c([H])c([H])c(F)c([H])c5F)c([H])c4[H])c(C(=O)N([H])[H])c3N([H])[H])C2([H])[H])nc1N([H])[H]

>  <smiles>  (8) 
[H]C(=NC(=O)C([H])([H])C(Oc1c([H])c([H])c2c(c1[H])C([H])([H])N(C(=O)C([H])(N([H])C(=O)C([H])(N([H])C([H])([H])[H])C([H])([H])[H])C(C([H])([H])[H])(C([H])([H])[H])C([H])([H])[H])C([H])(C(=O)N([H])C1([H])c3c([H])c([H])c([H])c([H])c3C([H])([H])C([H])([H])C1([H])[H])C2([H])[H])(C([H])([H])[H])C([H])([H])[H])C([H])([H])c1sc(N([H])C(=O)N2C([H])([H])C([H])([H])C([H])([H])C([H])(n3nc(-c4c([H])c([H])c(Oc5c([H])c([H])c(F)c([H])c5F)c([H])c4[H])c(C(=O)N([H])[H])c3N([H])[H])C2([H])[H])nc1N([H])[H]

$$$$
8:0:0
     RDKit          3D

 93101  0  0  1  0  0  0  0  0999 V2000
  -30.2400  -18.6730   20.2180 C   0  0  0  0  0  0  0  0  0  0  0  0
  -30.2070  -19.0350   21.5600 C   0  0  0  0  0  0  0  0  0  0  0  0
  -29.6000  -21.0160   20.1000 C   0  0  0  0  0  0  0  0  0  0  0  0
  -29.0560  -23.6050   19.9890 C   0  0  0  0  0  0  0  0  0  0  0  0
  -29.8590  -19.8400   19.4240 N   0  0  0  0  0  0  0  0  0  0  0  0
  -29.1080  -22.2930   19.5020 N   0  0  0  0  0  0  0  0  0  0  0  0
  -29.7040  -23.9280   20.9870 O   0  0  0  0  0  0  0  0  0  0  0  0
  -29.8020  -20.7400   21.8280 S   0  0  0  0  0  0  0  0  0  0  0  0
  -28.6700  -22.1780   18.6010 H   0  0  0  0  0  0  0  0  0  0  0  0
  -30.4710  -18.2640   22.6940 N   0  0  0  0  0  0  0  0  0  0  0  0
  -30.5780  -17.2540   22.6180 H   0  0  0  0  0  0  0  0  0  0  0  0
  -30.2330  -18.5620   23.6350 H   0  0  0  0  0  0  0  0  0  0  0  0
  -30.6810  -17.2250   19.7460 C   0  0  0  0  0  3  0  0  0  0  0  0
  -30.5410  -16.0220   20.3020 N   0  0  0  0  0  0  0  0  0  0  0  0
  -31.2060  -14.8550   19.7640 C   0  0  0  0  0  0  0  0  0  0  0  0
  -30.8070  -12.6170   18.6910 C   0  0  0  0  0  2  0  0  0  0  0  0
  -29.7760  -12.7800   17.5520 C   0  0  0  0  0  2  0  0  0  0  0  0
  -28.3410  -12.6510   18.0960 C   0  0  0  0  0  2  0  0  0  0  0  0
  -28.1140  -13.5040   19.3720 C   0  0  0  0  0  3  0  0  0  0  0  0
  -29.2570  -13.3330   20.3940 C   0  0  0  0  0  2  0  0  0  0  0  0
  -30.5190  -13.6550   19.7150 N   0  0  0  0  0  0  0  0  0  0  0  0
  -32.3220  -14.8920   19.2410 O   0  0  0  0  0  0  0  0  0  0  0  0
  -25.8440  -14.1710   20.3620 C   0  0  0  0  0  0  0  0  0  0  0  0
  -24.7700  -13.4340   20.7790 C   0  0  0  0  0  0  0  0  0  0  0  0
  -25.1420  -12.0640   20.6160 C   0  0  0  0  0  0  0  0  0  0  0  0
  -26.8050  -13.2540   19.9690 N   0  0  0  0  0  0  0  0  0  0  0  0
  -26.3960  -11.9760   20.1840 N   0  0  0  0  0  0  0  0  0  0  0  0
  -24.3580  -10.8340   20.7930 C   0  0  0  0  0  0  0  0  0  0  0  0
  -24.7550   -9.8280   21.7000 C   0  0  0  0  0  3  0  0  0  0  0  0
  -23.9730   -8.6630   21.8650 C   0  0  0  0  0  3  0  0  0  0  0  0
  -22.7800   -8.4990   21.1220 C   0  0  0  0  0  0  0  0  0  0  0  0
  -22.4010   -9.4940   20.2040 C   0  0  0  0  0  3  0  0  0  0  0  0
  -23.1820  -10.6490   20.0370 C   0  0  0  0  0  3  0  0  0  0  0  0
  -21.9710   -7.3900   21.1990 O   0  0  0  0  0  0  0  0  0  0  0  0
  -21.8250   -6.6850   22.3660 C   0  0  0  0  0  0  0  0  0  0  0  0
  -21.3180   -7.2820   23.5400 C   0  0  0  0  0  3  0  0  0  0  0  0
  -21.1180   -6.5030   24.6980 C   0  0  0  0  0  3  0  0  0  0  0  0
  -21.4160   -5.1280   24.6800 C   0  0  0  0  0  0  0  0  0  0  0  0
  -21.9150   -4.5290   23.5100 C   0  0  0  0  0  3  0  0  0  0  0  0
  -22.1160   -5.3060   22.3550 C   0  0  0  0  0  0  0  0  0  0  0  0
  -22.5770   -4.7190   21.2240 F   0  0  0  0  0  0  0  0  0  0  0  0
  -21.2180   -4.3770   25.7890 F   0  0  0  0  0  0  0  0  0  0  0  0
  -23.4360  -13.9690   21.2130 C   0  0  0  0  0  0  0  0  0  0  0  0
  -22.7550  -13.2650   22.1100 N   0  0  0  0  0  0  0  0  0  0  0  0
  -23.0120  -15.0440   20.7920 O   0  0  0  0  0  0  0  0  0  0  0  0
  -23.1130  -12.3930   22.4710 H   0  0  0  0  0  0  0  0  0  0  0  0
  -21.8630  -13.6040   22.4420 H   0  0  0  0  0  0  0  0  0  0  0  0
  -26.0790  -15.5380   20.2620 N   0  0  0  0  0  0  0  0  0  0  0  0
  -25.3820  -16.2340   20.5060 H   0  0  0  0  0  0  0  0  0  0  0  0
  -26.9490  -15.9430   19.9370 H   0  0  0  0  0  0  0  0  0  0  0  0
  -28.2830  -24.7360   17.7610 C   0  0  0  0  0  1  0  0  0  0  0  0
  -28.1340  -24.7440   19.2900 C   0  0  0  0  0  3  0  0  0  0  0  0
  -28.2360  -26.2040   19.7310 O   0  0  0  0  0  0  0  0  0  0  0  0
  -24.5410  -31.5860   22.9900 C   0  0  0  0  0  0  0  0  0  0  0  0
  -27.1320  -27.1120   19.6900 C   0  0  0  0  0  0  0  0  0  0  0  0
  -23.3200  -30.2240   21.3380 C   0  0  0  0  0  3  0  0  0  0  0  0
  -24.7560  -28.7540   19.8080 C   0  0  0  0  0  0  0  0  0  0  0  0
  -25.8550  -30.5700   21.1050 C   0  0  0  0  0  2  0  0  0  0  0  0
  -25.9370  -29.2120   20.4010 C   0  0  0  0  0  0  0  0  0  0  0  0
  -27.1230  -28.4020   20.3390 C   0  0  0  0  0  3  0  0  0  0  0  0
  -25.9260  -26.7550   19.0430 C   0  0  0  0  0  3  0  0  0  0  0  0
  -24.7580  -27.5350   19.1180 C   0  0  0  0  0  3  0  0  0  0  0  0
  -23.5080  -29.6080   19.9270 C   0  0  0  0  0  2  0  0  0  0  0  0
  -24.5930  -30.8120   21.8660 N   0  0  0  0  0  0  0  0  0  0  0  0
  -23.4670  -31.8260   23.5610 O   0  0  0  0  0  0  0  0  0  0  0  0
  -22.6990  -29.1610   22.2790 C   0  0  0  0  0  0  0  0  0  0  0  0
  -21.3780  -28.9420   22.1640 N   0  0  0  0  0  0  0  0  0  0  0  0
  -23.4070  -28.5390   23.0740 O   0  0  0  0  0  0  0  0  0  0  0  0
  -20.8620  -29.4970   21.4950 H   0  0  0  0  0  0  0  0  0  0  0  0
  -18.0570  -27.5870   22.6530 C   0  0  0  0  0  0  0  0  0  0  0  0
  -20.6010  -27.9560   22.9210 C   0  0  0  0  0  3  0  0  0  0  0  0
  -20.7650  -26.5400   22.3230 C   0  0  0  0  0  2  0  0  0  0  0  0
  -19.6760  -26.1850   21.3060 C   0  0  0  0  0  2  0  0  0  0  0  0
  -18.2910  -26.2580   21.9550 C   0  0  0  0  0  2  0  0  0  0  0  0
  -19.1410  -28.3920   23.0930 C   0  0  0  0  0  0  0  0  0  0  0  0
  -18.8670  -29.6330   23.7070 C   0  0  0  0  0  3  0  0  0  0  0  0
  -17.5410  -30.0720   23.8840 C   0  0  0  0  0  3  0  0  0  0  0  0
  -16.4710  -29.2650   23.4590 C   0  0  0  0  0  3  0  0  0  0  0  0
  -16.7290  -28.0240   22.8500 C   0  0  0  0  0  3  0  0  0  0  0  0
  -25.8260  -32.2260   23.5980 C   0  0  0  0  0  3  0  0  0  0  0  0
  -26.4050  -31.4090   24.8190 C   0  0  1  0  0  0  0  0  0  0  0  0
  -25.3580  -31.1030   25.9160 C   0  0  0  0  0  1  0  0  0  0  0  0
  -26.9990  -30.0620   24.3480 C   0  0  0  0  0  1  0  0  0  0  0  0
  -27.5650  -32.1980   25.4710 C   0  0  0  0  0  1  0  0  0  0  0  0
  -25.4900  -33.5970   24.0090 N   0  0  0  0  0  0  0  0  0  0  0  0
  -25.7930  -34.6990   23.3090 C   0  0  0  0  0  0  0  0  0  0  0  0
  -26.4530  -34.6680   22.2680 O   0  0  0  0  0  0  0  0  0  0  0  0
  -24.8980  -33.6930   24.8210 H   0  0  0  0  0  0  0  0  0  0  0  0
  -24.0340  -36.4820   23.0680 C   0  0  0  0  0  1  0  0  0  0  0  0
  -25.2840  -36.0500   23.8510 C   0  0  0  0  0  3  0  0  0  0  0  0
  -27.3960  -36.9280   24.7460 C   0  0  0  0  0  1  0  0  0  0  0  0
  -26.2990  -37.1240   23.8010 N   0  0  0  0  0  0  0  0  0  0  0  0
  -25.8760  -38.0290   23.9900 H   0  0  0  0  0  0  0  0  0  0  0  0
  1  2  2  0
  2  8  1  0
  2 10  1  0
  3  8  1  0
  4  7  2  0
  5  3  2  0
  5  1  1  0
  6  4  1  0
  6  3  1  0
  9  6  1  0
 10 12  1  0
 11 10  1  0
 13  1  1  0
 13 14  2  0
 15 14  1  0
 16 21  1  0
 17 18  1  0
 17 16  1  0
 19 18  1  0
 19 26  1  0
 19 20  1  0
 21 15  1  0
 21 20  1  0
 22 15  2  0
 23 24  2  0
 24 43  1  0
 25 24  1  0
 25 28  1  0
 26 27  1  0
 26 23  1  0
 27 25  2  0
 28 29  1  0
 29 30  2  0
 31 34  1  0
 31 30  1  0
 32 31  2  0
 33 32  1  0
 33 28  2  0
 34 35  1  0
 35 36  1  0
 36 37  2  0
 38 37  1  0
 38 42  1  0
 39 38  2  0
 40 35  2  0
 40 39  1  0
 41 40  1  0
 43 44  1  0
 44 47  1  0
 44 46  1  0
 45 43  2  0
 48 23  1  0
 48 49  1  0
 50 48  1  0
 52 51  1  0
 52 53  1  0
 52  4  1  0
 54 65  2  0
 55 53  1  0
 55 60  1  0
 56 64  1  0
 56 66  1  0
 57 63  1  0
 57 59  1  0
 58 64  1  0
 59 58  1  0
 60 59  2  0
 61 62  1  0
 61 55  2  0
 62 57  2  0
 63 56  1  0
 64 54  1  0
 66 68  2  0
 67 66  1  0
 69 67  1  0
 70 79  2  0
 70 75  1  0
 71 67  1  0
 71 75  1  0
 72 71  1  0
 73 74  1  0
 73 72  1  0
 74 70  1  0
 75 76  2  0
 76 77  1  0
 78 77  2  0
 79 78  1  0
 80 54  1  0
 80 85  1  0
 80 81  1  0
 81 84  1  1
 81 82  1  0
 83 81  1  0
 85 88  1  0
 86 90  1  0
 86 85  1  0
 87 86  2  0
 90 89  1  0
 92 90  1  0
 92 93  1  0
 92 91  1  0
M  ISO  4  14 100  15 100  52 101  53 101
M  END
>  <TORSDO>  (9) 
F 19

>  <SCORE>  (9) 
-12.746

>  <name>  (9) 
8

>  <ligand_id>  (9) 
8

>  <original_smiles>  (9) 
[H]C(=NC(=O)N1C([H])([H])C([H])([H])C([H])([H])C([H])(n2nc(-c3c([H])c([H])c(Oc4c([H])c([H])c(F)c([H])c4F)c([H])c3[H])c(C(=O)N([H])[H])c2N([H])[H])C1([H])[H])c1nc(N([H])C(=O)C([H])(Oc2c([H])c([H])c3c(c2[H])C([H])([H])N(C(=O)C([H])(N([H])C(=O)C([H])(N([H])C([H])([H])[H])C([H])([H])[H])C(C([H])([H])[H])(C([H])([H])[H])C([H])([H])[H])C([H])(C(=O)N([H])C2([H])c4c([H])c([H])c([H])c([H])c4C([H])([H])C([H])([H])C2([H])[H])C3([H])[H])C([H])([H])[H])sc1N([H])[H]

>  <smiles>  (9) 
[H]C(=NC(=O)N1C([H])([H])C([H])([H])C([H])([H])C([H])(n2nc(-c3c([H])c([H])c(Oc4c([H])c([H])c(F)c([H])c4F)c([H])c3[H])c(C(=O)N([H])[H])c2N([H])[H])C1([H])[H])c1nc(N([H])C(=O)C([H])(Oc2c([H])c([H])c3c(c2[H])C([H])([H])N(C(=O)C([H])(N([H])C(=O)C([H])(N([H])C([H])([H])[H])C([H])([H])[H])C(C([H])([H])[H])(C([H])([H])[H])C([H])([H])[H])C([H])(C(=O)N([H])C2([H])c4c([H])c([H])c([H])c([H])c4C([H])([H])C([H])([H])C2([H])[H])C3([H])[H])C([H])([H])[H])sc1N([H])[H]

$$$$
9:0:0
     RDKit          3D

 92100  0  0  1  0  0  0  0  0999 V2000
  -28.3560  -21.6100   20.2980 C   0  0  2  0  0  0  0  0  0  0  0  0
  -27.4780  -21.5730   21.3020 F   0  0  0  0  0  0  0  0  0  0  0  0
  -27.6340  -21.5510   19.1770 F   0  0  0  0  0  0  0  0  0  0  0  0
  -28.7150  -18.8390   20.1700 C   0  0  0  0  0  3  0  0  0  0  0  0
  -29.7260  -17.8600   20.4310 C   0  0  0  0  0  0  0  0  0  0  0  0
  -30.4420  -19.9910   20.7960 C   0  0  0  0  0  3  0  0  0  0  0  0
  -29.1720  -20.1940   20.3850 N   0  0  0  0  0  0  0  0  0  0  0  0
  -30.7880  -18.6670   20.8060 N   0  0  0  0  0  0  0  0  0  0  0  0
  -31.2710  -20.9900   21.1910 F   0  0  0  0  0  0  0  0  0  0  0  0
  -31.6970  -18.3410   21.1030 H   0  0  0  0  0  0  0  0  0  0  0  0
  -30.4930  -15.1520   20.3110 C   0  0  0  0  0  0  0  0  0  0  0  0
  -30.4390  -12.7780   19.3620 C   0  0  0  0  0  2  0  0  0  0  0  0
  -29.4910  -12.6850   18.1410 C   0  0  0  0  0  2  0  0  0  0  0  0
  -28.0370  -12.4440   18.5930 C   0  0  0  0  0  2  0  0  0  0  0  0
  -27.6230  -13.3710   19.7660 C   0  0  0  0  0  3  0  0  0  0  0  0
  -28.6910  -13.4120   20.8800 C   0  0  0  0  0  2  0  0  0  0  0  0
  -29.9380  -13.8660   20.2530 N   0  0  0  0  0  0  0  0  0  0  0  0
  -31.7020  -15.2440   20.0610 O   0  0  0  0  0  0  0  0  0  0  0  0
  -29.6370  -16.3010   20.4040 N   0  0  0  0  0  0  0  0  0  0  0  0
  -28.6780  -15.9890   20.4310 H   0  0  0  0  0  0  0  0  0  0  0  0
  -25.2490  -13.9280   20.5380 C   0  0  0  0  0  0  0  0  0  0  0  0
  -24.1920  -13.1440   20.9070 C   0  0  0  0  0  0  0  0  0  0  0  0
  -24.6610  -11.7950   20.8550 C   0  0  0  0  0  0  0  0  0  0  0  0
  -26.2930  -13.0580   20.2760 N   0  0  0  0  0  0  0  0  0  0  0  0
  -25.9490  -11.7690   20.5320 N   0  0  0  0  0  0  0  0  0  0  0  0
  -23.9400  -10.5290   21.0310 C   0  0  0  0  0  0  0  0  0  0  0  0
  -24.3680   -9.5590   21.9640 C   0  0  0  0  0  3  0  0  0  0  0  0
  -23.6440   -8.3580   22.1310 C   0  0  0  0  0  3  0  0  0  0  0  0
  -22.4790   -8.1200   21.3630 C   0  0  0  0  0  0  0  0  0  0  0  0
  -22.0720   -9.0770   20.4180 C   0  0  0  0  0  3  0  0  0  0  0  0
  -22.7960  -10.2690   20.2490 C   0  0  0  0  0  3  0  0  0  0  0  0
  -21.7300   -6.9700   21.4390 O   0  0  0  0  0  0  0  0  0  0  0  0
  -21.6540   -6.2350   22.5950 C   0  0  0  0  0  0  0  0  0  0  0  0
  -21.1440   -6.7810   23.7930 C   0  0  0  0  0  3  0  0  0  0  0  0
  -21.0180   -5.9710   24.9390 C   0  0  0  0  0  3  0  0  0  0  0  0
  -21.3920   -4.6150   24.8870 C   0  0  0  0  0  0  0  0  0  0  0  0
  -21.8930   -4.0670   23.6930 C   0  0  0  0  0  3  0  0  0  0  0  0
  -22.0200   -4.8750   22.5500 C   0  0  0  0  0  0  0  0  0  0  0  0
  -22.4850   -4.3370   21.3960 F   0  0  0  0  0  0  0  0  0  0  0  0
  -21.2640   -3.8340   25.9850 F   0  0  0  0  0  0  0  0  0  0  0  0
  -22.7950  -13.6130   21.1920 C   0  0  0  0  0  0  0  0  0  0  0  0
  -22.0740  -12.9070   22.0550 N   0  0  0  0  0  0  0  0  0  0  0  0
  -22.3510  -14.6420   20.6850 O   0  0  0  0  0  0  0  0  0  0  0  0
  -22.4470  -12.0730   22.4860 H   0  0  0  0  0  0  0  0  0  0  0  0
  -21.1360  -13.2030   22.2840 H   0  0  0  0  0  0  0  0  0  0  0  0
  -25.4020  -15.3020   20.3750 N   0  0  0  0  0  0  0  0  0  0  0  0
  -24.6190  -15.9380   20.4890 H   0  0  0  0  0  0  0  0  0  0  0  0
  -26.2030  -15.7410   19.9460 H   0  0  0  0  0  0  0  0  0  0  0  0
  -28.9100  -23.2320   20.3430 C   0  0  0  0  0  3  0  0  0  0  0  0
  -29.8870  -23.3250   19.4390 F   0  0  0  0  0  0  0  0  0  0  0  0
  -27.9230  -24.6270   20.1300 C   0  0  0  0  0  2  0  0  0  0  0  0
  -28.2190  -26.1760   20.2800 O   0  0  0  0  0  0  0  0  0  0  0  0
  -24.6320  -31.9450   23.2450 C   0  0  0  0  0  0  0  0  0  0  0  0
  -27.1810  -27.1930   20.2070 C   0  0  0  0  0  0  0  0  0  0  0  0
  -23.4280  -30.5610   21.6000 C   0  0  0  0  0  3  0  0  0  0  0  0
  -24.8680  -28.9770   20.1740 C   0  0  0  0  0  0  0  0  0  0  0  0
  -25.9850  -30.8050   21.4380 C   0  0  0  0  0  2  0  0  0  0  0  0
  -26.0520  -29.4090   20.7830 C   0  0  0  0  0  0  0  0  0  0  0  0
  -27.2090  -28.5350   20.7790 C   0  0  0  0  0  3  0  0  0  0  0  0
  -25.9690  -26.8730   19.5570 C   0  0  0  0  0  3  0  0  0  0  0  0
  -24.8410  -27.7230   19.5460 C   0  0  0  0  0  3  0  0  0  0  0  0
  -23.6500  -29.8870   20.2200 C   0  0  0  0  0  2  0  0  0  0  0  0
  -24.7030  -31.1280   22.1500 N   0  0  0  0  0  0  0  0  0  0  0  0
  -23.5470  -32.2310   23.7760 O   0  0  0  0  0  0  0  0  0  0  0  0
  -22.7450  -29.5550   22.5600 C   0  0  0  0  0  0  0  0  0  0  0  0
  -21.4170  -29.3840   22.4310 N   0  0  0  0  0  0  0  0  0  0  0  0
  -23.4140  -28.9310   23.3870 O   0  0  0  0  0  0  0  0  0  0  0  0
  -20.9320  -29.9440   21.7440 H   0  0  0  0  0  0  0  0  0  0  0  0
  -18.0340  -28.1820   22.9320 C   0  0  0  0  0  0  0  0  0  0  0  0
  -20.5950  -28.4430   23.1980 C   0  0  0  0  0  3  0  0  0  0  0  0
  -20.6920  -27.0130   22.6170 C   0  0  0  0  0  2  0  0  0  0  0  0
  -19.5890  -26.6940   21.6020 C   0  0  0  0  0  2  0  0  0  0  0  0
  -18.2080  -26.8360   22.2480 C   0  0  0  0  0  2  0  0  0  0  0  0
  -19.1540  -28.9430   23.3630 C   0  0  0  0  0  0  0  0  0  0  0  0
  -18.9360  -30.1990   23.9670 C   0  0  0  0  0  3  0  0  0  0  0  0
  -17.6320  -30.6990   24.1410 C   0  0  0  0  0  3  0  0  0  0  0  0
  -16.5260  -29.9370   23.7210 C   0  0  0  0  0  3  0  0  0  0  0  0
  -16.7290  -28.6800   23.1260 C   0  0  0  0  0  3  0  0  0  0  0  0
  -25.9100  -32.5770   23.8770 C   0  0  0  0  0  3  0  0  0  0  0  0
  -26.4210  -31.8010   25.1540 C   0  0  1  0  0  0  0  0  0  0  0  0
  -25.3230  -31.5560   26.2160 C   0  0  0  0  0  1  0  0  0  0  0  0
  -27.0090  -30.4250   24.7640 C   0  0  0  0  0  1  0  0  0  0  0  0
  -27.5690  -32.5930   25.8250 C   0  0  0  0  0  1  0  0  0  0  0  0
  -25.6000  -33.9760   24.2180 N   0  0  0  0  0  0  0  0  0  0  0  0
  -25.9030  -35.0340   23.4530 C   0  0  0  0  0  0  0  0  0  0  0  0
  -26.5390  -34.9350   22.4000 O   0  0  0  0  0  0  0  0  0  0  0  0
  -25.0300  -34.1250   25.0390 H   0  0  0  0  0  0  0  0  0  0  0  0
  -24.1470  -36.8160   23.1760 C   0  0  0  0  0  1  0  0  0  0  0  0
  -25.4260  -36.4200   23.9300 C   0  0  0  0  0  3  0  0  0  0  0  0
  -27.5840  -37.3320   24.6730 C   0  0  0  0  0  1  0  0  0  0  0  0
  -26.4470  -37.4790   23.7670 N   0  0  0  0  0  0  0  0  0  0  0  0
  -26.0390  -38.3980   23.9140 H   0  0  0  0  0  0  0  0  0  0  0  0
  1 49  1  0
  1  7  1  0
  1  2  1  1
  3  1  1  0
  4  7  1  0
  4  5  2  0
  5  8  1  0
  6  8  1  0
  6  9  1  0
  7  6  1  0
  8 10  1  0
 11 19  1  0
 12 17  1  0
 13 14  1  0
 13 12  1  0
 15 14  1  0
 15 24  1  0
 15 16  1  0
 17 11  1  0
 17 16  1  0
 18 11  2  0
 19 20  1  0
 19  5  1  0
 21 22  2  0
 22 41  1  0
 23 22  1  0
 23 26  1  0
 24 25  1  0
 24 21  1  0
 25 23  2  0
 26 27  1  0
 27 28  2  0
 29 32  1  0
 29 28  1  0
 30 29  2  0
 31 30  1  0
 31 26  2  0
 32 33  1  0
 33 34  1  0
 34 35  2  0
 36 35  1  0
 36 40  1  0
 37 36  2  0
 38 33  2  0
 38 37  1  0
 39 38  1  0
 41 42  1  0
 42 45  1  0
 42 44  1  0
 43 41  2  0
 46 47  1  0
 46 21  1  0
 48 46  1  0
 49 50  1  0
 51 52  1  0
 51 49  1  0
 53 64  2  0
 54 52  1  0
 54 59  1  0
 55 63  1  0
 55 65  1  0
 56 62  1  0
 56 58  1  0
 57 63  1  0
 58 57  1  0
 59 58  2  0
 60 54  2  0
 61 60  1  0
 61 56  2  0
 62 55  1  0
 63 53  1  0
 65 67  2  0
 66 65  1  0
 68 66  1  0
 69 78  2  0
 69 74  1  0
 70 66  1  0
 70 74  1  0
 71 70  1  0
 72 73  1  0
 72 71  1  0
 73 69  1  0
 74 75  2  0
 75 76  1  0
 77 76  2  0
 78 77  1  0
 79 53  1  0
 79 84  1  0
 79 80  1  0
 80 83  1  1
 80 81  1  0
 82 80  1  0
 84 87  1  0
 85 89  1  0
 85 84  1  0
 86 85  2  0
 89 88  1  0
 91 92  1  0
 91 89  1  0
 91 90  1  0
M  ISO  4  11 100  19 100  51 101  52 101
M  END
>  <TORSDO>  (10) 
F 19

>  <SCORE>  (10) 
-15.586

>  <name>  (10) 
9

>  <ligand_id>  (10) 
9

>  <original_smiles>  (10) 
[H]c1c([H])c([H])c2c(c1[H])C([H])([H])C([H])([H])C([H])([H])C2([H])N([H])C(=O)C1([H])N(C(=O)C([H])(N([H])C(=O)C([H])(N([H])C([H])([H])[H])C([H])([H])[H])C(C([H])([H])[H])(C([H])([H])[H])C([H])([H])[H])C([H])([H])c2c([H])c(OC([H])([H])C([H])(F)C(F)(F)n3c([H])c(N([H])C(=O)N4C([H])([H])C([H])([H])C([H])([H])C([H])(n5nc(-c6c([H])c([H])c(Oc7c([H])c([H])c(F)c([H])c7F)c([H])c6[H])c(C(=O)N([H])[H])c5N([H])[H])C4([H])[H])[n+]([H])c3F)c([H])c([H])c2C1([H])[H]

>  <smiles>  (10) 
[H]c1c([H])c([H])c2c(c1[H])C([H])([H])C([H])([H])C([H])([H])C2([H])N([H])C(=O)C1([H])N(C(=O)C([H])(N([H])C(=O)C([H])(N([H])C([H])([H])[H])C([H])([H])[H])C(C([H])([H])[H])(C([H])([H])[H])C([H])([H])[H])C([H])([H])c2c([H])c(OC([H])([H])C([H])(F)C(F)(F)n3c([H])c(N([H])C(=O)N4C([H])([H])C([H])([H])C([H])([H])C([H])(n5nc(-c6c([H])c([H])c(Oc7c([H])c([H])c(F)c([H])c7F)c([H])c6[H])c(C(=O)N([H])[H])c5N([H])[H])C4([H])[H])[n+]([H])c3F)c([H])c([H])c2C1([H])[H]

$$$$
10:0:0
     RDKit          3D

 92100  0  0  1  0  0  0  0  0999 V2000
  -29.1810  -21.2860   20.7490 C   0  0  0  0  0  0  0  0  0  0  0  0
  -29.0960  -22.4790   20.0290 C   0  0  0  0  0  0  0  0  0  0  0  0
  -29.3090  -22.3830   18.7040 F   0  0  0  0  0  0  0  0  0  0  0  0
  -30.6410  -14.7850   19.9950 C   0  0  0  0  0  0  0  0  0  0  0  0
  -30.3990  -12.5390   18.9320 C   0  0  0  0  0  2  0  0  0  0  0  0
  -29.3840  -12.6710   17.7750 C   0  0  0  0  0  2  0  0  0  0  0  0
  -27.9400  -12.4940   18.2850 C   0  0  0  0  0  2  0  0  0  0  0  0
  -27.6520  -13.3330   19.5590 C   0  0  0  0  0  3  0  0  0  0  0  0
  -28.7770  -13.1730   20.6070 C   0  0  0  0  0  2  0  0  0  0  0  0
  -30.0440  -13.5460   19.9580 N   0  0  0  0  0  0  0  0  0  0  0  0
  -31.7700  -14.9440   19.5160 O   0  0  0  0  0  0  0  0  0  0  0  0
  -30.1900  -19.3700   19.2550 C   0  0  0  0  0  3  0  0  0  0  0  0
  -29.5230  -19.8740   20.3620 C   0  0  0  0  0  0  0  0  0  0  0  0
  -29.9060  -17.2960   20.2960 C   0  0  0  0  0  0  0  0  0  0  0  0
  -30.4120  -17.9550   19.2370 N   0  0  0  0  0  0  0  0  0  0  0  0
  -29.8830  -15.8310   20.4820 N   0  0  0  0  0  0  0  0  0  0  0  0
  -29.0960  -18.4690   21.3870 S   0  0  0  0  0  0  0  0  0  0  0  0
  -29.0860  -15.5110   21.0090 H   0  0  0  0  0  0  0  0  0  0  0  0
  -25.3130  -13.9120   20.4460 C   0  0  0  0  0  0  0  0  0  0  0  0
  -24.2680  -13.1310   20.8610 C   0  0  0  0  0  0  0  0  0  0  0  0
  -24.7210  -11.7800   20.7610 C   0  0  0  0  0  0  0  0  0  0  0  0
  -26.3360  -13.0360   20.1190 N   0  0  0  0  0  0  0  0  0  0  0  0
  -25.9890  -11.7470   20.3690 N   0  0  0  0  0  0  0  0  0  0  0  0
  -24.0010  -10.5150   20.9600 C   0  0  0  0  0  0  0  0  0  0  0  0
  -24.4590   -9.5410   21.8760 C   0  0  0  0  0  3  0  0  0  0  0  0
  -23.7400   -8.3420   22.0640 C   0  0  0  0  0  3  0  0  0  0  0  0
  -22.5500   -8.1060   21.3350 C   0  0  0  0  0  0  0  0  0  0  0  0
  -22.1110   -9.0670   20.4090 C   0  0  0  0  0  3  0  0  0  0  0  0
  -22.8300  -10.2600   20.2190 C   0  0  0  0  0  3  0  0  0  0  0  0
  -21.8000   -6.9580   21.4340 O   0  0  0  0  0  0  0  0  0  0  0  0
  -21.7410   -6.2340   22.5970 C   0  0  0  0  0  0  0  0  0  0  0  0
  -21.2660   -6.7960   23.8020 C   0  0  0  0  0  3  0  0  0  0  0  0
  -21.1570   -5.9970   24.9570 C   0  0  0  0  0  3  0  0  0  0  0  0
  -21.5130   -4.6360   24.9080 C   0  0  0  0  0  0  0  0  0  0  0  0
  -21.9800   -4.0720   23.7080 C   0  0  0  0  0  3  0  0  0  0  0  0
  -22.0910   -4.8680   22.5540 C   0  0  0  0  0  0  0  0  0  0  0  0
  -22.5230   -4.3160   21.3950 F   0  0  0  0  0  0  0  0  0  0  0  0
  -21.4000   -3.8650   26.0150 F   0  0  0  0  0  0  0  0  0  0  0  0
  -22.8930  -13.6040   21.2330 C   0  0  0  0  0  0  0  0  0  0  0  0
  -22.2170  -12.8880   22.1250 N   0  0  0  0  0  0  0  0  0  0  0  0
  -22.4280  -14.6450   20.7700 O   0  0  0  0  0  0  0  0  0  0  0  0
  -22.6050  -12.0450   22.5230 H   0  0  0  0  0  0  0  0  0  0  0  0
  -21.2980  -13.1870   22.4160 H   0  0  0  0  0  0  0  0  0  0  0  0
  -25.4710  -15.2870   20.2990 N   0  0  0  0  0  0  0  0  0  0  0  0
  -24.7110  -15.9360   20.4720 H   0  0  0  0  0  0  0  0  0  0  0  0
  -26.2870  -15.7330   19.8990 H   0  0  0  0  0  0  0  0  0  0  0  0
  -28.7890  -23.9070   20.5820 C   0  0  0  0  0  0  0  0  0  0  0  0
  -28.7330  -24.1440   21.7950 O   0  0  0  0  0  0  0  0  0  0  0  0
  -28.5440  -25.1600   19.6240 C   0  0  0  0  0  2  0  0  0  0  0  0
  -28.4390  -26.5210   20.2570 O   0  0  0  0  0  0  0  0  0  0  0  0
  -24.6330  -31.9080   23.2400 C   0  0  0  0  0  0  0  0  0  0  0  0
  -27.2950  -27.3470   20.1830 C   0  0  0  0  0  0  0  0  0  0  0  0
  -23.4480  -30.5040   21.5930 C   0  0  0  0  0  3  0  0  0  0  0  0
  -24.9160  -28.9630   20.1700 C   0  0  0  0  0  0  0  0  0  0  0  0
  -25.9880  -30.8330   21.4240 C   0  0  0  0  0  2  0  0  0  0  0  0
  -26.0790  -29.4540   20.7730 C   0  0  0  0  0  0  0  0  0  0  0  0
  -27.2670  -28.6570   20.7700 C   0  0  0  0  0  3  0  0  0  0  0  0
  -26.1020  -26.9140   19.5600 C   0  0  0  0  0  3  0  0  0  0  0  0
  -24.9310  -27.7010   19.5560 C   0  0  0  0  0  3  0  0  0  0  0  0
  -23.6730  -29.8300   20.2130 C   0  0  0  0  0  2  0  0  0  0  0  0
  -24.7090  -31.1000   22.1420 N   0  0  0  0  0  0  0  0  0  0  0  0
  -23.5450  -32.1790   23.7700 O   0  0  0  0  0  0  0  0  0  0  0  0
  -22.7870  -29.4820   22.5490 C   0  0  0  0  0  0  0  0  0  0  0  0
  -21.4640  -29.2870   22.4080 N   0  0  0  0  0  0  0  0  0  0  0  0
  -23.4630  -28.8680   23.3790 O   0  0  0  0  0  0  0  0  0  0  0  0
  -20.9770  -29.8340   21.7120 H   0  0  0  0  0  0  0  0  0  0  0  0
  -18.0970  -28.0450   22.8730 C   0  0  0  0  0  0  0  0  0  0  0  0
  -20.6480  -28.3410   23.1730 C   0  0  0  0  0  3  0  0  0  0  0  0
  -20.7770  -26.9090   22.6050 C   0  0  0  0  0  2  0  0  0  0  0  0
  -19.6920  -26.5670   21.5780 C   0  0  0  0  0  2  0  0  0  0  0  0
  -18.3010  -26.6960   22.2050 C   0  0  0  0  0  2  0  0  0  0  0  0
  -19.2000  -28.8240   23.3130 C   0  0  0  0  0  0  0  0  0  0  0  0
  -18.9560  -30.0860   23.8980 C   0  0  0  0  0  3  0  0  0  0  0  0
  -17.6420  -30.5690   24.0470 C   0  0  0  0  0  3  0  0  0  0  0  0
  -16.5540  -29.7870   23.6230 C   0  0  0  0  0  3  0  0  0  0  0  0
  -16.7820  -28.5260   23.0420 C   0  0  0  0  0  3  0  0  0  0  0  0
  -25.9080  -32.5510   23.8690 C   0  0  0  0  0  3  0  0  0  0  0  0
  -26.4180  -31.7880   25.1540 C   0  0  1  0  0  0  0  0  0  0  0  0
  -25.3170  -31.5480   26.2110 C   0  0  0  0  0  1  0  0  0  0  0  0
  -27.0130  -30.4120   24.7750 C   0  0  0  0  0  1  0  0  0  0  0  0
  -27.5570  -32.5920   25.8220 C   0  0  0  0  0  1  0  0  0  0  0  0
  -25.5870  -33.9490   24.1930 N   0  0  0  0  0  0  0  0  0  0  0  0
  -25.9150  -35.0020   23.4330 C   0  0  0  0  0  0  0  0  0  0  0  0
  -26.5890  -34.9000   22.4040 O   0  0  0  0  0  0  0  0  0  0  0  0
  -24.9890  -34.1010   24.9910 H   0  0  0  0  0  0  0  0  0  0  0  0
  -24.1810  -36.7870   23.0680 C   0  0  0  0  0  1  0  0  0  0  0  0
  -25.4200  -36.3890   23.8860 C   0  0  0  0  0  3  0  0  0  0  0  0
  -27.5420  -37.2890   24.7320 C   0  0  0  0  0  1  0  0  0  0  0  0
  -26.4480  -37.4480   23.7780 N   0  0  0  0  0  0  0  0  0  0  0  0
  -26.0350  -38.3660   23.9200 H   0  0  0  0  0  0  0  0  0  0  0  0
  -28.9660  -21.3310   22.0740 O   0  0  0  0  0  0  0  0  0  0  0  0
  -29.0930  -20.4560   22.4130 H   0  0  0  0  0  0  0  0  0  0  0  0
  1 91  1  0
  2 47  1  0
  2  1  2  0
  3  2  1  0
  4 16  1  0
  5 10  1  0
  6  7  1  0
  6  5  1  0
  8  7  1  0
  8 22  1  0
  8  9  1  0
 10  4  1  0
 10  9  1  0
 11  4  2  0
 12 13  2  0
 13  1  1  0
 13 17  1  0
 14 16  1  0
 14 17  1  0
 15 12  1  0
 15 14  2  0
 16 18  1  0
 19 20  2  0
 20 39  1  0
 21 20  1  0
 21 24  1  0
 22 23  1  0
 22 19  1  0
 23 21  2  0
 24 25  1  0
 25 26  2  0
 27 30  1  0
 27 26  1  0
 28 27  2  0
 29 28  1  0
 29 24  2  0
 30 31  1  0
 31 32  1  0
 32 33  2  0
 34 33  1  0
 34 38  1  0
 35 34  2  0
 36 31  2  0
 36 35  1  0
 37 36  1  0
 39 40  1  0
 40 43  1  0
 40 42  1  0
 41 39  2  0
 44 19  1  0
 44 45  1  0
 46 44  1  0
 47 48  2  0
 49 50  1  0
 49 47  1  0
 51 62  2  0
 52 50  1  0
 52 57  1  0
 53 61  1  0
 53 63  1  0
 54 60  1  0
 54 56  1  0
 55 61  1  0
 56 55  1  0
 57 56  2  0
 58 52  2  0
 59 58  1  0
 59 54  2  0
 60 53  1  0
 61 51  1  0
 63 65  2  0
 64 63  1  0
 66 64  1  0
 67 76  2  0
 67 72  1  0
 68 64  1  0
 68 72  1  0
 69 68  1  0
 70 71  1  0
 70 69  1  0
 71 67  1  0
 72 73  2  0
 73 74  1  0
 75 74  2  0
 76 75  1  0
 77 51  1  0
 77 82  1  0
 77 78  1  0
 78 81  1  1
 78 79  1  0
 80 78  1  0
 82 85  1  0
 83 87  1  0
 83 82  1  0
 84 83  2  0
 87 86  1  0
 89 87  1  0
 89 90  1  0
 89 88  1  0
 91 92  1  0
M  ISO  4   4 100  16 100  49 101  50 101
M  END
>  <TORSDO>  (11) 
F 19

>  <SCORE>  (11) 
-13.858

>  <name>  (11) 
10

>  <ligand_id>  (11) 
10

>  <original_smiles>  (11) 
[H]OC(=C(F)C(=O)C([H])([H])Oc1c([H])c([H])c2c(c1[H])C([H])([H])N(C(=O)C([H])(N([H])C(=O)C([H])(N([H])C([H])([H])[H])C([H])([H])[H])C(C([H])([H])[H])(C([H])([H])[H])C([H])([H])[H])C([H])(C(=O)N([H])C1([H])c3c([H])c([H])c([H])c([H])c3C([H])([H])C([H])([H])C1([H])[H])C2([H])[H])c1sc(N([H])C(=O)N2C([H])([H])C([H])([H])C([H])([H])C([H])(n3nc(-c4c([H])c([H])c(Oc5c([H])c([H])c(F)c([H])c5F)c([H])c4[H])c(C(=O)N([H])[H])c3N([H])[H])C2([H])[H])nc1[H]

>  <smiles>  (11) 
[H]OC(=C(F)C(=O)C([H])([H])Oc1c([H])c([H])c2c(c1[H])C([H])([H])N(C(=O)C([H])(N([H])C(=O)C([H])(N([H])C([H])([H])[H])C([H])([H])[H])C(C([H])([H])[H])(C([H])([H])[H])C([H])([H])[H])C([H])(C(=O)N([H])C1([H])c3c([H])c([H])c([H])c([H])c3C([H])([H])C([H])([H])C1([H])[H])C2([H])[H])c1sc(N([H])C(=O)N2C([H])([H])C([H])([H])C([H])([H])C([H])(n3nc(-c4c([H])c([H])c(Oc5c([H])c([H])c(F)c([H])c5F)c([H])c4[H])c(C(=O)N([H])[H])c3N([H])[H])C2([H])[H])nc1[H]

$$$$
11:0:0
     RDKit          3D

 91 99  0  0  1  0  0  0  0  0999 V2000
  -30.1780  -17.6160   19.0370 C   0  0  0  0  0  3  0  0  0  0  0  0
  -29.8410  -17.3130   20.3340 C   0  0  0  0  0  0  0  0  0  0  0  0
  -29.3410  -19.6690   20.2660 C   0  0  0  0  0  0  0  0  0  0  0  0
  -28.7840  -22.2010   19.9880 C   0  0  0  0  0  0  0  0  0  0  0  0
  -28.7050  -21.1580   22.2050 C   0  0  0  0  0  1  0  0  0  0  0  0
  -29.3500  -18.4990   21.0070 N   0  0  0  0  0  0  0  0  0  0  0  0
  -28.9550  -21.0350   20.7600 N   0  0  0  0  0  0  0  0  0  0  0  0
  -28.6890  -22.1190   18.7600 O   0  0  0  0  0  0  0  0  0  0  0  0
  -29.9230  -19.3120   18.6310 S   0  0  0  0  0  0  0  0  0  0  0  0
  -30.6640  -14.8340   20.5270 C   0  0  0  0  0  0  0  0  0  0  0  0
  -30.5600  -12.5140   19.5970 C   0  0  0  0  0  2  0  0  0  0  0  0
  -29.6920  -12.5860   18.3210 C   0  0  0  0  0  2  0  0  0  0  0  0
  -28.1980  -12.4150   18.6700 C   0  0  0  0  0  2  0  0  0  0  0  0
  -27.7660  -13.3070   19.8630 C   0  0  0  0  0  3  0  0  0  0  0  0
  -28.7620  -13.2260   21.0380 C   0  0  0  0  0  2  0  0  0  0  0  0
  -30.0890  -13.5780   20.5160 N   0  0  0  0  0  0  0  0  0  0  0  0
  -31.8300  -14.9690   20.1460 O   0  0  0  0  0  0  0  0  0  0  0  0
  -29.8680  -15.9250   20.8620 N   0  0  0  0  0  0  0  0  0  0  0  0
  -29.0730  -15.6870   21.4350 H   0  0  0  0  0  0  0  0  0  0  0  0
  -25.3420  -13.8870   20.4740 C   0  0  0  0  0  0  0  0  0  0  0  0
  -24.2690  -13.1120   20.8220 C   0  0  0  0  0  0  0  0  0  0  0  0
  -24.7450  -11.7660   20.8390 C   0  0  0  0  0  0  0  0  0  0  0  0
  -26.4030  -13.0150   20.2980 N   0  0  0  0  0  0  0  0  0  0  0  0
  -26.0480  -11.7340   20.5750 N   0  0  0  0  0  0  0  0  0  0  0  0
  -24.0220  -10.5010   21.0320 C   0  0  0  0  0  0  0  0  0  0  0  0
  -24.4420   -9.5470   21.9850 C   0  0  0  0  0  3  0  0  0  0  0  0
  -23.7210   -8.3460   22.1620 C   0  0  0  0  0  3  0  0  0  0  0  0
  -22.5650   -8.0900   21.3870 C   0  0  0  0  0  0  0  0  0  0  0  0
  -22.1650   -9.0340   20.4240 C   0  0  0  0  0  3  0  0  0  0  0  0
  -22.8870  -10.2260   20.2440 C   0  0  0  0  0  3  0  0  0  0  0  0
  -21.8150   -6.9430   21.4740 O   0  0  0  0  0  0  0  0  0  0  0  0
  -21.7630   -6.2020   22.6270 C   0  0  0  0  0  0  0  0  0  0  0  0
  -21.3460   -6.7600   23.8540 C   0  0  0  0  0  3  0  0  0  0  0  0
  -21.2400   -5.9460   24.9990 C   0  0  0  0  0  3  0  0  0  0  0  0
  -21.5410   -4.5740   24.9180 C   0  0  0  0  0  0  0  0  0  0  0  0
  -21.9510   -4.0140   23.6950 C   0  0  0  0  0  3  0  0  0  0  0  0
  -22.0590   -4.8250   22.5530 C   0  0  0  0  0  0  0  0  0  0  0  0
  -22.4360   -4.2750   21.3730 F   0  0  0  0  0  0  0  0  0  0  0  0
  -21.4340   -3.7910   26.0180 F   0  0  0  0  0  0  0  0  0  0  0  0
  -22.8580  -13.5830   21.0290 C   0  0  0  0  0  0  0  0  0  0  0  0
  -22.1010  -12.9070   21.8850 N   0  0  0  0  0  0  0  0  0  0  0  0
  -22.4320  -14.5890   20.4630 O   0  0  0  0  0  0  0  0  0  0  0  0
  -22.4540  -12.0930   22.3660 H   0  0  0  0  0  0  0  0  0  0  0  0
  -21.1520  -13.2050   22.0560 H   0  0  0  0  0  0  0  0  0  0  0  0
  -25.5060  -15.2540   20.2750 N   0  0  0  0  0  0  0  0  0  0  0  0
  -24.7330  -15.9090   20.3240 H   0  0  0  0  0  0  0  0  0  0  0  0
  -26.3750  -15.6870   19.9830 H   0  0  0  0  0  0  0  0  0  0  0  0
  -28.6600  -23.6990   20.6000 C   0  0  0  0  0  3  0  0  0  0  0  0
  -29.7770  -23.9420   21.2940 F   0  0  0  0  0  0  0  0  0  0  0  0
  -28.4400  -24.9760   19.6000 C   0  0  0  0  0  2  0  0  0  0  0  0
  -28.4300  -26.4360   20.0340 O   0  0  0  0  0  0  0  0  0  0  0  0
  -24.6840  -31.8530   23.1030 C   0  0  0  0  0  0  0  0  0  0  0  0
  -27.3100  -27.3080   19.9650 C   0  0  0  0  0  0  0  0  0  0  0  0
  -23.4870  -30.4670   21.4510 C   0  0  0  0  0  3  0  0  0  0  0  0
  -24.9430  -28.9520   19.9870 C   0  0  0  0  0  0  0  0  0  0  0  0
  -26.0280  -30.8000   21.2620 C   0  0  0  0  0  2  0  0  0  0  0  0
  -26.1140  -29.4290   20.5860 C   0  0  0  0  0  0  0  0  0  0  0  0
  -27.2980  -28.6180   20.5630 C   0  0  0  0  0  3  0  0  0  0  0  0
  -26.1080  -26.9050   19.3410 C   0  0  0  0  0  3  0  0  0  0  0  0
  -24.9460  -27.6990   19.3560 C   0  0  0  0  0  3  0  0  0  0  0  0
  -23.6950  -29.8100   20.0610 C   0  0  0  0  0  2  0  0  0  0  0  0
  -24.7510  -31.0610   21.9920 N   0  0  0  0  0  0  0  0  0  0  0  0
  -23.6000  -32.1090   23.6490 O   0  0  0  0  0  0  0  0  0  0  0  0
  -22.8420  -29.4300   22.4010 C   0  0  0  0  0  0  0  0  0  0  0  0
  -21.5150  -29.2470   22.2900 N   0  0  0  0  0  0  0  0  0  0  0  0
  -23.5340  -28.7920   23.1980 O   0  0  0  0  0  0  0  0  0  0  0  0
  -21.0140  -29.8060   21.6120 H   0  0  0  0  0  0  0  0  0  0  0  0
  -18.1500  -28.0270   22.8260 C   0  0  0  0  0  0  0  0  0  0  0  0
  -20.7130  -28.2880   23.0510 C   0  0  0  0  0  3  0  0  0  0  0  0
  -20.8070  -26.8720   22.4340 C   0  0  0  0  0  2  0  0  0  0  0  0
  -19.6860  -26.5720   21.4350 C   0  0  0  0  0  2  0  0  0  0  0  0
  -18.3160  -26.6970   22.1080 C   0  0  0  0  0  2  0  0  0  0  0  0
  -19.2750  -28.7810   23.2520 C   0  0  0  0  0  0  0  0  0  0  0  0
  -19.0640  -30.0280   23.8820 C   0  0  0  0  0  3  0  0  0  0  0  0
  -17.7620  -30.5220   24.0850 C   0  0  0  0  0  3  0  0  0  0  0  0
  -16.6510  -29.7610   23.6780 C   0  0  0  0  0  3  0  0  0  0  0  0
  -16.8460  -28.5150   23.0560 C   0  0  0  0  0  3  0  0  0  0  0  0
  -25.9610  -32.4940   23.7290 C   0  0  0  0  0  3  0  0  0  0  0  0
  -25.6250  -33.8710   24.1220 N   0  0  0  0  0  0  0  0  0  0  0  0
  -25.9150  -34.9640   23.4040 C   0  0  0  0  0  0  0  0  0  0  0  0
  -26.5680  -34.9210   22.3570 O   0  0  0  0  0  0  0  0  0  0  0  0
  -25.0520  -33.9780   24.9470 H   0  0  0  0  0  0  0  0  0  0  0  0
  -24.1420  -36.7280   23.1480 C   0  0  0  0  0  1  0  0  0  0  0  0
  -25.4020  -36.3200   23.9270 C   0  0  0  0  0  3  0  0  0  0  0  0
  -27.5300  -37.2160   24.7670 C   0  0  0  0  0  1  0  0  0  0  0  0
  -26.4100  -37.4010   23.8470 N   0  0  0  0  0  0  0  0  0  0  0  0
  -25.9870  -38.3050   24.0380 H   0  0  0  0  0  0  0  0  0  0  0  0
  -26.5160  -31.6880   24.9670 C   0  0  1  0  0  0  0  0  0  0  0  0
  -25.4460  -31.3870   26.0420 C   0  0  0  0  0  1  0  0  0  0  0  0
  -27.1220  -30.3380   24.5210 C   0  0  0  0  0  1  0  0  0  0  0  0
  -27.6640  -32.4800   25.6360 C   0  0  0  0  0  1  0  0  0  0  0  0
  1  2  2  0
  2 18  1  0
  2  6  1  0
  3  7  1  0
  3  6  2  0
  4 48  1  0
  4  7  1  0
  7  5  1  0
  8  4  2  0
  9  1  1  0
  9  3  1  0
 10 18  1  0
 11 16  1  0
 12 13  1  0
 12 11  1  0
 14 13  1  0
 14 23  1  0
 14 15  1  0
 16 10  1  0
 16 15  1  0
 17 10  2  0
 18 19  1  0
 20 21  2  0
 21 22  1  0
 21 40  1  0
 22 25  1  0
 23 20  1  0
 23 24  1  0
 24 22  2  0
 25 26  1  0
 26 27  2  0
 28 31  1  0
 28 27  1  0
 29 28  2  0
 30 29  1  0
 30 25  2  0
 31 32  1  0
 32 33  1  0
 33 34  2  0
 35 34  1  0
 35 39  1  0
 36 35  2  0
 37 32  2  0
 37 36  1  0
 38 37  1  0
 40 41  1  0
 41 44  1  0
 41 43  1  0
 42 40  2  0
 45 46  1  0
 45 20  1  0
 47 45  1  0
 48 49  1  0
 50 51  1  0
 50 48  1  0
 52 63  2  0
 53 51  1  0
 53 58  1  0
 54 62  1  0
 54 64  1  0
 55 61  1  0
 55 57  1  0
 56 62  1  0
 57 56  1  0
 58 57  2  0
 59 60  1  0
 59 53  2  0
 60 55  2  0
 61 54  1  0
 62 52  1  0
 64 66  2  0
 65 64  1  0
 67 65  1  0
 68 77  2  0
 68 73  1  0
 69 65  1  0
 69 73  1  0
 70 69  1  0
 71 72  1  0
 71 70  1  0
 72 68  1  0
 73 74  2  0
 74 75  1  0
 76 75  2  0
 77 76  1  0
 78 52  1  0
 78 79  1  0
 78 88  1  0
 79 82  1  0
 80 84  1  0
 80 79  1  0
 81 80  2  0
 84 83  1  0
 86 84  1  0
 86 87  1  0
 86 85  1  0
 88 91  1  1
 88 89  1  0
 90 88  1  0
M  ISO  4  10 100  18 100  50 101  51 101
M  END
>  <TORSDO>  (12) 
F 18

>  <SCORE>  (12) 
-13.954

>  <name>  (12) 
11

>  <ligand_id>  (12) 
11

>  <original_smiles>  (12) 
[H]c1sc(N(C(=O)C([H])(F)C([H])([H])Oc2c([H])c([H])c3c(c2[H])C([H])([H])N(C(=O)C([H])(N([H])C(=O)C([H])(N([H])C([H])([H])[H])C([H])([H])[H])C(C([H])([H])[H])(C([H])([H])[H])C([H])([H])[H])C([H])(C(=O)N([H])C2([H])c4c([H])c([H])c([H])c([H])c4C([H])([H])C([H])([H])C2([H])[H])C3([H])[H])C([H])([H])[H])nc1N([H])C(=O)N1C([H])([H])C([H])([H])C([H])([H])C([H])(n2nc(-c3c([H])c([H])c(Oc4c([H])c([H])c(F)c([H])c4F)c([H])c3[H])c(C(=O)N([H])[H])c2N([H])[H])C1([H])[H]

>  <smiles>  (12) 
[H]c1sc(N(C(=O)C([H])(F)C([H])([H])Oc2c([H])c([H])c3c(c2[H])C([H])([H])N(C(=O)C([H])(N([H])C(=O)C([H])(N([H])C([H])([H])[H])C([H])([H])[H])C(C([H])([H])[H])(C([H])([H])[H])C([H])([H])[H])C([H])(C(=O)N([H])C2([H])c4c([H])c([H])c([H])c([H])c4C([H])([H])C([H])([H])C2([H])[H])C3([H])[H])C([H])([H])[H])nc1N([H])C(=O)N1C([H])([H])C([H])([H])C([H])([H])C([H])(n2nc(-c3c([H])c([H])c(Oc4c([H])c([H])c(F)c([H])c4F)c([H])c3[H])c(C(=O)N([H])[H])c2N([H])[H])C1([H])[H]

$$$$
12:0:0
     RDKit          3D

 95103  0  0  1  0  0  0  0  0999 V2000
  -29.3180  -20.8270   21.4730 C   0  0  0  0  0  0  0  0  0  0  0  0
  -29.1890  -21.9590   20.7370 N   0  0  0  0  0  0  0  0  0  0  0  0
  -29.0290  -20.8210   22.6720 O   0  0  0  0  0  0  0  0  0  0  0  0
  -29.4420  -21.9390   19.7590 H   0  0  0  0  0  0  0  0  0  0  0  0
  -31.0540  -14.7650   19.9830 C   0  0  0  0  0  0  0  0  0  0  0  0
  -30.7330  -12.5750   18.8660 C   0  0  0  0  0  2  0  0  0  0  0  0
  -29.7000  -12.7520   17.7300 C   0  0  0  0  0  2  0  0  0  0  0  0
  -28.2620  -12.6010   18.2660 C   0  0  0  0  0  2  0  0  0  0  0  0
  -28.0090  -13.4440   19.5430 C   0  0  0  0  0  3  0  0  0  0  0  0
  -29.1410  -13.2300   20.5730 C   0  0  0  0  0  2  0  0  0  0  0  0
  -30.4230  -13.5570   19.9210 N   0  0  0  0  0  0  0  0  0  0  0  0
  -32.0950  -14.9980   19.3610 O   0  0  0  0  0  0  0  0  0  0  0  0
  -29.7870  -19.5370   20.8490 C   0  0  0  0  0  0  0  0  0  0  0  0
  -30.3550  -19.1760   19.6380 C   0  0  0  0  0  0  0  0  0  0  0  0
  -30.3430  -17.1010   20.6310 C   0  0  0  0  0  0  0  0  0  0  0  0
  -30.6560  -20.0560   18.4640 C   0  0  0  0  0  1  0  0  0  0  0  0
  -30.6610  -17.8000   19.5320 N   0  0  0  0  0  0  0  0  0  0  0  0
  -30.4440  -15.6820   20.7650 N   0  0  0  0  0  0  0  0  0  0  0  0
  -29.6330  -18.1140   21.8820 S   0  0  0  0  0  0  0  0  0  0  0  0
  -29.7840  -15.2870   21.4170 H   0  0  0  0  0  0  0  0  0  0  0  0
  -25.6920  -14.0450   20.4910 C   0  0  0  0  0  0  0  0  0  0  0  0
  -24.6470  -13.2670   20.9110 C   0  0  0  0  0  0  0  0  0  0  0  0
  -25.0770  -11.9130   20.7640 C   0  0  0  0  0  0  0  0  0  0  0  0
  -26.6960  -13.1630   20.1210 N   0  0  0  0  0  0  0  0  0  0  0  0
  -26.3340  -11.8730   20.3390 N   0  0  0  0  0  0  0  0  0  0  0  0
  -24.3450  -10.6520   20.9460 C   0  0  0  0  0  0  0  0  0  0  0  0
  -24.7660   -9.6830   21.8830 C   0  0  0  0  0  3  0  0  0  0  0  0
  -24.0330   -8.4870   22.0530 C   0  0  0  0  0  3  0  0  0  0  0  0
  -22.8670   -8.2540   21.2860 C   0  0  0  0  0  0  0  0  0  0  0  0
  -22.4670   -9.2120   20.3390 C   0  0  0  0  0  3  0  0  0  0  0  0
  -23.2000  -10.3980   20.1660 C   0  0  0  0  0  3  0  0  0  0  0  0
  -22.1090   -7.1100   21.3650 O   0  0  0  0  0  0  0  0  0  0  0  0
  -21.9380   -6.4410   22.5500 C   0  0  0  0  0  0  0  0  0  0  0  0
  -21.3630   -7.0600   23.6810 C   0  0  0  0  0  3  0  0  0  0  0  0
  -21.1410   -6.3140   24.8570 C   0  0  0  0  0  3  0  0  0  0  0  0
  -21.4860   -4.9510   24.9020 C   0  0  0  0  0  0  0  0  0  0  0  0
  -22.0560   -4.3310   23.7760 C   0  0  0  0  0  3  0  0  0  0  0  0
  -22.2780   -5.0730   22.6020 C   0  0  0  0  0  0  0  0  0  0  0  0
  -22.8070   -4.4650   21.5130 F   0  0  0  0  0  0  0  0  0  0  0  0
  -21.2680   -4.2330   26.0280 F   0  0  0  0  0  0  0  0  0  0  0  0
  -23.2870  -13.7460   21.3340 C   0  0  0  0  0  0  0  0  0  0  0  0
  -22.6340  -13.0190   22.2340 N   0  0  0  0  0  0  0  0  0  0  0  0
  -22.8200  -14.8010   20.9060 O   0  0  0  0  0  0  0  0  0  0  0  0
  -23.0230  -12.1620   22.5970 H   0  0  0  0  0  0  0  0  0  0  0  0
  -21.7280  -13.3240   22.5610 H   0  0  0  0  0  0  0  0  0  0  0  0
  -25.8700  -15.4200   20.3770 N   0  0  0  0  0  0  0  0  0  0  0  0
  -25.1290  -16.0810   20.5850 H   0  0  0  0  0  0  0  0  0  0  0  0
  -26.6960  -15.8620   19.9930 H   0  0  0  0  0  0  0  0  0  0  0  0
  -27.1630  -23.2160   21.4900 C   0  0  0  0  0  1  0  0  0  0  0  0
  -28.6860  -23.2740   21.2300 C   0  0  1  0  0  0  0  0  0  0  0  0
  -29.2890  -23.5520   22.3900 F   0  0  0  0  0  0  0  0  0  0  0  0
  -28.9900  -24.4410   20.2420 C   0  0  0  0  0  0  0  0  0  0  0  0
  -29.3850  -24.2090   19.0920 O   0  0  0  0  0  0  0  0  0  0  0  0
  -28.7690  -25.8960   20.7490 C   0  0  0  0  0  2  0  0  0  0  0  0
  -28.6470  -26.8810   19.6940 O   0  0  0  0  0  0  0  0  0  0  0  0
  -24.6090  -31.7260   23.0510 C   0  0  0  0  0  0  0  0  0  0  0  0
  -27.4660  -27.5930   19.7360 C   0  0  0  0  0  0  0  0  0  0  0  0
  -23.4650  -30.3400   21.3520 C   0  0  0  0  0  3  0  0  0  0  0  0
  -24.9900  -28.9650   19.8330 C   0  0  0  0  0  0  0  0  0  0  0  0
  -25.9620  -30.8570   21.1450 C   0  0  0  0  0  2  0  0  0  0  0  0
  -26.1250  -29.5260   20.4360 C   0  0  0  0  0  0  0  0  0  0  0  0
  -27.3680  -28.8490   20.3840 C   0  0  0  0  0  3  0  0  0  0  0  0
  -26.3180  -27.0500   19.1260 C   0  0  0  0  0  3  0  0  0  0  0  0
  -25.0830  -27.7280   19.1720 C   0  0  0  0  0  3  0  0  0  0  0  0
  -23.6980  -29.7500   19.9360 C   0  0  0  0  0  2  0  0  0  0  0  0
  -24.6980  -30.9860   21.9100 N   0  0  0  0  0  0  0  0  0  0  0  0
  -23.5220  -31.9050   23.6170 O   0  0  0  0  0  0  0  0  0  0  0  0
  -22.8870  -29.2350   22.2660 C   0  0  0  0  0  0  0  0  0  0  0  0
  -21.5710  -28.9910   22.1530 N   0  0  0  0  0  0  0  0  0  0  0  0
  -23.6170  -28.6030   23.0330 O   0  0  0  0  0  0  0  0  0  0  0  0
  -21.0370  -29.5580   21.5070 H   0  0  0  0  0  0  0  0  0  0  0  0
  -18.2700  -27.6030   22.6540 C   0  0  0  0  0  0  0  0  0  0  0  0
  -20.8190  -27.9710   22.8840 C   0  0  0  0  0  3  0  0  0  0  0  0
  -20.9760  -26.5840   22.2220 C   0  0  0  0  0  2  0  0  0  0  0  0
  -19.8670  -26.2660   21.2150 C   0  0  0  0  0  2  0  0  0  0  0  0
  -18.4950  -26.3050   21.8950 C   0  0  0  0  0  2  0  0  0  0  0  0
  -19.3620  -28.3930   23.1040 C   0  0  0  0  0  0  0  0  0  0  0  0
  -19.0980  -29.6070   23.7740 C   0  0  0  0  0  3  0  0  0  0  0  0
  -17.7770  -30.0370   23.9950 C   0  0  0  0  0  3  0  0  0  0  0  0
  -16.7000  -29.2450   23.5610 C   0  0  0  0  0  3  0  0  0  0  0  0
  -16.9470  -28.0280   22.8980 C   0  0  0  0  0  3  0  0  0  0  0  0
  -25.8660  -32.4000   23.6870 C   0  0  0  0  0  3  0  0  0  0  0  0
  -26.4350  -31.6090   24.9280 C   0  0  1  0  0  0  0  0  0  0  0  0
  -25.3640  -31.2700   25.9910 C   0  0  0  0  0  1  0  0  0  0  0  0
  -27.0890  -30.2810   24.4780 C   0  0  0  0  0  1  0  0  0  0  0  0
  -27.5480  -32.4380   25.6130 C   0  0  0  0  0  1  0  0  0  0  0  0
  -25.4900  -33.7670   24.0690 N   0  0  0  0  0  0  0  0  0  0  0  0
  -25.7670  -34.8610   23.3460 C   0  0  0  0  0  0  0  0  0  0  0  0
  -26.4390  -34.8270   22.3110 O   0  0  0  0  0  0  0  0  0  0  0  0
  -24.8860  -33.8620   24.8730 H   0  0  0  0  0  0  0  0  0  0  0  0
  -23.9460  -36.5720   23.0610 C   0  0  0  0  0  1  0  0  0  0  0  0
  -25.2120  -36.2060   23.8520 C   0  0  0  0  0  3  0  0  0  0  0  0
  -27.3030  -37.1690   24.7070 C   0  0  0  0  0  1  0  0  0  0  0  0
  -26.1900  -37.3140   23.7710 N   0  0  0  0  0  0  0  0  0  0  0  0
  -25.7380  -38.2060   23.9540 H   0  0  0  0  0  0  0  0  0  0  0  0
  1  3  2  0
  2 50  1  0
  2  1  1  0
  4  2  1  0
  5 18  1  0
  6 11  1  0
  7  8  1  0
  7  6  1  0
  9  8  1  0
  9 24  1  0
  9 10  1  0
 11  5  1  0
 11 10  1  0
 12  5  2  0
 13  1  1  0
 13 19  1  0
 14 13  2  0
 15 18  1  0
 15 19  1  0
 16 14  1  0
 17 14  1  0
 17 15  2  0
 18 20  1  0
 21 22  2  0
 22 41  1  0
 23 22  1  0
 23 26  1  0
 24 25  1  0
 24 21  1  0
 25 23  2  0
 26 27  1  0
 27 28  2  0
 29 32  1  0
 29 28  1  0
 30 29  2  0
 31 30  1  0
 31 26  2  0
 32 33  1  0
 33 38  2  0
 33 34  1  0
 34 35  2  0
 35 36  1  0
 36 40  1  0
 37 36  2  0
 38 37  1  0
 39 38  1  0
 41 42  1  0
 42 45  1  0
 42 44  1  0
 43 41  2  0
 46 21  1  0
 46 47  1  0
 48 46  1  0
 50 49  1  1
 50 51  1  0
 52 54  1  0
 52 50  1  0
 53 52  2  0
 55 57  1  0
 55 54  1  0
 56 67  2  0
 57 62  1  0
 58 66  1  0
 58 68  1  0
 59 65  1  0
 59 61  1  0
 60 66  1  0
 61 60  1  0
 62 61  2  0
 63 64  1  0
 63 57  2  0
 64 59  2  0
 65 58  1  0
 66 56  1  0
 68 70  2  0
 69 68  1  0
 71 69  1  0
 72 81  2  0
 72 77  1  0
 73 69  1  0
 73 77  1  0
 74 73  1  0
 75 76  1  0
 75 74  1  0
 76 72  1  0
 77 78  2  0
 78 79  1  0
 80 79  2  0
 81 80  1  0
 82 56  1  0
 82 87  1  0
 82 83  1  0
 83 86  1  1
 83 84  1  0
 85 83  1  0
 87 90  1  0
 88 92  1  0
 88 87  1  0
 89 88  2  0
 92 91  1  0
 94 92  1  0
 94 95  1  0
 94 93  1  0
M  ISO  4   5 100  18 100  54 101  55 101
M  END
>  <TORSDO>  (13) 
F 19

>  <SCORE>  (13) 
-11.919

>  <name>  (13) 
12

>  <ligand_id>  (13) 
12

>  <original_smiles>  (13) 
[H]c1c([H])c([H])c2c(c1[H])C([H])([H])C([H])([H])C([H])([H])C2([H])N([H])C(=O)C1([H])N(C(=O)C([H])(N([H])C(=O)C([H])(N([H])C([H])([H])[H])C([H])([H])[H])C(C([H])([H])[H])(C([H])([H])[H])C([H])([H])[H])C([H])([H])c2c([H])c(OC([H])([H])C(=O)C(F)(N([H])C(=O)c3sc(N([H])C(=O)N4C([H])([H])C([H])([H])C([H])([H])C([H])(n5nc(-c6c([H])c([H])c(Oc7c([H])c([H])c(F)c([H])c7F)c([H])c6[H])c(C(=O)N([H])[H])c5N([H])[H])C4([H])[H])nc3C([H])([H])[H])C([H])([H])[H])c([H])c([H])c2C1([H])[H]

>  <smiles>  (13) 
[H]c1c([H])c([H])c2c(c1[H])C([H])([H])C([H])([H])C([H])([H])C2([H])N([H])C(=O)C1([H])N(C(=O)C([H])(N([H])C(=O)C([H])(N([H])C([H])([H])[H])C([H])([H])[H])C(C([H])([H])[H])(C([H])([H])[H])C([H])([H])[H])C([H])([H])c2c([H])c(OC([H])([H])C(=O)C(F)(N([H])C(=O)c3sc(N([H])C(=O)N4C([H])([H])C([H])([H])C([H])([H])C([H])(n5nc(-c6c([H])c([H])c(Oc7c([H])c([H])c(F)c([H])c7F)c([H])c6[H])c(C(=O)N([H])[H])c5N([H])[H])C4([H])[H])nc3C([H])([H])[H])C([H])([H])[H])c([H])c([H])c2C1([H])[H]

$$$$
13:0:0
     RDKit          3D

 93101  0  0  1  0  0  0  0  0999 V2000
  -29.6430  -18.6160   20.4760 C   0  0  0  0  0  0  0  0  0  0  0  0
  -28.7510  -19.0800   19.5160 C   0  0  0  0  0  0  0  0  0  0  0  0
  -29.1140  -21.1820   20.4990 C   0  0  0  0  0  0  0  0  0  0  0  0
  -28.4600  -23.7410   20.1560 C   0  0  0  0  0  0  0  0  0  0  0  0
  -28.1350  -18.2550   18.4260 C   0  0  0  0  0  1  0  0  0  0  0  0
  -28.4630  -20.4870   19.5460 N   0  0  0  0  0  0  0  0  0  0  0  0
  -28.9760  -22.6290   20.8060 N   0  0  0  0  0  0  0  0  0  0  0  0
  -28.0880  -23.7020   18.9800 O   0  0  0  0  0  0  0  0  0  0  0  0
  -30.1320  -20.0410   21.4440 S   0  0  0  0  0  0  0  0  0  0  0  0
  -29.3320  -22.8630   21.7220 H   0  0  0  0  0  0  0  0  0  0  0  0
  -30.6310  -14.8110   20.3670 C   0  0  0  0  0  0  0  0  0  0  0  0
  -30.3880  -12.5470   19.3300 C   0  0  0  0  0  2  0  0  0  0  0  0
  -29.4540  -12.6020   18.1030 C   0  0  0  0  0  2  0  0  0  0  0  0
  -27.9870  -12.4210   18.5390 C   0  0  0  0  0  2  0  0  0  0  0  0
  -27.6050  -13.3210   19.7450 C   0  0  0  0  0  3  0  0  0  0  0  0
  -28.6650  -13.2710   20.8650 C   0  0  0  0  0  2  0  0  0  0  0  0
  -29.9540  -13.6160   20.2580 N   0  0  0  0  0  0  0  0  0  0  0  0
  -31.8390  -14.8190   20.1120 O   0  0  0  0  0  0  0  0  0  0  0  0
  -30.4090  -17.2810   20.7320 C   0  0  0  0  0  0  0  0  0  0  0  0
  -29.9110  -16.0010   20.4990 N   0  0  0  0  0  0  0  0  0  0  0  0
  -31.5450  -17.4200   21.1980 O   0  0  0  0  0  0  0  0  0  0  0  0
  -28.9160  -15.9320   20.3860 H   0  0  0  0  0  0  0  0  0  0  0  0
  -25.2190  -13.9050   20.4790 C   0  0  0  0  0  0  0  0  0  0  0  0
  -24.1550  -13.1290   20.8460 C   0  0  0  0  0  0  0  0  0  0  0  0
  -24.6190  -11.7790   20.8170 C   0  0  0  0  0  0  0  0  0  0  0  0
  -26.2650  -13.0280   20.2420 N   0  0  0  0  0  0  0  0  0  0  0  0
  -25.9120  -11.7440   20.5110 N   0  0  0  0  0  0  0  0  0  0  0  0
  -23.8950  -10.5150   21.0010 C   0  0  0  0  0  0  0  0  0  0  0  0
  -24.3230   -9.5480   21.9370 C   0  0  0  0  0  3  0  0  0  0  0  0
  -23.5970   -8.3500   22.1120 C   0  0  0  0  0  3  0  0  0  0  0  0
  -22.4290   -8.1110   21.3490 C   0  0  0  0  0  0  0  0  0  0  0  0
  -22.0200   -9.0670   20.4020 C   0  0  0  0  0  3  0  0  0  0  0  0
  -22.7480  -10.2560   20.2260 C   0  0  0  0  0  3  0  0  0  0  0  0
  -21.6740   -6.9660   21.4330 O   0  0  0  0  0  0  0  0  0  0  0  0
  -21.6120   -6.2270   22.5860 C   0  0  0  0  0  0  0  0  0  0  0  0
  -21.1600   -6.7830   23.8030 C   0  0  0  0  0  3  0  0  0  0  0  0
  -21.0440   -5.9720   24.9480 C   0  0  0  0  0  3  0  0  0  0  0  0
  -21.3710   -4.6030   24.8790 C   0  0  0  0  0  0  0  0  0  0  0  0
  -21.8140   -4.0450   23.6670 C   0  0  0  0  0  3  0  0  0  0  0  0
  -21.9310   -4.8560   22.5230 C   0  0  0  0  0  0  0  0  0  0  0  0
  -22.3400   -4.3090   21.3540 F   0  0  0  0  0  0  0  0  0  0  0  0
  -21.2520   -3.8210   25.9770 F   0  0  0  0  0  0  0  0  0  0  0  0
  -22.7560  -13.6040   21.1120 C   0  0  0  0  0  0  0  0  0  0  0  0
  -22.0230  -12.9040   21.9700 N   0  0  0  0  0  0  0  0  0  0  0  0
  -22.3230  -14.6310   20.5920 O   0  0  0  0  0  0  0  0  0  0  0  0
  -22.3880  -12.0760   22.4160 H   0  0  0  0  0  0  0  0  0  0  0  0
  -21.0830  -13.2030   22.1870 H   0  0  0  0  0  0  0  0  0  0  0  0
  -25.3790  -15.2770   20.3030 N   0  0  0  0  0  0  0  0  0  0  0  0
  -24.6040  -15.9230   20.4050 H   0  0  0  0  0  0  0  0  0  0  0  0
  -26.2160  -15.7190   19.9490 H   0  0  0  0  0  0  0  0  0  0  0  0
  -27.1520  -25.0290   21.9560 C   0  0  0  0  0  1  0  0  0  0  0  0
  -28.3310  -25.1280   20.9650 C   0  0  0  0  0  3  0  0  0  0  0  0
  -28.3830  -26.4450   20.2230 O   0  0  0  0  0  0  0  0  0  0  0  0
  -24.6260  -31.8990   23.2320 C   0  0  0  0  0  0  0  0  0  0  0  0
  -27.2820  -27.3260   20.2070 C   0  0  0  0  0  0  0  0  0  0  0  0
  -23.4460  -30.4930   21.5810 C   0  0  0  0  0  3  0  0  0  0  0  0
  -24.9190  -28.9480   20.1650 C   0  0  0  0  0  0  0  0  0  0  0  0
  -25.9860  -30.8200   21.4220 C   0  0  0  0  0  2  0  0  0  0  0  0
  -26.0810  -29.4380   20.7760 C   0  0  0  0  0  0  0  0  0  0  0  0
  -27.2690  -28.6390   20.7860 C   0  0  0  0  0  3  0  0  0  0  0  0
  -26.1050  -26.9010   19.5600 C   0  0  0  0  0  3  0  0  0  0  0  0
  -24.9360  -27.6870   19.5450 C   0  0  0  0  0  3  0  0  0  0  0  0
  -23.6770  -29.8190   20.2030 C   0  0  0  0  0  2  0  0  0  0  0  0
  -24.7050  -31.0890   22.1350 N   0  0  0  0  0  0  0  0  0  0  0  0
  -23.5360  -32.1720   23.7560 O   0  0  0  0  0  0  0  0  0  0  0  0
  -22.7810  -29.4720   22.5370 C   0  0  0  0  0  0  0  0  0  0  0  0
  -21.4530  -29.3000   22.4120 N   0  0  0  0  0  0  0  0  0  0  0  0
  -23.4590  -28.8380   23.3510 O   0  0  0  0  0  0  0  0  0  0  0  0
  -20.9640  -29.8680   21.7340 H   0  0  0  0  0  0  0  0  0  0  0  0
  -18.0710  -28.1230   22.9220 C   0  0  0  0  0  0  0  0  0  0  0  0
  -20.6330  -28.3590   23.1770 C   0  0  0  0  0  3  0  0  0  0  0  0
  -20.7190  -26.9340   22.5820 C   0  0  0  0  0  2  0  0  0  0  0  0
  -19.6090  -26.6330   21.5710 C   0  0  0  0  0  2  0  0  0  0  0  0
  -18.2320  -26.7810   22.2270 C   0  0  0  0  0  2  0  0  0  0  0  0
  -19.1980  -28.8700   23.3540 C   0  0  0  0  0  0  0  0  0  0  0  0
  -18.9940  -30.1270   23.9640 C   0  0  0  0  0  3  0  0  0  0  0  0
  -17.6940  -30.6370   24.1440 C   0  0  0  0  0  3  0  0  0  0  0  0
  -16.5810  -29.8860   23.7300 C   0  0  0  0  0  3  0  0  0  0  0  0
  -16.7710  -28.6300   23.1250 C   0  0  0  0  0  3  0  0  0  0  0  0
  -25.8980  -32.5420   23.8650 C   0  0  0  0  0  3  0  0  0  0  0  0
  -25.5790  -33.9410   24.1820 N   0  0  0  0  0  0  0  0  0  0  0  0
  -25.9220  -34.9920   23.4240 C   0  0  0  0  0  0  0  0  0  0  0  0
  -26.6060  -34.8850   22.4030 O   0  0  0  0  0  0  0  0  0  0  0  0
  -24.9670  -34.0980   24.9680 H   0  0  0  0  0  0  0  0  0  0  0  0
  -24.1990  -36.7840   23.0340 C   0  0  0  0  0  1  0  0  0  0  0  0
  -25.4260  -36.3820   23.8680 C   0  0  0  0  0  3  0  0  0  0  0  0
  -27.5450  -37.2730   24.7330 C   0  0  0  0  0  1  0  0  0  0  0  0
  -26.4610  -37.4360   23.7680 N   0  0  0  0  0  0  0  0  0  0  0  0
  -26.0520  -38.3570   23.9020 H   0  0  0  0  0  0  0  0  0  0  0  0
  -26.4020  -31.7830   25.1540 C   0  0  1  0  0  0  0  0  0  0  0  0
  -25.2950  -31.5540   26.2100 C   0  0  0  0  0  1  0  0  0  0  0  0
  -26.9880  -30.4010   24.7830 C   0  0  0  0  0  1  0  0  0  0  0  0
  -27.5390  -32.5860   25.8250 C   0  0  0  0  0  1  0  0  0  0  0  0
  1 19  1  0
  1  9  1  0
  2  6  1  0
  2  1  2  0
  3  7  1  0
  3  9  1  0
  4  7  1  0
  4 52  1  0
  5  2  1  0
  6  3  2  0
  7 10  1  0
  8  4  2  0
 11 20  1  0
 12 17  1  0
 13 14  1  0
 13 12  1  0
 15 14  1  0
 15 26  1  0
 15 16  1  0
 17 11  1  0
 17 16  1  0
 18 11  2  0
 19 21  2  0
 20 19  1  0
 22 20  1  0
 23 24  2  0
 24 43  1  0
 25 24  1  0
 25 28  1  0
 26 23  1  0
 26 27  1  0
 27 25  2  0
 28 29  1  0
 29 30  2  0
 31 34  1  0
 31 30  1  0
 32 31  2  0
 33 32  1  0
 33 28  2  0
 34 35  1  0
 35 36  1  0
 36 37  2  0
 38 37  1  0
 38 42  1  0
 39 38  2  0
 40 35  2  0
 40 39  1  0
 41 40  1  0
 43 44  1  0
 44 47  1  0
 44 46  1  0
 45 43  2  0
 48 49  1  0
 48 23  1  0
 50 48  1  0
 52 51  1  0
 53 52  1  0
 54 65  2  0
 55 53  1  0
 55 60  1  0
 56 64  1  0
 56 66  1  0
 57 63  1  0
 57 59  1  0
 58 64  1  0
 59 60  2  0
 59 58  1  0
 61 55  2  0
 62 61  1  0
 62 57  2  0
 63 56  1  0
 64 54  1  0
 66 68  2  0
 67 66  1  0
 69 67  1  0
 70 79  2  0
 70 75  1  0
 71 67  1  0
 71 75  1  0
 72 71  1  0
 73 74  1  0
 73 72  1  0
 74 70  1  0
 75 76  2  0
 76 77  1  0
 78 77  2  0
 79 78  1  0
 80 54  1  0
 80 81  1  0
 80 90  1  0
 81 84  1  0
 82 86  1  0
 82 81  1  0
 83 82  2  0
 86 85  1  0
 88 86  1  0
 88 89  1  0
 88 87  1  0
 90 93  1  1
 90 91  1  0
 92 90  1  0
M  ISO  4  11 100  20 100  52 101  53 101
M  END
>  <TORSDO>  (14) 
F 17

>  <SCORE>  (14) 
-15.370

>  <name>  (14) 
13

>  <ligand_id>  (14) 
13

>  <original_smiles>  (14) 
[H]c1c([H])c([H])c2c(c1[H])C([H])([H])C([H])([H])C([H])([H])C2([H])N([H])C(=O)C1([H])N(C(=O)C([H])(N([H])C(=O)C([H])(N([H])C([H])([H])[H])C([H])([H])[H])C(C([H])([H])[H])(C([H])([H])[H])C([H])([H])[H])C([H])([H])c2c([H])c(OC([H])(C(=O)N([H])c3nc(C([H])([H])[H])c(C(=O)N([H])C(=O)N4C([H])([H])C([H])([H])C([H])([H])C([H])(n5nc(-c6c([H])c([H])c(Oc7c([H])c([H])c(F)c([H])c7F)c([H])c6[H])c(C(=O)N([H])[H])c5N([H])[H])C4([H])[H])s3)C([H])([H])[H])c([H])c([H])c2C1([H])[H]

>  <smiles>  (14) 
[H]c1c([H])c([H])c2c(c1[H])C([H])([H])C([H])([H])C([H])([H])C2([H])N([H])C(=O)C1([H])N(C(=O)C([H])(N([H])C(=O)C([H])(N([H])C([H])([H])[H])C([H])([H])[H])C(C([H])([H])[H])(C([H])([H])[H])C([H])([H])[H])C([H])([H])c2c([H])c(OC([H])(C(=O)N([H])c3nc(C([H])([H])[H])c(C(=O)N([H])C(=O)N4C([H])([H])C([H])([H])C([H])([H])C([H])(n5nc(-c6c([H])c([H])c(Oc7c([H])c([H])c(F)c([H])c7F)c([H])c6[H])c(C(=O)N([H])[H])c5N([H])[H])C4([H])[H])s3)C([H])([H])[H])c([H])c([H])c2C1([H])[H]

$$$$
14:0:0
     RDKit          3D

 96104  0  0  1  0  0  0  0  0999 V2000
  -27.9890  -18.7470   20.0830 C   0  0  0  0  0  3  0  0  0  0  0  0
  -29.3350  -18.7400   20.3500 C   0  0  0  0  0  0  0  0  0  0  0  0
  -28.8900  -21.0970   20.4270 C   0  0  0  0  0  0  0  0  0  0  0  0
  -28.4250  -23.6840   20.2580 C   0  0  0  0  0  0  0  0  0  0  0  0
  -29.8340  -20.0940   20.5500 N   0  0  0  0  0  0  0  0  0  0  0  0
  -29.1030  -22.5460   20.7020 N   0  0  0  0  0  0  0  0  0  0  0  0
  -27.7630  -23.6400   19.2190 O   0  0  0  0  0  0  0  0  0  0  0  0
  -27.3120  -20.3820   20.0500 S   0  0  0  0  0  0  0  0  0  0  0  0
  -29.7940  -22.7310   21.4120 H   0  0  0  0  0  0  0  0  0  0  0  0
  -30.6830  -14.8510   20.3020 C   0  0  0  0  0  0  0  0  0  0  0  0
  -30.4410  -12.5470   19.3440 C   0  0  0  0  0  2  0  0  0  0  0  0
  -29.4990  -12.5740   18.1210 C   0  0  0  0  0  2  0  0  0  0  0  0
  -28.0340  -12.4060   18.5650 C   0  0  0  0  0  2  0  0  0  0  0  0
  -27.6620  -13.3190   19.7610 C   0  0  0  0  0  3  0  0  0  0  0  0
  -28.7320  -13.2920   20.8760 C   0  0  0  0  0  2  0  0  0  0  0  0
  -30.0160  -13.6390   20.2570 N   0  0  0  0  0  0  0  0  0  0  0  0
  -31.8820  -14.8580   20.0270 O   0  0  0  0  0  0  0  0  0  0  0  0
  -30.2830  -17.5240   20.2030 C   0  0  0  0  0  3  0  0  0  0  0  0
  -29.9280  -16.1640   20.4170 N   0  0  0  0  0  0  0  0  0  0  0  0
  -31.4650  -18.0130   19.7470 N   0  0  0  0  0  0  0  0  0  0  0  0
  -28.9540  -16.1180   20.6560 H   0  0  0  0  0  0  0  0  0  0  0  0
  -31.4000  -19.0270   19.7170 H   0  0  0  0  0  0  0  0  0  0  0  0
  -25.2940  -13.9120   20.5330 C   0  0  0  0  0  0  0  0  0  0  0  0
  -24.2290  -13.1410   20.9080 C   0  0  0  0  0  0  0  0  0  0  0  0
  -24.6820  -11.7870   20.8560 C   0  0  0  0  0  0  0  0  0  0  0  0
  -26.3270  -13.0290   20.2710 N   0  0  0  0  0  0  0  0  0  0  0  0
  -25.9700  -11.7460   20.5340 N   0  0  0  0  0  0  0  0  0  0  0  0
  -23.9470  -10.5280   21.0360 C   0  0  0  0  0  0  0  0  0  0  0  0
  -24.3620   -9.5590   21.9750 C   0  0  0  0  0  3  0  0  0  0  0  0
  -23.6260   -8.3650   22.1430 C   0  0  0  0  0  3  0  0  0  0  0  0
  -22.4620   -8.1350   21.3720 C   0  0  0  0  0  0  0  0  0  0  0  0
  -22.0660   -9.0930   20.4230 C   0  0  0  0  0  3  0  0  0  0  0  0
  -22.8030  -10.2780   20.2530 C   0  0  0  0  0  3  0  0  0  0  0  0
  -21.6980   -6.9950   21.4510 O   0  0  0  0  0  0  0  0  0  0  0  0
  -21.6050   -6.2690   22.6110 C   0  0  0  0  0  0  0  0  0  0  0  0
  -21.0870   -6.8280   23.8010 C   0  0  0  0  0  3  0  0  0  0  0  0
  -20.9460   -6.0250   24.9500 C   0  0  0  0  0  3  0  0  0  0  0  0
  -21.3120   -4.6670   24.9130 C   0  0  0  0  0  0  0  0  0  0  0  0
  -21.8210   -4.1090   23.7280 C   0  0  0  0  0  3  0  0  0  0  0  0
  -21.9660   -4.9060   22.5800 C   0  0  0  0  0  0  0  0  0  0  0  0
  -22.4390   -4.3570   21.4350 F   0  0  0  0  0  0  0  0  0  0  0  0
  -21.1680   -3.8960   26.0150 F   0  0  0  0  0  0  0  0  0  0  0  0
  -22.8380  -13.6260   21.1950 C   0  0  0  0  0  0  0  0  0  0  0  0
  -22.1120  -12.9260   22.0580 N   0  0  0  0  0  0  0  0  0  0  0  0
  -22.4050  -14.6620   20.6900 O   0  0  0  0  0  0  0  0  0  0  0  0
  -22.4760  -12.0870   22.4830 H   0  0  0  0  0  0  0  0  0  0  0  0
  -21.1800  -13.2320   22.2980 H   0  0  0  0  0  0  0  0  0  0  0  0
  -25.4630  -15.2830   20.3560 N   0  0  0  0  0  0  0  0  0  0  0  0
  -24.6530  -15.8940   20.3970 H   0  0  0  0  0  0  0  0  0  0  0  0
  -26.1990  -15.6540   19.7720 H   0  0  0  0  0  0  0  0  0  0  0  0
  -33.7780  -18.5860   19.1540 C   0  0  0  0  0  1  0  0  0  0  0  0
  -32.4160  -17.0890   17.6620 C   0  0  0  0  0  1  0  0  0  0  0  0
  -32.6930  -17.4960   19.1200 C   0  0  0  0  0  3  0  0  0  0  0  0
  -29.5920  -25.1420   22.0920 C   0  0  0  0  0  1  0  0  0  0  0  0
  -28.4490  -25.0940   21.0660 C   0  0  0  0  0  3  0  0  0  0  0  0
  -28.5000  -26.4130   20.3320 O   0  0  0  0  0  0  0  0  0  0  0  0
  -24.6340  -31.8700   23.2880 C   0  0  0  0  0  0  0  0  0  0  0  0
  -27.3900  -27.2900   20.3390 C   0  0  0  0  0  0  0  0  0  0  0  0
  -23.5040  -30.4600   21.6060 C   0  0  0  0  0  3  0  0  0  0  0  0
  -25.0210  -28.9140   20.2360 C   0  0  0  0  0  0  0  0  0  0  0  0
  -26.0480  -30.7980   21.5080 C   0  0  0  0  0  2  0  0  0  0  0  0
  -26.1680  -29.4110   20.8710 C   0  0  0  0  0  0  0  0  0  0  0  0
  -27.3610  -28.6130   20.9040 C   0  0  0  0  0  3  0  0  0  0  0  0
  -26.2190  -26.8560   19.6890 C   0  0  0  0  0  3  0  0  0  0  0  0
  -25.0510  -27.6460   19.6340 C   0  0  0  0  0  3  0  0  0  0  0  0
  -23.7770  -29.7860   20.2360 C   0  0  0  0  0  2  0  0  0  0  0  0
  -24.7470  -31.0620   22.1910 N   0  0  0  0  0  0  0  0  0  0  0  0
  -23.5290  -32.1340   23.7860 O   0  0  0  0  0  0  0  0  0  0  0  0
  -22.8170  -29.4360   22.5440 C   0  0  0  0  0  0  0  0  0  0  0  0
  -21.4910  -29.2730   22.4000 N   0  0  0  0  0  0  0  0  0  0  0  0
  -23.4800  -28.7930   23.3630 O   0  0  0  0  0  0  0  0  0  0  0  0
  -21.0130  -29.8500   21.7210 H   0  0  0  0  0  0  0  0  0  0  0  0
  -18.0900  -28.1300   22.8820 C   0  0  0  0  0  0  0  0  0  0  0  0
  -20.6560  -28.3290   23.1440 C   0  0  0  0  0  3  0  0  0  0  0  0
  -20.7230  -26.9130   22.5240 C   0  0  0  0  0  2  0  0  0  0  0  0
  -19.6100  -26.6450   21.5070 C   0  0  0  0  0  2  0  0  0  0  0  0
  -18.2340  -26.7990   22.1630 C   0  0  0  0  0  2  0  0  0  0  0  0
  -19.2270  -28.8550   23.3290 C   0  0  0  0  0  0  0  0  0  0  0  0
  -19.0380  -30.1030   23.9630 C   0  0  0  0  0  3  0  0  0  0  0  0
  -17.7450  -30.6250   24.1530 C   0  0  0  0  0  3  0  0  0  0  0  0
  -16.6230  -29.8960   23.7230 C   0  0  0  0  0  3  0  0  0  0  0  0
  -16.7960  -28.6510   23.0930 C   0  0  0  0  0  3  0  0  0  0  0  0
  -25.8850  -32.5200   23.9560 C   0  0  0  0  0  3  0  0  0  0  0  0
  -25.5560  -33.9230   24.2490 N   0  0  0  0  0  0  0  0  0  0  0  0
  -25.9110  -34.9650   23.4850 C   0  0  0  0  0  0  0  0  0  0  0  0
  -26.6170  -34.8470   22.4800 O   0  0  0  0  0  0  0  0  0  0  0  0
  -24.9360  -34.0890   25.0290 H   0  0  0  0  0  0  0  0  0  0  0  0
  -24.2040  -36.7580   23.0290 C   0  0  0  0  0  1  0  0  0  0  0  0
  -25.4040  -36.3600   23.9040 C   0  0  0  0  0  3  0  0  0  0  0  0
  -27.4890  -37.2640   24.8360 C   0  0  0  0  0  1  0  0  0  0  0  0
  -26.4420  -37.4120   23.8290 N   0  0  0  0  0  0  0  0  0  0  0  0
  -26.0280  -38.3340   23.9370 H   0  0  0  0  0  0  0  0  0  0  0  0
  -26.3450  -31.7740   25.2690 C   0  0  1  0  0  0  0  0  0  0  0  0
  -25.2040  -31.5500   26.2900 C   0  0  0  0  0  1  0  0  0  0  0  0
  -26.9520  -30.3930   24.9300 C   0  0  0  0  0  1  0  0  0  0  0  0
  -27.4600  -32.5870   25.9690 C   0  0  0  0  0  1  0  0  0  0  0  0
  1  2  2  0
  2  5  1  0
  3  5  2  0
  3  6  1  0
  4  6  1  0
  4 55  1  0
  6  9  1  0
  7  4  2  0
  8  1  1  0
  8  3  1  0
 10 19  1  0
 11 16  1  0
 12 13  1  0
 12 11  1  0
 14 13  1  0
 14 26  1  0
 14 15  1  0
 16 10  1  0
 16 15  1  0
 17 10  2  0
 18 20  1  0
 18  2  1  0
 18 19  1  0
 19 21  1  0
 22 20  1  0
 23 24  2  0
 24 43  1  0
 25 24  1  0
 25 28  1  0
 26 23  1  0
 26 27  1  0
 27 25  2  0
 28 29  1  0
 29 30  2  0
 31 34  1  0
 31 30  1  0
 32 31  2  0
 33 32  1  0
 33 28  2  0
 34 35  1  0
 35 36  1  0
 36 37  2  0
 38 37  1  0
 38 42  1  0
 39 38  2  0
 40 35  2  0
 40 39  1  0
 41 40  1  0
 43 44  1  0
 44 47  1  0
 44 46  1  0
 45 43  2  0
 48 49  1  0
 48 23  1  0
 50 48  1  0
 52 53  1  0
 53 51  1  0
 53 20  1  0
 55 54  1  0
 56 58  1  0
 56 55  1  0
 57 68  2  0
 58 63  1  0
 59 67  1  0
 59 69  1  0
 60 66  1  0
 60 62  1  0
 61 67  1  0
 62 63  2  0
 62 61  1  0
 64 58  2  0
 65 64  1  0
 65 60  2  0
 66 59  1  0
 67 57  1  0
 69 71  2  0
 70 69  1  0
 72 70  1  0
 73 82  2  0
 73 78  1  0
 74 70  1  0
 74 78  1  0
 75 74  1  0
 76 77  1  0
 76 75  1  0
 77 73  1  0
 78 79  2  0
 79 80  1  0
 81 80  2  0
 82 81  1  0
 83 57  1  0
 83 84  1  0
 83 93  1  0
 84 87  1  0
 85 89  1  0
 85 84  1  0
 86 85  2  0
 89 88  1  0
 91 89  1  0
 91 92  1  0
 91 90  1  0
 93 96  1  1
 93 94  1  0
 95 93  1  0
M  ISO  4  10 100  19 100  55 101  56 101
M  END
>  <TORSDO>  (15) 
F 18

>  <SCORE>  (15) 
-14.531

>  <name>  (15) 
14

>  <ligand_id>  (15) 
14

>  <original_smiles>  (15) 
[H]c1sc(N([H])C(=O)C([H])(Oc2c([H])c([H])c3c(c2[H])C([H])([H])N(C(=O)C([H])(N([H])C(=O)C([H])(N([H])C([H])([H])[H])C([H])([H])[H])C(C([H])([H])[H])(C([H])([H])[H])C([H])([H])[H])C([H])(C(=O)N([H])C2([H])c4c([H])c([H])c([H])c([H])c4C([H])([H])C([H])([H])C2([H])[H])C3([H])[H])C([H])([H])[H])nc1C(N([H])C(=O)N1C([H])([H])C([H])([H])C([H])([H])C([H])(n2nc(-c3c([H])c([H])c(Oc4c([H])c([H])c(F)c([H])c4F)c([H])c3[H])c(C(=O)N([H])[H])c2N([H])[H])C1([H])[H])=[N+]([H])C([H])(C([H])([H])[H])C([H])([H])[H]

>  <smiles>  (15) 
[H]c1sc(N([H])C(=O)C([H])(Oc2c([H])c([H])c3c(c2[H])C([H])([H])N(C(=O)C([H])(N([H])C(=O)C([H])(N([H])C([H])([H])[H])C([H])([H])[H])C(C([H])([H])[H])(C([H])([H])[H])C([H])([H])[H])C([H])(C(=O)N([H])C2([H])c4c([H])c([H])c([H])c([H])c4C([H])([H])C([H])([H])C2([H])[H])C3([H])[H])C([H])([H])[H])nc1C(N([H])C(=O)N1C([H])([H])C([H])([H])C([H])([H])C([H])(n2nc(-c3c([H])c([H])c(Oc4c([H])c([H])c(F)c([H])c4F)c([H])c3[H])c(C(=O)N([H])[H])c2N([H])[H])C1([H])[H])=[N+]([H])C([H])(C([H])([H])[H])C([H])([H])[H]

$$$$
15:0:0
     RDKit          3D

 95103  0  0  1  0  0  0  0  0999 V2000
  -29.6620  -18.6620   20.1280 C   0  0  0  0  0  0  0  0  0  0  0  0
  -29.4720  -18.8530   18.7630 C   0  0  0  0  0  0  0  0  0  0  0  0
  -29.1250  -21.0350   20.0160 C   0  0  0  0  0  0  0  0  0  0  0  0
  -29.0680  -23.6630   20.1640 C   0  0  0  0  0  0  0  0  0  0  0  0
  -29.4230  -19.9400   20.8070 N   0  0  0  0  0  0  0  0  0  0  0  0
  -28.6030  -22.3730   20.4220 N   0  0  0  0  0  0  0  0  0  0  0  0
  -30.2770  -23.9090   20.2280 O   0  0  0  0  0  0  0  0  0  0  0  0
  -29.0770  -20.5240   18.3330 S   0  0  0  0  0  0  0  0  0  0  0  0
  -27.6020  -22.3630   20.5490 H   0  0  0  0  0  0  0  0  0  0  0  0
  -30.5980  -14.8530   20.4390 C   0  0  0  0  0  0  0  0  0  0  0  0
  -30.4100  -12.5570   19.4290 C   0  0  0  0  0  2  0  0  0  0  0  0
  -29.4950  -12.5700   18.1880 C   0  0  0  0  0  2  0  0  0  0  0  0
  -28.0180  -12.3940   18.5940 C   0  0  0  0  0  2  0  0  0  0  0  0
  -27.6100  -13.3040   19.7840 C   0  0  0  0  0  3  0  0  0  0  0  0
  -28.6530  -13.2740   20.9190 C   0  0  0  0  0  2  0  0  0  0  0  0
  -29.9410  -13.6430   20.3210 N   0  0  0  0  0  0  0  0  0  0  0  0
  -31.8190  -14.8700   20.2660 O   0  0  0  0  0  0  0  0  0  0  0  0
  -30.2790  -17.3380   20.7680 C   0  0  0  0  0  0  0  0  0  0  0  0
  -29.8610  -16.0440   20.4390 N   0  0  0  0  0  0  0  0  0  0  0  0
  -31.1730  -17.4890   21.6100 O   0  0  0  0  0  0  0  0  0  0  0  0
  -28.9260  -15.9800   20.0780 H   0  0  0  0  0  0  0  0  0  0  0  0
  -25.2100  -13.8900   20.4620 C   0  0  0  0  0  0  0  0  0  0  0  0
  -24.1400  -13.1160   20.8210 C   0  0  0  0  0  0  0  0  0  0  0  0
  -24.6100  -11.7660   20.8200 C   0  0  0  0  0  0  0  0  0  0  0  0
  -26.2620  -13.0120   20.2600 N   0  0  0  0  0  0  0  0  0  0  0  0
  -25.9080  -11.7310   20.5410 N   0  0  0  0  0  0  0  0  0  0  0  0
  -23.8840  -10.5030   21.0090 C   0  0  0  0  0  0  0  0  0  0  0  0
  -24.3000   -9.5480   21.9640 C   0  0  0  0  0  3  0  0  0  0  0  0
  -23.5730   -8.3520   22.1420 C   0  0  0  0  0  3  0  0  0  0  0  0
  -22.4160   -8.1010   21.3650 C   0  0  0  0  0  0  0  0  0  0  0  0
  -22.0220   -9.0450   20.4000 C   0  0  0  0  0  3  0  0  0  0  0  0
  -22.7490  -10.2330   20.2200 C   0  0  0  0  0  3  0  0  0  0  0  0
  -21.6630   -6.9550   21.4520 O   0  0  0  0  0  0  0  0  0  0  0  0
  -21.5890   -6.2280   22.6130 C   0  0  0  0  0  0  0  0  0  0  0  0
  -21.1280   -6.7980   23.8200 C   0  0  0  0  0  3  0  0  0  0  0  0
  -21.0020   -5.9960   24.9730 C   0  0  0  0  0  3  0  0  0  0  0  0
  -21.3270   -4.6270   24.9190 C   0  0  0  0  0  0  0  0  0  0  0  0
  -21.7810   -4.0590   23.7160 C   0  0  0  0  0  3  0  0  0  0  0  0
  -21.9090   -4.8560   22.5660 C   0  0  0  0  0  0  0  0  0  0  0  0
  -22.3260   -4.2980   21.4040 F   0  0  0  0  0  0  0  0  0  0  0  0
  -21.1990   -3.8560   26.0230 F   0  0  0  0  0  0  0  0  0  0  0  0
  -22.7350  -13.5900   21.0520 C   0  0  0  0  0  0  0  0  0  0  0  0
  -21.9880  -12.9030   21.9080 N   0  0  0  0  0  0  0  0  0  0  0  0
  -22.3080  -14.6070   20.5060 O   0  0  0  0  0  0  0  0  0  0  0  0
  -22.3470  -12.0790   22.3700 H   0  0  0  0  0  0  0  0  0  0  0  0
  -21.0440  -13.2020   22.1020 H   0  0  0  0  0  0  0  0  0  0  0  0
  -25.3710  -15.2580   20.2650 N   0  0  0  0  0  0  0  0  0  0  0  0
  -24.6020  -15.9130   20.3520 H   0  0  0  0  0  0  0  0  0  0  0  0
  -26.2160  -15.6910   19.9160 H   0  0  0  0  0  0  0  0  0  0  0  0
  -29.6030  -17.9570   17.6990 N   0  0  0  0  0  0  0  0  0  0  0  0
  -29.9750  -17.0150   17.7690 H   0  0  0  0  0  0  0  0  0  0  0  0
  -29.5230  -18.2560   16.7300 H   0  0  0  0  0  0  0  0  0  0  0  0
  -28.1610  -24.9210   18.2000 C   0  0  0  0  0  1  0  0  0  0  0  0
  -28.0650  -24.8710   19.7440 C   0  0  0  0  0  3  0  0  0  0  0  0
  -28.2780  -26.3080   20.2250 O   0  0  0  0  0  0  0  0  0  0  0  0
  -24.6200  -31.9070   23.2370 C   0  0  0  0  0  0  0  0  0  0  0  0
  -27.1960  -27.2480   20.1820 C   0  0  0  0  0  0  0  0  0  0  0  0
  -23.4160  -30.5170   21.5990 C   0  0  0  0  0  3  0  0  0  0  0  0
  -24.8570  -28.9570   20.1750 C   0  0  0  0  0  0  0  0  0  0  0  0
  -25.9680  -30.7940   21.4280 C   0  0  0  0  0  2  0  0  0  0  0  0
  -26.0390  -29.4100   20.7740 C   0  0  0  0  0  0  0  0  0  0  0  0
  -27.2100  -28.5710   20.7630 C   0  0  0  0  0  3  0  0  0  0  0  0
  -25.9690  -26.8790   19.5760 C   0  0  0  0  0  3  0  0  0  0  0  0
  -24.8310  -27.6990   19.5650 C   0  0  0  0  0  3  0  0  0  0  0  0
  -23.6300  -29.8450   20.2200 C   0  0  0  0  0  2  0  0  0  0  0  0
  -24.6890  -31.0900   22.1440 N   0  0  0  0  0  0  0  0  0  0  0  0
  -23.5340  -32.1930   23.7640 O   0  0  0  0  0  0  0  0  0  0  0  0
  -22.7400  -29.5050   22.5570 C   0  0  0  0  0  0  0  0  0  0  0  0
  -21.4130  -29.3340   22.4260 N   0  0  0  0  0  0  0  0  0  0  0  0
  -23.4100  -28.8760   23.3810 O   0  0  0  0  0  0  0  0  0  0  0  0
  -20.9290  -29.8900   21.7350 H   0  0  0  0  0  0  0  0  0  0  0  0
  -18.0260  -28.1590   22.9340 C   0  0  0  0  0  0  0  0  0  0  0  0
  -20.5870  -28.4010   23.1960 C   0  0  0  0  0  3  0  0  0  0  0  0
  -20.6770  -26.9700   22.6160 C   0  0  0  0  0  2  0  0  0  0  0  0
  -19.5690  -26.6580   21.6050 C   0  0  0  0  0  2  0  0  0  0  0  0
  -18.1910  -26.8110   22.2540 C   0  0  0  0  0  2  0  0  0  0  0  0
  -19.1500  -28.9130   23.3630 C   0  0  0  0  0  0  0  0  0  0  0  0
  -18.9410  -30.1740   23.9600 C   0  0  0  0  0  3  0  0  0  0  0  0
  -17.6400  -30.6830   24.1340 C   0  0  0  0  0  3  0  0  0  0  0  0
  -16.5300  -29.9250   23.7220 C   0  0  0  0  0  3  0  0  0  0  0  0
  -16.7230  -28.6660   23.1270 C   0  0  0  0  0  3  0  0  0  0  0  0
  -25.8990  -32.5400   23.8630 C   0  0  0  0  0  3  0  0  0  0  0  0
  -25.5880  -33.9390   24.1960 N   0  0  0  0  0  0  0  0  0  0  0  0
  -25.9180  -34.9950   23.4410 C   0  0  0  0  0  0  0  0  0  0  0  0
  -26.5830  -34.8950   22.4060 O   0  0  0  0  0  0  0  0  0  0  0  0
  -24.9970  -34.0910   25.0000 H   0  0  0  0  0  0  0  0  0  0  0  0
  -24.1910  -36.7940   23.0980 C   0  0  0  0  0  1  0  0  0  0  0  0
  -25.4340  -36.3820   23.9050 C   0  0  0  0  0  3  0  0  0  0  0  0
  -27.5690  -37.2630   24.7380 C   0  0  0  0  0  1  0  0  0  0  0  0
  -26.4670  -37.4340   23.7950 N   0  0  0  0  0  0  0  0  0  0  0  0
  -26.0630  -38.3550   23.9440 H   0  0  0  0  0  0  0  0  0  0  0  0
  -26.4070  -31.7690   25.1430 C   0  0  1  0  0  0  0  0  0  0  0  0
  -25.3090  -31.5340   26.2070 C   0  0  0  0  0  1  0  0  0  0  0  0
  -26.9900  -30.3900   24.7590 C   0  0  0  0  0  1  0  0  0  0  0  0
  -27.5560  -32.5620   25.8100 C   0  0  0  0  0  1  0  0  0  0  0  0
  1 18  1  0
  1  5  1  0
  2  1  2  0
  3  6  1  0
  3  5  2  0
  4  7  2  0
  4  6  1  0
  6  9  1  0
  8  2  1  0
  8  3  1  0
 10 19  1  0
 11 16  1  0
 12 13  1  0
 12 11  1  0
 14 13  1  0
 14 25  1  0
 14 15  1  0
 16 10  1  0
 16 15  1  0
 17 10  2  0
 18 20  2  0
 19 18  1  0
 21 19  1  0
 22 23  2  0
 23 42  1  0
 24 23  1  0
 24 27  1  0
 25 22  1  0
 25 26  1  0
 26 24  2  0
 27 28  1  0
 28 29  2  0
 30 33  1  0
 30 29  1  0
 31 30  2  0
 32 31  1  0
 32 27  2  0
 33 34  1  0
 34 35  1  0
 35 36  2  0
 37 36  1  0
 37 41  1  0
 38 37  2  0
 39 34  2  0
 39 38  1  0
 40 39  1  0
 42 43  1  0
 43 46  1  0
 43 45  1  0
 44 42  2  0
 47 48  1  0
 47 22  1  0
 49 47  1  0
 50 51  1  0
 50  2  1  0
 52 50  1  0
 54 53  1  0
 54  4  1  0
 54 55  1  0
 56 67  2  0
 57 55  1  0
 57 62  1  0
 58 66  1  0
 58 68  1  0
 59 65  1  0
 59 61  1  0
 60 66  1  0
 61 60  1  0
 62 61  2  0
 63 57  2  0
 64 63  1  0
 64 59  2  0
 65 58  1  0
 66 56  1  0
 68 70  2  0
 69 68  1  0
 71 69  1  0
 72 81  2  0
 72 77  1  0
 73 69  1  0
 73 77  1  0
 74 73  1  0
 75 76  1  0
 75 74  1  0
 76 72  1  0
 77 78  2  0
 78 79  1  0
 80 79  2  0
 81 80  1  0
 82 56  1  0
 82 83  1  0
 82 92  1  0
 83 86  1  0
 84 88  1  0
 84 83  1  0
 85 84  2  0
 88 87  1  0
 90 88  1  0
 90 91  1  0
 90 89  1  0
 92 95  1  1
 92 93  1  0
 94 92  1  0
M  ISO  4  10 100  19 100  54 101  55 101
M  END
>  <TORSDO>  (16) 
F 18

>  <SCORE>  (16) 
-15.097

>  <name>  (16) 
15

>  <ligand_id>  (16) 
15

>  <original_smiles>  (16) 
[H]c1c([H])c([H])c2c(c1[H])C([H])([H])C([H])([H])C([H])([H])C2([H])N([H])C(=O)C1([H])N(C(=O)C([H])(N([H])C(=O)C([H])(N([H])C([H])([H])[H])C([H])([H])[H])C(C([H])([H])[H])(C([H])([H])[H])C([H])([H])[H])C([H])([H])c2c([H])c(OC([H])(C(=O)N([H])c3nc(C(=O)N([H])C(=O)N4C([H])([H])C([H])([H])C([H])([H])C([H])(n5nc(-c6c([H])c([H])c(Oc7c([H])c([H])c(F)c([H])c7F)c([H])c6[H])c(C(=O)N([H])[H])c5N([H])[H])C4([H])[H])c(N([H])[H])s3)C([H])([H])[H])c([H])c([H])c2C1([H])[H]

>  <smiles>  (16) 
[H]c1c([H])c([H])c2c(c1[H])C([H])([H])C([H])([H])C([H])([H])C2([H])N([H])C(=O)C1([H])N(C(=O)C([H])(N([H])C(=O)C([H])(N([H])C([H])([H])[H])C([H])([H])[H])C(C([H])([H])[H])(C([H])([H])[H])C([H])([H])[H])C([H])([H])c2c([H])c(OC([H])(C(=O)N([H])c3nc(C(=O)N([H])C(=O)N4C([H])([H])C([H])([H])C([H])([H])C([H])(n5nc(-c6c([H])c([H])c(Oc7c([H])c([H])c(F)c([H])c7F)c([H])c6[H])c(C(=O)N([H])[H])c5N([H])[H])C4([H])[H])c(N([H])[H])s3)C([H])([H])[H])c([H])c([H])c2C1([H])[H]

$$$$
16:0:0
     RDKit          3D

 93100  0  0  1  0  0  0  0  0999 V2000
  -29.6470  -17.2270   20.3820 C   0  0  0  0  0  0  0  0  0  0  0  0
  -28.3060  -17.4820   20.5000 C   0  0  0  0  0  3  0  0  0  0  0  0
  -29.5160  -19.6140   20.1460 C   0  0  0  0  0  0  0  0  0  0  0  0
  -29.0990  -22.1650   19.7390 C   0  0  0  0  0  0  0  0  0  0  0  0
  -30.3530  -18.4930   20.1940 N   0  0  0  0  0  0  0  0  0  0  0  0
  -29.8970  -21.0570   20.0510 N   0  0  0  0  0  0  0  0  0  0  0  0
  -28.0030  -21.9900   19.2020 O   0  0  0  0  0  0  0  0  0  0  0  0
  -27.3940  -16.5050   20.7200 F   0  0  0  0  0 15  0  0  0  0  0  0
  -27.8210  -19.1440   20.3490 S   0  0  0  0  0  0  0  0  0  0  0  0
  -30.8420  -21.2780   20.3300 H   0  0  0  0  0  0  0  0  0  0  0  0
  -30.7540  -14.7520   20.0460 C   0  0  0  0  0  0  0  0  0  0  0  0
  -30.5850  -12.4150   19.1280 C   0  0  0  0  0  2  0  0  0  0  0  0
  -29.6180  -12.4320   17.9190 C   0  0  0  0  0  2  0  0  0  0  0  0
  -28.1500  -12.2970   18.3730 C   0  0  0  0  0  2  0  0  0  0  0  0
  -27.8050  -13.2410   19.5550 C   0  0  0  0  0  3  0  0  0  0  0  0
  -28.8780  -13.1500   20.6650 C   0  0  0  0  0  2  0  0  0  0  0  0
  -30.1780  -13.4950   20.0580 N   0  0  0  0  0  0  0  0  0  0  0  0
  -31.8930  -14.9110   19.5930 O   0  0  0  0  0  0  0  0  0  0  0  0
  -29.9350  -15.7700   20.4990 N   0  0  0  0  0  0  0  0  0  0  0  0
  -29.1480  -15.3370   20.9600 H   0  0  0  0  0  0  0  0  0  0  0  0
  -25.4550  -13.9250   20.3380 C   0  0  0  0  0  0  0  0  0  0  0  0
  -24.3640  -13.1930   20.7180 C   0  0  0  0  0  0  0  0  0  0  0  0
  -24.7660  -11.8240   20.6510 C   0  0  0  0  0  0  0  0  0  0  0  0
  -26.4570  -13.0060   20.0680 N   0  0  0  0  0  0  0  0  0  0  0  0
  -26.0480  -11.7340   20.3130 N   0  0  0  0  0  0  0  0  0  0  0  0
  -23.9870  -10.5920   20.8330 C   0  0  0  0  0  0  0  0  0  0  0  0
  -24.4180   -9.5680   21.7040 C   0  0  0  0  0  3  0  0  0  0  0  0
  -23.6410   -8.4020   21.8770 C   0  0  0  0  0  3  0  0  0  0  0  0
  -22.4200   -8.2530   21.1760 C   0  0  0  0  0  0  0  0  0  0  0  0
  -22.0080   -9.2660   20.2930 C   0  0  0  0  0  3  0  0  0  0  0  0
  -22.7840  -10.4230   20.1190 C   0  0  0  0  0  3  0  0  0  0  0  0
  -21.6130   -7.1440   21.2620 O   0  0  0  0  0  0  0  0  0  0  0  0
  -21.6110   -6.3390   22.3730 C   0  0  0  0  0  0  0  0  0  0  0  0
  -21.2960   -6.8410   23.6540 C   0  0  0  0  0  3  0  0  0  0  0  0
  -21.2370   -5.9650   24.7580 C   0  0  0  0  0  3  0  0  0  0  0  0
  -21.4830   -4.5900   24.5800 C   0  0  0  0  0  0  0  0  0  0  0  0
  -21.7920   -4.0890   23.3030 C   0  0  0  0  0  3  0  0  0  0  0  0
  -21.8520   -4.9610   22.2020 C   0  0  0  0  0  0  0  0  0  0  0  0
  -22.1290   -4.4700   20.9700 F   0  0  0  0  0  0  0  0  0  0  0  0
  -21.4190   -3.7480   25.6370 F   0  0  0  0  0  0  0  0  0  0  0  0
  -22.9980  -13.7270   21.0380 C   0  0  0  0  0  0  0  0  0  0  0  0
  -22.2680  -13.0550   21.9210 N   0  0  0  0  0  0  0  0  0  0  0  0
  -22.5890  -14.7770   20.5410 O   0  0  0  0  0  0  0  0  0  0  0  0
  -22.6120  -12.2070   22.3450 H   0  0  0  0  0  0  0  0  0  0  0  0
  -21.3530  -13.3960   22.1790 H   0  0  0  0  0  0  0  0  0  0  0  0
  -25.6680  -15.2900   20.1820 N   0  0  0  0  0  0  0  0  0  0  0  0
  -24.9470  -15.9690   20.3980 H   0  0  0  0  0  0  0  0  0  0  0  0
  -26.5750  -15.7130   20.0390 H   0  0  0  0  0  0  0  0  0  0  0  0
  -29.5130  -23.7040   20.0220 C   0  0  0  0  0  3  0  0  0  0  0  0
  -30.8220  -23.8360   19.7870 F   0  0  0  0  0  0  0  0  0  0  0  0
  -29.1100  -25.0170   17.8310 C   0  0  0  0  0  1  0  0  0  0  0  0
  -28.6920  -24.9410   19.3140 C   0  0  0  0  0  3  0  0  0  0  0  0
  -28.6990  -26.3700   19.8390 O   0  0  0  0  0  0  0  0  0  0  0  0
  -24.5830  -31.5000   22.9910 C   0  0  0  0  0  0  0  0  0  0  0  0
  -27.5380  -27.1980   19.7910 C   0  0  0  0  0  0  0  0  0  0  0  0
  -23.5060  -30.1140   21.2590 C   0  0  0  0  0  3  0  0  0  0  0  0
  -25.0820  -28.7200   19.8000 C   0  0  0  0  0  0  0  0  0  0  0  0
  -26.0340  -30.5720   21.1630 C   0  0  0  0  0  2  0  0  0  0  0  0
  -26.2120  -29.2300   20.4500 C   0  0  0  0  0  0  0  0  0  0  0  0
  -27.4390  -28.4840   20.4330 C   0  0  0  0  0  3  0  0  0  0  0  0
  -26.3670  -26.7620   19.1240 C   0  0  0  0  0  3  0  0  0  0  0  0
  -25.1660  -27.4940   19.1270 C   0  0  0  0  0  3  0  0  0  0  0  0
  -23.7960  -29.5220   19.8550 C   0  0  0  0  0  2  0  0  0  0  0  0
  -24.7240  -30.7460   21.8610 N   0  0  0  0  0  0  0  0  0  0  0  0
  -23.4710  -31.6890   23.5070 O   0  0  0  0  0  0  0  0  0  0  0  0
  -22.8800  -29.0160   22.1530 C   0  0  0  0  0  0  0  0  0  0  0  0
  -21.5640  -28.7840   22.0020 N   0  0  0  0  0  0  0  0  0  0  0  0
  -23.5790  -28.3770   22.9450 O   0  0  0  0  0  0  0  0  0  0  0  0
  -21.0570  -29.3550   21.3410 H   0  0  0  0  0  0  0  0  0  0  0  0
  -18.2350  -27.4280   22.4290 C   0  0  0  0  0  0  0  0  0  0  0  0
  -20.7830  -27.7680   22.7100 C   0  0  0  0  0  3  0  0  0  0  0  0
  -20.9360  -26.3820   22.0420 C   0  0  0  0  0  2  0  0  0  0  0  0
  -19.8440  -26.0850   21.0100 C   0  0  0  0  0  2  0  0  0  0  0  0
  -18.4600  -26.1350   21.6650 C   0  0  0  0  0  2  0  0  0  0  0  0
  -19.3260  -28.2030   22.9070 C   0  0  0  0  0  0  0  0  0  0  0  0
  -19.0620  -29.4130   23.5830 C   0  0  0  0  0  3  0  0  0  0  0  0
  -17.7400  -29.8520   23.7850 C   0  0  0  0  0  3  0  0  0  0  0  0
  -16.6630  -29.0750   23.3230 C   0  0  0  0  0  3  0  0  0  0  0  0
  -16.9120  -27.8640   22.6510 C   0  0  0  0  0  3  0  0  0  0  0  0
  -25.8070  -32.1800   23.6760 C   0  0  0  0  0  3  0  0  0  0  0  0
  -25.4160  -33.5550   24.0220 N   0  0  0  0  0  0  0  0  0  0  0  0
  -25.7240  -34.6400   23.3000 C   0  0  0  0  0  0  0  0  0  0  0  0
  -26.4340  -34.5920   22.2910 O   0  0  0  0  0  0  0  0  0  0  0  0
  -24.7870  -33.6630   24.8040 H   0  0  0  0  0  0  0  0  0  0  0  0
  -23.9150  -36.3510   22.9340 C   0  0  0  0  0  1  0  0  0  0  0  0
  -25.1550  -35.9940   23.7690 C   0  0  0  0  0  3  0  0  0  0  0  0
  -27.2180  -36.9740   24.6720 C   0  0  0  0  0  1  0  0  0  0  0  0
  -26.1350  -37.1010   23.7000 N   0  0  0  0  0  0  0  0  0  0  0  0
  -25.6780  -37.9950   23.8500 H   0  0  0  0  0  0  0  0  0  0  0  0
  -26.3070  -31.4080   24.9590 C   0  0  1  0  0  0  0  0  0  0  0  0
  -25.1860  -31.1070   25.9820 C   0  0  0  0  0  1  0  0  0  0  0  0
  -26.9610  -30.0620   24.5690 C   0  0  0  0  0  1  0  0  0  0  0  0
  -27.3990  -32.2370   25.6770 C   0  0  0  0  0  1  0  0  0  0  0  0
  1 19  1  0
  1  2  2  0
  3  5  2  0
  3  9  1  0
  4 49  1  0
  4  6  1  0
  5  1  1  0
  6  3  1  0
  6 10  1  0
  7  4  2  0
  9  2  1  0
 11 17  1  0
 11 19  1  0
 12 17  1  0
 13 14  1  0
 13 12  1  0
 15 14  1  0
 15 24  1  0
 15 16  1  0
 17 16  1  0
 18 11  2  0
 19 20  1  0
 21 22  2  0
 22 41  1  0
 23 22  1  0
 23 26  1  0
 24 25  1  0
 24 21  1  0
 25 23  2  0
 26 27  1  0
 27 28  2  0
 29 32  1  0
 29 28  1  0
 30 29  2  0
 31 30  1  0
 31 26  2  0
 32 33  1  0
 33 34  1  0
 34 35  2  0
 36 35  1  0
 36 40  1  0
 37 36  2  0
 38 33  2  0
 38 37  1  0
 39 38  1  0
 41 42  1  0
 42 45  1  0
 42 44  1  0
 43 41  2  0
 46 21  1  0
 46 47  1  0
 48 46  1  0
 49 50  1  0
 52 51  1  0
 52 53  1  0
 52 49  1  0
 54 65  2  0
 55 53  1  0
 55 60  1  0
 56 64  1  0
 56 66  1  0
 57 63  1  0
 57 59  1  0
 58 64  1  0
 59 58  1  0
 60 59  2  0
 61 62  1  0
 61 55  2  0
 62 57  2  0
 63 56  1  0
 64 54  1  0
 66 68  2  0
 67 66  1  0
 69 67  1  0
 70 79  2  0
 70 75  1  0
 71 67  1  0
 71 75  1  0
 72 71  1  0
 73 74  1  0
 73 72  1  0
 74 70  1  0
 75 76  2  0
 76 77  1  0
 78 77  2  0
 79 78  1  0
 80 54  1  0
 80 81  1  0
 80 90  1  0
 81 84  1  0
 82 86  1  0
 82 81  1  0
 83 82  2  0
 86 85  1  0
 88 86  1  0
 88 89  1  0
 88 87  1  0
 90 93  1  1
 90 91  1  0
 92 90  1  0
M  ISO  4  11 100  19 100  52 101  53 101
M  END
>  <TORSDO>  (17) 
F 18

>  <SCORE>  (17) 
-13.519

>  <name>  (17) 
16

>  <ligand_id>  (17) 
16

>  <original_smiles>  (17) 
[H]c1c([H])c([H])c2c(c1[H])C([H])([H])C([H])([H])C([H])([H])C2([H])N([H])C(=O)C1([H])N(C(=O)C([H])(N([H])C(=O)C([H])(N([H])C([H])([H])[H])C([H])([H])[H])C(C([H])([H])[H])(C([H])([H])[H])C([H])([H])[H])C([H])([H])c2c([H])c(OC([H])(C([H])([H])[H])C([H])(F)C(=O)N([H])c3nc(N([H])C(=O)N4C([H])([H])C([H])([H])C([H])([H])C([H])(n5nc(-c6c([H])c([H])c(Oc7c([H])c([H])c(F)c([H])c7F)c([H])c6[H])c(C(=O)N([H])[H])c5N([H])[H])C4([H])[H])c(F)s3)c([H])c([H])c2C1([H])[H]

>  <smiles>  (17) 
[H]c1c([H])c([H])c2c(c1[H])C([H])([H])C([H])([H])C([H])([H])C2([H])N([H])C(=O)C1([H])N(C(=O)C([H])(N([H])C(=O)C([H])(N([H])C([H])([H])[H])C([H])([H])[H])C(C([H])([H])[H])(C([H])([H])[H])C([H])([H])[H])C([H])([H])c2c([H])c(OC([H])(C([H])([H])[H])C([H])(F)C(=O)N([H])c3nc(N([H])C(=O)N4C([H])([H])C([H])([H])C([H])([H])C([H])(n5nc(-c6c([H])c([H])c(Oc7c([H])c([H])c(F)c([H])c7F)c([H])c6[H])c(C(=O)N([H])[H])c5N([H])[H])C4([H])[H])c(F)s3)c([H])c([H])c2C1([H])[H]

$$$$
17:0:0
     RDKit          3D

 95103  0  0  1  0  0  0  0  0999 V2000
  -31.4650  -18.2370   22.6980 C   0  0  0  0  0  3  0  0  0  0  0  0
  -30.9210  -19.4160   22.1630 C   0  0  0  0  0  0  0  0  0  0  0  0
  -31.0650  -16.9890   22.1920 C   0  0  0  0  0  0  0  0  0  0  0  0
  -29.9930  -19.3280   21.0940 C   0  0  0  0  0  0  0  0  0  0  0  0
  -30.1320  -16.9470   21.1330 C   0  0  0  0  0  0  0  0  0  0  0  0
  -29.8990  -21.7490   20.3350 C   0  0  0  0  0  0  0  0  0  0  0  0
  -29.6010  -18.1020   20.6270 N   0  0  0  0  0  0  0  0  0  0  0  0
  -29.3770  -20.5190   20.5760 N   0  0  0  0  0  0  0  0  0  0  0  0
  -31.1030  -22.0050   20.4180 O   0  0  0  0  0  0  0  0  0  0  0  0
  -31.2590  -20.6040   22.7230 F   0  0  0  0  0  0  0  0  0  0  0  0
  -31.5390  -15.8510   22.7610 F   0  0  0  0  0  0  0  0  0  0  0  0
  -28.4140  -20.4040   20.3030 H   0  0  0  0  0  0  0  0  0  0  0  0
  -30.3880  -14.6710   20.1340 C   0  0  0  0  0  0  0  0  0  0  0  0
  -30.0650  -12.5530   18.8950 C   0  0  0  0  0  2  0  0  0  0  0  0
  -29.0330  -12.7540   17.7640 C   0  0  0  0  0  2  0  0  0  0  0  0
  -27.5990  -12.5490   18.2920 C   0  0  0  0  0  2  0  0  0  0  0  0
  -27.3220  -13.3400   19.5990 C   0  0  0  0  0  3  0  0  0  0  0  0
  -28.4570  -13.1220   20.6270 C   0  0  0  0  0  2  0  0  0  0  0  0
  -29.7270  -13.4890   19.9770 N   0  0  0  0  0  0  0  0  0  0  0  0
  -31.4880  -14.8810   19.6140 O   0  0  0  0  0  0  0  0  0  0  0  0
  -29.6700  -15.6650   20.7060 N   0  0  0  0  0  0  0  0  0  0  0  0
  -28.7020  -15.4640   20.8890 H   0  0  0  0  0  0  0  0  0  0  0  0
  -24.9610  -13.8570   20.4780 C   0  0  0  0  0  0  0  0  0  0  0  0
  -23.9420  -13.0440   20.8930 C   0  0  0  0  0  0  0  0  0  0  0  0
  -24.4400  -11.7080   20.7980 C   0  0  0  0  0  0  0  0  0  0  0  0
  -26.0130  -13.0130   20.1580 N   0  0  0  0  0  0  0  0  0  0  0  0
  -25.7080  -11.7150   20.4090 N   0  0  0  0  0  0  0  0  0  0  0  0
  -23.7640  -10.4200   20.9980 C   0  0  0  0  0  0  0  0  0  0  0  0
  -24.2550   -9.4630   21.9140 C   0  0  0  0  0  3  0  0  0  0  0  0
  -23.5770   -8.2400   22.1020 C   0  0  0  0  0  3  0  0  0  0  0  0
  -22.3940   -7.9640   21.3760 C   0  0  0  0  0  0  0  0  0  0  0  0
  -21.9230   -8.9100   20.4470 C   0  0  0  0  0  3  0  0  0  0  0  0
  -22.6020  -10.1250   20.2580 C   0  0  0  0  0  3  0  0  0  0  0  0
  -21.6840   -6.7920   21.4760 O   0  0  0  0  0  0  0  0  0  0  0  0
  -21.6730   -6.0530   22.6310 C   0  0  0  0  0  0  0  0  0  0  0  0
  -21.2100   -6.5850   23.8540 C   0  0  0  0  0  3  0  0  0  0  0  0
  -21.1520   -5.7690   25.0010 C   0  0  0  0  0  3  0  0  0  0  0  0
  -21.5470   -4.4190   24.9250 C   0  0  0  0  0  0  0  0  0  0  0  0
  -22.0040   -3.8860   23.7060 C   0  0  0  0  0  3  0  0  0  0  0  0
  -22.0630   -4.7000   22.5620 C   0  0  0  0  0  0  0  0  0  0  0  0
  -22.4840   -4.1740   21.3860 F   0  0  0  0  0  0  0  0  0  0  0  0
  -21.4830   -3.6320   26.0240 F   0  0  0  0  0  0  0  0  0  0  0  0
  -22.5510  -13.4720   21.2620 C   0  0  0  0  0  0  0  0  0  0  0  0
  -21.9000  -12.7340   22.1550 N   0  0  0  0  0  0  0  0  0  0  0  0
  -22.0530  -14.4970   20.7990 O   0  0  0  0  0  0  0  0  0  0  0  0
  -22.3160  -11.9040   22.5510 H   0  0  0  0  0  0  0  0  0  0  0  0
  -20.9690  -13.0020   22.4440 H   0  0  0  0  0  0  0  0  0  0  0  0
  -25.0770  -15.2350   20.3260 N   0  0  0  0  0  0  0  0  0  0  0  0
  -24.2960  -15.8600   20.4940 H   0  0  0  0  0  0  0  0  0  0  0  0
  -25.8820  -15.7080   19.9350 H   0  0  0  0  0  0  0  0  0  0  0  0
  -28.9330  -22.8490   19.8210 C   0  0  0  0  0  2  0  0  0  0  0  0
  -29.2280  -24.3360   20.2250 C   0  0  0  0  0  3  0  0  0  0  0  0
  -29.2540  -24.4290   21.5590 F   0  0  0  0  0  0  0  0  0  0  0  0
  -28.1510  -25.3220   19.6800 C   0  0  0  0  0  2  0  0  0  0  0  0
  -28.3200  -26.7380   19.9620 O   0  0  0  0  0  0  0  0  0  0  0  0
  -24.5800  -31.8910   23.2100 C   0  0  0  0  0  0  0  0  0  0  0  0
  -27.1660  -27.5160   19.9490 C   0  0  0  0  0  0  0  0  0  0  0  0
  -23.3480  -30.5370   21.5520 C   0  0  0  0  0  3  0  0  0  0  0  0
  -24.7760  -29.0590   20.0410 C   0  0  0  0  0  0  0  0  0  0  0  0
  -25.8720  -30.9010   21.3160 C   0  0  0  0  0  2  0  0  0  0  0  0
  -25.9470  -29.5490   20.6290 C   0  0  0  0  0  0  0  0  0  0  0  0
  -27.1440  -28.7890   20.5760 C   0  0  0  0  0  3  0  0  0  0  0  0
  -25.9710  -27.0650   19.3360 C   0  0  0  0  0  3  0  0  0  0  0  0
  -24.7860  -27.8190   19.3850 C   0  0  0  0  0  3  0  0  0  0  0  0
  -23.5330  -29.9130   20.1440 C   0  0  0  0  0  2  0  0  0  0  0  0
  -24.6200  -31.1240   22.0830 N   0  0  0  0  0  0  0  0  0  0  0  0
  -23.5080  -32.1420   23.7780 O   0  0  0  0  0  0  0  0  0  0  0  0
  -22.7220  -29.4780   22.4890 C   0  0  0  0  0  0  0  0  0  0  0  0
  -21.4010  -29.2700   22.3620 N   0  0  0  0  0  0  0  0  0  0  0  0
  -23.4200  -28.8480   23.2880 O   0  0  0  0  0  0  0  0  0  0  0  0
  -20.8960  -29.8330   21.6930 H   0  0  0  0  0  0  0  0  0  0  0  0
  -18.0570  -27.9800   22.8320 C   0  0  0  0  0  0  0  0  0  0  0  0
  -20.6070  -28.2980   23.1140 C   0  0  0  0  0  3  0  0  0  0  0  0
  -20.7460  -26.8790   22.5160 C   0  0  0  0  0  2  0  0  0  0  0  0
  -19.6560  -26.5450   21.4940 C   0  0  0  0  0  2  0  0  0  0  0  0
  -18.2690  -26.6450   22.1360 C   0  0  0  0  0  2  0  0  0  0  0  0
  -19.1560  -28.7630   23.2770 C   0  0  0  0  0  0  0  0  0  0  0  0
  -18.9040  -30.0110   23.8870 C   0  0  0  0  0  3  0  0  0  0  0  0
  -17.5870  -30.4770   24.0570 C   0  0  0  0  0  3  0  0  0  0  0  0
  -16.5020  -29.6920   23.6290 C   0  0  0  0  0  3  0  0  0  0  0  0
  -16.7380  -28.4460   23.0210 C   0  0  0  0  0  3  0  0  0  0  0  0
  -25.8750  -32.5100   23.8210 C   0  0  0  0  0  3  0  0  0  0  0  0
  -26.3990  -31.7290   25.0890 C   0  0  1  0  0  0  0  0  0  0  0  0
  -25.3070  -31.4790   26.1570 C   0  0  0  0  0  1  0  0  0  0  0  0
  -26.9880  -30.3590   24.6820 C   0  0  0  0  0  1  0  0  0  0  0  0
  -27.5480  -32.5240   25.7530 C   0  0  0  0  0  1  0  0  0  0  0  0
  -25.5810  -33.9090   24.1580 N   0  0  0  0  0  0  0  0  0  0  0  0
  -25.9010  -34.9580   23.3900 C   0  0  0  0  0  0  0  0  0  0  0  0
  -26.5470  -34.8510   22.3430 O   0  0  0  0  0  0  0  0  0  0  0  0
  -25.0070  -34.0680   24.9730 H   0  0  0  0  0  0  0  0  0  0  0  0
  -24.1690  -36.7550   23.0730 C   0  0  0  0  0  1  0  0  0  0  0  0
  -25.4280  -36.3490   23.8550 C   0  0  0  0  0  3  0  0  0  0  0  0
  -27.5810  -37.2370   24.6360 C   0  0  0  0  0  1  0  0  0  0  0  0
  -26.4610  -37.3990   23.7130 N   0  0  0  0  0  0  0  0  0  0  0  0
  -26.0600  -38.3220   23.8590 H   0  0  0  0  0  0  0  0  0  0  0  0
  2  1  2  0
  2 10  1  0
  3  1  1  0
  3 11  1  0
  4  2  1  0
  5  3  2  0
  6  9  2  0
  6  8  1  0
  7  4  2  0
  7  5  1  0
  8  4  1  0
 12  8  1  0
 13 21  1  0
 14 19  1  0
 15 16  1  0
 15 14  1  0
 17 16  1  0
 17 26  1  0
 17 18  1  0
 19 13  1  0
 19 18  1  0
 20 13  2  0
 21 22  1  0
 21  5  1  0
 23 24  2  0
 24 43  1  0
 25 24  1  0
 25 28  1  0
 26 27  1  0
 26 23  1  0
 27 25  2  0
 28 29  1  0
 29 30  2  0
 31 34  1  0
 31 30  1  0
 32 31  2  0
 33 32  1  0
 33 28  2  0
 34 35  1  0
 35 36  1  0
 36 37  2  0
 38 37  1  0
 38 42  1  0
 39 38  2  0
 40 35  2  0
 40 39  1  0
 41 40  1  0
 43 44  1  0
 44 47  1  0
 44 46  1  0
 45 43  2  0
 48 23  1  0
 48 49  1  0
 50 48  1  0
 51 52  1  0
 51  6  1  0
 52 53  1  0
 54 55  1  0
 54 52  1  0
 56 67  2  0
 57 55  1  0
 57 62  1  0
 58 66  1  0
 58 68  1  0
 59 65  1  0
 59 61  1  0
 60 66  1  0
 61 60  1  0
 62 61  2  0
 63 64  1  0
 63 57  2  0
 64 59  2  0
 65 58  1  0
 66 56  1  0
 68 70  2  0
 69 68  1  0
 71 69  1  0
 72 81  2  0
 72 77  1  0
 73 69  1  0
 73 77  1  0
 74 73  1  0
 75 76  1  0
 75 74  1  0
 76 72  1  0
 77 78  2  0
 78 79  1  0
 80 79  2  0
 81 80  1  0
 82 56  1  0
 82 87  1  0
 82 83  1  0
 83 86  1  1
 83 84  1  0
 85 83  1  0
 87 90  1  0
 88 92  1  0
 88 87  1  0
 89 88  2  0
 92 91  1  0
 94 92  1  0
 94 95  1  0
 94 93  1  0
M  ISO  4  13 100  21 100  54 101  55 101
M  END
>  <TORSDO>  (18) 
F 19

>  <SCORE>  (18) 
-13.491

>  <name>  (18) 
17

>  <ligand_id>  (18) 
17

>  <original_smiles>  (18) 
[H]c1c([H])c([H])c2c(c1[H])C([H])([H])C([H])([H])C([H])([H])C2([H])N([H])C(=O)C1([H])N(C(=O)C([H])(N([H])C(=O)C([H])(N([H])C([H])([H])[H])C([H])([H])[H])C(C([H])([H])[H])(C([H])([H])[H])C([H])([H])[H])C([H])([H])c2c([H])c(OC([H])([H])C([H])(F)C([H])([H])C(=O)N([H])c3nc(N([H])C(=O)N4C([H])([H])C([H])([H])C([H])([H])C([H])(n5nc(-c6c([H])c([H])c(Oc7c([H])c([H])c(F)c([H])c7F)c([H])c6[H])c(C(=O)N([H])[H])c5N([H])[H])C4([H])[H])c(F)c([H])c3F)c([H])c([H])c2C1([H])[H]

>  <smiles>  (18) 
[H]c1c([H])c([H])c2c(c1[H])C([H])([H])C([H])([H])C([H])([H])C2([H])N([H])C(=O)C1([H])N(C(=O)C([H])(N([H])C(=O)C([H])(N([H])C([H])([H])[H])C([H])([H])[H])C(C([H])([H])[H])(C([H])([H])[H])C([H])([H])[H])C([H])([H])c2c([H])c(OC([H])([H])C([H])(F)C([H])([H])C(=O)N([H])c3nc(N([H])C(=O)N4C([H])([H])C([H])([H])C([H])([H])C([H])(n5nc(-c6c([H])c([H])c(Oc7c([H])c([H])c(F)c([H])c7F)c([H])c6[H])c(C(=O)N([H])[H])c5N([H])[H])C4([H])[H])c(F)c([H])c3F)c([H])c([H])c2C1([H])[H]

$$$$
18:0:0
     RDKit          3D

 93101  0  0  1  0  0  0  0  0999 V2000
  -28.6280  -21.6860   20.2320 C   0  0  0  0  0  0  0  0  0  0  0  0
  -27.4170  -21.5570   20.0270 O   0  0  0  0  0  0  0  0  0  0  0  0
  -30.4930  -15.1170   20.3010 C   0  0  0  0  0  0  0  0  0  0  0  0
  -30.4130  -12.7460   19.3650 C   0  0  0  0  0  2  0  0  0  0  0  0
  -29.4710  -12.6540   18.1410 C   0  0  0  0  0  2  0  0  0  0  0  0
  -28.0120  -12.4260   18.5840 C   0  0  0  0  0  2  0  0  0  0  0  0
  -27.5980  -13.3540   19.7540 C   0  0  0  0  0  3  0  0  0  0  0  0
  -28.6580  -13.3990   20.8750 C   0  0  0  0  0  2  0  0  0  0  0  0
  -29.9120  -13.8430   20.2510 N   0  0  0  0  0  0  0  0  0  0  0  0
  -31.7040  -15.1680   20.0490 O   0  0  0  0  0  0  0  0  0  0  0  0
  -29.5120  -20.3300   20.3150 C   0  0  0  0  0  0  0  0  0  0  0  0
  -30.9080  -20.2260   20.3250 C   0  0  0  0  0  0  0  0  0  0  0  0
  -29.9490  -17.8290   20.3680 C   0  0  0  0  0  0  0  0  0  0  0  0
  -29.0360  -18.9050   20.3470 N   0  0  0  0  0  0  0  0  0  0  0  0
  -29.6880  -16.3040   20.4080 N   0  0  0  0  0  0  0  0  0  0  0  0
  -31.5480  -18.5550   20.3500 S   0  0  0  0  0  0  0  0  0  0  0  0
  -28.7110  -16.0850   20.5040 H   0  0  0  0  0  0  0  0  0  0  0  0
  -25.2170  -13.9110   20.5050 C   0  0  0  0  0  0  0  0  0  0  0  0
  -24.1610  -13.1290   20.8770 C   0  0  0  0  0  0  0  0  0  0  0  0
  -24.6330  -11.7810   20.8420 C   0  0  0  0  0  0  0  0  0  0  0  0
  -26.2660  -13.0420   20.2590 N   0  0  0  0  0  0  0  0  0  0  0  0
  -25.9250  -11.7550   20.5280 N   0  0  0  0  0  0  0  0  0  0  0  0
  -23.9140  -10.5140   21.0290 C   0  0  0  0  0  0  0  0  0  0  0  0
  -24.3440   -9.5490   21.9680 C   0  0  0  0  0  3  0  0  0  0  0  0
  -23.6220   -8.3490   22.1440 C   0  0  0  0  0  3  0  0  0  0  0  0
  -22.4570   -8.1030   21.3790 C   0  0  0  0  0  0  0  0  0  0  0  0
  -22.0470   -9.0550   20.4280 C   0  0  0  0  0  3  0  0  0  0  0  0
  -22.7690  -10.2470   20.2530 C   0  0  0  0  0  3  0  0  0  0  0  0
  -21.7060   -6.9550   21.4640 O   0  0  0  0  0  0  0  0  0  0  0  0
  -21.6400   -6.2230   22.6220 C   0  0  0  0  0  0  0  0  0  0  0  0
  -21.1490   -6.7750   23.8260 C   0  0  0  0  0  3  0  0  0  0  0  0
  -21.0380   -5.9680   24.9760 C   0  0  0  0  0  3  0  0  0  0  0  0
  -21.3990   -4.6090   24.9210 C   0  0  0  0  0  0  0  0  0  0  0  0
  -21.8790   -4.0550   23.7210 C   0  0  0  0  0  3  0  0  0  0  0  0
  -21.9950   -4.8600   22.5740 C   0  0  0  0  0  0  0  0  0  0  0  0
  -22.4390   -4.3160   21.4160 F   0  0  0  0  0  0  0  0  0  0  0  0
  -21.2830   -3.8320   26.0230 F   0  0  0  0  0  0  0  0  0  0  0  0
  -22.7610  -13.5950   21.1510 C   0  0  0  0  0  0  0  0  0  0  0  0
  -22.0410  -12.8960   22.0210 N   0  0  0  0  0  0  0  0  0  0  0  0
  -22.3150  -14.6180   20.6310 O   0  0  0  0  0  0  0  0  0  0  0  0
  -22.4160  -12.0700   22.4610 H   0  0  0  0  0  0  0  0  0  0  0  0
  -21.1030  -13.1930   22.2530 H   0  0  0  0  0  0  0  0  0  0  0  0
  -25.3670  -15.2860   20.3260 N   0  0  0  0  0  0  0  0  0  0  0  0
  -24.5910  -15.9260   20.4450 H   0  0  0  0  0  0  0  0  0  0  0  0
  -26.1870  -15.7310   19.9350 H   0  0  0  0  0  0  0  0  0  0  0  0
  -31.8940  -21.2070   20.3040 N   0  0  0  0  0  0  0  0  0  0  0  0
  -32.8790  -20.9780   20.1900 H   0  0  0  0  0  0  0  0  0  0  0  0
  -31.7200  -22.2000   20.1810 H   0  0  0  0  0  0  0  0  0  0  0  0
  -29.9010  -23.4890   21.6580 C   0  0  0  0  0  1  0  0  0  0  0  0
  -29.9390  -23.6340   19.1130 C   0  0  0  0  0  1  0  0  0  0  0  0
  -29.0790  -23.3190   20.3550 C   0  0  1  0  0  0  0  0  0  0  0  0
  -27.9640  -24.6210   20.3350 C   0  0  0  0  0  2  0  0  0  0  0  0
  -28.2470  -26.1770   20.3440 O   0  0  0  0  0  0  0  0  0  0  0  0
  -24.6390  -31.9490   23.2830 C   0  0  0  0  0  0  0  0  0  0  0  0
  -27.2010  -27.1830   20.2820 C   0  0  0  0  0  0  0  0  0  0  0  0
  -23.4430  -30.5620   21.6360 C   0  0  0  0  0  3  0  0  0  0  0  0
  -24.8890  -28.9730   20.2240 C   0  0  0  0  0  0  0  0  0  0  0  0
  -26.0030  -30.7990   21.4920 C   0  0  0  0  0  2  0  0  0  0  0  0
  -26.0700  -29.4020   20.8430 C   0  0  0  0  0  0  0  0  0  0  0  0
  -27.2260  -28.5270   20.8500 C   0  0  0  0  0  3  0  0  0  0  0  0
  -25.9930  -26.8650   19.6220 C   0  0  0  0  0  3  0  0  0  0  0  0
  -24.8670  -27.7200   19.5960 C   0  0  0  0  0  3  0  0  0  0  0  0
  -23.6720  -29.8860   20.2580 C   0  0  0  0  0  2  0  0  0  0  0  0
  -24.7160  -31.1260   22.1920 N   0  0  0  0  0  0  0  0  0  0  0  0
  -23.5500  -32.2430   23.7990 O   0  0  0  0  0  0  0  0  0  0  0  0
  -22.7500  -29.5590   22.5920 C   0  0  0  0  0  0  0  0  0  0  0  0
  -21.4230  -29.3930   22.4500 N   0  0  0  0  0  0  0  0  0  0  0  0
  -23.4090  -28.9320   23.4270 O   0  0  0  0  0  0  0  0  0  0  0  0
  -20.9480  -29.9540   21.7580 H   0  0  0  0  0  0  0  0  0  0  0  0
  -18.0270  -28.2210   22.9260 C   0  0  0  0  0  0  0  0  0  0  0  0
  -20.5870  -28.4620   23.2120 C   0  0  0  0  0  3  0  0  0  0  0  0
  -20.6810  -27.0310   22.6370 C   0  0  0  0  0  2  0  0  0  0  0  0
  -19.5850  -26.7180   21.6130 C   0  0  0  0  0  2  0  0  0  0  0  0
  -18.1990  -26.8730   22.2470 C   0  0  0  0  0  2  0  0  0  0  0  0
  -19.1500  -28.9740   23.3650 C   0  0  0  0  0  0  0  0  0  0  0  0
  -18.9360  -30.2350   23.9610 C   0  0  0  0  0  3  0  0  0  0  0  0
  -17.6350  -30.7450   24.1240 C   0  0  0  0  0  3  0  0  0  0  0  0
  -16.5270  -29.9890   23.7030 C   0  0  0  0  0  3  0  0  0  0  0  0
  -16.7240  -28.7300   23.1080 C   0  0  0  0  0  3  0  0  0  0  0  0
  -25.9150  -32.5770   23.9230 C   0  0  0  0  0  3  0  0  0  0  0  0
  -26.4050  -31.8100   25.2140 C   0  0  1  0  0  0  0  0  0  0  0  0
  -25.2930  -31.5880   26.2670 C   0  0  0  0  0  1  0  0  0  0  0  0
  -26.9830  -30.4250   24.8450 C   0  0  0  0  0  1  0  0  0  0  0  0
  -27.5510  -32.6000   25.8910 C   0  0  0  0  0  1  0  0  0  0  0  0
  -25.6130  -33.9800   24.2440 N   0  0  0  0  0  0  0  0  0  0  0  0
  -25.9360  -35.0280   23.4750 C   0  0  0  0  0  0  0  0  0  0  0  0
  -26.5880  -34.9150   22.4330 O   0  0  0  0  0  0  0  0  0  0  0  0
  -25.0330  -34.1460   25.0540 H   0  0  0  0  0  0  0  0  0  0  0  0
  -24.1940  -36.8200   23.1650 C   0  0  0  0  0  1  0  0  0  0  0  0
  -25.4640  -36.4210   23.9340 C   0  0  0  0  0  3  0  0  0  0  0  0
  -27.6200  -37.3250   24.6880 C   0  0  0  0  0  1  0  0  0  0  0  0
  -26.4900  -37.4740   23.7740 N   0  0  0  0  0  0  0  0  0  0  0  0
  -26.0840  -38.3940   23.9220 H   0  0  0  0  0  0  0  0  0  0  0  0
  1 11  1  0
  1 51  1  0
  2  1  2  0
  3 15  1  0
  4  9  1  0
  5  6  1  0
  5  4  1  0
  7  6  1  0
  7 21  1  0
  7  8  1  0
  9  3  1  0
  9  8  1  0
 10  3  2  0
 11 12  2  0
 11 14  1  0
 12 16  1  0
 13 15  1  0
 14 13  2  0
 15 17  1  0
 16 13  1  0
 18 19  2  0
 19 38  1  0
 20 19  1  0
 20 23  1  0
 21 18  1  0
 21 22  1  0
 22 20  2  0
 23 24  1  0
 24 25  2  0
 26 29  1  0
 26 25  1  0
 27 26  2  0
 28 27  1  0
 28 23  2  0
 29 30  1  0
 30 31  1  0
 31 32  2  0
 33 32  1  0
 33 37  1  0
 34 33  2  0
 35 30  2  0
 35 34  1  0
 36 35  1  0
 38 39  1  0
 39 42  1  0
 39 41  1  0
 40 38  2  0
 43 44  1  0
 43 18  1  0
 45 43  1  0
 46 12  1  0
 47 46  1  0
 48 46  1  0
 51 50  1  6
 51 49  1  0
 52 53  1  0
 52 51  1  0
 54 65  2  0
 55 53  1  0
 55 60  1  0
 56 64  1  0
 56 66  1  0
 57 63  1  0
 57 59  1  0
 58 64  1  0
 59 60  2  0
 59 58  1  0
 61 55  2  0
 62 61  1  0
 62 57  2  0
 63 56  1  0
 64 54  1  0
 66 68  2  0
 67 66  1  0
 69 67  1  0
 70 79  2  0
 70 75  1  0
 71 67  1  0
 71 75  1  0
 72 71  1  0
 73 74  1  0
 73 72  1  0
 74 70  1  0
 75 76  2  0
 76 77  1  0
 78 77  2  0
 79 78  1  0
 80 54  1  0
 80 85  1  0
 80 81  1  0
 81 84  1  1
 81 82  1  0
 83 81  1  0
 85 88  1  0
 86 90  1  0
 86 85  1  0
 87 86  2  0
 90 89  1  0
 92 93  1  0
 92 90  1  0
 92 91  1  0
M  ISO  4   3 100  15 100  52 101  53 101
M  END
>  <TORSDO>  (19) 
F 19

>  <SCORE>  (19) 
-15.656

>  <name>  (19) 
18

>  <ligand_id>  (19) 
18

>  <original_smiles>  (19) 
[H]c1c([H])c([H])c2c(c1[H])C([H])([H])C([H])([H])C([H])([H])C2([H])N([H])C(=O)C1([H])N(C(=O)C([H])(N([H])C(=O)C([H])(N([H])C([H])([H])[H])C([H])([H])[H])C(C([H])([H])[H])(C([H])([H])[H])C([H])([H])[H])C([H])([H])c2c([H])c(OC([H])([H])C(C(=O)c3nc(N([H])C(=O)N4C([H])([H])C([H])([H])C([H])([H])C([H])(n5nc(-c6c([H])c([H])c(Oc7c([H])c([H])c(F)c([H])c7F)c([H])c6[H])c(C(=O)N([H])[H])c5N([H])[H])C4([H])[H])sc3N([H])[H])(C([H])([H])[H])C([H])([H])[H])c([H])c([H])c2C1([H])[H]

>  <smiles>  (19) 
[H]c1c([H])c([H])c2c(c1[H])C([H])([H])C([H])([H])C([H])([H])C2([H])N([H])C(=O)C1([H])N(C(=O)C([H])(N([H])C(=O)C([H])(N([H])C([H])([H])[H])C([H])([H])[H])C(C([H])([H])[H])(C([H])([H])[H])C([H])([H])[H])C([H])([H])c2c([H])c(OC([H])([H])C(C(=O)c3nc(N([H])C(=O)N4C([H])([H])C([H])([H])C([H])([H])C([H])(n5nc(-c6c([H])c([H])c(Oc7c([H])c([H])c(F)c([H])c7F)c([H])c6[H])c(C(=O)N([H])[H])c5N([H])[H])C4([H])[H])sc3N([H])[H])(C([H])([H])[H])C([H])([H])[H])c([H])c([H])c2C1([H])[H]

$$$$
19:0:0
     RDKit          3D

 97105  0  0  1  0  0  0  0  0999 V2000
  -28.6580  -21.3180   20.4950 C   0  0  0  0  0  0  0  0  0  0  0  0
  -28.3480  -23.9200   20.3380 C   0  0  0  0  0  0  0  0  0  0  0  0
  -28.9710  -22.5870   19.9750 N   0  0  0  0  0  0  0  0  0  0  0  0
  -27.6050  -21.2460   21.3330 N   0  0  0  0  0  4  0  0  0  0  0  0
  -27.4870  -23.9740   21.2280 O   0  0  0  0  0  0  0  0  0  0  0  0
  -29.6660  -22.5410   19.2470 H   0  0  0  0  0  0  0  0  0  0  0  0
  -27.2840  -20.3650   21.6980 H   0  0  0  0  0  0  0  0  0  0  0  0
  -27.1090  -22.0960   21.5860 H   0  0  0  0  0  0  0  0  0  0  0  0
  -30.6630  -14.8590   20.0800 C   0  0  0  0  0  0  0  0  0  0  0  0
  -30.4670  -12.5850   19.0440 C   0  0  0  0  0  2  0  0  0  0  0  0
  -29.4730  -12.6900   17.8650 C   0  0  0  0  0  2  0  0  0  0  0  0
  -28.0190  -12.5190   18.3540 C   0  0  0  0  0  2  0  0  0  0  0  0
  -27.7020  -13.3720   19.6090 C   0  0  0  0  0  3  0  0  0  0  0  0
  -28.8090  -13.2380   20.6810 C   0  0  0  0  0  2  0  0  0  0  0  0
  -30.0840  -13.6080   20.0450 N   0  0  0  0  0  0  0  0  0  0  0  0
  -31.8210  -15.0100   19.6730 O   0  0  0  0  0  0  0  0  0  0  0  0
  -29.3390  -19.9700   20.2560 C   0  0  0  0  0  0  0  0  0  0  0  0
  -30.6500  -19.5780   19.9760 C   0  0  0  0  0  0  0  0  0  0  0  0
  -29.8490  -17.3900   20.2750 C   0  0  0  0  0  0  0  0  0  0  0  0
  -30.9050  -18.1710   19.9760 N   0  0  0  0  0  0  0  0  0  0  0  0
  -29.8260  -15.9100   20.4190 N   0  0  0  0  0  0  0  0  0  0  0  0
  -28.4130  -18.4470   20.5030 S   0  0  0  0  0  0  0  0  0  0  0  0
  -28.9390  -15.5680   20.7540 H   0  0  0  0  0  0  0  0  0  0  0  0
  -25.3460  -13.9550   20.4380 C   0  0  0  0  0  0  0  0  0  0  0  0
  -24.2960  -13.1790   20.8420 C   0  0  0  0  0  0  0  0  0  0  0  0
  -24.7530  -11.8260   20.7680 C   0  0  0  0  0  0  0  0  0  0  0  0
  -26.3760  -13.0790   20.1460 N   0  0  0  0  0  0  0  0  0  0  0  0
  -26.0280  -11.7920   20.4040 N   0  0  0  0  0  0  0  0  0  0  0  0
  -24.0310  -10.5630   20.9650 C   0  0  0  0  0  0  0  0  0  0  0  0
  -24.4770   -9.5920   21.8910 C   0  0  0  0  0  3  0  0  0  0  0  0
  -23.7570   -8.3930   22.0730 C   0  0  0  0  0  3  0  0  0  0  0  0
  -22.5750   -8.1560   21.3330 C   0  0  0  0  0  0  0  0  0  0  0  0
  -22.1440   -9.1140   20.3960 C   0  0  0  0  0  3  0  0  0  0  0  0
  -22.8660  -10.3060   20.2110 C   0  0  0  0  0  3  0  0  0  0  0  0
  -21.8220   -7.0090   21.4330 O   0  0  0  0  0  0  0  0  0  0  0  0
  -21.7670   -6.2800   22.5920 C   0  0  0  0  0  0  0  0  0  0  0  0
  -21.2980   -6.8370   23.8030 C   0  0  0  0  0  3  0  0  0  0  0  0
  -21.1920   -6.0340   24.9550 C   0  0  0  0  0  3  0  0  0  0  0  0
  -21.5410   -4.6710   24.8970 C   0  0  0  0  0  0  0  0  0  0  0  0
  -22.0020   -4.1110   23.6930 C   0  0  0  0  0  3  0  0  0  0  0  0
  -22.1090   -4.9120   22.5410 C   0  0  0  0  0  0  0  0  0  0  0  0
  -22.5330   -4.3600   21.3780 F   0  0  0  0  0  0  0  0  0  0  0  0
  -21.4330   -3.8970   26.0030 F   0  0  0  0  0  0  0  0  0  0  0  0
  -22.9090  -13.6490   21.1800 C   0  0  0  0  0  0  0  0  0  0  0  0
  -22.2150  -12.9360   22.0580 N   0  0  0  0  0  0  0  0  0  0  0  0
  -22.4530  -14.6870   20.7030 O   0  0  0  0  0  0  0  0  0  0  0  0
  -22.5980  -12.0960   22.4650 H   0  0  0  0  0  0  0  0  0  0  0  0
  -21.2850  -13.2280   22.3240 H   0  0  0  0  0  0  0  0  0  0  0  0
  -25.5050  -15.3290   20.2720 N   0  0  0  0  0  0  0  0  0  0  0  0
  -24.7320  -15.9740   20.3960 H   0  0  0  0  0  0  0  0  0  0  0  0
  -26.3000  -15.7490   19.8100 H   0  0  0  0  0  0  0  0  0  0  0  0
  -31.7390  -20.4200   19.7270 N   0  0  0  0  0  0  0  0  0  0  0  0
  -31.7360  -21.3590   20.1030 H   0  0  0  0  0  0  0  0  0  0  0  0
  -32.6620  -19.9960   19.7730 H   0  0  0  0  0  0  0  0  0  0  0  0
  -30.2500  -25.3410   19.3060 C   0  0  0  0  0  1  0  0  0  0  0  0
  -28.7330  -25.2740   19.5670 C   0  0  0  0  0  3  0  0  0  0  0  0
  -28.4730  -26.5800   20.2630 O   0  0  0  0  0  0  0  0  0  0  0  0
  -24.6310  -31.9180   23.2420 C   0  0  0  0  0  0  0  0  0  0  0  0
  -27.3220  -27.3880   20.1610 C   0  0  0  0  0  0  0  0  0  0  0  0
  -23.4540  -30.5120   21.5840 C   0  0  0  0  0  3  0  0  0  0  0  0
  -24.9320  -28.9780   20.1520 C   0  0  0  0  0  0  0  0  0  0  0  0
  -25.9880  -30.8560   21.4190 C   0  0  0  0  0  2  0  0  0  0  0  0
  -26.0870  -29.4800   20.7610 C   0  0  0  0  0  0  0  0  0  0  0  0
  -27.2790  -28.6930   20.7570 C   0  0  0  0  0  3  0  0  0  0  0  0
  -26.1430  -26.9410   19.5280 C   0  0  0  0  0  3  0  0  0  0  0  0
  -24.9630  -27.7190   19.5280 C   0  0  0  0  0  3  0  0  0  0  0  0
  -23.6820  -29.8380   20.2020 C   0  0  0  0  0  2  0  0  0  0  0  0
  -24.7080  -31.1150   22.1370 N   0  0  0  0  0  0  0  0  0  0  0  0
  -23.5420  -32.1800   23.7700 O   0  0  0  0  0  0  0  0  0  0  0  0
  -22.7940  -29.4870   22.5400 C   0  0  0  0  0  0  0  0  0  0  0  0
  -21.4690  -29.3020   22.4100 N   0  0  0  0  0  0  0  0  0  0  0  0
  -23.4760  -28.8630   23.3580 O   0  0  0  0  0  0  0  0  0  0  0  0
  -20.9770  -29.8600   21.7250 H   0  0  0  0  0  0  0  0  0  0  0  0
  -18.1010  -28.0760   22.8980 C   0  0  0  0  0  0  0  0  0  0  0  0
  -20.6560  -28.3510   23.1710 C   0  0  0  0  0  3  0  0  0  0  0  0
  -20.7670  -26.9260   22.5820 C   0  0  0  0  0  2  0  0  0  0  0  0
  -19.6690  -26.6050   21.5630 C   0  0  0  0  0  2  0  0  0  0  0  0
  -18.2860  -26.7350   22.2080 C   0  0  0  0  0  2  0  0  0  0  0  0
  -19.2140  -28.8420   23.3360 C   0  0  0  0  0  0  0  0  0  0  0  0
  -18.9850  -30.0980   23.9390 C   0  0  0  0  0  3  0  0  0  0  0  0
  -17.6760  -30.5870   24.1100 C   0  0  0  0  0  3  0  0  0  0  0  0
  -16.5770  -29.8200   23.6880 C   0  0  0  0  0  3  0  0  0  0  0  0
  -16.7900  -28.5650   23.0880 C   0  0  0  0  0  3  0  0  0  0  0  0
  -25.9010  -32.5640   23.8750 C   0  0  0  0  0  3  0  0  0  0  0  0
  -25.5800  -33.9630   24.1920 N   0  0  0  0  0  0  0  0  0  0  0  0
  -25.9170  -35.0130   23.4320 C   0  0  0  0  0  0  0  0  0  0  0  0
  -26.5950  -34.9070   22.4070 O   0  0  0  0  0  0  0  0  0  0  0  0
  -24.9740  -34.1180   24.9840 H   0  0  0  0  0  0  0  0  0  0  0  0
  -24.1870  -36.8020   23.0470 C   0  0  0  0  0  1  0  0  0  0  0  0
  -25.4200  -36.4040   23.8760 C   0  0  0  0  0  3  0  0  0  0  0  0
  -27.5350  -37.3030   24.7360 C   0  0  0  0  0  1  0  0  0  0  0  0
  -26.4500  -37.4580   23.7730 N   0  0  0  0  0  0  0  0  0  0  0  0
  -26.0380  -38.3780   23.9040 H   0  0  0  0  0  0  0  0  0  0  0  0
  -26.4050  -31.8050   25.1660 C   0  0  1  0  0  0  0  0  0  0  0  0
  -25.2980  -31.5700   26.2210 C   0  0  0  0  0  1  0  0  0  0  0  0
  -27.0020  -30.4280   24.7940 C   0  0  0  0  0  1  0  0  0  0  0  0
  -27.5440  -32.6120   25.8360 C   0  0  0  0  0  1  0  0  0  0  0  0
  1  4  2  0
  2  5  2  0
  3  2  1  0
  3  1  1  0
  4  8  1  0
  4  7  1  0
  6  3  1  0
  9 21  1  0
 10 15  1  0
 11 12  1  0
 11 10  1  0
 13 12  1  0
 13 27  1  0
 13 14  1  0
 15  9  1  0
 15 14  1  0
 16  9  2  0
 17  1  1  0
 17 22  1  0
 18 20  1  0
 18 17  2  0
 19 21  1  0
 19 22  1  0
 20 19  2  0
 21 23  1  0
 24 25  2  0
 25 44  1  0
 26 25  1  0
 26 29  1  0
 27 28  1  0
 27 24  1  0
 28 26  2  0
 29 30  1  0
 30 31  2  0
 32 35  1  0
 32 31  1  0
 33 32  2  0
 34 33  1  0
 34 29  2  0
 35 36  1  0
 36 37  1  0
 37 38  2  0
 39 38  1  0
 39 43  1  0
 40 39  2  0
 41 36  2  0
 41 40  1  0
 42 41  1  0
 44 45  1  0
 45 48  1  0
 45 47  1  0
 46 44  2  0
 49 50  1  0
 49 24  1  0
 51 49  1  0
 52 54  1  0
 52 18  1  0
 52 53  1  0
 56 55  1  0
 56 57  1  0
 56  2  1  0
 58 69  2  0
 59 57  1  0
 59 64  1  0
 60 68  1  0
 60 70  1  0
 61 67  1  0
 61 63  1  0
 62 68  1  0
 63 62  1  0
 64 63  2  0
 65 59  2  0
 66 65  1  0
 66 61  2  0
 67 60  1  0
 68 58  1  0
 70 72  2  0
 71 70  1  0
 73 71  1  0
 74 83  2  0
 74 79  1  0
 75 71  1  0
 75 79  1  0
 76 75  1  0
 77 78  1  0
 77 76  1  0
 78 74  1  0
 79 80  2  0
 80 81  1  0
 82 81  2  0
 83 82  1  0
 84 58  1  0
 84 85  1  0
 84 94  1  0
 85 88  1  0
 86 90  1  0
 86 85  1  0
 87 86  2  0
 90 89  1  0
 92 90  1  0
 92 93  1  0
 92 91  1  0
 94 97  1  1
 94 95  1  0
 96 94  1  0
M  ISO  4   9 100  21 100  56 101  57 101
M  END
>  <TORSDO>  (20) 
F 18

>  <SCORE>  (20) 
-14.856

>  <name>  (20) 
19

>  <ligand_id>  (20) 
19

>  <original_smiles>  (20) 
[H]c1c([H])c([H])c2c(c1[H])C([H])([H])C([H])([H])C([H])([H])C2([H])N([H])C(=O)C1([H])N(C(=O)C([H])(N([H])C(=O)C([H])(N([H])C([H])([H])[H])C([H])([H])[H])C(C([H])([H])[H])(C([H])([H])[H])C([H])([H])[H])C([H])([H])c2c([H])c(OC([H])(C(=O)N([H])C(c3sc(N([H])C(=O)N4C([H])([H])C([H])([H])C([H])([H])C([H])(n5nc(-c6c([H])c([H])c(Oc7c([H])c([H])c(F)c([H])c7F)c([H])c6[H])c(C(=O)N([H])[H])c5N([H])[H])C4([H])[H])nc3N([H])[H])=[N+]([H])[H])C([H])([H])[H])c([H])c([H])c2C1([H])[H]

>  <smiles>  (20) 
[H]c1c([H])c([H])c2c(c1[H])C([H])([H])C([H])([H])C([H])([H])C2([H])N([H])C(=O)C1([H])N(C(=O)C([H])(N([H])C(=O)C([H])(N([H])C([H])([H])[H])C([H])([H])[H])C(C([H])([H])[H])(C([H])([H])[H])C([H])([H])[H])C([H])([H])c2c([H])c(OC([H])(C(=O)N([H])C(c3sc(N([H])C(=O)N4C([H])([H])C([H])([H])C([H])([H])C([H])(n5nc(-c6c([H])c([H])c(Oc7c([H])c([H])c(F)c([H])c7F)c([H])c6[H])c(C(=O)N([H])[H])c5N([H])[H])C4([H])[H])nc3N([H])[H])=[N+]([H])[H])C([H])([H])[H])c([H])c([H])c2C1([H])[H]

$$$$
20:0:0
     RDKit          3D

 95103  0  0  1  0  0  0  0  0999 V2000
  -28.6770  -21.2660   19.7060 C   0  0  0  0  0  0  0  0  0  0  0  0
  -28.3370  -23.7710   19.8720 C   0  0  0  0  0  0  0  0  0  0  0  0
  -28.7710  -22.5150   20.3220 N   0  0  0  0  0  0  0  0  0  0  0  0
  -28.0510  -21.1500   18.6460 O   0  0  0  0  0  0  0  0  0  0  0  0
  -27.9080  -23.9510   18.7270 O   0  0  0  0  0  0  0  0  0  0  0  0
  -29.1780  -22.5080   21.2440 H   0  0  0  0  0  0  0  0  0  0  0  0
  -30.5330  -14.8050   20.3930 C   0  0  0  0  0  0  0  0  0  0  0  0
  -30.4100  -12.5160   19.3800 C   0  0  0  0  0  2  0  0  0  0  0  0
  -29.4790  -12.5690   18.1470 C   0  0  0  0  0  2  0  0  0  0  0  0
  -28.0050  -12.3850   18.5590 C   0  0  0  0  0  2  0  0  0  0  0  0
  -27.6080  -13.2770   19.7650 C   0  0  0  0  0  3  0  0  0  0  0  0
  -28.6520  -13.1830   20.9000 C   0  0  0  0  0  2  0  0  0  0  0  0
  -29.9540  -13.5560   20.3280 N   0  0  0  0  0  0  0  0  0  0  0  0
  -31.7250  -14.9480   20.1010 O   0  0  0  0  0  0  0  0  0  0  0  0
  -29.2890  -19.9290   20.2510 C   0  0  0  0  0  0  0  0  0  0  0  0
  -30.3990  -19.5430   21.0010 C   0  0  0  0  0  0  0  0  0  0  0  0
  -29.7500  -17.3510   20.4670 C   0  0  0  0  0  0  0  0  0  0  0  0
  -30.6290  -18.1360   21.1220 N   0  0  0  0  0  0  0  0  0  0  0  0
  -29.6580  -15.8710   20.5600 N   0  0  0  0  0  0  0  0  0  0  0  0
  -28.5320  -18.4070   19.6700 S   0  0  0  0  0  0  0  0  0  0  0  0
  -28.7090  -15.5460   20.6370 H   0  0  0  0  0  0  0  0  0  0  0  0
  -25.2070  -13.8720   20.4550 C   0  0  0  0  0  0  0  0  0  0  0  0
  -24.1390  -13.0980   20.8200 C   0  0  0  0  0  0  0  0  0  0  0  0
  -24.6080  -11.7490   20.8090 C   0  0  0  0  0  0  0  0  0  0  0  0
  -26.2570  -12.9930   20.2400 N   0  0  0  0  0  0  0  0  0  0  0  0
  -25.9020  -11.7130   20.5180 N   0  0  0  0  0  0  0  0  0  0  0  0
  -23.8850  -10.4860   21.0020 C   0  0  0  0  0  0  0  0  0  0  0  0
  -24.3030   -9.5320   21.9560 C   0  0  0  0  0  3  0  0  0  0  0  0
  -23.5800   -8.3340   22.1340 C   0  0  0  0  0  3  0  0  0  0  0  0
  -22.4230   -8.0810   21.3600 C   0  0  0  0  0  0  0  0  0  0  0  0
  -22.0240   -9.0220   20.3960 C   0  0  0  0  0  3  0  0  0  0  0  0
  -22.7490  -10.2120   20.2140 C   0  0  0  0  0  3  0  0  0  0  0  0
  -21.6720   -6.9330   21.4470 O   0  0  0  0  0  0  0  0  0  0  0  0
  -21.5980   -6.2080   22.6090 C   0  0  0  0  0  0  0  0  0  0  0  0
  -21.1270   -6.7760   23.8120 C   0  0  0  0  0  3  0  0  0  0  0  0
  -21.0000   -5.9760   24.9660 C   0  0  0  0  0  3  0  0  0  0  0  0
  -21.3350   -4.6110   24.9170 C   0  0  0  0  0  0  0  0  0  0  0  0
  -21.8010   -4.0420   23.7180 C   0  0  0  0  0  3  0  0  0  0  0  0
  -21.9290   -4.8370   22.5670 C   0  0  0  0  0  0  0  0  0  0  0  0
  -22.3570   -4.2810   21.4080 F   0  0  0  0  0  0  0  0  0  0  0  0
  -21.2070   -3.8400   26.0220 F   0  0  0  0  0  0  0  0  0  0  0  0
  -22.7370  -13.5740   21.0640 C   0  0  0  0  0  0  0  0  0  0  0  0
  -21.9950  -12.8840   21.9210 N   0  0  0  0  0  0  0  0  0  0  0  0
  -22.3060  -14.5940   20.5270 O   0  0  0  0  0  0  0  0  0  0  0  0
  -22.3580  -12.0610   22.3790 H   0  0  0  0  0  0  0  0  0  0  0  0
  -21.0540  -13.1860   22.1270 H   0  0  0  0  0  0  0  0  0  0  0  0
  -25.3670  -15.2410   20.2640 N   0  0  0  0  0  0  0  0  0  0  0  0
  -24.5800  -15.8780   20.3410 H   0  0  0  0  0  0  0  0  0  0  0  0
  -26.1850  -15.6780   19.8600 H   0  0  0  0  0  0  0  0  0  0  0  0
  -31.3090  -20.3970   21.6300 N   0  0  0  0  0  0  0  0  0  0  0  0
  -31.3740  -21.3730   21.3610 H   0  0  0  0  0  0  0  0  0  0  0  0
  -32.1800  -20.0150   21.9860 H   0  0  0  0  0  0  0  0  0  0  0  0
  -27.3240  -24.9310   21.9500 C   0  0  0  0  0  1  0  0  0  0  0  0
  -28.3600  -25.0670   20.8180 C   0  0  0  0  0  3  0  0  0  0  0  0
  -28.3550  -26.4450   20.1870 O   0  0  0  0  0  0  0  0  0  0  0  0
  -24.6160  -31.8830   23.2430 C   0  0  0  0  0  0  0  0  0  0  0  0
  -27.2310  -27.2980   20.1970 C   0  0  0  0  0  0  0  0  0  0  0  0
  -23.4150  -30.4820   21.6010 C   0  0  0  0  0  3  0  0  0  0  0  0
  -24.8700  -28.9290   20.1730 C   0  0  0  0  0  0  0  0  0  0  0  0
  -25.9550  -30.8010   21.4180 C   0  0  0  0  0  2  0  0  0  0  0  0
  -26.0380  -29.4180   20.7720 C   0  0  0  0  0  0  0  0  0  0  0  0
  -27.2240  -28.6170   20.7660 C   0  0  0  0  0  3  0  0  0  0  0  0
  -26.0420  -26.8690   19.5740 C   0  0  0  0  0  3  0  0  0  0  0  0
  -24.8760  -27.6630   19.5630 C   0  0  0  0  0  3  0  0  0  0  0  0
  -23.6320  -29.8060   20.2190 C   0  0  0  0  0  2  0  0  0  0  0  0
  -24.6810  -31.0750   22.1440 N   0  0  0  0  0  0  0  0  0  0  0  0
  -23.5310  -32.1560   23.7790 O   0  0  0  0  0  0  0  0  0  0  0  0
  -22.7560  -29.4650   22.5610 C   0  0  0  0  0  0  0  0  0  0  0  0
  -21.4290  -29.2870   22.4390 N   0  0  0  0  0  0  0  0  0  0  0  0
  -23.4360  -28.8370   23.3770 O   0  0  0  0  0  0  0  0  0  0  0  0
  -20.9390  -29.8460   21.7530 H   0  0  0  0  0  0  0  0  0  0  0  0
  -18.0540  -28.0870   22.9480 C   0  0  0  0  0  0  0  0  0  0  0  0
  -20.6130  -28.3470   23.2090 C   0  0  0  0  0  3  0  0  0  0  0  0
  -20.7140  -26.9180   22.6270 C   0  0  0  0  0  2  0  0  0  0  0  0
  -19.6080  -26.5990   21.6150 C   0  0  0  0  0  2  0  0  0  0  0  0
  -18.2280  -26.7400   22.2650 C   0  0  0  0  0  2  0  0  0  0  0  0
  -19.1730  -28.8480   23.3750 C   0  0  0  0  0  0  0  0  0  0  0  0
  -18.9540  -30.1070   23.9730 C   0  0  0  0  0  3  0  0  0  0  0  0
  -17.6500  -30.6050   24.1500 C   0  0  0  0  0  3  0  0  0  0  0  0
  -16.5450  -29.8420   23.7350 C   0  0  0  0  0  3  0  0  0  0  0  0
  -16.7470  -28.5850   23.1390 C   0  0  0  0  0  3  0  0  0  0  0  0
  -25.8960  -32.5170   23.8680 C   0  0  0  0  0  3  0  0  0  0  0  0
  -25.5870  -33.9180   24.1890 N   0  0  0  0  0  0  0  0  0  0  0  0
  -25.9210  -34.9680   23.4260 C   0  0  0  0  0  0  0  0  0  0  0  0
  -26.5910  -34.8590   22.3950 O   0  0  0  0  0  0  0  0  0  0  0  0
  -24.9940  -34.0790   24.9910 H   0  0  0  0  0  0  0  0  0  0  0  0
  -24.1960  -36.7640   23.0600 C   0  0  0  0  0  1  0  0  0  0  0  0
  -25.4350  -36.3600   23.8750 C   0  0  0  0  0  3  0  0  0  0  0  0
  -27.5680  -37.2470   24.7100 C   0  0  0  0  0  1  0  0  0  0  0  0
  -26.4690  -37.4110   23.7590 N   0  0  0  0  0  0  0  0  0  0  0  0
  -26.0640  -38.3330   23.8980 H   0  0  0  0  0  0  0  0  0  0  0  0
  -26.4040  -31.7560   25.1540 C   0  0  1  0  0  0  0  0  0  0  0  0
  -25.3050  -31.5320   26.2190 C   0  0  0  0  0  1  0  0  0  0  0  0
  -26.9850  -30.3730   24.7790 C   0  0  0  0  0  1  0  0  0  0  0  0
  -27.5530  -32.5520   25.8150 C   0  0  0  0  0  1  0  0  0  0  0  0
  1 15  1  0
  1  3  1  0
  2  3  1  0
  2 54  1  0
  3  6  1  0
  4  1  2  0
  5  2  2  0
  7 19  1  0
  8 13  1  0
  9 10  1  0
  9  8  1  0
 11 10  1  0
 11 25  1  0
 11 12  1  0
 13  7  1  0
 13 12  1  0
 14  7  2  0
 15 16  2  0
 16 18  1  0
 16 50  1  0
 17 19  1  0
 17 18  2  0
 19 21  1  0
 20 15  1  0
 20 17  1  0
 22 23  2  0
 23 42  1  0
 24 23  1  0
 24 27  1  0
 25 22  1  0
 25 26  1  0
 26 24  2  0
 27 28  1  0
 28 29  2  0
 30 33  1  0
 30 29  1  0
 31 30  2  0
 32 31  1  0
 32 27  2  0
 33 34  1  0
 34 35  1  0
 35 36  2  0
 37 36  1  0
 37 41  1  0
 38 37  2  0
 39 34  2  0
 39 38  1  0
 40 39  1  0
 42 43  1  0
 43 46  1  0
 43 45  1  0
 44 42  2  0
 47 48  1  0
 47 22  1  0
 49 47  1  0
 50 52  1  0
 51 50  1  0
 54 53  1  0
 55 57  1  0
 55 54  1  0
 56 67  2  0
 57 62  1  0
 58 66  1  0
 58 68  1  0
 59 65  1  0
 59 61  1  0
 60 66  1  0
 61 60  1  0
 62 61  2  0
 63 57  2  0
 64 63  1  0
 64 59  2  0
 65 58  1  0
 66 56  1  0
 68 70  2  0
 69 68  1  0
 71 69  1  0
 72 81  2  0
 72 77  1  0
 73 69  1  0
 73 77  1  0
 74 73  1  0
 75 76  1  0
 75 74  1  0
 76 72  1  0
 77 78  2  0
 78 79  1  0
 80 79  2  0
 81 80  1  0
 82 56  1  0
 82 83  1  0
 82 92  1  0
 83 86  1  0
 84 88  1  0
 84 83  1  0
 85 84  2  0
 88 87  1  0
 90 88  1  0
 90 91  1  0
 90 89  1  0
 92 95  1  1
 92 93  1  0
 94 92  1  0
M  ISO  4   7 100  19 100  54 101  55 101
M  END
>  <TORSDO>  (21) 
F 18

>  <SCORE>  (21) 
-15.062

>  <name>  (21) 
20

>  <ligand_id>  (21) 
20

>  <original_smiles>  (21) 
[H]c1c([H])c([H])c2c(c1[H])C([H])([H])C([H])([H])C([H])([H])C2([H])N([H])C(=O)C1([H])N(C(=O)C([H])(N([H])C(=O)C([H])(N([H])C([H])([H])[H])C([H])([H])[H])C(C([H])([H])[H])(C([H])([H])[H])C([H])([H])[H])C([H])([H])c2c([H])c(OC([H])(C(=O)N([H])C(=O)c3sc(N([H])C(=O)N4C([H])([H])C([H])([H])C([H])([H])C([H])(n5nc(-c6c([H])c([H])c(Oc7c([H])c([H])c(F)c([H])c7F)c([H])c6[H])c(C(=O)N([H])[H])c5N([H])[H])C4([H])[H])nc3N([H])[H])C([H])([H])[H])c([H])c([H])c2C1([H])[H]

>  <smiles>  (21) 
[H]c1c([H])c([H])c2c(c1[H])C([H])([H])C([H])([H])C([H])([H])C2([H])N([H])C(=O)C1([H])N(C(=O)C([H])(N([H])C(=O)C([H])(N([H])C([H])([H])[H])C([H])([H])[H])C(C([H])([H])[H])(C([H])([H])[H])C([H])([H])[H])C([H])([H])c2c([H])c(OC([H])(C(=O)N([H])C(=O)c3sc(N([H])C(=O)N4C([H])([H])C([H])([H])C([H])([H])C([H])(n5nc(-c6c([H])c([H])c(Oc7c([H])c([H])c(F)c([H])c7F)c([H])c6[H])c(C(=O)N([H])[H])c5N([H])[H])C4([H])[H])nc3N([H])[H])C([H])([H])[H])c([H])c([H])c2C1([H])[H]

$$$$
21:0:0
     RDKit          3D

 91 99  0  0  1  0  0  0  0  0999 V2000
  -28.7130  -22.1730   20.4570 C   0  0  0  0  0  2  0  0  0  0  0  0
  -29.0010  -21.0210   18.2360 C   0  0  0  0  0  1  0  0  0  0  0  0
  -29.2730  -20.9930   19.6740 N   0  0  0  0  0  0  0  0  0  0  0  0
  -30.6220  -14.7910   19.9920 C   0  0  0  0  0  0  0  0  0  0  0  0
  -30.3870  -12.5330   18.9360 C   0  0  0  0  0  2  0  0  0  0  0  0
  -29.3680  -12.6400   17.7790 C   0  0  0  0  0  2  0  0  0  0  0  0
  -27.9180  -12.4830   18.2850 C   0  0  0  0  0  2  0  0  0  0  0  0
  -27.6320  -13.3060   19.5690 C   0  0  0  0  0  3  0  0  0  0  0  0
  -28.7670  -13.1650   20.6050 C   0  0  0  0  0  2  0  0  0  0  0  0
  -30.0160  -13.5540   19.9370 N   0  0  0  0  0  0  0  0  0  0  0  0
  -31.8120  -14.9130   19.6760 O   0  0  0  0  0  0  0  0  0  0  0  0
  -30.1410  -19.5410   21.5210 C   0  0  0  0  0  3  0  0  0  0  0  0
  -29.6350  -19.6900   20.2550 C   0  0  0  0  0  0  0  0  0  0  0  0
  -30.0070  -17.3180   20.3710 C   0  0  0  0  0  0  0  0  0  0  0  0
  -29.5490  -18.3850   19.6300 N   0  0  0  0  0  0  0  0  0  0  0  0
  -29.7830  -15.8890   20.0760 N   0  0  0  0  0  0  0  0  0  0  0  0
  -30.5670  -17.8810   21.9410 S   0  0  0  0  0  0  0  0  0  0  0  0
  -28.8140  -15.6240   20.1160 H   0  0  0  0  0  0  0  0  0  0  0  0
  -25.2940  -13.8720   20.4600 C   0  0  0  0  0  0  0  0  0  0  0  0
  -24.2550  -13.0890   20.8780 C   0  0  0  0  0  0  0  0  0  0  0  0
  -24.7140  -11.7390   20.7840 C   0  0  0  0  0  0  0  0  0  0  0  0
  -26.3220  -13.0020   20.1350 N   0  0  0  0  0  0  0  0  0  0  0  0
  -25.9850  -11.7120   20.3910 N   0  0  0  0  0  0  0  0  0  0  0  0
  -23.9970  -10.4720   20.9790 C   0  0  0  0  0  0  0  0  0  0  0  0
  -24.4600   -9.4990   21.8910 C   0  0  0  0  0  3  0  0  0  0  0  0
  -23.7410   -8.2980   22.0820 C   0  0  0  0  0  3  0  0  0  0  0  0
  -22.5490   -8.0620   21.3580 C   0  0  0  0  0  0  0  0  0  0  0  0
  -22.1050   -9.0250   20.4310 C   0  0  0  0  0  3  0  0  0  0  0  0
  -22.8250  -10.2170   20.2400 C   0  0  0  0  0  3  0  0  0  0  0  0
  -21.8010   -6.9130   21.4550 O   0  0  0  0  0  0  0  0  0  0  0  0
  -21.7490   -6.1870   22.6180 C   0  0  0  0  0  0  0  0  0  0  0  0
  -21.3060   -6.7510   23.8320 C   0  0  0  0  0  3  0  0  0  0  0  0
  -21.2050   -5.9470   24.9840 C   0  0  0  0  0  3  0  0  0  0  0  0
  -21.5350   -4.5800   24.9220 C   0  0  0  0  0  0  0  0  0  0  0  0
  -21.9750   -4.0170   23.7150 C   0  0  0  0  0  3  0  0  0  0  0  0
  -22.0800   -4.8170   22.5620 C   0  0  0  0  0  0  0  0  0  0  0  0
  -22.4800   -4.2630   21.3940 F   0  0  0  0  0  0  0  0  0  0  0  0
  -21.4330   -3.8080   26.0310 F   0  0  0  0  0  0  0  0  0  0  0  0
  -22.8760  -13.5590   21.2440 C   0  0  0  0  0  0  0  0  0  0  0  0
  -22.2030  -12.8450   22.1400 N   0  0  0  0  0  0  0  0  0  0  0  0
  -22.4110  -14.5960   20.7750 O   0  0  0  0  0  0  0  0  0  0  0  0
  -22.5990  -12.0100   22.5460 H   0  0  0  0  0  0  0  0  0  0  0  0
  -21.2800  -13.1430   22.4240 H   0  0  0  0  0  0  0  0  0  0  0  0
  -25.4430  -15.2470   20.3010 N   0  0  0  0  0  0  0  0  0  0  0  0
  -24.6690  -15.8840   20.4440 H   0  0  0  0  0  0  0  0  0  0  0  0
  -26.2260  -15.6890   19.8390 H   0  0  0  0  0  0  0  0  0  0  0  0
  -29.1310  -23.7120   20.1150 C   0  0  0  0  0  3  0  0  0  0  0  0
  -30.3930  -23.8840   20.7450 O   0  0  0  0  0  0  0  0  0  0  0  0
  -30.9990  -23.2620   20.3530 H   0  0  0  0  0  0  0  0  0  0  0  0
  -28.1680  -24.9200   20.6420 C   0  0  0  0  0  2  0  0  0  0  0  0
  -28.3800  -26.3720   20.2680 O   0  0  0  0  0  0  0  0  0  0  0  0
  -24.6120  -31.8800   23.2240 C   0  0  0  0  0  0  0  0  0  0  0  0
  -27.2770  -27.2630   20.2220 C   0  0  0  0  0  0  0  0  0  0  0  0
  -23.4320  -30.4740   21.5700 C   0  0  0  0  0  3  0  0  0  0  0  0
  -24.9060  -28.9040   20.1720 C   0  0  0  0  0  0  0  0  0  0  0  0
  -25.9750  -30.7810   21.4220 C   0  0  0  0  0  2  0  0  0  0  0  0
  -26.0710  -29.3930   20.7800 C   0  0  0  0  0  0  0  0  0  0  0  0
  -27.2570  -28.5860   20.7890 C   0  0  0  0  0  3  0  0  0  0  0  0
  -26.0920  -26.8530   19.5700 C   0  0  0  0  0  3  0  0  0  0  0  0
  -24.9260  -27.6440   19.5510 C   0  0  0  0  0  3  0  0  0  0  0  0
  -23.6700  -29.7860   20.1990 C   0  0  0  0  0  2  0  0  0  0  0  0
  -24.6910  -31.0640   22.1300 N   0  0  0  0  0  0  0  0  0  0  0  0
  -23.5240  -32.1550   23.7510 O   0  0  0  0  0  0  0  0  0  0  0  0
  -22.7580  -29.4630   22.5310 C   0  0  0  0  0  0  0  0  0  0  0  0
  -21.4300  -29.2980   22.4110 N   0  0  0  0  0  0  0  0  0  0  0  0
  -23.4330  -28.8350   23.3500 O   0  0  0  0  0  0  0  0  0  0  0  0
  -20.9420  -29.8690   21.7360 H   0  0  0  0  0  0  0  0  0  0  0  0
  -18.0410  -28.1360   22.9280 C   0  0  0  0  0  0  0  0  0  0  0  0
  -20.6030  -28.3650   23.1820 C   0  0  0  0  0  3  0  0  0  0  0  0
  -20.6820  -26.9350   22.5980 C   0  0  0  0  0  2  0  0  0  0  0  0
  -19.5700  -26.6300   21.5880 C   0  0  0  0  0  2  0  0  0  0  0  0
  -18.1960  -26.7870   22.2450 C   0  0  0  0  0  2  0  0  0  0  0  0
  -19.1710  -28.8840   23.3530 C   0  0  0  0  0  0  0  0  0  0  0  0
  -18.9710  -30.1430   23.9610 C   0  0  0  0  0  3  0  0  0  0  0  0
  -17.6740  -30.6540   24.1470 C   0  0  0  0  0  3  0  0  0  0  0  0
  -16.5580  -29.9080   23.7300 C   0  0  0  0  0  3  0  0  0  0  0  0
  -16.7420  -28.6500   23.1270 C   0  0  0  0  0  3  0  0  0  0  0  0
  -25.8830  -32.5230   23.8560 C   0  0  0  0  0  3  0  0  0  0  0  0
  -26.3790  -31.7670   25.1490 C   0  0  1  0  0  0  0  0  0  0  0  0
  -25.2720  -31.5410   26.2070 C   0  0  0  0  0  1  0  0  0  0  0  0
  -26.9670  -30.3830   24.7890 C   0  0  0  0  0  1  0  0  0  0  0  0
  -27.5120  -32.5750   25.8240 C   0  0  0  0  0  1  0  0  0  0  0  0
  -25.5600  -33.9210   24.1750 N   0  0  0  0  0  0  0  0  0  0  0  0
  -25.9000  -34.9790   23.4220 C   0  0  0  0  0  0  0  0  0  0  0  0
  -26.5870  -34.8760   22.4010 O   0  0  0  0  0  0  0  0  0  0  0  0
  -24.9300  -34.0660   24.9500 H   0  0  0  0  0  0  0  0  0  0  0  0
  -24.1710  -36.7750   23.0300 C   0  0  0  0  0  1  0  0  0  0  0  0
  -25.3990  -36.3680   23.8650 C   0  0  0  0  0  3  0  0  0  0  0  0
  -27.5230  -37.2590   24.7310 C   0  0  0  0  0  1  0  0  0  0  0  0
  -26.4300  -37.4280   23.7760 N   0  0  0  0  0  0  0  0  0  0  0  0
  -26.0170  -38.3450   23.9240 H   0  0  0  0  0  0  0  0  0  0  0  0
  2  3  1  0
  3 13  1  0
  3  1  1  0
  4 16  1  0
  5 10  1  0
  6  7  1  0
  6  5  1  0
  8  7  1  0
  8 22  1  0
  8  9  1  0
 10  4  1  0
 10  9  1  0
 11  4  2  0
 12 17  1  0
 13 12  2  0
 14 17  1  0
 15 13  1  0
 15 14  2  0
 16 18  1  0
 16 14  1  0
 19 20  2  0
 20 39  1  0
 21 20  1  0
 21 24  1  0
 22 23  1  0
 22 19  1  0
 23 21  2  0
 24 25  1  0
 25 26  2  0
 27 30  1  0
 27 26  1  0
 28 27  2  0
 29 28  1  0
 29 24  2  0
 30 31  1  0
 31 32  1  0
 32 33  2  0
 34 33  1  0
 34 38  1  0
 35 34  2  0
 36 31  2  0
 36 35  1  0
 37 36  1  0
 39 40  1  0
 40 43  1  0
 40 42  1  0
 41 39  2  0
 44 45  1  0
 44 19  1  0
 46 44  1  0
 47  1  1  0
 47 50  1  0
 47 48  1  0
 49 48  1  0
 51 50  1  0
 52 63  2  0
 53 51  1  0
 53 58  1  0
 54 62  1  0
 54 64  1  0
 55 61  1  0
 55 57  1  0
 56 62  1  0
 57 58  2  0
 57 56  1  0
 59 53  2  0
 60 59  1  0
 60 55  2  0
 61 54  1  0
 62 52  1  0
 64 66  2  0
 65 64  1  0
 67 65  1  0
 68 77  2  0
 68 73  1  0
 69 65  1  0
 69 73  1  0
 70 69  1  0
 71 72  1  0
 71 70  1  0
 72 68  1  0
 73 74  2  0
 74 75  1  0
 76 75  2  0
 77 76  1  0
 78 52  1  0
 78 83  1  0
 78 79  1  0
 79 82  1  1
 79 80  1  0
 81 79  1  0
 83 86  1  0
 84 88  1  0
 84 83  1  0
 85 84  2  0
 88 87  1  0
 90 88  1  0
 90 91  1  0
 90 89  1  0
M  ISO  4   4 100  16 100  50 101  51 101
M  END
>  <TORSDO>  (22) 
F 20

>  <SCORE>  (22) 
-13.740

>  <name>  (22) 
21

>  <ligand_id>  (22) 
21

>  <original_smiles>  (22) 
[H]OC([H])(C([H])([H])Oc1c([H])c([H])c2c(c1[H])C([H])([H])N(C(=O)C([H])(N([H])C(=O)C([H])(N([H])C([H])([H])[H])C([H])([H])[H])C(C([H])([H])[H])(C([H])([H])[H])C([H])([H])[H])C([H])(C(=O)N([H])C1([H])c3c([H])c([H])c([H])c([H])c3C([H])([H])C([H])([H])C1([H])[H])C2([H])[H])C([H])([H])N(c1nc(N([H])C(=O)N2C([H])([H])C([H])([H])C([H])([H])C([H])(n3nc(-c4c([H])c([H])c(Oc5c([H])c([H])c(F)c([H])c5F)c([H])c4[H])c(C(=O)N([H])[H])c3N([H])[H])C2([H])[H])sc1[H])C([H])([H])[H]

>  <smiles>  (22) 
[H]OC([H])(C([H])([H])Oc1c([H])c([H])c2c(c1[H])C([H])([H])N(C(=O)C([H])(N([H])C(=O)C([H])(N([H])C([H])([H])[H])C([H])([H])[H])C(C([H])([H])[H])(C([H])([H])[H])C([H])([H])[H])C([H])(C(=O)N([H])C1([H])c3c([H])c([H])c([H])c([H])c3C([H])([H])C([H])([H])C1([H])[H])C2([H])[H])C([H])([H])N(c1nc(N([H])C(=O)N2C([H])([H])C([H])([H])C([H])([H])C([H])(n3nc(-c4c([H])c([H])c(Oc5c([H])c([H])c(F)c([H])c5F)c([H])c4[H])c(C(=O)N([H])[H])c3N([H])[H])C2([H])[H])sc1[H])C([H])([H])[H]

$$$$
22:0:0
     RDKit          3D

 95103  0  0  1  0  0  0  0  0999 V2000
  -30.2390  -21.4010   20.6460 C   0  0  0  0  0  0  0  0  0  0  0  0
  -31.2790  -22.0320   20.8700 O   0  0  0  0  0  0  0  0  0  0  0  0
  -30.5820  -14.7250   20.4210 C   0  0  0  0  0  0  0  0  0  0  0  0
  -30.3710  -12.4640   19.3920 C   0  0  0  0  0  2  0  0  0  0  0  0
  -29.4390  -12.5560   18.1650 C   0  0  0  0  0  2  0  0  0  0  0  0
  -27.9660  -12.3880   18.5880 C   0  0  0  0  0  2  0  0  0  0  0  0
  -27.5900  -13.2690   19.8090 C   0  0  0  0  0  3  0  0  0  0  0  0
  -28.6440  -13.1670   20.9340 C   0  0  0  0  0  2  0  0  0  0  0  0
  -29.9460  -13.5090   20.3460 N   0  0  0  0  0  0  0  0  0  0  0  0
  -31.7710  -14.8150   20.1030 O   0  0  0  0  0  0  0  0  0  0  0  0
  -30.3470  -19.8650   20.7000 C   0  0  0  0  0  0  0  0  0  0  0  0
  -31.4820  -19.1200   21.0170 C   0  0  0  0  0  0  0  0  0  0  0  0
  -30.1290  -17.2790   20.6490 C   0  0  0  0  0  0  0  0  0  0  0  0
  -31.3470  -17.7190   20.9770 N   0  0  0  0  0  0  0  0  0  0  0  0
  -29.7920  -15.8450   20.6090 N   0  0  0  0  0  0  0  0  0  0  0  0
  -29.0320  -18.6990   20.3670 S   0  0  0  0  0  0  0  0  0  0  0  0
  -28.8090  -15.6440   20.6900 H   0  0  0  0  0  0  0  0  0  0  0  0
  -25.1970  -13.8620   20.5210 C   0  0  0  0  0  0  0  0  0  0  0  0
  -24.1300  -13.0860   20.8880 C   0  0  0  0  0  0  0  0  0  0  0  0
  -24.5960  -11.7350   20.8610 C   0  0  0  0  0  0  0  0  0  0  0  0
  -26.2430  -12.9820   20.2920 N   0  0  0  0  0  0  0  0  0  0  0  0
  -25.8880  -11.6990   20.5600 N   0  0  0  0  0  0  0  0  0  0  0  0
  -23.8700  -10.4720   21.0480 C   0  0  0  0  0  0  0  0  0  0  0  0
  -24.3050   -9.5030   21.9790 C   0  0  0  0  0  3  0  0  0  0  0  0
  -23.5800   -8.3040   22.1550 C   0  0  0  0  0  3  0  0  0  0  0  0
  -22.4060   -8.0660   21.4000 C   0  0  0  0  0  0  0  0  0  0  0  0
  -21.9920   -9.0250   20.4590 C   0  0  0  0  0  3  0  0  0  0  0  0
  -22.7170  -10.2150   20.2810 C   0  0  0  0  0  3  0  0  0  0  0  0
  -21.6530   -6.9210   21.4860 O   0  0  0  0  0  0  0  0  0  0  0  0
  -21.6080   -6.1730   22.6340 C   0  0  0  0  0  0  0  0  0  0  0  0
  -21.1740   -6.7190   23.8620 C   0  0  0  0  0  3  0  0  0  0  0  0
  -21.0770   -5.8970   25.0030 C   0  0  0  0  0  3  0  0  0  0  0  0
  -21.4040   -4.5310   24.9180 C   0  0  0  0  0  0  0  0  0  0  0  0
  -21.8310   -3.9840   23.6940 C   0  0  0  0  0  3  0  0  0  0  0  0
  -21.9310   -4.8030   22.5560 C   0  0  0  0  0  0  0  0  0  0  0  0
  -22.3220   -4.2680   21.3750 F   0  0  0  0  0  0  0  0  0  0  0  0
  -21.3030   -3.7390   26.0110 F   0  0  0  0  0  0  0  0  0  0  0  0
  -22.7300  -13.5610   21.1480 C   0  0  0  0  0  0  0  0  0  0  0  0
  -21.9990  -12.8670   22.0120 N   0  0  0  0  0  0  0  0  0  0  0  0
  -22.2930  -14.5820   20.6200 O   0  0  0  0  0  0  0  0  0  0  0  0
  -22.3640  -12.0410   22.4630 H   0  0  0  0  0  0  0  0  0  0  0  0
  -21.0580  -13.1660   22.2300 H   0  0  0  0  0  0  0  0  0  0  0  0
  -25.3580  -15.2320   20.3390 N   0  0  0  0  0  0  0  0  0  0  0  0
  -24.5800  -15.8770   20.4340 H   0  0  0  0  0  0  0  0  0  0  0  0
  -26.1870  -15.6700   19.9640 H   0  0  0  0  0  0  0  0  0  0  0  0
  -32.7440  -19.6000   21.3760 N   0  0  0  0  0  0  0  0  0  0  0  0
  -32.9360  -20.5980   21.3820 H   0  0  0  0  0  0  0  0  0  0  0  0
  -33.5400  -18.9880   21.5200 H   0  0  0  0  0  0  0  0  0  0  0  0
  -28.9900  -22.3220   20.2950 C   0  0  1  0  0  0  0  0  0  0  0  0
  -28.6960  -22.1420   19.0070 F   0  0  0  0  0  0  0  0  0  0  0  0
  -27.9360  -21.9310   21.0130 F   0  0  0  0  0  0  0  0  0  0  0  0
  -29.2040  -23.9210   20.5240 C   0  0  0  0  0  3  0  0  0  0  0  0
  -29.4840  -24.1300   21.8150 F   0  0  0  0  0  0  0  0  0  0  0  0
  -28.0800  -24.9880   20.1150 C   0  0  0  0  0  2  0  0  0  0  0  0
  -28.3080  -26.4560   20.3050 O   0  0  0  0  0  0  0  0  0  0  0  0
  -24.6140  -31.9240   23.2850 C   0  0  0  0  0  0  0  0  0  0  0  0
  -27.2020  -27.3290   20.2410 C   0  0  0  0  0  0  0  0  0  0  0  0
  -23.4060  -30.5340   21.6410 C   0  0  0  0  0  3  0  0  0  0  0  0
  -24.8510  -28.9710   20.2210 C   0  0  0  0  0  0  0  0  0  0  0  0
  -25.9510  -30.8280   21.4700 C   0  0  0  0  0  2  0  0  0  0  0  0
  -26.0230  -29.4480   20.8220 C   0  0  0  0  0  0  0  0  0  0  0  0
  -27.2010  -28.6410   20.8200 C   0  0  0  0  0  3  0  0  0  0  0  0
  -26.0040  -26.9140   19.6120 C   0  0  0  0  0  3  0  0  0  0  0  0
  -24.8440  -27.7120   19.6060 C   0  0  0  0  0  3  0  0  0  0  0  0
  -23.6200  -29.8550   20.2640 C   0  0  0  0  0  2  0  0  0  0  0  0
  -24.6760  -31.1130   22.1890 N   0  0  0  0  0  0  0  0  0  0  0  0
  -23.5290  -32.2110   23.8150 O   0  0  0  0  0  0  0  0  0  0  0  0
  -22.7300  -29.5230   22.6010 C   0  0  0  0  0  0  0  0  0  0  0  0
  -21.4040  -29.3540   22.4680 N   0  0  0  0  0  0  0  0  0  0  0  0
  -23.4000  -28.8940   23.4240 O   0  0  0  0  0  0  0  0  0  0  0  0
  -20.9230  -29.9110   21.7760 H   0  0  0  0  0  0  0  0  0  0  0  0
  -18.0140  -28.1850   22.9580 C   0  0  0  0  0  0  0  0  0  0  0  0
  -20.5740  -28.4240   23.2360 C   0  0  0  0  0  3  0  0  0  0  0  0
  -20.6660  -26.9900   22.6620 C   0  0  0  0  0  2  0  0  0  0  0  0
  -19.5640  -26.6760   21.6450 C   0  0  0  0  0  2  0  0  0  0  0  0
  -18.1830  -26.8340   22.2840 C   0  0  0  0  0  2  0  0  0  0  0  0
  -19.1380  -28.9390   23.3900 C   0  0  0  0  0  0  0  0  0  0  0  0
  -18.9270  -30.2040   23.9800 C   0  0  0  0  0  3  0  0  0  0  0  0
  -17.6250  -30.7160   24.1410 C   0  0  0  0  0  3  0  0  0  0  0  0
  -16.5160  -29.9590   23.7240 C   0  0  0  0  0  3  0  0  0  0  0  0
  -16.7120  -28.6960   23.1390 C   0  0  0  0  0  3  0  0  0  0  0  0
  -25.8980  -32.5490   23.9120 C   0  0  0  0  0  3  0  0  0  0  0  0
  -26.3960  -31.7820   25.1990 C   0  0  1  0  0  0  0  0  0  0  0  0
  -25.2920  -31.5630   26.2600 C   0  0  0  0  0  1  0  0  0  0  0  0
  -26.9690  -30.3970   24.8230 C   0  0  0  0  0  1  0  0  0  0  0  0
  -27.5500  -32.5690   25.8630 C   0  0  0  0  0  1  0  0  0  0  0  0
  -25.6010  -33.9530   24.2310 N   0  0  0  0  0  0  0  0  0  0  0  0
  -25.9320  -34.9960   23.4580 C   0  0  0  0  0  0  0  0  0  0  0  0
  -26.5890  -34.8770   22.4210 O   0  0  0  0  0  0  0  0  0  0  0  0
  -25.0200  -34.1210   25.0400 H   0  0  0  0  0  0  0  0  0  0  0  0
  -24.2060  -36.7930   23.1110 C   0  0  0  0  0  1  0  0  0  0  0  0
  -25.4590  -36.3930   23.9060 C   0  0  0  0  0  3  0  0  0  0  0  0
  -27.6100  -37.2810   24.6910 C   0  0  0  0  0  1  0  0  0  0  0  0
  -26.4960  -37.4390   23.7600 N   0  0  0  0  0  0  0  0  0  0  0  0
  -26.0960  -38.3630   23.8940 H   0  0  0  0  0  0  0  0  0  0  0  0
  1 11  1  0
  1  2  2  0
  3 15  1  0
  4  9  1  0
  5  6  1  0
  5  4  1  0
  7  6  1  0
  7 21  1  0
  7  8  1  0
  9  3  1  0
  9  8  1  0
 10  3  2  0
 11 12  2  0
 12 46  1  0
 13 14  2  0
 14 12  1  0
 15 13  1  0
 15 17  1  0
 16 13  1  0
 16 11  1  0
 18 19  2  0
 19 38  1  0
 20 19  1  0
 20 23  1  0
 21 18  1  0
 21 22  1  0
 22 20  2  0
 23 24  1  0
 24 25  2  0
 26 29  1  0
 26 25  1  0
 27 26  2  0
 28 27  1  0
 28 23  2  0
 29 30  1  0
 30 31  1  0
 31 32  2  0
 33 32  1  0
 33 37  1  0
 34 33  2  0
 35 30  2  0
 35 34  1  0
 36 35  1  0
 38 39  1  0
 39 42  1  0
 39 41  1  0
 40 38  2  0
 43 44  1  0
 43 18  1  0
 45 43  1  0
 46 47  1  0
 46 48  1  0
 49 52  1  0
 49  1  1  0
 49 51  1  1
 50 49  1  0
 52 53  1  0
 54 55  1  0
 54 52  1  0
 56 67  2  0
 57 55  1  0
 57 62  1  0
 58 66  1  0
 58 68  1  0
 59 65  1  0
 59 61  1  0
 60 66  1  0
 61 60  1  0
 62 61  2  0
 63 57  2  0
 64 63  1  0
 64 59  2  0
 65 58  1  0
 66 56  1  0
 68 70  2  0
 69 68  1  0
 71 69  1  0
 72 81  2  0
 72 77  1  0
 73 69  1  0
 73 77  1  0
 74 73  1  0
 75 76  1  0
 75 74  1  0
 76 72  1  0
 77 78  2  0
 78 79  1  0
 80 79  2  0
 81 80  1  0
 82 56  1  0
 82 87  1  0
 82 83  1  0
 83 86  1  1
 83 84  1  0
 85 83  1  0
 87 90  1  0
 88 92  1  0
 88 87  1  0
 89 88  2  0
 92 91  1  0
 94 95  1  0
 94 92  1  0
 94 93  1  0
M  ISO  4   3 100  15 100  54 101  55 101
M  END
>  <TORSDO>  (23) 
F 20

>  <SCORE>  (23) 
-14.365

>  <name>  (23) 
22

>  <ligand_id>  (23) 
22

>  <original_smiles>  (23) 
[H]c1c([H])c([H])c2c(c1[H])C([H])([H])C([H])([H])C([H])([H])C2([H])N([H])C(=O)C1([H])N(C(=O)C([H])(N([H])C(=O)C([H])(N([H])C([H])([H])[H])C([H])([H])[H])C(C([H])([H])[H])(C([H])([H])[H])C([H])([H])[H])C([H])([H])c2c([H])c(OC([H])([H])C([H])(F)C(F)(F)C(=O)c3sc(N([H])C(=O)N4C([H])([H])C([H])([H])C([H])([H])C([H])(n5nc(-c6c([H])c([H])c(Oc7c([H])c([H])c(F)c([H])c7F)c([H])c6[H])c(C(=O)N([H])[H])c5N([H])[H])C4([H])[H])nc3N([H])[H])c([H])c([H])c2C1([H])[H]

>  <smiles>  (23) 
[H]c1c([H])c([H])c2c(c1[H])C([H])([H])C([H])([H])C([H])([H])C2([H])N([H])C(=O)C1([H])N(C(=O)C([H])(N([H])C(=O)C([H])(N([H])C([H])([H])[H])C([H])([H])[H])C(C([H])([H])[H])(C([H])([H])[H])C([H])([H])[H])C([H])([H])c2c([H])c(OC([H])([H])C([H])(F)C(F)(F)C(=O)c3sc(N([H])C(=O)N4C([H])([H])C([H])([H])C([H])([H])C([H])(n5nc(-c6c([H])c([H])c(Oc7c([H])c([H])c(F)c([H])c7F)c([H])c6[H])c(C(=O)N([H])[H])c5N([H])[H])C4([H])[H])nc3N([H])[H])c([H])c([H])c2C1([H])[H]

$$$$
23:0:0
     RDKit          3D

 97105  0  0  1  0  0  0  0  0999 V2000
  -29.6000  -22.8650   20.0130 C   0  0  0  0  0  0  0  0  0  0  0  0
  -29.7570  -21.7780   20.8140 N   0  0  0  0  0  0  0  0  0  0  0  0
  -29.7190  -22.7590   18.7900 O   0  0  0  0  0  0  0  0  0  0  0  0
  -29.5410  -21.9220   21.7900 H   0  0  0  0  0  0  0  0  0  0  0  0
  -30.7810  -25.0130   20.5060 C   0  0  0  0  0  1  0  0  0  0  0  0
  -29.0530  -24.2190   22.1390 C   0  0  0  0  0  1  0  0  0  0  0  0
  -29.4140  -24.3060   20.6410 C   0  0  2  0  0  0  0  0  0  0  0  0
  -28.3250  -25.1880   19.9080 C   0  0  0  0  0  2  0  0  0  0  0  0
  -28.3830  -26.6220   20.2010 O   0  0  0  0  0  0  0  0  0  0  0  0
  -24.6090  -31.8840   23.2500 C   0  0  0  0  0  0  0  0  0  0  0  0
  -27.2220  -27.3910   20.1520 C   0  0  0  0  0  0  0  0  0  0  0  0
  -23.3920  -30.4860   21.6130 C   0  0  0  0  0  3  0  0  0  0  0  0
  -24.8350  -28.9470   20.1730 C   0  0  0  0  0  0  0  0  0  0  0  0
  -25.9230  -30.8270   21.4060 C   0  0  0  0  0  2  0  0  0  0  0  0
  -26.0000  -29.4520   20.7610 C   0  0  0  0  0  0  0  0  0  0  0  0
  -27.1940  -28.6830   20.7450 C   0  0  0  0  0  3  0  0  0  0  0  0
  -26.0350  -26.9250   19.5390 C   0  0  0  0  0  3  0  0  0  0  0  0
  -24.8510  -27.6850   19.5580 C   0  0  0  0  0  3  0  0  0  0  0  0
  -23.5940  -29.8130   20.2310 C   0  0  0  0  0  2  0  0  0  0  0  0
  -24.6600  -31.0830   22.1470 N   0  0  0  0  0  0  0  0  0  0  0  0
  -23.5310  -32.1590   23.7970 O   0  0  0  0  0  0  0  0  0  0  0  0
  -22.7420  -29.4660   22.5770 C   0  0  0  0  0  0  0  0  0  0  0  0
  -21.4170  -29.2830   22.4550 N   0  0  0  0  0  0  0  0  0  0  0  0
  -23.4280  -28.8430   23.3900 O   0  0  0  0  0  0  0  0  0  0  0  0
  -20.9250  -29.8390   21.7700 H   0  0  0  0  0  0  0  0  0  0  0  0
  -18.0470  -28.0770   22.9570 C   0  0  0  0  0  0  0  0  0  0  0  0
  -20.6030  -28.3440   23.2280 C   0  0  0  0  0  3  0  0  0  0  0  0
  -20.7110  -26.9120   22.6550 C   0  0  0  0  0  2  0  0  0  0  0  0
  -19.6100  -26.5840   21.6420 C   0  0  0  0  0  2  0  0  0  0  0  0
  -18.2270  -26.7270   22.2840 C   0  0  0  0  0  2  0  0  0  0  0  0
  -19.1620  -28.8430   23.3850 C   0  0  0  0  0  0  0  0  0  0  0  0
  -18.9390  -30.1080   23.9730 C   0  0  0  0  0  3  0  0  0  0  0  0
  -17.6320  -30.6050   24.1360 C   0  0  0  0  0  3  0  0  0  0  0  0
  -16.5310  -29.8340   23.7260 C   0  0  0  0  0  3  0  0  0  0  0  0
  -16.7390  -28.5730   23.1410 C   0  0  0  0  0  3  0  0  0  0  0  0
  -25.9000  -32.5120   23.8640 C   0  0  0  0  0  3  0  0  0  0  0  0
  -26.4270  -31.7360   25.1330 C   0  0  1  0  0  0  0  0  0  0  0  0
  -25.3420  -31.4970   26.2090 C   0  0  0  0  0  1  0  0  0  0  0  0
  -27.0030  -30.3580   24.7300 C   0  0  0  0  0  1  0  0  0  0  0  0
  -27.5860  -32.5250   25.7870 C   0  0  0  0  0  1  0  0  0  0  0  0
  -25.5970  -33.9100   24.1990 N   0  0  0  0  0  0  0  0  0  0  0  0
  -25.9230  -34.9620   23.4380 C   0  0  0  0  0  0  0  0  0  0  0  0
  -26.5820  -34.8580   22.3980 O   0  0  0  0  0  0  0  0  0  0  0  0
  -25.0100  -34.0650   25.0060 H   0  0  0  0  0  0  0  0  0  0  0  0
  -24.1920  -36.7550   23.1010 C   0  0  0  0  0  1  0  0  0  0  0  0
  -25.4410  -36.3500   23.9010 C   0  0  0  0  0  3  0  0  0  0  0  0
  -27.5840  -37.2320   24.7100 C   0  0  0  0  0  1  0  0  0  0  0  0
  -26.4740  -37.4030   23.7780 N   0  0  0  0  0  0  0  0  0  0  0  0
  -26.0690  -38.3230   23.9330 H   0  0  0  0  0  0  0  0  0  0  0  0
  -31.6880  -20.5120   21.6540 C   0  0  0  0  0  1  0  0  0  0  0  0
  -30.6380  -20.6060   20.5320 C   0  0  0  0  0  3  0  0  0  0  0  0
  -30.6430  -14.5850   20.4460 C   0  0  0  0  0  0  0  0  0  0  0  0
  -30.3760  -12.3900   19.3350 C   0  0  0  0  0  2  0  0  0  0  0  0
  -29.4410  -12.5810   18.1230 C   0  0  0  0  0  2  0  0  0  0  0  0
  -27.9630  -12.4400   18.5420 C   0  0  0  0  0  2  0  0  0  0  0  0
  -27.6170  -13.2670   19.8090 C   0  0  0  0  0  3  0  0  0  0  0  0
  -28.6740  -13.0650   20.9210 C   0  0  0  0  0  2  0  0  0  0  0  0
  -29.9940  -13.3850   20.3560 N   0  0  0  0  0  0  0  0  0  0  0  0
  -31.7680  -14.7530   19.9700 O   0  0  0  0  0  0  0  0  0  0  0  0
  -30.0070  -19.2330   20.2000 C   0  0  0  0  0  0  0  0  0  0  0  0
  -29.2670  -18.9300   19.0710 C   0  0  0  0  0  0  0  0  0  0  0  0
  -29.8290  -16.9200   20.4080 C   0  0  0  0  0  0  0  0  0  0  0  0
  -30.2750  -18.0650   20.9720 N   0  0  0  0  0  0  0  0  0  0  0  0
  -29.9540  -15.6150   20.9980 N   0  0  0  0  0  0  0  0  0  0  0  0
  -28.9330  -17.2150   18.9230 S   0  0  0  0  0  0  0  0  0  0  0  0
  -29.1270  -15.3130   21.4870 H   0  0  0  0  0  0  0  0  0  0  0  0
  -25.2130  -13.8570   20.5080 C   0  0  0  0  0  0  0  0  0  0  0  0
  -24.1480  -13.0810   20.8770 C   0  0  0  0  0  0  0  0  0  0  0  0
  -24.6160  -11.7320   20.8530 C   0  0  0  0  0  0  0  0  0  0  0  0
  -26.2640  -12.9820   20.2850 N   0  0  0  0  0  0  0  0  0  0  0  0
  -25.9090  -11.6990   20.5510 N   0  0  0  0  0  0  0  0  0  0  0  0
  -23.8960  -10.4660   21.0450 C   0  0  0  0  0  0  0  0  0  0  0  0
  -24.3360   -9.4970   21.9730 C   0  0  0  0  0  3  0  0  0  0  0  0
  -23.6140   -8.2980   22.1550 C   0  0  0  0  0  3  0  0  0  0  0  0
  -22.4360   -8.0590   21.4070 C   0  0  0  0  0  0  0  0  0  0  0  0
  -22.0140   -9.0160   20.4680 C   0  0  0  0  0  3  0  0  0  0  0  0
  -22.7360  -10.2070   20.2850 C   0  0  0  0  0  3  0  0  0  0  0  0
  -21.6840   -6.9120   21.4980 O   0  0  0  0  0  0  0  0  0  0  0  0
  -21.6540   -6.1600   22.6440 C   0  0  0  0  0  0  0  0  0  0  0  0
  -21.2500   -6.7060   23.8830 C   0  0  0  0  0  3  0  0  0  0  0  0
  -21.1660   -5.8800   25.0220 C   0  0  0  0  0  3  0  0  0  0  0  0
  -21.4750   -4.5100   24.9240 C   0  0  0  0  0  0  0  0  0  0  0  0
  -21.8720   -3.9640   23.6910 C   0  0  0  0  0  3  0  0  0  0  0  0
  -21.9570   -4.7870   22.5540 C   0  0  0  0  0  0  0  0  0  0  0  0
  -22.3190   -4.2500   21.3630 F   0  0  0  0  0  0  0  0  0  0  0  0
  -21.3890   -3.7160   26.0160 F   0  0  0  0  0  0  0  0  0  0  0  0
  -22.7470  -13.5520   21.1400 C   0  0  0  0  0  0  0  0  0  0  0  0
  -22.0190  -12.8570   22.0060 N   0  0  0  0  0  0  0  0  0  0  0  0
  -22.3060  -14.5740   20.6130 O   0  0  0  0  0  0  0  0  0  0  0  0
  -22.3850  -12.0330   22.4570 H   0  0  0  0  0  0  0  0  0  0  0  0
  -21.0770  -13.1560   22.2210 H   0  0  0  0  0  0  0  0  0  0  0  0
  -25.3720  -15.2280   20.3220 N   0  0  0  0  0  0  0  0  0  0  0  0
  -24.6040  -15.8830   20.4250 H   0  0  0  0  0  0  0  0  0  0  0  0
  -26.2140  -15.6650   19.9720 H   0  0  0  0  0  0  0  0  0  0  0  0
  -28.8300  -19.7870   18.0670 N   0  0  0  0  0  0  0  0  0  0  0  0
  -29.0220  -20.7880   18.0800 H   0  0  0  0  0  0  0  0  0  0  0  0
  -28.3540  -19.4860   17.2200 H   0  0  0  0  0  0  0  0  0  0  0  0
  1  7  1  0
  1  2  1  0
  2  4  1  0
  3  1  2  0
  7  5  1  1
  7  6  1  0
  8  9  1  0
  8  7  1  0
 10 21  2  0
 11  9  1  0
 11 16  1  0
 12 20  1  0
 12 22  1  0
 13 19  1  0
 13 15  1  0
 14 20  1  0
 15 14  1  0
 16 15  2  0
 17 18  1  0
 17 11  2  0
 18 13  2  0
 19 12  1  0
 20 10  1  0
 22 24  2  0
 23 22  1  0
 25 23  1  0
 26 35  2  0
 26 31  1  0
 27 23  1  0
 27 31  1  0
 28 27  1  0
 29 30  1  0
 29 28  1  0
 30 26  1  0
 31 32  2  0
 32 33  1  0
 34 33  2  0
 35 34  1  0
 36 10  1  0
 36 41  1  0
 36 37  1  0
 37 40  1  1
 37 38  1  0
 39 37  1  0
 41 44  1  0
 42 46  1  0
 42 41  1  0
 43 42  2  0
 46 45  1  0
 48 46  1  0
 48 49  1  0
 48 47  1  0
 51  2  1  0
 51 50  1  0
 52 64  1  0
 53 58  1  0
 54 55  1  0
 54 53  1  0
 56 55  1  0
 56 70  1  0
 56 57  1  0
 58 52  1  0
 58 57  1  0
 59 52  2  0
 60 51  1  0
 60 63  1  0
 61 60  2  0
 62 63  2  0
 62 64  1  0
 64 66  1  0
 65 61  1  0
 65 62  1  0
 67 68  2  0
 68 87  1  0
 69 68  1  0
 69 72  1  0
 70 67  1  0
 70 71  1  0
 71 69  2  0
 72 73  1  0
 73 74  2  0
 75 78  1  0
 75 74  1  0
 76 75  2  0
 77 76  1  0
 77 72  2  0
 78 79  1  0
 79 80  1  0
 80 81  2  0
 82 81  1  0
 82 86  1  0
 83 82  2  0
 84 79  2  0
 84 83  1  0
 85 84  1  0
 87 88  1  0
 88 91  1  0
 88 90  1  0
 89 87  2  0
 92 93  1  0
 92 67  1  0
 94 92  1  0
 95 96  1  0
 95 61  1  0
 97 95  1  0
M  ISO  4   8 101   9 101  52 100  64 100
M  END
>  <TORSDO>  (24) 
F 20

>  <SCORE>  (24) 
-14.349

>  <name>  (24) 
23

>  <ligand_id>  (24) 
23

>  <original_smiles>  (24) 
[H]c1c([H])c([H])c2c(c1[H])C([H])([H])C([H])([H])C([H])([H])C2([H])N([H])C(=O)C1([H])N(C(=O)C([H])(N([H])C(=O)C([H])(N([H])C([H])([H])[H])C([H])([H])[H])C(C([H])([H])[H])(C([H])([H])[H])C([H])([H])[H])C([H])([H])c2c([H])c(OC([H])([H])C(C(=O)N([H])C([H])(c3nc(N([H])C(=O)N4C([H])([H])C([H])([H])C([H])([H])C([H])(n5nc(-c6c([H])c([H])c(Oc7c([H])c([H])c(F)c([H])c7F)c([H])c6[H])c(C(=O)N([H])[H])c5N([H])[H])C4([H])[H])sc3N([H])[H])C([H])([H])[H])(C([H])([H])[H])C([H])([H])[H])c([H])c([H])c2C1([H])[H]

>  <smiles>  (24) 
[H]c1c([H])c([H])c2c(c1[H])C([H])([H])C([H])([H])C([H])([H])C2([H])N([H])C(=O)C1([H])N(C(=O)C([H])(N([H])C(=O)C([H])(N([H])C([H])([H])[H])C([H])([H])[H])C(C([H])([H])[H])(C([H])([H])[H])C([H])([H])[H])C([H])([H])c2c([H])c(OC([H])([H])C(C(=O)N([H])C([H])(c3nc(N([H])C(=O)N4C([H])([H])C([H])([H])C([H])([H])C([H])(n5nc(-c6c([H])c([H])c(Oc7c([H])c([H])c(F)c([H])c7F)c([H])c6[H])c(C(=O)N([H])[H])c5N([H])[H])C4([H])[H])sc3N([H])[H])C([H])([H])[H])(C([H])([H])[H])C([H])([H])[H])c([H])c([H])c2C1([H])[H]

$$$$
24:0:0
     RDKit          3D

 94102  0  0  1  0  0  0  0  0999 V2000
  -28.8240  -20.9780   20.3070 N   0  0  0  0  0  4  0  0  0  0  0  0
  -27.8600  -20.6790   20.3810 H   0  0  0  0  0  0  0  0  0  0  0  0
  -30.6210  -14.8130   20.2990 C   0  0  0  0  0  0  0  0  0  0  0  0
  -30.3770  -12.5320   19.3140 C   0  0  0  0  0  2  0  0  0  0  0  0
  -29.4260  -12.5900   18.0990 C   0  0  0  0  0  2  0  0  0  0  0  0
  -27.9610  -12.4310   18.5500 C   0  0  0  0  0  2  0  0  0  0  0  0
  -27.6030  -13.3090   19.7810 C   0  0  0  0  0  3  0  0  0  0  0  0
  -28.6860  -13.2390   20.8820 C   0  0  0  0  0  2  0  0  0  0  0  0
  -29.9630  -13.5990   20.2570 N   0  0  0  0  0  0  0  0  0  0  0  0
  -31.8230  -14.8200   20.0250 O   0  0  0  0  0  0  0  0  0  0  0  0
  -31.4350  -17.7180   19.4820 C   0  0  0  0  0  3  0  0  0  0  0  0
  -31.8110  -19.0280   19.1440 C   0  0  0  0  0  0  0  0  0  0  0  0
  -30.9750  -20.1150   19.4470 C   0  0  0  0  0  0  0  0  0  0  0  0
  -30.2200  -17.4380   20.1490 C   0  0  0  0  0  0  0  0  0  0  0  0
  -29.7470  -19.8720   20.0990 C   0  0  0  0  0  0  0  0  0  0  0  0
  -29.3960  -18.5490   20.4200 N   0  0  0  0  0  0  0  0  0  0  0  0
  -29.8910  -16.0020   20.4520 N   0  0  0  0  0  0  0  0  0  0  0  0
  -32.9770  -19.2330   18.4820 F   0  0  0  0  0  0  0  0  0  0  0  0
  -31.3320  -21.3590   19.0390 F   0  0  0  0  0  0  0  0  0  0  0  0
  -28.9350  -15.8520   20.7260 H   0  0  0  0  0  0  0  0  0  0  0  0
  -25.2330  -13.8780   20.5720 C   0  0  0  0  0  0  0  0  0  0  0  0
  -24.1760  -13.0960   20.9490 C   0  0  0  0  0  0  0  0  0  0  0  0
  -24.6380  -11.7460   20.8880 C   0  0  0  0  0  0  0  0  0  0  0  0
  -26.2730  -13.0040   20.2990 N   0  0  0  0  0  0  0  0  0  0  0  0
  -25.9240  -11.7160   20.5530 N   0  0  0  0  0  0  0  0  0  0  0  0
  -23.9150  -10.4800   21.0680 C   0  0  0  0  0  0  0  0  0  0  0  0
  -24.3530   -9.5030   21.9890 C   0  0  0  0  0  3  0  0  0  0  0  0
  -23.6310   -8.3040   22.1610 C   0  0  0  0  0  3  0  0  0  0  0  0
  -22.4530   -8.0700   21.4100 C   0  0  0  0  0  0  0  0  0  0  0  0
  -22.0330   -9.0360   20.4790 C   0  0  0  0  0  3  0  0  0  0  0  0
  -22.7590  -10.2270   20.3060 C   0  0  0  0  0  3  0  0  0  0  0  0
  -21.6980   -6.9260   21.4930 O   0  0  0  0  0  0  0  0  0  0  0  0
  -21.6420   -6.1810   22.6420 C   0  0  0  0  0  0  0  0  0  0  0  0
  -21.1790   -6.7240   23.8610 C   0  0  0  0  0  3  0  0  0  0  0  0
  -21.0740   -5.9040   25.0030 C   0  0  0  0  0  3  0  0  0  0  0  0
  -21.4210   -4.5410   24.9260 C   0  0  0  0  0  0  0  0  0  0  0  0
  -21.8790   -3.9980   23.7130 C   0  0  0  0  0  3  0  0  0  0  0  0
  -21.9850   -4.8160   22.5720 C   0  0  0  0  0  0  0  0  0  0  0  0
  -22.4050   -4.2810   21.4010 F   0  0  0  0  0  0  0  0  0  0  0  0
  -21.3120   -3.7520   26.0200 F   0  0  0  0  0  0  0  0  0  0  0  0
  -22.7840  -13.5650   21.2510 C   0  0  0  0  0  0  0  0  0  0  0  0
  -22.0650  -12.8560   22.1120 N   0  0  0  0  0  0  0  0  0  0  0  0
  -22.3420  -14.6010   20.7550 O   0  0  0  0  0  0  0  0  0  0  0  0
  -22.4370  -12.0200   22.5390 H   0  0  0  0  0  0  0  0  0  0  0  0
  -21.1270  -13.1520   22.3460 H   0  0  0  0  0  0  0  0  0  0  0  0
  -25.3910  -15.2520   20.4160 N   0  0  0  0  0  0  0  0  0  0  0  0
  -24.6290  -15.9020   20.5770 H   0  0  0  0  0  0  0  0  0  0  0  0
  -26.2260  -15.7000   20.0610 H   0  0  0  0  0  0  0  0  0  0  0  0
  -30.3430  -22.4620   21.7680 C   0  0  0  0  0  1  0  0  0  0  0  0
  -29.0360  -22.3510   20.9560 C   0  0  0  0  0  0  0  0  0  0  0  0
  -28.7640  -23.7430   20.1380 C   0  0  0  0  0  0  0  0  0  0  0  0
  -29.0100  -23.8180   18.9290 O   0  0  0  0  0  0  0  0  0  0  0  0
  -28.1550  -25.0370   20.8780 C   0  0  0  0  0  2  0  0  0  0  0  0
  -28.3820  -26.4220   20.3280 O   0  0  0  0  0  0  0  0  0  0  0  0
  -24.5950  -31.9100   23.2630 C   0  0  0  0  0  0  0  0  0  0  0  0
  -27.2820  -27.3050   20.3000 C   0  0  0  0  0  0  0  0  0  0  0  0
  -23.4320  -30.4900   21.6120 C   0  0  0  0  0  3  0  0  0  0  0  0
  -24.9160  -28.9300   20.2250 C   0  0  0  0  0  0  0  0  0  0  0  0
  -25.9750  -30.8090   21.4780 C   0  0  0  0  0  2  0  0  0  0  0  0
  -26.0740  -29.4230   20.8420 C   0  0  0  0  0  0  0  0  0  0  0  0
  -27.2650  -28.6260   20.8630 C   0  0  0  0  0  3  0  0  0  0  0  0
  -26.1030  -26.8730   19.6590 C   0  0  0  0  0  3  0  0  0  0  0  0
  -24.9370  -27.6630   19.6200 C   0  0  0  0  0  3  0  0  0  0  0  0
  -23.6780  -29.8070   20.2400 C   0  0  0  0  0  2  0  0  0  0  0  0
  -24.6860  -31.0900   22.1740 N   0  0  0  0  0  0  0  0  0  0  0  0
  -23.5010  -32.1880   23.7750 O   0  0  0  0  0  0  0  0  0  0  0  0
  -22.7560  -29.4790   22.5690 C   0  0  0  0  0  0  0  0  0  0  0  0
  -21.4300  -29.2980   22.4240 N   0  0  0  0  0  0  0  0  0  0  0  0
  -23.4230  -28.8630   23.4030 O   0  0  0  0  0  0  0  0  0  0  0  0
  -20.9520  -29.8480   21.7250 H   0  0  0  0  0  0  0  0  0  0  0  0
  -18.0450  -28.1130   22.9020 C   0  0  0  0  0  0  0  0  0  0  0  0
  -20.6020  -28.3630   23.1880 C   0  0  0  0  0  3  0  0  0  0  0  0
  -20.7020  -26.9320   22.6100 C   0  0  0  0  0  2  0  0  0  0  0  0
  -19.6040  -26.6160   21.5890 C   0  0  0  0  0  2  0  0  0  0  0  0
  -18.2200  -26.7660   22.2250 C   0  0  0  0  0  2  0  0  0  0  0  0
  -19.1640  -28.8710   23.3390 C   0  0  0  0  0  0  0  0  0  0  0  0
  -18.9450  -30.1330   23.9340 C   0  0  0  0  0  3  0  0  0  0  0  0
  -17.6400  -30.6390   24.0950 C   0  0  0  0  0  3  0  0  0  0  0  0
  -16.5350  -29.8770   23.6740 C   0  0  0  0  0  3  0  0  0  0  0  0
  -16.7390  -28.6170   23.0830 C   0  0  0  0  0  3  0  0  0  0  0  0
  -25.8620  -32.5560   23.9040 C   0  0  0  0  0  3  0  0  0  0  0  0
  -26.3450  -31.8100   25.2100 C   0  0  1  0  0  0  0  0  0  0  0  0
  -25.2250  -31.5930   26.2540 C   0  0  0  0  0  1  0  0  0  0  0  0
  -26.9410  -30.4260   24.8630 C   0  0  0  0  0  1  0  0  0  0  0  0
  -27.4770  -32.6200   25.8870 C   0  0  0  0  0  1  0  0  0  0  0  0
  -25.5450  -33.9600   24.2030 N   0  0  0  0  0  0  0  0  0  0  0  0
  -25.8950  -35.0020   23.4350 C   0  0  0  0  0  0  0  0  0  0  0  0
  -26.5880  -34.8800   22.4220 O   0  0  0  0  0  0  0  0  0  0  0  0
  -24.9340  -34.1270   24.9900 H   0  0  0  0  0  0  0  0  0  0  0  0
  -24.1900  -36.7980   22.9950 C   0  0  0  0  0  1  0  0  0  0  0  0
  -25.3980  -36.3990   23.8580 C   0  0  0  0  0  3  0  0  0  0  0  0
  -27.5020  -37.2880   24.7590 C   0  0  0  0  0  1  0  0  0  0  0  0
  -26.4400  -37.4440   23.7700 N   0  0  0  0  0  0  0  0  0  0  0  0
  -26.0320  -38.3690   23.8830 H   0  0  0  0  0  0  0  0  0  0  0  0
  1  2  1  0
  1 50  2  0
  3 17  1  0
  4  9  1  0
  5  6  1  0
  5  4  1  0
  7  6  1  0
  7 24  1  0
  7  8  1  0
  9  3  1  0
  9  8  1  0
 10  3  2  0
 11 14  1  0
 12 13  1  0
 12 11  2  0
 13 15  2  0
 14 16  2  0
 14 17  1  0
 15  1  1  0
 15 16  1  0
 17 20  1  0
 18 12  1  0
 19 13  1  0
 21 22  2  0
 22 41  1  0
 23 22  1  0
 23 26  1  0
 24 25  1  0
 24 21  1  0
 25 23  2  0
 26 27  1  0
 27 28  2  0
 29 32  1  0
 29 28  1  0
 30 29  2  0
 31 30  1  0
 31 26  2  0
 32 33  1  0
 33 34  1  0
 34 35  2  0
 36 35  1  0
 36 40  1  0
 37 36  2  0
 38 33  2  0
 38 37  1  0
 39 38  1  0
 41 42  1  0
 42 45  1  0
 42 44  1  0
 43 41  2  0
 46 21  1  0
 46 47  1  0
 48 46  1  0
 50 49  1  0
 51 53  1  0
 51 50  1  0
 52 51  2  0
 54 53  1  0
 55 66  2  0
 56 54  1  0
 56 61  1  0
 57 65  1  0
 57 67  1  0
 58 64  1  0
 58 60  1  0
 59 65  1  0
 60 61  2  0
 60 59  1  0
 62 56  2  0
 63 62  1  0
 63 58  2  0
 64 57  1  0
 65 55  1  0
 67 69  2  0
 68 67  1  0
 70 68  1  0
 71 80  2  0
 71 76  1  0
 72 68  1  0
 72 76  1  0
 73 72  1  0
 74 75  1  0
 74 73  1  0
 75 71  1  0
 76 77  2  0
 77 78  1  0
 79 78  2  0
 80 79  1  0
 81 55  1  0
 81 86  1  0
 81 82  1  0
 82 85  1  1
 82 83  1  0
 84 82  1  0
 86 89  1  0
 87 91  1  0
 87 86  1  0
 88 87  2  0
 91 90  1  0
 93 91  1  0
 93 94  1  0
 93 92  1  0
M  ISO  4   3 100  17 100  53 101  54 101
M  END
>  <TORSDO>  (25) 
F 19

>  <SCORE>  (25) 
-14.459

>  <name>  (25) 
24

>  <ligand_id>  (25) 
24

>  <original_smiles>  (25) 
[H]c1c([H])c([H])c2c(c1[H])C([H])([H])C([H])([H])C([H])([H])C2([H])N([H])C(=O)C1([H])N(C(=O)C([H])(N([H])C(=O)C([H])(N([H])C([H])([H])[H])C([H])([H])[H])C(C([H])([H])[H])(C([H])([H])[H])C([H])([H])[H])C([H])([H])c2c([H])c(OC([H])([H])C(=O)C([H])(N([H])c3nc(N([H])C(=O)N4C([H])([H])C([H])([H])C([H])([H])C([H])(n5nc(-c6c([H])c([H])c(Oc7c([H])c([H])c(F)c([H])c7F)c([H])c6[H])c(C(=O)N([H])[H])c5N([H])[H])C4([H])[H])c([H])c(F)c3F)C([H])([H])[H])c([H])c([H])c2C1([H])[H]

>  <smiles>  (25) 
[H]c1c([H])c([H])c2c(c1[H])C([H])([H])C([H])([H])C([H])([H])C2([H])N([H])C(=O)C1([H])N(C(=O)C([H])(N([H])C(=O)C([H])(N([H])C([H])([H])[H])C([H])([H])[H])C(C([H])([H])[H])(C([H])([H])[H])C([H])([H])[H])C([H])([H])c2c([H])c(OC([H])([H])C(=O)C([H])(N([H])c3nc(N([H])C(=O)N4C([H])([H])C([H])([H])C([H])([H])C([H])(n5nc(-c6c([H])c([H])c(Oc7c([H])c([H])c(F)c([H])c7F)c([H])c6[H])c(C(=O)N([H])[H])c5N([H])[H])C4([H])[H])c([H])c(F)c3F)C([H])([H])[H])c([H])c([H])c2C1([H])[H]

$$$$
25:0:0
     RDKit          3D

 98106  0  0  1  0  0  0  0  0999 V2000
  -29.9430  -21.1080   20.1990 C   0  0  0  0  0  0  0  0  0  0  0  0
  -28.6980  -21.5490   19.9360 N   0  0  0  0  0  0  0  0  0  0  0  0
  -30.8680  -21.9150   20.3120 O   0  0  0  0  0  0  0  0  0  0  0  0
  -27.9730  -20.8480   19.8980 H   0  0  0  0  0  0  0  0  0  0  0  0
  -30.6550  -14.6100   20.2550 C   0  0  0  0  0  0  0  0  0  0  0  0
  -30.3310  -12.4220   19.1530 C   0  0  0  0  0  2  0  0  0  0  0  0
  -29.3710  -12.6240   17.9620 C   0  0  0  0  0  2  0  0  0  0  0  0
  -27.9040  -12.4920   18.4180 C   0  0  0  0  0  2  0  0  0  0  0  0
  -27.5940  -13.3250   19.6910 C   0  0  0  0  0  3  0  0  0  0  0  0
  -28.6740  -13.1230   20.7780 C   0  0  0  0  0  2  0  0  0  0  0  0
  -29.9800  -13.4250   20.1760 N   0  0  0  0  0  0  0  0  0  0  0  0
  -31.8140  -14.7060   19.8420 O   0  0  0  0  0  0  0  0  0  0  0  0
  -30.2510  -19.6230   20.1880 C   0  0  0  0  0  0  0  0  0  0  0  0
  -31.4080  -18.9580   19.8160 C   0  0  0  0  0  0  0  0  0  0  0  0
  -30.1990  -17.1040   20.4390 C   0  0  0  0  0  0  0  0  0  0  0  0
  -31.3630  -17.5680   19.9640 N   0  0  0  0  0  0  0  0  0  0  0  0
  -29.9270  -15.6950   20.6420 N   0  0  0  0  0  0  0  0  0  0  0  0
  -29.0560  -18.4410   20.7530 S   0  0  0  0  0  0  0  0  0  0  0  0
  -29.0060  -15.4840   20.9930 H   0  0  0  0  0  0  0  0  0  0  0  0
  -25.2170  -13.9320   20.4560 C   0  0  0  0  0  0  0  0  0  0  0  0
  -24.1540  -13.1610   20.8410 C   0  0  0  0  0  0  0  0  0  0  0  0
  -24.6100  -11.8080   20.7940 C   0  0  0  0  0  0  0  0  0  0  0  0
  -26.2530  -13.0490   20.1980 N   0  0  0  0  0  0  0  0  0  0  0  0
  -25.8930  -11.7660   20.4610 N   0  0  0  0  0  0  0  0  0  0  0  0
  -23.8830  -10.5480   20.9900 C   0  0  0  0  0  0  0  0  0  0  0  0
  -24.3150   -9.5810   21.9240 C   0  0  0  0  0  3  0  0  0  0  0  0
  -23.5870   -8.3870   22.1090 C   0  0  0  0  0  3  0  0  0  0  0  0
  -22.4120   -8.1490   21.3580 C   0  0  0  0  0  0  0  0  0  0  0  0
  -21.9970   -9.1040   20.4120 C   0  0  0  0  0  3  0  0  0  0  0  0
  -22.7260  -10.2900   20.2270 C   0  0  0  0  0  3  0  0  0  0  0  0
  -21.6550   -7.0060   21.4510 O   0  0  0  0  0  0  0  0  0  0  0  0
  -21.6000   -6.2710   22.6070 C   0  0  0  0  0  0  0  0  0  0  0  0
  -21.1500   -6.8290   23.8240 C   0  0  0  0  0  3  0  0  0  0  0  0
  -21.0440   -6.0210   24.9730 C   0  0  0  0  0  3  0  0  0  0  0  0
  -21.3780   -4.6550   24.9070 C   0  0  0  0  0  0  0  0  0  0  0  0
  -21.8200   -4.0960   23.6950 C   0  0  0  0  0  3  0  0  0  0  0  0
  -21.9280   -4.9020   22.5480 C   0  0  0  0  0  0  0  0  0  0  0  0
  -22.3350   -4.3540   21.3770 F   0  0  0  0  0  0  0  0  0  0  0  0
  -21.2700   -3.8750   26.0090 F   0  0  0  0  0  0  0  0  0  0  0  0
  -22.7640  -13.6430   21.1430 C   0  0  0  0  0  0  0  0  0  0  0  0
  -22.0480  -12.9390   22.0120 N   0  0  0  0  0  0  0  0  0  0  0  0
  -22.3230  -14.6770   20.6430 O   0  0  0  0  0  0  0  0  0  0  0  0
  -22.4180  -12.1010   22.4350 H   0  0  0  0  0  0  0  0  0  0  0  0
  -21.1150  -13.2410   22.2560 H   0  0  0  0  0  0  0  0  0  0  0  0
  -25.3830  -15.3030   20.2780 N   0  0  0  0  0  0  0  0  0  0  0  0
  -24.6150  -15.9560   20.3910 H   0  0  0  0  0  0  0  0  0  0  0  0
  -26.2120  -15.7350   19.8890 H   0  0  0  0  0  0  0  0  0  0  0  0
  -32.5830  -19.5150   19.3030 N   0  0  0  0  0  0  0  0  0  0  0  0
  -32.7240  -20.5190   19.3570 H   0  0  0  0  0  0  0  0  0  0  0  0
  -33.4320  -18.9630   19.2460 H   0  0  0  0  0  0  0  0  0  0  0  0
  -28.3380  -22.8690   19.3340 C   0  0  0  0  0  3  0  0  0  0  0  0
  -25.8230  -22.7490   19.9940 C   0  0  0  0  0  1  0  0  0  0  0  0
  -26.6370  -21.5940   17.8940 C   0  0  0  0  0  1  0  0  0  0  0  0
  -26.8600  -22.7820   18.8500 C   0  0  0  0  0  3  0  0  0  0  0  0
  -28.5320  -24.1600   20.2200 C   0  0  0  0  0  0  0  0  0  0  0  0
  -28.5800  -24.1290   21.4540 O   0  0  0  0  0  0  0  0  0  0  0  0
  -28.6510  -25.5190   19.4550 C   0  0  0  0  0  2  0  0  0  0  0  0
  -28.4730  -26.7160   20.2650 O   0  0  0  0  0  0  0  0  0  0  0  0
  -24.5780  -31.9130   23.2600 C   0  0  0  0  0  0  0  0  0  0  0  0
  -27.2900  -27.4480   20.2120 C   0  0  0  0  0  0  0  0  0  0  0  0
  -23.4030  -30.5020   21.6040 C   0  0  0  0  0  3  0  0  0  0  0  0
  -24.8850  -28.9720   20.1960 C   0  0  0  0  0  0  0  0  0  0  0  0
  -25.9320  -30.8660   21.4430 C   0  0  0  0  0  2  0  0  0  0  0  0
  -26.0340  -29.4940   20.7980 C   0  0  0  0  0  0  0  0  0  0  0  0
  -27.2370  -28.7410   20.8010 C   0  0  0  0  0  3  0  0  0  0  0  0
  -26.1100  -26.9470   19.6140 C   0  0  0  0  0  3  0  0  0  0  0  0
  -24.9200  -27.7000   19.6020 C   0  0  0  0  0  3  0  0  0  0  0  0
  -23.6340  -29.8240   20.2270 C   0  0  0  0  0  2  0  0  0  0  0  0
  -24.6540  -31.1100   22.1600 N   0  0  0  0  0  0  0  0  0  0  0  0
  -23.4870  -32.1790   23.7840 O   0  0  0  0  0  0  0  0  0  0  0  0
  -22.7440  -29.4770   22.5560 C   0  0  0  0  0  0  0  0  0  0  0  0
  -21.4210  -29.2920   22.4190 N   0  0  0  0  0  0  0  0  0  0  0  0
  -23.4240  -28.8510   23.3750 O   0  0  0  0  0  0  0  0  0  0  0  0
  -20.9350  -29.8510   21.7310 H   0  0  0  0  0  0  0  0  0  0  0  0
  -18.0420  -28.1040   22.9100 C   0  0  0  0  0  0  0  0  0  0  0  0
  -20.6010  -28.3500   23.1790 C   0  0  0  0  0  3  0  0  0  0  0  0
  -20.6970  -26.9240   22.5880 C   0  0  0  0  0  2  0  0  0  0  0  0
  -19.5920  -26.6170   21.5720 C   0  0  0  0  0  2  0  0  0  0  0  0
  -18.2110  -26.7610   22.2180 C   0  0  0  0  0  2  0  0  0  0  0  0
  -19.1650  -28.8580   23.3440 C   0  0  0  0  0  0  0  0  0  0  0  0
  -18.9540  -30.1160   23.9470 C   0  0  0  0  0  3  0  0  0  0  0  0
  -17.6510  -30.6200   24.1240 C   0  0  0  0  0  3  0  0  0  0  0  0
  -16.5430  -29.8630   23.7060 C   0  0  0  0  0  3  0  0  0  0  0  0
  -16.7400  -28.6090   23.1020 C   0  0  0  0  0  3  0  0  0  0  0  0
  -25.8500  -32.5550   23.8940 C   0  0  0  0  0  3  0  0  0  0  0  0
  -25.5320  -33.9560   24.2040 N   0  0  0  0  0  0  0  0  0  0  0  0
  -25.8720  -35.0020   23.4370 C   0  0  0  0  0  0  0  0  0  0  0  0
  -26.5580  -34.8890   22.4180 O   0  0  0  0  0  0  0  0  0  0  0  0
  -24.9300  -34.1180   24.9980 H   0  0  0  0  0  0  0  0  0  0  0  0
  -24.1510  -36.7880   23.0240 C   0  0  0  0  0  1  0  0  0  0  0  0
  -25.3710  -36.3930   23.8710 C   0  0  0  0  0  3  0  0  0  0  0  0
  -27.4790  -37.2890   24.7570 C   0  0  0  0  0  1  0  0  0  0  0  0
  -26.4060  -37.4460   23.7770 N   0  0  0  0  0  0  0  0  0  0  0  0
  -25.9940  -38.3670   23.9040 H   0  0  0  0  0  0  0  0  0  0  0  0
  -26.3500  -31.7990   25.1880 C   0  0  1  0  0  0  0  0  0  0  0  0
  -25.2410  -31.5630   26.2390 C   0  0  0  0  0  1  0  0  0  0  0  0
  -26.9510  -30.4210   24.8200 C   0  0  0  0  0  1  0  0  0  0  0  0
  -27.4840  -32.6070   25.8610 C   0  0  0  0  0  1  0  0  0  0  0  0
  1  3  2  0
  2  1  1  0
  4  2  1  0
  5 17  1  0
  6 11  1  0
  7  8  1  0
  7  6  1  0
  9  8  1  0
  9 23  1  0
  9 10  1  0
 11  5  1  0
 11 10  1  0
 12  5  2  0
 13  1  1  0
 13 18  1  0
 14 16  1  0
 14 13  2  0
 15 17  1  0
 15 18  1  0
 16 15  2  0
 17 19  1  0
 20 21  2  0
 21 40  1  0
 22 21  1  0
 22 25  1  0
 23 20  1  0
 23 24  1  0
 24 22  2  0
 25 26  1  0
 26 27  2  0
 28 31  1  0
 28 27  1  0
 29 28  2  0
 30 29  1  0
 30 25  2  0
 31 32  1  0
 32 33  1  0
 33 34  2  0
 35 34  1  0
 35 39  1  0
 36 35  2  0
 37 32  2  0
 37 36  1  0
 38 37  1  0
 40 41  1  0
 41 44  1  0
 41 43  1  0
 42 40  2  0
 45 46  1  0
 45 20  1  0
 47 45  1  0
 48 49  1  0
 48 14  1  0
 50 48  1  0
 51 54  1  0
 51  2  1  0
 51 55  1  0
 53 54  1  0
 54 52  1  0
 55 56  2  0
 57 55  1  0
 57 58  1  0
 59 70  2  0
 60 58  1  0
 60 65  1  0
 61 69  1  0
 61 71  1  0
 62 68  1  0
 62 64  1  0
 63 69  1  0
 64 65  2  0
 64 63  1  0
 66 60  2  0
 67 66  1  0
 67 62  2  0
 68 61  1  0
 69 59  1  0
 71 73  2  0
 72 71  1  0
 74 72  1  0
 75 84  2  0
 75 80  1  0
 76 72  1  0
 76 80  1  0
 77 76  1  0
 78 79  1  0
 78 77  1  0
 79 75  1  0
 80 81  2  0
 81 82  1  0
 83 82  2  0
 84 83  1  0
 85 59  1  0
 85 86  1  0
 85 95  1  0
 86 89  1  0
 87 91  1  0
 87 86  1  0
 88 87  2  0
 91 90  1  0
 93 91  1  0
 93 94  1  0
 93 92  1  0
 95 98  1  1
 95 96  1  0
 97 95  1  0
M  ISO  4   5 100  17 100  57 101  58 101
M  END
>  <TORSDO>  (26) 
F 21

>  <SCORE>  (26) 
-13.703

>  <name>  (26) 
25

>  <ligand_id>  (26) 
25

>  <original_smiles>  (26) 
[H]c1c([H])c([H])c2c(c1[H])C([H])([H])C([H])([H])C([H])([H])C2([H])N([H])C(=O)C1([H])N(C(=O)C([H])(N([H])C(=O)C([H])(N([H])C([H])([H])[H])C([H])([H])[H])C(C([H])([H])[H])(C([H])([H])[H])C([H])([H])[H])C([H])([H])c2c([H])c(OC([H])([H])C(=O)C([H])(N([H])C(=O)c3sc(N([H])C(=O)N4C([H])([H])C([H])([H])C([H])([H])C([H])(n5nc(-c6c([H])c([H])c(Oc7c([H])c([H])c(F)c([H])c7F)c([H])c6[H])c(C(=O)N([H])[H])c5N([H])[H])C4([H])[H])nc3N([H])[H])C([H])(C([H])([H])[H])C([H])([H])[H])c([H])c([H])c2C1([H])[H]

>  <smiles>  (26) 
[H]c1c([H])c([H])c2c(c1[H])C([H])([H])C([H])([H])C([H])([H])C2([H])N([H])C(=O)C1([H])N(C(=O)C([H])(N([H])C(=O)C([H])(N([H])C([H])([H])[H])C([H])([H])[H])C(C([H])([H])[H])(C([H])([H])[H])C([H])([H])[H])C([H])([H])c2c([H])c(OC([H])([H])C(=O)C([H])(N([H])C(=O)c3sc(N([H])C(=O)N4C([H])([H])C([H])([H])C([H])([H])C([H])(n5nc(-c6c([H])c([H])c(Oc7c([H])c([H])c(F)c([H])c7F)c([H])c6[H])c(C(=O)N([H])[H])c5N([H])[H])C4([H])[H])nc3N([H])[H])C([H])(C([H])([H])[H])C([H])([H])[H])c([H])c([H])c2C1([H])[H]

$$$$
26:0:0
     RDKit          3D

 95103  0  0  1  0  0  0  0  0999 V2000
  -29.3530  -23.5240   20.6600 C   0  0  0  0  0  0  0  0  0  0  0  0
  -29.2630  -22.3000   21.2510 N   0  0  0  0  0  0  0  0  0  0  0  0
  -29.8020  -23.6660   19.5210 O   0  0  0  0  0  0  0  0  0  0  0  0
  -28.8230  -22.3010   22.1600 H   0  0  0  0  0  0  0  0  0  0  0  0
  -30.8770  -19.3390   19.6940 C   0  0  0  0  0  3  0  0  0  0  0  0
  -30.4480  -20.7110   19.7190 C   0  0  0  0  0  3  0  0  0  0  0  0
  -30.4980  -18.6090   20.7980 C   0  0  0  0  0  0  0  0  0  0  0  0
  -29.7740  -21.0820   20.8610 C   0  0  0  0  0  0  0  0  0  0  0  0
  -29.6300  -19.6670   21.9020 S   0  0  0  0  0  0  0  0  0  0  0  0
  -30.7520  -17.1270   21.1390 C   0  0  0  0  0  2  0  0  0  0  0  0
  -30.9160  -14.8130   20.2540 C   0  0  0  0  0  0  0  0  0  0  0  0
  -30.6170  -12.5580   19.2570 C   0  0  0  0  0  2  0  0  0  0  0  0
  -29.6560  -12.6010   18.0500 C   0  0  0  0  0  2  0  0  0  0  0  0
  -28.1810  -12.4840   18.4990 C   0  0  0  0  0  2  0  0  0  0  0  0
  -27.8290  -13.3650   19.7280 C   0  0  0  0  0  3  0  0  0  0  0  0
  -28.9270  -13.3280   20.8170 C   0  0  0  0  0  2  0  0  0  0  0  0
  -30.2100  -13.6360   20.1710 N   0  0  0  0  0  0  0  0  0  0  0  0
  -32.1350  -14.8200   20.0900 O   0  0  0  0  0  0  0  0  0  0  0  0
  -29.3940  -16.3320   19.2340 C   0  0  0  0  0  0  0  0  0  0  0  0
  -28.1800  -17.2350   19.4900 C   0  0  0  0  0  1  0  0  0  0  0  0
  -30.2390  -16.0210   20.2540 N   0  0  0  0  0  0  0  0  0  0  0  0
  -29.5040  -15.8740   18.0910 O   0  0  0  0  0  0  0  0  0  0  0  0
  -25.4590  -13.9480   20.5260 C   0  0  0  0  0  0  0  0  0  0  0  0
  -24.4010  -13.1650   20.8990 C   0  0  0  0  0  0  0  0  0  0  0  0
  -24.8720  -11.8180   20.8390 C   0  0  0  0  0  0  0  0  0  0  0  0
  -26.5030  -13.0740   20.2590 N   0  0  0  0  0  0  0  0  0  0  0  0
  -26.1600  -11.7890   20.5190 N   0  0  0  0  0  0  0  0  0  0  0  0
  -24.1590  -10.5480   21.0180 C   0  0  0  0  0  0  0  0  0  0  0  0
  -24.5910   -9.5840   21.9550 C   0  0  0  0  0  3  0  0  0  0  0  0
  -23.8780   -8.3780   22.1190 C   0  0  0  0  0  3  0  0  0  0  0  0
  -22.7180   -8.1290   21.3480 C   0  0  0  0  0  0  0  0  0  0  0  0
  -22.3040   -9.0840   20.4020 C   0  0  0  0  0  3  0  0  0  0  0  0
  -23.0200  -10.2810   20.2340 C   0  0  0  0  0  3  0  0  0  0  0  0
  -21.9710   -6.9780   21.4290 O   0  0  0  0  0  0  0  0  0  0  0  0
  -21.8780   -6.2630   22.5950 C   0  0  0  0  0  0  0  0  0  0  0  0
  -21.3330   -6.8220   23.7720 C   0  0  0  0  0  3  0  0  0  0  0  0
  -21.1890   -6.0290   24.9270 C   0  0  0  0  0  3  0  0  0  0  0  0
  -21.5830   -4.6780   24.9080 C   0  0  0  0  0  0  0  0  0  0  0  0
  -22.1240   -4.1170   23.7360 C   0  0  0  0  0  3  0  0  0  0  0  0
  -22.2690   -4.9080   22.5830 C   0  0  0  0  0  0  0  0  0  0  0  0
  -22.7680   -4.3580   21.4520 F   0  0  0  0  0  0  0  0  0  0  0  0
  -21.4370   -3.9130   26.0150 F   0  0  0  0  0  0  0  0  0  0  0  0
  -23.0050  -13.6300   21.1860 C   0  0  0  0  0  0  0  0  0  0  0  0
  -22.2850  -12.9130   22.0410 N   0  0  0  0  0  0  0  0  0  0  0  0
  -22.5590  -14.6640   20.6910 O   0  0  0  0  0  0  0  0  0  0  0  0
  -22.6580  -12.0740   22.4660 H   0  0  0  0  0  0  0  0  0  0  0  0
  -21.3470  -13.2100   22.2790 H   0  0  0  0  0  0  0  0  0  0  0  0
  -25.6090  -15.3210   20.3650 N   0  0  0  0  0  0  0  0  0  0  0  0
  -24.8420  -15.9690   20.5080 H   0  0  0  0  0  0  0  0  0  0  0  0
  -26.4480  -15.7660   20.0240 H   0  0  0  0  0  0  0  0  0  0  0  0
  -29.1460  -24.5750   22.9710 C   0  0  0  0  0  1  0  0  0  0  0  0
  -28.8340  -24.7800   21.4620 C   0  0  0  0  0  3  0  0  0  0  0  0
  -29.8660  -27.2200   21.9480 C   0  0  0  0  0  1  0  0  0  0  0  0
  -29.3330  -26.1950   20.9240 C   0  0  0  0  0  3  0  0  0  0  0  0
  -28.5250  -26.8140   19.8980 O   0  0  0  0  0  0  0  0  0  0  0  0
  -24.6170  -31.8930   23.2510 C   0  0  0  0  0  0  0  0  0  0  0  0
  -27.3540  -27.5230   20.1240 C   0  0  0  0  0  0  0  0  0  0  0  0
  -23.4380  -30.4950   21.5870 C   0  0  0  0  0  3  0  0  0  0  0  0
  -24.9220  -28.9950   20.1530 C   0  0  0  0  0  0  0  0  0  0  0  0
  -25.9580  -30.8970   21.3960 C   0  0  0  0  0  2  0  0  0  0  0  0
  -26.0700  -29.5270   20.7520 C   0  0  0  0  0  0  0  0  0  0  0  0
  -27.2900  -28.8030   20.7370 C   0  0  0  0  0  3  0  0  0  0  0  0
  -26.1890  -27.0150   19.5170 C   0  0  0  0  0  3  0  0  0  0  0  0
  -24.9780  -27.7330   19.5310 C   0  0  0  0  0  3  0  0  0  0  0  0
  -23.6630  -29.8340   20.1990 C   0  0  0  0  0  2  0  0  0  0  0  0
  -24.6900  -31.1090   22.1360 N   0  0  0  0  0  0  0  0  0  0  0  0
  -23.5320  -32.1360   23.7930 O   0  0  0  0  0  0  0  0  0  0  0  0
  -22.8000  -29.4510   22.5330 C   0  0  0  0  0  0  0  0  0  0  0  0
  -21.4770  -29.2480   22.4060 N   0  0  0  0  0  0  0  0  0  0  0  0
  -23.4950  -28.8250   23.3380 O   0  0  0  0  0  0  0  0  0  0  0  0
  -20.9720  -29.8060   21.7320 H   0  0  0  0  0  0  0  0  0  0  0  0
  -18.1200  -27.9980   22.9070 C   0  0  0  0  0  0  0  0  0  0  0  0
  -20.6790  -28.2830   23.1640 C   0  0  0  0  0  3  0  0  0  0  0  0
  -20.7920  -26.8660   22.5570 C   0  0  0  0  0  2  0  0  0  0  0  0
  -19.6840  -26.5490   21.5440 C   0  0  0  0  0  2  0  0  0  0  0  0
  -18.3050  -26.6660   22.2000 C   0  0  0  0  0  2  0  0  0  0  0  0
  -19.2340  -28.7640   23.3440 C   0  0  0  0  0  0  0  0  0  0  0  0
  -19.0070  -30.0110   23.9630 C   0  0  0  0  0  3  0  0  0  0  0  0
  -17.7000  -30.4960   24.1520 C   0  0  0  0  0  3  0  0  0  0  0  0
  -16.5990  -29.7280   23.7320 C   0  0  0  0  0  3  0  0  0  0  0  0
  -16.8100  -28.4820   23.1160 C   0  0  0  0  0  3  0  0  0  0  0  0
  -25.8910  -32.5410   23.8800 C   0  0  0  0  0  3  0  0  0  0  0  0
  -26.4070  -31.7720   25.1570 C   0  0  1  0  0  0  0  0  0  0  0  0
  -25.3100  -31.5180   26.2200 C   0  0  0  0  0  1  0  0  0  0  0  0
  -27.0110  -30.4020   24.7650 C   0  0  0  0  0  1  0  0  0  0  0  0
  -27.5410  -32.5820   25.8300 C   0  0  0  0  0  1  0  0  0  0  0  0
  -25.5630  -33.9330   24.2080 N   0  0  0  0  0  0  0  0  0  0  0  0
  -25.8950  -34.9900   23.4540 C   0  0  0  0  0  0  0  0  0  0  0  0
  -26.5780  -34.8950   22.4290 O   0  0  0  0  0  0  0  0  0  0  0  0
  -24.9620  -34.0800   25.0070 H   0  0  0  0  0  0  0  0  0  0  0  0
  -24.1770  -36.7820   23.0510 C   0  0  0  0  0  1  0  0  0  0  0  0
  -25.3900  -36.3760   23.9020 C   0  0  0  0  0  3  0  0  0  0  0  0
  -27.4890  -37.2630   24.8150 C   0  0  0  0  0  1  0  0  0  0  0  0
  -26.4230  -37.4320   23.8300 N   0  0  0  0  0  0  0  0  0  0  0  0
  -26.0110  -38.3510   23.9650 H   0  0  0  0  0  0  0  0  0  0  0  0
  1  2  1  0
  1 52  1  0
  2  4  1  0
  3  1  2  0
  5  6  1  0
  5  7  2  0
  6  8  2  0
  7 10  1  0
  7  9  1  0
  8  2  1  0
  8  9  1  0
 12 17  1  0
 13 14  1  0
 13 12  1  0
 15 14  1  0
 15 26  1  0
 15 16  1  0
 17 11  1  0
 17 16  1  0
 18 11  2  0
 19 20  1  0
 19 21  1  0
 21 11  1  0
 21 10  1  0
 22 19  2  0
 23 24  2  0
 24 43  1  0
 25 24  1  0
 25 28  1  0
 26 27  1  0
 26 23  1  0
 27 25  2  0
 28 29  1  0
 29 30  2  0
 31 34  1  0
 31 30  1  0
 32 31  2  0
 33 32  1  0
 33 28  2  0
 34 35  1  0
 35 36  1  0
 36 37  2  0
 38 37  1  0
 38 42  1  0
 39 38  2  0
 40 35  2  0
 40 39  1  0
 41 40  1  0
 43 44  1  0
 44 47  1  0
 44 46  1  0
 45 43  2  0
 48 49  1  0
 48 23  1  0
 50 48  1  0
 52 51  1  0
 54 52  1  0
 54 53  1  0
 55 57  1  0
 55 54  1  0
 56 67  2  0
 57 62  1  0
 58 66  1  0
 58 68  1  0
 59 65  1  0
 59 61  1  0
 60 66  1  0
 61 60  1  0
 62 61  2  0
 63 64  1  0
 63 57  2  0
 64 59  2  0
 65 58  1  0
 66 56  1  0
 68 70  2  0
 69 68  1  0
 71 69  1  0
 72 81  2  0
 72 77  1  0
 73 69  1  0
 73 77  1  0
 74 73  1  0
 75 76  1  0
 75 74  1  0
 76 72  1  0
 77 78  2  0
 78 79  1  0
 80 79  2  0
 81 80  1  0
 82 56  1  0
 82 87  1  0
 82 83  1  0
 83 86  1  1
 83 84  1  0
 85 83  1  0
 87 90  1  0
 88 92  1  0
 88 87  1  0
 89 88  2  0
 92 91  1  0
 94 92  1  0
 94 95  1  0
 94 93  1  0
M  ISO  4  11 100  21 100  54 101  55 101
M  END
>  <TORSDO>  (27) 
F 20

>  <SCORE>  (27) 
-12.557

>  <name>  (27) 
26

>  <ligand_id>  (27) 
26

>  <original_smiles>  (27) 
[H]c1c(N([H])C(=O)C([H])(C([H])([H])[H])C([H])(Oc2c([H])c([H])c3c(c2[H])C([H])([H])N(C(=O)C([H])(N([H])C(=O)C([H])(N([H])C([H])([H])[H])C([H])([H])[H])C(C([H])([H])[H])(C([H])([H])[H])C([H])([H])[H])C([H])(C(=O)N([H])C2([H])c4c([H])c([H])c([H])c([H])c4C([H])([H])C([H])([H])C2([H])[H])C3([H])[H])C([H])([H])[H])sc(C([H])([H])N(C(=O)N2C([H])([H])C([H])([H])C([H])([H])C([H])(n3nc(-c4c([H])c([H])c(Oc5c([H])c([H])c(F)c([H])c5F)c([H])c4[H])c(C(=O)N([H])[H])c3N([H])[H])C2([H])[H])C(=O)C([H])([H])[H])c1[H]

>  <smiles>  (27) 
[H]c1c(N([H])C(=O)C([H])(C([H])([H])[H])C([H])(Oc2c([H])c([H])c3c(c2[H])C([H])([H])N(C(=O)C([H])(N([H])C(=O)C([H])(N([H])C([H])([H])[H])C([H])([H])[H])C(C([H])([H])[H])(C([H])([H])[H])C([H])([H])[H])C([H])(C(=O)N([H])C2([H])c4c([H])c([H])c([H])c([H])c4C([H])([H])C([H])([H])C2([H])[H])C3([H])[H])C([H])([H])[H])sc(C([H])([H])N(C(=O)N2C([H])([H])C([H])([H])C([H])([H])C([H])(n3nc(-c4c([H])c([H])c(Oc5c([H])c([H])c(F)c([H])c5F)c([H])c4[H])c(C(=O)N([H])[H])c3N([H])[H])C2([H])[H])C(=O)C([H])([H])[H])c1[H]

$$$$
27:0:0
     RDKit          3D

 98106  0  0  1  0  0  0  0  0999 V2000
  -28.8210  -21.2020   20.5570 C   0  0  0  0  0  0  0  0  0  0  0  0
  -28.3650  -23.8000   20.3120 C   0  0  0  0  0  0  0  0  0  0  0  0
  -29.0710  -22.4830   20.0190 N   0  0  0  0  0  0  0  0  0  0  0  0
  -27.8190  -21.0790   21.4450 N   0  0  0  0  0  4  0  0  0  0  0  0
  -27.4760  -23.8230   21.1760 O   0  0  0  0  0  0  0  0  0  0  0  0
  -29.8270  -22.4610   19.3530 H   0  0  0  0  0  0  0  0  0  0  0  0
  -27.2800  -21.8900   21.7300 H   0  0  0  0  0  0  0  0  0  0  0  0
  -27.5730  -20.1700   21.8140 H   0  0  0  0  0  0  0  0  0  0  0  0
  -31.3370  -18.0940   19.7190 C   0  0  0  0  0  3  0  0  0  0  0  0
  -30.1950  -17.4980   20.2030 C   0  0  0  0  0  0  0  0  0  0  0  0
  -29.2020  -18.5440   20.5030 C   0  0  0  0  0  0  0  0  0  0  0  0
  -29.5570  -19.8930   20.2770 C   0  0  0  0  0  0  0  0  0  0  0  0
  -28.0310  -18.2120   21.0000 F   0  0  0  0  0  0  0  0  0  0  0  0
  -31.1980  -19.8640   19.6500 S   0  0  0  0  0  0  0  0  0  0  0  0
  -30.7770  -14.9160   20.0380 C   0  0  0  0  0  0  0  0  0  0  0  0
  -30.5430  -12.6610   18.9740 C   0  0  0  0  0  2  0  0  0  0  0  0
  -29.5360  -12.7670   17.8070 C   0  0  0  0  0  2  0  0  0  0  0  0
  -28.0940  -12.5690   18.3140 C   0  0  0  0  0  2  0  0  0  0  0  0
  -27.7860  -13.4160   19.5770 C   0  0  0  0  0  3  0  0  0  0  0  0
  -28.9060  -13.2960   20.6340 C   0  0  0  0  0  2  0  0  0  0  0  0
  -30.1660  -13.6790   19.9840 N   0  0  0  0  0  0  0  0  0  0  0  0
  -31.9390  -15.0300   19.6340 O   0  0  0  0  0  0  0  0  0  0  0  0
  -30.0020  -16.0240   20.3760 N   0  0  0  0  0  0  0  0  0  0  0  0
  -29.0950  -15.7730   20.7400 H   0  0  0  0  0  0  0  0  0  0  0  0
  -25.4440  -13.9740   20.4580 C   0  0  0  0  0  0  0  0  0  0  0  0
  -24.4020  -13.1860   20.8630 C   0  0  0  0  0  0  0  0  0  0  0  0
  -24.8650  -11.8380   20.7640 C   0  0  0  0  0  0  0  0  0  0  0  0
  -26.4730  -13.1060   20.1340 N   0  0  0  0  0  0  0  0  0  0  0  0
  -26.1360  -11.8140   20.3810 N   0  0  0  0  0  0  0  0  0  0  0  0
  -24.1520  -10.5670   20.9550 C   0  0  0  0  0  0  0  0  0  0  0  0
  -24.5860   -9.6110   21.8990 C   0  0  0  0  0  3  0  0  0  0  0  0
  -23.8720   -8.4050   22.0770 C   0  0  0  0  0  3  0  0  0  0  0  0
  -22.7110   -8.1490   21.3110 C   0  0  0  0  0  0  0  0  0  0  0  0
  -22.2950   -9.0950   20.3570 C   0  0  0  0  0  3  0  0  0  0  0  0
  -23.0100  -10.2910   20.1770 C   0  0  0  0  0  3  0  0  0  0  0  0
  -21.9680   -6.9960   21.3980 O   0  0  0  0  0  0  0  0  0  0  0  0
  -21.8540   -6.3010   22.5750 C   0  0  0  0  0  0  0  0  0  0  0  0
  -21.3060   -6.8860   23.7370 C   0  0  0  0  0  3  0  0  0  0  0  0
  -21.1430   -6.1130   24.9050 C   0  0  0  0  0  3  0  0  0  0  0  0
  -21.5200   -4.7570   24.9110 C   0  0  0  0  0  0  0  0  0  0  0  0
  -22.0630   -4.1720   23.7530 C   0  0  0  0  0  3  0  0  0  0  0  0
  -22.2260   -4.9410   22.5880 C   0  0  0  0  0  0  0  0  0  0  0  0
  -22.7300   -4.3660   21.4690 F   0  0  0  0  0  0  0  0  0  0  0  0
  -21.3580   -4.0130   26.0300 F   0  0  0  0  0  0  0  0  0  0  0  0
  -23.0210  -13.6490   21.2260 C   0  0  0  0  0  0  0  0  0  0  0  0
  -22.3370  -12.9180   22.0990 N   0  0  0  0  0  0  0  0  0  0  0  0
  -22.5590  -14.6950   20.7720 O   0  0  0  0  0  0  0  0  0  0  0  0
  -22.7250  -12.0710   22.4880 H   0  0  0  0  0  0  0  0  0  0  0  0
  -21.4130  -13.2100   22.3840 H   0  0  0  0  0  0  0  0  0  0  0  0
  -25.5930  -15.3500   20.3150 N   0  0  0  0  0  0  0  0  0  0  0  0
  -24.8290  -15.9930   20.4930 H   0  0  0  0  0  0  0  0  0  0  0  0
  -26.4140  -15.8100   19.9420 H   0  0  0  0  0  0  0  0  0  0  0  0
  -28.7570  -25.1610   19.5390 C   0  0  0  0  0  3  0  0  0  0  0  0
  -28.5440  -25.0760   18.0050 C   0  0  1  0  0  0  0  0  0  0  0  0
  -28.6690  -26.2770   17.4360 F   0  0  0  0  0  0  0  0  0  0  0  0
  -29.4770  -24.2790   17.4810 F   0  0  0  0  0  0  0  0  0  0  0  0
  -27.3590  -24.5580   17.6830 F   0  0  0  0  0  0  0  0  0  0  0  0
  -28.4840  -26.5220   20.1710 O   0  0  0  0  0  0  0  0  0  0  0  0
  -24.6340  -31.8870   23.1700 C   0  0  0  0  0  0  0  0  0  0  0  0
  -27.3310  -27.3430   20.0870 C   0  0  0  0  0  0  0  0  0  0  0  0
  -23.4620  -30.4860   21.5090 C   0  0  0  0  0  3  0  0  0  0  0  0
  -24.9430  -28.9600   20.0760 C   0  0  0  0  0  0  0  0  0  0  0  0
  -26.0020  -30.8290   21.3460 C   0  0  0  0  0  2  0  0  0  0  0  0
  -26.1030  -29.4530   20.6840 C   0  0  0  0  0  0  0  0  0  0  0  0
  -27.2930  -28.6560   20.6750 C   0  0  0  0  0  3  0  0  0  0  0  0
  -26.1360  -26.9070   19.4770 C   0  0  0  0  0  3  0  0  0  0  0  0
  -24.9660  -27.6960   19.4640 C   0  0  0  0  0  3  0  0  0  0  0  0
  -23.6950  -29.8220   20.1250 C   0  0  0  0  0  2  0  0  0  0  0  0
  -24.7180  -31.0870   22.0650 N   0  0  0  0  0  0  0  0  0  0  0  0
  -23.5430  -32.1450   23.6990 O   0  0  0  0  0  0  0  0  0  0  0  0
  -22.8050  -29.4560   22.4590 C   0  0  0  0  0  0  0  0  0  0  0  0
  -21.4770  -29.2830   22.3410 N   0  0  0  0  0  0  0  0  0  0  0  0
  -23.4890  -28.8150   23.2600 O   0  0  0  0  0  0  0  0  0  0  0  0
  -20.9840  -29.8510   21.6670 H   0  0  0  0  0  0  0  0  0  0  0  0
  -18.0980  -28.0990   22.8740 C   0  0  0  0  0  0  0  0  0  0  0  0
  -20.6630  -28.3310   23.1000 C   0  0  0  0  0  3  0  0  0  0  0  0
  -20.7410  -26.9150   22.4810 C   0  0  0  0  0  2  0  0  0  0  0  0
  -19.6160  -26.6320   21.4810 C   0  0  0  0  0  2  0  0  0  0  0  0
  -18.2490  -26.7690   22.1560 C   0  0  0  0  0  2  0  0  0  0  0  0
  -19.2320  -28.8400   23.3040 C   0  0  0  0  0  0  0  0  0  0  0  0
  -19.0350  -30.0860   23.9380 C   0  0  0  0  0  3  0  0  0  0  0  0
  -17.7380  -30.5920   24.1450 C   0  0  0  0  0  3  0  0  0  0  0  0
  -16.6190  -29.8490   23.7310 C   0  0  0  0  0  3  0  0  0  0  0  0
  -16.8000  -28.6040   23.1010 C   0  0  0  0  0  3  0  0  0  0  0  0
  -25.9020  -32.5330   23.8080 C   0  0  0  0  0  3  0  0  0  0  0  0
  -26.4160  -31.7610   25.0870 C   0  0  1  0  0  0  0  0  0  0  0  0
  -25.3150  -31.4990   26.1400 C   0  0  0  0  0  1  0  0  0  0  0  0
  -27.0260  -30.3960   24.6920 C   0  0  0  0  0  1  0  0  0  0  0  0
  -27.5450  -32.5690   25.7670 C   0  0  0  0  0  1  0  0  0  0  0  0
  -25.5690  -33.9250   24.1480 N   0  0  0  0  0  0  0  0  0  0  0  0
  -25.9000  -34.9920   23.4070 C   0  0  0  0  0  0  0  0  0  0  0  0
  -26.5860  -34.9080   22.3840 O   0  0  0  0  0  0  0  0  0  0  0  0
  -24.9610  -34.0630   24.9420 H   0  0  0  0  0  0  0  0  0  0  0  0
  -24.1700  -36.7810   23.0350 C   0  0  0  0  0  1  0  0  0  0  0  0
  -25.3910  -36.3700   23.8730 C   0  0  0  0  0  3  0  0  0  0  0  0
  -27.4920  -37.2610   24.7830 C   0  0  0  0  0  1  0  0  0  0  0  0
  -26.4190  -37.4310   23.8050 N   0  0  0  0  0  0  0  0  0  0  0  0
  -26.0030  -38.3470   23.9480 H   0  0  0  0  0  0  0  0  0  0  0  0
  1  4  2  0
  2  5  2  0
  3  2  1  0
  3  1  1  0
  4  7  1  0
  4  8  1  0
  6  3  1  0
  9 10  2  0
 10 23  1  0
 10 11  1  0
 11 13  1  0
 12 11  2  0
 12  1  1  0
 14  9  1  0
 14 12  1  0
 15 23  1  0
 16 21  1  0
 17 18  1  0
 17 16  1  0
 19 18  1  0
 19 28  1  0
 19 20  1  0
 21 15  1  0
 21 20  1  0
 22 15  2  0
 23 24  1  0
 25 26  2  0
 26 45  1  0
 27 26  1  0
 27 30  1  0
 28 29  1  0
 28 25  1  0
 29 27  2  0
 30 31  1  0
 31 32  2  0
 33 36  1  0
 33 32  1  0
 34 33  2  0
 35 34  1  0
 35 30  2  0
 36 37  1  0
 37 42  2  0
 37 38  1  0
 38 39  2  0
 39 40  1  0
 40 44  1  0
 41 40  2  0
 42 41  1  0
 43 42  1  0
 45 46  1  0
 46 49  1  0
 46 48  1  0
 47 45  2  0
 50 25  1  0
 50 51  1  0
 52 50  1  0
 53 58  1  0
 53  2  1  0
 54 53  1  0
 54 55  1  6
 56 54  1  0
 57 54  1  0
 59 70  2  0
 60 58  1  0
 60 65  1  0
 61 69  1  0
 61 71  1  0
 62 68  1  0
 62 64  1  0
 63 69  1  0
 64 63  1  0
 65 64  2  0
 66 60  2  0
 67 66  1  0
 67 62  2  0
 68 61  1  0
 69 59  1  0
 71 73  2  0
 72 71  1  0
 74 72  1  0
 75 84  2  0
 75 80  1  0
 76 72  1  0
 76 80  1  0
 77 76  1  0
 78 79  1  0
 78 77  1  0
 79 75  1  0
 80 81  2  0
 81 82  1  0
 83 82  2  0
 84 83  1  0
 85 59  1  0
 85 90  1  0
 85 86  1  0
 86 89  1  1
 86 87  1  0
 88 86  1  0
 90 93  1  0
 91 95  1  0
 91 90  1  0
 92 91  2  0
 95 94  1  0
 97 95  1  0
 97 98  1  0
 97 96  1  0
M  ISO  4  15 100  23 100  53 101  58 101
M  END
>  <TORSDO>  (28) 
F 19

>  <SCORE>  (28) 
-14.241

>  <name>  (28) 
27

>  <ligand_id>  (28) 
27

>  <original_smiles>  (28) 
[H]c1sc(C(N([H])C(=O)C([H])(Oc2c([H])c([H])c3c(c2[H])C([H])([H])N(C(=O)C([H])(N([H])C(=O)C([H])(N([H])C([H])([H])[H])C([H])([H])[H])C(C([H])([H])[H])(C([H])([H])[H])C([H])([H])[H])C([H])(C(=O)N([H])C2([H])c4c([H])c([H])c([H])c([H])c4C([H])([H])C([H])([H])C2([H])[H])C3([H])[H])C(F)(F)F)=[N+]([H])[H])c(F)c1N([H])C(=O)N1C([H])([H])C([H])([H])C([H])([H])C([H])(n2nc(-c3c([H])c([H])c(Oc4c([H])c([H])c(F)c([H])c4F)c([H])c3[H])c(C(=O)N([H])[H])c2N([H])[H])C1([H])[H]

>  <smiles>  (28) 
[H]c1sc(C(N([H])C(=O)C([H])(Oc2c([H])c([H])c3c(c2[H])C([H])([H])N(C(=O)C([H])(N([H])C(=O)C([H])(N([H])C([H])([H])[H])C([H])([H])[H])C(C([H])([H])[H])(C([H])([H])[H])C([H])([H])[H])C([H])(C(=O)N([H])C2([H])c4c([H])c([H])c([H])c([H])c4C([H])([H])C([H])([H])C2([H])[H])C3([H])[H])C(F)(F)F)=[N+]([H])[H])c(F)c1N([H])C(=O)N1C([H])([H])C([H])([H])C([H])([H])C([H])(n2nc(-c3c([H])c([H])c(Oc4c([H])c([H])c(F)c([H])c4F)c([H])c3[H])c(C(=O)N([H])[H])c2N([H])[H])C1([H])[H]

$$$$
28:0:0
     RDKit          3D

 95103  0  0  1  0  0  0  0  0999 V2000
  -28.8360  -22.2130   20.7540 C   0  0  0  0  0  0  0  0  0  0  0  0
  -29.5270  -21.1510   20.1790 N   0  0  0  0  0  0  0  0  0  0  0  0
  -28.0260  -21.9830   21.6540 O   0  0  0  0  0  0  0  0  0  0  0  0
  -30.0370  -21.3940   19.3420 H   0  0  0  0  0  0  0  0  0  0  0  0
  -30.6280  -14.8660   20.1250 C   0  0  0  0  0  0  0  0  0  0  0  0
  -30.4060  -12.6060   19.0720 C   0  0  0  0  0  2  0  0  0  0  0  0
  -29.4130  -12.6810   17.8940 C   0  0  0  0  0  2  0  0  0  0  0  0
  -27.9550  -12.5120   18.3750 C   0  0  0  0  0  2  0  0  0  0  0  0
  -27.6310  -13.3780   19.6210 C   0  0  0  0  0  3  0  0  0  0  0  0
  -28.7370  -13.2810   20.6940 C   0  0  0  0  0  2  0  0  0  0  0  0
  -30.0020  -13.6440   20.0420 N   0  0  0  0  0  0  0  0  0  0  0  0
  -31.8320  -14.9600   19.8790 O   0  0  0  0  0  0  0  0  0  0  0  0
  -30.5840  -19.5250   21.7930 C   0  0  0  0  0  0  0  0  0  0  0  0
  -29.8030  -19.7690   20.6720 C   0  0  0  0  0  0  0  0  0  0  0  0
  -30.0550  -17.3870   20.5520 C   0  0  0  0  0  0  0  0  0  0  0  0
  -29.5140  -18.5230   19.9840 N   0  0  0  0  0  0  0  0  0  0  0  0
  -29.8120  -15.9910   20.1340 N   0  0  0  0  0  0  0  0  0  0  0  0
  -30.9450  -17.8030   22.0050 S   0  0  0  0  0  0  0  0  0  0  0  0
  -28.8520  -15.7940   19.9050 H   0  0  0  0  0  0  0  0  0  0  0  0
  -25.2770  -13.9720   20.4580 C   0  0  0  0  0  0  0  0  0  0  0  0
  -24.2210  -13.1970   20.8530 C   0  0  0  0  0  0  0  0  0  0  0  0
  -24.6760  -11.8440   20.7840 C   0  0  0  0  0  0  0  0  0  0  0  0
  -26.3060  -13.0910   20.1660 N   0  0  0  0  0  0  0  0  0  0  0  0
  -25.9560  -11.8050   20.4280 N   0  0  0  0  0  0  0  0  0  0  0  0
  -23.9490  -10.5830   20.9770 C   0  0  0  0  0  0  0  0  0  0  0  0
  -24.3930   -9.6140   21.9050 C   0  0  0  0  0  3  0  0  0  0  0  0
  -23.6690   -8.4170   22.0920 C   0  0  0  0  0  3  0  0  0  0  0  0
  -22.4850   -8.1810   21.3520 C   0  0  0  0  0  0  0  0  0  0  0  0
  -22.0610   -9.1370   20.4130 C   0  0  0  0  0  3  0  0  0  0  0  0
  -22.7860  -10.3260   20.2250 C   0  0  0  0  0  3  0  0  0  0  0  0
  -21.7320   -7.0350   21.4480 O   0  0  0  0  0  0  0  0  0  0  0  0
  -21.6730   -6.3030   22.6090 C   0  0  0  0  0  0  0  0  0  0  0  0
  -21.2150   -6.8670   23.8190 C   0  0  0  0  0  3  0  0  0  0  0  0
  -21.1070   -6.0650   24.9750 C   0  0  0  0  0  3  0  0  0  0  0  0
  -21.4450   -4.6980   24.9130 C   0  0  0  0  0  0  0  0  0  0  0  0
  -21.8930   -4.1340   23.7060 C   0  0  0  0  0  3  0  0  0  0  0  0
  -22.0050   -4.9350   22.5560 C   0  0  0  0  0  0  0  0  0  0  0  0
  -22.4180   -4.3830   21.3900 F   0  0  0  0  0  0  0  0  0  0  0  0
  -21.3320   -3.9240   26.0180 F   0  0  0  0  0  0  0  0  0  0  0  0
  -22.8360  -13.6760   21.1760 C   0  0  0  0  0  0  0  0  0  0  0  0
  -22.1300  -12.9710   22.0530 N   0  0  0  0  0  0  0  0  0  0  0  0
  -22.3850  -14.7110   20.6880 O   0  0  0  0  0  0  0  0  0  0  0  0
  -22.5030  -12.1340   22.4750 H   0  0  0  0  0  0  0  0  0  0  0  0
  -21.1990  -13.2710   22.3020 H   0  0  0  0  0  0  0  0  0  0  0  0
  -25.4350  -15.3470   20.2930 N   0  0  0  0  0  0  0  0  0  0  0  0
  -24.6670  -15.9870   20.4630 H   0  0  0  0  0  0  0  0  0  0  0  0
  -26.2470  -15.8040   19.8990 H   0  0  0  0  0  0  0  0  0  0  0  0
  -31.1810  -20.5030   22.7650 C   0  0  1  0  0  0  0  0  0  0  0  0
  -31.7640  -21.5250   22.1400 F   0  0  0  0  0  0  0  0  0  0  0  0
  -30.2640  -20.9950   23.5960 F   0  0  0  0  0  0  0  0  0  0  0  0
  -32.1210  -19.9360   23.5250 F   0  0  0  0  0  0  0  0  0  0  0  0
  -29.0200  -23.7450   20.2490 C   0  0  0  0  0  2  0  0  0  0  0  0
  -28.0390  -25.1230   22.2820 C   0  0  0  0  0  1  0  0  0  0  0  0
  -28.0740  -24.9960   20.7430 C   0  0  0  0  0  3  0  0  0  0  0  0
  -28.3270  -26.4200   20.2700 O   0  0  0  0  0  0  0  0  0  0  0  0
  -24.6270  -31.9300   23.2460 C   0  0  0  0  0  0  0  0  0  0  0  0
  -27.2430  -27.3300   20.2150 C   0  0  0  0  0  0  0  0  0  0  0  0
  -23.4300  -30.5200   21.6110 C   0  0  0  0  0  3  0  0  0  0  0  0
  -24.8870  -28.9750   20.1820 C   0  0  0  0  0  0  0  0  0  0  0  0
  -25.9690  -30.8480   21.4170 C   0  0  0  0  0  2  0  0  0  0  0  0
  -26.0590  -29.4610   20.7800 C   0  0  0  0  0  0  0  0  0  0  0  0
  -27.2430  -28.6520   20.7810 C   0  0  0  0  0  3  0  0  0  0  0  0
  -26.0570  -26.9260   19.5660 C   0  0  0  0  0  3  0  0  0  0  0  0
  -24.8940  -27.7190   19.5570 C   0  0  0  0  0  3  0  0  0  0  0  0
  -23.6440  -29.8430   20.2310 C   0  0  0  0  0  2  0  0  0  0  0  0
  -24.6950  -31.1190   22.1480 N   0  0  0  0  0  0  0  0  0  0  0  0
  -23.5440  -32.2010   23.7820 O   0  0  0  0  0  0  0  0  0  0  0  0
  -22.7770  -29.5010   22.5760 C   0  0  0  0  0  0  0  0  0  0  0  0
  -21.4500  -29.3170   22.4560 N   0  0  0  0  0  0  0  0  0  0  0  0
  -23.4630  -28.8780   23.3900 O   0  0  0  0  0  0  0  0  0  0  0  0
  -20.9570  -29.8710   21.7700 H   0  0  0  0  0  0  0  0  0  0  0  0
  -18.0830  -28.0870   22.9590 C   0  0  0  0  0  0  0  0  0  0  0  0
  -20.6390  -28.3760   23.2310 C   0  0  0  0  0  3  0  0  0  0  0  0
  -20.7580  -26.9430   22.6610 C   0  0  0  0  0  2  0  0  0  0  0  0
  -19.6610  -26.6030   21.6480 C   0  0  0  0  0  2  0  0  0  0  0  0
  -18.2760  -26.7360   22.2890 C   0  0  0  0  0  2  0  0  0  0  0  0
  -19.1940  -28.8640   23.3860 C   0  0  0  0  0  0  0  0  0  0  0  0
  -18.9590  -30.1250   23.9750 C   0  0  0  0  0  3  0  0  0  0  0  0
  -17.6500  -30.6110   24.1400 C   0  0  0  0  0  3  0  0  0  0  0  0
  -16.5540  -29.8320   23.7310 C   0  0  0  0  0  3  0  0  0  0  0  0
  -16.7730  -28.5730   23.1430 C   0  0  0  0  0  3  0  0  0  0  0  0
  -25.9040  -32.5750   23.8650 C   0  0  0  0  0  3  0  0  0  0  0  0
  -26.4180  -31.8200   25.1540 C   0  0  1  0  0  0  0  0  0  0  0  0
  -25.3180  -31.5870   26.2170 C   0  0  0  0  0  1  0  0  0  0  0  0
  -27.0060  -30.4390   24.7770 C   0  0  0  0  0  1  0  0  0  0  0  0
  -27.5600  -32.6250   25.8180 C   0  0  0  0  0  1  0  0  0  0  0  0
  -25.5860  -33.9760   24.1830 N   0  0  0  0  0  0  0  0  0  0  0  0
  -25.9240  -35.0270   23.4230 C   0  0  0  0  0  0  0  0  0  0  0  0
  -26.6010  -34.9190   22.3970 O   0  0  0  0  0  0  0  0  0  0  0  0
  -24.9760  -34.1330   24.9710 H   0  0  0  0  0  0  0  0  0  0  0  0
  -24.1990  -36.8220   23.0460 C   0  0  0  0  0  1  0  0  0  0  0  0
  -25.4320  -36.4170   23.8700 C   0  0  0  0  0  3  0  0  0  0  0  0
  -27.5580  -37.3020   24.7250 C   0  0  0  0  0  1  0  0  0  0  0  0
  -26.4660  -37.4700   23.7700 N   0  0  0  0  0  0  0  0  0  0  0  0
  -26.0560  -38.3890   23.9160 H   0  0  0  0  0  0  0  0  0  0  0  0
  1  3  2  0
  2 14  1  0
  2  1  1  0
  4  2  1  0
  5 17  1  0
  6 11  1  0
  7  8  1  0
  7  6  1  0
  9  8  1  0
  9 23  1  0
  9 10  1  0
 11  5  1  0
 11 10  1  0
 12  5  2  0
 13 18  1  0
 13 48  1  0
 14 13  2  0
 15 18  1  0
 16 15  2  0
 16 14  1  0
 17 15  1  0
 19 17  1  0
 20 21  2  0
 21 40  1  0
 22 21  1  0
 22 25  1  0
 23 24  1  0
 23 20  1  0
 24 22  2  0
 25 26  1  0
 26 27  2  0
 28 31  1  0
 28 27  1  0
 29 28  2  0
 30 29  1  0
 30 25  2  0
 31 32  1  0
 32 33  1  0
 33 34  2  0
 35 34  1  0
 35 39  1  0
 36 35  2  0
 37 32  2  0
 37 36  1  0
 38 37  1  0
 40 41  1  0
 41 44  1  0
 41 43  1  0
 42 40  2  0
 45 20  1  0
 45 46  1  0
 47 45  1  0
 48 51  1  1
 48 50  1  0
 49 48  1  0
 52 54  1  0
 52  1  1  0
 54 53  1  0
 55 54  1  0
 56 67  2  0
 57 55  1  0
 57 62  1  0
 58 66  1  0
 58 68  1  0
 59 65  1  0
 59 61  1  0
 60 66  1  0
 61 62  2  0
 61 60  1  0
 63 57  2  0
 64 63  1  0
 64 59  2  0
 65 58  1  0
 66 56  1  0
 68 70  2  0
 69 68  1  0
 71 69  1  0
 72 81  2  0
 72 77  1  0
 73 69  1  0
 73 77  1  0
 74 73  1  0
 75 76  1  0
 75 74  1  0
 76 72  1  0
 77 78  2  0
 78 79  1  0
 80 79  2  0
 81 80  1  0
 82 56  1  0
 82 87  1  0
 82 83  1  0
 83 86  1  1
 83 84  1  0
 85 83  1  0
 87 90  1  0
 88 92  1  0
 88 87  1  0
 89 88  2  0
 92 91  1  0
 94 92  1  0
 94 95  1  0
 94 93  1  0
M  ISO  4   5 100  17 100  54 101  55 101
M  END
>  <TORSDO>  (29) 
F 19

>  <SCORE>  (29) 
-14.794

>  <name>  (29) 
28

>  <ligand_id>  (29) 
28

>  <original_smiles>  (29) 
[H]c1c([H])c([H])c2c(c1[H])C([H])([H])C([H])([H])C([H])([H])C2([H])N([H])C(=O)C1([H])N(C(=O)C([H])(N([H])C(=O)C([H])(N([H])C([H])([H])[H])C([H])([H])[H])C(C([H])([H])[H])(C([H])([H])[H])C([H])([H])[H])C([H])([H])c2c([H])c(OC([H])(C([H])([H])[H])C([H])([H])C(=O)N([H])c3nc(N([H])C(=O)N4C([H])([H])C([H])([H])C([H])([H])C([H])(n5nc(-c6c([H])c([H])c(Oc7c([H])c([H])c(F)c([H])c7F)c([H])c6[H])c(C(=O)N([H])[H])c5N([H])[H])C4([H])[H])sc3C(F)(F)F)c([H])c([H])c2C1([H])[H]

>  <smiles>  (29) 
[H]c1c([H])c([H])c2c(c1[H])C([H])([H])C([H])([H])C([H])([H])C2([H])N([H])C(=O)C1([H])N(C(=O)C([H])(N([H])C(=O)C([H])(N([H])C([H])([H])[H])C([H])([H])[H])C(C([H])([H])[H])(C([H])([H])[H])C([H])([H])[H])C([H])([H])c2c([H])c(OC([H])(C([H])([H])[H])C([H])([H])C(=O)N([H])c3nc(N([H])C(=O)N4C([H])([H])C([H])([H])C([H])([H])C([H])(n5nc(-c6c([H])c([H])c(Oc7c([H])c([H])c(F)c([H])c7F)c([H])c6[H])c(C(=O)N([H])[H])c5N([H])[H])C4([H])[H])sc3C(F)(F)F)c([H])c([H])c2C1([H])[H]

$$$$
29:0:0
     RDKit          3D

 99107  0  0  1  0  0  0  0  0999 V2000
  -30.4020  -21.0860   20.4520 C   0  0  0  0  0  0  0  0  0  0  0  0
  -29.2850  -21.8570   20.4790 N   0  0  0  0  0  0  0  0  0  0  0  0
  -31.4780  -21.6030   20.1480 O   0  0  0  0  0  0  0  0  0  0  0  0
  -28.4030  -21.4450   20.7480 H   0  0  0  0  0  0  0  0  0  0  0  0
  -30.6170  -14.6310   20.4130 C   0  0  0  0  0  0  0  0  0  0  0  0
  -30.3780  -12.4210   19.3200 C   0  0  0  0  0  2  0  0  0  0  0  0
  -29.4360  -12.5770   18.1070 C   0  0  0  0  0  2  0  0  0  0  0  0
  -27.9590  -12.4290   18.5290 C   0  0  0  0  0  2  0  0  0  0  0  0
  -27.6050  -13.2730   19.7840 C   0  0  0  0  0  3  0  0  0  0  0  0
  -28.6650  -13.1010   20.8950 C   0  0  0  0  0  2  0  0  0  0  0  0
  -29.9740  -13.4300   20.3120 N   0  0  0  0  0  0  0  0  0  0  0  0
  -31.7970  -14.7600   20.0700 O   0  0  0  0  0  0  0  0  0  0  0  0
  -30.4270  -19.6170   20.8290 C   0  0  0  0  0  0  0  0  0  0  0  0
  -31.3930  -18.8950   21.5180 C   0  0  0  0  0  0  0  0  0  0  0  0
  -30.1680  -17.1020   20.7860 C   0  0  0  0  0  0  0  0  0  0  0  0
  -31.2280  -17.5040   21.4960 N   0  0  0  0  0  0  0  0  0  0  0  0
  -29.8170  -15.7080   20.6500 N   0  0  0  0  0  0  0  0  0  0  0  0
  -29.2370  -18.4930   20.1550 S   0  0  0  0  0  0  0  0  0  0  0  0
  -28.8300  -15.5080   20.6570 H   0  0  0  0  0  0  0  0  0  0  0  0
  -25.2090  -13.8650   20.5020 C   0  0  0  0  0  0  0  0  0  0  0  0
  -24.1450  -13.0880   20.8700 C   0  0  0  0  0  0  0  0  0  0  0  0
  -24.6120  -11.7390   20.8370 C   0  0  0  0  0  0  0  0  0  0  0  0
  -26.2570  -12.9870   20.2680 N   0  0  0  0  0  0  0  0  0  0  0  0
  -25.9040  -11.7040   20.5310 N   0  0  0  0  0  0  0  0  0  0  0  0
  -23.8900  -10.4730   21.0260 C   0  0  0  0  0  0  0  0  0  0  0  0
  -24.3150   -9.5120   21.9700 C   0  0  0  0  0  3  0  0  0  0  0  0
  -23.5920   -8.3140   22.1430 C   0  0  0  0  0  3  0  0  0  0  0  0
  -22.4310   -8.0670   21.3740 C   0  0  0  0  0  0  0  0  0  0  0  0
  -22.0260   -9.0160   20.4190 C   0  0  0  0  0  3  0  0  0  0  0  0
  -22.7500  -10.2070   20.2430 C   0  0  0  0  0  3  0  0  0  0  0  0
  -21.6780   -6.9190   21.4580 O   0  0  0  0  0  0  0  0  0  0  0  0
  -21.6100   -6.1850   22.6150 C   0  0  0  0  0  0  0  0  0  0  0  0
  -21.1360   -6.7420   23.8230 C   0  0  0  0  0  3  0  0  0  0  0  0
  -21.0160   -5.9340   24.9720 C   0  0  0  0  0  3  0  0  0  0  0  0
  -21.3630   -4.5710   24.9130 C   0  0  0  0  0  0  0  0  0  0  0  0
  -21.8320   -4.0140   23.7100 C   0  0  0  0  0  3  0  0  0  0  0  0
  -21.9530   -4.8190   22.5650 C   0  0  0  0  0  0  0  0  0  0  0  0
  -22.3830   -4.2730   21.4010 F   0  0  0  0  0  0  0  0  0  0  0  0
  -21.2430   -3.7920   26.0130 F   0  0  0  0  0  0  0  0  0  0  0  0
  -22.7460  -13.5610   21.1390 C   0  0  0  0  0  0  0  0  0  0  0  0
  -22.0150  -12.8540   21.9950 N   0  0  0  0  0  0  0  0  0  0  0  0
  -22.3080  -14.5890   20.6260 O   0  0  0  0  0  0  0  0  0  0  0  0
  -22.3820  -12.0200   22.4300 H   0  0  0  0  0  0  0  0  0  0  0  0
  -21.0760  -13.1500   22.2170 H   0  0  0  0  0  0  0  0  0  0  0  0
  -25.3680  -15.2370   20.3250 N   0  0  0  0  0  0  0  0  0  0  0  0
  -24.5910  -15.8800   20.4370 H   0  0  0  0  0  0  0  0  0  0  0  0
  -26.1960  -15.6830   19.9560 H   0  0  0  0  0  0  0  0  0  0  0  0
  -32.5020  -19.4010   22.2030 N   0  0  0  0  0  0  0  0  0  0  0  0
  -32.8040  -20.3530   22.0160 H   0  0  0  0  0  0  0  0  0  0  0  0
  -33.2490  -18.7690   22.4750 H   0  0  0  0  0  0  0  0  0  0  0  0
  -29.2580  -23.2950   20.0320 C   0  0  0  0  0  3  0  0  0  0  0  0
  -29.0460  -23.3830   18.5030 C   0  0  2  0  0  0  0  0  0  0  0  0
  -30.0260  -22.7720   17.8370 F   0  0  0  0  0  0  0  0  0  0  0  0
  -29.0130  -24.6540   18.0990 F   0  0  0  0  0  0  0  0  0  0  0  0
  -27.8880  -22.8130   18.1650 F   0  0  0  0  0  0  0  0  0  0  0  0
  -28.2740  -24.2300   20.8140 C   0  0  0  0  0  0  0  0  0  0  0  0
  -27.1720  -23.8260   21.2040 O   0  0  0  0  0  0  0  0  0  0  0  0
  -28.7060  -25.6920   21.1680 C   0  0  0  0  0  2  0  0  0  0  0  0
  -28.4630  -26.6810   20.1360 O   0  0  0  0  0  0  0  0  0  0  0  0
  -24.6040  -31.9000   23.2370 C   0  0  0  0  0  0  0  0  0  0  0  0
  -27.3030  -27.4300   20.2130 C   0  0  0  0  0  0  0  0  0  0  0  0
  -23.4280  -30.4940   21.5780 C   0  0  0  0  0  3  0  0  0  0  0  0
  -24.9090  -28.9520   20.1810 C   0  0  0  0  0  0  0  0  0  0  0  0
  -25.9550  -30.8560   21.4150 C   0  0  0  0  0  2  0  0  0  0  0  0
  -26.0570  -29.4750   20.7890 C   0  0  0  0  0  0  0  0  0  0  0  0
  -27.2590  -28.7190   20.8060 C   0  0  0  0  0  3  0  0  0  0  0  0
  -26.1390  -26.9330   19.5950 C   0  0  0  0  0  3  0  0  0  0  0  0
  -24.9450  -27.6820   19.5810 C   0  0  0  0  0  3  0  0  0  0  0  0
  -23.6610  -29.8080   20.2040 C   0  0  0  0  0  2  0  0  0  0  0  0
  -24.6800  -31.0990   22.1360 N   0  0  0  0  0  0  0  0  0  0  0  0
  -23.5140  -32.1710   23.7610 O   0  0  0  0  0  0  0  0  0  0  0  0
  -22.7620  -29.4750   22.5310 C   0  0  0  0  0  0  0  0  0  0  0  0
  -21.4400  -29.2900   22.3810 N   0  0  0  0  0  0  0  0  0  0  0  0
  -23.4320  -28.8490   23.3560 O   0  0  0  0  0  0  0  0  0  0  0  0
  -20.9590  -29.8470   21.6890 H   0  0  0  0  0  0  0  0  0  0  0  0
  -18.0560  -28.1000   22.8420 C   0  0  0  0  0  0  0  0  0  0  0  0
  -20.6130  -28.3480   23.1360 C   0  0  0  0  0  3  0  0  0  0  0  0
  -20.7180  -26.9220   22.5500 C   0  0  0  0  0  2  0  0  0  0  0  0
  -19.6230  -26.6090   21.5240 C   0  0  0  0  0  2  0  0  0  0  0  0
  -18.2350  -26.7540   22.1570 C   0  0  0  0  0  2  0  0  0  0  0  0
  -19.1730  -28.8550   23.2880 C   0  0  0  0  0  0  0  0  0  0  0  0
  -18.9550  -30.1150   23.8850 C   0  0  0  0  0  3  0  0  0  0  0  0
  -17.6500  -30.6210   24.0410 C   0  0  0  0  0  3  0  0  0  0  0  0
  -16.5470  -29.8610   23.6130 C   0  0  0  0  0  3  0  0  0  0  0  0
  -16.7520  -28.6030   23.0220 C   0  0  0  0  0  3  0  0  0  0  0  0
  -25.8780  -32.5350   23.8760 C   0  0  0  0  0  3  0  0  0  0  0  0
  -25.5680  -33.9350   24.1920 N   0  0  0  0  0  0  0  0  0  0  0  0
  -25.9160  -34.9810   23.4300 C   0  0  0  0  0  0  0  0  0  0  0  0
  -26.6030  -34.8670   22.4120 O   0  0  0  0  0  0  0  0  0  0  0  0
  -24.9620  -34.0980   24.9820 H   0  0  0  0  0  0  0  0  0  0  0  0
  -24.2060  -36.7760   23.0180 C   0  0  0  0  0  1  0  0  0  0  0  0
  -25.4210  -36.3710   23.8690 C   0  0  0  0  0  3  0  0  0  0  0  0
  -27.5290  -37.2550   24.7610 C   0  0  0  0  0  1  0  0  0  0  0  0
  -26.4580  -37.4200   23.7810 N   0  0  0  0  0  0  0  0  0  0  0  0
  -26.0520  -38.3430   23.9130 H   0  0  0  0  0  0  0  0  0  0  0  0
  -26.3730  -31.7710   25.1660 C   0  0  1  0  0  0  0  0  0  0  0  0
  -25.2600  -31.5380   26.2150 C   0  0  0  0  0  1  0  0  0  0  0  0
  -26.9650  -30.3920   24.7880 C   0  0  0  0  0  1  0  0  0  0  0  0
  -27.5110  -32.5690   25.8440 C   0  0  0  0  0  1  0  0  0  0  0  0
  1  2  1  0
  1 13  1  0
  2  4  1  0
  3  1  2  0
  5 17  1  0
  6 11  1  0
  7  8  1  0
  7  6  1  0
  9  8  1  0
  9 23  1  0
  9 10  1  0
 11  5  1  0
 11 10  1  0
 12  5  2  0
 13 14  2  0
 14 48  1  0
 15 16  2  0
 16 14  1  0
 17 19  1  0
 17 15  1  0
 18 15  1  0
 18 13  1  0
 20 21  2  0
 21 40  1  0
 22 21  1  0
 22 25  1  0
 23 20  1  0
 23 24  1  0
 24 22  2  0
 25 26  1  0
 26 27  2  0
 28 31  1  0
 28 27  1  0
 29 28  2  0
 30 29  1  0
 30 25  2  0
 31 32  1  0
 32 33  1  0
 33 34  2  0
 35 34  1  0
 35 39  1  0
 36 35  2  0
 37 32  2  0
 37 36  1  0
 38 37  1  0
 40 41  1  0
 41 44  1  0
 41 43  1  0
 42 40  2  0
 45 46  1  0
 45 20  1  0
 47 45  1  0
 48 50  1  0
 49 48  1  0
 51  2  1  0
 51 56  1  0
 52 51  1  0
 52 53  1  6
 54 52  1  0
 55 52  1  0
 56 58  1  0
 56 57  2  0
 59 61  1  0
 59 58  1  0
 60 71  2  0
 61 66  1  0
 62 70  1  0
 62 72  1  0
 63 69  1  0
 63 65  1  0
 64 70  1  0
 65 66  2  0
 65 64  1  0
 67 61  2  0
 68 67  1  0
 68 63  2  0
 69 62  1  0
 70 60  1  0
 72 74  2  0
 73 72  1  0
 75 73  1  0
 76 85  2  0
 76 81  1  0
 77 73  1  0
 77 81  1  0
 78 77  1  0
 79 80  1  0
 79 78  1  0
 80 76  1  0
 81 82  2  0
 82 83  1  0
 84 83  2  0
 85 84  1  0
 86 60  1  0
 86 87  1  0
 86 96  1  0
 87 90  1  0
 88 92  1  0
 88 87  1  0
 89 88  2  0
 92 91  1  0
 94 92  1  0
 94 95  1  0
 94 93  1  0
 96 99  1  1
 96 97  1  0
 98 96  1  0
M  ISO  4   5 100  17 100  58 101  59 101
M  END
>  <TORSDO>  (30) 
F 21

>  <SCORE>  (30) 
-14.055

>  <name>  (30) 
29

>  <ligand_id>  (30) 
29

>  <original_smiles>  (30) 
[H]c1c([H])c([H])c2c(c1[H])C([H])([H])C([H])([H])C([H])([H])C2([H])N([H])C(=O)C1([H])N(C(=O)C([H])(N([H])C(=O)C([H])(N([H])C([H])([H])[H])C([H])([H])[H])C(C([H])([H])[H])(C([H])([H])[H])C([H])([H])[H])C([H])([H])c2c([H])c(OC([H])([H])C(=O)C([H])(N([H])C(=O)c3sc(N([H])C(=O)N4C([H])([H])C([H])([H])C([H])([H])C([H])(n5nc(-c6c([H])c([H])c(Oc7c([H])c([H])c(F)c([H])c7F)c([H])c6[H])c(C(=O)N([H])[H])c5N([H])[H])C4([H])[H])nc3N([H])[H])C(F)(F)F)c([H])c([H])c2C1([H])[H]

>  <smiles>  (30) 
[H]c1c([H])c([H])c2c(c1[H])C([H])([H])C([H])([H])C([H])([H])C2([H])N([H])C(=O)C1([H])N(C(=O)C([H])(N([H])C(=O)C([H])(N([H])C([H])([H])[H])C([H])([H])[H])C(C([H])([H])[H])(C([H])([H])[H])C([H])([H])[H])C([H])([H])c2c([H])c(OC([H])([H])C(=O)C([H])(N([H])C(=O)c3sc(N([H])C(=O)N4C([H])([H])C([H])([H])C([H])([H])C([H])(n5nc(-c6c([H])c([H])c(Oc7c([H])c([H])c(F)c([H])c7F)c([H])c6[H])c(C(=O)N([H])[H])c5N([H])[H])C4([H])[H])nc3N([H])[H])C(F)(F)F)c([H])c([H])c2C1([H])[H]

$$$$
30:0:0
     RDKit          3D

 97105  0  0  1  0  0  0  0  0999 V2000
  -29.0110  -22.7940   20.1530 C   0  0  0  0  0  0  0  0  0  0  0  0
  -29.0630  -21.4850   20.6750 N   0  0  0  0  0  0  0  0  0  0  0  0
  -29.3390  -23.0440   18.9930 O   0  0  0  0  0  0  0  0  0  0  0  0
  -28.6120  -21.5200   21.5810 H   0  0  0  0  0  0  0  0  0  0  0  0
  -30.5740  -14.9220   20.1420 C   0  0  0  0  0  0  0  0  0  0  0  0
  -30.4040  -12.6210   19.1410 C   0  0  0  0  0  2  0  0  0  0  0  0
  -29.4290  -12.6750   17.9420 C   0  0  0  0  0  2  0  0  0  0  0  0
  -27.9710  -12.4850   18.4080 C   0  0  0  0  0  2  0  0  0  0  0  0
  -27.6260  -13.3550   19.6460 C   0  0  0  0  0  3  0  0  0  0  0  0
  -28.7190  -13.2710   20.7350 C   0  0  0  0  0  2  0  0  0  0  0  0
  -29.9880  -13.6670   20.1070 N   0  0  0  0  0  0  0  0  0  0  0  0
  -31.7420  -15.0390   19.7530 O   0  0  0  0  0  0  0  0  0  0  0  0
  -30.7770  -19.6660   19.9200 C   0  0  0  0  0  0  0  0  0  0  0  0
  -29.5330  -20.1750   20.3400 C   0  0  0  0  0  0  0  0  0  0  0  0
  -29.8530  -17.5140   20.3330 C   0  0  0  0  0  0  0  0  0  0  0  0
  -30.8990  -18.2240   19.8860 N   0  0  0  0  0  0  0  0  0  0  0  0
  -29.7640  -16.0180   20.4600 N   0  0  0  0  0  0  0  0  0  0  0  0
  -28.5650  -18.7100   20.7660 S   0  0  0  0  0  0  0  0  0  0  0  0
  -28.8700  -15.7170   20.8130 H   0  0  0  0  0  0  0  0  0  0  0  0
  -25.2620  -13.9270   20.4550 C   0  0  0  0  0  0  0  0  0  0  0  0
  -24.2110  -13.1480   20.8520 C   0  0  0  0  0  0  0  0  0  0  0  0
  -24.6730  -11.7980   20.7850 C   0  0  0  0  0  0  0  0  0  0  0  0
  -26.2980  -13.0530   20.1720 N   0  0  0  0  0  0  0  0  0  0  0  0
  -25.9540  -11.7660   20.4360 N   0  0  0  0  0  0  0  0  0  0  0  0
  -23.9530  -10.5320   20.9840 C   0  0  0  0  0  0  0  0  0  0  0  0
  -24.3960   -9.5650   21.9140 C   0  0  0  0  0  3  0  0  0  0  0  0
  -23.6730   -8.3670   22.0980 C   0  0  0  0  0  3  0  0  0  0  0  0
  -22.4930   -8.1260   21.3550 C   0  0  0  0  0  0  0  0  0  0  0  0
  -22.0700   -9.0830   20.4140 C   0  0  0  0  0  3  0  0  0  0  0  0
  -22.7940  -10.2720   20.2270 C   0  0  0  0  0  3  0  0  0  0  0  0
  -21.7400   -6.9810   21.4520 O   0  0  0  0  0  0  0  0  0  0  0  0
  -21.6850   -6.2520   22.6120 C   0  0  0  0  0  0  0  0  0  0  0  0
  -21.2120   -6.8100   23.8210 C   0  0  0  0  0  3  0  0  0  0  0  0
  -21.1060   -6.0050   24.9730 C   0  0  0  0  0  3  0  0  0  0  0  0
  -21.4610   -4.6430   24.9170 C   0  0  0  0  0  0  0  0  0  0  0  0
  -21.9240   -4.0860   23.7120 C   0  0  0  0  0  3  0  0  0  0  0  0
  -22.0330   -4.8870   22.5630 C   0  0  0  0  0  0  0  0  0  0  0  0
  -22.4610   -4.3400   21.3990 F   0  0  0  0  0  0  0  0  0  0  0  0
  -21.3520   -3.8670   26.0220 F   0  0  0  0  0  0  0  0  0  0  0  0
  -22.8230  -13.6200   21.1760 C   0  0  0  0  0  0  0  0  0  0  0  0
  -22.1210  -12.9090   22.0510 N   0  0  0  0  0  0  0  0  0  0  0  0
  -22.3710  -14.6550   20.6870 O   0  0  0  0  0  0  0  0  0  0  0  0
  -22.5020  -12.0700   22.4620 H   0  0  0  0  0  0  0  0  0  0  0  0
  -21.1900  -13.2040   22.3110 H   0  0  0  0  0  0  0  0  0  0  0  0
  -25.4170  -15.2990   20.2880 N   0  0  0  0  0  0  0  0  0  0  0  0
  -24.6420  -15.9420   20.4160 H   0  0  0  0  0  0  0  0  0  0  0  0
  -26.2360  -15.7430   19.8940 H   0  0  0  0  0  0  0  0  0  0  0  0
  -31.9600  -20.4860   19.6120 C   0  0  0  0  0  0  0  0  0  0  0  0
  -33.2900  -19.7450   19.4530 C   0  0  0  0  0  1  0  0  0  0  0  0
  -31.9900  -21.7160   19.5160 O   0  0  0  0  0  0  0  0  0  0  0  0
  -28.4720  -23.8260   21.1480 C   0  0  0  0  0  0  0  0  0  0  0  0
  -28.2080  -25.2290   21.1680 C   0  0  0  0  0  0  0  0  0  0  0  0
  -26.2360  -25.5700   22.8250 C   0  0  0  0  0  1  0  0  0  0  0  0
  -27.7300  -25.8120   22.5210 C   0  0  0  0  0  2  0  0  0  0  0  0
  -28.1880  -23.2160   22.3160 O   0  0  0  0  0  0  0  0  0  0  0  0
  -27.8250  -23.8850   22.8860 H   0  0  0  0  0  0  0  0  0  0  0  0
  -28.3340  -26.3200   20.2240 O   0  0  0  0  0  0  0  0  0  0  0  0
  -24.6060  -31.8770   23.1740 C   0  0  0  0  0  0  0  0  0  0  0  0
  -27.2940  -27.3010   20.1270 C   0  0  0  0  0  0  0  0  0  0  0  0
  -23.4390  -30.4750   21.5120 C   0  0  0  0  0  3  0  0  0  0  0  0
  -24.9280  -28.9520   20.0780 C   0  0  0  0  0  0  0  0  0  0  0  0
  -25.9800  -30.8140   21.3580 C   0  0  0  0  0  2  0  0  0  0  0  0
  -26.0910  -29.4380   20.6910 C   0  0  0  0  0  0  0  0  0  0  0  0
  -27.2820  -28.6320   20.6920 C   0  0  0  0  0  3  0  0  0  0  0  0
  -26.1120  -26.8990   19.4770 C   0  0  0  0  0  3  0  0  0  0  0  0
  -24.9470  -27.6950   19.4520 C   0  0  0  0  0  3  0  0  0  0  0  0
  -23.6770  -29.8130   20.1290 C   0  0  0  0  0  2  0  0  0  0  0  0
  -24.6930  -31.0760   22.0700 N   0  0  0  0  0  0  0  0  0  0  0  0
  -23.5140  -32.1390   23.6990 O   0  0  0  0  0  0  0  0  0  0  0  0
  -22.7760  -29.4470   22.4600 C   0  0  0  0  0  0  0  0  0  0  0  0
  -21.4510  -29.2650   22.3280 N   0  0  0  0  0  0  0  0  0  0  0  0
  -23.4540  -28.8180   23.2750 O   0  0  0  0  0  0  0  0  0  0  0  0
  -20.9600  -29.8220   21.6430 H   0  0  0  0  0  0  0  0  0  0  0  0
  -18.0800  -28.0430   22.8290 C   0  0  0  0  0  0  0  0  0  0  0  0
  -20.6390  -28.3120   23.0870 C   0  0  0  0  0  3  0  0  0  0  0  0
  -20.7420  -26.8890   22.4880 C   0  0  0  0  0  2  0  0  0  0  0  0
  -19.6360  -26.5800   21.4740 C   0  0  0  0  0  2  0  0  0  0  0  0
  -18.2580  -26.7080   22.1270 C   0  0  0  0  0  2  0  0  0  0  0  0
  -19.1970  -28.8030   23.2650 C   0  0  0  0  0  0  0  0  0  0  0  0
  -18.9750  -30.0540   23.8830 C   0  0  0  0  0  3  0  0  0  0  0  0
  -17.6680  -30.5430   24.0650 C   0  0  0  0  0  3  0  0  0  0  0  0
  -16.5660  -29.7800   23.6410 C   0  0  0  0  0  3  0  0  0  0  0  0
  -16.7720  -28.5320   23.0300 C   0  0  0  0  0  3  0  0  0  0  0  0
  -25.8730  -32.5240   23.8160 C   0  0  0  0  0  3  0  0  0  0  0  0
  -26.3850  -31.7520   25.0950 C   0  0  1  0  0  0  0  0  0  0  0  0
  -25.2820  -31.5010   26.1510 C   0  0  0  0  0  1  0  0  0  0  0  0
  -26.9890  -30.3810   24.7080 C   0  0  0  0  0  1  0  0  0  0  0  0
  -27.5140  -32.5610   25.7760 C   0  0  0  0  0  1  0  0  0  0  0  0
  -25.5370  -33.9150   24.1540 N   0  0  0  0  0  0  0  0  0  0  0  0
  -25.8600  -34.9810   23.4090 C   0  0  0  0  0  0  0  0  0  0  0  0
  -26.5360  -34.8970   22.3810 O   0  0  0  0  0  0  0  0  0  0  0  0
  -24.9350  -34.0550   24.9530 H   0  0  0  0  0  0  0  0  0  0  0  0
  -24.1130  -36.7580   23.0600 C   0  0  0  0  0  1  0  0  0  0  0  0
  -25.3500  -36.3580   23.8790 C   0  0  0  0  0  3  0  0  0  0  0  0
  -27.4600  -37.2630   24.7500 C   0  0  0  0  0  1  0  0  0  0  0  0
  -26.3710  -37.4240   23.7910 N   0  0  0  0  0  0  0  0  0  0  0  0
  -25.9520  -38.3380   23.9360 H   0  0  0  0  0  0  0  0  0  0  0  0
  1  2  1  0
  1 51  1  0
  2  4  1  0
  3  1  2  0
  5 17  1  0
  6 11  1  0
  7  8  1  0
  7  6  1  0
  9  8  1  0
  9 23  1  0
  9 10  1  0
 11  5  1  0
 11 10  1  0
 12  5  2  0
 13 14  2  0
 14  2  1  0
 14 18  1  0
 15 17  1  0
 15 18  1  0
 16 13  1  0
 16 15  2  0
 17 19  1  0
 20 21  2  0
 21 40  1  0
 22 21  1  0
 22 25  1  0
 23 24  1  0
 23 20  1  0
 24 22  2  0
 25 26  1  0
 26 27  2  0
 28 31  1  0
 28 27  1  0
 29 28  2  0
 30 29  1  0
 30 25  2  0
 31 32  1  0
 32 33  1  0
 33 34  2  0
 35 34  1  0
 35 39  1  0
 36 35  2  0
 37 32  2  0
 37 36  1  0
 38 37  1  0
 40 41  1  0
 41 44  1  0
 41 43  1  0
 42 40  2  0
 45 46  1  0
 45 20  1  0
 47 45  1  0
 48 13  1  0
 49 48  1  0
 50 48  2  0
 51 52  2  0
 51 55  1  0
 52 54  1  0
 54 53  1  0
 55 56  1  0
 57 52  1  0
 58 69  2  0
 59 57  1  0
 59 64  1  0
 60 68  1  0
 60 70  1  0
 61 67  1  0
 61 63  1  0
 62 68  1  0
 63 64  2  0
 63 62  1  0
 65 59  2  0
 66 65  1  0
 66 61  2  0
 67 60  1  0
 68 58  1  0
 70 72  2  0
 71 70  1  0
 73 71  1  0
 74 83  2  0
 74 79  1  0
 75 71  1  0
 75 79  1  0
 76 75  1  0
 77 78  1  0
 77 76  1  0
 78 74  1  0
 79 80  2  0
 80 81  1  0
 82 81  2  0
 83 82  1  0
 84 58  1  0
 84 89  1  0
 84 85  1  0
 85 88  1  1
 85 86  1  0
 87 85  1  0
 89 92  1  0
 90 94  1  0
 90 89  1  0
 91 90  2  0
 94 93  1  0
 96 94  1  0
 96 97  1  0
 96 95  1  0
M  ISO  4   5 100  17 100  52 101  57 101
M  END
>  <TORSDO>  (31) 
F 20

>  <SCORE>  (31) 
-14.271

>  <name>  (31) 
30

>  <ligand_id>  (31) 
30

>  <original_smiles>  (31) 
[H]OC(C(=O)N([H])c1sc(N([H])C(=O)N2C([H])([H])C([H])([H])C([H])([H])C([H])(n3nc(-c4c([H])c([H])c(Oc5c([H])c([H])c(F)c([H])c5F)c([H])c4[H])c(C(=O)N([H])[H])c3N([H])[H])C2([H])[H])nc1C(=O)C([H])([H])[H])=C(Oc1c([H])c([H])c2c(c1[H])C([H])([H])N(C(=O)C([H])(N([H])C(=O)C([H])(N([H])C([H])([H])[H])C([H])([H])[H])C(C([H])([H])[H])(C([H])([H])[H])C([H])([H])[H])C([H])(C(=O)N([H])C1([H])c3c([H])c([H])c([H])c([H])c3C([H])([H])C([H])([H])C1([H])[H])C2([H])[H])C([H])([H])C([H])([H])[H]

>  <smiles>  (31) 
[H]OC(C(=O)N([H])c1sc(N([H])C(=O)N2C([H])([H])C([H])([H])C([H])([H])C([H])(n3nc(-c4c([H])c([H])c(Oc5c([H])c([H])c(F)c([H])c5F)c([H])c4[H])c(C(=O)N([H])[H])c3N([H])[H])C2([H])[H])nc1C(=O)C([H])([H])[H])=C(Oc1c([H])c([H])c2c(c1[H])C([H])([H])N(C(=O)C([H])(N([H])C(=O)C([H])(N([H])C([H])([H])[H])C([H])([H])[H])C(C([H])([H])[H])(C([H])([H])[H])C([H])([H])[H])C([H])(C(=O)N([H])C1([H])c3c([H])c([H])c([H])c([H])c3C([H])([H])C([H])([H])C1([H])[H])C2([H])[H])C([H])([H])C([H])([H])[H]

$$$$
31:0:0
     RDKit          3D

 93101  0  0  1  0  0  0  0  0999 V2000
  -28.8330  -22.4450   20.6830 C   0  0  0  0  0  0  0  0  0  0  0  0
  -28.6940  -22.3300   21.9060 O   0  0  0  0  0  0  0  0  0  0  0  0
  -28.9160  -21.0630   19.8320 C   0  0  2  0  0  0  0  0  0  0  0  0
  -29.5590  -21.3080   18.6880 F   0  0  0  0  0  0  0  0  0  0  0  0
  -27.6640  -20.7400   19.5000 F   0  0  0  0  0  0  0  0  0  0  0  0
  -30.5360  -14.8060   20.3490 C   0  0  0  0  0  0  0  0  0  0  0  0
  -30.3720  -12.5110   19.3500 C   0  0  0  0  0  2  0  0  0  0  0  0
  -29.4250  -12.5530   18.1300 C   0  0  0  0  0  2  0  0  0  0  0  0
  -27.9580  -12.3710   18.5690 C   0  0  0  0  0  2  0  0  0  0  0  0
  -27.5800  -13.2680   19.7760 C   0  0  0  0  0  3  0  0  0  0  0  0
  -28.6440  -13.2000   20.8940 C   0  0  0  0  0  2  0  0  0  0  0  0
  -29.9300  -13.5680   20.2890 N   0  0  0  0  0  0  0  0  0  0  0  0
  -31.7350  -14.9080   20.0720 O   0  0  0  0  0  0  0  0  0  0  0  0
  -29.5970  -19.6950   20.3680 C   0  0  0  0  0  0  0  0  0  0  0  0
  -29.9910  -17.3830   20.5180 C   0  0  0  0  0  3  0  0  0  0  0  0
  -29.1170  -18.3940   20.1990 N   0  0  0  0  0  0  0  0  0  0  0  0
  -30.8490  -19.6970   20.8860 N   0  0  0  0  0  2  0  0  0  0  0  0
  -29.7090  -15.9240   20.4540 N   0  0  0  0  0  0  0  0  0  0  0  0
  -31.4620  -18.1080   21.0930 S   0  0  0  0  0  0  0  0  0  0  0  0
  -28.7300  -15.6930   20.4830 H   0  0  0  0  0  0  0  0  0  0  0  0
  -25.1960  -13.8620   20.5120 C   0  0  0  0  0  0  0  0  0  0  0  0
  -24.1330  -13.0890   20.8900 C   0  0  0  0  0  0  0  0  0  0  0  0
  -24.5960  -11.7380   20.8620 C   0  0  0  0  0  0  0  0  0  0  0  0
  -26.2400  -12.9820   20.2750 N   0  0  0  0  0  0  0  0  0  0  0  0
  -25.8860  -11.7000   20.5480 N   0  0  0  0  0  0  0  0  0  0  0  0
  -23.8700  -10.4760   21.0560 C   0  0  0  0  0  0  0  0  0  0  0  0
  -24.3140   -9.5040   21.9780 C   0  0  0  0  0  3  0  0  0  0  0  0
  -23.5870   -8.3070   22.1610 C   0  0  0  0  0  3  0  0  0  0  0  0
  -22.4030   -8.0750   21.4200 C   0  0  0  0  0  0  0  0  0  0  0  0
  -21.9800   -9.0370   20.4860 C   0  0  0  0  0  3  0  0  0  0  0  0
  -22.7070  -10.2240   20.3010 C   0  0  0  0  0  3  0  0  0  0  0  0
  -21.6480   -6.9310   21.5130 O   0  0  0  0  0  0  0  0  0  0  0  0
  -21.6230   -6.1760   22.6580 C   0  0  0  0  0  0  0  0  0  0  0  0
  -21.2360   -6.7210   23.9010 C   0  0  0  0  0  3  0  0  0  0  0  0
  -21.1570   -5.8930   25.0400 C   0  0  0  0  0  3  0  0  0  0  0  0
  -21.4540   -4.5220   24.9350 C   0  0  0  0  0  0  0  0  0  0  0  0
  -21.8350   -3.9760   23.6960 C   0  0  0  0  0  3  0  0  0  0  0  0
  -21.9150   -4.8000   22.5600 C   0  0  0  0  0  0  0  0  0  0  0  0
  -22.2620   -4.2660   21.3640 F   0  0  0  0  0  0  0  0  0  0  0  0
  -21.3720   -3.7240   26.0250 F   0  0  0  0  0  0  0  0  0  0  0  0
  -22.7360  -13.5670   21.1610 C   0  0  0  0  0  0  0  0  0  0  0  0
  -22.0090  -12.8740   22.0290 N   0  0  0  0  0  0  0  0  0  0  0  0
  -22.2980  -14.5920   20.6390 O   0  0  0  0  0  0  0  0  0  0  0  0
  -22.3750  -12.0450   22.4730 H   0  0  0  0  0  0  0  0  0  0  0  0
  -21.0720  -13.1770   22.2540 H   0  0  0  0  0  0  0  0  0  0  0  0
  -25.3560  -15.2320   20.3280 N   0  0  0  0  0  0  0  0  0  0  0  0
  -24.5780  -15.8760   20.4270 H   0  0  0  0  0  0  0  0  0  0  0  0
  -26.1820  -15.6730   19.9440 H   0  0  0  0  0  0  0  0  0  0  0  0
  -28.2130  -25.0210   20.6110 C   0  0  0  0  0  3  0  0  0  0  0  0
  -28.8350  -23.8940   20.0740 C   0  0  0  0  0  0  0  0  0  0  0  0
  -29.5620  -24.0630   18.9610 O   0  0  0  0  0  0  0  0  0  0  0  0
  -29.5010  -24.9820   18.7320 H   0  0  0  0  0  0  0  0  0  0  0  0
  -28.3160  -26.3800   20.1660 O   0  0  0  0  0  0  0  0  0  0  0  0
  -24.6240  -31.8960   23.2210 C   0  0  0  0  0  0  0  0  0  0  0  0
  -27.2110  -27.2650   20.1970 C   0  0  0  0  0  0  0  0  0  0  0  0
  -23.4130  -30.4890   21.5920 C   0  0  0  0  0  3  0  0  0  0  0  0
  -24.8580  -28.9170   20.1750 C   0  0  0  0  0  0  0  0  0  0  0  0
  -25.9570  -30.7900   21.4030 C   0  0  0  0  0  2  0  0  0  0  0  0
  -26.0320  -29.4000   20.7680 C   0  0  0  0  0  0  0  0  0  0  0  0
  -27.2140  -28.5860   20.7650 C   0  0  0  0  0  3  0  0  0  0  0  0
  -26.0140  -26.8470   19.5840 C   0  0  0  0  0  3  0  0  0  0  0  0
  -24.8540  -27.6480   19.5730 C   0  0  0  0  0  3  0  0  0  0  0  0
  -23.6260  -29.8020   20.2170 C   0  0  0  0  0  2  0  0  0  0  0  0
  -24.6850  -31.0780   22.1290 N   0  0  0  0  0  0  0  0  0  0  0  0
  -23.5420  -32.1790   23.7570 O   0  0  0  0  0  0  0  0  0  0  0  0
  -22.7490  -29.4830   22.5620 C   0  0  0  0  0  0  0  0  0  0  0  0
  -21.4210  -29.3120   22.4450 N   0  0  0  0  0  0  0  0  0  0  0  0
  -23.4280  -28.8580   23.3810 O   0  0  0  0  0  0  0  0  0  0  0  0
  -20.9310  -29.8680   21.7590 H   0  0  0  0  0  0  0  0  0  0  0  0
  -18.0410  -28.1250   22.9690 C   0  0  0  0  0  0  0  0  0  0  0  0
  -20.6030  -28.3800   23.2250 C   0  0  0  0  0  3  0  0  0  0  0  0
  -20.6980  -26.9460   22.6560 C   0  0  0  0  0  2  0  0  0  0  0  0
  -19.5900  -26.6210   21.6480 C   0  0  0  0  0  2  0  0  0  0  0  0
  -18.2120  -26.7720   22.2990 C   0  0  0  0  0  2  0  0  0  0  0  0
  -19.1650  -28.8870   23.3900 C   0  0  0  0  0  0  0  0  0  0  0  0
  -18.9510  -30.1520   23.9780 C   0  0  0  0  0  3  0  0  0  0  0  0
  -17.6480  -30.6560   24.1490 C   0  0  0  0  0  3  0  0  0  0  0  0
  -16.5400  -29.8910   23.7440 C   0  0  0  0  0  3  0  0  0  0  0  0
  -16.7380  -28.6280   23.1600 C   0  0  0  0  0  3  0  0  0  0  0  0
  -25.9080  -32.5310   23.8370 C   0  0  0  0  0  3  0  0  0  0  0  0
  -26.4340  -31.7590   25.1090 C   0  0  1  0  0  0  0  0  0  0  0  0
  -25.3490  -31.5190   26.1850 C   0  0  0  0  0  1  0  0  0  0  0  0
  -27.0150  -30.3820   24.7130 C   0  0  0  0  0  1  0  0  0  0  0  0
  -27.5890  -32.5530   25.7640 C   0  0  0  0  0  1  0  0  0  0  0  0
  -25.5960  -33.9270   24.1760 N   0  0  0  0  0  0  0  0  0  0  0  0
  -25.9210  -34.9860   23.4210 C   0  0  0  0  0  0  0  0  0  0  0  0
  -26.5830  -34.8890   22.3840 O   0  0  0  0  0  0  0  0  0  0  0  0
  -25.0070  -34.0760   24.9810 H   0  0  0  0  0  0  0  0  0  0  0  0
  -24.1860  -36.7790   23.0920 C   0  0  0  0  0  1  0  0  0  0  0  0
  -25.4360  -36.3720   23.8900 C   0  0  0  0  0  3  0  0  0  0  0  0
  -27.5770  -37.2560   24.7040 C   0  0  0  0  0  1  0  0  0  0  0  0
  -26.4650  -37.4270   23.7720 N   0  0  0  0  0  0  0  0  0  0  0  0
  -26.0590  -38.3450   23.9280 H   0  0  0  0  0  0  0  0  0  0  0  0
  1  2  2  0
  3 14  1  0
  3  1  1  0
  3  4  1  6
  5  3  1  0
  6 18  1  0
  7 12  1  0
  8  9  1  0
  8  7  1  0
 10  9  1  0
 10 24  1  0
 10 11  1  0
 12  6  1  0
 12 11  1  0
 13  6  2  0
 14 17  1  0
 15 18  1  0
 15 19  1  0
 16 14  2  0
 16 15  1  0
 17 19  1  0
 18 20  1  0
 21 22  2  0
 22 41  1  0
 23 22  1  0
 23 26  1  0
 24 21  1  0
 24 25  1  0
 25 23  2  0
 26 27  1  0
 27 28  2  0
 29 32  1  0
 29 28  1  0
 30 29  2  0
 31 30  1  0
 31 26  2  0
 32 33  1  0
 33 34  1  0
 34 35  2  0
 36 35  1  0
 36 40  1  0
 37 36  2  0
 38 33  2  0
 38 37  1  0
 39 38  1  0
 41 42  1  0
 42 45  1  0
 42 44  1  0
 43 41  2  0
 46 47  1  0
 46 21  1  0
 48 46  1  0
 50 49  2  0
 50  1  1  0
 51 50  1  0
 52 51  1  0
 53 55  1  0
 53 49  1  0
 54 65  2  0
 55 60  1  0
 56 64  1  0
 56 66  1  0
 57 63  1  0
 57 59  1  0
 58 64  1  0
 59 58  1  0
 60 59  2  0
 61 55  2  0
 62 61  1  0
 62 57  2  0
 63 56  1  0
 64 54  1  0
 66 68  2  0
 67 66  1  0
 69 67  1  0
 70 79  2  0
 70 75  1  0
 71 67  1  0
 71 75  1  0
 72 71  1  0
 73 74  1  0
 73 72  1  0
 74 70  1  0
 75 76  2  0
 76 77  1  0
 78 77  2  0
 79 78  1  0
 80 54  1  0
 80 85  1  0
 80 81  1  0
 81 84  1  1
 81 82  1  0
 83 81  1  0
 85 88  1  0
 86 90  1  0
 86 85  1  0
 87 86  2  0
 90 89  1  0
 92 90  1  0
 92 93  1  0
 92 91  1  0
M  ISO  4   6 100  18 100  49 101  53 101
M  END
>  <TORSDO>  (32) 
F 19

>  <SCORE>  (32) 
-14.730

>  <name>  (32) 
31

>  <ligand_id>  (32) 
31

>  <original_smiles>  (32) 
[H]OC(C(=O)C(F)(F)c1nsc(N([H])C(=O)N2C([H])([H])C([H])([H])C([H])([H])C([H])(n3nc(-c4c([H])c([H])c(Oc5c([H])c([H])c(F)c([H])c5F)c([H])c4[H])c(C(=O)N([H])[H])c3N([H])[H])C2([H])[H])n1)=C([H])Oc1c([H])c([H])c2c(c1[H])C([H])([H])N(C(=O)C([H])(N([H])C(=O)C([H])(N([H])C([H])([H])[H])C([H])([H])[H])C(C([H])([H])[H])(C([H])([H])[H])C([H])([H])[H])C([H])(C(=O)N([H])C1([H])c3c([H])c([H])c([H])c([H])c3C([H])([H])C([H])([H])C1([H])[H])C2([H])[H]

>  <smiles>  (32) 
[H]OC(C(=O)C(F)(F)c1nsc(N([H])C(=O)N2C([H])([H])C([H])([H])C([H])([H])C([H])(n3nc(-c4c([H])c([H])c(Oc5c([H])c([H])c(F)c([H])c5F)c([H])c4[H])c(C(=O)N([H])[H])c3N([H])[H])C2([H])[H])n1)=C([H])Oc1c([H])c([H])c2c(c1[H])C([H])([H])N(C(=O)C([H])(N([H])C(=O)C([H])(N([H])C([H])([H])[H])C([H])([H])[H])C(C([H])([H])[H])(C([H])([H])[H])C([H])([H])[H])C([H])(C(=O)N([H])C1([H])c3c([H])c([H])c([H])c([H])c3C([H])([H])C([H])([H])C1([H])[H])C2([H])[H]

$$$$
32:0:0
     RDKit          3D

 96104  0  0  1  0  0  0  0  0999 V2000
  -27.7030  -20.6920   20.0840 C   0  0  0  0  0  2  0  0  0  0  0  0
  -27.5900  -22.1060   20.6900 C   0  0  0  0  0  3  0  0  0  0  0  0
  -27.8270  -22.0750   22.0020 F   0  0  0  0  0  0  0  0  0  0  0  0
  -28.5090  -23.1330   20.0080 C   0  0  0  0  0  2  0  0  0  0  0  0
  -28.1120  -24.5820   20.2710 C   0  0  0  0  0  0  0  0  0  0  0  0
  -27.7270  -24.9680   21.3820 O   0  0  0  0  0  0  0  0  0  0  0  0
  -28.2530  -25.5280   19.0740 C   0  0  0  0  0  2  0  0  0  0  0  0
  -28.1990  -26.8890   19.4860 O   0  0  0  0  0  0  0  0  0  0  0  0
  -24.5270  -31.7520   23.0720 C   0  0  0  0  0  0  0  0  0  0  0  0
  -26.9850  -27.5300   19.5860 C   0  0  0  0  0  0  0  0  0  0  0  0
  -23.2200  -30.4450   21.4250 C   0  0  0  0  0  3  0  0  0  0  0  0
  -24.5820  -28.9940   19.8350 C   0  0  0  0  0  0  0  0  0  0  0  0
  -25.7230  -30.8260   21.0980 C   0  0  0  0  0  2  0  0  0  0  0  0
  -25.7700  -29.4990   20.3760 C   0  0  0  0  0  0  0  0  0  0  0  0
  -26.9690  -28.7740   20.2500 C   0  0  0  0  0  3  0  0  0  0  0  0
  -25.7700  -27.0190   19.0620 C   0  0  0  0  0  3  0  0  0  0  0  0
  -24.5750  -27.7500   19.1830 C   0  0  0  0  0  3  0  0  0  0  0  0
  -23.3430  -29.8400   20.0020 C   0  0  0  0  0  2  0  0  0  0  0  0
  -24.5100  -31.0200   21.9230 N   0  0  0  0  0  0  0  0  0  0  0  0
  -23.4810  -31.9890   23.6930 O   0  0  0  0  0  0  0  0  0  0  0  0
  -22.6340  -29.3680   22.3630 C   0  0  0  0  0  0  0  0  0  0  0  0
  -21.3120  -29.1550   22.2700 N   0  0  0  0  0  0  0  0  0  0  0  0
  -23.3620  -28.7290   23.1270 O   0  0  0  0  0  0  0  0  0  0  0  0
  -20.7840  -29.7300   21.6310 H   0  0  0  0  0  0  0  0  0  0  0  0
  -18.0050  -27.8030   22.7700 C   0  0  0  0  0  0  0  0  0  0  0  0
  -20.5510  -28.1610   23.0250 C   0  0  0  0  0  3  0  0  0  0  0  0
  -20.7090  -26.7520   22.4110 C   0  0  0  0  0  2  0  0  0  0  0  0
  -19.6110  -26.4070   21.3970 C   0  0  0  0  0  2  0  0  0  0  0  0
  -18.2310  -26.4790   22.0580 C   0  0  0  0  0  2  0  0  0  0  0  0
  -19.0950  -28.6010   23.2080 C   0  0  0  0  0  0  0  0  0  0  0  0
  -18.8320  -29.8410   23.8280 C   0  0  0  0  0  3  0  0  0  0  0  0
  -17.5090  -30.2820   24.0220 C   0  0  0  0  0  3  0  0  0  0  0  0
  -16.4320  -29.4820   23.6010 C   0  0  0  0  0  3  0  0  0  0  0  0
  -16.6830  -28.2460   22.9800 C   0  0  0  0  0  3  0  0  0  0  0  0
  -25.8510  -32.3460   23.6450 C   0  0  0  0  0  3  0  0  0  0  0  0
  -25.5660  -33.7270   24.0560 N   0  0  0  0  0  0  0  0  0  0  0  0
  -25.8850  -34.8130   23.3420 C   0  0  0  0  0  0  0  0  0  0  0  0
  -26.5210  -34.7560   22.2840 O   0  0  0  0  0  0  0  0  0  0  0  0
  -24.9960  -33.8460   24.8820 H   0  0  0  0  0  0  0  0  0  0  0  0
  -24.1670  -36.6360   23.1290 C   0  0  0  0  0  1  0  0  0  0  0  0
  -25.4270  -36.1800   23.8820 C   0  0  0  0  0  3  0  0  0  0  0  0
  -27.5960  -37.0010   24.6900 C   0  0  0  0  0  1  0  0  0  0  0  0
  -26.4670  -37.2280   23.7910 N   0  0  0  0  0  0  0  0  0  0  0  0
  -26.0760  -38.1430   23.9980 H   0  0  0  0  0  0  0  0  0  0  0  0
  -26.4420  -31.5100   24.8470 C   0  0  1  0  0  0  0  0  0  0  0  0
  -25.4180  -31.2150   25.9670 C   0  0  0  0  0  1  0  0  0  0  0  0
  -26.9970  -30.1540   24.3490 C   0  0  0  0  0  1  0  0  0  0  0  0
  -27.6280  -32.2730   25.4800 C   0  0  0  0  0  1  0  0  0  0  0  0
  -29.0360  -20.3640   19.5780 N   0  0  0  0  0  0  0  0  0  0  0  0
  -29.0220  -20.1830   18.5760 H   0  0  0  0  0  0  0  0  0  0  0  0
  -30.1860  -18.2410   19.5880 C   0  0  0  0  0  3  0  0  0  0  0  0
  -31.2800  -17.3830   21.5920 C   0  0  0  0  0  3  0  0  0  0  0  0
  -30.9430  -17.2360   20.2290 C   0  0  0  0  0  0  0  0  0  0  0  0
  -29.7690  -19.3960   20.2820 C   0  0  0  0  0  0  0  0  0  0  0  0
  -30.8670  -18.5310   22.2940 C   0  0  0  0  0  0  0  0  0  0  0  0
  -30.1190  -19.5340   21.6480 C   0  0  0  0  0  0  0  0  0  0  0  0
  -31.1860  -18.6690   23.6040 F   0  0  0  0  0  0  0  0  0  0  0  0
  -29.7560  -20.6330   22.3480 F   0  0  0  0  0  0  0  0  0  0  0  0
  -32.0400  -15.0510   19.8230 C   0  0  0  0  0  0  0  0  0  0  0  0
  -31.6110  -12.8110   18.9530 C   0  0  0  0  0  2  0  0  0  0  0  0
  -30.6380  -12.9820   17.7690 C   0  0  0  0  0  2  0  0  0  0  0  0
  -29.1740  -12.9650   18.2620 C   0  0  0  0  0  2  0  0  0  0  0  0
  -28.9280  -13.9270   19.4540 C   0  0  0  0  0  3  0  0  0  0  0  0
  -30.0180  -13.7550   20.5370 C   0  0  0  0  0  2  0  0  0  0  0  0
  -31.3310  -13.9010   19.8910 N   0  0  0  0  0  0  0  0  0  0  0  0
  -33.2330  -15.1070   19.5120 O   0  0  0  0  0  0  0  0  0  0  0  0
  -31.2670  -16.0880   19.4670 N   0  0  0  0  0  0  0  0  0  0  0  0
  -31.3610  -16.2830   18.4810 H   0  0  0  0  0  0  0  0  0  0  0  0
  -26.6690  -14.7610   20.3590 C   0  0  0  0  0  0  0  0  0  0  0  0
  -25.5380  -14.0920   20.7470 C   0  0  0  0  0  0  0  0  0  0  0  0
  -25.8330  -12.7030   20.6020 C   0  0  0  0  0  0  0  0  0  0  0  0
  -27.5850  -13.7820   20.0070 N   0  0  0  0  0  0  0  0  0  0  0  0
  -27.0900  -12.5370   20.2090 N   0  0  0  0  0  0  0  0  0  0  0  0
  -24.9770  -11.5210   20.7540 C   0  0  0  0  0  0  0  0  0  0  0  0
  -25.3120  -10.4780   21.6450 C   0  0  0  0  0  3  0  0  0  0  0  0
  -24.4650   -9.3590   21.7880 C   0  0  0  0  0  3  0  0  0  0  0  0
  -23.2660   -9.2760   21.0410 C   0  0  0  0  0  0  0  0  0  0  0  0
  -22.9470  -10.3080   20.1400 C   0  0  0  0  0  3  0  0  0  0  0  0
  -23.7940  -11.4180   19.9940 C   0  0  0  0  0  3  0  0  0  0  0  0
  -22.3950   -8.2160   21.0960 O   0  0  0  0  0  0  0  0  0  0  0  0
  -22.2210   -7.4880   22.2460 C   0  0  0  0  0  0  0  0  0  0  0  0
  -21.8290   -8.0930   23.4600 C   0  0  0  0  0  3  0  0  0  0  0  0
  -21.5980   -7.2970   24.6000 C   0  0  0  0  0  3  0  0  0  0  0  0
  -21.7460   -5.8990   24.5260 C   0  0  0  0  0  0  0  0  0  0  0  0
  -22.1300   -5.2940   23.3150 C   0  0  0  0  0  3  0  0  0  0  0  0
  -22.3650   -6.0870   22.1780 C   0  0  0  0  0  0  0  0  0  0  0  0
  -22.7150   -5.4970   21.0090 F   0  0  0  0  0  0  0  0  0  0  0  0
  -21.5140   -5.1340   25.6180 F   0  0  0  0  0  0  0  0  0  0  0  0
  -24.2240  -14.7040   21.1370 C   0  0  0  0  0  0  0  0  0  0  0  0
  -23.4930  -14.0610   22.0410 N   0  0  0  0  0  0  0  0  0  0  0  0
  -23.8600  -15.7870   20.6790 O   0  0  0  0  0  0  0  0  0  0  0  0
  -23.7990  -13.1810   22.4290 H   0  0  0  0  0  0  0  0  0  0  0  0
  -22.6110  -14.4510   22.3430 H   0  0  0  0  0  0  0  0  0  0  0  0
  -26.9900  -16.1110   20.2570 N   0  0  0  0  0  0  0  0  0  0  0  0
  -26.3190  -16.8490   20.4410 H   0  0  0  0  0  0  0  0  0  0  0  0
  -27.8920  -16.4510   19.9440 H   0  0  0  0  0  0  0  0  0  0  0  0
  1  2  1  0
  2  3  1  0
  4  5  1  0
  4  2  1  0
  5  6  2  0
  7  8  1  0
  7  5  1  0
  8 10  1  0
  9 20  2  0
 10 15  1  0
 11 19  1  0
 11 21  1  0
 12 18  1  0
 12 14  1  0
 13 19  1  0
 14 13  1  0
 15 14  2  0
 16 17  1  0
 16 10  2  0
 17 12  2  0
 18 11  1  0
 19  9  1  0
 21 23  2  0
 22 21  1  0
 24 22  1  0
 25 34  2  0
 25 30  1  0
 26 22  1  0
 26 30  1  0
 27 26  1  0
 28 29  1  0
 28 27  1  0
 29 25  1  0
 30 31  2  0
 31 32  1  0
 33 32  2  0
 34 33  1  0
 35  9  1  0
 35 36  1  0
 35 45  1  0
 36 39  1  0
 37 41  1  0
 37 36  1  0
 38 37  2  0
 41 40  1  0
 43 41  1  0
 43 44  1  0
 43 42  1  0
 45 48  1  1
 45 46  1  0
 47 45  1  0
 49  1  1  0
 49 54  1  0
 50 49  1  0
 51 53  2  0
 51 54  1  0
 52 55  2  0
 53 52  1  0
 54 56  2  0
 55 57  1  0
 56 55  1  0
 56 58  1  0
 59 65  1  0
 60 65  1  0
 61 62  1  0
 61 60  1  0
 63 62  1  0
 63 72  1  0
 63 64  1  0
 65 64  1  0
 66 59  2  0
 67 59  1  0
 67 53  1  0
 68 67  1  0
 69 70  2  0
 70 89  1  0
 71 70  1  0
 71 74  1  0
 72 73  1  0
 72 69  1  0
 73 71  2  0
 74 75  1  0
 75 76  2  0
 77 80  1  0
 77 76  1  0
 78 77  2  0
 79 78  1  0
 79 74  2  0
 80 81  1  0
 81 82  1  0
 82 83  2  0
 84 83  1  0
 84 88  1  0
 85 84  2  0
 86 81  2  0
 86 85  1  0
 87 86  1  0
 89 90  1  0
 90 93  1  0
 90 92  1  0
 91 89  2  0
 94 69  1  0
 94 95  1  0
 96 94  1  0
M  ISO  4   7 101   8 101  59 100  67 100
M  END
>  <TORSDO>  (33) 
F 22

>  <SCORE>  (33) 
-10.468

>  <name>  (33) 
32

>  <ligand_id>  (33) 
32

>  <original_smiles>  (33) 
[H]c1c([H])c([H])c2c(c1[H])C([H])([H])C([H])([H])C([H])([H])C2([H])N([H])C(=O)C1([H])N(C(=O)C([H])(N([H])C(=O)C([H])(N([H])C([H])([H])[H])C([H])([H])[H])C(C([H])([H])[H])(C([H])([H])[H])C([H])([H])[H])C([H])([H])c2c([H])c(OC([H])([H])C(=O)C([H])([H])C([H])(F)C([H])([H])N([H])c3c([H])c(N([H])C(=O)N4C([H])([H])C([H])([H])C([H])([H])C([H])(n5nc(-c6c([H])c([H])c(Oc7c([H])c([H])c(F)c([H])c7F)c([H])c6[H])c(C(=O)N([H])[H])c5N([H])[H])C4([H])[H])c([H])c(F)c3F)c([H])c([H])c2C1([H])[H]

>  <smiles>  (33) 
[H]c1c([H])c([H])c2c(c1[H])C([H])([H])C([H])([H])C([H])([H])C2([H])N([H])C(=O)C1([H])N(C(=O)C([H])(N([H])C(=O)C([H])(N([H])C([H])([H])[H])C([H])([H])[H])C(C([H])([H])[H])(C([H])([H])[H])C([H])([H])[H])C([H])([H])c2c([H])c(OC([H])([H])C(=O)C([H])([H])C([H])(F)C([H])([H])N([H])c3c([H])c(N([H])C(=O)N4C([H])([H])C([H])([H])C([H])([H])C([H])(n5nc(-c6c([H])c([H])c(Oc7c([H])c([H])c(F)c([H])c7F)c([H])c6[H])c(C(=O)N([H])[H])c5N([H])[H])C4([H])[H])c([H])c(F)c3F)c([H])c([H])c2C1([H])[H]

$$$$
33:0:0
     RDKit          3D

 94102  0  0  1  0  0  0  0  0999 V2000
  -30.2790  -17.9890   21.9930 C   0  0  0  0  0  3  0  0  0  0  0  0
  -30.0690  -17.6380   20.6760 C   0  0  0  0  0  0  0  0  0  0  0  0
  -29.7750  -20.0840   20.6190 C   0  0  0  0  0  0  0  0  0  0  0  0
  -29.0940  -22.6750   20.5260 C   0  0  0  0  0  0  0  0  0  0  0  0
  -29.7700  -18.8650   19.9240 N   0  0  0  0  0  0  0  0  0  0  0  0
  -29.7430  -21.4930   20.0440 N   0  0  0  0  0  0  0  0  0  0  0  0
  -28.7470  -22.7530   21.7090 O   0  0  0  0  0  0  0  0  0  0  0  0
  -30.1320  -19.7320   22.3140 S   0  0  0  0  0  0  0  0  0  0  0  0
  -30.7280  -15.0340   20.1820 C   0  0  0  0  0  0  0  0  0  0  0  0
  -30.5730  -12.7260   19.1430 C   0  0  0  0  0  2  0  0  0  0  0  0
  -29.5950  -12.7090   17.9440 C   0  0  0  0  0  2  0  0  0  0  0  0
  -28.1500  -12.4810   18.4280 C   0  0  0  0  0  2  0  0  0  0  0  0
  -27.7720  -13.4070   19.6110 C   0  0  0  0  0  3  0  0  0  0  0  0
  -28.8550  -13.3890   20.7110 C   0  0  0  0  0  2  0  0  0  0  0  0
  -30.1180  -13.7900   20.0780 N   0  0  0  0  0  0  0  0  0  0  0  0
  -31.9360  -15.1110   19.9260 O   0  0  0  0  0  0  0  0  0  0  0  0
  -29.9050  -16.1810   20.2770 N   0  0  0  0  0  0  0  0  0  0  0  0
  -28.9360  -15.9190   20.1970 H   0  0  0  0  0  0  0  0  0  0  0  0
  -25.4040  -13.9890   20.3980 C   0  0  0  0  0  0  0  0  0  0  0  0
  -24.3490  -13.2110   20.7900 C   0  0  0  0  0  0  0  0  0  0  0  0
  -24.8170  -11.8620   20.7510 C   0  0  0  0  0  0  0  0  0  0  0  0
  -26.4450  -13.1110   20.1380 N   0  0  0  0  0  0  0  0  0  0  0  0
  -26.1010  -11.8290   20.4150 N   0  0  0  0  0  0  0  0  0  0  0  0
  -24.1010  -10.5960   20.9460 C   0  0  0  0  0  0  0  0  0  0  0  0
  -24.5240   -9.6440   21.8990 C   0  0  0  0  0  3  0  0  0  0  0  0
  -23.8050   -8.4440   22.0800 C   0  0  0  0  0  3  0  0  0  0  0  0
  -22.6460   -8.1850   21.3090 C   0  0  0  0  0  0  0  0  0  0  0  0
  -22.2440   -9.1250   20.3430 C   0  0  0  0  0  3  0  0  0  0  0  0
  -22.9650  -10.3170   20.1600 C   0  0  0  0  0  3  0  0  0  0  0  0
  -21.8980   -7.0360   21.4020 O   0  0  0  0  0  0  0  0  0  0  0  0
  -21.8030   -6.3310   22.5760 C   0  0  0  0  0  0  0  0  0  0  0  0
  -21.2630   -6.9050   23.7490 C   0  0  0  0  0  3  0  0  0  0  0  0
  -21.1190   -6.1230   24.9130 C   0  0  0  0  0  3  0  0  0  0  0  0
  -21.5060   -4.7700   24.9050 C   0  0  0  0  0  0  0  0  0  0  0  0
  -22.0370   -4.1950   23.7370 C   0  0  0  0  0  3  0  0  0  0  0  0
  -22.1830   -4.9740   22.5760 C   0  0  0  0  0  0  0  0  0  0  0  0
  -22.6760   -4.4110   21.4460 F   0  0  0  0  0  0  0  0  0  0  0  0
  -21.3620   -4.0160   26.0190 F   0  0  0  0  0  0  0  0  0  0  0  0
  -22.9560  -13.6820   21.0880 C   0  0  0  0  0  0  0  0  0  0  0  0
  -22.2430  -12.9750   21.9570 N   0  0  0  0  0  0  0  0  0  0  0  0
  -22.5070  -14.7100   20.5820 O   0  0  0  0  0  0  0  0  0  0  0  0
  -22.6190  -12.1440   22.3870 H   0  0  0  0  0  0  0  0  0  0  0  0
  -21.3080  -13.2720   22.1980 H   0  0  0  0  0  0  0  0  0  0  0  0
  -25.5570  -15.3590   20.2100 N   0  0  0  0  0  0  0  0  0  0  0  0
  -24.7710  -15.9970   20.2870 H   0  0  0  0  0  0  0  0  0  0  0  0
  -26.3700  -15.7920   19.7910 H   0  0  0  0  0  0  0  0  0  0  0  0
  -30.8290  -21.7340   19.0620 C   0  0  0  0  0  3  0  0  0  0  0  0
  -31.4990  -22.8560   19.3500 F   0  0  0  0  0  0  0  0  0  0  0  0
  -31.7290  -20.7460   19.0760 F   0  0  0  0  0  0  0  0  0  0  0  0
  -28.4720  -25.1820   19.5270 C   0  0  0  0  0  3  0  0  0  0  0  0
  -28.7580  -23.7920   19.5140 C   0  0  0  0  0  0  0  0  0  0  0  0
  -28.6260  -23.3010   18.2700 O   0  0  0  0  0  0  0  0  0  0  0  0
  -28.5390  -22.3590   18.3430 H   0  0  0  0  0  0  0  0  0  0  0  0
  -28.3760  -26.3200   20.4070 O   0  0  0  0  0  0  0  0  0  0  0  0
  -24.6130  -31.9030   23.2610 C   0  0  0  0  0  0  0  0  0  0  0  0
  -27.3270  -27.2940   20.2590 C   0  0  0  0  0  0  0  0  0  0  0  0
  -23.4620  -30.5080   21.5890 C   0  0  0  0  0  3  0  0  0  0  0  0
  -24.9650  -28.9750   20.1780 C   0  0  0  0  0  0  0  0  0  0  0  0
  -26.0080  -30.8300   21.4610 C   0  0  0  0  0  2  0  0  0  0  0  0
  -26.1220  -29.4440   20.8110 C   0  0  0  0  0  0  0  0  0  0  0  0
  -27.3020  -28.6170   20.8430 C   0  0  0  0  0  3  0  0  0  0  0  0
  -26.1330  -26.9110   19.5980 C   0  0  0  0  0  3  0  0  0  0  0  0
  -24.9800  -27.7200   19.5550 C   0  0  0  0  0  3  0  0  0  0  0  0
  -23.7180  -29.8440   20.2100 C   0  0  0  0  0  2  0  0  0  0  0  0
  -24.7150  -31.1000   22.1610 N   0  0  0  0  0  0  0  0  0  0  0  0
  -23.5150  -32.1620   23.7760 O   0  0  0  0  0  0  0  0  0  0  0  0
  -22.7870  -29.4800   22.5270 C   0  0  0  0  0  0  0  0  0  0  0  0
  -21.4610  -29.3040   22.3860 N   0  0  0  0  0  0  0  0  0  0  0  0
  -23.4590  -28.8420   23.3420 O   0  0  0  0  0  0  0  0  0  0  0  0
  -20.9760  -29.8700   21.7030 H   0  0  0  0  0  0  0  0  0  0  0  0
  -18.0810  -28.0970   22.8460 C   0  0  0  0  0  0  0  0  0  0  0  0
  -20.6390  -28.3520   23.1350 C   0  0  0  0  0  3  0  0  0  0  0  0
  -20.7430  -26.9300   22.5350 C   0  0  0  0  0  2  0  0  0  0  0  0
  -19.6470  -26.6270   21.5090 C   0  0  0  0  0  2  0  0  0  0  0  0
  -18.2630  -26.7600   22.1490 C   0  0  0  0  0  2  0  0  0  0  0  0
  -19.1980  -28.8500   23.2970 C   0  0  0  0  0  0  0  0  0  0  0  0
  -18.9740  -30.1020   23.9080 C   0  0  0  0  0  3  0  0  0  0  0  0
  -17.6680  -30.5990   24.0790 C   0  0  0  0  0  3  0  0  0  0  0  0
  -16.5670  -29.8410   23.6440 C   0  0  0  0  0  3  0  0  0  0  0  0
  -16.7740  -28.5920   23.0310 C   0  0  0  0  0  3  0  0  0  0  0  0
  -25.8680  -32.5530   23.9160 C   0  0  0  0  0  3  0  0  0  0  0  0
  -26.3310  -31.8130   25.2310 C   0  0  1  0  0  0  0  0  0  0  0  0
  -25.1980  -31.6080   26.2610 C   0  0  0  0  0  1  0  0  0  0  0  0
  -26.9230  -30.4240   24.8960 C   0  0  0  0  0  1  0  0  0  0  0  0
  -27.4540  -32.6240   25.9170 C   0  0  0  0  0  1  0  0  0  0  0  0
  -25.5480  -33.9620   24.2040 N   0  0  0  0  0  0  0  0  0  0  0  0
  -25.8900  -34.9970   23.4280 C   0  0  0  0  0  0  0  0  0  0  0  0
  -26.5760  -34.8700   22.4110 O   0  0  0  0  0  0  0  0  0  0  0  0
  -24.9400  -34.1320   24.9900 H   0  0  0  0  0  0  0  0  0  0  0  0
  -24.1630  -36.7770   23.0170 C   0  0  0  0  0  1  0  0  0  0  0  0
  -25.3990  -36.3960   23.8470 C   0  0  0  0  0  3  0  0  0  0  0  0
  -27.5210  -37.3180   24.6730 C   0  0  0  0  0  1  0  0  0  0  0  0
  -26.4280  -37.4500   23.7130 N   0  0  0  0  0  0  0  0  0  0  0  0
  -26.0150  -38.3720   23.8300 H   0  0  0  0  0  0  0  0  0  0  0  0
  1  8  1  0
  2  1  2  0
  3  8  1  0
  4  7  2  0
  5  3  2  0
  5  2  1  0
  6  4  1  0
  6  3  1  0
  9 17  1  0
 10 15  1  0
 11 12  1  0
 11 10  1  0
 13 12  1  0
 13 22  1  0
 13 14  1  0
 15  9  1  0
 15 14  1  0
 16  9  2  0
 17  2  1  0
 18 17  1  0
 19 20  2  0
 20 39  1  0
 21 20  1  0
 21 24  1  0
 22 19  1  0
 22 23  1  0
 23 21  2  0
 24 25  1  0
 25 26  2  0
 27 30  1  0
 27 26  1  0
 28 27  2  0
 29 28  1  0
 29 24  2  0
 30 31  1  0
 31 32  1  0
 32 33  2  0
 34 33  1  0
 34 38  1  0
 35 34  2  0
 36 31  2  0
 36 35  1  0
 37 36  1  0
 39 40  1  0
 40 43  1  0
 40 42  1  0
 41 39  2  0
 44 45  1  0
 44 19  1  0
 46 44  1  0
 47 49  1  0
 47 48  1  0
 47  6  1  0
 50 54  1  0
 51 50  2  0
 51  4  1  0
 52 53  1  0
 52 51  1  0
 55 66  2  0
 56 54  1  0
 56 61  1  0
 57 65  1  0
 57 67  1  0
 58 64  1  0
 58 60  1  0
 59 65  1  0
 60 61  2  0
 60 59  1  0
 62 56  2  0
 63 62  1  0
 63 58  2  0
 64 57  1  0
 65 55  1  0
 67 69  2  0
 68 67  1  0
 70 68  1  0
 71 80  2  0
 71 76  1  0
 72 68  1  0
 72 76  1  0
 73 72  1  0
 74 75  1  0
 74 73  1  0
 75 71  1  0
 76 77  2  0
 77 78  1  0
 79 78  2  0
 80 79  1  0
 81 55  1  0
 81 86  1  0
 81 82  1  0
 82 85  1  1
 82 83  1  0
 84 82  1  0
 86 89  1  0
 87 91  1  0
 87 86  1  0
 88 87  2  0
 91 90  1  0
 93 94  1  0
 93 91  1  0
 93 92  1  0
M  ISO  4   9 100  17 100  50 101  54 101
M  END
>  <TORSDO>  (34) 
F 19

>  <SCORE>  (34) 
-13.745

>  <name>  (34) 
33

>  <ligand_id>  (34) 
33

>  <original_smiles>  (34) 
[H]OC(C(=O)N(c1nc(N([H])C(=O)N2C([H])([H])C([H])([H])C([H])([H])C([H])(n3nc(-c4c([H])c([H])c(Oc5c([H])c([H])c(F)c([H])c5F)c([H])c4[H])c(C(=O)N([H])[H])c3N([H])[H])C2([H])[H])c([H])s1)C([H])(F)F)=C([H])Oc1c([H])c([H])c2c(c1[H])C([H])([H])N(C(=O)C([H])(N([H])C(=O)C([H])(N([H])C([H])([H])[H])C([H])([H])[H])C(C([H])([H])[H])(C([H])([H])[H])C([H])([H])[H])C([H])(C(=O)N([H])C1([H])c3c([H])c([H])c([H])c([H])c3C([H])([H])C([H])([H])C1([H])[H])C2([H])[H]

>  <smiles>  (34) 
[H]OC(C(=O)N(c1nc(N([H])C(=O)N2C([H])([H])C([H])([H])C([H])([H])C([H])(n3nc(-c4c([H])c([H])c(Oc5c([H])c([H])c(F)c([H])c5F)c([H])c4[H])c(C(=O)N([H])[H])c3N([H])[H])C2([H])[H])c([H])s1)C([H])(F)F)=C([H])Oc1c([H])c([H])c2c(c1[H])C([H])([H])N(C(=O)C([H])(N([H])C(=O)C([H])(N([H])C([H])([H])[H])C([H])([H])[H])C(C([H])([H])[H])(C([H])([H])[H])C([H])([H])[H])C([H])(C(=O)N([H])C1([H])c3c([H])c([H])c([H])c([H])c3C([H])([H])C([H])([H])C1([H])[H])C2([H])[H]

$$$$
34:0:0
     RDKit          3D

 92100  0  0  1  0  0  0  0  0999 V2000
  -29.2420  -22.3620   20.1310 C   0  0  0  0  0  0  0  0  0  0  0  0
  -28.8300  -21.0290   20.2400 N   0  0  0  0  0  0  0  0  0  0  0  0
  -30.4190  -22.6220   19.8790 O   0  0  0  0  0  0  0  0  0  0  0  0
  -27.8940  -20.9270   20.6090 H   0  0  0  0  0  0  0  0  0  0  0  0
  -30.5650  -14.8140   20.2770 C   0  0  0  0  0  0  0  0  0  0  0  0
  -30.3810  -12.5160   19.3060 C   0  0  0  0  0  2  0  0  0  0  0  0
  -29.4370  -12.5810   18.0840 C   0  0  0  0  0  2  0  0  0  0  0  0
  -27.9730  -12.3940   18.5250 C   0  0  0  0  0  2  0  0  0  0  0  0
  -27.6000  -13.2850   19.7420 C   0  0  0  0  0  3  0  0  0  0  0  0
  -28.6670  -13.2140   20.8580 C   0  0  0  0  0  2  0  0  0  0  0  0
  -29.9580  -13.5750   20.2550 N   0  0  0  0  0  0  0  0  0  0  0  0
  -31.7410  -14.9080   19.9130 O   0  0  0  0  0  0  0  0  0  0  0  0
  -30.4180  -19.5280   18.9180 C   0  0  0  0  0  0  0  0  0  0  0  0
  -29.5130  -19.7240   19.9520 C   0  0  0  0  0  0  0  0  0  0  0  0
  -29.9590  -17.3580   20.1410 C   0  0  0  0  0  0  0  0  0  0  0  0
  -30.8900  -20.4740   17.8570 C   0  0  0  0  0  1  0  0  0  0  0  0
  -29.2340  -18.4450   20.5930 N   0  0  0  0  0  0  0  0  0  0  0  0
  -29.7960  -15.9400   20.5660 N   0  0  0  0  0  0  0  0  0  0  0  0
  -31.0380  -17.8730   18.8500 S   0  0  0  0  0  0  0  0  0  0  0  0
  -28.9140  -15.7370   21.0050 H   0  0  0  0  0  0  0  0  0  0  0  0
  -25.2190  -13.8640   20.4930 C   0  0  0  0  0  0  0  0  0  0  0  0
  -24.1600  -13.0850   20.8720 C   0  0  0  0  0  0  0  0  0  0  0  0
  -24.6270  -11.7360   20.8320 C   0  0  0  0  0  0  0  0  0  0  0  0
  -26.2630  -12.9890   20.2440 N   0  0  0  0  0  0  0  0  0  0  0  0
  -25.9150  -11.7030   20.5110 N   0  0  0  0  0  0  0  0  0  0  0  0
  -23.9060  -10.4710   21.0250 C   0  0  0  0  0  0  0  0  0  0  0  0
  -24.3420   -9.5050   21.9580 C   0  0  0  0  0  3  0  0  0  0  0  0
  -23.6200   -8.3060   22.1390 C   0  0  0  0  0  3  0  0  0  0  0  0
  -22.4470   -8.0630   21.3850 C   0  0  0  0  0  0  0  0  0  0  0  0
  -22.0310   -9.0160   20.4400 C   0  0  0  0  0  3  0  0  0  0  0  0
  -22.7530  -10.2080   20.2580 C   0  0  0  0  0  3  0  0  0  0  0  0
  -21.6970   -6.9160   21.4740 O   0  0  0  0  0  0  0  0  0  0  0  0
  -21.6440   -6.1790   22.6290 C   0  0  0  0  0  0  0  0  0  0  0  0
  -21.1910   -6.7320   23.8470 C   0  0  0  0  0  3  0  0  0  0  0  0
  -21.0870   -5.9190   24.9940 C   0  0  0  0  0  3  0  0  0  0  0  0
  -21.4260   -4.5560   24.9250 C   0  0  0  0  0  0  0  0  0  0  0  0
  -21.8720   -4.0010   23.7120 C   0  0  0  0  0  3  0  0  0  0  0  0
  -21.9770   -4.8100   22.5670 C   0  0  0  0  0  0  0  0  0  0  0  0
  -22.3880   -4.2670   21.3960 F   0  0  0  0  0  0  0  0  0  0  0  0
  -21.3180   -3.7730   26.0240 F   0  0  0  0  0  0  0  0  0  0  0  0
  -22.7640  -13.5580   21.1570 C   0  0  0  0  0  0  0  0  0  0  0  0
  -22.0440  -12.8540   22.0230 N   0  0  0  0  0  0  0  0  0  0  0  0
  -22.3200  -14.5860   20.6470 O   0  0  0  0  0  0  0  0  0  0  0  0
  -22.4160  -12.0220   22.4570 H   0  0  0  0  0  0  0  0  0  0  0  0
  -21.1070  -13.1510   22.2570 H   0  0  0  0  0  0  0  0  0  0  0  0
  -25.3770  -15.2360   20.3170 N   0  0  0  0  0  0  0  0  0  0  0  0
  -24.6020  -15.8830   20.4240 H   0  0  0  0  0  0  0  0  0  0  0  0
  -26.2120  -15.6810   19.9580 H   0  0  0  0  0  0  0  0  0  0  0  0
  -28.2880  -23.6410   20.4040 C   0  0  0  0  0  2  0  0  0  0  0  0
  -28.4210  -25.0730   18.1930 C   0  0  0  0  0  1  0  0  0  0  0  0
  -28.6290  -25.0890   19.7190 C   0  0  0  0  0  3  0  0  0  0  0  0
  -28.3720  -26.4590   20.3170 O   0  0  0  0  0  0  0  0  0  0  0  0
  -24.5840  -31.8970   23.2470 C   0  0  0  0  0  0  0  0  0  0  0  0
  -27.2260  -27.2860   20.2250 C   0  0  0  0  0  0  0  0  0  0  0  0
  -23.3960  -30.4890   21.6020 C   0  0  0  0  0  3  0  0  0  0  0  0
  -24.8590  -28.9260   20.1890 C   0  0  0  0  0  0  0  0  0  0  0  0
  -25.9390  -30.8000   21.4370 C   0  0  0  0  0  2  0  0  0  0  0  0
  -26.0240  -29.4150   20.7930 C   0  0  0  0  0  0  0  0  0  0  0  0
  -27.2050  -28.6070   20.7950 C   0  0  0  0  0  3  0  0  0  0  0  0
  -26.0280  -26.8510   19.6210 C   0  0  0  0  0  3  0  0  0  0  0  0
  -24.8670  -27.6520   19.5940 C   0  0  0  0  0  3  0  0  0  0  0  0
  -23.6210  -29.8040   20.2270 C   0  0  0  0  0  2  0  0  0  0  0  0
  -24.6580  -31.0820   22.1520 N   0  0  0  0  0  0  0  0  0  0  0  0
  -23.4950  -32.1750   23.7700 O   0  0  0  0  0  0  0  0  0  0  0  0
  -22.7260  -29.4780   22.5640 C   0  0  0  0  0  0  0  0  0  0  0  0
  -21.3990  -29.3070   22.4330 N   0  0  0  0  0  0  0  0  0  0  0  0
  -23.3990  -28.8510   23.3850 O   0  0  0  0  0  0  0  0  0  0  0  0
  -20.9150  -29.8640   21.7440 H   0  0  0  0  0  0  0  0  0  0  0  0
  -18.0140  -28.1310   22.9360 C   0  0  0  0  0  0  0  0  0  0  0  0
  -20.5740  -28.3710   23.2010 C   0  0  0  0  0  3  0  0  0  0  0  0
  -20.6650  -26.9420   22.6180 C   0  0  0  0  0  2  0  0  0  0  0  0
  -19.5580  -26.6320   21.6050 C   0  0  0  0  0  2  0  0  0  0  0  0
  -18.1790  -26.7840   22.2520 C   0  0  0  0  0  2  0  0  0  0  0  0
  -19.1380  -28.8830   23.3660 C   0  0  0  0  0  0  0  0  0  0  0  0
  -18.9300  -30.1440   23.9660 C   0  0  0  0  0  3  0  0  0  0  0  0
  -17.6280  -30.6530   24.1380 C   0  0  0  0  0  3  0  0  0  0  0  0
  -16.5190  -29.8970   23.7220 C   0  0  0  0  0  3  0  0  0  0  0  0
  -16.7120  -28.6380   23.1270 C   0  0  0  0  0  3  0  0  0  0  0  0
  -25.8590  -32.5350   23.8790 C   0  0  0  0  0  3  0  0  0  0  0  0
  -25.5470  -33.9380   24.1920 N   0  0  0  0  0  0  0  0  0  0  0  0
  -25.8890  -34.9850   23.4290 C   0  0  0  0  0  0  0  0  0  0  0  0
  -26.5690  -34.8700   22.4060 O   0  0  0  0  0  0  0  0  0  0  0  0
  -24.9440  -34.1010   24.9860 H   0  0  0  0  0  0  0  0  0  0  0  0
  -24.1700  -36.7790   23.0390 C   0  0  0  0  0  1  0  0  0  0  0  0
  -25.4000  -36.3780   23.8690 C   0  0  0  0  0  3  0  0  0  0  0  0
  -27.5240  -37.2660   24.7230 C   0  0  0  0  0  1  0  0  0  0  0  0
  -26.4370  -37.4280   23.7610 N   0  0  0  0  0  0  0  0  0  0  0  0
  -26.0320  -38.3500   23.8920 H   0  0  0  0  0  0  0  0  0  0  0  0
  -26.3560  -31.7770   25.1710 C   0  0  1  0  0  0  0  0  0  0  0  0
  -25.2480  -31.5550   26.2270 C   0  0  0  0  0  1  0  0  0  0  0  0
  -26.9410  -30.3940   24.8050 C   0  0  0  0  0  1  0  0  0  0  0  0
  -27.4990  -32.5780   25.8410 C   0  0  0  0  0  1  0  0  0  0  0  0
  1  2  1  0
  1 49  1  0
  2  4  1  0
  3  1  2  0
  5 18  1  0
  6 11  1  0
  7  8  1  0
  7  6  1  0
  9  8  1  0
  9 24  1  0
  9 10  1  0
 11  5  1  0
 11 10  1  0
 12  5  2  0
 13 14  2  0
 14  2  1  0
 14 17  1  0
 15 18  1  0
 15 17  2  0
 16 13  1  0
 18 20  1  0
 19 13  1  0
 19 15  1  0
 21 22  2  0
 22 41  1  0
 23 22  1  0
 23 26  1  0
 24 21  1  0
 24 25  1  0
 25 23  2  0
 26 27  1  0
 27 28  2  0
 29 32  1  0
 29 28  1  0
 30 29  2  0
 31 30  1  0
 31 26  2  0
 32 33  1  0
 33 34  1  0
 34 35  2  0
 36 35  1  0
 36 40  1  0
 37 36  2  0
 38 33  2  0
 38 37  1  0
 39 38  1  0
 41 42  1  0
 42 45  1  0
 42 44  1  0
 43 41  2  0
 46 47  1  0
 46 21  1  0
 48 46  1  0
 51 50  1  0
 51 52  1  0
 51 49  1  0
 53 64  2  0
 54 52  1  0
 54 59  1  0
 55 63  1  0
 55 65  1  0
 56 62  1  0
 56 58  1  0
 57 63  1  0
 58 59  2  0
 58 57  1  0
 60 54  2  0
 61 60  1  0
 61 56  2  0
 62 55  1  0
 63 53  1  0
 65 67  2  0
 66 65  1  0
 68 66  1  0
 69 78  2  0
 69 74  1  0
 70 66  1  0
 70 74  1  0
 71 70  1  0
 72 73  1  0
 72 71  1  0
 73 69  1  0
 74 75  2  0
 75 76  1  0
 77 76  2  0
 78 77  1  0
 79 53  1  0
 79 80  1  0
 79 89  1  0
 80 83  1  0
 81 85  1  0
 81 80  1  0
 82 81  2  0
 85 84  1  0
 87 85  1  0
 87 88  1  0
 87 86  1  0
 89 92  1  1
 89 90  1  0
 91 89  1  0
M  ISO  4   5 100  18 100  51 101  52 101
M  END
>  <TORSDO>  (35) 
F 18

>  <SCORE>  (35) 
-14.677

>  <name>  (35) 
34

>  <ligand_id>  (35) 
34

>  <original_smiles>  (35) 
[H]c1c([H])c([H])c2c(c1[H])C([H])([H])C([H])([H])C([H])([H])C2([H])N([H])C(=O)C1([H])N(C(=O)C([H])(N([H])C(=O)C([H])(N([H])C([H])([H])[H])C([H])([H])[H])C(C([H])([H])[H])(C([H])([H])[H])C([H])([H])[H])C([H])([H])c2c([H])c(OC([H])(C([H])([H])[H])C([H])([H])C(=O)N([H])c3nc(N([H])C(=O)N4C([H])([H])C([H])([H])C([H])([H])C([H])(n5nc(-c6c([H])c([H])c(Oc7c([H])c([H])c(F)c([H])c7F)c([H])c6[H])c(C(=O)N([H])[H])c5N([H])[H])C4([H])[H])sc3C([H])([H])[H])c([H])c([H])c2C1([H])[H]

>  <smiles>  (35) 
[H]c1c([H])c([H])c2c(c1[H])C([H])([H])C([H])([H])C([H])([H])C2([H])N([H])C(=O)C1([H])N(C(=O)C([H])(N([H])C(=O)C([H])(N([H])C([H])([H])[H])C([H])([H])[H])C(C([H])([H])[H])(C([H])([H])[H])C([H])([H])[H])C([H])([H])c2c([H])c(OC([H])(C([H])([H])[H])C([H])([H])C(=O)N([H])c3nc(N([H])C(=O)N4C([H])([H])C([H])([H])C([H])([H])C([H])(n5nc(-c6c([H])c([H])c(Oc7c([H])c([H])c(F)c([H])c7F)c([H])c6[H])c(C(=O)N([H])[H])c5N([H])[H])C4([H])[H])sc3C([H])([H])[H])c([H])c([H])c2C1([H])[H]

$$$$
35:0:0
     RDKit          3D

 93101  0  0  1  0  0  0  0  0999 V2000
  -29.3650  -21.1580   20.6580 C   0  0  0  0  0  0  0  0  0  0  0  0
  -29.1740  -22.3530   19.9440 C   0  0  0  0  0  0  0  0  0  0  0  0
  -29.2680  -22.3780   18.4230 C   0  0  0  0  0  1  0  0  0  0  0  0
  -30.5810  -14.7900   20.3660 C   0  0  0  0  0  0  0  0  0  0  0  0
  -30.3610  -12.4990   19.3910 C   0  0  0  0  0  2  0  0  0  0  0  0
  -29.4320  -12.5700   18.1590 C   0  0  0  0  0  2  0  0  0  0  0  0
  -27.9630  -12.3920   18.5850 C   0  0  0  0  0  2  0  0  0  0  0  0
  -27.5850  -13.2900   19.7920 C   0  0  0  0  0  3  0  0  0  0  0  0
  -28.6380  -13.2270   20.9200 C   0  0  0  0  0  2  0  0  0  0  0  0
  -29.9410  -13.5680   20.3310 N   0  0  0  0  0  0  0  0  0  0  0  0
  -31.7640  -14.8560   20.0130 O   0  0  0  0  0  0  0  0  0  0  0  0
  -29.8460  -19.7480   20.1930 C   0  0  0  0  0  0  0  0  0  0  0  0
  -30.8490  -19.5290   19.2760 C   0  0  0  0  0  0  0  0  0  0  0  0
  -30.1120  -17.3580   20.2720 C   0  0  0  0  0  0  0  0  0  0  0  0
  -29.4480  -18.4690   20.7650 N   0  0  0  0  0  0  0  0  0  0  0  0
  -29.8490  -15.9410   20.6460 N   0  0  0  0  0  0  0  0  0  0  0  0
  -31.5300  -20.5090   18.6320 F   0  0  0  0  0  0  0  0  0  0  0  0
  -31.3010  -17.8470   19.0510 S   0  0  0  0  0  0  0  0  0  0  0  0
  -28.9410  -15.7710   21.0490 H   0  0  0  0  0  0  0  0  0  0  0  0
  -25.1950  -13.8770   20.5110 C   0  0  0  0  0  0  0  0  0  0  0  0
  -24.1290  -13.1010   20.8830 C   0  0  0  0  0  0  0  0  0  0  0  0
  -24.5950  -11.7510   20.8560 C   0  0  0  0  0  0  0  0  0  0  0  0
  -26.2400  -12.9980   20.2820 N   0  0  0  0  0  0  0  0  0  0  0  0
  -25.8860  -11.7150   20.5510 N   0  0  0  0  0  0  0  0  0  0  0  0
  -23.8690  -10.4870   21.0460 C   0  0  0  0  0  0  0  0  0  0  0  0
  -24.3030   -9.5170   21.9760 C   0  0  0  0  0  3  0  0  0  0  0  0
  -23.5760   -8.3200   22.1530 C   0  0  0  0  0  3  0  0  0  0  0  0
  -22.4010   -8.0860   21.4010 C   0  0  0  0  0  0  0  0  0  0  0  0
  -21.9880   -9.0430   20.4570 C   0  0  0  0  0  3  0  0  0  0  0  0
  -22.7160  -10.2310   20.2780 C   0  0  0  0  0  3  0  0  0  0  0  0
  -21.6440   -6.9430   21.4890 O   0  0  0  0  0  0  0  0  0  0  0  0
  -21.6000   -6.1960   22.6400 C   0  0  0  0  0  0  0  0  0  0  0  0
  -21.1800   -6.7460   23.8710 C   0  0  0  0  0  3  0  0  0  0  0  0
  -21.0830   -5.9260   25.0140 C   0  0  0  0  0  3  0  0  0  0  0  0
  -21.3940   -4.5570   24.9250 C   0  0  0  0  0  0  0  0  0  0  0  0
  -21.8060   -4.0060   23.6990 C   0  0  0  0  0  3  0  0  0  0  0  0
  -21.9060   -4.8230   22.5600 C   0  0  0  0  0  0  0  0  0  0  0  0
  -22.2830   -4.2830   21.3770 F   0  0  0  0  0  0  0  0  0  0  0  0
  -21.2940   -3.7670   26.0190 F   0  0  0  0  0  0  0  0  0  0  0  0
  -22.7300  -13.5760   21.1490 C   0  0  0  0  0  0  0  0  0  0  0  0
  -22.0020  -12.8760   22.0140 N   0  0  0  0  0  0  0  0  0  0  0  0
  -22.2920  -14.6010   20.6300 O   0  0  0  0  0  0  0  0  0  0  0  0
  -22.3700  -12.0480   22.4560 H   0  0  0  0  0  0  0  0  0  0  0  0
  -21.0610  -13.1730   22.2370 H   0  0  0  0  0  0  0  0  0  0  0  0
  -25.3580  -15.2460   20.3270 N   0  0  0  0  0  0  0  0  0  0  0  0
  -24.5840  -15.8990   20.3980 H   0  0  0  0  0  0  0  0  0  0  0  0
  -26.2050  -15.6780   19.9780 H   0  0  0  0  0  0  0  0  0  0  0  0
  -28.8760  -23.7790   20.5400 C   0  0  0  0  0  0  0  0  0  0  0  0
  -29.0650  -24.0240   21.7370 O   0  0  0  0  0  0  0  0  0  0  0  0
  -28.3410  -25.0140   19.6570 C   0  0  0  0  0  2  0  0  0  0  0  0
  -28.3170  -26.4050   20.2550 O   0  0  0  0  0  0  0  0  0  0  0  0
  -24.6000  -31.8920   23.2380 C   0  0  0  0  0  0  0  0  0  0  0  0
  -27.1980  -27.2760   20.1730 C   0  0  0  0  0  0  0  0  0  0  0  0
  -23.3900  -30.4900   21.6080 C   0  0  0  0  0  3  0  0  0  0  0  0
  -24.8370  -28.9330   20.1770 C   0  0  0  0  0  0  0  0  0  0  0  0
  -25.9360  -30.7920   21.4210 C   0  0  0  0  0  2  0  0  0  0  0  0
  -26.0120  -29.4090   20.7690 C   0  0  0  0  0  0  0  0  0  0  0  0
  -27.1900  -28.5920   20.7570 C   0  0  0  0  0  3  0  0  0  0  0  0
  -25.9920  -26.8730   19.5530 C   0  0  0  0  0  3  0  0  0  0  0  0
  -24.8320  -27.6740   19.5620 C   0  0  0  0  0  3  0  0  0  0  0  0
  -23.6020  -29.8130   20.2280 C   0  0  0  0  0  2  0  0  0  0  0  0
  -24.6620  -31.0760   22.1450 N   0  0  0  0  0  0  0  0  0  0  0  0
  -23.5180  -32.1740   23.7730 O   0  0  0  0  0  0  0  0  0  0  0  0
  -22.7270  -29.4780   22.5720 C   0  0  0  0  0  0  0  0  0  0  0  0
  -21.4020  -29.2930   22.4420 N   0  0  0  0  0  0  0  0  0  0  0  0
  -23.4050  -28.8610   23.3980 O   0  0  0  0  0  0  0  0  0  0  0  0
  -20.9140  -29.8420   21.7470 H   0  0  0  0  0  0  0  0  0  0  0  0
  -18.0300  -28.0700   22.9220 C   0  0  0  0  0  0  0  0  0  0  0  0
  -20.5830  -28.3560   23.2150 C   0  0  0  0  0  3  0  0  0  0  0  0
  -20.7030  -26.9200   22.6560 C   0  0  0  0  0  2  0  0  0  0  0  0
  -19.6150  -26.5760   21.6340 C   0  0  0  0  0  2  0  0  0  0  0  0
  -18.2260  -26.7150   22.2620 C   0  0  0  0  0  2  0  0  0  0  0  0
  -19.1360  -28.8480   23.3540 C   0  0  0  0  0  0  0  0  0  0  0  0
  -18.8990  -30.1140   23.9310 C   0  0  0  0  0  3  0  0  0  0  0  0
  -17.5870  -30.6040   24.0780 C   0  0  0  0  0  3  0  0  0  0  0  0
  -16.4950  -29.8230   23.6640 C   0  0  0  0  0  3  0  0  0  0  0  0
  -16.7160  -28.5580   23.0920 C   0  0  0  0  0  3  0  0  0  0  0  0
  -25.8840  -32.5250   23.8570 C   0  0  0  0  0  3  0  0  0  0  0  0
  -26.3980  -31.7600   25.1390 C   0  0  1  0  0  0  0  0  0  0  0  0
  -25.3020  -31.5360   26.2080 C   0  0  0  0  0  1  0  0  0  0  0  0
  -26.9740  -30.3780   24.7590 C   0  0  0  0  0  1  0  0  0  0  0  0
  -27.5520  -32.5540   25.7930 C   0  0  0  0  0  1  0  0  0  0  0  0
  -25.5790  -33.9260   24.1820 N   0  0  0  0  0  0  0  0  0  0  0  0
  -25.9100  -34.9750   23.4170 C   0  0  0  0  0  0  0  0  0  0  0  0
  -26.5720  -34.8650   22.3810 O   0  0  0  0  0  0  0  0  0  0  0  0
  -24.9920  -34.0870   24.9880 H   0  0  0  0  0  0  0  0  0  0  0  0
  -24.1820  -36.7670   23.0670 C   0  0  0  0  0  1  0  0  0  0  0  0
  -25.4290  -36.3670   23.8710 C   0  0  0  0  0  3  0  0  0  0  0  0
  -27.5750  -37.2480   24.6780 C   0  0  0  0  0  1  0  0  0  0  0  0
  -26.4630  -37.4180   23.7460 N   0  0  0  0  0  0  0  0  0  0  0  0
  -26.0600  -38.3380   23.9000 H   0  0  0  0  0  0  0  0  0  0  0  0
  -29.1900  -21.1370   21.9880 O   0  0  0  0  0  0  0  0  0  0  0  0
  -29.3190  -20.2350   22.2620 H   0  0  0  0  0  0  0  0  0  0  0  0
  1 92  1  0
  2 48  1  0
  2  1  2  0
  3  2  1  0
  4 16  1  0
  5 10  1  0
  6  7  1  0
  6  5  1  0
  8  7  1  0
  8 23  1  0
  8  9  1  0
 10  4  1  0
 10  9  1  0
 11  4  2  0
 12  1  1  0
 12 15  1  0
 13 12  2  0
 14 16  1  0
 14 15  2  0
 16 19  1  0
 17 13  1  0
 18 13  1  0
 18 14  1  0
 20 21  2  0
 21 40  1  0
 22 21  1  0
 22 25  1  0
 23 20  1  0
 23 24  1  0
 24 22  2  0
 25 26  1  0
 26 27  2  0
 28 31  1  0
 28 27  1  0
 29 28  2  0
 30 29  1  0
 30 25  2  0
 31 32  1  0
 32 33  1  0
 33 34  2  0
 35 34  1  0
 35 39  1  0
 36 35  2  0
 37 32  2  0
 37 36  1  0
 38 37  1  0
 40 41  1  0
 41 44  1  0
 41 43  1  0
 42 40  2  0
 45 46  1  0
 45 20  1  0
 47 45  1  0
 48 49  2  0
 50 51  1  0
 50 48  1  0
 52 63  2  0
 53 51  1  0
 53 58  1  0
 54 62  1  0
 54 64  1  0
 55 61  1  0
 55 57  1  0
 56 62  1  0
 57 56  1  0
 58 57  2  0
 59 60  1  0
 59 53  2  0
 60 55  2  0
 61 54  1  0
 62 52  1  0
 64 66  2  0
 65 64  1  0
 67 65  1  0
 68 77  2  0
 68 73  1  0
 69 65  1  0
 69 73  1  0
 70 69  1  0
 71 72  1  0
 71 70  1  0
 72 68  1  0
 73 74  2  0
 74 75  1  0
 76 75  2  0
 77 76  1  0
 78 52  1  0
 78 83  1  0
 78 79  1  0
 79 82  1  1
 79 80  1  0
 81 79  1  0
 83 86  1  0
 84 88  1  0
 84 83  1  0
 85 84  2  0
 88 87  1  0
 90 88  1  0
 90 91  1  0
 90 89  1  0
 92 93  1  0
M  ISO  4   4 100  16 100  50 101  51 101
M  END
>  <TORSDO>  (36) 
F 19

>  <SCORE>  (36) 
-14.700

>  <name>  (36) 
35

>  <ligand_id>  (36) 
35

>  <original_smiles>  (36) 
[H]OC(=C(C(=O)C([H])([H])Oc1c([H])c([H])c2c(c1[H])C([H])([H])N(C(=O)C([H])(N([H])C(=O)C([H])(N([H])C([H])([H])[H])C([H])([H])[H])C(C([H])([H])[H])(C([H])([H])[H])C([H])([H])[H])C([H])(C(=O)N([H])C1([H])c3c([H])c([H])c([H])c([H])c3C([H])([H])C([H])([H])C1([H])[H])C2([H])[H])C([H])([H])[H])c1nc(N([H])C(=O)N2C([H])([H])C([H])([H])C([H])([H])C([H])(n3nc(-c4c([H])c([H])c(Oc5c([H])c([H])c(F)c([H])c5F)c([H])c4[H])c(C(=O)N([H])[H])c3N([H])[H])C2([H])[H])sc1F

>  <smiles>  (36) 
[H]OC(=C(C(=O)C([H])([H])Oc1c([H])c([H])c2c(c1[H])C([H])([H])N(C(=O)C([H])(N([H])C(=O)C([H])(N([H])C([H])([H])[H])C([H])([H])[H])C(C([H])([H])[H])(C([H])([H])[H])C([H])([H])[H])C([H])(C(=O)N([H])C1([H])c3c([H])c([H])c([H])c([H])c3C([H])([H])C([H])([H])C1([H])[H])C2([H])[H])C([H])([H])[H])c1nc(N([H])C(=O)N2C([H])([H])C([H])([H])C([H])([H])C([H])(n3nc(-c4c([H])c([H])c(Oc5c([H])c([H])c(F)c([H])c5F)c([H])c4[H])c(C(=O)N([H])[H])c3N([H])[H])C2([H])[H])sc1F

$$$$
36:0:0
     RDKit          3D

 93101  0  0  1  0  0  0  0  0999 V2000
  -30.1940  -18.6790   20.3090 C   0  0  0  0  0  0  0  0  0  0  0  0
  -30.1750  -18.9560   21.6560 C   0  0  0  0  0  0  0  0  0  0  0  0
  -29.5730  -21.0250   20.3700 C   0  0  0  0  0  0  0  0  0  0  0  0
  -29.0410  -23.6290   20.3500 C   0  0  0  0  0  0  0  0  0  0  0  0
  -29.8220  -19.9060   19.6050 N   0  0  0  0  0  0  0  0  0  0  0  0
  -29.1020  -22.3330   19.8270 N   0  0  0  0  0  0  0  0  0  0  0  0
  -29.6430  -23.9160   21.3880 O   0  0  0  0  0  0  0  0  0  0  0  0
  -30.5120  -18.0510   22.6120 F   0  0  0  0  0  0  0  0  0  0  0  0
  -29.7840  -20.6270   22.0840 S   0  0  0  0  0  0  0  0  0  0  0  0
  -28.6920  -22.2560   18.9080 H   0  0  0  0  0  0  0  0  0  0  0  0
  -31.0120  -14.8580   19.6990 C   0  0  0  0  0  0  0  0  0  0  0  0
  -30.5670  -12.6040   18.7100 C   0  0  0  0  0  2  0  0  0  0  0  0
  -29.5400  -12.7570   17.5680 C   0  0  0  0  0  2  0  0  0  0  0  0
  -28.1130  -12.6270   18.1260 C   0  0  0  0  0  2  0  0  0  0  0  0
  -27.8860  -13.4940   19.3900 C   0  0  0  0  0  3  0  0  0  0  0  0
  -29.0430  -13.3860   20.4140 C   0  0  0  0  0  2  0  0  0  0  0  0
  -30.2980  -13.6750   19.7060 N   0  0  0  0  0  0  0  0  0  0  0  0
  -32.1550  -14.8310   19.2350 O   0  0  0  0  0  0  0  0  0  0  0  0
  -30.7650  -17.3580   19.6630 C   0  0  0  0  0  0  0  0  0  0  0  0
  -30.3970  -16.0620   20.0500 N   0  0  0  0  0  0  0  0  0  0  0  0
  -31.5600  -17.5290   18.7300 O   0  0  0  0  0  0  0  0  0  0  0  0
  -29.5820  -15.9950   20.6360 H   0  0  0  0  0  0  0  0  0  0  0  0
  -25.6100  -14.1510   20.3660 C   0  0  0  0  0  0  0  0  0  0  0  0
  -24.5490  -13.4080   20.8080 C   0  0  0  0  0  0  0  0  0  0  0  0
  -24.9380  -12.0390   20.6670 C   0  0  0  0  0  0  0  0  0  0  0  0
  -26.5840  -13.2390   19.9960 N   0  0  0  0  0  0  0  0  0  0  0  0
  -26.1900  -11.9590   20.2330 N   0  0  0  0  0  0  0  0  0  0  0  0
  -24.1690  -10.8040   20.8630 C   0  0  0  0  0  0  0  0  0  0  0  0
  -24.5860   -9.8040   21.7700 C   0  0  0  0  0  3  0  0  0  0  0  0
  -23.8140   -8.6360   21.9560 C   0  0  0  0  0  3  0  0  0  0  0  0
  -22.6110   -8.4590   21.2320 C   0  0  0  0  0  0  0  0  0  0  0  0
  -22.2110   -9.4450   20.3140 C   0  0  0  0  0  3  0  0  0  0  0  0
  -22.9840  -10.6040   20.1280 C   0  0  0  0  0  3  0  0  0  0  0  0
  -21.8120   -7.3450   21.3260 O   0  0  0  0  0  0  0  0  0  0  0  0
  -21.7110   -6.6280   22.4910 C   0  0  0  0  0  0  0  0  0  0  0  0
  -21.2420   -7.2120   23.6880 C   0  0  0  0  0  3  0  0  0  0  0  0
  -21.0900   -6.4230   24.8450 C   0  0  0  0  0  3  0  0  0  0  0  0
  -21.3960   -5.0490   24.8060 C   0  0  0  0  0  0  0  0  0  0  0  0
  -21.8600   -4.4640   23.6130 C   0  0  0  0  0  3  0  0  0  0  0  0
  -22.0130   -5.2520   22.4590 C   0  0  0  0  0  0  0  0  0  0  0  0
  -22.4410   -4.6800   21.3070 F   0  0  0  0  0  0  0  0  0  0  0  0
  -21.2420   -4.2870   25.9140 F   0  0  0  0  0  0  0  0  0  0  0  0
  -23.2110  -13.9340   21.2350 C   0  0  0  0  0  0  0  0  0  0  0  0
  -22.5380  -13.2300   22.1400 N   0  0  0  0  0  0  0  0  0  0  0  0
  -22.7780  -15.0030   20.8050 O   0  0  0  0  0  0  0  0  0  0  0  0
  -22.9030  -12.3650   22.5070 H   0  0  0  0  0  0  0  0  0  0  0  0
  -21.6430  -13.5630   22.4680 H   0  0  0  0  0  0  0  0  0  0  0  0
  -25.8170  -15.5200   20.2140 N   0  0  0  0  0  0  0  0  0  0  0  0
  -25.0470  -16.1720   20.3220 H   0  0  0  0  0  0  0  0  0  0  0  0
  -26.5770  -15.9060   19.6680 H   0  0  0  0  0  0  0  0  0  0  0  0
  -28.1950  -24.6530   18.1070 C   0  0  0  0  0  1  0  0  0  0  0  0
  -28.1470  -24.7840   19.6370 C   0  0  0  0  0  3  0  0  0  0  0  0
  -28.3480  -26.2640   19.9580 O   0  0  0  0  0  0  0  0  0  0  0  0
  -24.6350  -31.6990   23.0620 C   0  0  0  0  0  0  0  0  0  0  0  0
  -27.2620  -27.1900   19.8660 C   0  0  0  0  0  0  0  0  0  0  0  0
  -23.4360  -30.3120   21.4130 C   0  0  0  0  0  3  0  0  0  0  0  0
  -24.8890  -28.8350   19.9060 C   0  0  0  0  0  0  0  0  0  0  0  0
  -25.9690  -30.6660   21.1990 C   0  0  0  0  0  2  0  0  0  0  0  0
  -26.0590  -29.3000   20.5180 C   0  0  0  0  0  0  0  0  0  0  0  0
  -27.2440  -28.4850   20.4990 C   0  0  0  0  0  3  0  0  0  0  0  0
  -26.0760  -26.8330   19.1790 C   0  0  0  0  0  3  0  0  0  0  0  0
  -24.9060  -27.6160   19.2180 C   0  0  0  0  0  3  0  0  0  0  0  0
  -23.6370  -29.6850   20.0080 C   0  0  0  0  0  2  0  0  0  0  0  0
  -24.7010  -30.9120   21.9470 N   0  0  0  0  0  0  0  0  0  0  0  0
  -23.5560  -31.9370   23.6240 O   0  0  0  0  0  0  0  0  0  0  0  0
  -22.8160  -29.2530   22.3610 C   0  0  0  0  0  0  0  0  0  0  0  0
  -21.4940  -29.0330   22.2480 N   0  0  0  0  0  0  0  0  0  0  0  0
  -23.5230  -28.6390   23.1630 O   0  0  0  0  0  0  0  0  0  0  0  0
  -20.9780  -29.5800   21.5740 H   0  0  0  0  0  0  0  0  0  0  0  0
  -18.1790  -27.6720   22.7510 C   0  0  0  0  0  0  0  0  0  0  0  0
  -20.7220  -28.0550   23.0160 C   0  0  0  0  0  3  0  0  0  0  0  0
  -20.8910  -26.6330   22.4340 C   0  0  0  0  0  2  0  0  0  0  0  0
  -19.8030  -26.2610   21.4200 C   0  0  0  0  0  2  0  0  0  0  0  0
  -18.4180  -26.3370   22.0660 C   0  0  0  0  0  2  0  0  0  0  0  0
  -19.2600  -28.4850   23.1830 C   0  0  0  0  0  0  0  0  0  0  0  0
  -18.9820  -29.7300   23.7880 C   0  0  0  0  0  3  0  0  0  0  0  0
  -17.6550  -30.1660   23.9620 C   0  0  0  0  0  3  0  0  0  0  0  0
  -16.5870  -29.3510   23.5430 C   0  0  0  0  0  3  0  0  0  0  0  0
  -16.8500  -28.1060   22.9450 C   0  0  0  0  0  3  0  0  0  0  0  0
  -25.9120  -32.3530   23.6730 C   0  0  0  0  0  3  0  0  0  0  0  0
  -25.5670  -33.7330   24.0510 N   0  0  0  0  0  0  0  0  0  0  0  0
  -25.8630  -34.8200   23.3260 C   0  0  0  0  0  0  0  0  0  0  0  0
  -26.5250  -34.7680   22.2860 O   0  0  0  0  0  0  0  0  0  0  0  0
  -24.9820  -33.8470   24.8650 H   0  0  0  0  0  0  0  0  0  0  0  0
  -24.0890  -36.5830   23.0480 C   0  0  0  0  0  1  0  0  0  0  0  0
  -25.3440  -36.1780   23.8370 C   0  0  0  0  0  3  0  0  0  0  0  0
  -27.4520  -37.0900   24.7010 C   0  0  0  0  0  1  0  0  0  0  0  0
  -26.3490  -37.2600   23.7590 N   0  0  0  0  0  0  0  0  0  0  0  0
  -25.9190  -38.1650   23.9300 H   0  0  0  0  0  0  0  0  0  0  0  0
  -26.4810  -31.5660   24.9180 C   0  0  1  0  0  0  0  0  0  0  0  0
  -25.4240  -31.2740   26.0080 C   0  0  0  0  0  1  0  0  0  0  0  0
  -27.0950  -30.2150   24.4830 C   0  0  0  0  0  1  0  0  0  0  0  0
  -27.6260  -32.3790   25.5680 C   0  0  0  0  0  1  0  0  0  0  0  0
  1  2  2  0
  2  9  1  0
  2  8  1  0
  3  9  1  0
  4  7  2  0
  5  1  1  0
  5  3  2  0
  6  4  1  0
  6  3  1  0
 10  6  1  0
 11 17  1  0
 11 20  1  0
 12 17  1  0
 13 14  1  0
 13 12  1  0
 15 14  1  0
 15 26  1  0
 15 16  1  0
 17 16  1  0
 18 11  2  0
 19 20  1  0
 19  1  1  0
 20 22  1  0
 21 19  2  0
 23 24  2  0
 24 43  1  0
 25 24  1  0
 25 28  1  0
 26 27  1  0
 26 23  1  0
 27 25  2  0
 28 29  1  0
 29 30  2  0
 31 34  1  0
 31 30  1  0
 32 31  2  0
 33 32  1  0
 33 28  2  0
 34 35  1  0
 35 36  1  0
 36 37  2  0
 38 37  1  0
 38 42  1  0
 39 38  2  0
 40 35  2  0
 40 39  1  0
 41 40  1  0
 43 44  1  0
 44 47  1  0
 44 46  1  0
 45 43  2  0
 48 49  1  0
 48 23  1  0
 50 48  1  0
 52 51  1  0
 52 53  1  0
 52  4  1  0
 54 65  2  0
 55 53  1  0
 55 60  1  0
 56 64  1  0
 56 66  1  0
 57 63  1  0
 57 59  1  0
 58 64  1  0
 59 58  1  0
 60 59  2  0
 61 62  1  0
 61 55  2  0
 62 57  2  0
 63 56  1  0
 64 54  1  0
 66 68  2  0
 67 66  1  0
 69 67  1  0
 70 79  2  0
 70 75  1  0
 71 67  1  0
 71 75  1  0
 72 71  1  0
 73 74  1  0
 73 72  1  0
 74 70  1  0
 75 76  2  0
 76 77  1  0
 78 77  2  0
 79 78  1  0
 80 54  1  0
 80 81  1  0
 80 90  1  0
 81 84  1  0
 82 86  1  0
 82 81  1  0
 83 82  2  0
 86 85  1  0
 88 86  1  0
 88 89  1  0
 88 87  1  0
 90 93  1  1
 90 91  1  0
 92 90  1  0
M  ISO  4  11 100  20 100  52 101  53 101
M  END
>  <TORSDO>  (37) 
F 17

>  <SCORE>  (37) 
-13.607

>  <name>  (37) 
36

>  <ligand_id>  (37) 
36

>  <original_smiles>  (37) 
[H]c1c([H])c([H])c2c(c1[H])C([H])([H])C([H])([H])C([H])([H])C2([H])N([H])C(=O)C1([H])N(C(=O)C([H])(N([H])C(=O)C([H])(N([H])C([H])([H])[H])C([H])([H])[H])C(C([H])([H])[H])(C([H])([H])[H])C([H])([H])[H])C([H])([H])c2c([H])c(OC([H])(C(=O)N([H])c3nc(C(=O)N([H])C(=O)N4C([H])([H])C([H])([H])C([H])([H])C([H])(n5nc(-c6c([H])c([H])c(Oc7c([H])c([H])c(F)c([H])c7F)c([H])c6[H])c(C(=O)N([H])[H])c5N([H])[H])C4([H])[H])c(F)s3)C([H])([H])[H])c([H])c([H])c2C1([H])[H]

>  <smiles>  (37) 
[H]c1c([H])c([H])c2c(c1[H])C([H])([H])C([H])([H])C([H])([H])C2([H])N([H])C(=O)C1([H])N(C(=O)C([H])(N([H])C(=O)C([H])(N([H])C([H])([H])[H])C([H])([H])[H])C(C([H])([H])[H])(C([H])([H])[H])C([H])([H])[H])C([H])([H])c2c([H])c(OC([H])(C(=O)N([H])c3nc(C(=O)N([H])C(=O)N4C([H])([H])C([H])([H])C([H])([H])C([H])(n5nc(-c6c([H])c([H])c(Oc7c([H])c([H])c(F)c([H])c7F)c([H])c6[H])c(C(=O)N([H])[H])c5N([H])[H])C4([H])[H])c(F)s3)C([H])([H])[H])c([H])c([H])c2C1([H])[H]

$$$$
37:0:0
     RDKit          3D

 97105  0  0  1  0  0  0  0  0999 V2000
  -29.8620  -21.8780   20.3960 C   0  0  0  0  0  0  0  0  0  0  0  0
  -29.4450  -20.6370   20.0480 N   0  0  0  0  0  0  0  0  0  0  0  0
  -30.4030  -22.1140   21.4780 O   0  0  0  0  0  0  0  0  0  0  0  0
  -28.8330  -20.6220   19.2440 H   0  0  0  0  0  0  0  0  0  0  0  0
  -30.6260  -14.5230   20.5100 C   0  0  0  0  0  0  0  0  0  0  0  0
  -30.3710  -12.3490   19.3560 C   0  0  0  0  0  2  0  0  0  0  0  0
  -29.4320  -12.5360   18.1450 C   0  0  0  0  0  2  0  0  0  0  0  0
  -27.9530  -12.3970   18.5630 C   0  0  0  0  0  2  0  0  0  0  0  0
  -27.6040  -13.2360   19.8210 C   0  0  0  0  0  3  0  0  0  0  0  0
  -28.6500  -13.0070   20.9360 C   0  0  0  0  0  2  0  0  0  0  0  0
  -29.9780  -13.3290   20.3830 N   0  0  0  0  0  0  0  0  0  0  0  0
  -31.7550  -14.7110   20.0450 O   0  0  0  0  0  0  0  0  0  0  0  0
  -31.0500  -18.9840   21.0240 C   0  0  0  0  0  0  0  0  0  0  0  0
  -29.8370  -19.4020   20.5030 C   0  0  0  0  0  0  0  0  0  0  0  0
  -30.0510  -16.9310   20.9010 C   0  0  0  0  0  0  0  0  0  0  0  0
  -31.1580  -17.6010   21.2480 N   0  0  0  0  0  0  0  0  0  0  0  0
  -29.8890  -15.5170   21.0580 N   0  0  0  0  0  0  0  0  0  0  0  0
  -28.7740  -18.0070   20.3250 S   0  0  0  0  0  0  0  0  0  0  0  0
  -28.9690  -15.2240   21.3520 H   0  0  0  0  0  0  0  0  0  0  0  0
  -25.2020  -13.8540   20.5110 C   0  0  0  0  0  0  0  0  0  0  0  0
  -24.1310  -13.0860   20.8810 C   0  0  0  0  0  0  0  0  0  0  0  0
  -24.5890  -11.7330   20.8610 C   0  0  0  0  0  0  0  0  0  0  0  0
  -26.2460  -12.9690   20.2910 N   0  0  0  0  0  0  0  0  0  0  0  0
  -25.8800  -11.6890   20.5580 N   0  0  0  0  0  0  0  0  0  0  0  0
  -23.8600  -10.4740   21.0540 C   0  0  0  0  0  0  0  0  0  0  0  0
  -24.2970   -9.5020   21.9810 C   0  0  0  0  0  3  0  0  0  0  0  0
  -23.5680   -8.3070   22.1630 C   0  0  0  0  0  3  0  0  0  0  0  0
  -22.3880   -8.0760   21.4180 C   0  0  0  0  0  0  0  0  0  0  0  0
  -21.9690   -9.0360   20.4800 C   0  0  0  0  0  3  0  0  0  0  0  0
  -22.6980  -10.2230   20.2970 C   0  0  0  0  0  3  0  0  0  0  0  0
  -21.6290   -6.9340   21.5100 O   0  0  0  0  0  0  0  0  0  0  0  0
  -21.6020   -6.1780   22.6540 C   0  0  0  0  0  0  0  0  0  0  0  0
  -21.2170   -6.7230   23.8990 C   0  0  0  0  0  3  0  0  0  0  0  0
  -21.1350   -5.8940   25.0360 C   0  0  0  0  0  3  0  0  0  0  0  0
  -21.4280   -4.5210   24.9300 C   0  0  0  0  0  0  0  0  0  0  0  0
  -21.8080   -3.9760   23.6910 C   0  0  0  0  0  3  0  0  0  0  0  0
  -21.8910   -4.8020   22.5570 C   0  0  0  0  0  0  0  0  0  0  0  0
  -22.2370   -4.2670   21.3600 F   0  0  0  0  0  0  0  0  0  0  0  0
  -21.3430   -3.7230   26.0200 F   0  0  0  0  0  0  0  0  0  0  0  0
  -22.7320  -13.5680   21.1440 C   0  0  0  0  0  0  0  0  0  0  0  0
  -21.9990  -12.8770   22.0100 N   0  0  0  0  0  0  0  0  0  0  0  0
  -22.2990  -14.5910   20.6160 O   0  0  0  0  0  0  0  0  0  0  0  0
  -22.3600  -12.0490   22.4600 H   0  0  0  0  0  0  0  0  0  0  0  0
  -21.0610  -13.1820   22.2310 H   0  0  0  0  0  0  0  0  0  0  0  0
  -25.3700  -15.2240   20.3270 N   0  0  0  0  0  0  0  0  0  0  0  0
  -24.5990  -15.8750   20.4230 H   0  0  0  0  0  0  0  0  0  0  0  0
  -26.2140  -15.6610   19.9800 H   0  0  0  0  0  0  0  0  0  0  0  0
  -32.1540  -19.7920   21.2820 N   0  0  0  0  0  0  0  0  0  0  0  0
  -31.9190  -20.7730   21.4210 H   0  0  0  0  0  0  0  0  0  0  0  0
  -32.8240  -19.4460   21.9580 H   0  0  0  0  0  0  0  0  0  0  0  0
  -30.9240  -22.9650   18.4510 C   0  0  0  0  0  1  0  0  0  0  0  0
  -28.4500  -22.7320   18.4270 C   0  0  0  0  0  1  0  0  0  0  0  0
  -29.6640  -23.0250   19.3440 C   0  0  1  0  0  0  0  0  0  0  0  0
  -29.6170  -24.5020   19.9290 C   0  0  0  0  0  2  0  0  0  0  0  0
  -27.7220  -24.7570   21.6310 C   0  0  0  0  0  1  0  0  0  0  0  0
  -28.2520  -25.1830   20.2510 C   0  0  0  0  0  3  0  0  0  0  0  0
  -28.3720  -26.6330   20.1940 O   0  0  0  0  0  0  0  0  0  0  0  0
  -24.5950  -31.8820   23.2350 C   0  0  0  0  0  0  0  0  0  0  0  0
  -27.2120  -27.3980   20.1590 C   0  0  0  0  0  0  0  0  0  0  0  0
  -23.3850  -30.4820   21.5970 C   0  0  0  0  0  3  0  0  0  0  0  0
  -24.8300  -28.9470   20.1670 C   0  0  0  0  0  0  0  0  0  0  0  0
  -25.9150  -30.8290   21.3960 C   0  0  0  0  0  2  0  0  0  0  0  0
  -25.9950  -29.4560   20.7550 C   0  0  0  0  0  0  0  0  0  0  0  0
  -27.1890  -28.6920   20.7430 C   0  0  0  0  0  3  0  0  0  0  0  0
  -26.0240  -26.9280   19.5470 C   0  0  0  0  0  3  0  0  0  0  0  0
  -24.8420  -27.6850   19.5580 C   0  0  0  0  0  3  0  0  0  0  0  0
  -23.5890  -29.8090   20.2160 C   0  0  0  0  0  2  0  0  0  0  0  0
  -24.6510  -31.0790   22.1340 N   0  0  0  0  0  0  0  0  0  0  0  0
  -23.5140  -32.1580   23.7730 O   0  0  0  0  0  0  0  0  0  0  0  0
  -22.7320  -29.4600   22.5560 C   0  0  0  0  0  0  0  0  0  0  0  0
  -21.4080  -29.2780   22.4250 N   0  0  0  0  0  0  0  0  0  0  0  0
  -23.4130  -28.8340   23.3730 O   0  0  0  0  0  0  0  0  0  0  0  0
  -20.9200  -29.8350   21.7380 H   0  0  0  0  0  0  0  0  0  0  0  0
  -18.0320  -28.0730   22.9040 C   0  0  0  0  0  0  0  0  0  0  0  0
  -20.5880  -28.3400   23.1930 C   0  0  0  0  0  3  0  0  0  0  0  0
  -20.7000  -26.9070   22.6240 C   0  0  0  0  0  2  0  0  0  0  0  0
  -19.6050  -26.5760   21.6060 C   0  0  0  0  0  2  0  0  0  0  0  0
  -18.2180  -26.7200   22.2390 C   0  0  0  0  0  2  0  0  0  0  0  0
  -19.1470  -28.8410   23.3380 C   0  0  0  0  0  0  0  0  0  0  0  0
  -18.9200  -30.1070   23.9190 C   0  0  0  0  0  3  0  0  0  0  0  0
  -17.6140  -30.6050   24.0760 C   0  0  0  0  0  3  0  0  0  0  0  0
  -16.5140  -29.8350   23.6610 C   0  0  0  0  0  3  0  0  0  0  0  0
  -16.7240  -28.5720   23.0790 C   0  0  0  0  0  3  0  0  0  0  0  0
  -25.8820  -32.5120   23.8540 C   0  0  0  0  0  3  0  0  0  0  0  0
  -26.4040  -31.7400   25.1270 C   0  0  1  0  0  0  0  0  0  0  0  0
  -25.3160  -31.5000   26.1990 C   0  0  0  0  0  1  0  0  0  0  0  0
  -26.9880  -30.3650   24.7300 C   0  0  0  0  0  1  0  0  0  0  0  0
  -27.5560  -32.5360   25.7860 C   0  0  0  0  0  1  0  0  0  0  0  0
  -25.5740  -33.9100   24.1850 N   0  0  0  0  0  0  0  0  0  0  0  0
  -25.9040  -34.9630   23.4250 C   0  0  0  0  0  0  0  0  0  0  0  0
  -26.5720  -34.8610   22.3920 O   0  0  0  0  0  0  0  0  0  0  0  0
  -24.9880  -34.0690   24.9920 H   0  0  0  0  0  0  0  0  0  0  0  0
  -24.1740  -36.7540   23.0750 C   0  0  0  0  0  1  0  0  0  0  0  0
  -25.4150  -36.3490   23.8840 C   0  0  0  0  0  3  0  0  0  0  0  0
  -27.5500  -37.2290   24.7160 C   0  0  0  0  0  1  0  0  0  0  0  0
  -26.4470  -37.4030   23.7750 N   0  0  0  0  0  0  0  0  0  0  0  0
  -26.0400  -38.3210   23.9310 H   0  0  0  0  0  0  0  0  0  0  0  0
  1  3  2  0
  2  1  1  0
  2 14  1  0
  4  2  1  0
  5 17  1  0
  6 11  1  0
  7  8  1  0
  7  6  1  0
  9  8  1  0
  9 23  1  0
  9 10  1  0
 11  5  1  0
 11 10  1  0
 12  5  2  0
 13 16  1  0
 13 48  1  0
 14 13  2  0
 15 17  1  0
 15 16  2  0
 17 19  1  0
 18 14  1  0
 18 15  1  0
 20 21  2  0
 21 40  1  0
 22 21  1  0
 22 25  1  0
 23 20  1  0
 23 24  1  0
 24 22  2  0
 25 26  1  0
 26 27  2  0
 28 31  1  0
 28 27  1  0
 29 28  2  0
 30 29  1  0
 30 25  2  0
 31 32  1  0
 32 33  1  0
 33 34  2  0
 35 34  1  0
 35 39  1  0
 36 35  2  0
 37 32  2  0
 37 36  1  0
 38 37  1  0
 40 41  1  0
 41 44  1  0
 41 43  1  0
 42 40  2  0
 45 46  1  0
 45 20  1  0
 47 45  1  0
 48 49  1  0
 48 50  1  0
 53 51  1  6
 52 53  1  0
 53 54  1  0
 53  1  1  0
 54 56  1  0
 56 55  1  0
 57 56  1  0
 58 69  2  0
 59 57  1  0
 59 64  1  0
 60 68  1  0
 60 70  1  0
 61 67  1  0
 61 63  1  0
 62 68  1  0
 63 62  1  0
 64 63  2  0
 65 66  1  0
 65 59  2  0
 66 61  2  0
 67 60  1  0
 68 58  1  0
 70 72  2  0
 71 70  1  0
 73 71  1  0
 74 83  2  0
 74 79  1  0
 75 71  1  0
 75 79  1  0
 76 75  1  0
 77 78  1  0
 77 76  1  0
 78 74  1  0
 79 80  2  0
 80 81  1  0
 82 81  2  0
 83 82  1  0
 84 58  1  0
 84 89  1  0
 84 85  1  0
 85 88  1  1
 85 86  1  0
 87 85  1  0
 89 92  1  0
 90 94  1  0
 90 89  1  0
 91 90  2  0
 94 93  1  0
 96 94  1  0
 96 97  1  0
 96 95  1  0
M  ISO  4   5 100  17 100  56 101  57 101
M  END
>  <TORSDO>  (38) 
F 20

>  <SCORE>  (38) 
-14.453

>  <name>  (38) 
37

>  <ligand_id>  (38) 
37

>  <original_smiles>  (38) 
[H]c1c([H])c([H])c2c(c1[H])C([H])([H])C([H])([H])C([H])([H])C2([H])N([H])C(=O)C1([H])N(C(=O)C([H])(N([H])C(=O)C([H])(N([H])C([H])([H])[H])C([H])([H])[H])C(C([H])([H])[H])(C([H])([H])[H])C([H])([H])[H])C([H])([H])c2c([H])c(OC([H])(C([H])([H])[H])C([H])([H])C(C(=O)N([H])c3sc(N([H])C(=O)N4C([H])([H])C([H])([H])C([H])([H])C([H])(n5nc(-c6c([H])c([H])c(Oc7c([H])c([H])c(F)c([H])c7F)c([H])c6[H])c(C(=O)N([H])[H])c5N([H])[H])C4([H])[H])nc3N([H])[H])(C([H])([H])[H])C([H])([H])[H])c([H])c([H])c2C1([H])[H]

>  <smiles>  (38) 
[H]c1c([H])c([H])c2c(c1[H])C([H])([H])C([H])([H])C([H])([H])C2([H])N([H])C(=O)C1([H])N(C(=O)C([H])(N([H])C(=O)C([H])(N([H])C([H])([H])[H])C([H])([H])[H])C(C([H])([H])[H])(C([H])([H])[H])C([H])([H])[H])C([H])([H])c2c([H])c(OC([H])(C([H])([H])[H])C([H])([H])C(C(=O)N([H])c3sc(N([H])C(=O)N4C([H])([H])C([H])([H])C([H])([H])C([H])(n5nc(-c6c([H])c([H])c(Oc7c([H])c([H])c(F)c([H])c7F)c([H])c6[H])c(C(=O)N([H])[H])c5N([H])[H])C4([H])[H])nc3N([H])[H])(C([H])([H])[H])C([H])([H])[H])c([H])c([H])c2C1([H])[H]

$$$$
38:0:0
     RDKit          3D

 95103  0  0  1  0  0  0  0  0999 V2000
  -29.2660  -22.9370   20.1130 C   0  0  0  0  0  0  0  0  0  0  0  0
  -28.6900  -21.7220   19.9520 N   0  0  0  0  0  0  0  0  0  0  0  0
  -30.3930  -23.0570   20.6040 O   0  0  0  0  0  0  0  0  0  0  0  0
  -27.7230  -21.7380   19.6540 H   0  0  0  0  0  0  0  0  0  0  0  0
  -30.6290  -18.5960   19.5870 C   0  0  0  0  0  0  0  0  0  0  0  0
  -30.2390  -19.9290   19.2410 C   0  0  0  0  0  0  0  0  0  0  0  0
  -29.9920  -18.0810   20.6890 C   0  0  0  0  0  0  0  0  0  0  0  0
  -29.2900  -20.4940   20.0620 C   0  0  0  0  0  0  0  0  0  0  0  0
  -31.5560  -17.9510   18.9150 F   0  0  0  0  0  0  0  0  0  0  0  0
  -30.7550  -20.5530   18.2040 F   0  0  0  0  0  0  0  0  0  0  0  0
  -28.8600  -19.3010   21.2900 S   0  0  0  0  0  0  0  0  0  0  0  0
  -31.6690  -16.7480   22.0760 C   0  0  0  0  0  1  0  0  0  0  0  0
  -30.2560  -16.7920   21.4650 C   0  0  0  0  0  3  0  0  0  0  0  0
  -30.4850  -14.5670   20.1410 C   0  0  0  0  0  0  0  0  0  0  0  0
  -30.1520  -12.4480   18.8950 C   0  0  0  0  0  2  0  0  0  0  0  0
  -29.1230  -12.6610   17.7640 C   0  0  0  0  0  2  0  0  0  0  0  0
  -27.6850  -12.4720   18.2860 C   0  0  0  0  0  2  0  0  0  0  0  0
  -27.4180  -13.2600   19.5970 C   0  0  0  0  0  3  0  0  0  0  0  0
  -28.5470  -13.0170   20.6220 C   0  0  0  0  0  2  0  0  0  0  0  0
  -29.8210  -13.3860   19.9790 N   0  0  0  0  0  0  0  0  0  0  0  0
  -31.5710  -14.7880   19.6010 O   0  0  0  0  0  0  0  0  0  0  0  0
  -29.8260  -15.5030   20.8650 N   0  0  0  0  0  0  0  0  0  0  0  0
  -28.9170  -15.1950   21.1750 H   0  0  0  0  0  0  0  0  0  0  0  0
  -25.0640  -13.8070   20.4760 C   0  0  0  0  0  0  0  0  0  0  0  0
  -24.0330  -13.0070   20.8900 C   0  0  0  0  0  0  0  0  0  0  0  0
  -24.5110  -11.6650   20.7940 C   0  0  0  0  0  0  0  0  0  0  0  0
  -26.1040  -12.9490   20.1530 N   0  0  0  0  0  0  0  0  0  0  0  0
  -25.7800  -11.6550   20.4020 N   0  0  0  0  0  0  0  0  0  0  0  0
  -23.8180  -10.3860   20.9930 C   0  0  0  0  0  0  0  0  0  0  0  0
  -24.3000   -9.4190   21.9030 C   0  0  0  0  0  3  0  0  0  0  0  0
  -23.6040   -8.2060   22.0930 C   0  0  0  0  0  3  0  0  0  0  0  0
  -22.4150   -7.9490   21.3720 C   0  0  0  0  0  0  0  0  0  0  0  0
  -21.9520   -8.9050   20.4500 C   0  0  0  0  0  3  0  0  0  0  0  0
  -22.6470  -10.1100   20.2590 C   0  0  0  0  0  3  0  0  0  0  0  0
  -21.6880   -6.7870   21.4720 O   0  0  0  0  0  0  0  0  0  0  0  0
  -21.6710   -6.0460   22.6260 C   0  0  0  0  0  0  0  0  0  0  0  0
  -21.2410   -6.5900   23.8560 C   0  0  0  0  0  3  0  0  0  0  0  0
  -21.1730   -5.7730   25.0020 C   0  0  0  0  0  3  0  0  0  0  0  0
  -21.5270   -4.4130   24.9190 C   0  0  0  0  0  0  0  0  0  0  0  0
  -21.9500   -3.8680   23.6950 C   0  0  0  0  0  3  0  0  0  0  0  0
  -22.0190   -4.6820   22.5500 C   0  0  0  0  0  0  0  0  0  0  0  0
  -22.4080   -4.1470   21.3680 F   0  0  0  0  0  0  0  0  0  0  0  0
  -21.4530   -3.6250   26.0170 F   0  0  0  0  0  0  0  0  0  0  0  0
  -22.6490  -13.4550   21.2620 C   0  0  0  0  0  0  0  0  0  0  0  0
  -21.9870  -12.7240   22.1520 N   0  0  0  0  0  0  0  0  0  0  0  0
  -22.1650  -14.4870   20.7990 O   0  0  0  0  0  0  0  0  0  0  0  0
  -22.3930  -11.8900   22.5500 H   0  0  0  0  0  0  0  0  0  0  0  0
  -21.0600  -13.0050   22.4400 H   0  0  0  0  0  0  0  0  0  0  0  0
  -25.1990  -15.1840   20.3300 N   0  0  0  0  0  0  0  0  0  0  0  0
  -24.4280  -15.8200   20.5040 H   0  0  0  0  0  0  0  0  0  0  0  0
  -26.0170  -15.6440   19.9520 H   0  0  0  0  0  0  0  0  0  0  0  0
  -28.4760  -24.2050   19.6560 C   0  0  0  0  0  3  0  0  0  0  0  0
  -27.2490  -23.8460   19.2620 F   0  0  0  0  0  0  0  0  0  0  0  0
  -28.3810  -25.3850   20.6810 C   0  0  0  0  0  2  0  0  0  0  0  0
  -28.4230  -26.7270   20.1250 O   0  0  0  0  0  0  0  0  0  0  0  0
  -24.5670  -31.9000   23.2190 C   0  0  0  0  0  0  0  0  0  0  0  0
  -27.2520  -27.4620   20.1420 C   0  0  0  0  0  0  0  0  0  0  0  0
  -23.3800  -30.5030   21.5600 C   0  0  0  0  0  3  0  0  0  0  0  0
  -24.8520  -28.9730   20.1400 C   0  0  0  0  0  0  0  0  0  0  0  0
  -25.9080  -30.8690   21.3810 C   0  0  0  0  0  2  0  0  0  0  0  0
  -26.0060  -29.5000   20.7350 C   0  0  0  0  0  0  0  0  0  0  0  0
  -27.2120  -28.7540   20.7230 C   0  0  0  0  0  3  0  0  0  0  0  0
  -26.0800  -26.9540   19.5450 C   0  0  0  0  0  3  0  0  0  0  0  0
  -24.8850  -27.7020   19.5410 C   0  0  0  0  0  3  0  0  0  0  0  0
  -23.6040  -29.8290   20.1800 C   0  0  0  0  0  2  0  0  0  0  0  0
  -24.6370  -31.1050   22.1120 N   0  0  0  0  0  0  0  0  0  0  0  0
  -23.4800  -32.1630   23.7520 O   0  0  0  0  0  0  0  0  0  0  0  0
  -22.7240  -29.4750   22.5110 C   0  0  0  0  0  0  0  0  0  0  0  0
  -21.4000  -29.2940   22.3780 N   0  0  0  0  0  0  0  0  0  0  0  0
  -23.4040  -28.8410   23.3220 O   0  0  0  0  0  0  0  0  0  0  0  0
  -20.9120  -29.8570   21.6940 H   0  0  0  0  0  0  0  0  0  0  0  0
  -18.0210  -28.1140   22.8710 C   0  0  0  0  0  0  0  0  0  0  0  0
  -20.5800  -28.3500   23.1370 C   0  0  0  0  0  3  0  0  0  0  0  0
  -20.6720  -26.9280   22.5370 C   0  0  0  0  0  2  0  0  0  0  0  0
  -19.5640  -26.6290   21.5220 C   0  0  0  0  0  2  0  0  0  0  0  0
  -18.1860  -26.7730   22.1740 C   0  0  0  0  0  2  0  0  0  0  0  0
  -19.1460  -28.8610   23.3090 C   0  0  0  0  0  0  0  0  0  0  0  0
  -18.9370  -30.1160   23.9200 C   0  0  0  0  0  3  0  0  0  0  0  0
  -17.6370  -30.6240   24.0970 C   0  0  0  0  0  3  0  0  0  0  0  0
  -16.5260  -29.8730   23.6760 C   0  0  0  0  0  3  0  0  0  0  0  0
  -16.7190  -28.6200   23.0680 C   0  0  0  0  0  3  0  0  0  0  0  0
  -25.8440  -32.5320   23.8530 C   0  0  0  0  0  3  0  0  0  0  0  0
  -26.3550  -31.7570   25.1280 C   0  0  1  0  0  0  0  0  0  0  0  0
  -25.2550  -31.5080   26.1860 C   0  0  0  0  0  1  0  0  0  0  0  0
  -26.9470  -30.3850   24.7300 C   0  0  0  0  0  1  0  0  0  0  0  0
  -27.4970  -32.5520   25.8050 C   0  0  0  0  0  1  0  0  0  0  0  0
  -25.5290  -33.9280   24.1870 N   0  0  0  0  0  0  0  0  0  0  0  0
  -25.8630  -34.9840   23.4330 C   0  0  0  0  0  0  0  0  0  0  0  0
  -26.5390  -34.8860   22.4050 O   0  0  0  0  0  0  0  0  0  0  0  0
  -24.9290  -34.0770   24.9850 H   0  0  0  0  0  0  0  0  0  0  0  0
  -24.1260  -36.7680   23.0750 C   0  0  0  0  0  1  0  0  0  0  0  0
  -25.3670  -36.3690   23.8900 C   0  0  0  0  0  3  0  0  0  0  0  0
  -27.4930  -37.2650   24.7310 C   0  0  0  0  0  1  0  0  0  0  0  0
  -26.3960  -37.4270   23.7820 N   0  0  0  0  0  0  0  0  0  0  0  0
  -25.9830  -38.3450   23.9260 H   0  0  0  0  0  0  0  0  0  0  0  0
  1  3  2  0
  2  8  1  0
  2  1  1  0
  4  2  1  0
  5  7  2  0
  6  5  1  0
  6  8  2  0
  7 11  1  0
  7 13  1  0
  8 11  1  0
  9  5  1  0
 10  6  1  0
 13 12  1  0
 14 22  1  0
 15 20  1  0
 16 17  1  0
 16 15  1  0
 18 17  1  0
 18 27  1  0
 18 19  1  0
 20 14  1  0
 20 19  1  0
 21 14  2  0
 22 23  1  0
 22 13  1  0
 24 25  2  0
 25 44  1  0
 26 25  1  0
 26 29  1  0
 27 28  1  0
 27 24  1  0
 28 26  2  0
 29 30  1  0
 30 31  2  0
 32 35  1  0
 32 31  1  0
 33 32  2  0
 34 33  1  0
 34 29  2  0
 35 36  1  0
 36 37  1  0
 37 38  2  0
 39 38  1  0
 39 43  1  0
 40 39  2  0
 41 36  2  0
 41 40  1  0
 42 41  1  0
 44 45  1  0
 45 48  1  0
 45 47  1  0
 46 44  2  0
 49 24  1  0
 49 50  1  0
 51 49  1  0
 52 53  1  0
 52  1  1  0
 52 54  1  0
 55 57  1  0
 55 54  1  0
 56 67  2  0
 57 62  1  0
 58 66  1  0
 58 68  1  0
 59 65  1  0
 59 61  1  0
 60 66  1  0
 61 60  1  0
 62 61  2  0
 63 57  2  0
 64 63  1  0
 64 59  2  0
 65 58  1  0
 66 56  1  0
 68 70  2  0
 69 68  1  0
 71 69  1  0
 72 81  2  0
 72 77  1  0
 73 69  1  0
 73 77  1  0
 74 73  1  0
 75 76  1  0
 75 74  1  0
 76 72  1  0
 77 78  2  0
 78 79  1  0
 80 79  2  0
 81 80  1  0
 82 56  1  0
 82 87  1  0
 82 83  1  0
 83 86  1  1
 83 84  1  0
 85 83  1  0
 87 90  1  0
 88 92  1  0
 88 87  1  0
 89 88  2  0
 92 91  1  0
 94 92  1  0
 94 95  1  0
 94 93  1  0
M  ISO  4  14 100  22 100  54 101  55 101
M  END
>  <TORSDO>  (39) 
F 20

>  <SCORE>  (39) 
-12.597

>  <name>  (39) 
38

>  <ligand_id>  (39) 
38

>  <original_smiles>  (39) 
[H]c1c([H])c([H])c2c(c1[H])C([H])([H])C([H])([H])C([H])([H])C2([H])N([H])C(=O)C1([H])N(C(=O)C([H])(N([H])C(=O)C([H])(N([H])C([H])([H])[H])C([H])([H])[H])C(C([H])([H])[H])(C([H])([H])[H])C([H])([H])[H])C([H])([H])c2c([H])c(OC([H])([H])C([H])(F)C(=O)N([H])c3sc(C([H])(N([H])C(=O)N4C([H])([H])C([H])([H])C([H])([H])C([H])(n5nc(-c6c([H])c([H])c(Oc7c([H])c([H])c(F)c([H])c7F)c([H])c6[H])c(C(=O)N([H])[H])c5N([H])[H])C4([H])[H])C([H])([H])[H])c(F)c3F)c([H])c([H])c2C1([H])[H]

>  <smiles>  (39) 
[H]c1c([H])c([H])c2c(c1[H])C([H])([H])C([H])([H])C([H])([H])C2([H])N([H])C(=O)C1([H])N(C(=O)C([H])(N([H])C(=O)C([H])(N([H])C([H])([H])[H])C([H])([H])[H])C(C([H])([H])[H])(C([H])([H])[H])C([H])([H])[H])C([H])([H])c2c([H])c(OC([H])([H])C([H])(F)C(=O)N([H])c3sc(C([H])(N([H])C(=O)N4C([H])([H])C([H])([H])C([H])([H])C([H])(n5nc(-c6c([H])c([H])c(Oc7c([H])c([H])c(F)c([H])c7F)c([H])c6[H])c(C(=O)N([H])[H])c5N([H])[H])C4([H])[H])C([H])([H])[H])c(F)c3F)c([H])c([H])c2C1([H])[H]

$$$$
39:0:0
     RDKit          3D

 93101  0  0  1  0  0  0  0  0999 V2000
  -28.8660  -22.0050   20.0050 C   0  0  0  0  0  0  0  0  0  0  0  0
  -28.7340  -22.2110   18.7950 O   0  0  0  0  0  0  0  0  0  0  0  0
  -30.4960  -15.2100   19.9850 C   0  0  0  0  0  0  0  0  0  0  0  0
  -30.3890  -12.8270   19.0060 C   0  0  0  0  0  2  0  0  0  0  0  0
  -29.3890  -12.7210   17.8290 C   0  0  0  0  0  2  0  0  0  0  0  0
  -27.9630  -12.4600   18.3500 C   0  0  0  0  0  2  0  0  0  0  0  0
  -27.6010  -13.3750   19.5500 C   0  0  0  0  0  3  0  0  0  0  0  0
  -28.7210  -13.4390   20.6070 C   0  0  0  0  0  2  0  0  0  0  0  0
  -29.9180  -13.9270   19.9070 N   0  0  0  0  0  0  0  0  0  0  0  0
  -31.7120  -15.2440   19.7470 O   0  0  0  0  0  0  0  0  0  0  0  0
  -29.3710  -20.4970   20.4480 C   0  0  0  0  0  0  0  0  0  0  0  0
  -30.1690  -20.2360   21.5630 C   0  0  0  0  0  0  0  0  0  0  0  0
  -29.8330  -17.9540   20.3400 C   0  0  0  0  0  0  0  0  0  0  0  0
  -29.1940  -19.1240   19.8180 N   0  0  0  0  0  0  0  0  0  0  0  0
  -29.6850  -16.4210   19.9980 N   0  0  0  0  0  0  0  0  0  0  0  0
  -30.7220  -18.5340   21.7470 S   0  0  0  0  0  0  0  0  0  0  0  0
  -28.7250  -16.1800   19.8160 H   0  0  0  0  0  0  0  0  0  0  0  0
  -25.2800  -13.9240   20.4620 C   0  0  0  0  0  0  0  0  0  0  0  0
  -24.2410  -13.1380   20.8750 C   0  0  0  0  0  0  0  0  0  0  0  0
  -24.7020  -11.7890   20.7760 C   0  0  0  0  0  0  0  0  0  0  0  0
  -26.3030  -13.0530   20.1300 N   0  0  0  0  0  0  0  0  0  0  0  0
  -25.9710  -11.7620   20.3860 N   0  0  0  0  0  0  0  0  0  0  0  0
  -23.9840  -10.5220   20.9750 C   0  0  0  0  0  0  0  0  0  0  0  0
  -24.4410   -9.5520   21.8930 C   0  0  0  0  0  3  0  0  0  0  0  0
  -23.7220   -8.3520   22.0830 C   0  0  0  0  0  3  0  0  0  0  0  0
  -22.5330   -8.1130   21.3540 C   0  0  0  0  0  0  0  0  0  0  0  0
  -22.0950   -9.0740   20.4240 C   0  0  0  0  0  3  0  0  0  0  0  0
  -22.8140  -10.2640   20.2340 C   0  0  0  0  0  3  0  0  0  0  0  0
  -21.7850   -6.9650   21.4510 O   0  0  0  0  0  0  0  0  0  0  0  0
  -21.7320   -6.2360   22.6110 C   0  0  0  0  0  0  0  0  0  0  0  0
  -21.2450   -6.7890   23.8160 C   0  0  0  0  0  3  0  0  0  0  0  0
  -21.1430   -5.9860   24.9690 C   0  0  0  0  0  3  0  0  0  0  0  0
  -21.5160   -4.6300   24.9190 C   0  0  0  0  0  0  0  0  0  0  0  0
  -21.9940   -4.0750   23.7190 C   0  0  0  0  0  3  0  0  0  0  0  0
  -22.0990   -4.8750   22.5680 C   0  0  0  0  0  0  0  0  0  0  0  0
  -22.5410   -4.3310   21.4070 F   0  0  0  0  0  0  0  0  0  0  0  0
  -21.4110   -3.8550   26.0240 F   0  0  0  0  0  0  0  0  0  0  0  0
  -22.8620  -13.6090   21.2360 C   0  0  0  0  0  0  0  0  0  0  0  0
  -22.1820  -12.8880   22.1190 N   0  0  0  0  0  0  0  0  0  0  0  0
  -22.3980  -14.6500   20.7720 O   0  0  0  0  0  0  0  0  0  0  0  0
  -22.5730  -12.0470   22.5170 H   0  0  0  0  0  0  0  0  0  0  0  0
  -21.2590  -13.1820   22.4030 H   0  0  0  0  0  0  0  0  0  0  0  0
  -25.4300  -15.3010   20.3110 N   0  0  0  0  0  0  0  0  0  0  0  0
  -24.6670  -15.9430   20.5000 H   0  0  0  0  0  0  0  0  0  0  0  0
  -26.2290  -15.7540   19.8910 H   0  0  0  0  0  0  0  0  0  0  0  0
  -30.6410  -21.1220   22.5310 N   0  0  0  0  0  0  0  0  0  0  0  0
  -30.7920  -22.1190   22.3870 H   0  0  0  0  0  0  0  0  0  0  0  0
  -31.2800  -20.7710   23.2410 H   0  0  0  0  0  0  0  0  0  0  0  0
  -28.2320  -24.7290   21.0030 C   0  0  0  0  0  3  0  0  0  0  0  0
  -28.4450  -23.2740   20.9780 C   0  0  0  0  0  0  0  0  0  0  0  0
  -28.1760  -22.7700   22.1960 O   0  0  0  0  0  0  0  0  0  0  0  0
  -28.6130  -21.9240   22.2690 H   0  0  0  0  0  0  0  0  0  0  0  0
  -28.3550  -26.0290   20.2810 O   0  0  0  0  0  0  0  0  0  0  0  0
  -24.6810  -31.8880   23.2680 C   0  0  0  0  0  0  0  0  0  0  0  0
  -27.3390  -27.0910   20.3150 C   0  0  0  0  0  0  0  0  0  0  0  0
  -23.5260  -30.4710   21.6190 C   0  0  0  0  0  3  0  0  0  0  0  0
  -25.0120  -28.8880   20.2280 C   0  0  0  0  0  0  0  0  0  0  0  0
  -26.0870  -30.7330   21.5000 C   0  0  0  0  0  2  0  0  0  0  0  0
  -26.1860  -29.3260   20.8620 C   0  0  0  0  0  0  0  0  0  0  0  0
  -27.3510  -28.4470   20.8830 C   0  0  0  0  0  3  0  0  0  0  0  0
  -26.1390  -26.7850   19.6410 C   0  0  0  0  0  3  0  0  0  0  0  0
  -25.0100  -27.6340   19.6000 C   0  0  0  0  0  3  0  0  0  0  0  0
  -23.7820  -29.7880   20.2480 C   0  0  0  0  0  2  0  0  0  0  0  0
  -24.7840  -31.0550   22.1840 N   0  0  0  0  0  0  0  0  0  0  0  0
  -23.5820  -32.1630   23.7730 O   0  0  0  0  0  0  0  0  0  0  0  0
  -22.8340  -29.4660   22.5770 C   0  0  0  0  0  0  0  0  0  0  0  0
  -21.5060  -29.2940   22.4390 N   0  0  0  0  0  0  0  0  0  0  0  0
  -23.4980  -28.8420   23.4080 O   0  0  0  0  0  0  0  0  0  0  0  0
  -21.0240  -29.8460   21.7450 H   0  0  0  0  0  0  0  0  0  0  0  0
  -18.1230  -28.0870   22.9350 C   0  0  0  0  0  0  0  0  0  0  0  0
  -20.6810  -28.3520   23.2020 C   0  0  0  0  0  3  0  0  0  0  0  0
  -20.7850  -26.9240   22.6200 C   0  0  0  0  0  2  0  0  0  0  0  0
  -19.6840  -26.6060   21.6030 C   0  0  0  0  0  2  0  0  0  0  0  0
  -18.3020  -26.7440   22.2460 C   0  0  0  0  0  2  0  0  0  0  0  0
  -19.2410  -28.8490   23.3680 C   0  0  0  0  0  0  0  0  0  0  0  0
  -19.0190  -30.1050   23.9750 C   0  0  0  0  0  3  0  0  0  0  0  0
  -17.7120  -30.6000   24.1490 C   0  0  0  0  0  3  0  0  0  0  0  0
  -16.6090  -29.8350   23.7300 C   0  0  0  0  0  3  0  0  0  0  0  0
  -16.8150  -28.5810   23.1270 C   0  0  0  0  0  3  0  0  0  0  0  0
  -25.9390  -32.5430   23.9140 C   0  0  0  0  0  3  0  0  0  0  0  0
  -26.4200  -31.8030   25.2230 C   0  0  1  0  0  0  0  0  0  0  0  0
  -25.2960  -31.5810   26.2610 C   0  0  0  0  0  1  0  0  0  0  0  0
  -27.0220  -30.4200   24.8860 C   0  0  0  0  0  1  0  0  0  0  0  0
  -27.5460  -32.6170   25.9020 C   0  0  0  0  0  1  0  0  0  0  0  0
  -25.6130  -33.9470   24.2130 N   0  0  0  0  0  0  0  0  0  0  0  0
  -25.9460  -34.9940   23.4440 C   0  0  0  0  0  0  0  0  0  0  0  0
  -26.6260  -34.8800   22.4220 O   0  0  0  0  0  0  0  0  0  0  0  0
  -25.0120  -34.1100   25.0080 H   0  0  0  0  0  0  0  0  0  0  0  0
  -24.2150  -36.7790   23.0490 C   0  0  0  0  0  1  0  0  0  0  0  0
  -25.4490  -36.3880   23.8780 C   0  0  0  0  0  3  0  0  0  0  0  0
  -27.5650  -37.3020   24.7270 C   0  0  0  0  0  1  0  0  0  0  0  0
  -26.4800  -37.4440   23.7600 N   0  0  0  0  0  0  0  0  0  0  0  0
  -26.0660  -38.3650   23.8820 H   0  0  0  0  0  0  0  0  0  0  0  0
  1 11  1  0
  1 50  1  0
  2  1  2  0
  3 15  1  0
  4  9  1  0
  5  6  1  0
  5  4  1  0
  7  6  1  0
  7 21  1  0
  7  8  1  0
  9  3  1  0
  9  8  1  0
 10  3  2  0
 11 12  2  0
 12 16  1  0
 12 46  1  0
 13 16  1  0
 14 13  2  0
 14 11  1  0
 15 13  1  0
 17 15  1  0
 18 19  2  0
 19 38  1  0
 20 19  1  0
 20 23  1  0
 21 22  1  0
 21 18  1  0
 22 20  2  0
 23 24  1  0
 24 25  2  0
 26 29  1  0
 26 25  1  0
 27 26  2  0
 28 27  1  0
 28 23  2  0
 29 30  1  0
 30 31  1  0
 31 32  2  0
 33 32  1  0
 33 37  1  0
 34 33  2  0
 35 30  2  0
 35 34  1  0
 36 35  1  0
 38 39  1  0
 39 42  1  0
 39 41  1  0
 40 38  2  0
 43 18  1  0
 43 44  1  0
 45 43  1  0
 46 48  1  0
 47 46  1  0
 50 49  2  0
 50 51  1  0
 51 52  1  0
 53 55  1  0
 53 49  1  0
 54 65  2  0
 55 60  1  0
 56 64  1  0
 56 66  1  0
 57 63  1  0
 57 59  1  0
 58 64  1  0
 59 60  2  0
 59 58  1  0
 61 55  2  0
 62 61  1  0
 62 57  2  0
 63 56  1  0
 64 54  1  0
 66 68  2  0
 67 66  1  0
 69 67  1  0
 70 79  2  0
 70 75  1  0
 71 67  1  0
 71 75  1  0
 72 71  1  0
 73 74  1  0
 73 72  1  0
 74 70  1  0
 75 76  2  0
 76 77  1  0
 78 77  2  0
 79 78  1  0
 80 54  1  0
 80 85  1  0
 80 81  1  0
 81 84  1  1
 81 82  1  0
 83 81  1  0
 85 88  1  0
 86 90  1  0
 86 85  1  0
 87 86  2  0
 90 89  1  0
 92 90  1  0
 92 93  1  0
 92 91  1  0
M  ISO  4   3 100  15 100  49 101  53 101
M  END
>  <TORSDO>  (40) 
F 19

>  <SCORE>  (40) 
-14.751

>  <name>  (40) 
39

>  <ligand_id>  (40) 
39

>  <original_smiles>  (40) 
[H]OC(C(=O)c1nc(N([H])C(=O)N2C([H])([H])C([H])([H])C([H])([H])C([H])(n3nc(-c4c([H])c([H])c(Oc5c([H])c([H])c(F)c([H])c5F)c([H])c4[H])c(C(=O)N([H])[H])c3N([H])[H])C2([H])[H])sc1N([H])[H])=C([H])Oc1c([H])c([H])c2c(c1[H])C([H])([H])N(C(=O)C([H])(N([H])C(=O)C([H])(N([H])C([H])([H])[H])C([H])([H])[H])C(C([H])([H])[H])(C([H])([H])[H])C([H])([H])[H])C([H])(C(=O)N([H])C1([H])c3c([H])c([H])c([H])c([H])c3C([H])([H])C([H])([H])C1([H])[H])C2([H])[H]

>  <smiles>  (40) 
[H]OC(C(=O)c1nc(N([H])C(=O)N2C([H])([H])C([H])([H])C([H])([H])C([H])(n3nc(-c4c([H])c([H])c(Oc5c([H])c([H])c(F)c([H])c5F)c([H])c4[H])c(C(=O)N([H])[H])c3N([H])[H])C2([H])[H])sc1N([H])[H])=C([H])Oc1c([H])c([H])c2c(c1[H])C([H])([H])N(C(=O)C([H])(N([H])C(=O)C([H])(N([H])C([H])([H])[H])C([H])([H])[H])C(C([H])([H])[H])(C([H])([H])[H])C([H])([H])[H])C([H])(C(=O)N([H])C1([H])c3c([H])c([H])c([H])c([H])c3C([H])([H])C([H])([H])C1([H])[H])C2([H])[H]

$$$$
40:0:0
     RDKit          3D

 94102  0  0  1  0  0  0  0  0999 V2000
  -29.4000  -21.6710   20.6340 C   0  0  0  0  0  0  0  0  0  0  0  0
  -30.0000  -20.4990   20.2750 N   0  0  0  0  0  0  0  0  0  0  0  0
  -28.5860  -21.7570   21.5590 O   0  0  0  0  0  0  0  0  0  0  0  0
  -30.4660  -20.5110   19.3820 H   0  0  0  0  0  0  0  0  0  0  0  0
  -30.6670  -14.5930   20.1470 C   0  0  0  0  0  0  0  0  0  0  0  0
  -30.3470  -12.4540   18.9180 C   0  0  0  0  0  2  0  0  0  0  0  0
  -29.3280  -12.6680   17.7760 C   0  0  0  0  0  2  0  0  0  0  0  0
  -27.8790  -12.5070   18.2790 C   0  0  0  0  0  2  0  0  0  0  0  0
  -27.6120  -13.3010   19.5870 C   0  0  0  0  0  3  0  0  0  0  0  0
  -28.7270  -13.0480   20.6250 C   0  0  0  0  0  2  0  0  0  0  0  0
  -30.0120  -13.4010   19.9980 N   0  0  0  0  0  0  0  0  0  0  0  0
  -31.7790  -14.7920   19.6450 O   0  0  0  0  0  0  0  0  0  0  0  0
  -30.9230  -18.2380   23.1010 C   0  0  0  0  0  3  0  0  0  0  0  0
  -30.7260  -16.9800   22.5060 C   0  0  0  0  0  3  0  0  0  0  0  0
  -30.6620  -19.4040   22.3610 C   0  0  0  0  0  0  0  0  0  0  0  0
  -30.2830  -16.8950   21.1720 C   0  0  0  0  0  0  0  0  0  0  0  0
  -30.1810  -19.2870   21.0340 C   0  0  0  0  0  0  0  0  0  0  0  0
  -30.0180  -18.0440   20.4680 N   0  0  0  0  0  0  0  0  0  0  0  0
  -29.9270  -15.5790   20.7210 N   0  0  0  0  0  0  0  0  0  0  0  0
  -30.9140  -20.6130   22.9250 F   0  0  0  0  0  0  0  0  0  0  0  0
  -29.0230  -15.2620   21.0330 H   0  0  0  0  0  0  0  0  0  0  0  0
  -25.2590  -13.8970   20.4350 C   0  0  0  0  0  0  0  0  0  0  0  0
  -24.2120  -13.1210   20.8470 C   0  0  0  0  0  0  0  0  0  0  0  0
  -24.6680  -11.7690   20.7690 C   0  0  0  0  0  0  0  0  0  0  0  0
  -26.2880  -13.0160   20.1330 N   0  0  0  0  0  0  0  0  0  0  0  0
  -25.9390  -11.7300   20.3910 N   0  0  0  0  0  0  0  0  0  0  0  0
  -23.9480  -10.5060   20.9770 C   0  0  0  0  0  0  0  0  0  0  0  0
  -24.4080   -9.5320   21.8900 C   0  0  0  0  0  3  0  0  0  0  0  0
  -23.6870   -8.3340   22.0840 C   0  0  0  0  0  3  0  0  0  0  0  0
  -22.4920   -8.1000   21.3640 C   0  0  0  0  0  0  0  0  0  0  0  0
  -22.0520   -9.0620   20.4370 C   0  0  0  0  0  3  0  0  0  0  0  0
  -22.7720  -10.2510   20.2420 C   0  0  0  0  0  3  0  0  0  0  0  0
  -21.7400   -6.9550   21.4680 O   0  0  0  0  0  0  0  0  0  0  0  0
  -21.7020   -6.2240   22.6280 C   0  0  0  0  0  0  0  0  0  0  0  0
  -21.2970   -6.7920   23.8540 C   0  0  0  0  0  3  0  0  0  0  0  0
  -21.2060   -5.9860   25.0080 C   0  0  0  0  0  3  0  0  0  0  0  0
  -21.5090   -4.6150   24.9340 C   0  0  0  0  0  0  0  0  0  0  0  0
  -21.9100   -4.0460   23.7120 C   0  0  0  0  0  3  0  0  0  0  0  0
  -22.0030   -4.8470   22.5620 C   0  0  0  0  0  0  0  0  0  0  0  0
  -22.3670   -4.2900   21.3820 F   0  0  0  0  0  0  0  0  0  0  0  0
  -21.4170   -3.8380   26.0400 F   0  0  0  0  0  0  0  0  0  0  0  0
  -22.8340  -13.5960   21.2070 C   0  0  0  0  0  0  0  0  0  0  0  0
  -22.1540  -12.8920   22.1070 N   0  0  0  0  0  0  0  0  0  0  0  0
  -22.3690  -14.6270   20.7240 O   0  0  0  0  0  0  0  0  0  0  0  0
  -22.5450  -12.0550   22.5150 H   0  0  0  0  0  0  0  0  0  0  0  0
  -21.2370  -13.2020   22.3950 H   0  0  0  0  0  0  0  0  0  0  0  0
  -25.4220  -15.2700   20.2740 N   0  0  0  0  0  0  0  0  0  0  0  0
  -24.6530  -15.9210   20.4030 H   0  0  0  0  0  0  0  0  0  0  0  0
  -26.2630  -15.7170   19.9350 H   0  0  0  0  0  0  0  0  0  0  0  0
  -29.7150  -22.9290   19.7680 C   0  0  0  0  0  3  0  0  0  0  0  0
  -29.0900  -22.8280   18.5920 F   0  0  0  0  0  0  0  0  0  0  0  0
  -29.5090  -24.3610   20.4000 C   0  0  0  0  0  2  0  0  0  0  0  0
  -28.2840  -25.2030   19.9130 C   0  0  0  0  0  2  0  0  0  0  0  0
  -28.3540  -26.6190   20.2560 O   0  0  0  0  0  0  0  0  0  0  0  0
  -24.5840  -31.9120   23.2480 C   0  0  0  0  0  0  0  0  0  0  0  0
  -27.1920  -27.3850   20.2040 C   0  0  0  0  0  0  0  0  0  0  0  0
  -23.3650  -30.5000   21.6260 C   0  0  0  0  0  3  0  0  0  0  0  0
  -24.8040  -28.9390   20.2060 C   0  0  0  0  0  0  0  0  0  0  0  0
  -25.8940  -30.8340   21.4150 C   0  0  0  0  0  2  0  0  0  0  0  0
  -25.9720  -29.4530   20.7850 C   0  0  0  0  0  0  0  0  0  0  0  0
  -27.1660  -28.6850   20.7740 C   0  0  0  0  0  3  0  0  0  0  0  0
  -26.0020  -26.9060   19.6060 C   0  0  0  0  0  3  0  0  0  0  0  0
  -24.8190  -27.6680   19.6090 C   0  0  0  0  0  3  0  0  0  0  0  0
  -23.5640  -29.8080   20.2510 C   0  0  0  0  0  2  0  0  0  0  0  0
  -24.6330  -31.0990   22.1540 N   0  0  0  0  0  0  0  0  0  0  0  0
  -23.5050  -32.1940   23.7900 O   0  0  0  0  0  0  0  0  0  0  0  0
  -22.7120  -29.4930   22.6000 C   0  0  0  0  0  0  0  0  0  0  0  0
  -21.3870  -29.3090   22.4720 N   0  0  0  0  0  0  0  0  0  0  0  0
  -23.3920  -28.8830   23.4290 O   0  0  0  0  0  0  0  0  0  0  0  0
  -20.9020  -29.8540   21.7750 H   0  0  0  0  0  0  0  0  0  0  0  0
  -18.0230  -28.0780   22.9450 C   0  0  0  0  0  0  0  0  0  0  0  0
  -20.5720  -28.3730   23.2470 C   0  0  0  0  0  3  0  0  0  0  0  0
  -20.7030  -26.9380   22.6890 C   0  0  0  0  0  2  0  0  0  0  0  0
  -19.6180  -26.5900   21.6660 C   0  0  0  0  0  2  0  0  0  0  0  0
  -18.2260  -26.7230   22.2870 C   0  0  0  0  0  2  0  0  0  0  0  0
  -19.1260  -28.8610   23.3760 C   0  0  0  0  0  0  0  0  0  0  0  0
  -18.8840  -30.1310   23.9430 C   0  0  0  0  0  3  0  0  0  0  0  0
  -17.5700  -30.6200   24.0770 C   0  0  0  0  0  3  0  0  0  0  0  0
  -16.4820  -29.8330   23.6640 C   0  0  0  0  0  3  0  0  0  0  0  0
  -16.7080  -28.5620   23.1050 C   0  0  0  0  0  3  0  0  0  0  0  0
  -25.8730  -32.5440   23.8580 C   0  0  0  0  0  3  0  0  0  0  0  0
  -26.3990  -31.7750   25.1330 C   0  0  1  0  0  0  0  0  0  0  0  0
  -25.3140  -31.5400   26.2110 C   0  0  0  0  0  1  0  0  0  0  0  0
  -26.9800  -30.3980   24.7380 C   0  0  0  0  0  1  0  0  0  0  0  0
  -27.5550  -32.5690   25.7830 C   0  0  0  0  0  1  0  0  0  0  0  0
  -25.5700  -33.9420   24.1890 N   0  0  0  0  0  0  0  0  0  0  0  0
  -25.8980  -34.9920   23.4250 C   0  0  0  0  0  0  0  0  0  0  0  0
  -26.5620  -34.8880   22.3910 O   0  0  0  0  0  0  0  0  0  0  0  0
  -24.9890  -34.0990   24.9980 H   0  0  0  0  0  0  0  0  0  0  0  0
  -24.1740  -36.7900   23.0650 C   0  0  0  0  0  1  0  0  0  0  0  0
  -25.4120  -36.3820   23.8800 C   0  0  0  0  0  3  0  0  0  0  0  0
  -27.5490  -37.2630   24.7100 C   0  0  0  0  0  1  0  0  0  0  0  0
  -26.4470  -37.4330   23.7670 N   0  0  0  0  0  0  0  0  0  0  0  0
  -26.0440  -38.3560   23.9150 H   0  0  0  0  0  0  0  0  0  0  0  0
  1  3  2  0
  2  1  1  0
  2 17  1  0
  4  2  1  0
  5 19  1  0
  6 11  1  0
  7  8  1  0
  7  6  1  0
  9  8  1  0
  9 25  1  0
  9 10  1  0
 11  5  1  0
 11 10  1  0
 12  5  2  0
 14 13  1  0
 15 20  1  0
 15 13  2  0
 16 14  2  0
 17 15  1  0
 18 17  2  0
 18 16  1  0
 19 21  1  0
 19 16  1  0
 22 23  2  0
 23 42  1  0
 24 23  1  0
 24 27  1  0
 25 26  1  0
 25 22  1  0
 26 24  2  0
 27 28  1  0
 28 29  2  0
 30 33  1  0
 30 29  1  0
 31 30  2  0
 32 31  1  0
 32 27  2  0
 33 34  1  0
 34 35  1  0
 35 36  2  0
 37 36  1  0
 37 41  1  0
 38 37  2  0
 39 34  2  0
 39 38  1  0
 40 39  1  0
 42 43  1  0
 43 46  1  0
 43 45  1  0
 44 42  2  0
 47 48  1  0
 47 22  1  0
 49 47  1  0
 50 51  1  0
 50 52  1  0
 50  1  1  0
 53 54  1  0
 53 52  1  0
 55 66  2  0
 56 54  1  0
 56 61  1  0
 57 65  1  0
 57 67  1  0
 58 64  1  0
 58 60  1  0
 59 65  1  0
 60 59  1  0
 61 60  2  0
 62 63  1  0
 62 56  2  0
 63 58  2  0
 64 57  1  0
 65 55  1  0
 67 69  2  0
 68 67  1  0
 70 68  1  0
 71 80  2  0
 71 76  1  0
 72 68  1  0
 72 76  1  0
 73 72  1  0
 74 75  1  0
 74 73  1  0
 75 71  1  0
 76 77  2  0
 77 78  1  0
 79 78  2  0
 80 79  1  0
 81 55  1  0
 81 86  1  0
 81 82  1  0
 82 85  1  1
 82 83  1  0
 84 82  1  0
 86 89  1  0
 87 91  1  0
 87 86  1  0
 88 87  2  0
 91 90  1  0
 93 91  1  0
 93 94  1  0
 93 92  1  0
M  ISO  4   5 100  19 100  53 101  54 101
M  END
>  <TORSDO>  (41) 
F 19

>  <SCORE>  (41) 
-13.934

>  <name>  (41) 
40

>  <ligand_id>  (41) 
40

>  <original_smiles>  (41) 
[H]c1c(N([H])C(=O)N2C([H])([H])C([H])([H])C([H])([H])C([H])(n3nc(-c4c([H])c([H])c(Oc5c([H])c([H])c(F)c([H])c5F)c([H])c4[H])c(C(=O)N([H])[H])c3N([H])[H])C2([H])[H])nc(N([H])C(=O)C([H])(F)C([H])([H])C([H])([H])Oc2c([H])c([H])c3c(c2[H])C([H])([H])N(C(=O)C([H])(N([H])C(=O)C([H])(N([H])C([H])([H])[H])C([H])([H])[H])C(C([H])([H])[H])(C([H])([H])[H])C([H])([H])[H])C([H])(C(=O)N([H])C2([H])c4c([H])c([H])c([H])c([H])c4C([H])([H])C([H])([H])C2([H])[H])C3([H])[H])c(F)c1[H]

>  <smiles>  (41) 
[H]c1c(N([H])C(=O)N2C([H])([H])C([H])([H])C([H])([H])C([H])(n3nc(-c4c([H])c([H])c(Oc5c([H])c([H])c(F)c([H])c5F)c([H])c4[H])c(C(=O)N([H])[H])c3N([H])[H])C2([H])[H])nc(N([H])C(=O)C([H])(F)C([H])([H])C([H])([H])Oc2c([H])c([H])c3c(c2[H])C([H])([H])N(C(=O)C([H])(N([H])C(=O)C([H])(N([H])C([H])([H])[H])C([H])([H])[H])C(C([H])([H])[H])(C([H])([H])[H])C([H])([H])[H])C([H])(C(=O)N([H])C2([H])c4c([H])c([H])c([H])c([H])c4C([H])([H])C([H])([H])C2([H])[H])C3([H])[H])c(F)c1[H]

$$$$
41:0:0
     RDKit          3D

 96104  0  0  1  0  0  0  0  0999 V2000
  -29.0600  -20.1050   19.1800 C   0  0  0  0  0  3  0  0  0  0  0  0
  -29.0300  -20.9590   20.2150 C   0  0  0  0  0  3  0  0  0  0  0  0
  -30.7370  -14.7000   21.1050 C   0  0  0  0  0  0  0  0  0  0  0  0
  -30.6030  -12.4820   20.0770 C   0  0  0  0  0  2  0  0  0  0  0  0
  -29.7890  -12.6080   18.7720 C   0  0  0  0  0  2  0  0  0  0  0  0
  -28.2760  -12.4930   19.0460 C   0  0  0  0  0  2  0  0  0  0  0  0
  -27.7970  -13.3670   20.2360 C   0  0  0  0  0  3  0  0  0  0  0  0
  -28.7380  -13.2110   21.4560 C   0  0  0  0  0  2  0  0  0  0  0  0
  -30.1110  -13.5000   21.0140 N   0  0  0  0  0  0  0  0  0  0  0  0
  -31.9240  -14.8760   20.8180 O   0  0  0  0  0  0  0  0  0  0  0  0
  -29.3060  -18.6630   19.2310 C   0  0  0  0  0  0  0  0  0  0  0  0
  -29.5730  -17.9330   18.0940 C   0  0  0  0  0  0  0  0  0  0  0  0
  -29.7730  -16.6860   20.2080 C   0  0  0  0  0  0  0  0  0  0  0  0
  -29.3870  -17.9480   20.4370 N   0  0  0  0  0  0  0  0  0  0  0  0
  -29.9210  -15.7490   21.2590 N   0  0  0  0  0  0  0  0  0  0  0  0
  -30.0070  -16.3050   18.4950 S   0  0  0  0  0  0  0  0  0  0  0  0
  -29.0750  -15.5690   21.7760 H   0  0  0  0  0  0  0  0  0  0  0  0
  -25.3250  -13.9390   20.6920 C   0  0  0  0  0  0  0  0  0  0  0  0
  -24.2420  -13.1510   20.9760 C   0  0  0  0  0  0  0  0  0  0  0  0
  -24.7320  -11.8100   21.0220 C   0  0  0  0  0  0  0  0  0  0  0  0
  -26.4070  -13.0770   20.5860 N   0  0  0  0  0  0  0  0  0  0  0  0
  -26.0460  -11.7930   20.8430 N   0  0  0  0  0  0  0  0  0  0  0  0
  -24.0180  -10.5350   21.1720 C   0  0  0  0  0  0  0  0  0  0  0  0
  -24.3850   -9.5940   22.1590 C   0  0  0  0  0  3  0  0  0  0  0  0
  -23.6740   -8.3830   22.2940 C   0  0  0  0  0  3  0  0  0  0  0  0
  -22.5800   -8.1040   21.4400 C   0  0  0  0  0  0  0  0  0  0  0  0
  -22.2330   -9.0340   20.4450 C   0  0  0  0  0  3  0  0  0  0  0  0
  -22.9470  -10.2360   20.3070 C   0  0  0  0  0  3  0  0  0  0  0  0
  -21.8460   -6.9440   21.4820 O   0  0  0  0  0  0  0  0  0  0  0  0
  -21.7090   -6.2210   22.6390 C   0  0  0  0  0  0  0  0  0  0  0  0
  -21.1230   -6.7740   23.7980 C   0  0  0  0  0  3  0  0  0  0  0  0
  -20.9370   -5.9740   24.9430 C   0  0  0  0  0  3  0  0  0  0  0  0
  -21.3270   -4.6210   24.9290 C   0  0  0  0  0  0  0  0  0  0  0  0
  -21.9080   -4.0670   23.7740 C   0  0  0  0  0  3  0  0  0  0  0  0
  -22.0940   -4.8650   22.6320 C   0  0  0  0  0  0  0  0  0  0  0  0
  -22.6350   -4.3210   21.5140 F   0  0  0  0  0  0  0  0  0  0  0  0
  -21.1400   -3.8500   26.0250 F   0  0  0  0  0  0  0  0  0  0  0  0
  -22.8150  -13.6030   21.1010 C   0  0  0  0  0  0  0  0  0  0  0  0
  -22.0220  -12.9100   21.9100 N   0  0  0  0  0  0  0  0  0  0  0  0
  -22.4070  -14.6030   20.5110 O   0  0  0  0  0  0  0  0  0  0  0  0
  -22.3600  -12.1020   22.4120 H   0  0  0  0  0  0  0  0  0  0  0  0
  -21.0620  -13.1960   22.0360 H   0  0  0  0  0  0  0  0  0  0  0  0
  -25.4800  -15.3080   20.4980 N   0  0  0  0  0  0  0  0  0  0  0  0
  -24.6930  -15.9480   20.5240 H   0  0  0  0  0  0  0  0  0  0  0  0
  -26.3450  -15.7580   20.2270 H   0  0  0  0  0  0  0  0  0  0  0  0
  -29.5690  -18.3350   16.7590 N   0  0  0  0  0  0  0  0  0  0  0  0
  -29.2840  -19.2590   16.4480 H   0  0  0  0  0  0  0  0  0  0  0  0
  -29.7430  -17.7040   15.9830 H   0  0  0  0  0  0  0  0  0  0  0  0
  -28.9510  -23.3010   20.8820 C   0  0  0  0  0  0  0  0  0  0  0  0
  -28.8700  -22.3210   19.9770 N   0  0  0  0  0  0  0  0  0  0  0  0
  -29.0250  -23.1500   22.1060 O   0  0  0  0  0  0  0  0  0  0  0  0
  -28.8300  -22.6330   19.0160 H   0  0  0  0  0  0  0  0  0  0  0  0
  -28.9720  -24.6690   20.1680 C   0  0  0  0  0  0  0  0  0  0  0  0
  -29.4510  -24.8080   19.0330 O   0  0  0  0  0  0  0  0  0  0  0  0
  -28.3390  -25.8380   20.9150 C   0  0  0  0  0  2  0  0  0  0  0  0
  -28.3140  -26.9880   20.0700 O   0  0  0  0  0  0  0  0  0  0  0  0
  -24.5000  -31.9940   23.3020 C   0  0  0  0  0  0  0  0  0  0  0  0
  -27.1300  -27.6700   20.1060 C   0  0  0  0  0  0  0  0  0  0  0  0
  -23.2720  -30.6050   21.6600 C   0  0  0  0  0  3  0  0  0  0  0  0
  -24.7140  -29.1080   20.1830 C   0  0  0  0  0  0  0  0  0  0  0  0
  -25.7820  -31.0100   21.4100 C   0  0  0  0  0  2  0  0  0  0  0  0
  -25.8720  -29.6510   20.7510 C   0  0  0  0  0  0  0  0  0  0  0  0
  -27.0860  -28.9400   20.7080 C   0  0  0  0  0  3  0  0  0  0  0  0
  -25.9620  -27.1230   19.5330 C   0  0  0  0  0  3  0  0  0  0  0  0
  -24.7500  -27.8400   19.5720 C   0  0  0  0  0  3  0  0  0  0  0  0
  -23.4590  -29.9450   20.2650 C   0  0  0  0  0  2  0  0  0  0  0  0
  -24.5370  -31.2160   22.1830 N   0  0  0  0  0  0  0  0  0  0  0  0
  -23.4290  -32.2450   23.8710 O   0  0  0  0  0  0  0  0  0  0  0  0
  -22.6540  -29.5620   22.6170 C   0  0  0  0  0  0  0  0  0  0  0  0
  -21.3360  -29.3430   22.4900 N   0  0  0  0  0  0  0  0  0  0  0  0
  -23.3570  -28.9520   23.4280 O   0  0  0  0  0  0  0  0  0  0  0  0
  -20.8300  -29.8890   21.8070 H   0  0  0  0  0  0  0  0  0  0  0  0
  -18.0000  -28.0410   22.9590 C   0  0  0  0  0  0  0  0  0  0  0  0
  -20.5450  -28.3810   23.2560 C   0  0  0  0  0  3  0  0  0  0  0  0
  -20.6990  -26.9530   22.6810 C   0  0  0  0  0  2  0  0  0  0  0  0
  -19.6170  -26.5940   21.6570 C   0  0  0  0  0  2  0  0  0  0  0  0
  -18.2260  -26.6960   22.2890 C   0  0  0  0  0  2  0  0  0  0  0  0
  -19.0900  -28.8400   23.3980 C   0  0  0  0  0  0  0  0  0  0  0  0
  -18.8260  -30.0970   23.9820 C   0  0  0  0  0  3  0  0  0  0  0  0
  -17.5050  -30.5580   24.1330 C   0  0  0  0  0  3  0  0  0  0  0  0
  -16.4300  -29.7570   23.7120 C   0  0  0  0  0  3  0  0  0  0  0  0
  -16.6780  -28.5010   23.1310 C   0  0  0  0  0  3  0  0  0  0  0  0
  -25.7950  -32.6250   23.9050 C   0  0  0  0  0  3  0  0  0  0  0  0
  -26.3220  -31.8630   25.1820 C   0  0  1  0  0  0  0  0  0  0  0  0
  -25.2390  -31.6310   26.2600 C   0  0  0  0  0  1  0  0  0  0  0  0
  -26.9030  -30.4830   24.7920 C   0  0  0  0  0  1  0  0  0  0  0  0
  -27.4780  -32.6610   25.8310 C   0  0  0  0  0  1  0  0  0  0  0  0
  -25.4980  -34.0270   24.2210 N   0  0  0  0  0  0  0  0  0  0  0  0
  -25.8520  -35.0690   23.4570 C   0  0  0  0  0  0  0  0  0  0  0  0
  -26.5370  -34.9500   22.4370 O   0  0  0  0  0  0  0  0  0  0  0  0
  -24.8930  -34.1950   25.0110 H   0  0  0  0  0  0  0  0  0  0  0  0
  -24.1700  -36.8880   23.0360 C   0  0  0  0  0  1  0  0  0  0  0  0
  -25.3710  -36.4660   23.8950 C   0  0  0  0  0  3  0  0  0  0  0  0
  -27.4840  -37.3180   24.8100 C   0  0  0  0  0  1  0  0  0  0  0  0
  -26.4260  -37.5000   23.8210 N   0  0  0  0  0  0  0  0  0  0  0  0
  -26.0300  -38.4280   23.9470 H   0  0  0  0  0  0  0  0  0  0  0  0
  1 11  1  0
  1  2  2  0
  3 15  1  0
  4  9  1  0
  5  6  1  0
  5  4  1  0
  7  6  1  0
  7 21  1  0
  7  8  1  0
  9  3  1  0
  9  8  1  0
 10  3  2  0
 11 14  1  0
 12 16  1  0
 12 11  2  0
 13 14  2  0
 13 15  1  0
 15 17  1  0
 16 13  1  0
 18 19  2  0
 19 20  1  0
 19 38  1  0
 20 23  1  0
 21 18  1  0
 21 22  1  0
 22 20  2  0
 23 24  1  0
 24 25  2  0
 26 29  1  0
 26 25  1  0
 27 26  2  0
 28 27  1  0
 28 23  2  0
 29 30  1  0
 30 31  1  0
 31 32  2  0
 33 32  1  0
 33 37  1  0
 34 33  2  0
 35 30  2  0
 35 34  1  0
 36 35  1  0
 38 39  1  0
 39 42  1  0
 39 41  1  0
 40 38  2  0
 43 44  1  0
 43 18  1  0
 45 43  1  0
 46 12  1  0
 47 46  1  0
 48 46  1  0
 49 51  2  0
 50  2  1  0
 50 49  1  0
 52 50  1  0
 53 49  1  0
 53 55  1  0
 54 53  2  0
 56 58  1  0
 56 55  1  0
 57 68  2  0
 58 63  1  0
 59 67  1  0
 59 69  1  0
 60 66  1  0
 60 62  1  0
 61 67  1  0
 62 61  1  0
 63 62  2  0
 64 65  1  0
 64 58  2  0
 65 60  2  0
 66 59  1  0
 67 57  1  0
 69 71  2  0
 70 69  1  0
 72 70  1  0
 73 82  2  0
 73 78  1  0
 74 70  1  0
 74 78  1  0
 75 74  1  0
 76 77  1  0
 76 75  1  0
 77 73  1  0
 78 79  2  0
 79 80  1  0
 81 80  2  0
 82 81  1  0
 83 57  1  0
 83 88  1  0
 83 84  1  0
 84 87  1  1
 84 85  1  0
 86 84  1  0
 88 91  1  0
 89 93  1  0
 89 88  1  0
 90 89  2  0
 93 92  1  0
 95 93  1  0
 95 96  1  0
 95 94  1  0
M  ISO  4   3 100  15 100  55 101  56 101
M  END
>  <TORSDO>  (42) 
F 20

>  <SCORE>  (42) 
-13.557

>  <name>  (42) 
41

>  <ligand_id>  (42) 
41

>  <original_smiles>  (42) 
[H]C(=C([H])N([H])C(=O)C(=O)C([H])([H])Oc1c([H])c([H])c2c(c1[H])C([H])([H])N(C(=O)C([H])(N([H])C(=O)C([H])(N([H])C([H])([H])[H])C([H])([H])[H])C(C([H])([H])[H])(C([H])([H])[H])C([H])([H])[H])C([H])(C(=O)N([H])C1([H])c3c([H])c([H])c([H])c([H])c3C([H])([H])C([H])([H])C1([H])[H])C2([H])[H])c1nc(N([H])C(=O)N2C([H])([H])C([H])([H])C([H])([H])C([H])(n3nc(-c4c([H])c([H])c(Oc5c([H])c([H])c(F)c([H])c5F)c([H])c4[H])c(C(=O)N([H])[H])c3N([H])[H])C2([H])[H])sc1N([H])[H]

>  <smiles>  (42) 
[H]C(=C([H])N([H])C(=O)C(=O)C([H])([H])Oc1c([H])c([H])c2c(c1[H])C([H])([H])N(C(=O)C([H])(N([H])C(=O)C([H])(N([H])C([H])([H])[H])C([H])([H])[H])C(C([H])([H])[H])(C([H])([H])[H])C([H])([H])[H])C([H])(C(=O)N([H])C1([H])c3c([H])c([H])c([H])c([H])c3C([H])([H])C([H])([H])C1([H])[H])C2([H])[H])c1nc(N([H])C(=O)N2C([H])([H])C([H])([H])C([H])([H])C([H])(n3nc(-c4c([H])c([H])c(Oc5c([H])c([H])c(F)c([H])c5F)c([H])c4[H])c(C(=O)N([H])[H])c3N([H])[H])C2([H])[H])sc1N([H])[H]

$$$$
42:0:0
     RDKit          3D

 95103  0  0  1  0  0  0  0  0999 V2000
  -29.3560  -22.4560   20.7480 C   0  0  0  0  0  0  0  0  0  0  0  0
  -30.5680  -14.8370   20.3340 C   0  0  0  0  0  0  0  0  0  0  0  0
  -30.3850  -12.5330   19.3780 C   0  0  0  0  0  2  0  0  0  0  0  0
  -29.4500  -12.5800   18.1480 C   0  0  0  0  0  2  0  0  0  0  0  0
  -27.9800  -12.4070   18.5760 C   0  0  0  0  0  2  0  0  0  0  0  0
  -27.5980  -13.2990   19.7880 C   0  0  0  0  0  3  0  0  0  0  0  0
  -28.6590  -13.2370   20.9090 C   0  0  0  0  0  2  0  0  0  0  0  0
  -29.9490  -13.6000   20.3100 N   0  0  0  0  0  0  0  0  0  0  0  0
  -31.7710  -14.8940   20.0600 O   0  0  0  0  0  0  0  0  0  0  0  0
  -30.6950  -18.9050   18.2890 C   0  0  0  0  0  3  0  0  0  0  0  0
  -30.5860  -17.5930   18.7840 C   0  0  0  0  0  0  0  0  0  0  0  0
  -29.9410  -17.3940   20.0270 C   0  0  0  0  0  0  0  0  0  0  0  0
  -29.5510  -19.7980   20.0460 C   0  0  0  0  0  0  0  0  0  0  0  0
  -30.1840  -19.9880   18.9080 N   0  0  0  0  0  0  0  0  0  0  0  0
  -29.3970  -18.5530   20.6120 N   0  0  0  0  0  0  0  0  0  0  0  0
  -29.7920  -15.9860   20.5260 N   0  0  0  0  0  0  0  0  0  0  0  0
  -28.9550  -20.9720   20.6170 N   0  0  0  0  0  4  0  0  0  0  0  0
  -31.0530  -16.5640   18.0370 F   0  0  0  0  0  0  0  0  0  0  0  0
  -28.8990  -15.8020   20.9450 H   0  0  0  0  0  0  0  0  0  0  0  0
  -28.3130  -20.7210   21.3560 H   0  0  0  0  0  0  0  0  0  0  0  0
  -25.2160  -13.8800   20.5350 C   0  0  0  0  0  0  0  0  0  0  0  0
  -24.1520  -13.1020   20.9020 C   0  0  0  0  0  0  0  0  0  0  0  0
  -24.6170  -11.7520   20.8600 C   0  0  0  0  0  0  0  0  0  0  0  0
  -26.2580  -13.0040   20.2850 N   0  0  0  0  0  0  0  0  0  0  0  0
  -25.9070  -11.7180   20.5450 N   0  0  0  0  0  0  0  0  0  0  0  0
  -23.8910  -10.4890   21.0410 C   0  0  0  0  0  0  0  0  0  0  0  0
  -24.3110   -9.5240   21.9830 C   0  0  0  0  0  3  0  0  0  0  0  0
  -23.5860   -8.3250   22.1530 C   0  0  0  0  0  3  0  0  0  0  0  0
  -22.4260   -8.0800   21.3800 C   0  0  0  0  0  0  0  0  0  0  0  0
  -22.0260   -9.0330   20.4260 C   0  0  0  0  0  3  0  0  0  0  0  0
  -22.7510  -10.2230   20.2550 C   0  0  0  0  0  3  0  0  0  0  0  0
  -21.6730   -6.9330   21.4590 O   0  0  0  0  0  0  0  0  0  0  0  0
  -21.5850   -6.2080   22.6190 C   0  0  0  0  0  0  0  0  0  0  0  0
  -21.0880   -6.7690   23.8160 C   0  0  0  0  0  3  0  0  0  0  0  0
  -20.9510   -5.9680   24.9660 C   0  0  0  0  0  3  0  0  0  0  0  0
  -21.3010   -4.6040   24.9200 C   0  0  0  0  0  0  0  0  0  0  0  0
  -21.7920   -4.0420   23.7290 C   0  0  0  0  0  3  0  0  0  0  0  0
  -21.9300   -4.8420   22.5810 C   0  0  0  0  0  0  0  0  0  0  0  0
  -22.3810   -4.2900   21.4300 F   0  0  0  0  0  0  0  0  0  0  0  0
  -21.1630   -3.8320   26.0230 F   0  0  0  0  0  0  0  0  0  0  0  0
  -22.7560  -13.5750   21.1810 C   0  0  0  0  0  0  0  0  0  0  0  0
  -22.0260  -12.8640   22.0340 N   0  0  0  0  0  0  0  0  0  0  0  0
  -22.3200  -14.6090   20.6770 O   0  0  0  0  0  0  0  0  0  0  0  0
  -22.3910  -12.0260   22.4610 H   0  0  0  0  0  0  0  0  0  0  0  0
  -21.0880  -13.1630   22.2610 H   0  0  0  0  0  0  0  0  0  0  0  0
  -25.3780  -15.2530   20.3670 N   0  0  0  0  0  0  0  0  0  0  0  0
  -24.6080  -15.9010   20.4850 H   0  0  0  0  0  0  0  0  0  0  0  0
  -26.2080  -15.6950   19.9940 H   0  0  0  0  0  0  0  0  0  0  0  0
  -31.5630  -22.9450   19.3790 C   0  0  0  0  0  1  0  0  0  0  0  0
  -31.7100  -21.7630   21.6310 C   0  0  0  0  0  1  0  0  0  0  0  0
  -30.8960  -22.7330   20.7550 C   0  0  0  0  0  3  0  0  0  0  0  0
  -28.5400  -23.6850   20.0290 C   0  0  0  0  0  0  0  0  0  0  0  0
  -28.1620  -23.5800   18.8570 O   0  0  0  0  0  0  0  0  0  0  0  0
  -28.1880  -25.0470   20.8260 C   0  0  0  0  0  2  0  0  0  0  0  0
  -28.3170  -26.4020   20.1720 O   0  0  0  0  0  0  0  0  0  0  0  0
  -24.6010  -31.8910   23.2470 C   0  0  0  0  0  0  0  0  0  0  0  0
  -27.2170  -27.2880   20.2000 C   0  0  0  0  0  0  0  0  0  0  0  0
  -23.4050  -30.4940   21.6020 C   0  0  0  0  0  3  0  0  0  0  0  0
  -24.8610  -28.9340   20.1830 C   0  0  0  0  0  0  0  0  0  0  0  0
  -25.9490  -30.8000   21.4290 C   0  0  0  0  0  2  0  0  0  0  0  0
  -26.0310  -29.4140   20.7840 C   0  0  0  0  0  0  0  0  0  0  0  0
  -27.2160  -28.6060   20.7740 C   0  0  0  0  0  3  0  0  0  0  0  0
  -26.0200  -26.8680   19.5840 C   0  0  0  0  0  3  0  0  0  0  0  0
  -24.8580  -27.6690   19.5760 C   0  0  0  0  0  3  0  0  0  0  0  0
  -23.6260  -29.8180   20.2230 C   0  0  0  0  0  2  0  0  0  0  0  0
  -24.6710  -31.0800   22.1500 N   0  0  0  0  0  0  0  0  0  0  0  0
  -23.5150  -32.1680   23.7770 O   0  0  0  0  0  0  0  0  0  0  0  0
  -22.7370  -29.4790   22.5600 C   0  0  0  0  0  0  0  0  0  0  0  0
  -21.4110  -29.3010   22.4280 N   0  0  0  0  0  0  0  0  0  0  0  0
  -23.4110  -28.8540   23.3820 O   0  0  0  0  0  0  0  0  0  0  0  0
  -20.9250  -29.8540   21.7350 H   0  0  0  0  0  0  0  0  0  0  0  0
  -18.0300  -28.1090   22.9250 C   0  0  0  0  0  0  0  0  0  0  0  0
  -20.5880  -28.3630   23.1950 C   0  0  0  0  0  3  0  0  0  0  0  0
  -20.6890  -26.9340   22.6120 C   0  0  0  0  0  2  0  0  0  0  0  0
  -19.5860  -26.6180   21.5980 C   0  0  0  0  0  2  0  0  0  0  0  0
  -18.2040  -26.7630   22.2420 C   0  0  0  0  0  2  0  0  0  0  0  0
  -19.1500  -28.8670   23.3580 C   0  0  0  0  0  0  0  0  0  0  0  0
  -18.9330  -30.1270   23.9570 C   0  0  0  0  0  3  0  0  0  0  0  0
  -17.6290  -30.6290   24.1280 C   0  0  0  0  0  3  0  0  0  0  0  0
  -16.5230  -29.8670   23.7110 C   0  0  0  0  0  3  0  0  0  0  0  0
  -16.7250  -28.6100   23.1150 C   0  0  0  0  0  3  0  0  0  0  0  0
  -25.8790  -32.5260   23.8750 C   0  0  0  0  0  3  0  0  0  0  0  0
  -26.3790  -31.7670   25.1660 C   0  0  1  0  0  0  0  0  0  0  0  0
  -25.2730  -31.5430   26.2240 C   0  0  0  0  0  1  0  0  0  0  0  0
  -26.9620  -30.3820   24.7970 C   0  0  0  0  0  1  0  0  0  0  0  0
  -27.5220  -32.5650   25.8350 C   0  0  0  0  0  1  0  0  0  0  0  0
  -25.5700  -33.9290   24.1910 N   0  0  0  0  0  0  0  0  0  0  0  0
  -25.9120  -34.9760   23.4290 C   0  0  0  0  0  0  0  0  0  0  0  0
  -26.5920  -34.8630   22.4050 O   0  0  0  0  0  0  0  0  0  0  0  0
  -24.9670  -34.0890   24.9850 H   0  0  0  0  0  0  0  0  0  0  0  0
  -24.2080  -36.7850   23.0360 C   0  0  0  0  0  1  0  0  0  0  0  0
  -25.4280  -36.3710   23.8740 C   0  0  0  0  0  3  0  0  0  0  0  0
  -27.5500  -37.2450   24.7490 C   0  0  0  0  0  1  0  0  0  0  0  0
  -26.4710  -37.4160   23.7780 N   0  0  0  0  0  0  0  0  0  0  0  0
  -26.0670  -38.3390   23.9130 H   0  0  0  0  0  0  0  0  0  0  0  0
  1 51  1  0
  2 16  1  0
  3  8  1  0
  4  5  1  0
  4  3  1  0
  6  5  1  0
  6 24  1  0
  6  7  1  0
  8  2  1  0
  8  7  1  0
  9  2  2  0
 10 11  2  0
 10 14  1  0
 11 12  1  0
 12 16  1  0
 12 15  2  0
 13 15  1  0
 13 17  1  0
 14 13  2  0
 16 19  1  0
 17  1  2  3
 17 20  1  0
 18 11  1  0
 21 22  2  0
 22 41  1  0
 23 22  1  0
 23 26  1  0
 24 21  1  0
 24 25  1  0
 25 23  2  0
 26 27  1  0
 27 28  2  0
 29 32  1  0
 29 28  1  0
 30 29  2  0
 31 30  1  0
 31 26  2  0
 32 33  1  0
 33 34  1  0
 34 35  2  0
 36 35  1  0
 36 40  1  0
 37 36  2  0
 38 33  2  0
 38 37  1  0
 39 38  1  0
 41 42  1  0
 42 45  1  0
 42 44  1  0
 43 41  2  0
 46 47  1  0
 46 21  1  0
 48 46  1  0
 49 51  1  0
 51 50  1  0
 52  1  1  0
 52 54  1  0
 53 52  2  0
 55 57  1  0
 55 54  1  0
 56 67  2  0
 57 62  1  0
 58 66  1  0
 58 68  1  0
 59 65  1  0
 59 61  1  0
 60 66  1  0
 61 60  1  0
 62 61  2  0
 63 57  2  0
 64 63  1  0
 64 59  2  0
 65 58  1  0
 66 56  1  0
 68 70  2  0
 69 68  1  0
 71 69  1  0
 72 81  2  0
 72 77  1  0
 73 69  1  0
 73 77  1  0
 74 73  1  0
 75 76  1  0
 75 74  1  0
 76 72  1  0
 77 78  2  0
 78 79  1  0
 80 79  2  0
 81 80  1  0
 82 56  1  0
 82 87  1  0
 82 83  1  0
 83 86  1  1
 83 84  1  0
 85 83  1  0
 87 90  1  0
 88 92  1  0
 88 87  1  0
 89 88  2  0
 92 91  1  0
 94 92  1  0
 94 95  1  0
 94 93  1  0
M  ISO  4   2 100  16 100  54 101  55 101
M  END
>  <TORSDO>  (43) 
F 19

>  <SCORE>  (43) 
-14.460

>  <name>  (43) 
42

>  <ligand_id>  (43) 
42

>  <original_smiles>  (43) 
[H]c1nc(N([H])C([H])(C(=O)C([H])([H])Oc2c([H])c([H])c3c(c2[H])C([H])([H])N(C(=O)C([H])(N([H])C(=O)C([H])(N([H])C([H])([H])[H])C([H])([H])[H])C(C([H])([H])[H])(C([H])([H])[H])C([H])([H])[H])C([H])(C(=O)N([H])C2([H])c4c([H])c([H])c([H])c([H])c4C([H])([H])C([H])([H])C2([H])[H])C3([H])[H])C([H])(C([H])([H])[H])C([H])([H])[H])nc(N([H])C(=O)N2C([H])([H])C([H])([H])C([H])([H])C([H])(n3nc(-c4c([H])c([H])c(Oc5c([H])c([H])c(F)c([H])c5F)c([H])c4[H])c(C(=O)N([H])[H])c3N([H])[H])C2([H])[H])c1F

>  <smiles>  (43) 
[H]c1nc(N([H])C([H])(C(=O)C([H])([H])Oc2c([H])c([H])c3c(c2[H])C([H])([H])N(C(=O)C([H])(N([H])C(=O)C([H])(N([H])C([H])([H])[H])C([H])([H])[H])C(C([H])([H])[H])(C([H])([H])[H])C([H])([H])[H])C([H])(C(=O)N([H])C2([H])c4c([H])c([H])c([H])c([H])c4C([H])([H])C([H])([H])C2([H])[H])C3([H])[H])C([H])(C([H])([H])[H])C([H])([H])[H])nc(N([H])C(=O)N2C([H])([H])C([H])([H])C([H])([H])C([H])(n3nc(-c4c([H])c([H])c(Oc5c([H])c([H])c(F)c([H])c5F)c([H])c4[H])c(C(=O)N([H])[H])c3N([H])[H])C2([H])[H])c1F

$$$$
43:0:0
     RDKit          3D

 93101  0  0  1  0  0  0  0  0999 V2000
  -28.6080  -22.8400   20.1460 C   0  0  0  0  0  0  0  0  0  0  0  0
  -28.8670  -21.9150   21.1050 N   0  0  0  0  0  0  0  0  0  0  0  0
  -28.5840  -22.5220   18.9530 O   0  0  0  0  0  0  0  0  0  0  0  0
  -28.6460  -22.2470   22.0350 H   0  0  0  0  0  0  0  0  0  0  0  0
  -28.2920  -25.2790   19.8150 C   0  0  0  0  0  3  0  0  0  0  0  0
  -28.5000  -24.2280   20.6590 C   0  0  0  0  0  0  0  0  0  0  0  0
  -28.6640  -24.4520   21.9770 O   0  0  0  0  0  0  0  0  0  0  0  0
  -28.5890  -25.3840   22.1200 H   0  0  0  0  0  0  0  0  0  0  0  0
  -28.3270  -26.6180   20.1980 O   0  0  0  0  0  0  0  0  0  0  0  0
  -24.6650  -31.9010   23.2890 C   0  0  0  0  0  0  0  0  0  0  0  0
  -27.1900  -27.4070   20.1510 C   0  0  0  0  0  0  0  0  0  0  0  0
  -23.4200  -30.5280   21.6500 C   0  0  0  0  0  3  0  0  0  0  0  0
  -24.8300  -28.9870   20.1870 C   0  0  0  0  0  0  0  0  0  0  0  0
  -25.9500  -30.8460   21.4240 C   0  0  0  0  0  2  0  0  0  0  0  0
  -26.0030  -29.4770   20.7690 C   0  0  0  0  0  0  0  0  0  0  0  0
  -27.1830  -28.6940   20.7550 C   0  0  0  0  0  3  0  0  0  0  0  0
  -26.0020  -26.9520   19.5370 C   0  0  0  0  0  3  0  0  0  0  0  0
  -24.8300  -27.7300   19.5580 C   0  0  0  0  0  3  0  0  0  0  0  0
  -23.5970  -29.8610   20.2620 C   0  0  0  0  0  2  0  0  0  0  0  0
  -24.6980  -31.1060   22.1800 N   0  0  0  0  0  0  0  0  0  0  0  0
  -23.5940  -32.1820   23.8420 O   0  0  0  0  0  0  0  0  0  0  0  0
  -22.7670  -29.5070   22.6120 C   0  0  0  0  0  0  0  0  0  0  0  0
  -21.4430  -29.3190   22.4820 N   0  0  0  0  0  0  0  0  0  0  0  0
  -23.4520  -28.8800   23.4250 O   0  0  0  0  0  0  0  0  0  0  0  0
  -20.9440  -29.8760   21.8040 H   0  0  0  0  0  0  0  0  0  0  0  0
  -18.0780  -28.0900   22.9530 C   0  0  0  0  0  0  0  0  0  0  0  0
  -20.6300  -28.3790   23.2530 C   0  0  0  0  0  3  0  0  0  0  0  0
  -20.7510  -26.9400   22.6910 C   0  0  0  0  0  2  0  0  0  0  0  0
  -19.6660  -26.5980   21.6670 C   0  0  0  0  0  2  0  0  0  0  0  0
  -18.2750  -26.7390   22.2930 C   0  0  0  0  0  2  0  0  0  0  0  0
  -19.1840  -28.8700   23.3890 C   0  0  0  0  0  0  0  0  0  0  0  0
  -18.9410  -30.1400   23.9590 C   0  0  0  0  0  3  0  0  0  0  0  0
  -17.6280  -30.6250   24.1040 C   0  0  0  0  0  3  0  0  0  0  0  0
  -16.5400  -29.8410   23.6820 C   0  0  0  0  0  3  0  0  0  0  0  0
  -16.7660  -28.5760   23.1140 C   0  0  0  0  0  3  0  0  0  0  0  0
  -25.9680  -32.5120   23.8950 C   0  0  0  0  0  3  0  0  0  0  0  0
  -26.4980  -31.7290   25.1630 C   0  0  1  0  0  0  0  0  0  0  0  0
  -25.4180  -31.4970   26.2450 C   0  0  0  0  0  1  0  0  0  0  0  0
  -27.0570  -30.3460   24.7520 C   0  0  0  0  0  1  0  0  0  0  0  0
  -27.6610  -32.5130   25.8180 C   0  0  0  0  0  1  0  0  0  0  0  0
  -25.6780  -33.9080   24.2410 N   0  0  0  0  0  0  0  0  0  0  0  0
  -25.9760  -34.9620   23.4680 C   0  0  0  0  0  0  0  0  0  0  0  0
  -26.5990  -34.8610   22.4080 O   0  0  0  0  0  0  0  0  0  0  0  0
  -25.1360  -34.0670   25.0770 H   0  0  0  0  0  0  0  0  0  0  0  0
  -24.2220  -36.7420   23.2120 C   0  0  0  0  0  1  0  0  0  0  0  0
  -25.5130  -36.3480   23.9490 C   0  0  0  0  0  3  0  0  0  0  0  0
  -27.6900  -37.2440   24.6460 C   0  0  0  0  0  1  0  0  0  0  0  0
  -26.5290  -37.4080   23.7730 N   0  0  0  0  0  0  0  0  0  0  0  0
  -26.1300  -38.3250   23.9510 H   0  0  0  0  0  0  0  0  0  0  0  0
  -29.9960  -20.9450   21.0700 C   0  0  0  0  0  2  0  0  0  0  0  0
  -30.7050  -14.5940   20.3320 C   0  0  0  0  0  0  0  0  0  0  0  0
  -30.4840  -12.4060   19.1810 C   0  0  0  0  0  2  0  0  0  0  0  0
  -29.5190  -12.5750   17.9860 C   0  0  0  0  0  2  0  0  0  0  0  0
  -28.0530  -12.3940   18.4380 C   0  0  0  0  0  2  0  0  0  0  0  0
  -27.7200  -13.2240   19.7030 C   0  0  0  0  0  3  0  0  0  0  0  0
  -28.7900  -13.0190   20.7980 C   0  0  0  0  0  2  0  0  0  0  0  0
  -30.1000  -13.3760   20.2240 N   0  0  0  0  0  0  0  0  0  0  0  0
  -31.8000  -14.8270   19.7980 O   0  0  0  0  0  0  0  0  0  0  0  0
  -29.3680  -18.8540   19.6020 C   0  0  0  0  0  3  0  0  0  0  0  0
  -29.7520  -19.4620   20.7810 C   0  0  0  0  0  0  0  0  0  0  0  0
  -29.9240  -16.9500   20.7660 C   0  0  0  0  0  0  0  0  0  0  0  0
  -29.4760  -17.4430   19.6000 N   0  0  0  0  0  0  0  0  0  0  0  0
  -30.0160  -15.5390   21.0220 N   0  0  0  0  0  0  0  0  0  0  0  0
  -30.1510  -18.2220   21.9790 S   0  0  0  0  0  0  0  0  0  0  0  0
  -29.2920  -15.1810   21.6240 H   0  0  0  0  0  0  0  0  0  0  0  0
  -25.3310  -13.8130   20.4570 C   0  0  0  0  0  0  0  0  0  0  0  0
  -24.2740  -13.0330   20.8400 C   0  0  0  0  0  0  0  0  0  0  0  0
  -24.7430  -11.6850   20.7890 C   0  0  0  0  0  0  0  0  0  0  0  0
  -26.3760  -12.9390   20.1990 N   0  0  0  0  0  0  0  0  0  0  0  0
  -26.0270  -11.6550   20.4540 N   0  0  0  0  0  0  0  0  0  0  0  0
  -24.0310  -10.4160   20.9830 C   0  0  0  0  0  0  0  0  0  0  0  0
  -24.4720   -9.4590   21.9240 C   0  0  0  0  0  3  0  0  0  0  0  0
  -23.7590   -8.2540   22.1040 C   0  0  0  0  0  3  0  0  0  0  0  0
  -22.5930   -7.9980   21.3440 C   0  0  0  0  0  0  0  0  0  0  0  0
  -22.1740   -8.9450   20.3920 C   0  0  0  0  0  3  0  0  0  0  0  0
  -22.8860  -10.1420   20.2080 C   0  0  0  0  0  3  0  0  0  0  0  0
  -21.8500   -6.8430   21.4320 O   0  0  0  0  0  0  0  0  0  0  0  0
  -21.7750   -6.1260   22.5980 C   0  0  0  0  0  0  0  0  0  0  0  0
  -21.2990   -6.6980   23.7960 C   0  0  0  0  0  3  0  0  0  0  0  0
  -21.1680   -5.9050   24.9540 C   0  0  0  0  0  3  0  0  0  0  0  0
  -21.5080   -4.5400   24.9150 C   0  0  0  0  0  0  0  0  0  0  0  0
  -21.9790   -3.9660   23.7190 C   0  0  0  0  0  3  0  0  0  0  0  0
  -22.1110   -4.7560   22.5630 C   0  0  0  0  0  0  0  0  0  0  0  0
  -22.5430   -4.1950   21.4090 F   0  0  0  0  0  0  0  0  0  0  0  0
  -21.3800   -3.7750   26.0260 F   0  0  0  0  0  0  0  0  0  0  0  0
  -22.8790  -13.4990   21.1420 C   0  0  0  0  0  0  0  0  0  0  0  0
  -22.1730  -12.7950   22.0210 N   0  0  0  0  0  0  0  0  0  0  0  0
  -22.4230  -14.5240   20.6350 O   0  0  0  0  0  0  0  0  0  0  0  0
  -22.5540  -11.9650   22.4510 H   0  0  0  0  0  0  0  0  0  0  0  0
  -21.2340  -13.0840   22.2560 H   0  0  0  0  0  0  0  0  0  0  0  0
  -25.4870  -15.1850   20.2860 N   0  0  0  0  0  0  0  0  0  0  0  0
  -24.7120  -15.8320   20.3680 H   0  0  0  0  0  0  0  0  0  0  0  0
  -26.3340  -15.6270   19.9500 H   0  0  0  0  0  0  0  0  0  0  0  0
  1  6  1  0
  1  2  1  0
  2  4  1  0
  3  1  2  0
  5  9  1  0
  5  6  2  0
  6  7  1  0
  7  8  1  0
 10 21  2  0
 11  9  1  0
 11 16  1  0
 12 20  1  0
 12 22  1  0
 13 19  1  0
 13 15  1  0
 14 20  1  0
 15 14  1  0
 16 15  2  0
 17 18  1  0
 17 11  2  0
 18 13  2  0
 19 12  1  0
 20 10  1  0
 22 24  2  0
 23 22  1  0
 25 23  1  0
 26 35  2  0
 26 31  1  0
 27 23  1  0
 27 31  1  0
 28 27  1  0
 29 30  1  0
 29 28  1  0
 30 26  1  0
 31 32  2  0
 32 33  1  0
 34 33  2  0
 35 34  1  0
 36 10  1  0
 36 41  1  0
 36 37  1  0
 37 40  1  1
 37 38  1  0
 39 37  1  0
 41 44  1  0
 42 46  1  0
 42 41  1  0
 43 42  2  0
 46 45  1  0
 48 46  1  0
 48 49  1  0
 48 47  1  0
 50  2  1  0
 51 63  1  0
 52 57  1  0
 53 54  1  0
 53 52  1  0
 55 54  1  0
 55 69  1  0
 55 56  1  0
 57 51  1  0
 57 56  1  0
 58 51  2  0
 59 60  2  0
 60 50  1  0
 60 64  1  0
 61 63  1  0
 61 64  1  0
 62 59  1  0
 62 61  2  0
 63 65  1  0
 66 67  2  0
 67 86  1  0
 68 67  1  0
 68 71  1  0
 69 70  1  0
 69 66  1  0
 70 68  2  0
 71 72  1  0
 72 73  2  0
 74 77  1  0
 74 73  1  0
 75 74  2  0
 76 75  1  0
 76 71  2  0
 77 78  1  0
 78 79  1  0
 79 80  2  0
 81 80  1  0
 81 85  1  0
 82 81  2  0
 83 78  2  0
 83 82  1  0
 84 83  1  0
 86 87  1  0
 87 90  1  0
 87 89  1  0
 88 86  2  0
 91 92  1  0
 91 66  1  0
 93 91  1  0
M  ISO  4   5 101   9 101  51 100  63 100
M  END
>  <TORSDO>  (44) 
F 19

>  <SCORE>  (44) 
-14.114

>  <name>  (44) 
43

>  <ligand_id>  (44) 
43

>  <original_smiles>  (44) 
[H]OC(C(=O)N([H])C([H])([H])c1sc(N([H])C(=O)N2C([H])([H])C([H])([H])C([H])([H])C([H])(n3nc(-c4c([H])c([H])c(Oc5c([H])c([H])c(F)c([H])c5F)c([H])c4[H])c(C(=O)N([H])[H])c3N([H])[H])C2([H])[H])nc1[H])=C([H])Oc1c([H])c([H])c2c(c1[H])C([H])([H])N(C(=O)C([H])(N([H])C(=O)C([H])(N([H])C([H])([H])[H])C([H])([H])[H])C(C([H])([H])[H])(C([H])([H])[H])C([H])([H])[H])C([H])(C(=O)N([H])C1([H])c3c([H])c([H])c([H])c([H])c3C([H])([H])C([H])([H])C1([H])[H])C2([H])[H]

>  <smiles>  (44) 
[H]OC(C(=O)N([H])C([H])([H])c1sc(N([H])C(=O)N2C([H])([H])C([H])([H])C([H])([H])C([H])(n3nc(-c4c([H])c([H])c(Oc5c([H])c([H])c(F)c([H])c5F)c([H])c4[H])c(C(=O)N([H])[H])c3N([H])[H])C2([H])[H])nc1[H])=C([H])Oc1c([H])c([H])c2c(c1[H])C([H])([H])N(C(=O)C([H])(N([H])C(=O)C([H])(N([H])C([H])([H])[H])C([H])([H])[H])C(C([H])([H])[H])(C([H])([H])[H])C([H])([H])[H])C([H])(C(=O)N([H])C1([H])c3c([H])c([H])c([H])c([H])c3C([H])([H])C([H])([H])C1([H])[H])C2([H])[H]

$$$$
44:0:0
     RDKit          3D

 95103  0  0  1  0  0  0  0  0999 V2000
  -29.7770  -18.8020   20.4280 C   0  0  0  0  0  0  0  0  0  0  0  0
  -29.8530  -19.0750   19.0800 C   0  0  0  0  0  0  0  0  0  0  0  0
  -29.2300  -21.1610   20.3620 C   0  0  0  0  0  0  0  0  0  0  0  0
  -28.8430  -23.7720   20.2330 C   0  0  0  0  0  0  0  0  0  0  0  0
  -29.4130  -20.0280   21.1320 N   0  0  0  0  0  0  0  0  0  0  0  0
  -28.8560  -22.5170   20.8560 N   0  0  0  0  0  0  0  0  0  0  0  0
  -29.3300  -23.9310   19.1110 O   0  0  0  0  0  0  0  0  0  0  0  0
  -29.4560  -20.7510   18.6670 S   0  0  0  0  0  0  0  0  0  0  0  0
  -28.5390  -22.5320   21.8150 H   0  0  0  0  0  0  0  0  0  0  0  0
  -30.3200  -18.1380   18.0140 C   0  0  1  0  0  0  0  0  0  0  0  0
  -31.5370  -17.6720   18.2930 F   0  0  0  0  0  0  0  0  0  0  0  0
  -29.5010  -17.0980   17.8800 F   0  0  0  0  0  0  0  0  0  0  0  0
  -30.3940  -18.7360   16.8270 F   0  0  0  0  0  0  0  0  0  0  0  0
  -28.8030  -25.2520   22.3630 C   0  0  0  0  0  1  0  0  0  0  0  0
  -28.2140  -25.0780   20.9530 C   0  0  0  0  0  3  0  0  0  0  0  0
  -28.3630  -26.4360   20.2980 O   0  0  0  0  0  0  0  0  0  0  0  0
  -24.6140  -31.9510   23.2430 C   0  0  0  0  0  0  0  0  0  0  0  0
  -27.2610  -27.3230   20.2830 C   0  0  0  0  0  0  0  0  0  0  0  0
  -23.4280  -30.5270   21.6110 C   0  0  0  0  0  3  0  0  0  0  0  0
  -24.8970  -28.9550   20.2180 C   0  0  0  0  0  0  0  0  0  0  0  0
  -25.9670  -30.8500   21.4330 C   0  0  0  0  0  2  0  0  0  0  0  0
  -26.0620  -29.4550   20.8130 C   0  0  0  0  0  0  0  0  0  0  0  0
  -27.2530  -28.6560   20.8200 C   0  0  0  0  0  3  0  0  0  0  0  0
  -26.0690  -26.8860   19.6720 C   0  0  0  0  0  3  0  0  0  0  0  0
  -24.9030  -27.6780   19.6350 C   0  0  0  0  0  3  0  0  0  0  0  0
  -23.6620  -29.8350   20.2410 C   0  0  0  0  0  2  0  0  0  0  0  0
  -24.6900  -31.1270   22.1550 N   0  0  0  0  0  0  0  0  0  0  0  0
  -23.5260  -32.2260   23.7700 O   0  0  0  0  0  0  0  0  0  0  0  0
  -22.7610  -29.5220   22.5810 C   0  0  0  0  0  0  0  0  0  0  0  0
  -21.4350  -29.3420   22.4540 N   0  0  0  0  0  0  0  0  0  0  0  0
  -23.4350  -28.9050   23.4110 O   0  0  0  0  0  0  0  0  0  0  0  0
  -20.9510  -29.8920   21.7580 H   0  0  0  0  0  0  0  0  0  0  0  0
  -18.0570  -28.1410   22.9600 C   0  0  0  0  0  0  0  0  0  0  0  0
  -20.6160  -28.4110   23.2290 C   0  0  0  0  0  3  0  0  0  0  0  0
  -20.7220  -26.9750   22.6680 C   0  0  0  0  0  2  0  0  0  0  0  0
  -19.6220  -26.6390   21.6560 C   0  0  0  0  0  2  0  0  0  0  0  0
  -18.2380  -26.7880   22.2960 C   0  0  0  0  0  2  0  0  0  0  0  0
  -19.1740  -28.9100   23.3840 C   0  0  0  0  0  0  0  0  0  0  0  0
  -18.9530  -30.1750   23.9710 C   0  0  0  0  0  3  0  0  0  0  0  0
  -17.6480  -30.6770   24.1330 C   0  0  0  0  0  3  0  0  0  0  0  0
  -16.5440  -29.9080   23.7200 C   0  0  0  0  0  3  0  0  0  0  0  0
  -16.7500  -28.6410   23.1440 C   0  0  0  0  0  3  0  0  0  0  0  0
  -25.8890  -32.6000   23.8660 C   0  0  0  0  0  3  0  0  0  0  0  0
  -26.4020  -31.8430   25.1510 C   0  0  1  0  0  0  0  0  0  0  0  0
  -25.3050  -31.6070   26.2150 C   0  0  0  0  0  1  0  0  0  0  0  0
  -26.9950  -30.4660   24.7740 C   0  0  0  0  0  1  0  0  0  0  0  0
  -27.5420  -32.6520   25.8130 C   0  0  0  0  0  1  0  0  0  0  0  0
  -25.5660  -33.9980   24.1860 N   0  0  0  0  0  0  0  0  0  0  0  0
  -25.8950  -35.0510   23.4240 C   0  0  0  0  0  0  0  0  0  0  0  0
  -26.5710  -34.9450   22.3960 O   0  0  0  0  0  0  0  0  0  0  0  0
  -24.9750  -34.1520   24.9900 H   0  0  0  0  0  0  0  0  0  0  0  0
  -24.1670  -36.8370   23.0350 C   0  0  0  0  0  1  0  0  0  0  0  0
  -25.3960  -36.4390   23.8700 C   0  0  0  0  0  3  0  0  0  0  0  0
  -27.5120  -37.3330   24.7330 C   0  0  0  0  0  1  0  0  0  0  0  0
  -26.4260  -37.4960   23.7710 N   0  0  0  0  0  0  0  0  0  0  0  0
  -26.0140  -38.4130   23.9130 H   0  0  0  0  0  0  0  0  0  0  0  0
  -30.2450  -17.4370   21.1200 C   0  0  0  0  0  2  0  0  0  0  0  0
  -30.6070  -14.8760   20.4320 C   0  0  0  0  0  0  0  0  0  0  0  0
  -30.4380  -12.6040   19.3640 C   0  0  0  0  0  2  0  0  0  0  0  0
  -29.4950  -12.6580   18.1430 C   0  0  0  0  0  2  0  0  0  0  0  0
  -28.0250  -12.4650   18.5680 C   0  0  0  0  0  2  0  0  0  0  0  0
  -27.6360  -13.3320   19.7950 C   0  0  0  0  0  3  0  0  0  0  0  0
  -28.6980  -13.2580   20.9110 C   0  0  0  0  0  2  0  0  0  0  0  0
  -29.9830  -13.6500   20.3130 N   0  0  0  0  0  0  0  0  0  0  0  0
  -31.8070  -14.9680   20.1590 O   0  0  0  0  0  0  0  0  0  0  0  0
  -29.8380  -16.0130   20.6810 N   0  0  0  0  0  0  0  0  0  0  0  0
  -28.8460  -15.8350   20.7320 H   0  0  0  0  0  0  0  0  0  0  0  0
  -25.2490  -13.8880   20.5400 C   0  0  0  0  0  0  0  0  0  0  0  0
  -24.1950  -13.0980   20.9110 C   0  0  0  0  0  0  0  0  0  0  0  0
  -24.6730  -11.7510   20.8730 C   0  0  0  0  0  0  0  0  0  0  0  0
  -26.3010  -13.0210   20.2900 N   0  0  0  0  0  0  0  0  0  0  0  0
  -25.9620  -11.7310   20.5560 N   0  0  0  0  0  0  0  0  0  0  0  0
  -23.9590  -10.4810   21.0540 C   0  0  0  0  0  0  0  0  0  0  0  0
  -24.3990   -9.5110   21.9810 C   0  0  0  0  0  3  0  0  0  0  0  0
  -23.6840   -8.3060   22.1490 C   0  0  0  0  0  3  0  0  0  0  0  0
  -22.5140   -8.0610   21.3940 C   0  0  0  0  0  0  0  0  0  0  0  0
  -22.0950   -9.0190   20.4530 C   0  0  0  0  0  3  0  0  0  0  0  0
  -22.8100  -10.2150   20.2820 C   0  0  0  0  0  3  0  0  0  0  0  0
  -21.7690   -6.9080   21.4720 O   0  0  0  0  0  0  0  0  0  0  0  0
  -21.7220   -6.1600   22.6210 C   0  0  0  0  0  0  0  0  0  0  0  0
  -21.2790   -6.7060   23.8460 C   0  0  0  0  0  3  0  0  0  0  0  0
  -21.1780   -5.8850   24.9880 C   0  0  0  0  0  3  0  0  0  0  0  0
  -21.5110   -4.5190   24.9040 C   0  0  0  0  0  0  0  0  0  0  0  0
  -21.9450   -3.9730   23.6850 C   0  0  0  0  0  3  0  0  0  0  0  0
  -22.0480   -4.7920   22.5450 C   0  0  0  0  0  0  0  0  0  0  0  0
  -22.4480   -4.2560   21.3690 F   0  0  0  0  0  0  0  0  0  0  0  0
  -21.4060   -3.7270   25.9980 F   0  0  0  0  0  0  0  0  0  0  0  0
  -22.7930  -13.5570   21.1870 C   0  0  0  0  0  0  0  0  0  0  0  0
  -22.0680  -12.8450   22.0450 N   0  0  0  0  0  0  0  0  0  0  0  0
  -22.3480  -14.5850   20.6740 O   0  0  0  0  0  0  0  0  0  0  0  0
  -22.4400  -12.0200   22.4880 H   0  0  0  0  0  0  0  0  0  0  0  0
  -21.1270  -13.1360   22.2640 H   0  0  0  0  0  0  0  0  0  0  0  0
  -25.3980  -15.2630   20.3780 N   0  0  0  0  0  0  0  0  0  0  0  0
  -24.6160  -15.8980   20.4850 H   0  0  0  0  0  0  0  0  0  0  0  0
  -26.2230  -15.7160   20.0080 H   0  0  0  0  0  0  0  0  0  0  0  0
  1 57  1  0
  1  5  1  0
  2  1  2  0
  3  6  1  0
  3  5  2  0
  4  6  1  0
  4 15  1  0
  6  9  1  0
  7  4  2  0
  8  2  1  0
  8  3  1  0
 10 11  1  1
 10  2  1  0
 12 10  1  0
 13 10  1  0
 15 14  1  0
 16 15  1  0
 17 28  2  0
 18 16  1  0
 18 23  1  0
 19 27  1  0
 19 29  1  0
 20 26  1  0
 20 22  1  0
 21 27  1  0
 22 23  2  0
 22 21  1  0
 24 18  2  0
 25 24  1  0
 25 20  2  0
 26 19  1  0
 27 17  1  0
 29 31  2  0
 30 29  1  0
 32 30  1  0
 33 42  2  0
 33 38  1  0
 34 30  1  0
 34 38  1  0
 35 34  1  0
 36 37  1  0
 36 35  1  0
 37 33  1  0
 38 39  2  0
 39 40  1  0
 41 40  2  0
 42 41  1  0
 43 17  1  0
 43 48  1  0
 43 44  1  0
 44 47  1  1
 44 45  1  0
 46 44  1  0
 48 51  1  0
 49 53  1  0
 49 48  1  0
 50 49  2  0
 53 52  1  0
 55 53  1  0
 55 56  1  0
 55 54  1  0
 58 66  1  0
 59 64  1  0
 60 61  1  0
 60 59  1  0
 62 61  1  0
 62 71  1  0
 62 63  1  0
 64 58  1  0
 64 63  1  0
 65 58  2  0
 66 67  1  0
 66 57  1  0
 68 69  2  0
 69 88  1  0
 70 69  1  0
 70 73  1  0
 71 68  1  0
 71 72  1  0
 72 70  2  0
 73 74  1  0
 74 75  2  0
 76 79  1  0
 76 75  1  0
 77 76  2  0
 78 77  1  0
 78 73  2  0
 79 80  1  0
 80 81  1  0
 81 82  2  0
 83 82  1  0
 83 87  1  0
 84 83  2  0
 85 80  2  0
 85 84  1  0
 86 85  1  0
 88 89  1  0
 89 92  1  0
 89 91  1  0
 90 88  2  0
 93 94  1  0
 93 68  1  0
 95 93  1  0
M  ISO  4  15 101  16 101  58 100  66 100
M  END
>  <TORSDO>  (45) 
F 19

>  <SCORE>  (45) 
-14.335

>  <name>  (45) 
44

>  <ligand_id>  (45) 
44

>  <original_smiles>  (45) 
[H]c1c([H])c([H])c2c(c1[H])C([H])([H])C([H])([H])C([H])([H])C2([H])N([H])C(=O)C1([H])N(C(=O)C([H])(N([H])C(=O)C([H])(N([H])C([H])([H])[H])C([H])([H])[H])C(C([H])([H])[H])(C([H])([H])[H])C([H])([H])[H])C([H])([H])c2c([H])c(OC([H])(C(=O)N([H])c3nc(C([H])([H])N([H])C(=O)N4C([H])([H])C([H])([H])C([H])([H])C([H])(n5nc(-c6c([H])c([H])c(Oc7c([H])c([H])c(F)c([H])c7F)c([H])c6[H])c(C(=O)N([H])[H])c5N([H])[H])C4([H])[H])c(C(F)(F)F)s3)C([H])([H])[H])c([H])c([H])c2C1([H])[H]

>  <smiles>  (45) 
[H]c1c([H])c([H])c2c(c1[H])C([H])([H])C([H])([H])C([H])([H])C2([H])N([H])C(=O)C1([H])N(C(=O)C([H])(N([H])C(=O)C([H])(N([H])C([H])([H])[H])C([H])([H])[H])C(C([H])([H])[H])(C([H])([H])[H])C([H])([H])[H])C([H])([H])c2c([H])c(OC([H])(C(=O)N([H])c3nc(C([H])([H])N([H])C(=O)N4C([H])([H])C([H])([H])C([H])([H])C([H])(n5nc(-c6c([H])c([H])c(Oc7c([H])c([H])c(F)c([H])c7F)c([H])c6[H])c(C(=O)N([H])[H])c5N([H])[H])C4([H])[H])c(C(F)(F)F)s3)C([H])([H])[H])c([H])c([H])c2C1([H])[H]

$$$$
45:0:0
     RDKit          3D

 97105  0  0  1  0  0  0  0  0999 V2000
  -29.5510  -18.1590   20.3090 C   0  0  0  0  0  0  0  0  0  0  0  0
  -29.3390  -18.1160   18.9410 C   0  0  0  0  0  0  0  0  0  0  0  0
  -28.8150  -20.3360   19.9160 C   0  0  0  0  0  0  0  0  0  0  0  0
  -28.8860  -22.8140   19.6560 C   0  0  0  0  0  0  0  0  0  0  0  0
  -29.2020  -19.4340   20.8470 N   0  0  0  0  0  0  0  0  0  0  0  0
  -28.3830  -21.6770   20.2080 N   0  0  0  0  0  0  0  0  0  0  0  0
  -30.0120  -22.8280   19.1520 O   0  0  0  0  0  0  0  0  0  0  0  0
  -28.7560  -19.6430   18.3010 S   0  0  0  0  0  0  0  0  0  0  0  0
  -27.4980  -21.7670   20.6870 H   0  0  0  0  0  0  0  0  0  0  0  0
  -29.5550  -17.0670   18.0510 N   0  0  0  0  0  0  0  0  0  0  0  0
  -29.9600  -16.1760   18.3170 H   0  0  0  0  0  0  0  0  0  0  0  0
  -29.4090  -17.1460   17.0500 H   0  0  0  0  0  0  0  0  0  0  0  0
  -28.0440  -24.1370   19.6560 C   0  0  0  0  0  3  0  0  0  0  0  0
  -26.7910  -23.8540   20.0250 F   0  0  0  0  0  0  0  0  0  0  0  0
  -28.6500  -25.3860   20.4360 C   0  0  0  0  0  3  0  0  0  0  0  0
  -29.4340  -24.3180   22.6810 C   0  0  0  0  0  1  0  0  0  0  0  0
  -27.0960  -25.2250   22.5160 C   0  0  0  0  0  1  0  0  0  0  0  0
  -28.5340  -25.3650   21.9930 C   0  0  0  0  0  3  0  0  0  0  0  0
  -28.4940  -26.7510   19.9060 O   0  0  0  0  0  0  0  0  0  0  0  0
  -24.6950  -31.8930   23.2100 C   0  0  0  0  0  0  0  0  0  0  0  0
  -27.3140  -27.4810   19.9920 C   0  0  0  0  0  0  0  0  0  0  0  0
  -23.4890  -30.5340   21.5370 C   0  0  0  0  0  3  0  0  0  0  0  0
  -24.9300  -29.0320   20.0560 C   0  0  0  0  0  0  0  0  0  0  0  0
  -26.0140  -30.8870   21.3330 C   0  0  0  0  0  2  0  0  0  0  0  0
  -26.0960  -29.5250   20.6560 C   0  0  0  0  0  0  0  0  0  0  0  0
  -27.2930  -28.7620   20.6070 C   0  0  0  0  0  3  0  0  0  0  0  0
  -26.1310  -27.0180   19.3830 C   0  0  0  0  0  3  0  0  0  0  0  0
  -24.9460  -27.7830   19.4100 C   0  0  0  0  0  3  0  0  0  0  0  0
  -23.6940  -29.9010   20.1330 C   0  0  0  0  0  2  0  0  0  0  0  0
  -24.7530  -31.1200   22.0850 N   0  0  0  0  0  0  0  0  0  0  0  0
  -23.6160  -32.1470   23.7610 O   0  0  0  0  0  0  0  0  0  0  0  0
  -22.8400  -29.4850   22.4690 C   0  0  0  0  0  0  0  0  0  0  0  0
  -21.5110  -29.3170   22.3500 N   0  0  0  0  0  0  0  0  0  0  0  0
  -23.5260  -28.8290   23.2580 O   0  0  0  0  0  0  0  0  0  0  0  0
  -21.0170  -29.8970   21.6880 H   0  0  0  0  0  0  0  0  0  0  0  0
  -18.1370  -28.1080   22.8320 C   0  0  0  0  0  0  0  0  0  0  0  0
  -20.6990  -28.3500   23.0890 C   0  0  0  0  0  3  0  0  0  0  0  0
  -20.7920  -26.9400   22.4630 C   0  0  0  0  0  2  0  0  0  0  0  0
  -19.6790  -26.6560   21.4490 C   0  0  0  0  0  2  0  0  0  0  0  0
  -18.3040  -26.7820   22.1100 C   0  0  0  0  0  2  0  0  0  0  0  0
  -19.2620  -28.8510   23.2790 C   0  0  0  0  0  0  0  0  0  0  0  0
  -19.0520  -30.0930   23.9170 C   0  0  0  0  0  3  0  0  0  0  0  0
  -17.7500  -30.5880   24.1140 C   0  0  0  0  0  3  0  0  0  0  0  0
  -16.6400  -29.8420   23.6860 C   0  0  0  0  0  3  0  0  0  0  0  0
  -16.8350  -28.6040   23.0480 C   0  0  0  0  0  3  0  0  0  0  0  0
  -25.9810  -32.5090   23.8430 C   0  0  0  0  0  3  0  0  0  0  0  0
  -25.6710  -33.8970   24.2110 N   0  0  0  0  0  0  0  0  0  0  0  0
  -26.0080  -34.9700   23.4830 C   0  0  0  0  0  0  0  0  0  0  0  0
  -26.6780  -34.8960   22.4490 O   0  0  0  0  0  0  0  0  0  0  0  0
  -25.0750  -34.0300   25.0140 H   0  0  0  0  0  0  0  0  0  0  0  0
  -24.2940  -36.7850   23.1660 C   0  0  0  0  0  1  0  0  0  0  0  0
  -25.5210  -36.3460   23.9790 C   0  0  0  0  0  3  0  0  0  0  0  0
  -27.6460  -37.1980   24.8710 C   0  0  0  0  0  1  0  0  0  0  0  0
  -26.5610  -37.3950   23.9140 N   0  0  0  0  0  0  0  0  0  0  0  0
  -26.1570  -38.3110   24.0830 H   0  0  0  0  0  0  0  0  0  0  0  0
  -26.5050  -31.7050   25.0950 C   0  0  1  0  0  0  0  0  0  0  0  0
  -25.4200  -31.4350   26.1650 C   0  0  0  0  0  1  0  0  0  0  0  0
  -27.0860  -30.3400   24.6550 C   0  0  0  0  0  1  0  0  0  0  0  0
  -27.6560  -32.4830   25.7760 C   0  0  0  0  0  1  0  0  0  0  0  0
  -30.1830  -17.0650   21.1990 C   0  0  0  0  0  2  0  0  0  0  0  0
  -29.7850  -15.6890   20.9710 O   0  0  0  0  0  0  0  0  0  0  0  0
  -30.6680  -14.7190   20.5180 C   0  0  0  0  0  0  0  0  0  0  0  0
  -30.4700  -12.5220   19.3570 C   0  0  0  0  0  2  0  0  0  0  0  0
  -29.5280  -12.7180   18.1480 C   0  0  0  0  0  2  0  0  0  0  0  0
  -28.0530  -12.5390   18.5640 C   0  0  0  0  0  2  0  0  0  0  0  0
  -27.6830  -13.3580   19.8290 C   0  0  0  0  0  3  0  0  0  0  0  0
  -28.7220  -13.1500   20.9490 C   0  0  0  0  0  2  0  0  0  0  0  0
  -30.0420  -13.4650   20.3980 N   0  0  0  0  0  0  0  0  0  0  0  0
  -31.8120  -14.9620   20.1300 O   0  0  0  0  0  0  0  0  0  0  0  0
  -25.2640  -13.9070   20.4990 C   0  0  0  0  0  0  0  0  0  0  0  0
  -24.2110  -13.1100   20.8550 C   0  0  0  0  0  0  0  0  0  0  0  0
  -24.7060  -11.7680   20.8360 C   0  0  0  0  0  0  0  0  0  0  0  0
  -26.3320  -13.0500   20.2860 N   0  0  0  0  0  0  0  0  0  0  0  0
  -26.0000  -11.7610   20.5480 N   0  0  0  0  0  0  0  0  0  0  0  0
  -24.0100  -10.4880   21.0180 C   0  0  0  0  0  0  0  0  0  0  0  0
  -24.4470   -9.5370   21.9660 C   0  0  0  0  0  3  0  0  0  0  0  0
  -23.7480   -8.3220   22.1340 C   0  0  0  0  0  3  0  0  0  0  0  0
  -22.6000   -8.0480   21.3520 C   0  0  0  0  0  0  0  0  0  0  0  0
  -22.1860   -8.9880   20.3910 C   0  0  0  0  0  3  0  0  0  0  0  0
  -22.8850  -10.1940   20.2220 C   0  0  0  0  0  3  0  0  0  0  0  0
  -21.8740   -6.8850   21.4300 O   0  0  0  0  0  0  0  0  0  0  0  0
  -21.8020   -6.1560   22.5910 C   0  0  0  0  0  0  0  0  0  0  0  0
  -21.2980   -6.7090   23.7870 C   0  0  0  0  0  3  0  0  0  0  0  0
  -21.1770   -5.9060   24.9390 C   0  0  0  0  0  3  0  0  0  0  0  0
  -21.5470   -4.5480   24.8940 C   0  0  0  0  0  0  0  0  0  0  0  0
  -22.0420   -3.9940   23.7010 C   0  0  0  0  0  3  0  0  0  0  0  0
  -22.1660   -4.7940   22.5520 C   0  0  0  0  0  0  0  0  0  0  0  0
  -22.6230   -4.2490   21.3980 F   0  0  0  0  0  0  0  0  0  0  0  0
  -21.4240   -3.7750   25.9970 F   0  0  0  0  0  0  0  0  0  0  0  0
  -22.7960  -13.5480   21.1080 C   0  0  0  0  0  0  0  0  0  0  0  0
  -22.0750  -12.8320   21.9600 N   0  0  0  0  0  0  0  0  0  0  0  0
  -22.3390  -14.5630   20.5810 O   0  0  0  0  0  0  0  0  0  0  0  0
  -22.4540  -12.0070   22.4010 H   0  0  0  0  0  0  0  0  0  0  0  0
  -21.1280  -13.1080   22.1790 H   0  0  0  0  0  0  0  0  0  0  0  0
  -25.4120  -15.2810   20.3160 N   0  0  0  0  0  0  0  0  0  0  0  0
  -24.6570  -15.9500   20.4170 H   0  0  0  0  0  0  0  0  0  0  0  0
  -26.2730  -15.7080   19.9980 H   0  0  0  0  0  0  0  0  0  0  0  0
  1  5  1  0
  1 60  1  0
  2  1  2  0
  3  6  1  0
  3  5  2  0
  4 13  1  0
  4  6  1  0
  6  9  1  0
  7  4  2  0
  8  2  1  0
  8  3  1  0
 10 11  1  0
 10  2  1  0
 12 10  1  0
 13 14  1  0
 13 15  1  0
 15 19  1  0
 15 18  1  0
 18 17  1  0
 18 16  1  0
 19 21  1  0
 20 31  2  0
 21 26  1  0
 22 30  1  0
 22 32  1  0
 23 29  1  0
 23 25  1  0
 24 30  1  0
 25 24  1  0
 26 25  2  0
 27 28  1  0
 27 21  2  0
 28 23  2  0
 29 22  1  0
 30 20  1  0
 32 34  2  0
 33 32  1  0
 35 33  1  0
 36 45  2  0
 36 41  1  0
 37 33  1  0
 37 41  1  0
 38 37  1  0
 39 40  1  0
 39 38  1  0
 40 36  1  0
 41 42  2  0
 42 43  1  0
 44 43  2  0
 45 44  1  0
 46 20  1  0
 46 47  1  0
 46 56  1  0
 47 50  1  0
 48 52  1  0
 48 47  1  0
 49 48  2  0
 52 51  1  0
 54 52  1  0
 54 55  1  0
 54 53  1  0
 56 59  1  1
 56 57  1  0
 58 56  1  0
 61 60  1  0
 62 61  1  0
 63 68  1  0
 64 65  1  0
 64 63  1  0
 66 65  1  0
 66 73  1  0
 66 67  1  0
 68 62  1  0
 68 67  1  0
 69 62  2  0
 70 71  2  0
 71 90  1  0
 72 71  1  0
 72 75  1  0
 73 70  1  0
 73 74  1  0
 74 72  2  0
 75 76  1  0
 76 77  2  0
 78 81  1  0
 78 77  1  0
 79 78  2  0
 80 79  1  0
 80 75  2  0
 81 82  1  0
 82 83  1  0
 83 84  2  0
 85 84  1  0
 85 89  1  0
 86 85  2  0
 87 82  2  0
 87 86  1  0
 88 87  1  0
 90 91  1  0
 91 94  1  0
 91 93  1  0
 92 90  2  0
 95 96  1  0
 95 70  1  0
 97 95  1  0
M  ISO  4  15 101  19 101  61 100  62 100
M  END
>  <TORSDO>  (46) 
F 22

>  <SCORE>  (46) 
-13.451

>  <name>  (46) 
45

>  <ligand_id>  (46) 
45

>  <original_smiles>  (46) 
[H]c1c([H])c([H])c2c(c1[H])C([H])([H])C([H])([H])C([H])([H])C2([H])N([H])C(=O)C1([H])N(C(=O)C([H])(N([H])C(=O)C([H])(N([H])C([H])([H])[H])C([H])([H])[H])C(C([H])([H])[H])(C([H])([H])[H])C([H])([H])[H])C([H])([H])c2c([H])c(OC([H])(C([H])(F)C(=O)N([H])c3nc(C([H])([H])OC(=O)N4C([H])([H])C([H])([H])C([H])([H])C([H])(n5nc(-c6c([H])c([H])c(Oc7c([H])c([H])c(F)c([H])c7F)c([H])c6[H])c(C(=O)N([H])[H])c5N([H])[H])C4([H])[H])c(N([H])[H])s3)C([H])(C([H])([H])[H])C([H])([H])[H])c([H])c([H])c2C1([H])[H]

>  <smiles>  (46) 
[H]c1c([H])c([H])c2c(c1[H])C([H])([H])C([H])([H])C([H])([H])C2([H])N([H])C(=O)C1([H])N(C(=O)C([H])(N([H])C(=O)C([H])(N([H])C([H])([H])[H])C([H])([H])[H])C(C([H])([H])[H])(C([H])([H])[H])C([H])([H])[H])C([H])([H])c2c([H])c(OC([H])(C([H])(F)C(=O)N([H])c3nc(C([H])([H])OC(=O)N4C([H])([H])C([H])([H])C([H])([H])C([H])(n5nc(-c6c([H])c([H])c(Oc7c([H])c([H])c(F)c([H])c7F)c([H])c6[H])c(C(=O)N([H])[H])c5N([H])[H])C4([H])[H])c(N([H])[H])s3)C([H])(C([H])([H])[H])C([H])([H])[H])c([H])c([H])c2C1([H])[H]

$$$$
46:0:0
     RDKit          3D

 97105  0  0  1  0  0  0  0  0999 V2000
  -28.8260  -21.5290   20.1790 C   0  0  0  0  0  0  0  0  0  0  0  0
  -29.2910  -20.6010   19.3040 N   0  0  0  0  0  0  0  0  0  0  0  0
  -28.4300  -21.2620   21.3180 O   0  0  0  0  0  0  0  0  0  0  0  0
  -29.5430  -21.0600   18.4370 H   0  0  0  0  0  0  0  0  0  0  0  0
  -30.6800  -14.6960   20.5820 C   0  0  0  0  0  0  0  0  0  0  0  0
  -30.4760  -12.4530   19.5830 C   0  0  0  0  0  2  0  0  0  0  0  0
  -29.5800  -12.5850   18.3350 C   0  0  0  0  0  2  0  0  0  0  0  0
  -28.0960  -12.4310   18.7180 C   0  0  0  0  0  2  0  0  0  0  0  0
  -27.6940  -13.3130   19.9280 C   0  0  0  0  0  3  0  0  0  0  0  0
  -28.7130  -13.1880   21.0850 C   0  0  0  0  0  2  0  0  0  0  0  0
  -30.0460  -13.4870   20.5430 N   0  0  0  0  0  0  0  0  0  0  0  0
  -31.8630  -14.8120   20.2450 O   0  0  0  0  0  0  0  0  0  0  0  0
  -29.9010  -18.5870   18.0980 C   0  0  0  0  0  0  0  0  0  0  0  0
  -29.5360  -19.1710   19.3010 C   0  0  0  0  0  0  0  0  0  0  0  0
  -29.9060  -16.9820   19.9870 C   0  0  0  0  0  0  0  0  0  0  0  0
  -29.4950  -18.2230   20.3730 N   0  0  0  0  0  0  0  0  0  0  0  0
  -29.9140  -15.8000   20.8210 N   0  0  0  0  0  0  0  0  0  0  0  0
  -30.3180  -16.9040   18.2790 S   0  0  0  0  0  0  0  0  0  0  0  0
  -29.0710  -15.6490   21.3540 H   0  0  0  0  0  0  0  0  0  0  0  0
  -25.2790  -13.9050   20.5740 C   0  0  0  0  0  0  0  0  0  0  0  0
  -24.2050  -13.1280   20.9160 C   0  0  0  0  0  0  0  0  0  0  0  0
  -24.6720  -11.7770   20.9030 C   0  0  0  0  0  0  0  0  0  0  0  0
  -26.3330  -13.0280   20.3750 N   0  0  0  0  0  0  0  0  0  0  0  0
  -25.9710  -11.7440   20.6360 N   0  0  0  0  0  0  0  0  0  0  0  0
  -23.9450  -10.5140   21.0760 C   0  0  0  0  0  0  0  0  0  0  0  0
  -24.3470   -9.5540   22.0310 C   0  0  0  0  0  3  0  0  0  0  0  0
  -23.6200   -8.3540   22.1930 C   0  0  0  0  0  3  0  0  0  0  0  0
  -22.4740   -8.1070   21.4010 C   0  0  0  0  0  0  0  0  0  0  0  0
  -22.0900   -9.0540   20.4370 C   0  0  0  0  0  3  0  0  0  0  0  0
  -22.8180  -10.2450   20.2740 C   0  0  0  0  0  3  0  0  0  0  0  0
  -21.7240   -6.9570   21.4690 O   0  0  0  0  0  0  0  0  0  0  0  0
  -21.6280   -6.2300   22.6260 C   0  0  0  0  0  0  0  0  0  0  0  0
  -21.1130   -6.7860   23.8170 C   0  0  0  0  0  3  0  0  0  0  0  0
  -20.9660   -5.9820   24.9630 C   0  0  0  0  0  3  0  0  0  0  0  0
  -21.3250   -4.6210   24.9210 C   0  0  0  0  0  0  0  0  0  0  0  0
  -21.8330   -4.0640   23.7350 C   0  0  0  0  0  3  0  0  0  0  0  0
  -21.9800   -4.8650   22.5900 C   0  0  0  0  0  0  0  0  0  0  0  0
  -22.4500   -4.3190   21.4420 F   0  0  0  0  0  0  0  0  0  0  0  0
  -21.1780   -3.8460   26.0210 F   0  0  0  0  0  0  0  0  0  0  0  0
  -22.8000  -13.6020   21.1440 C   0  0  0  0  0  0  0  0  0  0  0  0
  -22.0470  -12.9090   21.9890 N   0  0  0  0  0  0  0  0  0  0  0  0
  -22.3760  -14.6270   20.6070 O   0  0  0  0  0  0  0  0  0  0  0  0
  -22.4010  -12.0820   22.4470 H   0  0  0  0  0  0  0  0  0  0  0  0
  -21.1040  -13.2160   22.1870 H   0  0  0  0  0  0  0  0  0  0  0  0
  -25.4430  -15.2750   20.3930 N   0  0  0  0  0  0  0  0  0  0  0  0
  -24.6670  -15.9230   20.4720 H   0  0  0  0  0  0  0  0  0  0  0  0
  -26.2890  -15.7180   20.0600 H   0  0  0  0  0  0  0  0  0  0  0  0
  -30.0030  -19.1210   16.7450 C   0  0  0  0  0  3  0  0  0  0  0  0
  -29.3080  -20.0570   16.2470 N   0  0  0  0  0  0  0  0  0  0  0  0
  -28.5960  -20.4130   16.8710 H   0  0  0  0  0  0  0  0  0  0  0  0
  -28.8530  -22.8840   19.5630 C   0  0  0  0  0  0  0  0  0  0  0  0
  -28.4790  -24.0740   20.1380 C   0  0  0  0  0  0  0  0  0  0  0  0
  -29.2950  -22.9640   18.2920 F   0  0  0  0  0  0  0  0  0  0  0  0
  -28.0040  -24.2060   21.3910 O   0  0  0  0  0  0  0  0  0  0  0  0
  -27.9770  -23.3390   21.7830 H   0  0  0  0  0  0  0  0  0  0  0  0
  -28.5660  -25.4570   19.4260 C   0  0  0  0  0  2  0  0  0  0  0  0
  -28.3940  -26.6740   20.2200 O   0  0  0  0  0  0  0  0  0  0  0  0
  -24.5520  -31.9120   23.2550 C   0  0  0  0  0  0  0  0  0  0  0  0
  -27.2260  -27.4340   20.1690 C   0  0  0  0  0  0  0  0  0  0  0  0
  -23.3660  -30.5120   21.6030 C   0  0  0  0  0  3  0  0  0  0  0  0
  -24.8320  -28.9860   20.1730 C   0  0  0  0  0  0  0  0  0  0  0  0
  -25.8980  -30.8660   21.4230 C   0  0  0  0  0  2  0  0  0  0  0  0
  -25.9900  -29.4940   20.7730 C   0  0  0  0  0  0  0  0  0  0  0  0
  -27.1870  -28.7260   20.7670 C   0  0  0  0  0  3  0  0  0  0  0  0
  -26.0380  -26.9530   19.5740 C   0  0  0  0  0  3  0  0  0  0  0  0
  -24.8560  -27.7170   19.5700 C   0  0  0  0  0  3  0  0  0  0  0  0
  -23.5870  -29.8470   20.2200 C   0  0  0  0  0  2  0  0  0  0  0  0
  -24.6240  -31.1130   22.1520 N   0  0  0  0  0  0  0  0  0  0  0  0
  -23.4660  -32.1780   23.7890 O   0  0  0  0  0  0  0  0  0  0  0  0
  -22.7120  -29.4830   22.5530 C   0  0  0  0  0  0  0  0  0  0  0  0
  -21.3870  -29.3010   22.4230 N   0  0  0  0  0  0  0  0  0  0  0  0
  -23.3940  -28.8530   23.3660 O   0  0  0  0  0  0  0  0  0  0  0  0
  -20.8980  -29.8590   21.7390 H   0  0  0  0  0  0  0  0  0  0  0  0
  -18.0100  -28.1130   22.9200 C   0  0  0  0  0  0  0  0  0  0  0  0
  -20.5700  -28.3560   23.1850 C   0  0  0  0  0  3  0  0  0  0  0  0
  -20.6640  -26.9320   22.5870 C   0  0  0  0  0  2  0  0  0  0  0  0
  -19.5560  -26.6300   21.5740 C   0  0  0  0  0  2  0  0  0  0  0  0
  -18.1770  -26.7720   22.2260 C   0  0  0  0  0  2  0  0  0  0  0  0
  -19.1330  -28.8640   23.3560 C   0  0  0  0  0  0  0  0  0  0  0  0
  -18.9220  -30.1200   23.9670 C   0  0  0  0  0  3  0  0  0  0  0  0
  -17.6200  -30.6230   24.1460 C   0  0  0  0  0  3  0  0  0  0  0  0
  -16.5110  -29.8680   23.7270 C   0  0  0  0  0  3  0  0  0  0  0  0
  -16.7070  -28.6150   23.1200 C   0  0  0  0  0  3  0  0  0  0  0  0
  -25.8290  -32.5500   23.8850 C   0  0  0  0  0  3  0  0  0  0  0  0
  -26.3270  -31.7940   25.1770 C   0  0  1  0  0  0  0  0  0  0  0  0
  -25.2210  -31.5700   26.2360 C   0  0  0  0  0  1  0  0  0  0  0  0
  -26.9140  -30.4110   24.8070 C   0  0  0  0  0  1  0  0  0  0  0  0
  -27.4690  -32.5970   25.8460 C   0  0  0  0  0  1  0  0  0  0  0  0
  -25.5160  -33.9520   24.1960 N   0  0  0  0  0  0  0  0  0  0  0  0
  -25.8600  -34.9970   23.4310 C   0  0  0  0  0  0  0  0  0  0  0  0
  -26.5430  -34.8830   22.4100 O   0  0  0  0  0  0  0  0  0  0  0  0
  -24.9130  -34.1140   24.9880 H   0  0  0  0  0  0  0  0  0  0  0  0
  -24.1470  -36.7940   23.0190 C   0  0  0  0  0  1  0  0  0  0  0  0
  -25.3650  -36.3900   23.8670 C   0  0  0  0  0  3  0  0  0  0  0  0
  -27.4830  -37.2720   24.7440 C   0  0  0  0  0  1  0  0  0  0  0  0
  -26.4030  -37.4400   23.7750 N   0  0  0  0  0  0  0  0  0  0  0  0
  -25.9960  -38.3600   23.9110 H   0  0  0  0  0  0  0  0  0  0  0  0
  1  3  2  0
  2  1  1  0
  4  2  1  0
  5 17  1  0
  6 11  1  0
  7  8  1  0
  7  6  1  0
  9  8  1  0
  9 23  1  0
  9 10  1  0
 11  5  1  0
 11 10  1  0
 12  5  2  0
 13 18  1  0
 13 14  2  0
 14  2  1  0
 14 16  1  0
 15 16  2  0
 15 17  1  0
 17 19  1  0
 18 15  1  0
 20 21  2  0
 21 40  1  0
 22 21  1  0
 22 25  1  0
 23 20  1  0
 23 24  1  0
 24 22  2  0
 25 26  1  0
 26 27  2  0
 28 31  1  0
 28 27  1  0
 29 28  2  0
 30 29  1  0
 30 25  2  0
 31 32  1  0
 32 33  1  0
 33 34  2  0
 35 34  1  0
 35 39  1  0
 36 35  2  0
 37 32  2  0
 37 36  1  0
 38 37  1  0
 40 41  1  0
 41 44  1  0
 41 43  1  0
 42 40  2  0
 45 46  1  0
 45 20  1  0
 47 45  1  0
 48 13  1  0
 49 48  2  0
 49 50  1  0
 51 52  2  0
 51  1  1  0
 52 54  1  0
 53 51  1  0
 54 55  1  0
 56 52  1  0
 56 57  1  0
 58 69  2  0
 59 57  1  0
 59 64  1  0
 60 68  1  0
 60 70  1  0
 61 67  1  0
 61 63  1  0
 62 68  1  0
 63 62  1  0
 64 63  2  0
 65 59  2  0
 66 65  1  0
 66 61  2  0
 67 60  1  0
 68 58  1  0
 70 72  2  0
 71 70  1  0
 73 71  1  0
 74 83  2  0
 74 79  1  0
 75 71  1  0
 75 79  1  0
 76 75  1  0
 77 78  1  0
 77 76  1  0
 78 74  1  0
 79 80  2  0
 80 81  1  0
 82 81  2  0
 83 82  1  0
 84 58  1  0
 84 89  1  0
 84 85  1  0
 85 88  1  1
 85 86  1  0
 87 85  1  0
 89 92  1  0
 90 94  1  0
 90 89  1  0
 91 90  2  0
 94 93  1  0
 96 94  1  0
 96 97  1  0
 96 95  1  0
M  ISO  4   5 100  17 100  56 101  57 101
M  END
>  <TORSDO>  (47) 
F 20

>  <SCORE>  (47) 
-14.020

>  <name>  (47) 
46

>  <ligand_id>  (47) 
46

>  <original_smiles>  (47) 
[H]N=C([H])c1sc(N([H])C(=O)N2C([H])([H])C([H])([H])C([H])([H])C([H])(n3nc(-c4c([H])c([H])c(Oc5c([H])c([H])c(F)c([H])c5F)c([H])c4[H])c(C(=O)N([H])[H])c3N([H])[H])C2([H])[H])nc1N([H])C(=O)C(F)=C(O[H])C([H])([H])Oc1c([H])c([H])c2c(c1[H])C([H])([H])N(C(=O)C([H])(N([H])C(=O)C([H])(N([H])C([H])([H])[H])C([H])([H])[H])C(C([H])([H])[H])(C([H])([H])[H])C([H])([H])[H])C([H])(C(=O)N([H])C1([H])c3c([H])c([H])c([H])c([H])c3C([H])([H])C([H])([H])C1([H])[H])C2([H])[H]

>  <smiles>  (47) 
[H]N=C([H])c1sc(N([H])C(=O)N2C([H])([H])C([H])([H])C([H])([H])C([H])(n3nc(-c4c([H])c([H])c(Oc5c([H])c([H])c(F)c([H])c5F)c([H])c4[H])c(C(=O)N([H])[H])c3N([H])[H])C2([H])[H])nc1N([H])C(=O)C(F)=C(O[H])C([H])([H])Oc1c([H])c([H])c2c(c1[H])C([H])([H])N(C(=O)C([H])(N([H])C(=O)C([H])(N([H])C([H])([H])[H])C([H])([H])[H])C(C([H])([H])[H])(C([H])([H])[H])C([H])([H])[H])C([H])(C(=O)N([H])C1([H])c3c([H])c([H])c([H])c([H])c3C([H])([H])C([H])([H])C1([H])[H])C2([H])[H]

$$$$
47:0:0
     RDKit          3D

 94102  0  0  1  0  0  0  0  0999 V2000
  -30.6360  -14.9470   20.1600 C   0  0  0  0  0  0  0  0  0  0  0  0
  -30.6450  -12.4760   19.5430 C   0  0  0  0  0  2  0  0  0  0  0  0
  -29.7760  -12.2360   18.2830 C   0  0  0  0  0  2  0  0  0  0  0  0
  -28.2950  -12.0490   18.6620 C   0  0  0  0  0  2  0  0  0  0  0  0
  -27.8070  -13.1140   19.6790 C   0  0  0  0  0  3  0  0  0  0  0  0
  -28.7990  -13.2910   20.8500 C   0  0  0  0  0  2  0  0  0  0  0  0
  -30.0960  -13.6620   20.2640 N   0  0  0  0  0  0  0  0  0  0  0  0
  -31.8460  -15.0290   19.9140 O   0  0  0  0  0  0  0  0  0  0  0  0
  -30.5010  -19.8180   19.2530 C   0  0  0  0  0  3  0  0  0  0  0  0
  -29.2550  -20.5290   19.4610 C   0  0  0  0  0  0  0  0  0  0  0  0
  -29.7360  -17.5900   19.9040 C   0  0  0  0  0  0  0  0  0  0  0  0
  -28.4960  -18.3050   20.1350 C   0  0  0  0  0  0  0  0  0  0  0  0
  -26.2060  -18.3070   21.0850 C   0  0  0  0  0  1  0  0  0  0  0  0
  -30.7270  -18.4380   19.4420 N   0  0  0  0  0  0  0  0  0  0  0  0
  -28.2770  -19.6690   19.9080 N   0  0  0  0  0  0  0  0  0  0  0  0
  -29.7590  -16.0680   20.1690 N   0  0  0  0  0  0  0  0  0  0  0  0
  -27.4100  -17.5940   20.6680 N   0  0  0  0  0  0  0  0  0  0  0  0
  -28.8270  -15.7440   20.3600 H   0  0  0  0  0  0  0  0  0  0  0  0
  -27.6250  -16.7500   21.1860 H   0  0  0  0  0  0  0  0  0  0  0  0
  -25.4090  -13.7580   20.3020 C   0  0  0  0  0  0  0  0  0  0  0  0
  -24.3200  -13.0170   20.6670 C   0  0  0  0  0  0  0  0  0  0  0  0
  -24.7630  -11.6590   20.7050 C   0  0  0  0  0  0  0  0  0  0  0  0
  -26.4470  -12.8560   20.1390 N   0  0  0  0  0  0  0  0  0  0  0  0
  -26.0640  -11.5900   20.4460 N   0  0  0  0  0  0  0  0  0  0  0  0
  -24.0060  -10.4180   20.9150 C   0  0  0  0  0  0  0  0  0  0  0  0
  -24.4370   -9.4370   21.8350 C   0  0  0  0  0  3  0  0  0  0  0  0
  -23.6800   -8.2620   22.0330 C   0  0  0  0  0  3  0  0  0  0  0  0
  -22.4780   -8.0600   21.3130 C   0  0  0  0  0  0  0  0  0  0  0  0
  -22.0670   -9.0310   20.3820 C   0  0  0  0  0  3  0  0  0  0  0  0
  -22.8230  -10.1970   20.1820 C   0  0  0  0  0  3  0  0  0  0  0  0
  -21.6930   -6.9380   21.4210 O   0  0  0  0  0  0  0  0  0  0  0  0
  -21.7020   -6.1610   22.5520 C   0  0  0  0  0  0  0  0  0  0  0  0
  -21.3950   -6.6920   23.8230 C   0  0  0  0  0  3  0  0  0  0  0  0
  -21.3490   -5.8430   24.9470 C   0  0  0  0  0  3  0  0  0  0  0  0
  -21.5980   -4.4650   24.8010 C   0  0  0  0  0  0  0  0  0  0  0  0
  -21.8980   -3.9340   23.5350 C   0  0  0  0  0  3  0  0  0  0  0  0
  -21.9470   -4.7800   22.4120 C   0  0  0  0  0  0  0  0  0  0  0  0
  -22.2160   -4.2590   21.1900 F   0  0  0  0  0  0  0  0  0  0  0  0
  -21.5450   -3.6480   25.8790 F   0  0  0  0  0  0  0  0  0  0  0  0
  -22.9230  -13.5290   20.8670 C   0  0  0  0  0  0  0  0  0  0  0  0
  -22.1630  -12.9020   21.7580 N   0  0  0  0  0  0  0  0  0  0  0  0
  -22.5140  -14.5230   20.2680 O   0  0  0  0  0  0  0  0  0  0  0  0
  -22.5060  -12.0990   22.2650 H   0  0  0  0  0  0  0  0  0  0  0  0
  -21.2250  -13.2320   21.9370 H   0  0  0  0  0  0  0  0  0  0  0  0
  -25.5900  -15.1160   20.0720 N   0  0  0  0  0  0  0  0  0  0  0  0
  -24.8180  -15.7680   20.1470 H   0  0  0  0  0  0  0  0  0  0  0  0
  -26.4350  -15.5650   19.7430 H   0  0  0  0  0  0  0  0  0  0  0  0
  -28.4040  -23.0860   18.8100 C   0  0  0  0  0  0  0  0  0  0  0  0
  -29.1280  -22.0650   19.4910 N   0  0  0  0  0  0  0  0  0  0  0  0
  -27.8480  -22.8200   17.7410 O   0  0  0  0  0  0  0  0  0  0  0  0
  -29.6300  -22.4590   20.2750 H   0  0  0  0  0  0  0  0  0  0  0  0
  -27.3510  -24.6280   20.6370 C   0  0  0  0  0  1  0  0  0  0  0  0
  -28.2460  -24.6480   19.3850 C   0  0  0  0  0  3  0  0  0  0  0  0
  -27.9450  -25.9160   18.5120 O   0  0  0  0  0  0  0  0  0  0  0  0
  -24.7750  -31.2500   22.5710 C   0  0  0  0  0  0  0  0  0  0  0  0
  -26.9050  -26.8870   18.7680 C   0  0  0  0  0  0  0  0  0  0  0  0
  -23.3730  -30.0710   20.9220 C   0  0  0  0  0  3  0  0  0  0  0  0
  -24.6250  -28.6500   19.1800 C   0  0  0  0  0  0  0  0  0  0  0  0
  -25.9000  -30.3230   20.5120 C   0  0  0  0  0  2  0  0  0  0  0  0
  -25.8720  -29.0120   19.7050 C   0  0  0  0  0  0  0  0  0  0  0  0
  -27.0130  -28.1500   19.4800 C   0  0  0  0  0  3  0  0  0  0  0  0
  -25.6310  -26.6310   18.2170 C   0  0  0  0  0  3  0  0  0  0  0  0
  -24.5150  -27.4730   18.4220 C   0  0  0  0  0  3  0  0  0  0  0  0
  -23.4320  -29.5520   19.4590 C   0  0  0  0  0  2  0  0  0  0  0  0
  -24.7100  -30.5630   21.3900 N   0  0  0  0  0  0  0  0  0  0  0  0
  -23.7580  -31.4840   23.2430 O   0  0  0  0  0  0  0  0  0  0  0  0
  -22.7750  -28.9670   21.8300 C   0  0  0  0  0  0  0  0  0  0  0  0
  -21.4360  -28.8420   21.8450 N   0  0  0  0  0  0  0  0  0  0  0  0
  -23.5160  -28.2290   22.4850 O   0  0  0  0  0  0  0  0  0  0  0  0
  -20.8940  -29.4890   21.2900 H   0  0  0  0  0  0  0  0  0  0  0  0
  -18.0970  -27.6580   22.5970 C   0  0  0  0  0  0  0  0  0  0  0  0
  -20.6770  -27.8340   22.5900 C   0  0  0  0  0  3  0  0  0  0  0  0
  -20.6640  -26.4820   21.8400 C   0  0  0  0  0  2  0  0  0  0  0  0
  -19.4420  -26.3090   20.9300 C   0  0  0  0  0  2  0  0  0  0  0  0
  -18.1490  -26.4000   21.7450 C   0  0  0  0  0  2  0  0  0  0  0  0
  -19.2830  -28.3400   22.9790 C   0  0  0  0  0  0  0  0  0  0  0  0
  -19.1740  -29.5230   23.7430 C   0  0  0  0  0  3  0  0  0  0  0  0
  -17.9150  -30.0220   24.1240 C   0  0  0  0  0  3  0  0  0  0  0  0
  -16.7460  -29.3360   23.7540 C   0  0  0  0  0  3  0  0  0  0  0  0
  -16.8380  -28.1550   22.9960 C   0  0  0  0  0  3  0  0  0  0  0  0
  -26.1270  -31.7920   23.1270 C   0  0  0  0  0  3  0  0  0  0  0  0
  -25.8560  -33.0730   23.7990 N   0  0  0  0  0  0  0  0  0  0  0  0
  -26.1250  -34.2800   23.2830 C   0  0  0  0  0  0  0  0  0  0  0  0
  -26.6950  -34.4290   22.1990 O   0  0  0  0  0  0  0  0  0  0  0  0
  -25.3390  -33.0270   24.6650 H   0  0  0  0  0  0  0  0  0  0  0  0
  -24.3940  -36.0910   23.5160 C   0  0  0  0  0  1  0  0  0  0  0  0
  -25.6960  -35.5170   24.0970 C   0  0  0  0  0  3  0  0  0  0  0  0
  -27.9020  -36.2030   24.9300 C   0  0  0  0  0  1  0  0  0  0  0  0
  -26.7270  -36.5760   24.1470 N   0  0  0  0  0  0  0  0  0  0  0  0
  -26.3440  -37.4330   24.5380 H   0  0  0  0  0  0  0  0  0  0  0  0
  -26.8350  -30.7900   24.1190 C   0  0  1  0  0  0  0  0  0  0  0  0
  -25.9200  -30.2990   25.2660 C   0  0  0  0  0  1  0  0  0  0  0  0
  -27.3550  -29.5450   23.3660 C   0  0  0  0  0  1  0  0  0  0  0  0
  -28.0730  -31.4690   24.7540 C   0  0  0  0  0  1  0  0  0  0  0  0
  1 16  1  0
  1  7  1  0
  2  7  1  0
  3  4  1  0
  3  2  1  0
  5  4  1  0
  5 23  1  0
  5  6  1  0
  7  6  1  0
  8  1  2  0
  9 14  2  0
  9 10  1  0
 10 49  1  0
 10 15  2  0
 11 12  2  0
 11 16  1  0
 12 17  1  0
 14 11  1  0
 15 12  1  0
 16 18  1  0
 17 13  1  0
 17 19  1  0
 20 21  2  0
 21 22  1  0
 21 40  1  0
 22 25  1  0
 23 20  1  0
 23 24  1  0
 24 22  2  0
 25 26  1  0
 26 27  2  0
 28 31  1  0
 28 27  1  0
 29 28  2  0
 30 29  1  0
 30 25  2  0
 31 32  1  0
 32 33  1  0
 33 34  2  0
 35 34  1  0
 35 39  1  0
 36 35  2  0
 37 32  2  0
 37 36  1  0
 38 37  1  0
 40 41  1  0
 41 44  1  0
 41 43  1  0
 42 40  2  0
 45 46  1  0
 45 20  1  0
 47 45  1  0
 48 53  1  0
 48 49  1  0
 49 51  1  0
 50 48  2  0
 53 52  1  0
 54 56  1  0
 54 53  1  0
 55 66  2  0
 56 61  1  0
 57 65  1  0
 57 67  1  0
 58 64  1  0
 58 60  1  0
 59 65  1  0
 60 59  1  0
 61 60  2  0
 62 63  1  0
 62 56  2  0
 63 58  2  0
 64 57  1  0
 65 55  1  0
 67 68  1  0
 67 69  2  0
 70 68  1  0
 71 76  2  0
 71 80  1  0
 72 68  1  0
 72 76  1  0
 73 72  1  0
 74 75  1  0
 74 73  1  0
 75 71  1  0
 76 77  1  0
 77 78  2  0
 79 78  1  0
 80 79  2  0
 81 55  1  0
 81 82  1  0
 81 91  1  0
 82 85  1  0
 83 82  1  0
 83 87  1  0
 84 83  2  0
 87 86  1  0
 87 89  1  0
 89 90  1  0
 89 88  1  0
 91 94  1  1
 91 92  1  0
 93 91  1  0
M  ISO  4   1 100  16 100  53 101  54 101
M  END
>  <TORSDO>  (48) 
F 17

>  <SCORE>  (48) 
-10.411

>  <name>  (48) 
47

>  <ligand_id>  (48) 
47

>  <original_smiles>  (48) 
[H]c1nc(N([H])C(=O)N2C([H])([H])C([H])([H])C([H])([H])C([H])(n3nc(-c4c([H])c([H])c(Oc5c([H])c([H])c(F)c([H])c5F)c([H])c4[H])c(C(=O)N([H])[H])c3N([H])[H])C2([H])[H])c(N([H])C([H])([H])[H])nc1N([H])C(=O)C([H])(Oc1c([H])c([H])c2c(c1[H])C([H])([H])N(C(=O)C([H])(N([H])C(=O)C([H])(N([H])C([H])([H])[H])C([H])([H])[H])C(C([H])([H])[H])(C([H])([H])[H])C([H])([H])[H])C([H])(C(=O)N([H])C1([H])c3c([H])c([H])c([H])c([H])c3C([H])([H])C([H])([H])C1([H])[H])C2([H])[H])C([H])([H])[H]

>  <smiles>  (48) 
[H]c1nc(N([H])C(=O)N2C([H])([H])C([H])([H])C([H])([H])C([H])(n3nc(-c4c([H])c([H])c(Oc5c([H])c([H])c(F)c([H])c5F)c([H])c4[H])c(C(=O)N([H])[H])c3N([H])[H])C2([H])[H])c(N([H])C([H])([H])[H])nc1N([H])C(=O)C([H])(Oc1c([H])c([H])c2c(c1[H])C([H])([H])N(C(=O)C([H])(N([H])C(=O)C([H])(N([H])C([H])([H])[H])C([H])([H])[H])C(C([H])([H])[H])(C([H])([H])[H])C([H])([H])[H])C([H])(C(=O)N([H])C1([H])c3c([H])c([H])c([H])c([H])c3C([H])([H])C([H])([H])C1([H])[H])C2([H])[H])C([H])([H])[H]

$$$$
48:0:0
     RDKit          3D

 92100  0  0  1  0  0  0  0  0999 V2000
  -30.5070  -14.9680   20.3510 C   0  0  0  0  0  0  0  0  0  0  0  0
  -30.4210  -12.6000   19.4550 C   0  0  0  0  0  2  0  0  0  0  0  0
  -29.5090  -12.5990   18.2050 C   0  0  0  0  0  2  0  0  0  0  0  0
  -28.0300  -12.4110   18.6010 C   0  0  0  0  0  2  0  0  0  0  0  0
  -27.6190  -13.3280   19.7870 C   0  0  0  0  0  3  0  0  0  0  0  0
  -28.6580  -13.2890   20.9280 C   0  0  0  0  0  2  0  0  0  0  0  0
  -29.9480  -13.6900   20.3520 N   0  0  0  0  0  0  0  0  0  0  0  0
  -31.7020  -15.0620   20.0510 O   0  0  0  0  0  0  0  0  0  0  0  0
  -29.1260  -20.2870   20.2030 C   0  0  0  0  0  0  0  0  0  0  0  0
  -29.2100  -19.5970   18.9770 C   0  0  0  0  0  0  0  0  0  0  0  0
  -29.6690  -17.6050   20.2560 C   0  0  0  0  0  0  0  0  0  0  0  0
  -29.5150  -18.1810   19.0350 N   0  0  0  0  0  0  0  0  0  0  0  0
  -29.6610  -16.0920   20.5400 N   0  0  0  0  0  0  0  0  0  0  0  0
  -29.3950  -18.9680   21.4430 S   0  0  0  0  0  0  0  0  0  0  0  0
  -28.7760  -15.7830   20.9060 H   0  0  0  0  0  0  0  0  0  0  0  0
  -25.2370  -13.9460   20.4820 C   0  0  0  0  0  0  0  0  0  0  0  0
  -24.1570  -13.1790   20.8440 C   0  0  0  0  0  0  0  0  0  0  0  0
  -24.6040  -11.8240   20.8360 C   0  0  0  0  0  0  0  0  0  0  0  0
  -26.2680  -13.0490   20.2660 N   0  0  0  0  0  0  0  0  0  0  0  0
  -25.9020  -11.7730   20.5510 N   0  0  0  0  0  0  0  0  0  0  0  0
  -23.8630  -10.5720   21.0360 C   0  0  0  0  0  0  0  0  0  0  0  0
  -24.2870   -9.6040   21.9740 C   0  0  0  0  0  3  0  0  0  0  0  0
  -23.5440   -8.4180   22.1540 C   0  0  0  0  0  3  0  0  0  0  0  0
  -22.3670   -8.1930   21.4010 C   0  0  0  0  0  0  0  0  0  0  0  0
  -21.9640   -9.1500   20.4580 C   0  0  0  0  0  3  0  0  0  0  0  0
  -22.7030  -10.3300   20.2720 C   0  0  0  0  0  3  0  0  0  0  0  0
  -21.5930   -7.0610   21.4950 O   0  0  0  0  0  0  0  0  0  0  0  0
  -21.5480   -6.3090   22.6420 C   0  0  0  0  0  0  0  0  0  0  0  0
  -21.1710   -6.8640   23.8850 C   0  0  0  0  0  3  0  0  0  0  0  0
  -21.0760   -6.0400   25.0250 C   0  0  0  0  0  3  0  0  0  0  0  0
  -21.3500   -4.6640   24.9270 C   0  0  0  0  0  0  0  0  0  0  0  0
  -21.7140   -4.1060   23.6890 C   0  0  0  0  0  3  0  0  0  0  0  0
  -21.8150   -4.9260   22.5520 C   0  0  0  0  0  0  0  0  0  0  0  0
  -22.1520   -4.3820   21.3560 F   0  0  0  0  0  0  0  0  0  0  0  0
  -21.2490   -3.8700   26.0210 F   0  0  0  0  0  0  0  0  0  0  0  0
  -22.7610  -13.6770   21.0840 C   0  0  0  0  0  0  0  0  0  0  0  0
  -22.0060  -13.0040   21.9480 N   0  0  0  0  0  0  0  0  0  0  0  0
  -22.3460  -14.6910   20.5310 O   0  0  0  0  0  0  0  0  0  0  0  0
  -22.3540  -12.1840   22.4230 H   0  0  0  0  0  0  0  0  0  0  0  0
  -21.0660  -13.3250   22.1380 H   0  0  0  0  0  0  0  0  0  0  0  0
  -25.4170  -15.3090   20.2840 N   0  0  0  0  0  0  0  0  0  0  0  0
  -24.6520  -15.9700   20.3730 H   0  0  0  0  0  0  0  0  0  0  0  0
  -26.2630  -15.7350   19.9280 H   0  0  0  0  0  0  0  0  0  0  0  0
  -28.9860  -20.1150   17.6850 N   0  0  0  0  0  0  0  0  0  0  0  0
  -28.6170  -21.0370   17.4940 H   0  0  0  0  0  0  0  0  0  0  0  0
  -29.0800  -19.5410   16.8500 H   0  0  0  0  0  0  0  0  0  0  0  0
  -28.7680  -21.7590   20.7300 C   0  0  0  0  0  0  0  0  0  0  0  0
  -28.4680  -21.8060   21.9280 O   0  0  0  0  0  0  0  0  0  0  0  0
  -28.8050  -23.2640   20.0110 C   0  0  0  0  0  2  0  0  0  0  0  0
  -28.6730  -24.9880   22.0730 C   0  0  0  0  0  1  0  0  0  0  0  0
  -28.1640  -24.7320   20.6350 C   0  0  0  0  0  3  0  0  0  0  0  0
  -28.3360  -26.1760   20.0620 O   0  0  0  0  0  0  0  0  0  0  0  0
  -24.7030  -31.8590   23.1110 C   0  0  0  0  0  0  0  0  0  0  0  0
  -27.2700  -27.1460   20.0810 C   0  0  0  0  0  0  0  0  0  0  0  0
  -23.4980  -30.4580   21.4810 C   0  0  0  0  0  3  0  0  0  0  0  0
  -24.9400  -28.8830   20.0540 C   0  0  0  0  0  0  0  0  0  0  0  0
  -26.0470  -30.7300   21.2960 C   0  0  0  0  0  2  0  0  0  0  0  0
  -26.1250  -29.3350   20.6510 C   0  0  0  0  0  0  0  0  0  0  0  0
  -27.2940  -28.4850   20.6420 C   0  0  0  0  0  3  0  0  0  0  0  0
  -26.0630  -26.7890   19.4500 C   0  0  0  0  0  3  0  0  0  0  0  0
  -24.9210  -27.6220   19.4380 C   0  0  0  0  0  3  0  0  0  0  0  0
  -23.7120  -29.7810   20.1040 C   0  0  0  0  0  2  0  0  0  0  0  0
  -24.7710  -31.0370   22.0190 N   0  0  0  0  0  0  0  0  0  0  0  0
  -23.6190  -32.1300   23.6530 O   0  0  0  0  0  0  0  0  0  0  0  0
  -22.8340  -29.4420   22.4440 C   0  0  0  0  0  0  0  0  0  0  0  0
  -21.5010  -29.2800   22.3470 N   0  0  0  0  0  0  0  0  0  0  0  0
  -23.5190  -28.8130   23.2550 O   0  0  0  0  0  0  0  0  0  0  0  0
  -21.0070  -29.8260   21.6560 H   0  0  0  0  0  0  0  0  0  0  0  0
  -18.1290  -28.0990   22.9210 C   0  0  0  0  0  0  0  0  0  0  0  0
  -20.6950  -28.3410   23.1310 C   0  0  0  0  0  3  0  0  0  0  0  0
  -20.7770  -26.9170   22.5360 C   0  0  0  0  0  2  0  0  0  0  0  0
  -19.6470  -26.6100   21.5470 C   0  0  0  0  0  2  0  0  0  0  0  0
  -18.2800  -26.7580   22.2220 C   0  0  0  0  0  2  0  0  0  0  0  0
  -19.2630  -28.8490   23.3320 C   0  0  0  0  0  0  0  0  0  0  0  0
  -19.0660  -30.1020   23.9490 C   0  0  0  0  0  3  0  0  0  0  0  0
  -17.7690  -30.6110   24.1510 C   0  0  0  0  0  3  0  0  0  0  0  0
  -16.6510  -29.8600   23.7530 C   0  0  0  0  0  3  0  0  0  0  0  0
  -16.8320  -28.6030   23.1450 C   0  0  0  0  0  3  0  0  0  0  0  0
  -25.9790  -32.5020   23.7300 C   0  0  0  0  0  3  0  0  0  0  0  0
  -26.5260  -31.7130   24.9850 C   0  0  1  0  0  0  0  0  0  0  0  0
  -25.4530  -31.4440   26.0640 C   0  0  0  0  0  1  0  0  0  0  0  0
  -27.1210  -30.3520   24.5620 C   0  0  0  0  0  1  0  0  0  0  0  0
  -27.6780  -32.5090   25.6490 C   0  0  0  0  0  1  0  0  0  0  0  0
  -25.6460  -33.8850   24.1040 N   0  0  0  0  0  0  0  0  0  0  0  0
  -25.9470  -34.9690   23.3780 C   0  0  0  0  0  0  0  0  0  0  0  0
  -26.6050  -34.9150   22.3380 O   0  0  0  0  0  0  0  0  0  0  0  0
  -25.0540  -34.0010   24.9150 H   0  0  0  0  0  0  0  0  0  0  0  0
  -24.1800  -36.7440   23.1140 C   0  0  0  0  0  1  0  0  0  0  0  0
  -25.4430  -36.3340   23.8880 C   0  0  0  0  0  3  0  0  0  0  0  0
  -27.5780  -37.2320   24.7050 C   0  0  0  0  0  1  0  0  0  0  0  0
  -26.4530  -37.4110   23.7900 N   0  0  0  0  0  0  0  0  0  0  0  0
  -26.0310  -38.3170   23.9810 H   0  0  0  0  0  0  0  0  0  0  0  0
  1  7  1  0
  1 13  1  0
  2  7  1  0
  3  4  1  0
  3  2  1  0
  5  4  1  0
  5 19  1  0
  5  6  1  0
  7  6  1  0
  8  1  2  0
  9 47  1  0
  9 14  1  0
 10 12  1  0
 10  9  2  0
 11 13  1  0
 11 14  1  0
 12 11  2  0
 13 15  1  0
 16 17  2  0
 17 36  1  0
 18 17  1  0
 18 21  1  0
 19 16  1  0
 19 20  1  0
 20 18  2  0
 21 22  1  0
 22 23  2  0
 24 27  1  0
 24 23  1  0
 25 24  2  0
 26 25  1  0
 26 21  2  0
 27 28  1  0
 28 29  1  0
 29 30  2  0
 31 30  1  0
 31 35  1  0
 32 31  2  0
 33 28  2  0
 33 32  1  0
 34 33  1  0
 36 37  1  0
 37 40  1  0
 37 39  1  0
 38 36  2  0
 41 42  1  0
 41 16  1  0
 43 41  1  0
 44 10  1  0
 45 44  1  0
 46 44  1  0
 47 48  2  0
 49 51  1  0
 49 47  1  0
 51 50  1  0
 52 54  1  0
 52 51  1  0
 53 64  2  0
 54 59  1  0
 55 63  1  0
 55 65  1  0
 56 62  1  0
 56 58  1  0
 57 63  1  0
 58 57  1  0
 59 58  2  0
 60 54  2  0
 61 60  1  0
 61 56  2  0
 62 55  1  0
 63 53  1  0
 65 67  2  0
 66 65  1  0
 68 66  1  0
 69 78  2  0
 69 74  1  0
 70 66  1  0
 70 74  1  0
 71 70  1  0
 72 73  1  0
 72 71  1  0
 73 69  1  0
 74 75  2  0
 75 76  1  0
 77 76  2  0
 78 77  1  0
 79 53  1  0
 79 84  1  0
 79 80  1  0
 80 83  1  1
 80 81  1  0
 82 80  1  0
 84 87  1  0
 85 89  1  0
 85 84  1  0
 86 85  2  0
 89 88  1  0
 91 89  1  0
 91 92  1  0
 91 90  1  0
M  ISO  4   1 100  13 100  51 101  52 101
M  END
>  <TORSDO>  (49) 
F 19

>  <SCORE>  (49) 
-14.418

>  <name>  (49) 
48

>  <ligand_id>  (49) 
48

>  <original_smiles>  (49) 
[H]c1c([H])c([H])c2c(c1[H])C([H])([H])C([H])([H])C([H])([H])C2([H])N([H])C(=O)C1([H])N(C(=O)C([H])(N([H])C(=O)C([H])(N([H])C([H])([H])[H])C([H])([H])[H])C(C([H])([H])[H])(C([H])([H])[H])C([H])([H])[H])C([H])([H])c2c([H])c(OC([H])(C([H])([H])[H])C([H])([H])C(=O)c3sc(N([H])C(=O)N4C([H])([H])C([H])([H])C([H])([H])C([H])(n5nc(-c6c([H])c([H])c(Oc7c([H])c([H])c(F)c([H])c7F)c([H])c6[H])c(C(=O)N([H])[H])c5N([H])[H])C4([H])[H])nc3N([H])[H])c([H])c([H])c2C1([H])[H]

>  <smiles>  (49) 
[H]c1c([H])c([H])c2c(c1[H])C([H])([H])C([H])([H])C([H])([H])C2([H])N([H])C(=O)C1([H])N(C(=O)C([H])(N([H])C(=O)C([H])(N([H])C([H])([H])[H])C([H])([H])[H])C(C([H])([H])[H])(C([H])([H])[H])C([H])([H])[H])C([H])([H])c2c([H])c(OC([H])(C([H])([H])[H])C([H])([H])C(=O)c3sc(N([H])C(=O)N4C([H])([H])C([H])([H])C([H])([H])C([H])(n5nc(-c6c([H])c([H])c(Oc7c([H])c([H])c(F)c([H])c7F)c([H])c6[H])c(C(=O)N([H])[H])c5N([H])[H])C4([H])[H])nc3N([H])[H])c([H])c([H])c2C1([H])[H]

$$$$
49:0:0
     RDKit          3D

 95103  0  0  1  0  0  0  0  0999 V2000
  -29.7620  -21.2370   20.9840 C   0  0  0  0  0  0  0  0  0  0  0  0
  -29.1320  -23.7120   20.8040 C   0  0  0  0  0  0  0  0  0  0  0  0
  -28.9980  -22.3310   20.5560 N   0  0  0  0  0  0  0  0  0  0  0  0
  -30.5980  -21.3830   21.8850 O   0  0  0  0  0  0  0  0  0  0  0  0
  -30.1990  -24.1810   21.2160 O   0  0  0  0  0  0  0  0  0  0  0  0
  -28.2010  -22.0630   20.0010 H   0  0  0  0  0  0  0  0  0  0  0  0
  -30.5800  -14.8420   20.3050 C   0  0  0  0  0  0  0  0  0  0  0  0
  -30.3800  -12.5690   19.2710 C   0  0  0  0  0  2  0  0  0  0  0  0
  -29.4250  -12.6480   18.0580 C   0  0  0  0  0  2  0  0  0  0  0  0
  -27.9590  -12.4710   18.4980 C   0  0  0  0  0  2  0  0  0  0  0  0
  -27.6020  -13.3270   19.7420 C   0  0  0  0  0  3  0  0  0  0  0  0
  -28.6790  -13.2230   20.8480 C   0  0  0  0  0  2  0  0  0  0  0  0
  -29.9680  -13.6030   20.2540 N   0  0  0  0  0  0  0  0  0  0  0  0
  -31.7160  -14.9690   19.8380 O   0  0  0  0  0  0  0  0  0  0  0  0
  -29.6030  -19.7670   20.3800 C   0  0  0  0  0  0  0  0  0  0  0  0
  -29.4190  -19.4770   19.0330 C   0  0  0  0  0  0  0  0  0  0  0  0
  -29.8370  -17.3470   20.3310 C   0  0  0  0  0  0  0  0  0  0  0  0
  -29.8120  -18.5030   21.0890 N   0  0  0  0  0  0  0  0  0  0  0  0
  -29.8900  -15.9380   20.8130 N   0  0  0  0  0  0  0  0  0  0  0  0
  -29.5550  -17.7540   18.6450 S   0  0  0  0  0  0  0  0  0  0  0  0
  -29.1070  -15.6780   21.3920 H   0  0  0  0  0  0  0  0  0  0  0  0
  -25.2170  -13.8920   20.4990 C   0  0  0  0  0  0  0  0  0  0  0  0
  -24.1630  -13.1070   20.8830 C   0  0  0  0  0  0  0  0  0  0  0  0
  -24.6360  -11.7600   20.8390 C   0  0  0  0  0  0  0  0  0  0  0  0
  -26.2660  -13.0210   20.2450 N   0  0  0  0  0  0  0  0  0  0  0  0
  -25.9230  -11.7340   20.5100 N   0  0  0  0  0  0  0  0  0  0  0  0
  -23.9210  -10.4920   21.0360 C   0  0  0  0  0  0  0  0  0  0  0  0
  -24.3760   -9.5210   21.9560 C   0  0  0  0  0  3  0  0  0  0  0  0
  -23.6610   -8.3170   22.1410 C   0  0  0  0  0  3  0  0  0  0  0  0
  -22.4750   -8.0780   21.4060 C   0  0  0  0  0  0  0  0  0  0  0  0
  -22.0390   -9.0370   20.4740 C   0  0  0  0  0  3  0  0  0  0  0  0
  -22.7560  -10.2310   20.2880 C   0  0  0  0  0  3  0  0  0  0  0  0
  -21.7280   -6.9280   21.5000 O   0  0  0  0  0  0  0  0  0  0  0  0
  -21.7030   -6.1770   22.6490 C   0  0  0  0  0  0  0  0  0  0  0  0
  -21.2830   -6.7170   23.8840 C   0  0  0  0  0  3  0  0  0  0  0  0
  -21.2080   -5.8920   25.0240 C   0  0  0  0  0  3  0  0  0  0  0  0
  -21.5430   -4.5280   24.9300 C   0  0  0  0  0  0  0  0  0  0  0  0
  -21.9570   -3.9880   23.7000 C   0  0  0  0  0  3  0  0  0  0  0  0
  -22.0340   -4.8100   22.5620 C   0  0  0  0  0  0  0  0  0  0  0  0
  -22.4120   -4.2790   21.3740 F   0  0  0  0  0  0  0  0  0  0  0  0
  -21.4640   -3.7330   26.0220 F   0  0  0  0  0  0  0  0  0  0  0  0
  -22.7660  -13.5740   21.1760 C   0  0  0  0  0  0  0  0  0  0  0  0
  -22.0530  -12.8660   22.0460 N   0  0  0  0  0  0  0  0  0  0  0  0
  -22.3140  -14.5990   20.6690 O   0  0  0  0  0  0  0  0  0  0  0  0
  -22.4330  -12.0370   22.4790 H   0  0  0  0  0  0  0  0  0  0  0  0
  -21.1160  -13.1580   22.2820 H   0  0  0  0  0  0  0  0  0  0  0  0
  -25.3730  -15.2640   20.3280 N   0  0  0  0  0  0  0  0  0  0  0  0
  -24.6090  -15.9180   20.4630 H   0  0  0  0  0  0  0  0  0  0  0  0
  -26.2140  -15.7090   19.9820 H   0  0  0  0  0  0  0  0  0  0  0  0
  -29.2030  -20.3370   17.9580 N   0  0  0  0  0  0  0  0  0  0  0  0
  -29.4550  -21.3220   17.9760 H   0  0  0  0  0  0  0  0  0  0  0  0
  -29.2600  -19.9640   17.0150 H   0  0  0  0  0  0  0  0  0  0  0  0
  -26.7850  -24.1010   19.8170 C   0  0  0  0  0  1  0  0  0  0  0  0
  -27.9200  -24.7840   20.6250 C   0  0  0  0  0  3  0  0  0  0  0  0
  -28.2370  -26.2730   20.3270 O   0  0  0  0  0  0  0  0  0  0  0  0
  -24.6240  -31.9460   23.2690 C   0  0  0  0  0  0  0  0  0  0  0  0
  -27.1950  -27.2580   20.2590 C   0  0  0  0  0  0  0  0  0  0  0  0
  -23.4250  -30.5500   21.6300 C   0  0  0  0  0  3  0  0  0  0  0  0
  -24.8770  -28.9890   20.2120 C   0  0  0  0  0  0  0  0  0  0  0  0
  -25.9800  -30.8110   21.4850 C   0  0  0  0  0  2  0  0  0  0  0  0
  -26.0490  -29.4240   20.8450 C   0  0  0  0  0  0  0  0  0  0  0  0
  -27.2080  -28.5690   20.8700 C   0  0  0  0  0  3  0  0  0  0  0  0
  -26.0320  -26.9710   19.5140 C   0  0  0  0  0  3  0  0  0  0  0  0
  -24.8800  -27.7700   19.5300 C   0  0  0  0  0  3  0  0  0  0  0  0
  -23.6480  -29.8780   20.2520 C   0  0  0  0  0  2  0  0  0  0  0  0
  -24.6960  -31.1250   22.1800 N   0  0  0  0  0  0  0  0  0  0  0  0
  -23.5370  -32.2360   23.7900 O   0  0  0  0  0  0  0  0  0  0  0  0
  -22.7480  -29.5380   22.5880 C   0  0  0  0  0  0  0  0  0  0  0  0
  -21.4210  -29.3680   22.4510 N   0  0  0  0  0  0  0  0  0  0  0  0
  -23.4170  -28.9140   23.4160 O   0  0  0  0  0  0  0  0  0  0  0  0
  -20.9410  -29.9220   21.7570 H   0  0  0  0  0  0  0  0  0  0  0  0
  -18.0320  -28.1910   22.9410 C   0  0  0  0  0  0  0  0  0  0  0  0
  -20.5910  -28.4360   23.2190 C   0  0  0  0  0  3  0  0  0  0  0  0
  -20.6850  -27.0040   22.6470 C   0  0  0  0  0  2  0  0  0  0  0  0
  -19.5860  -26.6850   21.6290 C   0  0  0  0  0  2  0  0  0  0  0  0
  -18.2030  -26.8390   22.2680 C   0  0  0  0  0  2  0  0  0  0  0  0
  -19.1540  -28.9470   23.3720 C   0  0  0  0  0  0  0  0  0  0  0  0
  -18.9390  -30.2120   23.9620 C   0  0  0  0  0  3  0  0  0  0  0  0
  -17.6360  -30.7200   24.1220 C   0  0  0  0  0  3  0  0  0  0  0  0
  -16.5290  -29.9600   23.7070 C   0  0  0  0  0  3  0  0  0  0  0  0
  -16.7270  -28.6970   23.1230 C   0  0  0  0  0  3  0  0  0  0  0  0
  -25.9050  -32.5750   23.8960 C   0  0  0  0  0  3  0  0  0  0  0  0
  -25.5990  -33.9770   24.2180 N   0  0  0  0  0  0  0  0  0  0  0  0
  -25.9240  -35.0250   23.4500 C   0  0  0  0  0  0  0  0  0  0  0  0
  -26.5860  -34.9140   22.4150 O   0  0  0  0  0  0  0  0  0  0  0  0
  -25.0070  -34.1380   25.0200 H   0  0  0  0  0  0  0  0  0  0  0  0
  -24.1950  -36.8180   23.1040 C   0  0  0  0  0  1  0  0  0  0  0  0
  -25.4430  -36.4180   23.9040 C   0  0  0  0  0  3  0  0  0  0  0  0
  -27.5860  -37.3100   24.7050 C   0  0  0  0  0  1  0  0  0  0  0  0
  -26.4740  -37.4700   23.7720 N   0  0  0  0  0  0  0  0  0  0  0  0
  -26.0700  -38.3920   23.9120 H   0  0  0  0  0  0  0  0  0  0  0  0
  -26.4040  -31.8080   25.1830 C   0  0  1  0  0  0  0  0  0  0  0  0
  -25.2980  -31.5850   26.2430 C   0  0  0  0  0  1  0  0  0  0  0  0
  -26.9850  -30.4240   24.8120 C   0  0  0  0  0  1  0  0  0  0  0  0
  -27.5520  -32.6020   25.8470 C   0  0  0  0  0  1  0  0  0  0  0  0
  1  4  2  0
  2  5  2  0
  3  2  1  0
  3  1  1  0
  6  3  1  0
  7 19  1  0
  8 13  1  0
  9 10  1  0
  9  8  1  0
 11 10  1  0
 11 25  1  0
 11 12  1  0
 13  7  1  0
 13 12  1  0
 14  7  2  0
 15  1  1  0
 15 18  1  0
 16 15  2  0
 17 19  1  0
 17 18  2  0
 19 21  1  0
 20 16  1  0
 20 17  1  0
 22 23  2  0
 23 42  1  0
 24 23  1  0
 24 27  1  0
 25 22  1  0
 25 26  1  0
 26 24  2  0
 27 28  1  0
 28 29  2  0
 30 33  1  0
 30 29  1  0
 31 30  2  0
 32 31  1  0
 32 27  2  0
 33 34  1  0
 34 35  1  0
 35 36  2  0
 37 36  1  0
 37 41  1  0
 38 37  2  0
 39 34  2  0
 39 38  1  0
 40 39  1  0
 42 43  1  0
 43 46  1  0
 43 45  1  0
 44 42  2  0
 47 48  1  0
 47 22  1  0
 49 47  1  0
 50 51  1  0
 50 16  1  0
 52 50  1  0
 54 53  1  0
 54  2  1  0
 55 54  1  0
 56 67  2  0
 57 55  1  0
 57 62  1  0
 58 66  1  0
 58 68  1  0
 59 65  1  0
 59 61  1  0
 60 66  1  0
 61 62  2  0
 61 60  1  0
 63 64  1  0
 63 57  2  0
 64 59  2  0
 65 58  1  0
 66 56  1  0
 68 70  2  0
 69 68  1  0
 71 69  1  0
 72 81  2  0
 72 77  1  0
 73 69  1  0
 73 77  1  0
 74 73  1  0
 75 76  1  0
 75 74  1  0
 76 72  1  0
 77 78  2  0
 78 79  1  0
 80 79  2  0
 81 80  1  0
 82 56  1  0
 82 83  1  0
 82 92  1  0
 83 86  1  0
 84 88  1  0
 84 83  1  0
 85 84  2  0
 88 87  1  0
 90 88  1  0
 90 91  1  0
 90 89  1  0
 92 95  1  1
 92 93  1  0
 94 92  1  0
M  ISO  4   7 100  19 100  54 101  55 101
M  END
>  <TORSDO>  (50) 
F 18

>  <SCORE>  (50) 
-15.050

>  <name>  (50) 
49

>  <ligand_id>  (50) 
49

>  <original_smiles>  (50) 
[H]c1c([H])c([H])c2c(c1[H])C([H])([H])C([H])([H])C([H])([H])C2([H])N([H])C(=O)C1([H])N(C(=O)C([H])(N([H])C(=O)C([H])(N([H])C([H])([H])[H])C([H])([H])[H])C(C([H])([H])[H])(C([H])([H])[H])C([H])([H])[H])C([H])([H])c2c([H])c(OC([H])(C(=O)N([H])C(=O)c3nc(N([H])C(=O)N4C([H])([H])C([H])([H])C([H])([H])C([H])(n5nc(-c6c([H])c([H])c(Oc7c([H])c([H])c(F)c([H])c7F)c([H])c6[H])c(C(=O)N([H])[H])c5N([H])[H])C4([H])[H])sc3N([H])[H])C([H])([H])[H])c([H])c([H])c2C1([H])[H]

>  <smiles>  (50) 
[H]c1c([H])c([H])c2c(c1[H])C([H])([H])C([H])([H])C([H])([H])C2([H])N([H])C(=O)C1([H])N(C(=O)C([H])(N([H])C(=O)C([H])(N([H])C([H])([H])[H])C([H])([H])[H])C(C([H])([H])[H])(C([H])([H])[H])C([H])([H])[H])C([H])([H])c2c([H])c(OC([H])(C(=O)N([H])C(=O)c3nc(N([H])C(=O)N4C([H])([H])C([H])([H])C([H])([H])C([H])(n5nc(-c6c([H])c([H])c(Oc7c([H])c([H])c(F)c([H])c7F)c([H])c6[H])c(C(=O)N([H])[H])c5N([H])[H])C4([H])[H])sc3N([H])[H])C([H])([H])[H])c([H])c([H])c2C1([H])[H]

$$$$
50:0:0
     RDKit          3D

 96104  0  0  1  0  0  0  0  0999 V2000
  -28.8160  -22.5620   19.9490 C   0  0  0  0  0  0  0  0  0  0  0  0
  -29.3830  -21.5410   20.7210 N   0  0  0  0  0  0  0  0  0  0  0  0
  -28.2660  -22.2800   18.8820 O   0  0  0  0  0  0  0  0  0  0  0  0
  -29.7940  -21.8990   21.5740 H   0  0  0  0  0  0  0  0  0  0  0  0
  -29.1630  -19.3520   19.4500 C   0  0  0  0  0  3  0  0  0  0  0  0
  -29.2920  -17.9000   19.5800 C   0  0  0  0  0  0  0  0  0  0  0  0
  -29.4630  -20.1330   20.5480 C   0  0  0  0  0  0  0  0  0  0  0  0
  -29.7640  -17.4400   20.8100 C   0  0  0  0  0  0  0  0  0  0  0  0
  -30.0080  -18.9380   21.7870 S   0  0  0  0  0  0  0  0  0  0  0  0
  -30.6650  -15.0270   21.1070 C   0  0  0  0  0  0  0  0  0  0  0  0
  -30.7010  -12.6650   20.2650 C   0  0  0  0  0  2  0  0  0  0  0  0
  -29.9050  -12.6040   18.9400 C   0  0  0  0  0  2  0  0  0  0  0  0
  -28.4030  -12.3960   19.2090 C   0  0  0  0  0  2  0  0  0  0  0  0
  -27.8610  -13.3320   20.3180 C   0  0  0  0  0  3  0  0  0  0  0  0
  -28.7840  -13.3630   21.5560 C   0  0  0  0  0  2  0  0  0  0  0  0
  -30.1260  -13.7540   21.0940 N   0  0  0  0  0  0  0  0  0  0  0  0
  -31.8600  -15.1820   20.8310 O   0  0  0  0  0  0  0  0  0  0  0  0
  -29.8100  -16.1120   21.3140 N   0  0  0  0  0  0  0  0  0  0  0  0
  -28.9430  -15.8190   21.7410 H   0  0  0  0  0  0  0  0  0  0  0  0
  -25.3940  -13.8880   20.7520 C   0  0  0  0  0  0  0  0  0  0  0  0
  -24.3120  -13.0980   21.0360 C   0  0  0  0  0  0  0  0  0  0  0  0
  -24.8040  -11.7580   21.0890 C   0  0  0  0  0  0  0  0  0  0  0  0
  -26.4780  -13.0280   20.6620 N   0  0  0  0  0  0  0  0  0  0  0  0
  -26.1200  -11.7430   20.9220 N   0  0  0  0  0  0  0  0  0  0  0  0
  -24.0880  -10.4850   21.2270 C   0  0  0  0  0  0  0  0  0  0  0  0
  -24.4540   -9.5370   22.2070 C   0  0  0  0  0  3  0  0  0  0  0  0
  -23.7390   -8.3260   22.3340 C   0  0  0  0  0  3  0  0  0  0  0  0
  -22.6460   -8.0550   21.4790 C   0  0  0  0  0  0  0  0  0  0  0  0
  -22.3000   -8.9930   20.4910 C   0  0  0  0  0  3  0  0  0  0  0  0
  -23.0150  -10.1950   20.3620 C   0  0  0  0  0  3  0  0  0  0  0  0
  -21.9110   -6.8950   21.5120 O   0  0  0  0  0  0  0  0  0  0  0  0
  -21.7820   -6.1580   22.6620 C   0  0  0  0  0  0  0  0  0  0  0  0
  -21.2480   -6.7120   23.8450 C   0  0  0  0  0  3  0  0  0  0  0  0
  -21.0650   -5.9000   24.9820 C   0  0  0  0  0  3  0  0  0  0  0  0
  -21.4100   -4.5350   24.9370 C   0  0  0  0  0  0  0  0  0  0  0  0
  -21.9400   -3.9810   23.7580 C   0  0  0  0  0  3  0  0  0  0  0  0
  -22.1210   -4.7910   22.6230 C   0  0  0  0  0  0  0  0  0  0  0  0
  -22.6090   -4.2460   21.4820 F   0  0  0  0  0  0  0  0  0  0  0  0
  -21.2300   -3.7540   26.0270 F   0  0  0  0  0  0  0  0  0  0  0  0
  -22.8840  -13.5500   21.1430 C   0  0  0  0  0  0  0  0  0  0  0  0
  -22.0820  -12.8620   21.9480 N   0  0  0  0  0  0  0  0  0  0  0  0
  -22.4840  -14.5490   20.5470 O   0  0  0  0  0  0  0  0  0  0  0  0
  -22.4210  -12.0570   22.4550 H   0  0  0  0  0  0  0  0  0  0  0  0
  -21.1220  -13.1480   22.0660 H   0  0  0  0  0  0  0  0  0  0  0  0
  -25.5400  -15.2520   20.5300 N   0  0  0  0  0  0  0  0  0  0  0  0
  -24.7090  -15.8190   20.3990 H   0  0  0  0  0  0  0  0  0  0  0  0
  -26.3460  -15.6260   20.0420 H   0  0  0  0  0  0  0  0  0  0  0  0
  -28.8520  -17.0010   18.4510 C   0  0  1  0  0  0  0  0  0  0  0  0
  -28.5800  -17.6820   17.3370 F   0  0  0  0  0  0  0  0  0  0  0  0
  -29.7870  -16.1060   18.1420 F   0  0  0  0  0  0  0  0  0  0  0  0
  -27.7420  -16.3410   18.7830 F   0  0  0  0  0  0  0  0  0  0  0  0
  -28.3310  -25.1010   19.7970 C   0  0  0  0  0  3  0  0  0  0  0  0
  -28.8990  -24.0020   20.4500 C   0  0  0  0  0  0  0  0  0  0  0  0
  -29.5720  -24.2170   21.5910 O   0  0  0  0  0  0  0  0  0  0  0  0
  -29.5600  -25.1530   21.7490 H   0  0  0  0  0  0  0  0  0  0  0  0
  -28.3730  -26.4980   20.1510 O   0  0  0  0  0  0  0  0  0  0  0  0
  -24.6100  -31.9630   23.1800 C   0  0  0  0  0  0  0  0  0  0  0  0
  -27.2540  -27.3810   20.0820 C   0  0  0  0  0  0  0  0  0  0  0  0
  -23.4140  -30.5630   21.5380 C   0  0  0  0  0  3  0  0  0  0  0  0
  -24.8740  -29.0270   20.0900 C   0  0  0  0  0  0  0  0  0  0  0  0
  -25.9590  -30.8810   21.3560 C   0  0  0  0  0  2  0  0  0  0  0  0
  -26.0470  -29.5060   20.6870 C   0  0  0  0  0  0  0  0  0  0  0  0
  -27.2340  -28.6990   20.6680 C   0  0  0  0  0  3  0  0  0  0  0  0
  -26.0470  -26.9690   19.4730 C   0  0  0  0  0  3  0  0  0  0  0  0
  -24.8830  -27.7670   19.4720 C   0  0  0  0  0  3  0  0  0  0  0  0
  -23.6330  -29.9030   20.1520 C   0  0  0  0  0  2  0  0  0  0  0  0
  -24.6790  -31.1550   22.0800 N   0  0  0  0  0  0  0  0  0  0  0  0
  -23.5250  -32.2300   23.7190 O   0  0  0  0  0  0  0  0  0  0  0  0
  -22.7600  -29.5370   22.4940 C   0  0  0  0  0  0  0  0  0  0  0  0
  -21.4320  -29.3610   22.3840 N   0  0  0  0  0  0  0  0  0  0  0  0
  -23.4480  -28.9040   23.3000 O   0  0  0  0  0  0  0  0  0  0  0  0
  -20.9350  -29.9210   21.7060 H   0  0  0  0  0  0  0  0  0  0  0  0
  -18.0620  -28.1520   22.9230 C   0  0  0  0  0  0  0  0  0  0  0  0
  -20.6250  -28.4150   23.1580 C   0  0  0  0  0  3  0  0  0  0  0  0
  -20.7200  -26.9900   22.5660 C   0  0  0  0  0  2  0  0  0  0  0  0
  -19.6050  -26.6760   21.5630 C   0  0  0  0  0  2  0  0  0  0  0  0
  -18.2310  -26.8110   22.2280 C   0  0  0  0  0  2  0  0  0  0  0  0
  -19.1860  -28.9120   23.3470 C   0  0  0  0  0  0  0  0  0  0  0  0
  -18.9720  -30.1640   23.9590 C   0  0  0  0  0  3  0  0  0  0  0  0
  -17.6690  -30.6600   24.1510 C   0  0  0  0  0  3  0  0  0  0  0  0
  -16.5600  -29.8970   23.7440 C   0  0  0  0  0  3  0  0  0  0  0  0
  -16.7580  -28.6450   23.1380 C   0  0  0  0  0  3  0  0  0  0  0  0
  -25.8880  -32.6060   23.8010 C   0  0  0  0  0  3  0  0  0  0  0  0
  -26.4300  -31.8220   25.0600 C   0  0  1  0  0  0  0  0  0  0  0  0
  -25.3520  -31.5580   26.1380 C   0  0  0  0  0  1  0  0  0  0  0  0
  -27.0230  -30.4540   24.6470 C   0  0  0  0  0  1  0  0  0  0  0  0
  -27.5800  -32.6200   25.7200 C   0  0  0  0  0  1  0  0  0  0  0  0
  -25.5590  -33.9910   24.1660 N   0  0  0  0  0  0  0  0  0  0  0  0
  -25.8850  -35.0710   23.4420 C   0  0  0  0  0  0  0  0  0  0  0  0
  -26.5670  -35.0040   22.4160 O   0  0  0  0  0  0  0  0  0  0  0  0
  -24.9550  -34.1180   24.9660 H   0  0  0  0  0  0  0  0  0  0  0  0
  -24.1510  -36.8630   23.1100 C   0  0  0  0  0  1  0  0  0  0  0  0
  -25.3790  -36.4410   23.9340 C   0  0  0  0  0  3  0  0  0  0  0  0
  -27.4900  -37.3120   24.8350 C   0  0  0  0  0  1  0  0  0  0  0  0
  -26.4060  -37.5040   23.8770 N   0  0  0  0  0  0  0  0  0  0  0  0
  -25.9890  -38.4160   24.0470 H   0  0  0  0  0  0  0  0  0  0  0  0
  1 53  1  0
  1  2  1  0
  2  4  1  0
  3  1  2  0
  5  6  1  0
  5  7  2  0
  6  8  2  0
  7  2  1  0
  7  9  1  0
  8 18  1  0
  8  9  1  0
 10 18  1  0
 11 16  1  0
 12 13  1  0
 12 11  1  0
 14 13  1  0
 14 23  1  0
 14 15  1  0
 16 10  1  0
 16 15  1  0
 17 10  2  0
 18 19  1  0
 20 21  2  0
 21 22  1  0
 21 40  1  0
 22 25  1  0
 23 20  1  0
 23 24  1  0
 24 22  2  0
 25 26  1  0
 26 27  2  0
 28 31  1  0
 28 27  1  0
 29 28  2  0
 30 29  1  0
 30 25  2  0
 31 32  1  0
 32 33  1  0
 33 34  2  0
 35 34  1  0
 35 39  1  0
 36 35  2  0
 37 32  2  0
 37 36  1  0
 38 37  1  0
 40 41  1  0
 41 44  1  0
 41 43  1  0
 42 40  2  0
 45 20  1  0
 46 45  1  0
 47 45  1  0
 48 51  1  1
 48  6  1  0
 49 48  1  0
 50 48  1  0
 52 56  1  0
 52 53  2  0
 53 54  1  0
 54 55  1  0
 57 68  2  0
 58 56  1  0
 58 63  1  0
 59 67  1  0
 59 69  1  0
 60 66  1  0
 60 62  1  0
 61 67  1  0
 62 61  1  0
 63 62  2  0
 64 58  2  0
 65 64  1  0
 65 60  2  0
 66 59  1  0
 67 57  1  0
 69 71  2  0
 70 69  1  0
 72 70  1  0
 73 82  2  0
 73 78  1  0
 74 70  1  0
 74 78  1  0
 75 74  1  0
 76 77  1  0
 76 75  1  0
 77 73  1  0
 78 79  2  0
 79 80  1  0
 81 80  2  0
 82 81  1  0
 83 57  1  0
 83 88  1  0
 83 84  1  0
 84 87  1  1
 84 85  1  0
 86 84  1  0
 88 91  1  0
 89 93  1  0
 89 88  1  0
 90 89  2  0
 93 92  1  0
 95 93  1  0
 95 96  1  0
 95 94  1  0
M  ISO  4  10 100  18 100  52 101  56 101
M  END
>  <TORSDO>  (51) 
F 20

>  <SCORE>  (51) 
-13.107

>  <name>  (51) 
50

>  <ligand_id>  (51) 
50

>  <original_smiles>  (51) 
[H]OC(C(=O)N([H])c1sc(N([H])C(=O)N2C([H])([H])C([H])([H])C([H])([H])C([H])(n3nc(-c4c([H])c([H])c(Oc5c([H])c([H])c(F)c([H])c5F)c([H])c4[H])c(C(=O)N([H])[H])c3N([H])[H])C2([H])[H])c(C(F)(F)F)c1[H])=C([H])Oc1c([H])c([H])c2c(c1[H])C([H])([H])N(C(=O)C([H])(N([H])C(=O)C([H])(N([H])C([H])([H])[H])C([H])([H])[H])C(C([H])([H])[H])(C([H])([H])[H])C([H])([H])[H])C([H])(C(=O)N([H])C1([H])c3c([H])c([H])c([H])c([H])c3C([H])([H])C([H])([H])C1([H])[H])C2([H])[H]

>  <smiles>  (51) 
[H]OC(C(=O)N([H])c1sc(N([H])C(=O)N2C([H])([H])C([H])([H])C([H])([H])C([H])(n3nc(-c4c([H])c([H])c(Oc5c([H])c([H])c(F)c([H])c5F)c([H])c4[H])c(C(=O)N([H])[H])c3N([H])[H])C2([H])[H])c(C(F)(F)F)c1[H])=C([H])Oc1c([H])c([H])c2c(c1[H])C([H])([H])N(C(=O)C([H])(N([H])C(=O)C([H])(N([H])C([H])([H])[H])C([H])([H])[H])C(C([H])([H])[H])(C([H])([H])[H])C([H])([H])[H])C([H])(C(=O)N([H])C1([H])c3c([H])c([H])c([H])c([H])c3C([H])([H])C([H])([H])C1([H])[H])C2([H])[H]

$$$$
51:0:0
     RDKit          3D

 96104  0  0  1  0  0  0  0  0999 V2000
  -30.5750  -14.7930   20.4550 C   0  0  0  0  0  0  0  0  0  0  0  0
  -30.3970  -12.5090   19.4460 C   0  0  0  0  0  2  0  0  0  0  0  0
  -29.4940  -12.6070   18.1950 C   0  0  0  0  0  2  0  0  0  0  0  0
  -28.0100  -12.4390   18.5850 C   0  0  0  0  0  2  0  0  0  0  0  0
  -27.6140  -13.3110   19.8050 C   0  0  0  0  0  3  0  0  0  0  0  0
  -28.6460  -13.2070   20.9500 C   0  0  0  0  0  2  0  0  0  0  0  0
  -29.9570  -13.5620   20.3910 N   0  0  0  0  0  0  0  0  0  0  0  0
  -31.7620  -14.8820   20.1200 O   0  0  0  0  0  0  0  0  0  0  0  0
  -30.6860  -19.6180   19.5430 C   0  0  0  0  0  0  0  0  0  0  0  0
  -29.5550  -19.7270   20.3380 C   0  0  0  0  0  0  0  0  0  0  0  0
  -30.0270  -17.3600   20.4590 C   0  0  0  0  0  0  0  0  0  0  0  0
  -29.1900  -18.4010   20.8080 N   0  0  0  0  0  0  0  0  0  0  0  0
  -29.8050  -15.9170   20.7460 N   0  0  0  0  0  0  0  0  0  0  0  0
  -31.3660  -17.9850   19.5080 S   0  0  0  0  0  0  0  0  0  0  0  0
  -28.8850  -15.7000   21.0960 H   0  0  0  0  0  0  0  0  0  0  0  0
  -25.2080  -13.9070   20.4660 C   0  0  0  0  0  0  0  0  0  0  0  0
  -24.1340  -13.1390   20.8240 C   0  0  0  0  0  0  0  0  0  0  0  0
  -24.5970  -11.7880   20.8200 C   0  0  0  0  0  0  0  0  0  0  0  0
  -26.2580  -13.0260   20.2640 N   0  0  0  0  0  0  0  0  0  0  0  0
  -25.8940  -11.7450   20.5390 N   0  0  0  0  0  0  0  0  0  0  0  0
  -23.8640  -10.5300   21.0110 C   0  0  0  0  0  0  0  0  0  0  0  0
  -24.2840   -9.5680   21.9560 C   0  0  0  0  0  3  0  0  0  0  0  0
  -23.5530   -8.3720   22.1350 C   0  0  0  0  0  3  0  0  0  0  0  0
  -22.3880   -8.1310   21.3670 C   0  0  0  0  0  0  0  0  0  0  0  0
  -21.9870   -9.0820   20.4140 C   0  0  0  0  0  3  0  0  0  0  0  0
  -22.7190  -10.2670   20.2320 C   0  0  0  0  0  3  0  0  0  0  0  0
  -21.6280   -6.9890   21.4540 O   0  0  0  0  0  0  0  0  0  0  0  0
  -21.5670   -6.2520   22.6110 C   0  0  0  0  0  0  0  0  0  0  0  0
  -21.1470   -6.8170   23.8340 C   0  0  0  0  0  3  0  0  0  0  0  0
  -21.0320   -6.0050   24.9800 C   0  0  0  0  0  3  0  0  0  0  0  0
  -21.3280   -4.6320   24.9040 C   0  0  0  0  0  0  0  0  0  0  0  0
  -21.7420   -4.0670   23.6850 C   0  0  0  0  0  3  0  0  0  0  0  0
  -21.8580   -4.8750   22.5390 C   0  0  0  0  0  0  0  0  0  0  0  0
  -22.2380   -4.3220   21.3610 F   0  0  0  0  0  0  0  0  0  0  0  0
  -21.2110   -3.8490   26.0020 F   0  0  0  0  0  0  0  0  0  0  0  0
  -22.7310  -13.6210   21.0540 C   0  0  0  0  0  0  0  0  0  0  0  0
  -21.9800  -12.9420   21.9130 N   0  0  0  0  0  0  0  0  0  0  0  0
  -22.3060  -14.6390   20.5060 O   0  0  0  0  0  0  0  0  0  0  0  0
  -22.3330  -12.1220   22.3830 H   0  0  0  0  0  0  0  0  0  0  0  0
  -21.0370  -13.2500   22.1080 H   0  0  0  0  0  0  0  0  0  0  0  0
  -25.3750  -15.2750   20.2760 N   0  0  0  0  0  0  0  0  0  0  0  0
  -24.5960  -15.9210   20.3500 H   0  0  0  0  0  0  0  0  0  0  0  0
  -26.2230  -15.7180   19.9460 H   0  0  0  0  0  0  0  0  0  0  0  0
  -31.4090  -20.5590   18.6660 C   0  0  0  0  0  0  0  0  0  0  0  0
  -31.4080  -20.2690   17.3710 N   0  0  0  0  0  0  0  0  0  0  0  0
  -31.9900  -21.5550   19.0890 O   0  0  0  0  0  0  0  0  0  0  0  0
  -30.9090  -19.4560   17.0350 H   0  0  0  0  0  0  0  0  0  0  0  0
  -31.8800  -20.8720   16.7160 H   0  0  0  0  0  0  0  0  0  0  0  0
  -28.7110  -20.9180   20.5070 N   0  0  0  0  0  4  0  0  0  0  0  0
  -27.7580  -20.6370   20.7200 H   0  0  0  0  0  0  0  0  0  0  0  0
  -30.2510  -22.4020   21.9080 C   0  0  0  0  0  1  0  0  0  0  0  0
  -28.9590  -22.3150   21.0790 C   0  0  0  0  0  0  0  0  0  0  0  0
  -28.7190  -23.6850   20.2150 C   0  0  0  0  0  0  0  0  0  0  0  0
  -28.9620  -23.7160   19.0040 O   0  0  0  0  0  0  0  0  0  0  0  0
  -28.1260  -25.0080   20.9180 C   0  0  0  0  0  2  0  0  0  0  0  0
  -28.3850  -26.3800   20.3430 O   0  0  0  0  0  0  0  0  0  0  0  0
  -24.6290  -31.8960   23.2770 C   0  0  0  0  0  0  0  0  0  0  0  0
  -27.2980  -27.2810   20.3070 C   0  0  0  0  0  0  0  0  0  0  0  0
  -23.4590  -30.4750   21.6350 C   0  0  0  0  0  3  0  0  0  0  0  0
  -24.9370  -28.9190   20.2410 C   0  0  0  0  0  0  0  0  0  0  0  0
  -26.0020  -30.7950   21.4870 C   0  0  0  0  0  2  0  0  0  0  0  0
  -26.1000  -29.4080   20.8510 C   0  0  0  0  0  0  0  0  0  0  0  0
  -27.2870  -28.6050   20.8670 C   0  0  0  0  0  3  0  0  0  0  0  0
  -26.1150  -26.8580   19.6680 C   0  0  0  0  0  3  0  0  0  0  0  0
  -24.9500  -27.6510   19.6380 C   0  0  0  0  0  3  0  0  0  0  0  0
  -23.6970  -29.7920   20.2640 C   0  0  0  0  0  2  0  0  0  0  0  0
  -24.7150  -31.0760   22.1880 N   0  0  0  0  0  0  0  0  0  0  0  0
  -23.5370  -32.1740   23.7940 O   0  0  0  0  0  0  0  0  0  0  0  0
  -22.7910  -29.4640   22.5970 C   0  0  0  0  0  0  0  0  0  0  0  0
  -21.4650  -29.2790   22.4610 N   0  0  0  0  0  0  0  0  0  0  0  0
  -23.4620  -28.8460   23.4270 O   0  0  0  0  0  0  0  0  0  0  0  0
  -20.9810  -29.8240   21.7630 H   0  0  0  0  0  0  0  0  0  0  0  0
  -18.0880  -28.0750   22.9510 C   0  0  0  0  0  0  0  0  0  0  0  0
  -20.6440  -28.3430   23.2330 C   0  0  0  0  0  3  0  0  0  0  0  0
  -20.7540  -26.9100   22.6640 C   0  0  0  0  0  2  0  0  0  0  0  0
  -19.6590  -26.5780   21.6460 C   0  0  0  0  0  2  0  0  0  0  0  0
  -18.2720  -26.7240   22.2810 C   0  0  0  0  0  2  0  0  0  0  0  0
  -19.2020  -28.8420   23.3840 C   0  0  0  0  0  0  0  0  0  0  0  0
  -18.9770  -30.1040   23.9720 C   0  0  0  0  0  3  0  0  0  0  0  0
  -17.6710  -30.6050   24.1260 C   0  0  0  0  0  3  0  0  0  0  0  0
  -16.5700  -29.8340   23.7110 C   0  0  0  0  0  3  0  0  0  0  0  0
  -16.7800  -28.5700   23.1310 C   0  0  0  0  0  3  0  0  0  0  0  0
  -25.8990  -32.5460   23.9090 C   0  0  0  0  0  3  0  0  0  0  0  0
  -26.4000  -31.7940   25.2010 C   0  0  1  0  0  0  0  0  0  0  0  0
  -25.2940  -31.5660   26.2580 C   0  0  0  0  0  1  0  0  0  0  0  0
  -26.9970  -30.4140   24.8390 C   0  0  0  0  0  1  0  0  0  0  0  0
  -27.5360  -32.6050   25.8730 C   0  0  0  0  0  1  0  0  0  0  0  0
  -25.5730  -33.9450   24.2200 N   0  0  0  0  0  0  0  0  0  0  0  0
  -25.9020  -34.9940   23.4550 C   0  0  0  0  0  0  0  0  0  0  0  0
  -26.5840  -34.8850   22.4320 O   0  0  0  0  0  0  0  0  0  0  0  0
  -24.9730  -34.1020   25.0180 H   0  0  0  0  0  0  0  0  0  0  0  0
  -24.1640  -36.7710   23.0680 C   0  0  0  0  0  1  0  0  0  0  0  0
  -25.4010  -36.3840   23.8940 C   0  0  0  0  0  3  0  0  0  0  0  0
  -27.5220  -37.2960   24.7330 C   0  0  0  0  0  1  0  0  0  0  0  0
  -26.4260  -37.4450   23.7800 N   0  0  0  0  0  0  0  0  0  0  0  0
  -26.0100  -38.3620   23.9150 H   0  0  0  0  0  0  0  0  0  0  0  0
  1 13  1  0
  2  7  1  0
  3  4  1  0
  3  2  1  0
  5  4  1  0
  5 19  1  0
  5  6  1  0
  7  1  1  0
  7  6  1  0
  8  1  2  0
  9 10  2  0
 10 49  1  0
 10 12  1  0
 11 13  1  0
 11 12  2  0
 13 15  1  0
 14  9  1  0
 14 11  1  0
 16 17  2  0
 17 36  1  0
 18 17  1  0
 18 21  1  0
 19 16  1  0
 19 20  1  0
 20 18  2  0
 21 22  1  0
 22 23  2  0
 24 27  1  0
 24 23  1  0
 25 24  2  0
 26 25  1  0
 26 21  2  0
 27 28  1  0
 28 29  1  0
 29 30  2  0
 31 30  1  0
 31 35  1  0
 32 31  2  0
 33 28  2  0
 33 32  1  0
 34 33  1  0
 36 37  1  0
 37 40  1  0
 37 39  1  0
 38 36  2  0
 41 42  1  0
 41 16  1  0
 43 41  1  0
 44 46  2  0
 44  9  1  0
 45 44  1  0
 47 45  1  0
 48 45  1  0
 49 50  1  0
 49 52  2  3
 52 51  1  0
 53 55  1  0
 53 52  1  0
 54 53  2  0
 56 55  1  0
 57 68  2  0
 58 56  1  0
 58 63  1  0
 59 67  1  0
 59 69  1  0
 60 66  1  0
 60 62  1  0
 61 67  1  0
 62 63  2  0
 62 61  1  0
 64 58  2  0
 65 64  1  0
 65 60  2  0
 66 59  1  0
 67 57  1  0
 69 71  2  0
 70 69  1  0
 72 70  1  0
 73 82  2  0
 73 78  1  0
 74 70  1  0
 74 78  1  0
 75 74  1  0
 76 77  1  0
 76 75  1  0
 77 73  1  0
 78 79  2  0
 79 80  1  0
 81 80  2  0
 82 81  1  0
 83 57  1  0
 83 88  1  0
 83 84  1  0
 84 87  1  1
 84 85  1  0
 86 84  1  0
 88 91  1  0
 89 93  1  0
 89 88  1  0
 90 89  2  0
 93 92  1  0
 95 93  1  0
 95 96  1  0
 95 94  1  0
M  ISO  4   1 100  13 100  55 101  56 101
M  END
>  <TORSDO>  (52) 
F 20

>  <SCORE>  (52) 
-14.008

>  <name>  (52) 
51

>  <ligand_id>  (52) 
51

>  <original_smiles>  (52) 
[H]c1c([H])c([H])c2c(c1[H])C([H])([H])C([H])([H])C([H])([H])C2([H])N([H])C(=O)C1([H])N(C(=O)C([H])(N([H])C(=O)C([H])(N([H])C([H])([H])[H])C([H])([H])[H])C(C([H])([H])[H])(C([H])([H])[H])C([H])([H])[H])C([H])([H])c2c([H])c(OC([H])([H])C(=O)C([H])(N([H])c3nc(N([H])C(=O)N4C([H])([H])C([H])([H])C([H])([H])C([H])(n5nc(-c6c([H])c([H])c(Oc7c([H])c([H])c(F)c([H])c7F)c([H])c6[H])c(C(=O)N([H])[H])c5N([H])[H])C4([H])[H])sc3C(=O)N([H])[H])C([H])([H])[H])c([H])c([H])c2C1([H])[H]

>  <smiles>  (52) 
[H]c1c([H])c([H])c2c(c1[H])C([H])([H])C([H])([H])C([H])([H])C2([H])N([H])C(=O)C1([H])N(C(=O)C([H])(N([H])C(=O)C([H])(N([H])C([H])([H])[H])C([H])([H])[H])C(C([H])([H])[H])(C([H])([H])[H])C([H])([H])[H])C([H])([H])c2c([H])c(OC([H])([H])C(=O)C([H])(N([H])c3nc(N([H])C(=O)N4C([H])([H])C([H])([H])C([H])([H])C([H])(n5nc(-c6c([H])c([H])c(Oc7c([H])c([H])c(F)c([H])c7F)c([H])c6[H])c(C(=O)N([H])[H])c5N([H])[H])C4([H])[H])sc3C(=O)N([H])[H])C([H])([H])[H])c([H])c([H])c2C1([H])[H]

$$$$
52:0:0
     RDKit          3D

 94102  0  0  1  0  0  0  0  0999 V2000
  -29.3380  -21.1710   20.8700 C   0  0  0  0  0  0  0  0  0  0  0  0
  -29.1380  -22.3740   20.1860 N   0  0  0  0  0  0  0  0  0  0  0  0
  -29.2330  -21.1450   22.1000 O   0  0  0  0  0  0  0  0  0  0  0  0
  -29.2030  -22.2670   19.1790 H   0  0  0  0  0  0  0  0  0  0  0  0
  -30.6090  -14.8460   20.2710 C   0  0  0  0  0  0  0  0  0  0  0  0
  -30.4080  -12.5450   19.3030 C   0  0  0  0  0  2  0  0  0  0  0  0
  -29.4670  -12.6200   18.0790 C   0  0  0  0  0  2  0  0  0  0  0  0
  -28.0000  -12.4430   18.5180 C   0  0  0  0  0  2  0  0  0  0  0  0
  -27.6280  -13.3290   19.7370 C   0  0  0  0  0  3  0  0  0  0  0  0
  -28.6970  -13.2530   20.8510 C   0  0  0  0  0  2  0  0  0  0  0  0
  -29.9910  -13.6080   20.2530 N   0  0  0  0  0  0  0  0  0  0  0  0
  -31.7830  -14.9400   19.9000 O   0  0  0  0  0  0  0  0  0  0  0  0
  -29.6990  -19.7920   20.1690 C   0  0  0  0  0  0  0  0  0  0  0  0
  -30.3600  -19.6090   18.9570 C   0  0  0  0  0  0  0  0  0  0  0  0
  -30.0160  -17.3910   20.1450 C   0  0  0  0  0  0  0  0  0  0  0  0
  -29.5120  -18.4900   20.7950 N   0  0  0  0  0  0  0  0  0  0  0  0
  -29.8620  -15.9750   20.5790 N   0  0  0  0  0  0  0  0  0  0  0  0
  -30.7460  -17.9060   18.6260 S   0  0  0  0  0  0  0  0  0  0  0  0
  -28.9880  -15.7780   21.0400 H   0  0  0  0  0  0  0  0  0  0  0  0
  -25.2400  -13.9070   20.4840 C   0  0  0  0  0  0  0  0  0  0  0  0
  -24.1800  -13.1300   20.8590 C   0  0  0  0  0  0  0  0  0  0  0  0
  -24.6460  -11.7800   20.8230 C   0  0  0  0  0  0  0  0  0  0  0  0
  -26.2870  -13.0330   20.2380 N   0  0  0  0  0  0  0  0  0  0  0  0
  -25.9350  -11.7470   20.5050 N   0  0  0  0  0  0  0  0  0  0  0  0
  -23.9240  -10.5140   21.0170 C   0  0  0  0  0  0  0  0  0  0  0  0
  -24.3630   -9.5450   21.9460 C   0  0  0  0  0  3  0  0  0  0  0  0
  -23.6380   -8.3480   22.1280 C   0  0  0  0  0  3  0  0  0  0  0  0
  -22.4610   -8.1100   21.3810 C   0  0  0  0  0  0  0  0  0  0  0  0
  -22.0440   -9.0650   20.4400 C   0  0  0  0  0  3  0  0  0  0  0  0
  -22.7680  -10.2550   20.2560 C   0  0  0  0  0  3  0  0  0  0  0  0
  -21.7110   -6.9630   21.4680 O   0  0  0  0  0  0  0  0  0  0  0  0
  -21.6670   -6.2190   22.6200 C   0  0  0  0  0  0  0  0  0  0  0  0
  -21.2330   -6.7680   23.8470 C   0  0  0  0  0  3  0  0  0  0  0  0
  -21.1400   -5.9470   24.9900 C   0  0  0  0  0  3  0  0  0  0  0  0
  -21.4680   -4.5810   24.9060 C   0  0  0  0  0  0  0  0  0  0  0  0
  -21.8920   -4.0330   23.6830 C   0  0  0  0  0  3  0  0  0  0  0  0
  -21.9870   -4.8490   22.5410 C   0  0  0  0  0  0  0  0  0  0  0  0
  -22.3790   -4.3090   21.3620 F   0  0  0  0  0  0  0  0  0  0  0  0
  -21.3700   -3.7940   26.0010 F   0  0  0  0  0  0  0  0  0  0  0  0
  -22.7800  -13.6050   21.1370 C   0  0  0  0  0  0  0  0  0  0  0  0
  -22.0560  -12.9010   22.0010 N   0  0  0  0  0  0  0  0  0  0  0  0
  -22.3390  -14.6320   20.6240 O   0  0  0  0  0  0  0  0  0  0  0  0
  -22.4280  -12.0740   22.4430 H   0  0  0  0  0  0  0  0  0  0  0  0
  -21.1170  -13.1990   22.2270 H   0  0  0  0  0  0  0  0  0  0  0  0
  -25.3980  -15.2780   20.3030 N   0  0  0  0  0  0  0  0  0  0  0  0
  -24.6240  -15.9230   20.4090 H   0  0  0  0  0  0  0  0  0  0  0  0
  -26.2280  -15.7150   19.9260 H   0  0  0  0  0  0  0  0  0  0  0  0
  -30.7930  -20.5440   18.0120 N   0  0  0  0  0  0  0  0  0  0  0  0
  -31.0220  -21.5070   18.2440 H   0  0  0  0  0  0  0  0  0  0  0  0
  -31.3270  -20.2400   17.2010 H   0  0  0  0  0  0  0  0  0  0  0  0
  -28.7890  -23.9840   22.1860 C   0  0  0  0  0  1  0  0  0  0  0  0
  -29.0800  -23.8510   20.6770 C   0  0  0  0  0  3  0  0  0  0  0  0
  -28.1450  -24.9530   19.9320 C   0  0  0  0  0  2  0  0  0  0  0  0
  -28.3010  -26.4280   20.2400 O   0  0  0  0  0  0  0  0  0  0  0  0
  -24.5950  -31.9160   23.2500 C   0  0  0  0  0  0  0  0  0  0  0  0
  -27.1990  -27.3190   20.1750 C   0  0  0  0  0  0  0  0  0  0  0  0
  -23.3920  -30.5270   21.6010 C   0  0  0  0  0  3  0  0  0  0  0  0
  -24.8420  -28.9730   20.1700 C   0  0  0  0  0  0  0  0  0  0  0  0
  -25.9360  -30.8270   21.4310 C   0  0  0  0  0  2  0  0  0  0  0  0
  -26.0130  -29.4450   20.7800 C   0  0  0  0  0  0  0  0  0  0  0  0
  -27.1910  -28.6290   20.7740 C   0  0  0  0  0  3  0  0  0  0  0  0
  -26.0090  -26.9310   19.5220 C   0  0  0  0  0  3  0  0  0  0  0  0
  -24.8470  -27.7250   19.5320 C   0  0  0  0  0  3  0  0  0  0  0  0
  -23.6100  -29.8540   20.2200 C   0  0  0  0  0  2  0  0  0  0  0  0
  -24.6600  -31.1100   22.1510 N   0  0  0  0  0  0  0  0  0  0  0  0
  -23.5110  -32.1900   23.7850 O   0  0  0  0  0  0  0  0  0  0  0  0
  -22.7210  -29.5110   22.5590 C   0  0  0  0  0  0  0  0  0  0  0  0
  -21.3960  -29.3330   22.4310 N   0  0  0  0  0  0  0  0  0  0  0  0
  -23.3950  -28.8840   23.3810 O   0  0  0  0  0  0  0  0  0  0  0  0
  -20.9050  -29.8950   21.7470 H   0  0  0  0  0  0  0  0  0  0  0  0
  -18.0220  -28.1100   22.9110 C   0  0  0  0  0  0  0  0  0  0  0  0
  -20.5770  -28.3920   23.1980 C   0  0  0  0  0  3  0  0  0  0  0  0
  -20.6920  -26.9570   22.6300 C   0  0  0  0  0  2  0  0  0  0  0  0
  -19.6020  -26.6220   21.6080 C   0  0  0  0  0  2  0  0  0  0  0  0
  -18.2140  -26.7610   22.2400 C   0  0  0  0  0  2  0  0  0  0  0  0
  -19.1320  -28.8830   23.3470 C   0  0  0  0  0  0  0  0  0  0  0  0
  -18.8990  -30.1440   23.9370 C   0  0  0  0  0  3  0  0  0  0  0  0
  -17.5890  -30.6360   24.0900 C   0  0  0  0  0  3  0  0  0  0  0  0
  -16.4940  -29.8630   23.6670 C   0  0  0  0  0  3  0  0  0  0  0  0
  -16.7110  -28.6010   23.0860 C   0  0  0  0  0  3  0  0  0  0  0  0
  -25.8770  -32.5470   23.8770 C   0  0  0  0  0  3  0  0  0  0  0  0
  -26.3830  -31.7790   25.1610 C   0  0  1  0  0  0  0  0  0  0  0  0
  -25.2850  -31.5550   26.2260 C   0  0  0  0  0  1  0  0  0  0  0  0
  -26.9600  -30.3950   24.7820 C   0  0  0  0  0  1  0  0  0  0  0  0
  -27.5330  -32.5720   25.8270 C   0  0  0  0  0  1  0  0  0  0  0  0
  -25.5700  -33.9470   24.2020 N   0  0  0  0  0  0  0  0  0  0  0  0
  -25.8990  -34.9990   23.4390 C   0  0  0  0  0  0  0  0  0  0  0  0
  -26.5630  -34.8910   22.4030 O   0  0  0  0  0  0  0  0  0  0  0  0
  -24.9820  -34.1030   25.0080 H   0  0  0  0  0  0  0  0  0  0  0  0
  -24.1740  -36.8000   23.0950 C   0  0  0  0  0  1  0  0  0  0  0  0
  -25.4200  -36.3910   23.8970 C   0  0  0  0  0  3  0  0  0  0  0  0
  -27.5600  -37.2810   24.7090 C   0  0  0  0  0  1  0  0  0  0  0  0
  -26.4530  -37.4410   23.7710 N   0  0  0  0  0  0  0  0  0  0  0  0
  -26.0490  -38.3630   23.9130 H   0  0  0  0  0  0  0  0  0  0  0  0
  1  3  2  0
  2 52  1  0
  2  1  1  0
  4  2  1  0
  5 17  1  0
  6 11  1  0
  7  8  1  0
  7  6  1  0
  9  8  1  0
  9 23  1  0
  9 10  1  0
 11  5  1  0
 11 10  1  0
 12  5  2  0
 13 16  1  0
 13  1  1  0
 14 13  2  0
 15 17  1  0
 15 16  2  0
 17 19  1  0
 18 14  1  0
 18 15  1  0
 20 21  2  0
 21 40  1  0
 22 21  1  0
 22 25  1  0
 23 20  1  0
 23 24  1  0
 24 22  2  0
 25 26  1  0
 26 27  2  0
 28 31  1  0
 28 27  1  0
 29 28  2  0
 30 29  1  0
 30 25  2  0
 31 32  1  0
 32 33  1  0
 33 34  2  0
 35 34  1  0
 35 39  1  0
 36 35  2  0
 37 32  2  0
 37 36  1  0
 38 37  1  0
 40 41  1  0
 41 44  1  0
 41 43  1  0
 42 40  2  0
 45 46  1  0
 45 20  1  0
 47 45  1  0
 48 49  1  0
 48 14  1  0
 50 48  1  0
 52 51  1  0
 53 54  1  0
 53 52  1  0
 55 66  2  0
 56 54  1  0
 56 61  1  0
 57 65  1  0
 57 67  1  0
 58 64  1  0
 58 60  1  0
 59 65  1  0
 60 59  1  0
 61 60  2  0
 62 63  1  0
 62 56  2  0
 63 58  2  0
 64 57  1  0
 65 55  1  0
 67 69  2  0
 68 67  1  0
 70 68  1  0
 71 80  2  0
 71 76  1  0
 72 68  1  0
 72 76  1  0
 73 72  1  0
 74 75  1  0
 74 73  1  0
 75 71  1  0
 76 77  2  0
 77 78  1  0
 79 78  2  0
 80 79  1  0
 81 55  1  0
 81 86  1  0
 81 82  1  0
 82 85  1  1
 82 83  1  0
 84 82  1  0
 86 89  1  0
 87 91  1  0
 87 86  1  0
 88 87  2  0
 91 90  1  0
 93 91  1  0
 93 94  1  0
 93 92  1  0
M  ISO  4   5 100  17 100  53 101  54 101
M  END
>  <TORSDO>  (53) 
F 19

>  <SCORE>  (53) 
-14.541

>  <name>  (53) 
52

>  <ligand_id>  (53) 
52

>  <original_smiles>  (53) 
[H]c1c([H])c([H])c2c(c1[H])C([H])([H])C([H])([H])C([H])([H])C2([H])N([H])C(=O)C1([H])N(C(=O)C([H])(N([H])C(=O)C([H])(N([H])C([H])([H])[H])C([H])([H])[H])C(C([H])([H])[H])(C([H])([H])[H])C([H])([H])[H])C([H])([H])c2c([H])c(OC([H])([H])C([H])(N([H])C(=O)c3nc(N([H])C(=O)N4C([H])([H])C([H])([H])C([H])([H])C([H])(n5nc(-c6c([H])c([H])c(Oc7c([H])c([H])c(F)c([H])c7F)c([H])c6[H])c(C(=O)N([H])[H])c5N([H])[H])C4([H])[H])sc3N([H])[H])C([H])([H])[H])c([H])c([H])c2C1([H])[H]

>  <smiles>  (53) 
[H]c1c([H])c([H])c2c(c1[H])C([H])([H])C([H])([H])C([H])([H])C2([H])N([H])C(=O)C1([H])N(C(=O)C([H])(N([H])C(=O)C([H])(N([H])C([H])([H])[H])C([H])([H])[H])C(C([H])([H])[H])(C([H])([H])[H])C([H])([H])[H])C([H])([H])c2c([H])c(OC([H])([H])C([H])(N([H])C(=O)c3nc(N([H])C(=O)N4C([H])([H])C([H])([H])C([H])([H])C([H])(n5nc(-c6c([H])c([H])c(Oc7c([H])c([H])c(F)c([H])c7F)c([H])c6[H])c(C(=O)N([H])[H])c5N([H])[H])C4([H])[H])sc3N([H])[H])C([H])([H])[H])c([H])c([H])c2C1([H])[H]

$$$$
53:0:0
     RDKit          3D

 93101  0  0  1  0  0  0  0  0999 V2000
  -28.8350  -22.3150   18.2180 C   0  0  0  0  0  1  0  0  0  0  0  0
  -30.8220  -22.8160   19.7580 C   0  0  0  0  0  1  0  0  0  0  0  0
  -29.3300  -22.4120   19.6810 C   0  0  1  0  0  0  0  0  0  0  0  0
  -28.5610  -23.6900   20.3260 C   0  0  0  0  0  0  0  0  0  0  0  0
  -28.0660  -23.5780   21.4520 O   0  0  0  0  0  0  0  0  0  0  0  0
  -28.4340  -25.0860   19.5200 C   0  0  0  0  0  2  0  0  0  0  0  0
  -28.3180  -26.3980   20.2530 O   0  0  0  0  0  0  0  0  0  0  0  0
  -24.6160  -31.8720   23.2300 C   0  0  0  0  0  0  0  0  0  0  0  0
  -27.2010  -27.2640   20.1630 C   0  0  0  0  0  0  0  0  0  0  0  0
  -23.4030  -30.4760   21.5960 C   0  0  0  0  0  3  0  0  0  0  0  0
  -24.8440  -28.9180   20.1610 C   0  0  0  0  0  0  0  0  0  0  0  0
  -25.9460  -30.7750   21.4060 C   0  0  0  0  0  2  0  0  0  0  0  0
  -26.0180  -29.3930   20.7570 C   0  0  0  0  0  0  0  0  0  0  0  0
  -27.1940  -28.5760   20.7510 C   0  0  0  0  0  3  0  0  0  0  0  0
  -25.9980  -26.8520   19.5480 C   0  0  0  0  0  3  0  0  0  0  0  0
  -24.8400  -27.6550   19.5480 C   0  0  0  0  0  3  0  0  0  0  0  0
  -23.6120  -29.7990   20.2150 C   0  0  0  0  0  2  0  0  0  0  0  0
  -24.6750  -31.0600   22.1340 N   0  0  0  0  0  0  0  0  0  0  0  0
  -23.5340  -32.1520   23.7690 O   0  0  0  0  0  0  0  0  0  0  0  0
  -22.7400  -29.4620   22.5600 C   0  0  0  0  0  0  0  0  0  0  0  0
  -21.4130  -29.2870   22.4400 N   0  0  0  0  0  0  0  0  0  0  0  0
  -23.4200  -28.8350   23.3780 O   0  0  0  0  0  0  0  0  0  0  0  0
  -20.9230  -29.8440   21.7530 H   0  0  0  0  0  0  0  0  0  0  0  0
  -18.0360  -28.0930   22.9520 C   0  0  0  0  0  0  0  0  0  0  0  0
  -20.5960  -28.3520   23.2140 C   0  0  0  0  0  3  0  0  0  0  0  0
  -20.6950  -26.9200   22.6430 C   0  0  0  0  0  2  0  0  0  0  0  0
  -19.5910  -26.5960   21.6310 C   0  0  0  0  0  2  0  0  0  0  0  0
  -18.2110  -26.7420   22.2780 C   0  0  0  0  0  2  0  0  0  0  0  0
  -19.1570  -28.8550   23.3780 C   0  0  0  0  0  0  0  0  0  0  0  0
  -18.9390  -30.1190   23.9690 C   0  0  0  0  0  3  0  0  0  0  0  0
  -17.6340  -30.6200   24.1380 C   0  0  0  0  0  3  0  0  0  0  0  0
  -16.5290  -29.8540   23.7280 C   0  0  0  0  0  3  0  0  0  0  0  0
  -16.7310  -28.5930   23.1410 C   0  0  0  0  0  3  0  0  0  0  0  0
  -25.9000  -32.5040   23.8480 C   0  0  0  0  0  3  0  0  0  0  0  0
  -26.4210  -31.7320   25.1230 C   0  0  1  0  0  0  0  0  0  0  0  0
  -25.3320  -31.4990   26.1960 C   0  0  0  0  0  1  0  0  0  0  0  0
  -26.9990  -30.3530   24.7320 C   0  0  0  0  0  1  0  0  0  0  0  0
  -27.5760  -32.5250   25.7800 C   0  0  0  0  0  1  0  0  0  0  0  0
  -25.5930  -33.9030   24.1820 N   0  0  0  0  0  0  0  0  0  0  0  0
  -25.9190  -34.9570   23.4230 C   0  0  0  0  0  0  0  0  0  0  0  0
  -26.5810  -34.8560   22.3870 O   0  0  0  0  0  0  0  0  0  0  0  0
  -25.0050  -34.0550   24.9880 H   0  0  0  0  0  0  0  0  0  0  0  0
  -24.1890  -36.7540   23.0890 C   0  0  0  0  0  1  0  0  0  0  0  0
  -25.4370  -36.3460   23.8890 C   0  0  0  0  0  3  0  0  0  0  0  0
  -27.5780  -37.2290   24.7040 C   0  0  0  0  0  1  0  0  0  0  0  0
  -26.4690  -37.3990   23.7690 N   0  0  0  0  0  0  0  0  0  0  0  0
  -26.0650  -38.3190   23.9210 H   0  0  0  0  0  0  0  0  0  0  0  0
  -29.1600  -21.0310   20.3320 N   0  0  0  0  0  0  0  0  0  0  0  0
  -28.5400  -21.0490   21.1370 H   0  0  0  0  0  0  0  0  0  0  0  0
  -30.5910  -14.7660   20.3530 C   0  0  0  0  0  0  0  0  0  0  0  0
  -30.3900  -12.4780   19.3730 C   0  0  0  0  0  2  0  0  0  0  0  0
  -29.4560  -12.5530   18.1440 C   0  0  0  0  0  2  0  0  0  0  0  0
  -27.9860  -12.3790   18.5720 C   0  0  0  0  0  2  0  0  0  0  0  0
  -27.6110  -13.2660   19.7880 C   0  0  0  0  0  3  0  0  0  0  0  0
  -28.6690  -13.1880   20.9120 C   0  0  0  0  0  2  0  0  0  0  0  0
  -29.9660  -13.5370   20.3220 N   0  0  0  0  0  0  0  0  0  0  0  0
  -31.7700  -14.8450   19.9960 O   0  0  0  0  0  0  0  0  0  0  0  0
  -29.7150  -19.6990   19.9800 C   0  0  0  0  0  0  0  0  0  0  0  0
  -30.6130  -19.3920   18.9690 C   0  0  0  0  0  0  0  0  0  0  0  0
  -30.0490  -17.3060   20.1820 C   0  0  0  0  0  0  0  0  0  0  0  0
  -29.4020  -18.4430   20.6460 N   0  0  0  0  0  0  0  0  0  0  0  0
  -29.8450  -15.9040   20.6380 N   0  0  0  0  0  0  0  0  0  0  0  0
  -31.1290  -20.2700   18.0770 F   0  0  0  0  0  0  0  0  0  0  0  0
  -31.1110  -17.7190   18.8400 S   0  0  0  0  0  0  0  0  0  0  0  0
  -28.9580  -15.7290   21.0850 H   0  0  0  0  0  0  0  0  0  0  0  0
  -25.2230  -13.8520   20.5150 C   0  0  0  0  0  0  0  0  0  0  0  0
  -24.1610  -13.0780   20.8890 C   0  0  0  0  0  0  0  0  0  0  0  0
  -24.6260  -11.7280   20.8620 C   0  0  0  0  0  0  0  0  0  0  0  0
  -26.2690  -12.9750   20.2810 N   0  0  0  0  0  0  0  0  0  0  0  0
  -25.9170  -11.6910   20.5520 N   0  0  0  0  0  0  0  0  0  0  0  0
  -23.9020  -10.4640   21.0560 C   0  0  0  0  0  0  0  0  0  0  0  0
  -24.3430   -9.4940   21.9830 C   0  0  0  0  0  3  0  0  0  0  0  0
  -23.6190   -8.2960   22.1650 C   0  0  0  0  0  3  0  0  0  0  0  0
  -22.4380   -8.0600   21.4220 C   0  0  0  0  0  0  0  0  0  0  0  0
  -22.0160   -9.0190   20.4830 C   0  0  0  0  0  3  0  0  0  0  0  0
  -22.7410  -10.2080   20.2990 C   0  0  0  0  0  3  0  0  0  0  0  0
  -21.6850   -6.9150   21.5130 O   0  0  0  0  0  0  0  0  0  0  0  0
  -21.6570   -6.1610   22.6600 C   0  0  0  0  0  0  0  0  0  0  0  0
  -21.2560   -6.7050   23.8990 C   0  0  0  0  0  3  0  0  0  0  0  0
  -21.1760   -5.8770   25.0370 C   0  0  0  0  0  3  0  0  0  0  0  0
  -21.4860   -4.5090   24.9370 C   0  0  0  0  0  0  0  0  0  0  0  0
  -21.8800   -3.9640   23.7020 C   0  0  0  0  0  3  0  0  0  0  0  0
  -21.9620   -4.7890   22.5660 C   0  0  0  0  0  0  0  0  0  0  0  0
  -22.3220   -4.2540   21.3740 F   0  0  0  0  0  0  0  0  0  0  0  0
  -21.4020   -3.7120   26.0290 F   0  0  0  0  0  0  0  0  0  0  0  0
  -22.7620  -13.5530   21.1590 C   0  0  0  0  0  0  0  0  0  0  0  0
  -22.0350  -12.8560   22.0250 N   0  0  0  0  0  0  0  0  0  0  0  0
  -22.3230  -14.5760   20.6370 O   0  0  0  0  0  0  0  0  0  0  0  0
  -22.4030  -12.0280   22.4690 H   0  0  0  0  0  0  0  0  0  0  0  0
  -21.0960  -13.1570   22.2480 H   0  0  0  0  0  0  0  0  0  0  0  0
  -25.3850  -15.2230   20.3320 N   0  0  0  0  0  0  0  0  0  0  0  0
  -24.6130  -15.8740   20.4340 H   0  0  0  0  0  0  0  0  0  0  0  0
  -26.2250  -15.6620   19.9790 H   0  0  0  0  0  0  0  0  0  0  0  0
  3  1  1  6
  3  2  1  0
  3  4  1  0
  3 48  1  0
  4  5  2  0
  6  7  1  0
  6  4  1  0
  8 19  2  0
  9  7  1  0
  9 14  1  0
 10 18  1  0
 10 20  1  0
 11 17  1  0
 11 13  1  0
 12 18  1  0
 13 12  1  0
 14 13  2  0
 15  9  2  0
 16 15  1  0
 16 11  2  0
 17 10  1  0
 18  8  1  0
 20 22  2  0
 21 20  1  0
 23 21  1  0
 24 33  2  0
 24 29  1  0
 25 21  1  0
 25 29  1  0
 26 25  1  0
 27 28  1  0
 27 26  1  0
 28 24  1  0
 29 30  2  0
 30 31  1  0
 32 31  2  0
 33 32  1  0
 34  8  1  0
 34 39  1  0
 34 35  1  0
 35 38  1  1
 35 36  1  0
 37 35  1  0
 39 42  1  0
 40 44  1  0
 40 39  1  0
 41 40  2  0
 44 43  1  0
 46 44  1  0
 46 47  1  0
 46 45  1  0
 48 49  1  0
 50 62  1  0
 51 56  1  0
 52 53  1  0
 52 51  1  0
 54 53  1  0
 54 69  1  0
 54 55  1  0
 56 50  1  0
 56 55  1  0
 57 50  2  0
 58 48  1  0
 58 61  1  0
 59 58  2  0
 60 62  1  0
 60 61  2  0
 62 65  1  0
 63 59  1  0
 64 59  1  0
 64 60  1  0
 66 67  2  0
 67 86  1  0
 68 67  1  0
 68 71  1  0
 69 66  1  0
 69 70  1  0
 70 68  2  0
 71 72  1  0
 72 73  2  0
 74 77  1  0
 74 73  1  0
 75 74  2  0
 76 75  1  0
 76 71  2  0
 77 78  1  0
 78 79  1  0
 79 80  2  0
 81 80  1  0
 81 85  1  0
 82 81  2  0
 83 78  2  0
 83 82  1  0
 84 83  1  0
 86 87  1  0
 87 90  1  0
 87 89  1  0
 88 86  2  0
 91 92  1  0
 91 66  1  0
 93 91  1  0
M  ISO  4   6 101   7 101  50 100  62 100
M  END
>  <TORSDO>  (54) 
F 19

>  <SCORE>  (54) 
-14.315

>  <name>  (54) 
53

>  <ligand_id>  (54) 
53

>  <original_smiles>  (54) 
[H]c1c([H])c([H])c2c(c1[H])C([H])([H])C([H])([H])C([H])([H])C2([H])N([H])C(=O)C1([H])N(C(=O)C([H])(N([H])C(=O)C([H])(N([H])C([H])([H])[H])C([H])([H])[H])C(C([H])([H])[H])(C([H])([H])[H])C([H])([H])[H])C([H])([H])c2c([H])c(OC([H])([H])C(=O)C(N([H])c3nc(N([H])C(=O)N4C([H])([H])C([H])([H])C([H])([H])C([H])(n5nc(-c6c([H])c([H])c(Oc7c([H])c([H])c(F)c([H])c7F)c([H])c6[H])c(C(=O)N([H])[H])c5N([H])[H])C4([H])[H])sc3F)(C([H])([H])[H])C([H])([H])[H])c([H])c([H])c2C1([H])[H]

>  <smiles>  (54) 
[H]c1c([H])c([H])c2c(c1[H])C([H])([H])C([H])([H])C([H])([H])C2([H])N([H])C(=O)C1([H])N(C(=O)C([H])(N([H])C(=O)C([H])(N([H])C([H])([H])[H])C([H])([H])[H])C(C([H])([H])[H])(C([H])([H])[H])C([H])([H])[H])C([H])([H])c2c([H])c(OC([H])([H])C(=O)C(N([H])c3nc(N([H])C(=O)N4C([H])([H])C([H])([H])C([H])([H])C([H])(n5nc(-c6c([H])c([H])c(Oc7c([H])c([H])c(F)c([H])c7F)c([H])c6[H])c(C(=O)N([H])[H])c5N([H])[H])C4([H])[H])sc3F)(C([H])([H])[H])C([H])([H])[H])c([H])c([H])c2C1([H])[H]

$$$$
54:0:0
     RDKit          3D

 92100  0  0  1  0  0  0  0  0999 V2000
  -28.8010  -22.1550   20.3760 C   0  0  0  0  0  0  0  0  0  0  0  0
  -29.8550  -21.2760   20.5410 N   0  0  0  0  0  0  0  0  0  0  0  0
  -27.6570  -21.7610   20.1360 O   0  0  0  0  0  0  0  0  0  0  0  0
  -30.7060  -21.8050   20.6840 H   0  0  0  0  0  0  0  0  0  0  0  0
  -30.5860  -14.8240   20.3440 C   0  0  0  0  0  0  0  0  0  0  0  0
  -30.3750  -12.5380   19.3470 C   0  0  0  0  0  2  0  0  0  0  0  0
  -29.4300  -12.5840   18.1260 C   0  0  0  0  0  2  0  0  0  0  0  0
  -27.9670  -12.4010   18.5690 C   0  0  0  0  0  2  0  0  0  0  0  0
  -27.5920  -13.3010   19.7770 C   0  0  0  0  0  3  0  0  0  0  0  0
  -28.6590  -13.2460   20.8920 C   0  0  0  0  0  2  0  0  0  0  0  0
  -29.9440  -13.6040   20.2820 N   0  0  0  0  0  0  0  0  0  0  0  0
  -31.7790  -14.8740   20.0280 O   0  0  0  0  0  0  0  0  0  0  0  0
  -30.1720  -19.8180   20.5380 C   0  0  0  0  0  0  0  0  0  0  0  0
  -31.5140  -19.5570   20.6390 C   0  0  0  0  0  0  0  0  0  0  0  0
  -30.2630  -17.4170   20.5350 C   0  0  0  0  0  0  0  0  0  0  0  0
  -29.4470  -18.5510   20.4880 N   0  0  0  0  0  0  0  0  0  0  0  0
  -29.8350  -15.9870   20.5260 N   0  0  0  0  0  0  0  0  0  0  0  0
  -32.4520  -20.5330   20.7260 F   0  0  0  0  0  0  0  0  0  0  0  0
  -31.9690  -17.8760   20.6610 S   0  0  0  0  0  0  0  0  0  0  0  0
  -28.8480  -15.8360   20.6540 H   0  0  0  0  0  0  0  0  0  0  0  0
  -25.2110  -13.8800   20.5290 C   0  0  0  0  0  0  0  0  0  0  0  0
  -24.1520  -13.1010   20.9060 C   0  0  0  0  0  0  0  0  0  0  0  0
  -24.6200  -11.7520   20.8690 C   0  0  0  0  0  0  0  0  0  0  0  0
  -26.2550  -13.0050   20.2810 N   0  0  0  0  0  0  0  0  0  0  0  0
  -25.9090  -11.7200   20.5500 N   0  0  0  0  0  0  0  0  0  0  0  0
  -23.8990  -10.4870   21.0590 C   0  0  0  0  0  0  0  0  0  0  0  0
  -24.3440   -9.5140   21.9820 C   0  0  0  0  0  3  0  0  0  0  0  0
  -23.6230   -8.3140   22.1620 C   0  0  0  0  0  3  0  0  0  0  0  0
  -22.4410   -8.0790   21.4180 C   0  0  0  0  0  0  0  0  0  0  0  0
  -22.0150   -9.0410   20.4860 C   0  0  0  0  0  3  0  0  0  0  0  0
  -22.7380  -10.2320   20.3040 C   0  0  0  0  0  3  0  0  0  0  0  0
  -21.6890   -6.9320   21.5090 O   0  0  0  0  0  0  0  0  0  0  0  0
  -21.6570   -6.1810   22.6560 C   0  0  0  0  0  0  0  0  0  0  0  0
  -21.2330   -6.7210   23.8900 C   0  0  0  0  0  3  0  0  0  0  0  0
  -21.1500   -5.8950   25.0290 C   0  0  0  0  0  3  0  0  0  0  0  0
  -21.4800   -4.5290   24.9340 C   0  0  0  0  0  0  0  0  0  0  0  0
  -21.8980   -3.9890   23.7050 C   0  0  0  0  0  3  0  0  0  0  0  0
  -21.9830   -4.8120   22.5690 C   0  0  0  0  0  0  0  0  0  0  0  0
  -22.3650   -4.2810   21.3830 F   0  0  0  0  0  0  0  0  0  0  0  0
  -21.3940   -3.7340   26.0260 F   0  0  0  0  0  0  0  0  0  0  0  0
  -22.7540  -13.5730   21.1860 C   0  0  0  0  0  0  0  0  0  0  0  0
  -22.0350  -12.8750   22.0570 N   0  0  0  0  0  0  0  0  0  0  0  0
  -22.3100  -14.5970   20.6680 O   0  0  0  0  0  0  0  0  0  0  0  0
  -22.4080  -12.0470   22.4970 H   0  0  0  0  0  0  0  0  0  0  0  0
  -21.0990  -13.1730   22.2890 H   0  0  0  0  0  0  0  0  0  0  0  0
  -25.3690  -15.2520   20.3510 N   0  0  0  0  0  0  0  0  0  0  0  0
  -24.5950  -15.8980   20.4660 H   0  0  0  0  0  0  0  0  0  0  0  0
  -26.1970  -15.6930   19.9760 H   0  0  0  0  0  0  0  0  0  0  0  0
  -29.0970  -23.7430   20.5240 C   0  0  0  0  0  3  0  0  0  0  0  0
  -30.2720  -23.9860   19.9370 F   0  0  0  0  0  0  0  0  0  0  0  0
  -28.0500  -24.8990   20.0480 C   0  0  0  0  0  2  0  0  0  0  0  0
  -28.2850  -26.3840   20.2820 O   0  0  0  0  0  0  0  0  0  0  0  0
  -24.6260  -31.9150   23.2730 C   0  0  0  0  0  0  0  0  0  0  0  0
  -27.1990  -27.2970   20.2090 C   0  0  0  0  0  0  0  0  0  0  0  0
  -23.4160  -30.5330   21.6260 C   0  0  0  0  0  3  0  0  0  0  0  0
  -24.8580  -28.9750   20.1920 C   0  0  0  0  0  0  0  0  0  0  0  0
  -25.9630  -30.8190   21.4520 C   0  0  0  0  0  2  0  0  0  0  0  0
  -26.0330  -29.4390   20.7960 C   0  0  0  0  0  0  0  0  0  0  0  0
  -27.2060  -28.6130   20.7910 C   0  0  0  0  0  3  0  0  0  0  0  0
  -26.0010  -26.9110   19.5660 C   0  0  0  0  0  3  0  0  0  0  0  0
  -24.8480  -27.7210   19.5650 C   0  0  0  0  0  3  0  0  0  0  0  0
  -23.6290  -29.8630   20.2430 C   0  0  0  0  0  2  0  0  0  0  0  0
  -24.6880  -31.1090   22.1730 N   0  0  0  0  0  0  0  0  0  0  0  0
  -23.5420  -32.1970   23.8070 O   0  0  0  0  0  0  0  0  0  0  0  0
  -22.7430  -29.5180   22.5810 C   0  0  0  0  0  0  0  0  0  0  0  0
  -21.4150  -29.3500   22.4530 N   0  0  0  0  0  0  0  0  0  0  0  0
  -23.4150  -28.8840   23.3980 O   0  0  0  0  0  0  0  0  0  0  0  0
  -20.9310  -29.9120   21.7680 H   0  0  0  0  0  0  0  0  0  0  0  0
  -18.0280  -28.1720   22.9510 C   0  0  0  0  0  0  0  0  0  0  0  0
  -20.5890  -28.4150   23.2200 C   0  0  0  0  0  3  0  0  0  0  0  0
  -20.6810  -26.9860   22.6370 C   0  0  0  0  0  2  0  0  0  0  0  0
  -19.5770  -26.6740   21.6220 C   0  0  0  0  0  2  0  0  0  0  0  0
  -18.1970  -26.8250   22.2680 C   0  0  0  0  0  2  0  0  0  0  0  0
  -19.1520  -28.9250   23.3840 C   0  0  0  0  0  0  0  0  0  0  0  0
  -18.9410  -30.1860   23.9820 C   0  0  0  0  0  3  0  0  0  0  0  0
  -17.6390  -30.6940   24.1530 C   0  0  0  0  0  3  0  0  0  0  0  0
  -16.5300  -29.9370   23.7360 C   0  0  0  0  0  3  0  0  0  0  0  0
  -16.7260  -28.6790   23.1390 C   0  0  0  0  0  3  0  0  0  0  0  0
  -25.9100  -32.5400   23.9000 C   0  0  0  0  0  3  0  0  0  0  0  0
  -25.6080  -33.9400   24.2320 N   0  0  0  0  0  0  0  0  0  0  0  0
  -25.9340  -34.9920   23.4720 C   0  0  0  0  0  0  0  0  0  0  0  0
  -26.5910  -34.8880   22.4310 O   0  0  0  0  0  0  0  0  0  0  0  0
  -25.0250  -34.0950   25.0420 H   0  0  0  0  0  0  0  0  0  0  0  0
  -24.2030  -36.7900   23.1500 C   0  0  0  0  0  1  0  0  0  0  0  0
  -25.4590  -36.3830   23.9370 C   0  0  0  0  0  3  0  0  0  0  0  0
  -27.6080  -37.2680   24.7280 C   0  0  0  0  0  1  0  0  0  0  0  0
  -26.4910  -37.4340   23.8020 N   0  0  0  0  0  0  0  0  0  0  0  0
  -26.0890  -38.3550   23.9540 H   0  0  0  0  0  0  0  0  0  0  0  0
  -26.4160  -31.7640   25.1770 C   0  0  1  0  0  0  0  0  0  0  0  0
  -25.3180  -31.5340   26.2420 C   0  0  0  0  0  1  0  0  0  0  0  0
  -26.9910  -30.3830   24.7890 C   0  0  0  0  0  1  0  0  0  0  0  0
  -27.5690  -32.5500   25.8450 C   0  0  0  0  0  1  0  0  0  0  0  0
  1 49  1  0
  1  2  1  0
  2  4  1  0
  3  1  2  0
  5 17  1  0
  6 11  1  0
  7  8  1  0
  7  6  1  0
  9  8  1  0
  9 24  1  0
  9 10  1  0
 11  5  1  0
 11 10  1  0
 12  5  2  0
 13  2  1  0
 13 14  2  0
 14 19  1  0
 14 18  1  0
 15 19  1  0
 16 15  2  0
 16 13  1  0
 17 15  1  0
 17 20  1  0
 21 22  2  0
 22 41  1  0
 23 22  1  0
 23 26  1  0
 24 21  1  0
 24 25  1  0
 25 23  2  0
 26 27  1  0
 27 28  2  0
 29 32  1  0
 29 28  1  0
 30 29  2  0
 31 30  1  0
 31 26  2  0
 32 33  1  0
 33 34  1  0
 34 35  2  0
 36 35  1  0
 36 40  1  0
 37 36  2  0
 38 33  2  0
 38 37  1  0
 39 38  1  0
 41 42  1  0
 42 45  1  0
 42 44  1  0
 43 41  2  0
 46 47  1  0
 46 21  1  0
 48 46  1  0
 49 50  1  0
 51 52  1  0
 51 49  1  0
 53 64  2  0
 54 52  1  0
 54 59  1  0
 55 63  1  0
 55 65  1  0
 56 62  1  0
 56 58  1  0
 57 63  1  0
 58 57  1  0
 59 58  2  0
 60 54  2  0
 61 60  1  0
 61 56  2  0
 62 55  1  0
 63 53  1  0
 65 67  2  0
 66 65  1  0
 68 66  1  0
 69 78  2  0
 69 74  1  0
 70 66  1  0
 70 74  1  0
 71 70  1  0
 72 73  1  0
 72 71  1  0
 73 69  1  0
 74 75  2  0
 75 76  1  0
 77 76  2  0
 78 77  1  0
 79 53  1  0
 79 80  1  0
 79 89  1  0
 80 83  1  0
 81 85  1  0
 81 80  1  0
 82 81  2  0
 85 84  1  0
 87 85  1  0
 87 88  1  0
 87 86  1  0
 89 92  1  1
 89 90  1  0
 91 89  1  0
M  ISO  4   5 100  17 100  51 101  52 101
M  END
>  <TORSDO>  (55) 
F 18

>  <SCORE>  (55) 
-14.786

>  <name>  (55) 
54

>  <ligand_id>  (55) 
54

>  <original_smiles>  (55) 
[H]c1c([H])c([H])c2c(c1[H])C([H])([H])C([H])([H])C([H])([H])C2([H])N([H])C(=O)C1([H])N(C(=O)C([H])(N([H])C(=O)C([H])(N([H])C([H])([H])[H])C([H])([H])[H])C(C([H])([H])[H])(C([H])([H])[H])C([H])([H])[H])C([H])([H])c2c([H])c(OC([H])([H])C([H])(F)C(=O)N([H])c3nc(N([H])C(=O)N4C([H])([H])C([H])([H])C([H])([H])C([H])(n5nc(-c6c([H])c([H])c(Oc7c([H])c([H])c(F)c([H])c7F)c([H])c6[H])c(C(=O)N([H])[H])c5N([H])[H])C4([H])[H])sc3F)c([H])c([H])c2C1([H])[H]

>  <smiles>  (55) 
[H]c1c([H])c([H])c2c(c1[H])C([H])([H])C([H])([H])C([H])([H])C2([H])N([H])C(=O)C1([H])N(C(=O)C([H])(N([H])C(=O)C([H])(N([H])C([H])([H])[H])C([H])([H])[H])C(C([H])([H])[H])(C([H])([H])[H])C([H])([H])[H])C([H])([H])c2c([H])c(OC([H])([H])C([H])(F)C(=O)N([H])c3nc(N([H])C(=O)N4C([H])([H])C([H])([H])C([H])([H])C([H])(n5nc(-c6c([H])c([H])c(Oc7c([H])c([H])c(F)c([H])c7F)c([H])c6[H])c(C(=O)N([H])[H])c5N([H])[H])C4([H])[H])sc3F)c([H])c([H])c2C1([H])[H]

$$$$
55:0:0
     RDKit          3D

 94102  0  0  1  0  0  0  0  0999 V2000
  -28.9910  -22.7510   20.0800 C   0  0  0  0  0  0  0  0  0  0  0  0
  -28.8940  -21.4040   20.4820 N   0  0  0  0  0  0  0  0  0  0  0  0
  -29.6230  -23.0900   19.0780 O   0  0  0  0  0  0  0  0  0  0  0  0
  -28.2560  -21.3900   21.2700 H   0  0  0  0  0  0  0  0  0  0  0  0
  -30.6290  -14.9040   19.9480 C   0  0  0  0  0  0  0  0  0  0  0  0
  -30.4160  -12.6090   18.9410 C   0  0  0  0  0  2  0  0  0  0  0  0
  -29.4010  -12.6690   17.7770 C   0  0  0  0  0  2  0  0  0  0  0  0
  -27.9630  -12.4690   18.2920 C   0  0  0  0  0  2  0  0  0  0  0  0
  -27.6550  -13.3390   19.5410 C   0  0  0  0  0  3  0  0  0  0  0  0
  -28.7850  -13.2560   20.5920 C   0  0  0  0  0  2  0  0  0  0  0  0
  -30.0380  -13.6510   19.9310 N   0  0  0  0  0  0  0  0  0  0  0  0
  -31.7770  -15.0270   19.5090 O   0  0  0  0  0  0  0  0  0  0  0  0
  -30.4000  -19.6380   19.3170 C   0  0  0  0  0  0  0  0  0  0  0  0
  -29.3980  -20.1130   20.1640 C   0  0  0  0  0  0  0  0  0  0  0  0
  -29.8760  -17.4860   20.1660 C   0  0  0  0  0  0  0  0  0  0  0  0
  -31.2370  -20.4820   18.4020 C   0  0  0  0  0  1  0  0  0  0  0  0
  -30.6520  -18.2160   19.3360 N   0  0  0  0  0  0  0  0  0  0  0  0
  -29.8470  -15.9920   20.3400 N   0  0  0  0  0  0  0  0  0  0  0  0
  -28.7540  -18.6420   20.9850 S   0  0  0  0  0  0  0  0  0  0  0  0
  -29.0100  -15.6770   20.8040 H   0  0  0  0  0  0  0  0  0  0  0  0
  -25.3160  -13.8990   20.4340 C   0  0  0  0  0  0  0  0  0  0  0  0
  -24.2780  -13.1110   20.8530 C   0  0  0  0  0  0  0  0  0  0  0  0
  -24.7410  -11.7640   20.7540 C   0  0  0  0  0  0  0  0  0  0  0  0
  -26.3460  -13.0310   20.1090 N   0  0  0  0  0  0  0  0  0  0  0  0
  -26.0100  -11.7390   20.3620 N   0  0  0  0  0  0  0  0  0  0  0  0
  -24.0300  -10.4940   20.9550 C   0  0  0  0  0  0  0  0  0  0  0  0
  -24.4880   -9.5280   21.8780 C   0  0  0  0  0  3  0  0  0  0  0  0
  -23.7760   -8.3240   22.0670 C   0  0  0  0  0  3  0  0  0  0  0  0
  -22.5910   -8.0770   21.3350 C   0  0  0  0  0  0  0  0  0  0  0  0
  -22.1520   -9.0310   20.3990 C   0  0  0  0  0  3  0  0  0  0  0  0
  -22.8640  -10.2270   20.2080 C   0  0  0  0  0  3  0  0  0  0  0  0
  -21.8480   -6.9260   21.4350 O   0  0  0  0  0  0  0  0  0  0  0  0
  -21.7880   -6.2070   22.6030 C   0  0  0  0  0  0  0  0  0  0  0  0
  -21.3040   -6.7720   23.8020 C   0  0  0  0  0  3  0  0  0  0  0  0
  -21.1950   -5.9770   24.9610 C   0  0  0  0  0  3  0  0  0  0  0  0
  -21.5590   -4.6180   24.9200 C   0  0  0  0  0  0  0  0  0  0  0  0
  -22.0360   -4.0530   23.7250 C   0  0  0  0  0  3  0  0  0  0  0  0
  -22.1470   -4.8440   22.5680 C   0  0  0  0  0  0  0  0  0  0  0  0
  -22.5880   -4.2890   21.4150 F   0  0  0  0  0  0  0  0  0  0  0  0
  -21.4480   -3.8530   26.0320 F   0  0  0  0  0  0  0  0  0  0  0  0
  -22.9000  -13.5760   21.2280 C   0  0  0  0  0  0  0  0  0  0  0  0
  -22.2280  -12.8500   22.1130 N   0  0  0  0  0  0  0  0  0  0  0  0
  -22.4320  -14.6190   20.7700 O   0  0  0  0  0  0  0  0  0  0  0  0
  -22.6210  -12.0080   22.5050 H   0  0  0  0  0  0  0  0  0  0  0  0
  -21.3040  -13.1400   22.4020 H   0  0  0  0  0  0  0  0  0  0  0  0
  -25.4670  -15.2730   20.2790 N   0  0  0  0  0  0  0  0  0  0  0  0
  -24.6970  -15.9170   20.4250 H   0  0  0  0  0  0  0  0  0  0  0  0
  -26.2750  -15.7140   19.8590 H   0  0  0  0  0  0  0  0  0  0  0  0
  -28.2410  -23.7080   21.0050 C   0  0  0  0  0  0  0  0  0  0  0  0
  -28.0190  -25.1140   21.1070 C   0  0  0  0  0  0  0  0  0  0  0  0
  -27.2510  -25.5870   22.3630 C   0  0  0  0  0  1  0  0  0  0  0  0
  -27.6310  -23.0090   21.9830 O   0  0  0  0  0  0  0  0  0  0  0  0
  -27.1810  -23.6440   22.5250 H   0  0  0  0  0  0  0  0  0  0  0  0
  -28.3530  -26.2890   20.3270 O   0  0  0  0  0  0  0  0  0  0  0  0
  -24.6460  -31.8950   23.2030 C   0  0  0  0  0  0  0  0  0  0  0  0
  -27.3490  -27.3000   20.1810 C   0  0  0  0  0  0  0  0  0  0  0  0
  -23.4950  -30.4930   21.5310 C   0  0  0  0  0  3  0  0  0  0  0  0
  -24.9930  -28.9620   20.1170 C   0  0  0  0  0  0  0  0  0  0  0  0
  -26.0410  -30.8160   21.4110 C   0  0  0  0  0  2  0  0  0  0  0  0
  -26.1520  -29.4380   20.7470 C   0  0  0  0  0  0  0  0  0  0  0  0
  -27.3370  -28.6210   20.7650 C   0  0  0  0  0  3  0  0  0  0  0  0
  -26.1740  -26.9120   19.5050 C   0  0  0  0  0  3  0  0  0  0  0  0
  -25.0130  -27.7120   19.4800 C   0  0  0  0  0  3  0  0  0  0  0  0
  -23.7470  -29.8290   20.1520 C   0  0  0  0  0  2  0  0  0  0  0  0
  -24.7450  -31.0870   22.1050 N   0  0  0  0  0  0  0  0  0  0  0  0
  -23.5460  -32.1620   23.7120 O   0  0  0  0  0  0  0  0  0  0  0  0
  -22.8140  -29.4700   22.4740 C   0  0  0  0  0  0  0  0  0  0  0  0
  -21.4880  -29.2990   22.3320 N   0  0  0  0  0  0  0  0  0  0  0  0
  -23.4800  -28.8350   23.2960 O   0  0  0  0  0  0  0  0  0  0  0  0
  -21.0110  -29.8670   21.6450 H   0  0  0  0  0  0  0  0  0  0  0  0
  -18.0990  -28.0990   22.7890 C   0  0  0  0  0  0  0  0  0  0  0  0
  -20.6570  -28.3520   23.0800 C   0  0  0  0  0  3  0  0  0  0  0  0
  -20.7600  -26.9290   22.4860 C   0  0  0  0  0  2  0  0  0  0  0  0
  -19.6660  -26.6230   21.4570 C   0  0  0  0  0  2  0  0  0  0  0  0
  -18.2800  -26.7600   22.0930 C   0  0  0  0  0  2  0  0  0  0  0  0
  -19.2160  -28.8540   23.2380 C   0  0  0  0  0  0  0  0  0  0  0  0
  -18.9950  -30.1060   23.8500 C   0  0  0  0  0  3  0  0  0  0  0  0
  -17.6900  -30.6050   24.0160 C   0  0  0  0  0  3  0  0  0  0  0  0
  -16.5880  -29.8480   23.5830 C   0  0  0  0  0  3  0  0  0  0  0  0
  -16.7930  -28.5960   22.9760 C   0  0  0  0  0  3  0  0  0  0  0  0
  -25.9040  -32.5410   23.8590 C   0  0  0  0  0  3  0  0  0  0  0  0
  -25.5740  -33.9390   24.1730 N   0  0  0  0  0  0  0  0  0  0  0  0
  -25.9160  -34.9940   23.4210 C   0  0  0  0  0  0  0  0  0  0  0  0
  -26.6090  -34.8930   22.4050 O   0  0  0  0  0  0  0  0  0  0  0  0
  -24.9550  -34.0910   24.9570 H   0  0  0  0  0  0  0  0  0  0  0  0
  -24.1860  -36.7790   23.0250 C   0  0  0  0  0  1  0  0  0  0  0  0
  -25.4110  -36.3820   23.8630 C   0  0  0  0  0  3  0  0  0  0  0  0
  -27.5180  -37.2840   24.7450 C   0  0  0  0  0  1  0  0  0  0  0  0
  -26.4410  -37.4410   23.7710 N   0  0  0  0  0  0  0  0  0  0  0  0
  -26.0280  -38.3600   23.9050 H   0  0  0  0  0  0  0  0  0  0  0  0
  -26.3850  -31.7830   25.1580 C   0  0  1  0  0  0  0  0  0  0  0  0
  -25.2600  -31.5490   26.1950 C   0  0  0  0  0  1  0  0  0  0  0  0
  -26.9840  -30.4030   24.8000 C   0  0  0  0  0  1  0  0  0  0  0  0
  -27.5090  -32.5900   25.8510 C   0  0  0  0  0  1  0  0  0  0  0  0
  1  2  1  0
  1 49  1  0
  2  4  1  0
  3  1  2  0
  5 18  1  0
  6 11  1  0
  7  8  1  0
  7  6  1  0
  9  8  1  0
  9 24  1  0
  9 10  1  0
 11  5  1  0
 11 10  1  0
 12  5  2  0
 13 17  1  0
 13 14  2  0
 14  2  1  0
 14 19  1  0
 15 18  1  0
 15 19  1  0
 16 13  1  0
 17 15  2  0
 18 20  1  0
 21 22  2  0
 22 41  1  0
 23 22  1  0
 23 26  1  0
 24 25  1  0
 24 21  1  0
 25 23  2  0
 26 27  1  0
 27 28  2  0
 29 32  1  0
 29 28  1  0
 30 29  2  0
 31 30  1  0
 31 26  2  0
 32 33  1  0
 33 34  1  0
 34 35  2  0
 36 35  1  0
 36 40  1  0
 37 36  2  0
 38 33  2  0
 38 37  1  0
 39 38  1  0
 41 42  1  0
 42 45  1  0
 42 44  1  0
 43 41  2  0
 46 47  1  0
 46 21  1  0
 48 46  1  0
 49 50  2  0
 49 52  1  0
 50 51  1  0
 52 53  1  0
 54 50  1  0
 55 66  2  0
 56 54  1  0
 56 61  1  0
 57 65  1  0
 57 67  1  0
 58 64  1  0
 58 60  1  0
 59 65  1  0
 60 61  2  0
 60 59  1  0
 62 56  2  0
 63 62  1  0
 63 58  2  0
 64 57  1  0
 65 55  1  0
 67 69  2  0
 68 67  1  0
 70 68  1  0
 71 80  2  0
 71 76  1  0
 72 68  1  0
 72 76  1  0
 73 72  1  0
 74 75  1  0
 74 73  1  0
 75 71  1  0
 76 77  2  0
 77 78  1  0
 79 78  2  0
 80 79  1  0
 81 55  1  0
 81 82  1  0
 81 91  1  0
 82 85  1  0
 83 87  1  0
 83 82  1  0
 84 83  2  0
 87 86  1  0
 89 87  1  0
 89 90  1  0
 89 88  1  0
 91 94  1  1
 91 92  1  0
 93 91  1  0
M  ISO  4   5 100  18 100  50 101  54 101
M  END
>  <TORSDO>  (56) 
F 18

>  <SCORE>  (56) 
-14.615

>  <name>  (56) 
55

>  <ligand_id>  (56) 
55

>  <original_smiles>  (56) 
[H]OC(C(=O)N([H])c1sc(N([H])C(=O)N2C([H])([H])C([H])([H])C([H])([H])C([H])(n3nc(-c4c([H])c([H])c(Oc5c([H])c([H])c(F)c([H])c5F)c([H])c4[H])c(C(=O)N([H])[H])c3N([H])[H])C2([H])[H])nc1C([H])([H])[H])=C(Oc1c([H])c([H])c2c(c1[H])C([H])([H])N(C(=O)C([H])(N([H])C(=O)C([H])(N([H])C([H])([H])[H])C([H])([H])[H])C(C([H])([H])[H])(C([H])([H])[H])C([H])([H])[H])C([H])(C(=O)N([H])C1([H])c3c([H])c([H])c([H])c([H])c3C([H])([H])C([H])([H])C1([H])[H])C2([H])[H])C([H])([H])[H]

>  <smiles>  (56) 
[H]OC(C(=O)N([H])c1sc(N([H])C(=O)N2C([H])([H])C([H])([H])C([H])([H])C([H])(n3nc(-c4c([H])c([H])c(Oc5c([H])c([H])c(F)c([H])c5F)c([H])c4[H])c(C(=O)N([H])[H])c3N([H])[H])C2([H])[H])nc1C([H])([H])[H])=C(Oc1c([H])c([H])c2c(c1[H])C([H])([H])N(C(=O)C([H])(N([H])C(=O)C([H])(N([H])C([H])([H])[H])C([H])([H])[H])C(C([H])([H])[H])(C([H])([H])[H])C([H])([H])[H])C([H])(C(=O)N([H])C1([H])c3c([H])c([H])c([H])c([H])c3C([H])([H])C([H])([H])C1([H])[H])C2([H])[H])C([H])([H])[H]

$$$$
56:0:0
     RDKit          3D

 96104  0  0  1  0  0  0  0  0999 V2000
  -29.0100  -21.0360   20.1620 N   0  0  0  0  0  0  0  0  0  0  0  0
  -28.0260  -20.8270   20.3150 H   0  0  0  0  0  0  0  0  0  0  0  0
  -30.5660  -14.8180   20.2860 C   0  0  0  0  0  0  0  0  0  0  0  0
  -30.3380  -12.5380   19.2860 C   0  0  0  0  0  2  0  0  0  0  0  0
  -29.3880  -12.6230   18.0710 C   0  0  0  0  0  2  0  0  0  0  0  0
  -27.9230  -12.4530   18.5140 C   0  0  0  0  0  2  0  0  0  0  0  0
  -27.5680  -13.3170   19.7530 C   0  0  0  0  0  3  0  0  0  0  0  0
  -28.6440  -13.2290   20.8590 C   0  0  0  0  0  2  0  0  0  0  0  0
  -29.9290  -13.5940   20.2460 N   0  0  0  0  0  0  0  0  0  0  0  0
  -31.7510  -14.8800   19.9450 O   0  0  0  0  0  0  0  0  0  0  0  0
  -30.9060  -19.5800   19.2280 C   0  0  0  0  0  0  0  0  0  0  0  0
  -29.7720  -19.7820   20.0040 C   0  0  0  0  0  0  0  0  0  0  0  0
  -30.1110  -17.3960   20.2060 C   0  0  0  0  0  0  0  0  0  0  0  0
  -29.3280  -18.4920   20.5070 N   0  0  0  0  0  0  0  0  0  0  0  0
  -29.8160  -15.9700   20.5270 N   0  0  0  0  0  0  0  0  0  0  0  0
  -31.5040  -17.9180   19.2800 S   0  0  0  0  0  0  0  0  0  0  0  0
  -28.8820  -15.8000   20.8600 H   0  0  0  0  0  0  0  0  0  0  0  0
  -25.2020  -13.8950   20.5380 C   0  0  0  0  0  0  0  0  0  0  0  0
  -24.1420  -13.1200   20.9170 C   0  0  0  0  0  0  0  0  0  0  0  0
  -24.5990  -11.7670   20.8550 C   0  0  0  0  0  0  0  0  0  0  0  0
  -26.2360  -13.0180   20.2660 N   0  0  0  0  0  0  0  0  0  0  0  0
  -25.8840  -11.7310   20.5170 N   0  0  0  0  0  0  0  0  0  0  0  0
  -23.8700  -10.5060   21.0410 C   0  0  0  0  0  0  0  0  0  0  0  0
  -24.3010   -9.5350   21.9730 C   0  0  0  0  0  3  0  0  0  0  0  0
  -23.5740   -8.3390   22.1470 C   0  0  0  0  0  3  0  0  0  0  0  0
  -22.4030   -8.1030   21.3880 C   0  0  0  0  0  0  0  0  0  0  0  0
  -21.9900   -9.0610   20.4470 C   0  0  0  0  0  3  0  0  0  0  0  0
  -22.7170  -10.2510   20.2720 C   0  0  0  0  0  3  0  0  0  0  0  0
  -21.6480   -6.9570   21.4710 O   0  0  0  0  0  0  0  0  0  0  0  0
  -21.5820   -6.2210   22.6270 C   0  0  0  0  0  0  0  0  0  0  0  0
  -21.0990   -6.7690   23.8330 C   0  0  0  0  0  3  0  0  0  0  0  0
  -20.9840   -5.9580   24.9790 C   0  0  0  0  0  3  0  0  0  0  0  0
  -21.3410   -4.5980   24.9190 C   0  0  0  0  0  0  0  0  0  0  0  0
  -21.8140   -4.0470   23.7160 C   0  0  0  0  0  3  0  0  0  0  0  0
  -21.9330   -4.8560   22.5720 C   0  0  0  0  0  0  0  0  0  0  0  0
  -22.3710   -4.3160   21.4100 F   0  0  0  0  0  0  0  0  0  0  0  0
  -21.2210   -3.8170   26.0190 F   0  0  0  0  0  0  0  0  0  0  0  0
  -22.7510  -13.5970   21.2210 C   0  0  0  0  0  0  0  0  0  0  0  0
  -22.0350  -12.8820   22.0810 N   0  0  0  0  0  0  0  0  0  0  0  0
  -22.3120  -14.6380   20.7330 O   0  0  0  0  0  0  0  0  0  0  0  0
  -22.4090  -12.0430   22.4980 H   0  0  0  0  0  0  0  0  0  0  0  0
  -21.1010  -13.1760   22.3270 H   0  0  0  0  0  0  0  0  0  0  0  0
  -25.3690  -15.2680   20.3800 N   0  0  0  0  0  0  0  0  0  0  0  0
  -24.6030  -15.9230   20.4950 H   0  0  0  0  0  0  0  0  0  0  0  0
  -26.2030  -15.7060   20.0110 H   0  0  0  0  0  0  0  0  0  0  0  0
  -31.6480  -20.5060   18.3100 C   0  0  1  0  0  0  0  0  0  0  0  0
  -30.8970  -21.5110   17.8630 F   0  0  0  0  0  0  0  0  0  0  0  0
  -32.7340  -21.0130   18.8920 F   0  0  0  0  0  0  0  0  0  0  0  0
  -32.0710  -19.8580   17.2230 F   0  0  0  0  0  0  0  0  0  0  0  0
  -30.8610  -22.4970   21.1100 C   0  0  0  0  0  1  0  0  0  0  0  0
  -29.3550  -22.3900   20.7990 C   0  0  0  0  0  3  0  0  0  0  0  0
  -28.8480  -23.7970   20.1030 C   0  0  0  0  0  0  0  0  0  0  0  0
  -28.7970  -23.8660   18.8750 O   0  0  0  0  0  0  0  0  0  0  0  0
  -29.2650  -25.3320   22.1810 C   0  0  0  0  0  1  0  0  0  0  0  0
  -28.3930  -25.1140   20.9380 C   0  0  0  0  0  3  0  0  0  0  0  0
  -28.4370  -26.4530   20.2540 O   0  0  0  0  0  0  0  0  0  0  0  0
  -24.6290  -31.9320   23.2270 C   0  0  0  0  0  0  0  0  0  0  0  0
  -27.3110  -27.3060   20.2870 C   0  0  0  0  0  0  0  0  0  0  0  0
  -23.4620  -30.5020   21.5890 C   0  0  0  0  0  3  0  0  0  0  0  0
  -24.9420  -28.9210   20.2190 C   0  0  0  0  0  0  0  0  0  0  0  0
  -26.0050  -30.8210   21.4380 C   0  0  0  0  0  2  0  0  0  0  0  0
  -26.1030  -29.4260   20.8220 C   0  0  0  0  0  0  0  0  0  0  0  0
  -27.2940  -28.6310   20.8390 C   0  0  0  0  0  3  0  0  0  0  0  0
  -26.1240  -26.8550   19.6750 C   0  0  0  0  0  3  0  0  0  0  0  0
  -24.9580  -27.6440   19.6330 C   0  0  0  0  0  3  0  0  0  0  0  0
  -23.7030  -29.7950   20.2290 C   0  0  0  0  0  2  0  0  0  0  0  0
  -24.7190  -31.1050   22.1420 N   0  0  0  0  0  0  0  0  0  0  0  0
  -23.5340  -32.2120   23.7390 O   0  0  0  0  0  0  0  0  0  0  0  0
  -22.7830  -29.5030   22.5580 C   0  0  0  0  0  0  0  0  0  0  0  0
  -21.4550  -29.3340   22.4240 N   0  0  0  0  0  0  0  0  0  0  0  0
  -23.4520  -28.8820   23.3880 O   0  0  0  0  0  0  0  0  0  0  0  0
  -20.9780  -29.8890   21.7260 H   0  0  0  0  0  0  0  0  0  0  0  0
  -18.0610  -28.1860   22.9420 C   0  0  0  0  0  0  0  0  0  0  0  0
  -20.6250  -28.4050   23.1940 C   0  0  0  0  0  3  0  0  0  0  0  0
  -20.6990  -26.9750   22.6090 C   0  0  0  0  0  2  0  0  0  0  0  0
  -19.5830  -26.6750   21.6010 C   0  0  0  0  0  2  0  0  0  0  0  0
  -18.2100  -26.8380   22.2580 C   0  0  0  0  0  2  0  0  0  0  0  0
  -19.1940  -28.9290   23.3680 C   0  0  0  0  0  0  0  0  0  0  0  0
  -18.9980  -30.1910   23.9690 C   0  0  0  0  0  3  0  0  0  0  0  0
  -17.7020  -30.7100   24.1480 C   0  0  0  0  0  3  0  0  0  0  0  0
  -16.5830  -29.9640   23.7390 C   0  0  0  0  0  3  0  0  0  0  0  0
  -16.7630  -28.7040   23.1420 C   0  0  0  0  0  3  0  0  0  0  0  0
  -25.8950  -32.5820   23.8660 C   0  0  0  0  0  3  0  0  0  0  0  0
  -26.3920  -31.8340   25.1640 C   0  0  1  0  0  0  0  0  0  0  0  0
  -25.2810  -31.5960   26.2130 C   0  0  0  0  0  1  0  0  0  0  0  0
  -26.9970  -30.4580   24.8000 C   0  0  0  0  0  1  0  0  0  0  0  0
  -27.5190  -32.6500   25.8420 C   0  0  0  0  0  1  0  0  0  0  0  0
  -25.5680  -33.9840   24.1710 N   0  0  0  0  0  0  0  0  0  0  0  0
  -25.9110  -35.0320   23.4090 C   0  0  0  0  0  0  0  0  0  0  0  0
  -26.6010  -34.9220   22.3920 O   0  0  0  0  0  0  0  0  0  0  0  0
  -24.9550  -34.1430   24.9550 H   0  0  0  0  0  0  0  0  0  0  0  0
  -24.1940  -36.8280   22.9910 C   0  0  0  0  0  1  0  0  0  0  0  0
  -25.4090  -36.4240   23.8430 C   0  0  0  0  0  3  0  0  0  0  0  0
  -27.5160  -37.3190   24.7380 C   0  0  0  0  0  1  0  0  0  0  0  0
  -26.4460  -37.4770   23.7570 N   0  0  0  0  0  0  0  0  0  0  0  0
  -26.0340  -38.3980   23.8800 H   0  0  0  0  0  0  0  0  0  0  0  0
  1  2  1  0
  1 51  1  0
  3 15  1  0
  4  9  1  0
  5  6  1  0
  5  4  1  0
  7  6  1  0
  7 21  1  0
  7  8  1  0
  9  3  1  0
  9  8  1  0
 10  3  2  0
 11 16  1  0
 11 12  2  0
 12  1  1  0
 12 14  1  0
 13 14  2  0
 13 15  1  0
 15 17  1  0
 16 13  1  0
 18 19  2  0
 19 38  1  0
 20 19  1  0
 20 23  1  0
 21 22  1  0
 21 18  1  0
 22 20  2  0
 23 24  1  0
 24 25  2  0
 26 29  1  0
 26 25  1  0
 27 26  2  0
 28 27  1  0
 28 23  2  0
 29 30  1  0
 30 31  1  0
 31 32  2  0
 33 32  1  0
 33 37  1  0
 34 33  2  0
 35 30  2  0
 35 34  1  0
 36 35  1  0
 38 39  1  0
 39 42  1  0
 39 41  1  0
 40 38  2  0
 43 44  1  0
 43 18  1  0
 45 43  1  0
 46 48  1  1
 46 11  1  0
 47 46  1  0
 49 46  1  0
 51 50  1  0
 52 51  1  0
 52 55  1  0
 53 52  2  0
 55 54  1  0
 56 58  1  0
 56 55  1  0
 57 68  2  0
 58 63  1  0
 59 67  1  0
 59 69  1  0
 60 66  1  0
 60 62  1  0
 61 67  1  0
 62 63  2  0
 62 61  1  0
 64 58  2  0
 65 64  1  0
 65 60  2  0
 66 59  1  0
 67 57  1  0
 69 71  2  0
 70 69  1  0
 72 70  1  0
 73 82  2  0
 73 78  1  0
 74 70  1  0
 74 78  1  0
 75 74  1  0
 76 77  1  0
 76 75  1  0
 77 73  1  0
 78 79  2  0
 79 80  1  0
 81 80  2  0
 82 81  1  0
 83 57  1  0
 83 88  1  0
 83 84  1  0
 84 87  1  1
 84 85  1  0
 86 84  1  0
 88 91  1  0
 89 93  1  0
 89 88  1  0
 90 89  2  0
 93 92  1  0
 95 93  1  0
 95 96  1  0
 95 94  1  0
M  ISO  4   3 100  15 100  55 101  56 101
M  END
>  <TORSDO>  (57) 
F 20

>  <SCORE>  (57) 
-14.097

>  <name>  (57) 
56

>  <ligand_id>  (57) 
56

>  <original_smiles>  (57) 
[H]c1c([H])c([H])c2c(c1[H])C([H])([H])C([H])([H])C([H])([H])C2([H])N([H])C(=O)C1([H])N(C(=O)C([H])(N([H])C(=O)C([H])(N([H])C([H])([H])[H])C([H])([H])[H])C(C([H])([H])[H])(C([H])([H])[H])C([H])([H])[H])C([H])([H])c2c([H])c(OC([H])(C(=O)C([H])(N([H])c3nc(N([H])C(=O)N4C([H])([H])C([H])([H])C([H])([H])C([H])(n5nc(-c6c([H])c([H])c(Oc7c([H])c([H])c(F)c([H])c7F)c([H])c6[H])c(C(=O)N([H])[H])c5N([H])[H])C4([H])[H])sc3C(F)(F)F)C([H])([H])[H])C([H])([H])[H])c([H])c([H])c2C1([H])[H]

>  <smiles>  (57) 
[H]c1c([H])c([H])c2c(c1[H])C([H])([H])C([H])([H])C([H])([H])C2([H])N([H])C(=O)C1([H])N(C(=O)C([H])(N([H])C(=O)C([H])(N([H])C([H])([H])[H])C([H])([H])[H])C(C([H])([H])[H])(C([H])([H])[H])C([H])([H])[H])C([H])([H])c2c([H])c(OC([H])(C(=O)C([H])(N([H])c3nc(N([H])C(=O)N4C([H])([H])C([H])([H])C([H])([H])C([H])(n5nc(-c6c([H])c([H])c(Oc7c([H])c([H])c(F)c([H])c7F)c([H])c6[H])c(C(=O)N([H])[H])c5N([H])[H])C4([H])[H])sc3C(F)(F)F)C([H])([H])[H])C([H])([H])[H])c([H])c([H])c2C1([H])[H]

$$$$
57:0:0
     RDKit          3D

 96104  0  0  1  0  0  0  0  0999 V2000
  -28.8010  -21.5350   19.8990 C   0  0  0  0  0  0  0  0  0  0  0  0
  -29.2210  -20.4330   20.5680 N   0  0  0  0  0  0  0  0  0  0  0  0
  -28.4310  -21.5570   18.7190 O   0  0  0  0  0  0  0  0  0  0  0  0
  -29.3120  -20.5760   21.5640 H   0  0  0  0  0  0  0  0  0  0  0  0
  -30.6640  -14.5140   20.4500 C   0  0  0  0  0  0  0  0  0  0  0  0
  -30.3660  -12.3360   19.3420 C   0  0  0  0  0  2  0  0  0  0  0  0
  -29.4450  -12.5650   18.1240 C   0  0  0  0  0  2  0  0  0  0  0  0
  -27.9650  -12.4380   18.5310 C   0  0  0  0  0  2  0  0  0  0  0  0
  -27.6220  -13.2600   19.8010 C   0  0  0  0  0  3  0  0  0  0  0  0
  -28.6650  -13.0460   20.9230 C   0  0  0  0  0  2  0  0  0  0  0  0
  -29.9960  -13.3290   20.3660 N   0  0  0  0  0  0  0  0  0  0  0  0
  -31.8120  -14.6550   20.0180 O   0  0  0  0  0  0  0  0  0  0  0  0
  -29.5730  -19.1300   20.0810 C   0  0  0  0  0  0  0  0  0  0  0  0
  -30.1040  -18.8740   18.8260 C   0  0  0  0  0  0  0  0  0  0  0  0
  -29.9720  -16.8720   20.2800 C   0  0  0  0  0  0  0  0  0  0  0  0
  -29.5020  -17.9750   20.8970 N   0  0  0  0  0  0  0  0  0  0  0  0
  -29.9540  -15.5750   20.8920 N   0  0  0  0  0  0  0  0  0  0  0  0
  -30.5090  -17.1880   18.6260 S   0  0  0  0  0  0  0  0  0  0  0  0
  -29.1530  -15.3770   21.4700 H   0  0  0  0  0  0  0  0  0  0  0  0
  -25.2130  -13.8660   20.4680 C   0  0  0  0  0  0  0  0  0  0  0  0
  -24.1430  -13.0950   20.8310 C   0  0  0  0  0  0  0  0  0  0  0  0
  -24.6070  -11.7440   20.8220 C   0  0  0  0  0  0  0  0  0  0  0  0
  -26.2640  -12.9840   20.2660 N   0  0  0  0  0  0  0  0  0  0  0  0
  -25.9030  -11.7030   20.5350 N   0  0  0  0  0  0  0  0  0  0  0  0
  -23.8790  -10.4820   21.0150 C   0  0  0  0  0  0  0  0  0  0  0  0
  -24.3000   -9.5230   21.9630 C   0  0  0  0  0  3  0  0  0  0  0  0
  -23.5720   -8.3280   22.1430 C   0  0  0  0  0  3  0  0  0  0  0  0
  -22.4090   -8.0810   21.3750 C   0  0  0  0  0  0  0  0  0  0  0  0
  -22.0080   -9.0280   20.4170 C   0  0  0  0  0  3  0  0  0  0  0  0
  -22.7360  -10.2150   20.2350 C   0  0  0  0  0  3  0  0  0  0  0  0
  -21.6540   -6.9360   21.4660 O   0  0  0  0  0  0  0  0  0  0  0  0
  -21.5910   -6.2040   22.6250 C   0  0  0  0  0  0  0  0  0  0  0  0
  -21.1480   -6.7690   23.8410 C   0  0  0  0  0  3  0  0  0  0  0  0
  -21.0330   -5.9620   24.9900 C   0  0  0  0  0  3  0  0  0  0  0  0
  -21.3510   -4.5920   24.9250 C   0  0  0  0  0  0  0  0  0  0  0  0
  -21.7860   -4.0270   23.7140 C   0  0  0  0  0  3  0  0  0  0  0  0
  -21.9030   -4.8310   22.5660 C   0  0  0  0  0  0  0  0  0  0  0  0
  -22.3020   -4.2760   21.3960 F   0  0  0  0  0  0  0  0  0  0  0  0
  -21.2330   -3.8160   26.0270 F   0  0  0  0  0  0  0  0  0  0  0  0
  -22.7400  -13.5710   21.0770 C   0  0  0  0  0  0  0  0  0  0  0  0
  -22.0030  -12.8810   21.9400 N   0  0  0  0  0  0  0  0  0  0  0  0
  -22.3090  -14.5910   20.5410 O   0  0  0  0  0  0  0  0  0  0  0  0
  -22.3650  -12.0550   22.3920 H   0  0  0  0  0  0  0  0  0  0  0  0
  -21.0620  -13.1830   22.1480 H   0  0  0  0  0  0  0  0  0  0  0  0
  -25.3840  -15.2330   20.2720 N   0  0  0  0  0  0  0  0  0  0  0  0
  -24.6190  -15.8950   20.3440 H   0  0  0  0  0  0  0  0  0  0  0  0
  -26.2390  -15.6580   19.9380 H   0  0  0  0  0  0  0  0  0  0  0  0
  -30.3650  -19.7400   17.7710 N   0  0  0  0  0  0  0  0  0  0  0  0
  -29.7530  -20.5560   17.8100 H   0  0  0  0  0  0  0  0  0  0  0  0
  -30.3530  -19.3390   16.8370 H   0  0  0  0  0  0  0  0  0  0  0  0
  -28.7710  -22.8320   20.7800 C   0  0  0  0  0  0  0  0  0  0  0  0
  -28.6750  -22.7660   22.0120 O   0  0  0  0  0  0  0  0  0  0  0  0
  -30.3950  -24.4820   19.7330 C   0  0  0  0  0  1  0  0  0  0  0  0
  -28.9130  -24.2080   20.0600 C   0  0  0  0  0  3  0  0  0  0  0  0
  -28.2950  -25.3990   20.8520 C   0  0  0  0  0  2  0  0  0  0  0  0
  -28.3900  -26.6720   20.1700 O   0  0  0  0  0  0  0  0  0  0  0  0
  -24.5950  -31.8790   23.2320 C   0  0  0  0  0  0  0  0  0  0  0  0
  -27.2380  -27.4310   20.1620 C   0  0  0  0  0  0  0  0  0  0  0  0
  -23.3900  -30.4780   21.5900 C   0  0  0  0  0  3  0  0  0  0  0  0
  -24.8460  -28.9430   20.1610 C   0  0  0  0  0  0  0  0  0  0  0  0
  -25.9170  -30.8390   21.3910 C   0  0  0  0  0  2  0  0  0  0  0  0
  -26.0050  -29.4700   20.7460 C   0  0  0  0  0  0  0  0  0  0  0  0
  -27.2090  -28.7250   20.7330 C   0  0  0  0  0  3  0  0  0  0  0  0
  -26.0650  -26.9230   19.5650 C   0  0  0  0  0  3  0  0  0  0  0  0
  -24.8730  -27.6720   19.5620 C   0  0  0  0  0  3  0  0  0  0  0  0
  -23.5990  -29.7990   20.2100 C   0  0  0  0  0  2  0  0  0  0  0  0
  -24.6530  -31.0800   22.1290 N   0  0  0  0  0  0  0  0  0  0  0  0
  -23.5140  -32.1490   23.7740 O   0  0  0  0  0  0  0  0  0  0  0  0
  -22.7400  -29.4560   22.5500 C   0  0  0  0  0  0  0  0  0  0  0  0
  -21.4140  -29.2730   22.4230 N   0  0  0  0  0  0  0  0  0  0  0  0
  -23.4230  -28.8290   23.3630 O   0  0  0  0  0  0  0  0  0  0  0  0
  -20.9240  -29.8260   21.7340 H   0  0  0  0  0  0  0  0  0  0  0  0
  -18.0410  -28.0810   22.9260 C   0  0  0  0  0  0  0  0  0  0  0  0
  -20.6000  -28.3340   23.1930 C   0  0  0  0  0  3  0  0  0  0  0  0
  -20.6990  -26.9050   22.6110 C   0  0  0  0  0  2  0  0  0  0  0  0
  -19.5940  -26.5880   21.5980 C   0  0  0  0  0  2  0  0  0  0  0  0
  -18.2150  -26.7330   22.2460 C   0  0  0  0  0  2  0  0  0  0  0  0
  -19.1620  -28.8400   23.3570 C   0  0  0  0  0  0  0  0  0  0  0  0
  -18.9460  -30.1020   23.9530 C   0  0  0  0  0  3  0  0  0  0  0  0
  -17.6430  -30.6050   24.1220 C   0  0  0  0  0  3  0  0  0  0  0  0
  -16.5360  -29.8440   23.7090 C   0  0  0  0  0  3  0  0  0  0  0  0
  -16.7360  -28.5840   23.1170 C   0  0  0  0  0  3  0  0  0  0  0  0
  -25.8800  -32.5110   23.8540 C   0  0  0  0  0  3  0  0  0  0  0  0
  -26.3980  -31.7420   25.1310 C   0  0  1  0  0  0  0  0  0  0  0  0
  -25.3040  -31.5050   26.1970 C   0  0  0  0  0  1  0  0  0  0  0  0
  -26.9810  -30.3620   24.7400 C   0  0  0  0  0  1  0  0  0  0  0  0
  -27.5470  -32.5380   25.7920 C   0  0  0  0  0  1  0  0  0  0  0  0
  -25.5700  -33.9100   24.1780 N   0  0  0  0  0  0  0  0  0  0  0  0
  -25.9070  -34.9600   23.4160 C   0  0  0  0  0  0  0  0  0  0  0  0
  -26.5810  -34.8530   22.3880 O   0  0  0  0  0  0  0  0  0  0  0  0
  -24.9700  -34.0660   24.9740 H   0  0  0  0  0  0  0  0  0  0  0  0
  -24.1860  -36.7570   23.0460 C   0  0  0  0  0  1  0  0  0  0  0  0
  -25.4190  -36.3500   23.8690 C   0  0  0  0  0  3  0  0  0  0  0  0
  -27.5470  -37.2320   24.7170 C   0  0  0  0  0  1  0  0  0  0  0  0
  -26.4550  -37.4000   23.7630 N   0  0  0  0  0  0  0  0  0  0  0  0
  -26.0490  -38.3210   23.9040 H   0  0  0  0  0  0  0  0  0  0  0  0
  1  2  1  0
  1 51  1  0
  2  4  1  0
  3  1  2  0
  5 17  1  0
  6 11  1  0
  7  8  1  0
  7  6  1  0
  9  8  1  0
  9 23  1  0
  9 10  1  0
 11  5  1  0
 11 10  1  0
 12  5  2  0
 13  2  1  0
 13 16  1  0
 14 13  2  0
 15 17  1  0
 15 16  2  0
 17 19  1  0
 18 14  1  0
 18 15  1  0
 20 21  2  0
 21 40  1  0
 22 21  1  0
 22 25  1  0
 23 20  1  0
 23 24  1  0
 24 22  2  0
 25 26  1  0
 26 27  2  0
 28 31  1  0
 28 27  1  0
 29 28  2  0
 30 29  1  0
 30 25  2  0
 31 32  1  0
 32 33  1  0
 33 34  2  0
 35 34  1  0
 35 39  1  0
 36 35  2  0
 37 32  2  0
 37 36  1  0
 38 37  1  0
 40 41  1  0
 41 44  1  0
 41 43  1  0
 42 40  2  0
 45 46  1  0
 45 20  1  0
 47 45  1  0
 48 49  1  0
 48 14  1  0
 50 48  1  0
 51 52  2  0
 54 53  1  0
 54 51  1  0
 54 55  1  0
 56 55  1  0
 57 68  2  0
 58 56  1  0
 58 63  1  0
 59 67  1  0
 59 69  1  0
 60 66  1  0
 60 62  1  0
 61 67  1  0
 62 61  1  0
 63 62  2  0
 64 58  2  0
 65 64  1  0
 65 60  2  0
 66 59  1  0
 67 57  1  0
 69 71  2  0
 70 69  1  0
 72 70  1  0
 73 82  2  0
 73 78  1  0
 74 70  1  0
 74 78  1  0
 75 74  1  0
 76 77  1  0
 76 75  1  0
 77 73  1  0
 78 79  2  0
 79 80  1  0
 81 80  2  0
 82 81  1  0
 83 57  1  0
 83 88  1  0
 83 84  1  0
 84 87  1  1
 84 85  1  0
 86 84  1  0
 88 91  1  0
 89 93  1  0
 89 88  1  0
 90 89  2  0
 93 92  1  0
 95 93  1  0
 95 96  1  0
 95 94  1  0
M  ISO  4   5 100  17 100  55 101  56 101
M  END
>  <TORSDO>  (58) 
F 20

>  <SCORE>  (58) 
-14.172

>  <name>  (58) 
57

>  <ligand_id>  (58) 
57

>  <original_smiles>  (58) 
[H]c1c([H])c([H])c2c(c1[H])C([H])([H])C([H])([H])C([H])([H])C2([H])N([H])C(=O)C1([H])N(C(=O)C([H])(N([H])C(=O)C([H])(N([H])C([H])([H])[H])C([H])([H])[H])C(C([H])([H])[H])(C([H])([H])[H])C([H])([H])[H])C([H])([H])c2c([H])c(OC([H])([H])C([H])(C(=O)C(=O)N([H])c3nc(N([H])C(=O)N4C([H])([H])C([H])([H])C([H])([H])C([H])(n5nc(-c6c([H])c([H])c(Oc7c([H])c([H])c(F)c([H])c7F)c([H])c6[H])c(C(=O)N([H])[H])c5N([H])[H])C4([H])[H])sc3N([H])[H])C([H])([H])[H])c([H])c([H])c2C1([H])[H]

>  <smiles>  (58) 
[H]c1c([H])c([H])c2c(c1[H])C([H])([H])C([H])([H])C([H])([H])C2([H])N([H])C(=O)C1([H])N(C(=O)C([H])(N([H])C(=O)C([H])(N([H])C([H])([H])[H])C([H])([H])[H])C(C([H])([H])[H])(C([H])([H])[H])C([H])([H])[H])C([H])([H])c2c([H])c(OC([H])([H])C([H])(C(=O)C(=O)N([H])c3nc(N([H])C(=O)N4C([H])([H])C([H])([H])C([H])([H])C([H])(n5nc(-c6c([H])c([H])c(Oc7c([H])c([H])c(F)c([H])c7F)c([H])c6[H])c(C(=O)N([H])[H])c5N([H])[H])C4([H])[H])sc3N([H])[H])C([H])([H])[H])c([H])c([H])c2C1([H])[H]

$$$$
58:0:0
     RDKit          3D

 94102  0  0  1  0  0  0  0  0999 V2000
  -29.8010  -21.2140   20.8440 C   0  0  0  0  0  3  0  0  0  0  0  0
  -30.7070  -14.8730   20.2950 C   0  0  0  0  0  0  0  0  0  0  0  0
  -30.4820  -12.6050   19.2670 C   0  0  0  0  0  2  0  0  0  0  0  0
  -29.5470  -12.7220   18.0410 C   0  0  0  0  0  2  0  0  0  0  0  0
  -28.0740  -12.5550   18.4690 C   0  0  0  0  0  2  0  0  0  0  0  0
  -27.7140  -13.4160   19.7100 C   0  0  0  0  0  3  0  0  0  0  0  0
  -28.7760  -13.2940   20.8280 C   0  0  0  0  0  2  0  0  0  0  0  0
  -30.0810  -13.6440   20.2470 N   0  0  0  0  0  0  0  0  0  0  0  0
  -31.8540  -14.9880   19.8470 O   0  0  0  0  0  0  0  0  0  0  0  0
  -30.0420  -19.4680   18.9030 C   0  0  0  0  0  3  0  0  0  0  0  0
  -29.8280  -19.7470   20.2320 C   0  0  0  0  0  0  0  0  0  0  0  0
  -30.0480  -17.3600   20.2550 C   0  0  0  0  0  0  0  0  0  0  0  0
  -29.7860  -18.5010   20.9770 N   0  0  0  0  0  0  0  0  0  0  0  0
  -30.0120  -15.9750   20.7590 N   0  0  0  0  0  0  0  0  0  0  0  0
  -30.2910  -17.7600   18.5560 S   0  0  0  0  0  0  0  0  0  0  0  0
  -29.2280  -15.7690   21.3580 H   0  0  0  0  0  0  0  0  0  0  0  0
  -25.3210  -13.9970   20.4380 C   0  0  0  0  0  0  0  0  0  0  0  0
  -24.2600  -13.2200   20.8160 C   0  0  0  0  0  0  0  0  0  0  0  0
  -24.7270  -11.8700   20.7830 C   0  0  0  0  0  0  0  0  0  0  0  0
  -26.3690  -13.1220   20.2000 N   0  0  0  0  0  0  0  0  0  0  0  0
  -26.0170  -11.8370   20.4690 N   0  0  0  0  0  0  0  0  0  0  0  0
  -24.0050  -10.6070   20.9820 C   0  0  0  0  0  0  0  0  0  0  0  0
  -24.4400   -9.6440   21.9200 C   0  0  0  0  0  3  0  0  0  0  0  0
  -23.7160   -8.4460   22.1050 C   0  0  0  0  0  3  0  0  0  0  0  0
  -22.5430   -8.2020   21.3520 C   0  0  0  0  0  0  0  0  0  0  0  0
  -22.1260   -9.1540   20.4040 C   0  0  0  0  0  3  0  0  0  0  0  0
  -22.8510  -10.3430   20.2170 C   0  0  0  0  0  3  0  0  0  0  0  0
  -21.7910   -7.0560   21.4440 O   0  0  0  0  0  0  0  0  0  0  0  0
  -21.7400   -6.3210   22.6010 C   0  0  0  0  0  0  0  0  0  0  0  0
  -21.2960   -6.8800   23.8210 C   0  0  0  0  0  3  0  0  0  0  0  0
  -21.1920   -6.0690   24.9690 C   0  0  0  0  0  3  0  0  0  0  0  0
  -21.5220   -4.7030   24.9000 C   0  0  0  0  0  0  0  0  0  0  0  0
  -21.9590   -4.1450   23.6870 C   0  0  0  0  0  3  0  0  0  0  0  0
  -22.0650   -4.9520   22.5400 C   0  0  0  0  0  0  0  0  0  0  0  0
  -22.4660   -4.4030   21.3670 F   0  0  0  0  0  0  0  0  0  0  0  0
  -21.4170   -3.9230   26.0020 F   0  0  0  0  0  0  0  0  0  0  0  0
  -22.8620  -13.6940   21.0940 C   0  0  0  0  0  0  0  0  0  0  0  0
  -22.1390  -13.0010   21.9660 N   0  0  0  0  0  0  0  0  0  0  0  0
  -22.4180  -14.7180   20.5750 O   0  0  0  0  0  0  0  0  0  0  0  0
  -22.5100  -12.1760   22.4160 H   0  0  0  0  0  0  0  0  0  0  0  0
  -21.2030  -13.3030   22.1940 H   0  0  0  0  0  0  0  0  0  0  0  0
  -25.4760  -15.3690   20.2580 N   0  0  0  0  0  0  0  0  0  0  0  0
  -24.7000  -16.0120   20.3650 H   0  0  0  0  0  0  0  0  0  0  0  0
  -26.3190  -15.8170   19.9220 H   0  0  0  0  0  0  0  0  0  0  0  0
  -27.3290  -22.0050   20.8610 C   0  0  0  0  0  1  0  0  0  0  0  0
  -28.7400  -22.3290   20.3260 C   0  0  0  0  0  3  0  0  0  0  0  0
  -29.0650  -23.8960   20.5240 C   0  0  0  0  0  0  0  0  0  0  0  0
  -30.1780  -24.2420   20.9360 O   0  0  0  0  0  0  0  0  0  0  0  0
  -27.9810  -25.0160   20.1540 C   0  0  0  0  0  2  0  0  0  0  0  0
  -28.3040  -26.4820   20.2930 O   0  0  0  0  0  0  0  0  0  0  0  0
  -24.6020  -31.9670   23.2740 C   0  0  0  0  0  0  0  0  0  0  0  0
  -27.2160  -27.3860   20.2180 C   0  0  0  0  0  0  0  0  0  0  0  0
  -23.4000  -30.5690   21.6350 C   0  0  0  0  0  3  0  0  0  0  0  0
  -24.8530  -29.0270   20.2020 C   0  0  0  0  0  0  0  0  0  0  0  0
  -25.9420  -30.8910   21.4470 C   0  0  0  0  0  2  0  0  0  0  0  0
  -26.0270  -29.5120   20.7940 C   0  0  0  0  0  0  0  0  0  0  0  0
  -27.2120  -28.7060   20.7870 C   0  0  0  0  0  3  0  0  0  0  0  0
  -26.0130  -26.9740   19.5940 C   0  0  0  0  0  3  0  0  0  0  0  0
  -24.8520  -27.7660   19.5930 C   0  0  0  0  0  3  0  0  0  0  0  0
  -23.6150  -29.9010   20.2530 C   0  0  0  0  0  2  0  0  0  0  0  0
  -24.6680  -31.1600   22.1750 N   0  0  0  0  0  0  0  0  0  0  0  0
  -23.5180  -32.2370   23.8130 O   0  0  0  0  0  0  0  0  0  0  0  0
  -22.7430  -29.5470   22.5950 C   0  0  0  0  0  0  0  0  0  0  0  0
  -21.4180  -29.3600   22.4670 N   0  0  0  0  0  0  0  0  0  0  0  0
  -23.4250  -28.9280   23.4150 O   0  0  0  0  0  0  0  0  0  0  0  0
  -20.9270  -29.9150   21.7800 H   0  0  0  0  0  0  0  0  0  0  0  0
  -18.0500  -28.1310   22.9630 C   0  0  0  0  0  0  0  0  0  0  0  0
  -20.6050  -28.4150   23.2360 C   0  0  0  0  0  3  0  0  0  0  0  0
  -20.7210  -26.9840   22.6660 C   0  0  0  0  0  2  0  0  0  0  0  0
  -19.6250  -26.6470   21.6490 C   0  0  0  0  0  2  0  0  0  0  0  0
  -18.2400  -26.7810   22.2890 C   0  0  0  0  0  2  0  0  0  0  0  0
  -19.1600  -28.9040   23.3930 C   0  0  0  0  0  0  0  0  0  0  0  0
  -18.9270  -30.1650   23.9830 C   0  0  0  0  0  3  0  0  0  0  0  0
  -17.6170  -30.6550   24.1440 C   0  0  0  0  0  3  0  0  0  0  0  0
  -16.5210  -29.8780   23.7300 C   0  0  0  0  0  3  0  0  0  0  0  0
  -16.7380  -28.6170   23.1450 C   0  0  0  0  0  3  0  0  0  0  0  0
  -25.8840  -32.6060   23.8930 C   0  0  0  0  0  3  0  0  0  0  0  0
  -25.5720  -34.0080   24.2070 N   0  0  0  0  0  0  0  0  0  0  0  0
  -25.9070  -35.0540   23.4410 C   0  0  0  0  0  0  0  0  0  0  0  0
  -26.5790  -34.9400   22.4120 O   0  0  0  0  0  0  0  0  0  0  0  0
  -24.9720  -34.1690   25.0030 H   0  0  0  0  0  0  0  0  0  0  0  0
  -24.1870  -36.8510   23.0600 C   0  0  0  0  0  1  0  0  0  0  0  0
  -25.4220  -36.4480   23.8830 C   0  0  0  0  0  3  0  0  0  0  0  0
  -27.5520  -37.3350   24.7220 C   0  0  0  0  0  1  0  0  0  0  0  0
  -26.4580  -37.4970   23.7690 N   0  0  0  0  0  0  0  0  0  0  0  0
  -26.0540  -38.4210   23.9040 H   0  0  0  0  0  0  0  0  0  0  0  0
  -26.3920  -31.8500   25.1820 C   0  0  1  0  0  0  0  0  0  0  0  0
  -25.2920  -31.6260   26.2470 C   0  0  0  0  0  1  0  0  0  0  0  0
  -26.9760  -30.4680   24.8140 C   0  0  0  0  0  1  0  0  0  0  0  0
  -27.5380  -32.6520   25.8410 C   0  0  0  0  0  1  0  0  0  0  0  0
  -29.7180  -21.1390   22.2680 O   0  0  0  0  0  0  0  0  0  0  0  0
  -30.8330  -21.1540   23.0200 C   0  0  0  0  0  0  0  0  0  0  0  0
  -30.5410  -20.9730   24.5020 C   0  0  0  0  0  1  0  0  0  0  0  0
  -31.9880  -21.2880   22.6100 O   0  0  0  0  0  0  0  0  0  0  0  0
  1 91  1  0
  2 14  1  0
  3  8  1  0
  4  5  1  0
  4  3  1  0
  6  5  1  0
  6 20  1  0
  6  7  1  0
  8  2  1  0
  8  7  1  0
  9  2  2  0
 10 11  2  0
 11  1  1  0
 11 13  1  0
 12 14  1  0
 12 13  2  0
 14 16  1  0
 15 10  1  0
 15 12  1  0
 17 18  2  0
 18 37  1  0
 19 18  1  0
 19 22  1  0
 20 17  1  0
 20 21  1  0
 21 19  2  0
 22 23  1  0
 23 24  2  0
 25 28  1  0
 25 24  1  0
 26 25  2  0
 27 26  1  0
 27 22  2  0
 28 29  1  0
 29 30  1  0
 30 31  2  0
 32 31  1  0
 32 36  1  0
 33 32  2  0
 34 29  2  0
 34 33  1  0
 35 34  1  0
 37 38  1  0
 38 41  1  0
 38 40  1  0
 39 37  2  0
 42 43  1  0
 42 17  1  0
 44 42  1  0
 46 47  1  0
 46  1  1  0
 46 45  1  0
 47 48  2  0
 49 50  1  0
 49 47  1  0
 51 62  2  0
 52 50  1  0
 52 57  1  0
 53 61  1  0
 53 63  1  0
 54 60  1  0
 54 56  1  0
 55 61  1  0
 56 55  1  0
 57 56  2  0
 58 52  2  0
 59 58  1  0
 59 54  2  0
 60 53  1  0
 61 51  1  0
 63 65  2  0
 64 63  1  0
 66 64  1  0
 67 76  2  0
 67 72  1  0
 68 64  1  0
 68 72  1  0
 69 68  1  0
 70 71  1  0
 70 69  1  0
 71 67  1  0
 72 73  2  0
 73 74  1  0
 75 74  2  0
 76 75  1  0
 77 51  1  0
 77 78  1  0
 77 87  1  0
 78 81  1  0
 79 83  1  0
 79 78  1  0
 80 79  2  0
 83 82  1  0
 85 83  1  0
 85 86  1  0
 85 84  1  0
 87 90  1  1
 87 88  1  0
 89 87  1  0
 91 92  1  0
 92 93  1  0
 94 92  2  0
M  ISO  4   2 100  14 100  49 101  50 101
M  END
>  <TORSDO>  (59) 
F 21

>  <SCORE>  (59) 
-13.885

>  <name>  (59) 
58

>  <ligand_id>  (59) 
58

>  <original_smiles>  (59) 
[H]c1sc(N([H])C(=O)N2C([H])([H])C([H])([H])C([H])([H])C([H])(n3nc(-c4c([H])c([H])c(Oc5c([H])c([H])c(F)c([H])c5F)c([H])c4[H])c(C(=O)N([H])[H])c3N([H])[H])C2([H])[H])nc1C([H])(OC(=O)C([H])([H])[H])C([H])(C(=O)C([H])([H])Oc1c([H])c([H])c2c(c1[H])C([H])([H])N(C(=O)C([H])(N([H])C(=O)C([H])(N([H])C([H])([H])[H])C([H])([H])[H])C(C([H])([H])[H])(C([H])([H])[H])C([H])([H])[H])C([H])(C(=O)N([H])C1([H])c3c([H])c([H])c([H])c([H])c3C([H])([H])C([H])([H])C1([H])[H])C2([H])[H])C([H])([H])[H]

>  <smiles>  (59) 
[H]c1sc(N([H])C(=O)N2C([H])([H])C([H])([H])C([H])([H])C([H])(n3nc(-c4c([H])c([H])c(Oc5c([H])c([H])c(F)c([H])c5F)c([H])c4[H])c(C(=O)N([H])[H])c3N([H])[H])C2([H])[H])nc1C([H])(OC(=O)C([H])([H])[H])C([H])(C(=O)C([H])([H])Oc1c([H])c([H])c2c(c1[H])C([H])([H])N(C(=O)C([H])(N([H])C(=O)C([H])(N([H])C([H])([H])[H])C([H])([H])[H])C(C([H])([H])[H])(C([H])([H])[H])C([H])([H])[H])C([H])(C(=O)N([H])C1([H])c3c([H])c([H])c([H])c([H])c3C([H])([H])C([H])([H])C1([H])[H])C2([H])[H])C([H])([H])[H]

$$$$
59:0:0
     RDKit          3D

100108  0  0  1  0  0  0  0  0999 V2000
  -30.1760  -21.1780   20.9920 C   0  0  0  0  0  0  0  0  0  0  0  0
  -29.0250  -21.7710   20.6320 N   0  0  0  0  0  0  0  0  0  0  0  0
  -31.0390  -21.8030   21.6120 O   0  0  0  0  0  0  0  0  0  0  0  0
  -28.3790  -21.2360   20.0700 H   0  0  0  0  0  0  0  0  0  0  0  0
  -30.8080  -14.7450   20.1740 C   0  0  0  0  0  0  0  0  0  0  0  0
  -30.4630  -12.5710   19.0490 C   0  0  0  0  0  2  0  0  0  0  0  0
  -29.4830  -12.7890   17.8770 C   0  0  0  0  0  2  0  0  0  0  0  0
  -28.0250  -12.6420   18.3580 C   0  0  0  0  0  2  0  0  0  0  0  0
  -27.7350  -13.4660   19.6410 C   0  0  0  0  0  3  0  0  0  0  0  0
  -28.8330  -13.2550   20.7080 C   0  0  0  0  0  2  0  0  0  0  0  0
  -30.1320  -13.5620   20.0890 N   0  0  0  0  0  0  0  0  0  0  0  0
  -31.9450  -14.8620   19.7090 O   0  0  0  0  0  0  0  0  0  0  0  0
  -30.4360  -19.7430   20.6190 C   0  0  0  0  0  0  0  0  0  0  0  0
  -31.5410  -19.1360   20.0480 C   0  0  0  0  0  0  0  0  0  0  0  0
  -30.3730  -17.2200   20.5500 C   0  0  0  0  0  0  0  0  0  0  0  0
  -31.4830  -17.7290   20.0000 N   0  0  0  0  0  0  0  0  0  0  0  0
  -30.1010  -15.8040   20.6490 N   0  0  0  0  0  0  0  0  0  0  0  0
  -29.2810  -18.5050   21.1240 S   0  0  0  0  0  0  0  0  0  0  0  0
  -29.2010  -15.5680   21.0350 H   0  0  0  0  0  0  0  0  0  0  0  0
  -25.3770  -14.0670   20.4680 C   0  0  0  0  0  0  0  0  0  0  0  0
  -24.3190  -13.2930   20.8630 C   0  0  0  0  0  0  0  0  0  0  0  0
  -24.7680  -11.9390   20.7800 C   0  0  0  0  0  0  0  0  0  0  0  0
  -26.4030  -13.1850   20.1710 N   0  0  0  0  0  0  0  0  0  0  0  0
  -26.0430  -11.8990   20.4170 N   0  0  0  0  0  0  0  0  0  0  0  0
  -24.0400  -10.6780   20.9660 C   0  0  0  0  0  0  0  0  0  0  0  0
  -24.4800   -9.6990   21.8840 C   0  0  0  0  0  3  0  0  0  0  0  0
  -23.7520   -8.5040   22.0600 C   0  0  0  0  0  3  0  0  0  0  0  0
  -22.5690   -8.2770   21.3180 C   0  0  0  0  0  0  0  0  0  0  0  0
  -22.1480   -9.2430   20.3870 C   0  0  0  0  0  3  0  0  0  0  0  0
  -22.8770  -10.4300   20.2090 C   0  0  0  0  0  3  0  0  0  0  0  0
  -21.8100   -7.1340   21.4040 O   0  0  0  0  0  0  0  0  0  0  0  0
  -21.7560   -6.3920   22.5570 C   0  0  0  0  0  0  0  0  0  0  0  0
  -21.3100   -6.9420   23.7790 C   0  0  0  0  0  3  0  0  0  0  0  0
  -21.2060   -6.1240   24.9220 C   0  0  0  0  0  3  0  0  0  0  0  0
  -21.5350   -4.7590   24.8440 C   0  0  0  0  0  0  0  0  0  0  0  0
  -21.9740   -4.2080   23.6270 C   0  0  0  0  0  3  0  0  0  0  0  0
  -22.0810   -5.0220   22.4850 C   0  0  0  0  0  0  0  0  0  0  0  0
  -22.4840   -4.4810   21.3110 F   0  0  0  0  0  0  0  0  0  0  0  0
  -21.4280   -3.9700   25.9390 F   0  0  0  0  0  0  0  0  0  0  0  0
  -22.9380  -13.7740   21.2040 C   0  0  0  0  0  0  0  0  0  0  0  0
  -22.2430  -13.0640   22.0870 N   0  0  0  0  0  0  0  0  0  0  0  0
  -22.4850  -14.8120   20.7230 O   0  0  0  0  0  0  0  0  0  0  0  0
  -22.6210  -12.2230   22.4940 H   0  0  0  0  0  0  0  0  0  0  0  0
  -21.3190  -13.3670   22.3570 H   0  0  0  0  0  0  0  0  0  0  0  0
  -25.5470  -15.4400   20.3170 N   0  0  0  0  0  0  0  0  0  0  0  0
  -24.7840  -16.0950   20.4550 H   0  0  0  0  0  0  0  0  0  0  0  0
  -26.3740  -15.8770   19.9300 H   0  0  0  0  0  0  0  0  0  0  0  0
  -33.6900  -19.5230   18.8310 C   0  0  0  0  0  0  0  0  0  0  0  0
  -34.7680  -20.5720   18.5830 C   0  0  0  0  0  1  0  0  0  0  0  0
  -32.6530  -19.9010   19.5990 N   0  0  0  0  0  0  0  0  0  0  0  0
  -33.8110  -18.4120   18.3080 O   0  0  0  0  0  0  0  0  0  0  0  0
  -32.6690  -20.8630   19.9090 H   0  0  0  0  0  0  0  0  0  0  0  0
  -28.4980  -23.0620   21.1570 C   0  0  0  0  0  3  0  0  0  0  0  0
  -26.9690  -23.0200   20.9280 C   0  0  0  0  0  3  0  0  0  0  0  0
  -26.6670  -22.9600   19.6300 F   0  0  0  0  0  0  0  0  0  0  0  0
  -26.4340  -21.9670   21.5510 F   0  0  0  0  0  0  0  0  0  0  0  0
  -29.0600  -24.3600   20.4650 C   0  0  0  0  0  0  0  0  0  0  0  0
  -29.7700  -24.3260   19.4540 O   0  0  0  0  0  0  0  0  0  0  0  0
  -28.6910  -25.7310   21.1180 C   0  0  0  0  0  2  0  0  0  0  0  0
  -28.7810  -26.8780   20.2320 O   0  0  0  0  0  0  0  0  0  0  0  0
  -24.7090  -31.9360   23.2260 C   0  0  0  0  0  0  0  0  0  0  0  0
  -27.6220  -27.6280   20.1820 C   0  0  0  0  0  0  0  0  0  0  0  0
  -23.6160  -30.5160   21.5200 C   0  0  0  0  0  3  0  0  0  0  0  0
  -25.1780  -29.0600   20.1210 C   0  0  0  0  0  0  0  0  0  0  0  0
  -26.1330  -30.9750   21.4140 C   0  0  0  0  0  2  0  0  0  0  0  0
  -26.2970  -29.6170   20.7560 C   0  0  0  0  0  0  0  0  0  0  0  0
  -27.5250  -28.9100   20.7810 C   0  0  0  0  0  3  0  0  0  0  0  0
  -26.4890  -27.0950   19.5320 C   0  0  0  0  0  3  0  0  0  0  0  0
  -25.2710  -27.8000   19.5040 C   0  0  0  0  0  3  0  0  0  0  0  0
  -23.8990  -29.8680   20.1380 C   0  0  0  0  0  2  0  0  0  0  0  0
  -24.8340  -31.1580   22.1130 N   0  0  0  0  0  0  0  0  0  0  0  0
  -23.6000  -32.1540   23.7340 O   0  0  0  0  0  0  0  0  0  0  0  0
  -22.9740  -29.4550   22.4430 C   0  0  0  0  0  0  0  0  0  0  0  0
  -21.6550  -29.2470   22.2910 N   0  0  0  0  0  0  0  0  0  0  0  0
  -23.6600  -28.8230   23.2510 O   0  0  0  0  0  0  0  0  0  0  0  0
  -21.1620  -29.8130   21.6150 H   0  0  0  0  0  0  0  0  0  0  0  0
  -18.2900  -28.0090   22.7500 C   0  0  0  0  0  0  0  0  0  0  0  0
  -20.8480  -28.2690   23.0210 C   0  0  0  0  0  3  0  0  0  0  0  0
  -20.9550  -26.8670   22.3790 C   0  0  0  0  0  2  0  0  0  0  0  0
  -19.8510  -26.5840   21.3560 C   0  0  0  0  0  2  0  0  0  0  0  0
  -18.4710  -26.6930   22.0120 C   0  0  0  0  0  2  0  0  0  0  0  0
  -19.4060  -28.7570   23.2090 C   0  0  0  0  0  0  0  0  0  0  0  0
  -19.1820  -29.9910   23.8570 C   0  0  0  0  0  3  0  0  0  0  0  0
  -17.8760  -30.4760   24.0540 C   0  0  0  0  0  3  0  0  0  0  0  0
  -16.7750  -29.7230   23.6140 C   0  0  0  0  0  3  0  0  0  0  0  0
  -16.9830  -28.4920   22.9670 C   0  0  0  0  0  3  0  0  0  0  0  0
  -25.9460  -32.6070   23.9000 C   0  0  0  0  0  3  0  0  0  0  0  0
  -25.5870  -34.0000   24.2050 N   0  0  0  0  0  0  0  0  0  0  0  0
  -25.9190  -35.0530   23.4470 C   0  0  0  0  0  0  0  0  0  0  0  0
  -26.6290  -34.9590   22.4420 O   0  0  0  0  0  0  0  0  0  0  0  0
  -24.9640  -34.1450   24.9850 H   0  0  0  0  0  0  0  0  0  0  0  0
  -24.1510  -36.7890   23.0120 C   0  0  0  0  0  1  0  0  0  0  0  0
  -25.3750  -36.4310   23.8720 C   0  0  0  0  0  3  0  0  0  0  0  0
  -27.4490  -37.3910   24.7690 C   0  0  0  0  0  1  0  0  0  0  0  0
  -26.3780  -37.5140   23.7830 N   0  0  0  0  0  0  0  0  0  0  0  0
  -25.9380  -38.4230   23.9030 H   0  0  0  0  0  0  0  0  0  0  0  0
  -26.4290  -31.8590   25.2030 C   0  0  1  0  0  0  0  0  0  0  0  0
  -25.2970  -31.5900   26.2200 C   0  0  0  0  0  1  0  0  0  0  0  0
  -27.0750  -30.5000   24.8430 C   0  0  0  0  0  1  0  0  0  0  0  0
  -27.5210  -32.6930   25.9140 C   0  0  0  0  0  1  0  0  0  0  0  0
  1  3  2  0
  2  1  1  0
  2 53  1  0
  4  2  1  0
  5 17  1  0
  6 11  1  0
  7  8  1  0
  7  6  1  0
  9  8  1  0
  9 23  1  0
  9 10  1  0
 11  5  1  0
 11 10  1  0
 12  5  2  0
 13  1  1  0
 13 18  1  0
 14 13  2  0
 15 17  1  0
 15 18  1  0
 16 14  1  0
 16 15  2  0
 17 19  1  0
 20 21  2  0
 21 40  1  0
 22 21  1  0
 22 25  1  0
 23 24  1  0
 23 20  1  0
 24 22  2  0
 25 26  1  0
 26 27  2  0
 28 31  1  0
 28 27  1  0
 29 28  2  0
 30 29  1  0
 30 25  2  0
 31 32  1  0
 32 33  1  0
 33 34  2  0
 35 34  1  0
 35 39  1  0
 36 35  2  0
 37 32  2  0
 37 36  1  0
 38 37  1  0
 40 41  1  0
 41 44  1  0
 41 43  1  0
 42 40  2  0
 45 46  1  0
 45 20  1  0
 47 45  1  0
 48 50  1  0
 49 48  1  0
 50 52  1  0
 50 14  1  0
 51 48  2  0
 53 57  1  0
 54 53  1  0
 54 56  1  0
 55 54  1  0
 57 59  1  0
 58 57  2  0
 60 59  1  0
 61 72  2  0
 62 60  1  0
 62 67  1  0
 63 71  1  0
 63 73  1  0
 64 70  1  0
 64 66  1  0
 65 71  1  0
 66 67  2  0
 66 65  1  0
 68 62  2  0
 69 68  1  0
 69 64  2  0
 70 63  1  0
 71 61  1  0
 73 75  2  0
 74 73  1  0
 76 74  1  0
 77 86  2  0
 77 82  1  0
 78 74  1  0
 78 82  1  0
 79 78  1  0
 80 81  1  0
 80 79  1  0
 81 77  1  0
 82 83  2  0
 83 84  1  0
 85 84  2  0
 86 85  1  0
 87 61  1  0
 87 88  1  0
 87 97  1  0
 88 91  1  0
 89 93  1  0
 89 88  1  0
 90 89  2  0
 93 92  1  0
 95 93  1  0
 95 96  1  0
 95 94  1  0
 97100  1  1
 97 98  1  0
 99 97  1  0
M  ISO  4   5 100  17 100  59 101  60 101
M  END
>  <TORSDO>  (60) 
F 21

>  <SCORE>  (60) 
-12.844

>  <name>  (60) 
59

>  <ligand_id>  (60) 
59

>  <original_smiles>  (60) 
[H]c1c([H])c([H])c2c(c1[H])C([H])([H])C([H])([H])C([H])([H])C2([H])N([H])C(=O)C1([H])N(C(=O)C([H])(N([H])C(=O)C([H])(N([H])C([H])([H])[H])C([H])([H])[H])C(C([H])([H])[H])(C([H])([H])[H])C([H])([H])[H])C([H])([H])c2c([H])c(OC([H])([H])C(=O)C([H])(N([H])C(=O)c3sc(N([H])C(=O)N4C([H])([H])C([H])([H])C([H])([H])C([H])(n5nc(-c6c([H])c([H])c(Oc7c([H])c([H])c(F)c([H])c7F)c([H])c6[H])c(C(=O)N([H])[H])c5N([H])[H])C4([H])[H])nc3N([H])C(=O)C([H])([H])[H])C([H])(F)F)c([H])c([H])c2C1([H])[H]

>  <smiles>  (60) 
[H]c1c([H])c([H])c2c(c1[H])C([H])([H])C([H])([H])C([H])([H])C2([H])N([H])C(=O)C1([H])N(C(=O)C([H])(N([H])C(=O)C([H])(N([H])C([H])([H])[H])C([H])([H])[H])C(C([H])([H])[H])(C([H])([H])[H])C([H])([H])[H])C([H])([H])c2c([H])c(OC([H])([H])C(=O)C([H])(N([H])C(=O)c3sc(N([H])C(=O)N4C([H])([H])C([H])([H])C([H])([H])C([H])(n5nc(-c6c([H])c([H])c(Oc7c([H])c([H])c(F)c([H])c7F)c([H])c6[H])c(C(=O)N([H])[H])c5N([H])[H])C4([H])[H])nc3N([H])C(=O)C([H])([H])[H])C([H])(F)F)c([H])c([H])c2C1([H])[H]

$$$$
60:0:0
     RDKit          3D

 96104  0  0  1  0  0  0  0  0999 V2000
  -28.6230  -22.4300   20.4610 C   0  0  0  0  0  0  0  0  0  0  0  0
  -29.6070  -21.5100   20.1200 N   0  0  0  0  0  0  0  0  0  0  0  0
  -27.5470  -22.0410   20.9160 O   0  0  0  0  0  0  0  0  0  0  0  0
  -30.3920  -21.9810   19.6950 H   0  0  0  0  0  0  0  0  0  0  0  0
  -30.5430  -14.8590   20.2280 C   0  0  0  0  0  0  0  0  0  0  0  0
  -30.3720  -12.5690   19.2180 C   0  0  0  0  0  2  0  0  0  0  0  0
  -29.4080  -12.6220   18.0100 C   0  0  0  0  0  2  0  0  0  0  0  0
  -27.9460  -12.4330   18.4660 C   0  0  0  0  0  2  0  0  0  0  0  0
  -27.5870  -13.3140   19.6920 C   0  0  0  0  0  3  0  0  0  0  0  0
  -28.6680  -13.2310   20.7930 C   0  0  0  0  0  2  0  0  0  0  0  0
  -29.9460  -13.6140   20.1800 N   0  0  0  0  0  0  0  0  0  0  0  0
  -31.7240  -14.9640   19.8820 O   0  0  0  0  0  0  0  0  0  0  0  0
  -31.0490  -19.4710   20.0060 C   0  0  0  0  0  0  0  0  0  0  0  0
  -29.8150  -20.1030   20.2110 C   0  0  0  0  0  0  0  0  0  0  0  0
  -29.9100  -17.4470   20.3590 C   0  0  0  0  0  0  0  0  0  0  0  0
  -31.0750  -18.0420   20.0830 N   0  0  0  0  0  0  0  0  0  0  0  0
  -29.7290  -15.9680   20.4780 N   0  0  0  0  0  0  0  0  0  0  0  0
  -28.6550  -18.7600   20.5480 S   0  0  0  0  0  0  0  0  0  0  0  0
  -28.7900  -15.7030   20.7270 H   0  0  0  0  0  0  0  0  0  0  0  0
  -25.2130  -13.8910   20.4720 C   0  0  0  0  0  0  0  0  0  0  0  0
  -24.1580  -13.1110   20.8580 C   0  0  0  0  0  0  0  0  0  0  0  0
  -24.6250  -11.7610   20.8070 C   0  0  0  0  0  0  0  0  0  0  0  0
  -26.2540  -13.0170   20.2070 N   0  0  0  0  0  0  0  0  0  0  0  0
  -25.9100  -11.7310   20.4730 N   0  0  0  0  0  0  0  0  0  0  0  0
  -23.9060  -10.4950   21.0010 C   0  0  0  0  0  0  0  0  0  0  0  0
  -24.3430   -9.5320   21.9360 C   0  0  0  0  0  3  0  0  0  0  0  0
  -23.6240   -8.3300   22.1150 C   0  0  0  0  0  3  0  0  0  0  0  0
  -22.4530   -8.0850   21.3610 C   0  0  0  0  0  0  0  0  0  0  0  0
  -22.0350   -9.0360   20.4120 C   0  0  0  0  0  3  0  0  0  0  0  0
  -22.7550  -10.2300   20.2310 C   0  0  0  0  0  3  0  0  0  0  0  0
  -21.7030   -6.9370   21.4520 O   0  0  0  0  0  0  0  0  0  0  0  0
  -21.6350   -6.2140   22.6150 C   0  0  0  0  0  0  0  0  0  0  0  0
  -21.1500   -6.7760   23.8160 C   0  0  0  0  0  3  0  0  0  0  0  0
  -21.0300   -5.9770   24.9700 C   0  0  0  0  0  3  0  0  0  0  0  0
  -21.3840   -4.6150   24.9250 C   0  0  0  0  0  0  0  0  0  0  0  0
  -21.8620   -4.0510   23.7280 C   0  0  0  0  0  3  0  0  0  0  0  0
  -21.9830   -4.8480   22.5760 C   0  0  0  0  0  0  0  0  0  0  0  0
  -22.4230   -4.2950   21.4200 F   0  0  0  0  0  0  0  0  0  0  0  0
  -21.2630   -3.8440   26.0300 F   0  0  0  0  0  0  0  0  0  0  0  0
  -22.7640  -13.5810   21.1590 C   0  0  0  0  0  0  0  0  0  0  0  0
  -22.0550  -12.8770   22.0350 N   0  0  0  0  0  0  0  0  0  0  0  0
  -22.3120  -14.6070   20.6520 O   0  0  0  0  0  0  0  0  0  0  0  0
  -22.4350  -12.0480   22.4670 H   0  0  0  0  0  0  0  0  0  0  0  0
  -21.1190  -13.1720   22.2780 H   0  0  0  0  0  0  0  0  0  0  0  0
  -25.3660  -15.2630   20.2970 N   0  0  0  0  0  0  0  0  0  0  0  0
  -24.5840  -15.9000   20.4030 H   0  0  0  0  0  0  0  0  0  0  0  0
  -26.1740  -15.7020   19.8750 H   0  0  0  0  0  0  0  0  0  0  0  0
  -32.3840  -20.1370   19.7230 C   0  0  1  0  0  0  0  0  0  0  0  0
  -32.2780  -21.4630   19.6080 F   0  0  0  0  0  0  0  0  0  0  0  0
  -33.2550  -19.8950   20.7050 F   0  0  0  0  0  0  0  0  0  0  0  0
  -32.9200  -19.6860   18.5880 F   0  0  0  0  0  0  0  0  0  0  0  0
  -28.0470  -24.9680   20.3940 C   0  0  0  0  0  3  0  0  0  0  0  0
  -28.9490  -23.9130   20.2430 C   0  0  0  0  0  0  0  0  0  0  0  0
  -30.2100  -24.2350   19.9140 O   0  0  0  0  0  0  0  0  0  0  0  0
  -30.7770  -23.5520   20.2380 H   0  0  0  0  0  0  0  0  0  0  0  0
  -28.2820  -26.3800   20.2330 O   0  0  0  0  0  0  0  0  0  0  0  0
  -24.6320  -31.9450   23.2340 C   0  0  0  0  0  0  0  0  0  0  0  0
  -27.2020  -27.3020   20.2010 C   0  0  0  0  0  0  0  0  0  0  0  0
  -23.4200  -30.5480   21.5990 C   0  0  0  0  0  3  0  0  0  0  0  0
  -24.8630  -28.9800   20.1730 C   0  0  0  0  0  0  0  0  0  0  0  0
  -25.9650  -30.8360   21.4200 C   0  0  0  0  0  2  0  0  0  0  0  0
  -26.0370  -29.4480   20.7770 C   0  0  0  0  0  0  0  0  0  0  0  0
  -27.2100  -28.6200   20.7820 C   0  0  0  0  0  3  0  0  0  0  0  0
  -26.0100  -26.9170   19.5520 C   0  0  0  0  0  3  0  0  0  0  0  0
  -24.8560  -27.7260   19.5470 C   0  0  0  0  0  3  0  0  0  0  0  0
  -23.6340  -29.8690   20.2200 C   0  0  0  0  0  2  0  0  0  0  0  0
  -24.6920  -31.1300   22.1400 N   0  0  0  0  0  0  0  0  0  0  0  0
  -23.5500  -32.2310   23.7680 O   0  0  0  0  0  0  0  0  0  0  0  0
  -22.7520  -29.5390   22.5630 C   0  0  0  0  0  0  0  0  0  0  0  0
  -21.4240  -29.3670   22.4360 N   0  0  0  0  0  0  0  0  0  0  0  0
  -23.4260  -28.9150   23.3870 O   0  0  0  0  0  0  0  0  0  0  0  0
  -20.9400  -29.9250   21.7460 H   0  0  0  0  0  0  0  0  0  0  0  0
  -18.0380  -28.1930   22.9540 C   0  0  0  0  0  0  0  0  0  0  0  0
  -20.6000  -28.4340   23.2090 C   0  0  0  0  0  3  0  0  0  0  0  0
  -20.6870  -27.0020   22.6310 C   0  0  0  0  0  2  0  0  0  0  0  0
  -19.5760  -26.6880   21.6230 C   0  0  0  0  0  2  0  0  0  0  0  0
  -18.2000  -26.8440   22.2750 C   0  0  0  0  0  2  0  0  0  0  0  0
  -19.1650  -28.9470   23.3780 C   0  0  0  0  0  0  0  0  0  0  0  0
  -18.9580  -30.2100   23.9730 C   0  0  0  0  0  3  0  0  0  0  0  0
  -17.6580  -30.7190   24.1490 C   0  0  0  0  0  3  0  0  0  0  0  0
  -16.5460  -29.9630   23.7400 C   0  0  0  0  0  3  0  0  0  0  0  0
  -16.7370  -28.7020   23.1480 C   0  0  0  0  0  3  0  0  0  0  0  0
  -25.9170  -32.5730   23.8550 C   0  0  0  0  0  3  0  0  0  0  0  0
  -26.4390  -31.7950   25.1250 C   0  0  1  0  0  0  0  0  0  0  0  0
  -25.3510  -31.5520   26.1980 C   0  0  0  0  0  1  0  0  0  0  0  0
  -27.0210  -30.4200   24.7240 C   0  0  0  0  0  1  0  0  0  0  0  0
  -27.5920  -32.5870   25.7870 C   0  0  0  0  0  1  0  0  0  0  0  0
  -25.6080  -33.9690   24.1990 N   0  0  0  0  0  0  0  0  0  0  0  0
  -25.9090  -35.0280   23.4360 C   0  0  0  0  0  0  0  0  0  0  0  0
  -26.5430  -34.9330   22.3810 O   0  0  0  0  0  0  0  0  0  0  0  0
  -25.0400  -34.1160   25.0200 H   0  0  0  0  0  0  0  0  0  0  0  0
  -24.1480  -36.8060   23.1570 C   0  0  0  0  0  1  0  0  0  0  0  0
  -25.4260  -36.4120   23.9140 C   0  0  0  0  0  3  0  0  0  0  0  0
  -27.5820  -37.3210   24.6610 C   0  0  0  0  0  1  0  0  0  0  0  0
  -26.4430  -37.4760   23.7590 N   0  0  0  0  0  0  0  0  0  0  0  0
  -26.0340  -38.3920   23.9190 H   0  0  0  0  0  0  0  0  0  0  0  0
  1  3  2  0
  2 14  1  0
  2  1  1  0
  4  2  1  0
  5 17  1  0
  6 11  1  0
  7  8  1  0
  7  6  1  0
  9  8  1  0
  9 23  1  0
  9 10  1  0
 11  5  1  0
 11 10  1  0
 12  5  2  0
 13 16  1  0
 13 14  2  0
 14 18  1  0
 15 17  1  0
 15 18  1  0
 16 15  2  0
 17 19  1  0
 20 21  2  0
 21 40  1  0
 22 21  1  0
 22 25  1  0
 23 20  1  0
 23 24  1  0
 24 22  2  0
 25 26  1  0
 26 27  2  0
 28 31  1  0
 28 27  1  0
 29 28  2  0
 30 29  1  0
 30 25  2  0
 31 32  1  0
 32 33  1  0
 33 34  2  0
 35 34  1  0
 35 39  1  0
 36 35  2  0
 37 32  2  0
 37 36  1  0
 38 37  1  0
 40 41  1  0
 41 44  1  0
 41 43  1  0
 42 40  2  0
 45 46  1  0
 45 20  1  0
 47 45  1  0
 48 13  1  0
 48 50  1  1
 49 48  1  0
 51 48  1  0
 53 52  2  0
 53  1  1  0
 54 55  1  0
 54 53  1  0
 56 52  1  0
 57 68  2  0
 58 56  1  0
 58 63  1  0
 59 67  1  0
 59 69  1  0
 60 66  1  0
 60 62  1  0
 61 67  1  0
 62 63  2  0
 62 61  1  0
 64 58  2  0
 65 64  1  0
 65 60  2  0
 66 59  1  0
 67 57  1  0
 69 71  2  0
 70 69  1  0
 72 70  1  0
 73 82  2  0
 73 78  1  0
 74 70  1  0
 74 78  1  0
 75 74  1  0
 76 77  1  0
 76 75  1  0
 77 73  1  0
 78 79  2  0
 79 80  1  0
 81 80  2  0
 82 81  1  0
 83 57  1  0
 83 88  1  0
 83 84  1  0
 84 87  1  1
 84 85  1  0
 86 84  1  0
 88 91  1  0
 89 93  1  0
 89 88  1  0
 90 89  2  0
 93 92  1  0
 95 93  1  0
 95 96  1  0
 95 94  1  0
M  ISO  4   5 100  17 100  52 101  56 101
M  END
>  <TORSDO>  (61) 
F 19

>  <SCORE>  (61) 
-14.558

>  <name>  (61) 
60

>  <ligand_id>  (61) 
60

>  <original_smiles>  (61) 
[H]OC(C(=O)N([H])c1sc(N([H])C(=O)N2C([H])([H])C([H])([H])C([H])([H])C([H])(n3nc(-c4c([H])c([H])c(Oc5c([H])c([H])c(F)c([H])c5F)c([H])c4[H])c(C(=O)N([H])[H])c3N([H])[H])C2([H])[H])nc1C(F)(F)F)=C([H])Oc1c([H])c([H])c2c(c1[H])C([H])([H])N(C(=O)C([H])(N([H])C(=O)C([H])(N([H])C([H])([H])[H])C([H])([H])[H])C(C([H])([H])[H])(C([H])([H])[H])C([H])([H])[H])C([H])(C(=O)N([H])C1([H])c3c([H])c([H])c([H])c([H])c3C([H])([H])C([H])([H])C1([H])[H])C2([H])[H]

>  <smiles>  (61) 
[H]OC(C(=O)N([H])c1sc(N([H])C(=O)N2C([H])([H])C([H])([H])C([H])([H])C([H])(n3nc(-c4c([H])c([H])c(Oc5c([H])c([H])c(F)c([H])c5F)c([H])c4[H])c(C(=O)N([H])[H])c3N([H])[H])C2([H])[H])nc1C(F)(F)F)=C([H])Oc1c([H])c([H])c2c(c1[H])C([H])([H])N(C(=O)C([H])(N([H])C(=O)C([H])(N([H])C([H])([H])[H])C([H])([H])[H])C(C([H])([H])[H])(C([H])([H])[H])C([H])([H])[H])C([H])(C(=O)N([H])C1([H])c3c([H])c([H])c([H])c([H])c3C([H])([H])C([H])([H])C1([H])[H])C2([H])[H]

$$$$
61:0:0
     RDKit          3D

 99107  0  0  1  0  0  0  0  0999 V2000
  -31.6610  -18.9840   21.8170 C   0  0  0  0  0  3  0  0  0  0  0  0
  -30.8770  -20.0940   21.4340 C   0  0  0  0  0  0  0  0  0  0  0  0
  -31.2920  -17.6720   21.4670 C   0  0  0  0  0  0  0  0  0  0  0  0
  -29.7210  -19.8780   20.6510 C   0  0  0  0  0  0  0  0  0  0  0  0
  -30.1340  -17.4410   20.6810 C   0  0  0  0  0  0  0  0  0  0  0  0
  -29.3680  -18.5650   20.3180 N   0  0  0  0  0  0  0  0  0  0  0  0
  -28.8380  -20.9940   20.3560 N   0  0  0  0  0  4  0  0  0  0  0  0
  -32.0290  -16.6480   21.9620 F   0  0  0  0  0  0  0  0  0  0  0  0
  -27.9010  -20.6720   20.1520 H   0  0  0  0  0  0  0  0  0  0  0  0
  -30.5140  -14.8920   20.0800 C   0  0  0  0  0  0  0  0  0  0  0  0
  -30.2490  -12.6660   18.9500 C   0  0  0  0  0  2  0  0  0  0  0  0
  -29.2330  -12.7830   17.7930 C   0  0  0  0  0  2  0  0  0  0  0  0
  -27.7960  -12.5740   18.3060 C   0  0  0  0  0  2  0  0  0  0  0  0
  -27.4950  -13.3940   19.5890 C   0  0  0  0  0  3  0  0  0  0  0  0
  -28.6250  -13.2700   20.6350 C   0  0  0  0  0  2  0  0  0  0  0  0
  -29.8740  -13.6720   19.9750 N   0  0  0  0  0  0  0  0  0  0  0  0
  -31.6690  -14.9850   19.6520 O   0  0  0  0  0  0  0  0  0  0  0  0
  -29.7610  -16.0190   20.4140 N   0  0  0  0  0  0  0  0  0  0  0  0
  -28.7780  -15.8340   20.5100 H   0  0  0  0  0  0  0  0  0  0  0  0
  -25.1430  -13.9200   20.4660 C   0  0  0  0  0  0  0  0  0  0  0  0
  -24.1140  -13.1170   20.8750 C   0  0  0  0  0  0  0  0  0  0  0  0
  -24.5980  -11.7760   20.7830 C   0  0  0  0  0  0  0  0  0  0  0  0
  -26.1880  -13.0670   20.1480 N   0  0  0  0  0  0  0  0  0  0  0  0
  -25.8700  -11.7700   20.4010 N   0  0  0  0  0  0  0  0  0  0  0  0
  -23.9050  -10.4960   20.9800 C   0  0  0  0  0  0  0  0  0  0  0  0
  -24.3740   -9.5350   21.9010 C   0  0  0  0  0  3  0  0  0  0  0  0
  -23.6780   -8.3200   22.0860 C   0  0  0  0  0  3  0  0  0  0  0  0
  -22.5000   -8.0590   21.3490 C   0  0  0  0  0  0  0  0  0  0  0  0
  -22.0490   -9.0090   20.4150 C   0  0  0  0  0  3  0  0  0  0  0  0
  -22.7460  -10.2140   20.2290 C   0  0  0  0  0  3  0  0  0  0  0  0
  -21.7720   -6.8970   21.4430 O   0  0  0  0  0  0  0  0  0  0  0  0
  -21.7290   -6.1680   22.6050 C   0  0  0  0  0  0  0  0  0  0  0  0
  -21.2590   -6.7240   23.8150 C   0  0  0  0  0  3  0  0  0  0  0  0
  -21.1650   -5.9210   24.9690 C   0  0  0  0  0  3  0  0  0  0  0  0
  -21.5300   -4.5620   24.9130 C   0  0  0  0  0  0  0  0  0  0  0  0
  -21.9920   -4.0060   23.7080 C   0  0  0  0  0  3  0  0  0  0  0  0
  -22.0880   -4.8060   22.5560 C   0  0  0  0  0  0  0  0  0  0  0  0
  -22.5140   -4.2600   21.3920 F   0  0  0  0  0  0  0  0  0  0  0  0
  -21.4320   -3.7870   26.0190 F   0  0  0  0  0  0  0  0  0  0  0  0
  -22.7260  -13.5620   21.2350 C   0  0  0  0  0  0  0  0  0  0  0  0
  -22.0540  -12.8230   22.1110 N   0  0  0  0  0  0  0  0  0  0  0  0
  -22.2470  -14.5970   20.7750 O   0  0  0  0  0  0  0  0  0  0  0  0
  -22.4560  -11.9850   22.5040 H   0  0  0  0  0  0  0  0  0  0  0  0
  -21.1260  -13.1000   22.3950 H   0  0  0  0  0  0  0  0  0  0  0  0
  -25.2700  -15.2980   20.3150 N   0  0  0  0  0  0  0  0  0  0  0  0
  -24.4900  -15.9250   20.4800 H   0  0  0  0  0  0  0  0  0  0  0  0
  -26.0690  -15.7650   19.9070 H   0  0  0  0  0  0  0  0  0  0  0  0
  -31.1980  -21.3650   21.9200 N   0  0  0  0  0  0  0  0  0  0  0  0
  -31.7330  -21.4370   22.7810 H   0  0  0  0  0  0  0  0  0  0  0  0
  -30.4630  -22.0680   21.8480 H   0  0  0  0  0  0  0  0  0  0  0  0
  -29.0970  -22.3530   19.6920 C   0  0  0  0  0  0  0  0  0  0  0  0
  -28.8890  -23.7780   20.4690 C   0  0  0  0  0  0  0  0  0  0  0  0
  -29.3050  -23.9280   21.6220 O   0  0  0  0  0  0  0  0  0  0  0  0
  -28.1370  -25.0070   19.7470 C   0  0  0  0  0  2  0  0  0  0  0  0
  -28.3190  -26.4380   20.2160 O   0  0  0  0  0  0  0  0  0  0  0  0
  -24.6190  -31.9330   23.2290 C   0  0  0  0  0  0  0  0  0  0  0  0
  -27.2290  -27.3490   20.1350 C   0  0  0  0  0  0  0  0  0  0  0  0
  -23.4150  -30.5340   21.5930 C   0  0  0  0  0  3  0  0  0  0  0  0
  -24.8660  -29.0030   20.1410 C   0  0  0  0  0  0  0  0  0  0  0  0
  -25.9570  -30.8520   21.4010 C   0  0  0  0  0  2  0  0  0  0  0  0
  -26.0390  -29.4740   20.7430 C   0  0  0  0  0  0  0  0  0  0  0  0
  -27.2200  -28.6580   20.7350 C   0  0  0  0  0  3  0  0  0  0  0  0
  -26.0360  -26.9680   19.4770 C   0  0  0  0  0  3  0  0  0  0  0  0
  -24.8720  -27.7590   19.4950 C   0  0  0  0  0  3  0  0  0  0  0  0
  -23.6260  -29.8730   20.2060 C   0  0  0  0  0  2  0  0  0  0  0  0
  -24.6830  -31.1250   22.1290 N   0  0  0  0  0  0  0  0  0  0  0  0
  -23.5360  -32.2010   23.7710 O   0  0  0  0  0  0  0  0  0  0  0  0
  -22.7640  -29.5070   22.5520 C   0  0  0  0  0  0  0  0  0  0  0  0
  -21.4400  -29.3120   22.4280 N   0  0  0  0  0  0  0  0  0  0  0  0
  -23.4510  -28.8910   23.3710 O   0  0  0  0  0  0  0  0  0  0  0  0
  -20.9430  -29.8620   21.7410 H   0  0  0  0  0  0  0  0  0  0  0  0
  -18.0790  -28.0690   22.9390 C   0  0  0  0  0  0  0  0  0  0  0  0
  -20.6350  -28.3630   23.2010 C   0  0  0  0  0  3  0  0  0  0  0  0
  -20.7540  -26.9330   22.6240 C   0  0  0  0  0  2  0  0  0  0  0  0
  -19.6530  -26.5970   21.6130 C   0  0  0  0  0  2  0  0  0  0  0  0
  -18.2710  -26.7230   22.2610 C   0  0  0  0  0  2  0  0  0  0  0  0
  -19.1890  -28.8460   23.3660 C   0  0  0  0  0  0  0  0  0  0  0  0
  -18.9550  -30.1050   23.9610 C   0  0  0  0  0  3  0  0  0  0  0  0
  -17.6430  -30.5870   24.1330 C   0  0  0  0  0  3  0  0  0  0  0  0
  -16.5480  -29.8080   23.7220 C   0  0  0  0  0  3  0  0  0  0  0  0
  -16.7670  -28.5510   23.1310 C   0  0  0  0  0  3  0  0  0  0  0  0
  -25.9000  -32.5750   23.8450 C   0  0  0  0  0  3  0  0  0  0  0  0
  -25.5820  -33.9720   24.1720 N   0  0  0  0  0  0  0  0  0  0  0  0
  -25.9090  -35.0280   23.4140 C   0  0  0  0  0  0  0  0  0  0  0  0
  -26.5800  -34.9270   22.3830 O   0  0  0  0  0  0  0  0  0  0  0  0
  -24.9860  -34.1250   24.9720 H   0  0  0  0  0  0  0  0  0  0  0  0
  -24.1800  -36.8200   23.0550 C   0  0  0  0  0  1  0  0  0  0  0  0
  -25.4180  -36.4150   23.8730 C   0  0  0  0  0  3  0  0  0  0  0  0
  -27.5440  -37.3030   24.7200 C   0  0  0  0  0  1  0  0  0  0  0  0
  -26.4490  -37.4700   23.7680 N   0  0  0  0  0  0  0  0  0  0  0  0
  -26.0410  -38.3890   23.9110 H   0  0  0  0  0  0  0  0  0  0  0  0
  -26.4220  -31.8110   25.1230 C   0  0  1  0  0  0  0  0  0  0  0  0
  -25.3290  -31.5620   26.1890 C   0  0  0  0  0  1  0  0  0  0  0  0
  -27.0220  -30.4390   24.7370 C   0  0  0  0  0  1  0  0  0  0  0  0
  -27.5630  -32.6200   25.7850 C   0  0  0  0  0  1  0  0  0  0  0  0
  -30.4040  -22.3720   18.8550 C   0  0  0  0  0  2  0  0  0  0  0  0
  -29.4930  -21.7730   16.5360 C   0  0  0  0  0  1  0  0  0  0  0  0
  -31.8890  -21.2640   17.1290 C   0  0  0  0  0  1  0  0  0  0  0  0
  -30.4560  -21.3810   17.6690 C   0  0  0  0  0  3  0  0  0  0  0  0
  2  1  2  0
  2 48  1  0
  3  1  1  0
  3  8  1  0
  4  2  1  0
  5  3  2  0
  6  4  2  0
  6  5  1  0
  7  4  1  0
  9  7  1  0
 10 18  1  0
 11 16  1  0
 12 13  1  0
 12 11  1  0
 14 13  1  0
 14 23  1  0
 14 15  1  0
 16 10  1  0
 16 15  1  0
 17 10  2  0
 18 19  1  0
 18  5  1  0
 20 21  2  0
 21 40  1  0
 22 21  1  0
 22 25  1  0
 23 24  1  0
 23 20  1  0
 24 22  2  0
 25 26  1  0
 26 27  2  0
 28 31  1  0
 28 27  1  0
 29 28  2  0
 30 29  1  0
 30 25  2  0
 31 32  1  0
 32 33  1  0
 33 34  2  0
 35 34  1  0
 35 39  1  0
 36 35  2  0
 37 32  2  0
 37 36  1  0
 38 37  1  0
 40 41  1  0
 41 44  1  0
 41 43  1  0
 42 40  2  0
 45 20  1  0
 45 46  1  0
 47 45  1  0
 48 49  1  0
 50 48  1  0
 51  7  2  3
 51 52  1  0
 52 53  2  0
 54 55  1  0
 54 52  1  0
 56 67  2  0
 57 55  1  0
 57 62  1  0
 58 66  1  0
 58 68  1  0
 59 65  1  0
 59 61  1  0
 60 66  1  0
 61 60  1  0
 62 61  2  0
 63 64  1  0
 63 57  2  0
 64 59  2  0
 65 58  1  0
 66 56  1  0
 68 70  2  0
 69 68  1  0
 71 69  1  0
 72 81  2  0
 72 77  1  0
 73 69  1  0
 73 77  1  0
 74 73  1  0
 75 76  1  0
 75 74  1  0
 76 72  1  0
 77 78  2  0
 78 79  1  0
 80 79  2  0
 81 80  1  0
 82 56  1  0
 82 83  1  0
 82 92  1  0
 83 86  1  0
 84 88  1  0
 84 83  1  0
 85 84  2  0
 88 87  1  0
 90 88  1  0
 90 91  1  0
 90 89  1  0
 92 95  1  1
 92 93  1  0
 94 92  1  0
 96 51  1  0
 97 99  1  0
 98 99  1  0
 99 96  1  0
M  ISO  4  10 100  18 100  54 101  55 101
M  END
>  <TORSDO>  (62) 
F 22

>  <SCORE>  (62) 
-13.285

>  <name>  (62) 
61

>  <ligand_id>  (62) 
61

>  <original_smiles>  (62) 
[H]c1c([H])c([H])c2c(c1[H])C([H])([H])C([H])([H])C([H])([H])C2([H])N([H])C(=O)C1([H])N(C(=O)C([H])(N([H])C(=O)C([H])(N([H])C([H])([H])[H])C([H])([H])[H])C(C([H])([H])[H])(C([H])([H])[H])C([H])([H])[H])C([H])([H])c2c([H])c(OC([H])([H])C(=O)C([H])(N([H])c3nc(N([H])C(=O)N4C([H])([H])C([H])([H])C([H])([H])C([H])(n5nc(-c6c([H])c([H])c(Oc7c([H])c([H])c(F)c([H])c7F)c([H])c6[H])c(C(=O)N([H])[H])c5N([H])[H])C4([H])[H])c(F)c([H])c3N([H])[H])C([H])([H])C([H])(C([H])([H])[H])C([H])([H])[H])c([H])c([H])c2C1([H])[H]

>  <smiles>  (62) 
[H]c1c([H])c([H])c2c(c1[H])C([H])([H])C([H])([H])C([H])([H])C2([H])N([H])C(=O)C1([H])N(C(=O)C([H])(N([H])C(=O)C([H])(N([H])C([H])([H])[H])C([H])([H])[H])C(C([H])([H])[H])(C([H])([H])[H])C([H])([H])[H])C([H])([H])c2c([H])c(OC([H])([H])C(=O)C([H])(N([H])c3nc(N([H])C(=O)N4C([H])([H])C([H])([H])C([H])([H])C([H])(n5nc(-c6c([H])c([H])c(Oc7c([H])c([H])c(F)c([H])c7F)c([H])c6[H])c(C(=O)N([H])[H])c5N([H])[H])C4([H])[H])c(F)c([H])c3N([H])[H])C([H])([H])C([H])(C([H])([H])[H])C([H])([H])[H])c([H])c([H])c2C1([H])[H]

$$$$
62:0:0
     RDKit          3D

 96104  0  0  1  0  0  0  0  0999 V2000
  -30.5290  -17.8950   19.1800 C   0  0  0  0  0  0  0  0  0  0  0  0
  -30.0770  -17.3300   20.3750 C   0  0  0  0  0  0  0  0  0  0  0  0
  -29.9520  -19.9390   20.1720 C   0  0  0  0  0  0  0  0  0  0  0  0
  -30.5430  -19.3200   19.1520 N   0  0  0  0  0  0  0  0  0  0  0  0
  -29.8740  -21.3750   20.2610 N   0  0  0  0  0  0  0  0  0  0  0  0
  -29.4230  -18.6940   21.3550 S   0  0  0  0  0  0  0  0  0  0  0  0
  -30.7010  -21.7780   19.8280 H   0  0  0  0  0  0  0  0  0  0  0  0
  -30.7710  -14.8870   20.5080 C   0  0  0  0  0  0  0  0  0  0  0  0
  -30.6410  -12.6020   19.5240 C   0  0  0  0  0  2  0  0  0  0  0  0
  -29.7470  -12.6440   18.2630 C   0  0  0  0  0  2  0  0  0  0  0  0
  -28.2560  -12.5020   18.6290 C   0  0  0  0  0  2  0  0  0  0  0  0
  -27.8370  -13.3960   19.8290 C   0  0  0  0  0  3  0  0  0  0  0  0
  -28.8500  -13.3000   20.9910 C   0  0  0  0  0  2  0  0  0  0  0  0
  -30.1710  -13.6510   20.4550 N   0  0  0  0  0  0  0  0  0  0  0  0
  -31.9510  -15.0280   20.1810 O   0  0  0  0  0  0  0  0  0  0  0  0
  -29.9640  -15.9820   20.7660 N   0  0  0  0  0  0  0  0  0  0  0  0
  -29.0950  -15.7430   21.2210 H   0  0  0  0  0  0  0  0  0  0  0  0
  -25.4170  -13.9830   20.4540 C   0  0  0  0  0  0  0  0  0  0  0  0
  -24.3420  -13.2050   20.7930 C   0  0  0  0  0  0  0  0  0  0  0  0
  -24.8150  -11.8580   20.7980 C   0  0  0  0  0  0  0  0  0  0  0  0
  -26.4740  -13.1070   20.2690 N   0  0  0  0  0  0  0  0  0  0  0  0
  -26.1160  -11.8260   20.5400 N   0  0  0  0  0  0  0  0  0  0  0  0
  -24.0900  -10.5940   20.9800 C   0  0  0  0  0  0  0  0  0  0  0  0
  -24.4890   -9.6460   21.9470 C   0  0  0  0  0  3  0  0  0  0  0  0
  -23.7640   -8.4460   22.1150 C   0  0  0  0  0  3  0  0  0  0  0  0
  -22.6270   -8.1870   21.3150 C   0  0  0  0  0  0  0  0  0  0  0  0
  -22.2470   -9.1240   20.3390 C   0  0  0  0  0  3  0  0  0  0  0  0
  -22.9720  -10.3150   20.1690 C   0  0  0  0  0  3  0  0  0  0  0  0
  -21.8780   -7.0380   21.3900 O   0  0  0  0  0  0  0  0  0  0  0  0
  -21.7700   -6.3210   22.5550 C   0  0  0  0  0  0  0  0  0  0  0  0
  -21.2450   -6.8940   23.7340 C   0  0  0  0  0  3  0  0  0  0  0  0
  -21.0870   -6.1030   24.8900 C   0  0  0  0  0  3  0  0  0  0  0  0
  -21.4460   -4.7430   24.8690 C   0  0  0  0  0  0  0  0  0  0  0  0
  -21.9650   -4.1700   23.6940 C   0  0  0  0  0  3  0  0  0  0  0  0
  -22.1230   -4.9570   22.5410 C   0  0  0  0  0  0  0  0  0  0  0  0
  -22.6040   -4.3950   21.4040 F   0  0  0  0  0  0  0  0  0  0  0  0
  -21.2870   -3.9810   25.9760 F   0  0  0  0  0  0  0  0  0  0  0  0
  -22.9330  -13.6780   21.0050 C   0  0  0  0  0  0  0  0  0  0  0  0
  -22.1800  -12.9910   21.8560 N   0  0  0  0  0  0  0  0  0  0  0  0
  -22.5090  -14.6920   20.4540 O   0  0  0  0  0  0  0  0  0  0  0  0
  -22.5340  -12.1690   22.3230 H   0  0  0  0  0  0  0  0  0  0  0  0
  -21.2330  -13.2930   22.0440 H   0  0  0  0  0  0  0  0  0  0  0  0
  -25.5780  -15.3530   20.2640 N   0  0  0  0  0  0  0  0  0  0  0  0
  -24.7980  -15.9970   20.3480 H   0  0  0  0  0  0  0  0  0  0  0  0
  -26.4290  -15.8040   19.9550 H   0  0  0  0  0  0  0  0  0  0  0  0
  -30.9510  -17.2070   17.8990 C   0  0  1  0  0  0  0  0  0  0  0  0
  -32.2790  -17.1180   17.7980 F   0  0  0  0  0  0  0  0  0  0  0  0
  -30.4350  -15.9860   17.7750 F   0  0  0  0  0  0  0  0  0  0  0  0
  -30.5160  -17.8880   16.8360 F   0  0  0  0  0  0  0  0  0  0  0  0
  -27.9110  -22.2160   21.5380 C   0  0  0  0  0  1  0  0  0  0  0  0
  -28.8170  -22.4510   20.3230 C   0  0  0  0  0  3  0  0  0  0  0  0
  -29.2850  -24.0100   20.3030 C   0  0  0  0  0  0  0  0  0  0  0  0
  -30.4040  -24.3310   20.7120 O   0  0  0  0  0  0  0  0  0  0  0  0
  -28.4800  -25.1570   18.1780 C   0  0  0  0  0  1  0  0  0  0  0  0
  -28.3220  -25.1440   19.7140 C   0  0  0  0  0  3  0  0  0  0  0  0
  -28.4790  -26.5540   20.2130 O   0  0  0  0  0  0  0  0  0  0  0  0
  -24.6300  -31.9160   23.2820 C   0  0  0  0  0  0  0  0  0  0  0  0
  -27.3590  -27.4250   20.1710 C   0  0  0  0  0  0  0  0  0  0  0  0
  -23.4830  -30.5480   21.5820 C   0  0  0  0  0  3  0  0  0  0  0  0
  -24.9840  -29.0470   20.1620 C   0  0  0  0  0  0  0  0  0  0  0  0
  -26.0330  -30.8810   21.4750 C   0  0  0  0  0  2  0  0  0  0  0  0
  -26.1410  -29.5190   20.7940 C   0  0  0  0  0  0  0  0  0  0  0  0
  -27.3320  -28.7220   20.7880 C   0  0  0  0  0  3  0  0  0  0  0  0
  -26.1620  -27.0180   19.5310 C   0  0  0  0  0  3  0  0  0  0  0  0
  -24.9980  -27.8010   19.5270 C   0  0  0  0  0  3  0  0  0  0  0  0
  -23.7420  -29.9150   20.1930 C   0  0  0  0  0  2  0  0  0  0  0  0
  -24.7350  -31.1290   22.1700 N   0  0  0  0  0  0  0  0  0  0  0  0
  -23.5270  -32.1710   23.7910 O   0  0  0  0  0  0  0  0  0  0  0  0
  -22.8020  -29.4990   22.4980 C   0  0  0  0  0  0  0  0  0  0  0  0
  -21.4750  -29.3420   22.3530 N   0  0  0  0  0  0  0  0  0  0  0  0
  -23.4650  -28.8350   23.2970 O   0  0  0  0  0  0  0  0  0  0  0  0
  -20.9980  -29.9220   21.6760 H   0  0  0  0  0  0  0  0  0  0  0  0
  -18.0740  -28.2010   22.8360 C   0  0  0  0  0  0  0  0  0  0  0  0
  -20.6400  -28.3840   23.0830 C   0  0  0  0  0  3  0  0  0  0  0  0
  -20.7020  -26.9820   22.4320 C   0  0  0  0  0  2  0  0  0  0  0  0
  -19.5810  -26.7380   21.4200 C   0  0  0  0  0  2  0  0  0  0  0  0
  -18.2090  -26.8880   22.0860 C   0  0  0  0  0  2  0  0  0  0  0  0
  -19.2160  -28.9130   23.2870 C   0  0  0  0  0  0  0  0  0  0  0  0
  -19.0340  -30.1510   23.9430 C   0  0  0  0  0  3  0  0  0  0  0  0
  -17.7440  -30.6740   24.1510 C   0  0  0  0  0  3  0  0  0  0  0  0
  -16.6160  -29.9570   23.7140 C   0  0  0  0  0  3  0  0  0  0  0  0
  -16.7820  -28.7210   23.0650 C   0  0  0  0  0  3  0  0  0  0  0  0
  -25.8850  -32.5460   23.9570 C   0  0  0  0  0  3  0  0  0  0  0  0
  -26.3690  -31.7510   25.2320 C   0  0  1  0  0  0  0  0  0  0  0  0
  -25.2460  -31.4840   26.2610 C   0  0  0  0  0  1  0  0  0  0  0  0
  -26.9750  -30.3870   24.8300 C   0  0  0  0  0  1  0  0  0  0  0  0
  -27.4910  -32.5410   25.9460 C   0  0  0  0  0  1  0  0  0  0  0  0
  -25.5510  -33.9320   24.3110 N   0  0  0  0  0  0  0  0  0  0  0  0
  -25.8970  -35.0080   23.5900 C   0  0  0  0  0  0  0  0  0  0  0  0
  -26.6010  -34.9360   22.5790 O   0  0  0  0  0  0  0  0  0  0  0  0
  -24.9260  -34.0610   25.0920 H   0  0  0  0  0  0  0  0  0  0  0  0
  -24.1780  -36.8050   23.2100 C   0  0  0  0  0  1  0  0  0  0  0  0
  -25.3850  -36.3820   24.0640 C   0  0  0  0  0  3  0  0  0  0  0  0
  -27.4700  -37.2540   25.0230 C   0  0  0  0  0  1  0  0  0  0  0  0
  -26.4160  -37.4420   24.0290 N   0  0  0  0  0  0  0  0  0  0  0  0
  -26.0000  -38.3570   24.1740 H   0  0  0  0  0  0  0  0  0  0  0  0
  1  2  2  0
  2 16  1  0
  2  6  1  0
  3  5  1  0
  3  6  1  0
  4  1  1  0
  4  3  2  0
  5 51  1  0
  7  5  1  0
  8 16  1  0
  9 14  1  0
 10 11  1  0
 10  9  1  0
 12 11  1  0
 12 21  1  0
 12 13  1  0
 14  8  1  0
 14 13  1  0
 15  8  2  0
 16 17  1  0
 18 19  2  0
 19 20  1  0
 19 38  1  0
 20 23  1  0
 21 18  1  0
 21 22  1  0
 22 20  2  0
 23 24  1  0
 24 25  2  0
 26 29  1  0
 26 25  1  0
 27 26  2  0
 28 27  1  0
 28 23  2  0
 29 30  1  0
 30 31  1  0
 31 32  2  0
 33 32  1  0
 33 37  1  0
 34 33  2  0
 35 30  2  0
 35 34  1  0
 36 35  1  0
 38 39  1  0
 39 42  1  0
 39 41  1  0
 40 38  2  0
 43 44  1  0
 43 18  1  0
 45 43  1  0
 46  1  1  0
 46 47  1  6
 48 46  1  0
 49 46  1  0
 51 50  1  0
 52 51  1  0
 52 53  2  0
 55 54  1  0
 55 56  1  0
 55 52  1  0
 57 68  2  0
 58 56  1  0
 58 63  1  0
 59 67  1  0
 59 69  1  0
 60 66  1  0
 60 62  1  0
 61 67  1  0
 62 61  1  0
 63 62  2  0
 64 58  2  0
 65 64  1  0
 65 60  2  0
 66 59  1  0
 67 57  1  0
 69 71  2  0
 70 69  1  0
 72 70  1  0
 73 82  2  0
 73 78  1  0
 74 70  1  0
 74 78  1  0
 75 74  1  0
 76 77  1  0
 76 75  1  0
 77 73  1  0
 78 79  2  0
 79 80  1  0
 81 80  2  0
 82 81  1  0
 83 57  1  0
 83 88  1  0
 83 84  1  0
 84 87  1  1
 84 85  1  0
 86 84  1  0
 88 91  1  0
 89 93  1  0
 89 88  1  0
 90 89  2  0
 93 92  1  0
 95 93  1  0
 95 96  1  0
 95 94  1  0
M  ISO  4   8 100  16 100  55 101  56 101
M  END
>  <TORSDO>  (63) 
F 20

>  <SCORE>  (63) 
-13.023

>  <name>  (63) 
62

>  <ligand_id>  (63) 
62

>  <original_smiles>  (63) 
[H]c1c([H])c([H])c2c(c1[H])C([H])([H])C([H])([H])C([H])([H])C2([H])N([H])C(=O)C1([H])N(C(=O)C([H])(N([H])C(=O)C([H])(N([H])C([H])([H])[H])C([H])([H])[H])C(C([H])([H])[H])(C([H])([H])[H])C([H])([H])[H])C([H])([H])c2c([H])c(OC([H])(C(=O)C([H])(N([H])c3nc(C(F)(F)F)c(N([H])C(=O)N4C([H])([H])C([H])([H])C([H])([H])C([H])(n5nc(-c6c([H])c([H])c(Oc7c([H])c([H])c(F)c([H])c7F)c([H])c6[H])c(C(=O)N([H])[H])c5N([H])[H])C4([H])[H])s3)C([H])([H])[H])C([H])([H])[H])c([H])c([H])c2C1([H])[H]

>  <smiles>  (63) 
[H]c1c([H])c([H])c2c(c1[H])C([H])([H])C([H])([H])C([H])([H])C2([H])N([H])C(=O)C1([H])N(C(=O)C([H])(N([H])C(=O)C([H])(N([H])C([H])([H])[H])C([H])([H])[H])C(C([H])([H])[H])(C([H])([H])[H])C([H])([H])[H])C([H])([H])c2c([H])c(OC([H])(C(=O)C([H])(N([H])c3nc(C(F)(F)F)c(N([H])C(=O)N4C([H])([H])C([H])([H])C([H])([H])C([H])(n5nc(-c6c([H])c([H])c(Oc7c([H])c([H])c(F)c([H])c7F)c([H])c6[H])c(C(=O)N([H])[H])c5N([H])[H])C4([H])[H])s3)C([H])([H])[H])C([H])([H])[H])c([H])c([H])c2C1([H])[H]

$$$$
63:0:0
     RDKit          3D

 94102  0  0  1  0  0  0  0  0999 V2000
  -28.8910  -22.3380   20.7700 C   0  0  0  0  0  0  0  0  0  0  0  0
  -29.4260  -21.2110   20.1520 N   0  0  0  0  0  0  0  0  0  0  0  0
  -28.2530  -22.2220   21.8190 O   0  0  0  0  0  0  0  0  0  0  0  0
  -29.7600  -21.4050   19.2190 H   0  0  0  0  0  0  0  0  0  0  0  0
  -30.5960  -14.9030   20.2440 C   0  0  0  0  0  0  0  0  0  0  0  0
  -30.3830  -12.6240   19.2180 C   0  0  0  0  0  2  0  0  0  0  0  0
  -29.4080  -12.6600   18.0210 C   0  0  0  0  0  2  0  0  0  0  0  0
  -27.9550  -12.4610   18.4980 C   0  0  0  0  0  2  0  0  0  0  0  0
  -27.6000  -13.3600   19.7110 C   0  0  0  0  0  3  0  0  0  0  0  0
  -28.6910  -13.3120   20.8030 C   0  0  0  0  0  2  0  0  0  0  0  0
  -29.9590  -13.6820   20.1630 N   0  0  0  0  0  0  0  0  0  0  0  0
  -31.7880  -14.9770   19.9280 O   0  0  0  0  0  0  0  0  0  0  0  0
  -31.2620  -17.6040   21.6470 C   0  0  0  0  0  3  0  0  0  0  0  0
  -31.6620  -18.8720   22.0860 C   0  0  0  0  0  0  0  0  0  0  0  0
  -31.0200  -20.0360   21.6240 C   0  0  0  0  0  0  0  0  0  0  0  0
  -30.2040  -17.4590   20.7350 C   0  0  0  0  0  0  0  0  0  0  0  0
  -29.9320  -19.9250   20.7140 C   0  0  0  0  0  0  0  0  0  0  0  0
  -29.5610  -18.6310   20.3000 N   0  0  0  0  0  0  0  0  0  0  0  0
  -29.8250  -16.0570   20.4110 N   0  0  0  0  0  0  0  0  0  0  0  0
  -32.7000  -18.9700   22.9550 F   0  0  0  0  0  0  0  0  0  0  0  0
  -31.6620  -21.5600   22.1470 Cl  0  0  0  0  0  0  0  0  0  0  0  0
  -28.8330  -15.8980   20.3560 H   0  0  0  0  0  0  0  0  0  0  0  0
  -25.2410  -13.9290   20.5370 C   0  0  0  0  0  0  0  0  0  0  0  0
  -24.1880  -13.1430   20.9230 C   0  0  0  0  0  0  0  0  0  0  0  0
  -24.6530  -11.7950   20.8460 C   0  0  0  0  0  0  0  0  0  0  0  0
  -26.2760  -13.0570   20.2440 N   0  0  0  0  0  0  0  0  0  0  0  0
  -25.9340  -11.7670   20.4930 N   0  0  0  0  0  0  0  0  0  0  0  0
  -23.9360  -10.5270   21.0270 C   0  0  0  0  0  0  0  0  0  0  0  0
  -24.3740   -9.5560   21.9540 C   0  0  0  0  0  3  0  0  0  0  0  0
  -23.6540   -8.3520   22.1230 C   0  0  0  0  0  3  0  0  0  0  0  0
  -22.4840   -8.1130   21.3650 C   0  0  0  0  0  0  0  0  0  0  0  0
  -22.0670   -9.0720   20.4250 C   0  0  0  0  0  3  0  0  0  0  0  0
  -22.7870  -10.2670   20.2540 C   0  0  0  0  0  3  0  0  0  0  0  0
  -21.7350   -6.9630   21.4450 O   0  0  0  0  0  0  0  0  0  0  0  0
  -21.6590   -6.2330   22.6040 C   0  0  0  0  0  0  0  0  0  0  0  0
  -21.1700   -6.7920   23.8060 C   0  0  0  0  0  3  0  0  0  0  0  0
  -21.0420   -5.9860   24.9540 C   0  0  0  0  0  3  0  0  0  0  0  0
  -21.3930   -4.6250   24.9040 C   0  0  0  0  0  0  0  0  0  0  0  0
  -21.8770   -4.0670   23.7070 C   0  0  0  0  0  3  0  0  0  0  0  0
  -22.0070   -4.8680   22.5600 C   0  0  0  0  0  0  0  0  0  0  0  0
  -22.4510   -4.3200   21.4030 F   0  0  0  0  0  0  0  0  0  0  0  0
  -21.2630   -3.8490   26.0050 F   0  0  0  0  0  0  0  0  0  0  0  0
  -22.7990  -13.6110   21.2470 C   0  0  0  0  0  0  0  0  0  0  0  0
  -22.0950  -12.8870   22.1090 N   0  0  0  0  0  0  0  0  0  0  0  0
  -22.3490  -14.6530   20.7710 O   0  0  0  0  0  0  0  0  0  0  0  0
  -22.4740  -12.0460   22.5140 H   0  0  0  0  0  0  0  0  0  0  0  0
  -21.1640  -13.1790   22.3670 H   0  0  0  0  0  0  0  0  0  0  0  0
  -25.3950  -15.3040   20.3880 N   0  0  0  0  0  0  0  0  0  0  0  0
  -24.6250  -15.9450   20.5400 H   0  0  0  0  0  0  0  0  0  0  0  0
  -26.2180  -15.7600   20.0150 H   0  0  0  0  0  0  0  0  0  0  0  0
  -29.0840  -23.8250   20.1670 C   0  0  0  0  0  3  0  0  0  0  0  0
  -29.4240  -23.7080   18.8790 F   0  0  0  0  0  0  0  0  0  0  0  0
  -27.9350  -24.9710   20.3070 C   0  0  0  0  0  2  0  0  0  0  0  0
  -28.2020  -26.4600   20.1800 O   0  0  0  0  0  0  0  0  0  0  0  0
  -24.5420  -31.9650   23.2390 C   0  0  0  0  0  0  0  0  0  0  0  0
  -27.1060  -27.3610   20.1470 C   0  0  0  0  0  0  0  0  0  0  0  0
  -23.3190  -30.5680   21.6140 C   0  0  0  0  0  3  0  0  0  0  0  0
  -24.7520  -29.0220   20.1630 C   0  0  0  0  0  0  0  0  0  0  0  0
  -25.8610  -30.8750   21.4030 C   0  0  0  0  0  2  0  0  0  0  0  0
  -25.9340  -29.4940   20.7490 C   0  0  0  0  0  0  0  0  0  0  0  0
  -27.1130  -28.6780   20.7290 C   0  0  0  0  0  3  0  0  0  0  0  0
  -25.9000  -26.9700   19.5190 C   0  0  0  0  0  3  0  0  0  0  0  0
  -24.7420  -27.7680   19.5370 C   0  0  0  0  0  3  0  0  0  0  0  0
  -23.5160  -29.8970   20.2310 C   0  0  0  0  0  2  0  0  0  0  0  0
  -24.5940  -31.1540   22.1410 N   0  0  0  0  0  0  0  0  0  0  0  0
  -23.4650  -32.2430   23.7870 O   0  0  0  0  0  0  0  0  0  0  0  0
  -22.6710  -29.5480   22.5820 C   0  0  0  0  0  0  0  0  0  0  0  0
  -21.3470  -29.3530   22.4610 N   0  0  0  0  0  0  0  0  0  0  0  0
  -23.3590  -28.9340   23.4020 O   0  0  0  0  0  0  0  0  0  0  0  0
  -20.8480  -29.9050   21.7760 H   0  0  0  0  0  0  0  0  0  0  0  0
  -17.9860  -28.1100   22.9750 C   0  0  0  0  0  0  0  0  0  0  0  0
  -20.5410  -28.4100   23.2390 C   0  0  0  0  0  3  0  0  0  0  0  0
  -20.6610  -26.9750   22.6740 C   0  0  0  0  0  2  0  0  0  0  0  0
  -19.5630  -26.6300   21.6620 C   0  0  0  0  0  2  0  0  0  0  0  0
  -18.1810  -26.7580   22.3090 C   0  0  0  0  0  2  0  0  0  0  0  0
  -19.0940  -28.8920   23.3970 C   0  0  0  0  0  0  0  0  0  0  0  0
  -18.8580  -30.1550   23.9790 C   0  0  0  0  0  3  0  0  0  0  0  0
  -17.5460  -30.6380   24.1450 C   0  0  0  0  0  3  0  0  0  0  0  0
  -16.4520  -29.8540   23.7390 C   0  0  0  0  0  3  0  0  0  0  0  0
  -16.6740  -28.5920   23.1600 C   0  0  0  0  0  3  0  0  0  0  0  0
  -25.8320  -32.6000   23.8430 C   0  0  0  0  0  3  0  0  0  0  0  0
  -25.5250  -34.0000   24.1710 N   0  0  0  0  0  0  0  0  0  0  0  0
  -25.8640  -35.0530   23.4120 C   0  0  0  0  0  0  0  0  0  0  0  0
  -26.5330  -34.9440   22.3820 O   0  0  0  0  0  0  0  0  0  0  0  0
  -24.9290  -34.1570   24.9690 H   0  0  0  0  0  0  0  0  0  0  0  0
  -24.1580  -36.8660   23.0410 C   0  0  0  0  0  1  0  0  0  0  0  0
  -25.3820  -36.4430   23.8690 C   0  0  0  0  0  3  0  0  0  0  0  0
  -27.5100  -37.3070   24.7410 C   0  0  0  0  0  1  0  0  0  0  0  0
  -26.4270  -37.4870   23.7780 N   0  0  0  0  0  0  0  0  0  0  0  0
  -26.0250  -38.4100   23.9190 H   0  0  0  0  0  0  0  0  0  0  0  0
  -26.3610  -31.8360   25.1190 C   0  0  1  0  0  0  0  0  0  0  0  0
  -25.2770  -31.6020   26.1970 C   0  0  0  0  0  1  0  0  0  0  0  0
  -26.9420  -30.4550   24.7320 C   0  0  0  0  0  1  0  0  0  0  0  0
  -27.5150  -32.6360   25.7650 C   0  0  0  0  0  1  0  0  0  0  0  0
  1  3  2  0
  2 17  1  0
  2  1  1  0
  4  2  1  0
  5 19  1  0
  6 11  1  0
  7  8  1  0
  7  6  1  0
  9  8  1  0
  9 26  1  0
  9 10  1  0
 11  5  1  0
 11 10  1  0
 12  5  2  0
 13 14  1  0
 14 20  1  0
 15 14  2  0
 15 21  1  0
 16 13  2  0
 17 15  1  0
 18 17  2  0
 18 16  1  0
 19 16  1  0
 22 19  1  0
 23 24  2  0
 24 43  1  0
 25 24  1  0
 25 28  1  0
 26 27  1  0
 26 23  1  0
 27 25  2  0
 28 29  1  0
 29 30  2  0
 31 34  1  0
 31 30  1  0
 32 31  2  0
 33 32  1  0
 33 28  2  0
 34 35  1  0
 35 36  1  0
 36 37  2  0
 38 37  1  0
 38 42  1  0
 39 38  2  0
 40 35  2  0
 40 39  1  0
 41 40  1  0
 43 44  1  0
 44 47  1  0
 44 46  1  0
 45 43  2  0
 48 23  1  0
 48 49  1  0
 50 48  1  0
 51 52  1  0
 51 53  1  0
 51  1  1  0
 54 53  1  0
 55 66  2  0
 56 54  1  0
 56 61  1  0
 57 65  1  0
 57 67  1  0
 58 64  1  0
 58 60  1  0
 59 65  1  0
 60 59  1  0
 61 60  2  0
 62 63  1  0
 62 56  2  0
 63 58  2  0
 64 57  1  0
 65 55  1  0
 67 69  2  0
 68 67  1  0
 70 68  1  0
 71 80  2  0
 71 76  1  0
 72 68  1  0
 72 76  1  0
 73 72  1  0
 74 75  1  0
 74 73  1  0
 75 71  1  0
 76 77  2  0
 77 78  1  0
 79 78  2  0
 80 79  1  0
 81 55  1  0
 81 82  1  0
 81 91  1  0
 82 85  1  0
 83 87  1  0
 83 82  1  0
 84 83  2  0
 87 86  1  0
 89 87  1  0
 89 90  1  0
 89 88  1  0
 91 94  1  1
 91 92  1  0
 93 91  1  0
M  ISO  4   5 100  19 100  53 101  54 101
M  END
>  <TORSDO>  (64) 
F 18

>  <SCORE>  (64) 
-14.651

>  <name>  (64) 
63

>  <ligand_id>  (64) 
63

>  <original_smiles>  (64) 
[H]c1c([H])c([H])c2c(c1[H])C([H])([H])C([H])([H])C([H])([H])C2([H])N([H])C(=O)C1([H])N(C(=O)C([H])(N([H])C(=O)C([H])(N([H])C([H])([H])[H])C([H])([H])[H])C(C([H])([H])[H])(C([H])([H])[H])C([H])([H])[H])C([H])([H])c2c([H])c(OC([H])([H])C([H])(F)C(=O)N([H])c3nc(N([H])C(=O)N4C([H])([H])C([H])([H])C([H])([H])C([H])(n5nc(-c6c([H])c([H])c(Oc7c([H])c([H])c(F)c([H])c7F)c([H])c6[H])c(C(=O)N([H])[H])c5N([H])[H])C4([H])[H])c([H])c(F)c3Cl)c([H])c([H])c2C1([H])[H]

>  <smiles>  (64) 
[H]c1c([H])c([H])c2c(c1[H])C([H])([H])C([H])([H])C([H])([H])C2([H])N([H])C(=O)C1([H])N(C(=O)C([H])(N([H])C(=O)C([H])(N([H])C([H])([H])[H])C([H])([H])[H])C(C([H])([H])[H])(C([H])([H])[H])C([H])([H])[H])C([H])([H])c2c([H])c(OC([H])([H])C([H])(F)C(=O)N([H])c3nc(N([H])C(=O)N4C([H])([H])C([H])([H])C([H])([H])C([H])(n5nc(-c6c([H])c([H])c(Oc7c([H])c([H])c(F)c([H])c7F)c([H])c6[H])c(C(=O)N([H])[H])c5N([H])[H])C4([H])[H])c([H])c(F)c3Cl)c([H])c([H])c2C1([H])[H]

$$$$
64:0:0
     RDKit          3D

101109  0  0  1  0  0  0  0  0999 V2000
  -30.1650  -19.4280   21.7150 C   0  0  0  0  0  3  0  0  0  0  0  0
  -30.5600  -18.4490   22.6420 C   0  0  0  0  0  0  0  0  0  0  0  0
  -30.7040  -17.1180   22.2110 C   0  0  0  0  0  0  0  0  0  0  0  0
  -29.9290  -19.0780   20.3660 C   0  0  0  0  0  3  0  0  0  0  0  0
  -30.4790  -16.7630   20.8640 C   0  0  0  0  0  0  0  0  0  0  0  0
  -30.0970  -17.7670   19.9870 N   0  0  0  0  0  0  0  0  0  0  0  0
  -29.4720  -20.0420   19.4370 N   0  0  0  0  0  0  0  0  0  0  0  0
  -31.0280  -16.1520   23.1090 F   0  0  0  0  0  0  0  0  0  0  0  0
  -29.9050  -17.5100   19.0150 H   0  0  0  0  0  0  0  0  0  0  0  0
  -29.2660  -19.7380   18.4940 H   0  0  0  0  0  0  0  0  0  0  0  0
  -31.1270  -14.4810   19.7620 C   0  0  0  0  0  0  0  0  0  0  0  0
  -30.7070  -12.3190   18.5870 C   0  0  0  0  0  2  0  0  0  0  0  0
  -29.6510  -12.5210   17.4750 C   0  0  0  0  0  2  0  0  0  0  0  0
  -28.2160  -12.4300   18.0340 C   0  0  0  0  0  2  0  0  0  0  0  0
  -28.0210  -13.2780   19.3170 C   0  0  0  0  0  3  0  0  0  0  0  0
  -29.1580  -12.9880   20.3250 C   0  0  0  0  0  2  0  0  0  0  0  0
  -30.4480  -13.2920   19.6660 N   0  0  0  0  0  0  0  0  0  0  0  0
  -32.1430  -14.7130   19.0870 O   0  0  0  0  0  0  0  0  0  0  0  0
  -30.6010  -15.3370   20.6700 N   0  0  0  0  0  0  0  0  0  0  0  0
  -30.0220  -14.8400   21.3270 H   0  0  0  0  0  0  0  0  0  0  0  0
  -25.7580  -14.0090   20.3070 C   0  0  0  0  0  0  0  0  0  0  0  0
  -24.6710  -13.2930   20.7320 C   0  0  0  0  0  0  0  0  0  0  0  0
  -25.0150  -11.9180   20.5610 C   0  0  0  0  0  0  0  0  0  0  0  0
  -26.7010  -13.0720   19.9100 N   0  0  0  0  0  0  0  0  0  0  0  0
  -26.2610  -11.8050   20.1170 N   0  0  0  0  0  0  0  0  0  0  0  0
  -24.2110  -10.7020   20.7390 C   0  0  0  0  0  0  0  0  0  0  0  0
  -24.5560   -9.7220   21.6960 C   0  0  0  0  0  3  0  0  0  0  0  0
  -23.7570   -8.5700   21.8610 C   0  0  0  0  0  3  0  0  0  0  0  0
  -22.5990   -8.3910   21.0670 C   0  0  0  0  0  0  0  0  0  0  0  0
  -22.2730   -9.3590   20.1000 C   0  0  0  0  0  3  0  0  0  0  0  0
  -23.0710  -10.5020   19.9350 C   0  0  0  0  0  3  0  0  0  0  0  0
  -21.7800   -7.2890   21.1380 O   0  0  0  0  0  0  0  0  0  0  0  0
  -21.4900   -6.6840   22.3340 C   0  0  0  0  0  0  0  0  0  0  0  0
  -20.9060   -7.3930   23.4060 C   0  0  0  0  0  3  0  0  0  0  0  0
  -20.5610   -6.7180   24.5940 C   0  0  0  0  0  3  0  0  0  0  0  0
  -20.7890   -5.3330   24.7080 C   0  0  0  0  0  0  0  0  0  0  0  0
  -21.3650   -4.6230   23.6390 C   0  0  0  0  0  3  0  0  0  0  0  0
  -21.7120   -5.2980   22.4540 C   0  0  0  0  0  0  0  0  0  0  0  0
  -22.2470   -4.6050   21.4200 F   0  0  0  0  0  0  0  0  0  0  0  0
  -20.4500   -4.6820   25.8440 F   0  0  0  0  0  0  0  0  0  0  0  0
  -23.3500  -13.8520   21.1780 C   0  0  0  0  0  0  0  0  0  0  0  0
  -22.6690  -13.1680   22.0910 N   0  0  0  0  0  0  0  0  0  0  0  0
  -22.9360  -14.9300   20.7550 O   0  0  0  0  0  0  0  0  0  0  0  0
  -23.0150  -12.2940   22.4590 H   0  0  0  0  0  0  0  0  0  0  0  0
  -21.7870  -13.5260   22.4280 H   0  0  0  0  0  0  0  0  0  0  0  0
  -26.0130  -15.3730   20.2050 N   0  0  0  0  0  0  0  0  0  0  0  0
  -25.2920  -16.0590   20.4060 H   0  0  0  0  0  0  0  0  0  0  0  0
  -26.8150  -15.7760   19.7390 H   0  0  0  0  0  0  0  0  0  0  0  0
  -30.7910  -18.7800   23.9840 N   0  0  0  0  0  0  0  0  0  0  0  0
  -30.2350  -19.5330   24.3700 H   0  0  0  0  0  0  0  0  0  0  0  0
  -30.8340  -17.9810   24.6060 H   0  0  0  0  0  0  0  0  0  0  0  0
  -29.8770  -21.4800   19.5240 C   0  0  0  0  0  3  0  0  0  0  0  0
  -30.9920  -21.7500   18.4810 C   0  0  2  0  0  0  0  0  0  0  0  0
  -31.9800  -20.8680   18.6460 F   0  0  0  0  0  0  0  0  0  0  0  0
  -31.5140  -22.9680   18.6150 F   0  0  0  0  0  0  0  0  0  0  0  0
  -30.5110  -21.6220   17.2440 F   0  0  0  0  0  0  0  0  0  0  0  0
  -28.6840  -22.5100   19.3840 C   0  0  0  0  0  0  0  0  0  0  0  0
  -27.5230  -22.1140   19.2230 O   0  0  0  0  0  0  0  0  0  0  0  0
  -28.9410  -24.0530   19.4930 C   0  0  0  0  0  3  0  0  0  0  0  0
  -27.6880  -24.9800   19.3040 C   0  0  0  0  0  3  0  0  0  0  0  0
  -27.8820  -26.4150   19.5130 O   0  0  0  0  0  0  0  0  0  0  0  0
  -24.4740  -31.5700   23.1680 C   0  0  0  0  0  0  0  0  0  0  0  0
  -26.7460  -27.2200   19.6180 C   0  0  0  0  0  0  0  0  0  0  0  0
  -23.1070  -30.2840   21.5620 C   0  0  0  0  0  3  0  0  0  0  0  0
  -24.4010  -28.8130   19.9250 C   0  0  0  0  0  0  0  0  0  0  0  0
  -25.6220  -30.5960   21.1750 C   0  0  0  0  0  2  0  0  0  0  0  0
  -25.6210  -29.2640   20.4430 C   0  0  0  0  0  0  0  0  0  0  0  0
  -26.7950  -28.4770   20.2840 C   0  0  0  0  0  3  0  0  0  0  0  0
  -25.4990  -26.8120   19.0870 C   0  0  0  0  0  3  0  0  0  0  0  0
  -24.3380  -27.5900   19.2410 C   0  0  0  0  0  3  0  0  0  0  0  0
  -23.1850  -29.6910   20.1320 C   0  0  0  0  0  2  0  0  0  0  0  0
  -24.4240  -30.8300   22.0240 N   0  0  0  0  0  0  0  0  0  0  0  0
  -23.4480  -31.8290   23.8120 O   0  0  0  0  0  0  0  0  0  0  0  0
  -22.5160  -29.2190   22.5150 C   0  0  0  0  0  0  0  0  0  0  0  0
  -21.2220  -28.9030   22.3370 N   0  0  0  0  0  0  0  0  0  0  0  0
  -23.2210  -28.6810   23.3730 O   0  0  0  0  0  0  0  0  0  0  0  0
  -20.7090  -29.3970   21.6220 H   0  0  0  0  0  0  0  0  0  0  0  0
  -18.0240  -27.2340   22.5880 C   0  0  0  0  0  0  0  0  0  0  0  0
  -20.4700  -27.9010   23.0930 C   0  0  0  0  0  3  0  0  0  0  0  0
  -20.8430  -26.4680   22.6440 C   0  0  0  0  0  2  0  0  0  0  0  0
  -19.9200  -25.9170   21.5530 C   0  0  0  0  0  2  0  0  0  0  0  0
  -18.4690  -25.8880   22.0420 C   0  0  0  0  0  2  0  0  0  0  0  0
  -18.9640  -28.1850   23.0660 C   0  0  0  0  0  0  0  0  0  0  0  0
  -18.4990  -29.4340   23.5320 C   0  0  0  0  0  3  0  0  0  0  0  0
  -17.1250  -29.7390   23.5260 C   0  0  0  0  0  3  0  0  0  0  0  0
  -16.1970  -28.7880   23.0660 C   0  0  0  0  0  3  0  0  0  0  0  0
  -16.6460  -27.5390   22.6030 C   0  0  0  0  0  3  0  0  0  0  0  0
  -25.8190  -32.1460   23.7100 C   0  0  0  0  0  3  0  0  0  0  0  0
  -25.5840  -33.5480   24.0810 N   0  0  0  0  0  0  0  0  0  0  0  0
  -25.9130  -34.6030   23.3240 C   0  0  0  0  0  0  0  0  0  0  0  0
  -26.5190  -34.4960   22.2540 O   0  0  0  0  0  0  0  0  0  0  0  0
  -25.0410  -33.7090   24.9170 H   0  0  0  0  0  0  0  0  0  0  0  0
  -24.2390  -36.4670   23.1030 C   0  0  0  0  0  1  0  0  0  0  0  0
  -25.5060  -35.9980   23.8350 C   0  0  0  0  0  3  0  0  0  0  0  0
  -27.7140  -36.7860   24.5640 C   0  0  0  0  0  1  0  0  0  0  0  0
  -26.5710  -37.0140   23.6850 N   0  0  0  0  0  0  0  0  0  0  0  0
  -26.2080  -37.9450   23.8730 H   0  0  0  0  0  0  0  0  0  0  0  0
  -26.3970  -31.3360   24.9340 C   0  0  1  0  0  0  0  0  0  0  0  0
  -25.3670  -31.0960   26.0630 C   0  0  0  0  0  1  0  0  0  0  0  0
  -26.9230  -29.9540   24.4780 C   0  0  0  0  0  1  0  0  0  0  0  0
  -27.6020  -32.0930   25.5410 C   0  0  0  0  0  1  0  0  0  0  0  0
  1  2  2  0
  2 49  1  0
  3  2  1  0
  3  8  1  0
  4  7  1  0
  4  1  1  0
  5  3  2  0
  6  4  1  0
  6  5  1  0
  7 52  1  0
  9  6  1  0
 10  7  1  0
 11 19  1  0
 12 17  1  0
 13 14  1  0
 13 12  1  0
 15 14  1  0
 15 24  1  0
 15 16  1  0
 17 11  1  0
 17 16  1  0
 18 11  2  0
 19  5  1  0
 19 20  1  0
 21 22  2  0
 22 41  1  0
 23 22  1  0
 23 26  1  0
 24 25  1  0
 24 21  1  0
 25 23  2  0
 26 27  1  0
 27 28  2  0
 29 32  1  0
 29 28  1  0
 30 29  2  0
 31 30  1  0
 31 26  2  0
 32 33  1  0
 33 38  2  0
 33 34  1  0
 34 35  2  0
 35 36  1  0
 36 40  1  0
 37 36  2  0
 38 37  1  0
 39 38  1  0
 41 42  1  0
 42 45  1  0
 42 44  1  0
 43 41  2  0
 46 21  1  0
 46 47  1  0
 48 46  1  0
 49 50  1  0
 49 51  1  0
 52 57  1  0
 53 55  1  6
 53 54  1  0
 53 52  1  0
 56 53  1  0
 57 59  1  0
 58 57  2  0
 60 59  2  0
 60 61  1  0
 61 63  1  0
 62 73  2  0
 63 68  1  0
 64 72  1  0
 64 74  1  0
 65 71  1  0
 65 67  1  0
 66 72  1  0
 67 66  1  0
 68 67  2  0
 69 70  1  0
 69 63  2  0
 70 65  2  0
 71 64  1  0
 72 62  1  0
 74 76  2  0
 75 74  1  0
 77 75  1  0
 78 87  2  0
 78 83  1  0
 79 75  1  0
 80 79  1  0
 81 82  1  0
 81 80  1  0
 82 78  1  0
 83 79  1  0
 83 84  2  0
 85 84  1  0
 86 85  2  0
 87 86  1  0
 88 62  1  0
 88 89  1  0
 88 98  1  0
 89 92  1  0
 90 94  1  0
 90 89  1  0
 91 90  2  0
 94 93  1  0
 96 94  1  0
 96 97  1  0
 96 95  1  0
 98101  1  1
 98 99  1  0
100 98  1  0
M  ISO  4  11 100  19 100  60 101  61 101
M  END
>  <TORSDO>  (65) 
F 22

>  <SCORE>  (65) 
-11.190

>  <name>  (65) 
64

>  <ligand_id>  (65) 
64

>  <original_smiles>  (65) 
[H]c1c([H])c([H])c2c(c1[H])C([H])([H])C([H])([H])C([H])([H])C2([H])N([H])C(=O)C1([H])N(C(=O)C([H])(N([H])C(=O)C([H])(N([H])C([H])([H])[H])C([H])([H])[H])C(C([H])([H])[H])(C([H])([H])[H])C([H])([H])[H])C([H])([H])c2c([H])c(OC([H])([H])C([H])([H])C(=O)C([H])(N([H])c3c([H])c(N([H])[H])c(F)c(N([H])C(=O)N4C([H])([H])C([H])([H])C([H])([H])C([H])(n5nc(-c6c([H])c([H])c(Oc7c([H])c([H])c(F)c([H])c7F)c([H])c6[H])c(C(=O)N([H])[H])c5N([H])[H])C4([H])[H])[n+]3[H])C(F)(F)F)c([H])c([H])c2C1([H])[H]

>  <smiles>  (65) 
[H]c1c([H])c([H])c2c(c1[H])C([H])([H])C([H])([H])C([H])([H])C2([H])N([H])C(=O)C1([H])N(C(=O)C([H])(N([H])C(=O)C([H])(N([H])C([H])([H])[H])C([H])([H])[H])C(C([H])([H])[H])(C([H])([H])[H])C([H])([H])[H])C([H])([H])c2c([H])c(OC([H])([H])C([H])([H])C(=O)C([H])(N([H])c3c([H])c(N([H])[H])c(F)c(N([H])C(=O)N4C([H])([H])C([H])([H])C([H])([H])C([H])(n5nc(-c6c([H])c([H])c(Oc7c([H])c([H])c(F)c([H])c7F)c([H])c6[H])c(C(=O)N([H])[H])c5N([H])[H])C4([H])[H])[n+]3[H])C(F)(F)F)c([H])c([H])c2C1([H])[H]

$$$$
65:0:0
     RDKit          3D

103111  0  0  1  0  0  0  0  0999 V2000
  -29.6470  -21.6190   20.2970 C   0  0  0  0  0  3  0  0  0  0  0  0
  -29.2570  -20.4140   20.8170 N   0  0  0  0  0  0  0  0  0  0  0  0
  -30.5470  -21.8470   19.3080 N   0  0  0  0  0  0  0  0  0  0  0  0
  -28.8810  -20.4230   21.7530 H   0  0  0  0  0  0  0  0  0  0  0  0
  -30.7080  -22.8280   19.1150 H   0  0  0  0  0  0  0  0  0  0  0  0
  -30.5970  -14.5410   20.3120 C   0  0  0  0  0  0  0  0  0  0  0  0
  -30.2880  -12.3930   19.1440 C   0  0  0  0  0  2  0  0  0  0  0  0
  -29.3110  -12.6290   17.9760 C   0  0  0  0  0  2  0  0  0  0  0  0
  -27.8500  -12.4700   18.4430 C   0  0  0  0  0  2  0  0  0  0  0  0
  -27.5480  -13.2630   19.7420 C   0  0  0  0  0  3  0  0  0  0  0  0
  -28.6400  -13.0250   20.8120 C   0  0  0  0  0  2  0  0  0  0  0  0
  -29.9470  -13.3470   20.2150 N   0  0  0  0  0  0  0  0  0  0  0  0
  -31.6870  -14.7490   19.7720 O   0  0  0  0  0  0  0  0  0  0  0  0
  -29.3640  -19.1050   20.2780 C   0  0  0  0  0  0  0  0  0  0  0  0
  -29.0290  -18.7300   19.0000 C   0  0  0  0  0  0  0  0  0  0  0  0
  -29.7070  -16.8190   20.3440 C   0  0  0  0  0  0  0  0  0  0  0  0
  -29.6920  -17.9670   21.0600 N   0  0  0  0  0  0  0  0  0  0  0  0
  -29.9370  -15.5390   20.9370 N   0  0  0  0  0  0  0  0  0  0  0  0
  -28.5450  -19.5850   18.0690 F   0  0  0  0  0  0  0  0  0  0  0  0
  -29.2500  -17.0400   18.6530 S   0  0  0  0  0  0  0  0  0  0  0  0
  -29.2230  -15.2390   21.5820 H   0  0  0  0  0  0  0  0  0  0  0  0
  -25.1670  -13.8320   20.5310 C   0  0  0  0  0  0  0  0  0  0  0  0
  -24.1180  -13.0420   20.9200 C   0  0  0  0  0  0  0  0  0  0  0  0
  -24.5910  -11.6960   20.8530 C   0  0  0  0  0  0  0  0  0  0  0  0
  -26.2120  -12.9660   20.2550 N   0  0  0  0  0  0  0  0  0  0  0  0
  -25.8720  -11.6750   20.5050 N   0  0  0  0  0  0  0  0  0  0  0  0
  -23.8810  -10.4250   21.0450 C   0  0  0  0  0  0  0  0  0  0  0  0
  -24.3430   -9.4530   21.9610 C   0  0  0  0  0  3  0  0  0  0  0  0
  -23.6340   -8.2470   22.1420 C   0  0  0  0  0  3  0  0  0  0  0  0
  -22.4480   -8.0020   21.4090 C   0  0  0  0  0  0  0  0  0  0  0  0
  -22.0050   -8.9630   20.4830 C   0  0  0  0  0  3  0  0  0  0  0  0
  -22.7150  -10.1610   20.3000 C   0  0  0  0  0  3  0  0  0  0  0  0
  -21.7090   -6.8480   21.5000 O   0  0  0  0  0  0  0  0  0  0  0  0
  -21.6830   -6.0990   22.6490 C   0  0  0  0  0  0  0  0  0  0  0  0
  -21.2340   -6.6310   23.8780 C   0  0  0  0  0  3  0  0  0  0  0  0
  -21.1580   -5.8060   25.0170 C   0  0  0  0  0  3  0  0  0  0  0  0
  -21.5220   -4.4480   24.9300 C   0  0  0  0  0  0  0  0  0  0  0  0
  -21.9650   -3.9160   23.7070 C   0  0  0  0  0  3  0  0  0  0  0  0
  -22.0430   -4.7390   22.5690 C   0  0  0  0  0  0  0  0  0  0  0  0
  -22.4480   -4.2150   21.3880 F   0  0  0  0  0  0  0  0  0  0  0  0
  -21.4430   -3.6530   26.0210 F   0  0  0  0  0  0  0  0  0  0  0  0
  -22.7270  -13.5030   21.2440 C   0  0  0  0  0  0  0  0  0  0  0  0
  -22.0320  -12.7890   22.1230 N   0  0  0  0  0  0  0  0  0  0  0  0
  -22.2630  -14.5310   20.7530 O   0  0  0  0  0  0  0  0  0  0  0  0
  -22.4170  -11.9530   22.5390 H   0  0  0  0  0  0  0  0  0  0  0  0
  -21.1020  -13.0830   22.3830 H   0  0  0  0  0  0  0  0  0  0  0  0
  -25.3080  -15.2070   20.3710 N   0  0  0  0  0  0  0  0  0  0  0  0
  -24.5260  -15.8380   20.5070 H   0  0  0  0  0  0  0  0  0  0  0  0
  -26.1320  -15.6690   20.0100 H   0  0  0  0  0  0  0  0  0  0  0  0
  -29.0310  -22.8820   20.9680 C   0  0  0  0  0  0  0  0  0  0  0  0
  -28.2290  -22.6990   21.8900 O   0  0  0  0  0  0  0  0  0  0  0  0
  -29.4000  -24.3380   20.5670 C   0  0  0  0  0  2  0  0  0  0  0  0
  -28.1820  -25.2100   20.1440 C   0  0  0  0  0  2  0  0  0  0  0  0
  -28.3740  -26.6460   20.2420 O   0  0  0  0  0  0  0  0  0  0  0  0
  -24.5750  -31.9010   23.2610 C   0  0  0  0  0  0  0  0  0  0  0  0
  -27.2230  -27.4240   20.1930 C   0  0  0  0  0  0  0  0  0  0  0  0
  -23.3810  -30.5080   21.6070 C   0  0  0  0  0  3  0  0  0  0  0  0
  -24.8410  -28.9730   20.1880 C   0  0  0  0  0  0  0  0  0  0  0  0
  -25.9140  -30.8480   21.4350 C   0  0  0  0  0  2  0  0  0  0  0  0
  -26.0000  -29.4780   20.7880 C   0  0  0  0  0  0  0  0  0  0  0  0
  -27.1940  -28.7140   20.7860 C   0  0  0  0  0  3  0  0  0  0  0  0
  -26.0390  -26.9520   19.5740 C   0  0  0  0  0  3  0  0  0  0  0  0
  -24.8570  -27.7120   19.5750 C   0  0  0  0  0  3  0  0  0  0  0  0
  -23.6020  -29.8390   20.2260 C   0  0  0  0  0  2  0  0  0  0  0  0
  -24.6410  -31.1020   22.1590 N   0  0  0  0  0  0  0  0  0  0  0  0
  -23.4900  -32.1750   23.7930 O   0  0  0  0  0  0  0  0  0  0  0  0
  -22.7190  -29.4830   22.5570 C   0  0  0  0  0  0  0  0  0  0  0  0
  -21.3950  -29.3070   22.4200 N   0  0  0  0  0  0  0  0  0  0  0  0
  -23.3940  -28.8520   23.3740 O   0  0  0  0  0  0  0  0  0  0  0  0
  -20.9130  -29.8680   21.7320 H   0  0  0  0  0  0  0  0  0  0  0  0
  -18.0090  -28.1330   22.8970 C   0  0  0  0  0  0  0  0  0  0  0  0
  -20.5680  -28.3690   23.1790 C   0  0  0  0  0  3  0  0  0  0  0  0
  -20.6620  -26.9410   22.5930 C   0  0  0  0  0  2  0  0  0  0  0  0
  -19.5600  -26.6350   21.5730 C   0  0  0  0  0  2  0  0  0  0  0  0
  -18.1770  -26.7870   22.2130 C   0  0  0  0  0  2  0  0  0  0  0  0
  -19.1310  -28.8820   23.3370 C   0  0  0  0  0  0  0  0  0  0  0  0
  -18.9200  -30.1440   23.9350 C   0  0  0  0  0  3  0  0  0  0  0  0
  -17.6180  -30.6550   24.0990 C   0  0  0  0  0  3  0  0  0  0  0  0
  -16.5110  -29.9010   23.6760 C   0  0  0  0  0  3  0  0  0  0  0  0
  -16.7050  -28.6410   23.0810 C   0  0  0  0  0  3  0  0  0  0  0  0
  -25.8570  -32.5290   23.8920 C   0  0  0  0  0  3  0  0  0  0  0  0
  -26.3540  -31.7620   25.1780 C   0  0  1  0  0  0  0  0  0  0  0  0
  -25.2460  -31.5350   26.2340 C   0  0  0  0  0  1  0  0  0  0  0  0
  -26.9340  -30.3790   24.8000 C   0  0  0  0  0  1  0  0  0  0  0  0
  -27.5010  -32.5530   25.8500 C   0  0  0  0  0  1  0  0  0  0  0  0
  -25.5560  -33.9320   24.2060 N   0  0  0  0  0  0  0  0  0  0  0  0
  -25.9020  -34.9730   23.4360 C   0  0  0  0  0  0  0  0  0  0  0  0
  -26.5780  -34.8520   22.4110 O   0  0  0  0  0  0  0  0  0  0  0  0
  -24.9590  -34.1000   25.0010 H   0  0  0  0  0  0  0  0  0  0  0  0
  -24.1900  -36.7730   23.0460 C   0  0  0  0  0  1  0  0  0  0  0  0
  -25.4200  -36.3690   23.8750 C   0  0  0  0  0  3  0  0  0  0  0  0
  -27.5490  -37.2510   24.7220 C   0  0  0  0  0  1  0  0  0  0  0  0
  -26.4620  -37.4130   23.7610 N   0  0  0  0  0  0  0  0  0  0  0  0
  -26.0600  -38.3390   23.8910 H   0  0  0  0  0  0  0  0  0  0  0  0
  -31.3280  -21.0320   17.0770 C   0  0  0  0  0  1  0  0  0  0  0  0
  -31.5050  -20.9570   18.6120 C   0  0  0  0  0  3  0  0  0  0  0  0
  -32.9470  -21.3280   19.0080 C   0  0  0  0  0  0  0  0  0  0  0  0
  -33.2220  -22.3870   19.5800 O   0  0  0  0  0  0  0  0  0  0  0  0
  -34.0630  -20.3590   18.6080 C   0  0  0  0  0  2  0  0  0  0  0  0
  -34.1390  -19.1010   19.4870 C   0  0  2  0  0  0  0  0  0  0  0  0
  -34.3130  -19.4310   20.7670 F   0  0  0  0  0  0  0  0  0  0  0  0
  -35.1690  -18.3490   19.0970 F   0  0  0  0  0  0  0  0  0  0  0  0
  -33.0250  -18.3750   19.3850 F   0  0  0  0  0  0  0  0  0  0  0  0
  1  2  1  0
  1 50  1  0
  2  4  1  0
  3  1  1  0
  5  3  1  0
  6 18  1  0
  7 12  1  0
  8  9  1  0
  8  7  1  0
 10  9  1  0
 10 25  1  0
 10 11  1  0
 12  6  1  0
 12 11  1  0
 13  6  2  0
 14  2  1  0
 14 17  1  0
 15 14  2  0
 16 18  1  0
 16 17  2  0
 18 21  1  0
 19 15  1  0
 20 15  1  0
 20 16  1  0
 22 23  2  0
 23 42  1  0
 24 23  1  0
 24 27  1  0
 25 26  1  0
 25 22  1  0
 26 24  2  0
 27 28  1  0
 28 29  2  0
 30 33  1  0
 30 29  1  0
 31 30  2  0
 32 31  1  0
 32 27  2  0
 33 34  1  0
 34 35  1  0
 35 36  2  0
 37 36  1  0
 37 41  1  0
 38 37  2  0
 39 34  2  0
 39 38  1  0
 40 39  1  0
 42 43  1  0
 43 46  1  0
 43 45  1  0
 44 42  2  0
 47 48  1  0
 47 22  1  0
 49 47  1  0
 50 51  2  0
 52 50  1  0
 53 54  1  0
 53 52  1  0
 55 66  2  0
 56 54  1  0
 56 61  1  0
 57 65  1  0
 57 67  1  0
 58 64  1  0
 58 60  1  0
 59 65  1  0
 60 59  1  0
 61 60  2  0
 62 63  1  0
 62 56  2  0
 63 58  2  0
 64 57  1  0
 65 55  1  0
 67 69  2  0
 68 67  1  0
 70 68  1  0
 71 80  2  0
 71 76  1  0
 72 68  1  0
 72 76  1  0
 73 72  1  0
 74 75  1  0
 74 73  1  0
 75 71  1  0
 76 77  2  0
 77 78  1  0
 79 78  2  0
 80 79  1  0
 81 55  1  0
 81 86  1  0
 81 82  1  0
 82 85  1  1
 82 83  1  0
 84 82  1  0
 86 89  1  0
 87 91  1  0
 87 86  1  0
 88 87  2  0
 91 90  1  0
 93 91  1  0
 93 94  1  0
 93 92  1  0
 96 95  1  0
 96 97  1  0
 96  3  1  0
 97 98  2  0
 99 97  1  0
 99100  1  0
100101  1  1
102100  1  0
103100  1  0
M  ISO  4   6 100  18 100  53 101  54 101
M  END
>  <TORSDO>  (66) 
F 23

>  <SCORE>  (66) 
-13.210

>  <name>  (66) 
65

>  <ligand_id>  (66) 
65

>  <original_smiles>  (66) 
[H]c1c([H])c([H])c2c(c1[H])C([H])([H])C([H])([H])C([H])([H])C2([H])N([H])C(=O)C1([H])N(C(=O)C([H])(N([H])C(=O)C([H])(N([H])C([H])([H])[H])C([H])([H])[H])C(C([H])([H])[H])(C([H])([H])[H])C([H])([H])[H])C([H])([H])c2c([H])c(OC([H])([H])C([H])([H])C(=O)C(N([H])c3nc(N([H])C(=O)N4C([H])([H])C([H])([H])C([H])([H])C([H])(n5nc(-c6c([H])c([H])c(Oc7c([H])c([H])c(F)c([H])c7F)c([H])c6[H])c(C(=O)N([H])[H])c5N([H])[H])C4([H])[H])sc3F)=[N+]([H])C([H])(C(=O)C([H])([H])C(F)(F)F)C([H])([H])[H])c([H])c([H])c2C1([H])[H]

>  <smiles>  (66) 
[H]c1c([H])c([H])c2c(c1[H])C([H])([H])C([H])([H])C([H])([H])C2([H])N([H])C(=O)C1([H])N(C(=O)C([H])(N([H])C(=O)C([H])(N([H])C([H])([H])[H])C([H])([H])[H])C(C([H])([H])[H])(C([H])([H])[H])C([H])([H])[H])C([H])([H])c2c([H])c(OC([H])([H])C([H])([H])C(=O)C(N([H])c3nc(N([H])C(=O)N4C([H])([H])C([H])([H])C([H])([H])C([H])(n5nc(-c6c([H])c([H])c(Oc7c([H])c([H])c(F)c([H])c7F)c([H])c6[H])c(C(=O)N([H])[H])c5N([H])[H])C4([H])[H])sc3F)=[N+]([H])C([H])(C(=O)C([H])([H])C(F)(F)F)C([H])([H])[H])c([H])c([H])c2C1([H])[H]

$$$$
66:0:0
     RDKit          3D

 95103  0  0  1  0  0  0  0  0999 V2000
  -29.7910  -18.3720   20.7280 C   0  0  0  0  0  0  0  0  0  0  0  0
  -28.6830  -18.6510   19.9450 C   0  0  0  0  0  0  0  0  0  0  0  0
  -29.6140  -20.6860   21.0230 C   0  0  0  0  0  0  0  0  0  0  0  0
  -29.8500  -23.2480   21.5600 C   0  0  0  0  0  0  0  0  0  0  0  0
  -30.2790  -19.5550   21.3310 N   0  0  0  0  0  0  0  0  0  0  0  0
  -30.0610  -21.9030   21.6350 N   0  0  0  0  0  0  0  0  0  0  0  0
  -30.5210  -23.9130   22.3520 O   0  0  0  0  0  0  0  0  0  0  0  0
  -28.2620  -20.3750   19.9470 S   0  0  0  0  0  0  0  0  0  0  0  0
  -30.7690  -21.7140   22.3280 H   0  0  0  0  0  0  0  0  0  0  0  0
  -27.9380  -17.7750   19.1630 N   0  0  0  0  0  0  0  0  0  0  0  0
  -28.3740  -16.9240   18.8210 H   0  0  0  0  0  0  0  0  0  0  0  0
  -27.2750  -18.1440   18.4880 H   0  0  0  0  0  0  0  0  0  0  0  0
  -30.5960  -17.0710   20.9490 C   0  0  0  0  0  2  0  0  0  0  0  0
  -30.6580  -14.6000   20.4530 C   0  0  0  0  0  0  0  0  0  0  0  0
  -30.3660  -12.3960   19.3660 C   0  0  0  0  0  2  0  0  0  0  0  0
  -29.4350  -12.5470   18.1450 C   0  0  0  0  0  2  0  0  0  0  0  0
  -27.9630  -12.4000   18.5710 C   0  0  0  0  0  2  0  0  0  0  0  0
  -27.6060  -13.2680   19.8090 C   0  0  0  0  0  3  0  0  0  0  0  0
  -28.6590  -13.1210   20.9300 C   0  0  0  0  0  2  0  0  0  0  0  0
  -29.9710  -13.4240   20.3470 N   0  0  0  0  0  0  0  0  0  0  0  0
  -31.8290  -14.6910   20.0770 O   0  0  0  0  0  0  0  0  0  0  0  0
  -29.9710  -15.7190   20.8160 N   0  0  0  0  0  0  0  0  0  0  0  0
  -28.9930  -15.6320   21.0450 H   0  0  0  0  0  0  0  0  0  0  0  0
  -25.2090  -13.8650   20.5130 C   0  0  0  0  0  0  0  0  0  0  0  0
  -24.1420  -13.0900   20.8790 C   0  0  0  0  0  0  0  0  0  0  0  0
  -24.6070  -11.7390   20.8570 C   0  0  0  0  0  0  0  0  0  0  0  0
  -26.2570  -12.9860   20.2890 N   0  0  0  0  0  0  0  0  0  0  0  0
  -25.8990  -11.7030   20.5580 N   0  0  0  0  0  0  0  0  0  0  0  0
  -23.8820  -10.4770   21.0470 C   0  0  0  0  0  0  0  0  0  0  0  0
  -24.3150   -9.5080   21.9790 C   0  0  0  0  0  3  0  0  0  0  0  0
  -23.5890   -8.3110   22.1570 C   0  0  0  0  0  3  0  0  0  0  0  0
  -22.4160   -8.0720   21.4020 C   0  0  0  0  0  0  0  0  0  0  0  0
  -22.0030   -9.0300   20.4590 C   0  0  0  0  0  3  0  0  0  0  0  0
  -22.7280  -10.2190   20.2790 C   0  0  0  0  0  3  0  0  0  0  0  0
  -21.6610   -6.9270   21.4900 O   0  0  0  0  0  0  0  0  0  0  0  0
  -21.6160   -6.1820   22.6410 C   0  0  0  0  0  0  0  0  0  0  0  0
  -21.1940   -6.7330   23.8700 C   0  0  0  0  0  3  0  0  0  0  0  0
  -21.0950   -5.9140   25.0120 C   0  0  0  0  0  3  0  0  0  0  0  0
  -21.4080   -4.5450   24.9260 C   0  0  0  0  0  0  0  0  0  0  0  0
  -21.8240   -3.9930   23.7020 C   0  0  0  0  0  3  0  0  0  0  0  0
  -21.9240   -4.8090   22.5620 C   0  0  0  0  0  0  0  0  0  0  0  0
  -22.3050   -4.2670   21.3800 F   0  0  0  0  0  0  0  0  0  0  0  0
  -21.3070   -3.7560   26.0220 F   0  0  0  0  0  0  0  0  0  0  0  0
  -22.7420  -13.5660   21.1380 C   0  0  0  0  0  0  0  0  0  0  0  0
  -22.0100  -12.8710   22.0020 N   0  0  0  0  0  0  0  0  0  0  0  0
  -22.3050  -14.5880   20.6100 O   0  0  0  0  0  0  0  0  0  0  0  0
  -22.3760  -12.0440   22.4500 H   0  0  0  0  0  0  0  0  0  0  0  0
  -21.0700  -13.1720   22.2190 H   0  0  0  0  0  0  0  0  0  0  0  0
  -25.3700  -15.2360   20.3310 N   0  0  0  0  0  0  0  0  0  0  0  0
  -24.5970  -15.8830   20.4370 H   0  0  0  0  0  0  0  0  0  0  0  0
  -26.2150  -15.6900   20.0030 H   0  0  0  0  0  0  0  0  0  0  0  0
  -28.9090  -24.0450   20.5920 C   0  0  0  0  0  2  0  0  0  0  0  0
  -27.3300  -25.4040   22.1250 C   0  0  0  0  0  1  0  0  0  0  0  0
  -28.4980  -25.5000   21.1170 C   0  0  0  0  0  3  0  0  0  0  0  0
  -28.3770  -26.5720   20.1180 O   0  0  0  0  0  0  0  0  0  0  0  0
  -24.6190  -31.8710   23.2100 C   0  0  0  0  0  0  0  0  0  0  0  0
  -27.2540  -27.3900   20.1300 C   0  0  0  0  0  0  0  0  0  0  0  0
  -23.4180  -30.4750   21.5600 C   0  0  0  0  0  3  0  0  0  0  0  0
  -24.8760  -28.9410   20.1280 C   0  0  0  0  0  0  0  0  0  0  0  0
  -25.9490  -30.8230   21.3730 C   0  0  0  0  0  2  0  0  0  0  0  0
  -26.0380  -29.4510   20.7260 C   0  0  0  0  0  0  0  0  0  0  0  0
  -27.2330  -28.6840   20.7200 C   0  0  0  0  0  3  0  0  0  0  0  0
  -26.0810  -26.9170   19.5100 C   0  0  0  0  0  3  0  0  0  0  0  0
  -24.8960  -27.6770   19.5130 C   0  0  0  0  0  3  0  0  0  0  0  0
  -23.6330  -29.8040   20.1770 C   0  0  0  0  0  2  0  0  0  0  0  0
  -24.6810  -31.0730   22.1050 N   0  0  0  0  0  0  0  0  0  0  0  0
  -23.5370  -32.1390   23.7500 O   0  0  0  0  0  0  0  0  0  0  0  0
  -22.7630  -29.4500   22.5160 C   0  0  0  0  0  0  0  0  0  0  0  0
  -21.4360  -29.2790   22.3950 N   0  0  0  0  0  0  0  0  0  0  0  0
  -23.4470  -28.8130   23.3210 O   0  0  0  0  0  0  0  0  0  0  0  0
  -20.9460  -29.8430   21.7170 H   0  0  0  0  0  0  0  0  0  0  0  0
  -18.0570  -28.1040   22.9110 C   0  0  0  0  0  0  0  0  0  0  0  0
  -20.6180  -28.3380   23.1620 C   0  0  0  0  0  3  0  0  0  0  0  0
  -20.7040  -26.9140   22.5650 C   0  0  0  0  0  2  0  0  0  0  0  0
  -19.5900  -26.6140   21.5570 C   0  0  0  0  0  2  0  0  0  0  0  0
  -18.2150  -26.7630   22.2160 C   0  0  0  0  0  2  0  0  0  0  0  0
  -19.1860  -28.8510   23.3400 C   0  0  0  0  0  0  0  0  0  0  0  0
  -18.9840  -30.1080   23.9500 C   0  0  0  0  0  3  0  0  0  0  0  0
  -17.6850  -30.6190   24.1360 C   0  0  0  0  0  3  0  0  0  0  0  0
  -16.5700  -29.8690   23.7230 C   0  0  0  0  0  3  0  0  0  0  0  0
  -16.7570  -28.6130   23.1160 C   0  0  0  0  0  3  0  0  0  0  0  0
  -25.9040  -32.5010   23.8340 C   0  0  0  0  0  3  0  0  0  0  0  0
  -26.4220  -31.7240   25.1060 C   0  0  1  0  0  0  0  0  0  0  0  0
  -25.3300  -31.4800   26.1740 C   0  0  0  0  0  1  0  0  0  0  0  0
  -27.0040  -30.3480   24.7040 C   0  0  0  0  0  1  0  0  0  0  0  0
  -27.5730  -32.5130   25.7700 C   0  0  0  0  0  1  0  0  0  0  0  0
  -25.5920  -33.8970   24.1720 N   0  0  0  0  0  0  0  0  0  0  0  0
  -25.9230  -34.9540   23.4190 C   0  0  0  0  0  0  0  0  0  0  0  0
  -26.5930  -34.8560   22.3860 O   0  0  0  0  0  0  0  0  0  0  0  0
  -24.9970  -34.0440   24.9740 H   0  0  0  0  0  0  0  0  0  0  0  0
  -24.1940  -36.7470   23.0700 C   0  0  0  0  0  1  0  0  0  0  0  0
  -25.4340  -36.3400   23.8820 C   0  0  0  0  0  3  0  0  0  0  0  0
  -27.5650  -37.2220   24.7230 C   0  0  0  0  0  1  0  0  0  0  0  0
  -26.4660  -37.3940   23.7780 N   0  0  0  0  0  0  0  0  0  0  0  0
  -26.0600  -38.3130   23.9300 H   0  0  0  0  0  0  0  0  0  0  0  0
  1 13  1  0
  1  5  1  0
  2  8  1  0
  2  1  2  0
  3  5  2  0
  3  6  1  0
  4  6  1  0
  4  7  2  0
  6  9  1  0
  8  3  1  0
 10  2  1  0
 11 10  1  0
 12 10  1  0
 14 22  1  0
 15 20  1  0
 16 17  1  0
 16 15  1  0
 18 17  1  0
 18 27  1  0
 18 19  1  0
 20 14  1  0
 20 19  1  0
 21 14  2  0
 22 13  1  0
 22 23  1  0
 24 25  2  0
 25 44  1  0
 26 25  1  0
 26 29  1  0
 27 24  1  0
 27 28  1  0
 28 26  2  0
 29 30  1  0
 30 31  2  0
 32 35  1  0
 32 31  1  0
 33 32  2  0
 34 33  1  0
 34 29  2  0
 35 36  1  0
 36 37  1  0
 37 38  2  0
 39 38  1  0
 39 43  1  0
 40 39  2  0
 41 36  2  0
 41 40  1  0
 42 41  1  0
 44 45  1  0
 45 48  1  0
 45 47  1  0
 46 44  2  0
 49 50  1  0
 49 24  1  0
 51 49  1  0
 52 54  1  0
 52  4  1  0
 54 53  1  0
 55 57  1  0
 55 54  1  0
 56 67  2  0
 57 62  1  0
 58 66  1  0
 58 68  1  0
 59 65  1  0
 59 61  1  0
 60 66  1  0
 61 60  1  0
 62 61  2  0
 63 64  1  0
 63 57  2  0
 64 59  2  0
 65 58  1  0
 66 56  1  0
 68 70  2  0
 69 68  1  0
 71 69  1  0
 72 81  2  0
 72 77  1  0
 73 69  1  0
 73 77  1  0
 74 73  1  0
 75 76  1  0
 75 74  1  0
 76 72  1  0
 77 78  2  0
 78 79  1  0
 80 79  2  0
 81 80  1  0
 82 56  1  0
 82 87  1  0
 82 83  1  0
 83 86  1  1
 83 84  1  0
 85 83  1  0
 87 90  1  0
 88 92  1  0
 88 87  1  0
 89 88  2  0
 92 91  1  0
 94 92  1  0
 94 95  1  0
 94 93  1  0
M  ISO  4  14 100  22 100  54 101  55 101
M  END
>  <TORSDO>  (67) 
F 20

>  <SCORE>  (67) 
-14.292

>  <name>  (67) 
66

>  <ligand_id>  (67) 
66

>  <original_smiles>  (67) 
[H]c1c([H])c([H])c2c(c1[H])C([H])([H])C([H])([H])C([H])([H])C2([H])N([H])C(=O)C1([H])N(C(=O)C([H])(N([H])C(=O)C([H])(N([H])C([H])([H])[H])C([H])([H])[H])C(C([H])([H])[H])(C([H])([H])[H])C([H])([H])[H])C([H])([H])c2c([H])c(OC([H])(C([H])([H])[H])C([H])([H])C(=O)N([H])c3nc(C([H])([H])N([H])C(=O)N4C([H])([H])C([H])([H])C([H])([H])C([H])(n5nc(-c6c([H])c([H])c(Oc7c([H])c([H])c(F)c([H])c7F)c([H])c6[H])c(C(=O)N([H])[H])c5N([H])[H])C4([H])[H])c(N([H])[H])s3)c([H])c([H])c2C1([H])[H]

>  <smiles>  (67) 
[H]c1c([H])c([H])c2c(c1[H])C([H])([H])C([H])([H])C([H])([H])C2([H])N([H])C(=O)C1([H])N(C(=O)C([H])(N([H])C(=O)C([H])(N([H])C([H])([H])[H])C([H])([H])[H])C(C([H])([H])[H])(C([H])([H])[H])C([H])([H])[H])C([H])([H])c2c([H])c(OC([H])(C([H])([H])[H])C([H])([H])C(=O)N([H])c3nc(C([H])([H])N([H])C(=O)N4C([H])([H])C([H])([H])C([H])([H])C([H])(n5nc(-c6c([H])c([H])c(Oc7c([H])c([H])c(F)c([H])c7F)c([H])c6[H])c(C(=O)N([H])[H])c5N([H])[H])C4([H])[H])c(N([H])[H])s3)c([H])c([H])c2C1([H])[H]

$$$$
67:0:0
     RDKit          3D

 98106  0  0  1  0  0  0  0  0999 V2000
  -29.4630  -21.3830   20.8250 C   0  0  0  0  0  0  0  0  0  0  0  0
  -29.1440  -22.4480   20.0100 N   0  0  0  0  0  0  0  0  0  0  0  0
  -29.6220  -21.5950   22.0300 O   0  0  0  0  0  0  0  0  0  0  0  0
  -28.9600  -22.2180   19.0430 H   0  0  0  0  0  0  0  0  0  0  0  0
  -30.5830  -14.7940   20.0890 C   0  0  0  0  0  0  0  0  0  0  0  0
  -30.3390  -12.5430   19.0320 C   0  0  0  0  0  2  0  0  0  0  0  0
  -29.3380  -12.6620   17.8600 C   0  0  0  0  0  2  0  0  0  0  0  0
  -27.8920  -12.4800   18.3570 C   0  0  0  0  0  2  0  0  0  0  0  0
  -27.5860  -13.3260   19.6220 C   0  0  0  0  0  3  0  0  0  0  0  0
  -28.6990  -13.1870   20.6840 C   0  0  0  0  0  2  0  0  0  0  0  0
  -29.9720  -13.5580   20.0460 N   0  0  0  0  0  0  0  0  0  0  0  0
  -31.7140  -14.9350   19.6160 O   0  0  0  0  0  0  0  0  0  0  0  0
  -29.6590  -19.9240   20.3190 C   0  0  0  0  0  0  0  0  0  0  0  0
  -30.1860  -19.3280   19.1760 C   0  0  0  0  0  0  0  0  0  0  0  0
  -29.9160  -17.3220   20.3490 C   0  0  0  0  0  0  0  0  0  0  0  0
  -30.3060  -17.9090   19.2030 N   0  0  0  0  0  0  0  0  0  0  0  0
  -29.8510  -15.8590   20.5810 N   0  0  0  0  0  0  0  0  0  0  0  0
  -29.3260  -18.5940   21.4760 S   0  0  0  0  0  0  0  0  0  0  0  0
  -29.0600  -15.5720   21.1350 H   0  0  0  0  0  0  0  0  0  0  0  0
  -25.2350  -13.8990   20.4800 C   0  0  0  0  0  0  0  0  0  0  0  0
  -24.1880  -13.1160   20.8830 C   0  0  0  0  0  0  0  0  0  0  0  0
  -24.6450  -11.7650   20.7880 C   0  0  0  0  0  0  0  0  0  0  0  0
  -26.2640  -13.0260   20.1680 N   0  0  0  0  0  0  0  0  0  0  0  0
  -25.9180  -11.7360   20.4110 N   0  0  0  0  0  0  0  0  0  0  0  0
  -23.9250  -10.4980   20.9770 C   0  0  0  0  0  0  0  0  0  0  0  0
  -24.3700   -9.5260   21.9000 C   0  0  0  0  0  3  0  0  0  0  0  0
  -23.6500   -8.3250   22.0790 C   0  0  0  0  0  3  0  0  0  0  0  0
  -22.4700   -8.0880   21.3350 C   0  0  0  0  0  0  0  0  0  0  0  0
  -22.0420   -9.0490   20.4010 C   0  0  0  0  0  3  0  0  0  0  0  0
  -22.7640  -10.2420   20.2200 C   0  0  0  0  0  3  0  0  0  0  0  0
  -21.7210   -6.9380   21.4220 O   0  0  0  0  0  0  0  0  0  0  0  0
  -21.6400   -6.2200   22.5880 C   0  0  0  0  0  0  0  0  0  0  0  0
  -21.1380   -6.7860   23.7790 C   0  0  0  0  0  3  0  0  0  0  0  0
  -21.0070   -5.9920   24.9360 C   0  0  0  0  0  3  0  0  0  0  0  0
  -21.3680   -4.6320   24.9020 C   0  0  0  0  0  0  0  0  0  0  0  0
  -21.8640   -4.0650   23.7130 C   0  0  0  0  0  3  0  0  0  0  0  0
  -21.9970   -4.8560   22.5600 C   0  0  0  0  0  0  0  0  0  0  0  0
  -22.4540   -4.2990   21.4120 F   0  0  0  0  0  0  0  0  0  0  0  0
  -21.2360   -3.8660   26.0100 F   0  0  0  0  0  0  0  0  0  0  0  0
  -22.8060  -13.5860   21.2410 C   0  0  0  0  0  0  0  0  0  0  0  0
  -22.1260  -12.8690   22.1270 N   0  0  0  0  0  0  0  0  0  0  0  0
  -22.3420  -14.6240   20.7700 O   0  0  0  0  0  0  0  0  0  0  0  0
  -22.5150  -12.0290   22.5270 H   0  0  0  0  0  0  0  0  0  0  0  0
  -21.2020  -13.1650   22.4100 H   0  0  0  0  0  0  0  0  0  0  0  0
  -25.3920  -15.2750   20.3330 N   0  0  0  0  0  0  0  0  0  0  0  0
  -24.6260  -15.9220   20.4900 H   0  0  0  0  0  0  0  0  0  0  0  0
  -26.2080  -15.7180   19.9320 H   0  0  0  0  0  0  0  0  0  0  0  0
  -30.6220  -19.9840   18.0220 N   0  0  0  0  0  0  0  0  0  0  0  0
  -30.8270  -20.9770   18.0350 H   0  0  0  0  0  0  0  0  0  0  0  0
  -31.1450  -19.4660   17.3240 H   0  0  0  0  0  0  0  0  0  0  0  0
  -29.3530  -23.9480   20.2640 C   0  0  0  0  0  3  0  0  0  0  0  0
  -30.4300  -24.4320   19.2660 C   0  0  1  0  0  0  0  0  0  0  0  0
  -31.4740  -23.5980   19.2740 F   0  0  0  0  0  0  0  0  0  0  0  0
  -29.9310  -24.4680   18.0310 F   0  0  0  0  0  0  0  0  0  0  0  0
  -30.8750  -25.6460   19.5900 F   0  0  0  0  0  0  0  0  0  0  0  0
  -27.1440  -24.4620   21.3980 C   0  0  0  0  0  1  0  0  0  0  0  0
  -28.0670  -24.9340   20.2520 C   0  0  0  0  0  3  0  0  0  0  0  0
  -28.2670  -26.4330   20.3400 O   0  0  0  0  0  0  0  0  0  0  0  0
  -24.6170  -31.9290   23.3370 C   0  0  0  0  0  0  0  0  0  0  0  0
  -27.1770  -27.3350   20.2500 C   0  0  0  0  0  0  0  0  0  0  0  0
  -23.3990  -30.5520   21.6890 C   0  0  0  0  0  3  0  0  0  0  0  0
  -24.8360  -29.0030   20.2410 C   0  0  0  0  0  0  0  0  0  0  0  0
  -25.9440  -30.8400   21.5090 C   0  0  0  0  0  2  0  0  0  0  0  0
  -26.0110  -29.4650   20.8470 C   0  0  0  0  0  0  0  0  0  0  0  0
  -27.1830  -28.6430   20.8410 C   0  0  0  0  0  3  0  0  0  0  0  0
  -25.9860  -26.9550   19.5870 C   0  0  0  0  0  3  0  0  0  0  0  0
  -24.8280  -27.7550   19.5990 C   0  0  0  0  0  3  0  0  0  0  0  0
  -23.6050  -29.8870   20.3040 C   0  0  0  0  0  2  0  0  0  0  0  0
  -24.6720  -31.1240   22.2350 N   0  0  0  0  0  0  0  0  0  0  0  0
  -23.5360  -32.2130   23.8740 O   0  0  0  0  0  0  0  0  0  0  0  0
  -22.7270  -29.5350   22.6450 C   0  0  0  0  0  0  0  0  0  0  0  0
  -21.4040  -29.3480   22.4980 N   0  0  0  0  0  0  0  0  0  0  0  0
  -23.3960  -28.9160   23.4760 O   0  0  0  0  0  0  0  0  0  0  0  0
  -20.9220  -29.8980   21.8010 H   0  0  0  0  0  0  0  0  0  0  0  0
  -18.0270  -28.1310   22.9550 C   0  0  0  0  0  0  0  0  0  0  0  0
  -20.5800  -28.4090   23.2620 C   0  0  0  0  0  3  0  0  0  0  0  0
  -20.7000  -26.9740   22.6950 C   0  0  0  0  0  2  0  0  0  0  0  0
  -19.6170  -26.6400   21.6670 C   0  0  0  0  0  2  0  0  0  0  0  0
  -18.2230  -26.7800   22.2890 C   0  0  0  0  0  2  0  0  0  0  0  0
  -19.1340  -28.9030   23.3970 C   0  0  0  0  0  0  0  0  0  0  0  0
  -18.8980  -30.1670   23.9800 C   0  0  0  0  0  3  0  0  0  0  0  0
  -17.5860  -30.6580   24.1270 C   0  0  0  0  0  3  0  0  0  0  0  0
  -16.4940  -29.8820   23.7020 C   0  0  0  0  0  3  0  0  0  0  0  0
  -16.7150  -28.6210   23.1200 C   0  0  0  0  0  3  0  0  0  0  0  0
  -25.9040  -32.5490   23.9590 C   0  0  0  0  0  3  0  0  0  0  0  0
  -26.4050  -31.7790   25.2440 C   0  0  1  0  0  0  0  0  0  0  0  0
  -25.3020  -31.5590   26.3050 C   0  0  0  0  0  1  0  0  0  0  0  0
  -26.9770  -30.3940   24.8650 C   0  0  0  0  0  1  0  0  0  0  0  0
  -27.5590  -32.5650   25.9090 C   0  0  0  0  0  1  0  0  0  0  0  0
  -25.6120  -33.9530   24.2820 N   0  0  0  0  0  0  0  0  0  0  0  0
  -25.9210  -34.9950   23.4980 C   0  0  0  0  0  0  0  0  0  0  0  0
  -26.5510  -34.8770   22.4450 O   0  0  0  0  0  0  0  0  0  0  0  0
  -25.0480  -34.1220   25.1010 H   0  0  0  0  0  0  0  0  0  0  0  0
  -24.1750  -36.7840   23.2080 C   0  0  0  0  0  1  0  0  0  0  0  0
  -25.4580  -36.3920   23.9580 C   0  0  0  0  0  3  0  0  0  0  0  0
  -27.6280  -37.2980   24.6650 C   0  0  0  0  0  1  0  0  0  0  0  0
  -26.4820  -37.4430   23.7710 N   0  0  0  0  0  0  0  0  0  0  0  0
  -26.0820  -38.3660   23.9190 H   0  0  0  0  0  0  0  0  0  0  0  0
  1  3  2  0
  2 51  1  0
  2  1  1  0
  4  2  1  0
  5 17  1  0
  6 11  1  0
  7  8  1  0
  7  6  1  0
  9  8  1  0
  9 23  1  0
  9 10  1  0
 11  5  1  0
 11 10  1  0
 12  5  2  0
 13  1  1  0
 13 18  1  0
 14 16  1  0
 14 13  2  0
 15 17  1  0
 15 18  1  0
 16 15  2  0
 17 19  1  0
 20 21  2  0
 21 40  1  0
 22 21  1  0
 22 25  1  0
 23 24  1  0
 23 20  1  0
 24 22  2  0
 25 26  1  0
 26 27  2  0
 28 31  1  0
 28 27  1  0
 29 28  2  0
 30 29  1  0
 30 25  2  0
 31 32  1  0
 32 33  1  0
 33 34  2  0
 35 34  1  0
 35 39  1  0
 36 35  2  0
 37 32  2  0
 37 36  1  0
 38 37  1  0
 40 41  1  0
 41 44  1  0
 41 43  1  0
 42 40  2  0
 45 20  1  0
 45 46  1  0
 47 45  1  0
 48 49  1  0
 48 14  1  0
 50 48  1  0
 51 52  1  0
 52 53  1  6
 52 55  1  0
 54 52  1  0
 57 51  1  0
 57 58  1  0
 57 56  1  0
 59 70  2  0
 60 58  1  0
 60 65  1  0
 61 69  1  0
 61 71  1  0
 62 68  1  0
 62 64  1  0
 63 69  1  0
 64 63  1  0
 65 64  2  0
 66 67  1  0
 66 60  2  0
 67 62  2  0
 68 61  1  0
 69 59  1  0
 71 73  2  0
 72 71  1  0
 74 72  1  0
 75 84  2  0
 75 80  1  0
 76 72  1  0
 76 80  1  0
 77 76  1  0
 78 79  1  0
 78 77  1  0
 79 75  1  0
 80 81  2  0
 81 82  1  0
 83 82  2  0
 84 83  1  0
 85 59  1  0
 85 90  1  0
 85 86  1  0
 86 89  1  1
 86 87  1  0
 88 86  1  0
 90 93  1  0
 91 95  1  0
 91 90  1  0
 92 91  2  0
 95 94  1  0
 97 98  1  0
 97 95  1  0
 97 96  1  0
M  ISO  4   5 100  17 100  57 101  58 101
M  END
>  <TORSDO>  (68) 
F 20

>  <SCORE>  (68) 
-13.555

>  <name>  (68) 
67

>  <ligand_id>  (68) 
67

>  <original_smiles>  (68) 
[H]c1c([H])c([H])c2c(c1[H])C([H])([H])C([H])([H])C([H])([H])C2([H])N([H])C(=O)C1([H])N(C(=O)C([H])(N([H])C(=O)C([H])(N([H])C([H])([H])[H])C([H])([H])[H])C(C([H])([H])[H])(C([H])([H])[H])C([H])([H])[H])C([H])([H])c2c([H])c(OC([H])(C([H])([H])[H])C([H])(N([H])C(=O)c3sc(N([H])C(=O)N4C([H])([H])C([H])([H])C([H])([H])C([H])(n5nc(-c6c([H])c([H])c(Oc7c([H])c([H])c(F)c([H])c7F)c([H])c6[H])c(C(=O)N([H])[H])c5N([H])[H])C4([H])[H])nc3N([H])[H])C(F)(F)F)c([H])c([H])c2C1([H])[H]

>  <smiles>  (68) 
[H]c1c([H])c([H])c2c(c1[H])C([H])([H])C([H])([H])C([H])([H])C2([H])N([H])C(=O)C1([H])N(C(=O)C([H])(N([H])C(=O)C([H])(N([H])C([H])([H])[H])C([H])([H])[H])C(C([H])([H])[H])(C([H])([H])[H])C([H])([H])[H])C([H])([H])c2c([H])c(OC([H])(C([H])([H])[H])C([H])(N([H])C(=O)c3sc(N([H])C(=O)N4C([H])([H])C([H])([H])C([H])([H])C([H])(n5nc(-c6c([H])c([H])c(Oc7c([H])c([H])c(F)c([H])c7F)c([H])c6[H])c(C(=O)N([H])[H])c5N([H])[H])C4([H])[H])nc3N([H])[H])C(F)(F)F)c([H])c([H])c2C1([H])[H]

$$$$
68:0:0
     RDKit          3D

 91 99  0  0  1  0  0  0  0  0999 V2000
  -28.5930  -18.7840   19.2720 C   0  0  0  0  0  3  0  0  0  0  0  0
  -29.5050  -18.7250   20.2990 C   0  0  0  0  0  0  0  0  0  0  0  0
  -28.9910  -21.0920   20.2130 C   0  0  0  0  0  0  0  0  0  0  0  0
  -28.4960  -23.6880   20.0510 C   0  0  0  0  0  0  0  0  0  0  0  0
  -29.6900  -20.0690   20.8240 N   0  0  0  0  0  0  0  0  0  0  0  0
  -29.0000  -22.5210   20.6330 N   0  0  0  0  0  0  0  0  0  0  0  0
  -28.1090  -23.7020   18.8800 O   0  0  0  0  0  0  0  0  0  0  0  0
  -28.0040  -20.4170   18.9150 S   0  0  0  0  0  0  0  0  0  0  0  0
  -29.3980  -22.6700   21.5490 H   0  0  0  0  0  0  0  0  0  0  0  0
  -27.3220  -24.9480   21.9730 C   0  0  0  0  0  1  0  0  0  0  0  0
  -28.4100  -25.0680   20.8910 C   0  0  0  0  0  3  0  0  0  0  0  0
  -28.3830  -26.4100   20.1780 O   0  0  0  0  0  0  0  0  0  0  0  0
  -24.6130  -31.8620   23.2270 C   0  0  0  0  0  0  0  0  0  0  0  0
  -27.2640  -27.2780   20.1910 C   0  0  0  0  0  0  0  0  0  0  0  0
  -23.4280  -30.4640   21.5740 C   0  0  0  0  0  3  0  0  0  0  0  0
  -24.8960  -28.9120   20.1570 C   0  0  0  0  0  0  0  0  0  0  0  0
  -25.9690  -30.7840   21.4080 C   0  0  0  0  0  2  0  0  0  0  0  0
  -26.0620  -29.3990   20.7610 C   0  0  0  0  0  0  0  0  0  0  0  0
  -27.2500  -28.5990   20.7590 C   0  0  0  0  0  3  0  0  0  0  0  0
  -26.0760  -26.8520   19.5630 C   0  0  0  0  0  3  0  0  0  0  0  0
  -24.9070  -27.6450   19.5480 C   0  0  0  0  0  3  0  0  0  0  0  0
  -23.6590  -29.7900   20.1940 C   0  0  0  0  0  2  0  0  0  0  0  0
  -24.6880  -31.0570   22.1260 N   0  0  0  0  0  0  0  0  0  0  0  0
  -23.5240  -32.1310   23.7560 O   0  0  0  0  0  0  0  0  0  0  0  0
  -22.7610  -29.4440   22.5280 C   0  0  0  0  0  0  0  0  0  0  0  0
  -21.4340  -29.2690   22.4020 N   0  0  0  0  0  0  0  0  0  0  0  0
  -23.4390  -28.8100   23.3430 O   0  0  0  0  0  0  0  0  0  0  0  0
  -20.9450  -29.8310   21.7180 H   0  0  0  0  0  0  0  0  0  0  0  0
  -18.0500  -28.0850   22.9130 C   0  0  0  0  0  0  0  0  0  0  0  0
  -20.6130  -28.3270   23.1650 C   0  0  0  0  0  3  0  0  0  0  0  0
  -20.7010  -26.9030   22.5670 C   0  0  0  0  0  2  0  0  0  0  0  0
  -19.5890  -26.6020   21.5580 C   0  0  0  0  0  2  0  0  0  0  0  0
  -18.2130  -26.7460   22.2150 C   0  0  0  0  0  2  0  0  0  0  0  0
  -19.1780  -28.8350   23.3450 C   0  0  0  0  0  0  0  0  0  0  0  0
  -18.9700  -30.0900   23.9560 C   0  0  0  0  0  3  0  0  0  0  0  0
  -17.6700  -30.5940   24.1450 C   0  0  0  0  0  3  0  0  0  0  0  0
  -16.5590  -29.8410   23.7280 C   0  0  0  0  0  3  0  0  0  0  0  0
  -16.7490  -28.5890   23.1180 C   0  0  0  0  0  3  0  0  0  0  0  0
  -25.8870  -32.5020   23.8620 C   0  0  0  0  0  3  0  0  0  0  0  0
  -25.5720  -33.9020   24.1810 N   0  0  0  0  0  0  0  0  0  0  0  0
  -25.9020  -34.9520   23.4160 C   0  0  0  0  0  0  0  0  0  0  0  0
  -26.5730  -34.8410   22.3860 O   0  0  0  0  0  0  0  0  0  0  0  0
  -24.9880  -34.0620   24.9880 H   0  0  0  0  0  0  0  0  0  0  0  0
  -24.1720  -36.7400   23.0440 C   0  0  0  0  0  1  0  0  0  0  0  0
  -25.4110  -36.3440   23.8620 C   0  0  0  0  0  3  0  0  0  0  0  0
  -27.5400  -37.2380   24.6930 C   0  0  0  0  0  1  0  0  0  0  0  0
  -26.4420  -37.3990   23.7450 N   0  0  0  0  0  0  0  0  0  0  0  0
  -26.0340  -38.3190   23.8870 H   0  0  0  0  0  0  0  0  0  0  0  0
  -26.3840  -31.7410   25.1530 C   0  0  1  0  0  0  0  0  0  0  0  0
  -25.2760  -31.5160   26.2080 C   0  0  0  0  0  1  0  0  0  0  0  0
  -26.9730  -30.3590   24.7840 C   0  0  0  0  0  1  0  0  0  0  0  0
  -27.5270  -32.5410   25.8220 C   0  0  0  0  0  1  0  0  0  0  0  0
  -30.3080  -17.4340   20.7880 C   0  0  0  0  0  2  0  0  0  0  0  0
  -30.5740  -14.8250   20.4030 C   0  0  0  0  0  0  0  0  0  0  0  0
  -30.3790  -12.5400   19.3850 C   0  0  0  0  0  2  0  0  0  0  0  0
  -29.4510  -12.5890   18.1520 C   0  0  0  0  0  2  0  0  0  0  0  0
  -27.9810  -12.4100   18.5710 C   0  0  0  0  0  2  0  0  0  0  0  0
  -27.5930  -13.3010   19.7810 C   0  0  0  0  0  3  0  0  0  0  0  0
  -28.6430  -13.2390   20.9110 C   0  0  0  0  0  2  0  0  0  0  0  0
  -29.9350  -13.6040   20.3180 N   0  0  0  0  0  0  0  0  0  0  0  0
  -31.7740  -14.8950   20.1240 O   0  0  0  0  0  0  0  0  0  0  0  0
  -29.8270  -15.9840   20.6080 N   0  0  0  0  0  0  0  0  0  0  0  0
  -28.8370  -15.8450   20.7460 H   0  0  0  0  0  0  0  0  0  0  0  0
  -25.1990  -13.8820   20.4870 C   0  0  0  0  0  0  0  0  0  0  0  0
  -24.1330  -13.1060   20.8490 C   0  0  0  0  0  0  0  0  0  0  0  0
  -24.6010  -11.7560   20.8290 C   0  0  0  0  0  0  0  0  0  0  0  0
  -26.2490  -13.0060   20.2650 N   0  0  0  0  0  0  0  0  0  0  0  0
  -25.8960  -11.7230   20.5350 N   0  0  0  0  0  0  0  0  0  0  0  0
  -23.8750  -10.4930   21.0170 C   0  0  0  0  0  0  0  0  0  0  0  0
  -24.2940   -9.5340   21.9650 C   0  0  0  0  0  3  0  0  0  0  0  0
  -23.5680   -8.3360   22.1420 C   0  0  0  0  0  3  0  0  0  0  0  0
  -22.4090   -8.0890   21.3680 C   0  0  0  0  0  0  0  0  0  0  0  0
  -22.0090   -9.0360   20.4090 C   0  0  0  0  0  3  0  0  0  0  0  0
  -22.7360  -10.2250   20.2300 C   0  0  0  0  0  3  0  0  0  0  0  0
  -21.6560   -6.9420   21.4520 O   0  0  0  0  0  0  0  0  0  0  0  0
  -21.5790   -6.2160   22.6130 C   0  0  0  0  0  0  0  0  0  0  0  0
  -21.1070   -6.7820   23.8170 C   0  0  0  0  0  3  0  0  0  0  0  0
  -20.9790   -5.9820   24.9700 C   0  0  0  0  0  3  0  0  0  0  0  0
  -21.3110   -4.6140   24.9190 C   0  0  0  0  0  0  0  0  0  0  0  0
  -21.7750   -4.0470   23.7190 C   0  0  0  0  0  3  0  0  0  0  0  0
  -21.9050   -4.8450   22.5690 C   0  0  0  0  0  0  0  0  0  0  0  0
  -22.3330   -4.2890   21.4100 F   0  0  0  0  0  0  0  0  0  0  0  0
  -21.1810   -3.8430   26.0230 F   0  0  0  0  0  0  0  0  0  0  0  0
  -22.7310  -13.5800   21.0990 C   0  0  0  0  0  0  0  0  0  0  0  0
  -21.9940  -12.8840   21.9580 N   0  0  0  0  0  0  0  0  0  0  0  0
  -22.2970  -14.6020   20.5700 O   0  0  0  0  0  0  0  0  0  0  0  0
  -22.3600  -12.0600   22.4110 H   0  0  0  0  0  0  0  0  0  0  0  0
  -21.0510  -13.1800   22.1670 H   0  0  0  0  0  0  0  0  0  0  0  0
  -25.3550  -15.2540   20.3020 N   0  0  0  0  0  0  0  0  0  0  0  0
  -24.5730  -15.8940   20.3820 H   0  0  0  0  0  0  0  0  0  0  0  0
  -26.1960  -15.7000   19.9660 H   0  0  0  0  0  0  0  0  0  0  0  0
  1  2  2  0
  2 53  1  0
  2  5  1  0
  3  6  1  0
  3  5  2  0
  4  6  1  0
  4 11  1  0
  6  9  1  0
  7  4  2  0
  8  1  1  0
  8  3  1  0
 11 10  1  0
 12 14  1  0
 12 11  1  0
 13 24  2  0
 14 19  1  0
 15 23  1  0
 15 25  1  0
 16 22  1  0
 16 18  1  0
 17 23  1  0
 18 17  1  0
 19 18  2  0
 20 14  2  0
 21 20  1  0
 21 16  2  0
 22 15  1  0
 23 13  1  0
 25 27  2  0
 26 25  1  0
 28 26  1  0
 29 38  2  0
 29 34  1  0
 30 26  1  0
 30 34  1  0
 31 30  1  0
 32 33  1  0
 32 31  1  0
 33 29  1  0
 34 35  2  0
 35 36  1  0
 37 36  2  0
 38 37  1  0
 39 13  1  0
 39 40  1  0
 39 49  1  0
 40 43  1  0
 41 45  1  0
 41 40  1  0
 42 41  2  0
 45 44  1  0
 47 45  1  0
 47 48  1  0
 47 46  1  0
 49 52  1  1
 49 50  1  0
 51 49  1  0
 54 62  1  0
 55 60  1  0
 56 57  1  0
 56 55  1  0
 58 57  1  0
 58 67  1  0
 58 59  1  0
 60 54  1  0
 60 59  1  0
 61 54  2  0
 62 63  1  0
 62 53  1  0
 64 65  2  0
 65 84  1  0
 66 65  1  0
 66 69  1  0
 67 64  1  0
 67 68  1  0
 68 66  2  0
 69 70  1  0
 70 71  2  0
 72 75  1  0
 72 71  1  0
 73 72  2  0
 74 73  1  0
 74 69  2  0
 75 76  1  0
 76 77  1  0
 77 78  2  0
 79 78  1  0
 79 83  1  0
 80 79  2  0
 81 76  2  0
 81 80  1  0
 82 81  1  0
 84 85  1  0
 85 88  1  0
 85 87  1  0
 86 84  2  0
 89 90  1  0
 89 64  1  0
 91 89  1  0
M  ISO  4  11 101  12 101  54 100  62 100
M  END
>  <TORSDO>  (69) 
F 18

>  <SCORE>  (69) 
-14.679

>  <name>  (69) 
68

>  <ligand_id>  (69) 
68

>  <original_smiles>  (69) 
[H]c1sc(N([H])C(=O)C([H])(Oc2c([H])c([H])c3c(c2[H])C([H])([H])N(C(=O)C([H])(N([H])C(=O)C([H])(N([H])C([H])([H])[H])C([H])([H])[H])C(C([H])([H])[H])(C([H])([H])[H])C([H])([H])[H])C([H])(C(=O)N([H])C2([H])c4c([H])c([H])c([H])c([H])c4C([H])([H])C([H])([H])C2([H])[H])C3([H])[H])C([H])([H])[H])nc1C([H])([H])N([H])C(=O)N1C([H])([H])C([H])([H])C([H])([H])C([H])(n2nc(-c3c([H])c([H])c(Oc4c([H])c([H])c(F)c([H])c4F)c([H])c3[H])c(C(=O)N([H])[H])c2N([H])[H])C1([H])[H]

>  <smiles>  (69) 
[H]c1sc(N([H])C(=O)C([H])(Oc2c([H])c([H])c3c(c2[H])C([H])([H])N(C(=O)C([H])(N([H])C(=O)C([H])(N([H])C([H])([H])[H])C([H])([H])[H])C(C([H])([H])[H])(C([H])([H])[H])C([H])([H])[H])C([H])(C(=O)N([H])C2([H])c4c([H])c([H])c([H])c([H])c4C([H])([H])C([H])([H])C2([H])[H])C3([H])[H])C([H])([H])[H])nc1C([H])([H])N([H])C(=O)N1C([H])([H])C([H])([H])C([H])([H])C([H])(n2nc(-c3c([H])c([H])c(Oc4c([H])c([H])c(F)c([H])c4F)c([H])c3[H])c(C(=O)N([H])[H])c2N([H])[H])C1([H])[H]

$$$$
69:0:0
     RDKit          3D

 96103  0  0  1  0  0  0  0  0999 V2000
  -26.7180  -13.5110   21.4110 C   0  0  0  0  0  2  0  0  0  0  0  0
  -24.7370  -13.8650   19.8980 C   0  0  0  0  0  3  0  0  0  0  0  0
  -26.0660  -16.2540   19.6300 C   0  0  0  0  0  3  0  0  0  0  0  0
  -26.1980  -14.8510   20.0320 N   0  0  0  0  0  0  0  0  0  0  0  0
  -26.8420  -17.6840   20.0300 N   0  0  0  0  0  0  0  0  0  0  0  0
  -24.5790  -15.5050   19.0950 S   0  0  0  0  0  3  0  0  0  0  0  0
  -27.5220  -17.4740   20.5640 H   0  0  0  0  0  0  0  0  0  0  0  0
  -30.2870  -13.5080   20.6270 C   0  0  0  0  0  0  0  0  0  0  0  0
  -30.5990  -11.8040   18.7140 C   0  0  0  0  0  2  0  0  0  0  0  0
  -29.6030  -12.0390   17.4820 C   0  0  0  0  0  2  0  0  0  0  0  0
  -28.1100  -12.1610   17.7840 C   0  0  0  0  0  2  0  0  0  0  0  0
  -28.0860  -12.8790   19.0690 C   0  0  0  0  0  3  0  0  0  0  0  0
  -28.7780  -11.8330   20.0370 C   0  0  0  0  0  2  0  0  0  0  0  0
  -30.0760  -12.3190   20.0270 N   0  0  0  0  0  0  0  0  0  0  0  0
  -31.3000  -14.1340   20.2500 O   0  0  0  0  0  0  0  0  0  0  0  0
  -27.9990  -13.5550   22.1200 C   0  0  0  0  0  0  0  0  0  0  0  0
  -29.2440  -13.9260   21.6040 N   0  0  0  0  0  0  0  0  0  0  0  0
  -27.9140  -13.3750   23.3720 O   0  0  0  0  0  0  0  0  0  0  0  0
  -29.7150  -14.4890   22.2860 H   0  0  0  0  0  0  0  0  0  0  0  0
  -25.0870  -14.0480   22.2500 C   0  0  0  0  0  3  0  0  0  0  0  0
  -24.4490  -12.6610   22.2370 C   0  0  0  0  0  3  0  0  0  0  0  0
  -24.7130  -11.3850   21.0160 C   0  0  0  0  0  0  0  0  0  0  0  0
  -26.5860  -12.8740   19.3190 N   0  0  0  0  0  2  0  0  0  0  0  0
  -25.8410  -11.5510   19.6860 N   0  0  0  0  0  0  0  0  0  0  0  0
  -23.8470  -10.0540   20.8330 C   0  0  0  0  0  0  0  0  0  0  0  0
  -24.3410   -8.7850   21.2110 C   0  0  0  0  0  3  0  0  0  0  0  0
  -23.5520   -7.5800   21.1340 C   0  0  0  0  0  3  0  0  0  0  0  0
  -22.2210   -7.6150   20.6970 C   0  0  0  0  0  0  0  0  0  0  0  0
  -21.7150   -8.8480   20.2520 C   0  0  0  0  0  3  0  0  0  0  0  0
  -22.5250  -10.0110   20.3020 C   0  0  0  0  0  3  0  0  0  0  0  0
  -21.3680   -6.5150   20.6080 O   0  0  0  0  0  0  0  0  0  0  0  0
  -21.6000   -5.3300   21.2780 C   0  0  0  0  0  0  0  0  0  0  0  0
  -21.5780   -5.2460   22.6990 C   0  0  0  0  0  3  0  0  0  0  0  0
  -21.7490   -3.9860   23.3190 C   0  0  0  0  0  3  0  0  0  0  0  0
  -21.9280   -2.8370   22.5520 C   0  0  0  0  0  0  0  0  0  0  0  0
  -21.9320   -2.9100   21.1420 C   0  0  0  0  0  3  0  0  0  0  0  0
  -21.7680   -4.1630   20.5150 C   0  0  0  0  0  0  0  0  0  0  0  0
  -21.7590   -4.2220   19.1600 F   0  0  0  0  0  0  0  0  0  0  0  0
  -22.0890   -1.6250   23.1540 F   0  0  0  0  0  0  0  0  0  0  0  0
  -22.9980  -13.0880   22.8750 C   0  0  0  0  0  3  0  0  0  0  0  0
  -22.1900  -11.9520   23.0160 N   0  0  0  0  0  0  0  0  0  0  0  0
  -22.4730  -14.0950   22.2640 O   0  0  0  0  0  1  0  0  0  0  0  0
  -22.6000  -11.2000   23.4220 H   0  0  0  0  0  0  0  0  0  0  0  0
  -21.1750  -12.1050   22.9680 H   0  0  0  0  0  0  0  0  0  0  0  0
  -26.0320  -14.9610   23.3580 N   0  0  0  0  0  0  0  0  0  0  0  0
  -26.0650  -14.8080   24.1520 H   0  0  0  0  0  0  0  0  0  0  0  0
  -26.9430  -15.3260   23.3590 H   0  0  0  0  0  0  0  0  0  0  0  0
  -23.3910  -13.0840   19.4980 C   0  0  0  0  0  0  0  0  0  0  0  0
  -23.4870  -12.8920   17.9020 C   0  0  0  0  0  1  0  0  0  0  0  0
  -22.4990  -12.6790   19.7740 O   0  0  0  0  0  0  0  0  0  0  0  0
  -25.5510  -19.8180   18.9900 C   0  0  0  0  0  1  0  0  0  0  0  0
  -26.9110  -19.4100   19.6180 C   0  0  0  0  0  2  0  0  0  0  0  0
  -27.5620  -21.0700   20.4980 C   0  0  0  0  0  2  0  0  0  0  0  0
  -28.2340  -20.8310   21.4730 O   0  0  0  0  0  1  0  0  0  0  0  0
  -27.3910  -22.9640   20.2000 C   0  0  0  0  0  2  0  0  0  0  0  0
  -27.9220  -24.5280   20.9050 O   0  0  0  0  0  0  0  0  0  0  0  0
  -24.8200  -31.3110   23.3150 C   0  0  0  0  0  0  0  0  0  0  0  0
  -27.3410  -25.9660   20.7190 C   0  0  0  0  0  0  0  0  0  0  0  0
  -23.8560  -29.9180   21.5570 C   0  0  0  0  0  3  0  0  0  0  0  0
  -25.4100  -28.2260   20.3500 C   0  0  0  0  0  0  0  0  0  0  0  0
  -26.4290  -29.9150   21.8300 C   0  0  0  0  0  2  0  0  0  0  0  0
  -26.4990  -28.4680   21.1880 C   0  0  0  0  0  0  0  0  0  0  0  0
  -27.4890  -27.3440   21.3530 C   0  0  0  0  0  3  0  0  0  0  0  0
  -26.3180  -25.9990   19.7660 C   0  0  0  0  0  3  0  0  0  0  0  0
  -25.3810  -27.0350   19.6100 C   0  0  0  0  0  3  0  0  0  0  0  0
  -24.2610  -29.2350   20.2300 C   0  0  0  0  0  2  0  0  0  0  0  0
  -25.0570  -30.4250   22.2920 N   0  0  0  0  0  0  0  0  0  0  0  0
  -23.6620  -31.6470   23.6450 O   0  0  0  0  0  0  0  0  0  0  0  0
  -22.9940  -28.9540   22.4220 C   0  0  0  0  0  0  0  0  0  0  0  0
  -21.6590  -28.9430   22.2190 N   0  0  0  0  0  0  0  0  0  0  0  0
  -23.5370  -28.2200   23.2510 O   0  0  0  0  0  0  0  0  0  0  0  0
  -21.2880  -29.5770   21.5260 H   0  0  0  0  0  0  0  0  0  0  0  0
  -18.1210  -28.2090   22.6220 C   0  0  0  0  0  0  0  0  0  0  0  0
  -20.6940  -28.0540   22.8810 C   0  0  0  0  0  3  0  0  0  0  0  0
  -20.5790  -26.7080   22.1290 C   0  0  0  0  0  2  0  0  0  0  0  0
  -19.4450  -26.6850   21.0970 C   0  0  0  0  0  2  0  0  0  0  0  0
  -18.0980  -26.9450   21.7760 C   0  0  0  0  0  2  0  0  0  0  0  0
  -19.3420  -28.7390   23.1240 C   0  0  0  0  0  0  0  0  0  0  0  0
  -19.3080  -29.9290   23.8840 C   0  0  0  0  0  3  0  0  0  0  0  0
  -18.0910  -30.5890   24.1410 C   0  0  0  0  0  3  0  0  0  0  0  0
  -16.8880  -30.0560   23.6530 C   0  0  0  0  0  3  0  0  0  0  0  0
  -16.9010  -28.8670   22.9010 C   0  0  0  0  0  3  0  0  0  0  0  0
  -25.9700  -31.9660   24.1330 C   0  0  0  0  0  3  0  0  0  0  0  0
  -26.1750  -31.2930   25.5470 C   0  0  1  0  0  0  0  0  0  0  0  0
  -24.8790  -31.1970   26.3880 C   0  0  0  0  0  1  0  0  0  0  0  0
  -26.7290  -29.8620   25.3990 C   0  0  0  0  0  1  0  0  0  0  0  0
  -27.2300  -32.0820   26.3540 C   0  0  0  0  0  1  0  0  0  0  0  0
  -25.6590  -33.4010   24.3080 N   0  0  0  0  0  0  0  0  0  0  0  0
  -26.1500  -34.4020   23.5600 C   0  0  0  0  0  0  0  0  0  0  0  0
  -26.9710  -34.2090   22.6630 O   0  0  0  0  0  0  0  0  0  0  0  0
  -24.9380  -33.6220   24.9820 H   0  0  0  0  0  0  0  0  0  0  0  0
  -24.5590  -36.2290   22.8480 C   0  0  0  0  0  1  0  0  0  0  0  0
  -25.6630  -35.8430   23.8490 C   0  0  0  0  0  3  0  0  0  0  0  0
  -27.6880  -36.7400   24.9140 C   0  0  0  0  0  1  0  0  0  0  0  0
  -26.7430  -36.8550   23.8040 N   0  0  0  0  0  0  0  0  0  0  0  0
  -26.3620  -37.7960   23.8110 H   0  0  0  0  0  0  0  0  0  0  0  0
  1 16  1  0
  1 20  1  0
  2 48  1  0
  2  4  1  0
  3  5  1  0
  3  4  1  0
  5  7  1  0
  6  3  1  1
  6  2  1  0
  6  4  1  0
  8 17  1  0
  9 14  1  0
 10 11  1  0
 10  9  1  0
 11 12  1  0
 12 23  1  0
 12 13  1  0
 14 13  1  0
 14  8  1  0
 15  8  2  0
 16 18  2  0
 17 16  1  0
 17 19  1  0
 20 45  1  0
 21 20  1  0
 21 40  1  0
 22 21  1  0
 23 24  1  0
 24 22  2  0
 25 22  1  0
 25 26  1  0
 27 26  2  0
 28 27  1  0
 29 30  1  0
 29 28  2  0
 30 25  2  0
 31 28  1  0
 31 32  1  0
 32 33  1  0
 33 34  2  0
 35 39  1  0
 35 34  1  0
 36 35  2  0
 37 36  1  0
 37 32  2  0
 38 37  1  0
 40 41  1  0
 41 43  1  0
 42 40  1  0
 44 41  1  0
 45 47  1  0
 45 46  1  0
 48 50  2  0
 49 48  1  0
 51 52  1  0
 52  5  1  0
 53 54  1  0
 55 53  1  0
 55 56  1  0
 57 68  2  0
 57 83  1  0
 58 56  1  0
 58 63  1  0
 59 67  1  0
 59 69  1  0
 60 62  1  0
 61 67  1  0
 62 63  2  0
 62 61  1  0
 64 58  2  0
 65 64  1  0
 65 60  2  0
 66 60  1  0
 66 59  1  0
 67 57  1  0
 69 71  2  0
 70 69  1  0
 70 74  1  0
 72 70  1  0
 73 82  2  0
 73 78  1  0
 74 78  1  0
 75 74  1  0
 76 77  1  0
 76 75  1  0
 77 73  1  0
 78 79  2  0
 79 80  1  0
 81 80  2  0
 82 81  1  0
 83 88  1  0
 83 84  1  0
 84 87  1  1
 84 85  1  0
 86 84  1  0
 88 91  1  0
 89 93  1  0
 89 88  1  0
 90 89  2  0
 92 93  1  0
 95 96  1  0
 95 93  1  0
 95 94  1  0
M  ISO  4   8 100  17 100  55 101  56 101
M  END
>  <TORSDO>  (70) 
F 20

>  <SCORE>  (70) 
6.739

>  <name>  (70) 
69

>  <ligand_id>  (70) 
69

>  <original_smiles>  (70) 
[H]c1c([H])c([H])c2c(c1[H])C([H])([H])C([H])([H])C([H])([H])C2([H])N([H])C(=O)C1([H])N(C(=O)C([H])(N([H])C(=O)C([H])(N([H])C([H])([H])[H])C([H])([H])[H])C(C([H])([H])[H])(C([H])([H])[H])C([H])([H])[H])C([H])([H])c2c([H])c(OC([H])([H])C(=O)C([H])(N([H])c3nc(C(=O)N([H])C(=O)N4C([H])([H])C([H])([H])C([H])([H])C([H])(n5nc(-c6c([H])c([H])c(Oc7c([H])c([H])c(F)c([H])c7F)c([H])c6[H])c(C(=O)N([H])[H])c5N([H])[H])C4([H])[H])c(C(=O)C([H])([H])[H])s3)C([H])([H])[H])c([H])c([H])c2C1([H])[H]

>  <smiles>  (70) 
[H]c1c([H])c([H])c2c(c1[H])C([H])([H])C([H])([H])C([H])([H])C2([H])N([H])C(=O)C1([H])N(C(=O)C([H])(N([H])C(=O)C([H])(N([H])C([H])([H])[H])C([H])([H])[H])C(C([H])([H])[H])(C([H])([H])[H])C([H])([H])[H])C([H])([H])c2c([H])c(OC([H])([H])C(=O)C([H])(N([H])c3nc(C(=O)N([H])C(=O)N4C([H])([H])C([H])([H])C([H])([H])C([H])(n5nc(-c6c([H])c([H])c(Oc7c([H])c([H])c(F)c([H])c7F)c([H])c6[H])c(C(=O)N([H])[H])c5N([H])[H])C4([H])[H])c(C(=O)C([H])([H])[H])s3)C([H])([H])[H])c([H])c([H])c2C1([H])[H]

$$$$
70:0:0
     RDKit          3D

 94102  0  0  1  0  0  0  0  0999 V2000
  -28.6980  -20.9330   20.5560 N   0  0  0  0  0  4  0  0  0  0  0  0
  -27.8990  -20.6220   21.0920 H   0  0  0  0  0  0  0  0  0  0  0  0
  -30.5580  -14.8240   20.2490 C   0  0  0  0  0  0  0  0  0  0  0  0
  -30.3500  -12.5360   19.2660 C   0  0  0  0  0  2  0  0  0  0  0  0
  -29.3920  -12.6010   18.0550 C   0  0  0  0  0  2  0  0  0  0  0  0
  -27.9320  -12.4170   18.5110 C   0  0  0  0  0  2  0  0  0  0  0  0
  -27.5730  -13.3020   19.7350 C   0  0  0  0  0  3  0  0  0  0  0  0
  -28.6510  -13.2330   20.8360 C   0  0  0  0  0  2  0  0  0  0  0  0
  -29.9310  -13.5940   20.2160 N   0  0  0  0  0  0  0  0  0  0  0  0
  -31.7630  -14.8710   19.9850 O   0  0  0  0  0  0  0  0  0  0  0  0
  -30.9420  -18.9290   18.3240 C   0  0  0  0  0  3  0  0  0  0  0  0
  -30.7550  -17.6220   18.8150 C   0  0  0  0  0  0  0  0  0  0  0  0
  -30.3070  -20.0310   18.9190 C   0  0  0  0  0  0  0  0  0  0  0  0
  -29.9620  -17.3920   19.9710 C   0  0  0  0  0  0  0  0  0  0  0  0
  -29.4720  -19.8200   20.0340 C   0  0  0  0  0  0  0  0  0  0  0  0
  -29.3130  -18.5160   20.5260 N   0  0  0  0  0  0  0  0  0  0  0  0
  -29.7850  -15.9770   20.4310 N   0  0  0  0  0  0  0  0  0  0  0  0
  -31.3000  -16.6050   18.1060 F   0  0  0  0  0  0  0  0  0  0  0  0
  -30.4430  -21.2560   18.3560 F   0  0  0  0  0  0  0  0  0  0  0  0
  -28.8820  -15.7940   20.8340 H   0  0  0  0  0  0  0  0  0  0  0  0
  -25.2020  -13.8760   20.5230 C   0  0  0  0  0  0  0  0  0  0  0  0
  -24.1460  -13.0950   20.9050 C   0  0  0  0  0  0  0  0  0  0  0  0
  -24.6120  -11.7450   20.8480 C   0  0  0  0  0  0  0  0  0  0  0  0
  -26.2420  -13.0020   20.2530 N   0  0  0  0  0  0  0  0  0  0  0  0
  -25.8950  -11.7140   20.5140 N   0  0  0  0  0  0  0  0  0  0  0  0
  -23.8910  -10.4790   21.0360 C   0  0  0  0  0  0  0  0  0  0  0  0
  -24.3300   -9.5090   21.9640 C   0  0  0  0  0  3  0  0  0  0  0  0
  -23.6080   -8.3080   22.1410 C   0  0  0  0  0  3  0  0  0  0  0  0
  -22.4330   -8.0700   21.3900 C   0  0  0  0  0  0  0  0  0  0  0  0
  -22.0130   -9.0280   20.4520 C   0  0  0  0  0  3  0  0  0  0  0  0
  -22.7350  -10.2200   20.2720 C   0  0  0  0  0  3  0  0  0  0  0  0
  -21.6830   -6.9220   21.4760 O   0  0  0  0  0  0  0  0  0  0  0  0
  -21.6270   -6.1840   22.6310 C   0  0  0  0  0  0  0  0  0  0  0  0
  -21.1580   -6.7320   23.8440 C   0  0  0  0  0  3  0  0  0  0  0  0
  -21.0520   -5.9180   24.9900 C   0  0  0  0  0  3  0  0  0  0  0  0
  -21.4050   -4.5580   24.9230 C   0  0  0  0  0  0  0  0  0  0  0  0
  -21.8680   -4.0090   23.7150 C   0  0  0  0  0  3  0  0  0  0  0  0
  -21.9760   -4.8190   22.5710 C   0  0  0  0  0  0  0  0  0  0  0  0
  -22.4020   -4.2800   21.4040 F   0  0  0  0  0  0  0  0  0  0  0  0
  -21.2970   -3.7740   26.0220 F   0  0  0  0  0  0  0  0  0  0  0  0
  -22.7530  -13.5660   21.2070 C   0  0  0  0  0  0  0  0  0  0  0  0
  -22.0390  -12.8550   22.0730 N   0  0  0  0  0  0  0  0  0  0  0  0
  -22.3080  -14.6000   20.7120 O   0  0  0  0  0  0  0  0  0  0  0  0
  -22.4140  -12.0190   22.4970 H   0  0  0  0  0  0  0  0  0  0  0  0
  -21.1050  -13.1510   22.3160 H   0  0  0  0  0  0  0  0  0  0  0  0
  -25.3570  -15.2490   20.3580 N   0  0  0  0  0  0  0  0  0  0  0  0
  -24.5850  -15.8930   20.4860 H   0  0  0  0  0  0  0  0  0  0  0  0
  -26.1840  -15.6960   19.9840 H   0  0  0  0  0  0  0  0  0  0  0  0
  -30.6180  -22.4650   21.2970 C   0  0  0  0  0  1  0  0  0  0  0  0
  -29.1210  -22.3550   20.9490 C   0  0  0  0  0  0  0  0  0  0  0  0
  -28.6310  -23.7000   20.1450 C   0  0  0  0  0  0  0  0  0  0  0  0
  -28.5840  -23.7080   18.9120 O   0  0  0  0  0  0  0  0  0  0  0  0
  -28.1910  -25.0390   20.9330 C   0  0  0  0  0  2  0  0  0  0  0  0
  -28.3850  -26.4040   20.3170 O   0  0  0  0  0  0  0  0  0  0  0  0
  -24.5820  -31.8940   23.2480 C   0  0  0  0  0  0  0  0  0  0  0  0
  -27.2870  -27.2930   20.2900 C   0  0  0  0  0  0  0  0  0  0  0  0
  -23.4290  -30.4800   21.5860 C   0  0  0  0  0  3  0  0  0  0  0  0
  -24.9240  -28.9250   20.2040 C   0  0  0  0  0  0  0  0  0  0  0  0
  -25.9740  -30.8040   21.4650 C   0  0  0  0  0  2  0  0  0  0  0  0
  -26.0790  -29.4170   20.8260 C   0  0  0  0  0  0  0  0  0  0  0  0
  -27.2680  -28.6160   20.8520 C   0  0  0  0  0  3  0  0  0  0  0  0
  -26.1100  -26.8630   19.6440 C   0  0  0  0  0  3  0  0  0  0  0  0
  -24.9450  -27.6570   19.6000 C   0  0  0  0  0  3  0  0  0  0  0  0
  -23.6830  -29.7980   20.2150 C   0  0  0  0  0  2  0  0  0  0  0  0
  -24.6790  -31.0790   22.1560 N   0  0  0  0  0  0  0  0  0  0  0  0
  -23.4830  -32.1660   23.7540 O   0  0  0  0  0  0  0  0  0  0  0  0
  -22.7470  -29.4660   22.5360 C   0  0  0  0  0  0  0  0  0  0  0  0
  -21.4230  -29.2900   22.3870 N   0  0  0  0  0  0  0  0  0  0  0  0
  -23.4100  -28.8400   23.3660 O   0  0  0  0  0  0  0  0  0  0  0  0
  -20.9460  -29.8460   21.6920 H   0  0  0  0  0  0  0  0  0  0  0  0
  -18.0310  -28.1160   22.8580 C   0  0  0  0  0  0  0  0  0  0  0  0
  -20.5910  -28.3520   23.1440 C   0  0  0  0  0  3  0  0  0  0  0  0
  -20.6840  -26.9250   22.5540 C   0  0  0  0  0  2  0  0  0  0  0  0
  -19.5850  -26.6220   21.5300 C   0  0  0  0  0  2  0  0  0  0  0  0
  -18.2010  -26.7720   22.1680 C   0  0  0  0  0  2  0  0  0  0  0  0
  -19.1540  -28.8640   23.3010 C   0  0  0  0  0  0  0  0  0  0  0  0
  -18.9420  -30.1220   23.9060 C   0  0  0  0  0  3  0  0  0  0  0  0
  -17.6390  -30.6320   24.0700 C   0  0  0  0  0  3  0  0  0  0  0  0
  -16.5320  -29.8800   23.6420 C   0  0  0  0  0  3  0  0  0  0  0  0
  -16.7280  -28.6240   23.0420 C   0  0  0  0  0  3  0  0  0  0  0  0
  -25.8430  -32.5400   23.9000 C   0  0  0  0  0  3  0  0  0  0  0  0
  -26.3190  -31.7920   25.2060 C   0  0  1  0  0  0  0  0  0  0  0  0
  -25.1910  -31.5700   26.2410 C   0  0  0  0  0  1  0  0  0  0  0  0
  -26.9170  -30.4100   24.8590 C   0  0  0  0  0  1  0  0  0  0  0  0
  -27.4440  -32.6010   25.8920 C   0  0  0  0  0  1  0  0  0  0  0  0
  -25.5220  -33.9430   24.1980 N   0  0  0  0  0  0  0  0  0  0  0  0
  -25.8800  -34.9870   23.4370 C   0  0  0  0  0  0  0  0  0  0  0  0
  -26.5840  -34.8690   22.4310 O   0  0  0  0  0  0  0  0  0  0  0  0
  -24.9000  -34.1080   24.9760 H   0  0  0  0  0  0  0  0  0  0  0  0
  -24.1750  -36.7820   22.9940 C   0  0  0  0  0  1  0  0  0  0  0  0
  -25.3800  -36.3810   23.8600 C   0  0  0  0  0  3  0  0  0  0  0  0
  -27.4780  -37.2730   24.7740 C   0  0  0  0  0  1  0  0  0  0  0  0
  -26.4200  -37.4300   23.7800 N   0  0  0  0  0  0  0  0  0  0  0  0
  -26.0110  -38.3530   23.8950 H   0  0  0  0  0  0  0  0  0  0  0  0
  1 50  2  3
  1  2  1  0
  3 17  1  0
  4  9  1  0
  5  6  1  0
  5  4  1  0
  7  6  1  0
  7 24  1  0
  7  8  1  0
  9  3  1  0
  9  8  1  0
 10  3  2  0
 11 12  2  0
 11 13  1  0
 12 14  1  0
 13 15  2  0
 14 17  1  0
 14 16  2  0
 15 16  1  0
 15  1  1  0
 17 20  1  0
 18 12  1  0
 19 13  1  0
 21 22  2  0
 22 41  1  0
 23 22  1  0
 23 26  1  0
 24 25  1  0
 24 21  1  0
 25 23  2  0
 26 27  1  0
 27 28  2  0
 29 32  1  0
 29 28  1  0
 30 29  2  0
 31 30  1  0
 31 26  2  0
 32 33  1  0
 33 34  1  0
 34 35  2  0
 36 35  1  0
 36 40  1  0
 37 36  2  0
 38 33  2  0
 38 37  1  0
 39 38  1  0
 41 42  1  0
 42 45  1  0
 42 44  1  0
 43 41  2  0
 46 47  1  0
 46 21  1  0
 48 46  1  0
 50 49  1  0
 51 53  1  0
 51 50  1  0
 52 51  2  0
 54 53  1  0
 55 66  2  0
 56 54  1  0
 56 61  1  0
 57 65  1  0
 57 67  1  0
 58 64  1  0
 58 60  1  0
 59 65  1  0
 60 61  2  0
 60 59  1  0
 62 56  2  0
 63 62  1  0
 63 58  2  0
 64 57  1  0
 65 55  1  0
 67 69  2  0
 68 67  1  0
 70 68  1  0
 71 80  2  0
 71 76  1  0
 72 68  1  0
 72 76  1  0
 73 72  1  0
 74 75  1  0
 74 73  1  0
 75 71  1  0
 76 77  2  0
 77 78  1  0
 79 78  2  0
 80 79  1  0
 81 55  1  0
 81 86  1  0
 81 82  1  0
 82 85  1  1
 82 83  1  0
 84 82  1  0
 86 89  1  0
 87 91  1  0
 87 86  1  0
 88 87  2  0
 91 90  1  0
 93 91  1  0
 93 94  1  0
 93 92  1  0
M  ISO  4   3 100  17 100  53 101  54 101
M  END
>  <TORSDO>  (71) 
F 19

>  <SCORE>  (71) 
-14.565

>  <name>  (71) 
70

>  <ligand_id>  (71) 
70

>  <original_smiles>  (71) 
[H]c1c([H])c([H])c2c(c1[H])C([H])([H])C([H])([H])C([H])([H])C2([H])N([H])C(=O)C1([H])N(C(=O)C([H])(N([H])C(=O)C([H])(N([H])C([H])([H])[H])C([H])([H])[H])C(C([H])([H])[H])(C([H])([H])[H])C([H])([H])[H])C([H])([H])c2c([H])c(OC([H])([H])C(=O)C([H])(N([H])c3nc(N([H])C(=O)N4C([H])([H])C([H])([H])C([H])([H])C([H])(n5nc(-c6c([H])c([H])c(Oc7c([H])c([H])c(F)c([H])c7F)c([H])c6[H])c(C(=O)N([H])[H])c5N([H])[H])C4([H])[H])c(F)c([H])c3F)C([H])([H])[H])c([H])c([H])c2C1([H])[H]

>  <smiles>  (71) 
[H]c1c([H])c([H])c2c(c1[H])C([H])([H])C([H])([H])C([H])([H])C2([H])N([H])C(=O)C1([H])N(C(=O)C([H])(N([H])C(=O)C([H])(N([H])C([H])([H])[H])C([H])([H])[H])C(C([H])([H])[H])(C([H])([H])[H])C([H])([H])[H])C([H])([H])c2c([H])c(OC([H])([H])C(=O)C([H])(N([H])c3nc(N([H])C(=O)N4C([H])([H])C([H])([H])C([H])([H])C([H])(n5nc(-c6c([H])c([H])c(Oc7c([H])c([H])c(F)c([H])c7F)c([H])c6[H])c(C(=O)N([H])[H])c5N([H])[H])C4([H])[H])c(F)c([H])c3F)C([H])([H])[H])c([H])c([H])c2C1([H])[H]

$$$$
71:0:0
     RDKit          3D

 94102  0  0  1  0  0  0  0  0999 V2000
  -28.9850  -21.6060   20.5110 C   0  0  0  0  0  0  0  0  0  0  0  0
  -30.0750  -20.8170   20.6130 N   0  0  0  0  0  0  0  0  0  0  0  0
  -27.8140  -21.2160   20.4610 O   0  0  0  0  0  0  0  0  0  0  0  0
  -30.9220  -21.3760   20.6300 H   0  0  0  0  0  0  0  0  0  0  0  0
  -30.6760  -14.5220   20.3360 C   0  0  0  0  0  0  0  0  0  0  0  0
  -30.3710  -12.3670   19.1740 C   0  0  0  0  0  2  0  0  0  0  0  0
  -29.4180  -12.5880   17.9820 C   0  0  0  0  0  2  0  0  0  0  0  0
  -27.9480  -12.4510   18.4240 C   0  0  0  0  0  2  0  0  0  0  0  0
  -27.6260  -13.2710   19.7030 C   0  0  0  0  0  3  0  0  0  0  0  0
  -28.6920  -13.0320   20.7960 C   0  0  0  0  0  2  0  0  0  0  0  0
  -30.0080  -13.3410   20.2170 N   0  0  0  0  0  0  0  0  0  0  0  0
  -31.8190  -14.6690   19.8920 O   0  0  0  0  0  0  0  0  0  0  0  0
  -31.4830  -18.8520   20.6470 C   0  0  0  0  0  0  0  0  0  0  0  0
  -30.2450  -19.4610   20.6650 C   0  0  0  0  0  0  0  0  0  0  0  0
  -30.2170  -16.9550   20.7550 C   0  0  0  0  0  0  0  0  0  0  0  0
  -32.8130  -19.5390   20.5590 C   0  0  0  0  0  1  0  0  0  0  0  0
  -31.4540  -17.4540   20.7060 N   0  0  0  0  0  0  0  0  0  0  0  0
  -29.9330  -15.5530   20.8010 N   0  0  0  0  0  0  0  0  0  0  0  0
  -28.9830  -18.2290   20.7760 S   0  0  0  0  0  0  0  0  0  0  0  0
  -28.9920  -15.3090   21.0650 H   0  0  0  0  0  0  0  0  0  0  0  0
  -25.2300  -13.8760   20.4200 C   0  0  0  0  0  0  0  0  0  0  0  0
  -24.1680  -13.1040   20.8030 C   0  0  0  0  0  0  0  0  0  0  0  0
  -24.6330  -11.7530   20.7780 C   0  0  0  0  0  0  0  0  0  0  0  0
  -26.2770  -12.9960   20.1910 N   0  0  0  0  0  0  0  0  0  0  0  0
  -25.9210  -11.7140   20.4630 N   0  0  0  0  0  0  0  0  0  0  0  0
  -23.9110  -10.4900   20.9780 C   0  0  0  0  0  0  0  0  0  0  0  0
  -24.3440   -9.5340   21.9230 C   0  0  0  0  0  3  0  0  0  0  0  0
  -23.6220   -8.3350   22.1100 C   0  0  0  0  0  3  0  0  0  0  0  0
  -22.4530   -8.0840   21.3510 C   0  0  0  0  0  0  0  0  0  0  0  0
  -22.0410   -9.0290   20.3950 C   0  0  0  0  0  3  0  0  0  0  0  0
  -22.7640  -10.2190   20.2070 C   0  0  0  0  0  3  0  0  0  0  0  0
  -21.7040   -6.9370   21.4460 O   0  0  0  0  0  0  0  0  0  0  0  0
  -21.6450   -6.2100   22.6090 C   0  0  0  0  0  0  0  0  0  0  0  0
  -21.1770   -6.7730   23.8170 C   0  0  0  0  0  3  0  0  0  0  0  0
  -21.0670   -5.9710   24.9710 C   0  0  0  0  0  3  0  0  0  0  0  0
  -21.4150   -4.6090   24.9180 C   0  0  0  0  0  0  0  0  0  0  0  0
  -21.8770   -4.0460   23.7150 C   0  0  0  0  0  3  0  0  0  0  0  0
  -21.9880   -4.8440   22.5640 C   0  0  0  0  0  0  0  0  0  0  0  0
  -22.4130   -4.2910   21.4010 F   0  0  0  0  0  0  0  0  0  0  0  0
  -21.3030   -3.8360   26.0240 F   0  0  0  0  0  0  0  0  0  0  0  0
  -22.7710  -13.5790   21.0790 C   0  0  0  0  0  0  0  0  0  0  0  0
  -22.0470  -12.8840   21.9510 N   0  0  0  0  0  0  0  0  0  0  0  0
  -22.3290  -14.6020   20.5590 O   0  0  0  0  0  0  0  0  0  0  0  0
  -22.4180  -12.0560   22.3930 H   0  0  0  0  0  0  0  0  0  0  0  0
  -21.1100  -13.1850   22.1790 H   0  0  0  0  0  0  0  0  0  0  0  0
  -25.3890  -15.2450   20.2270 N   0  0  0  0  0  0  0  0  0  0  0  0
  -24.6080  -15.8870   20.3030 H   0  0  0  0  0  0  0  0  0  0  0  0
  -26.2110  -15.6740   19.8200 H   0  0  0  0  0  0  0  0  0  0  0  0
  -29.4130  -23.1170   20.4580 C   0  0  0  0  0  0  0  0  0  0  0  0
  -30.6060  -23.4260   20.5810 O   0  0  0  0  0  0  0  0  0  0  0  0
  -28.3500  -24.2160   20.1970 C   0  0  0  0  0  2  0  0  0  0  0  0
  -27.7940  -25.5970   22.3090 C   0  0  0  0  0  1  0  0  0  0  0  0
  -28.5830  -25.5450   20.9840 C   0  0  0  0  0  3  0  0  0  0  0  0
  -28.4860  -26.7470   20.1840 O   0  0  0  0  0  0  0  0  0  0  0  0
  -24.6110  -31.8860   23.2450 C   0  0  0  0  0  0  0  0  0  0  0  0
  -27.3080  -27.4610   20.1910 C   0  0  0  0  0  0  0  0  0  0  0  0
  -23.4290  -30.4810   21.5860 C   0  0  0  0  0  3  0  0  0  0  0  0
  -24.9050  -28.9500   20.1740 C   0  0  0  0  0  0  0  0  0  0  0  0
  -25.9530  -30.8560   21.4110 C   0  0  0  0  0  2  0  0  0  0  0  0
  -26.0530  -29.4850   20.7720 C   0  0  0  0  0  0  0  0  0  0  0  0
  -27.2600  -28.7500   20.7710 C   0  0  0  0  0  3  0  0  0  0  0  0
  -26.1460  -26.9360   19.5870 C   0  0  0  0  0  3  0  0  0  0  0  0
  -24.9470  -27.6770   19.5770 C   0  0  0  0  0  3  0  0  0  0  0  0
  -23.6560  -29.8040   20.2070 C   0  0  0  0  0  2  0  0  0  0  0  0
  -24.6830  -31.0900   22.1400 N   0  0  0  0  0  0  0  0  0  0  0  0
  -23.5230  -32.1500   23.7760 O   0  0  0  0  0  0  0  0  0  0  0  0
  -22.7740  -29.4550   22.5400 C   0  0  0  0  0  0  0  0  0  0  0  0
  -21.4500  -29.2760   22.4080 N   0  0  0  0  0  0  0  0  0  0  0  0
  -23.4550  -28.8240   23.3520 O   0  0  0  0  0  0  0  0  0  0  0  0
  -20.9610  -29.8390   21.7260 H   0  0  0  0  0  0  0  0  0  0  0  0
  -18.0700  -28.0980   22.8990 C   0  0  0  0  0  0  0  0  0  0  0  0
  -20.6300  -28.3330   23.1680 C   0  0  0  0  0  3  0  0  0  0  0  0
  -20.7210  -26.9090   22.5720 C   0  0  0  0  0  2  0  0  0  0  0  0
  -19.6140  -26.6080   21.5580 C   0  0  0  0  0  2  0  0  0  0  0  0
  -18.2350  -26.7550   22.2070 C   0  0  0  0  0  2  0  0  0  0  0  0
  -19.1950  -28.8450   23.3370 C   0  0  0  0  0  0  0  0  0  0  0  0
  -18.9890  -30.1020   23.9450 C   0  0  0  0  0  3  0  0  0  0  0  0
  -17.6880  -30.6120   24.1200 C   0  0  0  0  0  3  0  0  0  0  0  0
  -16.5770  -29.8610   23.7000 C   0  0  0  0  0  3  0  0  0  0  0  0
  -16.7690  -28.6060   23.0950 C   0  0  0  0  0  3  0  0  0  0  0  0
  -25.8890  -32.5220   23.8780 C   0  0  0  0  0  3  0  0  0  0  0  0
  -26.3930  -31.7550   25.1620 C   0  0  1  0  0  0  0  0  0  0  0  0
  -25.2900  -31.5190   26.2190 C   0  0  0  0  0  1  0  0  0  0  0  0
  -26.9830  -30.3780   24.7770 C   0  0  0  0  0  1  0  0  0  0  0  0
  -27.5350  -32.5520   25.8350 C   0  0  0  0  0  1  0  0  0  0  0  0
  -25.5750  -33.9220   24.1970 N   0  0  0  0  0  0  0  0  0  0  0  0
  -25.9140  -34.9690   23.4350 C   0  0  0  0  0  0  0  0  0  0  0  0
  -26.5940  -34.8600   22.4110 O   0  0  0  0  0  0  0  0  0  0  0  0
  -24.9710  -34.0790   24.9920 H   0  0  0  0  0  0  0  0  0  0  0  0
  -24.1900  -36.7580   23.0430 C   0  0  0  0  0  1  0  0  0  0  0  0
  -25.4180  -36.3590   23.8780 C   0  0  0  0  0  3  0  0  0  0  0  0
  -27.5360  -37.2520   24.7400 C   0  0  0  0  0  1  0  0  0  0  0  0
  -26.4510  -37.4120   23.7750 N   0  0  0  0  0  0  0  0  0  0  0  0
  -26.0430  -38.3320   23.9080 H   0  0  0  0  0  0  0  0  0  0  0  0
  1  2  1  0
  2  4  1  0
  2 14  1  0
  3  1  2  0
  5 18  1  0
  6 11  1  0
  7  8  1  0
  7  6  1  0
  9  8  1  0
  9 24  1  0
  9 10  1  0
 11  5  1  0
 11 10  1  0
 12  5  2  0
 13 14  2  0
 13 17  1  0
 14 19  1  0
 15 19  1  0
 15 18  1  0
 16 13  1  0
 17 15  2  0
 18 20  1  0
 21 22  2  0
 22 41  1  0
 23 22  1  0
 23 26  1  0
 24 21  1  0
 24 25  1  0
 25 23  2  0
 26 27  1  0
 27 28  2  0
 29 32  1  0
 29 28  1  0
 30 29  2  0
 31 30  1  0
 31 26  2  0
 32 33  1  0
 33 34  1  0
 34 35  2  0
 36 35  1  0
 36 40  1  0
 37 36  2  0
 38 33  2  0
 38 37  1  0
 39 38  1  0
 41 42  1  0
 42 45  1  0
 42 44  1  0
 43 41  2  0
 46 47  1  0
 46 21  1  0
 48 46  1  0
 49  1  1  0
 49 50  2  0
 51 49  1  0
 51 53  1  0
 53 52  1  0
 54 56  1  0
 54 53  1  0
 55 66  2  0
 56 61  1  0
 57 65  1  0
 57 67  1  0
 58 64  1  0
 58 60  1  0
 59 65  1  0
 60 59  1  0
 61 60  2  0
 62 56  2  0
 63 62  1  0
 63 58  2  0
 64 57  1  0
 65 55  1  0
 67 69  2  0
 68 67  1  0
 70 68  1  0
 71 80  2  0
 71 76  1  0
 72 68  1  0
 72 76  1  0
 73 72  1  0
 74 75  1  0
 74 73  1  0
 75 71  1  0
 76 77  2  0
 77 78  1  0
 79 78  2  0
 80 79  1  0
 81 55  1  0
 81 86  1  0
 81 82  1  0
 82 85  1  1
 82 83  1  0
 84 82  1  0
 86 89  1  0
 87 91  1  0
 87 86  1  0
 88 87  2  0
 91 90  1  0
 93 91  1  0
 93 94  1  0
 93 92  1  0
M  ISO  4   5 100  18 100  53 101  54 101
M  END
>  <TORSDO>  (72) 
F 19

>  <SCORE>  (72) 
-14.384

>  <name>  (72) 
71

>  <ligand_id>  (72) 
71

>  <original_smiles>  (72) 
[H]c1c([H])c([H])c2c(c1[H])C([H])([H])C([H])([H])C([H])([H])C2([H])N([H])C(=O)C1([H])N(C(=O)C([H])(N([H])C(=O)C([H])(N([H])C([H])([H])[H])C([H])([H])[H])C(C([H])([H])[H])(C([H])([H])[H])C([H])([H])[H])C([H])([H])c2c([H])c(OC([H])(C([H])([H])[H])C([H])([H])C(=O)C(=O)N([H])c3sc(N([H])C(=O)N4C([H])([H])C([H])([H])C([H])([H])C([H])(n5nc(-c6c([H])c([H])c(Oc7c([H])c([H])c(F)c([H])c7F)c([H])c6[H])c(C(=O)N([H])[H])c5N([H])[H])C4([H])[H])nc3C([H])([H])[H])c([H])c([H])c2C1([H])[H]

>  <smiles>  (72) 
[H]c1c([H])c([H])c2c(c1[H])C([H])([H])C([H])([H])C([H])([H])C2([H])N([H])C(=O)C1([H])N(C(=O)C([H])(N([H])C(=O)C([H])(N([H])C([H])([H])[H])C([H])([H])[H])C(C([H])([H])[H])(C([H])([H])[H])C([H])([H])[H])C([H])([H])c2c([H])c(OC([H])(C([H])([H])[H])C([H])([H])C(=O)C(=O)N([H])c3sc(N([H])C(=O)N4C([H])([H])C([H])([H])C([H])([H])C([H])(n5nc(-c6c([H])c([H])c(Oc7c([H])c([H])c(F)c([H])c7F)c([H])c6[H])c(C(=O)N([H])[H])c5N([H])[H])C4([H])[H])nc3C([H])([H])[H])c([H])c([H])c2C1([H])[H]

$$$$
72:0:0
     RDKit          3D

 95103  0  0  1  0  0  0  0  0999 V2000
  -29.1460  -22.7490   20.0220 C   0  0  0  0  0  0  0  0  0  0  0  0
  -29.5930  -21.5330   19.4490 N   0  0  0  0  0  0  0  0  0  0  0  0
  -29.0260  -22.8810   21.2400 O   0  0  0  0  0  0  0  0  0  0  0  0
  -29.6750  -21.6600   18.4480 H   0  0  0  0  0  0  0  0  0  0  0  0
  -30.3560  -18.2470   21.2880 C   0  0  0  0  0  0  0  0  0  0  0  0
  -30.1600  -19.6930   21.1450 C   0  0  0  0  0  0  0  0  0  0  0  0
  -30.3030  -17.4850   20.1240 C   0  0  0  0  0  0  0  0  0  0  0  0
  -29.9100  -20.2080   19.8880 C   0  0  0  0  0  0  0  0  0  0  0  0
  -30.5570  -17.6110   22.6330 C   0  0  0  0  0  1  0  0  0  0  0  0
  -30.1750  -20.4560   22.2130 F   0  0  0  0  0  0  0  0  0  0  0  0
  -29.9970  -18.7200   18.8280 S   0  0  0  0  0  0  0  0  0  0  0  0
  -31.0660  -14.9530   19.7570 C   0  0  0  0  0  0  0  0  0  0  0  0
  -30.8350  -12.6100   18.8420 C   0  0  0  0  0  2  0  0  0  0  0  0
  -29.8220  -12.6250   17.6720 C   0  0  0  0  0  2  0  0  0  0  0  0
  -28.3750  -12.4930   18.1880 C   0  0  0  0  0  2  0  0  0  0  0  0
  -28.0870  -13.4350   19.3850 C   0  0  0  0  0  3  0  0  0  0  0  0
  -29.2040  -13.3570   20.4500 C   0  0  0  0  0  2  0  0  0  0  0  0
  -30.4670  -13.7010   19.7790 N   0  0  0  0  0  0  0  0  0  0  0  0
  -32.2200  -15.0560   19.3270 O   0  0  0  0  0  0  0  0  0  0  0  0
  -30.2600  -16.0540   20.0980 N   0  0  0  0  0  0  0  0  0  0  0  0
  -29.4070  -15.7010   20.5050 H   0  0  0  0  0  0  0  0  0  0  0  0
  -25.7950  -14.1400   20.2910 C   0  0  0  0  0  0  0  0  0  0  0  0
  -24.7110  -13.4190   20.7100 C   0  0  0  0  0  0  0  0  0  0  0  0
  -25.0870  -12.0440   20.6090 C   0  0  0  0  0  0  0  0  0  0  0  0
  -26.7640  -13.2090   19.9570 N   0  0  0  0  0  0  0  0  0  0  0  0
  -26.3500  -11.9400   20.2120 N   0  0  0  0  0  0  0  0  0  0  0  0
  -24.2990  -10.8220   20.8110 C   0  0  0  0  0  0  0  0  0  0  0  0
  -24.6680   -9.8550   21.7710 C   0  0  0  0  0  3  0  0  0  0  0  0
  -23.8820   -8.6970   21.9600 C   0  0  0  0  0  3  0  0  0  0  0  0
  -22.7140   -8.4990   21.1890 C   0  0  0  0  0  0  0  0  0  0  0  0
  -22.3620   -9.4530   20.2180 C   0  0  0  0  0  3  0  0  0  0  0  0
  -23.1480  -10.6020   20.0270 C   0  0  0  0  0  3  0  0  0  0  0  0
  -21.9040   -7.3930   21.2860 O   0  0  0  0  0  0  0  0  0  0  0  0
  -21.7100   -6.7460   22.4800 C   0  0  0  0  0  0  0  0  0  0  0  0
  -21.1980   -7.4120   23.6150 C   0  0  0  0  0  3  0  0  0  0  0  0
  -20.9500   -6.6920   24.8010 C   0  0  0  0  0  3  0  0  0  0  0  0
  -21.2020   -5.3090   24.8510 C   0  0  0  0  0  0  0  0  0  0  0  0
  -21.7060   -4.6430   23.7210 C   0  0  0  0  0  3  0  0  0  0  0  0
  -21.9560   -5.3580   22.5370 C   0  0  0  0  0  0  0  0  0  0  0  0
  -22.4220   -4.7080   21.4440 F   0  0  0  0  0  0  0  0  0  0  0  0
  -20.9560   -4.6150   25.9890 F   0  0  0  0  0  0  0  0  0  0  0  0
  -23.3660  -13.9690   21.0880 C   0  0  0  0  0  0  0  0  0  0  0  0
  -22.6700  -13.3110   22.0080 N   0  0  0  0  0  0  0  0  0  0  0  0
  -22.9450  -15.0170   20.6000 O   0  0  0  0  0  0  0  0  0  0  0  0
  -23.0260  -12.4610   22.4220 H   0  0  0  0  0  0  0  0  0  0  0  0
  -21.7700  -13.6610   22.3030 H   0  0  0  0  0  0  0  0  0  0  0  0
  -26.0300  -15.5040   20.1410 N   0  0  0  0  0  0  0  0  0  0  0  0
  -25.3070  -16.1930   20.3190 H   0  0  0  0  0  0  0  0  0  0  0  0
  -26.8600  -15.9030   19.7240 H   0  0  0  0  0  0  0  0  0  0  0  0
  -28.8460  -23.8690   19.0190 C   0  0  0  0  0  0  0  0  0  0  0  0
  -28.4160  -25.2300   19.0810 C   0  0  0  0  0  0  0  0  0  0  0  0
  -28.3070  -25.9920   17.7540 C   0  0  0  0  0  1  0  0  0  0  0  0
  -29.0450  -23.4360   17.7590 O   0  0  0  0  0  0  0  0  0  0  0  0
  -28.8430  -24.1670   17.1890 H   0  0  0  0  0  0  0  0  0  0  0  0
  -28.0970  -26.1650   20.1290 O   0  0  0  0  0  0  0  0  0  0  0  0
  -24.5680  -31.8110   23.1820 C   0  0  0  0  0  0  0  0  0  0  0  0
  -27.0580  -27.1530   20.0420 C   0  0  0  0  0  0  0  0  0  0  0  0
  -23.3250  -30.4490   21.5430 C   0  0  0  0  0  3  0  0  0  0  0  0
  -24.7350  -28.8820   20.0760 C   0  0  0  0  0  0  0  0  0  0  0  0
  -25.8750  -30.7010   21.3390 C   0  0  0  0  0  2  0  0  0  0  0  0
  -25.9250  -29.3200   20.6700 C   0  0  0  0  0  0  0  0  0  0  0  0
  -27.0860  -28.4680   20.6440 C   0  0  0  0  0  3  0  0  0  0  0  0
  -25.8370  -26.7960   19.4290 C   0  0  0  0  0  3  0  0  0  0  0  0
  -24.6990  -27.6300   19.4440 C   0  0  0  0  0  3  0  0  0  0  0  0
  -23.5150  -29.7860   20.1530 C   0  0  0  0  0  2  0  0  0  0  0  0
  -24.6100  -31.0070   22.0770 N   0  0  0  0  0  0  0  0  0  0  0  0
  -23.4940  -32.1020   23.7300 O   0  0  0  0  0  0  0  0  0  0  0  0
  -22.6510  -29.4400   22.5040 C   0  0  0  0  0  0  0  0  0  0  0  0
  -21.3260  -29.2500   22.3610 N   0  0  0  0  0  0  0  0  0  0  0  0
  -23.3200  -28.8270   23.3390 O   0  0  0  0  0  0  0  0  0  0  0  0
  -20.8430  -29.7950   21.6610 H   0  0  0  0  0  0  0  0  0  0  0  0
  -17.9680  -27.9600   22.7740 C   0  0  0  0  0  0  0  0  0  0  0  0
  -20.5060  -28.3100   23.1280 C   0  0  0  0  0  3  0  0  0  0  0  0
  -20.6720  -26.8660   22.6000 C   0  0  0  0  0  2  0  0  0  0  0  0
  -19.6200  -26.4810   21.5550 C   0  0  0  0  0  2  0  0  0  0  0  0
  -18.2110  -26.6000   22.1440 C   0  0  0  0  0  2  0  0  0  0  0  0
  -19.0450  -28.7700   23.2230 C   0  0  0  0  0  0  0  0  0  0  0  0
  -18.7650  -30.0390   23.7730 C   0  0  0  0  0  3  0  0  0  0  0  0
  -17.4400  -30.5020   23.8770 C   0  0  0  0  0  3  0  0  0  0  0  0
  -16.3760  -29.6910   23.4460 C   0  0  0  0  0  3  0  0  0  0  0  0
  -16.6400  -28.4220   22.9000 C   0  0  0  0  0  3  0  0  0  0  0  0
  -25.8650  -32.4220   23.7970 C   0  0  0  0  0  3  0  0  0  0  0  0
  -26.3950  -31.6190   25.0480 C   0  0  1  0  0  0  0  0  0  0  0  0
  -25.3140  -31.3600   26.1240 C   0  0  0  0  0  1  0  0  0  0  0  0
  -26.9680  -30.2480   24.6210 C   0  0  0  0  0  1  0  0  0  0  0  0
  -27.5560  -32.3940   25.7150 C   0  0  0  0  0  1  0  0  0  0  0  0
  -25.5710  -33.8150   24.1670 N   0  0  0  0  0  0  0  0  0  0  0  0
  -25.8890  -34.8850   23.4250 C   0  0  0  0  0  0  0  0  0  0  0  0
  -26.5270  -34.8020   22.3730 O   0  0  0  0  0  0  0  0  0  0  0  0
  -25.0000  -33.9530   24.9880 H   0  0  0  0  0  0  0  0  0  0  0  0
  -24.1630  -36.6990   23.1710 C   0  0  0  0  0  1  0  0  0  0  0  0
  -25.4270  -36.2660   23.9320 C   0  0  0  0  0  3  0  0  0  0  0  0
  -27.5920  -37.1200   24.7140 C   0  0  0  0  0  1  0  0  0  0  0  0
  -26.4630  -37.3140   23.8080 N   0  0  0  0  0  0  0  0  0  0  0  0
  -26.0690  -38.2340   23.9850 H   0  0  0  0  0  0  0  0  0  0  0  0
  1  3  2  0
  2  8  1  0
  2  1  1  0
  4  2  1  0
  5  9  1  0
  6  5  1  0
  6 10  1  0
  7  5  2  0
  8  6  2  0
 11  8  1  0
 11  7  1  0
 12 18  1  0
 12 20  1  0
 13 18  1  0
 14 15  1  0
 14 13  1  0
 16 15  1  0
 16 25  1  0
 16 17  1  0
 18 17  1  0
 19 12  2  0
 20  7  1  0
 20 21  1  0
 22 23  2  0
 23 42  1  0
 24 23  1  0
 24 27  1  0
 25 26  1  0
 25 22  1  0
 26 24  2  0
 27 28  1  0
 28 29  2  0
 30 33  1  0
 30 29  1  0
 31 30  2  0
 32 31  1  0
 32 27  2  0
 33 34  1  0
 34 39  2  0
 34 35  1  0
 35 36  2  0
 36 37  1  0
 37 41  1  0
 38 37  2  0
 39 38  1  0
 40 39  1  0
 42 43  1  0
 43 46  1  0
 43 45  1  0
 44 42  2  0
 47 22  1  0
 47 48  1  0
 49 47  1  0
 50 51  2  0
 50  1  1  0
 51 55  1  0
 52 51  1  0
 53 50  1  0
 54 53  1  0
 56 67  2  0
 57 55  1  0
 57 62  1  0
 58 66  1  0
 58 68  1  0
 59 65  1  0
 59 61  1  0
 60 66  1  0
 61 60  1  0
 62 61  2  0
 63 64  1  0
 63 57  2  0
 64 59  2  0
 65 58  1  0
 66 56  1  0
 68 70  2  0
 69 68  1  0
 71 69  1  0
 72 81  2  0
 72 77  1  0
 73 69  1  0
 73 77  1  0
 74 73  1  0
 75 76  1  0
 75 74  1  0
 76 72  1  0
 77 78  2  0
 78 79  1  0
 80 79  2  0
 81 80  1  0
 82 56  1  0
 82 87  1  0
 82 83  1  0
 83 86  1  1
 83 84  1  0
 85 83  1  0
 87 90  1  0
 88 92  1  0
 88 87  1  0
 89 88  2  0
 92 91  1  0
 94 92  1  0
 94 95  1  0
 94 93  1  0
M  ISO  4  12 100  20 100  51 101  55 101
M  END
>  <TORSDO>  (73) 
F 19

>  <SCORE>  (73) 
-13.648

>  <name>  (73) 
72

>  <ligand_id>  (73) 
72

>  <original_smiles>  (73) 
[H]OC(C(=O)N([H])c1sc(N([H])C(=O)N2C([H])([H])C([H])([H])C([H])([H])C([H])(n3nc(-c4c([H])c([H])c(Oc5c([H])c([H])c(F)c([H])c5F)c([H])c4[H])c(C(=O)N([H])[H])c3N([H])[H])C2([H])[H])c(C([H])([H])[H])c1F)=C(Oc1c([H])c([H])c2c(c1[H])C([H])([H])N(C(=O)C([H])(N([H])C(=O)C([H])(N([H])C([H])([H])[H])C([H])([H])[H])C(C([H])([H])[H])(C([H])([H])[H])C([H])([H])[H])C([H])(C(=O)N([H])C1([H])c3c([H])c([H])c([H])c([H])c3C([H])([H])C([H])([H])C1([H])[H])C2([H])[H])C([H])([H])[H]

>  <smiles>  (73) 
[H]OC(C(=O)N([H])c1sc(N([H])C(=O)N2C([H])([H])C([H])([H])C([H])([H])C([H])(n3nc(-c4c([H])c([H])c(Oc5c([H])c([H])c(F)c([H])c5F)c([H])c4[H])c(C(=O)N([H])[H])c3N([H])[H])C2([H])[H])c(C([H])([H])[H])c1F)=C(Oc1c([H])c([H])c2c(c1[H])C([H])([H])N(C(=O)C([H])(N([H])C(=O)C([H])(N([H])C([H])([H])[H])C([H])([H])[H])C(C([H])([H])[H])(C([H])([H])[H])C([H])([H])[H])C([H])(C(=O)N([H])C1([H])c3c([H])c([H])c([H])c([H])c3C([H])([H])C([H])([H])C1([H])[H])C2([H])[H])C([H])([H])[H]

$$$$
73:0:0
     RDKit          3D

 91 99  0  0  1  0  0  0  0  0999 V2000
  -28.4690  -21.6300   20.3050 C   0  0  2  0  0  0  0  0  0  0  0  0
  -27.5630  -21.5520   21.2790 F   0  0  0  0  0  0  0  0  0  0  0  0
  -27.7660  -21.5890   19.1740 F   0  0  0  0  0  0  0  0  0  0  0  0
  -30.4960  -15.0860   20.3200 C   0  0  0  0  0  0  0  0  0  0  0  0
  -30.4060  -12.7210   19.3790 C   0  0  0  0  0  2  0  0  0  0  0  0
  -29.4730  -12.6580   18.1460 C   0  0  0  0  0  2  0  0  0  0  0  0
  -28.0100  -12.4350   18.5760 C   0  0  0  0  0  2  0  0  0  0  0  0
  -27.5950  -13.3540   19.7550 C   0  0  0  0  0  3  0  0  0  0  0  0
  -28.6520  -13.3800   20.8800 C   0  0  0  0  0  2  0  0  0  0  0  0
  -29.9170  -13.8140   20.2720 N   0  0  0  0  0  0  0  0  0  0  0  0
  -31.6990  -15.1510   20.0370 O   0  0  0  0  0  0  0  0  0  0  0  0
  -30.7930  -20.1920   20.2910 C   0  0  0  0  0  3  0  0  0  0  0  0
  -29.4150  -20.2510   20.3610 C   0  0  0  0  0  0  0  0  0  0  0  0
  -29.9190  -17.7800   20.4150 C   0  0  0  0  0  0  0  0  0  0  0  0
  -28.9720  -18.8230   20.4360 N   0  0  0  0  0  0  0  0  0  0  0  0
  -29.6860  -16.2570   20.4810 N   0  0  0  0  0  0  0  0  0  0  0  0
  -31.5020  -18.5520   20.3020 S   0  0  0  0  0  0  0  0  0  0  0  0
  -28.7230  -16.0210   20.6530 H   0  0  0  0  0  0  0  0  0  0  0  0
  -25.2160  -13.9140   20.5070 C   0  0  0  0  0  0  0  0  0  0  0  0
  -24.1560  -13.1330   20.8750 C   0  0  0  0  0  0  0  0  0  0  0  0
  -24.6250  -11.7830   20.8340 C   0  0  0  0  0  0  0  0  0  0  0  0
  -26.2610  -13.0420   20.2560 N   0  0  0  0  0  0  0  0  0  0  0  0
  -25.9160  -11.7540   20.5190 N   0  0  0  0  0  0  0  0  0  0  0  0
  -23.9040  -10.5170   21.0160 C   0  0  0  0  0  0  0  0  0  0  0  0
  -24.3260   -9.5560   21.9610 C   0  0  0  0  0  3  0  0  0  0  0  0
  -23.6020   -8.3550   22.1330 C   0  0  0  0  0  3  0  0  0  0  0  0
  -22.4440   -8.1080   21.3610 C   0  0  0  0  0  0  0  0  0  0  0  0
  -22.0400   -9.0580   20.4070 C   0  0  0  0  0  3  0  0  0  0  0  0
  -22.7640  -10.2500   20.2320 C   0  0  0  0  0  3  0  0  0  0  0  0
  -21.6950   -6.9590   21.4410 O   0  0  0  0  0  0  0  0  0  0  0  0
  -21.6110   -6.2330   22.6010 C   0  0  0  0  0  0  0  0  0  0  0  0
  -21.1080   -6.7930   23.7960 C   0  0  0  0  0  3  0  0  0  0  0  0
  -20.9760   -5.9910   24.9470 C   0  0  0  0  0  3  0  0  0  0  0  0
  -21.3350   -4.6310   24.9060 C   0  0  0  0  0  0  0  0  0  0  0  0
  -21.8320   -4.0700   23.7150 C   0  0  0  0  0  3  0  0  0  0  0  0
  -21.9670   -4.8700   22.5660 C   0  0  0  0  0  0  0  0  0  0  0  0
  -22.4250   -4.3180   21.4160 F   0  0  0  0  0  0  0  0  0  0  0  0
  -21.2020   -3.8580   26.0090 F   0  0  0  0  0  0  0  0  0  0  0  0
  -22.7570  -13.6040   21.1490 C   0  0  0  0  0  0  0  0  0  0  0  0
  -22.0320  -12.9050   22.0140 N   0  0  0  0  0  0  0  0  0  0  0  0
  -22.3150  -14.6290   20.6300 O   0  0  0  0  0  0  0  0  0  0  0  0
  -22.4000  -12.0770   22.4590 H   0  0  0  0  0  0  0  0  0  0  0  0
  -21.0930  -13.2040   22.2370 H   0  0  0  0  0  0  0  0  0  0  0  0
  -25.3730  -15.2880   20.3390 N   0  0  0  0  0  0  0  0  0  0  0  0
  -24.6030  -15.9370   20.4570 H   0  0  0  0  0  0  0  0  0  0  0  0
  -26.2080  -15.7330   19.9810 H   0  0  0  0  0  0  0  0  0  0  0  0
  -28.9630  -23.2720   20.3730 C   0  0  2  0  0  0  0  0  0  0  0  0
  -29.9510  -23.3860   19.4880 F   0  0  0  0  0  0  0  0  0  0  0  0
  -29.4990  -23.4400   21.5820 F   0  0  0  0  0  0  0  0  0  0  0  0
  -27.9580  -24.6390   20.1230 C   0  0  0  0  0  2  0  0  0  0  0  0
  -28.2380  -26.1830   20.2940 O   0  0  0  0  0  0  0  0  0  0  0  0
  -24.6370  -31.9260   23.2790 C   0  0  0  0  0  0  0  0  0  0  0  0
  -27.1930  -27.1890   20.2270 C   0  0  0  0  0  0  0  0  0  0  0  0
  -23.4320  -30.5450   21.6330 C   0  0  0  0  0  3  0  0  0  0  0  0
  -24.8740  -28.9670   20.1980 C   0  0  0  0  0  0  0  0  0  0  0  0
  -25.9890  -30.7910   21.4710 C   0  0  0  0  0  2  0  0  0  0  0  0
  -26.0580  -29.4000   20.8090 C   0  0  0  0  0  0  0  0  0  0  0  0
  -27.2170  -28.5300   20.8010 C   0  0  0  0  0  3  0  0  0  0  0  0
  -25.9820  -26.8660   19.5770 C   0  0  0  0  0  3  0  0  0  0  0  0
  -24.8540  -27.7160   19.5630 C   0  0  0  0  0  3  0  0  0  0  0  0
  -23.6510  -29.8720   20.2510 C   0  0  0  0  0  2  0  0  0  0  0  0
  -24.7070  -31.1090   22.1830 N   0  0  0  0  0  0  0  0  0  0  0  0
  -23.5530  -32.2150   23.8060 O   0  0  0  0  0  0  0  0  0  0  0  0
  -22.7460  -29.5380   22.5910 C   0  0  0  0  0  0  0  0  0  0  0  0
  -21.4180  -29.3680   22.4570 N   0  0  0  0  0  0  0  0  0  0  0  0
  -23.4130  -28.9130   23.4200 O   0  0  0  0  0  0  0  0  0  0  0  0
  -20.9370  -29.9280   21.7680 H   0  0  0  0  0  0  0  0  0  0  0  0
  -18.0360  -28.1620   22.9410 C   0  0  0  0  0  0  0  0  0  0  0  0
  -20.5920  -28.4300   23.2230 C   0  0  0  0  0  3  0  0  0  0  0  0
  -20.7020  -26.9970   22.6550 C   0  0  0  0  0  2  0  0  0  0  0  0
  -19.6070  -26.6690   21.6340 C   0  0  0  0  0  2  0  0  0  0  0  0
  -18.2200  -26.8130   22.2690 C   0  0  0  0  0  2  0  0  0  0  0  0
  -19.1500  -28.9290   23.3760 C   0  0  0  0  0  0  0  0  0  0  0  0
  -18.9230  -30.1880   23.9720 C   0  0  0  0  0  3  0  0  0  0  0  0
  -17.6160  -30.6840   24.1330 C   0  0  0  0  0  3  0  0  0  0  0  0
  -16.5160  -29.9150   23.7120 C   0  0  0  0  0  3  0  0  0  0  0  0
  -16.7280  -28.6560   23.1220 C   0  0  0  0  0  3  0  0  0  0  0  0
  -25.9170  -32.5550   23.9090 C   0  0  0  0  0  3  0  0  0  0  0  0
  -25.6130  -33.9580   24.2440 N   0  0  0  0  0  0  0  0  0  0  0  0
  -25.9200  -35.0100   23.4740 C   0  0  0  0  0  0  0  0  0  0  0  0
  -26.5570  -34.9040   22.4240 O   0  0  0  0  0  0  0  0  0  0  0  0
  -25.0430  -34.1130   25.0630 H   0  0  0  0  0  0  0  0  0  0  0  0
  -24.1670  -36.7950   23.1930 C   0  0  0  0  0  1  0  0  0  0  0  0
  -25.4490  -36.4010   23.9450 C   0  0  0  0  0  3  0  0  0  0  0  0
  -27.6130  -37.3100   24.6700 C   0  0  0  0  0  1  0  0  0  0  0  0
  -26.4700  -37.4590   23.7730 N   0  0  0  0  0  0  0  0  0  0  0  0
  -26.0640  -38.3770   23.9290 H   0  0  0  0  0  0  0  0  0  0  0  0
  -26.4180  -31.7840   25.1930 C   0  0  1  0  0  0  0  0  0  0  0  0
  -25.3140  -31.5560   26.2530 C   0  0  0  0  0  1  0  0  0  0  0  0
  -26.9950  -30.4010   24.8150 C   0  0  0  0  0  1  0  0  0  0  0  0
  -27.5680  -32.5740   25.8620 C   0  0  0  0  0  1  0  0  0  0  0  0
  1 13  1  0
  1 47  1  0
  1  2  1  1
  3  1  1  0
  4 16  1  0
  5 10  1  0
  6  7  1  0
  6  5  1  0
  8  7  1  0
  8 22  1  0
  8  9  1  0
 10  4  1  0
 10  9  1  0
 11  4  2  0
 12 17  1  0
 12 13  2  0
 13 15  1  0
 14 15  2  0
 14 16  1  0
 16 18  1  0
 17 14  1  0
 19 20  2  0
 20 39  1  0
 21 20  1  0
 21 24  1  0
 22 19  1  0
 22 23  1  0
 23 21  2  0
 24 25  1  0
 25 26  2  0
 27 30  1  0
 27 26  1  0
 28 27  2  0
 29 28  1  0
 29 24  2  0
 30 31  1  0
 31 32  1  0
 32 33  2  0
 34 33  1  0
 34 38  1  0
 35 34  2  0
 36 31  2  0
 36 35  1  0
 37 36  1  0
 39 40  1  0
 40 43  1  0
 40 42  1  0
 41 39  2  0
 44 45  1  0
 44 19  1  0
 46 44  1  0
 47 49  1  1
 48 47  1  0
 50 51  1  0
 50 47  1  0
 52 63  2  0
 53 51  1  0
 53 58  1  0
 54 62  1  0
 54 64  1  0
 55 61  1  0
 55 57  1  0
 56 62  1  0
 57 56  1  0
 58 57  2  0
 59 53  2  0
 60 59  1  0
 60 55  2  0
 61 54  1  0
 62 52  1  0
 64 66  2  0
 65 64  1  0
 67 65  1  0
 68 77  2  0
 68 73  1  0
 69 65  1  0
 69 73  1  0
 70 69  1  0
 71 72  1  0
 71 70  1  0
 72 68  1  0
 73 74  2  0
 74 75  1  0
 76 75  2  0
 77 76  1  0
 78 52  1  0
 78 79  1  0
 78 88  1  0
 79 82  1  0
 80 84  1  0
 80 79  1  0
 81 80  2  0
 84 83  1  0
 86 87  1  0
 86 84  1  0
 86 85  1  0
 88 91  1  1
 88 89  1  0
 90 88  1  0
M  ISO  4   4 100  16 100  50 101  51 101
M  END
>  <TORSDO>  (74) 
F 18

>  <SCORE>  (74) 
-15.957

>  <name>  (74) 
73

>  <ligand_id>  (74) 
73

>  <original_smiles>  (74) 
[H]c1sc(N([H])C(=O)N2C([H])([H])C([H])([H])C([H])([H])C([H])(n3nc(-c4c([H])c([H])c(Oc5c([H])c([H])c(F)c([H])c5F)c([H])c4[H])c(C(=O)N([H])[H])c3N([H])[H])C2([H])[H])nc1C(F)(F)C(F)(F)C([H])([H])Oc1c([H])c([H])c2c(c1[H])C([H])([H])N(C(=O)C([H])(N([H])C(=O)C([H])(N([H])C([H])([H])[H])C([H])([H])[H])C(C([H])([H])[H])(C([H])([H])[H])C([H])([H])[H])C([H])(C(=O)N([H])C1([H])c3c([H])c([H])c([H])c([H])c3C([H])([H])C([H])([H])C1([H])[H])C2([H])[H]

>  <smiles>  (74) 
[H]c1sc(N([H])C(=O)N2C([H])([H])C([H])([H])C([H])([H])C([H])(n3nc(-c4c([H])c([H])c(Oc5c([H])c([H])c(F)c([H])c5F)c([H])c4[H])c(C(=O)N([H])[H])c3N([H])[H])C2([H])[H])nc1C(F)(F)C(F)(F)C([H])([H])Oc1c([H])c([H])c2c(c1[H])C([H])([H])N(C(=O)C([H])(N([H])C(=O)C([H])(N([H])C([H])([H])[H])C([H])([H])[H])C(C([H])([H])[H])(C([H])([H])[H])C([H])([H])[H])C([H])(C(=O)N([H])C1([H])c3c([H])c([H])c([H])c([H])c3C([H])([H])C([H])([H])C1([H])[H])C2([H])[H]

$$$$
74:0:0
     RDKit          3D

 92100  0  0  1  0  0  0  0  0999 V2000
  -28.5810  -21.1540   20.7050 C   0  0  0  0  0  0  0  0  0  0  0  0
  -28.2750  -23.6880   20.4690 C   0  0  0  0  0  0  0  0  0  0  0  0
  -28.8650  -22.4320   20.1860 N   0  0  0  0  0  0  0  0  0  0  0  0
  -27.6590  -21.0090   21.5180 O   0  0  0  0  0  0  0  0  0  0  0  0
  -27.4050  -23.8140   21.3380 O   0  0  0  0  0  0  0  0  0  0  0  0
  -29.5960  -22.4490   19.4930 H   0  0  0  0  0  0  0  0  0  0  0  0
  -30.5970  -14.9390   20.2220 C   0  0  0  0  0  0  0  0  0  0  0  0
  -30.4490  -12.6270   19.2420 C   0  0  0  0  0  2  0  0  0  0  0  0
  -29.5010  -12.6610   18.0210 C   0  0  0  0  0  2  0  0  0  0  0  0
  -28.0380  -12.4630   18.4630 C   0  0  0  0  0  2  0  0  0  0  0  0
  -27.6590  -13.3530   19.6760 C   0  0  0  0  0  3  0  0  0  0  0  0
  -28.7270  -13.2940   20.7900 C   0  0  0  0  0  2  0  0  0  0  0  0
  -30.0070  -13.6860   20.1850 N   0  0  0  0  0  0  0  0  0  0  0  0
  -31.7800  -15.0340   19.8760 O   0  0  0  0  0  0  0  0  0  0  0  0
  -29.3170  -19.7960   20.3410 C   0  0  0  0  0  3  0  0  0  0  0  0
  -29.9470  -17.5390   20.2700 C   0  0  0  0  0  0  0  0  0  0  0  0
  -29.0100  -18.4850   20.6620 N   0  0  0  0  0  0  0  0  0  0  0  0
  -31.0170  -18.0670   19.6350 N   0  0  0  0  0  2  0  0  0  0  0  0
  -29.7940  -16.0600   20.4880 N   0  0  0  0  0  0  0  0  0  0  0  0
  -30.8610  -19.7850   19.5250 S   0  0  0  0  0  0  0  0  0  0  0  0
  -28.8820  -15.8090   20.8340 H   0  0  0  0  0  0  0  0  0  0  0  0
  -25.2760  -13.9230   20.4240 C   0  0  0  0  0  0  0  0  0  0  0  0
  -24.2190  -13.1420   20.8070 C   0  0  0  0  0  0  0  0  0  0  0  0
  -24.6930  -11.7950   20.7740 C   0  0  0  0  0  0  0  0  0  0  0  0
  -26.3240  -13.0510   20.1800 N   0  0  0  0  0  0  0  0  0  0  0  0
  -25.9810  -11.7660   20.4540 N   0  0  0  0  0  0  0  0  0  0  0  0
  -23.9760  -10.5270   20.9730 C   0  0  0  0  0  0  0  0  0  0  0  0
  -24.4150   -9.5690   21.9120 C   0  0  0  0  0  3  0  0  0  0  0  0
  -23.6990   -8.3670   22.0980 C   0  0  0  0  0  3  0  0  0  0  0  0
  -22.5280   -8.1160   21.3430 C   0  0  0  0  0  0  0  0  0  0  0  0
  -22.1090   -9.0620   20.3920 C   0  0  0  0  0  3  0  0  0  0  0  0
  -22.8260  -10.2550   20.2050 C   0  0  0  0  0  3  0  0  0  0  0  0
  -21.7810   -6.9660   21.4380 O   0  0  0  0  0  0  0  0  0  0  0  0
  -21.7280   -6.2360   22.5990 C   0  0  0  0  0  0  0  0  0  0  0  0
  -21.2790   -6.7990   23.8130 C   0  0  0  0  0  3  0  0  0  0  0  0
  -21.1740   -5.9940   24.9650 C   0  0  0  0  0  3  0  0  0  0  0  0
  -21.5100   -4.6280   24.9040 C   0  0  0  0  0  0  0  0  0  0  0  0
  -21.9520   -4.0650   23.6940 C   0  0  0  0  0  3  0  0  0  0  0  0
  -22.0580   -4.8660   22.5440 C   0  0  0  0  0  0  0  0  0  0  0  0
  -22.4640   -4.3140   21.3760 F   0  0  0  0  0  0  0  0  0  0  0  0
  -21.4020   -3.8530   26.0080 F   0  0  0  0  0  0  0  0  0  0  0  0
  -22.8210  -13.6100   21.0880 C   0  0  0  0  0  0  0  0  0  0  0  0
  -22.1020  -12.9090   21.9570 N   0  0  0  0  0  0  0  0  0  0  0  0
  -22.3750  -14.6340   20.5720 O   0  0  0  0  0  0  0  0  0  0  0  0
  -22.4760  -12.0810   22.3980 H   0  0  0  0  0  0  0  0  0  0  0  0
  -21.1640  -13.2050   22.1870 H   0  0  0  0  0  0  0  0  0  0  0  0
  -25.4270  -15.2950   20.2400 N   0  0  0  0  0  0  0  0  0  0  0  0
  -24.6510  -15.9390   20.3500 H   0  0  0  0  0  0  0  0  0  0  0  0
  -26.2530  -15.7380   19.8600 H   0  0  0  0  0  0  0  0  0  0  0  0
  -28.3760  -24.9890   18.1860 C   0  0  0  0  0  1  0  0  0  0  0  0
  -28.6730  -25.0610   19.6930 C   0  0  0  0  0  3  0  0  0  0  0  0
  -28.4030  -26.4470   20.2980 O   0  0  0  0  0  0  0  0  0  0  0  0
  -24.6280  -31.9290   23.2400 C   0  0  0  0  0  0  0  0  0  0  0  0
  -27.2680  -27.3020   20.1960 C   0  0  0  0  0  0  0  0  0  0  0  0
  -23.4370  -30.5200   21.6000 C   0  0  0  0  0  3  0  0  0  0  0  0
  -24.8980  -28.9610   20.1760 C   0  0  0  0  0  0  0  0  0  0  0  0
  -25.9800  -30.8320   21.4230 C   0  0  0  0  0  2  0  0  0  0  0  0
  -26.0670  -29.4450   20.7740 C   0  0  0  0  0  0  0  0  0  0  0  0
  -27.2470  -28.6280   20.7690 C   0  0  0  0  0  3  0  0  0  0  0  0
  -26.0640  -26.8860   19.5880 C   0  0  0  0  0  3  0  0  0  0  0  0
  -24.9040  -27.6920   19.5730 C   0  0  0  0  0  3  0  0  0  0  0  0
  -23.6580  -29.8370   20.2230 C   0  0  0  0  0  2  0  0  0  0  0  0
  -24.7020  -31.1140   22.1440 N   0  0  0  0  0  0  0  0  0  0  0  0
  -23.5410  -32.2020   23.7700 O   0  0  0  0  0  0  0  0  0  0  0  0
  -22.7730  -29.5080   22.5650 C   0  0  0  0  0  0  0  0  0  0  0  0
  -21.4460  -29.3310   22.4420 N   0  0  0  0  0  0  0  0  0  0  0  0
  -23.4520  -28.8840   23.3830 O   0  0  0  0  0  0  0  0  0  0  0  0
  -20.9540  -29.8850   21.7550 H   0  0  0  0  0  0  0  0  0  0  0  0
  -18.0720  -28.1220   22.9520 C   0  0  0  0  0  0  0  0  0  0  0  0
  -20.6310  -28.3890   23.2140 C   0  0  0  0  0  3  0  0  0  0  0  0
  -20.7350  -26.9590   22.6350 C   0  0  0  0  0  2  0  0  0  0  0  0
  -19.6310  -26.6360   21.6230 C   0  0  0  0  0  2  0  0  0  0  0  0
  -18.2510  -26.7750   22.2710 C   0  0  0  0  0  2  0  0  0  0  0  0
  -19.1900  -28.8870   23.3800 C   0  0  0  0  0  0  0  0  0  0  0  0
  -18.9690  -30.1470   23.9780 C   0  0  0  0  0  3  0  0  0  0  0  0
  -17.6620  -30.6430   24.1500 C   0  0  0  0  0  3  0  0  0  0  0  0
  -16.5590  -29.8740   23.7380 C   0  0  0  0  0  3  0  0  0  0  0  0
  -16.7650  -28.6160   23.1440 C   0  0  0  0  0  3  0  0  0  0  0  0
  -25.9030  -32.5730   23.8670 C   0  0  0  0  0  3  0  0  0  0  0  0
  -25.5850  -33.9740   24.1880 N   0  0  0  0  0  0  0  0  0  0  0  0
  -25.9170  -35.0260   23.4270 C   0  0  0  0  0  0  0  0  0  0  0  0
  -26.5900  -34.9200   22.3980 O   0  0  0  0  0  0  0  0  0  0  0  0
  -24.9870  -34.1290   24.9860 H   0  0  0  0  0  0  0  0  0  0  0  0
  -24.1860  -36.8150   23.0620 C   0  0  0  0  0  1  0  0  0  0  0  0
  -25.4250  -36.4160   23.8780 C   0  0  0  0  0  3  0  0  0  0  0  0
  -27.5540  -37.3110   24.7130 C   0  0  0  0  0  1  0  0  0  0  0  0
  -26.4560  -37.4700   23.7640 N   0  0  0  0  0  0  0  0  0  0  0  0
  -26.0460  -38.3900   23.9030 H   0  0  0  0  0  0  0  0  0  0  0  0
  -26.4130  -31.8160   25.1540 C   0  0  1  0  0  0  0  0  0  0  0  0
  -25.3130  -31.5850   26.2170 C   0  0  0  0  0  1  0  0  0  0  0  0
  -27.0010  -30.4360   24.7800 C   0  0  0  0  0  1  0  0  0  0  0  0
  -27.5580  -32.6180   25.8160 C   0  0  0  0  0  1  0  0  0  0  0  0
  1  4  2  0
  2  5  2  0
  3  2  1  0
  3  1  1  0
  6  3  1  0
  7 19  1  0
  8 13  1  0
  9 10  1  0
  9  8  1  0
 11 10  1  0
 11 25  1  0
 11 12  1  0
 13  7  1  0
 13 12  1  0
 14  7  2  0
 15 17  1  0
 15  1  1  0
 16 19  1  0
 16 17  2  0
 18 16  1  0
 19 21  1  0
 20 18  1  0
 20 15  1  0
 22 23  2  0
 23 42  1  0
 24 23  1  0
 24 27  1  0
 25 22  1  0
 25 26  1  0
 26 24  2  0
 27 28  1  0
 28 29  2  0
 30 33  1  0
 30 29  1  0
 31 30  2  0
 32 31  1  0
 32 27  2  0
 33 34  1  0
 34 35  1  0
 35 36  2  0
 37 36  1  0
 37 41  1  0
 38 37  2  0
 39 34  2  0
 39 38  1  0
 40 39  1  0
 42 43  1  0
 43 46  1  0
 43 45  1  0
 44 42  2  0
 47 48  1  0
 47 22  1  0
 49 47  1  0
 51 50  1  0
 51 52  1  0
 51  2  1  0
 53 64  2  0
 54 52  1  0
 54 59  1  0
 55 63  1  0
 55 65  1  0
 56 62  1  0
 56 58  1  0
 57 63  1  0
 58 57  1  0
 59 58  2  0
 60 54  2  0
 61 60  1  0
 61 56  2  0
 62 55  1  0
 63 53  1  0
 65 67  2  0
 66 65  1  0
 68 66  1  0
 69 78  2  0
 69 74  1  0
 70 66  1  0
 70 74  1  0
 71 70  1  0
 72 73  1  0
 72 71  1  0
 73 69  1  0
 74 75  2  0
 75 76  1  0
 77 76  2  0
 78 77  1  0
 79 53  1  0
 79 80  1  0
 79 89  1  0
 80 83  1  0
 81 85  1  0
 81 80  1  0
 82 81  2  0
 85 84  1  0
 87 85  1  0
 87 88  1  0
 87 86  1  0
 89 92  1  1
 89 90  1  0
 91 89  1  0
M  ISO  4   7 100  19 100  51 101  52 101
M  END
>  <TORSDO>  (75) 
F 17

>  <SCORE>  (75) 
-14.733

>  <name>  (75) 
74

>  <ligand_id>  (75) 
74

>  <original_smiles>  (75) 
[H]c1c([H])c([H])c2c(c1[H])C([H])([H])C([H])([H])C([H])([H])C2([H])N([H])C(=O)C1([H])N(C(=O)C([H])(N([H])C(=O)C([H])(N([H])C([H])([H])[H])C([H])([H])[H])C(C([H])([H])[H])(C([H])([H])[H])C([H])([H])[H])C([H])([H])c2c([H])c(OC([H])(C(=O)N([H])C(=O)c3nc(N([H])C(=O)N4C([H])([H])C([H])([H])C([H])([H])C([H])(n5nc(-c6c([H])c([H])c(Oc7c([H])c([H])c(F)c([H])c7F)c([H])c6[H])c(C(=O)N([H])[H])c5N([H])[H])C4([H])[H])ns3)C([H])([H])[H])c([H])c([H])c2C1([H])[H]

>  <smiles>  (75) 
[H]c1c([H])c([H])c2c(c1[H])C([H])([H])C([H])([H])C([H])([H])C2([H])N([H])C(=O)C1([H])N(C(=O)C([H])(N([H])C(=O)C([H])(N([H])C([H])([H])[H])C([H])([H])[H])C(C([H])([H])[H])(C([H])([H])[H])C([H])([H])[H])C([H])([H])c2c([H])c(OC([H])(C(=O)N([H])C(=O)c3nc(N([H])C(=O)N4C([H])([H])C([H])([H])C([H])([H])C([H])(n5nc(-c6c([H])c([H])c(Oc7c([H])c([H])c(F)c([H])c7F)c([H])c6[H])c(C(=O)N([H])[H])c5N([H])[H])C4([H])[H])ns3)C([H])([H])[H])c([H])c([H])c2C1([H])[H]

$$$$
75:0:0
     RDKit          3D

 95103  0  0  1  0  0  0  0  0999 V2000
  -28.6850  -22.1910   19.9120 C   0  0  0  0  0  0  0  0  0  0  0  0
  -29.2070  -21.0400   20.4970 N   0  0  0  0  0  0  0  0  0  0  0  0
  -28.0210  -22.1190   18.8730 O   0  0  0  0  0  0  0  0  0  0  0  0
  -29.4770  -21.1700   21.4600 H   0  0  0  0  0  0  0  0  0  0  0  0
  -30.5740  -14.7720   20.4250 C   0  0  0  0  0  0  0  0  0  0  0  0
  -30.3960  -12.4830   19.4610 C   0  0  0  0  0  2  0  0  0  0  0  0
  -29.4890  -12.5640   18.2110 C   0  0  0  0  0  2  0  0  0  0  0  0
  -28.0080  -12.4010   18.6050 C   0  0  0  0  0  2  0  0  0  0  0  0
  -27.6130  -13.2880   19.8200 C   0  0  0  0  0  3  0  0  0  0  0  0
  -28.6470  -13.1970   20.9620 C   0  0  0  0  0  2  0  0  0  0  0  0
  -29.9560  -13.5410   20.3980 N   0  0  0  0  0  0  0  0  0  0  0  0
  -31.7660  -14.8550   20.1100 O   0  0  0  0  0  0  0  0  0  0  0  0
  -30.3970  -17.3000   18.7070 C   0  0  0  0  0  3  0  0  0  0  0  0
  -30.4890  -18.5120   18.0080 C   0  0  0  0  0  0  0  0  0  0  0  0
  -30.0890  -19.7180   18.6050 C   0  0  0  0  0  0  0  0  0  0  0  0
  -29.9050  -17.2630   20.0240 C   0  0  0  0  0  0  0  0  0  0  0  0
  -29.5440  -19.7120   19.9130 C   0  0  0  0  0  0  0  0  0  0  0  0
  -29.4750  -18.4760   20.5850 N   0  0  0  0  0  0  0  0  0  0  0  0
  -29.8030  -15.9120   20.6390 N   0  0  0  0  0  0  0  0  0  0  0  0
  -30.9830  -18.5130   16.7450 F   0  0  0  0  0  0  0  0  0  0  0  0
  -30.2830  -20.8690   17.9120 F   0  0  0  0  0  0  0  0  0  0  0  0
  -28.9320  -15.7380   21.1160 H   0  0  0  0  0  0  0  0  0  0  0  0
  -25.2100  -13.8810   20.4920 C   0  0  0  0  0  0  0  0  0  0  0  0
  -24.1380  -13.1090   20.8490 C   0  0  0  0  0  0  0  0  0  0  0  0
  -24.6040  -11.7580   20.8410 C   0  0  0  0  0  0  0  0  0  0  0  0
  -26.2590  -13.0020   20.2850 N   0  0  0  0  0  0  0  0  0  0  0  0
  -25.9010  -11.7200   20.5590 N   0  0  0  0  0  0  0  0  0  0  0  0
  -23.8770  -10.4970   21.0300 C   0  0  0  0  0  0  0  0  0  0  0  0
  -24.2960   -9.5370   21.9770 C   0  0  0  0  0  3  0  0  0  0  0  0
  -23.5680   -8.3400   22.1540 C   0  0  0  0  0  3  0  0  0  0  0  0
  -22.4080   -8.0950   21.3840 C   0  0  0  0  0  0  0  0  0  0  0  0
  -22.0070   -9.0430   20.4260 C   0  0  0  0  0  3  0  0  0  0  0  0
  -22.7360  -10.2310   20.2480 C   0  0  0  0  0  3  0  0  0  0  0  0
  -21.6520   -6.9500   21.4710 O   0  0  0  0  0  0  0  0  0  0  0  0
  -21.5910   -6.2140   22.6260 C   0  0  0  0  0  0  0  0  0  0  0  0
  -21.1450   -6.7730   23.8440 C   0  0  0  0  0  3  0  0  0  0  0  0
  -21.0290   -5.9610   24.9900 C   0  0  0  0  0  3  0  0  0  0  0  0
  -21.3540   -4.5930   24.9200 C   0  0  0  0  0  0  0  0  0  0  0  0
  -21.7900   -4.0340   23.7070 C   0  0  0  0  0  3  0  0  0  0  0  0
  -21.9070   -4.8420   22.5630 C   0  0  0  0  0  0  0  0  0  0  0  0
  -22.3110   -4.2920   21.3910 F   0  0  0  0  0  0  0  0  0  0  0  0
  -21.2350   -3.8120   26.0190 F   0  0  0  0  0  0  0  0  0  0  0  0
  -22.7350  -13.5880   21.0860 C   0  0  0  0  0  0  0  0  0  0  0  0
  -21.9850  -12.8990   21.9380 N   0  0  0  0  0  0  0  0  0  0  0  0
  -22.3090  -14.6090   20.5470 O   0  0  0  0  0  0  0  0  0  0  0  0
  -22.3410  -12.0740   22.4000 H   0  0  0  0  0  0  0  0  0  0  0  0
  -21.0430  -13.2040   22.1340 H   0  0  0  0  0  0  0  0  0  0  0  0
  -25.3780  -15.2490   20.3000 N   0  0  0  0  0  0  0  0  0  0  0  0
  -24.6140  -15.9100   20.3970 H   0  0  0  0  0  0  0  0  0  0  0  0
  -26.2310  -15.6800   19.9690 H   0  0  0  0  0  0  0  0  0  0  0  0
  -28.8270  -23.6420   20.6000 C   0  0  0  0  0  3  0  0  0  0  0  0
  -28.5230  -23.5000   21.9800 O   0  0  0  0  0  0  0  0  0  0  0  0
  -28.5600  -24.3690   22.3640 H   0  0  0  0  0  0  0  0  0  0  0  0
  -27.9420  -24.8830   20.0260 C   0  0  0  0  0  2  0  0  0  0  0  0
  -28.2430  -26.3480   20.2590 O   0  0  0  0  0  0  0  0  0  0  0  0
  -24.6110  -31.9010   23.2330 C   0  0  0  0  0  0  0  0  0  0  0  0
  -27.1770  -27.2810   20.1710 C   0  0  0  0  0  0  0  0  0  0  0  0
  -23.4030  -30.5130   21.5910 C   0  0  0  0  0  3  0  0  0  0  0  0
  -24.8410  -28.9580   20.1580 C   0  0  0  0  0  0  0  0  0  0  0  0
  -25.9500  -30.7980   21.4180 C   0  0  0  0  0  2  0  0  0  0  0  0
  -26.0170  -29.4180   20.7640 C   0  0  0  0  0  0  0  0  0  0  0  0
  -27.1880  -28.5910   20.7630 C   0  0  0  0  0  3  0  0  0  0  0  0
  -25.9830  -26.9110   19.5100 C   0  0  0  0  0  3  0  0  0  0  0  0
  -24.8290  -27.7120   19.5220 C   0  0  0  0  0  3  0  0  0  0  0  0
  -23.6150  -29.8470   20.2090 C   0  0  0  0  0  2  0  0  0  0  0  0
  -24.6740  -31.0900   22.1360 N   0  0  0  0  0  0  0  0  0  0  0  0
  -23.5270  -32.1830   23.7660 O   0  0  0  0  0  0  0  0  0  0  0  0
  -22.7320  -29.4970   22.5470 C   0  0  0  0  0  0  0  0  0  0  0  0
  -21.4070  -29.3200   22.4130 N   0  0  0  0  0  0  0  0  0  0  0  0
  -23.4050  -28.8720   23.3710 O   0  0  0  0  0  0  0  0  0  0  0  0
  -20.9200  -29.8760   21.7230 H   0  0  0  0  0  0  0  0  0  0  0  0
  -18.0280  -28.1130   22.8980 C   0  0  0  0  0  0  0  0  0  0  0  0
  -20.5840  -28.3840   23.1830 C   0  0  0  0  0  3  0  0  0  0  0  0
  -20.6950  -26.9490   22.6170 C   0  0  0  0  0  2  0  0  0  0  0  0
  -19.6010  -26.6160   21.5970 C   0  0  0  0  0  2  0  0  0  0  0  0
  -18.2140  -26.7610   22.2300 C   0  0  0  0  0  2  0  0  0  0  0  0
  -19.1420  -28.8810   23.3320 C   0  0  0  0  0  0  0  0  0  0  0  0
  -18.9150  -30.1450   23.9180 C   0  0  0  0  0  3  0  0  0  0  0  0
  -17.6080  -30.6430   24.0750 C   0  0  0  0  0  3  0  0  0  0  0  0
  -16.5090  -29.8730   23.6560 C   0  0  0  0  0  3  0  0  0  0  0  0
  -16.7200  -28.6100   23.0740 C   0  0  0  0  0  3  0  0  0  0  0  0
  -25.8950  -32.5280   23.8550 C   0  0  0  0  0  3  0  0  0  0  0  0
  -26.4000  -31.7610   25.1400 C   0  0  1  0  0  0  0  0  0  0  0  0
  -25.3010  -31.5380   26.2050 C   0  0  0  0  0  1  0  0  0  0  0  0
  -26.9760  -30.3760   24.7630 C   0  0  0  0  0  1  0  0  0  0  0  0
  -27.5530  -32.5520   25.8020 C   0  0  0  0  0  1  0  0  0  0  0  0
  -25.5940  -33.9300   24.1790 N   0  0  0  0  0  0  0  0  0  0  0  0
  -25.9300  -34.9790   23.4170 C   0  0  0  0  0  0  0  0  0  0  0  0
  -26.6000  -34.8680   22.3870 O   0  0  0  0  0  0  0  0  0  0  0  0
  -25.0030  -34.0900   24.9820 H   0  0  0  0  0  0  0  0  0  0  0  0
  -24.2190  -36.7870   23.0480 C   0  0  0  0  0  1  0  0  0  0  0  0
  -25.4500  -36.3720   23.8700 C   0  0  0  0  0  3  0  0  0  0  0  0
  -27.5840  -37.2440   24.7170 C   0  0  0  0  0  1  0  0  0  0  0  0
  -26.4920  -37.4180   23.7630 N   0  0  0  0  0  0  0  0  0  0  0  0
  -26.0910  -38.3410   23.9040 H   0  0  0  0  0  0  0  0  0  0  0  0
  1  2  1  0
  1 51  1  0
  2  4  1  0
  3  1  2  0
  5 19  1  0
  6 11  1  0
  7  8  1  0
  7  6  1  0
  9  8  1  0
  9 26  1  0
  9 10  1  0
 11  5  1  0
 11 10  1  0
 12  5  2  0
 13 16  1  0
 14 15  1  0
 14 13  2  0
 15 17  2  0
 16 18  2  0
 16 19  1  0
 17  2  1  0
 17 18  1  0
 19 22  1  0
 20 14  1  0
 21 15  1  0
 23 24  2  0
 24 43  1  0
 25 24  1  0
 25 28  1  0
 26 23  1  0
 26 27  1  0
 27 25  2  0
 28 29  1  0
 29 30  2  0
 31 34  1  0
 31 30  1  0
 32 31  2  0
 33 32  1  0
 33 28  2  0
 34 35  1  0
 35 36  1  0
 36 37  2  0
 38 37  1  0
 38 42  1  0
 39 38  2  0
 40 35  2  0
 40 39  1  0
 41 40  1  0
 43 44  1  0
 44 47  1  0
 44 46  1  0
 45 43  2  0
 48 49  1  0
 48 23  1  0
 50 48  1  0
 51 54  1  0
 51 52  1  0
 52 53  1  0
 54 55  1  0
 56 67  2  0
 57 55  1  0
 57 62  1  0
 58 66  1  0
 58 68  1  0
 59 65  1  0
 59 61  1  0
 60 66  1  0
 61 60  1  0
 62 61  2  0
 63 64  1  0
 63 57  2  0
 64 59  2  0
 65 58  1  0
 66 56  1  0
 68 70  2  0
 69 68  1  0
 71 69  1  0
 72 81  2  0
 72 77  1  0
 73 69  1  0
 73 77  1  0
 74 73  1  0
 75 76  1  0
 75 74  1  0
 76 72  1  0
 77 78  2  0
 78 79  1  0
 80 79  2  0
 81 80  1  0
 82 56  1  0
 82 87  1  0
 82 83  1  0
 83 86  1  1
 83 84  1  0
 85 83  1  0
 87 90  1  0
 88 92  1  0
 88 87  1  0
 89 88  2  0
 92 91  1  0
 94 92  1  0
 94 95  1  0
 94 93  1  0
M  ISO  4   5 100  19 100  54 101  55 101
M  END
>  <TORSDO>  (76) 
F 19

>  <SCORE>  (76) 
-14.694

>  <name>  (76) 
75

>  <ligand_id>  (76) 
75

>  <original_smiles>  (76) 
[H]OC([H])(C(=O)N([H])c1nc(N([H])C(=O)N2C([H])([H])C([H])([H])C([H])([H])C([H])(n3nc(-c4c([H])c([H])c(Oc5c([H])c([H])c(F)c([H])c5F)c([H])c4[H])c(C(=O)N([H])[H])c3N([H])[H])C2([H])[H])c([H])c(F)c1F)C([H])([H])Oc1c([H])c([H])c2c(c1[H])C([H])([H])N(C(=O)C([H])(N([H])C(=O)C([H])(N([H])C([H])([H])[H])C([H])([H])[H])C(C([H])([H])[H])(C([H])([H])[H])C([H])([H])[H])C([H])(C(=O)N([H])C1([H])c3c([H])c([H])c([H])c([H])c3C([H])([H])C([H])([H])C1([H])[H])C2([H])[H]

>  <smiles>  (76) 
[H]OC([H])(C(=O)N([H])c1nc(N([H])C(=O)N2C([H])([H])C([H])([H])C([H])([H])C([H])(n3nc(-c4c([H])c([H])c(Oc5c([H])c([H])c(F)c([H])c5F)c([H])c4[H])c(C(=O)N([H])[H])c3N([H])[H])C2([H])[H])c([H])c(F)c1F)C([H])([H])Oc1c([H])c([H])c2c(c1[H])C([H])([H])N(C(=O)C([H])(N([H])C(=O)C([H])(N([H])C([H])([H])[H])C([H])([H])[H])C(C([H])([H])[H])(C([H])([H])[H])C([H])([H])[H])C([H])(C(=O)N([H])C1([H])c3c([H])c([H])c([H])c([H])c3C([H])([H])C([H])([H])C1([H])[H])C2([H])[H]

$$$$
76:0:0
     RDKit          3D

 94102  0  0  1  0  0  0  0  0999 V2000
  -29.5570  -21.2700   21.0900 C   0  0  0  0  0  3  0  0  0  0  0  0
  -30.6710  -14.7470   20.0220 C   0  0  0  0  0  0  0  0  0  0  0  0
  -30.4170  -12.5200   18.9330 C   0  0  0  0  0  2  0  0  0  0  0  0
  -29.3980  -12.6520   17.7760 C   0  0  0  0  0  2  0  0  0  0  0  0
  -27.9570  -12.4720   18.2920 C   0  0  0  0  0  2  0  0  0  0  0  0
  -27.6700  -13.3160   19.5620 C   0  0  0  0  0  3  0  0  0  0  0  0
  -28.7940  -13.1500   20.6100 C   0  0  0  0  0  2  0  0  0  0  0  0
  -30.0640  -13.5180   19.9660 N   0  0  0  0  0  0  0  0  0  0  0  0
  -31.7980  -14.9130   19.5440 O   0  0  0  0  0  0  0  0  0  0  0  0
  -29.7730  -19.8090   20.5500 C   0  0  0  0  0  0  0  0  0  0  0  0
  -30.5490  -19.3190   19.5100 C   0  0  0  0  0  0  0  0  0  0  0  0
  -29.9900  -17.2410   20.3840 C   0  0  0  0  0  0  0  0  0  0  0  0
  -30.6640  -17.9080   19.4320 N   0  0  0  0  0  0  0  0  0  0  0  0
  -29.9130  -15.7820   20.5180 N   0  0  0  0  0  0  0  0  0  0  0  0
  -29.0910  -18.4020   21.4080 S   0  0  0  0  0  0  0  0  0  0  0  0
  -29.0920  -15.4630   21.0080 H   0  0  0  0  0  0  0  0  0  0  0  0
  -25.3300  -13.8920   20.4490 C   0  0  0  0  0  0  0  0  0  0  0  0
  -24.2880  -13.1080   20.8630 C   0  0  0  0  0  0  0  0  0  0  0  0
  -24.7460  -11.7580   20.7610 C   0  0  0  0  0  0  0  0  0  0  0  0
  -26.3540  -13.0200   20.1220 N   0  0  0  0  0  0  0  0  0  0  0  0
  -26.0140  -11.7300   20.3710 N   0  0  0  0  0  0  0  0  0  0  0  0
  -24.0310  -10.4890   20.9580 C   0  0  0  0  0  0  0  0  0  0  0  0
  -24.4870   -9.5200   21.8790 C   0  0  0  0  0  3  0  0  0  0  0  0
  -23.7710   -8.3170   22.0640 C   0  0  0  0  0  3  0  0  0  0  0  0
  -22.5870   -8.0750   21.3260 C   0  0  0  0  0  0  0  0  0  0  0  0
  -22.1510   -9.0330   20.3940 C   0  0  0  0  0  3  0  0  0  0  0  0
  -22.8670  -10.2270   20.2080 C   0  0  0  0  0  3  0  0  0  0  0  0
  -21.8410   -6.9240   21.4200 O   0  0  0  0  0  0  0  0  0  0  0  0
  -21.7690   -6.2080   22.5880 C   0  0  0  0  0  0  0  0  0  0  0  0
  -21.2620   -6.7750   23.7780 C   0  0  0  0  0  3  0  0  0  0  0  0
  -21.1390   -5.9830   24.9370 C   0  0  0  0  0  3  0  0  0  0  0  0
  -21.5130   -4.6250   24.9060 C   0  0  0  0  0  0  0  0  0  0  0  0
  -22.0130   -4.0600   23.7200 C   0  0  0  0  0  3  0  0  0  0  0  0
  -22.1380   -4.8480   22.5630 C   0  0  0  0  0  0  0  0  0  0  0  0
  -22.6010   -4.2930   21.4170 F   0  0  0  0  0  0  0  0  0  0  0  0
  -21.3880   -3.8620   26.0170 F   0  0  0  0  0  0  0  0  0  0  0  0
  -22.9110  -13.5750   21.2350 C   0  0  0  0  0  0  0  0  0  0  0  0
  -22.2360  -12.8490   22.1210 N   0  0  0  0  0  0  0  0  0  0  0  0
  -22.4430  -14.6180   20.7780 O   0  0  0  0  0  0  0  0  0  0  0  0
  -22.6280  -12.0030   22.5070 H   0  0  0  0  0  0  0  0  0  0  0  0
  -21.3150  -13.1430   22.4150 H   0  0  0  0  0  0  0  0  0  0  0  0
  -25.4860  -15.2670   20.3020 N   0  0  0  0  0  0  0  0  0  0  0  0
  -24.7270  -15.9160   20.4730 H   0  0  0  0  0  0  0  0  0  0  0  0
  -26.3010  -15.7120   19.8990 H   0  0  0  0  0  0  0  0  0  0  0  0
  -31.2430  -20.0880   18.5760 N   0  0  0  0  0  0  0  0  0  0  0  0
  -31.3960  -21.0740   18.7570 H   0  0  0  0  0  0  0  0  0  0  0  0
  -31.9490  -19.6530   17.9940 H   0  0  0  0  0  0  0  0  0  0  0  0
  -30.6800  -21.6060   21.8910 O   0  0  0  0  0  0  0  0  0  0  0  0
  -30.6420  -21.0710   22.6790 H   0  0  0  0  0  0  0  0  0  0  0  0
  -29.2540  -22.5170   20.1130 C   0  0  0  0  0  2  0  0  0  0  0  0
  -28.9210  -23.9650   20.7080 C   0  0  0  0  0  0  0  0  0  0  0  0
  -29.0710  -24.2040   21.9110 O   0  0  0  0  0  0  0  0  0  0  0  0
  -28.3510  -25.1060   19.7690 C   0  0  0  0  0  2  0  0  0  0  0  0
  -28.3830  -26.5090   20.2890 O   0  0  0  0  0  0  0  0  0  0  0  0
  -24.6150  -31.9100   23.2450 C   0  0  0  0  0  0  0  0  0  0  0  0
  -27.2580  -27.3540   20.1960 C   0  0  0  0  0  0  0  0  0  0  0  0
  -23.4250  -30.5050   21.5990 C   0  0  0  0  0  3  0  0  0  0  0  0
  -24.8890  -28.9720   20.1720 C   0  0  0  0  0  0  0  0  0  0  0  0
  -25.9640  -30.8350   21.4270 C   0  0  0  0  0  2  0  0  0  0  0  0
  -26.0510  -29.4570   20.7810 C   0  0  0  0  0  0  0  0  0  0  0  0
  -27.2340  -28.6580   20.7900 C   0  0  0  0  0  3  0  0  0  0  0  0
  -26.0760  -26.9410   19.5390 C   0  0  0  0  0  3  0  0  0  0  0  0
  -24.9050  -27.7210   19.5420 C   0  0  0  0  0  3  0  0  0  0  0  0
  -23.6460  -29.8370   20.2180 C   0  0  0  0  0  2  0  0  0  0  0  0
  -24.6860  -31.1010   22.1480 N   0  0  0  0  0  0  0  0  0  0  0  0
  -23.5270  -32.1790   23.7770 O   0  0  0  0  0  0  0  0  0  0  0  0
  -22.7650  -29.4830   22.5540 C   0  0  0  0  0  0  0  0  0  0  0  0
  -21.4430  -29.2910   22.4190 N   0  0  0  0  0  0  0  0  0  0  0  0
  -23.4450  -28.8640   23.3780 O   0  0  0  0  0  0  0  0  0  0  0  0
  -20.9500  -29.8420   21.7290 H   0  0  0  0  0  0  0  0  0  0  0  0
  -18.0710  -28.0760   22.9120 C   0  0  0  0  0  0  0  0  0  0  0  0
  -20.6280  -28.3480   23.1880 C   0  0  0  0  0  3  0  0  0  0  0  0
  -20.7400  -26.9180   22.6110 C   0  0  0  0  0  2  0  0  0  0  0  0
  -19.6440  -26.5900   21.5940 C   0  0  0  0  0  2  0  0  0  0  0  0
  -18.2590  -26.7280   22.2330 C   0  0  0  0  0  2  0  0  0  0  0  0
  -19.1850  -28.8430   23.3460 C   0  0  0  0  0  0  0  0  0  0  0  0
  -18.9590  -30.1030   23.9410 C   0  0  0  0  0  3  0  0  0  0  0  0
  -17.6520  -30.5970   24.1060 C   0  0  0  0  0  3  0  0  0  0  0  0
  -16.5510  -29.8270   23.6880 C   0  0  0  0  0  3  0  0  0  0  0  0
  -16.7620  -28.5670   23.0990 C   0  0  0  0  0  3  0  0  0  0  0  0
  -25.8920  -32.5520   23.8690 C   0  0  0  0  0  3  0  0  0  0  0  0
  -25.5750  -33.9520   24.1880 N   0  0  0  0  0  0  0  0  0  0  0  0
  -25.9050  -35.0010   23.4250 C   0  0  0  0  0  0  0  0  0  0  0  0
  -26.5810  -34.8950   22.3960 O   0  0  0  0  0  0  0  0  0  0  0  0
  -24.9750  -34.1090   24.9860 H   0  0  0  0  0  0  0  0  0  0  0  0
  -24.1780  -36.7890   23.0490 C   0  0  0  0  0  1  0  0  0  0  0  0
  -25.4130  -36.3910   23.8730 C   0  0  0  0  0  3  0  0  0  0  0  0
  -27.5330  -37.2890   24.7260 C   0  0  0  0  0  1  0  0  0  0  0  0
  -26.4440  -37.4450   23.7650 N   0  0  0  0  0  0  0  0  0  0  0  0
  -26.0340  -38.3660   23.9020 H   0  0  0  0  0  0  0  0  0  0  0  0
  -26.4020  -31.7920   25.1540 C   0  0  1  0  0  0  0  0  0  0  0  0
  -25.3000  -31.5540   26.2130 C   0  0  0  0  0  1  0  0  0  0  0  0
  -27.0000  -30.4170   24.7770 C   0  0  0  0  0  1  0  0  0  0  0  0
  -27.5400  -32.5990   25.8230 C   0  0  0  0  0  1  0  0  0  0  0  0
  1 50  1  0
  1 48  1  0
  2 14  1  0
  3  8  1  0
  4  5  1  0
  4  3  1  0
  6  5  1  0
  6 20  1  0
  6  7  1  0
  8  2  1  0
  8  7  1  0
  9  2  2  0
 10  1  1  0
 10 15  1  0
 11 10  2  0
 12 14  1  0
 12 15  1  0
 13 11  1  0
 13 12  2  0
 14 16  1  0
 17 18  2  0
 18 37  1  0
 19 18  1  0
 19 22  1  0
 20 21  1  0
 20 17  1  0
 21 19  2  0
 22 23  1  0
 23 24  2  0
 25 28  1  0
 25 24  1  0
 26 25  2  0
 27 26  1  0
 27 22  2  0
 28 29  1  0
 29 30  1  0
 30 31  2  0
 32 31  1  0
 32 36  1  0
 33 32  2  0
 34 29  2  0
 34 33  1  0
 35 34  1  0
 37 38  1  0
 38 41  1  0
 38 40  1  0
 39 37  2  0
 42 17  1  0
 42 43  1  0
 44 42  1  0
 45 46  1  0
 45 11  1  0
 47 45  1  0
 48 49  1  0
 50 51  1  0
 51 52  2  0
 53 54  1  0
 53 51  1  0
 55 66  2  0
 56 54  1  0
 56 61  1  0
 57 65  1  0
 57 67  1  0
 58 64  1  0
 58 60  1  0
 59 65  1  0
 60 61  2  0
 60 59  1  0
 62 63  1  0
 62 56  2  0
 63 58  2  0
 64 57  1  0
 65 55  1  0
 67 69  2  0
 68 67  1  0
 70 68  1  0
 71 80  2  0
 71 76  1  0
 72 68  1  0
 72 76  1  0
 73 72  1  0
 74 75  1  0
 74 73  1  0
 75 71  1  0
 76 77  2  0
 77 78  1  0
 79 78  2  0
 80 79  1  0
 81 55  1  0
 81 82  1  0
 81 91  1  0
 82 85  1  0
 83 87  1  0
 83 82  1  0
 84 83  2  0
 87 86  1  0
 89 87  1  0
 89 90  1  0
 89 88  1  0
 91 94  1  1
 91 92  1  0
 93 91  1  0
M  ISO  4   2 100  14 100  53 101  54 101
M  END
>  <TORSDO>  (77) 
F 21

>  <SCORE>  (77) 
-13.122

>  <name>  (77) 
76

>  <ligand_id>  (77) 
76

>  <original_smiles>  (77) 
[H]OC([H])(c1sc(N([H])C(=O)N2C([H])([H])C([H])([H])C([H])([H])C([H])(n3nc(-c4c([H])c([H])c(Oc5c([H])c([H])c(F)c([H])c5F)c([H])c4[H])c(C(=O)N([H])[H])c3N([H])[H])C2([H])[H])nc1N([H])[H])C([H])([H])C(=O)C([H])([H])Oc1c([H])c([H])c2c(c1[H])C([H])([H])N(C(=O)C([H])(N([H])C(=O)C([H])(N([H])C([H])([H])[H])C([H])([H])[H])C(C([H])([H])[H])(C([H])([H])[H])C([H])([H])[H])C([H])(C(=O)N([H])C1([H])c3c([H])c([H])c([H])c([H])c3C([H])([H])C([H])([H])C1([H])[H])C2([H])[H]

>  <smiles>  (77) 
[H]OC([H])(c1sc(N([H])C(=O)N2C([H])([H])C([H])([H])C([H])([H])C([H])(n3nc(-c4c([H])c([H])c(Oc5c([H])c([H])c(F)c([H])c5F)c([H])c4[H])c(C(=O)N([H])[H])c3N([H])[H])C2([H])[H])nc1N([H])[H])C([H])([H])C(=O)C([H])([H])Oc1c([H])c([H])c2c(c1[H])C([H])([H])N(C(=O)C([H])(N([H])C(=O)C([H])(N([H])C([H])([H])[H])C([H])([H])[H])C(C([H])([H])[H])(C([H])([H])[H])C([H])([H])[H])C([H])(C(=O)N([H])C1([H])c3c([H])c([H])c([H])c([H])c3C([H])([H])C([H])([H])C1([H])[H])C2([H])[H]

$$$$
77:0:0
     RDKit          3D

 91 99  0  0  1  0  0  0  0  0999 V2000
  -29.3910  -19.2780   19.2820 C   0  0  0  0  0  3  0  0  0  0  0  0
  -29.8740  -18.7310   20.4610 C   0  0  0  0  0  0  0  0  0  0  0  0
  -29.2410  -21.2630   20.5080 C   0  0  0  0  0  0  0  0  0  0  0  0
  -28.8040  -23.8510   20.1350 C   0  0  0  0  0  0  0  0  0  0  0  0
  -29.0510  -20.6700   19.3140 N   0  0  0  0  0  0  0  0  0  0  0  0
  -28.9490  -22.6720   20.8500 N   0  0  0  0  0  0  0  0  0  0  0  0
  -28.9660  -23.8970   18.9120 O   0  0  0  0  0  0  0  0  0  0  0  0
  -29.8270  -20.0330   21.6830 S   0  0  0  0  0  0  0  0  0  0  0  0
  -28.8660  -22.8210   21.8450 H   0  0  0  0  0  0  0  0  0  0  0  0
  -29.2310  -25.3530   22.1990 C   0  0  0  0  0  1  0  0  0  0  0  0
  -28.4000  -25.1970   20.9150 C   0  0  0  0  0  3  0  0  0  0  0  0
  -28.5380  -26.5120   20.2080 O   0  0  0  0  0  0  0  0  0  0  0  0
  -24.6990  -31.8990   23.2320 C   0  0  0  0  0  0  0  0  0  0  0  0
  -27.4250  -27.3750   20.2040 C   0  0  0  0  0  0  0  0  0  0  0  0
  -23.5450  -30.4920   21.5630 C   0  0  0  0  0  3  0  0  0  0  0  0
  -25.0430  -28.9650   20.1580 C   0  0  0  0  0  0  0  0  0  0  0  0
  -26.0840  -30.8430   21.4280 C   0  0  0  0  0  2  0  0  0  0  0  0
  -26.1970  -29.4660   20.7760 C   0  0  0  0  0  0  0  0  0  0  0  0
  -27.3940  -28.6850   20.7860 C   0  0  0  0  0  3  0  0  0  0  0  0
  -26.2510  -26.9290   19.5650 C   0  0  0  0  0  3  0  0  0  0  0  0
  -25.0730  -27.7020   19.5430 C   0  0  0  0  0  3  0  0  0  0  0  0
  -23.7940  -29.8240   20.1850 C   0  0  0  0  0  2  0  0  0  0  0  0
  -24.7940  -31.0960   22.1320 N   0  0  0  0  0  0  0  0  0  0  0  0
  -23.6010  -32.1570   23.7500 O   0  0  0  0  0  0  0  0  0  0  0  0
  -22.8790  -29.4620   22.5080 C   0  0  0  0  0  0  0  0  0  0  0  0
  -21.5520  -29.2870   22.3780 N   0  0  0  0  0  0  0  0  0  0  0  0
  -23.5550  -28.8220   23.3180 O   0  0  0  0  0  0  0  0  0  0  0  0
  -21.0650  -29.8560   21.7000 H   0  0  0  0  0  0  0  0  0  0  0  0
  -18.1680  -28.1120   22.8840 C   0  0  0  0  0  0  0  0  0  0  0  0
  -20.7320  -28.3390   23.1340 C   0  0  0  0  0  3  0  0  0  0  0  0
  -20.8140  -26.9220   22.5200 C   0  0  0  0  0  2  0  0  0  0  0  0
  -19.6980  -26.6360   21.5100 C   0  0  0  0  0  2  0  0  0  0  0  0
  -18.3250  -26.7790   22.1720 C   0  0  0  0  0  2  0  0  0  0  0  0
  -19.2990  -28.8510   23.3220 C   0  0  0  0  0  0  0  0  0  0  0  0
  -19.0990  -30.1000   23.9490 C   0  0  0  0  0  3  0  0  0  0  0  0
  -17.8010  -30.6090   24.1430 C   0  0  0  0  0  3  0  0  0  0  0  0
  -16.6850  -29.8660   23.7220 C   0  0  0  0  0  3  0  0  0  0  0  0
  -16.8690  -28.6190   23.0980 C   0  0  0  0  0  3  0  0  0  0  0  0
  -25.9610  -32.5460   23.8810 C   0  0  0  0  0  3  0  0  0  0  0  0
  -25.6280  -33.9420   24.2040 N   0  0  0  0  0  0  0  0  0  0  0  0
  -25.9480  -34.9980   23.4430 C   0  0  0  0  0  0  0  0  0  0  0  0
  -26.6240  -34.9000   22.4150 O   0  0  0  0  0  0  0  0  0  0  0  0
  -25.0290  -34.0910   25.0020 H   0  0  0  0  0  0  0  0  0  0  0  0
  -24.1980  -36.7660   23.0750 C   0  0  0  0  0  1  0  0  0  0  0  0
  -25.4390  -36.3810   23.8950 C   0  0  0  0  0  3  0  0  0  0  0  0
  -27.5520  -37.3030   24.7410 C   0  0  0  0  0  1  0  0  0  0  0  0
  -26.4590  -37.4480   23.7840 N   0  0  0  0  0  0  0  0  0  0  0  0
  -26.0370  -38.3630   23.9200 H   0  0  0  0  0  0  0  0  0  0  0  0
  -26.4570  -31.7840   25.1700 C   0  0  1  0  0  0  0  0  0  0  0  0
  -25.3450  -31.5370   26.2140 C   0  0  0  0  0  1  0  0  0  0  0  0
  -27.0660  -30.4120   24.7950 C   0  0  0  0  0  1  0  0  0  0  0  0
  -27.5840  -32.5930   25.8560 C   0  0  0  0  0  1  0  0  0  0  0  0
  -30.6080  -17.3570   20.7350 C   0  0  0  0  0  2  0  0  0  0  0  0
  -30.7340  -14.8140   20.2250 C   0  0  0  0  0  0  0  0  0  0  0  0
  -30.4770  -12.5680   19.1680 C   0  0  0  0  0  2  0  0  0  0  0  0
  -29.5090  -12.6630   17.9690 C   0  0  0  0  0  2  0  0  0  0  0  0
  -28.0510  -12.4900   18.4350 C   0  0  0  0  0  2  0  0  0  0  0  0
  -27.7110  -13.3580   19.6760 C   0  0  0  0  0  3  0  0  0  0  0  0
  -28.7970  -13.2560   20.7680 C   0  0  0  0  0  2  0  0  0  0  0  0
  -30.0760  -13.6090   20.1400 N   0  0  0  0  0  0  0  0  0  0  0  0
  -31.9150  -14.8890   19.8800 O   0  0  0  0  0  0  0  0  0  0  0  0
  -30.0210  -15.9680   20.5160 N   0  0  0  0  0  0  0  0  0  0  0  0
  -29.0400  -15.8490   20.7250 H   0  0  0  0  0  0  0  0  0  0  0  0
  -25.3410  -13.9340   20.4720 C   0  0  0  0  0  0  0  0  0  0  0  0
  -24.2860  -13.1520   20.8560 C   0  0  0  0  0  0  0  0  0  0  0  0
  -24.7520  -11.8020   20.7970 C   0  0  0  0  0  0  0  0  0  0  0  0
  -26.3800  -13.0600   20.1980 N   0  0  0  0  0  0  0  0  0  0  0  0
  -26.0350  -11.7720   20.4580 N   0  0  0  0  0  0  0  0  0  0  0  0
  -24.0320  -10.5370   20.9880 C   0  0  0  0  0  0  0  0  0  0  0  0
  -24.4700   -9.5700   21.9210 C   0  0  0  0  0  3  0  0  0  0  0  0
  -23.7500   -8.3700   22.1000 C   0  0  0  0  0  3  0  0  0  0  0  0
  -22.5760   -8.1260   21.3460 C   0  0  0  0  0  0  0  0  0  0  0  0
  -22.1580   -9.0810   20.4020 C   0  0  0  0  0  3  0  0  0  0  0  0
  -22.8790  -10.2730   20.2210 C   0  0  0  0  0  3  0  0  0  0  0  0
  -21.8270   -6.9780   21.4340 O   0  0  0  0  0  0  0  0  0  0  0  0
  -21.7580   -6.2510   22.5950 C   0  0  0  0  0  0  0  0  0  0  0  0
  -21.2670   -6.8110   23.7960 C   0  0  0  0  0  3  0  0  0  0  0  0
  -21.1480   -6.0090   24.9480 C   0  0  0  0  0  3  0  0  0  0  0  0
  -21.5080   -4.6480   24.9010 C   0  0  0  0  0  0  0  0  0  0  0  0
  -21.9900   -4.0880   23.7060 C   0  0  0  0  0  3  0  0  0  0  0  0
  -22.1110   -4.8870   22.5550 C   0  0  0  0  0  0  0  0  0  0  0  0
  -22.5570   -4.3370   21.4000 F   0  0  0  0  0  0  0  0  0  0  0  0
  -21.3850   -3.8760   26.0060 F   0  0  0  0  0  0  0  0  0  0  0  0
  -22.8950  -13.6230   21.1660 C   0  0  0  0  0  0  0  0  0  0  0  0
  -22.1870  -12.9120   22.0370 N   0  0  0  0  0  0  0  0  0  0  0  0
  -22.4450  -14.6550   20.6730 O   0  0  0  0  0  0  0  0  0  0  0  0
  -22.5640  -12.0740   22.4560 H   0  0  0  0  0  0  0  0  0  0  0  0
  -21.2550  -13.2080   22.2880 H   0  0  0  0  0  0  0  0  0  0  0  0
  -25.4980  -15.3080   20.3080 N   0  0  0  0  0  0  0  0  0  0  0  0
  -24.7320  -15.9580   20.4500 H   0  0  0  0  0  0  0  0  0  0  0  0
  -26.3320  -15.7530   19.9490 H   0  0  0  0  0  0  0  0  0  0  0  0
  1  5  1  0
  1  2  2  0
  2 53  1  0
  2  8  1  0
  3  6  1  0
  3  8  1  0
  4  6  1  0
  4 11  1  0
  5  3  2  0
  6  9  1  0
  7  4  2  0
 11 10  1  0
 12 11  1  0
 13 24  2  0
 14 12  1  0
 14 19  1  0
 15 23  1  0
 15 25  1  0
 16 22  1  0
 16 18  1  0
 17 23  1  0
 18 19  2  0
 18 17  1  0
 20 14  2  0
 21 20  1  0
 21 16  2  0
 22 15  1  0
 23 13  1  0
 25 27  2  0
 26 25  1  0
 28 26  1  0
 29 38  2  0
 29 34  1  0
 30 26  1  0
 30 34  1  0
 31 30  1  0
 32 33  1  0
 32 31  1  0
 33 29  1  0
 34 35  2  0
 35 36  1  0
 37 36  2  0
 38 37  1  0
 39 13  1  0
 39 40  1  0
 39 49  1  0
 40 43  1  0
 41 45  1  0
 41 40  1  0
 42 41  2  0
 45 44  1  0
 47 45  1  0
 47 48  1  0
 47 46  1  0
 49 52  1  1
 49 50  1  0
 51 49  1  0
 54 62  1  0
 55 60  1  0
 56 57  1  0
 56 55  1  0
 58 57  1  0
 58 67  1  0
 58 59  1  0
 60 54  1  0
 60 59  1  0
 61 54  2  0
 62 63  1  0
 62 53  1  0
 64 65  2  0
 65 84  1  0
 66 65  1  0
 66 69  1  0
 67 68  1  0
 67 64  1  0
 68 66  2  0
 69 70  1  0
 70 71  2  0
 72 75  1  0
 72 71  1  0
 73 72  2  0
 74 73  1  0
 74 69  2  0
 75 76  1  0
 76 77  1  0
 77 78  2  0
 79 78  1  0
 79 83  1  0
 80 79  2  0
 81 76  2  0
 81 80  1  0
 82 81  1  0
 84 85  1  0
 85 88  1  0
 85 87  1  0
 86 84  2  0
 89 90  1  0
 89 64  1  0
 91 89  1  0
M  ISO  4  11 101  12 101  54 100  62 100
M  END
>  <TORSDO>  (78) 
F 18

>  <SCORE>  (78) 
-14.353

>  <name>  (78) 
77

>  <ligand_id>  (78) 
77

>  <original_smiles>  (78) 
[H]c1nc(N([H])C(=O)C([H])(Oc2c([H])c([H])c3c(c2[H])C([H])([H])N(C(=O)C([H])(N([H])C(=O)C([H])(N([H])C([H])([H])[H])C([H])([H])[H])C(C([H])([H])[H])(C([H])([H])[H])C([H])([H])[H])C([H])(C(=O)N([H])C2([H])c4c([H])c([H])c([H])c([H])c4C([H])([H])C([H])([H])C2([H])[H])C3([H])[H])C([H])([H])[H])sc1C([H])([H])N([H])C(=O)N1C([H])([H])C([H])([H])C([H])([H])C([H])(n2nc(-c3c([H])c([H])c(Oc4c([H])c([H])c(F)c([H])c4F)c([H])c3[H])c(C(=O)N([H])[H])c2N([H])[H])C1([H])[H]

>  <smiles>  (78) 
[H]c1nc(N([H])C(=O)C([H])(Oc2c([H])c([H])c3c(c2[H])C([H])([H])N(C(=O)C([H])(N([H])C(=O)C([H])(N([H])C([H])([H])[H])C([H])([H])[H])C(C([H])([H])[H])(C([H])([H])[H])C([H])([H])[H])C([H])(C(=O)N([H])C2([H])c4c([H])c([H])c([H])c([H])c4C([H])([H])C([H])([H])C2([H])[H])C3([H])[H])C([H])([H])[H])sc1C([H])([H])N([H])C(=O)N1C([H])([H])C([H])([H])C([H])([H])C([H])(n2nc(-c3c([H])c([H])c(Oc4c([H])c([H])c(F)c([H])c4F)c([H])c3[H])c(C(=O)N([H])[H])c2N([H])[H])C1([H])[H]

$$$$
78:0:0
     RDKit          3D

 93101  0  0  1  0  0  0  0  0999 V2000
  -28.3250  -21.4900   20.4360 C   0  0  0  0  0  0  0  0  0  0  0  0
  -29.0150  -20.3930   20.8520 N   0  0  0  0  0  0  0  0  0  0  0  0
  -27.5160  -21.4610   19.5100 O   0  0  0  0  0  0  0  0  0  0  0  0
  -29.5210  -20.5480   21.7110 H   0  0  0  0  0  0  0  0  0  0  0  0
  -30.6440  -14.5390   20.4560 C   0  0  0  0  0  0  0  0  0  0  0  0
  -30.3490  -12.3670   19.3080 C   0  0  0  0  0  2  0  0  0  0  0  0
  -29.4130  -12.5760   18.0960 C   0  0  0  0  0  2  0  0  0  0  0  0
  -27.9300  -12.4480   18.5100 C   0  0  0  0  0  2  0  0  0  0  0  0
  -27.5960  -13.2670   19.7890 C   0  0  0  0  0  3  0  0  0  0  0  0
  -28.6450  -13.0460   20.8990 C   0  0  0  0  0  2  0  0  0  0  0  0
  -29.9750  -13.3490   20.3510 N   0  0  0  0  0  0  0  0  0  0  0  0
  -31.7220  -14.7290   19.8940 O   0  0  0  0  0  0  0  0  0  0  0  0
  -29.0090  -18.6790   18.9870 C   0  0  0  0  0  0  0  0  0  0  0  0
  -29.1150  -19.0520   20.3220 C   0  0  0  0  0  0  0  0  0  0  0  0
  -29.6570  -16.7920   20.4990 C   0  0  0  0  0  0  0  0  0  0  0  0
  -28.7300  -19.4720   17.7410 C   0  0  0  0  0  1  0  0  0  0  0  0
  -29.4670  -17.9550   21.1590 N   0  0  0  0  0  0  0  0  0  0  0  0
  -30.0480  -15.5590   21.1190 N   0  0  0  0  0  0  0  0  0  0  0  0
  -29.3320  -16.9600   18.7740 S   0  0  0  0  0  0  0  0  0  0  0  0
  -29.6220  -15.3530   22.0180 H   0  0  0  0  0  0  0  0  0  0  0  0
  -25.1910  -13.8640   20.4840 C   0  0  0  0  0  0  0  0  0  0  0  0
  -24.1240  -13.0910   20.8640 C   0  0  0  0  0  0  0  0  0  0  0  0
  -24.5880  -11.7390   20.8390 C   0  0  0  0  0  0  0  0  0  0  0  0
  -26.2400  -12.9860   20.2600 N   0  0  0  0  0  0  0  0  0  0  0  0
  -25.8790  -11.7030   20.5250 N   0  0  0  0  0  0  0  0  0  0  0  0
  -23.8600  -10.4780   21.0290 C   0  0  0  0  0  0  0  0  0  0  0  0
  -24.2980   -9.5010   21.9510 C   0  0  0  0  0  3  0  0  0  0  0  0
  -23.5670   -8.3060   22.1300 C   0  0  0  0  0  3  0  0  0  0  0  0
  -22.3840   -8.0790   21.3880 C   0  0  0  0  0  0  0  0  0  0  0  0
  -21.9650   -9.0430   20.4520 C   0  0  0  0  0  3  0  0  0  0  0  0
  -22.6970  -10.2280   20.2720 C   0  0  0  0  0  3  0  0  0  0  0  0
  -21.6260   -6.9350   21.4790 O   0  0  0  0  0  0  0  0  0  0  0  0
  -21.5960   -6.1810   22.6250 C   0  0  0  0  0  0  0  0  0  0  0  0
  -21.1880   -6.7220   23.8650 C   0  0  0  0  0  3  0  0  0  0  0  0
  -21.1040   -5.8950   25.0030 C   0  0  0  0  0  3  0  0  0  0  0  0
  -21.4220   -4.5270   24.9020 C   0  0  0  0  0  0  0  0  0  0  0  0
  -21.8210   -3.9830   23.6690 C   0  0  0  0  0  3  0  0  0  0  0  0
  -21.9070   -4.8080   22.5350 C   0  0  0  0  0  0  0  0  0  0  0  0
  -22.2730   -4.2740   21.3450 F   0  0  0  0  0  0  0  0  0  0  0  0
  -21.3320   -3.7330   25.9940 F   0  0  0  0  0  0  0  0  0  0  0  0
  -22.7240  -13.5660   21.1420 C   0  0  0  0  0  0  0  0  0  0  0  0
  -21.9970  -12.8770   22.0150 N   0  0  0  0  0  0  0  0  0  0  0  0
  -22.2890  -14.5950   20.6250 O   0  0  0  0  0  0  0  0  0  0  0  0
  -22.3560  -12.0450   22.4590 H   0  0  0  0  0  0  0  0  0  0  0  0
  -21.0670  -13.1950   22.2450 H   0  0  0  0  0  0  0  0  0  0  0  0
  -25.3550  -15.2320   20.2910 N   0  0  0  0  0  0  0  0  0  0  0  0
  -24.5860  -15.8910   20.3790 H   0  0  0  0  0  0  0  0  0  0  0  0
  -26.2050  -15.6660   19.9540 H   0  0  0  0  0  0  0  0  0  0  0  0
  -28.5330  -22.8390   21.2000 C   0  0  0  0  0  3  0  0  0  0  0  0
  -29.6630  -22.7820   21.9130 F   0  0  0  0  0  0  0  0  0  0  0  0
  -28.5420  -24.1340   20.3130 C   0  0  0  0  0  2  0  0  0  0  0  0
  -28.2690  -25.4620   21.0730 C   0  0  0  0  0  2  0  0  0  0  0  0
  -28.3970  -26.6530   20.2650 O   0  0  0  0  0  0  0  0  0  0  0  0
  -24.5950  -31.8870   23.2420 C   0  0  0  0  0  0  0  0  0  0  0  0
  -27.2580  -27.4330   20.2150 C   0  0  0  0  0  0  0  0  0  0  0  0
  -23.3980  -30.4710   21.6050 C   0  0  0  0  0  3  0  0  0  0  0  0
  -24.8670  -28.9460   20.1720 C   0  0  0  0  0  0  0  0  0  0  0  0
  -25.9210  -30.8530   21.3980 C   0  0  0  0  0  2  0  0  0  0  0  0
  -26.0180  -29.4760   20.7690 C   0  0  0  0  0  0  0  0  0  0  0  0
  -27.2260  -28.7310   20.7760 C   0  0  0  0  0  3  0  0  0  0  0  0
  -26.0980  -26.9290   19.5940 C   0  0  0  0  0  3  0  0  0  0  0  0
  -24.9090  -27.6780   19.5670 C   0  0  0  0  0  3  0  0  0  0  0  0
  -23.6100  -29.7900   20.2230 C   0  0  0  0  0  2  0  0  0  0  0  0
  -24.6560  -31.0860   22.1390 N   0  0  0  0  0  0  0  0  0  0  0  0
  -23.5110  -32.1540   23.7780 O   0  0  0  0  0  0  0  0  0  0  0  0
  -22.7470  -29.4510   22.5680 C   0  0  0  0  0  0  0  0  0  0  0  0
  -21.4200  -29.2690   22.4450 N   0  0  0  0  0  0  0  0  0  0  0  0
  -23.4360  -28.8260   23.3780 O   0  0  0  0  0  0  0  0  0  0  0  0
  -20.9250  -29.8360   21.7700 H   0  0  0  0  0  0  0  0  0  0  0  0
  -18.0510  -28.0890   22.9550 C   0  0  0  0  0  0  0  0  0  0  0  0
  -20.6100  -28.3290   23.2170 C   0  0  0  0  0  3  0  0  0  0  0  0
  -20.7050  -26.9030   22.6210 C   0  0  0  0  0  2  0  0  0  0  0  0
  -19.5940  -26.6030   21.6090 C   0  0  0  0  0  2  0  0  0  0  0  0
  -18.2170  -26.7490   22.2630 C   0  0  0  0  0  2  0  0  0  0  0  0
  -19.1770  -28.8440   23.3780 C   0  0  0  0  0  0  0  0  0  0  0  0
  -18.9660  -30.1040   23.9840 C   0  0  0  0  0  3  0  0  0  0  0  0
  -17.6650  -30.6110   24.1500 C   0  0  0  0  0  3  0  0  0  0  0  0
  -16.5550  -29.8570   23.7420 C   0  0  0  0  0  3  0  0  0  0  0  0
  -16.7480  -28.5980   23.1500 C   0  0  0  0  0  3  0  0  0  0  0  0
  -25.8750  -32.5200   23.8650 C   0  0  0  0  0  3  0  0  0  0  0  0
  -26.3930  -31.7540   25.1430 C   0  0  1  0  0  0  0  0  0  0  0  0
  -25.3000  -31.5240   26.2100 C   0  0  0  0  0  1  0  0  0  0  0  0
  -26.9790  -30.3760   24.7570 C   0  0  0  0  0  1  0  0  0  0  0  0
  -27.5400  -32.5530   25.8090 C   0  0  0  0  0  1  0  0  0  0  0  0
  -25.5640  -33.9170   24.1850 N   0  0  0  0  0  0  0  0  0  0  0  0
  -25.8980  -34.9630   23.4190 C   0  0  0  0  0  0  0  0  0  0  0  0
  -26.5780  -34.8580   22.3950 O   0  0  0  0  0  0  0  0  0  0  0  0
  -24.9670  -34.0780   24.9810 H   0  0  0  0  0  0  0  0  0  0  0  0
  -24.1770  -36.7570   23.0400 C   0  0  0  0  0  1  0  0  0  0  0  0
  -25.4050  -36.3530   23.8670 C   0  0  0  0  0  3  0  0  0  0  0  0
  -27.5290  -37.2440   24.7220 C   0  0  0  0  0  1  0  0  0  0  0  0
  -26.4380  -37.4050   23.7650 N   0  0  0  0  0  0  0  0  0  0  0  0
  -26.0310  -38.3260   23.9030 H   0  0  0  0  0  0  0  0  0  0  0  0
  1  2  1  0
  1 49  1  0
  2  4  1  0
  3  1  2  0
  5 18  1  0
  6 11  1  0
  7  8  1  0
  7  6  1  0
  9  8  1  0
  9 24  1  0
  9 10  1  0
 11  5  1  0
 11 10  1  0
 12  5  2  0
 13 14  2  0
 14  2  1  0
 14 17  1  0
 15 18  1  0
 15 17  2  0
 16 13  1  0
 18 20  1  0
 19 13  1  0
 19 15  1  0
 21 22  2  0
 22 41  1  0
 23 22  1  0
 23 26  1  0
 24 21  1  0
 24 25  1  0
 25 23  2  0
 26 27  1  0
 27 28  2  0
 29 32  1  0
 29 28  1  0
 30 29  2  0
 31 30  1  0
 31 26  2  0
 32 33  1  0
 33 34  1  0
 34 35  2  0
 36 35  1  0
 36 40  1  0
 37 36  2  0
 38 33  2  0
 38 37  1  0
 39 38  1  0
 41 42  1  0
 42 45  1  0
 42 44  1  0
 43 41  2  0
 46 47  1  0
 46 21  1  0
 48 46  1  0
 49 50  1  0
 51 52  1  0
 51 49  1  0
 53 52  1  0
 54 65  2  0
 55 53  1  0
 55 60  1  0
 56 64  1  0
 56 66  1  0
 57 63  1  0
 57 59  1  0
 58 64  1  0
 59 60  2  0
 59 58  1  0
 61 55  2  0
 62 61  1  0
 62 57  2  0
 63 56  1  0
 64 54  1  0
 66 68  2  0
 67 66  1  0
 69 67  1  0
 70 79  2  0
 70 75  1  0
 71 67  1  0
 71 75  1  0
 72 71  1  0
 73 74  1  0
 73 72  1  0
 74 70  1  0
 75 76  2  0
 76 77  1  0
 78 77  2  0
 79 78  1  0
 80 54  1  0
 80 85  1  0
 80 81  1  0
 81 84  1  1
 81 82  1  0
 83 81  1  0
 85 88  1  0
 86 90  1  0
 86 85  1  0
 87 86  2  0
 90 89  1  0
 92 90  1  0
 92 93  1  0
 92 91  1  0
M  ISO  4   5 100  18 100  52 101  53 101
M  END
>  <TORSDO>  (79) 
F 19

>  <SCORE>  (79) 
-14.429

>  <name>  (79) 
78

>  <ligand_id>  (79) 
78

>  <original_smiles>  (79) 
[H]c1c([H])c([H])c2c(c1[H])C([H])([H])C([H])([H])C([H])([H])C2([H])N([H])C(=O)C1([H])N(C(=O)C([H])(N([H])C(=O)C([H])(N([H])C([H])([H])[H])C([H])([H])[H])C(C([H])([H])[H])(C([H])([H])[H])C([H])([H])[H])C([H])([H])c2c([H])c(OC([H])([H])C([H])([H])C([H])(F)C(=O)N([H])c3nc(N([H])C(=O)N4C([H])([H])C([H])([H])C([H])([H])C([H])(n5nc(-c6c([H])c([H])c(Oc7c([H])c([H])c(F)c([H])c7F)c([H])c6[H])c(C(=O)N([H])[H])c5N([H])[H])C4([H])[H])sc3C([H])([H])[H])c([H])c([H])c2C1([H])[H]

>  <smiles>  (79) 
[H]c1c([H])c([H])c2c(c1[H])C([H])([H])C([H])([H])C([H])([H])C2([H])N([H])C(=O)C1([H])N(C(=O)C([H])(N([H])C(=O)C([H])(N([H])C([H])([H])[H])C([H])([H])[H])C(C([H])([H])[H])(C([H])([H])[H])C([H])([H])[H])C([H])([H])c2c([H])c(OC([H])([H])C([H])([H])C([H])(F)C(=O)N([H])c3nc(N([H])C(=O)N4C([H])([H])C([H])([H])C([H])([H])C([H])(n5nc(-c6c([H])c([H])c(Oc7c([H])c([H])c(F)c([H])c7F)c([H])c6[H])c(C(=O)N([H])[H])c5N([H])[H])C4([H])[H])sc3C([H])([H])[H])c([H])c([H])c2C1([H])[H]

$$$$
79:0:0
     RDKit          3D

 97105  0  0  1  0  0  0  0  0999 V2000
  -29.2440  -20.6910   18.4270 C   0  0  0  0  0  0  0  0  0  0  0  0
  -29.0180  -21.9750   18.8170 N   0  0  0  0  0  0  0  0  0  0  0  0
  -29.1700  -20.5030   17.0970 N   0  0  0  0  0  4  0  0  0  0  0  0
  -28.8920  -22.6590   18.0790 H   0  0  0  0  0  0  0  0  0  0  0  0
  -29.2530  -19.5820   16.6900 H   0  0  0  0  0  0  0  0  0  0  0  0
  -28.9680  -21.2490   16.4460 H   0  0  0  0  0  0  0  0  0  0  0  0
  -30.6420  -14.5010   20.3280 C   0  0  0  0  0  0  0  0  0  0  0  0
  -30.3470  -12.3240   19.2020 C   0  0  0  0  0  2  0  0  0  0  0  0
  -29.3980  -12.5410   18.0030 C   0  0  0  0  0  2  0  0  0  0  0  0
  -27.9260  -12.4090   18.4400 C   0  0  0  0  0  2  0  0  0  0  0  0
  -27.6010  -13.2370   19.7130 C   0  0  0  0  0  3  0  0  0  0  0  0
  -28.6640  -13.0040   20.8120 C   0  0  0  0  0  2  0  0  0  0  0  0
  -29.9860  -13.3080   20.2380 N   0  0  0  0  0  0  0  0  0  0  0  0
  -31.7920  -14.6400   19.8970 O   0  0  0  0  0  0  0  0  0  0  0  0
  -28.6160  -19.0140   20.2390 C   0  0  0  0  0  3  0  0  0  0  0  0
  -28.8000  -17.7120   20.7740 C   0  0  0  0  0  3  0  0  0  0  0  0
  -29.5240  -19.4990   19.2770 C   0  0  0  0  0  0  0  0  0  0  0  0
  -29.8920  -16.9080   20.3610 C   0  0  0  0  0  0  0  0  0  0  0  0
  -30.6470  -18.6840   19.0150 C   0  0  0  0  0  0  0  0  0  0  0  0
  -30.8220  -17.4430   19.5360 N   0  0  0  0  0  0  0  0  0  0  0  0
  -29.9010  -15.5360   20.7960 N   0  0  0  0  0  0  0  0  0  0  0  0
  -31.5740  -19.1130   18.1270 F   0  0  0  0  0  0  0  0  0  0  0  0
  -29.0660  -15.2450   21.2760 H   0  0  0  0  0  0  0  0  0  0  0  0
  -25.2110  -13.8540   20.4320 C   0  0  0  0  0  0  0  0  0  0  0  0
  -24.1420  -13.0880   20.8110 C   0  0  0  0  0  0  0  0  0  0  0  0
  -24.5980  -11.7340   20.7840 C   0  0  0  0  0  0  0  0  0  0  0  0
  -26.2510  -12.9680   20.1990 N   0  0  0  0  0  0  0  0  0  0  0  0
  -25.8870  -11.6890   20.4690 N   0  0  0  0  0  0  0  0  0  0  0  0
  -23.8680  -10.4750   20.9850 C   0  0  0  0  0  0  0  0  0  0  0  0
  -24.3000   -9.5120   21.9220 C   0  0  0  0  0  3  0  0  0  0  0  0
  -23.5720   -8.3180   22.1100 C   0  0  0  0  0  3  0  0  0  0  0  0
  -22.3960   -8.0790   21.3590 C   0  0  0  0  0  0  0  0  0  0  0  0
  -21.9830   -9.0300   20.4100 C   0  0  0  0  0  3  0  0  0  0  0  0
  -22.7130  -10.2160   20.2210 C   0  0  0  0  0  3  0  0  0  0  0  0
  -21.6390   -6.9360   21.4550 O   0  0  0  0  0  0  0  0  0  0  0  0
  -21.5900   -6.2000   22.6120 C   0  0  0  0  0  0  0  0  0  0  0  0
  -21.1590   -6.7620   23.8330 C   0  0  0  0  0  3  0  0  0  0  0  0
  -21.0570   -5.9530   24.9830 C   0  0  0  0  0  3  0  0  0  0  0  0
  -21.3750   -4.5830   24.9110 C   0  0  0  0  0  0  0  0  0  0  0  0
  -21.8000   -4.0210   23.6940 C   0  0  0  0  0  3  0  0  0  0  0  0
  -21.9030   -4.8280   22.5470 C   0  0  0  0  0  0  0  0  0  0  0  0
  -22.2910   -4.2770   21.3710 F   0  0  0  0  0  0  0  0  0  0  0  0
  -21.2710   -3.8040   26.0130 F   0  0  0  0  0  0  0  0  0  0  0  0
  -22.7480  -13.5720   21.0870 C   0  0  0  0  0  0  0  0  0  0  0  0
  -22.0220  -12.8820   21.9600 N   0  0  0  0  0  0  0  0  0  0  0  0
  -22.3120  -14.5970   20.5660 O   0  0  0  0  0  0  0  0  0  0  0  0
  -22.3870  -12.0520   22.4050 H   0  0  0  0  0  0  0  0  0  0  0  0
  -21.0880  -13.1890   22.1900 H   0  0  0  0  0  0  0  0  0  0  0  0
  -25.3820  -15.2230   20.2470 N   0  0  0  0  0  0  0  0  0  0  0  0
  -24.6160  -15.8780   20.3510 H   0  0  0  0  0  0  0  0  0  0  0  0
  -26.2220  -15.6540   19.8840 H   0  0  0  0  0  0  0  0  0  0  0  0
  -30.2580  -22.5410   20.9170 C   0  0  0  0  0  1  0  0  0  0  0  0
  -28.9690  -22.7330   20.0850 C   0  0  0  0  0  3  0  0  0  0  0  0
  -28.7560  -24.2300   19.6660 C   0  0  0  0  0  0  0  0  0  0  0  0
  -28.8880  -24.5790   18.4860 O   0  0  0  0  0  0  0  0  0  0  0  0
  -28.3530  -25.2910   20.7230 C   0  0  0  0  0  2  0  0  0  0  0  0
  -28.4610  -26.6520   20.2250 O   0  0  0  0  0  0  0  0  0  0  0  0
  -24.6170  -31.8690   23.2290 C   0  0  0  0  0  0  0  0  0  0  0  0
  -27.2980  -27.3960   20.2070 C   0  0  0  0  0  0  0  0  0  0  0  0
  -23.4300  -30.4550   21.5810 C   0  0  0  0  0  3  0  0  0  0  0  0
  -24.9020  -28.9110   20.1790 C   0  0  0  0  0  0  0  0  0  0  0  0
  -25.9580  -30.8180   21.4040 C   0  0  0  0  0  2  0  0  0  0  0  0
  -26.0550  -29.4410   20.7720 C   0  0  0  0  0  0  0  0  0  0  0  0
  -27.2590  -28.6950   20.7730 C   0  0  0  0  0  3  0  0  0  0  0  0
  -26.1270  -26.8850   19.6080 C   0  0  0  0  0  3  0  0  0  0  0  0
  -24.9340  -27.6340   19.5900 C   0  0  0  0  0  3  0  0  0  0  0  0
  -23.6570  -29.7680   20.2070 C   0  0  0  0  0  2  0  0  0  0  0  0
  -24.6870  -31.0630   22.1300 N   0  0  0  0  0  0  0  0  0  0  0  0
  -23.5290  -32.1410   23.7570 O   0  0  0  0  0  0  0  0  0  0  0  0
  -22.7700  -29.4400   22.5410 C   0  0  0  0  0  0  0  0  0  0  0  0
  -21.4450  -29.2630   22.4100 N   0  0  0  0  0  0  0  0  0  0  0  0
  -23.4480  -28.8120   23.3600 O   0  0  0  0  0  0  0  0  0  0  0  0
  -20.9600  -29.8220   21.7220 H   0  0  0  0  0  0  0  0  0  0  0  0
  -18.0610  -28.0930   22.9060 C   0  0  0  0  0  0  0  0  0  0  0  0
  -20.6210  -28.3290   23.1770 C   0  0  0  0  0  3  0  0  0  0  0  0
  -20.7120  -26.9000   22.5950 C   0  0  0  0  0  2  0  0  0  0  0  0
  -19.6070  -26.5900   21.5800 C   0  0  0  0  0  2  0  0  0  0  0  0
  -18.2270  -26.7440   22.2250 C   0  0  0  0  0  2  0  0  0  0  0  0
  -19.1860  -28.8440   23.3380 C   0  0  0  0  0  0  0  0  0  0  0  0
  -18.9780  -30.1070   23.9340 C   0  0  0  0  0  3  0  0  0  0  0  0
  -17.6780  -30.6190   24.1020 C   0  0  0  0  0  3  0  0  0  0  0  0
  -16.5670  -29.8640   23.6850 C   0  0  0  0  0  3  0  0  0  0  0  0
  -16.7600  -28.6030   23.0940 C   0  0  0  0  0  3  0  0  0  0  0  0
  -25.8950  -32.5050   23.8590 C   0  0  0  0  0  3  0  0  0  0  0  0
  -26.4080  -31.7360   25.1380 C   0  0  1  0  0  0  0  0  0  0  0  0
  -25.3090  -31.4950   26.2000 C   0  0  0  0  0  1  0  0  0  0  0  0
  -26.9980  -30.3610   24.7490 C   0  0  0  0  0  1  0  0  0  0  0  0
  -27.5510  -32.5350   25.8070 C   0  0  0  0  0  1  0  0  0  0  0  0
  -25.5800  -33.9030   24.1830 N   0  0  0  0  0  0  0  0  0  0  0  0
  -25.9150  -34.9540   23.4230 C   0  0  0  0  0  0  0  0  0  0  0  0
  -26.5920  -34.8490   22.3970 O   0  0  0  0  0  0  0  0  0  0  0  0
  -24.9800  -34.0580   24.9800 H   0  0  0  0  0  0  0  0  0  0  0  0
  -24.1860  -36.7410   23.0490 C   0  0  0  0  0  1  0  0  0  0  0  0
  -25.4200  -36.3420   23.8720 C   0  0  0  0  0  3  0  0  0  0  0  0
  -27.5430  -37.2360   24.7230 C   0  0  0  0  0  1  0  0  0  0  0  0
  -26.4520  -37.3970   23.7660 N   0  0  0  0  0  0  0  0  0  0  0  0
  -26.0420  -38.3170   23.9030 H   0  0  0  0  0  0  0  0  0  0  0  0
  1  2  1  0
  1 17  1  0
  2 53  1  0
  3  1  2  0
  4  2  1  0
  5  3  1  0
  6  3  1  0
  7 21  1  0
  8 13  1  0
  9 10  1  0
  9  8  1  0
 11 10  1  0
 11 27  1  0
 11 12  1  0
 13  7  1  0
 13 12  1  0
 14  7  2  0
 15 16  1  0
 17 15  2  0
 18 16  2  0
 18 21  1  0
 19 17  1  0
 19 20  2  0
 20 18  1  0
 21 23  1  0
 22 19  1  0
 24 25  2  0
 25 44  1  0
 26 25  1  0
 26 29  1  0
 27 24  1  0
 27 28  1  0
 28 26  2  0
 29 30  1  0
 30 31  2  0
 32 35  1  0
 32 31  1  0
 33 32  2  0
 34 33  1  0
 34 29  2  0
 35 36  1  0
 36 37  1  0
 37 38  2  0
 39 38  1  0
 39 43  1  0
 40 39  2  0
 41 36  2  0
 41 40  1  0
 42 41  1  0
 44 45  1  0
 45 48  1  0
 45 47  1  0
 46 44  2  0
 49 50  1  0
 49 24  1  0
 51 49  1  0
 53 52  1  0
 54 53  1  0
 54 56  1  0
 55 54  2  0
 57 56  1  0
 58 69  2  0
 59 57  1  0
 59 64  1  0
 60 68  1  0
 60 70  1  0
 61 67  1  0
 61 63  1  0
 62 68  1  0
 63 64  2  0
 63 62  1  0
 65 59  2  0
 66 65  1  0
 66 61  2  0
 67 60  1  0
 68 58  1  0
 70 72  2  0
 71 70  1  0
 73 71  1  0
 74 83  2  0
 74 79  1  0
 75 71  1  0
 75 79  1  0
 76 75  1  0
 77 78  1  0
 77 76  1  0
 78 74  1  0
 79 80  2  0
 80 81  1  0
 82 81  2  0
 83 82  1  0
 84 58  1  0
 84 89  1  0
 84 85  1  0
 85 88  1  1
 85 86  1  0
 87 85  1  0
 89 92  1  0
 90 94  1  0
 90 89  1  0
 91 90  2  0
 94 93  1  0
 96 94  1  0
 96 97  1  0
 96 95  1  0
M  ISO  4   7 100  21 100  56 101  57 101
M  END
>  <TORSDO>  (80) 
F 19

>  <SCORE>  (80) 
-14.450

>  <name>  (80) 
79

>  <ligand_id>  (80) 
79

>  <original_smiles>  (80) 
[H]c1c(N([H])C(=O)N2C([H])([H])C([H])([H])C([H])([H])C([H])(n3nc(-c4c([H])c([H])c(Oc5c([H])c([H])c(F)c([H])c5F)c([H])c4[H])c(C(=O)N([H])[H])c3N([H])[H])C2([H])[H])nc(F)c(C(N([H])C([H])(C(=O)C([H])([H])Oc2c([H])c([H])c3c(c2[H])C([H])([H])N(C(=O)C([H])(N([H])C(=O)C([H])(N([H])C([H])([H])[H])C([H])([H])[H])C(C([H])([H])[H])(C([H])([H])[H])C([H])([H])[H])C([H])(C(=O)N([H])C2([H])c4c([H])c([H])c([H])c([H])c4C([H])([H])C([H])([H])C2([H])[H])C3([H])[H])C([H])([H])[H])=[N+]([H])[H])c1[H]

>  <smiles>  (80) 
[H]c1c(N([H])C(=O)N2C([H])([H])C([H])([H])C([H])([H])C([H])(n3nc(-c4c([H])c([H])c(Oc5c([H])c([H])c(F)c([H])c5F)c([H])c4[H])c(C(=O)N([H])[H])c3N([H])[H])C2([H])[H])nc(F)c(C(N([H])C([H])(C(=O)C([H])([H])Oc2c([H])c([H])c3c(c2[H])C([H])([H])N(C(=O)C([H])(N([H])C(=O)C([H])(N([H])C([H])([H])[H])C([H])([H])[H])C(C([H])([H])[H])(C([H])([H])[H])C([H])([H])[H])C([H])(C(=O)N([H])C2([H])c4c([H])c([H])c([H])c([H])c4C([H])([H])C([H])([H])C2([H])[H])C3([H])[H])C([H])([H])[H])=[N+]([H])[H])c1[H]

$$$$
80:0:0
     RDKit          3D

 93101  0  0  1  0  0  0  0  0999 V2000
  -28.8810  -21.7430   20.0990 C   0  0  0  0  0  0  0  0  0  0  0  0
  -29.3640  -20.7260   20.8480 N   0  0  0  0  0  0  0  0  0  0  0  0
  -28.4430  -21.6320   18.9480 O   0  0  0  0  0  0  0  0  0  0  0  0
  -29.6560  -21.0140   21.7740 H   0  0  0  0  0  0  0  0  0  0  0  0
  -29.6540  -17.3300   19.4150 C   0  0  0  0  0  3  0  0  0  0  0  0
  -29.3600  -18.7320   19.3470 C   0  0  0  0  0  3  0  0  0  0  0  0
  -30.0280  -16.9100   20.6680 C   0  0  0  0  0  0  0  0  0  0  0  0
  -29.5180  -19.4020   20.5410 C   0  0  0  0  0  0  0  0  0  0  0  0
  -30.0190  -18.2640   21.7810 S   0  0  0  0  0  0  0  0  0  0  0  0
  -30.4230  -15.5780   21.1800 C   0  0  0  0  0  0  0  0  0  0  0  0
  -30.4310  -15.3440   22.3950 O   0  0  0  0  0  0  0  0  0  0  0  0
  -30.9320  -14.4890   20.1650 C   0  0  0  0  0  0  0  0  0  0  0  0
  -30.4670  -12.4200   18.8940 C   0  0  0  0  0  2  0  0  0  0  0  0
  -29.4630  -12.7070   17.7600 C   0  0  0  0  0  2  0  0  0  0  0  0
  -28.0150  -12.5790   18.2690 C   0  0  0  0  0  2  0  0  0  0  0  0
  -27.7780  -13.3600   19.5880 C   0  0  0  0  0  3  0  0  0  0  0  0
  -28.8840  -13.0490   20.6180 C   0  0  0  0  0  2  0  0  0  0  0  0
  -30.1850  -13.3560   19.9980 N   0  0  0  0  0  0  0  0  0  0  0  0
  -31.9720  -14.7010   19.5290 O   0  0  0  0  0  0  0  0  0  0  0  0
  -25.4410  -13.9990   20.4550 C   0  0  0  0  0  0  0  0  0  0  0  0
  -24.3760  -13.2400   20.8590 C   0  0  0  0  0  0  0  0  0  0  0  0
  -24.8000  -11.8800   20.7530 C   0  0  0  0  0  0  0  0  0  0  0  0
  -26.4480  -13.1020   20.1330 N   0  0  0  0  0  0  0  0  0  0  0  0
  -26.0680  -11.8200   20.3680 N   0  0  0  0  0  0  0  0  0  0  0  0
  -24.0530  -10.6280   20.9420 C   0  0  0  0  0  0  0  0  0  0  0  0
  -24.5110   -9.6200   21.8190 C   0  0  0  0  0  3  0  0  0  0  0  0
  -23.7670   -8.4350   21.9960 C   0  0  0  0  0  3  0  0  0  0  0  0
  -22.5500   -8.2490   21.2980 C   0  0  0  0  0  0  0  0  0  0  0  0
  -22.1100   -9.2460   20.4100 C   0  0  0  0  0  3  0  0  0  0  0  0
  -22.8550  -10.4230   20.2300 C   0  0  0  0  0  3  0  0  0  0  0  0
  -21.7730   -7.1190   21.3890 O   0  0  0  0  0  0  0  0  0  0  0  0
  -21.7580   -6.3450   22.5220 C   0  0  0  0  0  0  0  0  0  0  0  0
  -21.4290   -6.8800   23.7860 C   0  0  0  0  0  3  0  0  0  0  0  0
  -21.3580   -6.0350   24.9120 C   0  0  0  0  0  3  0  0  0  0  0  0
  -21.6060   -4.6570   24.7740 C   0  0  0  0  0  0  0  0  0  0  0  0
  -21.9270   -4.1210   23.5150 C   0  0  0  0  0  3  0  0  0  0  0  0
  -22.0000   -4.9620   22.3910 C   0  0  0  0  0  0  0  0  0  0  0  0
  -22.2900   -4.4380   21.1760 F   0  0  0  0  0  0  0  0  0  0  0  0
  -21.5290   -3.8430   25.8530 F   0  0  0  0  0  0  0  0  0  0  0  0
  -23.0110  -13.7400   21.2320 C   0  0  0  0  0  0  0  0  0  0  0  0
  -22.3230  -13.0380   22.1260 N   0  0  0  0  0  0  0  0  0  0  0  0
  -22.5640  -14.7870   20.7650 O   0  0  0  0  0  0  0  0  0  0  0  0
  -22.6970  -12.1890   22.5240 H   0  0  0  0  0  0  0  0  0  0  0  0
  -21.4090  -13.3540   22.4170 H   0  0  0  0  0  0  0  0  0  0  0  0
  -25.6320  -15.3710   20.3160 N   0  0  0  0  0  0  0  0  0  0  0  0
  -24.8900  -16.0390   20.4960 H   0  0  0  0  0  0  0  0  0  0  0  0
  -26.4750  -15.8040   19.9610 H   0  0  0  0  0  0  0  0  0  0  0  0
  -28.9190  -23.1130   20.8570 C   0  0  0  0  0  0  0  0  0  0  0  0
  -29.7290  -23.3160   21.7720 O   0  0  0  0  0  0  0  0  0  0  0  0
  -27.8860  -24.1940   20.4620 C   0  0  0  0  0  3  0  0  0  0  0  0
  -27.3220  -24.6930   21.5690 F   0  0  0  0  0  0  0  0  0  0  0  0
  -28.4500  -25.3570   19.5870 C   0  0  0  0  0  2  0  0  0  0  0  0
  -28.3630  -26.6860   20.1510 O   0  0  0  0  0  0  0  0  0  0  0  0
  -24.5200  -31.8750   23.1610 C   0  0  0  0  0  0  0  0  0  0  0  0
  -27.1710  -27.3910   20.1200 C   0  0  0  0  0  0  0  0  0  0  0  0
  -23.3140  -30.4480   21.5430 C   0  0  0  0  0  3  0  0  0  0  0  0
  -24.7670  -28.8990   20.1290 C   0  0  0  0  0  0  0  0  0  0  0  0
  -25.8380  -30.8100   21.3310 C   0  0  0  0  0  2  0  0  0  0  0  0
  -25.9250  -29.4310   20.7060 C   0  0  0  0  0  0  0  0  0  0  0  0
  -27.1260  -28.6830   20.7000 C   0  0  0  0  0  3  0  0  0  0  0  0
  -25.9860  -26.8760   19.5430 C   0  0  0  0  0  3  0  0  0  0  0  0
  -24.7910  -27.6210   19.5480 C   0  0  0  0  0  3  0  0  0  0  0  0
  -23.5190  -29.7540   20.1700 C   0  0  0  0  0  2  0  0  0  0  0  0
  -24.5760  -31.0610   22.0690 N   0  0  0  0  0  0  0  0  0  0  0  0
  -23.4400  -32.1490   23.7020 O   0  0  0  0  0  0  0  0  0  0  0  0
  -22.6720  -29.4350   22.5190 C   0  0  0  0  0  0  0  0  0  0  0  0
  -21.3460  -29.2520   22.4080 N   0  0  0  0  0  0  0  0  0  0  0  0
  -23.3640  -28.8160   23.3330 O   0  0  0  0  0  0  0  0  0  0  0  0
  -20.8490  -29.8030   21.7220 H   0  0  0  0  0  0  0  0  0  0  0  0
  -17.9760  -28.0700   22.9550 C   0  0  0  0  0  0  0  0  0  0  0  0
  -20.5380  -28.3210   23.1950 C   0  0  0  0  0  3  0  0  0  0  0  0
  -20.6300  -26.8860   22.6270 C   0  0  0  0  0  2  0  0  0  0  0  0
  -19.5140  -26.5610   21.6280 C   0  0  0  0  0  2  0  0  0  0  0  0
  -18.1410  -26.7150   22.2880 C   0  0  0  0  0  2  0  0  0  0  0  0
  -19.1020  -28.8310   23.3680 C   0  0  0  0  0  0  0  0  0  0  0  0
  -18.8940  -30.1000   23.9510 C   0  0  0  0  0  3  0  0  0  0  0  0
  -17.5930  -30.6070   24.1280 C   0  0  0  0  0  3  0  0  0  0  0  0
  -16.4820  -29.8420   23.7330 C   0  0  0  0  0  3  0  0  0  0  0  0
  -16.6740  -28.5760   23.1510 C   0  0  0  0  0  3  0  0  0  0  0  0
  -25.8060  -32.5210   23.7660 C   0  0  0  0  0  3  0  0  0  0  0  0
  -25.4830  -33.9140   24.1050 N   0  0  0  0  0  0  0  0  0  0  0  0
  -25.7920  -34.9720   23.3440 C   0  0  0  0  0  0  0  0  0  0  0  0
  -26.4510  -34.8800   22.3050 O   0  0  0  0  0  0  0  0  0  0  0  0
  -24.8940  -34.0570   24.9110 H   0  0  0  0  0  0  0  0  0  0  0  0
  -24.0340  -36.7410   23.0210 C   0  0  0  0  0  1  0  0  0  0  0  0
  -25.2920  -36.3520   23.8130 C   0  0  0  0  0  3  0  0  0  0  0  0
  -27.4300  -37.2640   24.6070 C   0  0  0  0  0  1  0  0  0  0  0  0
  -26.3080  -37.4210   23.6850 N   0  0  0  0  0  0  0  0  0  0  0  0
  -25.8920  -38.3340   23.8430 H   0  0  0  0  0  0  0  0  0  0  0  0
  -26.3510  -31.7510   25.0310 C   0  0  1  0  0  0  0  0  0  0  0  0
  -25.2780  -31.4960   26.1150 C   0  0  0  0  0  1  0  0  0  0  0  0
  -26.9450  -30.3820   24.6230 C   0  0  0  0  0  1  0  0  0  0  0  0
  -27.5020  -32.5570   25.6790 C   0  0  0  0  0  1  0  0  0  0  0  0
  1  2  1  0
  1 48  1  0
  2  4  1  0
  3  1  2  0
  5  7  2  0
  6  5  1  0
  6  8  2  0
  7 10  1  0
  7  9  1  0
  8  2  1  0
  8  9  1  0
 10 11  2  0
 12 10  1  0
 13 18  1  0
 14 15  1  0
 14 13  1  0
 16 15  1  0
 16 23  1  0
 16 17  1  0
 18 12  1  0
 18 17  1  0
 19 12  2  0
 20 21  2  0
 21 40  1  0
 22 21  1  0
 22 25  1  0
 23 24  1  0
 23 20  1  0
 24 22  2  0
 25 26  1  0
 26 27  2  0
 28 31  1  0
 28 27  1  0
 29 28  2  0
 30 29  1  0
 30 25  2  0
 31 32  1  0
 32 33  1  0
 33 34  2  0
 35 34  1  0
 35 39  1  0
 36 35  2  0
 37 32  2  0
 37 36  1  0
 38 37  1  0
 40 41  1  0
 41 44  1  0
 41 43  1  0
 42 40  2  0
 45 20  1  0
 45 46  1  0
 47 45  1  0
 48 49  2  0
 50 48  1  0
 50 51  1  0
 52 53  1  0
 52 50  1  0
 54 65  2  0
 55 53  1  0
 55 60  1  0
 56 64  1  0
 56 66  1  0
 57 63  1  0
 57 59  1  0
 58 64  1  0
 59 58  1  0
 60 59  2  0
 61 62  1  0
 61 55  2  0
 62 57  2  0
 63 56  1  0
 64 54  1  0
 66 68  2  0
 67 66  1  0
 69 67  1  0
 70 79  2  0
 70 75  1  0
 71 67  1  0
 71 75  1  0
 72 71  1  0
 73 74  1  0
 73 72  1  0
 74 70  1  0
 75 76  2  0
 76 77  1  0
 78 77  2  0
 79 78  1  0
 80 54  1  0
 80 81  1  0
 80 90  1  0
 81 84  1  0
 82 86  1  0
 82 81  1  0
 83 82  2  0
 86 85  1  0
 88 86  1  0
 88 89  1  0
 88 87  1  0
 90 93  1  1
 90 91  1  0
 92 90  1  0
M  ISO  4  10 100  12 100  52 101  53 101
M  END
>  <TORSDO>  (81) 
F 21

>  <SCORE>  (81) 
-12.880

>  <name>  (81) 
80

>  <ligand_id>  (81) 
80

>  <original_smiles>  (81) 
[H]c1c(C(=O)C(=O)N2C([H])([H])C([H])([H])C([H])([H])C([H])(n3nc(-c4c([H])c([H])c(Oc5c([H])c([H])c(F)c([H])c5F)c([H])c4[H])c(C(=O)N([H])[H])c3N([H])[H])C2([H])[H])sc(N([H])C(=O)C(=O)C([H])(F)C([H])([H])Oc2c([H])c([H])c3c(c2[H])C([H])([H])N(C(=O)C([H])(N([H])C(=O)C([H])(N([H])C([H])([H])[H])C([H])([H])[H])C(C([H])([H])[H])(C([H])([H])[H])C([H])([H])[H])C([H])(C(=O)N([H])C2([H])c4c([H])c([H])c([H])c([H])c4C([H])([H])C([H])([H])C2([H])[H])C3([H])[H])c1[H]

>  <smiles>  (81) 
[H]c1c(C(=O)C(=O)N2C([H])([H])C([H])([H])C([H])([H])C([H])(n3nc(-c4c([H])c([H])c(Oc5c([H])c([H])c(F)c([H])c5F)c([H])c4[H])c(C(=O)N([H])[H])c3N([H])[H])C2([H])[H])sc(N([H])C(=O)C(=O)C([H])(F)C([H])([H])Oc2c([H])c([H])c3c(c2[H])C([H])([H])N(C(=O)C([H])(N([H])C(=O)C([H])(N([H])C([H])([H])[H])C([H])([H])[H])C(C([H])([H])[H])(C([H])([H])[H])C([H])([H])[H])C([H])(C(=O)N([H])C2([H])c4c([H])c([H])c([H])c([H])c4C([H])([H])C([H])([H])C2([H])[H])C3([H])[H])c1[H]

$$$$
81:0:0
     RDKit          3D

 93101  0  0  1  0  0  0  0  0999 V2000
  -28.7700  -23.6370   20.2130 C   0  0  0  0  0  0  0  0  0  0  0  0
  -28.3040  -22.4120   19.7640 N   0  0  0  0  0  0  0  0  0  0  0  0
  -29.7010  -23.7460   21.0120 O   0  0  0  0  0  0  0  0  0  0  0  0
  -27.5150  -22.5650   19.1540 H   0  0  0  0  0  0  0  0  0  0  0  0
  -28.4100  -18.7250   19.2430 C   0  0  0  0  0  3  0  0  0  0  0  0
  -27.9620  -20.0990   19.0770 C   0  0  0  0  0  0  0  0  0  0  0  0
  -29.4470  -18.5310   20.1300 C   0  0  0  0  0  0  0  0  0  0  0  0
  -28.6340  -21.0520   19.8300 C   0  0  0  0  0  0  0  0  0  0  0  0
  -26.8600  -20.4960   18.1220 C   0  0  0  0  0  1  0  0  0  0  0  0
  -29.8830  -20.1660   20.7590 S   0  0  0  0  0  0  0  0  0  0  0  0
  -30.6400  -14.8130   20.3540 C   0  0  0  0  0  0  0  0  0  0  0  0
  -30.4270  -12.5180   19.3860 C   0  0  0  0  0  2  0  0  0  0  0  0
  -29.5050  -12.5740   18.1520 C   0  0  0  0  0  2  0  0  0  0  0  0
  -28.0230  -12.4310   18.5620 C   0  0  0  0  0  2  0  0  0  0  0  0
  -27.6440  -13.3110   19.7850 C   0  0  0  0  0  3  0  0  0  0  0  0
  -28.7040  -13.2560   20.9050 C   0  0  0  0  0  2  0  0  0  0  0  0
  -29.9900  -13.6010   20.2920 N   0  0  0  0  0  0  0  0  0  0  0  0
  -31.8550  -14.8310   20.1310 O   0  0  0  0  0  0  0  0  0  0  0  0
  -30.3260  -17.2990   20.4760 C   0  0  0  0  0  0  0  0  0  0  0  0
  -29.8860  -15.9840   20.3890 N   0  0  0  0  0  0  0  0  0  0  0  0
  -31.4750  -17.5560   20.8490 O   0  0  0  0  0  0  0  0  0  0  0  0
  -28.8930  -15.8690   20.2950 H   0  0  0  0  0  0  0  0  0  0  0  0
  -25.2570  -13.8970   20.5060 C   0  0  0  0  0  0  0  0  0  0  0  0
  -24.1890  -13.1250   20.8710 C   0  0  0  0  0  0  0  0  0  0  0  0
  -24.6470  -11.7730   20.8430 C   0  0  0  0  0  0  0  0  0  0  0  0
  -26.2990  -13.0150   20.2770 N   0  0  0  0  0  0  0  0  0  0  0  0
  -25.9410  -11.7320   20.5420 N   0  0  0  0  0  0  0  0  0  0  0  0
  -23.9170  -10.5110   21.0290 C   0  0  0  0  0  0  0  0  0  0  0  0
  -24.3410   -9.5490   21.9720 C   0  0  0  0  0  3  0  0  0  0  0  0
  -23.6120   -8.3540   22.1500 C   0  0  0  0  0  3  0  0  0  0  0  0
  -22.4460   -8.1100   21.3860 C   0  0  0  0  0  0  0  0  0  0  0  0
  -22.0390   -9.0630   20.4370 C   0  0  0  0  0  3  0  0  0  0  0  0
  -22.7670  -10.2510   20.2580 C   0  0  0  0  0  3  0  0  0  0  0  0
  -21.6920   -6.9650   21.4690 O   0  0  0  0  0  0  0  0  0  0  0  0
  -21.6200   -6.2320   22.6260 C   0  0  0  0  0  0  0  0  0  0  0  0
  -21.1590   -6.7940   23.8360 C   0  0  0  0  0  3  0  0  0  0  0  0
  -21.0360   -5.9890   24.9850 C   0  0  0  0  0  3  0  0  0  0  0  0
  -21.3660   -4.6200   24.9250 C   0  0  0  0  0  0  0  0  0  0  0  0
  -21.8220   -4.0580   23.7200 C   0  0  0  0  0  3  0  0  0  0  0  0
  -21.9460   -4.8630   22.5730 C   0  0  0  0  0  0  0  0  0  0  0  0
  -22.3660   -4.3110   21.4090 F   0  0  0  0  0  0  0  0  0  0  0  0
  -21.2410   -3.8430   26.0260 F   0  0  0  0  0  0  0  0  0  0  0  0
  -22.7930  -13.6080   21.1340 C   0  0  0  0  0  0  0  0  0  0  0  0
  -22.0590  -12.9130   21.9940 N   0  0  0  0  0  0  0  0  0  0  0  0
  -22.3620  -14.6320   20.6080 O   0  0  0  0  0  0  0  0  0  0  0  0
  -22.4250  -12.0850   22.4430 H   0  0  0  0  0  0  0  0  0  0  0  0
  -21.1210  -13.2140   22.2130 H   0  0  0  0  0  0  0  0  0  0  0  0
  -25.4280  -15.2670   20.3230 N   0  0  0  0  0  0  0  0  0  0  0  0
  -24.6630  -15.9270   20.4140 H   0  0  0  0  0  0  0  0  0  0  0  0
  -26.2780  -15.6850   19.9720 H   0  0  0  0  0  0  0  0  0  0  0  0
  -28.2960  -25.0050   18.1010 C   0  0  0  0  0  1  0  0  0  0  0  0
  -28.0210  -24.9350   19.6210 C   0  0  0  0  0  3  0  0  0  0  0  0
  -28.2290  -26.3260   20.1900 O   0  0  0  0  0  0  0  0  0  0  0  0
  -24.5900  -31.8820   23.2340 C   0  0  0  0  0  0  0  0  0  0  0  0
  -27.1580  -27.2690   20.1350 C   0  0  0  0  0  0  0  0  0  0  0  0
  -23.3840  -30.4980   21.5930 C   0  0  0  0  0  3  0  0  0  0  0  0
  -24.8260  -28.9660   20.1490 C   0  0  0  0  0  0  0  0  0  0  0  0
  -25.9330  -30.7980   21.4090 C   0  0  0  0  0  2  0  0  0  0  0  0
  -26.0080  -29.4180   20.7500 C   0  0  0  0  0  0  0  0  0  0  0  0
  -27.1750  -28.5770   20.7390 C   0  0  0  0  0  3  0  0  0  0  0  0
  -25.9410  -26.9100   19.5000 C   0  0  0  0  0  3  0  0  0  0  0  0
  -24.7990  -27.7230   19.5170 C   0  0  0  0  0  3  0  0  0  0  0  0
  -23.5950  -29.8440   20.2060 C   0  0  0  0  0  2  0  0  0  0  0  0
  -24.6570  -31.0740   22.1360 N   0  0  0  0  0  0  0  0  0  0  0  0
  -23.5050  -32.1540   23.7720 O   0  0  0  0  0  0  0  0  0  0  0  0
  -22.7220  -29.4680   22.5410 C   0  0  0  0  0  0  0  0  0  0  0  0
  -21.3950  -29.2910   22.4190 N   0  0  0  0  0  0  0  0  0  0  0  0
  -23.4050  -28.8340   23.3470 O   0  0  0  0  0  0  0  0  0  0  0  0
  -20.9020  -29.8520   21.7390 H   0  0  0  0  0  0  0  0  0  0  0  0
  -18.0200  -28.1010   22.9380 C   0  0  0  0  0  0  0  0  0  0  0  0
  -20.5810  -28.3460   23.1870 C   0  0  0  0  0  3  0  0  0  0  0  0
  -20.6730  -26.9190   22.5970 C   0  0  0  0  0  2  0  0  0  0  0  0
  -19.5600  -26.6140   21.5900 C   0  0  0  0  0  2  0  0  0  0  0  0
  -18.1850  -26.7590   22.2470 C   0  0  0  0  0  2  0  0  0  0  0  0
  -19.1440  -28.8560   23.3640 C   0  0  0  0  0  0  0  0  0  0  0  0
  -18.9320  -30.1160   23.9630 C   0  0  0  0  0  3  0  0  0  0  0  0
  -17.6280  -30.6170   24.1480 C   0  0  0  0  0  3  0  0  0  0  0  0
  -16.5200  -29.8580   23.7340 C   0  0  0  0  0  3  0  0  0  0  0  0
  -16.7160  -28.6030   23.1330 C   0  0  0  0  0  3  0  0  0  0  0  0
  -25.8690  -32.5200   23.8530 C   0  0  0  0  0  3  0  0  0  0  0  0
  -25.5570  -33.9170   24.1800 N   0  0  0  0  0  0  0  0  0  0  0  0
  -25.8810  -34.9700   23.4140 C   0  0  0  0  0  0  0  0  0  0  0  0
  -26.5450  -34.8660   22.3780 O   0  0  0  0  0  0  0  0  0  0  0  0
  -24.9710  -34.0750   24.9860 H   0  0  0  0  0  0  0  0  0  0  0  0
  -24.1540  -36.7660   23.0580 C   0  0  0  0  0  1  0  0  0  0  0  0
  -25.3910  -36.3550   23.8740 C   0  0  0  0  0  3  0  0  0  0  0  0
  -27.5170  -37.2450   24.7210 C   0  0  0  0  0  1  0  0  0  0  0  0
  -26.4210  -37.4130   23.7700 N   0  0  0  0  0  0  0  0  0  0  0  0
  -26.0100  -38.3280   23.9270 H   0  0  0  0  0  0  0  0  0  0  0  0
  -26.3860  -31.7550   25.1330 C   0  0  1  0  0  0  0  0  0  0  0  0
  -25.2940  -31.5090   26.1980 C   0  0  0  0  0  1  0  0  0  0  0  0
  -26.9770  -30.3800   24.7410 C   0  0  0  0  0  1  0  0  0  0  0  0
  -27.5280  -32.5570   25.7990 C   0  0  0  0  0  1  0  0  0  0  0  0
  1  3  2  0
  2  8  1  0
  2  1  1  0
  4  2  1  0
  5  7  2  0
  6  5  1  0
  6  8  2  0
  7 19  1  0
  7 10  1  0
  8 10  1  0
  9  6  1  0
 11 20  1  0
 12 17  1  0
 13 14  1  0
 13 12  1  0
 15 14  1  0
 15 26  1  0
 15 16  1  0
 17 11  1  0
 17 16  1  0
 18 11  2  0
 19 21  2  0
 20 19  1  0
 22 20  1  0
 23 24  2  0
 24 43  1  0
 25 24  1  0
 25 28  1  0
 26 23  1  0
 26 27  1  0
 27 25  2  0
 28 29  1  0
 29 30  2  0
 31 34  1  0
 31 30  1  0
 32 31  2  0
 33 32  1  0
 33 28  2  0
 34 35  1  0
 35 36  1  0
 36 37  2  0
 38 37  1  0
 38 42  1  0
 39 38  2  0
 40 35  2  0
 40 39  1  0
 41 40  1  0
 43 44  1  0
 44 47  1  0
 44 46  1  0
 45 43  2  0
 48 49  1  0
 48 23  1  0
 50 48  1  0
 52 51  1  0
 52 53  1  0
 52  1  1  0
 54 65  2  0
 55 53  1  0
 55 60  1  0
 56 64  1  0
 56 66  1  0
 57 63  1  0
 57 59  1  0
 58 64  1  0
 59 58  1  0
 60 59  2  0
 61 62  1  0
 61 55  2  0
 62 57  2  0
 63 56  1  0
 64 54  1  0
 66 68  2  0
 67 66  1  0
 69 67  1  0
 70 79  2  0
 70 75  1  0
 71 67  1  0
 71 75  1  0
 72 71  1  0
 73 74  1  0
 73 72  1  0
 74 70  1  0
 75 76  2  0
 76 77  1  0
 78 77  2  0
 79 78  1  0
 80 54  1  0
 80 81  1  0
 80 90  1  0
 81 84  1  0
 82 86  1  0
 82 81  1  0
 83 82  2  0
 86 85  1  0
 88 86  1  0
 88 89  1  0
 88 87  1  0
 90 93  1  1
 90 91  1  0
 92 90  1  0
M  ISO  4  11 100  20 100  52 101  53 101
M  END
>  <TORSDO>  (82) 
F 18

>  <SCORE>  (82) 
-14.943

>  <name>  (82) 
81

>  <ligand_id>  (82) 
81

>  <original_smiles>  (82) 
[H]c1c([H])c([H])c2c(c1[H])C([H])([H])C([H])([H])C([H])([H])C2([H])N([H])C(=O)C1([H])N(C(=O)C([H])(N([H])C(=O)C([H])(N([H])C([H])([H])[H])C([H])([H])[H])C(C([H])([H])[H])(C([H])([H])[H])C([H])([H])[H])C([H])([H])c2c([H])c(OC([H])(C(=O)N([H])c3sc(C(=O)N([H])C(=O)N4C([H])([H])C([H])([H])C([H])([H])C([H])(n5nc(-c6c([H])c([H])c(Oc7c([H])c([H])c(F)c([H])c7F)c([H])c6[H])c(C(=O)N([H])[H])c5N([H])[H])C4([H])[H])c([H])c3C([H])([H])[H])C([H])([H])[H])c([H])c([H])c2C1([H])[H]

>  <smiles>  (82) 
[H]c1c([H])c([H])c2c(c1[H])C([H])([H])C([H])([H])C([H])([H])C2([H])N([H])C(=O)C1([H])N(C(=O)C([H])(N([H])C(=O)C([H])(N([H])C([H])([H])[H])C([H])([H])[H])C(C([H])([H])[H])(C([H])([H])[H])C([H])([H])[H])C([H])([H])c2c([H])c(OC([H])(C(=O)N([H])c3sc(C(=O)N([H])C(=O)N4C([H])([H])C([H])([H])C([H])([H])C([H])(n5nc(-c6c([H])c([H])c(Oc7c([H])c([H])c(F)c([H])c7F)c([H])c6[H])c(C(=O)N([H])[H])c5N([H])[H])C4([H])[H])c([H])c3C([H])([H])[H])C([H])([H])[H])c([H])c([H])c2C1([H])[H]

$$$$
82:0:0
     RDKit          3D

 91 99  0  0  1  0  0  0  0  0999 V2000
  -28.7720  -22.1340   20.2330 C   0  0  1  0  0  0  0  0  0  0  0  0
  -28.5320  -22.0660   18.9230 F   0  0  0  0  0  0  0  0  0  0  0  0
  -27.6060  -21.9290   20.8450 F   0  0  0  0  0  0  0  0  0  0  0  0
  -29.6780  -20.8320   20.5970 C   0  0  0  0  0  0  0  0  0  0  0  0
  -29.2410  -19.5920   20.1440 N   0  0  0  0  0  0  0  0  0  0  0  0
  -30.6900  -20.9410   21.2980 O   0  0  0  0  0  0  0  0  0  0  0  0
  -28.4340  -19.6890   19.5380 H   0  0  0  0  0  0  0  0  0  0  0  0
  -30.7040  -14.8400   20.3880 C   0  0  0  0  0  0  0  0  0  0  0  0
  -30.4190  -12.5570   19.3800 C   0  0  0  0  0  2  0  0  0  0  0  0
  -29.4920  -12.5550   18.1480 C   0  0  0  0  0  2  0  0  0  0  0  0
  -28.0270  -12.3740   18.5850 C   0  0  0  0  0  2  0  0  0  0  0  0
  -27.6290  -13.2960   19.7640 C   0  0  0  0  0  3  0  0  0  0  0  0
  -28.6960  -13.3200   20.8860 C   0  0  0  0  0  2  0  0  0  0  0  0
  -29.9830  -13.6640   20.2650 N   0  0  0  0  0  0  0  0  0  0  0  0
  -31.9070  -14.8200   20.1150 O   0  0  0  0  0  0  0  0  0  0  0  0
  -30.7080  -17.4170   20.7290 C   0  0  0  0  0  2  0  0  0  0  0  0
  -29.6440  -18.1970   20.3510 C   0  0  0  0  0  3  0  0  0  0  0  0
  -30.1100  -16.0840   20.6230 N   0  0  0  0  0  0  0  0  0  0  0  0
  -28.6490  -16.7980   20.0040 S   0  0  0  0  0  0  0  0  0  0  0  0
  -25.2330  -13.8610   20.4940 C   0  0  0  0  0  0  0  0  0  0  0  0
  -24.1780  -13.0760   20.8660 C   0  0  0  0  0  0  0  0  0  0  0  0
  -24.6560  -11.7320   20.8450 C   0  0  0  0  0  0  0  0  0  0  0  0
  -26.2900  -12.9940   20.2660 N   0  0  0  0  0  0  0  0  0  0  0  0
  -25.9500  -11.7080   20.5430 N   0  0  0  0  0  0  0  0  0  0  0  0
  -23.9390  -10.4630   21.0310 C   0  0  0  0  0  0  0  0  0  0  0  0
  -24.3730   -9.5000   21.9690 C   0  0  0  0  0  3  0  0  0  0  0  0
  -23.6510   -8.3000   22.1470 C   0  0  0  0  0  3  0  0  0  0  0  0
  -22.4830   -8.0550   21.3860 C   0  0  0  0  0  0  0  0  0  0  0  0
  -22.0700   -9.0090   20.4390 C   0  0  0  0  0  3  0  0  0  0  0  0
  -22.7940  -10.1980   20.2590 C   0  0  0  0  0  3  0  0  0  0  0  0
  -21.7370   -6.9070   21.4710 O   0  0  0  0  0  0  0  0  0  0  0  0
  -21.6780   -6.1650   22.6260 C   0  0  0  0  0  0  0  0  0  0  0  0
  -21.2110   -6.7200   23.8360 C   0  0  0  0  0  3  0  0  0  0  0  0
  -21.0990   -5.9060   24.9840 C   0  0  0  0  0  3  0  0  0  0  0  0
  -21.4470   -4.5450   24.9180 C   0  0  0  0  0  0  0  0  0  0  0  0
  -21.9130   -3.9930   23.7120 C   0  0  0  0  0  3  0  0  0  0  0  0
  -22.0220   -4.8020   22.5680 C   0  0  0  0  0  0  0  0  0  0  0  0
  -22.4470   -4.2590   21.4010 F   0  0  0  0  0  0  0  0  0  0  0  0
  -21.3360   -3.7630   26.0210 F   0  0  0  0  0  0  0  0  0  0  0  0
  -22.7720  -13.5430   21.1260 C   0  0  0  0  0  0  0  0  0  0  0  0
  -22.0430  -12.8480   21.9910 N   0  0  0  0  0  0  0  0  0  0  0  0
  -22.3300  -14.5630   20.6020 O   0  0  0  0  0  0  0  0  0  0  0  0
  -22.4080  -12.0230   22.4440 H   0  0  0  0  0  0  0  0  0  0  0  0
  -21.1070  -13.1560   22.2120 H   0  0  0  0  0  0  0  0  0  0  0  0
  -25.3670  -15.2330   20.2980 N   0  0  0  0  0  0  0  0  0  0  0  0
  -24.5700  -15.8550   20.3790 H   0  0  0  0  0  0  0  0  0  0  0  0
  -26.1850  -15.6860   19.9120 H   0  0  0  0  0  0  0  0  0  0  0  0
  -29.1360  -23.7090   20.5480 C   0  0  0  0  0  3  0  0  0  0  0  0
  -30.2800  -24.0250   19.9330 F   0  0  0  0  0  0  0  0  0  0  0  0
  -28.0310  -24.8750   20.2010 C   0  0  0  0  0  2  0  0  0  0  0  0
  -28.2930  -26.3690   20.3050 O   0  0  0  0  0  0  0  0  0  0  0  0
  -24.6120  -31.9250   23.2430 C   0  0  0  0  0  0  0  0  0  0  0  0
  -27.2040  -27.2830   20.2260 C   0  0  0  0  0  0  0  0  0  0  0  0
  -23.4060  -30.5300   21.5990 C   0  0  0  0  0  3  0  0  0  0  0  0
  -24.8570  -28.9590   20.1820 C   0  0  0  0  0  0  0  0  0  0  0  0
  -25.9530  -30.8090   21.4420 C   0  0  0  0  0  2  0  0  0  0  0  0
  -26.0280  -29.4240   20.7980 C   0  0  0  0  0  0  0  0  0  0  0  0
  -27.2000  -28.5980   20.8130 C   0  0  0  0  0  3  0  0  0  0  0  0
  -26.0170  -26.8980   19.5660 C   0  0  0  0  0  3  0  0  0  0  0  0
  -24.8620  -27.7050   19.5500 C   0  0  0  0  0  3  0  0  0  0  0  0
  -23.6290  -29.8500   20.2220 C   0  0  0  0  0  2  0  0  0  0  0  0
  -24.6750  -31.1070   22.1520 N   0  0  0  0  0  0  0  0  0  0  0  0
  -23.5270  -32.2130   23.7710 O   0  0  0  0  0  0  0  0  0  0  0  0
  -22.7280  -29.5240   22.5620 C   0  0  0  0  0  0  0  0  0  0  0  0
  -21.3990  -29.3600   22.4350 N   0  0  0  0  0  0  0  0  0  0  0  0
  -23.3980  -28.8950   23.3830 O   0  0  0  0  0  0  0  0  0  0  0  0
  -20.9160  -29.9160   21.7430 H   0  0  0  0  0  0  0  0  0  0  0  0
  -18.0120  -28.1990   22.9530 C   0  0  0  0  0  0  0  0  0  0  0  0
  -20.5740  -28.4310   23.2100 C   0  0  0  0  0  3  0  0  0  0  0  0
  -20.6580  -27.0000   22.6330 C   0  0  0  0  0  2  0  0  0  0  0  0
  -19.5480  -26.6880   21.6240 C   0  0  0  0  0  2  0  0  0  0  0  0
  -18.1710  -26.8490   22.2760 C   0  0  0  0  0  2  0  0  0  0  0  0
  -19.1400  -28.9490   23.3790 C   0  0  0  0  0  0  0  0  0  0  0  0
  -18.9370  -30.2130   23.9760 C   0  0  0  0  0  3  0  0  0  0  0  0
  -17.6390  -30.7270   24.1470 C   0  0  0  0  0  3  0  0  0  0  0  0
  -16.5260  -29.9750   23.7370 C   0  0  0  0  0  3  0  0  0  0  0  0
  -16.7120  -28.7110   23.1480 C   0  0  0  0  0  3  0  0  0  0  0  0
  -25.8930  -32.5550   23.8700 C   0  0  0  0  0  3  0  0  0  0  0  0
  -26.4040  -31.7860   25.1510 C   0  0  1  0  0  0  0  0  0  0  0  0
  -25.3110  -31.5570   26.2200 C   0  0  0  0  0  1  0  0  0  0  0  0
  -26.9840  -30.4050   24.7650 C   0  0  0  0  0  1  0  0  0  0  0  0
  -27.5560  -32.5790   25.8130 C   0  0  0  0  0  1  0  0  0  0  0  0
  -25.5890  -33.9530   24.1990 N   0  0  0  0  0  0  0  0  0  0  0  0
  -25.9150  -35.0070   23.4370 C   0  0  0  0  0  0  0  0  0  0  0  0
  -26.5720  -34.9000   22.3970 O   0  0  0  0  0  0  0  0  0  0  0  0
  -25.0060  -34.1120   25.0080 H   0  0  0  0  0  0  0  0  0  0  0  0
  -24.1850  -36.8050   23.1070 C   0  0  0  0  0  1  0  0  0  0  0  0
  -25.4380  -36.3950   23.9000 C   0  0  0  0  0  3  0  0  0  0  0  0
  -27.5830  -37.2820   24.7030 C   0  0  0  0  0  1  0  0  0  0  0  0
  -26.4690  -37.4500   23.7720 N   0  0  0  0  0  0  0  0  0  0  0  0
  -26.0640  -38.3680   23.9280 H   0  0  0  0  0  0  0  0  0  0  0  0
  1 48  1  0
  1  4  1  0
  1  3  1  1
  2  1  1  0
  4  6  2  0
  5  4  1  0
  7  5  1  0
  8 18  1  0
  9 14  1  0
 10 11  1  0
 10  9  1  0
 12 11  1  0
 12 23  1  0
 12 13  1  0
 14  8  1  0
 14 13  1  0
 15  8  2  0
 17  5  1  0
 17 16  1  0
 18 16  1  0
 19 17  1  0
 19 18  1  0
 20 21  2  0
 21 40  1  0
 22 21  1  0
 22 25  1  0
 23 20  1  0
 23 24  1  0
 24 22  2  0
 25 26  1  0
 26 27  2  0
 28 31  1  0
 28 27  1  0
 29 28  2  0
 30 29  1  0
 30 25  2  0
 31 32  1  0
 32 33  1  0
 33 34  2  0
 35 34  1  0
 35 39  1  0
 36 35  2  0
 37 32  2  0
 37 36  1  0
 38 37  1  0
 40 41  1  0
 41 44  1  0
 41 43  1  0
 42 40  2  0
 45 46  1  0
 45 20  1  0
 47 45  1  0
 48 49  1  0
 50 51  1  0
 50 48  1  0
 52 63  2  0
 53 51  1  0
 53 58  1  0
 54 62  1  0
 54 64  1  0
 55 61  1  0
 55 57  1  0
 56 62  1  0
 57 58  2  0
 57 56  1  0
 59 53  2  0
 60 59  1  0
 60 55  2  0
 61 54  1  0
 62 52  1  0
 64 66  2  0
 65 64  1  0
 67 65  1  0
 68 77  2  0
 68 73  1  0
 69 65  1  0
 69 73  1  0
 70 69  1  0
 71 72  1  0
 71 70  1  0
 72 68  1  0
 73 74  2  0
 74 75  1  0
 76 75  2  0
 77 76  1  0
 78 52  1  0
 78 83  1  0
 78 79  1  0
 79 82  1  1
 79 80  1  0
 81 79  1  0
 83 86  1  0
 84 88  1  0
 84 83  1  0
 85 84  2  0
 88 87  1  0
 90 88  1  0
 90 91  1  0
 90 89  1  0
M  ISO  4   8 100  18 100  50 101  51 101
M  END
>  <TORSDO>  (83) 
F 19

>  <SCORE>  (83) 
-14.400

>  <name>  (83) 
82

>  <ligand_id>  (83) 
82

>  <original_smiles>  (83) 
[H]c1c([H])c([H])c2c(c1[H])C([H])([H])C([H])([H])C([H])([H])C2([H])N([H])C(=O)C1([H])N(C(=O)C([H])(N([H])C(=O)C([H])(N([H])C([H])([H])[H])C([H])([H])[H])C(C([H])([H])[H])(C([H])([H])[H])C([H])([H])[H])C([H])([H])c2c([H])c(OC([H])([H])C([H])(F)C(F)(F)C(=O)N([H])c3sn(C(=O)N4C([H])([H])C([H])([H])C([H])([H])C([H])(n5nc(-c6c([H])c([H])c(Oc7c([H])c([H])c(F)c([H])c7F)c([H])c6[H])c(C(=O)N([H])[H])c5N([H])[H])C4([H])[H])c3[H])c([H])c([H])c2C1([H])[H]

>  <smiles>  (83) 
[H]c1c([H])c([H])c2c(c1[H])C([H])([H])C([H])([H])C([H])([H])C2([H])N([H])C(=O)C1([H])N(C(=O)C([H])(N([H])C(=O)C([H])(N([H])C([H])([H])[H])C([H])([H])[H])C(C([H])([H])[H])(C([H])([H])[H])C([H])([H])[H])C([H])([H])c2c([H])c(OC([H])([H])C([H])(F)C(F)(F)C(=O)N([H])c3sn(C(=O)N4C([H])([H])C([H])([H])C([H])([H])C([H])(n5nc(-c6c([H])c([H])c(Oc7c([H])c([H])c(F)c([H])c7F)c([H])c6[H])c(C(=O)N([H])[H])c5N([H])[H])C4([H])[H])c3[H])c([H])c([H])c2C1([H])[H]

$$$$
83:0:0
     RDKit          3D

 91 99  0  0  1  0  0  0  0  0999 V2000
  -29.5160  -18.5350   20.3750 C   0  0  0  0  0  0  0  0  0  0  0  0
  -28.2380  -18.8120   19.9130 C   0  0  0  0  0  0  0  0  0  0  0  0
  -28.8380  -21.0590   20.2020 C   0  0  0  0  0  0  0  0  0  0  0  0
  -29.0020  -23.7360   20.3240 C   0  0  0  0  0  0  0  0  0  0  0  0
  -27.2010  -17.8440   19.4380 C   0  0  0  0  0  1  0  0  0  0  0  0
  -27.8920  -20.1850   19.8350 N   0  0  0  0  0  0  0  0  0  0  0  0
  -28.4940  -22.4860   20.0250 N   0  0  0  0  0  0  0  0  0  0  0  0
  -30.0170  -23.9020   21.0050 O   0  0  0  0  0  0  0  0  0  0  0  0
  -30.3000  -20.1330   20.7190 S   0  0  0  0  0  0  0  0  0  0  0  0
  -27.6270  -22.5820   19.5190 H   0  0  0  0  0  0  0  0  0  0  0  0
  -30.2310  -17.1840   20.5030 C   0  0  0  0  0  3  0  0  0  0  0  0
  -29.7480  -15.9570   20.6170 N   0  0  0  0  0  0  0  0  0  0  0  0
  -30.5880  -14.7960   20.4550 C   0  0  0  0  0  0  0  0  0  0  0  0
  -30.4030  -12.4960   19.4940 C   0  0  0  0  0  2  0  0  0  0  0  0
  -29.4900  -12.5680   18.2490 C   0  0  0  0  0  2  0  0  0  0  0  0
  -28.0110  -12.4000   18.6480 C   0  0  0  0  0  2  0  0  0  0  0  0
  -27.6140  -13.2990   19.8480 C   0  0  0  0  0  3  0  0  0  0  0  0
  -28.6520  -13.2290   20.9870 C   0  0  0  0  0  2  0  0  0  0  0  0
  -29.9700  -13.5620   20.4260 N   0  0  0  0  0  0  0  0  0  0  0  0
  -31.7860  -14.8460   20.1660 O   0  0  0  0  0  0  0  0  0  0  0  0
  -25.2160  -13.8910   20.5450 C   0  0  0  0  0  0  0  0  0  0  0  0
  -24.1420  -13.1240   20.8980 C   0  0  0  0  0  0  0  0  0  0  0  0
  -24.6030  -11.7720   20.8780 C   0  0  0  0  0  0  0  0  0  0  0  0
  -26.2630  -13.0120   20.3230 N   0  0  0  0  0  0  0  0  0  0  0  0
  -25.8980  -11.7300   20.5880 N   0  0  0  0  0  0  0  0  0  0  0  0
  -23.8690  -10.5140   21.0620 C   0  0  0  0  0  0  0  0  0  0  0  0
  -24.2870   -9.5460   22.0000 C   0  0  0  0  0  3  0  0  0  0  0  0
  -23.5520   -8.3530   22.1710 C   0  0  0  0  0  3  0  0  0  0  0  0
  -22.3860   -8.1210   21.4040 C   0  0  0  0  0  0  0  0  0  0  0  0
  -21.9870   -9.0790   20.4540 C   0  0  0  0  0  3  0  0  0  0  0  0
  -22.7220  -10.2630   20.2820 C   0  0  0  0  0  3  0  0  0  0  0  0
  -21.6240   -6.9800   21.4830 O   0  0  0  0  0  0  0  0  0  0  0  0
  -21.5590   -6.2390   22.6360 C   0  0  0  0  0  0  0  0  0  0  0  0
  -21.1160   -6.7950   23.8550 C   0  0  0  0  0  3  0  0  0  0  0  0
  -20.9970   -5.9800   24.9990 C   0  0  0  0  0  3  0  0  0  0  0  0
  -21.3110   -4.6090   24.9240 C   0  0  0  0  0  0  0  0  0  0  0  0
  -21.7470   -4.0530   23.7080 C   0  0  0  0  0  3  0  0  0  0  0  0
  -21.8680   -4.8650   22.5670 C   0  0  0  0  0  0  0  0  0  0  0  0
  -22.2680   -4.3200   21.3930 F   0  0  0  0  0  0  0  0  0  0  0  0
  -21.1900   -3.8250   26.0190 F   0  0  0  0  0  0  0  0  0  0  0  0
  -22.7430  -13.6090   21.1450 C   0  0  0  0  0  0  0  0  0  0  0  0
  -21.9980  -12.9190   22.0010 N   0  0  0  0  0  0  0  0  0  0  0  0
  -22.3190  -14.6360   20.6160 O   0  0  0  0  0  0  0  0  0  0  0  0
  -22.3540  -12.0880   22.4520 H   0  0  0  0  0  0  0  0  0  0  0  0
  -21.0590  -13.2260   22.2110 H   0  0  0  0  0  0  0  0  0  0  0  0
  -25.3850  -15.2580   20.3730 N   0  0  0  0  0  0  0  0  0  0  0  0
  -24.6290  -15.9230   20.4930 H   0  0  0  0  0  0  0  0  0  0  0  0
  -26.2700  -15.6840   20.1350 H   0  0  0  0  0  0  0  0  0  0  0  0
  -28.5550  -25.1170   18.2220 C   0  0  0  0  0  1  0  0  0  0  0  0
  -28.2000  -24.9940   19.7150 C   0  0  0  0  0  3  0  0  0  0  0  0
  -28.3330  -26.3820   20.3000 O   0  0  0  0  0  0  0  0  0  0  0  0
  -24.6250  -31.9050   23.2670 C   0  0  0  0  0  0  0  0  0  0  0  0
  -27.2390  -27.2920   20.2180 C   0  0  0  0  0  0  0  0  0  0  0  0
  -23.4290  -30.5090   21.6250 C   0  0  0  0  0  3  0  0  0  0  0  0
  -24.8850  -28.9590   20.2030 C   0  0  0  0  0  0  0  0  0  0  0  0
  -25.9780  -30.8050   21.4610 C   0  0  0  0  0  2  0  0  0  0  0  0
  -26.0560  -29.4240   20.8130 C   0  0  0  0  0  0  0  0  0  0  0  0
  -27.2340  -28.6020   20.8160 C   0  0  0  0  0  3  0  0  0  0  0  0
  -26.0380  -26.9160   19.5670 C   0  0  0  0  0  3  0  0  0  0  0  0
  -24.8810  -27.7120   19.5710 C   0  0  0  0  0  3  0  0  0  0  0  0
  -23.6510  -29.8390   20.2450 C   0  0  0  0  0  2  0  0  0  0  0  0
  -24.6970  -31.0920   22.1730 N   0  0  0  0  0  0  0  0  0  0  0  0
  -23.5390  -32.1870   23.7930 O   0  0  0  0  0  0  0  0  0  0  0  0
  -22.7600  -29.4910   22.5820 C   0  0  0  0  0  0  0  0  0  0  0  0
  -21.4340  -29.3150   22.4510 N   0  0  0  0  0  0  0  0  0  0  0  0
  -23.4350  -28.8640   23.4030 O   0  0  0  0  0  0  0  0  0  0  0  0
  -20.9490  -29.8710   21.7610 H   0  0  0  0  0  0  0  0  0  0  0  0
  -18.0510  -28.1300   22.9550 C   0  0  0  0  0  0  0  0  0  0  0  0
  -20.6120  -28.3800   23.2210 C   0  0  0  0  0  3  0  0  0  0  0  0
  -20.7080  -26.9480   22.6440 C   0  0  0  0  0  2  0  0  0  0  0  0
  -19.6020  -26.6320   21.6300 C   0  0  0  0  0  2  0  0  0  0  0  0
  -18.2230  -26.7810   22.2750 C   0  0  0  0  0  2  0  0  0  0  0  0
  -19.1730  -28.8870   23.3840 C   0  0  0  0  0  0  0  0  0  0  0  0
  -18.9590  -30.1490   23.9790 C   0  0  0  0  0  3  0  0  0  0  0  0
  -17.6560  -30.6550   24.1470 C   0  0  0  0  0  3  0  0  0  0  0  0
  -16.5490  -29.8940   23.7330 C   0  0  0  0  0  3  0  0  0  0  0  0
  -16.7480  -28.6340   23.1420 C   0  0  0  0  0  3  0  0  0  0  0  0
  -25.9040  -32.5410   23.8930 C   0  0  0  0  0  3  0  0  0  0  0  0
  -25.5920  -33.9400   24.2160 N   0  0  0  0  0  0  0  0  0  0  0  0
  -25.9160  -34.9900   23.4490 C   0  0  0  0  0  0  0  0  0  0  0  0
  -26.5790  -34.8840   22.4140 O   0  0  0  0  0  0  0  0  0  0  0  0
  -25.0030  -34.0980   25.0200 H   0  0  0  0  0  0  0  0  0  0  0  0
  -24.1790  -36.7770   23.1030 C   0  0  0  0  0  1  0  0  0  0  0  0
  -25.4300  -36.3810   23.9030 C   0  0  0  0  0  3  0  0  0  0  0  0
  -27.5690  -37.2790   24.7090 C   0  0  0  0  0  1  0  0  0  0  0  0
  -26.4590  -37.4360   23.7730 N   0  0  0  0  0  0  0  0  0  0  0  0
  -26.0510  -38.3570   23.9180 H   0  0  0  0  0  0  0  0  0  0  0  0
  -26.4110  -31.7760   25.1770 C   0  0  1  0  0  0  0  0  0  0  0  0
  -25.3100  -31.5450   26.2380 C   0  0  0  0  0  1  0  0  0  0  0  0
  -26.9960  -30.3950   24.7990 C   0  0  0  0  0  1  0  0  0  0  0  0
  -27.5580  -32.5720   25.8410 C   0  0  0  0  0  1  0  0  0  0  0  0
  1 11  1  0
  1  9  1  0
  2  1  2  0
  3  9  1  0
  4  8  2  0
  5  2  1  0
  6  2  1  0
  6  3  2  0
  7  3  1  0
  7  4  1  0
 10  7  1  0
 11 12  2  0
 13 12  1  0
 14 19  1  0
 15 16  1  0
 15 14  1  0
 17 16  1  0
 17 24  1  0
 17 18  1  0
 19 13  1  0
 19 18  1  0
 20 13  2  0
 21 22  2  0
 22 41  1  0
 23 22  1  0
 23 26  1  0
 24 21  1  0
 24 25  1  0
 25 23  2  0
 26 27  1  0
 27 28  2  0
 29 32  1  0
 29 28  1  0
 30 29  2  0
 31 30  1  0
 31 26  2  0
 32 33  1  0
 33 34  1  0
 34 35  2  0
 36 35  1  0
 36 40  1  0
 37 36  2  0
 38 33  2  0
 38 37  1  0
 39 38  1  0
 41 42  1  0
 42 45  1  0
 42 44  1  0
 43 41  2  0
 46 47  1  0
 46 21  1  0
 48 46  1  0
 50 49  1  0
 50 51  1  0
 50  4  1  0
 52 63  2  0
 53 51  1  0
 53 58  1  0
 54 62  1  0
 54 64  1  0
 55 61  1  0
 55 57  1  0
 56 62  1  0
 57 58  2  0
 57 56  1  0
 59 60  1  0
 59 53  2  0
 60 55  2  0
 61 54  1  0
 62 52  1  0
 64 66  2  0
 65 64  1  0
 67 65  1  0
 68 77  2  0
 68 73  1  0
 69 65  1  0
 69 73  1  0
 70 69  1  0
 71 72  1  0
 71 70  1  0
 72 68  1  0
 73 74  2  0
 74 75  1  0
 76 75  2  0
 77 76  1  0
 78 52  1  0
 78 79  1  0
 78 88  1  0
 79 82  1  0
 80 84  1  0
 80 79  1  0
 81 80  2  0
 84 83  1  0
 86 84  1  0
 86 87  1  0
 86 85  1  0
 88 91  1  1
 88 89  1  0
 90 88  1  0
M  ISO  4  12 100  13 100  50 101  51 101
M  END
>  <TORSDO>  (84) 
F 18

>  <SCORE>  (84) 
-14.828

>  <name>  (84) 
83

>  <ligand_id>  (84) 
83

>  <original_smiles>  (84) 
[H]C(=NC(=O)N1C([H])([H])C([H])([H])C([H])([H])C([H])(n2nc(-c3c([H])c([H])c(Oc4c([H])c([H])c(F)c([H])c4F)c([H])c3[H])c(C(=O)N([H])[H])c2N([H])[H])C1([H])[H])c1sc(N([H])C(=O)C([H])(Oc2c([H])c([H])c3c(c2[H])C([H])([H])N(C(=O)C([H])(N([H])C(=O)C([H])(N([H])C([H])([H])[H])C([H])([H])[H])C(C([H])([H])[H])(C([H])([H])[H])C([H])([H])[H])C([H])(C(=O)N([H])C2([H])c4c([H])c([H])c([H])c([H])c4C([H])([H])C([H])([H])C2([H])[H])C3([H])[H])C([H])([H])[H])nc1C([H])([H])[H]

>  <smiles>  (84) 
[H]C(=NC(=O)N1C([H])([H])C([H])([H])C([H])([H])C([H])(n2nc(-c3c([H])c([H])c(Oc4c([H])c([H])c(F)c([H])c4F)c([H])c3[H])c(C(=O)N([H])[H])c2N([H])[H])C1([H])[H])c1sc(N([H])C(=O)C([H])(Oc2c([H])c([H])c3c(c2[H])C([H])([H])N(C(=O)C([H])(N([H])C(=O)C([H])(N([H])C([H])([H])[H])C([H])([H])[H])C(C([H])([H])[H])(C([H])([H])[H])C([H])([H])[H])C([H])(C(=O)N([H])C2([H])c4c([H])c([H])c([H])c([H])c4C([H])([H])C([H])([H])C2([H])[H])C3([H])[H])C([H])([H])[H])nc1C([H])([H])[H]

$$$$
84:0:0
     RDKit          3D

 95 96  0  0  1  0  0  0  0  0999 V2000
  -26.6660  -18.3710   19.0100 C   0  0  0  0  0  0  0  0  0  0  0  0
  -27.5270  -18.6160   20.0970 C   0  0  0  0  0  3  0  0  0  0  0  0
  -25.2950  -20.8010   19.9120 C   0  0  0  0  0  3  0  0  0  0  0  0
  -22.6430  -23.0910   19.7070 C   0  0  0  0  0  2  0  0  0  0  0  0
  -26.8510  -17.2430   18.0470 C   0  0  0  0  0  1  0  0  0  0  0  0
  -26.6180  -20.0550   20.4860 N   0  0  0  0  0  0  0  0  0  0  0  0
  -24.1470  -22.3470   19.9990 N   0  0  0  0  0  2  0  0  0  0  0  0
  -21.8880  -22.1510   19.4480 O   0  0  0  0  0  1  0  0  0  0  0  0
  -25.1650  -19.4820   18.6640 S   0  0  0  0  0  0  0  0  0  0  0  0
  -24.7080  -23.0900   20.3950 H   0  0  0  0  0  0  0  0  0  0  0  0
  -30.2640  -16.3240   20.3830 C   0  0  0  0  0  0  0  0  0  0  0  0
  -31.5180  -13.7950   20.1160 C   0  0  0  0  0  2  0  0  0  0  0  0
  -30.9910  -12.7660   19.0450 C   0  0  0  0  0  2  0  0  0  0  0  0
  -29.6260  -12.1980   19.4560 C   0  0  0  0  0  2  0  0  0  0  0  0
  -28.8290  -13.3170   20.1490 C   0  0  0  0  0  3  0  0  0  0  0  0
  -29.5530  -13.9850   21.3090 C   0  0  0  0  0  2  0  0  0  0  0  0
  -30.4380  -14.8500   20.5960 N   0  0  0  0  0  0  0  0  0  0  0  0
  -31.4960  -16.5550   20.1050 O   0  0  0  0  0  0  0  0  0  0  0  0
  -28.9900  -17.4590   20.5780 N   0  0  0  0  0  2  0  0  0  0  0  0
  -29.4350  -17.9960   21.3090 H   0  0  0  0  0  0  0  0  0  0  0  0
  -26.5960  -13.8620   21.0770 C   0  0  0  0  0  0  0  0  0  0  0  0
  -25.5310  -13.0860   21.3980 C   0  0  0  0  0  0  0  0  0  0  0  0
  -25.9380  -11.7380   21.1550 C   0  0  0  0  0  0  0  0  0  0  0  0
  -27.5420  -12.9760   20.6160 N   0  0  0  0  0  0  0  0  0  0  0  0
  -27.1930  -11.6840   20.7460 N   0  0  0  0  0  0  0  0  0  0  0  0
  -25.1810  -10.4960   21.2130 C   0  0  0  0  0  0  0  0  0  0  0  0
  -25.5880   -9.4190   22.0300 C   0  0  0  0  0  3  0  0  0  0  0  0
  -24.8190   -8.2370   22.0690 C   0  0  0  0  0  3  0  0  0  0  0  0
  -23.6420   -8.1340   21.2920 C   0  0  0  0  0  0  0  0  0  0  0  0
  -23.2620   -9.2030   20.4630 C   0  0  0  0  0  3  0  0  0  0  0  0
  -24.0280  -10.3750   20.4190 C   0  0  0  0  0  3  0  0  0  0  0  0
  -22.8410   -7.0190   21.2530 O   0  0  0  0  0  0  0  0  0  0  0  0
  -22.6510   -6.2360   22.3600 C   0  0  0  0  0  0  0  0  0  0  0  0
  -22.0980   -6.7500   23.5530 C   0  0  0  0  0  3  0  0  0  0  0  0
  -21.8550   -5.8910   24.6430 C   0  0  0  0  0  3  0  0  0  0  0  0
  -22.1550   -4.5200   24.5390 C   0  0  0  0  0  0  0  0  0  0  0  0
  -22.7020   -4.0060   23.3510 C   0  0  0  0  0  3  0  0  0  0  0  0
  -22.9470   -4.8620   22.2630 C   0  0  0  0  0  0  0  0  0  0  0  0
  -23.4540   -4.3590   21.1120 F   0  0  0  0  0  0  0  0  0  0  0  0
  -21.9130   -3.6920   25.5820 F   0  0  0  0  0  0  0  0  0  0  0  0
  -24.1860  -13.5870   21.8120 C   0  0  0  0  0  0  0  0  0  0  0  0
  -23.4770  -12.8210   22.6290 N   0  0  0  0  0  0  0  0  0  0  0  0
  -23.7830  -14.6920   21.4490 O   0  0  0  0  0  0  0  0  0  0  0  0
  -23.8270  -11.9270   22.9410 H   0  0  0  0  0  0  0  0  0  0  0  0
  -22.5710  -13.1340   22.9510 H   0  0  0  0  0  0  0  0  0  0  0  0
  -26.8350  -15.2320   21.1170 N   0  0  0  0  0  0  0  0  0  0  0  0
  -26.1180  -15.8880   21.4100 H   0  0  0  0  0  0  0  0  0  0  0  0
  -27.6920  -15.6820   20.8340 H   0  0  0  0  0  0  0  0  0  0  0  0
  -21.3610  -24.8290   19.6080 C   0  0  0  0  0  2  0  0  0  0  0  0
  -21.8000  -27.1300   17.7410 C   0  0  0  0  0  1  0  0  0  0  0  0
  -20.1330  -28.4400   17.7080 C   0  0  0  0  0  2  0  0  0  0  0  0
  -20.7320  -29.6340   17.4190 F   0  0  0  0  0  0  0  0  0  0  0  0
  -19.8370  -28.2350   16.3880 F   0  0  0  0  0  0  0  0  0  0  0  0
  -18.4150  -28.1780   19.5310 F   0  0  0  0  0 15  0  0  0  0  0  0
  -23.9630  -27.1330   17.3500 O   0  0  0  0  0  1  0  0  0  0  0  0
  -24.5980  -29.6580   21.8190 C   0  0  0  0  0  0  0  0  0  0  0  0
  -25.5080  -26.6660   17.5970 C   0  0  0  0  0  3  0  0  0  0  0  0
  -23.7910  -29.2610   19.5590 C   0  0  0  0  0  3  0  0  0  0  0  0
  -25.6310  -29.1160   17.6180 C   0  0  0  0  0  3  0  0  0  0  0  0
  -26.2900  -29.3770   20.0050 C   0  0  0  0  0  2  0  0  0  0  0  0
  -26.3400  -28.6160   18.7010 C   0  0  0  0  0  3  0  0  0  0  0  0
  -26.4410  -27.2210   18.6040 C   0  0  0  0  0  2  0  0  0  0  0  0
  -26.1900  -27.0590   16.4420 C   0  0  0  0  0  2  0  0  0  0  0  0
  -25.8170  -28.4170   16.3700 C   0  0  0  0  0  2  0  0  0  0  0  0
  -24.2630  -29.6600   18.0710 C   0  0  0  0  0  2  0  0  0  0  0  0
  -24.9030  -29.5210   20.5050 N   0  0  0  0  0  0  0  0  0  0  0  0
  -23.4210  -29.7390   22.2010 O   0  0  0  0  0  0  0  0  0  0  0  0
  -23.3670  -27.7770   19.9150 C   0  0  0  0  0  0  0  0  0  0  0  0
  -22.1960  -27.3580   20.2870 N   0  0  0  0  0  4  0  0  0  0  0  0
  -24.1570  -26.8650   19.9730 O   0  0  0  0  0  0  0  0  0  0  0  0
  -21.5350  -28.0720   20.5630 H   0  0  0  0  0  0  0  0  0  0  0  0
  -18.6170  -26.0680   20.9880 C   0  0  0  0  0  0  0  0  0  0  0  0
  -21.6240  -25.9660   19.9270 C   0  0  0  0  0  0  0  0  0  0  0  0
  -21.0780  -25.9170   18.0400 C   0  0  0  0  0  2  0  0  0  0  0  0
  -18.7850  -26.3590   17.7060 C   0  0  0  0  0 15  0  0  0  0  0  0
  -17.8480  -26.2120   19.4700 C   0  0  0  0  0  1  0  0  0  0  0  0
  -20.5430  -25.9730   21.1830 C   0  0  0  0  0  0  0  0  0  0  0  0
  -21.2600  -26.9610   22.5710 C   0  0  0  0  0  3  0  0  0  0  0  0
  -20.2600  -27.8990   23.6170 C   0  0  0  0  0  3  0  0  0  0  0  0
  -18.5810  -27.9420   23.4550 C   0  0  0  0  0  3  0  0  0  0  0  0
  -17.7280  -27.0550   22.2290 C   0  0  0  0  0  3  0  0  0  0  0  0
  -25.7150  -29.7240   22.8870 C   0  0  0  0  0  3  0  0  0  0  0  0
  -25.7260  -28.4860   23.8670 C   0  0  1  0  0  0  0  0  0  0  0  0
  -24.3430  -28.1520   24.4730 C   0  0  0  0  0  1  0  0  0  0  0  0
  -26.2490  -27.2140   23.1620 C   0  0  0  0  0  1  0  0  0  0  0  0
  -26.7090  -28.7670   25.0270 C   0  0  0  0  0  1  0  0  0  0  0  0
  -25.4860  -30.9690   23.6230 N   0  0  0  0  0  0  0  0  0  0  0  0
  -26.2360  -32.0690   23.4890 C   0  0  0  0  0  0  0  0  0  0  0  0
  -27.2570  -32.1020   22.7980 O   0  0  0  0  0  0  0  0  0  0  0  0
  -24.6380  -31.0280   24.1650 H   0  0  0  0  0  0  0  0  0  0  0  0
  -25.1520  -34.3270   23.2730 C   0  0  0  0  0  1  0  0  0  0  0  0
  -25.7830  -33.3250   24.2530 C   0  0  0  0  0  3  0  0  0  0  0  0
  -27.3900  -33.1610   26.1000 C   0  0  0  0  0  1  0  0  0  0  0  0
  -26.8770  -33.9780   25.0030 N   0  0  0  0  0  0  0  0  0  0  0  0
  -26.5710  -34.8670   25.3860 H   0  0  0  0  0  0  0  0  0  0  0  0
  1  2  2  0
  2  6  1  0
  3  6  2  0
  4  7  1  0
  5  1  1  0
  7 10  1  0
  8  4  1  0
  9  1  1  0
  9  3  1  0
 11 19  1  0
 11 17  1  0
 12 17  1  0
 13 14  1  0
 13 12  1  0
 15 14  1  0
 15 24  1  0
 15 16  1  0
 17 16  1  0
 18 11  2  0
 19 20  1  0
 21 46  1  0
 21 22  2  0
 22 41  1  0
 23 26  1  0
 23 22  1  0
 24 25  1  0
 24 21  1  0
 25 23  2  0
 26 27  1  0
 27 28  2  0
 29 28  1  0
 30 29  2  0
 31 30  1  0
 31 26  2  0
 32 29  1  0
 32 33  1  0
 33 34  1  0
 34 35  2  0
 36 35  1  0
 36 40  1  0
 37 36  2  0
 38 33  2  0
 38 37  1  0
 39 38  1  0
 41 42  1  0
 42 44  1  0
 42 45  1  0
 43 41  2  0
 46 47  1  0
 48 46  1  0
 49 73  1  0
 50 74  1  0
 52 51  1  0
 53 51  1  0
 56 67  2  0
 57 55  1  0
 57 62  1  0
 58 68  1  0
 58 66  1  0
 59 64  1  0
 59 65  1  0
 59 61  1  0
 60 66  1  0
 61 62  1  0
 61 60  1  0
 63 57  1  0
 64 63  1  0
 65 58  1  0
 66 56  1  0
 68 70  2  0
 68 69  1  0
 69 71  1  0
 72 77  2  0
 72 81  1  0
 73 69  2  0
 73 77  1  0
 74 49  1  0
 76 72  1  0
 77 78  1  0
 78 79  2  0
 80 79  1  0
 81 80  2  0
 82 56  1  0
 82 87  1  0
 82 83  1  0
 83 84  1  1
 83 86  1  0
 85 83  1  0
 87 90  1  0
 88 87  1  0
 88 92  1  0
 89 88  2  0
 92 91  1  0
 92 94  1  0
 94 95  1  0
 94 93  1  0
M  ISO  4  11 100  19 100  50 101  55 101
M  END
>  <TORSDO>  (85) 
F 19

>  <SCORE>  (85) 
4.346

>  <name>  (85) 
84

>  <ligand_id>  (85) 
84

>  <original_smiles>  (85) 
[H]c1c([H])c([H])c2c(c1[H])C([H])([H])C([H])([H])C([H])([H])C2([H])N([H])C(=O)C1([H])N(C(=O)C([H])(N([H])C(=O)C([H])(N([H])C([H])([H])[H])C([H])([H])[H])C(C([H])([H])[H])(C([H])([H])[H])C([H])([H])[H])C([H])([H])c2c([H])c(OC([H])(C(F)(F)F)C([H])([H])C(=O)N([H])c3nc(N([H])C(=O)N4C([H])([H])C([H])([H])C([H])([H])C([H])(n5nc(-c6c([H])c([H])c(Oc7c([H])c([H])c(F)c([H])c7F)c([H])c6[H])c(C(=O)N([H])[H])c5N([H])[H])C4([H])[H])c(C([H])([H])[H])s3)c([H])c([H])c2C1([H])[H]

>  <smiles>  (85) 
[H]c1c([H])c([H])c2c(c1[H])C([H])([H])C([H])([H])C([H])([H])C2([H])N([H])C(=O)C1([H])N(C(=O)C([H])(N([H])C(=O)C([H])(N([H])C([H])([H])[H])C([H])([H])[H])C(C([H])([H])[H])(C([H])([H])[H])C([H])([H])[H])C([H])([H])c2c([H])c(OC([H])(C(F)(F)F)C([H])([H])C(=O)N([H])c3nc(N([H])C(=O)N4C([H])([H])C([H])([H])C([H])([H])C([H])(n5nc(-c6c([H])c([H])c(Oc7c([H])c([H])c(F)c([H])c7F)c([H])c6[H])c(C(=O)N([H])[H])c5N([H])[H])C4([H])[H])c(C([H])([H])[H])s3)c([H])c([H])c2C1([H])[H]

$$$$
85:0:0
     RDKit          3D

 94102  0  0  1  0  0  0  0  0999 V2000
  -29.4790  -23.2880   19.8600 C   0  0  0  0  0  3  0  0  0  0  0  0
  -29.7780  -21.9360   19.8490 C   0  0  0  0  0  0  0  0  0  0  0  0
  -28.3910  -24.0090   20.6060 C   0  0  0  0  0  0  0  0  0  0  0  0
  -27.3270  -23.4300   20.8520 O   0  0  0  0  0  0  0  0  0  0  0  0
  -28.5550  -25.4880   21.1330 C   0  0  0  0  0  2  0  0  0  0  0  0
  -28.4330  -26.5800   20.1650 O   0  0  0  0  0  0  0  0  0  0  0  0
  -24.6500  -31.9130   23.2620 C   0  0  0  0  0  0  0  0  0  0  0  0
  -27.2950  -27.3810   20.2300 C   0  0  0  0  0  0  0  0  0  0  0  0
  -23.4510  -30.5010   21.6270 C   0  0  0  0  0  3  0  0  0  0  0  0
  -24.9130  -28.9450   20.2160 C   0  0  0  0  0  0  0  0  0  0  0  0
  -25.9860  -30.8380   21.4420 C   0  0  0  0  0  2  0  0  0  0  0  0
  -26.0760  -29.4570   20.8100 C   0  0  0  0  0  0  0  0  0  0  0  0
  -27.2720  -28.6830   20.8090 C   0  0  0  0  0  3  0  0  0  0  0  0
  -26.1130  -26.9060   19.6300 C   0  0  0  0  0  3  0  0  0  0  0  0
  -24.9290  -27.6710   19.6240 C   0  0  0  0  0  3  0  0  0  0  0  0
  -23.6730  -29.8140   20.2520 C   0  0  0  0  0  2  0  0  0  0  0  0
  -24.7150  -31.1000   22.1670 N   0  0  0  0  0  0  0  0  0  0  0  0
  -23.5650  -32.1870   23.7960 O   0  0  0  0  0  0  0  0  0  0  0  0
  -22.7910  -29.4860   22.5900 C   0  0  0  0  0  0  0  0  0  0  0  0
  -21.4650  -29.3100   22.4680 N   0  0  0  0  0  0  0  0  0  0  0  0
  -23.4710  -28.8620   23.4070 O   0  0  0  0  0  0  0  0  0  0  0  0
  -20.9750  -29.8690   21.7830 H   0  0  0  0  0  0  0  0  0  0  0  0
  -18.0880  -28.1110   22.9660 C   0  0  0  0  0  0  0  0  0  0  0  0
  -20.6460  -28.3760   23.2420 C   0  0  0  0  0  3  0  0  0  0  0  0
  -20.7510  -26.9390   22.6740 C   0  0  0  0  0  2  0  0  0  0  0  0
  -19.6510  -26.6100   21.6600 C   0  0  0  0  0  2  0  0  0  0  0  0
  -18.2670  -26.7570   22.3000 C   0  0  0  0  0  2  0  0  0  0  0  0
  -19.2040  -28.8770   23.3930 C   0  0  0  0  0  0  0  0  0  0  0  0
  -18.9810  -30.1440   23.9760 C   0  0  0  0  0  3  0  0  0  0  0  0
  -17.6750  -30.6430   24.1370 C   0  0  0  0  0  3  0  0  0  0  0  0
  -16.5740  -29.8730   23.7250 C   0  0  0  0  0  3  0  0  0  0  0  0
  -16.7810  -28.6090   23.1450 C   0  0  0  0  0  3  0  0  0  0  0  0
  -25.9290  -32.5500   23.8850 C   0  0  0  0  0  3  0  0  0  0  0  0
  -25.6170  -33.9510   24.2050 N   0  0  0  0  0  0  0  0  0  0  0  0
  -25.9410  -35.0000   23.4380 C   0  0  0  0  0  0  0  0  0  0  0  0
  -26.6030  -34.8900   22.4030 O   0  0  0  0  0  0  0  0  0  0  0  0
  -25.0340  -34.1100   25.0140 H   0  0  0  0  0  0  0  0  0  0  0  0
  -24.2060  -36.7850   23.0830 C   0  0  0  0  0  1  0  0  0  0  0  0
  -25.4530  -36.3890   23.8910 C   0  0  0  0  0  3  0  0  0  0  0  0
  -27.5840  -37.2850   24.7120 C   0  0  0  0  0  1  0  0  0  0  0  0
  -26.4810  -37.4440   23.7680 N   0  0  0  0  0  0  0  0  0  0  0  0
  -26.0730  -38.3650   23.9130 H   0  0  0  0  0  0  0  0  0  0  0  0
  -26.4460  -31.7870   25.1650 C   0  0  1  0  0  0  0  0  0  0  0  0
  -25.3520  -31.5500   26.2320 C   0  0  0  0  0  1  0  0  0  0  0  0
  -27.0370  -30.4110   24.7820 C   0  0  0  0  0  1  0  0  0  0  0  0
  -27.5940  -32.5880   25.8240 C   0  0  0  0  0  1  0  0  0  0  0  0
  -31.1250  -22.1500   17.8480 C   0  0  0  0  0  1  0  0  0  0  0  0
  -30.7290  -21.4030   19.0000 O   0  0  0  0  0  0  0  0  0  0  0  0
  -29.1510  -20.7860   20.7070 C   0  0  0  0  0  3  0  0  0  0  0  0
  -29.1300  -18.1350   20.6410 C   0  0  0  0  0  3  0  0  0  0  0  0
  -31.0700  -19.0820   20.7460 C   0  0  0  0  0  3  0  0  0  0  0  0
  -30.1040  -17.1420   20.7050 C   0  0  0  0  0  0  0  0  0  0  0  0
  -31.3510  -17.7700   20.7620 N   0  0  0  0  0  0  0  0  0  0  0  0
  -29.7640  -19.4040   20.6600 N   0  0  0  0  0  0  0  0  0  0  0  0
  -30.6340  -14.6390   20.4390 C   0  0  0  0  0  0  0  0  0  0  0  0
  -30.3970  -12.4350   19.3220 C   0  0  0  0  0  2  0  0  0  0  0  0
  -29.4550  -12.6180   18.1140 C   0  0  0  0  0  2  0  0  0  0  0  0
  -27.9790  -12.4630   18.5370 C   0  0  0  0  0  2  0  0  0  0  0  0
  -27.6270  -13.2810   19.8070 C   0  0  0  0  0  3  0  0  0  0  0  0
  -28.6880  -13.0860   20.9120 C   0  0  0  0  0  2  0  0  0  0  0  0
  -29.9990  -13.4310   20.3380 N   0  0  0  0  0  0  0  0  0  0  0  0
  -31.8090  -14.7690   20.0760 O   0  0  0  0  0  0  0  0  0  0  0  0
  -29.8420  -15.7110   20.7550 N   0  0  0  0  0  0  0  0  0  0  0  0
  -28.8900  -15.4580   20.9730 H   0  0  0  0  0  0  0  0  0  0  0  0
  -25.2270  -13.8660   20.5200 C   0  0  0  0  0  0  0  0  0  0  0  0
  -24.1610  -13.0860   20.8830 C   0  0  0  0  0  0  0  0  0  0  0  0
  -24.6280  -11.7370   20.8420 C   0  0  0  0  0  0  0  0  0  0  0  0
  -26.2750  -12.9910   20.2840 N   0  0  0  0  0  0  0  0  0  0  0  0
  -25.9190  -11.7050   20.5350 N   0  0  0  0  0  0  0  0  0  0  0  0
  -23.9030  -10.4720   21.0230 C   0  0  0  0  0  0  0  0  0  0  0  0
  -24.3230   -9.5120   21.9700 C   0  0  0  0  0  3  0  0  0  0  0  0
  -23.6030   -8.3110   22.1390 C   0  0  0  0  0  3  0  0  0  0  0  0
  -22.4470   -8.0600   21.3610 C   0  0  0  0  0  0  0  0  0  0  0  0
  -22.0460   -9.0090   20.4040 C   0  0  0  0  0  3  0  0  0  0  0  0
  -22.7670  -10.2040   20.2340 C   0  0  0  0  0  3  0  0  0  0  0  0
  -21.6970   -6.9100   21.4400 O   0  0  0  0  0  0  0  0  0  0  0  0
  -21.6160   -6.1830   22.5990 C   0  0  0  0  0  0  0  0  0  0  0  0
  -21.1050   -6.7400   23.7930 C   0  0  0  0  0  3  0  0  0  0  0  0
  -20.9710   -5.9360   24.9430 C   0  0  0  0  0  3  0  0  0  0  0  0
  -21.3370   -4.5770   24.9000 C   0  0  0  0  0  0  0  0  0  0  0  0
  -21.8390   -4.0210   23.7110 C   0  0  0  0  0  3  0  0  0  0  0  0
  -21.9740   -4.8210   22.5630 C   0  0  0  0  0  0  0  0  0  0  0  0
  -22.4380   -4.2740   21.4140 F   0  0  0  0  0  0  0  0  0  0  0  0
  -21.2020   -3.8030   26.0030 F   0  0  0  0  0  0  0  0  0  0  0  0
  -22.7610  -13.5590   21.1510 C   0  0  0  0  0  0  0  0  0  0  0  0
  -22.0260  -12.8500   22.0010 N   0  0  0  0  0  0  0  0  0  0  0  0
  -22.3240  -14.5900   20.6410 O   0  0  0  0  0  0  0  0  0  0  0  0
  -22.3890  -12.0160   22.4400 H   0  0  0  0  0  0  0  0  0  0  0  0
  -21.0860  -13.1470   22.2180 H   0  0  0  0  0  0  0  0  0  0  0  0
  -25.3870  -15.2370   20.3480 N   0  0  0  0  0  0  0  0  0  0  0  0
  -24.6170  -15.8880   20.4580 H   0  0  0  0  0  0  0  0  0  0  0  0
  -26.2200  -15.6730   19.9710 H   0  0  0  0  0  0  0  0  0  0  0  0
  -27.7890  -20.6520   20.3540 O   0  0  0  0  0  0  0  0  0  0  0  0
  -27.4200  -21.5330   20.4090 H   0  0  0  0  0  0  0  0  0  0  0  0
  1  3  1  0
  2  1  2  0
  3  4  2  0
  3  5  1  0
  6  8  1  0
  6  5  1  0
  7 18  2  0
  8 13  1  0
  9 17  1  0
  9 19  1  0
 10 16  1  0
 10 12  1  0
 11 17  1  0
 12 11  1  0
 13 12  2  0
 14  8  2  0
 15 14  1  0
 15 10  2  0
 16  9  1  0
 17  7  1  0
 19 21  2  0
 20 19  1  0
 22 20  1  0
 23 32  2  0
 23 28  1  0
 24 20  1  0
 24 28  1  0
 25 24  1  0
 26 27  1  0
 26 25  1  0
 27 23  1  0
 28 29  2  0
 29 30  1  0
 31 30  2  0
 32 31  1  0
 33  7  1  0
 33 34  1  0
 33 43  1  0
 34 37  1  0
 35 39  1  0
 35 34  1  0
 36 35  2  0
 39 38  1  0
 41 39  1  0
 41 42  1  0
 41 40  1  0
 43 46  1  1
 43 44  1  0
 45 43  1  0
 47 48  1  0
 48  2  1  0
 49  2  1  0
 50 54  1  0
 50 52  2  0
 51 53  2  0
 52 63  1  0
 52 53  1  0
 54 49  1  0
 54 51  1  0
 55 63  1  0
 56 61  1  0
 57 58  1  0
 57 56  1  0
 59 58  1  0
 59 68  1  0
 59 60  1  0
 61 55  1  0
 61 60  1  0
 62 55  2  0
 63 64  1  0
 65 66  2  0
 66 85  1  0
 67 66  1  0
 67 70  1  0
 68 65  1  0
 68 69  1  0
 69 67  2  0
 70 71  1  0
 71 72  2  0
 73 76  1  0
 73 72  1  0
 74 73  2  0
 75 74  1  0
 75 70  2  0
 76 77  1  0
 77 78  1  0
 78 79  2  0
 80 79  1  0
 80 84  1  0
 81 80  2  0
 82 77  2  0
 82 81  1  0
 83 82  1  0
 85 86  1  0
 86 89  1  0
 86 88  1  0
 87 85  2  0
 90 91  1  0
 90 65  1  0
 92 90  1  0
 93 94  1  0
 93 49  1  0
M  ISO  4   5 101   6 101  55 100  63 100
M  END
>  <TORSDO>  (86) 
F 22

>  <SCORE>  (86) 
-13.694

>  <name>  (86) 
85

>  <ligand_id>  (86) 
85

>  <original_smiles>  (86) 
[H]OC([H])(C(OC([H])([H])[H])=C([H])C(=O)C([H])([H])Oc1c([H])c([H])c2c(c1[H])C([H])([H])N(C(=O)C([H])(N([H])C(=O)C([H])(N([H])C([H])([H])[H])C([H])([H])[H])C(C([H])([H])[H])(C([H])([H])[H])C([H])([H])[H])C([H])(C(=O)N([H])C1([H])c3c([H])c([H])c([H])c([H])c3C([H])([H])C([H])([H])C1([H])[H])C2([H])[H])n1c([H])nc(N([H])C(=O)N2C([H])([H])C([H])([H])C([H])([H])C([H])(n3nc(-c4c([H])c([H])c(Oc5c([H])c([H])c(F)c([H])c5F)c([H])c4[H])c(C(=O)N([H])[H])c3N([H])[H])C2([H])[H])c1[H]

>  <smiles>  (86) 
[H]OC([H])(C(OC([H])([H])[H])=C([H])C(=O)C([H])([H])Oc1c([H])c([H])c2c(c1[H])C([H])([H])N(C(=O)C([H])(N([H])C(=O)C([H])(N([H])C([H])([H])[H])C([H])([H])[H])C(C([H])([H])[H])(C([H])([H])[H])C([H])([H])[H])C([H])(C(=O)N([H])C1([H])c3c([H])c([H])c([H])c([H])c3C([H])([H])C([H])([H])C1([H])[H])C2([H])[H])n1c([H])nc(N([H])C(=O)N2C([H])([H])C([H])([H])C([H])([H])C([H])(n3nc(-c4c([H])c([H])c(Oc5c([H])c([H])c(F)c([H])c5F)c([H])c4[H])c(C(=O)N([H])[H])c3N([H])[H])C2([H])[H])c1[H]

$$$$
86:0:0
     RDKit          3D

 95103  0  0  1  0  0  0  0  0999 V2000
  -28.7470  -22.2310   20.0250 C   0  0  0  0  0  0  0  0  0  0  0  0
  -29.3760  -21.1040   20.5660 N   0  0  0  0  0  0  0  0  0  0  0  0
  -27.9970  -22.1050   19.0530 O   0  0  0  0  0  0  0  0  0  0  0  0
  -29.7390  -21.2560   21.5000 H   0  0  0  0  0  0  0  0  0  0  0  0
  -30.6060  -14.8210   20.2670 C   0  0  0  0  0  0  0  0  0  0  0  0
  -30.3930  -12.5270   19.3040 C   0  0  0  0  0  2  0  0  0  0  0  0
  -29.4540  -12.5800   18.0800 C   0  0  0  0  0  2  0  0  0  0  0  0
  -27.9850  -12.4150   18.5100 C   0  0  0  0  0  2  0  0  0  0  0  0
  -27.6150  -13.3170   19.7160 C   0  0  0  0  0  3  0  0  0  0  0  0
  -28.6770  -13.2530   20.8380 C   0  0  0  0  0  2  0  0  0  0  0  0
  -29.9750  -13.5950   20.2430 N   0  0  0  0  0  0  0  0  0  0  0  0
  -31.7810  -14.9010   19.8970 O   0  0  0  0  0  0  0  0  0  0  0  0
  -30.1030  -19.4970   18.7490 C   0  0  0  0  0  0  0  0  0  0  0  0
  -29.6260  -19.7340   20.0300 C   0  0  0  0  0  0  0  0  0  0  0  0
  -29.9730  -17.3530   20.1030 C   0  0  0  0  0  0  0  0  0  0  0  0
  -30.3670  -20.4720   17.6360 C   0  0  0  0  0  1  0  0  0  0  0  0
  -29.5640  -18.4870   20.7730 N   0  0  0  0  0  0  0  0  0  0  0  0
  -29.8670  -15.9550   20.5870 N   0  0  0  0  0  0  0  0  0  0  0  0
  -30.4790  -17.7880   18.4700 S   0  0  0  0  0  0  0  0  0  0  0  0
  -28.9930  -15.7490   21.0450 H   0  0  0  0  0  0  0  0  0  0  0  0
  -25.2350  -13.9270   20.4510 C   0  0  0  0  0  0  0  0  0  0  0  0
  -24.1600  -13.1660   20.8210 C   0  0  0  0  0  0  0  0  0  0  0  0
  -24.6090  -11.8090   20.7940 C   0  0  0  0  0  0  0  0  0  0  0  0
  -26.2690  -13.0380   20.2130 N   0  0  0  0  0  0  0  0  0  0  0  0
  -25.9040  -11.7580   20.4890 N   0  0  0  0  0  0  0  0  0  0  0  0
  -23.8690  -10.5540   20.9860 C   0  0  0  0  0  0  0  0  0  0  0  0
  -24.2870   -9.5880   21.9260 C   0  0  0  0  0  3  0  0  0  0  0  0
  -23.5500   -8.3990   22.1100 C   0  0  0  0  0  3  0  0  0  0  0  0
  -22.3800   -8.1660   21.3520 C   0  0  0  0  0  0  0  0  0  0  0  0
  -21.9780   -9.1190   20.4000 C   0  0  0  0  0  3  0  0  0  0  0  0
  -22.7160  -10.3000   20.2160 C   0  0  0  0  0  3  0  0  0  0  0  0
  -21.6180   -7.0270   21.4450 O   0  0  0  0  0  0  0  0  0  0  0  0
  -21.5570   -6.2910   22.6010 C   0  0  0  0  0  0  0  0  0  0  0  0
  -21.1150   -6.8490   23.8170 C   0  0  0  0  0  3  0  0  0  0  0  0
  -21.0030   -6.0400   24.9650 C   0  0  0  0  0  3  0  0  0  0  0  0
  -21.3230   -4.6720   24.8970 C   0  0  0  0  0  0  0  0  0  0  0  0
  -21.7540   -4.1100   23.6820 C   0  0  0  0  0  3  0  0  0  0  0  0
  -21.8670   -4.9170   22.5360 C   0  0  0  0  0  0  0  0  0  0  0  0
  -22.2650   -4.3650   21.3650 F   0  0  0  0  0  0  0  0  0  0  0  0
  -21.2050   -3.8930   25.9990 F   0  0  0  0  0  0  0  0  0  0  0  0
  -22.7660  -13.6540   21.0870 C   0  0  0  0  0  0  0  0  0  0  0  0
  -22.0320  -12.9660   21.9560 N   0  0  0  0  0  0  0  0  0  0  0  0
  -22.3370  -14.6770   20.5590 O   0  0  0  0  0  0  0  0  0  0  0  0
  -22.3930  -12.1370   22.4040 H   0  0  0  0  0  0  0  0  0  0  0  0
  -21.0930  -13.2720   22.1720 H   0  0  0  0  0  0  0  0  0  0  0  0
  -25.4170  -15.2950   20.2660 N   0  0  0  0  0  0  0  0  0  0  0  0
  -24.6720  -15.9720   20.3830 H   0  0  0  0  0  0  0  0  0  0  0  0
  -26.2660  -15.7110   19.9050 H   0  0  0  0  0  0  0  0  0  0  0  0
  -28.9120  -23.7250   20.6280 C   0  0  0  0  0  3  0  0  0  0  0  0
  -28.6420  -23.7400   22.1550 C   0  0  2  0  0  0  0  0  0  0  0  0
  -28.8830  -24.9520   22.6630 F   0  0  0  0  0  0  0  0  0  0  0  0
  -29.4340  -22.8680   22.7810 F   0  0  0  0  0  0  0  0  0  0  0  0
  -27.3760  -23.4090   22.4190 F   0  0  0  0  0  0  0  0  0  0  0  0
  -28.0620  -24.9260   19.9340 C   0  0  0  0  0  2  0  0  0  0  0  0
  -28.3170  -26.4020   20.1570 O   0  0  0  0  0  0  0  0  0  0  0  0
  -24.6120  -31.8370   23.2030 C   0  0  0  0  0  0  0  0  0  0  0  0
  -27.2320  -27.3060   20.0750 C   0  0  0  0  0  0  0  0  0  0  0  0
  -23.4130  -30.4610   21.5380 C   0  0  0  0  0  3  0  0  0  0  0  0
  -24.8770  -28.9500   20.0740 C   0  0  0  0  0  0  0  0  0  0  0  0
  -25.9530  -30.7860   21.3650 C   0  0  0  0  0  2  0  0  0  0  0  0
  -26.0410  -29.4150   20.6970 C   0  0  0  0  0  0  0  0  0  0  0  0
  -27.2170  -28.6000   20.6990 C   0  0  0  0  0  3  0  0  0  0  0  0
  -26.0570  -26.9350   19.3820 C   0  0  0  0  0  3  0  0  0  0  0  0
  -24.8890  -27.7180   19.4040 C   0  0  0  0  0  3  0  0  0  0  0  0
  -23.6360  -29.8180   20.1420 C   0  0  0  0  0  2  0  0  0  0  0  0
  -24.6770  -31.0440   22.0920 N   0  0  0  0  0  0  0  0  0  0  0  0
  -23.5280  -32.1020   23.7430 O   0  0  0  0  0  0  0  0  0  0  0  0
  -22.7580  -29.4210   22.4790 C   0  0  0  0  0  0  0  0  0  0  0  0
  -21.4380  -29.2200   22.3350 N   0  0  0  0  0  0  0  0  0  0  0  0
  -23.4380  -28.8000   23.3020 O   0  0  0  0  0  0  0  0  0  0  0  0
  -20.9470  -29.7760   21.6510 H   0  0  0  0  0  0  0  0  0  0  0  0
  -18.0840  -27.9360   22.7570 C   0  0  0  0  0  0  0  0  0  0  0  0
  -20.6280  -28.2610   23.0870 C   0  0  0  0  0  3  0  0  0  0  0  0
  -20.7800  -26.8330   22.5160 C   0  0  0  0  0  2  0  0  0  0  0  0
  -19.7110  -26.4820   21.4770 C   0  0  0  0  0  2  0  0  0  0  0  0
  -18.3110  -26.5910   22.0870 C   0  0  0  0  0  2  0  0  0  0  0  0
  -19.1720  -28.7270   23.2140 C   0  0  0  0  0  0  0  0  0  0  0  0
  -18.9050  -29.9850   23.7970 C   0  0  0  0  0  3  0  0  0  0  0  0
  -17.5830  -30.4510   23.9350 C   0  0  0  0  0  3  0  0  0  0  0  0
  -16.5100  -29.6540   23.4970 C   0  0  0  0  0  3  0  0  0  0  0  0
  -16.7600  -28.4010   22.9120 C   0  0  0  0  0  3  0  0  0  0  0  0
  -25.8930  -32.4660   23.8310 C   0  0  0  0  0  3  0  0  0  0  0  0
  -26.4060  -31.6850   25.1040 C   0  0  1  0  0  0  0  0  0  0  0  0
  -25.3100  -31.4400   26.1660 C   0  0  0  0  0  1  0  0  0  0  0  0
  -26.9890  -30.3070   24.7080 C   0  0  0  0  0  1  0  0  0  0  0  0
  -27.5510  -32.4740   25.7780 C   0  0  0  0  0  1  0  0  0  0  0  0
  -25.5850  -33.8650   24.1690 N   0  0  0  0  0  0  0  0  0  0  0  0
  -25.9090  -34.9210   23.4110 C   0  0  0  0  0  0  0  0  0  0  0  0
  -26.5740  -34.8220   22.3760 O   0  0  0  0  0  0  0  0  0  0  0  0
  -25.0000  -34.0160   24.9780 H   0  0  0  0  0  0  0  0  0  0  0  0
  -24.1840  -36.7180   23.0620 C   0  0  0  0  0  1  0  0  0  0  0  0
  -25.4220  -36.3070   23.8740 C   0  0  0  0  0  3  0  0  0  0  0  0
  -27.5520  -37.1920   24.7200 C   0  0  0  0  0  1  0  0  0  0  0  0
  -26.4570  -37.3580   23.7700 N   0  0  0  0  0  0  0  0  0  0  0  0
  -26.0490  -38.2790   23.9140 H   0  0  0  0  0  0  0  0  0  0  0  0
  1  2  1  0
  1 49  1  0
  2  4  1  0
  3  1  2  0
  5 18  1  0
  6 11  1  0
  7  8  1  0
  7  6  1  0
  9  8  1  0
  9 24  1  0
  9 10  1  0
 11  5  1  0
 11 10  1  0
 12  5  2  0
 13 14  2  0
 14  2  1  0
 14 17  1  0
 15 18  1  0
 15 17  2  0
 16 13  1  0
 18 20  1  0
 19 13  1  0
 19 15  1  0
 21 22  2  0
 22 41  1  0
 23 22  1  0
 23 26  1  0
 24 21  1  0
 24 25  1  0
 25 23  2  0
 26 27  1  0
 27 28  2  0
 29 32  1  0
 29 28  1  0
 30 29  2  0
 31 30  1  0
 31 26  2  0
 32 33  1  0
 33 34  1  0
 34 35  2  0
 36 35  1  0
 36 40  1  0
 37 36  2  0
 38 33  2  0
 38 37  1  0
 39 38  1  0
 41 42  1  0
 42 45  1  0
 42 44  1  0
 43 41  2  0
 46 47  1  0
 46 21  1  0
 48 46  1  0
 49 54  1  0
 49 50  1  0
 50 53  1  6
 50 51  1  0
 50 52  1  0
 54 55  1  0
 56 67  2  0
 57 55  1  0
 57 62  1  0
 58 66  1  0
 58 68  1  0
 59 65  1  0
 59 61  1  0
 60 66  1  0
 61 62  2  0
 61 60  1  0
 63 64  1  0
 63 57  2  0
 64 59  2  0
 65 58  1  0
 66 56  1  0
 68 70  2  0
 69 68  1  0
 71 69  1  0
 72 81  2  0
 72 77  1  0
 73 69  1  0
 73 77  1  0
 74 73  1  0
 75 76  1  0
 75 74  1  0
 76 72  1  0
 77 78  2  0
 78 79  1  0
 80 79  2  0
 81 80  1  0
 82 56  1  0
 82 87  1  0
 82 83  1  0
 83 86  1  1
 83 84  1  0
 85 83  1  0
 87 90  1  0
 88 92  1  0
 88 87  1  0
 89 88  2  0
 92 91  1  0
 94 92  1  0
 94 95  1  0
 94 93  1  0
M  ISO  4   5 100  18 100  54 101  55 101
M  END
>  <TORSDO>  (87) 
F 19

>  <SCORE>  (87) 
-14.226

>  <name>  (87) 
86

>  <ligand_id>  (87) 
86

>  <original_smiles>  (87) 
[H]c1c([H])c([H])c2c(c1[H])C([H])([H])C([H])([H])C([H])([H])C2([H])N([H])C(=O)C1([H])N(C(=O)C([H])(N([H])C(=O)C([H])(N([H])C([H])([H])[H])C([H])([H])[H])C(C([H])([H])[H])(C([H])([H])[H])C([H])([H])[H])C([H])([H])c2c([H])c(OC([H])([H])C([H])(C(=O)N([H])c3nc(N([H])C(=O)N4C([H])([H])C([H])([H])C([H])([H])C([H])(n5nc(-c6c([H])c([H])c(Oc7c([H])c([H])c(F)c([H])c7F)c([H])c6[H])c(C(=O)N([H])[H])c5N([H])[H])C4([H])[H])sc3C([H])([H])[H])C(F)(F)F)c([H])c([H])c2C1([H])[H]

>  <smiles>  (87) 
[H]c1c([H])c([H])c2c(c1[H])C([H])([H])C([H])([H])C([H])([H])C2([H])N([H])C(=O)C1([H])N(C(=O)C([H])(N([H])C(=O)C([H])(N([H])C([H])([H])[H])C([H])([H])[H])C(C([H])([H])[H])(C([H])([H])[H])C([H])([H])[H])C([H])([H])c2c([H])c(OC([H])([H])C([H])(C(=O)N([H])c3nc(N([H])C(=O)N4C([H])([H])C([H])([H])C([H])([H])C([H])(n5nc(-c6c([H])c([H])c(Oc7c([H])c([H])c(F)c([H])c7F)c([H])c6[H])c(C(=O)N([H])[H])c5N([H])[H])C4([H])[H])sc3C([H])([H])[H])C(F)(F)F)c([H])c([H])c2C1([H])[H]

$$$$
87:0:0
     RDKit          3D

 95103  0  0  1  0  0  0  0  0999 V2000
  -28.5940  -22.1220   20.1220 C   0  0  0  0  0  3  0  0  0  0  0  0
  -28.3250  -21.8640   18.6150 C   0  0  2  0  0  0  0  0  0  0  0  0
  -27.2940  -22.5970   18.1990 F   0  0  0  0  0  0  0  0  0  0  0  0
  -28.0170  -20.5870   18.3870 F   0  0  0  0  0  0  0  0  0  0  0  0
  -29.3890  -22.1920   17.8830 F   0  0  0  0  0  0  0  0  0  0  0  0
  -28.9480  -23.7050   20.3710 C   0  0  0  0  0  0  0  0  0  0  0  0
  -30.0140  -24.0150   20.9170 O   0  0  0  0  0  0  0  0  0  0  0  0
  -27.9400  -24.8830   19.9380 C   0  0  0  0  0  2  0  0  0  0  0  0
  -28.2460  -26.3340   20.2340 O   0  0  0  0  0  0  0  0  0  0  0  0
  -24.5980  -31.8700   23.2420 C   0  0  0  0  0  0  0  0  0  0  0  0
  -27.1690  -27.2590   20.1640 C   0  0  0  0  0  0  0  0  0  0  0  0
  -23.3840  -30.4790   21.6090 C   0  0  0  0  0  3  0  0  0  0  0  0
  -24.8220  -28.9290   20.1650 C   0  0  0  0  0  0  0  0  0  0  0  0
  -25.9290  -30.7760   21.4160 C   0  0  0  0  0  2  0  0  0  0  0  0
  -26.0010  -29.3950   20.7630 C   0  0  0  0  0  0  0  0  0  0  0  0
  -27.1750  -28.5710   20.7550 C   0  0  0  0  0  3  0  0  0  0  0  0
  -25.9670  -26.8770   19.5210 C   0  0  0  0  0  3  0  0  0  0  0  0
  -24.8120  -27.6810   19.5320 C   0  0  0  0  0  3  0  0  0  0  0  0
  -23.5900  -29.8110   20.2240 C   0  0  0  0  0  2  0  0  0  0  0  0
  -24.6570  -31.0600   22.1450 N   0  0  0  0  0  0  0  0  0  0  0  0
  -23.5170  -32.1500   23.7810 O   0  0  0  0  0  0  0  0  0  0  0  0
  -22.7210  -29.4620   22.5690 C   0  0  0  0  0  0  0  0  0  0  0  0
  -21.3940  -29.2850   22.4480 N   0  0  0  0  0  0  0  0  0  0  0  0
  -23.4000  -28.8350   23.3870 O   0  0  0  0  0  0  0  0  0  0  0  0
  -20.9040  -29.8400   21.7590 H   0  0  0  0  0  0  0  0  0  0  0  0
  -18.0190  -28.0750   22.9520 C   0  0  0  0  0  0  0  0  0  0  0  0
  -20.5770  -28.3460   23.2200 C   0  0  0  0  0  3  0  0  0  0  0  0
  -20.6850  -26.9130   22.6510 C   0  0  0  0  0  2  0  0  0  0  0  0
  -19.5840  -26.5820   21.6370 C   0  0  0  0  0  2  0  0  0  0  0  0
  -18.2020  -26.7240   22.2800 C   0  0  0  0  0  2  0  0  0  0  0  0
  -19.1360  -28.8430   23.3790 C   0  0  0  0  0  0  0  0  0  0  0  0
  -18.9110  -30.1060   23.9680 C   0  0  0  0  0  3  0  0  0  0  0  0
  -17.6050  -30.6030   24.1330 C   0  0  0  0  0  3  0  0  0  0  0  0
  -16.5030  -29.8320   23.7210 C   0  0  0  0  0  3  0  0  0  0  0  0
  -16.7120  -28.5700   23.1380 C   0  0  0  0  0  3  0  0  0  0  0  0
  -25.8840  -32.5020   23.8590 C   0  0  0  0  0  3  0  0  0  0  0  0
  -26.4020  -31.7310   25.1340 C   0  0  1  0  0  0  0  0  0  0  0  0
  -25.3130  -31.4960   26.2070 C   0  0  0  0  0  1  0  0  0  0  0  0
  -26.9790  -30.3500   24.7420 C   0  0  0  0  0  1  0  0  0  0  0  0
  -27.5590  -32.5210   25.7890 C   0  0  0  0  0  1  0  0  0  0  0  0
  -25.5760  -33.9010   24.1920 N   0  0  0  0  0  0  0  0  0  0  0  0
  -25.9020  -34.9550   23.4320 C   0  0  0  0  0  0  0  0  0  0  0  0
  -26.5620  -34.8520   22.3950 O   0  0  0  0  0  0  0  0  0  0  0  0
  -24.9900  -34.0540   24.9990 H   0  0  0  0  0  0  0  0  0  0  0  0
  -24.1720  -36.7500   23.0990 C   0  0  0  0  0  1  0  0  0  0  0  0
  -25.4210  -36.3440   23.8960 C   0  0  0  0  0  3  0  0  0  0  0  0
  -27.5660  -37.2260   24.7040 C   0  0  0  0  0  1  0  0  0  0  0  0
  -26.4540  -37.3960   23.7730 N   0  0  0  0  0  0  0  0  0  0  0  0
  -26.0500  -38.3170   23.9270 H   0  0  0  0  0  0  0  0  0  0  0  0
  -29.5350  -21.0930   20.7420 N   0  0  0  0  0  0  0  0  0  0  0  0
  -30.3640  -21.6270   20.9820 H   0  0  0  0  0  0  0  0  0  0  0  0
  -30.5760  -14.7840   20.3620 C   0  0  0  0  0  0  0  0  0  0  0  0
  -30.3710  -12.4930   19.3830 C   0  0  0  0  0  2  0  0  0  0  0  0
  -29.4490  -12.5570   18.1450 C   0  0  0  0  0  2  0  0  0  0  0  0
  -27.9760  -12.3860   18.5610 C   0  0  0  0  0  2  0  0  0  0  0  0
  -27.5890  -13.2860   19.7670 C   0  0  0  0  0  3  0  0  0  0  0  0
  -28.6360  -13.2160   20.9010 C   0  0  0  0  0  2  0  0  0  0  0  0
  -29.9400  -13.5600   20.3190 N   0  0  0  0  0  0  0  0  0  0  0  0
  -31.7630  -14.8470   20.0260 O   0  0  0  0  0  0  0  0  0  0  0  0
  -31.0370  -19.5600   19.4730 C   0  0  0  0  0  0  0  0  0  0  0  0
  -29.9460  -19.7590   20.2920 C   0  0  0  0  0  0  0  0  0  0  0  0
  -30.1310  -17.3590   20.3040 C   0  0  0  0  0  0  0  0  0  0  0  0
  -31.8970  -20.5970   18.8200 C   0  0  0  0  0  1  0  0  0  0  0  0
  -29.4320  -18.4730   20.7310 N   0  0  0  0  0  0  0  0  0  0  0  0
  -29.8340  -15.9350   20.6240 N   0  0  0  0  0  0  0  0  0  0  0  0
  -31.4400  -17.8610   19.2360 S   0  0  0  0  0  0  0  0  0  0  0  0
  -28.9130  -15.7660   20.9980 H   0  0  0  0  0  0  0  0  0  0  0  0
  -25.1940  -13.8800   20.4630 C   0  0  0  0  0  0  0  0  0  0  0  0
  -24.1260  -13.1100   20.8310 C   0  0  0  0  0  0  0  0  0  0  0  0
  -24.5900  -11.7590   20.8210 C   0  0  0  0  0  0  0  0  0  0  0  0
  -26.2420  -13.0000   20.2470 N   0  0  0  0  0  0  0  0  0  0  0  0
  -25.8840  -11.7180   20.5260 N   0  0  0  0  0  0  0  0  0  0  0  0
  -23.8620  -10.4980   21.0170 C   0  0  0  0  0  0  0  0  0  0  0  0
  -24.2910   -9.5350   21.9560 C   0  0  0  0  0  3  0  0  0  0  0  0
  -23.5610   -8.3410   22.1410 C   0  0  0  0  0  3  0  0  0  0  0  0
  -22.3880   -8.1000   21.3850 C   0  0  0  0  0  0  0  0  0  0  0  0
  -21.9790   -9.0530   20.4350 C   0  0  0  0  0  3  0  0  0  0  0  0
  -22.7090  -10.2380   20.2500 C   0  0  0  0  0  3  0  0  0  0  0  0
  -21.6320   -6.9580   21.4780 O   0  0  0  0  0  0  0  0  0  0  0  0
  -21.5880   -6.2150   22.6300 C   0  0  0  0  0  0  0  0  0  0  0  0
  -21.1770   -6.7720   23.8610 C   0  0  0  0  0  3  0  0  0  0  0  0
  -21.0790   -5.9560   25.0060 C   0  0  0  0  0  3  0  0  0  0  0  0
  -21.3840   -4.5850   24.9220 C   0  0  0  0  0  0  0  0  0  0  0  0
  -21.7870   -4.0270   23.6960 C   0  0  0  0  0  3  0  0  0  0  0  0
  -21.8850   -4.8400   22.5530 C   0  0  0  0  0  0  0  0  0  0  0  0
  -22.2550   -4.2930   21.3690 F   0  0  0  0  0  0  0  0  0  0  0  0
  -21.2830   -3.7990   26.0190 F   0  0  0  0  0  0  0  0  0  0  0  0
  -22.7250  -13.5890   21.0810 C   0  0  0  0  0  0  0  0  0  0  0  0
  -21.9880  -12.9050   21.9480 N   0  0  0  0  0  0  0  0  0  0  0  0
  -22.2930  -14.6080   20.5420 O   0  0  0  0  0  0  0  0  0  0  0  0
  -22.3500  -12.0820   22.4070 H   0  0  0  0  0  0  0  0  0  0  0  0
  -21.0490  -13.2100   22.1570 H   0  0  0  0  0  0  0  0  0  0  0  0
  -25.3590  -15.2490   20.2700 N   0  0  0  0  0  0  0  0  0  0  0  0
  -24.5860  -15.9010   20.3580 H   0  0  0  0  0  0  0  0  0  0  0  0
  -26.2030  -15.6860   19.9220 H   0  0  0  0  0  0  0  0  0  0  0  0
  1  6  1  0
  1 50  1  0
  2  1  1  0
  2  3  1  6
  4  2  1  0
  5  2  1  0
  6  7  2  0
  8  9  1  0
  8  6  1  0
 10 21  2  0
 11  9  1  0
 11 16  1  0
 12 20  1  0
 12 22  1  0
 13 19  1  0
 13 15  1  0
 14 20  1  0
 15 14  1  0
 16 15  2  0
 17 18  1  0
 17 11  2  0
 18 13  2  0
 19 12  1  0
 20 10  1  0
 22 24  2  0
 23 22  1  0
 25 23  1  0
 26 35  2  0
 26 31  1  0
 27 23  1  0
 27 31  1  0
 28 27  1  0
 29 30  1  0
 29 28  1  0
 30 26  1  0
 31 32  2  0
 32 33  1  0
 34 33  2  0
 35 34  1  0
 36 10  1  0
 36 41  1  0
 36 37  1  0
 37 40  1  1
 37 38  1  0
 39 37  1  0
 41 44  1  0
 42 46  1  0
 42 41  1  0
 43 42  2  0
 46 45  1  0
 48 46  1  0
 48 49  1  0
 48 47  1  0
 50 51  1  0
 52 65  1  0
 53 58  1  0
 54 55  1  0
 54 53  1  0
 56 55  1  0
 56 71  1  0
 56 57  1  0
 58 52  1  0
 58 57  1  0
 59 52  2  0
 60 61  2  0
 61 64  1  0
 61 50  1  0
 62 65  1  0
 62 64  2  0
 63 60  1  0
 65 67  1  0
 66 60  1  0
 66 62  1  0
 68 69  2  0
 69 88  1  0
 70 69  1  0
 70 73  1  0
 71 68  1  0
 71 72  1  0
 72 70  2  0
 73 74  1  0
 74 75  2  0
 76 79  1  0
 76 75  1  0
 77 76  2  0
 78 77  1  0
 78 73  2  0
 79 80  1  0
 80 81  1  0
 81 82  2  0
 83 82  1  0
 83 87  1  0
 84 83  2  0
 85 80  2  0
 85 84  1  0
 86 85  1  0
 88 89  1  0
 89 92  1  0
 89 91  1  0
 90 88  2  0
 93 94  1  0
 93 68  1  0
 95 93  1  0
M  ISO  4   8 101   9 101  52 100  65 100
M  END
>  <TORSDO>  (88) 
F 20

>  <SCORE>  (88) 
-14.011

>  <name>  (88) 
87

>  <ligand_id>  (88) 
87

>  <original_smiles>  (88) 
[H]c1c([H])c([H])c2c(c1[H])C([H])([H])C([H])([H])C([H])([H])C2([H])N([H])C(=O)C1([H])N(C(=O)C([H])(N([H])C(=O)C([H])(N([H])C([H])([H])[H])C([H])([H])[H])C(C([H])([H])[H])(C([H])([H])[H])C([H])([H])[H])C([H])([H])c2c([H])c(OC([H])([H])C(=O)C([H])(N([H])c3nc(N([H])C(=O)N4C([H])([H])C([H])([H])C([H])([H])C([H])(n5nc(-c6c([H])c([H])c(Oc7c([H])c([H])c(F)c([H])c7F)c([H])c6[H])c(C(=O)N([H])[H])c5N([H])[H])C4([H])[H])sc3C([H])([H])[H])C(F)(F)F)c([H])c([H])c2C1([H])[H]

>  <smiles>  (88) 
[H]c1c([H])c([H])c2c(c1[H])C([H])([H])C([H])([H])C([H])([H])C2([H])N([H])C(=O)C1([H])N(C(=O)C([H])(N([H])C(=O)C([H])(N([H])C([H])([H])[H])C([H])([H])[H])C(C([H])([H])[H])(C([H])([H])[H])C([H])([H])[H])C([H])([H])c2c([H])c(OC([H])([H])C(=O)C([H])(N([H])c3nc(N([H])C(=O)N4C([H])([H])C([H])([H])C([H])([H])C([H])(n5nc(-c6c([H])c([H])c(Oc7c([H])c([H])c(F)c([H])c7F)c([H])c6[H])c(C(=O)N([H])[H])c5N([H])[H])C4([H])[H])sc3C([H])([H])[H])C(F)(F)F)c([H])c([H])c2C1([H])[H]

$$$$
88:0:0
     RDKit          3D

 96104  0  0  1  0  0  0  0  0999 V2000
  -30.2290  -21.9450   20.6680 C   0  0  0  0  0  3  0  0  0  0  0  0
  -30.1990  -17.1430   19.3280 C   0  0  0  0  0  0  0  0  0  0  0  0
  -30.1190  -16.9460   20.6930 C   0  0  0  0  0  0  0  0  0  0  0  0
  -30.0390  -19.2460   20.6450 C   0  0  0  0  0  0  0  0  0  0  0  0
  -30.2540  -16.1460   18.2160 C   0  0  0  0  0  1  0  0  0  0  0  0
  -29.9840  -18.1490   21.4220 N   0  0  0  0  0  0  0  0  0  0  0  0
  -29.9810  -20.5590   21.1430 N   0  0  0  0  0  0  0  0  0  0  0  0
  -30.1930  -18.8430   18.9360 S   0  0  0  0  0  0  0  0  0  0  0  0
  -29.8760  -20.5360   22.1500 H   0  0  0  0  0  0  0  0  0  0  0  0
  -30.8220  -14.5850   20.9910 C   0  0  0  0  0  0  0  0  0  0  0  0
  -30.6700  -12.3340   20.0030 C   0  0  0  0  0  2  0  0  0  0  0  0
  -29.8390  -12.4180   18.7050 C   0  0  0  0  0  2  0  0  0  0  0  0
  -28.3290  -12.3160   19.0010 C   0  0  0  0  0  2  0  0  0  0  0  0
  -27.8700  -13.2230   20.1760 C   0  0  0  0  0  3  0  0  0  0  0  0
  -28.8240  -13.0940   21.3860 C   0  0  0  0  0  2  0  0  0  0  0  0
  -30.1890  -13.3810   20.9200 N   0  0  0  0  0  0  0  0  0  0  0  0
  -32.0000  -14.7360   20.6570 O   0  0  0  0  0  0  0  0  0  0  0  0
  -30.0400  -15.6470   21.2930 N   0  0  0  0  0  0  0  0  0  0  0  0
  -29.1710  -15.4340   21.7580 H   0  0  0  0  0  0  0  0  0  0  0  0
  -25.4190  -13.8330   20.6760 C   0  0  0  0  0  0  0  0  0  0  0  0
  -24.3270  -13.0640   20.9740 C   0  0  0  0  0  0  0  0  0  0  0  0
  -24.7920  -11.7140   21.0070 C   0  0  0  0  0  0  0  0  0  0  0  0
  -26.4820  -12.9520   20.5490 N   0  0  0  0  0  0  0  0  0  0  0  0
  -26.1030  -11.6740   20.8080 N   0  0  0  0  0  0  0  0  0  0  0  0
  -24.0530  -10.4540   21.1630 C   0  0  0  0  0  0  0  0  0  0  0  0
  -24.4260   -9.4960   22.1320 C   0  0  0  0  0  3  0  0  0  0  0  0
  -23.6920   -8.2990   22.2760 C   0  0  0  0  0  3  0  0  0  0  0  0
  -22.5690   -8.0530   21.4500 C   0  0  0  0  0  0  0  0  0  0  0  0
  -22.2150   -8.9990   20.4720 C   0  0  0  0  0  3  0  0  0  0  0  0
  -22.9500  -10.1860   20.3260 C   0  0  0  0  0  3  0  0  0  0  0  0
  -21.8100   -6.9080   21.5000 O   0  0  0  0  0  0  0  0  0  0  0  0
  -21.6970   -6.1700   22.6510 C   0  0  0  0  0  0  0  0  0  0  0  0
  -21.1910   -6.7260   23.8450 C   0  0  0  0  0  3  0  0  0  0  0  0
  -21.0300   -5.9140   24.9870 C   0  0  0  0  0  3  0  0  0  0  0  0
  -21.3610   -4.5460   24.9310 C   0  0  0  0  0  0  0  0  0  0  0  0
  -21.8600   -3.9910   23.7400 C   0  0  0  0  0  3  0  0  0  0  0  0
  -22.0250   -4.8000   22.6020 C   0  0  0  0  0  0  0  0  0  0  0  0
  -22.4860   -4.2550   21.4510 F   0  0  0  0  0  0  0  0  0  0  0  0
  -21.1990   -3.7630   26.0230 F   0  0  0  0  0  0  0  0  0  0  0  0
  -22.9120  -13.5410   21.1240 C   0  0  0  0  0  0  0  0  0  0  0  0
  -22.1220  -12.8670   21.9530 N   0  0  0  0  0  0  0  0  0  0  0  0
  -22.5120  -14.5510   20.5440 O   0  0  0  0  0  0  0  0  0  0  0  0
  -22.4560  -12.0510   22.4440 H   0  0  0  0  0  0  0  0  0  0  0  0
  -21.1700  -13.1710   22.1010 H   0  0  0  0  0  0  0  0  0  0  0  0
  -25.5910  -15.2000   20.4810 N   0  0  0  0  0  0  0  0  0  0  0  0
  -24.8050  -15.8430   20.5130 H   0  0  0  0  0  0  0  0  0  0  0  0
  -26.4490  -15.6430   20.1820 H   0  0  0  0  0  0  0  0  0  0  0  0
  -30.6880  -22.0380   19.1980 C   0  0  0  0  0  0  0  0  0  0  0  0
  -29.8990  -22.2160   18.2670 O   0  0  0  0  0  0  0  0  0  0  0  0
  -32.5350  -21.8080   17.4310 C   0  0  0  0  0  1  0  0  0  0  0  0
  -32.1830  -21.8570   18.9280 C   0  0  0  0  0  2  0  0  0  0  0  0
  -29.0230  -22.9070   20.9160 C   0  0  0  0  0  2  0  0  0  0  0  0
  -29.2990  -24.4160   20.6750 C   0  0  0  0  0  0  0  0  0  0  0  0
  -30.3980  -24.9150   20.9400 O   0  0  0  0  0  0  0  0  0  0  0  0
  -28.1410  -25.2590   20.1030 C   0  0  0  0  0  2  0  0  0  0  0  0
  -28.3730  -26.6880   20.1570 O   0  0  0  0  0  0  0  0  0  0  0  0
  -24.6110  -31.8930   23.2550 C   0  0  0  0  0  0  0  0  0  0  0  0
  -27.2250  -27.4640   20.1140 C   0  0  0  0  0  0  0  0  0  0  0  0
  -23.3940  -30.5080   21.6090 C   0  0  0  0  0  3  0  0  0  0  0  0
  -24.8370  -28.9960   20.1480 C   0  0  0  0  0  0  0  0  0  0  0  0
  -25.9200  -30.8690   21.3950 C   0  0  0  0  0  2  0  0  0  0  0  0
  -26.0020  -29.5060   20.7350 C   0  0  0  0  0  0  0  0  0  0  0  0
  -27.2010  -28.7490   20.7120 C   0  0  0  0  0  3  0  0  0  0  0  0
  -26.0420  -26.9890   19.5000 C   0  0  0  0  0  3  0  0  0  0  0  0
  -24.8550  -27.7410   19.5190 C   0  0  0  0  0  3  0  0  0  0  0  0
  -23.5910  -29.8500   20.2180 C   0  0  0  0  0  2  0  0  0  0  0  0
  -24.6620  -31.1040   22.1440 N   0  0  0  0  0  0  0  0  0  0  0  0
  -23.5330  -32.1560   23.8060 O   0  0  0  0  0  0  0  0  0  0  0  0
  -22.7530  -29.4730   22.5610 C   0  0  0  0  0  0  0  0  0  0  0  0
  -21.4290  -29.2840   22.4380 N   0  0  0  0  0  0  0  0  0  0  0  0
  -23.4430  -28.8440   23.3670 O   0  0  0  0  0  0  0  0  0  0  0  0
  -20.9330  -29.8430   21.7560 H   0  0  0  0  0  0  0  0  0  0  0  0
  -18.0630  -28.0690   22.9390 C   0  0  0  0  0  0  0  0  0  0  0  0
  -20.6210  -28.3360   23.2030 C   0  0  0  0  0  3  0  0  0  0  0  0
  -20.7280  -26.9110   22.6110 C   0  0  0  0  0  2  0  0  0  0  0  0
  -19.6230  -26.5930   21.5990 C   0  0  0  0  0  2  0  0  0  0  0  0
  -18.2440  -26.7270   22.2490 C   0  0  0  0  0  2  0  0  0  0  0  0
  -19.1810  -28.8310   23.3720 C   0  0  0  0  0  0  0  0  0  0  0  0
  -18.9580  -30.0890   23.9760 C   0  0  0  0  0  3  0  0  0  0  0  0
  -17.6520  -30.5830   24.1500 C   0  0  0  0  0  3  0  0  0  0  0  0
  -16.5490  -29.8160   23.7340 C   0  0  0  0  0  3  0  0  0  0  0  0
  -16.7560  -28.5620   23.1350 C   0  0  0  0  0  3  0  0  0  0  0  0
  -25.9000  -32.5200   23.8710 C   0  0  0  0  0  3  0  0  0  0  0  0
  -25.5940  -33.9160   24.2080 N   0  0  0  0  0  0  0  0  0  0  0  0
  -25.9120  -34.9690   23.4450 C   0  0  0  0  0  0  0  0  0  0  0  0
  -26.5670  -34.8700   22.4050 O   0  0  0  0  0  0  0  0  0  0  0  0
  -25.0100  -34.0680   25.0190 H   0  0  0  0  0  0  0  0  0  0  0  0
  -24.1710  -36.7560   23.1220 C   0  0  0  0  0  1  0  0  0  0  0  0
  -25.4280  -36.3560   23.9120 C   0  0  0  0  0  3  0  0  0  0  0  0
  -27.5710  -37.2490   24.7110 C   0  0  0  0  0  1  0  0  0  0  0  0
  -26.4550  -37.4130   23.7830 N   0  0  0  0  0  0  0  0  0  0  0  0
  -26.0480  -38.3310   23.9360 H   0  0  0  0  0  0  0  0  0  0  0  0
  -26.4240  -31.7420   25.1400 C   0  0  1  0  0  0  0  0  0  0  0  0
  -25.3360  -31.4980   26.2120 C   0  0  0  0  0  1  0  0  0  0  0  0
  -27.0030  -30.3670   24.7350 C   0  0  0  0  0  1  0  0  0  0  0  0
  -27.5790  -32.5310   25.7980 C   0  0  0  0  0  1  0  0  0  0  0  0
  1 52  1  0
  1  7  1  0
  2  3  2  0
  3 18  1  0
  3  6  1  0
  4  7  1  0
  4  6  2  0
  5  2  1  0
  7  9  1  0
  8  2  1  0
  8  4  1  0
 10 18  1  0
 11 16  1  0
 12 13  1  0
 12 11  1  0
 14 13  1  0
 14 23  1  0
 14 15  1  0
 16 10  1  0
 16 15  1  0
 17 10  2  0
 18 19  1  0
 20 21  2  0
 21 22  1  0
 21 40  1  0
 22 25  1  0
 23 20  1  0
 23 24  1  0
 24 22  2  0
 25 26  1  0
 26 27  2  0
 28 31  1  0
 28 27  1  0
 29 28  2  0
 30 29  1  0
 30 25  2  0
 31 32  1  0
 32 33  1  0
 33 34  2  0
 35 34  1  0
 35 39  1  0
 36 35  2  0
 37 32  2  0
 37 36  1  0
 38 37  1  0
 40 41  1  0
 41 44  1  0
 41 43  1  0
 42 40  2  0
 45 46  1  0
 45 20  1  0
 47 45  1  0
 48  1  1  0
 49 48  2  0
 50 51  1  0
 51 48  1  0
 53 52  1  0
 53 54  2  0
 55 56  1  0
 55 53  1  0
 57 68  2  0
 58 56  1  0
 58 63  1  0
 59 67  1  0
 59 69  1  0
 60 66  1  0
 60 62  1  0
 61 67  1  0
 62 61  1  0
 63 62  2  0
 64 65  1  0
 64 58  2  0
 65 60  2  0
 66 59  1  0
 67 57  1  0
 69 71  2  0
 70 69  1  0
 72 70  1  0
 73 82  2  0
 73 78  1  0
 74 70  1  0
 74 78  1  0
 75 74  1  0
 76 77  1  0
 76 75  1  0
 77 73  1  0
 78 79  2  0
 79 80  1  0
 81 80  2  0
 82 81  1  0
 83 57  1  0
 83 84  1  0
 83 93  1  0
 84 87  1  0
 85 89  1  0
 85 84  1  0
 86 85  2  0
 89 88  1  0
 91 89  1  0
 91 92  1  0
 91 90  1  0
 93 96  1  1
 93 94  1  0
 95 93  1  0
M  ISO  4  10 100  18 100  55 101  56 101
M  END
>  <TORSDO>  (89) 
F 22

>  <SCORE>  (89) 
-12.587

>  <name>  (89) 
88

>  <ligand_id>  (89) 
88

>  <original_smiles>  (89) 
[H]c1c([H])c([H])c2c(c1[H])C([H])([H])C([H])([H])C([H])([H])C2([H])N([H])C(=O)C1([H])N(C(=O)C([H])(N([H])C(=O)C([H])(N([H])C([H])([H])[H])C([H])([H])[H])C(C([H])([H])[H])(C([H])([H])[H])C([H])([H])[H])C([H])([H])c2c([H])c(OC([H])([H])C(=O)C([H])([H])C([H])(C(=O)C([H])([H])C([H])([H])[H])N([H])c3nc(N([H])C(=O)N4C([H])([H])C([H])([H])C([H])([H])C([H])(n5nc(-c6c([H])c([H])c(Oc7c([H])c([H])c(F)c([H])c7F)c([H])c6[H])c(C(=O)N([H])[H])c5N([H])[H])C4([H])[H])c(C([H])([H])[H])s3)c([H])c([H])c2C1([H])[H]

>  <smiles>  (89) 
[H]c1c([H])c([H])c2c(c1[H])C([H])([H])C([H])([H])C([H])([H])C2([H])N([H])C(=O)C1([H])N(C(=O)C([H])(N([H])C(=O)C([H])(N([H])C([H])([H])[H])C([H])([H])[H])C(C([H])([H])[H])(C([H])([H])[H])C([H])([H])[H])C([H])([H])c2c([H])c(OC([H])([H])C(=O)C([H])([H])C([H])(C(=O)C([H])([H])C([H])([H])[H])N([H])c3nc(N([H])C(=O)N4C([H])([H])C([H])([H])C([H])([H])C([H])(n5nc(-c6c([H])c([H])c(Oc7c([H])c([H])c(F)c([H])c7F)c([H])c6[H])c(C(=O)N([H])[H])c5N([H])[H])C4([H])[H])c(C([H])([H])[H])s3)c([H])c([H])c2C1([H])[H]

$$$$
89:0:0
     RDKit          3D

 95103  0  0  1  0  0  0  0  0999 V2000
  -29.6760  -21.4010   18.2500 C   0  0  0  0  0  1  0  0  0  0  0  0
  -28.9270  -21.2500   19.5880 C   0  0  0  0  0  3  0  0  0  0  0  0
  -30.5450  -14.7760   20.4950 C   0  0  0  0  0  0  0  0  0  0  0  0
  -30.4200  -12.4920   19.4790 C   0  0  0  0  0  2  0  0  0  0  0  0
  -29.5030  -12.5550   18.2370 C   0  0  0  0  0  2  0  0  0  0  0  0
  -28.0230  -12.3790   18.6320 C   0  0  0  0  0  2  0  0  0  0  0  0
  -27.6190  -13.2690   19.8380 C   0  0  0  0  0  3  0  0  0  0  0  0
  -28.6500  -13.1650   20.9830 C   0  0  0  0  0  2  0  0  0  0  0  0
  -29.9610  -13.5300   20.4270 N   0  0  0  0  0  0  0  0  0  0  0  0
  -31.7350  -14.9200   20.1930 O   0  0  0  0  0  0  0  0  0  0  0  0
  -29.3910  -19.8700   20.2250 C   0  0  0  0  0  0  0  0  0  0  0  0
  -30.5330  -19.4890   20.9200 C   0  0  0  0  0  0  0  0  0  0  0  0
  -29.7770  -17.3070   20.5620 C   0  0  0  0  0  0  0  0  0  0  0  0
  -30.7290  -18.0890   21.1050 N   0  0  0  0  0  0  0  0  0  0  0  0
  -29.6780  -15.8370   20.6940 N   0  0  0  0  0  0  0  0  0  0  0  0
  -28.5180  -18.3580   19.8310 S   0  0  0  0  0  0  0  0  0  0  0  0
  -28.7310  -15.5160   20.8100 H   0  0  0  0  0  0  0  0  0  0  0  0
  -25.2110  -13.8720   20.4940 C   0  0  0  0  0  0  0  0  0  0  0  0
  -24.1370  -13.1010   20.8490 C   0  0  0  0  0  0  0  0  0  0  0  0
  -24.6030  -11.7500   20.8460 C   0  0  0  0  0  0  0  0  0  0  0  0
  -26.2620  -12.9890   20.2940 N   0  0  0  0  0  0  0  0  0  0  0  0
  -25.9000  -11.7100   20.5700 N   0  0  0  0  0  0  0  0  0  0  0  0
  -23.8740  -10.4900   21.0320 C   0  0  0  0  0  0  0  0  0  0  0  0
  -24.2900   -9.5290   21.9810 C   0  0  0  0  0  3  0  0  0  0  0  0
  -23.5610   -8.3330   22.1550 C   0  0  0  0  0  3  0  0  0  0  0  0
  -22.4030   -8.0890   21.3800 C   0  0  0  0  0  0  0  0  0  0  0  0
  -22.0070   -9.0370   20.4200 C   0  0  0  0  0  3  0  0  0  0  0  0
  -22.7360  -10.2250   20.2450 C   0  0  0  0  0  3  0  0  0  0  0  0
  -21.6480   -6.9440   21.4610 O   0  0  0  0  0  0  0  0  0  0  0  0
  -21.5830   -6.2060   22.6160 C   0  0  0  0  0  0  0  0  0  0  0  0
  -21.1410   -6.7640   23.8340 C   0  0  0  0  0  3  0  0  0  0  0  0
  -21.0250   -5.9520   24.9800 C   0  0  0  0  0  3  0  0  0  0  0  0
  -21.3390   -4.5830   24.9080 C   0  0  0  0  0  0  0  0  0  0  0  0
  -21.7750   -4.0230   23.6940 C   0  0  0  0  0  3  0  0  0  0  0  0
  -21.8930   -4.8320   22.5500 C   0  0  0  0  0  0  0  0  0  0  0  0
  -22.2930   -4.2830   21.3780 F   0  0  0  0  0  0  0  0  0  0  0  0
  -21.2190   -3.8000   26.0060 F   0  0  0  0  0  0  0  0  0  0  0  0
  -22.7340  -13.5800   21.0780 C   0  0  0  0  0  0  0  0  0  0  0  0
  -21.9830  -12.8910   21.9300 N   0  0  0  0  0  0  0  0  0  0  0  0
  -22.3100  -14.5990   20.5360 O   0  0  0  0  0  0  0  0  0  0  0  0
  -22.3380  -12.0660   22.3900 H   0  0  0  0  0  0  0  0  0  0  0  0
  -21.0390  -13.1940   22.1260 H   0  0  0  0  0  0  0  0  0  0  0  0
  -25.3770  -15.2400   20.3000 N   0  0  0  0  0  0  0  0  0  0  0  0
  -24.5940  -15.8820   20.3650 H   0  0  0  0  0  0  0  0  0  0  0  0
  -26.2030  -15.6710   19.9080 H   0  0  0  0  0  0  0  0  0  0  0  0
  -31.5080  -20.3600   21.4030 N   0  0  0  0  0  0  0  0  0  0  0  0
  -31.5470  -21.3130   21.0620 H   0  0  0  0  0  0  0  0  0  0  0  0
  -32.3960  -19.9900   21.7230 H   0  0  0  0  0  0  0  0  0  0  0  0
  -28.3600  -23.8000   19.9280 C   0  0  0  0  0  0  0  0  0  0  0  0
  -28.9270  -22.5920   20.3310 N   0  0  0  0  0  0  0  0  0  0  0  0
  -27.7720  -23.8810   18.8470 O   0  0  0  0  0  0  0  0  0  0  0  0
  -29.3700  -22.5960   21.2400 H   0  0  0  0  0  0  0  0  0  0  0  0
  -27.3730  -25.0230   21.9750 C   0  0  0  0  0  1  0  0  0  0  0  0
  -28.4010  -25.1220   20.8320 C   0  0  0  0  0  3  0  0  0  0  0  0
  -28.3780  -26.4650   20.1460 O   0  0  0  0  0  0  0  0  0  0  0  0
  -24.6350  -31.8740   23.2210 C   0  0  0  0  0  0  0  0  0  0  0  0
  -27.2500  -27.3090   20.1590 C   0  0  0  0  0  0  0  0  0  0  0  0
  -23.4310  -30.4730   21.5840 C   0  0  0  0  0  3  0  0  0  0  0  0
  -24.8800  -28.9230   20.1500 C   0  0  0  0  0  0  0  0  0  0  0  0
  -25.9680  -30.8000   21.3860 C   0  0  0  0  0  2  0  0  0  0  0  0
  -26.0510  -29.4180   20.7410 C   0  0  0  0  0  0  0  0  0  0  0  0
  -27.2400  -28.6250   20.7280 C   0  0  0  0  0  3  0  0  0  0  0  0
  -26.0600  -26.8710   19.5420 C   0  0  0  0  0  3  0  0  0  0  0  0
  -24.8880  -27.6570   19.5400 C   0  0  0  0  0  3  0  0  0  0  0  0
  -23.6420  -29.7970   20.2030 C   0  0  0  0  0  2  0  0  0  0  0  0
  -24.6970  -31.0680   22.1200 N   0  0  0  0  0  0  0  0  0  0  0  0
  -23.5530  -32.1460   23.7630 O   0  0  0  0  0  0  0  0  0  0  0  0
  -22.7760  -29.4550   22.5480 C   0  0  0  0  0  0  0  0  0  0  0  0
  -21.4500  -29.2750   22.4320 N   0  0  0  0  0  0  0  0  0  0  0  0
  -23.4610  -28.8270   23.3600 O   0  0  0  0  0  0  0  0  0  0  0  0
  -20.9550  -29.8350   21.7510 H   0  0  0  0  0  0  0  0  0  0  0  0
  -18.0800  -28.0590   22.9450 C   0  0  0  0  0  0  0  0  0  0  0  0
  -20.6380  -28.3330   23.2040 C   0  0  0  0  0  3  0  0  0  0  0  0
  -20.7450  -26.9010   22.6270 C   0  0  0  0  0  2  0  0  0  0  0  0
  -19.6420  -26.5750   21.6170 C   0  0  0  0  0  2  0  0  0  0  0  0
  -18.2620  -26.7120   22.2670 C   0  0  0  0  0  2  0  0  0  0  0  0
  -19.1960  -28.8270   23.3710 C   0  0  0  0  0  0  0  0  0  0  0  0
  -18.9730  -30.0880   23.9640 C   0  0  0  0  0  3  0  0  0  0  0  0
  -17.6660  -30.5820   24.1380 C   0  0  0  0  0  3  0  0  0  0  0  0
  -16.5640  -29.8110   23.7280 C   0  0  0  0  0  3  0  0  0  0  0  0
  -16.7710  -28.5520   23.1360 C   0  0  0  0  0  3  0  0  0  0  0  0
  -25.9180  -32.5130   23.8390 C   0  0  0  0  0  3  0  0  0  0  0  0
  -26.4390  -31.7460   25.1170 C   0  0  1  0  0  0  0  0  0  0  0  0
  -25.3510  -31.5110   26.1900 C   0  0  0  0  0  1  0  0  0  0  0  0
  -27.0220  -30.3690   24.7270 C   0  0  0  0  0  1  0  0  0  0  0  0
  -27.5910  -32.5430   25.7730 C   0  0  0  0  0  1  0  0  0  0  0  0
  -25.6060  -33.9110   24.1690 N   0  0  0  0  0  0  0  0  0  0  0  0
  -25.9350  -34.9660   23.4090 C   0  0  0  0  0  0  0  0  0  0  0  0
  -26.6010  -34.8620   22.3760 O   0  0  0  0  0  0  0  0  0  0  0  0
  -25.0120  -34.0640   24.9710 H   0  0  0  0  0  0  0  0  0  0  0  0
  -24.2030  -36.7580   23.0610 C   0  0  0  0  0  1  0  0  0  0  0  0
  -25.4460  -36.3540   23.8690 C   0  0  0  0  0  3  0  0  0  0  0  0
  -27.5820  -37.2430   24.6910 C   0  0  0  0  0  1  0  0  0  0  0  0
  -26.4780  -37.4070   23.7520 N   0  0  0  0  0  0  0  0  0  0  0  0
  -26.0710  -38.3280   23.9000 H   0  0  0  0  0  0  0  0  0  0  0  0
  2  1  1  0
  2 11  1  0
  2 50  1  0
  3 15  1  0
  4  9  1  0
  5  6  1  0
  5  4  1  0
  7  6  1  0
  7 21  1  0
  7  8  1  0
  9  3  1  0
  9  8  1  0
 10  3  2  0
 11 12  2  0
 12 14  1  0
 12 46  1  0
 13 15  1  0
 13 14  2  0
 15 17  1  0
 16 11  1  0
 16 13  1  0
 18 19  2  0
 19 38  1  0
 20 19  1  0
 20 23  1  0
 21 18  1  0
 21 22  1  0
 22 20  2  0
 23 24  1  0
 24 25  2  0
 26 29  1  0
 26 25  1  0
 27 26  2  0
 28 27  1  0
 28 23  2  0
 29 30  1  0
 30 31  1  0
 31 32  2  0
 33 32  1  0
 33 37  1  0
 34 33  2  0
 35 30  2  0
 35 34  1  0
 36 35  1  0
 38 39  1  0
 39 42  1  0
 39 41  1  0
 40 38  2  0
 43 44  1  0
 43 18  1  0
 45 43  1  0
 46 48  1  0
 47 46  1  0
 49 50  1  0
 49 54  1  0
 50 52  1  0
 51 49  2  0
 54 53  1  0
 55 57  1  0
 55 54  1  0
 56 67  2  0
 57 62  1  0
 58 66  1  0
 58 68  1  0
 59 65  1  0
 59 61  1  0
 60 66  1  0
 61 60  1  0
 62 61  2  0
 63 57  2  0
 64 63  1  0
 64 59  2  0
 65 58  1  0
 66 56  1  0
 68 70  2  0
 69 68  1  0
 71 69  1  0
 72 81  2  0
 72 77  1  0
 73 69  1  0
 73 77  1  0
 74 73  1  0
 75 76  1  0
 75 74  1  0
 76 72  1  0
 77 78  2  0
 78 79  1  0
 80 79  2  0
 81 80  1  0
 82 56  1  0
 82 87  1  0
 82 83  1  0
 83 86  1  1
 83 84  1  0
 85 83  1  0
 87 90  1  0
 88 92  1  0
 88 87  1  0
 89 88  2  0
 92 91  1  0
 94 92  1  0
 94 95  1  0
 94 93  1  0
M  ISO  4   3 100  15 100  54 101  55 101
M  END
>  <TORSDO>  (90) 
F 19

>  <SCORE>  (90) 
-14.596

>  <name>  (90) 
89

>  <ligand_id>  (90) 
89

>  <original_smiles>  (90) 
[H]c1c([H])c([H])c2c(c1[H])C([H])([H])C([H])([H])C([H])([H])C2([H])N([H])C(=O)C1([H])N(C(=O)C([H])(N([H])C(=O)C([H])(N([H])C([H])([H])[H])C([H])([H])[H])C(C([H])([H])[H])(C([H])([H])[H])C([H])([H])[H])C([H])([H])c2c([H])c(OC([H])(C(=O)N([H])C([H])(c3sc(N([H])C(=O)N4C([H])([H])C([H])([H])C([H])([H])C([H])(n5nc(-c6c([H])c([H])c(Oc7c([H])c([H])c(F)c([H])c7F)c([H])c6[H])c(C(=O)N([H])[H])c5N([H])[H])C4([H])[H])nc3N([H])[H])C([H])([H])[H])C([H])([H])[H])c([H])c([H])c2C1([H])[H]

>  <smiles>  (90) 
[H]c1c([H])c([H])c2c(c1[H])C([H])([H])C([H])([H])C([H])([H])C2([H])N([H])C(=O)C1([H])N(C(=O)C([H])(N([H])C(=O)C([H])(N([H])C([H])([H])[H])C([H])([H])[H])C(C([H])([H])[H])(C([H])([H])[H])C([H])([H])[H])C([H])([H])c2c([H])c(OC([H])(C(=O)N([H])C([H])(c3sc(N([H])C(=O)N4C([H])([H])C([H])([H])C([H])([H])C([H])(n5nc(-c6c([H])c([H])c(Oc7c([H])c([H])c(F)c([H])c7F)c([H])c6[H])c(C(=O)N([H])[H])c5N([H])[H])C4([H])[H])nc3N([H])[H])C([H])([H])[H])C([H])([H])[H])c([H])c([H])c2C1([H])[H]

$$$$
90:0:0
     RDKit          3D

 95103  0  0  1  0  0  0  0  0999 V2000
  -29.1360  -22.2940   20.7750 C   0  0  1  0  0  0  0  0  0  0  0  0
  -30.4700  -22.2680   21.5850 C   0  0  1  0  0  0  0  0  0  0  0  0
  -30.6230  -23.3420   22.3510 F   0  0  0  0  0  0  0  0  0  0  0  0
  -30.4960  -21.2040   22.3900 F   0  0  0  0  0  0  0  0  0  0  0  0
  -31.5150  -22.2200   20.7580 F   0  0  0  0  0  0  0  0  0  0  0  0
  -28.0590  -22.0810   21.6810 O   0  0  0  0  0  0  0  0  0  0  0  0
  -28.3790  -21.4640   22.3320 H   0  0  0  0  0  0  0  0  0  0  0  0
  -28.9020  -23.7710   20.0840 C   0  0  0  0  0  2  0  0  0  0  0  0
  -28.5750  -25.3050   22.2540 C   0  0  0  0  0  1  0  0  0  0  0  0
  -28.1750  -25.0580   20.7910 C   0  0  0  0  0  3  0  0  0  0  0  0
  -28.3120  -26.4310   20.1980 O   0  0  0  0  0  0  0  0  0  0  0  0
  -24.5890  -31.8920   23.2410 C   0  0  0  0  0  0  0  0  0  0  0  0
  -27.2030  -27.3020   20.2120 C   0  0  0  0  0  0  0  0  0  0  0  0
  -23.3870  -30.4890   21.6030 C   0  0  0  0  0  3  0  0  0  0  0  0
  -24.8410  -28.9270   20.1890 C   0  0  0  0  0  0  0  0  0  0  0  0
  -25.9290  -30.8030   21.4200 C   0  0  0  0  0  2  0  0  0  0  0  0
  -26.0130  -29.4190   20.7810 C   0  0  0  0  0  0  0  0  0  0  0  0
  -27.2020  -28.6210   20.7750 C   0  0  0  0  0  3  0  0  0  0  0  0
  -26.0090  -26.8670   19.6020 C   0  0  0  0  0  3  0  0  0  0  0  0
  -24.8430  -27.6570   19.5910 C   0  0  0  0  0  3  0  0  0  0  0  0
  -23.6030  -29.8040   20.2290 C   0  0  0  0  0  2  0  0  0  0  0  0
  -24.6550  -31.0800   22.1440 N   0  0  0  0  0  0  0  0  0  0  0  0
  -23.5050  -32.1710   23.7730 O   0  0  0  0  0  0  0  0  0  0  0  0
  -22.7220  -29.4770   22.5690 C   0  0  0  0  0  0  0  0  0  0  0  0
  -21.3950  -29.3020   22.4410 N   0  0  0  0  0  0  0  0  0  0  0  0
  -23.3990  -28.8510   23.3870 O   0  0  0  0  0  0  0  0  0  0  0  0
  -20.9070  -29.8590   21.7550 H   0  0  0  0  0  0  0  0  0  0  0  0
  -18.0100  -28.1350   22.9640 C   0  0  0  0  0  0  0  0  0  0  0  0
  -20.5740  -28.3680   23.2140 C   0  0  0  0  0  3  0  0  0  0  0  0
  -20.6560  -26.9380   22.6280 C   0  0  0  0  0  2  0  0  0  0  0  0
  -19.5410  -26.6340   21.6200 C   0  0  0  0  0  2  0  0  0  0  0  0
  -18.1670  -26.7890   22.2780 C   0  0  0  0  0  2  0  0  0  0  0  0
  -19.1410  -28.8840   23.3900 C   0  0  0  0  0  0  0  0  0  0  0  0
  -18.9400  -30.1440   23.9920 C   0  0  0  0  0  3  0  0  0  0  0  0
  -17.6420  -30.6560   24.1750 C   0  0  0  0  0  3  0  0  0  0  0  0
  -16.5260  -29.9050   23.7650 C   0  0  0  0  0  3  0  0  0  0  0  0
  -16.7120  -28.6480   23.1650 C   0  0  0  0  0  3  0  0  0  0  0  0
  -25.8680  -32.5260   23.8660 C   0  0  0  0  0  3  0  0  0  0  0  0
  -25.5610  -33.9300   24.1760 N   0  0  0  0  0  0  0  0  0  0  0  0
  -25.9190  -34.9740   23.4170 C   0  0  0  0  0  0  0  0  0  0  0  0
  -26.6110  -34.8570   22.4010 O   0  0  0  0  0  0  0  0  0  0  0  0
  -24.9430  -34.0970   24.9570 H   0  0  0  0  0  0  0  0  0  0  0  0
  -24.2290  -36.7920   23.0030 C   0  0  0  0  0  1  0  0  0  0  0  0
  -25.4370  -36.3710   23.8550 C   0  0  0  0  0  3  0  0  0  0  0  0
  -27.5550  -37.2310   24.7550 C   0  0  0  0  0  1  0  0  0  0  0  0
  -26.4870  -37.4100   23.7740 N   0  0  0  0  0  0  0  0  0  0  0  0
  -26.0880  -38.3370   23.9020 H   0  0  0  0  0  0  0  0  0  0  0  0
  -26.3700  -31.7700   25.1570 C   0  0  1  0  0  0  0  0  0  0  0  0
  -25.2660  -31.5520   26.2180 C   0  0  0  0  0  1  0  0  0  0  0  0
  -26.9530  -30.3850   24.7890 C   0  0  0  0  0  1  0  0  0  0  0  0
  -27.5170  -32.5710   25.8180 C   0  0  0  0  0  1  0  0  0  0  0  0
  -29.1070  -20.9980   19.7880 C   0  0  0  0  0  2  0  0  0  0  0  0
  -31.1840  -18.0210   20.1830 C   0  0  0  0  0  3  0  0  0  0  0  0
  -29.0210  -18.3540   20.3700 C   0  0  0  0  0  3  0  0  0  0  0  0
  -29.9610  -17.3220   20.3900 C   0  0  0  0  0  0  0  0  0  0  0  0
  -30.9950  -19.3440   20.0210 N   0  0  0  0  0  0  0  0  0  0  0  0
  -29.6590  -19.6030   20.1430 N   0  0  0  0  0  0  0  0  0  0  0  0
  -30.5740  -14.7690   20.3330 C   0  0  0  0  0  0  0  0  0  0  0  0
  -30.4010  -12.4940   19.3170 C   0  0  0  0  0  2  0  0  0  0  0  0
  -29.4520  -12.5670   18.1000 C   0  0  0  0  0  2  0  0  0  0  0  0
  -27.9840  -12.3880   18.5400 C   0  0  0  0  0  2  0  0  0  0  0  0
  -27.6140  -13.2740   19.7590 C   0  0  0  0  0  3  0  0  0  0  0  0
  -28.6780  -13.1710   20.8740 C   0  0  0  0  0  2  0  0  0  0  0  0
  -29.9720  -13.5320   20.2800 N   0  0  0  0  0  0  0  0  0  0  0  0
  -31.7550  -14.9030   20.0000 O   0  0  0  0  0  0  0  0  0  0  0  0
  -29.7470  -15.8600   20.5560 N   0  0  0  0  0  0  0  0  0  0  0  0
  -28.8020  -15.5900   20.7800 H   0  0  0  0  0  0  0  0  0  0  0  0
  -25.2300  -13.8690   20.5060 C   0  0  0  0  0  0  0  0  0  0  0  0
  -24.1660  -13.0940   20.8810 C   0  0  0  0  0  0  0  0  0  0  0  0
  -24.6270  -11.7420   20.8400 C   0  0  0  0  0  0  0  0  0  0  0  0
  -26.2700  -12.9880   20.2560 N   0  0  0  0  0  0  0  0  0  0  0  0
  -25.9150  -11.7050   20.5200 N   0  0  0  0  0  0  0  0  0  0  0  0
  -23.9010  -10.4790   21.0270 C   0  0  0  0  0  0  0  0  0  0  0  0
  -24.3310   -9.5130   21.9630 C   0  0  0  0  0  3  0  0  0  0  0  0
  -23.6060   -8.3150   22.1380 C   0  0  0  0  0  3  0  0  0  0  0  0
  -22.4370   -8.0740   21.3780 C   0  0  0  0  0  0  0  0  0  0  0  0
  -22.0260   -9.0300   20.4300 C   0  0  0  0  0  3  0  0  0  0  0  0
  -22.7530  -10.2190   20.2530 C   0  0  0  0  0  3  0  0  0  0  0  0
  -21.6820   -6.9290   21.4650 O   0  0  0  0  0  0  0  0  0  0  0  0
  -21.6230   -6.1910   22.6200 C   0  0  0  0  0  0  0  0  0  0  0  0
  -21.1550   -6.7420   23.8330 C   0  0  0  0  0  3  0  0  0  0  0  0
  -21.0460   -5.9290   24.9790 C   0  0  0  0  0  3  0  0  0  0  0  0
  -21.3920   -4.5660   24.9110 C   0  0  0  0  0  0  0  0  0  0  0  0
  -21.8520   -4.0150   23.7030 C   0  0  0  0  0  3  0  0  0  0  0  0
  -21.9650   -4.8250   22.5600 C   0  0  0  0  0  0  0  0  0  0  0  0
  -22.3890   -4.2840   21.3930 F   0  0  0  0  0  0  0  0  0  0  0  0
  -21.2780   -3.7830   26.0100 F   0  0  0  0  0  0  0  0  0  0  0  0
  -22.7710  -13.5720   21.1640 C   0  0  0  0  0  0  0  0  0  0  0  0
  -22.0410  -12.8660   22.0220 N   0  0  0  0  0  0  0  0  0  0  0  0
  -22.3350  -14.6040   20.6580 O   0  0  0  0  0  0  0  0  0  0  0  0
  -22.4070  -12.0320   22.4580 H   0  0  0  0  0  0  0  0  0  0  0  0
  -21.1040  -13.1660   22.2480 H   0  0  0  0  0  0  0  0  0  0  0  0
  -25.3930  -15.2400   20.3330 N   0  0  0  0  0  0  0  0  0  0  0  0
  -24.6210  -15.8880   20.4410 H   0  0  0  0  0  0  0  0  0  0  0  0
  -26.2190  -15.6770   19.9450 H   0  0  0  0  0  0  0  0  0  0  0  0
  1 52  1  6
  1  2  1  0
  1  6  1  0
  2  3  1  1
  2  4  1  0
  5  2  1  0
  6  7  1  0
  8  1  1  0
  8 10  1  0
 10  9  1  0
 11 13  1  0
 11 10  1  0
 12 23  2  0
 13 18  1  0
 14 22  1  0
 14 24  1  0
 15 21  1  0
 15 17  1  0
 16 22  1  0
 17 16  1  0
 18 17  2  0
 19 13  2  0
 20 19  1  0
 20 15  2  0
 21 14  1  0
 22 12  1  0
 24 26  2  0
 25 24  1  0
 27 25  1  0
 28 37  2  0
 28 33  1  0
 29 25  1  0
 29 33  1  0
 30 29  1  0
 31 32  1  0
 31 30  1  0
 32 28  1  0
 33 34  2  0
 34 35  1  0
 36 35  2  0
 37 36  1  0
 38 12  1  0
 38 39  1  0
 38 48  1  0
 39 42  1  0
 40 44  1  0
 40 39  1  0
 41 40  2  0
 44 43  1  0
 46 44  1  0
 46 47  1  0
 46 45  1  0
 48 51  1  1
 48 49  1  0
 50 48  1  0
 52 57  1  0
 53 55  1  0
 54 55  2  0
 55 66  1  0
 56 57  1  0
 56 53  2  0
 57 54  1  0
 58 66  1  0
 59 64  1  0
 60 61  1  0
 60 59  1  0
 62 61  1  0
 62 71  1  0
 62 63  1  0
 64 58  1  0
 64 63  1  0
 65 58  2  0
 66 67  1  0
 68 69  2  0
 69 88  1  0
 70 69  1  0
 70 73  1  0
 71 68  1  0
 71 72  1  0
 72 70  2  0
 73 74  1  0
 74 75  2  0
 76 79  1  0
 76 75  1  0
 77 76  2  0
 78 77  1  0
 78 73  2  0
 79 80  1  0
 80 81  1  0
 81 82  2  0
 83 82  1  0
 83 87  1  0
 84 83  2  0
 85 80  2  0
 85 84  1  0
 86 85  1  0
 88 89  1  0
 89 92  1  0
 89 91  1  0
 90 88  2  0
 93 94  1  0
 93 68  1  0
 95 93  1  0
M  ISO  4  10 101  11 101  58 100  66 100
M  END
>  <TORSDO>  (91) 
F 22

>  <SCORE>  (91) 
-13.788

>  <name>  (91) 
90

>  <ligand_id>  (91) 
90

>  <original_smiles>  (91) 
[H]OC(C(F)(F)F)(C([H])([H])n1nc([H])c(N([H])C(=O)N2C([H])([H])C([H])([H])C([H])([H])C([H])(n3nc(-c4c([H])c([H])c(Oc5c([H])c([H])c(F)c([H])c5F)c([H])c4[H])c(C(=O)N([H])[H])c3N([H])[H])C2([H])[H])c1[H])C([H])([H])C([H])(Oc1c([H])c([H])c2c(c1[H])C([H])([H])N(C(=O)C([H])(N([H])C(=O)C([H])(N([H])C([H])([H])[H])C([H])([H])[H])C(C([H])([H])[H])(C([H])([H])[H])C([H])([H])[H])C([H])(C(=O)N([H])C1([H])c3c([H])c([H])c([H])c([H])c3C([H])([H])C([H])([H])C1([H])[H])C2([H])[H])C([H])([H])[H]

>  <smiles>  (91) 
[H]OC(C(F)(F)F)(C([H])([H])n1nc([H])c(N([H])C(=O)N2C([H])([H])C([H])([H])C([H])([H])C([H])(n3nc(-c4c([H])c([H])c(Oc5c([H])c([H])c(F)c([H])c5F)c([H])c4[H])c(C(=O)N([H])[H])c3N([H])[H])C2([H])[H])c1[H])C([H])([H])C([H])(Oc1c([H])c([H])c2c(c1[H])C([H])([H])N(C(=O)C([H])(N([H])C(=O)C([H])(N([H])C([H])([H])[H])C([H])([H])[H])C(C([H])([H])[H])(C([H])([H])[H])C([H])([H])[H])C([H])(C(=O)N([H])C1([H])c3c([H])c([H])c([H])c([H])c3C([H])([H])C([H])([H])C1([H])[H])C2([H])[H])C([H])([H])[H]

$$$$
91:0:0
     RDKit          3D

 93101  0  0  1  0  0  0  0  0999 V2000
  -29.4870  -20.8260   19.7140 C   0  0  0  0  0  0  0  0  0  0  0  0
  -28.9550  -23.2000   20.1080 C   0  0  0  0  0  0  0  0  0  0  0  0
  -29.1510  -21.8980   20.4920 N   0  0  0  0  0  0  0  0  0  0  0  0
  -29.5640  -20.8700   18.4810 O   0  0  0  0  0  0  0  0  0  0  0  0
  -29.3230  -23.6350   19.0120 O   0  0  0  0  0  0  0  0  0  0  0  0
  -28.9770  -21.6700   21.4580 H   0  0  0  0  0  0  0  0  0  0  0  0
  -30.6620  -17.8260   21.7150 C   0  0  0  0  0  3  0  0  0  0  0  0
  -30.0250  -16.9830   20.8260 C   0  0  0  0  0  0  0  0  0  0  0  0
  -29.7430  -19.4790   20.3930 C   0  0  0  0  0  0  0  0  0  0  0  0
  -30.4930  -19.2100   21.4740 N   0  0  0  0  0  0  0  0  0  0  0  0
  -29.2220  -17.9670   19.6000 S   0  0  0  0  0  0  0  0  0  0  0  0
  -30.6470  -14.6090   20.4530 C   0  0  0  0  0  0  0  0  0  0  0  0
  -30.4260  -12.3990   19.3470 C   0  0  0  0  0  2  0  0  0  0  0  0
  -29.4840  -12.5540   18.1340 C   0  0  0  0  0  2  0  0  0  0  0  0
  -28.0070  -12.4080   18.5560 C   0  0  0  0  0  2  0  0  0  0  0  0
  -27.6550  -13.2640   19.8010 C   0  0  0  0  0  3  0  0  0  0  0  0
  -28.7040  -13.0630   20.9180 C   0  0  0  0  0  2  0  0  0  0  0  0
  -30.0240  -13.3960   20.3540 N   0  0  0  0  0  0  0  0  0  0  0  0
  -31.7910  -14.8000   20.0310 O   0  0  0  0  0  0  0  0  0  0  0  0
  -29.8610  -15.6190   20.9120 N   0  0  0  0  0  0  0  0  0  0  0  0
  -28.9400  -15.3150   21.1870 H   0  0  0  0  0  0  0  0  0  0  0  0
  -25.2570  -13.8900   20.4920 C   0  0  0  0  0  0  0  0  0  0  0  0
  -24.1810  -13.1280   20.8570 C   0  0  0  0  0  0  0  0  0  0  0  0
  -24.6320  -11.7720   20.8340 C   0  0  0  0  0  0  0  0  0  0  0  0
  -26.2980  -12.9990   20.2720 N   0  0  0  0  0  0  0  0  0  0  0  0
  -25.9240  -11.7210   20.5350 N   0  0  0  0  0  0  0  0  0  0  0  0
  -23.8950  -10.5170   21.0230 C   0  0  0  0  0  0  0  0  0  0  0  0
  -24.3120   -9.5520   21.9670 C   0  0  0  0  0  3  0  0  0  0  0  0
  -23.5780   -8.3600   22.1450 C   0  0  0  0  0  3  0  0  0  0  0  0
  -22.4130   -8.1220   21.3760 C   0  0  0  0  0  0  0  0  0  0  0  0
  -22.0160   -9.0750   20.4230 C   0  0  0  0  0  3  0  0  0  0  0  0
  -22.7510  -10.2590   20.2440 C   0  0  0  0  0  3  0  0  0  0  0  0
  -21.6510   -6.9810   21.4620 O   0  0  0  0  0  0  0  0  0  0  0  0
  -21.5800   -6.2490   22.6200 C   0  0  0  0  0  0  0  0  0  0  0  0
  -21.1280   -6.8140   23.8320 C   0  0  0  0  0  3  0  0  0  0  0  0
  -21.0050   -6.0090   24.9810 C   0  0  0  0  0  3  0  0  0  0  0  0
  -21.3210   -4.6400   24.9200 C   0  0  0  0  0  0  0  0  0  0  0  0
  -21.7660   -4.0720   23.7130 C   0  0  0  0  0  3  0  0  0  0  0  0
  -21.8920   -4.8740   22.5650 C   0  0  0  0  0  0  0  0  0  0  0  0
  -22.3000   -4.3200   21.3980 F   0  0  0  0  0  0  0  0  0  0  0  0
  -21.1940   -3.8640   26.0220 F   0  0  0  0  0  0  0  0  0  0  0  0
  -22.7850  -13.6160   21.1180 C   0  0  0  0  0  0  0  0  0  0  0  0
  -22.0440  -12.9260   21.9770 N   0  0  0  0  0  0  0  0  0  0  0  0
  -22.3600  -14.6460   20.5970 O   0  0  0  0  0  0  0  0  0  0  0  0
  -22.3980  -12.0900   22.4180 H   0  0  0  0  0  0  0  0  0  0  0  0
  -21.1090  -13.2380   22.1970 H   0  0  0  0  0  0  0  0  0  0  0  0
  -25.4340  -15.2580   20.3080 N   0  0  0  0  0  0  0  0  0  0  0  0
  -24.6690  -15.9190   20.4040 H   0  0  0  0  0  0  0  0  0  0  0  0
  -26.2820  -15.6860   19.9580 H   0  0  0  0  0  0  0  0  0  0  0  0
  -28.0800  -23.6550   22.4850 C   0  0  0  0  0  1  0  0  0  0  0  0
  -28.1980  -24.2080   21.0440 C   0  0  0  0  0  3  0  0  0  0  0  0
  -28.7430  -25.6960   21.0910 C   0  0  0  0  0  2  0  0  0  0  0  0
  -28.4450  -26.6390   20.0250 O   0  0  0  0  0  0  0  0  0  0  0  0
  -24.6170  -31.8720   23.1660 C   0  0  0  0  0  0  0  0  0  0  0  0
  -27.2900  -27.4020   20.1100 C   0  0  0  0  0  0  0  0  0  0  0  0
  -23.4270  -30.4620   21.5180 C   0  0  0  0  0  3  0  0  0  0  0  0
  -24.8960  -28.9300   20.0980 C   0  0  0  0  0  0  0  0  0  0  0  0
  -25.9530  -30.8270   21.3310 C   0  0  0  0  0  2  0  0  0  0  0  0
  -26.0510  -29.4500   20.6980 C   0  0  0  0  0  0  0  0  0  0  0  0
  -27.2550  -28.6960   20.6980 C   0  0  0  0  0  3  0  0  0  0  0  0
  -26.1210  -26.9110   19.4990 C   0  0  0  0  0  3  0  0  0  0  0  0
  -24.9280  -27.6610   19.4950 C   0  0  0  0  0  3  0  0  0  0  0  0
  -23.6500  -29.7880   20.1370 C   0  0  0  0  0  2  0  0  0  0  0  0
  -24.6840  -31.0710   22.0630 N   0  0  0  0  0  0  0  0  0  0  0  0
  -23.5310  -32.1380   23.7030 O   0  0  0  0  0  0  0  0  0  0  0  0
  -22.7750  -29.4390   22.4760 C   0  0  0  0  0  0  0  0  0  0  0  0
  -21.4470  -29.2720   22.3640 N   0  0  0  0  0  0  0  0  0  0  0  0
  -23.4620  -28.7980   23.2760 O   0  0  0  0  0  0  0  0  0  0  0  0
  -20.9550  -29.8440   21.6930 H   0  0  0  0  0  0  0  0  0  0  0  0
  -18.0650  -28.1050   22.8990 C   0  0  0  0  0  0  0  0  0  0  0  0
  -20.6320  -28.3290   23.1290 C   0  0  0  0  0  3  0  0  0  0  0  0
  -20.7040  -26.9070   22.5270 C   0  0  0  0  0  2  0  0  0  0  0  0
  -19.5810  -26.6170   21.5270 C   0  0  0  0  0  2  0  0  0  0  0  0
  -18.2120  -26.7650   22.1980 C   0  0  0  0  0  2  0  0  0  0  0  0
  -19.2010  -28.8460   23.3230 C   0  0  0  0  0  0  0  0  0  0  0  0
  -19.0110  -30.1000   23.9410 C   0  0  0  0  0  3  0  0  0  0  0  0
  -17.7170  -30.6170   24.1380 C   0  0  0  0  0  3  0  0  0  0  0  0
  -16.5940  -29.8730   23.7320 C   0  0  0  0  0  3  0  0  0  0  0  0
  -16.7700  -28.6190   23.1190 C   0  0  0  0  0  3  0  0  0  0  0  0
  -25.8950  -32.5080   23.7930 C   0  0  0  0  0  3  0  0  0  0  0  0
  -26.4290  -31.7250   25.0560 C   0  0  1  0  0  0  0  0  0  0  0  0
  -25.3430  -31.4650   26.1270 C   0  0  0  0  0  1  0  0  0  0  0  0
  -27.0220  -30.3590   24.6410 C   0  0  0  0  0  1  0  0  0  0  0  0
  -27.5750  -32.5230   25.7230 C   0  0  0  0  0  1  0  0  0  0  0  0
  -25.5750  -33.8990   24.1400 N   0  0  0  0  0  0  0  0  0  0  0  0
  -25.8860  -34.9640   23.3880 C   0  0  0  0  0  0  0  0  0  0  0  0
  -26.5480  -34.8810   22.3500 O   0  0  0  0  0  0  0  0  0  0  0  0
  -24.9840  -34.0390   24.9460 H   0  0  0  0  0  0  0  0  0  0  0  0
  -24.1330  -36.7400   23.0730 C   0  0  0  0  0  1  0  0  0  0  0  0
  -25.3860  -36.3410   23.8680 C   0  0  0  0  0  3  0  0  0  0  0  0
  -27.5190  -37.2410   24.6860 C   0  0  0  0  0  1  0  0  0  0  0  0
  -26.4030  -37.4080   23.7580 N   0  0  0  0  0  0  0  0  0  0  0  0
  -25.9870  -38.3210   23.9250 H   0  0  0  0  0  0  0  0  0  0  0  0
  1  9  1  0
  1  3  1  0
  2  3  1  0
  2 51  1  0
  3  6  1  0
  4  1  2  0
  5  2  2  0
  8 20  1  0
  8  7  2  0
  9 10  2  0
 10  7  1  0
 11  9  1  0
 11  8  1  0
 12 20  1  0
 13 18  1  0
 14 15  1  0
 14 13  1  0
 16 15  1  0
 16 25  1  0
 16 17  1  0
 18 12  1  0
 18 17  1  0
 19 12  2  0
 20 21  1  0
 22 23  2  0
 23 42  1  0
 24 23  1  0
 24 27  1  0
 25 22  1  0
 25 26  1  0
 26 24  2  0
 27 28  1  0
 28 29  2  0
 30 33  1  0
 30 29  1  0
 31 30  2  0
 32 31  1  0
 32 27  2  0
 33 34  1  0
 34 35  1  0
 35 36  2  0
 37 36  1  0
 37 41  1  0
 38 37  2  0
 39 34  2  0
 39 38  1  0
 40 39  1  0
 42 43  1  0
 43 46  1  0
 43 45  1  0
 44 42  2  0
 47 48  1  0
 47 22  1  0
 49 47  1  0
 51 52  1  0
 51 50  1  0
 53 55  1  0
 53 52  1  0
 54 65  2  0
 55 60  1  0
 56 64  1  0
 56 66  1  0
 57 63  1  0
 57 59  1  0
 58 64  1  0
 59 58  1  0
 60 59  2  0
 61 55  2  0
 62 61  1  0
 62 57  2  0
 63 56  1  0
 64 54  1  0
 66 68  2  0
 67 66  1  0
 69 67  1  0
 70 79  2  0
 70 75  1  0
 71 67  1  0
 71 75  1  0
 72 71  1  0
 73 74  1  0
 73 72  1  0
 74 70  1  0
 75 76  2  0
 76 77  1  0
 78 77  2  0
 79 78  1  0
 80 54  1  0
 80 85  1  0
 80 81  1  0
 81 84  1  1
 81 82  1  0
 83 81  1  0
 85 88  1  0
 86 90  1  0
 86 85  1  0
 87 86  2  0
 90 89  1  0
 92 90  1  0
 92 93  1  0
 92 91  1  0
M  ISO  4  12 100  20 100  52 101  53 101
M  END
>  <TORSDO>  (92) 
F 19

>  <SCORE>  (92) 
-13.986

>  <name>  (92) 
91

>  <ligand_id>  (92) 
91

>  <original_smiles>  (92) 
[H]c1nc(C(=O)N([H])C(=O)C([H])(C([H])([H])[H])C([H])([H])Oc2c([H])c([H])c3c(c2[H])C([H])([H])N(C(=O)C([H])(N([H])C(=O)C([H])(N([H])C([H])([H])[H])C([H])([H])[H])C(C([H])([H])[H])(C([H])([H])[H])C([H])([H])[H])C([H])(C(=O)N([H])C2([H])c4c([H])c([H])c([H])c([H])c4C([H])([H])C([H])([H])C2([H])[H])C3([H])[H])sc1N([H])C(=O)N1C([H])([H])C([H])([H])C([H])([H])C([H])(n2nc(-c3c([H])c([H])c(Oc4c([H])c([H])c(F)c([H])c4F)c([H])c3[H])c(C(=O)N([H])[H])c2N([H])[H])C1([H])[H]

>  <smiles>  (92) 
[H]c1nc(C(=O)N([H])C(=O)C([H])(C([H])([H])[H])C([H])([H])Oc2c([H])c([H])c3c(c2[H])C([H])([H])N(C(=O)C([H])(N([H])C(=O)C([H])(N([H])C([H])([H])[H])C([H])([H])[H])C(C([H])([H])[H])(C([H])([H])[H])C([H])([H])[H])C([H])(C(=O)N([H])C2([H])c4c([H])c([H])c([H])c([H])c4C([H])([H])C([H])([H])C2([H])[H])C3([H])[H])sc1N([H])C(=O)N1C([H])([H])C([H])([H])C([H])([H])C([H])(n2nc(-c3c([H])c([H])c(Oc4c([H])c([H])c(F)c([H])c4F)c([H])c3[H])c(C(=O)N([H])[H])c2N([H])[H])C1([H])[H]

$$$$
92:0:0
     RDKit          3D

 94102  0  0  1  0  0  0  0  0999 V2000
  -29.6600  -21.8860   20.2540 C   0  0  0  0  0  0  0  0  0  0  0  0
  -30.5850  -22.2800   21.0430 N   0  0  0  0  0  0  0  0  0  0  0  0
  -30.6800  -15.1080   19.9010 C   0  0  0  0  0  0  0  0  0  0  0  0
  -30.5680  -12.7290   18.9590 C   0  0  0  0  0  2  0  0  0  0  0  0
  -29.5670  -12.6730   17.7770 C   0  0  0  0  0  2  0  0  0  0  0  0
  -28.1250  -12.4610   18.2820 C   0  0  0  0  0  2  0  0  0  0  0  0
  -27.7840  -13.3920   19.4740 C   0  0  0  0  0  3  0  0  0  0  0  0
  -28.8940  -13.3780   20.5490 C   0  0  0  0  0  2  0  0  0  0  0  0
  -30.1370  -13.8140   19.8930 N   0  0  0  0  0  0  0  0  0  0  0  0
  -31.8500  -15.2200   19.5110 O   0  0  0  0  0  0  0  0  0  0  0  0
  -29.3170  -20.2610   20.1450 C   0  0  0  0  0  0  0  0  0  0  0  0
  -28.0080  -19.8470   20.3670 C   0  0  0  0  0  0  0  0  0  0  0  0
  -29.4950  -17.7260   20.1520 C   0  0  0  0  0  0  0  0  0  0  0  0
  -30.1380  -18.9820   20.0430 N   0  0  0  0  0  0  0  0  0  0  0  0
  -29.8200  -16.2000   20.2540 N   0  0  0  0  0  0  0  0  0  0  0  0
  -27.7830  -18.0920   20.3930 S   0  0  0  0  0  0  0  0  0  0  0  0
  -28.9870  -15.7420   20.5870 H   0  0  0  0  0  0  0  0  0  0  0  0
  -25.4550  -14.0090   20.3340 C   0  0  0  0  0  0  0  0  0  0  0  0
  -24.3930  -13.2550   20.7500 C   0  0  0  0  0  0  0  0  0  0  0  0
  -24.8230  -11.8960   20.6740 C   0  0  0  0  0  0  0  0  0  0  0  0
  -26.4650  -13.1130   20.0310 N   0  0  0  0  0  0  0  0  0  0  0  0
  -26.0960  -11.8340   20.2970 N   0  0  0  0  0  0  0  0  0  0  0  0
  -24.0770  -10.6480   20.8820 C   0  0  0  0  0  0  0  0  0  0  0  0
  -24.5010   -9.6780   21.8150 C   0  0  0  0  0  3  0  0  0  0  0  0
  -23.7540   -8.4960   22.0110 C   0  0  0  0  0  3  0  0  0  0  0  0
  -22.5680   -8.2780   21.2720 C   0  0  0  0  0  0  0  0  0  0  0  0
  -22.1610   -9.2360   20.3280 C   0  0  0  0  0  3  0  0  0  0  0  0
  -22.9090  -10.4080   20.1310 C   0  0  0  0  0  3  0  0  0  0  0  0
  -21.7940   -7.1480   21.3750 O   0  0  0  0  0  0  0  0  0  0  0  0
  -21.7080   -6.4390   22.5460 C   0  0  0  0  0  0  0  0  0  0  0  0
  -21.2160   -7.0190   23.7360 C   0  0  0  0  0  3  0  0  0  0  0  0
  -21.0810   -6.2360   24.9000 C   0  0  0  0  0  3  0  0  0  0  0  0
  -21.4290   -4.8720   24.8730 C   0  0  0  0  0  0  0  0  0  0  0  0
  -21.9160   -4.2910   23.6900 C   0  0  0  0  0  3  0  0  0  0  0  0
  -22.0520   -5.0730   22.5290 C   0  0  0  0  0  0  0  0  0  0  0  0
  -22.5010   -4.5020   21.3850 F   0  0  0  0  0  0  0  0  0  0  0  0
  -21.2930   -4.1170   25.9880 F   0  0  0  0  0  0  0  0  0  0  0  0
  -23.0250  -13.7620   21.0960 C   0  0  0  0  0  0  0  0  0  0  0  0
  -22.3440  -13.1010   22.0240 N   0  0  0  0  0  0  0  0  0  0  0  0
  -22.5710  -14.7830   20.5800 O   0  0  0  0  0  0  0  0  0  0  0  0
  -22.7270  -12.2760   22.4610 H   0  0  0  0  0  0  0  0  0  0  0  0
  -21.4290  -13.4260   22.3030 H   0  0  0  0  0  0  0  0  0  0  0  0
  -25.6380  -15.3780   20.1620 N   0  0  0  0  0  0  0  0  0  0  0  0
  -24.8730  -16.0320   20.3040 H   0  0  0  0  0  0  0  0  0  0  0  0
  -26.4370  -15.7950   19.7030 H   0  0  0  0  0  0  0  0  0  0  0  0
  -26.8590  -20.5970   20.6350 N   0  0  0  0  0  0  0  0  0  0  0  0
  -26.8410  -21.6020   20.7780 H   0  0  0  0  0  0  0  0  0  0  0  0
  -25.9640  -20.1620   20.8400 H   0  0  0  0  0  0  0  0  0  0  0  0
  -28.0630  -22.8830   18.3220 C   0  0  0  0  0  1  0  0  0  0  0  0
  -29.0320  -23.2620   19.4560 C   0  0  0  0  0  3  0  0  0  0  0  0
  -28.4270  -24.6800   20.2050 C   0  0  0  0  0  2  0  0  0  0  0  0
  -28.5000  -26.1940   19.7750 O   0  0  0  0  0  0  0  0  0  0  0  0
  -24.5530  -31.6130   22.9680 C   0  0  0  0  0  0  0  0  0  0  0  0
  -27.3900  -27.1210   19.8070 C   0  0  0  0  0  0  0  0  0  0  0  0
  -23.4500  -30.2390   21.2450 C   0  0  0  0  0  3  0  0  0  0  0  0
  -24.9920  -28.7820   19.7900 C   0  0  0  0  0  0  0  0  0  0  0  0
  -25.9940  -30.6140   21.1440 C   0  0  0  0  0  2  0  0  0  0  0  0
  -26.1410  -29.2510   20.4380 C   0  0  0  0  0  0  0  0  0  0  0  0
  -27.3430  -28.4440   20.4160 C   0  0  0  0  0  3  0  0  0  0  0  0
  -26.2080  -26.7500   19.1340 C   0  0  0  0  0  3  0  0  0  0  0  0
  -25.0370  -27.5460   19.1230 C   0  0  0  0  0  3  0  0  0  0  0  0
  -23.7330  -29.6380   19.8450 C   0  0  0  0  0  2  0  0  0  0  0  0
  -24.6850  -30.8420   21.8450 N   0  0  0  0  0  0  0  0  0  0  0  0
  -23.4420  -31.8350   23.4780 O   0  0  0  0  0  0  0  0  0  0  0  0
  -22.7880  -29.1670   22.1470 C   0  0  0  0  0  0  0  0  0  0  0  0
  -21.4580  -29.0070   22.0320 N   0  0  0  0  0  0  0  0  0  0  0  0
  -23.4720  -28.4870   22.9150 O   0  0  0  0  0  0  0  0  0  0  0  0
  -20.9680  -29.6210   21.3990 H   0  0  0  0  0  0  0  0  0  0  0  0
  -18.0700  -27.8330   22.5870 C   0  0  0  0  0  0  0  0  0  0  0  0
  -20.6470  -28.0150   22.7470 C   0  0  0  0  0  3  0  0  0  0  0  0
  -20.6820  -26.6480   22.0270 C   0  0  0  0  0  2  0  0  0  0  0  0
  -19.5220  -26.4510   21.0440 C   0  0  0  0  0  2  0  0  0  0  0  0
  -18.1770  -26.5560   21.7710 C   0  0  0  0  0  2  0  0  0  0  0  0
  -19.2290  -28.5250   23.0290 C   0  0  0  0  0  0  0  0  0  0  0  0
  -19.0750  -29.7210   23.7630 C   0  0  0  0  0  3  0  0  0  0  0  0
  -17.7950  -30.2280   24.0530 C   0  0  0  0  0  3  0  0  0  0  0  0
  -16.6500  -29.5340   23.6230 C   0  0  0  0  0  3  0  0  0  0  0  0
  -16.7880  -28.3380   22.8960 C   0  0  0  0  0  3  0  0  0  0  0  0
  -25.7860  -32.2690   23.6570 C   0  0  0  0  0  3  0  0  0  0  0  0
  -26.2810  -31.4730   24.9280 C   0  0  1  0  0  0  0  0  0  0  0  0
  -25.1580  -31.1640   25.9480 C   0  0  0  0  0  1  0  0  0  0  0  0
  -26.9220  -30.1280   24.5120 C   0  0  0  0  0  1  0  0  0  0  0  0
  -27.3760  -32.2870   25.6580 C   0  0  0  0  0  1  0  0  0  0  0  0
  -25.4130  -33.6440   24.0270 N   0  0  0  0  0  0  0  0  0  0  0  0
  -25.7240  -34.7400   23.3200 C   0  0  0  0  0  0  0  0  0  0  0  0
  -26.4200  -34.7000   22.3030 O   0  0  0  0  0  0  0  0  0  0  0  0
  -24.7900  -33.7440   24.8130 H   0  0  0  0  0  0  0  0  0  0  0  0
  -23.9460  -36.4940   22.9920 C   0  0  0  0  0  1  0  0  0  0  0  0
  -25.1790  -36.0940   23.8180 C   0  0  0  0  0  3  0  0  0  0  0  0
  -27.2470  -37.0270   24.7530 C   0  0  0  0  0  1  0  0  0  0  0  0
  -26.1770  -37.1840   23.7750 N   0  0  0  0  0  0  0  0  0  0  0  0
  -25.7340  -38.0850   23.9340 H   0  0  0  0  0  0  0  0  0  0  0  0
  -32.1700  -21.9000   22.6360 C   0  0  0  0  0  1  0  0  0  0  0  0
  -31.1880  -21.2770   21.8130 O   0  0  0  0  0  0  0  0  0  0  0  0
  1  2  2  0
  2 94  1  0
  3 15  1  0
  4  9  1  0
  5  6  1  0
  5  4  1  0
  7  6  1  0
  7 21  1  0
  7  8  1  0
  9  3  1  0
  9  8  1  0
 10  3  2  0
 11  1  1  0
 11 12  2  0
 12 16  1  0
 12 46  1  0
 13 15  1  0
 13 16  1  0
 14 11  1  0
 14 13  2  0
 15 17  1  0
 18 19  2  0
 19 38  1  0
 20 19  1  0
 20 23  1  0
 21 22  1  0
 21 18  1  0
 22 20  2  0
 23 24  1  0
 24 25  2  0
 26 29  1  0
 26 25  1  0
 27 26  2  0
 28 27  1  0
 28 23  2  0
 29 30  1  0
 30 31  1  0
 31 32  2  0
 33 32  1  0
 33 37  1  0
 34 33  2  0
 35 30  2  0
 35 34  1  0
 36 35  1  0
 38 39  1  0
 39 42  1  0
 39 41  1  0
 40 38  2  0
 43 44  1  0
 43 18  1  0
 45 43  1  0
 46 47  1  0
 46 48  1  0
 50 49  1  0
 50 51  1  0
 50  1  1  0
 52 54  1  0
 52 51  1  0
 53 64  2  0
 54 59  1  0
 55 63  1  0
 55 65  1  0
 56 62  1  0
 56 58  1  0
 57 63  1  0
 58 57  1  0
 59 58  2  0
 60 54  2  0
 61 60  1  0
 61 56  2  0
 62 55  1  0
 63 53  1  0
 65 67  2  0
 66 65  1  0
 68 66  1  0
 69 78  2  0
 69 74  1  0
 70 66  1  0
 70 74  1  0
 71 70  1  0
 72 73  1  0
 72 71  1  0
 73 69  1  0
 74 75  2  0
 75 76  1  0
 77 76  2  0
 78 77  1  0
 79 53  1  0
 79 84  1  0
 79 80  1  0
 80 83  1  1
 80 81  1  0
 82 80  1  0
 84 87  1  0
 85 89  1  0
 85 84  1  0
 86 85  2  0
 89 88  1  0
 91 89  1  0
 91 92  1  0
 91 90  1  0
 94 93  1  0
M  ISO  4   3 100  15 100  51 101  52 101
M  END
>  <TORSDO>  (93) 
F 20

>  <SCORE>  (93) 
-12.956

>  <name>  (93) 
92

>  <ligand_id>  (93) 
92

>  <original_smiles>  (93) 
[H]c1c([H])c([H])c2c(c1[H])C([H])([H])C([H])([H])C([H])([H])C2([H])N([H])C(=O)C1([H])N(C(=O)C([H])(N([H])C(=O)C([H])(N([H])C([H])([H])[H])C([H])([H])[H])C(C([H])([H])[H])(C([H])([H])[H])C([H])([H])[H])C([H])([H])c2c([H])c(OC([H])([H])C([H])(C(=NOC([H])([H])[H])c3nc(N([H])C(=O)N4C([H])([H])C([H])([H])C([H])([H])C([H])(n5nc(-c6c([H])c([H])c(Oc7c([H])c([H])c(F)c([H])c7F)c([H])c6[H])c(C(=O)N([H])[H])c5N([H])[H])C4([H])[H])sc3N([H])[H])C([H])([H])[H])c([H])c([H])c2C1([H])[H]

>  <smiles>  (93) 
[H]c1c([H])c([H])c2c(c1[H])C([H])([H])C([H])([H])C([H])([H])C2([H])N([H])C(=O)C1([H])N(C(=O)C([H])(N([H])C(=O)C([H])(N([H])C([H])([H])[H])C([H])([H])[H])C(C([H])([H])[H])(C([H])([H])[H])C([H])([H])[H])C([H])([H])c2c([H])c(OC([H])([H])C([H])(C(=NOC([H])([H])[H])c3nc(N([H])C(=O)N4C([H])([H])C([H])([H])C([H])([H])C([H])(n5nc(-c6c([H])c([H])c(Oc7c([H])c([H])c(F)c([H])c7F)c([H])c6[H])c(C(=O)N([H])[H])c5N([H])[H])C4([H])[H])sc3N([H])[H])C([H])([H])[H])c([H])c([H])c2C1([H])[H]

$$$$
93:0:0
     RDKit          3D

 95103  0  0  1  0  0  0  0  0999 V2000
  -29.6620  -18.6620   20.1280 C   0  0  0  0  0  0  0  0  0  0  0  0
  -29.4720  -18.8530   18.7630 C   0  0  0  0  0  0  0  0  0  0  0  0
  -29.1250  -21.0350   20.0160 C   0  0  0  0  0  0  0  0  0  0  0  0
  -29.0680  -23.6630   20.1640 C   0  0  0  0  0  0  0  0  0  0  0  0
  -29.4230  -19.9400   20.8070 N   0  0  0  0  0  0  0  0  0  0  0  0
  -28.6030  -22.3730   20.4220 N   0  0  0  0  0  0  0  0  0  0  0  0
  -30.2770  -23.9090   20.2280 O   0  0  0  0  0  0  0  0  0  0  0  0
  -29.0770  -20.5240   18.3330 S   0  0  0  0  0  0  0  0  0  0  0  0
  -27.6020  -22.3630   20.5490 H   0  0  0  0  0  0  0  0  0  0  0  0
  -30.5980  -14.8530   20.4390 C   0  0  0  0  0  0  0  0  0  0  0  0
  -30.4100  -12.5570   19.4290 C   0  0  0  0  0  2  0  0  0  0  0  0
  -29.4950  -12.5700   18.1880 C   0  0  0  0  0  2  0  0  0  0  0  0
  -28.0180  -12.3940   18.5940 C   0  0  0  0  0  2  0  0  0  0  0  0
  -27.6100  -13.3040   19.7840 C   0  0  0  0  0  3  0  0  0  0  0  0
  -28.6530  -13.2740   20.9190 C   0  0  0  0  0  2  0  0  0  0  0  0
  -29.9410  -13.6430   20.3210 N   0  0  0  0  0  0  0  0  0  0  0  0
  -31.8190  -14.8700   20.2660 O   0  0  0  0  0  0  0  0  0  0  0  0
  -30.2790  -17.3380   20.7680 C   0  0  0  0  0  0  0  0  0  0  0  0
  -29.8610  -16.0440   20.4390 N   0  0  0  0  0  0  0  0  0  0  0  0
  -31.1730  -17.4890   21.6100 O   0  0  0  0  0  0  0  0  0  0  0  0
  -28.9260  -15.9800   20.0780 H   0  0  0  0  0  0  0  0  0  0  0  0
  -25.2100  -13.8900   20.4620 C   0  0  0  0  0  0  0  0  0  0  0  0
  -24.1400  -13.1160   20.8210 C   0  0  0  0  0  0  0  0  0  0  0  0
  -24.6100  -11.7660   20.8200 C   0  0  0  0  0  0  0  0  0  0  0  0
  -26.2620  -13.0120   20.2600 N   0  0  0  0  0  0  0  0  0  0  0  0
  -25.9080  -11.7310   20.5410 N   0  0  0  0  0  0  0  0  0  0  0  0
  -23.8840  -10.5030   21.0090 C   0  0  0  0  0  0  0  0  0  0  0  0
  -24.3000   -9.5480   21.9640 C   0  0  0  0  0  3  0  0  0  0  0  0
  -23.5730   -8.3520   22.1420 C   0  0  0  0  0  3  0  0  0  0  0  0
  -22.4160   -8.1010   21.3650 C   0  0  0  0  0  0  0  0  0  0  0  0
  -22.0220   -9.0450   20.4000 C   0  0  0  0  0  3  0  0  0  0  0  0
  -22.7490  -10.2330   20.2200 C   0  0  0  0  0  3  0  0  0  0  0  0
  -21.6630   -6.9550   21.4520 O   0  0  0  0  0  0  0  0  0  0  0  0
  -21.5890   -6.2280   22.6130 C   0  0  0  0  0  0  0  0  0  0  0  0
  -21.1280   -6.7980   23.8200 C   0  0  0  0  0  3  0  0  0  0  0  0
  -21.0020   -5.9960   24.9730 C   0  0  0  0  0  3  0  0  0  0  0  0
  -21.3270   -4.6270   24.9190 C   0  0  0  0  0  0  0  0  0  0  0  0
  -21.7810   -4.0590   23.7160 C   0  0  0  0  0  3  0  0  0  0  0  0
  -21.9090   -4.8560   22.5660 C   0  0  0  0  0  0  0  0  0  0  0  0
  -22.3260   -4.2980   21.4040 F   0  0  0  0  0  0  0  0  0  0  0  0
  -21.1990   -3.8560   26.0230 F   0  0  0  0  0  0  0  0  0  0  0  0
  -22.7350  -13.5900   21.0520 C   0  0  0  0  0  0  0  0  0  0  0  0
  -21.9880  -12.9030   21.9080 N   0  0  0  0  0  0  0  0  0  0  0  0
  -22.3080  -14.6070   20.5060 O   0  0  0  0  0  0  0  0  0  0  0  0
  -22.3470  -12.0790   22.3700 H   0  0  0  0  0  0  0  0  0  0  0  0
  -21.0440  -13.2020   22.1020 H   0  0  0  0  0  0  0  0  0  0  0  0
  -25.3710  -15.2580   20.2650 N   0  0  0  0  0  0  0  0  0  0  0  0
  -24.6020  -15.9130   20.3520 H   0  0  0  0  0  0  0  0  0  0  0  0
  -26.2160  -15.6910   19.9160 H   0  0  0  0  0  0  0  0  0  0  0  0
  -29.6030  -17.9570   17.6990 N   0  0  0  0  0  0  0  0  0  0  0  0
  -29.9750  -17.0150   17.7690 H   0  0  0  0  0  0  0  0  0  0  0  0
  -29.5230  -18.2560   16.7300 H   0  0  0  0  0  0  0  0  0  0  0  0
  -28.1610  -24.9210   18.2000 C   0  0  0  0  0  1  0  0  0  0  0  0
  -28.0650  -24.8710   19.7440 C   0  0  0  0  0  3  0  0  0  0  0  0
  -28.2780  -26.3080   20.2250 O   0  0  0  0  0  0  0  0  0  0  0  0
  -24.6200  -31.9070   23.2370 C   0  0  0  0  0  0  0  0  0  0  0  0
  -27.1960  -27.2480   20.1820 C   0  0  0  0  0  0  0  0  0  0  0  0
  -23.4160  -30.5170   21.5990 C   0  0  0  0  0  3  0  0  0  0  0  0
  -24.8570  -28.9570   20.1750 C   0  0  0  0  0  0  0  0  0  0  0  0
  -25.9680  -30.7940   21.4280 C   0  0  0  0  0  2  0  0  0  0  0  0
  -26.0390  -29.4100   20.7740 C   0  0  0  0  0  0  0  0  0  0  0  0
  -27.2100  -28.5710   20.7630 C   0  0  0  0  0  3  0  0  0  0  0  0
  -25.9690  -26.8790   19.5760 C   0  0  0  0  0  3  0  0  0  0  0  0
  -24.8310  -27.6990   19.5650 C   0  0  0  0  0  3  0  0  0  0  0  0
  -23.6300  -29.8450   20.2200 C   0  0  0  0  0  2  0  0  0  0  0  0
  -24.6890  -31.0900   22.1440 N   0  0  0  0  0  0  0  0  0  0  0  0
  -23.5340  -32.1930   23.7640 O   0  0  0  0  0  0  0  0  0  0  0  0
  -22.7400  -29.5050   22.5570 C   0  0  0  0  0  0  0  0  0  0  0  0
  -21.4130  -29.3340   22.4260 N   0  0  0  0  0  0  0  0  0  0  0  0
  -23.4100  -28.8760   23.3810 O   0  0  0  0  0  0  0  0  0  0  0  0
  -20.9290  -29.8900   21.7350 H   0  0  0  0  0  0  0  0  0  0  0  0
  -18.0260  -28.1590   22.9340 C   0  0  0  0  0  0  0  0  0  0  0  0
  -20.5870  -28.4010   23.1960 C   0  0  0  0  0  3  0  0  0  0  0  0
  -20.6770  -26.9700   22.6160 C   0  0  0  0  0  2  0  0  0  0  0  0
  -19.5690  -26.6580   21.6050 C   0  0  0  0  0  2  0  0  0  0  0  0
  -18.1910  -26.8110   22.2540 C   0  0  0  0  0  2  0  0  0  0  0  0
  -19.1500  -28.9130   23.3630 C   0  0  0  0  0  0  0  0  0  0  0  0
  -18.9410  -30.1740   23.9600 C   0  0  0  0  0  3  0  0  0  0  0  0
  -17.6400  -30.6830   24.1340 C   0  0  0  0  0  3  0  0  0  0  0  0
  -16.5300  -29.9250   23.7220 C   0  0  0  0  0  3  0  0  0  0  0  0
  -16.7230  -28.6660   23.1270 C   0  0  0  0  0  3  0  0  0  0  0  0
  -25.8990  -32.5400   23.8630 C   0  0  0  0  0  3  0  0  0  0  0  0
  -25.5880  -33.9390   24.1960 N   0  0  0  0  0  0  0  0  0  0  0  0
  -25.9180  -34.9950   23.4410 C   0  0  0  0  0  0  0  0  0  0  0  0
  -26.5830  -34.8950   22.4060 O   0  0  0  0  0  0  0  0  0  0  0  0
  -24.9970  -34.0910   25.0000 H   0  0  0  0  0  0  0  0  0  0  0  0
  -24.1910  -36.7940   23.0980 C   0  0  0  0  0  1  0  0  0  0  0  0
  -25.4340  -36.3820   23.9050 C   0  0  0  0  0  3  0  0  0  0  0  0
  -27.5690  -37.2630   24.7380 C   0  0  0  0  0  1  0  0  0  0  0  0
  -26.4670  -37.4340   23.7950 N   0  0  0  0  0  0  0  0  0  0  0  0
  -26.0630  -38.3550   23.9440 H   0  0  0  0  0  0  0  0  0  0  0  0
  -26.4070  -31.7690   25.1430 C   0  0  1  0  0  0  0  0  0  0  0  0
  -25.3090  -31.5340   26.2070 C   0  0  0  0  0  1  0  0  0  0  0  0
  -26.9900  -30.3900   24.7590 C   0  0  0  0  0  1  0  0  0  0  0  0
  -27.5560  -32.5620   25.8100 C   0  0  0  0  0  1  0  0  0  0  0  0
  1 18  1  0
  1  5  1  0
  2  1  2  0
  3  6  1  0
  3  5  2  0
  4  7  2  0
  4  6  1  0
  6  9  1  0
  8  2  1  0
  8  3  1  0
 10 19  1  0
 11 16  1  0
 12 13  1  0
 12 11  1  0
 14 13  1  0
 14 25  1  0
 14 15  1  0
 16 10  1  0
 16 15  1  0
 17 10  2  0
 18 20  2  0
 19 18  1  0
 21 19  1  0
 22 23  2  0
 23 42  1  0
 24 23  1  0
 24 27  1  0
 25 22  1  0
 25 26  1  0
 26 24  2  0
 27 28  1  0
 28 29  2  0
 30 33  1  0
 30 29  1  0
 31 30  2  0
 32 31  1  0
 32 27  2  0
 33 34  1  0
 34 35  1  0
 35 36  2  0
 37 36  1  0
 37 41  1  0
 38 37  2  0
 39 34  2  0
 39 38  1  0
 40 39  1  0
 42 43  1  0
 43 46  1  0
 43 45  1  0
 44 42  2  0
 47 48  1  0
 47 22  1  0
 49 47  1  0
 50 51  1  0
 50  2  1  0
 52 50  1  0
 54 53  1  0
 54  4  1  0
 54 55  1  0
 56 67  2  0
 57 55  1  0
 57 62  1  0
 58 66  1  0
 58 68  1  0
 59 65  1  0
 59 61  1  0
 60 66  1  0
 61 60  1  0
 62 61  2  0
 63 57  2  0
 64 63  1  0
 64 59  2  0
 65 58  1  0
 66 56  1  0
 68 70  2  0
 69 68  1  0
 71 69  1  0
 72 81  2  0
 72 77  1  0
 73 69  1  0
 73 77  1  0
 74 73  1  0
 75 76  1  0
 75 74  1  0
 76 72  1  0
 77 78  2  0
 78 79  1  0
 80 79  2  0
 81 80  1  0
 82 56  1  0
 82 83  1  0
 82 92  1  0
 83 86  1  0
 84 88  1  0
 84 83  1  0
 85 84  2  0
 88 87  1  0
 90 88  1  0
 90 91  1  0
 90 89  1  0
 92 95  1  1
 92 93  1  0
 94 92  1  0
M  ISO  4  10 100  19 100  54 101  55 101
M  END
>  <TORSDO>  (94) 
F 18

>  <SCORE>  (94) 
-15.097

>  <name>  (94) 
93

>  <ligand_id>  (94) 
93

>  <original_smiles>  (94) 
[H]c1c([H])c([H])c2c(c1[H])C([H])([H])C([H])([H])C([H])([H])C2([H])N([H])C(=O)C1([H])N(C(=O)C([H])(N([H])C(=O)C([H])(N([H])C([H])([H])[H])C([H])([H])[H])C(C([H])([H])[H])(C([H])([H])[H])C([H])([H])[H])C([H])([H])c2c([H])c(OC([H])(C(=O)N([H])c3nc(C(=O)N([H])C(=O)N4C([H])([H])C([H])([H])C([H])([H])C([H])(n5nc(-c6c([H])c([H])c(Oc7c([H])c([H])c(F)c([H])c7F)c([H])c6[H])c(C(=O)N([H])[H])c5N([H])[H])C4([H])[H])c(N([H])[H])s3)C([H])([H])[H])c([H])c([H])c2C1([H])[H]

>  <smiles>  (94) 
[H]c1c([H])c([H])c2c(c1[H])C([H])([H])C([H])([H])C([H])([H])C2([H])N([H])C(=O)C1([H])N(C(=O)C([H])(N([H])C(=O)C([H])(N([H])C([H])([H])[H])C([H])([H])[H])C(C([H])([H])[H])(C([H])([H])[H])C([H])([H])[H])C([H])([H])c2c([H])c(OC([H])(C(=O)N([H])c3nc(C(=O)N([H])C(=O)N4C([H])([H])C([H])([H])C([H])([H])C([H])(n5nc(-c6c([H])c([H])c(Oc7c([H])c([H])c(F)c([H])c7F)c([H])c6[H])c(C(=O)N([H])[H])c5N([H])[H])C4([H])[H])c(N([H])[H])s3)C([H])([H])[H])c([H])c([H])c2C1([H])[H]

$$$$
94:0:0
     RDKit          3D

 93101  0  0  1  0  0  0  0  0999 V2000
  -28.9140  -23.2850   20.2530 C   0  0  0  0  0  0  0  0  0  0  0  0
  -28.0260  -21.3980   18.8400 C   0  0  0  0  0  1  0  0  0  0  0  0
  -28.8060  -21.9230   19.9730 N   0  0  0  0  0  0  0  0  0  0  0  0
  -29.1450  -23.6550   21.4080 O   0  0  0  0  0  0  0  0  0  0  0  0
  -28.5520  -25.6140   19.1730 C   0  0  0  0  0  3  0  0  0  0  0  0
  -28.8350  -24.2640   19.1190 C   0  0  0  0  0  0  0  0  0  0  0  0
  -29.1130  -23.8120   17.8840 O   0  0  0  0  0  0  0  0  0  0  0  0
  -29.0390  -24.5420   17.2840 H   0  0  0  0  0  0  0  0  0  0  0  0
  -28.2860  -26.4830   20.2300 O   0  0  0  0  0  0  0  0  0  0  0  0
  -24.5900  -31.8700   23.2520 C   0  0  0  0  0  0  0  0  0  0  0  0
  -27.1860  -27.3440   20.1530 C   0  0  0  0  0  0  0  0  0  0  0  0
  -23.3730  -30.4780   21.6140 C   0  0  0  0  0  3  0  0  0  0  0  0
  -24.8150  -28.9360   20.1700 C   0  0  0  0  0  0  0  0  0  0  0  0
  -25.9100  -30.8020   21.4150 C   0  0  0  0  0  2  0  0  0  0  0  0
  -25.9860  -29.4280   20.7620 C   0  0  0  0  0  0  0  0  0  0  0  0
  -27.1730  -28.6400   20.7500 C   0  0  0  0  0  3  0  0  0  0  0  0
  -25.9890  -26.8920   19.5520 C   0  0  0  0  0  3  0  0  0  0  0  0
  -24.8170  -27.6720   19.5580 C   0  0  0  0  0  3  0  0  0  0  0  0
  -23.5780  -29.8080   20.2300 C   0  0  0  0  0  2  0  0  0  0  0  0
  -24.6440  -31.0670   22.1510 N   0  0  0  0  0  0  0  0  0  0  0  0
  -23.5100  -32.1460   23.7960 O   0  0  0  0  0  0  0  0  0  0  0  0
  -22.7170  -29.4580   22.5760 C   0  0  0  0  0  0  0  0  0  0  0  0
  -21.3910  -29.2800   22.4530 N   0  0  0  0  0  0  0  0  0  0  0  0
  -23.4000  -28.8320   23.3900 O   0  0  0  0  0  0  0  0  0  0  0  0
  -20.9000  -29.8370   21.7670 H   0  0  0  0  0  0  0  0  0  0  0  0
  -18.0180  -28.0740   22.9520 C   0  0  0  0  0  0  0  0  0  0  0  0
  -20.5740  -28.3420   23.2250 C   0  0  0  0  0  3  0  0  0  0  0  0
  -20.6820  -26.9090   22.6530 C   0  0  0  0  0  2  0  0  0  0  0  0
  -19.5820  -26.5800   21.6380 C   0  0  0  0  0  2  0  0  0  0  0  0
  -18.1990  -26.7240   22.2810 C   0  0  0  0  0  2  0  0  0  0  0  0
  -19.1340  -28.8410   23.3810 C   0  0  0  0  0  0  0  0  0  0  0  0
  -18.9100  -30.1050   23.9690 C   0  0  0  0  0  3  0  0  0  0  0  0
  -17.6030  -30.6030   24.1320 C   0  0  0  0  0  3  0  0  0  0  0  0
  -16.5020  -29.8340   23.7190 C   0  0  0  0  0  3  0  0  0  0  0  0
  -16.7100  -28.5710   23.1340 C   0  0  0  0  0  3  0  0  0  0  0  0
  -25.8780  -32.4980   23.8690 C   0  0  0  0  0  3  0  0  0  0  0  0
  -26.3970  -31.7260   25.1440 C   0  0  1  0  0  0  0  0  0  0  0  0
  -25.3080  -31.4950   26.2170 C   0  0  0  0  0  1  0  0  0  0  0  0
  -26.9720  -30.3460   24.7510 C   0  0  0  0  0  1  0  0  0  0  0  0
  -27.5540  -32.5160   25.8000 C   0  0  0  0  0  1  0  0  0  0  0  0
  -25.5750  -33.8980   24.2000 N   0  0  0  0  0  0  0  0  0  0  0  0
  -25.9080  -34.9500   23.4380 C   0  0  0  0  0  0  0  0  0  0  0  0
  -26.5720  -34.8420   22.4030 O   0  0  0  0  0  0  0  0  0  0  0  0
  -24.9860  -34.0550   25.0030 H   0  0  0  0  0  0  0  0  0  0  0  0
  -24.1850  -36.7490   23.0920 C   0  0  0  0  0  1  0  0  0  0  0  0
  -25.4280  -36.3400   23.8970 C   0  0  0  0  0  3  0  0  0  0  0  0
  -27.5710  -37.2170   24.7150 C   0  0  0  0  0  1  0  0  0  0  0  0
  -26.4640  -37.3890   23.7780 N   0  0  0  0  0  0  0  0  0  0  0  0
  -26.0620  -38.3110   23.9270 H   0  0  0  0  0  0  0  0  0  0  0  0
  -29.1430  -20.8390   20.9720 C   0  0  0  0  0  2  0  0  0  0  0  0
  -31.0100  -17.6320   19.4030 C   0  0  0  0  0  3  0  0  0  0  0  0
  -30.0870  -17.1650   20.3120 C   0  0  0  0  0  0  0  0  0  0  0  0
  -29.6830  -19.4880   20.4280 C   0  0  0  0  0  0  0  0  0  0  0  0
  -29.3320  -18.2430   20.8660 N   0  0  0  0  0  0  0  0  0  0  0  0
  -30.9840  -19.3800   19.2430 S   0  0  0  0  0  0  0  0  0  0  0  0
  -30.6190  -14.6490   20.2630 C   0  0  0  0  0  0  0  0  0  0  0  0
  -30.3520  -12.4200   19.2090 C   0  0  0  0  0  2  0  0  0  0  0  0
  -29.3950  -12.5700   18.0070 C   0  0  0  0  0  2  0  0  0  0  0  0
  -27.9290  -12.4160   18.4590 C   0  0  0  0  0  2  0  0  0  0  0  0
  -27.5950  -13.2690   19.7120 C   0  0  0  0  0  3  0  0  0  0  0  0
  -28.6730  -13.1160   20.8100 C   0  0  0  0  0  2  0  0  0  0  0  0
  -29.9730  -13.4410   20.2080 N   0  0  0  0  0  0  0  0  0  0  0  0
  -31.7830  -14.7530   19.8640 O   0  0  0  0  0  0  0  0  0  0  0  0
  -29.8760  -15.7500   20.6170 N   0  0  0  0  0  0  0  0  0  0  0  0
  -28.9920  -15.5340   21.0490 H   0  0  0  0  0  0  0  0  0  0  0  0
  -25.2120  -13.8610   20.4660 C   0  0  0  0  0  0  0  0  0  0  0  0
  -24.1540  -13.0850   20.8530 C   0  0  0  0  0  0  0  0  0  0  0  0
  -24.6200  -11.7340   20.8170 C   0  0  0  0  0  0  0  0  0  0  0  0
  -26.2550  -12.9830   20.2180 N   0  0  0  0  0  0  0  0  0  0  0  0
  -25.9060  -11.7000   20.4900 N   0  0  0  0  0  0  0  0  0  0  0  0
  -23.9000  -10.4700   21.0210 C   0  0  0  0  0  0  0  0  0  0  0  0
  -24.3530   -9.5020   21.9420 C   0  0  0  0  0  3  0  0  0  0  0  0
  -23.6320   -8.3020   22.1330 C   0  0  0  0  0  3  0  0  0  0  0  0
  -22.4440   -8.0640   21.4020 C   0  0  0  0  0  0  0  0  0  0  0  0
  -22.0100   -9.0220   20.4700 C   0  0  0  0  0  3  0  0  0  0  0  0
  -22.7310  -10.2130   20.2760 C   0  0  0  0  0  3  0  0  0  0  0  0
  -21.6940   -6.9180   21.5040 O   0  0  0  0  0  0  0  0  0  0  0  0
  -21.6770   -6.1670   22.6520 C   0  0  0  0  0  0  0  0  0  0  0  0
  -21.2890   -6.7130   23.8940 C   0  0  0  0  0  3  0  0  0  0  0  0
  -21.2190   -5.8890   25.0350 C   0  0  0  0  0  3  0  0  0  0  0  0
  -21.5290   -4.5200   24.9340 C   0  0  0  0  0  0  0  0  0  0  0  0
  -21.9120   -3.9730   23.6970 C   0  0  0  0  0  3  0  0  0  0  0  0
  -21.9830   -4.7940   22.5590 C   0  0  0  0  0  0  0  0  0  0  0  0
  -22.3320   -4.2580   21.3650 F   0  0  0  0  0  0  0  0  0  0  0  0
  -21.4550   -3.7260   26.0290 F   0  0  0  0  0  0  0  0  0  0  0  0
  -22.7590  -13.5590   21.1440 C   0  0  0  0  0  0  0  0  0  0  0  0
  -22.0450  -12.8620   22.0210 N   0  0  0  0  0  0  0  0  0  0  0  0
  -22.3110  -14.5810   20.6270 O   0  0  0  0  0  0  0  0  0  0  0  0
  -22.4210  -12.0360   22.4610 H   0  0  0  0  0  0  0  0  0  0  0  0
  -21.1110  -13.1620   22.2590 H   0  0  0  0  0  0  0  0  0  0  0  0
  -25.3690  -15.2310   20.2840 N   0  0  0  0  0  0  0  0  0  0  0  0
  -24.6000  -15.8810   20.4050 H   0  0  0  0  0  0  0  0  0  0  0  0
  -26.2080  -15.6760   19.9310 H   0  0  0  0  0  0  0  0  0  0  0  0
  1  4  2  0
  2  3  1  0
  3  1  1  0
  3 50  1  0
  5  9  1  0
  6  5  2  0
  6  1  1  0
  7  6  1  0
  8  7  1  0
 10 21  2  0
 11  9  1  0
 11 16  1  0
 12 20  1  0
 12 22  1  0
 13 19  1  0
 13 15  1  0
 14 20  1  0
 15 14  1  0
 16 15  2  0
 17 18  1  0
 17 11  2  0
 18 13  2  0
 19 12  1  0
 20 10  1  0
 22 24  2  0
 23 22  1  0
 25 23  1  0
 26 35  2  0
 26 31  1  0
 27 23  1  0
 27 31  1  0
 28 27  1  0
 29 30  1  0
 29 28  1  0
 30 26  1  0
 31 32  2  0
 32 33  1  0
 34 33  2  0
 35 34  1  0
 36 10  1  0
 36 41  1  0
 36 37  1  0
 37 40  1  1
 37 38  1  0
 39 37  1  0
 41 44  1  0
 42 46  1  0
 42 41  1  0
 43 42  2  0
 46 45  1  0
 48 46  1  0
 48 49  1  0
 48 47  1  0
 51 52  2  0
 52 64  1  0
 52 54  1  0
 53 54  2  0
 53 50  1  0
 55 51  1  0
 55 53  1  0
 56 64  1  0
 57 62  1  0
 58 59  1  0
 58 57  1  0
 60 59  1  0
 60 69  1  0
 60 61  1  0
 62 56  1  0
 62 61  1  0
 63 56  2  0
 64 65  1  0
 66 67  2  0
 67 86  1  0
 68 67  1  0
 68 71  1  0
 69 66  1  0
 69 70  1  0
 70 68  2  0
 71 72  1  0
 72 73  2  0
 74 77  1  0
 74 73  1  0
 75 74  2  0
 76 75  1  0
 76 71  2  0
 77 78  1  0
 78 79  1  0
 79 80  2  0
 81 80  1  0
 81 85  1  0
 82 81  2  0
 83 78  2  0
 83 82  1  0
 84 83  1  0
 86 87  1  0
 87 90  1  0
 87 89  1  0
 88 86  2  0
 91 92  1  0
 91 66  1  0
 93 91  1  0
M  ISO  4   5 101   9 101  56 100  64 100
M  END
>  <TORSDO>  (95) 
F 20

>  <SCORE>  (95) 
-14.130

>  <name>  (95) 
94

>  <ligand_id>  (95) 
94

>  <original_smiles>  (95) 
[H]OC(C(=O)N(C([H])([H])[H])C([H])([H])c1nc(N([H])C(=O)N2C([H])([H])C([H])([H])C([H])([H])C([H])(n3nc(-c4c([H])c([H])c(Oc5c([H])c([H])c(F)c([H])c5F)c([H])c4[H])c(C(=O)N([H])[H])c3N([H])[H])C2([H])[H])c([H])s1)=C([H])Oc1c([H])c([H])c2c(c1[H])C([H])([H])N(C(=O)C([H])(N([H])C(=O)C([H])(N([H])C([H])([H])[H])C([H])([H])[H])C(C([H])([H])[H])(C([H])([H])[H])C([H])([H])[H])C([H])(C(=O)N([H])C1([H])c3c([H])c([H])c([H])c([H])c3C([H])([H])C([H])([H])C1([H])[H])C2([H])[H]

>  <smiles>  (95) 
[H]OC(C(=O)N(C([H])([H])[H])C([H])([H])c1nc(N([H])C(=O)N2C([H])([H])C([H])([H])C([H])([H])C([H])(n3nc(-c4c([H])c([H])c(Oc5c([H])c([H])c(F)c([H])c5F)c([H])c4[H])c(C(=O)N([H])[H])c3N([H])[H])C2([H])[H])c([H])s1)=C([H])Oc1c([H])c([H])c2c(c1[H])C([H])([H])N(C(=O)C([H])(N([H])C(=O)C([H])(N([H])C([H])([H])[H])C([H])([H])[H])C(C([H])([H])[H])(C([H])([H])[H])C([H])([H])[H])C([H])(C(=O)N([H])C1([H])c3c([H])c([H])c([H])c([H])c3C([H])([H])C([H])([H])C1([H])[H])C2([H])[H]

$$$$
95:0:0
     RDKit          3D

 93101  0  0  1  0  0  0  0  0999 V2000
  -27.6760  -22.0020   21.3550 C   0  0  0  0  0  1  0  0  0  0  0  0
  -28.7900  -22.3400   20.3520 C   0  0  0  0  0  3  0  0  0  0  0  0
  -29.9730  -21.4340   20.5580 N   0  0  0  0  0  0  0  0  0  0  0  0
  -30.8360  -21.9610   20.4470 H   0  0  0  0  0  0  0  0  0  0  0  0
  -30.6340  -14.8190   20.3870 C   0  0  0  0  0  0  0  0  0  0  0  0
  -30.4370  -12.5440   19.3760 C   0  0  0  0  0  2  0  0  0  0  0  0
  -29.4980  -12.6060   18.1510 C   0  0  0  0  0  2  0  0  0  0  0  0
  -28.0280  -12.4290   18.5830 C   0  0  0  0  0  2  0  0  0  0  0  0
  -27.6490  -13.3330   19.7850 C   0  0  0  0  0  3  0  0  0  0  0  0
  -28.7040  -13.2500   20.9110 C   0  0  0  0  0  2  0  0  0  0  0  0
  -30.0070  -13.5950   20.3250 N   0  0  0  0  0  0  0  0  0  0  0  0
  -31.8160  -14.9170   20.0420 O   0  0  0  0  0  0  0  0  0  0  0  0
  -31.3470  -19.3380   20.5440 C   0  0  0  0  0  0  0  0  0  0  0  0
  -30.1170  -19.9840   20.5310 C   0  0  0  0  0  0  0  0  0  0  0  0
  -30.0990  -17.3770   20.5640 C   0  0  0  0  0  0  0  0  0  0  0  0
  -32.6850  -20.0120   20.5680 C   0  0  0  0  0  1  0  0  0  0  0  0
  -31.3240  -17.9190   20.5550 N   0  0  0  0  0  0  0  0  0  0  0  0
  -29.8410  -15.9240   20.6350 N   0  0  0  0  0  0  0  0  0  0  0  0
  -28.8640  -18.7070   20.5320 S   0  0  0  0  0  0  0  0  0  0  0  0
  -28.8860  -15.6860   20.8470 H   0  0  0  0  0  0  0  0  0  0  0  0
  -25.2590  -13.9300   20.5100 C   0  0  0  0  0  0  0  0  0  0  0  0
  -24.1910  -13.1570   20.8780 C   0  0  0  0  0  0  0  0  0  0  0  0
  -24.6520  -11.8050   20.8440 C   0  0  0  0  0  0  0  0  0  0  0  0
  -26.3020  -13.0490   20.2740 N   0  0  0  0  0  0  0  0  0  0  0  0
  -25.9430  -11.7660   20.5380 N   0  0  0  0  0  0  0  0  0  0  0  0
  -23.9240  -10.5440   21.0300 C   0  0  0  0  0  0  0  0  0  0  0  0
  -24.3470   -9.5780   21.9700 C   0  0  0  0  0  3  0  0  0  0  0  0
  -23.6190   -8.3810   22.1430 C   0  0  0  0  0  3  0  0  0  0  0  0
  -22.4550   -8.1400   21.3750 C   0  0  0  0  0  0  0  0  0  0  0  0
  -22.0510   -9.0950   20.4250 C   0  0  0  0  0  3  0  0  0  0  0  0
  -22.7790  -10.2830   20.2500 C   0  0  0  0  0  3  0  0  0  0  0  0
  -21.6990   -6.9950   21.4580 O   0  0  0  0  0  0  0  0  0  0  0  0
  -21.6240   -6.2650   22.6160 C   0  0  0  0  0  0  0  0  0  0  0  0
  -21.1410   -6.8230   23.8210 C   0  0  0  0  0  3  0  0  0  0  0  0
  -21.0160   -6.0170   24.9700 C   0  0  0  0  0  3  0  0  0  0  0  0
  -21.3620   -4.6540   24.9160 C   0  0  0  0  0  0  0  0  0  0  0  0
  -21.8380   -4.0950   23.7170 C   0  0  0  0  0  3  0  0  0  0  0  0
  -21.9660   -4.8980   22.5700 C   0  0  0  0  0  0  0  0  0  0  0  0
  -22.4050   -4.3490   21.4110 F   0  0  0  0  0  0  0  0  0  0  0  0
  -21.2350   -3.8780   26.0170 F   0  0  0  0  0  0  0  0  0  0  0  0
  -22.7930  -13.6360   21.1470 C   0  0  0  0  0  0  0  0  0  0  0  0
  -22.0640  -12.9390   22.0120 N   0  0  0  0  0  0  0  0  0  0  0  0
  -22.3570  -14.6600   20.6240 O   0  0  0  0  0  0  0  0  0  0  0  0
  -22.4290  -12.1090   22.4540 H   0  0  0  0  0  0  0  0  0  0  0  0
  -21.1260  -13.2440   22.2340 H   0  0  0  0  0  0  0  0  0  0  0  0
  -25.4250  -15.3010   20.3340 N   0  0  0  0  0  0  0  0  0  0  0  0
  -24.6510  -15.9500   20.4280 H   0  0  0  0  0  0  0  0  0  0  0  0
  -26.2550  -15.7340   19.9510 H   0  0  0  0  0  0  0  0  0  0  0  0
  -29.1700  -23.9210   20.4380 C   0  0  0  0  0  3  0  0  0  0  0  0
  -30.3150  -24.0740   19.6150 O   0  0  0  0  0  0  0  0  0  0  0  0
  -30.6110  -24.9740   19.7160 H   0  0  0  0  0  0  0  0  0  0  0  0
  -28.1060  -25.0450   19.9790 C   0  0  0  0  0  2  0  0  0  0  0  0
  -28.3190  -26.5050   20.2450 O   0  0  0  0  0  0  0  0  0  0  0  0
  -24.6250  -31.9440   23.2840 C   0  0  0  0  0  0  0  0  0  0  0  0
  -27.2080  -27.3780   20.1840 C   0  0  0  0  0  0  0  0  0  0  0  0
  -23.4070  -30.5520   21.6490 C   0  0  0  0  0  3  0  0  0  0  0  0
  -24.8450  -29.0100   20.1990 C   0  0  0  0  0  0  0  0  0  0  0  0
  -25.9440  -30.8690   21.4430 C   0  0  0  0  0  2  0  0  0  0  0  0
  -26.0210  -29.4910   20.7890 C   0  0  0  0  0  0  0  0  0  0  0  0
  -27.2050  -28.6870   20.7710 C   0  0  0  0  0  3  0  0  0  0  0  0
  -26.0070  -26.9660   19.5590 C   0  0  0  0  0  3  0  0  0  0  0  0
  -24.8420  -27.7550   19.5730 C   0  0  0  0  0  3  0  0  0  0  0  0
  -23.6090  -29.8850   20.2640 C   0  0  0  0  0  2  0  0  0  0  0  0
  -24.6790  -31.1400   22.1810 N   0  0  0  0  0  0  0  0  0  0  0  0
  -23.5450  -32.2170   23.8300 O   0  0  0  0  0  0  0  0  0  0  0  0
  -22.7530  -29.5300   22.6100 C   0  0  0  0  0  0  0  0  0  0  0  0
  -21.4290  -29.3390   22.4820 N   0  0  0  0  0  0  0  0  0  0  0  0
  -23.4380  -28.9130   23.4310 O   0  0  0  0  0  0  0  0  0  0  0  0
  -20.9370  -29.8910   21.7940 H   0  0  0  0  0  0  0  0  0  0  0  0
  -18.0640  -28.0990   22.9680 C   0  0  0  0  0  0  0  0  0  0  0  0
  -20.6170  -28.3940   23.2530 C   0  0  0  0  0  3  0  0  0  0  0  0
  -20.7430  -26.9600   22.6870 C   0  0  0  0  0  2  0  0  0  0  0  0
  -19.6510  -26.6160   21.6670 C   0  0  0  0  0  2  0  0  0  0  0  0
  -18.2630  -26.7470   22.3030 C   0  0  0  0  0  2  0  0  0  0  0  0
  -19.1690  -28.8790   23.4000 C   0  0  0  0  0  0  0  0  0  0  0  0
  -18.9290  -30.1420   23.9820 C   0  0  0  0  0  3  0  0  0  0  0  0
  -17.6170  -30.6250   24.1380 C   0  0  0  0  0  3  0  0  0  0  0  0
  -16.5260  -29.8420   23.7230 C   0  0  0  0  0  3  0  0  0  0  0  0
  -16.7510  -28.5800   23.1420 C   0  0  0  0  0  3  0  0  0  0  0  0
  -25.9120  -32.5750   23.8970 C   0  0  0  0  0  3  0  0  0  0  0  0
  -26.4320  -31.8080   25.1740 C   0  0  1  0  0  0  0  0  0  0  0  0
  -25.3420  -31.5740   26.2480 C   0  0  0  0  0  1  0  0  0  0  0  0
  -27.0110  -30.4270   24.7830 C   0  0  0  0  0  1  0  0  0  0  0  0
  -27.5860  -32.6020   25.8310 C   0  0  0  0  0  1  0  0  0  0  0  0
  -25.6070  -33.9750   24.2250 N   0  0  0  0  0  0  0  0  0  0  0  0
  -25.9180  -35.0240   23.4520 C   0  0  0  0  0  0  0  0  0  0  0  0
  -26.5620  -34.9150   22.4050 O   0  0  0  0  0  0  0  0  0  0  0  0
  -25.0320  -34.1320   25.0400 H   0  0  0  0  0  0  0  0  0  0  0  0
  -24.1740  -36.8100   23.1420 C   0  0  0  0  0  1  0  0  0  0  0  0
  -25.4420  -36.4140   23.9150 C   0  0  0  0  0  3  0  0  0  0  0  0
  -27.5960  -37.3180   24.6720 C   0  0  0  0  0  1  0  0  0  0  0  0
  -26.4660  -37.4700   23.7580 N   0  0  0  0  0  0  0  0  0  0  0  0
  -26.0620  -38.3900   23.9080 H   0  0  0  0  0  0  0  0  0  0  0  0
  2 49  1  0
  2  3  1  0
  2  1  1  0
  4  3  1  0
  5 18  1  0
  6 11  1  0
  7  8  1  0
  7  6  1  0
  9  8  1  0
  9 24  1  0
  9 10  1  0
 11  5  1  0
 11 10  1  0
 12  5  2  0
 13 17  1  0
 13 16  1  0
 14 19  1  0
 14 13  2  0
 14  3  1  0
 15 18  1  0
 17 15  2  0
 18 20  1  0
 19 15  1  0
 21 22  2  0
 22 41  1  0
 23 22  1  0
 23 26  1  0
 24 21  1  0
 24 25  1  0
 25 23  2  0
 26 27  1  0
 27 28  2  0
 29 32  1  0
 29 28  1  0
 30 29  2  0
 31 30  1  0
 31 26  2  0
 32 33  1  0
 33 34  1  0
 34 35  2  0
 36 35  1  0
 36 40  1  0
 37 36  2  0
 38 33  2  0
 38 37  1  0
 39 38  1  0
 41 42  1  0
 42 45  1  0
 42 44  1  0
 43 41  2  0
 46 47  1  0
 46 21  1  0
 48 46  1  0
 49 52  1  0
 50 51  1  0
 50 49  1  0
 52 53  1  0
 54 65  2  0
 55 53  1  0
 55 60  1  0
 56 64  1  0
 56 66  1  0
 57 63  1  0
 57 59  1  0
 58 64  1  0
 59 58  1  0
 60 59  2  0
 61 62  1  0
 61 55  2  0
 62 57  2  0
 63 56  1  0
 64 54  1  0
 66 68  2  0
 67 66  1  0
 69 67  1  0
 70 79  2  0
 70 75  1  0
 71 67  1  0
 71 75  1  0
 72 71  1  0
 73 74  1  0
 73 72  1  0
 74 70  1  0
 75 76  2  0
 76 77  1  0
 78 77  2  0
 79 78  1  0
 80 54  1  0
 80 85  1  0
 80 81  1  0
 81 84  1  1
 81 82  1  0
 83 81  1  0
 85 88  1  0
 86 90  1  0
 86 85  1  0
 87 86  2  0
 90 89  1  0
 92 93  1  0
 92 90  1  0
 92 91  1  0
M  ISO  4   5 100  18 100  52 101  53 101
M  END
>  <TORSDO>  (96) 
F 20

>  <SCORE>  (96) 
-14.015

>  <name>  (96) 
95

>  <ligand_id>  (96) 
95

>  <original_smiles>  (96) 
[H]OC([H])(C([H])([H])Oc1c([H])c([H])c2c(c1[H])C([H])([H])N(C(=O)C([H])(N([H])C(=O)C([H])(N([H])C([H])([H])[H])C([H])([H])[H])C(C([H])([H])[H])(C([H])([H])[H])C([H])([H])[H])C([H])(C(=O)N([H])C1([H])c3c([H])c([H])c([H])c([H])c3C([H])([H])C([H])([H])C1([H])[H])C2([H])[H])C([H])(N([H])c1sc(N([H])C(=O)N2C([H])([H])C([H])([H])C([H])([H])C([H])(n3nc(-c4c([H])c([H])c(Oc5c([H])c([H])c(F)c([H])c5F)c([H])c4[H])c(C(=O)N([H])[H])c3N([H])[H])C2([H])[H])nc1C([H])([H])[H])C([H])([H])[H]

>  <smiles>  (96) 
[H]OC([H])(C([H])([H])Oc1c([H])c([H])c2c(c1[H])C([H])([H])N(C(=O)C([H])(N([H])C(=O)C([H])(N([H])C([H])([H])[H])C([H])([H])[H])C(C([H])([H])[H])(C([H])([H])[H])C([H])([H])[H])C([H])(C(=O)N([H])C1([H])c3c([H])c([H])c([H])c([H])c3C([H])([H])C([H])([H])C1([H])[H])C2([H])[H])C([H])(N([H])c1sc(N([H])C(=O)N2C([H])([H])C([H])([H])C([H])([H])C([H])(n3nc(-c4c([H])c([H])c(Oc5c([H])c([H])c(F)c([H])c5F)c([H])c4[H])c(C(=O)N([H])[H])c3N([H])[H])C2([H])[H])nc1C([H])([H])[H])C([H])([H])[H]

$$$$
