0:0:0
     RDKit          3D

 97105  0  0  1  0  0  0  0  0999 V2000
  -29.4520  -21.8200   20.1500 C   0  0  0  0  0  3  0  0  0  0  0  0
  -30.5100  -15.1820   20.3430 C   0  0  0  0  0  0  0  0  0  0  0  0
  -30.4650  -12.8000   19.4140 C   0  0  0  0  0  2  0  0  0  0  0  0
  -29.5420  -12.7230   18.1710 C   0  0  0  0  0  2  0  0  0  0  0  0
  -28.0780  -12.4880   18.5920 C   0  0  0  0  0  2  0  0  0  0  0  0
  -27.6470  -13.3960   19.7750 C   0  0  0  0  0  3  0  0  0  0  0  0
  -28.6980  -13.4180   20.9050 C   0  0  0  0  0  2  0  0  0  0  0  0
  -29.9610  -13.8870   20.3170 N   0  0  0  0  0  0  0  0  0  0  0  0
  -31.6910  -15.2640   19.9840 O   0  0  0  0  0  0  0  0  0  0  0  0
  -28.6780  -18.1360   19.1550 C   0  0  0  0  0  0  0  0  0  0  0  0
  -29.5410  -17.8300   20.2570 C   0  0  0  0  0  0  0  0  0  0  0  0
  -28.5010  -19.5150   19.1180 C   0  0  0  0  0  0  0  0  0  0  0  0
  -28.0630  -17.1420   18.2050 C   0  0  0  0  0  1  0  0  0  0  0  0
  -29.8060  -19.0950   20.8430 N   0  0  0  0  0  0  0  0  0  0  0  0
  -29.2040  -20.2000   20.1130 N   0  0  0  0  0  0  0  0  0  0  0  0
  -29.7310  -16.3460   20.7130 N   0  0  0  0  0  0  0  0  0  0  0  0
  -28.9020  -16.0260   21.1870 H   0  0  0  0  0  0  0  0  0  0  0  0
  -25.2620  -13.9430   20.5180 C   0  0  0  0  0  0  0  0  0  0  0  0
  -24.2020  -13.1570   20.8780 C   0  0  0  0  0  0  0  0  0  0  0  0
  -24.6800  -11.8100   20.8370 C   0  0  0  0  0  0  0  0  0  0  0  0
  -26.3120  -13.0760   20.2670 N   0  0  0  0  0  0  0  0  0  0  0  0
  -25.9700  -11.7870   20.5250 N   0  0  0  0  0  0  0  0  0  0  0  0
  -23.9620  -10.5390   21.0200 C   0  0  0  0  0  0  0  0  0  0  0  0
  -24.3840   -9.5790   21.9660 C   0  0  0  0  0  3  0  0  0  0  0  0
  -23.6620   -8.3770   22.1360 C   0  0  0  0  0  3  0  0  0  0  0  0
  -22.5040   -8.1270   21.3630 C   0  0  0  0  0  0  0  0  0  0  0  0
  -22.1000   -9.0770   20.4100 C   0  0  0  0  0  3  0  0  0  0  0  0
  -22.8220  -10.2710   20.2360 C   0  0  0  0  0  3  0  0  0  0  0  0
  -21.7540   -6.9770   21.4430 O   0  0  0  0  0  0  0  0  0  0  0  0
  -21.6790   -6.2470   22.6020 C   0  0  0  0  0  0  0  0  0  0  0  0
  -21.1780   -6.8020   23.8010 C   0  0  0  0  0  3  0  0  0  0  0  0
  -21.0510   -5.9950   24.9500 C   0  0  0  0  0  3  0  0  0  0  0  0
  -21.4130   -4.6360   24.9000 C   0  0  0  0  0  0  0  0  0  0  0  0
  -21.9100   -4.0830   23.7070 C   0  0  0  0  0  3  0  0  0  0  0  0
  -22.0370   -4.8860   22.5600 C   0  0  0  0  0  0  0  0  0  0  0  0
  -22.4950   -4.3430   21.4060 F   0  0  0  0  0  0  0  0  0  0  0  0
  -21.2850   -3.8590   26.0020 F   0  0  0  0  0  0  0  0  0  0  0  0
  -22.8000  -13.6240   21.1450 C   0  0  0  0  0  0  0  0  0  0  0  0
  -22.0670  -12.9150   21.9970 N   0  0  0  0  0  0  0  0  0  0  0  0
  -22.3650  -14.6550   20.6360 O   0  0  0  0  0  0  0  0  0  0  0  0
  -22.4270  -12.0820   22.4400 H   0  0  0  0  0  0  0  0  0  0  0  0
  -21.1260  -13.2110   22.2160 H   0  0  0  0  0  0  0  0  0  0  0  0
  -25.4200  -15.3160   20.3610 N   0  0  0  0  0  0  0  0  0  0  0  0
  -24.6570  -15.9660   20.5060 H   0  0  0  0  0  0  0  0  0  0  0  0
  -26.2720  -15.7670   20.0590 H   0  0  0  0  0  0  0  0  0  0  0  0
  -27.7650  -20.2350   18.1920 N   0  0  0  0  0  0  0  0  0  0  0  0
  -27.2720  -19.8110   17.4140 H   0  0  0  0  0  0  0  0  0  0  0  0
  -27.6720  -21.2440   18.2210 H   0  0  0  0  0  0  0  0  0  0  0  0
  -31.9980  -21.2240   19.9050 C   0  0  0  0  0  1  0  0  0  0  0  0
  -30.9390  -22.1860   20.4830 C   0  0  0  0  0  3  0  0  0  0  0  0
  -31.4080  -23.9350   18.5910 C   0  0  0  0  0  1  0  0  0  0  0  0
  -31.3380  -23.6440   20.1050 C   0  0  0  0  0  2  0  0  0  0  0  0
  -28.4310  -23.0780   20.7340 C   0  0  0  0  0  3  0  0  0  0  0  0
  -27.1880  -22.4420   20.9970 O   0  0  0  0  0  0  0  0  0  0  0  0
  -27.3640  -21.6670   21.5240 H   0  0  0  0  0  0  0  0  0  0  0  0
  -28.0500  -24.6100   20.0010 C   0  0  0  0  0  2  0  0  0  0  0  0
  -28.1930  -26.1350   20.4370 O   0  0  0  0  0  0  0  0  0  0  0  0
  -24.6040  -31.9370   23.3050 C   0  0  0  0  0  0  0  0  0  0  0  0
  -27.1760  -27.1700   20.2990 C   0  0  0  0  0  0  0  0  0  0  0  0
  -23.4150  -30.5410   21.6620 C   0  0  0  0  0  3  0  0  0  0  0  0
  -24.8710  -28.9720   20.2330 C   0  0  0  0  0  0  0  0  0  0  0  0
  -25.9740  -30.7890   21.5210 C   0  0  0  0  0  2  0  0  0  0  0  0
  -26.0440  -29.3940   20.8680 C   0  0  0  0  0  0  0  0  0  0  0  0
  -27.1930  -28.5060   20.8930 C   0  0  0  0  0  3  0  0  0  0  0  0
  -25.9900  -26.8920   19.5800 C   0  0  0  0  0  3  0  0  0  0  0  0
  -24.8630  -27.7390   19.5680 C   0  0  0  0  0  3  0  0  0  0  0  0
  -23.6440  -29.8720   20.2800 C   0  0  0  0  0  2  0  0  0  0  0  0
  -24.6840  -31.1120   22.2170 N   0  0  0  0  0  0  0  0  0  0  0  0
  -23.5140  -32.2240   23.8270 O   0  0  0  0  0  0  0  0  0  0  0  0
  -22.7330  -29.5310   22.6180 C   0  0  0  0  0  0  0  0  0  0  0  0
  -21.4090  -29.3440   22.4720 N   0  0  0  0  0  0  0  0  0  0  0  0
  -23.3980  -28.9190   23.4600 O   0  0  0  0  0  0  0  0  0  0  0  0
  -20.9290  -29.8920   21.7700 H   0  0  0  0  0  0  0  0  0  0  0  0
  -18.0320  -28.1050   22.9270 C   0  0  0  0  0  0  0  0  0  0  0  0
  -20.5840  -28.4050   23.2360 C   0  0  0  0  0  3  0  0  0  0  0  0
  -20.7140  -26.9680   22.6790 C   0  0  0  0  0  2  0  0  0  0  0  0
  -19.6350  -26.6210   21.6480 C   0  0  0  0  0  2  0  0  0  0  0  0
  -18.2400  -26.7530   22.2670 C   0  0  0  0  0  2  0  0  0  0  0  0
  -19.1330  -28.8870   23.3690 C   0  0  0  0  0  0  0  0  0  0  0  0
  -18.8860  -30.1510   23.9480 C   0  0  0  0  0  3  0  0  0  0  0  0
  -17.5710  -30.6320   24.0930 C   0  0  0  0  0  3  0  0  0  0  0  0
  -16.4850  -29.8480   23.6680 C   0  0  0  0  0  3  0  0  0  0  0  0
  -16.7170  -28.5870   23.0900 C   0  0  0  0  0  3  0  0  0  0  0  0
  -25.8790  -32.5760   23.9380 C   0  0  0  0  0  3  0  0  0  0  0  0
  -25.5780  -33.9900   24.2230 N   0  0  0  0  0  0  0  0  0  0  0  0
  -25.9440  -35.0210   23.4500 C   0  0  0  0  0  0  0  0  0  0  0  0
  -26.6340  -34.8840   22.4390 O   0  0  0  0  0  0  0  0  0  0  0  0
  -24.9670  -34.1700   25.0050 H   0  0  0  0  0  0  0  0  0  0  0  0
  -24.2610  -36.8410   23.0060 C   0  0  0  0  0  1  0  0  0  0  0  0
  -25.4670  -36.4280   23.8650 C   0  0  0  0  0  3  0  0  0  0  0  0
  -27.5830  -37.2950   24.7590 C   0  0  0  0  0  1  0  0  0  0  0  0
  -26.5220  -37.4600   23.7670 N   0  0  0  0  0  0  0  0  0  0  0  0
  -26.1260  -38.3900   23.8820 H   0  0  0  0  0  0  0  0  0  0  0  0
  -26.3540  -31.8420   25.2520 C   0  0  1  0  0  0  0  0  0  0  0  0
  -25.2320  -31.6530   26.3000 C   0  0  0  0  0  1  0  0  0  0  0  0
  -26.9290  -30.4450   24.9270 C   0  0  0  0  0  1  0  0  0  0  0  0
  -27.4990  -32.6420   25.9160 C   0  0  0  0  0  1  0  0  0  0  0  0
  1 50  1  0
  1 53  1  0
  2 16  1  0
  3  8  1  0
  4  5  1  0
  4  3  1  0
  6  5  1  0
  6 21  1  0
  6  7  1  0
  8  2  1  0
  8  7  1  0
  9  2  2  0
 10 11  1  0
 11 16  1  0
 11 14  2  0
 12 10  2  0
 12 15  1  0
 13 10  1  0
 15  1  1  0
 15 14  1  0
 16 17  1  0
 18 19  2  0
 19 38  1  0
 20 19  1  0
 20 23  1  0
 21 18  1  0
 21 22  1  0
 22 20  2  0
 23 24  1  0
 24 25  2  0
 26 29  1  0
 26 25  1  0
 27 26  2  0
 28 27  1  0
 28 23  2  0
 29 30  1  0
 30 31  1  0
 31 32  2  0
 33 32  1  0
 33 37  1  0
 34 33  2  0
 35 30  2  0
 35 34  1  0
 36 35  1  0
 38 39  1  0
 39 42  1  0
 39 41  1  0
 40 38  2  0
 43 44  1  0
 43 18  1  0
 45 43  1  0
 46 48  1  0
 46 12  1  0
 47 46  1  0
 50 49  1  0
 51 52  1  0
 52 50  1  0
 53 56  1  0
 53 54  1  0
 54 55  1  0
 56 57  1  0
 58 69  2  0
 59 57  1  0
 59 64  1  0
 60 68  1  0
 60 70  1  0
 61 67  1  0
 61 63  1  0
 62 68  1  0
 63 64  2  0
 63 62  1  0
 65 59  2  0
 66 65  1  0
 66 61  2  0
 67 60  1  0
 68 58  1  0
 70 72  2  0
 71 70  1  0
 73 71  1  0
 74 83  2  0
 74 79  1  0
 75 71  1  0
 75 79  1  0
 76 75  1  0
 77 78  1  0
 77 76  1  0
 78 74  1  0
 79 80  2  0
 80 81  1  0
 82 81  2  0
 83 82  1  0
 84 58  1  0
 84 85  1  0
 84 94  1  0
 85 88  1  0
 86 90  1  0
 86 85  1  0
 87 86  2  0
 90 89  1  0
 92 90  1  0
 92 93  1  0
 92 91  1  0
 94 97  1  1
 94 95  1  0
 96 94  1  0
M  ISO  4   2 100  16 100  56 101  57 101
M  END
>  <TORSDO>  (1) 
F 22

>  <SCORE>  (1) 
-14.867

>  <name>  (1) 
0

>  <ligand_id>  (1) 
0

>  <original_smiles>  (1) 
[H]OC([H])(C([H])([H])Oc1c([H])c([H])c2c(c1[H])C([H])([H])N(C(=O)C([H])(N([H])C(=O)C([H])(N([H])C([H])([H])[H])C([H])([H])[H])C(C([H])([H])[H])(C([H])([H])[H])C([H])([H])[H])C([H])(C(=O)N([H])C1([H])c3c([H])c([H])c([H])c([H])c3C([H])([H])C([H])([H])C1([H])[H])C2([H])[H])C([H])(n1nc(N([H])C(=O)N2C([H])([H])C([H])([H])C([H])([H])C([H])(n3nc(-c4c([H])c([H])c(Oc5c([H])c([H])c(F)c([H])c5F)c([H])c4[H])c(C(=O)N([H])[H])c3N([H])[H])C2([H])[H])c(C([H])([H])[H])c1N([H])[H])C([H])(C([H])([H])[H])C([H])([H])C([H])([H])[H]

>  <smiles>  (1) 
[H]OC([H])(C([H])([H])Oc1c([H])c([H])c2c(c1[H])C([H])([H])N(C(=O)C([H])(N([H])C(=O)C([H])(N([H])C([H])([H])[H])C([H])([H])[H])C(C([H])([H])[H])(C([H])([H])[H])C([H])([H])[H])C([H])(C(=O)N([H])C1([H])c3c([H])c([H])c([H])c([H])c3C([H])([H])C([H])([H])C1([H])[H])C2([H])[H])C([H])(n1nc(N([H])C(=O)N2C([H])([H])C([H])([H])C([H])([H])C([H])(n3nc(-c4c([H])c([H])c(Oc5c([H])c([H])c(F)c([H])c5F)c([H])c4[H])c(C(=O)N([H])[H])c3N([H])[H])C2([H])[H])c(C([H])([H])[H])c1N([H])[H])C([H])(C([H])([H])[H])C([H])([H])C([H])([H])[H]

$$$$
1:0:0
     RDKit          3D

 93101  0  0  1  0  0  0  0  0999 V2000
  -28.5180  -21.6910   20.0590 C   0  0  0  0  0  3  0  0  0  0  0  0
  -31.1740  -18.4140   20.0020 C   0  0  0  0  0  3  0  0  0  0  0  0
  -29.9480  -17.8400   20.2530 C   0  0  0  0  0  0  0  0  0  0  0  0
  -29.4050  -20.2940   20.1600 C   0  0  0  0  0  0  0  0  0  0  0  0
  -28.9740  -18.9590   20.3350 N   0  0  0  0  0  0  0  0  0  0  0  0
  -31.1480  -20.1960   19.8630 S   0  0  0  0  0  0  0  0  0  0  0  0
  -30.5290  -15.1340   20.2440 C   0  0  0  0  0  0  0  0  0  0  0  0
  -30.4170  -12.7620   19.3330 C   0  0  0  0  0  2  0  0  0  0  0  0
  -29.4660  -12.6940   18.1160 C   0  0  0  0  0  2  0  0  0  0  0  0
  -28.0190  -12.4550   18.5800 C   0  0  0  0  0  2  0  0  0  0  0  0
  -27.6120  -13.3940   19.7450 C   0  0  0  0  0  3  0  0  0  0  0  0
  -28.6860  -13.4440   20.8550 C   0  0  0  0  0  2  0  0  0  0  0  0
  -29.9440  -13.8630   20.2210 N   0  0  0  0  0  0  0  0  0  0  0  0
  -31.7330  -15.1840   19.9660 O   0  0  0  0  0  0  0  0  0  0  0  0
  -29.7280  -16.3150   20.3810 N   0  0  0  0  0  0  0  0  0  0  0  0
  -28.7660  -16.0790   20.5680 H   0  0  0  0  0  0  0  0  0  0  0  0
  -25.2510  -13.9590   20.5480 C   0  0  0  0  0  0  0  0  0  0  0  0
  -24.1940  -13.1760   20.9240 C   0  0  0  0  0  0  0  0  0  0  0  0
  -24.6570  -11.8260   20.8620 C   0  0  0  0  0  0  0  0  0  0  0  0
  -26.2870  -13.0850   20.2690 N   0  0  0  0  0  0  0  0  0  0  0  0
  -25.9420  -11.7970   20.5250 N   0  0  0  0  0  0  0  0  0  0  0  0
  -23.9350  -10.5610   21.0430 C   0  0  0  0  0  0  0  0  0  0  0  0
  -24.3640   -9.5900   21.9740 C   0  0  0  0  0  3  0  0  0  0  0  0
  -23.6380   -8.3920   22.1440 C   0  0  0  0  0  3  0  0  0  0  0  0
  -22.4700   -8.1560   21.3820 C   0  0  0  0  0  0  0  0  0  0  0  0
  -22.0590   -9.1150   20.4390 C   0  0  0  0  0  3  0  0  0  0  0  0
  -22.7860  -10.3050   20.2680 C   0  0  0  0  0  3  0  0  0  0  0  0
  -21.7170   -7.0090   21.4610 O   0  0  0  0  0  0  0  0  0  0  0  0
  -21.6370   -6.2780   22.6190 C   0  0  0  0  0  0  0  0  0  0  0  0
  -21.1280   -6.8290   23.8150 C   0  0  0  0  0  3  0  0  0  0  0  0
  -20.9990   -6.0250   24.9630 C   0  0  0  0  0  3  0  0  0  0  0  0
  -21.3700   -4.6670   24.9170 C   0  0  0  0  0  0  0  0  0  0  0  0
  -21.8710   -4.1140   23.7260 C   0  0  0  0  0  3  0  0  0  0  0  0
  -22.0020   -4.9170   22.5800 C   0  0  0  0  0  0  0  0  0  0  0  0
  -22.4680   -4.3750   21.4280 F   0  0  0  0  0  0  0  0  0  0  0  0
  -21.2370   -3.8910   26.0170 F   0  0  0  0  0  0  0  0  0  0  0  0
  -22.8010  -13.6500   21.2240 C   0  0  0  0  0  0  0  0  0  0  0  0
  -22.0880  -12.9440   22.0940 N   0  0  0  0  0  0  0  0  0  0  0  0
  -22.3570  -14.6830   20.7240 O   0  0  0  0  0  0  0  0  0  0  0  0
  -22.4630  -12.1100   22.5190 H   0  0  0  0  0  0  0  0  0  0  0  0
  -21.1560  -13.2460   22.3410 H   0  0  0  0  0  0  0  0  0  0  0  0
  -25.4090  -15.3320   20.3930 N   0  0  0  0  0  0  0  0  0  0  0  0
  -24.6380  -15.9760   20.5360 H   0  0  0  0  0  0  0  0  0  0  0  0
  -26.2250  -15.7810   20.0000 H   0  0  0  0  0  0  0  0  0  0  0  0
  -27.4580  -21.3310   21.0080 N   0  0  0  0  0  4  0  0  0  0  0  0
  -27.7270  -21.6270   21.9310 H   0  0  0  0  0  0  0  0  0  0  0  0
  -27.3820  -20.3260   21.0030 H   0  0  0  0  0  0  0  0  0  0  0  0
  -26.5720  -21.7380   20.7650 H   0  0  0  0  0  0  0  0  0  0  0  0
  -28.9730  -23.3210   20.2990 C   0  0  0  0  0  3  0  0  0  0  0  0
  -30.3780  -24.2690   21.9910 C   0  0  0  0  0  1  0  0  0  0  0  0
  -29.3480  -23.3400   21.6790 O   0  0  0  0  0  0  0  0  0  0  0  0
  -27.9770  -24.6900   20.0180 C   0  0  0  0  0  2  0  0  0  0  0  0
  -28.2500  -26.2350   20.1880 O   0  0  0  0  0  0  0  0  0  0  0  0
  -24.6220  -31.9140   23.2480 C   0  0  0  0  0  0  0  0  0  0  0  0
  -27.1940  -27.2290   20.1430 C   0  0  0  0  0  0  0  0  0  0  0  0
  -23.4150  -30.5320   21.6010 C   0  0  0  0  0  3  0  0  0  0  0  0
  -24.8590  -28.9800   20.1470 C   0  0  0  0  0  0  0  0  0  0  0  0
  -25.9670  -30.8090   21.4190 C   0  0  0  0  0  2  0  0  0  0  0  0
  -26.0420  -29.4220   20.7500 C   0  0  0  0  0  0  0  0  0  0  0  0
  -27.2100  -28.5630   20.7310 C   0  0  0  0  0  3  0  0  0  0  0  0
  -25.9800  -26.8960   19.5030 C   0  0  0  0  0  3  0  0  0  0  0  0
  -24.8420  -27.7310   19.5050 C   0  0  0  0  0  3  0  0  0  0  0  0
  -23.6320  -29.8750   20.2110 C   0  0  0  0  0  2  0  0  0  0  0  0
  -24.6890  -31.1050   22.1460 N   0  0  0  0  0  0  0  0  0  0  0  0
  -23.5400  -32.1880   23.7890 O   0  0  0  0  0  0  0  0  0  0  0  0
  -22.7470  -29.5110   22.5580 C   0  0  0  0  0  0  0  0  0  0  0  0
  -21.4220  -29.3230   22.4300 N   0  0  0  0  0  0  0  0  0  0  0  0
  -23.4240  -28.8920   23.3820 O   0  0  0  0  0  0  0  0  0  0  0  0
  -20.9280  -29.8790   21.7470 H   0  0  0  0  0  0  0  0  0  0  0  0
  -18.0580  -28.0670   22.9210 C   0  0  0  0  0  0  0  0  0  0  0  0
  -20.6130  -28.3710   23.1970 C   0  0  0  0  0  3  0  0  0  0  0  0
  -20.7370  -26.9410   22.6200 C   0  0  0  0  0  2  0  0  0  0  0  0
  -19.6450  -26.6030   21.6010 C   0  0  0  0  0  2  0  0  0  0  0  0
  -18.2590  -26.7240   22.2410 C   0  0  0  0  0  2  0  0  0  0  0  0
  -19.1630  -28.8480   23.3560 C   0  0  0  0  0  0  0  0  0  0  0  0
  -18.9200  -30.1020   23.9560 C   0  0  0  0  0  3  0  0  0  0  0  0
  -17.6060  -30.5780   24.1230 C   0  0  0  0  0  3  0  0  0  0  0  0
  -16.5170  -29.7970   23.7000 C   0  0  0  0  0  3  0  0  0  0  0  0
  -16.7440  -28.5440   23.1040 C   0  0  0  0  0  3  0  0  0  0  0  0
  -25.9030  -32.5480   23.8730 C   0  0  0  0  0  3  0  0  0  0  0  0
  -25.5930  -33.9470   24.2090 N   0  0  0  0  0  0  0  0  0  0  0  0
  -25.8950  -35.0030   23.4410 C   0  0  0  0  0  0  0  0  0  0  0  0
  -26.5300  -34.9010   22.3880 O   0  0  0  0  0  0  0  0  0  0  0  0
  -25.0250  -34.0990   25.0280 H   0  0  0  0  0  0  0  0  0  0  0  0
  -24.1420  -36.7880   23.1570 C   0  0  0  0  0  1  0  0  0  0  0  0
  -25.4190  -36.3900   23.9150 C   0  0  0  0  0  3  0  0  0  0  0  0
  -27.5760  -37.3030   24.6570 C   0  0  0  0  0  1  0  0  0  0  0  0
  -26.4380  -37.4500   23.7540 N   0  0  0  0  0  0  0  0  0  0  0  0
  -26.0290  -38.3680   23.9030 H   0  0  0  0  0  0  0  0  0  0  0  0
  -26.4160  -31.7770   25.1510 C   0  0  1  0  0  0  0  0  0  0  0  0
  -25.3200  -31.5420   26.2190 C   0  0  0  0  0  1  0  0  0  0  0  0
  -26.9980  -30.3970   24.7670 C   0  0  0  0  0  1  0  0  0  0  0  0
  -27.5640  -32.5710   25.8160 C   0  0  0  0  0  1  0  0  0  0  0  0
  1  4  1  0
  1 49  1  0
  1 45  1  0
  2  3  2  0
  3  5  1  0
  3 15  1  0
  4  5  2  0
  6  2  1  0
  6  4  1  0
  7 15  1  0
  8 13  1  0
  9 10  1  0
  9  8  1  0
 11 10  1  0
 11 20  1  0
 11 12  1  0
 13  7  1  0
 13 12  1  0
 14  7  2  0
 15 16  1  0
 17 18  2  0
 18 37  1  0
 19 18  1  0
 19 22  1  0
 20 21  1  0
 20 17  1  0
 21 19  2  0
 22 23  1  0
 23 24  2  0
 25 28  1  0
 25 24  1  0
 26 25  2  0
 27 26  1  0
 27 22  2  0
 28 29  1  0
 29 30  1  0
 30 31  2  0
 32 31  1  0
 32 36  1  0
 33 32  2  0
 34 29  2  0
 34 33  1  0
 35 34  1  0
 37 38  1  0
 38 41  1  0
 38 40  1  0
 39 37  2  0
 42 43  1  0
 42 17  1  0
 44 42  1  0
 45 46  1  0
 47 45  1  0
 48 45  1  0
 49 52  1  0
 49 51  1  0
 51 50  1  0
 52 53  1  0
 54 65  2  0
 55 53  1  0
 55 60  1  0
 56 64  1  0
 56 66  1  0
 57 63  1  0
 57 59  1  0
 58 64  1  0
 59 58  1  0
 60 59  2  0
 61 62  1  0
 61 55  2  0
 62 57  2  0
 63 56  1  0
 64 54  1  0
 66 68  2  0
 67 66  1  0
 69 67  1  0
 70 79  2  0
 70 75  1  0
 71 67  1  0
 71 75  1  0
 72 71  1  0
 73 74  1  0
 73 72  1  0
 74 70  1  0
 75 76  2  0
 76 77  1  0
 78 77  2  0
 79 78  1  0
 80 54  1  0
 80 81  1  0
 80 90  1  0
 81 84  1  0
 82 86  1  0
 82 81  1  0
 83 82  2  0
 86 85  1  0
 88 89  1  0
 88 86  1  0
 88 87  1  0
 90 93  1  1
 90 91  1  0
 92 90  1  0
M  ISO  4   7 100  15 100  52 101  53 101
M  END
>  <TORSDO>  (2) 
F 21

>  <SCORE>  (2) 
-14.839

>  <name>  (2) 
1

>  <ligand_id>  (2) 
1

>  <original_smiles>  (2) 
[H]c1sc(C([H])(C([H])(OC([H])([H])[H])C([H])([H])Oc2c([H])c([H])c3c(c2[H])C([H])([H])N(C(=O)C([H])(N([H])C(=O)C([H])(N([H])C([H])([H])[H])C([H])([H])[H])C(C([H])([H])[H])(C([H])([H])[H])C([H])([H])[H])C([H])(C(=O)N([H])C2([H])c4c([H])c([H])c([H])c([H])c4C([H])([H])C([H])([H])C2([H])[H])C3([H])[H])[N+]([H])([H])[H])nc1N([H])C(=O)N1C([H])([H])C([H])([H])C([H])([H])C([H])(n2nc(-c3c([H])c([H])c(Oc4c([H])c([H])c(F)c([H])c4F)c([H])c3[H])c(C(=O)N([H])[H])c2N([H])[H])C1([H])[H]

>  <smiles>  (2) 
[H]c1sc(C([H])(C([H])(OC([H])([H])[H])C([H])([H])Oc2c([H])c([H])c3c(c2[H])C([H])([H])N(C(=O)C([H])(N([H])C(=O)C([H])(N([H])C([H])([H])[H])C([H])([H])[H])C(C([H])([H])[H])(C([H])([H])[H])C([H])([H])[H])C([H])(C(=O)N([H])C2([H])c4c([H])c([H])c([H])c([H])c4C([H])([H])C([H])([H])C2([H])[H])C3([H])[H])[N+]([H])([H])[H])nc1N([H])C(=O)N1C([H])([H])C([H])([H])C([H])([H])C([H])(n2nc(-c3c([H])c([H])c(Oc4c([H])c([H])c(F)c([H])c4F)c([H])c3[H])c(C(=O)N([H])[H])c2N([H])[H])C1([H])[H]

$$$$
2:0:0
     RDKit          3D

 96104  0  0  1  0  0  0  0  0999 V2000
  -29.4000  -22.6980   20.3200 C   0  0  0  0  0  3  0  0  0  0  0  0
  -29.5520  -24.1570   19.5950 C   0  0  0  0  0  0  0  0  0  0  0  0
  -30.6790  -24.5580   19.2890 O   0  0  0  0  0  0  0  0  0  0  0  0
  -28.0850  -24.9810   17.6940 C   0  0  0  0  0  1  0  0  0  0  0  0
  -28.3090  -25.1000   19.2150 C   0  0  0  0  0  3  0  0  0  0  0  0
  -28.4280  -26.5710   19.5190 O   0  0  0  0  0  0  0  0  0  0  0  0
  -24.6450  -31.6720   23.0280 C   0  0  0  0  0  0  0  0  0  0  0  0
  -27.2690  -27.3880   19.5670 C   0  0  0  0  0  0  0  0  0  0  0  0
  -23.4160  -30.3420   21.3530 C   0  0  0  0  0  3  0  0  0  0  0  0
  -24.8480  -28.9370   19.7690 C   0  0  0  0  0  0  0  0  0  0  0  0
  -25.9370  -30.7560   21.0800 C   0  0  0  0  0  2  0  0  0  0  0  0
  -26.0320  -29.4260   20.3330 C   0  0  0  0  0  0  0  0  0  0  0  0
  -27.2440  -28.6710   20.2120 C   0  0  0  0  0  3  0  0  0  0  0  0
  -26.0430  -26.9520   19.0070 C   0  0  0  0  0  3  0  0  0  0  0  0
  -24.8570  -27.7060   19.0980 C   0  0  0  0  0  3  0  0  0  0  0  0
  -23.5920  -29.7700   19.9220 C   0  0  0  0  0  2  0  0  0  0  0  0
  -24.6870  -30.9380   21.8760 N   0  0  0  0  0  0  0  0  0  0  0  0
  -23.5780  -31.8760   23.6250 O   0  0  0  0  0  0  0  0  0  0  0  0
  -22.8270  -29.2440   22.2700 C   0  0  0  0  0  0  0  0  0  0  0  0
  -21.5080  -29.0030   22.1610 N   0  0  0  0  0  0  0  0  0  0  0  0
  -23.5530  -28.6130   23.0430 O   0  0  0  0  0  0  0  0  0  0  0  0
  -20.9760  -29.5670   21.5140 H   0  0  0  0  0  0  0  0  0  0  0  0
  -18.2230  -27.5560   22.6260 C   0  0  0  0  0  0  0  0  0  0  0  0
  -20.7580  -27.9860   22.9020 C   0  0  0  0  0  3  0  0  0  0  0  0
  -20.9570  -26.5830   22.2800 C   0  0  0  0  0  2  0  0  0  0  0  0
  -19.8780  -26.2160   21.2570 C   0  0  0  0  0  2  0  0  0  0  0  0
  -18.4920  -26.2450   21.9070 C   0  0  0  0  0  2  0  0  0  0  0  0
  -19.2880  -28.3800   23.0810 C   0  0  0  0  0  0  0  0  0  0  0  0
  -18.9820  -29.6020   23.7180 C   0  0  0  0  0  3  0  0  0  0  0  0
  -17.6460  -30.0030   23.9070 C   0  0  0  0  0  3  0  0  0  0  0  0
  -16.5970  -29.1760   23.4670 C   0  0  0  0  0  3  0  0  0  0  0  0
  -16.8860  -27.9550   22.8320 C   0  0  0  0  0  3  0  0  0  0  0  0
  -25.9320  -32.3090   23.6370 C   0  0  0  0  0  3  0  0  0  0  0  0
  -25.5950  -33.6780   24.0520 N   0  0  0  0  0  0  0  0  0  0  0  0
  -25.8830  -34.7820   23.3490 C   0  0  0  0  0  0  0  0  0  0  0  0
  -26.5310  -34.7560   22.3000 O   0  0  0  0  0  0  0  0  0  0  0  0
  -25.0160  -33.7710   24.8740 H   0  0  0  0  0  0  0  0  0  0  0  0
  -24.1030  -36.5480   23.1450 C   0  0  0  0  0  1  0  0  0  0  0  0
  -25.3730  -36.1280   23.9000 C   0  0  0  0  0  3  0  0  0  0  0  0
  -27.5050  -37.0200   24.7320 C   0  0  0  0  0  1  0  0  0  0  0  0
  -26.3750  -37.2130   23.8250 N   0  0  0  0  0  0  0  0  0  0  0  0
  -25.9510  -38.1130   24.0380 H   0  0  0  0  0  0  0  0  0  0  0  0
  -26.5180  -31.4910   24.8530 C   0  0  1  0  0  0  0  0  0  0  0  0
  -25.4740  -31.1770   25.9510 C   0  0  0  0  0  1  0  0  0  0  0  0
  -27.1150  -30.1470   24.3740 C   0  0  0  0  0  1  0  0  0  0  0  0
  -27.6760  -32.2800   25.5060 C   0  0  0  0  0  1  0  0  0  0  0  0
  -30.0710  -21.5060   19.6420 N   0  0  0  0  0  0  0  0  0  0  0  0
  -30.8490  -21.7630   19.0370 H   0  0  0  0  0  0  0  0  0  0  0  0
  -30.8890  -14.9910   20.0340 C   0  0  0  0  0  0  0  0  0  0  0  0
  -30.7600  -12.6690   19.0940 C   0  0  0  0  0  2  0  0  0  0  0  0
  -29.7970  -12.6850   17.8830 C   0  0  0  0  0  2  0  0  0  0  0  0
  -28.3310  -12.5100   18.3300 C   0  0  0  0  0  2  0  0  0  0  0  0
  -27.9650  -13.4380   19.5180 C   0  0  0  0  0  3  0  0  0  0  0  0
  -29.0330  -13.3600   20.6320 C   0  0  0  0  0  2  0  0  0  0  0  0
  -30.3270  -13.7310   20.0310 N   0  0  0  0  0  0  0  0  0  0  0  0
  -32.0350  -15.1630   19.6010 O   0  0  0  0  0  0  0  0  0  0  0  0
  -28.7990  -19.5000   20.6180 C   0  0  0  0  0  3  0  0  0  0  0  0
  -29.8610  -20.0970   19.9630 C   0  0  0  0  0  0  0  0  0  0  0  0
  -29.9690  -17.4930   20.2890 C   0  0  0  0  0  0  0  0  0  0  0  0
  -28.8760  -18.0910   20.7970 N   0  0  0  0  0  0  0  0  0  0  0  0
  -30.0510  -16.0190   20.4270 N   0  0  0  0  0  0  0  0  0  0  0  0
  -31.0090  -18.7660   19.5320 S   0  0  0  0  0  0  0  0  0  0  0  0
  -29.2130  -15.6390   20.8350 H   0  0  0  0  0  0  0  0  0  0  0  0
  -25.5950  -14.0760   20.2810 C   0  0  0  0  0  0  0  0  0  0  0  0
  -24.5200  -13.3180   20.6590 C   0  0  0  0  0  0  0  0  0  0  0  0
  -24.9570  -11.9600   20.6060 C   0  0  0  0  0  0  0  0  0  0  0  0
  -26.6200  -13.1770   20.0230 N   0  0  0  0  0  0  0  0  0  0  0  0
  -26.2400  -11.8990   20.2760 N   0  0  0  0  0  0  0  0  0  0  0  0
  -24.2090  -10.7100   20.7960 C   0  0  0  0  0  0  0  0  0  0  0  0
  -24.6120   -9.7400   21.7390 C   0  0  0  0  0  3  0  0  0  0  0  0
  -23.8640   -8.5560   21.9130 C   0  0  0  0  0  3  0  0  0  0  0  0
  -22.6970   -8.3360   21.1460 C   0  0  0  0  0  0  0  0  0  0  0  0
  -22.3120   -9.2950   20.1910 C   0  0  0  0  0  3  0  0  0  0  0  0
  -23.0610  -10.4690   20.0160 C   0  0  0  0  0  3  0  0  0  0  0  0
  -21.9210   -7.2040   21.2310 O   0  0  0  0  0  0  0  0  0  0  0  0
  -21.8200   -6.4860   22.3950 C   0  0  0  0  0  0  0  0  0  0  0  0
  -21.3490   -7.0690   23.5920 C   0  0  0  0  0  3  0  0  0  0  0  0
  -21.1960   -6.2780   24.7480 C   0  0  0  0  0  3  0  0  0  0  0  0
  -21.5010   -4.9030   24.7070 C   0  0  0  0  0  0  0  0  0  0  0  0
  -21.9640   -4.3200   23.5140 C   0  0  0  0  0  3  0  0  0  0  0  0
  -22.1180   -5.1080   22.3600 C   0  0  0  0  0  0  0  0  0  0  0  0
  -22.5440   -4.5360   21.2080 F   0  0  0  0  0  0  0  0  0  0  0  0
  -21.3480   -4.1410   25.8140 F   0  0  0  0  0  0  0  0  0  0  0  0
  -23.1380  -13.8210   20.9600 C   0  0  0  0  0  0  0  0  0  0  0  0
  -22.4200  -13.1450   21.8500 N   0  0  0  0  0  0  0  0  0  0  0  0
  -22.7050  -14.8500   20.4440 O   0  0  0  0  0  0  0  0  0  0  0  0
  -22.7830  -12.3140   22.2930 H   0  0  0  0  0  0  0  0  0  0  0  0
  -21.4920  -13.4650   22.0940 H   0  0  0  0  0  0  0  0  0  0  0  0
  -25.7730  -15.4450   20.1140 N   0  0  0  0  0  0  0  0  0  0  0  0
  -24.9950  -16.0900   20.2190 H   0  0  0  0  0  0  0  0  0  0  0  0
  -26.6150  -15.8990   19.7820 H   0  0  0  0  0  0  0  0  0  0  0  0
  -29.9720  -22.8190   21.7730 C   0  0  0  0  0  2  0  0  0  0  0  0
  -30.1070  -23.7640   24.0850 C   0  0  0  0  0  1  0  0  0  0  0  0
  -28.0810  -24.2390   22.7000 C   0  0  0  0  0  1  0  0  0  0  0  0
  -30.2650  -25.3680   22.1930 C   0  0  0  0  0  1  0  0  0  0  0  0
  -29.6090  -24.0530   22.6530 C   0  0  2  0  0  0  0  0  0  0  0  0
  1 92  1  0
  2  1  1  0
  3  2  2  0
  5  4  1  0
  5  6  1  0
  5  2  1  0
  6  8  1  0
  7 18  2  0
  8 13  1  0
  9 17  1  0
  9 19  1  0
 10 16  1  0
 10 12  1  0
 11 17  1  0
 12 11  1  0
 13 12  2  0
 14 15  1  0
 14  8  2  0
 15 10  2  0
 16  9  1  0
 17  7  1  0
 19 21  2  0
 20 19  1  0
 22 20  1  0
 23 32  2  0
 23 28  1  0
 24 20  1  0
 24 28  1  0
 25 24  1  0
 26 27  1  0
 26 25  1  0
 27 23  1  0
 28 29  2  0
 29 30  1  0
 31 30  2  0
 32 31  1  0
 33  7  1  0
 33 34  1  0
 33 43  1  0
 34 37  1  0
 35 39  1  0
 35 34  1  0
 36 35  2  0
 39 38  1  0
 41 39  1  0
 41 42  1  0
 41 40  1  0
 43 46  1  1
 43 44  1  0
 45 43  1  0
 47 58  1  0
 47  1  1  0
 48 47  1  0
 49 61  1  0
 50 55  1  0
 51 52  1  0
 51 50  1  0
 53 52  1  0
 53 67  1  0
 53 54  1  0
 55 49  1  0
 55 54  1  0
 56 49  2  0
 57 60  1  0
 58 57  2  0
 59 61  1  0
 59 60  2  0
 61 63  1  0
 62 58  1  0
 62 59  1  0
 64 65  2  0
 65 84  1  0
 66 65  1  0
 66 69  1  0
 67 68  1  0
 67 64  1  0
 68 66  2  0
 69 70  1  0
 70 71  2  0
 72 75  1  0
 72 71  1  0
 73 72  2  0
 74 73  1  0
 74 69  2  0
 75 76  1  0
 76 77  1  0
 77 78  2  0
 79 78  1  0
 79 83  1  0
 80 79  2  0
 81 76  2  0
 81 80  1  0
 82 81  1  0
 84 85  1  0
 85 88  1  0
 85 87  1  0
 86 84  2  0
 89 90  1  0
 89 64  1  0
 91 89  1  0
 92 96  1  0
 96 95  1  6
 96 94  1  0
 96 93  1  0
M  ISO  4   5 101   6 101  49 100  61 100
M  END
>  <TORSDO>  (3) 
F 21

>  <SCORE>  (3) 
-11.842

>  <name>  (3) 
2

>  <ligand_id>  (3) 
2

>  <original_smiles>  (3) 
[H]c1nc(N([H])C(=O)N2C([H])([H])C([H])([H])C([H])([H])C([H])(n3nc(-c4c([H])c([H])c(Oc5c([H])c([H])c(F)c([H])c5F)c([H])c4[H])c(C(=O)N([H])[H])c3N([H])[H])C2([H])[H])sc1N([H])C([H])(C(=O)C([H])(Oc1c([H])c([H])c2c(c1[H])C([H])([H])N(C(=O)C([H])(N([H])C(=O)C([H])(N([H])C([H])([H])[H])C([H])([H])[H])C(C([H])([H])[H])(C([H])([H])[H])C([H])([H])[H])C([H])(C(=O)N([H])C1([H])c3c([H])c([H])c([H])c([H])c3C([H])([H])C([H])([H])C1([H])[H])C2([H])[H])C([H])([H])[H])C([H])([H])C(C([H])([H])[H])(C([H])([H])[H])C([H])([H])[H]

>  <smiles>  (3) 
[H]c1nc(N([H])C(=O)N2C([H])([H])C([H])([H])C([H])([H])C([H])(n3nc(-c4c([H])c([H])c(Oc5c([H])c([H])c(F)c([H])c5F)c([H])c4[H])c(C(=O)N([H])[H])c3N([H])[H])C2([H])[H])sc1N([H])C([H])(C(=O)C([H])(Oc1c([H])c([H])c2c(c1[H])C([H])([H])N(C(=O)C([H])(N([H])C(=O)C([H])(N([H])C([H])([H])[H])C([H])([H])[H])C(C([H])([H])[H])(C([H])([H])[H])C([H])([H])[H])C([H])(C(=O)N([H])C1([H])c3c([H])c([H])c([H])c([H])c3C([H])([H])C([H])([H])C1([H])[H])C2([H])[H])C([H])([H])[H])C([H])([H])C(C([H])([H])[H])(C([H])([H])[H])C([H])([H])[H]

$$$$
3:0:0
     RDKit          3D

 94102  0  0  1  0  0  0  0  0999 V2000
  -30.4590  -15.1180   20.4200 C   0  0  0  0  0  0  0  0  0  0  0  0
  -30.3960  -12.7390   19.4420 C   0  0  0  0  0  2  0  0  0  0  0  0
  -29.4600  -12.6370   18.2120 C   0  0  0  0  0  2  0  0  0  0  0  0
  -28.0080  -12.3870   18.6570 C   0  0  0  0  0  2  0  0  0  0  0  0
  -27.5840  -13.3130   19.8250 C   0  0  0  0  0  3  0  0  0  0  0  0
  -28.6420  -13.3570   20.9440 C   0  0  0  0  0  2  0  0  0  0  0  0
  -29.8850  -13.8350   20.3260 N   0  0  0  0  0  0  0  0  0  0  0  0
  -31.6720  -15.1770   20.1750 O   0  0  0  0  0  0  0  0  0  0  0  0
  -30.3350  -20.1600   21.8760 C   0  0  0  0  0  0  0  0  0  0  0  0
  -29.3490  -20.3490   20.9100 C   0  0  0  0  0  0  0  0  0  0  0  0
  -29.8290  -17.8470   20.7810 C   0  0  0  0  0  0  0  0  0  0  0  0
  -29.0620  -18.9710   20.3670 N   0  0  0  0  0  0  0  0  0  0  0  0
  -29.6430  -16.3140   20.5160 N   0  0  0  0  0  0  0  0  0  0  0  0
  -30.9910  -18.4860   21.9450 S   0  0  0  0  0  0  0  0  0  0  0  0
  -28.6680  -16.0650   20.4720 H   0  0  0  0  0  0  0  0  0  0  0  0
  -25.2060  -13.8730   20.5700 C   0  0  0  0  0  0  0  0  0  0  0  0
  -24.1410  -13.0960   20.9360 C   0  0  0  0  0  0  0  0  0  0  0  0
  -24.6100  -11.7440   20.8910 C   0  0  0  0  0  0  0  0  0  0  0  0
  -26.2520  -13.0020   20.3230 N   0  0  0  0  0  0  0  0  0  0  0  0
  -25.9030  -11.7170   20.5810 N   0  0  0  0  0  0  0  0  0  0  0  0
  -23.8890  -10.4800   21.0710 C   0  0  0  0  0  0  0  0  0  0  0  0
  -24.3210   -9.5070   22.0000 C   0  0  0  0  0  3  0  0  0  0  0  0
  -23.5950   -8.3060   22.1690 C   0  0  0  0  0  3  0  0  0  0  0  0
  -22.4250   -8.0730   21.4090 C   0  0  0  0  0  0  0  0  0  0  0  0
  -22.0130   -9.0330   20.4690 C   0  0  0  0  0  3  0  0  0  0  0  0
  -22.7370  -10.2250   20.2990 C   0  0  0  0  0  3  0  0  0  0  0  0
  -21.6720   -6.9230   21.4850 O   0  0  0  0  0  0  0  0  0  0  0  0
  -21.6090   -6.1830   22.6370 C   0  0  0  0  0  0  0  0  0  0  0  0
  -21.1560   -6.7380   23.8550 C   0  0  0  0  0  3  0  0  0  0  0  0
  -21.0380   -5.9230   25.0010 C   0  0  0  0  0  3  0  0  0  0  0  0
  -21.3660   -4.5550   24.9280 C   0  0  0  0  0  0  0  0  0  0  0  0
  -21.8100   -4.0000   23.7150 C   0  0  0  0  0  3  0  0  0  0  0  0
  -21.9290   -4.8130   22.5740 C   0  0  0  0  0  0  0  0  0  0  0  0
  -22.3390   -4.2690   21.4020 F   0  0  0  0  0  0  0  0  0  0  0  0
  -21.2470   -3.7710   26.0240 F   0  0  0  0  0  0  0  0  0  0  0  0
  -22.7450  -13.5680   21.2130 C   0  0  0  0  0  0  0  0  0  0  0  0
  -22.0210  -12.8660   22.0780 N   0  0  0  0  0  0  0  0  0  0  0  0
  -22.3050  -14.5910   20.6940 O   0  0  0  0  0  0  0  0  0  0  0  0
  -22.3930  -12.0360   22.5130 H   0  0  0  0  0  0  0  0  0  0  0  0
  -21.0860  -13.1660   22.3070 H   0  0  0  0  0  0  0  0  0  0  0  0
  -25.3650  -15.2500   20.4060 N   0  0  0  0  0  0  0  0  0  0  0  0
  -24.5930  -15.8990   20.5320 H   0  0  0  0  0  0  0  0  0  0  0  0
  -26.1910  -15.6910   20.0220 H   0  0  0  0  0  0  0  0  0  0  0  0
  -30.8660  -21.1370   22.8900 C   0  0  1  0  0  0  0  0  0  0  0  0
  -31.8290  -21.8970   22.3820 F   0  0  0  0  0  0  0  0  0  0  0  0
  -29.9170  -21.9200   23.3990 F   0  0  0  0  0  0  0  0  0  0  0  0
  -31.4010  -20.5100   23.9380 F   0  0  0  0  0  0  0  0  0  0  0  0
  -28.9280  -23.1460   20.7630 C   0  0  0  0  0  0  0  0  0  0  0  0
  -28.6210  -21.7290   20.6610 N   0  0  0  0  0  0  0  0  0  0  0  0
  -30.1120  -23.4750   20.8440 O   0  0  0  0  0  0  0  0  0  0  0  0
  -27.6590  -21.5990   20.3760 H   0  0  0  0  0  0  0  0  0  0  0  0
  -26.4320  -23.9180   20.4700 C   0  0  0  0  0  1  0  0  0  0  0  0
  -27.8380  -24.4560   20.8310 C   0  0  0  0  0  3  0  0  0  0  0  0
  -28.1700  -25.9810   20.4100 O   0  0  0  0  0  0  0  0  0  0  0  0
  -24.6340  -31.9010   23.2340 C   0  0  0  0  0  0  0  0  0  0  0  0
  -27.1860  -27.0650   20.3130 C   0  0  0  0  0  0  0  0  0  0  0  0
  -23.4470  -30.4980   21.5840 C   0  0  0  0  0  3  0  0  0  0  0  0
  -24.9080  -28.9090   20.1890 C   0  0  0  0  0  0  0  0  0  0  0  0
  -26.0120  -30.7250   21.4650 C   0  0  0  0  0  2  0  0  0  0  0  0
  -26.0820  -29.3210   20.8310 C   0  0  0  0  0  0  0  0  0  0  0  0
  -27.2200  -28.4150   20.8850 C   0  0  0  0  0  3  0  0  0  0  0  0
  -26.0220  -26.8250   19.5530 C   0  0  0  0  0  3  0  0  0  0  0  0
  -24.8970  -27.6730   19.5320 C   0  0  0  0  0  3  0  0  0  0  0  0
  -23.6910  -29.8230   20.2100 C   0  0  0  0  0  2  0  0  0  0  0  0
  -24.7180  -31.0730   22.1460 N   0  0  0  0  0  0  0  0  0  0  0  0
  -23.5420  -32.1900   23.7450 O   0  0  0  0  0  0  0  0  0  0  0  0
  -22.7570  -29.4980   22.5460 C   0  0  0  0  0  0  0  0  0  0  0  0
  -21.4270  -29.3390   22.4230 N   0  0  0  0  0  0  0  0  0  0  0  0
  -23.4240  -28.8680   23.3730 O   0  0  0  0  0  0  0  0  0  0  0  0
  -20.9420  -29.8990   21.7340 H   0  0  0  0  0  0  0  0  0  0  0  0
  -18.0390  -28.1580   22.9310 C   0  0  0  0  0  0  0  0  0  0  0  0
  -20.6030  -28.4090   23.1960 C   0  0  0  0  0  3  0  0  0  0  0  0
  -20.6950  -26.9730   22.6280 C   0  0  0  0  0  2  0  0  0  0  0  0
  -19.5880  -26.6520   21.6130 C   0  0  0  0  0  2  0  0  0  0  0  0
  -18.2070  -26.8110   22.2560 C   0  0  0  0  0  2  0  0  0  0  0  0
  -19.1650  -28.9140   23.3610 C   0  0  0  0  0  0  0  0  0  0  0  0
  -18.9540  -30.1790   23.9530 C   0  0  0  0  0  3  0  0  0  0  0  0
  -17.6520  -30.6860   24.1250 C   0  0  0  0  0  3  0  0  0  0  0  0
  -16.5410  -29.9300   23.7080 C   0  0  0  0  0  3  0  0  0  0  0  0
  -16.7370  -28.6700   23.1150 C   0  0  0  0  0  3  0  0  0  0  0  0
  -25.9100  -32.5380   23.8680 C   0  0  0  0  0  3  0  0  0  0  0  0
  -26.4050  -31.7750   25.1530 C   0  0  1  0  0  0  0  0  0  0  0  0
  -25.2980  -31.5550   26.2090 C   0  0  0  0  0  1  0  0  0  0  0  0
  -26.9950  -30.3930   24.7920 C   0  0  0  0  0  1  0  0  0  0  0  0
  -27.5490  -32.5710   25.8220 C   0  0  0  0  0  1  0  0  0  0  0  0
  -25.5940  -33.9350   24.1880 N   0  0  0  0  0  0  0  0  0  0  0  0
  -25.9160  -34.9910   23.4290 C   0  0  0  0  0  0  0  0  0  0  0  0
  -26.5810  -34.8870   22.3930 O   0  0  0  0  0  0  0  0  0  0  0  0
  -25.0060  -34.0910   24.9920 H   0  0  0  0  0  0  0  0  0  0  0  0
  -24.1770  -36.7820   23.1020 C   0  0  0  0  0  1  0  0  0  0  0  0
  -25.4350  -36.3820   23.8910 C   0  0  0  0  0  3  0  0  0  0  0  0
  -27.5790  -37.2850   24.6810 C   0  0  0  0  0  1  0  0  0  0  0  0
  -26.4630  -37.4380   23.7540 N   0  0  0  0  0  0  0  0  0  0  0  0
  -26.0510  -38.3550   23.9000 H   0  0  0  0  0  0  0  0  0  0  0  0
  1 13  1  0
  2  7  1  0
  3  4  1  0
  3  2  1  0
  5  4  1  0
  5 19  1  0
  5  6  1  0
  7  1  1  0
  7  6  1  0
  8  1  2  0
  9 14  1  0
  9 44  1  0
 10  9  2  0
 11 14  1  0
 12 11  2  0
 12 10  1  0
 13 11  1  0
 15 13  1  0
 16 17  2  0
 17 36  1  0
 18 17  1  0
 18 21  1  0
 19 16  1  0
 19 20  1  0
 20 18  2  0
 21 22  1  0
 22 23  2  0
 24 27  1  0
 24 23  1  0
 25 24  2  0
 26 25  1  0
 26 21  2  0
 27 28  1  0
 28 29  1  0
 29 30  2  0
 31 30  1  0
 31 35  1  0
 32 31  2  0
 33 28  2  0
 33 32  1  0
 34 33  1  0
 36 37  1  0
 37 40  1  0
 37 39  1  0
 38 36  2  0
 41 42  1  0
 41 16  1  0
 43 41  1  0
 44 46  1  1
 44 47  1  0
 45 44  1  0
 48 53  1  0
 48 50  2  0
 49 48  1  0
 49 10  1  0
 51 49  1  0
 53 52  1  0
 54 53  1  0
 55 66  2  0
 56 54  1  0
 56 61  1  0
 57 65  1  0
 57 67  1  0
 58 64  1  0
 58 60  1  0
 59 65  1  0
 60 61  2  0
 60 59  1  0
 62 56  2  0
 63 62  1  0
 63 58  2  0
 64 57  1  0
 65 55  1  0
 67 69  2  0
 68 67  1  0
 70 68  1  0
 71 80  2  0
 71 76  1  0
 72 68  1  0
 72 76  1  0
 73 72  1  0
 74 75  1  0
 74 73  1  0
 75 71  1  0
 76 77  2  0
 77 78  1  0
 79 78  2  0
 80 79  1  0
 81 55  1  0
 81 86  1  0
 81 82  1  0
 82 85  1  1
 82 83  1  0
 84 82  1  0
 86 89  1  0
 87 91  1  0
 87 86  1  0
 88 87  2  0
 91 90  1  0
 93 91  1  0
 93 94  1  0
 93 92  1  0
M  ISO  4   1 100  13 100  53 101  54 101
M  END
>  <TORSDO>  (4) 
F 18

>  <SCORE>  (4) 
-15.575

>  <name>  (4) 
3

>  <ligand_id>  (4) 
3

>  <original_smiles>  (4) 
[H]c1c([H])c([H])c2c(c1[H])C([H])([H])C([H])([H])C([H])([H])C2([H])N([H])C(=O)C1([H])N(C(=O)C([H])(N([H])C(=O)C([H])(N([H])C([H])([H])[H])C([H])([H])[H])C(C([H])([H])[H])(C([H])([H])[H])C([H])([H])[H])C([H])([H])c2c([H])c(OC([H])(C(=O)N([H])c3nc(N([H])C(=O)N4C([H])([H])C([H])([H])C([H])([H])C([H])(n5nc(-c6c([H])c([H])c(Oc7c([H])c([H])c(F)c([H])c7F)c([H])c6[H])c(C(=O)N([H])[H])c5N([H])[H])C4([H])[H])sc3C(F)(F)F)C([H])([H])[H])c([H])c([H])c2C1([H])[H]

>  <smiles>  (4) 
[H]c1c([H])c([H])c2c(c1[H])C([H])([H])C([H])([H])C([H])([H])C2([H])N([H])C(=O)C1([H])N(C(=O)C([H])(N([H])C(=O)C([H])(N([H])C([H])([H])[H])C([H])([H])[H])C(C([H])([H])[H])(C([H])([H])[H])C([H])([H])[H])C([H])([H])c2c([H])c(OC([H])(C(=O)N([H])c3nc(N([H])C(=O)N4C([H])([H])C([H])([H])C([H])([H])C([H])(n5nc(-c6c([H])c([H])c(Oc7c([H])c([H])c(F)c([H])c7F)c([H])c6[H])c(C(=O)N([H])[H])c5N([H])[H])C4([H])[H])sc3C(F)(F)F)C([H])([H])[H])c([H])c([H])c2C1([H])[H]

$$$$
4:0:0
     RDKit          3D

 94102  0  0  1  0  0  0  0  0999 V2000
  -29.9410  -24.8440   21.6770 C   0  0  0  0  0  1  0  0  0  0  0  0
  -29.5950  -24.4430   20.2330 C   0  0  0  0  0  3  0  0  0  0  0  0
  -29.6510  -22.0360   20.4100 C   0  0  0  0  0  3  0  0  0  0  0  0
  -28.9590  -23.1090   20.2590 N   0  0  0  0  0  0  0  0  0  0  0  0
  -29.0100  -20.6410   20.5810 C   0  0  0  0  0  2  0  0  0  0  0  0
  -30.7010  -14.6630   20.3870 C   0  0  0  0  0  0  0  0  0  0  0  0
  -30.4190  -12.4370   19.3700 C   0  0  0  0  0  2  0  0  0  0  0  0
  -29.5030  -12.5960   18.1380 C   0  0  0  0  0  2  0  0  0  0  0  0
  -28.0210  -12.4680   18.5470 C   0  0  0  0  0  2  0  0  0  0  0  0
  -27.6570  -13.3500   19.7710 C   0  0  0  0  0  3  0  0  0  0  0  0
  -28.7010  -13.1960   20.9030 C   0  0  0  0  0  2  0  0  0  0  0  0
  -30.0300  -13.4750   20.3390 N   0  0  0  0  0  0  0  0  0  0  0  0
  -31.8730  -14.7550   20.0130 O   0  0  0  0  0  0  0  0  0  0  0  0
  -30.9170  -19.3040   19.3900 C   0  0  0  0  0  3  0  0  0  0  0  0
  -29.8240  -19.3960   20.2220 C   0  0  0  0  0  0  0  0  0  0  0  0
  -30.2340  -17.1140   20.3200 C   0  0  0  0  0  0  0  0  0  0  0  0
  -29.4500  -18.1270   20.7350 N   0  0  0  0  0  0  0  0  0  0  0  0
  -29.9690  -15.7560   20.7060 N   0  0  0  0  0  0  0  0  0  0  0  0
  -31.5090  -17.6690   19.2290 S   0  0  0  0  0  0  0  0  0  0  0  0
  -29.0570  -15.5830   21.0960 H   0  0  0  0  0  0  0  0  0  0  0  0
  -25.2570  -13.9680   20.4640 C   0  0  0  0  0  0  0  0  0  0  0  0
  -24.1820  -13.2010   20.8300 C   0  0  0  0  0  0  0  0  0  0  0  0
  -24.6400  -11.8490   20.8120 C   0  0  0  0  0  0  0  0  0  0  0  0
  -26.3000  -13.0820   20.2440 N   0  0  0  0  0  0  0  0  0  0  0  0
  -25.9330  -11.8030   20.5130 N   0  0  0  0  0  0  0  0  0  0  0  0
  -23.9060  -10.5900   21.0000 C   0  0  0  0  0  0  0  0  0  0  0  0
  -24.3150   -9.6330   21.9550 C   0  0  0  0  0  3  0  0  0  0  0  0
  -23.5820   -8.4390   22.1310 C   0  0  0  0  0  3  0  0  0  0  0  0
  -22.4270   -8.1940   21.3510 C   0  0  0  0  0  0  0  0  0  0  0  0
  -22.0380   -9.1400   20.3850 C   0  0  0  0  0  3  0  0  0  0  0  0
  -22.7710  -10.3250   20.2070 C   0  0  0  0  0  3  0  0  0  0  0  0
  -21.6660   -7.0530   21.4380 O   0  0  0  0  0  0  0  0  0  0  0  0
  -21.5810   -6.3280   22.6000 C   0  0  0  0  0  0  0  0  0  0  0  0
  -21.1060   -6.8970   23.8010 C   0  0  0  0  0  3  0  0  0  0  0  0
  -20.9720   -6.0980   24.9540 C   0  0  0  0  0  3  0  0  0  0  0  0
  -21.3020   -4.7310   24.9060 C   0  0  0  0  0  0  0  0  0  0  0  0
  -21.7690   -4.1610   23.7090 C   0  0  0  0  0  3  0  0  0  0  0  0
  -21.9060   -4.9560   22.5590 C   0  0  0  0  0  0  0  0  0  0  0  0
  -22.3390   -4.3970   21.4020 F   0  0  0  0  0  0  0  0  0  0  0  0
  -21.1660   -3.9620   26.0110 F   0  0  0  0  0  0  0  0  0  0  0  0
  -22.7830  -13.6860   21.0870 C   0  0  0  0  0  0  0  0  0  0  0  0
  -22.0400  -12.9950   21.9460 N   0  0  0  0  0  0  0  0  0  0  0  0
  -22.3570  -14.7120   20.5600 O   0  0  0  0  0  0  0  0  0  0  0  0
  -22.3940  -12.1660   22.3980 H   0  0  0  0  0  0  0  0  0  0  0  0
  -21.1000  -13.3020   22.1540 H   0  0  0  0  0  0  0  0  0  0  0  0
  -25.4300  -15.3370   20.2840 N   0  0  0  0  0  0  0  0  0  0  0  0
  -24.6720  -16.0010   20.3990 H   0  0  0  0  0  0  0  0  0  0  0  0
  -26.2910  -15.7750   19.9790 H   0  0  0  0  0  0  0  0  0  0  0  0
  -28.6410  -25.4970   19.5370 C   0  0  0  0  0  3  0  0  0  0  0  0
  -30.2720  -26.5960   17.8720 C   0  0  0  0  0  1  0  0  0  0  0  0
  -28.9820  -25.7670   18.0360 C   0  0  0  0  0  3  0  0  0  0  0  0
  -29.0940  -24.7290   15.6610 C   0  0  0  0  0  1  0  0  0  0  0  0
  -28.9950  -24.4830   17.1760 C   0  0  0  0  0  2  0  0  0  0  0  0
  -28.5540  -26.7860   20.2160 O   0  0  0  0  0  0  0  0  0  0  0  0
  -24.6070  -31.9430   23.2600 C   0  0  0  0  0  0  0  0  0  0  0  0
  -27.3650  -27.5190   20.1860 C   0  0  0  0  0  0  0  0  0  0  0  0
  -23.4530  -30.5410   21.5850 C   0  0  0  0  0  3  0  0  0  0  0  0
  -24.9530  -29.0350   20.1800 C   0  0  0  0  0  0  0  0  0  0  0  0
  -25.9840  -30.9200   21.4440 C   0  0  0  0  0  2  0  0  0  0  0  0
  -26.0970  -29.5510   20.7920 C   0  0  0  0  0  0  0  0  0  0  0  0
  -27.3040  -28.8020   20.7930 C   0  0  0  0  0  3  0  0  0  0  0  0
  -26.1840  -27.0320   19.5750 C   0  0  0  0  0  3  0  0  0  0  0  0
  -24.9910  -27.7730   19.5690 C   0  0  0  0  0  3  0  0  0  0  0  0
  -23.7000  -29.8810   20.2040 C   0  0  0  0  0  2  0  0  0  0  0  0
  -24.6970  -31.1500   22.1540 N   0  0  0  0  0  0  0  0  0  0  0  0
  -23.5120  -32.1950   23.7800 O   0  0  0  0  0  0  0  0  0  0  0  0
  -22.7950  -29.5000   22.5220 C   0  0  0  0  0  0  0  0  0  0  0  0
  -21.4700  -29.3250   22.3890 N   0  0  0  0  0  0  0  0  0  0  0  0
  -23.4760  -28.8570   23.3260 O   0  0  0  0  0  0  0  0  0  0  0  0
  -20.9820  -29.8970   21.7140 H   0  0  0  0  0  0  0  0  0  0  0  0
  -18.0850  -28.1540   22.8850 C   0  0  0  0  0  0  0  0  0  0  0  0
  -20.6480  -28.3740   23.1400 C   0  0  0  0  0  3  0  0  0  0  0  0
  -20.7290  -26.9600   22.5210 C   0  0  0  0  0  2  0  0  0  0  0  0
  -19.6140  -26.6800   21.5080 C   0  0  0  0  0  2  0  0  0  0  0  0
  -18.2390  -26.8230   22.1690 C   0  0  0  0  0  2  0  0  0  0  0  0
  -19.2180  -28.8880   23.3270 C   0  0  0  0  0  0  0  0  0  0  0  0
  -19.0210  -30.1360   23.9570 C   0  0  0  0  0  3  0  0  0  0  0  0
  -17.7260  -30.6520   24.1450 C   0  0  0  0  0  3  0  0  0  0  0  0
  -16.6080  -29.9150   23.7190 C   0  0  0  0  0  3  0  0  0  0  0  0
  -16.7880  -28.6660   23.0980 C   0  0  0  0  0  3  0  0  0  0  0  0
  -25.8720  -32.5880   23.9100 C   0  0  0  0  0  3  0  0  0  0  0  0
  -25.5470  -33.9860   24.2180 N   0  0  0  0  0  0  0  0  0  0  0  0
  -25.8970  -35.0330   23.4590 C   0  0  0  0  0  0  0  0  0  0  0  0
  -26.6020  -34.9240   22.4510 O   0  0  0  0  0  0  0  0  0  0  0  0
  -24.9280  -34.1450   25.0000 H   0  0  0  0  0  0  0  0  0  0  0  0
  -24.1790  -36.8160   23.0200 C   0  0  0  0  0  1  0  0  0  0  0  0
  -25.3880  -36.4240   23.8850 C   0  0  0  0  0  3  0  0  0  0  0  0
  -27.4830  -37.3240   24.7950 C   0  0  0  0  0  1  0  0  0  0  0  0
  -26.4210  -37.4800   23.8050 N   0  0  0  0  0  0  0  0  0  0  0  0
  -26.0040  -38.4000   23.9270 H   0  0  0  0  0  0  0  0  0  0  0  0
  -26.3560  -31.8290   25.2040 C   0  0  1  0  0  0  0  0  0  0  0  0
  -25.2320  -31.5910   26.2410 C   0  0  0  0  0  1  0  0  0  0  0  0
  -26.9570  -30.4530   24.8340 C   0  0  0  0  0  1  0  0  0  0  0  0
  -27.4810  -32.6350   25.8930 C   0  0  0  0  0  1  0  0  0  0  0  0
  2  4  1  0
  2  1  1  0
  3  5  1  0
  4  3  2  0
  6 18  1  0
  7 12  1  0
  8  9  1  0
  8  7  1  0
 10  9  1  0
 10 24  1  0
 10 11  1  0
 12  6  1  0
 12 11  1  0
 13  6  2  0
 14 15  2  0
 15  5  1  0
 15 17  1  0
 16 18  1  0
 16 17  2  0
 18 20  1  0
 19 14  1  0
 19 16  1  0
 21 22  2  0
 22 41  1  0
 23 22  1  0
 23 26  1  0
 24 21  1  0
 24 25  1  0
 25 23  2  0
 26 27  1  0
 27 28  2  0
 29 32  1  0
 29 28  1  0
 30 29  2  0
 31 30  1  0
 31 26  2  0
 32 33  1  0
 33 34  1  0
 34 35  2  0
 36 35  1  0
 36 40  1  0
 37 36  2  0
 38 33  2  0
 38 37  1  0
 39 38  1  0
 41 42  1  0
 42 45  1  0
 42 44  1  0
 43 41  2  0
 46 47  1  0
 46 21  1  0
 48 46  1  0
 49 54  1  0
 49  2  1  0
 51 50  1  0
 51 49  1  0
 52 53  1  0
 53 51  1  0
 55 66  2  0
 56 54  1  0
 56 61  1  0
 57 65  1  0
 57 67  1  0
 58 64  1  0
 58 60  1  0
 59 65  1  0
 60 61  2  0
 60 59  1  0
 62 56  2  0
 63 62  1  0
 63 58  2  0
 64 57  1  0
 65 55  1  0
 67 69  2  0
 68 67  1  0
 70 68  1  0
 71 80  2  0
 71 76  1  0
 72 68  1  0
 72 76  1  0
 73 72  1  0
 74 75  1  0
 74 73  1  0
 75 71  1  0
 76 77  2  0
 77 78  1  0
 79 78  2  0
 80 79  1  0
 81 55  1  0
 81 82  1  0
 81 91  1  0
 82 85  1  0
 83 87  1  0
 83 82  1  0
 84 83  2  0
 87 86  1  0
 89 87  1  0
 89 90  1  0
 89 88  1  0
 91 94  1  1
 91 92  1  0
 93 91  1  0
M  ISO  4   6 100  18 100  49 101  54 101
M  END
>  <TORSDO>  (5) 
F 21

>  <SCORE>  (5) 
-13.646

>  <name>  (5) 
4

>  <ligand_id>  (5) 
4

>  <original_smiles>  (5) 
[H]C(=NC([H])(C([H])([H])[H])C([H])(Oc1c([H])c([H])c2c(c1[H])C([H])([H])N(C(=O)C([H])(N([H])C(=O)C([H])(N([H])C([H])([H])[H])C([H])([H])[H])C(C([H])([H])[H])(C([H])([H])[H])C([H])([H])[H])C([H])(C(=O)N([H])C1([H])c3c([H])c([H])c([H])c([H])c3C([H])([H])C([H])([H])C1([H])[H])C2([H])[H])C([H])(C([H])([H])[H])C([H])([H])C([H])([H])[H])C([H])([H])c1nc(N([H])C(=O)N2C([H])([H])C([H])([H])C([H])([H])C([H])(n3nc(-c4c([H])c([H])c(Oc5c([H])c([H])c(F)c([H])c5F)c([H])c4[H])c(C(=O)N([H])[H])c3N([H])[H])C2([H])[H])sc1[H]

>  <smiles>  (5) 
[H]C(=NC([H])(C([H])([H])[H])C([H])(Oc1c([H])c([H])c2c(c1[H])C([H])([H])N(C(=O)C([H])(N([H])C(=O)C([H])(N([H])C([H])([H])[H])C([H])([H])[H])C(C([H])([H])[H])(C([H])([H])[H])C([H])([H])[H])C([H])(C(=O)N([H])C1([H])c3c([H])c([H])c([H])c([H])c3C([H])([H])C([H])([H])C1([H])[H])C2([H])[H])C([H])(C([H])([H])[H])C([H])([H])C([H])([H])[H])C([H])([H])c1nc(N([H])C(=O)N2C([H])([H])C([H])([H])C([H])([H])C([H])(n3nc(-c4c([H])c([H])c(Oc5c([H])c([H])c(F)c([H])c5F)c([H])c4[H])c(C(=O)N([H])[H])c3N([H])[H])C2([H])[H])sc1[H]

$$$$
5:0:0
     RDKit          3D

 95103  0  0  1  0  0  0  0  0999 V2000
  -29.2380  -19.7900   19.9520 C   0  0  0  0  0  0  0  0  0  0  0  0
  -29.8700  -18.6280   20.5430 C   0  0  0  0  0  0  0  0  0  0  0  0
  -29.3780  -21.0730   20.5940 C   0  0  0  0  0  0  0  0  0  0  0  0
  -30.6370  -20.0190   22.1860 C   0  0  0  0  0  0  0  0  0  0  0  0
  -30.5640  -18.7900   21.6920 N   0  0  0  0  0  0  0  0  0  0  0  0
  -30.1060  -21.1480   21.7250 N   0  0  0  0  0  0  0  0  0  0  0  0
  -31.3720  -20.1380   23.3180 N   0  0  0  0  0  0  0  0  0  0  0  0
  -28.7680  -22.2890   20.1090 N   0  0  0  0  0  0  0  0  0  0  0  0
  -28.5460  -19.6850   18.7910 F   0  0  0  0  0  0  0  0  0  0  0  0
  -32.0260  -19.3890   23.4970 H   0  0  0  0  0  0  0  0  0  0  0  0
  -31.7240  -21.0660   23.5190 H   0  0  0  0  0  0  0  0  0  0  0  0
  -28.2330  -22.1500   19.2580 H   0  0  0  0  0  0  0  0  0  0  0  0
  -29.9680  -17.2060   19.8480 C   0  0  0  0  0  2  0  0  0  0  0  0
  -30.6290  -14.7360   20.3240 C   0  0  0  0  0  0  0  0  0  0  0  0
  -30.3980  -12.4630   19.3240 C   0  0  0  0  0  2  0  0  0  0  0  0
  -29.4600  -12.5650   18.1000 C   0  0  0  0  0  2  0  0  0  0  0  0
  -27.9880  -12.4090   18.5310 C   0  0  0  0  0  2  0  0  0  0  0  0
  -27.6290  -13.2910   19.7570 C   0  0  0  0  0  3  0  0  0  0  0  0
  -28.6900  -13.1770   20.8780 C   0  0  0  0  0  2  0  0  0  0  0  0
  -29.9950  -13.5130   20.2920 N   0  0  0  0  0  0  0  0  0  0  0  0
  -31.7870  -14.8390   19.9150 O   0  0  0  0  0  0  0  0  0  0  0  0
  -29.8720  -15.8630   20.5730 N   0  0  0  0  0  0  0  0  0  0  0  0
  -28.9790  -15.6940   21.0070 H   0  0  0  0  0  0  0  0  0  0  0  0
  -25.2450  -13.8970   20.4880 C   0  0  0  0  0  0  0  0  0  0  0  0
  -24.1760  -13.1300   20.8660 C   0  0  0  0  0  0  0  0  0  0  0  0
  -24.6300  -11.7760   20.8360 C   0  0  0  0  0  0  0  0  0  0  0  0
  -26.2840  -13.0110   20.2490 N   0  0  0  0  0  0  0  0  0  0  0  0
  -25.9190  -11.7310   20.5220 N   0  0  0  0  0  0  0  0  0  0  0  0
  -23.8970  -10.5190   21.0320 C   0  0  0  0  0  0  0  0  0  0  0  0
  -24.3340   -9.5440   21.9570 C   0  0  0  0  0  3  0  0  0  0  0  0
  -23.5990   -8.3530   22.1420 C   0  0  0  0  0  3  0  0  0  0  0  0
  -22.4130   -8.1290   21.4020 C   0  0  0  0  0  0  0  0  0  0  0  0
  -21.9940   -9.0930   20.4690 C   0  0  0  0  0  3  0  0  0  0  0  0
  -22.7300  -10.2750   20.2820 C   0  0  0  0  0  3  0  0  0  0  0  0
  -21.6490   -6.9900   21.4970 O   0  0  0  0  0  0  0  0  0  0  0  0
  -21.6180   -6.2380   22.6430 C   0  0  0  0  0  0  0  0  0  0  0  0
  -21.2290   -6.7860   23.8850 C   0  0  0  0  0  3  0  0  0  0  0  0
  -21.1420   -5.9610   25.0240 C   0  0  0  0  0  3  0  0  0  0  0  0
  -21.4370   -4.5880   24.9230 C   0  0  0  0  0  0  0  0  0  0  0  0
  -21.8210   -4.0390   23.6870 C   0  0  0  0  0  3  0  0  0  0  0  0
  -21.9080   -4.8610   22.5500 C   0  0  0  0  0  0  0  0  0  0  0  0
  -22.2560   -4.3230   21.3570 F   0  0  0  0  0  0  0  0  0  0  0  0
  -21.3470   -3.7940   26.0150 F   0  0  0  0  0  0  0  0  0  0  0  0
  -22.7830  -13.6190   21.1390 C   0  0  0  0  0  0  0  0  0  0  0  0
  -22.0510  -12.9330   22.0110 N   0  0  0  0  0  0  0  0  0  0  0  0
  -22.3510  -14.6450   20.6160 O   0  0  0  0  0  0  0  0  0  0  0  0
  -22.4100  -12.1070   22.4630 H   0  0  0  0  0  0  0  0  0  0  0  0
  -21.1160  -13.2490   22.2350 H   0  0  0  0  0  0  0  0  0  0  0  0
  -25.4120  -15.2660   20.3070 N   0  0  0  0  0  0  0  0  0  0  0  0
  -24.6400  -15.9170   20.4110 H   0  0  0  0  0  0  0  0  0  0  0  0
  -26.2470  -15.7040   19.9370 H   0  0  0  0  0  0  0  0  0  0  0  0
  -29.1460  -23.7270   20.4230 C   0  0  0  0  0  2  0  0  0  0  0  0
  -27.0520  -24.5550   21.5600 C   0  0  0  0  0  1  0  0  0  0  0  0
  -27.9740  -24.8430   20.3530 C   0  0  0  0  0  3  0  0  0  0  0  0
  -28.2780  -26.3280   20.3060 O   0  0  0  0  0  0  0  0  0  0  0  0
  -24.6400  -31.8830   23.2360 C   0  0  0  0  0  0  0  0  0  0  0  0
  -27.2080  -27.2570   20.1950 C   0  0  0  0  0  0  0  0  0  0  0  0
  -23.4270  -30.4820   21.6060 C   0  0  0  0  0  3  0  0  0  0  0  0
  -24.8680  -28.9280   20.1710 C   0  0  0  0  0  0  0  0  0  0  0  0
  -25.9700  -30.7790   21.4160 C   0  0  0  0  0  2  0  0  0  0  0  0
  -26.0420  -29.3940   20.7730 C   0  0  0  0  0  0  0  0  0  0  0  0
  -27.2150  -28.5700   20.7790 C   0  0  0  0  0  3  0  0  0  0  0  0
  -26.0200  -26.8810   19.5270 C   0  0  0  0  0  3  0  0  0  0  0  0
  -24.8630  -27.6800   19.5330 C   0  0  0  0  0  3  0  0  0  0  0  0
  -23.6370  -29.8090   20.2250 C   0  0  0  0  0  2  0  0  0  0  0  0
  -24.6990  -31.0670   22.1420 N   0  0  0  0  0  0  0  0  0  0  0  0
  -23.5590  -32.1660   23.7720 O   0  0  0  0  0  0  0  0  0  0  0  0
  -22.7640  -29.4690   22.5710 C   0  0  0  0  0  0  0  0  0  0  0  0
  -21.4400  -29.2840   22.4400 N   0  0  0  0  0  0  0  0  0  0  0  0
  -23.4430  -28.8570   23.4000 O   0  0  0  0  0  0  0  0  0  0  0  0
  -20.9530  -29.8320   21.7450 H   0  0  0  0  0  0  0  0  0  0  0  0
  -18.0720  -28.0470   22.9220 C   0  0  0  0  0  0  0  0  0  0  0  0
  -20.6230  -28.3500   23.2180 C   0  0  0  0  0  3  0  0  0  0  0  0
  -20.7520  -26.9090   22.6720 C   0  0  0  0  0  2  0  0  0  0  0  0
  -19.6680  -26.5510   21.6500 C   0  0  0  0  0  2  0  0  0  0  0  0
  -18.2760  -26.6880   22.2720 C   0  0  0  0  0  2  0  0  0  0  0  0
  -19.1740  -28.8340   23.3510 C   0  0  0  0  0  0  0  0  0  0  0  0
  -18.9300  -30.1040   23.9180 C   0  0  0  0  0  3  0  0  0  0  0  0
  -17.6160  -30.5880   24.0580 C   0  0  0  0  0  3  0  0  0  0  0  0
  -16.5280  -29.8020   23.6430 C   0  0  0  0  0  3  0  0  0  0  0  0
  -16.7570  -28.5320   23.0810 C   0  0  0  0  0  3  0  0  0  0  0  0
  -25.9260  -32.5170   23.8490 C   0  0  0  0  0  3  0  0  0  0  0  0
  -26.4530  -31.7420   25.1200 C   0  0  1  0  0  0  0  0  0  0  0  0
  -25.3690  -31.5020   26.1970 C   0  0  0  0  0  1  0  0  0  0  0  0
  -27.0330  -30.3660   24.7210 C   0  0  0  0  0  1  0  0  0  0  0  0
  -27.6060  -32.5370   25.7740 C   0  0  0  0  0  1  0  0  0  0  0  0
  -25.6150  -33.9130   24.1880 N   0  0  0  0  0  0  0  0  0  0  0  0
  -25.9340  -34.9700   23.4280 C   0  0  0  0  0  0  0  0  0  0  0  0
  -26.5890  -34.8720   22.3890 O   0  0  0  0  0  0  0  0  0  0  0  0
  -25.0310  -34.0630   24.9980 H   0  0  0  0  0  0  0  0  0  0  0  0
  -24.1950  -36.7600   23.1040 C   0  0  0  0  0  1  0  0  0  0  0  0
  -25.4480  -36.3560   23.8970 C   0  0  0  0  0  3  0  0  0  0  0  0
  -27.5920  -37.2440   24.7010 C   0  0  0  0  0  1  0  0  0  0  0  0
  -26.4750  -37.4120   23.7740 N   0  0  0  0  0  0  0  0  0  0  0  0
  -26.0700  -38.3310   23.9320 H   0  0  0  0  0  0  0  0  0  0  0  0
  1  2  2  0
  1  3  1  0
  2  5  1  0
  3  6  2  0
  4  7  1  0
  5  4  2  0
  6  4  1  0
  7 10  1  0
  7 11  1  0
  8 52  1  0
  8  3  1  0
  9  1  1  0
 12  8  1  0
 13  2  1  0
 13 22  1  0
 14 22  1  0
 15 20  1  0
 16 17  1  0
 16 15  1  0
 18 17  1  0
 18 27  1  0
 18 19  1  0
 20 14  1  0
 20 19  1  0
 21 14  2  0
 22 23  1  0
 24 25  2  0
 25 44  1  0
 26 25  1  0
 26 29  1  0
 27 24  1  0
 27 28  1  0
 28 26  2  0
 29 30  1  0
 30 31  2  0
 32 35  1  0
 32 31  1  0
 33 32  2  0
 34 33  1  0
 34 29  2  0
 35 36  1  0
 36 37  1  0
 37 38  2  0
 39 38  1  0
 39 43  1  0
 40 39  2  0
 41 36  2  0
 41 40  1  0
 42 41  1  0
 44 45  1  0
 45 48  1  0
 45 47  1  0
 46 44  2  0
 49 50  1  0
 49 24  1  0
 51 49  1  0
 54 52  1  0
 54 53  1  0
 55 54  1  0
 56 67  2  0
 57 55  1  0
 57 62  1  0
 58 66  1  0
 58 68  1  0
 59 65  1  0
 59 61  1  0
 60 66  1  0
 61 62  2  0
 61 60  1  0
 63 64  1  0
 63 57  2  0
 64 59  2  0
 65 58  1  0
 66 56  1  0
 68 70  2  0
 69 68  1  0
 71 69  1  0
 72 81  2  0
 72 77  1  0
 73 69  1  0
 73 77  1  0
 74 73  1  0
 75 76  1  0
 75 74  1  0
 76 72  1  0
 77 78  2  0
 78 79  1  0
 80 79  2  0
 81 80  1  0
 82 56  1  0
 82 87  1  0
 82 83  1  0
 83 86  1  1
 83 84  1  0
 85 83  1  0
 87 90  1  0
 88 92  1  0
 88 87  1  0
 89 88  2  0
 92 91  1  0
 94 92  1  0
 94 95  1  0
 94 93  1  0
M  ISO  4  14 100  22 100  54 101  55 101
M  END
>  <TORSDO>  (6) 
F 19

>  <SCORE>  (6) 
-14.527

>  <name>  (6) 
5

>  <ligand_id>  (6) 
5

>  <original_smiles>  (6) 
[H]c1c([H])c([H])c2c(c1[H])C([H])([H])C([H])([H])C([H])([H])C2([H])N([H])C(=O)C1([H])N(C(=O)C([H])(N([H])C(=O)C([H])(N([H])C([H])([H])[H])C([H])([H])[H])C(C([H])([H])[H])(C([H])([H])[H])C([H])([H])[H])C([H])([H])c2c([H])c(OC([H])(C([H])([H])[H])C([H])([H])N([H])c3nc(N([H])[H])nc(C([H])([H])N([H])C(=O)N4C([H])([H])C([H])([H])C([H])([H])C([H])(n5nc(-c6c([H])c([H])c(Oc7c([H])c([H])c(F)c([H])c7F)c([H])c6[H])c(C(=O)N([H])[H])c5N([H])[H])C4([H])[H])c3F)c([H])c([H])c2C1([H])[H]

>  <smiles>  (6) 
[H]c1c([H])c([H])c2c(c1[H])C([H])([H])C([H])([H])C([H])([H])C2([H])N([H])C(=O)C1([H])N(C(=O)C([H])(N([H])C(=O)C([H])(N([H])C([H])([H])[H])C([H])([H])[H])C(C([H])([H])[H])(C([H])([H])[H])C([H])([H])[H])C([H])([H])c2c([H])c(OC([H])(C([H])([H])[H])C([H])([H])N([H])c3nc(N([H])[H])nc(C([H])([H])N([H])C(=O)N4C([H])([H])C([H])([H])C([H])([H])C([H])(n5nc(-c6c([H])c([H])c(Oc7c([H])c([H])c(F)c([H])c7F)c([H])c6[H])c(C(=O)N([H])[H])c5N([H])[H])C4([H])[H])c3F)c([H])c([H])c2C1([H])[H]

$$$$
6:0:0
     RDKit          3D

 97105  0  0  1  0  0  0  0  0999 V2000
  -29.9990  -23.3310   19.5340 C   0  0  0  0  0  0  0  0  0  0  0  0
  -30.6160  -22.2790   20.2040 N   0  0  0  0  0  0  0  0  0  0  0  0
  -29.6790  -23.2520   18.3490 O   0  0  0  0  0  0  0  0  0  0  0  0
  -30.9320  -22.6310   21.0980 H   0  0  0  0  0  0  0  0  0  0  0  0
  -32.2370  -15.3940   19.6340 C   0  0  0  0  0  0  0  0  0  0  0  0
  -32.0430  -13.0440   18.7750 C   0  0  0  0  0  2  0  0  0  0  0  0
  -30.9500  -13.0110   17.6820 C   0  0  0  0  0  2  0  0  0  0  0  0
  -29.5510  -12.8230   18.3020 C   0  0  0  0  0  2  0  0  0  0  0  0
  -29.3020  -13.7700   19.5050 C   0  0  0  0  0  3  0  0  0  0  0  0
  -30.4960  -13.7520   20.4880 C   0  0  0  0  0  2  0  0  0  0  0  0
  -31.7000  -14.1260   19.7280 N   0  0  0  0  0  0  0  0  0  0  0  0
  -33.3270  -15.5600   19.0710 O   0  0  0  0  0  0  0  0  0  0  0  0
  -30.7020  -18.5370   21.0800 C   0  0  0  0  0  3  0  0  0  0  0  0
  -31.4670  -20.1020   18.9930 C   0  0  0  0  0  3  0  0  0  0  0  0
  -30.4440  -19.9420   21.1340 C   0  0  0  0  0  0  0  0  0  0  0  0
  -30.8210  -20.8050   20.0560 C   0  0  0  0  0  0  0  0  0  0  0  0
  -31.3620  -17.9080   20.0030 C   0  0  0  0  0  0  0  0  0  0  0  0
  -31.7320  -18.7370   18.9730 N   0  0  0  0  0  0  0  0  0  0  0  0
  -31.4450  -16.4280   20.1070 N   0  0  0  0  0  0  0  0  0  0  0  0
  -30.6910  -16.0480   20.6570 H   0  0  0  0  0  0  0  0  0  0  0  0
  -27.1280  -14.3690   20.7320 C   0  0  0  0  0  0  0  0  0  0  0  0
  -26.0750  -13.6060   21.1570 C   0  0  0  0  0  0  0  0  0  0  0  0
  -26.4040  -12.2570   20.8260 C   0  0  0  0  0  0  0  0  0  0  0  0
  -28.0360  -13.4840   20.1730 N   0  0  0  0  0  0  0  0  0  0  0  0
  -27.6160  -12.1980   20.2870 N   0  0  0  0  0  0  0  0  0  0  0  0
  -25.6120  -11.0250   20.9380 C   0  0  0  0  0  0  0  0  0  0  0  0
  -25.8900  -10.0540   21.9250 C   0  0  0  0  0  3  0  0  0  0  0  0
  -25.1020   -8.8870   22.0250 C   0  0  0  0  0  3  0  0  0  0  0  0
  -24.0200   -8.6830   21.1340 C   0  0  0  0  0  0  0  0  0  0  0  0
  -23.7620   -9.6420   20.1390 C   0  0  0  0  0  3  0  0  0  0  0  0
  -24.5510  -10.8000   20.0380 C   0  0  0  0  0  3  0  0  0  0  0  0
  -23.2180   -7.5690   21.1390 O   0  0  0  0  0  0  0  0  0  0  0  0
  -22.6720   -7.0800   22.2990 C   0  0  0  0  0  0  0  0  0  0  0  0
  -21.8580   -7.8760   23.1330 C   0  0  0  0  0  3  0  0  0  0  0  0
  -21.2620   -7.3130   24.2800 C   0  0  0  0  0  3  0  0  0  0  0  0
  -21.4690   -5.9560   24.5870 C   0  0  0  0  0  0  0  0  0  0  0  0
  -22.2750   -5.1600   23.7560 C   0  0  0  0  0  3  0  0  0  0  0  0
  -22.8720   -5.7200   22.6120 C   0  0  0  0  0  0  0  0  0  0  0  0
  -23.6310   -4.9430   21.8020 F   0  0  0  0  0  0  0  0  0  0  0  0
  -20.8900   -5.4130   25.6850 F   0  0  0  0  0  0  0  0  0  0  0  0
  -24.7900  -14.1100   21.7490 C   0  0  0  0  0  0  0  0  0  0  0  0
  -24.1370  -13.3000   22.5760 N   0  0  0  0  0  0  0  0  0  0  0  0
  -24.3820  -15.2470   21.5190 O   0  0  0  0  0  0  0  0  0  0  0  0
  -24.4810  -12.3740   22.7810 H   0  0  0  0  0  0  0  0  0  0  0  0
  -23.2790  -13.6110   23.0090 H   0  0  0  0  0  0  0  0  0  0  0  0
  -27.3790  -15.7380   20.7500 N   0  0  0  0  0  0  0  0  0  0  0  0
  -26.6920  -16.4020   21.0890 H   0  0  0  0  0  0  0  0  0  0  0  0
  -28.1740  -16.1830   20.3100 H   0  0  0  0  0  0  0  0  0  0  0  0
  -29.7560  -20.5050   22.3800 C   0  0  1  0  0  0  0  0  0  0  0  0
  -29.5480  -19.5830   23.3220 F   0  0  0  0  0  0  0  0  0  0  0  0
  -30.5180  -21.4700   22.8990 F   0  0  0  0  0  0  0  0  0  0  0  0
  -28.5780  -21.0370   22.0490 F   0  0  0  0  0  0  0  0  0  0  0  0
  -29.5090  -25.8920   20.2600 C   0  0  0  0  0  3  0  0  0  0  0  0
  -29.7780  -24.5310   20.4400 C   0  0  0  0  0  0  0  0  0  0  0  0
  -29.7820  -24.2090   21.7470 O   0  0  0  0  0  0  0  0  0  0  0  0
  -29.3980  -23.3440   21.8230 H   0  0  0  0  0  0  0  0  0  0  0  0
  -29.3210  -26.8300   19.2170 O   0  0  0  0  0  0  0  0  0  0  0  0
  -25.0300  -31.3460   22.9830 C   0  0  0  0  0  0  0  0  0  0  0  0
  -28.1320  -27.5870   19.3180 C   0  0  0  0  0  0  0  0  0  0  0  0
  -23.9580  -29.9100   21.2850 C   0  0  0  0  0  3  0  0  0  0  0  0
  -25.5380  -28.7750   19.6160 C   0  0  0  0  0  0  0  0  0  0  0  0
  -26.3890  -30.6800   20.9800 C   0  0  0  0  0  2  0  0  0  0  0  0
  -26.6540  -29.4000   20.1900 C   0  0  0  0  0  0  0  0  0  0  0  0
  -27.9560  -28.8170   20.0360 C   0  0  0  0  0  3  0  0  0  0  0  0
  -26.9850  -27.0260   18.7230 C   0  0  0  0  0  3  0  0  0  0  0  0
  -25.7050  -27.5960   18.8710 C   0  0  0  0  0  3  0  0  0  0  0  0
  -24.1770  -29.4100   19.8320 C   0  0  0  0  0  2  0  0  0  0  0  0
  -25.1450  -30.6610   21.8060 N   0  0  0  0  0  0  0  0  0  0  0  0
  -23.9590  -31.3770   23.6080 O   0  0  0  0  0  0  0  0  0  0  0  0
  -23.5510  -28.7120   22.1760 C   0  0  0  0  0  0  0  0  0  0  0  0
  -22.3100  -28.2230   22.0090 N   0  0  0  0  0  0  0  0  0  0  0  0
  -24.3530  -28.2260   22.9790 O   0  0  0  0  0  0  0  0  0  0  0  0
  -21.7070  -28.6810   21.3390 H   0  0  0  0  0  0  0  0  0  0  0  0
  -19.3840  -26.1070   22.2520 C   0  0  0  0  0  0  0  0  0  0  0  0
  -21.7380  -27.0730   22.7120 C   0  0  0  0  0  3  0  0  0  0  0  0
  -22.2820  -25.7430   22.1400 C   0  0  0  0  0  2  0  0  0  0  0  0
  -21.3910  -25.1490   21.0440 C   0  0  0  0  0  2  0  0  0  0  0  0
  -19.9830  -24.8810   21.5840 C   0  0  0  0  0  2  0  0  0  0  0  0
  -20.2070  -27.1430   22.7680 C   0  0  0  0  0  0  0  0  0  0  0  0
  -19.5970  -28.2760   23.3490 C   0  0  0  0  0  3  0  0  0  0  0  0
  -18.1950  -28.3810   23.4220 C   0  0  0  0  0  3  0  0  0  0  0  0
  -17.3860  -27.3460   22.9210 C   0  0  0  0  0  3  0  0  0  0  0  0
  -17.9800  -26.2110   22.3420 C   0  0  0  0  0  3  0  0  0  0  0  0
  -26.2300  -32.1380   23.5870 C   0  0  0  0  0  3  0  0  0  0  0  0
  -26.8860  -31.4170   24.8280 C   0  0  1  0  0  0  0  0  0  0  0  0
  -25.8670  -30.9990   25.9150 C   0  0  0  0  0  1  0  0  0  0  0  0
  -27.6490  -30.1480   24.3860 C   0  0  0  0  0  1  0  0  0  0  0  0
  -27.9280  -32.3530   25.4860 C   0  0  0  0  0  1  0  0  0  0  0  0
  -25.7390  -33.4710   23.9640 N   0  0  0  0  0  0  0  0  0  0  0  0
  -25.9680  -34.5920   23.2680 C   0  0  0  0  0  0  0  0  0  0  0  0
  -26.6830  -34.6210   22.2630 O   0  0  0  0  0  0  0  0  0  0  0  0
  -25.1000  -33.5130   24.7450 H   0  0  0  0  0  0  0  0  0  0  0  0
  -24.0800  -36.2110   22.8890 C   0  0  0  0  0  1  0  0  0  0  0  0
  -25.3010  -35.8890   23.7660 C   0  0  0  0  0  3  0  0  0  0  0  0
  -27.2610  -36.9420   24.8050 C   0  0  0  0  0  1  0  0  0  0  0  0
  -26.2160  -37.0510   23.7910 N   0  0  0  0  0  0  0  0  0  0  0  0
  -25.7010  -37.9120   23.9560 H   0  0  0  0  0  0  0  0  0  0  0  0
  1  2  1  0
  1 54  1  0
  2  4  1  0
  3  1  2  0
  5 11  1  0
  5 19  1  0
  6 11  1  0
  7  8  1  0
  7  6  1  0
  9  8  1  0
  9 24  1  0
  9 10  1  0
 11 10  1  0
 12  5  2  0
 13 15  1  0
 14 16  1  0
 15 49  1  0
 16  2  1  0
 16 15  2  0
 17 19  1  0
 17 13  2  0
 18 14  2  0
 18 17  1  0
 19 20  1  0
 21 46  1  0
 21 22  2  0
 22 41  1  0
 23 26  1  0
 23 22  1  0
 24 25  1  0
 24 21  1  0
 25 23  2  0
 26 27  1  0
 27 28  2  0
 29 32  1  0
 29 28  1  0
 30 29  2  0
 31 30  1  0
 31 26  2  0
 32 33  1  0
 33 38  2  0
 33 34  1  0
 34 35  2  0
 35 36  1  0
 36 40  1  0
 37 36  2  0
 38 37  1  0
 39 38  1  0
 41 42  1  0
 42 44  1  0
 42 45  1  0
 43 41  2  0
 46 47  1  0
 48 46  1  0
 49 51  1  1
 49 50  1  0
 52 49  1  0
 53 54  2  0
 54 55  1  0
 55 56  1  0
 57 59  1  0
 57 53  1  0
 58 69  2  0
 59 64  1  0
 60 68  1  0
 60 70  1  0
 61 67  1  0
 61 63  1  0
 62 68  1  0
 63 62  1  0
 64 63  2  0
 65 66  1  0
 65 59  2  0
 66 61  2  0
 67 60  1  0
 68 58  1  0
 70 72  2  0
 71 70  1  0
 73 71  1  0
 74 83  2  0
 74 79  1  0
 75 71  1  0
 75 79  1  0
 76 75  1  0
 77 78  1  0
 77 76  1  0
 78 74  1  0
 79 80  2  0
 80 81  1  0
 82 81  2  0
 83 82  1  0
 84 58  1  0
 84 89  1  0
 84 85  1  0
 85 88  1  1
 85 86  1  0
 87 85  1  0
 89 92  1  0
 90 94  1  0
 90 89  1  0
 91 90  2  0
 94 93  1  0
 94 96  1  0
 96 97  1  0
 96 95  1  0
M  ISO  4   5 100  19 100  53 101  57 101
M  END
>  <TORSDO>  (7) 
F 19

>  <SCORE>  (7) 
-6.216

>  <name>  (7) 
6

>  <ligand_id>  (7) 
6

>  <original_smiles>  (7) 
[H]OC(C(=O)N([H])c1c([H])nc(N([H])C(=O)N2C([H])([H])C([H])([H])C([H])([H])C([H])(n3nc(-c4c([H])c([H])c(Oc5c([H])c([H])c(F)c([H])c5F)c([H])c4[H])c(C(=O)N([H])[H])c3N([H])[H])C2([H])[H])c([H])c1C(F)(F)F)=C([H])Oc1c([H])c([H])c2c(c1[H])C([H])([H])N(C(=O)C([H])(N([H])C(=O)C([H])(N([H])C([H])([H])[H])C([H])([H])[H])C(C([H])([H])[H])(C([H])([H])[H])C([H])([H])[H])C([H])(C(=O)N([H])C1([H])c3c([H])c([H])c([H])c([H])c3C([H])([H])C([H])([H])C1([H])[H])C2([H])[H]

>  <smiles>  (7) 
[H]OC(C(=O)N([H])c1c([H])nc(N([H])C(=O)N2C([H])([H])C([H])([H])C([H])([H])C([H])(n3nc(-c4c([H])c([H])c(Oc5c([H])c([H])c(F)c([H])c5F)c([H])c4[H])c(C(=O)N([H])[H])c3N([H])[H])C2([H])[H])c([H])c1C(F)(F)F)=C([H])Oc1c([H])c([H])c2c(c1[H])C([H])([H])N(C(=O)C([H])(N([H])C(=O)C([H])(N([H])C([H])([H])[H])C([H])([H])[H])C(C([H])([H])[H])(C([H])([H])[H])C([H])([H])[H])C([H])(C(=O)N([H])C1([H])c3c([H])c([H])c([H])c([H])c3C([H])([H])C([H])([H])C1([H])[H])C2([H])[H]

$$$$
7:0:0
     RDKit          3D

 94102  0  0  1  0  0  0  0  0999 V2000
  -28.9820  -21.2380   19.9100 C   0  0  0  0  0  0  0  0  0  0  0  0
  -29.1840  -22.4200   20.6090 N   0  0  0  0  0  0  0  0  0  0  0  0
  -28.2830  -21.2610   18.8970 O   0  0  0  0  0  0  0  0  0  0  0  0
  -29.9070  -22.3470   21.3130 H   0  0  0  0  0  0  0  0  0  0  0  0
  -30.7890  -14.8070   19.6380 C   0  0  0  0  0  0  0  0  0  0  0  0
  -30.4740  -12.5870   18.4990 C   0  0  0  0  0  2  0  0  0  0  0  0
  -29.3620  -12.7260   17.4300 C   0  0  0  0  0  2  0  0  0  0  0  0
  -27.9650  -12.5370   18.0500 C   0  0  0  0  0  2  0  0  0  0  0  0
  -27.7830  -13.3440   19.3610 C   0  0  0  0  0  3  0  0  0  0  0  0
  -28.9860  -13.1550   20.3140 C   0  0  0  0  0  2  0  0  0  0  0  0
  -30.1940  -13.5640   19.5780 N   0  0  0  0  0  0  0  0  0  0  0  0
  -31.8630  -15.0080   19.0540 O   0  0  0  0  0  0  0  0  0  0  0  0
  -29.5500  -19.8520   20.3590 C   0  0  0  0  0  0  0  0  0  0  0  0
  -29.8900  -19.2810   21.5840 C   0  0  0  0  0  0  0  0  0  0  0  0
  -30.1070  -17.2810   20.3610 C   0  0  0  0  0  0  0  0  0  0  0  0
  -30.2010  -17.8930   21.5600 N   0  0  0  0  0  0  0  0  0  0  0  0
  -30.0680  -15.8000   20.2810 N   0  0  0  0  0  0  0  0  0  0  0  0
  -29.6000  -18.5130   19.1430 S   0  0  0  0  0  0  0  0  0  0  0  0
  -29.3080  -15.4010   20.8080 H   0  0  0  0  0  0  0  0  0  0  0  0
  -25.5370  -13.9200   20.4670 C   0  0  0  0  0  0  0  0  0  0  0  0
  -24.5130  -13.1410   20.9240 C   0  0  0  0  0  0  0  0  0  0  0  0
  -24.9220  -11.7860   20.7160 C   0  0  0  0  0  0  0  0  0  0  0  0
  -26.5120  -13.0430   20.0120 N   0  0  0  0  0  0  0  0  0  0  0  0
  -26.1530  -11.7500   20.2220 N   0  0  0  0  0  0  0  0  0  0  0  0
  -24.1910  -10.5270   20.9060 C   0  0  0  0  0  0  0  0  0  0  0  0
  -24.6370   -9.5450   21.8190 C   0  0  0  0  0  3  0  0  0  0  0  0
  -23.9070   -8.3510   22.0030 C   0  0  0  0  0  3  0  0  0  0  0  0
  -22.7170   -8.1280   21.2690 C   0  0  0  0  0  0  0  0  0  0  0  0
  -22.2850   -9.1010   20.3490 C   0  0  0  0  0  3  0  0  0  0  0  0
  -23.0160  -10.2860   20.1660 C   0  0  0  0  0  3  0  0  0  0  0  0
  -21.9620   -6.9830   21.3540 O   0  0  0  0  0  0  0  0  0  0  0  0
  -21.8040   -6.3150   22.5400 C   0  0  0  0  0  0  0  0  0  0  0  0
  -21.2380   -6.9340   23.6750 C   0  0  0  0  0  3  0  0  0  0  0  0
  -21.0310   -6.1900   24.8540 C   0  0  0  0  0  3  0  0  0  0  0  0
  -21.3780   -4.8260   24.8950 C   0  0  0  0  0  0  0  0  0  0  0  0
  -21.9380   -4.2050   23.7630 C   0  0  0  0  0  3  0  0  0  0  0  0
  -22.1460   -4.9470   22.5870 C   0  0  0  0  0  0  0  0  0  0  0  0
  -22.6650   -4.3420   21.4930 F   0  0  0  0  0  0  0  0  0  0  0  0
  -21.1720   -4.1080   26.0230 F   0  0  0  0  0  0  0  0  0  0  0  0
  -23.1870  -13.6210   21.4360 C   0  0  0  0  0  0  0  0  0  0  0  0
  -22.5780  -12.8840   22.3550 N   0  0  0  0  0  0  0  0  0  0  0  0
  -22.7040  -14.6880   21.0550 O   0  0  0  0  0  0  0  0  0  0  0  0
  -22.9860  -12.0250   22.6890 H   0  0  0  0  0  0  0  0  0  0  0  0
  -21.6960  -13.1930   22.7390 H   0  0  0  0  0  0  0  0  0  0  0  0
  -25.7130  -15.2980   20.3800 N   0  0  0  0  0  0  0  0  0  0  0  0
  -24.9780  -15.9420   20.6480 H   0  0  0  0  0  0  0  0  0  0  0  0
  -26.4970  -15.7550   19.9350 H   0  0  0  0  0  0  0  0  0  0  0  0
  -29.8820  -19.9100   22.8370 N   0  0  0  0  0  0  0  0  0  0  0  0
  -29.3240  -20.7480   22.9620 H   0  0  0  0  0  0  0  0  0  0  0  0
  -29.8860  -19.3260   23.6680 H   0  0  0  0  0  0  0  0  0  0  0  0
  -26.8630  -23.4270   20.7560 C   0  0  0  0  0  1  0  0  0  0  0  0
  -28.3730  -23.7330   20.7240 C   0  0  0  0  0  3  0  0  0  0  0  0
  -28.6620  -25.0280   19.7900 C   0  0  0  0  0  2  0  0  0  0  0  0
  -28.5180  -26.4590   20.2630 O   0  0  0  0  0  0  0  0  0  0  0  0
  -24.6820  -31.8690   23.1650 C   0  0  0  0  0  0  0  0  0  0  0  0
  -27.3740  -27.2840   20.1550 C   0  0  0  0  0  0  0  0  0  0  0  0
  -23.5040  -30.4440   21.5260 C   0  0  0  0  0  3  0  0  0  0  0  0
  -24.9840  -28.8920   20.1180 C   0  0  0  0  0  0  0  0  0  0  0  0
  -26.0400  -30.7820   21.3530 C   0  0  0  0  0  2  0  0  0  0  0  0
  -26.1430  -29.3970   20.7180 C   0  0  0  0  0  0  0  0  0  0  0  0
  -27.3350  -28.6040   20.7240 C   0  0  0  0  0  3  0  0  0  0  0  0
  -26.1930  -26.8450   19.5180 C   0  0  0  0  0  3  0  0  0  0  0  0
  -25.0120  -27.6240   19.5100 C   0  0  0  0  0  3  0  0  0  0  0  0
  -23.7380  -29.7600   20.1510 C   0  0  0  0  0  2  0  0  0  0  0  0
  -24.7610  -31.0530   22.0700 N   0  0  0  0  0  0  0  0  0  0  0  0
  -23.5950  -32.1380   23.6960 O   0  0  0  0  0  0  0  0  0  0  0  0
  -22.8490  -29.4260   22.4910 C   0  0  0  0  0  0  0  0  0  0  0  0
  -21.5320  -29.2130   22.3430 N   0  0  0  0  0  0  0  0  0  0  0  0
  -23.5300  -28.8290   23.3290 O   0  0  0  0  0  0  0  0  0  0  0  0
  -21.0410  -29.7500   21.6440 H   0  0  0  0  0  0  0  0  0  0  0  0
  -18.1910  -27.8930   22.7650 C   0  0  0  0  0  0  0  0  0  0  0  0
  -20.7280  -28.2600   23.1100 C   0  0  0  0  0  3  0  0  0  0  0  0
  -20.9070  -26.8230   22.5670 C   0  0  0  0  0  2  0  0  0  0  0  0
  -19.8490  -26.4410   21.5250 C   0  0  0  0  0  2  0  0  0  0  0  0
  -18.4430  -26.5390   22.1220 C   0  0  0  0  0  2  0  0  0  0  0  0
  -19.2640  -28.7070   23.2150 C   0  0  0  0  0  0  0  0  0  0  0  0
  -18.9750  -29.9740   23.7680 C   0  0  0  0  0  3  0  0  0  0  0  0
  -17.6470  -30.4280   23.8750 C   0  0  0  0  0  3  0  0  0  0  0  0
  -16.5900  -29.6110   23.4390 C   0  0  0  0  0  3  0  0  0  0  0  0
  -16.8620  -28.3450   22.8900 C   0  0  0  0  0  3  0  0  0  0  0  0
  -25.9550  -32.5220   23.7880 C   0  0  0  0  0  3  0  0  0  0  0  0
  -26.4940  -31.7510   25.0550 C   0  0  1  0  0  0  0  0  0  0  0  0
  -25.4120  -31.4710   26.1240 C   0  0  0  0  0  1  0  0  0  0  0  0
  -27.1100  -30.3930   24.6460 C   0  0  0  0  0  1  0  0  0  0  0  0
  -27.6260  -32.5640   25.7260 C   0  0  0  0  0  1  0  0  0  0  0  0
  -25.6190  -33.9110   24.1360 N   0  0  0  0  0  0  0  0  0  0  0  0
  -25.9150  -34.9810   23.3850 C   0  0  0  0  0  0  0  0  0  0  0  0
  -26.5740  -34.9050   22.3440 O   0  0  0  0  0  0  0  0  0  0  0  0
  -25.0340  -34.0430   24.9480 H   0  0  0  0  0  0  0  0  0  0  0  0
  -24.1350  -36.7350   23.0800 C   0  0  0  0  0  1  0  0  0  0  0  0
  -25.3970  -36.3500   23.8650 C   0  0  0  0  0  3  0  0  0  0  0  0
  -27.5160  -37.2830   24.6800 C   0  0  0  0  0  1  0  0  0  0  0  0
  -26.3990  -37.4320   23.7530 N   0  0  0  0  0  0  0  0  0  0  0  0
  -25.9680  -38.3390   23.9170 H   0  0  0  0  0  0  0  0  0  0  0  0
  1 13  1  0
  1  2  1  0
  2 52  1  0
  2  4  1  0
  3  1  2  0
  5 17  1  0
  6 11  1  0
  7  8  1  0
  7  6  1  0
  9  8  1  0
  9 23  1  0
  9 10  1  0
 11  5  1  0
 11 10  1  0
 12  5  2  0
 13 14  2  0
 14 48  1  0
 15 16  2  0
 16 14  1  0
 17 15  1  0
 17 19  1  0
 18 13  1  0
 18 15  1  0
 20 21  2  0
 21 40  1  0
 22 25  1  0
 22 21  1  0
 23 24  1  0
 23 20  1  0
 24 22  2  0
 25 26  1  0
 26 27  2  0
 28 31  1  0
 28 27  1  0
 29 28  2  0
 30 29  1  0
 30 25  2  0
 31 32  1  0
 32 37  2  0
 32 33  1  0
 33 34  2  0
 34 35  1  0
 35 39  1  0
 36 35  2  0
 37 36  1  0
 38 37  1  0
 40 41  1  0
 41 43  1  0
 41 44  1  0
 42 40  2  0
 45 20  1  0
 45 46  1  0
 47 45  1  0
 48 49  1  0
 48 50  1  0
 52 51  1  0
 53 54  1  0
 53 52  1  0
 55 66  2  0
 56 54  1  0
 56 61  1  0
 57 65  1  0
 57 67  1  0
 58 64  1  0
 58 60  1  0
 59 65  1  0
 60 61  2  0
 60 59  1  0
 62 56  2  0
 63 62  1  0
 63 58  2  0
 64 57  1  0
 65 55  1  0
 67 69  2  0
 68 67  1  0
 70 68  1  0
 71 80  2  0
 71 76  1  0
 72 68  1  0
 72 76  1  0
 73 72  1  0
 74 75  1  0
 74 73  1  0
 75 71  1  0
 76 77  2  0
 77 78  1  0
 79 78  2  0
 80 79  1  0
 81 55  1  0
 81 86  1  0
 81 82  1  0
 82 85  1  1
 82 83  1  0
 84 82  1  0
 86 89  1  0
 87 91  1  0
 87 86  1  0
 88 87  2  0
 91 90  1  0
 93 91  1  0
 93 94  1  0
 93 92  1  0
M  ISO  4   5 100  17 100  53 101  54 101
M  END
>  <TORSDO>  (8) 
F 19

>  <SCORE>  (8) 
-12.555

>  <name>  (8) 
7

>  <ligand_id>  (8) 
7

>  <original_smiles>  (8) 
[H]c1c([H])c([H])c2c(c1[H])C([H])([H])C([H])([H])C([H])([H])C2([H])N([H])C(=O)C1([H])N(C(=O)C([H])(N([H])C(=O)C([H])(N([H])C([H])([H])[H])C([H])([H])[H])C(C([H])([H])[H])(C([H])([H])[H])C([H])([H])[H])C([H])([H])c2c([H])c(OC([H])([H])C([H])(N([H])C(=O)c3sc(N([H])C(=O)N4C([H])([H])C([H])([H])C([H])([H])C([H])(n5nc(-c6c([H])c([H])c(Oc7c([H])c([H])c(F)c([H])c7F)c([H])c6[H])c(C(=O)N([H])[H])c5N([H])[H])C4([H])[H])nc3N([H])[H])C([H])([H])[H])c([H])c([H])c2C1([H])[H]

>  <smiles>  (8) 
[H]c1c([H])c([H])c2c(c1[H])C([H])([H])C([H])([H])C([H])([H])C2([H])N([H])C(=O)C1([H])N(C(=O)C([H])(N([H])C(=O)C([H])(N([H])C([H])([H])[H])C([H])([H])[H])C(C([H])([H])[H])(C([H])([H])[H])C([H])([H])[H])C([H])([H])c2c([H])c(OC([H])([H])C([H])(N([H])C(=O)c3sc(N([H])C(=O)N4C([H])([H])C([H])([H])C([H])([H])C([H])(n5nc(-c6c([H])c([H])c(Oc7c([H])c([H])c(F)c([H])c7F)c([H])c6[H])c(C(=O)N([H])[H])c5N([H])[H])C4([H])[H])nc3N([H])[H])C([H])([H])[H])c([H])c([H])c2C1([H])[H]

$$$$
8:0:0
     RDKit          3D

 95103  0  0  1  0  0  0  0  0999 V2000
  -30.1760  -21.6390   20.4690 C   0  0  0  0  0  0  0  0  0  0  0  0
  -29.1420  -22.5390   20.3420 N   0  0  0  0  0  0  0  0  0  0  0  0
  -31.2980  -22.0790   20.7410 O   0  0  0  0  0  0  0  0  0  0  0  0
  -28.2340  -22.1600   20.1040 H   0  0  0  0  0  0  0  0  0  0  0  0
  -28.9400  -18.0660   20.8420 C   0  0  0  0  0  3  0  0  0  0  0  0
  -30.0270  -20.0920   20.2960 C   0  0  0  0  0  0  0  0  0  0  0  0
  -30.0080  -17.2360   20.3730 C   0  0  0  0  0  0  0  0  0  0  0  0
  -31.0940  -19.2550   19.7940 C   0  0  0  0  0  0  0  0  0  0  0  0
  -28.9430  -19.4430   20.8130 N   0  0  0  0  0  0  0  0  0  0  0  0
  -31.0750  -17.8860   19.8270 N   0  0  0  0  0  0  0  0  0  0  0  0
  -32.2700  -19.7510   19.2340 N   0  0  0  0  0  0  0  0  0  0  0  0
  -32.5100  -20.7100   19.4720 H   0  0  0  0  0  0  0  0  0  0  0  0
  -33.0700  -19.1310   19.1970 H   0  0  0  0  0  0  0  0  0  0  0  0
  -30.6280  -14.7210   20.0490 C   0  0  0  0  0  0  0  0  0  0  0  0
  -30.3430  -12.5100   18.9350 C   0  0  0  0  0  2  0  0  0  0  0  0
  -29.3290  -12.6760   17.7820 C   0  0  0  0  0  2  0  0  0  0  0  0
  -27.8830  -12.5090   18.2920 C   0  0  0  0  0  2  0  0  0  0  0  0
  -27.6050  -13.3320   19.5770 C   0  0  0  0  0  3  0  0  0  0  0  0
  -28.7270  -13.1430   20.6220 C   0  0  0  0  0  2  0  0  0  0  0  0
  -30.0000  -13.5010   19.9770 N   0  0  0  0  0  0  0  0  0  0  0  0
  -31.7700  -14.8620   19.6000 O   0  0  0  0  0  0  0  0  0  0  0  0
  -29.8650  -15.7770   20.4900 N   0  0  0  0  0  0  0  0  0  0  0  0
  -28.9920  -15.4820   20.8960 H   0  0  0  0  0  0  0  0  0  0  0  0
  -25.2620  -13.9190   20.4540 C   0  0  0  0  0  0  0  0  0  0  0  0
  -24.2170  -13.1400   20.8660 C   0  0  0  0  0  0  0  0  0  0  0  0
  -24.6680  -11.7870   20.7680 C   0  0  0  0  0  0  0  0  0  0  0  0
  -26.2860  -13.0410   20.1320 N   0  0  0  0  0  0  0  0  0  0  0  0
  -25.9380  -11.7530   20.3820 N   0  0  0  0  0  0  0  0  0  0  0  0
  -23.9460  -10.5230   20.9630 C   0  0  0  0  0  0  0  0  0  0  0  0
  -24.4010   -9.5470   21.8760 C   0  0  0  0  0  3  0  0  0  0  0  0
  -23.6780   -8.3470   22.0600 C   0  0  0  0  0  3  0  0  0  0  0  0
  -22.4880   -8.1170   21.3300 C   0  0  0  0  0  0  0  0  0  0  0  0
  -22.0520   -9.0820   20.4060 C   0  0  0  0  0  3  0  0  0  0  0  0
  -22.7750  -10.2720   20.2200 C   0  0  0  0  0  3  0  0  0  0  0  0
  -21.7360   -6.9710   21.4240 O   0  0  0  0  0  0  0  0  0  0  0  0
  -21.6820   -6.2390   22.5830 C   0  0  0  0  0  0  0  0  0  0  0  0
  -21.2080   -6.7910   23.7920 C   0  0  0  0  0  3  0  0  0  0  0  0
  -21.1050   -5.9830   24.9420 C   0  0  0  0  0  3  0  0  0  0  0  0
  -21.4640   -4.6240   24.8840 C   0  0  0  0  0  0  0  0  0  0  0  0
  -21.9310   -4.0710   23.6780 C   0  0  0  0  0  3  0  0  0  0  0  0
  -22.0370   -4.8750   22.5310 C   0  0  0  0  0  0  0  0  0  0  0  0
  -22.4670   -4.3320   21.3670 F   0  0  0  0  0  0  0  0  0  0  0  0
  -21.3580   -3.8460   25.9870 F   0  0  0  0  0  0  0  0  0  0  0  0
  -22.8390  -13.6150   21.2310 C   0  0  0  0  0  0  0  0  0  0  0  0
  -22.1570  -12.8940   22.1150 N   0  0  0  0  0  0  0  0  0  0  0  0
  -22.3790  -14.6570   20.7690 O   0  0  0  0  0  0  0  0  0  0  0  0
  -22.5440  -12.0490   22.5110 H   0  0  0  0  0  0  0  0  0  0  0  0
  -21.2370  -13.1930   22.4030 H   0  0  0  0  0  0  0  0  0  0  0  0
  -25.4230  -15.2930   20.3040 N   0  0  0  0  0  0  0  0  0  0  0  0
  -24.6540  -15.9370   20.4580 H   0  0  0  0  0  0  0  0  0  0  0  0
  -26.2210  -15.7320   19.8650 H   0  0  0  0  0  0  0  0  0  0  0  0
  -29.1940  -24.2140   22.1810 C   0  0  0  0  0  1  0  0  0  0  0  0
  -29.2430  -24.0280   20.6550 C   0  0  0  0  0  3  0  0  0  0  0  0
  -28.1980  -25.0350   19.9870 C   0  0  0  0  0  2  0  0  0  0  0  0
  -28.3680  -26.4920   20.2440 O   0  0  0  0  0  0  0  0  0  0  0  0
  -24.6060  -31.8690   23.2540 C   0  0  0  0  0  0  0  0  0  0  0  0
  -27.2470  -27.3410   20.1770 C   0  0  0  0  0  0  0  0  0  0  0  0
  -23.4150  -30.4800   21.5980 C   0  0  0  0  0  3  0  0  0  0  0  0
  -24.8770  -28.9480   20.1640 C   0  0  0  0  0  0  0  0  0  0  0  0
  -25.9530  -30.8090   21.4290 C   0  0  0  0  0  2  0  0  0  0  0  0
  -26.0400  -29.4350   20.7720 C   0  0  0  0  0  0  0  0  0  0  0  0
  -27.2270  -28.6430   20.7690 C   0  0  0  0  0  3  0  0  0  0  0  0
  -26.0620  -26.9140   19.5350 C   0  0  0  0  0  3  0  0  0  0  0  0
  -24.8910  -27.6940   19.5370 C   0  0  0  0  0  3  0  0  0  0  0  0
  -23.6360  -29.8170   20.2130 C   0  0  0  0  0  2  0  0  0  0  0  0
  -24.6760  -31.0690   22.1510 N   0  0  0  0  0  0  0  0  0  0  0  0
  -23.5190  -32.1380   23.7870 O   0  0  0  0  0  0  0  0  0  0  0  0
  -22.7510  -29.4540   22.5470 C   0  0  0  0  0  0  0  0  0  0  0  0
  -21.4260  -29.2760   22.4160 N   0  0  0  0  0  0  0  0  0  0  0  0
  -23.4280  -28.8210   23.3610 O   0  0  0  0  0  0  0  0  0  0  0  0
  -20.9360  -29.8390   21.7340 H   0  0  0  0  0  0  0  0  0  0  0  0
  -18.0440  -28.0910   22.9160 C   0  0  0  0  0  0  0  0  0  0  0  0
  -20.6060  -28.3310   23.1760 C   0  0  0  0  0  3  0  0  0  0  0  0
  -20.6960  -26.9080   22.5800 C   0  0  0  0  0  2  0  0  0  0  0  0
  -19.5870  -26.6070   21.5660 C   0  0  0  0  0  2  0  0  0  0  0  0
  -18.2100  -26.7520   22.2190 C   0  0  0  0  0  2  0  0  0  0  0  0
  -19.1700  -28.8400   23.3520 C   0  0  0  0  0  0  0  0  0  0  0  0
  -18.9620  -30.0950   23.9640 C   0  0  0  0  0  3  0  0  0  0  0  0
  -17.6610  -30.6010   24.1460 C   0  0  0  0  0  3  0  0  0  0  0  0
  -16.5490  -29.8490   23.7260 C   0  0  0  0  0  3  0  0  0  0  0  0
  -16.7420  -28.5960   23.1170 C   0  0  0  0  0  3  0  0  0  0  0  0
  -25.8830  -32.5030   23.8870 C   0  0  0  0  0  3  0  0  0  0  0  0
  -26.3930  -31.7270   25.1620 C   0  0  1  0  0  0  0  0  0  0  0  0
  -25.2940  -31.4760   26.2200 C   0  0  0  0  0  1  0  0  0  0  0  0
  -26.9880  -30.3550   24.7670 C   0  0  0  0  0  1  0  0  0  0  0  0
  -27.5340  -32.5230   25.8400 C   0  0  0  0  0  1  0  0  0  0  0  0
  -25.5680  -33.8980   24.2240 N   0  0  0  0  0  0  0  0  0  0  0  0
  -25.8870  -34.9560   23.4650 C   0  0  0  0  0  0  0  0  0  0  0  0
  -26.5480  -34.8590   22.4270 O   0  0  0  0  0  0  0  0  0  0  0  0
  -24.9790  -34.0480   25.0300 H   0  0  0  0  0  0  0  0  0  0  0  0
  -24.1460  -36.7400   23.1330 C   0  0  0  0  0  1  0  0  0  0  0  0
  -25.3970  -36.3390   23.9320 C   0  0  0  0  0  3  0  0  0  0  0  0
  -27.5280  -37.2400   24.7550 C   0  0  0  0  0  1  0  0  0  0  0  0
  -26.4220  -37.3990   23.8130 N   0  0  0  0  0  0  0  0  0  0  0  0
  -26.0100  -38.3170   23.9590 H   0  0  0  0  0  0  0  0  0  0  0  0
  1  3  2  0
  2  1  1  0
  2 53  1  0
  4  2  1  0
  6  1  1  0
  6  9  2  0
  7 22  1  0
  7  5  2  0
  8 10  2  0
  8  6  1  0
  9  5  1  0
 10  7  1  0
 11 12  1  0
 11  8  1  0
 13 11  1  0
 14 22  1  0
 15 20  1  0
 16 17  1  0
 16 15  1  0
 18 17  1  0
 18 27  1  0
 18 19  1  0
 20 14  1  0
 20 19  1  0
 21 14  2  0
 22 23  1  0
 24 25  2  0
 25 44  1  0
 26 25  1  0
 26 29  1  0
 27 28  1  0
 27 24  1  0
 28 26  2  0
 29 30  1  0
 30 31  2  0
 32 35  1  0
 32 31  1  0
 33 32  2  0
 34 33  1  0
 34 29  2  0
 35 36  1  0
 36 37  1  0
 37 38  2  0
 39 38  1  0
 39 43  1  0
 40 39  2  0
 41 36  2  0
 41 40  1  0
 42 41  1  0
 44 45  1  0
 45 48  1  0
 45 47  1  0
 46 44  2  0
 49 24  1  0
 49 50  1  0
 51 49  1  0
 53 52  1  0
 54 55  1  0
 54 53  1  0
 56 67  2  0
 57 55  1  0
 57 62  1  0
 58 66  1  0
 58 68  1  0
 59 65  1  0
 59 61  1  0
 60 66  1  0
 61 60  1  0
 62 61  2  0
 63 64  1  0
 63 57  2  0
 64 59  2  0
 65 58  1  0
 66 56  1  0
 68 70  2  0
 69 68  1  0
 71 69  1  0
 72 81  2  0
 72 77  1  0
 73 69  1  0
 73 77  1  0
 74 73  1  0
 75 76  1  0
 75 74  1  0
 76 72  1  0
 77 78  2  0
 78 79  1  0
 80 79  2  0
 81 80  1  0
 82 56  1  0
 82 87  1  0
 82 83  1  0
 83 86  1  1
 83 84  1  0
 85 83  1  0
 87 90  1  0
 88 92  1  0
 88 87  1  0
 89 88  2  0
 92 91  1  0
 94 92  1  0
 94 95  1  0
 94 93  1  0
M  ISO  4  14 100  22 100  54 101  55 101
M  END
>  <TORSDO>  (9) 
F 19

>  <SCORE>  (9) 
-14.207

>  <name>  (9) 
8

>  <ligand_id>  (9) 
8

>  <original_smiles>  (9) 
[H]c1nc(C(=O)N([H])C([H])(C([H])([H])[H])C([H])([H])Oc2c([H])c([H])c3c(c2[H])C([H])([H])N(C(=O)C([H])(N([H])C(=O)C([H])(N([H])C([H])([H])[H])C([H])([H])[H])C(C([H])([H])[H])(C([H])([H])[H])C([H])([H])[H])C([H])(C(=O)N([H])C2([H])c4c([H])c([H])c([H])c([H])c4C([H])([H])C([H])([H])C2([H])[H])C3([H])[H])c(N([H])[H])nc1N([H])C(=O)N1C([H])([H])C([H])([H])C([H])([H])C([H])(n2nc(-c3c([H])c([H])c(Oc4c([H])c([H])c(F)c([H])c4F)c([H])c3[H])c(C(=O)N([H])[H])c2N([H])[H])C1([H])[H]

>  <smiles>  (9) 
[H]c1nc(C(=O)N([H])C([H])(C([H])([H])[H])C([H])([H])Oc2c([H])c([H])c3c(c2[H])C([H])([H])N(C(=O)C([H])(N([H])C(=O)C([H])(N([H])C([H])([H])[H])C([H])([H])[H])C(C([H])([H])[H])(C([H])([H])[H])C([H])([H])[H])C([H])(C(=O)N([H])C2([H])c4c([H])c([H])c([H])c([H])c4C([H])([H])C([H])([H])C2([H])[H])C3([H])[H])c(N([H])[H])nc1N([H])C(=O)N1C([H])([H])C([H])([H])C([H])([H])C([H])(n2nc(-c3c([H])c([H])c(Oc4c([H])c([H])c(F)c([H])c4F)c([H])c3[H])c(C(=O)N([H])[H])c2N([H])[H])C1([H])[H]

$$$$
9:0:0
     RDKit          3D

 97101  0  0  1  0  0  0  0  0999 V2000
  -29.1160  -15.8870   19.5170 C   0  0  0  0  0  2  0  0  0  0  0  0
  -29.7510  -12.7110   19.1980 C   0  0  0  0  0  2  0  0  0  0  0  0
  -28.9290  -11.7790   19.1230 O   0  0  0  0  0  1  0  0  0  0  0  0
  -31.2880  -10.4930   19.1820 C   0  0  0  0  0  1  0  0  0  0  0  0
  -31.1760  -12.0270   19.0610 C   0  0  0  0  0  2  0  0  0  0  0  0
  -29.1160  -16.5700   20.8640 N   0  0  0  0  0  0  0  0  0  0  0  0
  -28.1630  -16.6710   21.1880 H   0  0  0  0  0  0  0  0  0  0  0  0
  -29.3950  -18.4730   22.2750 C   0  0  0  0  0  3  0  0  0  0  0  0
  -29.9780  -17.2890   21.7250 C   0  0  0  0  0  0  0  0  0  0  0  0
  -30.1790  -19.1050   23.1940 C   0  0  0  0  0  0  0  0  0  0  0  0
  -31.2170  -17.0120   22.2770 C   0  0  0  0  0  0  0  0  0  0  0  0
  -29.8430  -20.3230   23.9870 C   0  0  0  0  0  1  0  0  0  0  0  0
  -31.6930  -18.2830   23.3800 S   0  0  0  0  0  0  0  0  0  0  0  0
  -32.2650  -15.2040   21.1060 C   0  0  0  0  0  0  0  0  0  0  0  0
  -31.6900  -14.6890   18.8070 C   0  0  0  0  0  3  0  0  0  0  0  0
  -30.3470  -14.4260   17.4850 C   0  0  0  0  0  3  0  0  0  0  0  0
  -28.5580  -14.2010   18.1080 C   0  0  0  0  0  2  0  0  0  0  0  0
  -28.3030  -14.2510   19.9910 C   0  0  1  0  0  0  0  0  0  0  0  0
  -29.6960  -14.3480   21.1690 C   0  0  0  0  0  2  0  0  0  0  0  0
  -31.2420  -14.6900   20.4950 N   0  0  0  0  0  0  0  0  0  0  0  0
  -33.3740  -15.1290   20.5880 O   0  0  0  0  0  0  0  0  0  0  0  0
  -32.0590  -15.9590   22.1740 N   0  0  0  0  0  0  0  0  0  0  0  0
  -32.9000  -16.0960   22.7120 H   0  0  0  0  0  0  0  0  0  0  0  0
  -26.0040  -14.4460   20.4720 C   0  0  0  0  0  0  0  0  0  0  0  0
  -25.0070  -13.6430   20.8590 C   0  0  0  0  0  0  0  0  0  0  0  0
  -25.4810  -12.2970   20.7320 C   0  0  0  0  0  0  0  0  0  0  0  0
  -27.0740  -13.6230   20.3090 N   0  0  0  0  0  0  0  0  0  0  0  0
  -26.7850  -12.2930   20.4230 N   0  0  0  0  0  0  0  0  0  0  0  0
  -24.7110  -11.0510   20.8580 C   0  0  0  0  0  0  0  0  0  0  0  0
  -25.0280  -10.0510   21.8020 C   0  0  0  0  0  3  0  0  0  0  0  0
  -24.2070   -8.9090   21.9370 C   0  0  0  0  0  3  0  0  0  0  0  0
  -23.0530   -8.7590   21.1330 C   0  0  0  0  0  0  0  0  0  0  0  0
  -22.7560   -9.7450   20.1780 C   0  0  0  0  0  3  0  0  0  0  0  0
  -23.5760  -10.8760   20.0400 C   0  0  0  0  0  3  0  0  0  0  0  0
  -22.2070   -7.6770   21.1810 O   0  0  0  0  0  0  0  0  0  0  0  0
  -21.9770   -6.9960   22.3490 C   0  0  0  0  0  0  0  0  0  0  0  0
  -21.4120   -7.6260   23.4800 C   0  0  0  0  0  3  0  0  0  0  0  0
  -21.1280   -6.8730   24.6340 C   0  0  0  0  0  3  0  0  0  0  0  0
  -21.3980   -5.4930   24.6610 C   0  0  0  0  0  0  0  0  0  0  0  0
  -21.9550   -4.8610   23.5340 C   0  0  0  0  0  3  0  0  0  0  0  0
  -22.2410   -5.6120   22.3790 C   0  0  0  0  0  0  0  0  0  0  0  0
  -22.7600   -4.9980   21.2890 F   0  0  0  0  0  0  0  0  0  0  0  0
  -21.1170   -4.7660   25.7670 F   0  0  0  0  0  0  0  0  0  0  0  0
  -23.6740  -14.1650   21.2420 C   0  0  0  0  0  0  0  0  0  0  0  0
  -23.0270  -13.5000   22.1800 N   0  0  0  0  0  0  0  0  0  0  0  0
  -23.2500  -15.2240   20.7750 O   0  0  0  0  0  0  0  0  0  0  0  0
  -23.4130  -12.6540   22.5690 H   0  0  0  0  0  0  0  0  0  0  0  0
  -22.1420  -13.8460   22.5140 H   0  0  0  0  0  0  0  0  0  0  0  0
  -26.0960  -15.8270   20.2580 N   0  0  0  0  0  0  0  0  0  0  0  0
  -25.2390  -16.3510   20.1180 H   0  0  0  0  0  0  0  0  0  0  0  0
  -26.8360  -16.1230   19.6360 H   0  0  0  0  0  0  0  0  0  0  0  0
  -28.7790  -18.0190   18.7370 C   0  0  0  0  0 15  0  0  0  0  0  0
  -29.6590  -20.5250   20.1420 C   0  0  0  0  0  1  0  0  0  0  0  0
  -28.7370  -20.3350   18.9420 C   0  0  0  0  0  2  0  0  0  0  0  0
  -29.4980  -20.5030   17.8590 F   0  0  0  0  0  0  0  0  0  0  0  0
  -27.8930  -22.4800   18.7670 C   0  0  0  0  0 15  0  0  0  0  0  0
  -27.9900  -24.5400   18.9180 O   0  0  0  0  0  1  0  0  0  0  0  0
  -24.7430  -31.3630   22.5500 C   0  0  0  0  0  0  0  0  0  0  0  0
  -27.1280  -26.0180   19.0820 C   0  0  0  0  0  0  0  0  0  0  0  0
  -23.5240  -29.9900   20.9380 C   0  0  0  0  0  3  0  0  0  0  0  0
  -24.9110  -28.3570   19.3620 C   0  0  0  0  0  0  0  0  0  0  0  0
  -26.1140  -30.0410   20.7150 C   0  0  0  0  0  2  0  0  0  0  0  0
  -26.1560  -28.5870   19.9540 C   0  0  0  0  0  0  0  0  0  0  0  0
  -27.2220  -27.4610   19.7810 C   0  0  0  0  0  3  0  0  0  0  0  0
  -25.8430  -26.1580   18.4670 C   0  0  0  0  0  3  0  0  0  0  0  0
  -24.8260  -27.1790   18.5970 C   0  0  0  0  0  3  0  0  0  0  0  0
  -23.7160  -29.3400   19.5320 C   0  0  0  0  0  2  0  0  0  0  0  0
  -24.8300  -30.5120   21.4520 N   0  0  0  0  0  0  0  0  0  0  0  0
  -23.6590  -31.6210   23.1070 O   0  0  0  0  0  0  0  0  0  0  0  0
  -22.8560  -28.9820   21.9180 C   0  0  0  0  0  0  0  0  0  0  0  0
  -21.5140  -28.8460   21.9020 N   0  0  0  0  0  0  0  0  0  0  0  0
  -23.5660  -28.3140   22.6720 O   0  0  0  0  0  0  0  0  0  0  0  0
  -20.9830  -29.4290   21.2720 H   0  0  0  0  0  0  0  0  0  0  0  0
  -18.1790  -27.5720   22.6420 C   0  0  0  0  0  0  0  0  0  0  0  0
  -20.7520  -27.8590   22.6850 C   0  0  0  0  0  3  0  0  0  0  0  0
  -20.8070  -26.4660   22.0140 C   0  0  0  0  0  2  0  0  0  0  0  0
  -19.6210  -26.2000   21.0820 C   0  0  0  0  0  2  0  0  0  0  0  0
  -18.3010  -26.2810   21.8520 C   0  0  0  0  0  2  0  0  0  0  0  0
  -19.3260  -28.3230   23.0170 C   0  0  0  0  0  0  0  0  0  0  0  0
  -19.1490  -29.5280   23.7300 C   0  0  0  0  0  3  0  0  0  0  0  0
  -17.8600  -29.9830   24.0660 C   0  0  0  0  0  3  0  0  0  0  0  0
  -16.7290  -29.2340   23.6980 C   0  0  0  0  0  3  0  0  0  0  0  0
  -16.8910  -28.0290   22.9920 C   0  0  0  0  0  3  0  0  0  0  0  0
  -25.9900  -32.0640   23.1710 C   0  0  0  0  0  3  0  0  0  0  0  0
  -25.5810  -33.3850   23.7080 N   0  0  0  0  0  0  0  0  0  0  0  0
  -25.8710  -34.5770   23.1660 C   0  0  0  0  0  0  0  0  0  0  0  0
  -26.5530  -34.6850   22.1440 O   0  0  0  0  0  0  0  0  0  0  0  0
  -24.9650  -33.3700   24.5070 H   0  0  0  0  0  0  0  0  0  0  0  0
  -24.0680  -36.3470   23.1250 C   0  0  0  0  0  1  0  0  0  0  0  0
  -25.3270  -35.8500   23.8560 C   0  0  0  0  0  3  0  0  0  0  0  0
  -27.4080  -36.6910   24.8600 C   0  0  0  0  0  1  0  0  0  0  0  0
  -26.3160  -36.9520   23.9270 N   0  0  0  0  0  0  0  0  0  0  0  0
  -25.8680  -37.8250   24.1960 H   0  0  0  0  0  0  0  0  0  0  0  0
  -26.6460  -31.2220   24.3360 C   0  0  1  0  0  0  0  0  0  0  0  0
  -25.6510  -30.8150   25.4510 C   0  0  0  0  0  1  0  0  0  0  0  0
  -27.2870  -29.9270   23.7950 C   0  0  0  0  0  1  0  0  0  0  0  0
  -27.7930  -32.0310   24.9880 C   0  0  0  0  0  1  0  0  0  0  0  0
  1 18  1  0
  1  6  1  0
  3  2  1  0
  5  4  1  0
  5  2  1  0
  6  7  1  0
  6  9  1  0
  8 10  2  0
  9  8  1  0
  9 11  2  0
 10 13  1  0
 10 12  1  0
 11 13  1  0
 14 22  1  0
 15 20  1  0
 16 17  1  0
 16 15  2  0
 18 17  1  0
 18 27  1  1
 18 19  1  0
 20 14  1  0
 20 19  1  0
 21 14  2  0
 22 11  1  0
 22 23  1  0
 24 25  2  0
 25 44  1  0
 26 29  1  0
 26 25  1  0
 27 28  1  0
 27 24  1  0
 28 26  2  0
 29 30  1  0
 30 31  2  0
 32 35  1  0
 32 31  1  0
 33 32  2  0
 34 33  1  0
 34 29  2  0
 35 36  1  0
 36 41  2  0
 36 37  1  0
 37 38  2  0
 38 39  1  0
 39 43  1  0
 40 39  2  0
 41 40  1  0
 42 41  1  0
 44 45  1  0
 45 48  1  0
 45 47  1  0
 46 44  2  0
 49 24  1  0
 50 49  1  0
 51 49  1  0
 54 53  1  0
 55 54  1  0
 57 59  1  0
 58 69  2  0
 59 64  1  0
 60 68  1  0
 60 70  1  0
 61 67  1  0
 61 63  1  0
 62 68  1  0
 63 62  1  0
 64 63  2  0
 65 66  1  0
 65 59  2  0
 66 61  2  0
 67 60  1  0
 68 58  1  0
 70 72  2  0
 71 70  1  0
 73 71  1  0
 74 83  2  0
 74 79  1  0
 75 71  1  0
 75 79  1  0
 76 75  1  0
 77 78  1  0
 77 76  1  0
 78 74  1  0
 79 80  2  0
 80 81  1  0
 82 81  2  0
 83 82  1  0
 84 58  1  0
 84 85  1  0
 84 94  1  0
 85 88  1  0
 86 85  1  0
 86 90  1  0
 87 86  2  0
 90 89  1  0
 90 92  1  0
 92 93  1  0
 92 91  1  0
 94 97  1  1
 94 95  1  0
 96 94  1  0
M  ISO  4  14 100  22 100  56 101  57 101
M  END
>  <TORSDO>  (10) 
F 23

>  <SCORE>  (10) 
-3.682

>  <name>  (10) 
9

>  <ligand_id>  (10) 
9

>  <original_smiles>  (10) 
[H]c1c([H])c([H])c2c(c1[H])C([H])([H])C([H])([H])C([H])([H])C2([H])N([H])C(=O)C1([H])N(C(=O)C([H])(N([H])C(=O)C([H])(N([H])C([H])([H])[H])C([H])([H])[H])C(C([H])([H])[H])(C([H])([H])[H])C([H])([H])[H])C([H])([H])c2c([H])c(OC([H])([H])C(F)(C([H])([H])[H])C([H])([H])C([H])(C(=O)C([H])([H])C([H])([H])[H])N([H])c3c(N([H])C(=O)N4C([H])([H])C([H])([H])C([H])([H])C([H])(n5nc(-c6c([H])c([H])c(Oc7c([H])c([H])c(F)c([H])c7F)c([H])c6[H])c(C(=O)N([H])[H])c5N([H])[H])C4([H])[H])sc(C([H])([H])[H])c3[H])c([H])c([H])c2C1([H])[H]

>  <smiles>  (10) 
[H]c1c([H])c([H])c2c(c1[H])C([H])([H])C([H])([H])C([H])([H])C2([H])N([H])C(=O)C1([H])N(C(=O)C([H])(N([H])C(=O)C([H])(N([H])C([H])([H])[H])C([H])([H])[H])C(C([H])([H])[H])(C([H])([H])[H])C([H])([H])[H])C([H])([H])c2c([H])c(OC([H])([H])C(F)(C([H])([H])[H])C([H])([H])C([H])(C(=O)C([H])([H])C([H])([H])[H])N([H])c3c(N([H])C(=O)N4C([H])([H])C([H])([H])C([H])([H])C([H])(n5nc(-c6c([H])c([H])c(Oc7c([H])c([H])c(F)c([H])c7F)c([H])c6[H])c(C(=O)N([H])[H])c5N([H])[H])C4([H])[H])sc(C([H])([H])[H])c3[H])c([H])c([H])c2C1([H])[H]

$$$$
10:0:0
     RDKit          3D

 93101  0  0  1  0  0  0  0  0999 V2000
  -31.2570  -21.6660   20.9850 O   0  0  0  0  0  0  0  0  0  0  0  0
  -31.2170  -21.4560   18.4570 O   0  0  0  0  0  0  0  0  0  0  0  0
  -30.5150  -21.3650   19.7460 S   0  0  1  0  0  0  0  0  0  0  0  0
  -28.7350  -17.6210   20.2850 C   0  0  0  0  0  3  0  0  0  0  0  0
  -28.7070  -19.0530   20.0780 C   0  0  0  0  0  0  0  0  0  0  0  0
  -29.9770  -17.0130   20.3070 C   0  0  0  0  0  0  0  0  0  0  0  0
  -29.9650  -19.5990   19.9290 C   0  0  0  0  0  0  0  0  0  0  0  0
  -27.4230  -19.8340   20.0650 C   0  0  0  0  0  1  0  0  0  0  0  0
  -31.1740  -18.2870   20.0150 S   0  0  0  0  0  0  0  0  0  0  0  0
  -30.9390  -14.6850   19.9350 C   0  0  0  0  0  0  0  0  0  0  0  0
  -30.7440  -12.4000   18.9620 C   0  0  0  0  0  2  0  0  0  0  0  0
  -29.7330  -12.4670   17.7940 C   0  0  0  0  0  2  0  0  0  0  0  0
  -28.2830  -12.3230   18.3030 C   0  0  0  0  0  2  0  0  0  0  0  0
  -27.9860  -13.2430   19.5210 C   0  0  0  0  0  3  0  0  0  0  0  0
  -29.0930  -13.0960   20.5890 C   0  0  0  0  0  2  0  0  0  0  0  0
  -30.3750  -13.4350   19.9460 N   0  0  0  0  0  0  0  0  0  0  0  0
  -32.0220  -14.9040   19.3790 O   0  0  0  0  0  0  0  0  0  0  0  0
  -30.1680  -15.6550   20.5180 N   0  0  0  0  0  0  0  0  0  0  0  0
  -29.4450  -15.2360   21.0870 H   0  0  0  0  0  0  0  0  0  0  0  0
  -25.6720  -13.9200   20.4310 C   0  0  0  0  0  0  0  0  0  0  0  0
  -24.6000  -13.1810   20.8520 C   0  0  0  0  0  0  0  0  0  0  0  0
  -24.9940  -11.8130   20.7290 C   0  0  0  0  0  0  0  0  0  0  0  0
  -26.6550  -13.0050   20.0820 N   0  0  0  0  0  0  0  0  0  0  0  0
  -26.2540  -11.7300   20.3170 N   0  0  0  0  0  0  0  0  0  0  0  0
  -24.2290  -10.5750   20.9270 C   0  0  0  0  0  0  0  0  0  0  0  0
  -24.6550   -9.5810   21.8360 C   0  0  0  0  0  3  0  0  0  0  0  0
  -23.8920   -8.4080   22.0200 C   0  0  0  0  0  3  0  0  0  0  0  0
  -22.6890   -8.2220   21.2960 C   0  0  0  0  0  0  0  0  0  0  0  0
  -22.2840   -9.2050   20.3750 C   0  0  0  0  0  3  0  0  0  0  0  0
  -23.0460  -10.3690   20.1890 C   0  0  0  0  0  3  0  0  0  0  0  0
  -21.9000   -7.1030   21.3900 O   0  0  0  0  0  0  0  0  0  0  0  0
  -21.7900   -6.3950   22.5600 C   0  0  0  0  0  0  0  0  0  0  0  0
  -21.3330   -6.9920   23.7540 C   0  0  0  0  0  3  0  0  0  0  0  0
  -21.1680   -6.2100   24.9160 C   0  0  0  0  0  3  0  0  0  0  0  0
  -21.4550   -4.8310   24.8850 C   0  0  0  0  0  0  0  0  0  0  0  0
  -21.9060   -4.2350   23.6950 C   0  0  0  0  0  3  0  0  0  0  0  0
  -22.0710   -5.0140   22.5360 C   0  0  0  0  0  0  0  0  0  0  0  0
  -22.4870   -4.4280   21.3860 F   0  0  0  0  0  0  0  0  0  0  0  0
  -21.2900   -4.0790   25.9970 F   0  0  0  0  0  0  0  0  0  0  0  0
  -23.2510  -13.7080   21.2530 C   0  0  0  0  0  0  0  0  0  0  0  0
  -22.5660  -13.0220   22.1590 N   0  0  0  0  0  0  0  0  0  0  0  0
  -22.8160  -14.7640   20.7930 O   0  0  0  0  0  0  0  0  0  0  0  0
  -22.9360  -12.1760   22.5660 H   0  0  0  0  0  0  0  0  0  0  0  0
  -21.6620  -13.3560   22.4580 H   0  0  0  0  0  0  0  0  0  0  0  0
  -25.8810  -15.2900   20.2990 N   0  0  0  0  0  0  0  0  0  0  0  0
  -25.1340  -15.9540   20.4720 H   0  0  0  0  0  0  0  0  0  0  0  0
  -26.6980  -15.7140   19.8800 H   0  0  0  0  0  0  0  0  0  0  0  0
  -29.2090  -22.5620   19.6780 N   0  0  0  0  0  0  0  0  0  0  0  0
  -28.6720  -22.4030   18.8250 H   0  0  0  0  0  0  0  0  0  0  0  0
  -29.5090  -24.0460   19.8520 C   0  0  0  0  0  2  0  0  0  0  0  0
  -27.3930  -24.6810   21.1190 C   0  0  0  0  0  1  0  0  0  0  0  0
  -28.2400  -25.0010   19.8640 C   0  0  0  0  0  3  0  0  0  0  0  0
  -28.4830  -26.4740   19.8090 O   0  0  0  0  0  0  0  0  0  0  0  0
  -24.5580  -31.5950   23.0260 C   0  0  0  0  0  0  0  0  0  0  0  0
  -27.3670  -27.3250   19.7450 C   0  0  0  0  0  0  0  0  0  0  0  0
  -23.4350  -30.2670   21.2780 C   0  0  0  0  0  3  0  0  0  0  0  0
  -24.9660  -28.8750   19.7790 C   0  0  0  0  0  0  0  0  0  0  0  0
  -25.9690  -30.6800   21.1720 C   0  0  0  0  0  2  0  0  0  0  0  0
  -26.1060  -29.3520   20.4350 C   0  0  0  0  0  0  0  0  0  0  0  0
  -27.3130  -28.5870   20.4110 C   0  0  0  0  0  3  0  0  0  0  0  0
  -26.2080  -26.9150   19.0460 C   0  0  0  0  0  3  0  0  0  0  0  0
  -25.0190  -27.6660   19.0730 C   0  0  0  0  0  3  0  0  0  0  0  0
  -23.6970  -29.6950   19.8620 C   0  0  0  0  0  2  0  0  0  0  0  0
  -24.6710  -30.8620   21.8820 N   0  0  0  0  0  0  0  0  0  0  0  0
  -23.4540  -31.8050   23.5510 O   0  0  0  0  0  0  0  0  0  0  0  0
  -22.7930  -29.1640   22.1540 C   0  0  0  0  0  0  0  0  0  0  0  0
  -21.4640  -28.9980   22.0380 N   0  0  0  0  0  0  0  0  0  0  0  0
  -23.4880  -28.4640   22.8960 O   0  0  0  0  0  0  0  0  0  0  0  0
  -20.9640  -29.6140   21.4120 H   0  0  0  0  0  0  0  0  0  0  0  0
  -18.0820  -27.8370   22.5730 C   0  0  0  0  0  0  0  0  0  0  0  0
  -20.6570  -27.9960   22.7340 C   0  0  0  0  0  3  0  0  0  0  0  0
  -20.6830  -26.6410   21.9870 C   0  0  0  0  0  2  0  0  0  0  0  0
  -19.5220  -26.4720   21.0030 C   0  0  0  0  0  2  0  0  0  0  0  0
  -18.1800  -26.5740   21.7330 C   0  0  0  0  0  2  0  0  0  0  0  0
  -19.2430  -28.5130   23.0290 C   0  0  0  0  0  0  0  0  0  0  0  0
  -19.0940  -29.7030   23.7740 C   0  0  0  0  0  3  0  0  0  0  0  0
  -17.8140  -30.2170   24.0570 C   0  0  0  0  0  3  0  0  0  0  0  0
  -16.6670  -29.5320   23.6170 C   0  0  0  0  0  3  0  0  0  0  0  0
  -16.8040  -28.3400   22.8850 C   0  0  0  0  0  3  0  0  0  0  0  0
  -25.8060  -32.2260   23.7190 C   0  0  0  0  0  3  0  0  0  0  0  0
  -26.2790  -31.4230   24.9910 C   0  0  1  0  0  0  0  0  0  0  0  0
  -25.1450  -31.1550   26.0080 C   0  0  0  0  0  1  0  0  0  0  0  0
  -26.8870  -30.0590   24.5880 C   0  0  0  0  0  1  0  0  0  0  0  0
  -27.3970  -32.2080   25.7160 C   0  0  0  0  0  1  0  0  0  0  0  0
  -25.4590  -33.6090   24.0770 N   0  0  0  0  0  0  0  0  0  0  0  0
  -25.7830  -34.6860   23.3490 C   0  0  0  0  0  0  0  0  0  0  0  0
  -26.4720  -34.6200   22.3270 O   0  0  0  0  0  0  0  0  0  0  0  0
  -24.8400  -33.7310   24.8650 H   0  0  0  0  0  0  0  0  0  0  0  0
  -24.0160  -36.4420   23.0150 C   0  0  0  0  0  1  0  0  0  0  0  0
  -25.2600  -36.0520   23.8300 C   0  0  0  0  0  3  0  0  0  0  0  0
  -27.3650  -36.9700   24.7020 C   0  0  0  0  0  1  0  0  0  0  0  0
  -26.2710  -37.1300   23.7470 N   0  0  0  0  0  0  0  0  0  0  0  0
  -25.8450  -38.0400   23.8960 H   0  0  0  0  0  0  0  0  0  0  0  0
  2  3  2  0
  3  7  1  0
  3  1  2  0
  4  6  2  0
  5  4  1  0
  6 18  1  0
  7  9  1  0
  7  5  2  0
  8  5  1  0
  9  6  1  0
 10 16  1  0
 10 18  1  0
 11 16  1  0
 12 13  1  0
 12 11  1  0
 14 13  1  0
 14 23  1  0
 14 15  1  0
 16 15  1  0
 17 10  2  0
 18 19  1  0
 20 21  2  0
 21 40  1  0
 22 21  1  0
 22 25  1  0
 23 24  1  0
 23 20  1  0
 24 22  2  0
 25 26  1  0
 26 27  2  0
 28 31  1  0
 28 27  1  0
 29 28  2  0
 30 29  1  0
 30 25  2  0
 31 32  1  0
 32 33  1  0
 33 34  2  0
 35 34  1  0
 35 39  1  0
 36 35  2  0
 37 32  2  0
 37 36  1  0
 38 37  1  0
 40 41  1  0
 41 44  1  0
 41 43  1  0
 42 40  2  0
 45 20  1  0
 45 46  1  0
 47 45  1  0
  3 48  1  6
 48 50  1  0
 49 48  1  0
 50 52  1  0
 52 51  1  0
 53 52  1  0
 54 65  2  0
 55 53  1  0
 55 60  1  0
 56 64  1  0
 56 66  1  0
 57 63  1  0
 57 59  1  0
 58 64  1  0
 59 58  1  0
 60 59  2  0
 61 62  1  0
 61 55  2  0
 62 57  2  0
 63 56  1  0
 64 54  1  0
 66 68  2  0
 67 66  1  0
 69 67  1  0
 70 79  2  0
 70 75  1  0
 71 67  1  0
 71 75  1  0
 72 71  1  0
 73 74  1  0
 73 72  1  0
 74 70  1  0
 75 76  2  0
 76 77  1  0
 78 77  2  0
 79 78  1  0
 80 54  1  0
 80 85  1  0
 80 81  1  0
 81 84  1  1
 81 82  1  0
 83 81  1  0
 85 88  1  0
 86 90  1  0
 86 85  1  0
 87 86  2  0
 90 89  1  0
 92 90  1  0
 92 93  1  0
 92 91  1  0
M  ISO  4  10 100  18 100  52 101  53 101
M  END
>  <TORSDO>  (11) 
F 20

>  <SCORE>  (11) 
-13.071

>  <name>  (11) 
10

>  <ligand_id>  (11) 
10

>  <original_smiles>  (11) 
[H]c1c([H])c([H])c2c(c1[H])C([H])([H])C([H])([H])C([H])([H])C2([H])N([H])C(=O)C1([H])N(C(=O)C([H])(N([H])C(=O)C([H])(N([H])C([H])([H])[H])C([H])([H])[H])C(C([H])([H])[H])(C([H])([H])[H])C([H])([H])[H])C([H])([H])c2c([H])c(OC([H])(C([H])([H])[H])C([H])([H])N([H])S(=O)(=O)c3sc(N([H])C(=O)N4C([H])([H])C([H])([H])C([H])([H])C([H])(n5nc(-c6c([H])c([H])c(Oc7c([H])c([H])c(F)c([H])c7F)c([H])c6[H])c(C(=O)N([H])[H])c5N([H])[H])C4([H])[H])c([H])c3C([H])([H])[H])c([H])c([H])c2C1([H])[H]

>  <smiles>  (11) 
[H]c1c([H])c([H])c2c(c1[H])C([H])([H])C([H])([H])C([H])([H])C2([H])N([H])C(=O)C1([H])N(C(=O)C([H])(N([H])C(=O)C([H])(N([H])C([H])([H])[H])C([H])([H])[H])C(C([H])([H])[H])(C([H])([H])[H])C([H])([H])[H])C([H])([H])c2c([H])c(OC([H])(C([H])([H])[H])C([H])([H])N([H])S(=O)(=O)c3sc(N([H])C(=O)N4C([H])([H])C([H])([H])C([H])([H])C([H])(n5nc(-c6c([H])c([H])c(Oc7c([H])c([H])c(F)c([H])c7F)c([H])c6[H])c(C(=O)N([H])[H])c5N([H])[H])C4([H])[H])c([H])c3C([H])([H])[H])c([H])c([H])c2C1([H])[H]

$$$$
11:0:0
     RDKit          3D

 92100  0  0  1  0  0  0  0  0999 V2000
  -28.8640  -19.3430   19.2990 C   0  0  0  0  0  0  0  0  0  0  0  0
  -29.8050  -18.8480   20.1920 C   0  0  0  0  0  0  0  0  0  0  0  0
  -29.1910  -21.3440   20.4340 C   0  0  0  0  0  0  0  0  0  0  0  0
  -28.6030  -23.8680   20.1210 C   0  0  0  0  0  0  0  0  0  0  0  0
  -28.2170  -18.5700   18.1890 C   0  0  0  0  0  1  0  0  0  0  0  0
  -28.5460  -20.7240   19.4340 N   0  0  0  0  0  0  0  0  0  0  0  0
  -28.9840  -22.7440   20.8210 N   0  0  0  0  0  0  0  0  0  0  0  0
  -28.5160  -23.8770   18.8890 O   0  0  0  0  0  0  0  0  0  0  0  0
  -30.2230  -20.1680   21.3120 S   0  0  0  0  0  0  0  0  0  0  0  0
  -29.1540  -22.9190   21.8010 H   0  0  0  0  0  0  0  0  0  0  0  0
  -28.2680  -25.1990   20.9230 C   0  0  0  0  0  2  0  0  0  0  0  0
  -28.3980  -26.5010   20.2170 O   0  0  0  0  0  0  0  0  0  0  0  0
  -24.6050  -31.8770   23.2270 C   0  0  0  0  0  0  0  0  0  0  0  0
  -27.2780  -27.3410   20.2080 C   0  0  0  0  0  0  0  0  0  0  0  0
  -23.4260  -30.4700   21.5740 C   0  0  0  0  0  3  0  0  0  0  0  0
  -24.9020  -28.9240   20.1670 C   0  0  0  0  0  0  0  0  0  0  0  0
  -25.9630  -30.8110   21.4140 C   0  0  0  0  0  2  0  0  0  0  0  0
  -26.0600  -29.4310   20.7700 C   0  0  0  0  0  0  0  0  0  0  0  0
  -27.2560  -28.6530   20.7740 C   0  0  0  0  0  3  0  0  0  0  0  0
  -26.0980  -26.8770   19.5930 C   0  0  0  0  0  3  0  0  0  0  0  0
  -24.9200  -27.6530   19.5700 C   0  0  0  0  0  3  0  0  0  0  0  0
  -23.6570  -29.7910   20.1990 C   0  0  0  0  0  2  0  0  0  0  0  0
  -24.6830  -31.0690   22.1300 N   0  0  0  0  0  0  0  0  0  0  0  0
  -23.5130  -32.1490   23.7500 O   0  0  0  0  0  0  0  0  0  0  0  0
  -22.7580  -29.4530   22.5290 C   0  0  0  0  0  0  0  0  0  0  0  0
  -21.4320  -29.2810   22.3990 N   0  0  0  0  0  0  0  0  0  0  0  0
  -23.4330  -28.8200   23.3450 O   0  0  0  0  0  0  0  0  0  0  0  0
  -20.9460  -29.8410   21.7130 H   0  0  0  0  0  0  0  0  0  0  0  0
  -18.0460  -28.1100   22.9070 C   0  0  0  0  0  0  0  0  0  0  0  0
  -20.6090  -28.3420   23.1630 C   0  0  0  0  0  3  0  0  0  0  0  0
  -20.6930  -26.9160   22.5710 C   0  0  0  0  0  2  0  0  0  0  0  0
  -19.5820  -26.6160   21.5600 C   0  0  0  0  0  2  0  0  0  0  0  0
  -18.2060  -26.7670   22.2130 C   0  0  0  0  0  2  0  0  0  0  0  0
  -19.1750  -28.8560   23.3390 C   0  0  0  0  0  0  0  0  0  0  0  0
  -18.9710  -30.1140   23.9460 C   0  0  0  0  0  3  0  0  0  0  0  0
  -17.6720  -30.6260   24.1260 C   0  0  0  0  0  3  0  0  0  0  0  0
  -16.5580  -29.8750   23.7130 C   0  0  0  0  0  3  0  0  0  0  0  0
  -16.7460  -28.6190   23.1080 C   0  0  0  0  0  3  0  0  0  0  0  0
  -25.8770  -32.5180   23.8630 C   0  0  0  0  0  3  0  0  0  0  0  0
  -26.3810  -31.7540   25.1490 C   0  0  1  0  0  0  0  0  0  0  0  0
  -25.2760  -31.5130   26.2040 C   0  0  0  0  0  1  0  0  0  0  0  0
  -26.9770  -30.3790   24.7710 C   0  0  0  0  0  1  0  0  0  0  0  0
  -27.5220  -32.5550   25.8210 C   0  0  0  0  0  1  0  0  0  0  0  0
  -25.5580  -33.9160   24.1850 N   0  0  0  0  0  0  0  0  0  0  0  0
  -25.8900  -34.9690   23.4250 C   0  0  0  0  0  0  0  0  0  0  0  0
  -26.5680  -34.8650   22.3990 O   0  0  0  0  0  0  0  0  0  0  0  0
  -24.9620  -34.0720   24.9840 H   0  0  0  0  0  0  0  0  0  0  0  0
  -24.1620  -36.7550   23.0450 C   0  0  0  0  0  1  0  0  0  0  0  0
  -25.3920  -36.3550   23.8750 C   0  0  0  0  0  3  0  0  0  0  0  0
  -27.5120  -37.2490   24.7330 C   0  0  0  0  0  1  0  0  0  0  0  0
  -26.4230  -37.4140   23.7750 N   0  0  0  0  0  0  0  0  0  0  0  0
  -26.0100  -38.3310   23.9200 H   0  0  0  0  0  0  0  0  0  0  0  0
  -30.5530  -17.4670   20.1750 C   0  0  0  0  0  3  0  0  0  0  0  0
  -32.2210  -18.1050   18.5730 C   0  0  0  0  0  1  0  0  0  0  0  0
  -31.0470  -17.3440   18.8410 O   0  0  0  0  0  0  0  0  0  0  0  0
  -29.8350  -16.0800   20.5490 C   0  0  0  0  0  2  0  0  0  0  0  0
  -30.6350  -14.7140   20.3230 C   0  0  0  0  0  0  0  0  0  0  0  0
  -30.3910  -12.4690   19.2780 C   0  0  0  0  0  2  0  0  0  0  0  0
  -29.4440  -12.6100   18.0660 C   0  0  0  0  0  2  0  0  0  0  0  0
  -27.9730  -12.4460   18.5010 C   0  0  0  0  0  2  0  0  0  0  0  0
  -27.6200  -13.3050   19.7430 C   0  0  0  0  0  3  0  0  0  0  0  0
  -28.6910  -13.1840   20.8480 C   0  0  0  0  0  2  0  0  0  0  0  0
  -29.9990  -13.4990   20.2640 N   0  0  0  0  0  0  0  0  0  0  0  0
  -31.8270  -14.7820   20.0110 O   0  0  0  0  0  0  0  0  0  0  0  0
  -25.2380  -13.8930   20.4950 C   0  0  0  0  0  0  0  0  0  0  0  0
  -24.1750  -13.1160   20.8690 C   0  0  0  0  0  0  0  0  0  0  0  0
  -24.6400  -11.7650   20.8320 C   0  0  0  0  0  0  0  0  0  0  0  0
  -26.2810  -13.0150   20.2460 N   0  0  0  0  0  0  0  0  0  0  0  0
  -25.9290  -11.7310   20.5130 N   0  0  0  0  0  0  0  0  0  0  0  0
  -23.9160  -10.5010   21.0210 C   0  0  0  0  0  0  0  0  0  0  0  0
  -24.3510   -9.5350   21.9540 C   0  0  0  0  0  3  0  0  0  0  0  0
  -23.6270   -8.3350   22.1310 C   0  0  0  0  0  3  0  0  0  0  0  0
  -22.4540   -8.0970   21.3760 C   0  0  0  0  0  0  0  0  0  0  0  0
  -22.0410   -9.0510   20.4310 C   0  0  0  0  0  3  0  0  0  0  0  0
  -22.7650  -10.2410   20.2510 C   0  0  0  0  0  3  0  0  0  0  0  0
  -21.7020   -6.9500   21.4630 O   0  0  0  0  0  0  0  0  0  0  0  0
  -21.6430   -6.2130   22.6190 C   0  0  0  0  0  0  0  0  0  0  0  0
  -21.1900   -6.7700   23.8350 C   0  0  0  0  0  3  0  0  0  0  0  0
  -21.0800   -5.9590   24.9830 C   0  0  0  0  0  3  0  0  0  0  0  0
  -21.4130   -4.5930   24.9150 C   0  0  0  0  0  0  0  0  0  0  0  0
  -21.8580   -4.0350   23.7030 C   0  0  0  0  0  3  0  0  0  0  0  0
  -21.9690   -4.8440   22.5580 C   0  0  0  0  0  0  0  0  0  0  0  0
  -22.3790   -4.2970   21.3880 F   0  0  0  0  0  0  0  0  0  0  0  0
  -21.2990   -3.8120   26.0140 F   0  0  0  0  0  0  0  0  0  0  0  0
  -22.7780  -13.5910   21.1510 C   0  0  0  0  0  0  0  0  0  0  0  0
  -22.0530  -12.8870   22.0130 N   0  0  0  0  0  0  0  0  0  0  0  0
  -22.3390  -14.6200   20.6400 O   0  0  0  0  0  0  0  0  0  0  0  0
  -22.4180  -12.0530   22.4490 H   0  0  0  0  0  0  0  0  0  0  0  0
  -21.1150  -13.1880   22.2430 H   0  0  0  0  0  0  0  0  0  0  0  0
  -25.3990  -15.2640   20.3250 N   0  0  0  0  0  0  0  0  0  0  0  0
  -24.6340  -15.9190   20.4490 H   0  0  0  0  0  0  0  0  0  0  0  0
  -26.2530  -15.7090   20.0110 H   0  0  0  0  0  0  0  0  0  0  0  0
  1  6  1  0
  1  2  2  0
  2  9  1  0
  3  7  1  0
  3  9  1  0
  4  7  1  0
  4 11  1  0
  5  1  1  0
  6  3  2  0
  7 10  1  0
  8  4  2  0
 12 11  1  0
 13 24  2  0
 14 12  1  0
 14 19  1  0
 15 23  1  0
 15 25  1  0
 16 22  1  0
 16 18  1  0
 17 23  1  0
 18 19  2  0
 18 17  1  0
 20 14  2  0
 21 20  1  0
 21 16  2  0
 22 15  1  0
 23 13  1  0
 25 27  2  0
 26 25  1  0
 28 26  1  0
 29 38  2  0
 29 34  1  0
 30 26  1  0
 30 34  1  0
 31 30  1  0
 32 33  1  0
 32 31  1  0
 33 29  1  0
 34 35  2  0
 35 36  1  0
 37 36  2  0
 38 37  1  0
 39 13  1  0
 39 44  1  0
 39 40  1  0
 40 43  1  1
 40 41  1  0
 42 40  1  0
 44 47  1  0
 45 49  1  0
 45 44  1  0
 46 45  2  0
 49 48  1  0
 51 49  1  0
 51 52  1  0
 51 50  1  0
 53  2  1  0
 53 56  1  0
 54 55  1  0
 55 53  1  0
 57 56  1  0
 58 63  1  0
 59 60  1  0
 59 58  1  0
 61 60  1  0
 61 68  1  0
 61 62  1  0
 63 57  1  0
 63 62  1  0
 64 57  2  0
 65 66  2  0
 66 85  1  0
 67 66  1  0
 67 70  1  0
 68 65  1  0
 68 69  1  0
 69 67  2  0
 70 71  1  0
 71 72  2  0
 73 76  1  0
 73 72  1  0
 74 73  2  0
 75 74  1  0
 75 70  2  0
 76 77  1  0
 77 78  1  0
 78 79  2  0
 80 79  1  0
 80 84  1  0
 81 80  2  0
 82 77  2  0
 82 81  1  0
 83 82  1  0
 85 86  1  0
 86 89  1  0
 86 88  1  0
 87 85  2  0
 90 91  1  0
 90 65  1  0
 92 90  1  0
M  ISO  4  11 101  12 101  56 100  57 100
M  END
>  <TORSDO>  (12) 
F 20

>  <SCORE>  (12) 
-14.093

>  <name>  (12) 
11

>  <ligand_id>  (12) 
11

>  <original_smiles>  (12) 
[H]c1c([H])c([H])c2c(c1[H])C([H])([H])C([H])([H])C([H])([H])C2([H])N([H])C(=O)C1([H])N(C(=O)C([H])(N([H])C(=O)C([H])(N([H])C([H])([H])[H])C([H])([H])[H])C(C([H])([H])[H])(C([H])([H])[H])C([H])([H])[H])C([H])([H])c2c([H])c(OC([H])([H])C(=O)N([H])c3nc(C([H])([H])[H])c(C([H])(OC([H])([H])[H])C([H])([H])C(=O)N4C([H])([H])C([H])([H])C([H])([H])C([H])(n5nc(-c6c([H])c([H])c(Oc7c([H])c([H])c(F)c([H])c7F)c([H])c6[H])c(C(=O)N([H])[H])c5N([H])[H])C4([H])[H])s3)c([H])c([H])c2C1([H])[H]

>  <smiles>  (12) 
[H]c1c([H])c([H])c2c(c1[H])C([H])([H])C([H])([H])C([H])([H])C2([H])N([H])C(=O)C1([H])N(C(=O)C([H])(N([H])C(=O)C([H])(N([H])C([H])([H])[H])C([H])([H])[H])C(C([H])([H])[H])(C([H])([H])[H])C([H])([H])[H])C([H])([H])c2c([H])c(OC([H])([H])C(=O)N([H])c3nc(C([H])([H])[H])c(C([H])(OC([H])([H])[H])C([H])([H])C(=O)N4C([H])([H])C([H])([H])C([H])([H])C([H])(n5nc(-c6c([H])c([H])c(Oc7c([H])c([H])c(F)c([H])c7F)c([H])c6[H])c(C(=O)N([H])[H])c5N([H])[H])C4([H])[H])s3)c([H])c([H])c2C1([H])[H]

$$$$
12:0:0
     RDKit          3D

 90 98  0  0  1  0  0  0  0  0999 V2000
  -30.4790  -15.1100   20.3840 C   0  0  0  0  0  0  0  0  0  0  0  0
  -30.4440  -12.6960   19.5130 C   0  0  0  0  0  2  0  0  0  0  0  0
  -29.5300  -12.5550   18.2710 C   0  0  0  0  0  2  0  0  0  0  0  0
  -28.0700  -12.3080   18.6920 C   0  0  0  0  0  2  0  0  0  0  0  0
  -27.6220  -13.2600   19.8300 C   0  0  0  0  0  3  0  0  0  0  0  0
  -28.6610  -13.3560   20.9670 C   0  0  0  0  0  2  0  0  0  0  0  0
  -29.9170  -13.8180   20.3570 N   0  0  0  0  0  0  0  0  0  0  0  0
  -31.6920  -15.1540   20.1420 O   0  0  0  0  0  0  0  0  0  0  0  0
  -29.4390  -20.2830   20.2850 C   0  0  0  0  0  0  0  0  0  0  0  0
  -29.8750  -17.8700   20.3620 C   0  0  0  0  0  3  0  0  0  0  0  0
  -28.9750  -23.0750   20.2300 C   0  0  0  0  0  0  0  0  0  0  0  0
  -28.9490  -18.9450   20.4410 N   0  0  0  0  0  0  0  0  0  0  0  0
  -30.7730  -20.2770   20.0760 N   0  0  0  0  0  2  0  0  0  0  0  0
  -28.6600  -21.6530   20.3150 N   0  0  0  0  0  0  0  0  0  0  0  0
  -29.6690  -16.3130   20.4870 N   0  0  0  0  0  0  0  0  0  0  0  0
  -30.1580  -23.4030   20.1070 O   0  0  0  0  0  0  0  0  0  0  0  0
  -31.4160  -18.6590   20.0660 S   0  0  0  0  0  0  0  0  0  0  0  0
  -27.6670  -21.5120   20.4200 H   0  0  0  0  0  0  0  0  0  0  0  0
  -28.7050  -16.0740   20.6550 H   0  0  0  0  0  0  0  0  0  0  0  0
  -25.2420  -13.8230   20.5720 C   0  0  0  0  0  0  0  0  0  0  0  0
  -24.1760  -13.0440   20.9240 C   0  0  0  0  0  0  0  0  0  0  0  0
  -24.6390  -11.6930   20.8750 C   0  0  0  0  0  0  0  0  0  0  0  0
  -26.2850  -12.9480   20.3220 N   0  0  0  0  0  0  0  0  0  0  0  0
  -25.9330  -11.6600   20.5720 N   0  0  0  0  0  0  0  0  0  0  0  0
  -23.9070  -10.4290   21.0400 C   0  0  0  0  0  0  0  0  0  0  0  0
  -24.3620   -9.4210   21.9180 C   0  0  0  0  0  3  0  0  0  0  0  0
  -23.6290   -8.2250   22.0760 C   0  0  0  0  0  3  0  0  0  0  0  0
  -22.4270   -8.0280   21.3540 C   0  0  0  0  0  0  0  0  0  0  0  0
  -21.9910   -9.0260   20.4640 C   0  0  0  0  0  3  0  0  0  0  0  0
  -22.7240  -10.2140   20.3050 C   0  0  0  0  0  3  0  0  0  0  0  0
  -21.6650   -6.8880   21.4240 O   0  0  0  0  0  0  0  0  0  0  0  0
  -21.6860   -6.0730   22.5270 C   0  0  0  0  0  0  0  0  0  0  0  0
  -21.4020   -6.5630   23.8210 C   0  0  0  0  0  3  0  0  0  0  0  0
  -21.3660   -5.6790   24.9170 C   0  0  0  0  0  3  0  0  0  0  0  0
  -21.6050   -4.3050   24.7220 C   0  0  0  0  0  0  0  0  0  0  0  0
  -21.8820   -3.8140   23.4340 C   0  0  0  0  0  3  0  0  0  0  0  0
  -21.9190   -4.6960   22.3400 C   0  0  0  0  0  0  0  0  0  0  0  0
  -22.1660   -4.2150   21.0970 F   0  0  0  0  0  0  0  0  0  0  0  0
  -21.5630   -3.4530   25.7730 F   0  0  0  0  0  0  0  0  0  0  0  0
  -22.7780  -13.5210   21.1880 C   0  0  0  0  0  0  0  0  0  0  0  0
  -22.0420  -12.8200   22.0440 N   0  0  0  0  0  0  0  0  0  0  0  0
  -22.3480  -14.5520   20.6720 O   0  0  0  0  0  0  0  0  0  0  0  0
  -22.4040  -11.9870   22.4830 H   0  0  0  0  0  0  0  0  0  0  0  0
  -21.1050  -13.1250   22.2650 H   0  0  0  0  0  0  0  0  0  0  0  0
  -25.4060  -15.1970   20.4140 N   0  0  0  0  0  0  0  0  0  0  0  0
  -24.6280  -15.8400   20.5200 H   0  0  0  0  0  0  0  0  0  0  0  0
  -26.2340  -15.6390   20.0390 H   0  0  0  0  0  0  0  0  0  0  0  0
  -26.9910  -24.1940   21.5240 C   0  0  0  0  0  1  0  0  0  0  0  0
  -27.8700  -24.3820   20.2750 C   0  0  0  0  0  3  0  0  0  0  0  0
  -28.2290  -25.9550   20.2330 O   0  0  0  0  0  0  0  0  0  0  0  0
  -24.6550  -31.8340   23.1790 C   0  0  0  0  0  0  0  0  0  0  0  0
  -27.2170  -27.0230   20.1660 C   0  0  0  0  0  0  0  0  0  0  0  0
  -23.4650  -30.4500   21.5270 C   0  0  0  0  0  3  0  0  0  0  0  0
  -24.9170  -28.8580   20.1110 C   0  0  0  0  0  0  0  0  0  0  0  0
  -26.0300  -30.6700   21.3970 C   0  0  0  0  0  2  0  0  0  0  0  0
  -26.0990  -29.2710   20.7380 C   0  0  0  0  0  0  0  0  0  0  0  0
  -27.2480  -28.3730   20.7440 C   0  0  0  0  0  3  0  0  0  0  0  0
  -26.0080  -26.7470   19.4870 C   0  0  0  0  0  3  0  0  0  0  0  0
  -24.8910  -27.6130   19.4670 C   0  0  0  0  0  3  0  0  0  0  0  0
  -23.6990  -29.7730   20.1500 C   0  0  0  0  0  2  0  0  0  0  0  0
  -24.7380  -31.0090   22.0880 N   0  0  0  0  0  0  0  0  0  0  0  0
  -23.5640  -32.1270   23.6930 O   0  0  0  0  0  0  0  0  0  0  0  0
  -22.7630  -29.4500   22.4810 C   0  0  0  0  0  0  0  0  0  0  0  0
  -21.4310  -29.3060   22.3550 N   0  0  0  0  0  0  0  0  0  0  0  0
  -23.4210  -28.8070   23.3030 O   0  0  0  0  0  0  0  0  0  0  0  0
  -20.9560  -29.8730   21.6670 H   0  0  0  0  0  0  0  0  0  0  0  0
  -18.0320  -28.1420   22.8470 C   0  0  0  0  0  0  0  0  0  0  0  0
  -20.5940  -28.3760   23.1200 C   0  0  0  0  0  3  0  0  0  0  0  0
  -20.6810  -26.9450   22.5400 C   0  0  0  0  0  2  0  0  0  0  0  0
  -19.5780  -26.6390   21.5220 C   0  0  0  0  0  2  0  0  0  0  0  0
  -18.1960  -26.7950   22.1630 C   0  0  0  0  0  2  0  0  0  0  0  0
  -19.1580  -28.8910   23.2820 C   0  0  0  0  0  0  0  0  0  0  0  0
  -18.9490  -30.1500   23.8860 C   0  0  0  0  0  3  0  0  0  0  0  0
  -17.6490  -30.6600   24.0560 C   0  0  0  0  0  3  0  0  0  0  0  0
  -16.5380  -29.9100   23.6340 C   0  0  0  0  0  3  0  0  0  0  0  0
  -16.7300  -28.6520   23.0360 C   0  0  0  0  0  3  0  0  0  0  0  0
  -25.9270  -32.4640   23.8220 C   0  0  0  0  0  3  0  0  0  0  0  0
  -25.5970  -33.8450   24.2130 N   0  0  0  0  0  0  0  0  0  0  0  0
  -25.9090  -34.9380   23.5040 C   0  0  0  0  0  0  0  0  0  0  0  0
  -26.5690  -34.8900   22.4630 O   0  0  0  0  0  0  0  0  0  0  0  0
  -25.0060  -33.9540   25.0240 H   0  0  0  0  0  0  0  0  0  0  0  0
  -24.1500  -36.7230   23.2650 C   0  0  0  0  0  1  0  0  0  0  0  0
  -25.4130  -36.3000   24.0310 C   0  0  0  0  0  3  0  0  0  0  0  0
  -27.5580  -37.1780   24.8470 C   0  0  0  0  0  1  0  0  0  0  0  0
  -26.4290  -37.3730   23.9400 N   0  0  0  0  0  0  0  0  0  0  0  0
  -26.0150  -38.2790   24.1390 H   0  0  0  0  0  0  0  0  0  0  0  0
  -26.4540  -31.6550   25.0720 C   0  0  1  0  0  0  0  0  0  0  0  0
  -25.3690  -31.3780   26.1390 C   0  0  0  0  0  1  0  0  0  0  0  0
  -27.0420  -30.2920   24.6390 C   0  0  0  0  0  1  0  0  0  0  0  0
  -27.6050  -32.4330   25.7510 C   0  0  0  0  0  1  0  0  0  0  0  0
  1 15  1  0
  2  7  1  0
  3  4  1  0
  3  2  1  0
  5  4  1  0
  5 23  1  0
  5  6  1  0
  7  1  1  0
  7  6  1  0
  8  1  2  0
  9 14  1  0
  9 12  2  0
 10 12  1  0
 10 15  1  0
 11 49  1  0
 11 14  1  0
 13  9  1  0
 14 18  1  0
 15 19  1  0
 16 11  2  0
 17 13  1  0
 17 10  1  0
 20 21  2  0
 21 40  1  0
 22 21  1  0
 22 25  1  0
 23 24  1  0
 23 20  1  0
 24 22  2  0
 25 26  1  0
 26 27  2  0
 28 31  1  0
 28 27  1  0
 29 28  2  0
 30 29  1  0
 30 25  2  0
 31 32  1  0
 32 33  1  0
 33 34  2  0
 35 34  1  0
 35 39  1  0
 36 35  2  0
 37 32  2  0
 37 36  1  0
 38 37  1  0
 40 41  1  0
 41 44  1  0
 41 43  1  0
 42 40  2  0
 45 46  1  0
 45 20  1  0
 47 45  1  0
 49 48  1  0
 50 49  1  0
 51 62  2  0
 52 50  1  0
 52 57  1  0
 53 61  1  0
 53 63  1  0
 54 60  1  0
 54 56  1  0
 55 61  1  0
 56 57  2  0
 56 55  1  0
 58 52  2  0
 59 58  1  0
 59 54  2  0
 60 53  1  0
 61 51  1  0
 63 65  2  0
 64 63  1  0
 66 64  1  0
 67 76  2  0
 67 72  1  0
 68 64  1  0
 68 72  1  0
 69 68  1  0
 70 71  1  0
 70 69  1  0
 71 67  1  0
 72 73  2  0
 73 74  1  0
 75 74  2  0
 76 75  1  0
 77 51  1  0
 77 78  1  0
 77 87  1  0
 78 81  1  0
 79 83  1  0
 79 78  1  0
 80 79  2  0
 83 82  1  0
 85 83  1  0
 85 86  1  0
 85 84  1  0
 87 90  1  1
 87 88  1  0
 89 87  1  0
M  ISO  4   1 100  15 100  49 101  50 101
M  END
>  <TORSDO>  (13) 
F 16

>  <SCORE>  (13) 
-15.828

>  <name>  (13) 
12

>  <ligand_id>  (13) 
12

>  <original_smiles>  (13) 
[H]c1c([H])c([H])c2c(c1[H])C([H])([H])C([H])([H])C([H])([H])C2([H])N([H])C(=O)C1([H])N(C(=O)C([H])(N([H])C(=O)C([H])(N([H])C([H])([H])[H])C([H])([H])[H])C(C([H])([H])[H])(C([H])([H])[H])C([H])([H])[H])C([H])([H])c2c([H])c(OC([H])(C(=O)N([H])c3nsc(N([H])C(=O)N4C([H])([H])C([H])([H])C([H])([H])C([H])(n5nc(-c6c([H])c([H])c(Oc7c([H])c([H])c(F)c([H])c7F)c([H])c6[H])c(C(=O)N([H])[H])c5N([H])[H])C4([H])[H])n3)C([H])([H])[H])c([H])c([H])c2C1([H])[H]

>  <smiles>  (13) 
[H]c1c([H])c([H])c2c(c1[H])C([H])([H])C([H])([H])C([H])([H])C2([H])N([H])C(=O)C1([H])N(C(=O)C([H])(N([H])C(=O)C([H])(N([H])C([H])([H])[H])C([H])([H])[H])C(C([H])([H])[H])(C([H])([H])[H])C([H])([H])[H])C([H])([H])c2c([H])c(OC([H])(C(=O)N([H])c3nsc(N([H])C(=O)N4C([H])([H])C([H])([H])C([H])([H])C([H])(n5nc(-c6c([H])c([H])c(Oc7c([H])c([H])c(F)c([H])c7F)c([H])c6[H])c(C(=O)N([H])[H])c5N([H])[H])C4([H])[H])n3)C([H])([H])[H])c([H])c([H])c2C1([H])[H]

$$$$
13:0:0
     RDKit          3D

 93101  0  0  1  0  0  0  0  0999 V2000
  -30.1210  -20.4190   19.6030 C   0  0  0  0  0  0  0  0  0  0  0  0
  -29.4390  -21.5000   20.0730 N   0  0  0  0  0  0  0  0  0  0  0  0
  -30.6590  -20.4400   18.4920 O   0  0  0  0  0  0  0  0  0  0  0  0
  -29.0390  -21.4330   20.9980 H   0  0  0  0  0  0  0  0  0  0  0  0
  -30.8480  -14.5350   19.9520 C   0  0  0  0  0  0  0  0  0  0  0  0
  -30.5210  -12.4050   18.7180 C   0  0  0  0  0  2  0  0  0  0  0  0
  -29.4710  -12.6450   17.6100 C   0  0  0  0  0  2  0  0  0  0  0  0
  -28.0360  -12.4780   18.1540 C   0  0  0  0  0  2  0  0  0  0  0  0
  -27.8080  -13.2470   19.4810 C   0  0  0  0  0  3  0  0  0  0  0  0
  -28.9520  -12.9530   20.4790 C   0  0  0  0  0  2  0  0  0  0  0  0
  -30.2220  -13.3270   19.8270 N   0  0  0  0  0  0  0  0  0  0  0  0
  -31.9250  -14.7810   19.3960 O   0  0  0  0  0  0  0  0  0  0  0  0
  -30.0830  -19.1380   21.8210 C   0  0  0  0  0  3  0  0  0  0  0  0
  -30.1470  -19.1480   20.4480 C   0  0  0  0  0  0  0  0  0  0  0  0
  -30.2930  -16.8640   20.8740 C   0  0  0  0  0  0  0  0  0  0  0  0
  -30.2880  -17.8260   19.9230 N   0  0  0  0  0  0  0  0  0  0  0  0
  -30.1390  -15.4540   20.6520 N   0  0  0  0  0  0  0  0  0  0  0  0
  -30.1320  -17.5270   22.4930 S   0  0  0  0  0  0  0  0  0  0  0  0
  -29.3660  -15.0450   21.1520 H   0  0  0  0  0  0  0  0  0  0  0  0
  -25.4770  -13.8380   20.4020 C   0  0  0  0  0  0  0  0  0  0  0  0
  -24.4380  -13.0570   20.8300 C   0  0  0  0  0  0  0  0  0  0  0  0
  -24.8850  -11.7060   20.7110 C   0  0  0  0  0  0  0  0  0  0  0  0
  -26.4950  -12.9610   20.0550 N   0  0  0  0  0  0  0  0  0  0  0  0
  -26.1460  -11.6720   20.2980 N   0  0  0  0  0  0  0  0  0  0  0  0
  -24.1690  -10.4400   20.9140 C   0  0  0  0  0  0  0  0  0  0  0  0
  -24.6150   -9.4810   21.8510 C   0  0  0  0  0  3  0  0  0  0  0  0
  -23.8990   -8.2790   22.0400 C   0  0  0  0  0  3  0  0  0  0  0  0
  -22.7240   -8.0280   21.2950 C   0  0  0  0  0  0  0  0  0  0  0  0
  -22.2960   -8.9760   20.3490 C   0  0  0  0  0  3  0  0  0  0  0  0
  -23.0120  -10.1700   20.1570 C   0  0  0  0  0  3  0  0  0  0  0  0
  -21.9780   -6.8790   21.3950 O   0  0  0  0  0  0  0  0  0  0  0  0
  -21.8630   -6.1960   22.5800 C   0  0  0  0  0  0  0  0  0  0  0  0
  -21.3350   -6.8010   23.7400 C   0  0  0  0  0  3  0  0  0  0  0  0
  -21.1700   -6.0430   24.9180 C   0  0  0  0  0  3  0  0  0  0  0  0
  -21.5230   -4.6810   24.9320 C   0  0  0  0  0  0  0  0  0  0  0  0
  -22.0440   -4.0750   23.7760 C   0  0  0  0  0  3  0  0  0  0  0  0
  -22.2110   -4.8310   22.6020 C   0  0  0  0  0  0  0  0  0  0  0  0
  -22.6940   -4.2360   21.4840 F   0  0  0  0  0  0  0  0  0  0  0  0
  -21.3570   -3.9500   26.0600 F   0  0  0  0  0  0  0  0  0  0  0  0
  -23.0700  -13.5290   21.2330 C   0  0  0  0  0  0  0  0  0  0  0  0
  -22.4160  -12.8150   22.1420 N   0  0  0  0  0  0  0  0  0  0  0  0
  -22.5930  -14.5680   20.7760 O   0  0  0  0  0  0  0  0  0  0  0  0
  -22.8170  -11.9770   22.5370 H   0  0  0  0  0  0  0  0  0  0  0  0
  -21.5030  -13.1140   22.4510 H   0  0  0  0  0  0  0  0  0  0  0  0
  -25.6360  -15.2140   20.2620 N   0  0  0  0  0  0  0  0  0  0  0  0
  -24.8750  -15.8600   20.4390 H   0  0  0  0  0  0  0  0  0  0  0  0
  -26.4510  -15.6630   19.8610 H   0  0  0  0  0  0  0  0  0  0  0  0
  -28.1050  -22.5150   18.2420 C   0  0  0  0  0  1  0  0  0  0  0  0
  -29.1780  -22.7690   19.3210 C   0  0  0  0  0  3  0  0  0  0  0  0
  -28.8200  -24.0300   20.1980 C   0  0  0  0  0  0  0  0  0  0  0  0
  -28.6140  -23.9420   21.4120 O   0  0  0  0  0  0  0  0  0  0  0  0
  -28.7190  -25.4170   19.4740 C   0  0  0  0  0  2  0  0  0  0  0  0
  -28.4530  -26.5640   20.3360 O   0  0  0  0  0  0  0  0  0  0  0  0
  -24.5430  -31.8250   23.1960 C   0  0  0  0  0  0  0  0  0  0  0  0
  -27.2720  -27.2970   20.2470 C   0  0  0  0  0  0  0  0  0  0  0  0
  -23.3810  -30.3950   21.5480 C   0  0  0  0  0  3  0  0  0  0  0  0
  -24.8710  -28.8360   20.1790 C   0  0  0  0  0  0  0  0  0  0  0  0
  -25.9140  -30.7440   21.4090 C   0  0  0  0  0  2  0  0  0  0  0  0
  -26.0180  -29.3600   20.7880 C   0  0  0  0  0  0  0  0  0  0  0  0
  -27.2140  -28.5980   20.8200 C   0  0  0  0  0  3  0  0  0  0  0  0
  -26.0960  -26.7950   19.6390 C   0  0  0  0  0  3  0  0  0  0  0  0
  -24.9090  -27.5550   19.6030 C   0  0  0  0  0  3  0  0  0  0  0  0
  -23.6270  -29.6960   20.1840 C   0  0  0  0  0  2  0  0  0  0  0  0
  -24.6290  -31.0060   22.1080 N   0  0  0  0  0  0  0  0  0  0  0  0
  -23.4480  -32.1020   23.7050 O   0  0  0  0  0  0  0  0  0  0  0  0
  -22.7060  -29.3890   22.5100 C   0  0  0  0  0  0  0  0  0  0  0  0
  -21.3870  -29.1910   22.3460 N   0  0  0  0  0  0  0  0  0  0  0  0
  -23.3680  -28.7890   23.3600 O   0  0  0  0  0  0  0  0  0  0  0  0
  -20.9140  -29.7260   21.6310 H   0  0  0  0  0  0  0  0  0  0  0  0
  -18.0150  -27.9570   22.7550 C   0  0  0  0  0  0  0  0  0  0  0  0
  -20.5570  -28.2600   23.1110 C   0  0  0  0  0  3  0  0  0  0  0  0
  -20.7000  -26.8170   22.5740 C   0  0  0  0  0  2  0  0  0  0  0  0
  -19.6400  -26.4540   21.5290 C   0  0  0  0  0  2  0  0  0  0  0  0
  -18.2340  -26.5960   22.1190 C   0  0  0  0  0  2  0  0  0  0  0  0
  -19.1050  -28.7460   23.2070 C   0  0  0  0  0  0  0  0  0  0  0  0
  -18.8490  -30.0200   23.7590 C   0  0  0  0  0  3  0  0  0  0  0  0
  -17.5320  -30.5070   23.8630 C   0  0  0  0  0  3  0  0  0  0  0  0
  -16.4540  -29.7150   23.4290 C   0  0  0  0  0  3  0  0  0  0  0  0
  -16.6960  -28.4420   22.8820 C   0  0  0  0  0  3  0  0  0  0  0  0
  -25.8110  -32.4710   23.8370 C   0  0  0  0  0  3  0  0  0  0  0  0
  -26.3220  -31.7020   25.1170 C   0  0  1  0  0  0  0  0  0  0  0  0
  -25.2170  -31.4390   26.1660 C   0  0  0  0  0  1  0  0  0  0  0  0
  -26.9360  -30.3380   24.7250 C   0  0  0  0  0  1  0  0  0  0  0  0
  -27.4480  -32.5120   25.8010 C   0  0  0  0  0  1  0  0  0  0  0  0
  -25.4820  -33.8640   24.1670 N   0  0  0  0  0  0  0  0  0  0  0  0
  -25.7970  -34.9210   23.4070 C   0  0  0  0  0  0  0  0  0  0  0  0
  -26.4670  -34.8270   22.3750 O   0  0  0  0  0  0  0  0  0  0  0  0
  -24.8870  -34.0090   24.9700 H   0  0  0  0  0  0  0  0  0  0  0  0
  -24.0370  -36.6830   23.0580 C   0  0  0  0  0  1  0  0  0  0  0  0
  -25.2890  -36.3020   23.8650 C   0  0  0  0  0  3  0  0  0  0  0  0
  -27.4090  -37.2280   24.6850 C   0  0  0  0  0  1  0  0  0  0  0  0
  -26.3030  -37.3720   23.7430 N   0  0  0  0  0  0  0  0  0  0  0  0
  -25.8820  -38.2850   23.8870 H   0  0  0  0  0  0  0  0  0  0  0  0
  1  2  1  0
  1 14  1  0
  2  4  1  0
  3  1  2  0
  5 17  1  0
  6 11  1  0
  7  8  1  0
  7  6  1  0
  9  8  1  0
  9 23  1  0
  9 10  1  0
 11  5  1  0
 11 10  1  0
 12  5  2  0
 13 18  1  0
 14 13  2  0
 15 18  1  0
 16 14  1  0
 16 15  2  0
 17 15  1  0
 17 19  1  0
 20 21  2  0
 21 40  1  0
 22 21  1  0
 22 25  1  0
 23 24  1  0
 23 20  1  0
 24 22  2  0
 25 26  1  0
 26 27  2  0
 28 31  1  0
 28 27  1  0
 29 28  2  0
 30 29  1  0
 30 25  2  0
 31 32  1  0
 32 37  2  0
 32 33  1  0
 33 34  2  0
 34 35  1  0
 35 39  1  0
 36 35  2  0
 37 36  1  0
 38 37  1  0
 40 41  1  0
 41 44  1  0
 41 43  1  0
 42 40  2  0
 45 20  1  0
 45 46  1  0
 47 45  1  0
 49 48  1  0
 49  2  1  0
 49 50  1  0
 50 51  2  0
 52 50  1  0
 52 53  1  0
 54 65  2  0
 55 53  1  0
 55 60  1  0
 56 64  1  0
 56 66  1  0
 57 63  1  0
 57 59  1  0
 58 64  1  0
 59 60  2  0
 59 58  1  0
 61 55  2  0
 62 61  1  0
 62 57  2  0
 63 56  1  0
 64 54  1  0
 66 68  2  0
 67 66  1  0
 69 67  1  0
 70 79  2  0
 70 75  1  0
 71 67  1  0
 71 75  1  0
 72 71  1  0
 73 74  1  0
 73 72  1  0
 74 70  1  0
 75 76  2  0
 76 77  1  0
 78 77  2  0
 79 78  1  0
 80 54  1  0
 80 85  1  0
 80 81  1  0
 81 84  1  1
 81 82  1  0
 83 81  1  0
 85 88  1  0
 86 90  1  0
 86 85  1  0
 87 86  2  0
 90 89  1  0
 92 90  1  0
 92 93  1  0
 92 91  1  0
M  ISO  4   5 100  17 100  52 101  53 101
M  END
>  <TORSDO>  (14) 
F 19

>  <SCORE>  (14) 
-12.961

>  <name>  (14) 
13

>  <ligand_id>  (14) 
13

>  <original_smiles>  (14) 
[H]c1sc(N([H])C(=O)N2C([H])([H])C([H])([H])C([H])([H])C([H])(n3nc(-c4c([H])c([H])c(Oc5c([H])c([H])c(F)c([H])c5F)c([H])c4[H])c(C(=O)N([H])[H])c3N([H])[H])C2([H])[H])nc1C(=O)N([H])C([H])(C(=O)C([H])([H])Oc1c([H])c([H])c2c(c1[H])C([H])([H])N(C(=O)C([H])(N([H])C(=O)C([H])(N([H])C([H])([H])[H])C([H])([H])[H])C(C([H])([H])[H])(C([H])([H])[H])C([H])([H])[H])C([H])(C(=O)N([H])C1([H])c3c([H])c([H])c([H])c([H])c3C([H])([H])C([H])([H])C1([H])[H])C2([H])[H])C([H])([H])[H]

>  <smiles>  (14) 
[H]c1sc(N([H])C(=O)N2C([H])([H])C([H])([H])C([H])([H])C([H])(n3nc(-c4c([H])c([H])c(Oc5c([H])c([H])c(F)c([H])c5F)c([H])c4[H])c(C(=O)N([H])[H])c3N([H])[H])C2([H])[H])nc1C(=O)N([H])C([H])(C(=O)C([H])([H])Oc1c([H])c([H])c2c(c1[H])C([H])([H])N(C(=O)C([H])(N([H])C(=O)C([H])(N([H])C([H])([H])[H])C([H])([H])[H])C(C([H])([H])[H])(C([H])([H])[H])C([H])([H])[H])C([H])(C(=O)N([H])C1([H])c3c([H])c([H])c([H])c([H])c3C([H])([H])C([H])([H])C1([H])[H])C2([H])[H])C([H])([H])[H]

$$$$
14:0:0
     RDKit          3D

 92100  0  0  1  0  0  0  0  0999 V2000
  -30.4840  -15.1360   20.3460 C   0  0  0  0  0  0  0  0  0  0  0  0
  -30.4070  -12.7390   19.4680 C   0  0  0  0  0  2  0  0  0  0  0  0
  -29.4860  -12.6210   18.2280 C   0  0  0  0  0  2  0  0  0  0  0  0
  -28.0280  -12.3770   18.6560 C   0  0  0  0  0  2  0  0  0  0  0  0
  -27.5900  -13.3300   19.7990 C   0  0  0  0  0  3  0  0  0  0  0  0
  -28.6370  -13.4120   20.9350 C   0  0  0  0  0  2  0  0  0  0  0  0
  -29.9010  -13.8550   20.3280 N   0  0  0  0  0  0  0  0  0  0  0  0
  -31.6890  -15.1700   20.0680 O   0  0  0  0  0  0  0  0  0  0  0  0
  -29.4130  -20.2610   20.2490 C   0  0  0  0  0  0  0  0  0  0  0  0
  -30.6020  -19.9190   19.6220 C   0  0  0  0  0  0  0  0  0  0  0  0
  -29.8660  -17.8730   20.2990 C   0  0  0  0  0  0  0  0  0  0  0  0
  -30.8690  -18.5180   19.6720 N   0  0  0  0  0  0  0  0  0  0  0  0
  -29.7000  -16.3370   20.5110 N   0  0  0  0  0  0  0  0  0  0  0  0
  -28.9510  -18.9190   20.6540 O   0  0  0  0  0  0  0  0  0  0  0  0
  -28.7640  -16.1110   20.8100 H   0  0  0  0  0  0  0  0  0  0  0  0
  -25.2070  -13.8970   20.5260 C   0  0  0  0  0  0  0  0  0  0  0  0
  -24.1440  -13.1190   20.8920 C   0  0  0  0  0  0  0  0  0  0  0  0
  -24.6140  -11.7710   20.8700 C   0  0  0  0  0  0  0  0  0  0  0  0
  -26.2530  -13.0220   20.2940 N   0  0  0  0  0  0  0  0  0  0  0  0
  -25.9060  -11.7380   20.5730 N   0  0  0  0  0  0  0  0  0  0  0  0
  -23.8910  -10.5060   21.0480 C   0  0  0  0  0  0  0  0  0  0  0  0
  -24.3140   -9.5410   21.9880 C   0  0  0  0  0  3  0  0  0  0  0  0
  -23.5920   -8.3420   22.1600 C   0  0  0  0  0  3  0  0  0  0  0  0
  -22.4280   -8.0990   21.3950 C   0  0  0  0  0  0  0  0  0  0  0  0
  -22.0220   -9.0500   20.4410 C   0  0  0  0  0  3  0  0  0  0  0  0
  -22.7470  -10.2410   20.2670 C   0  0  0  0  0  3  0  0  0  0  0  0
  -21.6750   -6.9510   21.4740 O   0  0  0  0  0  0  0  0  0  0  0  0
  -21.6010   -6.2170   22.6290 C   0  0  0  0  0  0  0  0  0  0  0  0
  -21.1420   -6.7770   23.8420 C   0  0  0  0  0  3  0  0  0  0  0  0
  -21.0210   -5.9680   24.9900 C   0  0  0  0  0  3  0  0  0  0  0  0
  -21.3480   -4.6000   24.9250 C   0  0  0  0  0  0  0  0  0  0  0  0
  -21.8020   -4.0400   23.7180 C   0  0  0  0  0  3  0  0  0  0  0  0
  -21.9250   -4.8470   22.5740 C   0  0  0  0  0  0  0  0  0  0  0  0
  -22.3400   -4.2980   21.4080 F   0  0  0  0  0  0  0  0  0  0  0  0
  -21.2240   -3.8190   26.0240 F   0  0  0  0  0  0  0  0  0  0  0  0
  -22.7420  -13.5930   21.1440 C   0  0  0  0  0  0  0  0  0  0  0  0
  -22.0100  -12.9040   22.0100 N   0  0  0  0  0  0  0  0  0  0  0  0
  -22.3070  -14.6100   20.6050 O   0  0  0  0  0  0  0  0  0  0  0  0
  -22.3790  -12.0840   22.4690 H   0  0  0  0  0  0  0  0  0  0  0  0
  -21.0670  -13.1980   22.2170 H   0  0  0  0  0  0  0  0  0  0  0  0
  -25.3720  -15.2640   20.3330 N   0  0  0  0  0  0  0  0  0  0  0  0
  -24.5910  -15.9080   20.3950 H   0  0  0  0  0  0  0  0  0  0  0  0
  -26.1760  -15.6600   19.8610 H   0  0  0  0  0  0  0  0  0  0  0  0
  -31.4740  -20.7790   18.9560 N   0  0  0  0  0  0  0  0  0  0  0  0
  -31.1760  -21.7350   18.7780 H   0  0  0  0  0  0  0  0  0  0  0  0
  -32.1030  -20.4040   18.2530 H   0  0  0  0  0  0  0  0  0  0  0  0
  -27.1930  -21.4700   19.7240 C   0  0  0  0  0  1  0  0  0  0  0  0
  -28.5230  -21.6650   20.4710 C   0  0  0  0  0  3  0  0  0  0  0  0
  -28.9710  -23.2850   20.2580 C   0  0  0  0  0  0  0  0  0  0  0  0
  -30.1150  -23.5140   19.8550 O   0  0  0  0  0  0  0  0  0  0  0  0
  -27.9470  -24.6020   20.5280 C   0  0  0  0  0  2  0  0  0  0  0  0
  -28.2880  -26.1410   20.3530 O   0  0  0  0  0  0  0  0  0  0  0  0
  -24.6470  -31.9360   23.2700 C   0  0  0  0  0  0  0  0  0  0  0  0
  -27.2430  -27.1560   20.3060 C   0  0  0  0  0  0  0  0  0  0  0  0
  -23.4560  -30.5320   21.6360 C   0  0  0  0  0  3  0  0  0  0  0  0
  -24.9120  -28.9320   20.2420 C   0  0  0  0  0  0  0  0  0  0  0  0
  -26.0150  -30.7760   21.4920 C   0  0  0  0  0  2  0  0  0  0  0  0
  -26.0930  -29.3730   20.8570 C   0  0  0  0  0  0  0  0  0  0  0  0
  -27.2560  -28.5070   20.8690 C   0  0  0  0  0  3  0  0  0  0  0  0
  -26.0360  -26.8320   19.6450 C   0  0  0  0  0  3  0  0  0  0  0  0
  -24.9000  -27.6720   19.6230 C   0  0  0  0  0  3  0  0  0  0  0  0
  -23.6860  -29.8350   20.2690 C   0  0  0  0  0  2  0  0  0  0  0  0
  -24.7270  -31.1040   22.1850 N   0  0  0  0  0  0  0  0  0  0  0  0
  -23.5590  -32.2310   23.7860 O   0  0  0  0  0  0  0  0  0  0  0  0
  -22.7630  -29.5370   22.6050 C   0  0  0  0  0  0  0  0  0  0  0  0
  -21.4360  -29.3660   22.4690 N   0  0  0  0  0  0  0  0  0  0  0  0
  -23.4270  -28.9210   23.4420 O   0  0  0  0  0  0  0  0  0  0  0  0
  -20.9510  -29.9200   21.7770 H   0  0  0  0  0  0  0  0  0  0  0  0
  -18.0540  -28.1680   22.9680 C   0  0  0  0  0  0  0  0  0  0  0  0
  -20.6100  -28.4380   23.2460 C   0  0  0  0  0  3  0  0  0  0  0  0
  -20.7160  -26.9980   22.6950 C   0  0  0  0  0  2  0  0  0  0  0  0
  -19.6240  -26.6600   21.6740 C   0  0  0  0  0  2  0  0  0  0  0  0
  -18.2370  -26.8130   22.3040 C   0  0  0  0  0  2  0  0  0  0  0  0
  -19.1680  -28.9380   23.3970 C   0  0  0  0  0  0  0  0  0  0  0  0
  -18.9450  -30.2040   23.9800 C   0  0  0  0  0  3  0  0  0  0  0  0
  -17.6390  -30.7060   24.1320 C   0  0  0  0  0  3  0  0  0  0  0  0
  -16.5390  -29.9370   23.7170 C   0  0  0  0  0  3  0  0  0  0  0  0
  -16.7450  -28.6680   23.1440 C   0  0  0  0  0  3  0  0  0  0  0  0
  -25.9210  -32.5760   23.8990 C   0  0  0  0  0  3  0  0  0  0  0  0
  -26.4250  -31.8170   25.1890 C   0  0  1  0  0  0  0  0  0  0  0  0
  -25.3200  -31.6030   26.2490 C   0  0  0  0  0  1  0  0  0  0  0  0
  -27.0090  -30.4310   24.8280 C   0  0  0  0  0  1  0  0  0  0  0  0
  -27.5750  -32.6140   25.8530 C   0  0  0  0  0  1  0  0  0  0  0  0
  -25.6090  -33.9770   24.2220 N   0  0  0  0  0  0  0  0  0  0  0  0
  -25.9250  -35.0300   23.4580 C   0  0  0  0  0  0  0  0  0  0  0  0
  -26.5810  -34.9250   22.4170 O   0  0  0  0  0  0  0  0  0  0  0  0
  -25.0220  -34.1310   25.0290 H   0  0  0  0  0  0  0  0  0  0  0  0
  -24.1780  -36.8160   23.1370 C   0  0  0  0  0  1  0  0  0  0  0  0
  -25.4430  -36.4220   23.9180 C   0  0  0  0  0  3  0  0  0  0  0  0
  -27.5930  -37.3290   24.6860 C   0  0  0  0  0  1  0  0  0  0  0  0
  -26.4660  -37.4790   23.7700 N   0  0  0  0  0  0  0  0  0  0  0  0
  -26.0580  -38.3990   23.9140 H   0  0  0  0  0  0  0  0  0  0  0  0
  1 13  1  0
  2  7  1  0
  3  4  1  0
  3  2  1  0
  5  4  1  0
  5 19  1  0
  5  6  1  0
  7  1  1  0
  7  6  1  0
  8  1  2  0
  9 48  1  0
  9 14  1  0
 10 12  1  0
 10  9  2  0
 11 13  1  0
 11 14  1  0
 12 11  2  0
 13 15  1  0
 16 17  2  0
 17 36  1  0
 18 17  1  0
 18 21  1  0
 19 16  1  0
 19 20  1  0
 20 18  2  0
 21 22  1  0
 22 23  2  0
 24 27  1  0
 24 23  1  0
 25 24  2  0
 26 25  1  0
 26 21  2  0
 27 28  1  0
 28 29  1  0
 29 30  2  0
 31 30  1  0
 31 35  1  0
 32 31  2  0
 33 28  2  0
 33 32  1  0
 34 33  1  0
 36 37  1  0
 37 40  1  0
 37 39  1  0
 38 36  2  0
 41 42  1  0
 41 16  1  0
 43 41  1  0
 44 10  1  0
 45 44  1  0
 46 44  1  0
 48 47  1  0
 49 48  1  0
 49 51  1  0
 50 49  2  0
 52 51  1  0
 53 64  2  0
 54 52  1  0
 54 59  1  0
 55 63  1  0
 55 65  1  0
 56 62  1  0
 56 58  1  0
 57 63  1  0
 58 59  2  0
 58 57  1  0
 60 54  2  0
 61 60  1  0
 61 56  2  0
 62 55  1  0
 63 53  1  0
 65 67  2  0
 66 65  1  0
 68 66  1  0
 69 78  2  0
 69 74  1  0
 70 66  1  0
 70 74  1  0
 71 70  1  0
 72 73  1  0
 72 71  1  0
 73 69  1  0
 74 75  2  0
 75 76  1  0
 77 76  2  0
 78 77  1  0
 79 53  1  0
 79 84  1  0
 79 80  1  0
 80 83  1  1
 80 81  1  0
 82 80  1  0
 84 87  1  0
 85 89  1  0
 85 84  1  0
 86 85  2  0
 89 88  1  0
 91 92  1  0
 91 89  1  0
 91 90  1  0
M  ISO  4   1 100  13 100  51 101  52 101
M  END
>  <TORSDO>  (15) 
F 19

>  <SCORE>  (15) 
-14.662

>  <name>  (15) 
14

>  <ligand_id>  (15) 
14

>  <original_smiles>  (15) 
[H]c1c([H])c([H])c2c(c1[H])C([H])([H])C([H])([H])C([H])([H])C2([H])N([H])C(=O)C1([H])N(C(=O)C([H])(N([H])C(=O)C([H])(N([H])C([H])([H])[H])C([H])([H])[H])C(C([H])([H])[H])(C([H])([H])[H])C([H])([H])[H])C([H])([H])c2c([H])c(OC([H])([H])C(=O)C([H])(c3oc(N([H])C(=O)N4C([H])([H])C([H])([H])C([H])([H])C([H])(n5nc(-c6c([H])c([H])c(Oc7c([H])c([H])c(F)c([H])c7F)c([H])c6[H])c(C(=O)N([H])[H])c5N([H])[H])C4([H])[H])nc3N([H])[H])C([H])([H])[H])c([H])c([H])c2C1([H])[H]

>  <smiles>  (15) 
[H]c1c([H])c([H])c2c(c1[H])C([H])([H])C([H])([H])C([H])([H])C2([H])N([H])C(=O)C1([H])N(C(=O)C([H])(N([H])C(=O)C([H])(N([H])C([H])([H])[H])C([H])([H])[H])C(C([H])([H])[H])(C([H])([H])[H])C([H])([H])[H])C([H])([H])c2c([H])c(OC([H])([H])C(=O)C([H])(c3oc(N([H])C(=O)N4C([H])([H])C([H])([H])C([H])([H])C([H])(n5nc(-c6c([H])c([H])c(Oc7c([H])c([H])c(F)c([H])c7F)c([H])c6[H])c(C(=O)N([H])[H])c5N([H])[H])C4([H])[H])nc3N([H])[H])C([H])([H])[H])c([H])c([H])c2C1([H])[H]

$$$$
15:0:0
     RDKit          3D

 94102  0  0  1  0  0  0  0  0999 V2000
  -29.4450  -21.9610   20.6870 C   0  0  0  0  0  3  0  0  0  0  0  0
  -28.8600  -22.9530   20.1140 N   0  0  0  0  0  0  0  0  0  0  0  0
  -29.2570  -24.2740   20.3670 C   0  0  0  0  0  0  0  0  0  0  0  0
  -30.1810  -24.6610   21.0860 O   0  0  0  0  0  0  0  0  0  0  0  0
  -28.7850  -25.4120   18.1270 C   0  0  0  0  0  1  0  0  0  0  0  0
  -28.3730  -25.3070   19.6070 C   0  0  0  0  0  3  0  0  0  0  0  0
  -28.3830  -26.6440   20.1910 O   0  0  0  0  0  0  0  0  0  0  0  0
  -24.5940  -31.9070   23.2370 C   0  0  0  0  0  0  0  0  0  0  0  0
  -27.2210  -27.4160   20.1450 C   0  0  0  0  0  0  0  0  0  0  0  0
  -23.3860  -30.5060   21.6000 C   0  0  0  0  0  3  0  0  0  0  0  0
  -24.8350  -28.9740   20.1680 C   0  0  0  0  0  0  0  0  0  0  0  0
  -25.9210  -30.8440   21.4140 C   0  0  0  0  0  2  0  0  0  0  0  0
  -26.0000  -29.4750   20.7620 C   0  0  0  0  0  0  0  0  0  0  0  0
  -27.1920  -28.7020   20.7510 C   0  0  0  0  0  3  0  0  0  0  0  0
  -26.0290  -26.9620   19.5270 C   0  0  0  0  0  3  0  0  0  0  0  0
  -24.8460  -27.7180   19.5490 C   0  0  0  0  0  3  0  0  0  0  0  0
  -23.5930  -29.8350   20.2190 C   0  0  0  0  0  2  0  0  0  0  0  0
  -24.6510  -31.1030   22.1380 N   0  0  0  0  0  0  0  0  0  0  0  0
  -23.5140  -32.1840   23.7740 O   0  0  0  0  0  0  0  0  0  0  0  0
  -22.7390  -29.4820   22.5610 C   0  0  0  0  0  0  0  0  0  0  0  0
  -21.4140  -29.3000   22.4380 N   0  0  0  0  0  0  0  0  0  0  0  0
  -23.4240  -28.8580   23.3740 O   0  0  0  0  0  0  0  0  0  0  0  0
  -20.9220  -29.8580   21.7550 H   0  0  0  0  0  0  0  0  0  0  0  0
  -18.0380  -28.1160   22.9510 C   0  0  0  0  0  0  0  0  0  0  0  0
  -20.5980  -28.3620   23.2090 C   0  0  0  0  0  3  0  0  0  0  0  0
  -20.6910  -26.9320   22.6250 C   0  0  0  0  0  2  0  0  0  0  0  0
  -19.5820  -26.6190   21.6160 C   0  0  0  0  0  2  0  0  0  0  0  0
  -18.2050  -26.7680   22.2700 C   0  0  0  0  0  2  0  0  0  0  0  0
  -19.1630  -28.8710   23.3770 C   0  0  0  0  0  0  0  0  0  0  0  0
  -18.9520  -30.1340   23.9730 C   0  0  0  0  0  3  0  0  0  0  0  0
  -17.6500  -30.6410   24.1480 C   0  0  0  0  0  3  0  0  0  0  0  0
  -16.5410  -29.8810   23.7390 C   0  0  0  0  0  3  0  0  0  0  0  0
  -16.7360  -28.6210   23.1460 C   0  0  0  0  0  3  0  0  0  0  0  0
  -25.8820  -32.5370   23.8540 C   0  0  0  0  0  3  0  0  0  0  0  0
  -26.4050  -31.7660   25.1280 C   0  0  1  0  0  0  0  0  0  0  0  0
  -25.3130  -31.5230   26.1960 C   0  0  0  0  0  1  0  0  0  0  0  0
  -26.9910  -30.3890   24.7380 C   0  0  0  0  0  1  0  0  0  0  0  0
  -27.5530  -32.5630   25.7900 C   0  0  0  0  0  1  0  0  0  0  0  0
  -25.5730  -33.9340   24.1830 N   0  0  0  0  0  0  0  0  0  0  0  0
  -25.9020  -34.9870   23.4240 C   0  0  0  0  0  0  0  0  0  0  0  0
  -26.5680  -34.8840   22.3890 O   0  0  0  0  0  0  0  0  0  0  0  0
  -24.9770  -34.0900   24.9830 H   0  0  0  0  0  0  0  0  0  0  0  0
  -24.1710  -36.7780   23.0750 C   0  0  0  0  0  1  0  0  0  0  0  0
  -25.4160  -36.3740   23.8830 C   0  0  0  0  0  3  0  0  0  0  0  0
  -27.5480  -37.2610   24.7140 C   0  0  0  0  0  1  0  0  0  0  0  0
  -26.4480  -37.4250   23.7690 N   0  0  0  0  0  0  0  0  0  0  0  0
  -26.0420  -38.3470   23.9100 H   0  0  0  0  0  0  0  0  0  0  0  0
  -28.9740  -20.5040   20.4750 C   0  0  0  0  0  2  0  0  0  0  0  0
  -30.6650  -14.5660   20.4240 C   0  0  0  0  0  0  0  0  0  0  0  0
  -30.3520  -12.3670   19.3380 C   0  0  0  0  0  2  0  0  0  0  0  0
  -29.4170  -12.5500   18.1250 C   0  0  0  0  0  2  0  0  0  0  0  0
  -27.9410  -12.4200   18.5530 C   0  0  0  0  0  2  0  0  0  0  0  0
  -27.6010  -13.2670   19.8080 C   0  0  0  0  0  3  0  0  0  0  0  0
  -28.6640  -13.0950   20.9190 C   0  0  0  0  0  2  0  0  0  0  0  0
  -29.9810  -13.3850   20.3340 N   0  0  0  0  0  0  0  0  0  0  0  0
  -31.8240  -14.6730   20.0160 O   0  0  0  0  0  0  0  0  0  0  0  0
  -29.9490  -19.3280   20.6090 C   0  0  0  0  0  0  0  0  0  0  0  0
  -31.3330  -19.3110   20.6640 C   0  0  0  0  0  0  0  0  0  0  0  0
  -30.3280  -17.0350   20.7320 C   0  0  0  0  0  0  0  0  0  0  0  0
  -29.4090  -18.0160   20.6620 N   0  0  0  0  0  0  0  0  0  0  0  0
  -29.9380  -15.6510   20.7790 N   0  0  0  0  0  0  0  0  0  0  0  0
  -31.9700  -17.6780   20.7810 S   0  0  0  0  0  0  0  0  0  0  0  0
  -28.9690  -15.4750   20.9890 H   0  0  0  0  0  0  0  0  0  0  0  0
  -25.2060  -13.8670   20.5260 C   0  0  0  0  0  0  0  0  0  0  0  0
  -24.1390  -13.0960   20.8970 C   0  0  0  0  0  0  0  0  0  0  0  0
  -24.5980  -11.7440   20.8620 C   0  0  0  0  0  0  0  0  0  0  0  0
  -26.2510  -12.9880   20.2930 N   0  0  0  0  0  0  0  0  0  0  0  0
  -25.8900  -11.7070   20.5560 N   0  0  0  0  0  0  0  0  0  0  0  0
  -23.8700  -10.4840   21.0470 C   0  0  0  0  0  0  0  0  0  0  0  0
  -24.2940   -9.5140   21.9800 C   0  0  0  0  0  3  0  0  0  0  0  0
  -23.5640   -8.3170   22.1530 C   0  0  0  0  0  3  0  0  0  0  0  0
  -22.3950   -8.0830   21.3910 C   0  0  0  0  0  0  0  0  0  0  0  0
  -21.9910   -9.0420   20.4440 C   0  0  0  0  0  3  0  0  0  0  0  0
  -22.7200  -10.2300   20.2710 C   0  0  0  0  0  3  0  0  0  0  0  0
  -21.6380   -6.9400   21.4730 O   0  0  0  0  0  0  0  0  0  0  0  0
  -21.5730   -6.2010   22.6250 C   0  0  0  0  0  0  0  0  0  0  0  0
  -21.1120   -6.7530   23.8400 C   0  0  0  0  0  3  0  0  0  0  0  0
  -20.9950   -5.9380   24.9840 C   0  0  0  0  0  3  0  0  0  0  0  0
  -21.3290   -4.5720   24.9150 C   0  0  0  0  0  0  0  0  0  0  0  0
  -21.7830   -4.0200   23.7040 C   0  0  0  0  0  3  0  0  0  0  0  0
  -21.9010   -4.8320   22.5620 C   0  0  0  0  0  0  0  0  0  0  0  0
  -22.3180   -4.2900   21.3940 F   0  0  0  0  0  0  0  0  0  0  0  0
  -21.2080   -3.7870   26.0110 F   0  0  0  0  0  0  0  0  0  0  0  0
  -22.7430  -13.5730   21.1720 C   0  0  0  0  0  0  0  0  0  0  0  0
  -22.0140  -12.8720   22.0330 N   0  0  0  0  0  0  0  0  0  0  0  0
  -22.3080  -14.6060   20.6610 O   0  0  0  0  0  0  0  0  0  0  0  0
  -22.3790  -12.0330   22.4610 H   0  0  0  0  0  0  0  0  0  0  0  0
  -21.0810  -13.1790   22.2680 H   0  0  0  0  0  0  0  0  0  0  0  0
  -25.3710  -15.2390   20.3460 N   0  0  0  0  0  0  0  0  0  0  0  0
  -24.6000  -15.8900   20.4360 H   0  0  0  0  0  0  0  0  0  0  0  0
  -26.2140  -15.6720   19.9900 H   0  0  0  0  0  0  0  0  0  0  0  0
  -32.2380  -20.3680   20.6280 N   0  0  0  0  0  0  0  0  0  0  0  0
  -32.0120  -21.3150   20.3410 H   0  0  0  0  0  0  0  0  0  0  0  0
  -33.2420  -20.2250   20.6960 H   0  0  0  0  0  0  0  0  0  0  0  0
  2  3  1  0
  2  1  2  0
  3  4  2  0
  6  5  1  0
  6  7  1  0
  6  3  1  0
  8 19  2  0
  9  7  1  0
  9 14  1  0
 10 18  1  0
 10 20  1  0
 11 17  1  0
 11 13  1  0
 12 18  1  0
 13 12  1  0
 14 13  2  0
 15 16  1  0
 15  9  2  0
 16 11  2  0
 17 10  1  0
 18  8  1  0
 20 22  2  0
 21 20  1  0
 23 21  1  0
 24 33  2  0
 24 29  1  0
 25 21  1  0
 25 29  1  0
 26 25  1  0
 27 28  1  0
 27 26  1  0
 28 24  1  0
 29 30  2  0
 30 31  1  0
 32 31  2  0
 33 32  1  0
 34  8  1  0
 34 39  1  0
 34 35  1  0
 35 38  1  1
 35 36  1  0
 37 35  1  0
 39 42  1  0
 40 44  1  0
 40 39  1  0
 41 40  2  0
 44 43  1  0
 46 44  1  0
 46 47  1  0
 46 45  1  0
 48 57  1  0
 48  1  1  0
 49 61  1  0
 50 55  1  0
 51 52  1  0
 51 50  1  0
 53 52  1  0
 53 67  1  0
 53 54  1  0
 55 49  1  0
 55 54  1  0
 56 49  2  0
 57 60  1  0
 57 58  2  0
 58 62  1  0
 59 61  1  0
 59 62  1  0
 60 59  2  0
 61 63  1  0
 64 65  2  0
 65 84  1  0
 66 65  1  0
 66 69  1  0
 67 64  1  0
 67 68  1  0
 68 66  2  0
 69 70  1  0
 70 71  2  0
 72 75  1  0
 72 71  1  0
 73 72  2  0
 74 73  1  0
 74 69  2  0
 75 76  1  0
 76 77  1  0
 77 78  2  0
 79 78  1  0
 79 83  1  0
 80 79  2  0
 81 76  2  0
 81 80  1  0
 82 81  1  0
 84 85  1  0
 85 88  1  0
 85 87  1  0
 86 84  2  0
 89 90  1  0
 89 64  1  0
 91 89  1  0
 92 58  1  0
 92 94  1  0
 93 92  1  0
M  ISO  4   6 101   7 101  49 100  61 100
M  END
>  <TORSDO>  (16) 
F 20

>  <SCORE>  (16) 
-14.216

>  <name>  (16) 
15

>  <ligand_id>  (16) 
15

>  <original_smiles>  (16) 
[H]C(=NC(=O)C([H])(Oc1c([H])c([H])c2c(c1[H])C([H])([H])N(C(=O)C([H])(N([H])C(=O)C([H])(N([H])C([H])([H])[H])C([H])([H])[H])C(C([H])([H])[H])(C([H])([H])[H])C([H])([H])[H])C([H])(C(=O)N([H])C1([H])c3c([H])c([H])c([H])c([H])c3C([H])([H])C([H])([H])C1([H])[H])C2([H])[H])C([H])([H])[H])C([H])([H])c1nc(N([H])C(=O)N2C([H])([H])C([H])([H])C([H])([H])C([H])(n3nc(-c4c([H])c([H])c(Oc5c([H])c([H])c(F)c([H])c5F)c([H])c4[H])c(C(=O)N([H])[H])c3N([H])[H])C2([H])[H])sc1N([H])[H]

>  <smiles>  (16) 
[H]C(=NC(=O)C([H])(Oc1c([H])c([H])c2c(c1[H])C([H])([H])N(C(=O)C([H])(N([H])C(=O)C([H])(N([H])C([H])([H])[H])C([H])([H])[H])C(C([H])([H])[H])(C([H])([H])[H])C([H])([H])[H])C([H])(C(=O)N([H])C1([H])c3c([H])c([H])c([H])c([H])c3C([H])([H])C([H])([H])C1([H])[H])C2([H])[H])C([H])([H])[H])C([H])([H])c1nc(N([H])C(=O)N2C([H])([H])C([H])([H])C([H])([H])C([H])(n3nc(-c4c([H])c([H])c(Oc5c([H])c([H])c(F)c([H])c5F)c([H])c4[H])c(C(=O)N([H])[H])c3N([H])[H])C2([H])[H])sc1N([H])[H]

$$$$
16:0:0
     RDKit          3D

 91 99  0  0  1  0  0  0  0  0999 V2000
  -28.9520  -23.2300   20.4100 C   0  0  0  0  0  0  0  0  0  0  0  0
  -28.6970  -21.8240   20.1450 N   0  0  0  0  0  0  0  0  0  0  0  0
  -29.9230  -23.5280   21.1090 O   0  0  0  0  0  0  0  0  0  0  0  0
  -27.8000  -21.7020   19.7010 H   0  0  0  0  0  0  0  0  0  0  0  0
  -30.5230  -15.1970   20.3190 C   0  0  0  0  0  0  0  0  0  0  0  0
  -30.4780  -12.7970   19.4140 C   0  0  0  0  0  2  0  0  0  0  0  0
  -29.5530  -12.6610   18.1800 C   0  0  0  0  0  2  0  0  0  0  0  0
  -28.0970  -12.4110   18.6150 C   0  0  0  0  0  2  0  0  0  0  0  0
  -27.6560  -13.3590   19.7600 C   0  0  0  0  0  3  0  0  0  0  0  0
  -28.7050  -13.4460   20.8890 C   0  0  0  0  0  2  0  0  0  0  0  0
  -29.9550  -13.9090   20.2710 N   0  0  0  0  0  0  0  0  0  0  0  0
  -31.7370  -15.2420   20.0850 O   0  0  0  0  0  0  0  0  0  0  0  0
  -29.4600  -20.4550   20.3070 C   0  0  0  0  0  0  0  0  0  0  0  0
  -30.8360  -20.3600   20.3940 C   0  0  0  0  0  0  0  0  0  0  0  0
  -29.9350  -17.9470   20.3720 C   0  0  0  0  0  0  0  0  0  0  0  0
  -28.9930  -19.0180   20.2920 N   0  0  0  0  0  0  0  0  0  0  0  0
  -29.7080  -16.3940   20.4020 N   0  0  0  0  0  0  0  0  0  0  0  0
  -31.6660  -21.4310   20.3740 F   0  0  0  0  0  0  0  0  0  0  0  0
  -31.5320  -18.7150   20.4620 S   0  0  0  0  0  0  0  0  0  0  0  0
  -28.7350  -16.1550   20.4890 H   0  0  0  0  0  0  0  0  0  0  0  0
  -25.2730  -13.9090   20.4980 C   0  0  0  0  0  0  0  0  0  0  0  0
  -24.2150  -13.1240   20.8640 C   0  0  0  0  0  0  0  0  0  0  0  0
  -24.6920  -11.7780   20.8340 C   0  0  0  0  0  0  0  0  0  0  0  0
  -26.3240  -13.0410   20.2600 N   0  0  0  0  0  0  0  0  0  0  0  0
  -25.9850  -11.7540   20.5300 N   0  0  0  0  0  0  0  0  0  0  0  0
  -23.9750  -10.5090   21.0180 C   0  0  0  0  0  0  0  0  0  0  0  0
  -24.3950   -9.5560   21.9710 C   0  0  0  0  0  3  0  0  0  0  0  0
  -23.6750   -8.3530   22.1440 C   0  0  0  0  0  3  0  0  0  0  0  0
  -22.5230   -8.0960   21.3630 C   0  0  0  0  0  0  0  0  0  0  0  0
  -22.1240   -9.0380   20.4000 C   0  0  0  0  0  3  0  0  0  0  0  0
  -22.8430  -10.2320   20.2250 C   0  0  0  0  0  3  0  0  0  0  0  0
  -21.7770   -6.9450   21.4450 O   0  0  0  0  0  0  0  0  0  0  0  0
  -21.6880   -6.2260   22.6100 C   0  0  0  0  0  0  0  0  0  0  0  0
  -21.1670   -6.7880   23.7950 C   0  0  0  0  0  3  0  0  0  0  0  0
  -21.0290   -5.9930   24.9510 C   0  0  0  0  0  3  0  0  0  0  0  0
  -21.4030   -4.6360   24.9210 C   0  0  0  0  0  0  0  0  0  0  0  0
  -21.9160   -4.0730   23.7400 C   0  0  0  0  0  3  0  0  0  0  0  0
  -22.0560   -4.8660   22.5870 C   0  0  0  0  0  0  0  0  0  0  0  0
  -22.5320   -4.3120   21.4460 F   0  0  0  0  0  0  0  0  0  0  0  0
  -21.2630   -3.8700   26.0290 F   0  0  0  0  0  0  0  0  0  0  0  0
  -22.8120  -13.5890   21.1240 C   0  0  0  0  0  0  0  0  0  0  0  0
  -22.0820  -12.8850   21.9800 N   0  0  0  0  0  0  0  0  0  0  0  0
  -22.3730  -14.6150   20.6040 O   0  0  0  0  0  0  0  0  0  0  0  0
  -22.4510  -12.0560   22.4230 H   0  0  0  0  0  0  0  0  0  0  0  0
  -21.1400  -13.1780   22.1970 H   0  0  0  0  0  0  0  0  0  0  0  0
  -25.4220  -15.2810   20.3190 N   0  0  0  0  0  0  0  0  0  0  0  0
  -24.6400  -15.9200   20.4200 H   0  0  0  0  0  0  0  0  0  0  0  0
  -26.2460  -15.7260   19.9350 H   0  0  0  0  0  0  0  0  0  0  0  0
  -28.2110  -24.5770   18.3410 C   0  0  0  0  0  1  0  0  0  0  0  0
  -28.0260  -24.5550   19.8700 C   0  0  0  0  0  3  0  0  0  0  0  0
  -28.2130  -26.0840   20.3170 O   0  0  0  0  0  0  0  0  0  0  0  0
  -24.5730  -31.9100   23.2360 C   0  0  0  0  0  0  0  0  0  0  0  0
  -27.1790  -27.1260   20.2270 C   0  0  0  0  0  0  0  0  0  0  0  0
  -23.3940  -30.5130   21.5890 C   0  0  0  0  0  3  0  0  0  0  0  0
  -24.8570  -28.9320   20.1750 C   0  0  0  0  0  0  0  0  0  0  0  0
  -25.9550  -30.7580   21.4540 C   0  0  0  0  0  2  0  0  0  0  0  0
  -26.0360  -29.3590   20.7980 C   0  0  0  0  0  0  0  0  0  0  0  0
  -27.1940  -28.4740   20.8040 C   0  0  0  0  0  3  0  0  0  0  0  0
  -25.9620  -26.8240   19.5720 C   0  0  0  0  0  3  0  0  0  0  0  0
  -24.8380  -27.6800   19.5450 C   0  0  0  0  0  3  0  0  0  0  0  0
  -23.6310  -29.8360   20.2130 C   0  0  0  0  0  2  0  0  0  0  0  0
  -24.6610  -31.0850   22.1470 N   0  0  0  0  0  0  0  0  0  0  0  0
  -23.4810  -32.1940   23.7510 O   0  0  0  0  0  0  0  0  0  0  0  0
  -22.7020  -29.5090   22.5450 C   0  0  0  0  0  0  0  0  0  0  0  0
  -21.3740  -29.3330   22.4040 N   0  0  0  0  0  0  0  0  0  0  0  0
  -23.3630  -28.8890   23.3810 O   0  0  0  0  0  0  0  0  0  0  0  0
  -20.8950  -29.8850   21.7060 H   0  0  0  0  0  0  0  0  0  0  0  0
  -17.9890  -28.1290   22.8870 C   0  0  0  0  0  0  0  0  0  0  0  0
  -20.5470  -28.3940   23.1670 C   0  0  0  0  0  3  0  0  0  0  0  0
  -20.6520  -26.9630   22.5910 C   0  0  0  0  0  2  0  0  0  0  0  0
  -19.5570  -26.6420   21.5700 C   0  0  0  0  0  2  0  0  0  0  0  0
  -18.1710  -26.7830   22.2050 C   0  0  0  0  0  2  0  0  0  0  0  0
  -19.1050  -28.8920   23.3240 C   0  0  0  0  0  0  0  0  0  0  0  0
  -18.8800  -30.1500   23.9240 C   0  0  0  0  0  3  0  0  0  0  0  0
  -17.5720  -30.6460   24.0890 C   0  0  0  0  0  3  0  0  0  0  0  0
  -16.4710  -29.8800   23.6650 C   0  0  0  0  0  3  0  0  0  0  0  0
  -16.6810  -28.6230   23.0710 C   0  0  0  0  0  3  0  0  0  0  0  0
  -25.8410  -32.5520   23.8780 C   0  0  0  0  0  3  0  0  0  0  0  0
  -25.5270  -33.9560   24.1890 N   0  0  0  0  0  0  0  0  0  0  0  0
  -25.8750  -35.0050   23.4320 C   0  0  0  0  0  0  0  0  0  0  0  0
  -26.5600  -34.8920   22.4110 O   0  0  0  0  0  0  0  0  0  0  0  0
  -24.9180  -34.1180   24.9790 H   0  0  0  0  0  0  0  0  0  0  0  0
  -24.1700  -36.8150   23.0360 C   0  0  0  0  0  1  0  0  0  0  0  0
  -25.3900  -36.4000   23.8750 C   0  0  0  0  0  3  0  0  0  0  0  0
  -27.5080  -37.2800   24.7570 C   0  0  0  0  0  1  0  0  0  0  0  0
  -26.4340  -37.4450   23.7810 N   0  0  0  0  0  0  0  0  0  0  0  0
  -26.0310  -38.3700   23.9080 H   0  0  0  0  0  0  0  0  0  0  0  0
  -26.3240  -31.8000   25.1800 C   0  0  1  0  0  0  0  0  0  0  0  0
  -25.2050  -31.5830   26.2260 C   0  0  0  0  0  1  0  0  0  0  0  0
  -26.9120  -30.4140   24.8300 C   0  0  0  0  0  1  0  0  0  0  0  0
  -27.4620  -32.6020   25.8550 C   0  0  0  0  0  1  0  0  0  0  0  0
  1  3  2  0
  2 13  1  0
  2  1  1  0
  4  2  1  0
  5 17  1  0
  6 11  1  0
  7  8  1  0
  7  6  1  0
  9  8  1  0
  9 24  1  0
  9 10  1  0
 11  5  1  0
 11 10  1  0
 12  5  2  0
 13 14  2  0
 14 19  1  0
 15 17  1  0
 15 19  1  0
 16 13  1  0
 16 15  2  0
 17 20  1  0
 18 14  1  0
 21 22  2  0
 22 41  1  0
 23 22  1  0
 23 26  1  0
 24 21  1  0
 24 25  1  0
 25 23  2  0
 26 27  1  0
 27 28  2  0
 29 32  1  0
 29 28  1  0
 30 29  2  0
 31 30  1  0
 31 26  2  0
 32 33  1  0
 33 34  1  0
 34 35  2  0
 36 35  1  0
 36 40  1  0
 37 36  2  0
 38 33  2  0
 38 37  1  0
 39 38  1  0
 41 42  1  0
 42 45  1  0
 42 44  1  0
 43 41  2  0
 46 47  1  0
 46 21  1  0
 48 46  1  0
 50 49  1  0
 50 51  1  0
 50  1  1  0
 52 63  2  0
 53 51  1  0
 53 58  1  0
 54 62  1  0
 54 64  1  0
 55 61  1  0
 55 57  1  0
 56 62  1  0
 57 58  2  0
 57 56  1  0
 59 53  2  0
 60 59  1  0
 60 55  2  0
 61 54  1  0
 62 52  1  0
 64 66  2  0
 65 64  1  0
 67 65  1  0
 68 77  2  0
 68 73  1  0
 69 65  1  0
 69 73  1  0
 70 69  1  0
 71 72  1  0
 71 70  1  0
 72 68  1  0
 73 74  2  0
 74 75  1  0
 76 75  2  0
 77 76  1  0
 78 52  1  0
 78 79  1  0
 78 88  1  0
 79 82  1  0
 80 84  1  0
 80 79  1  0
 81 80  2  0
 84 83  1  0
 86 84  1  0
 86 87  1  0
 86 85  1  0
 88 91  1  1
 88 89  1  0
 90 88  1  0
M  ISO  4   5 100  17 100  50 101  51 101
M  END
>  <TORSDO>  (17) 
F 17

>  <SCORE>  (17) 
-15.597

>  <name>  (17) 
16

>  <ligand_id>  (17) 
16

>  <original_smiles>  (17) 
[H]c1c([H])c([H])c2c(c1[H])C([H])([H])C([H])([H])C([H])([H])C2([H])N([H])C(=O)C1([H])N(C(=O)C([H])(N([H])C(=O)C([H])(N([H])C([H])([H])[H])C([H])([H])[H])C(C([H])([H])[H])(C([H])([H])[H])C([H])([H])[H])C([H])([H])c2c([H])c(OC([H])(C(=O)N([H])c3nc(N([H])C(=O)N4C([H])([H])C([H])([H])C([H])([H])C([H])(n5nc(-c6c([H])c([H])c(Oc7c([H])c([H])c(F)c([H])c7F)c([H])c6[H])c(C(=O)N([H])[H])c5N([H])[H])C4([H])[H])sc3F)C([H])([H])[H])c([H])c([H])c2C1([H])[H]

>  <smiles>  (17) 
[H]c1c([H])c([H])c2c(c1[H])C([H])([H])C([H])([H])C([H])([H])C2([H])N([H])C(=O)C1([H])N(C(=O)C([H])(N([H])C(=O)C([H])(N([H])C([H])([H])[H])C([H])([H])[H])C(C([H])([H])[H])(C([H])([H])[H])C([H])([H])[H])C([H])([H])c2c([H])c(OC([H])(C(=O)N([H])c3nc(N([H])C(=O)N4C([H])([H])C([H])([H])C([H])([H])C([H])(n5nc(-c6c([H])c([H])c(Oc7c([H])c([H])c(F)c([H])c7F)c([H])c6[H])c(C(=O)N([H])[H])c5N([H])[H])C4([H])[H])sc3F)C([H])([H])[H])c([H])c([H])c2C1([H])[H]

$$$$
17:0:0
     RDKit          3D

 97105  0  0  1  0  0  0  0  0999 V2000
  -29.3490  -22.3800   19.9210 C   0  0  0  0  0  0  0  0  0  0  0  0
  -29.2500  -21.2000   20.6380 N   0  0  0  0  0  0  0  0  0  0  0  0
  -29.5860  -22.3440   18.7120 O   0  0  0  0  0  0  0  0  0  0  0  0
  -28.8760  -21.3270   21.5690 H   0  0  0  0  0  0  0  0  0  0  0  0
  -30.5930  -14.7340   19.9810 C   0  0  0  0  0  0  0  0  0  0  0  0
  -30.3490  -12.4780   18.9290 C   0  0  0  0  0  2  0  0  0  0  0  0
  -29.3300  -12.5860   17.7710 C   0  0  0  0  0  2  0  0  0  0  0  0
  -27.8870  -12.4120   18.2890 C   0  0  0  0  0  2  0  0  0  0  0  0
  -27.6000  -13.2730   19.5480 C   0  0  0  0  0  3  0  0  0  0  0  0
  -28.7250  -13.1290   20.5970 C   0  0  0  0  0  2  0  0  0  0  0  0
  -29.9880  -13.4960   19.9410 N   0  0  0  0  0  0  0  0  0  0  0  0
  -31.7370  -14.8730   19.5380 O   0  0  0  0  0  0  0  0  0  0  0  0
  -30.7480  -19.3780   19.7070 C   0  0  0  0  0  0  0  0  0  0  0  0
  -29.6100  -19.8740   20.3340 C   0  0  0  0  0  3  0  0  0  0  0  0
  -29.9030  -17.2710   20.2690 C   0  0  0  0  0  3  0  0  0  0  0  0
  -30.8760  -17.9530   19.6450 N   0  0  0  0  0  0  0  0  0  0  0  0
  -29.8040  -15.7980   20.3830 N   0  0  0  0  0  0  0  0  0  0  0  0
  -28.7110  -18.4470   20.9330 S   0  0  0  0  0  0  0  0  0  0  0  0
  -28.9280  -15.4910   20.7770 H   0  0  0  0  0  0  0  0  0  0  0  0
  -25.2700  -13.8710   20.4420 C   0  0  0  0  0  0  0  0  0  0  0  0
  -24.2210  -13.0970   20.8600 C   0  0  0  0  0  0  0  0  0  0  0  0
  -24.6660  -11.7420   20.7620 C   0  0  0  0  0  0  0  0  0  0  0  0
  -26.2850  -12.9880   20.1140 N   0  0  0  0  0  0  0  0  0  0  0  0
  -25.9330  -11.7020   20.3680 N   0  0  0  0  0  0  0  0  0  0  0  0
  -23.9390  -10.4830   20.9650 C   0  0  0  0  0  0  0  0  0  0  0  0
  -24.3910   -9.5080   21.8820 C   0  0  0  0  0  3  0  0  0  0  0  0
  -23.6640   -8.3140   22.0730 C   0  0  0  0  0  3  0  0  0  0  0  0
  -22.4720   -8.0830   21.3460 C   0  0  0  0  0  0  0  0  0  0  0  0
  -22.0390   -9.0470   20.4180 C   0  0  0  0  0  3  0  0  0  0  0  0
  -22.7660  -10.2330   20.2250 C   0  0  0  0  0  3  0  0  0  0  0  0
  -21.7140   -6.9410   21.4470 O   0  0  0  0  0  0  0  0  0  0  0  0
  -21.6610   -6.2140   22.6080 C   0  0  0  0  0  0  0  0  0  0  0  0
  -21.1910   -6.7750   23.8170 C   0  0  0  0  0  3  0  0  0  0  0  0
  -21.0870   -5.9730   24.9710 C   0  0  0  0  0  3  0  0  0  0  0  0
  -21.4410   -4.6120   24.9170 C   0  0  0  0  0  0  0  0  0  0  0  0
  -21.9040   -4.0500   23.7150 C   0  0  0  0  0  3  0  0  0  0  0  0
  -22.0100   -4.8500   22.5620 C   0  0  0  0  0  0  0  0  0  0  0  0
  -22.4360   -4.3000   21.3990 F   0  0  0  0  0  0  0  0  0  0  0  0
  -21.3340   -3.8380   26.0230 F   0  0  0  0  0  0  0  0  0  0  0  0
  -22.8490  -13.5790   21.2340 C   0  0  0  0  0  0  0  0  0  0  0  0
  -22.1710  -12.8670   22.1270 N   0  0  0  0  0  0  0  0  0  0  0  0
  -22.3900  -14.6220   20.7710 O   0  0  0  0  0  0  0  0  0  0  0  0
  -22.5550  -12.0200   22.5200 H   0  0  0  0  0  0  0  0  0  0  0  0
  -21.2540  -13.1720   22.4200 H   0  0  0  0  0  0  0  0  0  0  0  0
  -25.4350  -15.2450   20.2890 N   0  0  0  0  0  0  0  0  0  0  0  0
  -24.6750  -15.8950   20.4560 H   0  0  0  0  0  0  0  0  0  0  0  0
  -26.2380  -15.6830   19.8570 H   0  0  0  0  0  0  0  0  0  0  0  0
  -31.7310  -20.1740   19.2240 O   0  0  0  0  0  0  0  0  0  0  0  0
  -33.0560  -19.6490   19.2670 C   0  0  0  0  0  2  0  0  0  0  0  0
  -33.6940  -21.2390   21.1340 C   0  0  0  0  0  1  0  0  0  0  0  0
  -35.4780  -20.3020   19.6100 C   0  0  0  0  0  1  0  0  0  0  0  0
  -34.0160  -20.7630   19.7070 C   0  0  0  0  0  3  0  0  0  0  0  0
  -30.6040  -24.4310   20.7110 C   0  0  0  0  0  1  0  0  0  0  0  0
  -28.6350  -23.6610   22.0470 C   0  0  0  0  0  1  0  0  0  0  0  0
  -29.1850  -23.8360   20.6150 C   0  0  2  0  0  0  0  0  0  0  0  0
  -28.2860  -24.9580   19.8680 C   0  0  0  0  0  2  0  0  0  0  0  0
  -28.3800  -26.4080   20.2690 O   0  0  0  0  0  0  0  0  0  0  0  0
  -24.6390  -31.8460   23.2440 C   0  0  0  0  0  0  0  0  0  0  0  0
  -27.2700  -27.2800   20.1770 C   0  0  0  0  0  0  0  0  0  0  0  0
  -23.4490  -30.4640   21.5810 C   0  0  0  0  0  3  0  0  0  0  0  0
  -24.9120  -28.9250   20.1490 C   0  0  0  0  0  0  0  0  0  0  0  0
  -25.9940  -30.7710   21.4290 C   0  0  0  0  0  2  0  0  0  0  0  0
  -26.0750  -29.3960   20.7700 C   0  0  0  0  0  0  0  0  0  0  0  0
  -27.2520  -28.5830   20.7770 C   0  0  0  0  0  3  0  0  0  0  0  0
  -26.0900  -26.8870   19.5050 C   0  0  0  0  0  3  0  0  0  0  0  0
  -24.9260  -27.6790   19.5040 C   0  0  0  0  0  3  0  0  0  0  0  0
  -23.6740  -29.8000   20.1960 C   0  0  0  0  0  2  0  0  0  0  0  0
  -24.7130  -31.0450   22.1410 N   0  0  0  0  0  0  0  0  0  0  0  0
  -23.5490  -32.1210   23.7690 O   0  0  0  0  0  0  0  0  0  0  0  0
  -22.7760  -29.4390   22.5260 C   0  0  0  0  0  0  0  0  0  0  0  0
  -21.4510  -29.2600   22.3840 N   0  0  0  0  0  0  0  0  0  0  0  0
  -23.4470  -28.8110   23.3490 O   0  0  0  0  0  0  0  0  0  0  0  0
  -20.9690  -29.8220   21.6970 H   0  0  0  0  0  0  0  0  0  0  0  0
  -18.0720  -28.0510   22.8360 C   0  0  0  0  0  0  0  0  0  0  0  0
  -20.6260  -28.3140   23.1390 C   0  0  0  0  0  3  0  0  0  0  0  0
  -20.7390  -26.8870   22.5550 C   0  0  0  0  0  2  0  0  0  0  0  0
  -19.6490  -26.5680   21.5270 C   0  0  0  0  0  2  0  0  0  0  0  0
  -18.2600  -26.7070   22.1530 C   0  0  0  0  0  2  0  0  0  0  0  0
  -19.1830  -28.8120   23.2860 C   0  0  0  0  0  0  0  0  0  0  0  0
  -18.9540  -30.0700   23.8830 C   0  0  0  0  0  3  0  0  0  0  0  0
  -17.6460  -30.5670   24.0360 C   0  0  0  0  0  3  0  0  0  0  0  0
  -16.5490  -29.8020   23.6040 C   0  0  0  0  0  3  0  0  0  0  0  0
  -16.7630  -28.5460   23.0090 C   0  0  0  0  0  3  0  0  0  0  0  0
  -25.9150  -32.4740   23.8830 C   0  0  0  0  0  3  0  0  0  0  0  0
  -25.6090  -33.8750   24.2060 N   0  0  0  0  0  0  0  0  0  0  0  0
  -25.9300  -34.9230   23.4360 C   0  0  0  0  0  0  0  0  0  0  0  0
  -26.5870  -34.8120   22.3970 O   0  0  0  0  0  0  0  0  0  0  0  0
  -25.0290  -34.0360   25.0160 H   0  0  0  0  0  0  0  0  0  0  0  0
  -24.1890  -36.7070   23.1050 C   0  0  0  0  0  1  0  0  0  0  0  0
  -25.4510  -36.3160   23.8900 C   0  0  0  0  0  3  0  0  0  0  0  0
  -27.5970  -37.2240   24.6630 C   0  0  0  0  0  1  0  0  0  0  0  0
  -26.4760  -37.3720   23.7370 N   0  0  0  0  0  0  0  0  0  0  0  0
  -26.0700  -38.2920   23.8780 H   0  0  0  0  0  0  0  0  0  0  0  0
  -26.4070  -31.7050   25.1710 C   0  0  1  0  0  0  0  0  0  0  0  0
  -25.2940  -31.4740   26.2200 C   0  0  0  0  0  1  0  0  0  0  0  0
  -26.9940  -30.3250   24.7930 C   0  0  0  0  0  1  0  0  0  0  0  0
  -27.5480  -32.4980   25.8500 C   0  0  0  0  0  1  0  0  0  0  0  0
  1 55  1  0
  1  2  1  0
  2  4  1  0
  3  1  2  0
  5 17  1  0
  6 11  1  0
  7  8  1  0
  7  6  1  0
  9  8  1  0
  9 23  1  0
  9 10  1  0
 11  5  1  0
 11 10  1  0
 12  5  2  0
 13 14  1  0
 14  2  1  0
 14 18  1  0
 15 17  1  0
 15 18  1  0
 16 13  2  0
 16 15  1  0
 17 19  1  0
 20 21  2  0
 21 40  1  0
 22 21  1  0
 22 25  1  0
 23 24  1  0
 23 20  1  0
 24 22  2  0
 25 26  1  0
 26 27  2  0
 28 31  1  0
 28 27  1  0
 29 28  2  0
 30 29  1  0
 30 25  2  0
 31 32  1  0
 32 33  1  0
 33 34  2  0
 35 34  1  0
 35 39  1  0
 36 35  2  0
 37 32  2  0
 37 36  1  0
 38 37  1  0
 40 41  1  0
 41 44  1  0
 41 43  1  0
 42 40  2  0
 45 20  1  0
 45 46  1  0
 47 45  1  0
 48 49  1  0
 48 13  1  0
 49 52  1  0
 51 52  1  0
 52 50  1  0
 55 53  1  1
 55 54  1  0
 56 57  1  0
 56 55  1  0
 58 69  2  0
 59 57  1  0
 59 64  1  0
 60 68  1  0
 60 70  1  0
 61 67  1  0
 61 63  1  0
 62 68  1  0
 63 64  2  0
 63 62  1  0
 65 59  2  0
 66 65  1  0
 66 61  2  0
 67 60  1  0
 68 58  1  0
 70 72  2  0
 71 70  1  0
 73 71  1  0
 74 83  2  0
 74 79  1  0
 75 71  1  0
 75 79  1  0
 76 75  1  0
 77 78  1  0
 77 76  1  0
 78 74  1  0
 79 80  2  0
 80 81  1  0
 82 81  2  0
 83 82  1  0
 84 58  1  0
 84 85  1  0
 84 94  1  0
 85 88  1  0
 86 90  1  0
 86 85  1  0
 87 86  2  0
 90 89  1  0
 92 93  1  0
 92 90  1  0
 92 91  1  0
 94 97  1  1
 94 95  1  0
 96 94  1  0
M  ISO  4   5 100  17 100  56 101  57 101
M  END
>  <TORSDO>  (18) 
F 21

>  <SCORE>  (18) 
-13.238

>  <name>  (18) 
17

>  <ligand_id>  (18) 
17

>  <original_smiles>  (18) 
[H]c1c([H])c([H])c2c(c1[H])C([H])([H])C([H])([H])C([H])([H])C2([H])N([H])C(=O)C1([H])N(C(=O)C([H])(N([H])C(=O)C([H])(N([H])C([H])([H])[H])C([H])([H])[H])C(C([H])([H])[H])(C([H])([H])[H])C([H])([H])[H])C([H])([H])c2c([H])c(OC([H])([H])C(C(=O)N([H])c3sc(N([H])C(=O)N4C([H])([H])C([H])([H])C([H])([H])C([H])(n5nc(-c6c([H])c([H])c(Oc7c([H])c([H])c(F)c([H])c7F)c([H])c6[H])c(C(=O)N([H])[H])c5N([H])[H])C4([H])[H])nc3OC([H])([H])C([H])(C([H])([H])[H])C([H])([H])[H])(C([H])([H])[H])C([H])([H])[H])c([H])c([H])c2C1([H])[H]

>  <smiles>  (18) 
[H]c1c([H])c([H])c2c(c1[H])C([H])([H])C([H])([H])C([H])([H])C2([H])N([H])C(=O)C1([H])N(C(=O)C([H])(N([H])C(=O)C([H])(N([H])C([H])([H])[H])C([H])([H])[H])C(C([H])([H])[H])(C([H])([H])[H])C([H])([H])[H])C([H])([H])c2c([H])c(OC([H])([H])C(C(=O)N([H])c3sc(N([H])C(=O)N4C([H])([H])C([H])([H])C([H])([H])C([H])(n5nc(-c6c([H])c([H])c(Oc7c([H])c([H])c(F)c([H])c7F)c([H])c6[H])c(C(=O)N([H])[H])c5N([H])[H])C4([H])[H])nc3OC([H])([H])C([H])(C([H])([H])[H])C([H])([H])[H])(C([H])([H])[H])C([H])([H])[H])c([H])c([H])c2C1([H])[H]

$$$$
18:0:0
     RDKit          3D

 98106  0  0  1  0  0  0  0  0999 V2000
  -30.0500  -21.8200   20.2120 N   0  0  0  0  0  4  0  0  0  0  0  0
  -30.2070  -22.2780   19.3220 H   0  0  0  0  0  0  0  0  0  0  0  0
  -30.9630  -21.7150   20.6160 H   0  0  0  0  0  0  0  0  0  0  0  0
  -29.4550  -20.4790   19.9010 C   0  0  0  0  0  3  0  0  0  0  0  0
  -30.8090  -14.6100   21.0390 C   0  0  0  0  0  0  0  0  0  0  0  0
  -30.6560  -12.3420   20.0730 C   0  0  0  0  0  2  0  0  0  0  0  0
  -29.8490  -12.4220   18.7600 C   0  0  0  0  0  2  0  0  0  0  0  0
  -28.3410  -12.2710   19.0440 C   0  0  0  0  0  2  0  0  0  0  0  0
  -27.8500  -13.2020   20.1860 C   0  0  0  0  0  3  0  0  0  0  0  0
  -28.7910  -13.1340   21.4120 C   0  0  0  0  0  2  0  0  0  0  0  0
  -30.1590  -13.4140   20.9520 N   0  0  0  0  0  0  0  0  0  0  0  0
  -32.0140  -14.7030   20.7870 O   0  0  0  0  0  0  0  0  0  0  0  0
  -30.1060  -19.2600   20.5540 C   0  0  0  0  0  3  0  0  0  0  0  0
  -30.4020  -17.0910   21.0890 C   0  0  0  0  0  0  0  0  0  0  0  0
  -29.5430  -18.0320   20.6160 N   0  0  0  0  0  0  0  0  0  0  0  0
  -31.6110  -17.5190   21.4980 N   0  0  0  0  0  2  0  0  0  0  0  0
  -30.0210  -15.7090   21.1670 N   0  0  0  0  0  0  0  0  0  0  0  0
  -31.7210  -19.1860   21.2290 S   0  0  0  0  0  0  0  0  0  0  0  0
  -29.0310  -15.5340   21.2090 H   0  0  0  0  0  0  0  0  0  0  0  0
  -25.3910  -13.8020   20.6410 C   0  0  0  0  0  0  0  0  0  0  0  0
  -24.2990  -13.0300   20.9340 C   0  0  0  0  0  0  0  0  0  0  0  0
  -24.7720  -11.6840   21.0000 C   0  0  0  0  0  0  0  0  0  0  0  0
  -26.4610  -12.9270   20.5470 N   0  0  0  0  0  0  0  0  0  0  0  0
  -26.0870  -11.6500   20.8220 N   0  0  0  0  0  0  0  0  0  0  0  0
  -24.0400  -10.4210   21.1620 C   0  0  0  0  0  0  0  0  0  0  0  0
  -24.4030   -9.4760   22.1450 C   0  0  0  0  0  3  0  0  0  0  0  0
  -23.6740   -8.2770   22.2940 C   0  0  0  0  0  3  0  0  0  0  0  0
  -22.5640   -8.0150   21.4550 C   0  0  0  0  0  0  0  0  0  0  0  0
  -22.2190   -8.9480   20.4610 C   0  0  0  0  0  3  0  0  0  0  0  0
  -22.9500  -10.1390   20.3110 C   0  0  0  0  0  3  0  0  0  0  0  0
  -21.8090   -6.8680   21.5120 O   0  0  0  0  0  0  0  0  0  0  0  0
  -21.6990   -6.1330   22.6640 C   0  0  0  0  0  0  0  0  0  0  0  0
  -21.1980   -6.6920   23.8620 C   0  0  0  0  0  3  0  0  0  0  0  0
  -21.0390   -5.8830   25.0030 C   0  0  0  0  0  3  0  0  0  0  0  0
  -21.3700   -4.5150   24.9500 C   0  0  0  0  0  0  0  0  0  0  0  0
  -21.8630   -3.9560   23.7590 C   0  0  0  0  0  3  0  0  0  0  0  0
  -22.0240   -4.7620   22.6190 C   0  0  0  0  0  0  0  0  0  0  0  0
  -22.4820   -4.2120   21.4680 F   0  0  0  0  0  0  0  0  0  0  0  0
  -21.2100   -3.7370   26.0450 F   0  0  0  0  0  0  0  0  0  0  0  0
  -22.8760  -13.5000   21.0450 C   0  0  0  0  0  0  0  0  0  0  0  0
  -22.0700  -12.8340   21.8660 N   0  0  0  0  0  0  0  0  0  0  0  0
  -22.4840  -14.4950   20.4380 O   0  0  0  0  0  0  0  0  0  0  0  0
  -22.3920  -12.0290   22.3810 H   0  0  0  0  0  0  0  0  0  0  0  0
  -21.1120  -13.1370   21.9790 H   0  0  0  0  0  0  0  0  0  0  0  0
  -25.5570  -15.1680   20.4220 N   0  0  0  0  0  0  0  0  0  0  0  0
  -24.7650  -15.8010   20.4090 H   0  0  0  0  0  0  0  0  0  0  0  0
  -26.4140  -15.6040   20.1080 H   0  0  0  0  0  0  0  0  0  0  0  0
  -29.7750  -20.2790   18.4070 C   0  0  0  0  0  0  0  0  0  0  0  0
  -30.9320  -20.1670   17.9860 O   0  0  0  0  0  0  0  0  0  0  0  0
  -29.0500  -20.2830   15.9440 C   0  0  0  0  0  1  0  0  0  0  0  0
  -28.6050  -20.3270   17.4200 C   0  0  0  0  0  2  0  0  0  0  0  0
  -29.2510  -22.8130   20.9930 C   0  0  0  0  0  3  0  0  0  0  0  0
  -29.2350  -24.1590   20.1780 C   0  0  0  0  0  0  0  0  0  0  0  0
  -30.0320  -24.3580   19.2530 O   0  0  0  0  0  0  0  0  0  0  0  0
  -28.1570  -25.2290   20.5220 C   0  0  0  0  0  2  0  0  0  0  0  0
  -28.3740  -26.5480   19.9390 O   0  0  0  0  0  0  0  0  0  0  0  0
  -24.5630  -31.7230   23.1160 C   0  0  0  0  0  0  0  0  0  0  0  0
  -27.2360  -27.3410   19.9340 C   0  0  0  0  0  0  0  0  0  0  0  0
  -23.3680  -30.3380   21.4550 C   0  0  0  0  0  3  0  0  0  0  0  0
  -24.8320  -28.8510   19.9900 C   0  0  0  0  0  0  0  0  0  0  0  0
  -25.8930  -30.7230   21.2550 C   0  0  0  0  0  2  0  0  0  0  0  0
  -25.9910  -29.3650   20.5830 C   0  0  0  0  0  0  0  0  0  0  0  0
  -27.2010  -28.6200   20.5500 C   0  0  0  0  0  3  0  0  0  0  0  0
  -26.0610  -26.8690   19.3080 C   0  0  0  0  0  3  0  0  0  0  0  0
  -24.8640  -27.6050   19.3440 C   0  0  0  0  0  3  0  0  0  0  0  0
  -23.5790  -29.6950   20.0610 C   0  0  0  0  0  2  0  0  0  0  0  0
  -24.6270  -30.9430   21.9990 N   0  0  0  0  0  0  0  0  0  0  0  0
  -23.4800  -31.9690   23.6670 O   0  0  0  0  0  0  0  0  0  0  0  0
  -22.7330  -29.2880   22.3990 C   0  0  0  0  0  0  0  0  0  0  0  0
  -21.4110  -29.0860   22.2710 N   0  0  0  0  0  0  0  0  0  0  0  0
  -23.4290  -28.6620   23.2010 O   0  0  0  0  0  0  0  0  0  0  0  0
  -20.9110  -29.6450   21.5950 H   0  0  0  0  0  0  0  0  0  0  0  0
  -18.0590  -27.8180   22.7520 C   0  0  0  0  0  0  0  0  0  0  0  0
  -20.6120  -28.1220   23.0280 C   0  0  0  0  0  3  0  0  0  0  0  0
  -20.7430  -26.7010   22.4320 C   0  0  0  0  0  2  0  0  0  0  0  0
  -19.6480  -26.3710   21.4140 C   0  0  0  0  0  2  0  0  0  0  0  0
  -18.2630  -26.4810   22.0580 C   0  0  0  0  0  2  0  0  0  0  0  0
  -19.1640  -28.5950   23.1940 C   0  0  0  0  0  0  0  0  0  0  0  0
  -18.9180  -29.8450   23.8020 C   0  0  0  0  0  3  0  0  0  0  0  0
  -17.6050  -30.3180   23.9740 C   0  0  0  0  0  3  0  0  0  0  0  0
  -16.5160  -29.5380   23.5480 C   0  0  0  0  0  3  0  0  0  0  0  0
  -16.7440  -28.2910   22.9410 C   0  0  0  0  0  3  0  0  0  0  0  0
  -25.8420  -32.3620   23.7400 C   0  0  0  0  0  3  0  0  0  0  0  0
  -26.3840  -31.5700   24.9910 C   0  0  1  0  0  0  0  0  0  0  0  0
  -25.3070  -31.2930   26.0660 C   0  0  0  0  0  1  0  0  0  0  0  0
  -26.9800  -30.2090   24.5600 C   0  0  0  0  0  1  0  0  0  0  0  0
  -27.5300  -32.3650   25.6580 C   0  0  0  0  0  1  0  0  0  0  0  0
  -25.5120  -33.7460   24.1050 N   0  0  0  0  0  0  0  0  0  0  0  0
  -25.8340  -34.8230   23.3760 C   0  0  0  0  0  0  0  0  0  0  0  0
  -26.5110  -34.7560   22.3460 O   0  0  0  0  0  0  0  0  0  0  0  0
  -24.9130  -33.8700   24.9070 H   0  0  0  0  0  0  0  0  0  0  0  0
  -24.0940  -36.6080   23.0440 C   0  0  0  0  0  1  0  0  0  0  0  0
  -25.3240  -36.1920   23.8660 C   0  0  0  0  0  3  0  0  0  0  0  0
  -27.4340  -37.0700   24.7640 C   0  0  0  0  0  1  0  0  0  0  0  0
  -26.3470  -37.2580   23.8070 N   0  0  0  0  0  0  0  0  0  0  0  0
  -25.9300  -38.1680   23.9750 H   0  0  0  0  0  0  0  0  0  0  0  0
  -29.1260  -23.8420   23.4170 C   0  0  0  0  0  1  0  0  0  0  0  0
  -29.8940  -22.9800   22.4000 C   0  0  0  0  0  2  0  0  0  0  0  0
  1  3  1  0
  1 52  1  0
  2  1  1  0
  4 48  1  0
  4  1  1  0
  5 17  1  0
  6 11  1  0
  7  8  1  0
  7  6  1  0
  9  8  1  0
  9 23  1  0
  9 10  1  0
 11  5  1  0
 11 10  1  0
 12  5  2  0
 13  4  1  0
 13 15  1  0
 13 18  1  0
 14 17  1  0
 14 16  1  0
 15 14  2  0
 17 19  1  0
 18 16  1  0
 20 21  2  0
 21 22  1  0
 21 40  1  0
 22 25  1  0
 23 20  1  0
 23 24  1  0
 24 22  2  0
 25 26  1  0
 26 27  2  0
 28 31  1  0
 28 27  1  0
 29 28  2  0
 30 29  1  0
 30 25  2  0
 31 32  1  0
 32 33  1  0
 33 34  2  0
 35 34  1  0
 35 39  1  0
 36 35  2  0
 37 32  2  0
 37 36  1  0
 38 37  1  0
 40 41  1  0
 41 44  1  0
 41 43  1  0
 42 40  2  0
 45 20  1  0
 46 45  1  0
 47 45  1  0
 49 48  2  0
 50 51  1  0
 51 48  1  0
 52 98  1  0
 53 55  1  0
 53 52  1  0
 54 53  2  0
 56 55  1  0
 57 68  2  0
 58 56  1  0
 58 63  1  0
 59 67  1  0
 59 69  1  0
 60 66  1  0
 60 62  1  0
 61 67  1  0
 62 61  1  0
 63 62  2  0
 64 65  1  0
 64 58  2  0
 65 60  2  0
 66 59  1  0
 67 57  1  0
 69 71  2  0
 70 69  1  0
 72 70  1  0
 73 82  2  0
 73 78  1  0
 74 70  1  0
 74 78  1  0
 75 74  1  0
 76 77  1  0
 76 75  1  0
 77 73  1  0
 78 79  2  0
 79 80  1  0
 81 80  2  0
 82 81  1  0
 83 57  1  0
 83 88  1  0
 83 84  1  0
 84 87  1  1
 84 85  1  0
 86 84  1  0
 88 91  1  0
 89 93  1  0
 89 88  1  0
 90 89  2  0
 93 92  1  0
 95 93  1  0
 95 96  1  0
 95 94  1  0
 98 97  1  0
M  ISO  4   5 100  17 100  55 101  56 101
M  END
>  <TORSDO>  (19) 
F 23

>  <SCORE>  (19) 
-12.470

>  <name>  (19) 
18

>  <ligand_id>  (19) 
18

>  <original_smiles>  (19) 
[H]c1c([H])c([H])c2c(c1[H])C([H])([H])C([H])([H])C([H])([H])C2([H])N([H])C(=O)C1([H])N(C(=O)C([H])(N([H])C(=O)C([H])(N([H])C([H])([H])[H])C([H])([H])[H])C(C([H])([H])[H])(C([H])([H])[H])C([H])([H])[H])C([H])([H])c2c([H])c(OC([H])([H])C(=O)C([H])(C([H])([H])C([H])([H])[H])[N+]([H])([H])C([H])(C(=O)C([H])([H])C([H])([H])[H])c3nc(N([H])C(=O)N4C([H])([H])C([H])([H])C([H])([H])C([H])(n5nc(-c6c([H])c([H])c(Oc7c([H])c([H])c(F)c([H])c7F)c([H])c6[H])c(C(=O)N([H])[H])c5N([H])[H])C4([H])[H])ns3)c([H])c([H])c2C1([H])[H]

>  <smiles>  (19) 
[H]c1c([H])c([H])c2c(c1[H])C([H])([H])C([H])([H])C([H])([H])C2([H])N([H])C(=O)C1([H])N(C(=O)C([H])(N([H])C(=O)C([H])(N([H])C([H])([H])[H])C([H])([H])[H])C(C([H])([H])[H])(C([H])([H])[H])C([H])([H])[H])C([H])([H])c2c([H])c(OC([H])([H])C(=O)C([H])(C([H])([H])C([H])([H])[H])[N+]([H])([H])C([H])(C(=O)C([H])([H])C([H])([H])[H])c3nc(N([H])C(=O)N4C([H])([H])C([H])([H])C([H])([H])C([H])(n5nc(-c6c([H])c([H])c(Oc7c([H])c([H])c(F)c([H])c7F)c([H])c6[H])c(C(=O)N([H])[H])c5N([H])[H])C4([H])[H])ns3)c([H])c([H])c2C1([H])[H]

$$$$
19:0:0
     RDKit          3D

 99107  0  0  1  0  0  0  0  0999 V2000
  -28.8230  -20.7720   19.6340 C   0  0  0  0  0  0  0  0  0  0  0  0
  -28.8920  -22.1010   19.9200 N   0  0  0  0  0  0  0  0  0  0  0  0
  -28.0060  -20.3400   18.8150 O   0  0  0  0  0  0  0  0  0  0  0  0
  -29.5710  -22.3850   20.6110 H   0  0  0  0  0  0  0  0  0  0  0  0
  -30.7590  -15.2270   21.5670 C   0  0  0  0  0  0  0  0  0  0  0  0
  -30.8450  -12.8630   20.8460 C   0  0  0  0  0  2  0  0  0  0  0  0
  -30.2170  -12.7730   19.4370 C   0  0  0  0  0  2  0  0  0  0  0  0
  -28.6910  -12.5830   19.5360 C   0  0  0  0  0  2  0  0  0  0  0  0
  -28.0210  -13.5990   20.5000 C   0  0  0  0  0  3  0  0  0  0  0  0
  -28.7850  -13.6820   21.8430 C   0  0  0  0  0  2  0  0  0  0  0  0
  -30.1920  -13.9850   21.5390 N   0  0  0  0  0  0  0  0  0  0  0  0
  -31.9780  -15.3910   21.4820 O   0  0  0  0  0  0  0  0  0  0  0  0
  -29.6650  -19.7940   20.4490 C   0  0  0  0  0  0  0  0  0  0  0  0
  -30.8800  -20.0310   21.0770 C   0  0  0  0  0  0  0  0  0  0  0  0
  -30.1560  -17.6500   21.2180 C   0  0  0  0  0  0  0  0  0  0  0  0
  -29.2750  -18.4310   20.5710 N   0  0  0  0  0  0  0  0  0  0  0  0
  -29.8870  -16.2550   21.4360 N   0  0  0  0  0  0  0  0  0  0  0  0
  -31.5610  -18.5610   21.7670 S   0  0  0  0  0  0  0  0  0  0  0  0
  -28.9200  -15.9850   21.3730 H   0  0  0  0  0  0  0  0  0  0  0  0
  -25.5180  -14.1630   20.6680 C   0  0  0  0  0  0  0  0  0  0  0  0
  -24.4110  -13.3760   20.8310 C   0  0  0  0  0  0  0  0  0  0  0  0
  -24.8940  -12.0360   20.9510 C   0  0  0  0  0  0  0  0  0  0  0  0
  -26.6050  -13.3030   20.6960 N   0  0  0  0  0  0  0  0  0  0  0  0
  -26.2210  -12.0210   20.9230 N   0  0  0  0  0  0  0  0  0  0  0  0
  -24.1670  -10.7620   21.0230 C   0  0  0  0  0  0  0  0  0  0  0  0
  -24.4580   -9.8030   22.0180 C   0  0  0  0  0  3  0  0  0  0  0  0
  -23.7330   -8.5940   22.0810 C   0  0  0  0  0  3  0  0  0  0  0  0
  -22.7040   -8.3340   21.1450 C   0  0  0  0  0  0  0  0  0  0  0  0
  -22.4320   -9.2830   20.1440 C   0  0  0  0  0  3  0  0  0  0  0  0
  -23.1580  -10.4840   20.0790 C   0  0  0  0  0  3  0  0  0  0  0  0
  -21.9650   -7.1780   21.1120 O   0  0  0  0  0  0  0  0  0  0  0  0
  -21.7940   -6.4000   22.2300 C   0  0  0  0  0  0  0  0  0  0  0  0
  -21.2390   -6.9180   23.4210 C   0  0  0  0  0  3  0  0  0  0  0  0
  -21.0170   -6.0690   24.5220 C   0  0  0  0  0  3  0  0  0  0  0  0
  -21.3410   -4.7000   24.4340 C   0  0  0  0  0  0  0  0  0  0  0  0
  -21.8900   -4.1820   23.2480 C   0  0  0  0  0  3  0  0  0  0  0  0
  -22.1130   -5.0310   22.1480 C   0  0  0  0  0  0  0  0  0  0  0  0
  -22.6230   -4.5200   21.0010 F   0  0  0  0  0  0  0  0  0  0  0  0
  -21.1220   -3.8820   25.4890 F   0  0  0  0  0  0  0  0  0  0  0  0
  -22.9780  -13.8250   20.7820 C   0  0  0  0  0  0  0  0  0  0  0  0
  -22.0980  -13.1450   21.5080 N   0  0  0  0  0  0  0  0  0  0  0  0
  -22.6390  -14.8140   20.1350 O   0  0  0  0  0  0  0  0  0  0  0  0
  -22.3830  -12.3470   22.0560 H   0  0  0  0  0  0  0  0  0  0  0  0
  -21.1270  -13.4280   21.5190 H   0  0  0  0  0  0  0  0  0  0  0  0
  -25.6890  -15.5310   20.4850 N   0  0  0  0  0  0  0  0  0  0  0  0
  -24.8950  -16.1550   20.3950 H   0  0  0  0  0  0  0  0  0  0  0  0
  -26.5740  -15.9930   20.3100 H   0  0  0  0  0  0  0  0  0  0  0  0
  -31.6220  -21.2090   21.1960 N   0  0  0  0  0  0  0  0  0  0  0  0
  -31.4620  -22.0560   20.6570 H   0  0  0  0  0  0  0  0  0  0  0  0
  -32.4960  -21.2480   21.7110 H   0  0  0  0  0  0  0  0  0  0  0  0
  -27.8440  -23.0940   19.5300 C   0  0  0  0  0  3  0  0  0  0  0  0
  -26.9920  -23.4830   20.7740 C   0  0  0  0  0  0  0  0  0  0  0  0
  -26.3930  -24.5540   20.8980 O   0  0  0  0  0  0  0  0  0  0  0  0
  -25.6590  -22.6020   22.8350 C   0  0  0  0  0  1  0  0  0  0  0  0
  -26.8400  -22.4060   21.8690 C   0  0  0  0  0  2  0  0  0  0  0  0
  -29.2770  -23.8160   17.4870 C   0  0  0  0  0  1  0  0  0  0  0  0
  -28.3160  -24.3060   18.5870 C   0  0  0  0  0  3  0  0  0  0  0  0
  -28.8080  -25.6950   19.1700 C   0  0  0  0  0  2  0  0  0  0  0  0
  -28.5150  -26.8970   18.3860 O   0  0  0  0  0  0  0  0  0  0  0  0
  -24.8740  -31.3110   22.7320 C   0  0  0  0  0  0  0  0  0  0  0  0
  -27.3400  -27.5940   18.6530 C   0  0  0  0  0  0  0  0  0  0  0  0
  -23.5610  -30.1830   20.9690 C   0  0  0  0  0  3  0  0  0  0  0  0
  -24.9190  -29.0010   19.1590 C   0  0  0  0  0  0  0  0  0  0  0  0
  -26.0510  -30.6760   20.6200 C   0  0  0  0  0  2  0  0  0  0  0  0
  -26.1170  -29.4470   19.7320 C   0  0  0  0  0  0  0  0  0  0  0  0
  -27.3310  -28.7540   19.4740 C   0  0  0  0  0  3  0  0  0  0  0  0
  -26.1240  -27.1920   18.0620 C   0  0  0  0  0  3  0  0  0  0  0  0
  -24.9190  -27.8750   18.3200 C   0  0  0  0  0  3  0  0  0  0  0  0
  -23.6600  -29.7810   19.4730 C   0  0  0  0  0  2  0  0  0  0  0  0
  -24.8520  -30.7310   21.4980 N   0  0  0  0  0  0  0  0  0  0  0  0
  -23.8410  -31.4260   23.4070 O   0  0  0  0  0  0  0  0  0  0  0  0
  -23.0360  -28.9700   21.7740 C   0  0  0  0  0  0  0  0  0  0  0  0
  -21.7150  -28.7320   21.7070 N   0  0  0  0  0  0  0  0  0  0  0  0
  -23.8100  -28.2550   22.4150 O   0  0  0  0  0  0  0  0  0  0  0  0
  -21.1470  -29.3700   21.1700 H   0  0  0  0  0  0  0  0  0  0  0  0
  -18.4630  -27.2210   22.1560 C   0  0  0  0  0  0  0  0  0  0  0  0
  -21.0090  -27.6230   22.3480 C   0  0  0  0  0  3  0  0  0  0  0  0
  -21.1730  -26.3140   21.5410 C   0  0  0  0  0  2  0  0  0  0  0  0
  -20.0390  -26.0780   20.5390 C   0  0  0  0  0  2  0  0  0  0  0  0
  -18.6900  -26.0140   21.2610 C   0  0  0  0  0  2  0  0  0  0  0  0
  -19.5510  -27.9860   22.6520 C   0  0  0  0  0  0  0  0  0  0  0  0
  -19.2830  -29.1180   23.4510 C   0  0  0  0  0  3  0  0  0  0  0  0
  -17.9590  -29.4880   23.7570 C   0  0  0  0  0  3  0  0  0  0  0  0
  -16.8870  -28.7180   23.2740 C   0  0  0  0  0  3  0  0  0  0  0  0
  -17.1390  -27.5860   22.4790 C   0  0  0  0  0  3  0  0  0  0  0  0
  -26.1920  -31.8790   23.3450 C   0  0  0  0  0  3  0  0  0  0  0  0
  -25.8510  -33.1170   24.0590 N   0  0  0  0  0  0  0  0  0  0  0  0
  -26.0580  -34.3530   23.5840 C   0  0  0  0  0  0  0  0  0  0  0  0
  -26.6280  -34.5700   22.5120 O   0  0  0  0  0  0  0  0  0  0  0  0
  -25.3280  -33.0120   24.9170 H   0  0  0  0  0  0  0  0  0  0  0  0
  -24.2230  -36.0510   23.8570 C   0  0  0  0  0  1  0  0  0  0  0  0
  -25.5520  -35.5360   24.4320 C   0  0  0  0  0  3  0  0  0  0  0  0
  -27.7140  -36.3180   25.2970 C   0  0  0  0  0  1  0  0  0  0  0  0
  -26.5200  -36.6500   24.5240 N   0  0  0  0  0  0  0  0  0  0  0  0
  -26.0880  -37.4710   24.9410 H   0  0  0  0  0  0  0  0  0  0  0  0
  -26.9190  -30.8610   24.3070 C   0  0  1  0  0  0  0  0  0  0  0  0
  -25.9980  -30.2690   25.3990 C   0  0  0  0  0  1  0  0  0  0  0  0
  -27.5180  -29.6830   23.5050 C   0  0  0  0  0  1  0  0  0  0  0  0
  -28.1050  -31.5610   25.0130 C   0  0  0  0  0  1  0  0  0  0  0  0
  1  2  1  0
  1 13  1  0
  2  4  1  0
  3  1  2  0
  6 11  1  0
  7  8  1  0
  7  6  1  0
  9  8  1  0
  9 23  1  0
  9 10  1  0
 11  5  1  0
 11 10  1  0
 12  5  2  0
 13 16  1  0
 13 14  2  0
 14 48  1  0
 14 18  1  0
 15 17  1  0
 15 18  1  0
 16 15  2  0
 17  5  1  0
 19 17  1  0
 20 23  1  0
 20 21  2  0
 21 22  1  0
 22 25  1  0
 23 24  1  0
 24 22  2  0
 25 26  1  0
 26 27  2  0
 28 27  1  0
 29 28  2  0
 30 29  1  0
 30 25  2  0
 31 28  1  0
 31 32  1  0
 32 33  1  0
 33 34  2  0
 35 34  1  0
 35 39  1  0
 36 35  2  0
 37 32  2  0
 37 36  1  0
 38 37  1  0
 40 21  1  0
 40 41  1  0
 41 44  1  0
 41 43  1  0
 42 40  2  0
 45 20  1  0
 46 45  1  0
 47 45  1  0
 48 50  1  0
 49 48  1  0
 51  2  1  0
 51 52  1  0
 52 53  2  0
 52 55  1  0
 55 54  1  0
 57 56  1  0
 57 58  1  0
 57 51  1  0
 59 61  1  0
 59 58  1  0
 60 71  2  0
 61 66  1  0
 62 70  1  0
 62 72  1  0
 63 69  1  0
 63 65  1  0
 64 70  1  0
 65 64  1  0
 66 65  2  0
 67 68  1  0
 67 61  2  0
 68 63  2  0
 69 62  1  0
 70 60  1  0
 72 74  2  0
 73 72  1  0
 75 73  1  0
 76 85  2  0
 76 81  1  0
 77 73  1  0
 77 81  1  0
 78 77  1  0
 79 80  1  0
 79 78  1  0
 80 76  1  0
 81 82  2  0
 82 83  1  0
 84 83  2  0
 85 84  1  0
 86 60  1  0
 86 87  1  0
 86 96  1  0
 87 90  1  0
 88 87  1  0
 88 92  1  0
 89 88  2  0
 92 91  1  0
 92 94  1  0
 94 95  1  0
 94 93  1  0
 96 99  1  1
 96 97  1  0
 98 96  1  0
M  ISO  4   5 100  17 100  58 101  59 101
M  END
>  <TORSDO>  (20) 
F 22

>  <SCORE>  (20) 
-6.455

>  <name>  (20) 
19

>  <ligand_id>  (20) 
19

>  <original_smiles>  (20) 
[H]c1c([H])c([H])c2c(c1[H])C([H])([H])C([H])([H])C([H])([H])C2([H])N([H])C(=O)C1([H])N(C(=O)C([H])(N([H])C(=O)C([H])(N([H])C([H])([H])[H])C([H])([H])[H])C(C([H])([H])[H])(C([H])([H])[H])C([H])([H])[H])C([H])([H])c2c([H])c(OC([H])([H])C([H])(C([H])([H])[H])C([H])(C(=O)C([H])([H])C([H])([H])[H])N([H])C(=O)c3nc(N([H])C(=O)N4C([H])([H])C([H])([H])C([H])([H])C([H])(n5nc(-c6c([H])c([H])c(Oc7c([H])c([H])c(F)c([H])c7F)c([H])c6[H])c(C(=O)N([H])[H])c5N([H])[H])C4([H])[H])sc3N([H])[H])c([H])c([H])c2C1([H])[H]

>  <smiles>  (20) 
[H]c1c([H])c([H])c2c(c1[H])C([H])([H])C([H])([H])C([H])([H])C2([H])N([H])C(=O)C1([H])N(C(=O)C([H])(N([H])C(=O)C([H])(N([H])C([H])([H])[H])C([H])([H])[H])C(C([H])([H])[H])(C([H])([H])[H])C([H])([H])[H])C([H])([H])c2c([H])c(OC([H])([H])C([H])(C([H])([H])[H])C([H])(C(=O)C([H])([H])C([H])([H])[H])N([H])C(=O)c3nc(N([H])C(=O)N4C([H])([H])C([H])([H])C([H])([H])C([H])(n5nc(-c6c([H])c([H])c(Oc7c([H])c([H])c(F)c([H])c7F)c([H])c6[H])c(C(=O)N([H])[H])c5N([H])[H])C4([H])[H])sc3N([H])[H])c([H])c([H])c2C1([H])[H]

$$$$
20:0:0
     RDKit          3D

 95103  0  0  1  0  0  0  0  0999 V2000
  -30.7110  -19.5450   22.0870 C   0  0  0  0  0  3  0  0  0  0  0  0
  -31.0250  -18.3950   22.8260 C   0  0  0  0  0  0  0  0  0  0  0  0
  -30.7280  -17.1260   22.2990 C   0  0  0  0  0  0  0  0  0  0  0  0
  -30.0980  -19.4210   20.8240 C   0  0  0  0  0  0  0  0  0  0  0  0
  -30.1200  -17.0430   21.0290 C   0  0  0  0  0  0  0  0  0  0  0  0
  -29.5550  -21.8690   20.4260 C   0  0  0  0  0  0  0  0  0  0  0  0
  -29.8150  -18.1790   20.3240 N   0  0  0  0  0  0  0  0  0  0  0  0
  -29.8750  -20.6040   20.0390 N   0  0  0  0  0  0  0  0  0  0  0  0
  -29.2270  -22.1590   21.5790 O   0  0  0  0  0  0  0  0  0  0  0  0
  -31.6080  -18.5100   24.0460 F   0  0  0  0  0  0  0  0  0  0  0  0
  -30.9930  -16.0070   23.0210 F   0  0  0  0  0  0  0  0  0  0  0  0
  -29.9850  -20.4770   19.0430 H   0  0  0  0  0  0  0  0  0  0  0  0
  -30.4910  -14.7380   20.1210 C   0  0  0  0  0  0  0  0  0  0  0  0
  -30.2150  -12.6030   18.8980 C   0  0  0  0  0  2  0  0  0  0  0  0
  -29.1900  -12.7960   17.7620 C   0  0  0  0  0  2  0  0  0  0  0  0
  -27.7500  -12.5900   18.2760 C   0  0  0  0  0  2  0  0  0  0  0  0
  -27.4590  -13.3730   19.5850 C   0  0  0  0  0  3  0  0  0  0  0  0
  -28.5890  -13.1580   20.6170 C   0  0  0  0  0  2  0  0  0  0  0  0
  -29.8580  -13.5380   19.9770 N   0  0  0  0  0  0  0  0  0  0  0  0
  -31.6130  -14.9520   19.6500 O   0  0  0  0  0  0  0  0  0  0  0  0
  -29.7160  -15.7420   20.5920 N   0  0  0  0  0  0  0  0  0  0  0  0
  -28.7590  -15.5010   20.7880 H   0  0  0  0  0  0  0  0  0  0  0  0
  -25.0920  -13.8790   20.4600 C   0  0  0  0  0  0  0  0  0  0  0  0
  -24.0720  -13.0620   20.8670 C   0  0  0  0  0  0  0  0  0  0  0  0
  -24.5710  -11.7270   20.7620 C   0  0  0  0  0  0  0  0  0  0  0  0
  -26.1460  -13.0400   20.1350 N   0  0  0  0  0  0  0  0  0  0  0  0
  -25.8400  -11.7400   20.3740 N   0  0  0  0  0  0  0  0  0  0  0  0
  -23.8950  -10.4360   20.9500 C   0  0  0  0  0  0  0  0  0  0  0  0
  -24.3560   -9.4930   21.8960 C   0  0  0  0  0  3  0  0  0  0  0  0
  -23.6780   -8.2680   22.0720 C   0  0  0  0  0  3  0  0  0  0  0  0
  -22.5280   -7.9750   21.3010 C   0  0  0  0  0  0  0  0  0  0  0  0
  -22.0870   -8.9080   20.3440 C   0  0  0  0  0  3  0  0  0  0  0  0
  -22.7660  -10.1260   20.1670 C   0  0  0  0  0  3  0  0  0  0  0  0
  -21.8220   -6.7990   21.3860 O   0  0  0  0  0  0  0  0  0  0  0  0
  -21.7260   -6.1000   22.5620 C   0  0  0  0  0  0  0  0  0  0  0  0
  -21.1600   -6.6690   23.7230 C   0  0  0  0  0  3  0  0  0  0  0  0
  -21.0170   -5.8920   24.8910 C   0  0  0  0  0  3  0  0  0  0  0  0
  -21.4310   -4.5470   24.8970 C   0  0  0  0  0  0  0  0  0  0  0  0
  -21.9910   -3.9770   23.7380 C   0  0  0  0  0  3  0  0  0  0  0  0
  -22.1350   -4.7510   22.5740 C   0  0  0  0  0  0  0  0  0  0  0  0
  -22.6550   -4.1900   21.4560 F   0  0  0  0  0  0  0  0  0  0  0  0
  -21.2880   -3.7990   26.0140 F   0  0  0  0  0  0  0  0  0  0  0  0
  -22.6800  -13.4850   21.2370 C   0  0  0  0  0  0  0  0  0  0  0  0
  -22.0210  -12.7320   22.1110 N   0  0  0  0  0  0  0  0  0  0  0  0
  -22.1840  -14.5160   20.7850 O   0  0  0  0  0  0  0  0  0  0  0  0
  -22.4350  -11.8980   22.5010 H   0  0  0  0  0  0  0  0  0  0  0  0
  -21.0890  -12.9950   22.3980 H   0  0  0  0  0  0  0  0  0  0  0  0
  -25.2010  -15.2600   20.3210 N   0  0  0  0  0  0  0  0  0  0  0  0
  -24.4130  -15.8760   20.4930 H   0  0  0  0  0  0  0  0  0  0  0  0
  -25.9960  -15.7430   19.9220 H   0  0  0  0  0  0  0  0  0  0  0  0
  -28.5740  -22.6870   18.2180 C   0  0  0  0  0  1  0  0  0  0  0  0
  -29.5980  -22.9840   19.3360 C   0  0  0  0  0  3  0  0  0  0  0  0
  -29.6010  -24.4900   19.8390 C   0  0  0  0  0  3  0  0  0  0  0  0
  -28.3510  -25.3710   19.5200 C   0  0  0  0  0  3  0  0  0  0  0  0
  -28.4530  -26.7720   19.8920 O   0  0  0  0  0  0  0  0  0  0  0  0
  -24.6370  -31.8830   23.1510 C   0  0  0  0  0  0  0  0  0  0  0  0
  -27.2800  -27.5260   19.8980 C   0  0  0  0  0  0  0  0  0  0  0  0
  -23.4240  -30.5180   21.4870 C   0  0  0  0  0  3  0  0  0  0  0  0
  -24.8740  -29.0430   19.9930 C   0  0  0  0  0  0  0  0  0  0  0  0
  -25.9510  -30.8990   21.2680 C   0  0  0  0  0  2  0  0  0  0  0  0
  -26.0390  -29.5480   20.5810 C   0  0  0  0  0  0  0  0  0  0  0  0
  -27.2440  -28.7980   20.5300 C   0  0  0  0  0  3  0  0  0  0  0  0
  -26.0870  -27.0550   19.2970 C   0  0  0  0  0  3  0  0  0  0  0  0
  -24.8950  -27.7980   19.3470 C   0  0  0  0  0  3  0  0  0  0  0  0
  -23.6230  -29.8880   20.0830 C   0  0  0  0  0  2  0  0  0  0  0  0
  -24.6900  -31.1150   22.0250 N   0  0  0  0  0  0  0  0  0  0  0  0
  -23.5600  -32.1270   23.7130 O   0  0  0  0  0  0  0  0  0  0  0  0
  -22.7980  -29.4600   22.4240 C   0  0  0  0  0  0  0  0  0  0  0  0
  -21.4760  -29.2570   22.3020 N   0  0  0  0  0  0  0  0  0  0  0  0
  -23.4970  -28.8270   23.2190 O   0  0  0  0  0  0  0  0  0  0  0  0
  -20.9710  -29.8210   21.6310 H   0  0  0  0  0  0  0  0  0  0  0  0
  -18.1240  -27.9950   22.8020 C   0  0  0  0  0  0  0  0  0  0  0  0
  -20.6810  -28.2860   23.0550 C   0  0  0  0  0  3  0  0  0  0  0  0
  -20.8010  -26.8740   22.4380 C   0  0  0  0  0  2  0  0  0  0  0  0
  -19.6940  -26.5610   21.4260 C   0  0  0  0  0  2  0  0  0  0  0  0
  -18.3160  -26.6670   22.0880 C   0  0  0  0  0  2  0  0  0  0  0  0
  -19.2350  -28.7620   23.2420 C   0  0  0  0  0  0  0  0  0  0  0  0
  -19.0030  -30.0050   23.8710 C   0  0  0  0  0  3  0  0  0  0  0  0
  -17.6920  -30.4800   24.0640 C   0  0  0  0  0  3  0  0  0  0  0  0
  -16.5960  -29.7100   23.6400 C   0  0  0  0  0  3  0  0  0  0  0  0
  -16.8130  -28.4690   23.0140 C   0  0  0  0  0  3  0  0  0  0  0  0
  -25.9240  -32.5120   23.7700 C   0  0  0  0  0  3  0  0  0  0  0  0
  -26.4530  -31.7280   25.0350 C   0  0  1  0  0  0  0  0  0  0  0  0
  -25.3640  -31.4610   26.0990 C   0  0  0  0  0  1  0  0  0  0  0  0
  -27.0540  -30.3650   24.6210 C   0  0  0  0  0  1  0  0  0  0  0  0
  -27.5940  -32.5280   25.7080 C   0  0  0  0  0  1  0  0  0  0  0  0
  -25.6130  -33.9050   24.1170 N   0  0  0  0  0  0  0  0  0  0  0  0
  -25.9500  -34.9680   23.3750 C   0  0  0  0  0  0  0  0  0  0  0  0
  -26.6260  -34.8790   22.3470 O   0  0  0  0  0  0  0  0  0  0  0  0
  -25.0120  -34.0500   24.9160 H   0  0  0  0  0  0  0  0  0  0  0  0
  -24.2360  -36.7760   23.0200 C   0  0  0  0  0  1  0  0  0  0  0  0
  -25.4590  -36.3500   23.8480 C   0  0  0  0  0  3  0  0  0  0  0  0
  -27.5770  -37.2150   24.7420 C   0  0  0  0  0  1  0  0  0  0  0  0
  -26.4990  -37.4010   23.7740 N   0  0  0  0  0  0  0  0  0  0  0  0
  -26.0920  -38.3200   23.9250 H   0  0  0  0  0  0  0  0  0  0  0  0
  1  2  1  0
  2 10  1  0
  3  2  2  0
  3 11  1  0
  4  1  2  0
  5  3  1  0
  6  9  2  0
  7  4  1  0
  7  5  2  0
  8  6  1  0
  8  4  1  0
 12  8  1  0
 13 21  1  0
 14 19  1  0
 15 16  1  0
 15 14  1  0
 17 16  1  0
 17 26  1  0
 17 18  1  0
 19 13  1  0
 19 18  1  0
 20 13  2  0
 21 22  1  0
 21  5  1  0
 23 24  2  0
 24 43  1  0
 25 24  1  0
 25 28  1  0
 26 27  1  0
 26 23  1  0
 27 25  2  0
 28 29  1  0
 29 30  2  0
 31 34  1  0
 31 30  1  0
 32 31  2  0
 33 32  1  0
 33 28  2  0
 34 35  1  0
 35 40  2  0
 35 36  1  0
 36 37  2  0
 37 38  1  0
 38 42  1  0
 39 38  2  0
 40 39  1  0
 41 40  1  0
 43 44  1  0
 44 47  1  0
 44 46  1  0
 45 43  2  0
 48 23  1  0
 48 49  1  0
 50 48  1  0
 52 51  1  0
 52 53  1  0
 52  6  1  0
 54 53  2  0
 54 55  1  0
 55 57  1  0
 56 67  2  0
 57 62  1  0
 58 66  1  0
 58 68  1  0
 59 65  1  0
 59 61  1  0
 60 66  1  0
 61 60  1  0
 62 61  2  0
 63 64  1  0
 63 57  2  0
 64 59  2  0
 65 58  1  0
 66 56  1  0
 68 70  2  0
 69 68  1  0
 71 69  1  0
 72 81  2  0
 72 77  1  0
 73 69  1  0
 73 77  1  0
 74 73  1  0
 75 76  1  0
 75 74  1  0
 76 72  1  0
 77 78  2  0
 78 79  1  0
 80 79  2  0
 81 80  1  0
 82 56  1  0
 82 87  1  0
 82 83  1  0
 83 86  1  1
 83 84  1  0
 85 83  1  0
 87 90  1  0
 88 92  1  0
 88 87  1  0
 89 88  2  0
 92 91  1  0
 94 92  1  0
 94 95  1  0
 94 93  1  0
M  ISO  4  13 100  21 100  54 101  55 101
M  END
>  <TORSDO>  (21) 
F 19

>  <SCORE>  (21) 
-13.460

>  <name>  (21) 
20

>  <ligand_id>  (21) 
20

>  <original_smiles>  (21) 
[H]c1c([H])c([H])c2c(c1[H])C([H])([H])C([H])([H])C([H])([H])C2([H])N([H])C(=O)C1([H])N(C(=O)C([H])(N([H])C(=O)C([H])(N([H])C([H])([H])[H])C([H])([H])[H])C(C([H])([H])[H])(C([H])([H])[H])C([H])([H])[H])C([H])([H])c2c([H])c(OC([H])([H])C([H])([H])C([H])(C(=O)N([H])c3nc(N([H])C(=O)N4C([H])([H])C([H])([H])C([H])([H])C([H])(n5nc(-c6c([H])c([H])c(Oc7c([H])c([H])c(F)c([H])c7F)c([H])c6[H])c(C(=O)N([H])[H])c5N([H])[H])C4([H])[H])c(F)c(F)c3[H])C([H])([H])[H])c([H])c([H])c2C1([H])[H]

>  <smiles>  (21) 
[H]c1c([H])c([H])c2c(c1[H])C([H])([H])C([H])([H])C([H])([H])C2([H])N([H])C(=O)C1([H])N(C(=O)C([H])(N([H])C(=O)C([H])(N([H])C([H])([H])[H])C([H])([H])[H])C(C([H])([H])[H])(C([H])([H])[H])C([H])([H])[H])C([H])([H])c2c([H])c(OC([H])([H])C([H])([H])C([H])(C(=O)N([H])c3nc(N([H])C(=O)N4C([H])([H])C([H])([H])C([H])([H])C([H])(n5nc(-c6c([H])c([H])c(Oc7c([H])c([H])c(F)c([H])c7F)c([H])c6[H])c(C(=O)N([H])[H])c5N([H])[H])C4([H])[H])c(F)c(F)c3[H])C([H])([H])[H])c([H])c([H])c2C1([H])[H]

$$$$
21:0:0
     RDKit          3D

 95103  0  0  1  0  0  0  0  0999 V2000
  -29.6960  -21.5880   20.1590 C   0  0  0  0  0  0  0  0  0  0  0  0
  -29.1220  -20.3630   20.2100 N   0  0  0  0  0  0  0  0  0  0  0  0
  -30.8820  -21.7700   19.8630 O   0  0  0  0  0  0  0  0  0  0  0  0
  -28.1850  -20.3320   20.5810 H   0  0  0  0  0  0  0  0  0  0  0  0
  -30.6960  -14.5050   20.4790 C   0  0  0  0  0  0  0  0  0  0  0  0
  -30.3790  -12.3200   19.4050 C   0  0  0  0  0  2  0  0  0  0  0  0
  -29.4670  -12.5360   18.1800 C   0  0  0  0  0  2  0  0  0  0  0  0
  -27.9830  -12.4170   18.5860 C   0  0  0  0  0  2  0  0  0  0  0  0
  -27.6340  -13.2530   19.8470 C   0  0  0  0  0  3  0  0  0  0  0  0
  -28.6790  -13.0610   20.9710 C   0  0  0  0  0  2  0  0  0  0  0  0
  -30.0090  -13.3320   20.4090 N   0  0  0  0  0  0  0  0  0  0  0  0
  -31.8550  -14.6120   20.0710 O   0  0  0  0  0  0  0  0  0  0  0  0
  -30.2400  -18.7880   18.6280 C   0  0  0  0  0  0  0  0  0  0  0  0
  -29.6830  -19.0960   19.8600 C   0  0  0  0  0  0  0  0  0  0  0  0
  -30.0890  -16.8630   20.1960 C   0  0  0  0  0  0  0  0  0  0  0  0
  -29.5510  -17.9780   20.7190 N   0  0  0  0  0  0  0  0  0  0  0  0
  -29.9960  -15.5970   20.8510 N   0  0  0  0  0  0  0  0  0  0  0  0
  -30.7730  -17.1240   18.5850 S   0  0  0  0  0  0  0  0  0  0  0  0
  -29.1710  -15.4480   21.4100 H   0  0  0  0  0  0  0  0  0  0  0  0
  -25.2260  -13.8480   20.5250 C   0  0  0  0  0  0  0  0  0  0  0  0
  -24.1600  -13.0730   20.8900 C   0  0  0  0  0  0  0  0  0  0  0  0
  -24.6250  -11.7230   20.8660 C   0  0  0  0  0  0  0  0  0  0  0  0
  -26.2770  -12.9730   20.3110 N   0  0  0  0  0  0  0  0  0  0  0  0
  -25.9190  -11.6890   20.5730 N   0  0  0  0  0  0  0  0  0  0  0  0
  -23.9010  -10.4590   21.0520 C   0  0  0  0  0  0  0  0  0  0  0  0
  -24.3340   -9.4900   21.9840 C   0  0  0  0  0  3  0  0  0  0  0  0
  -23.6080   -8.2920   22.1580 C   0  0  0  0  0  3  0  0  0  0  0  0
  -22.4360   -8.0550   21.4020 C   0  0  0  0  0  0  0  0  0  0  0  0
  -22.0230   -9.0110   20.4580 C   0  0  0  0  0  3  0  0  0  0  0  0
  -22.7490  -10.2000   20.2810 C   0  0  0  0  0  3  0  0  0  0  0  0
  -21.6810   -6.9100   21.4880 O   0  0  0  0  0  0  0  0  0  0  0  0
  -21.6380   -6.1590   22.6350 C   0  0  0  0  0  0  0  0  0  0  0  0
  -21.2180   -6.7050   23.8670 C   0  0  0  0  0  3  0  0  0  0  0  0
  -21.1230   -5.8800   25.0060 C   0  0  0  0  0  3  0  0  0  0  0  0
  -21.4410   -4.5120   24.9140 C   0  0  0  0  0  0  0  0  0  0  0  0
  -21.8550   -3.9660   23.6860 C   0  0  0  0  0  3  0  0  0  0  0  0
  -21.9520   -4.7870   22.5500 C   0  0  0  0  0  0  0  0  0  0  0  0
  -22.3280   -4.2510   21.3640 F   0  0  0  0  0  0  0  0  0  0  0  0
  -21.3420   -3.7200   26.0060 F   0  0  0  0  0  0  0  0  0  0  0  0
  -22.7580  -13.5460   21.1440 C   0  0  0  0  0  0  0  0  0  0  0  0
  -22.0260  -12.8510   22.0070 N   0  0  0  0  0  0  0  0  0  0  0  0
  -22.3210  -14.5650   20.6120 O   0  0  0  0  0  0  0  0  0  0  0  0
  -22.3930  -12.0240   22.4550 H   0  0  0  0  0  0  0  0  0  0  0  0
  -21.0870  -13.1470   22.2280 H   0  0  0  0  0  0  0  0  0  0  0  0
  -25.3870  -15.2180   20.3370 N   0  0  0  0  0  0  0  0  0  0  0  0
  -24.6270  -15.8780   20.4570 H   0  0  0  0  0  0  0  0  0  0  0  0
  -26.2340  -15.6480   19.9900 H   0  0  0  0  0  0  0  0  0  0  0  0
  -30.3760  -19.5430   17.3870 C   0  0  0  0  0  3  0  0  0  0  0  0
  -29.5730  -20.4230   16.9620 N   0  0  0  0  0  0  0  0  0  0  0  0
  -28.7940  -20.5510   17.5960 H   0  0  0  0  0  0  0  0  0  0  0  0
  -28.7620  -22.7760   20.4830 C   0  0  0  0  0  2  0  0  0  0  0  0
  -29.3130  -24.2420   20.4270 C   0  0  0  0  0  3  0  0  0  0  0  0
  -29.7810  -24.5650   21.6380 F   0  0  0  0  0  0  0  0  0  0  0  0
  -28.1870  -25.2310   20.0140 C   0  0  0  0  0  2  0  0  0  0  0  0
  -28.3780  -26.6540   20.2010 O   0  0  0  0  0  0  0  0  0  0  0  0
  -24.5740  -31.8820   23.2520 C   0  0  0  0  0  0  0  0  0  0  0  0
  -27.2200  -27.4260   20.1580 C   0  0  0  0  0  0  0  0  0  0  0  0
  -23.3670  -30.4870   21.6050 C   0  0  0  0  0  3  0  0  0  0  0  0
  -24.8200  -28.9520   20.1830 C   0  0  0  0  0  0  0  0  0  0  0  0
  -25.8990  -30.8360   21.4140 C   0  0  0  0  0  2  0  0  0  0  0  0
  -25.9830  -29.4660   20.7690 C   0  0  0  0  0  0  0  0  0  0  0  0
  -27.1830  -28.7120   20.7540 C   0  0  0  0  0  3  0  0  0  0  0  0
  -26.0330  -26.9480   19.5480 C   0  0  0  0  0  3  0  0  0  0  0  0
  -24.8410  -27.6900   19.5710 C   0  0  0  0  0  3  0  0  0  0  0  0
  -23.5760  -29.8080   20.2270 C   0  0  0  0  0  2  0  0  0  0  0  0
  -24.6310  -31.0860   22.1460 N   0  0  0  0  0  0  0  0  0  0  0  0
  -23.4910  -32.1540   23.7920 O   0  0  0  0  0  0  0  0  0  0  0  0
  -22.7110  -29.4670   22.5650 C   0  0  0  0  0  0  0  0  0  0  0  0
  -21.3850  -29.2870   22.4360 N   0  0  0  0  0  0  0  0  0  0  0  0
  -23.3920  -28.8410   23.3820 O   0  0  0  0  0  0  0  0  0  0  0  0
  -20.8950  -29.8440   21.7510 H   0  0  0  0  0  0  0  0  0  0  0  0
  -18.0130  -28.0820   22.9280 C   0  0  0  0  0  0  0  0  0  0  0  0
  -20.5710  -28.3440   23.2050 C   0  0  0  0  0  3  0  0  0  0  0  0
  -20.6760  -26.9130   22.6300 C   0  0  0  0  0  2  0  0  0  0  0  0
  -19.5790  -26.5860   21.6160 C   0  0  0  0  0  2  0  0  0  0  0  0
  -18.1940  -26.7310   22.2550 C   0  0  0  0  0  2  0  0  0  0  0  0
  -19.1290  -28.8450   23.3610 C   0  0  0  0  0  0  0  0  0  0  0  0
  -18.9070  -30.1080   23.9500 C   0  0  0  0  0  3  0  0  0  0  0  0
  -17.6020  -30.6070   24.1130 C   0  0  0  0  0  3  0  0  0  0  0  0
  -16.4990  -29.8400   23.6950 C   0  0  0  0  0  3  0  0  0  0  0  0
  -16.7050  -28.5810   23.1050 C   0  0  0  0  0  3  0  0  0  0  0  0
  -25.8600  -32.5100   23.8740 C   0  0  0  0  0  3  0  0  0  0  0  0
  -26.3740  -31.7400   25.1510 C   0  0  1  0  0  0  0  0  0  0  0  0
  -25.2820  -31.5090   26.2210 C   0  0  0  0  0  1  0  0  0  0  0  0
  -26.9500  -30.3560   24.7650 C   0  0  0  0  0  1  0  0  0  0  0  0
  -27.5250  -32.5340   25.8120 C   0  0  0  0  0  1  0  0  0  0  0  0
  -25.5530  -33.9100   24.1980 N   0  0  0  0  0  0  0  0  0  0  0  0
  -25.8830  -34.9590   23.4320 C   0  0  0  0  0  0  0  0  0  0  0  0
  -26.5490  -34.8510   22.4000 O   0  0  0  0  0  0  0  0  0  0  0  0
  -24.9630  -34.0700   25.0000 H   0  0  0  0  0  0  0  0  0  0  0  0
  -24.1560  -36.7550   23.0790 C   0  0  0  0  0  1  0  0  0  0  0  0
  -25.3990  -36.3510   23.8870 C   0  0  0  0  0  3  0  0  0  0  0  0
  -27.5400  -37.2360   24.7040 C   0  0  0  0  0  1  0  0  0  0  0  0
  -26.4320  -37.4010   23.7670 N   0  0  0  0  0  0  0  0  0  0  0  0
  -26.0270  -38.3220   23.9140 H   0  0  0  0  0  0  0  0  0  0  0  0
  1  2  1  0
  1 51  1  0
  2  4  1  0
  3  1  2  0
  5 17  1  0
  6 11  1  0
  7  8  1  0
  7  6  1  0
  9  8  1  0
  9 23  1  0
  9 10  1  0
 11  5  1  0
 11 10  1  0
 12  5  2  0
 13 14  2  0
 14  2  1  0
 14 16  1  0
 15 16  2  0
 15 17  1  0
 17 19  1  0
 18 13  1  0
 18 15  1  0
 20 21  2  0
 21 40  1  0
 22 21  1  0
 22 25  1  0
 23 20  1  0
 23 24  1  0
 24 22  2  0
 25 26  1  0
 26 27  2  0
 28 31  1  0
 28 27  1  0
 29 28  2  0
 30 29  1  0
 30 25  2  0
 31 32  1  0
 32 33  1  0
 33 34  2  0
 35 34  1  0
 35 39  1  0
 36 35  2  0
 37 32  2  0
 37 36  1  0
 38 37  1  0
 40 41  1  0
 41 44  1  0
 41 43  1  0
 42 40  2  0
 45 46  1  0
 45 20  1  0
 47 45  1  0
 48 13  1  0
 49 48  2  0
 49 50  1  0
 52 51  1  0
 52 53  1  0
 54 55  1  0
 54 52  1  0
 56 67  2  0
 57 55  1  0
 57 62  1  0
 58 66  1  0
 58 68  1  0
 59 65  1  0
 59 61  1  0
 60 66  1  0
 61 60  1  0
 62 61  2  0
 63 64  1  0
 63 57  2  0
 64 59  2  0
 65 58  1  0
 66 56  1  0
 68 70  2  0
 69 68  1  0
 71 69  1  0
 72 81  2  0
 72 77  1  0
 73 69  1  0
 73 77  1  0
 74 73  1  0
 75 76  1  0
 75 74  1  0
 76 72  1  0
 77 78  2  0
 78 79  1  0
 80 79  2  0
 81 80  1  0
 82 56  1  0
 82 87  1  0
 82 83  1  0
 83 86  1  1
 83 84  1  0
 85 83  1  0
 87 90  1  0
 88 92  1  0
 88 87  1  0
 89 88  2  0
 92 91  1  0
 94 92  1  0
 94 95  1  0
 94 93  1  0
M  ISO  4   5 100  17 100  54 101  55 101
M  END
>  <TORSDO>  (22) 
F 20

>  <SCORE>  (22) 
-13.989

>  <name>  (22) 
21

>  <ligand_id>  (22) 
21

>  <original_smiles>  (22) 
[H]N=C([H])c1sc(N([H])C(=O)N2C([H])([H])C([H])([H])C([H])([H])C([H])(n3nc(-c4c([H])c([H])c(Oc5c([H])c([H])c(F)c([H])c5F)c([H])c4[H])c(C(=O)N([H])[H])c3N([H])[H])C2([H])[H])nc1N([H])C(=O)C([H])([H])C([H])(F)C([H])([H])Oc1c([H])c([H])c2c(c1[H])C([H])([H])N(C(=O)C([H])(N([H])C(=O)C([H])(N([H])C([H])([H])[H])C([H])([H])[H])C(C([H])([H])[H])(C([H])([H])[H])C([H])([H])[H])C([H])(C(=O)N([H])C1([H])c3c([H])c([H])c([H])c([H])c3C([H])([H])C([H])([H])C1([H])[H])C2([H])[H]

>  <smiles>  (22) 
[H]N=C([H])c1sc(N([H])C(=O)N2C([H])([H])C([H])([H])C([H])([H])C([H])(n3nc(-c4c([H])c([H])c(Oc5c([H])c([H])c(F)c([H])c5F)c([H])c4[H])c(C(=O)N([H])[H])c3N([H])[H])C2([H])[H])nc1N([H])C(=O)C([H])([H])C([H])(F)C([H])([H])Oc1c([H])c([H])c2c(c1[H])C([H])([H])N(C(=O)C([H])(N([H])C(=O)C([H])(N([H])C([H])([H])[H])C([H])([H])[H])C(C([H])([H])[H])(C([H])([H])[H])C([H])([H])[H])C([H])(C(=O)N([H])C1([H])c3c([H])c([H])c([H])c([H])c3C([H])([H])C([H])([H])C1([H])[H])C2([H])[H]

$$$$
22:0:0
     RDKit          3D

 95103  0  0  1  0  0  0  0  0999 V2000
  -30.9820  -17.9660   20.1520 C   0  0  0  0  0  3  0  0  0  0  0  0
  -29.8580  -17.1370   20.3910 C   0  0  0  0  0  0  0  0  0  0  0  0
  -28.6380  -17.8420   20.5220 C   0  0  0  0  0  0  0  0  0  0  0  0
  -28.5600  -19.2590   20.4040 C   0  0  0  0  0  0  0  0  0  0  0  0
  -29.7390  -20.0190   20.1700 C   0  0  0  0  0  0  0  0  0  0  0  0
  -28.9070  -22.4850   20.4050 C   0  0  0  0  0  0  0  0  0  0  0  0
  -30.9180  -19.3340   20.0440 N   0  0  0  0  0  0  0  0  0  0  0  0
  -29.7170  -21.4710   19.9570 N   0  0  0  0  0  0  0  0  0  0  0  0
  -28.0370  -22.3120   21.2610 O   0  0  0  0  0  0  0  0  0  0  0  0
  -27.5040  -17.1290   20.7340 F   0  0  0  0  0  0  0  0  0  0  0  0
  -27.3420  -19.8540   20.4630 F   0  0  0  0  0  0  0  0  0  0  0  0
  -30.4860  -21.8120   19.3990 H   0  0  0  0  0  0  0  0  0  0  0  0
  -30.6150  -14.6610   20.0220 C   0  0  0  0  0  0  0  0  0  0  0  0
  -30.3500  -12.4540   18.8980 C   0  0  0  0  0  2  0  0  0  0  0  0
  -29.3180  -12.6020   17.7570 C   0  0  0  0  0  2  0  0  0  0  0  0
  -27.8760  -12.4380   18.2810 C   0  0  0  0  0  2  0  0  0  0  0  0
  -27.6070  -13.2620   19.5670 C   0  0  0  0  0  3  0  0  0  0  0  0
  -28.7390  -13.0630   20.6000 C   0  0  0  0  0  2  0  0  0  0  0  0
  -30.0070  -13.4330   19.9480 N   0  0  0  0  0  0  0  0  0  0  0  0
  -31.7370  -14.8600   19.5520 O   0  0  0  0  0  0  0  0  0  0  0  0
  -29.8260  -15.6720   20.5010 N   0  0  0  0  0  0  0  0  0  0  0  0
  -28.9580  -15.3270   20.8830 H   0  0  0  0  0  0  0  0  0  0  0  0
  -25.2650  -13.8500   20.4470 C   0  0  0  0  0  0  0  0  0  0  0  0
  -24.2200  -13.0700   20.8630 C   0  0  0  0  0  0  0  0  0  0  0  0
  -24.6740  -11.7190   20.7700 C   0  0  0  0  0  0  0  0  0  0  0  0
  -26.2910  -12.9730   20.1290 N   0  0  0  0  0  0  0  0  0  0  0  0
  -25.9440  -11.6850   20.3820 N   0  0  0  0  0  0  0  0  0  0  0  0
  -23.9560  -10.4540   20.9750 C   0  0  0  0  0  0  0  0  0  0  0  0
  -24.4250   -9.4760   21.8790 C   0  0  0  0  0  3  0  0  0  0  0  0
  -23.7070   -8.2770   22.0730 C   0  0  0  0  0  3  0  0  0  0  0  0
  -22.5050   -8.0460   21.3610 C   0  0  0  0  0  0  0  0  0  0  0  0
  -22.0540   -9.0140   20.4450 C   0  0  0  0  0  3  0  0  0  0  0  0
  -22.7730  -10.2050   20.2500 C   0  0  0  0  0  3  0  0  0  0  0  0
  -21.7540   -6.9010   21.4650 O   0  0  0  0  0  0  0  0  0  0  0  0
  -21.7250   -6.1620   22.6210 C   0  0  0  0  0  0  0  0  0  0  0  0
  -21.3010   -6.7170   23.8490 C   0  0  0  0  0  3  0  0  0  0  0  0
  -21.2200   -5.9060   24.9980 C   0  0  0  0  0  3  0  0  0  0  0  0
  -21.5520   -4.5390   24.9200 C   0  0  0  0  0  0  0  0  0  0  0  0
  -21.9680   -3.9840   23.6970 C   0  0  0  0  0  3  0  0  0  0  0  0
  -22.0510   -4.7930   22.5510 C   0  0  0  0  0  0  0  0  0  0  0  0
  -22.4330   -4.2490   21.3700 F   0  0  0  0  0  0  0  0  0  0  0  0
  -21.4670   -3.7560   26.0210 F   0  0  0  0  0  0  0  0  0  0  0  0
  -22.8450  -13.5440   21.2360 C   0  0  0  0  0  0  0  0  0  0  0  0
  -22.1730  -12.8290   22.1320 N   0  0  0  0  0  0  0  0  0  0  0  0
  -22.3780  -14.5820   20.7690 O   0  0  0  0  0  0  0  0  0  0  0  0
  -22.5660  -11.9890   22.5300 H   0  0  0  0  0  0  0  0  0  0  0  0
  -21.2540  -13.1270   22.4240 H   0  0  0  0  0  0  0  0  0  0  0  0
  -25.4170  -15.2240   20.2970 N   0  0  0  0  0  0  0  0  0  0  0  0
  -24.6680  -15.8700   20.5130 H   0  0  0  0  0  0  0  0  0  0  0  0
  -26.2690  -15.6920   20.0190 H   0  0  0  0  0  0  0  0  0  0  0  0
  -29.1730  -23.9630   19.8830 C   0  0  0  0  0  3  0  0  0  0  0  0
  -30.5140  -24.3020   20.2130 O   0  0  0  0  0  0  0  0  0  0  0  0
  -30.5590  -24.3630   21.1620 H   0  0  0  0  0  0  0  0  0  0  0  0
  -28.2290  -25.1210   20.4510 C   0  0  0  0  0  2  0  0  0  0  0  0
  -28.3650  -26.4910   19.9010 O   0  0  0  0  0  0  0  0  0  0  0  0
  -24.6450  -31.7950   23.0800 C   0  0  0  0  0  0  0  0  0  0  0  0
  -27.2370  -27.3180   19.9190 C   0  0  0  0  0  0  0  0  0  0  0  0
  -23.4300  -30.4380   21.4120 C   0  0  0  0  0  3  0  0  0  0  0  0
  -24.8710  -28.9150   19.9490 C   0  0  0  0  0  0  0  0  0  0  0  0
  -25.9680  -30.7610   21.2240 C   0  0  0  0  0  2  0  0  0  0  0  0
  -26.0420  -29.3970   20.5480 C   0  0  0  0  0  0  0  0  0  0  0  0
  -27.2300  -28.6110   20.5220 C   0  0  0  0  0  3  0  0  0  0  0  0
  -26.0490  -26.8840   19.2920 C   0  0  0  0  0  3  0  0  0  0  0  0
  -24.8750  -27.6630   19.3110 C   0  0  0  0  0  3  0  0  0  0  0  0
  -23.6370  -29.7910   20.0170 C   0  0  0  0  0  2  0  0  0  0  0  0
  -24.7010  -31.0130   21.9620 N   0  0  0  0  0  0  0  0  0  0  0  0
  -23.5660  -32.0630   23.6270 O   0  0  0  0  0  0  0  0  0  0  0  0
  -22.7710  -29.4020   22.3520 C   0  0  0  0  0  0  0  0  0  0  0  0
  -21.4380  -29.2570   22.2510 N   0  0  0  0  0  0  0  0  0  0  0  0
  -23.4540  -28.7320   23.1310 O   0  0  0  0  0  0  0  0  0  0  0  0
  -20.9450  -29.8540   21.6030 H   0  0  0  0  0  0  0  0  0  0  0  0
  -18.0400  -28.1590   22.8290 C   0  0  0  0  0  0  0  0  0  0  0  0
  -20.6160  -28.3110   23.0080 C   0  0  0  0  0  3  0  0  0  0  0  0
  -20.6400  -26.9070   22.3590 C   0  0  0  0  0  2  0  0  0  0  0  0
  -19.4890  -26.6770   21.3760 C   0  0  0  0  0  2  0  0  0  0  0  0
  -18.1390  -26.8400   22.0810 C   0  0  0  0  0  2  0  0  0  0  0  0
  -19.2040  -28.8570   23.2490 C   0  0  0  0  0  0  0  0  0  0  0  0
  -19.0550  -30.0980   23.9080 C   0  0  0  0  0  3  0  0  0  0  0  0
  -17.7780  -30.6370   24.1510 C   0  0  0  0  0  3  0  0  0  0  0  0
  -16.6300  -29.9330   23.7470 C   0  0  0  0  0  3  0  0  0  0  0  0
  -16.7630  -28.6960   23.0900 C   0  0  0  0  0  3  0  0  0  0  0  0
  -25.9330  -32.4080   23.7110 C   0  0  0  0  0  3  0  0  0  0  0  0
  -26.4620  -31.5970   24.9580 C   0  0  1  0  0  0  0  0  0  0  0  0
  -25.3800  -31.3290   26.0290 C   0  0  0  0  0  1  0  0  0  0  0  0
  -27.0410  -30.2330   24.5140 C   0  0  0  0  0  1  0  0  0  0  0  0
  -27.6190  -32.3700   25.6350 C   0  0  0  0  0  1  0  0  0  0  0  0
  -25.6280  -33.7940   24.0890 N   0  0  0  0  0  0  0  0  0  0  0  0
  -25.9480  -34.8710   23.3580 C   0  0  0  0  0  0  0  0  0  0  0  0
  -26.6000  -34.8010   22.3140 O   0  0  0  0  0  0  0  0  0  0  0  0
  -25.0510  -33.9230   24.9080 H   0  0  0  0  0  0  0  0  0  0  0  0
  -24.2110  -36.6680   23.0850 C   0  0  0  0  0  1  0  0  0  0  0  0
  -25.4650  -36.2420   23.8670 C   0  0  0  0  0  3  0  0  0  0  0  0
  -27.6080  -37.1090   24.6940 C   0  0  0  0  0  1  0  0  0  0  0  0
  -26.4930  -37.3010   23.7690 N   0  0  0  0  0  0  0  0  0  0  0  0
  -26.0870  -38.2150   23.9490 H   0  0  0  0  0  0  0  0  0  0  0  0
  1  2  1  0
  2 21  1  0
  2  3  2  0
  3 10  1  0
  4 11  1  0
  4  3  1  0
  5  4  2  0
  6  9  2  0
  7  1  2  0
  7  5  1  0
  8  5  1  0
  8  6  1  0
 12  8  1  0
 13 21  1  0
 14 19  1  0
 15 16  1  0
 15 14  1  0
 17 16  1  0
 17 26  1  0
 17 18  1  0
 19 13  1  0
 19 18  1  0
 20 13  2  0
 21 22  1  0
 23 24  2  0
 24 43  1  0
 25 24  1  0
 25 28  1  0
 26 27  1  0
 26 23  1  0
 27 25  2  0
 28 29  1  0
 29 30  2  0
 31 34  1  0
 31 30  1  0
 32 31  2  0
 33 32  1  0
 33 28  2  0
 34 35  1  0
 35 36  1  0
 36 37  2  0
 38 37  1  0
 38 42  1  0
 39 38  2  0
 40 35  2  0
 40 39  1  0
 41 40  1  0
 43 44  1  0
 44 47  1  0
 44 46  1  0
 45 43  2  0
 48 23  1  0
 48 49  1  0
 50 48  1  0
 51 52  1  0
 51  6  1  0
 51 54  1  0
 52 53  1  0
 55 57  1  0
 55 54  1  0
 56 67  2  0
 57 62  1  0
 58 66  1  0
 58 68  1  0
 59 65  1  0
 59 61  1  0
 60 66  1  0
 61 60  1  0
 62 61  2  0
 63 64  1  0
 63 57  2  0
 64 59  2  0
 65 58  1  0
 66 56  1  0
 68 70  2  0
 69 68  1  0
 71 69  1  0
 72 81  2  0
 72 77  1  0
 73 69  1  0
 73 77  1  0
 74 73  1  0
 75 76  1  0
 75 74  1  0
 76 72  1  0
 77 78  2  0
 78 79  1  0
 80 79  2  0
 81 80  1  0
 82 56  1  0
 82 87  1  0
 82 83  1  0
 83 86  1  1
 83 84  1  0
 85 83  1  0
 87 90  1  0
 88 92  1  0
 88 87  1  0
 89 88  2  0
 92 91  1  0
 94 92  1  0
 94 95  1  0
 94 93  1  0
M  ISO  4  13 100  21 100  54 101  55 101
M  END
>  <TORSDO>  (23) 
F 19

>  <SCORE>  (23) 
-14.302

>  <name>  (23) 
22

>  <ligand_id>  (23) 
22

>  <original_smiles>  (23) 
[H]OC([H])(C(=O)N([H])c1nc([H])c(N([H])C(=O)N2C([H])([H])C([H])([H])C([H])([H])C([H])(n3nc(-c4c([H])c([H])c(Oc5c([H])c([H])c(F)c([H])c5F)c([H])c4[H])c(C(=O)N([H])[H])c3N([H])[H])C2([H])[H])c(F)c1F)C([H])([H])Oc1c([H])c([H])c2c(c1[H])C([H])([H])N(C(=O)C([H])(N([H])C(=O)C([H])(N([H])C([H])([H])[H])C([H])([H])[H])C(C([H])([H])[H])(C([H])([H])[H])C([H])([H])[H])C([H])(C(=O)N([H])C1([H])c3c([H])c([H])c([H])c([H])c3C([H])([H])C([H])([H])C1([H])[H])C2([H])[H]

>  <smiles>  (23) 
[H]OC([H])(C(=O)N([H])c1nc([H])c(N([H])C(=O)N2C([H])([H])C([H])([H])C([H])([H])C([H])(n3nc(-c4c([H])c([H])c(Oc5c([H])c([H])c(F)c([H])c5F)c([H])c4[H])c(C(=O)N([H])[H])c3N([H])[H])C2([H])[H])c(F)c1F)C([H])([H])Oc1c([H])c([H])c2c(c1[H])C([H])([H])N(C(=O)C([H])(N([H])C(=O)C([H])(N([H])C([H])([H])[H])C([H])([H])[H])C(C([H])([H])[H])(C([H])([H])[H])C([H])([H])[H])C([H])(C(=O)N([H])C1([H])c3c([H])c([H])c([H])c([H])c3C([H])([H])C([H])([H])C1([H])[H])C2([H])[H]

$$$$
23:0:0
     RDKit          3D

 94102  0  0  1  0  0  0  0  0999 V2000
  -29.8720  -17.7650   19.1880 C   0  0  0  0  0  0  0  0  0  0  0  0
  -29.9670  -17.5610   20.5550 C   0  0  0  0  0  0  0  0  0  0  0  0
  -29.5010  -19.9170   20.4810 C   0  0  0  0  0  0  0  0  0  0  0  0
  -28.9490  -22.4700   20.2540 C   0  0  0  0  0  0  0  0  0  0  0  0
  -29.7230  -18.8060   21.2660 N   0  0  0  0  0  0  0  0  0  0  0  0
  -29.2490  -21.3040   20.9560 N   0  0  0  0  0  0  0  0  0  0  0  0
  -28.7610  -22.4380   19.0350 O   0  0  0  0  0  0  0  0  0  0  0  0
  -29.5460  -19.4530   18.7800 S   0  0  0  0  0  0  0  0  0  0  0  0
  -29.3100  -21.4460   21.9550 H   0  0  0  0  0  0  0  0  0  0  0  0
  -30.8470  -15.0980   20.8170 C   0  0  0  0  0  0  0  0  0  0  0  0
  -30.7600  -12.8140   19.7940 C   0  0  0  0  0  2  0  0  0  0  0  0
  -29.9050  -12.8520   18.5040 C   0  0  0  0  0  2  0  0  0  0  0  0
  -28.4010  -12.7220   18.8200 C   0  0  0  0  0  2  0  0  0  0  0  0
  -27.9470  -13.5940   20.0210 C   0  0  0  0  0  3  0  0  0  0  0  0
  -28.9240  -13.4820   21.2140 C   0  0  0  0  0  2  0  0  0  0  0  0
  -30.2580  -13.8550   20.7250 N   0  0  0  0  0  0  0  0  0  0  0  0
  -32.0370  -15.2310   20.5060 O   0  0  0  0  0  0  0  0  0  0  0  0
  -30.0460  -16.1910   21.1330 N   0  0  0  0  0  0  0  0  0  0  0  0
  -29.2040  -15.9190   21.6160 H   0  0  0  0  0  0  0  0  0  0  0  0
  -25.5100  -14.1710   20.5790 C   0  0  0  0  0  0  0  0  0  0  0  0
  -24.4230  -13.3920   20.8720 C   0  0  0  0  0  0  0  0  0  0  0  0
  -24.8950  -12.0430   20.8750 C   0  0  0  0  0  0  0  0  0  0  0  0
  -26.5720  -13.2990   20.4150 N   0  0  0  0  0  0  0  0  0  0  0  0
  -26.2050  -12.0130   20.6570 N   0  0  0  0  0  0  0  0  0  0  0  0
  -24.1650  -10.7750   21.0130 C   0  0  0  0  0  0  0  0  0  0  0  0
  -24.5170   -9.8220   21.9930 C   0  0  0  0  0  3  0  0  0  0  0  0
  -23.7870   -8.6200   22.1190 C   0  0  0  0  0  3  0  0  0  0  0  0
  -22.6910   -8.3620   21.2610 C   0  0  0  0  0  0  0  0  0  0  0  0
  -22.3610   -9.3040   20.2710 C   0  0  0  0  0  3  0  0  0  0  0  0
  -23.0920  -10.4960   20.1440 C   0  0  0  0  0  3  0  0  0  0  0  0
  -21.9420   -7.2120   21.2930 O   0  0  0  0  0  0  0  0  0  0  0  0
  -21.7660   -6.4980   22.4520 C   0  0  0  0  0  0  0  0  0  0  0  0
  -21.1460   -7.0620   23.5880 C   0  0  0  0  0  3  0  0  0  0  0  0
  -20.9230   -6.2720   24.7340 C   0  0  0  0  0  3  0  0  0  0  0  0
  -21.3110   -4.9180   24.7430 C   0  0  0  0  0  0  0  0  0  0  0  0
  -21.9250   -4.3540   23.6110 C   0  0  0  0  0  3  0  0  0  0  0  0
  -22.1490   -5.1420   22.4680 C   0  0  0  0  0  0  0  0  0  0  0  0
  -22.7200   -4.5870   21.3720 F   0  0  0  0  0  0  0  0  0  0  0  0
  -21.0920   -4.1570   25.8400 F   0  0  0  0  0  0  0  0  0  0  0  0
  -23.0070  -13.8600   21.0430 C   0  0  0  0  0  0  0  0  0  0  0  0
  -22.2230  -13.1620   21.8570 N   0  0  0  0  0  0  0  0  0  0  0  0
  -22.6010  -14.8800   20.4880 O   0  0  0  0  0  0  0  0  0  0  0  0
  -22.5640  -12.3370   22.3290 H   0  0  0  0  0  0  0  0  0  0  0  0
  -21.2700  -13.4560   22.0120 H   0  0  0  0  0  0  0  0  0  0  0  0
  -25.6820  -15.5440   20.4120 N   0  0  0  0  0  0  0  0  0  0  0  0
  -24.9110  -16.1980   20.4740 H   0  0  0  0  0  0  0  0  0  0  0  0
  -26.5500  -15.9800   20.1320 H   0  0  0  0  0  0  0  0  0  0  0  0
  -30.7800  -17.1170   16.8780 C   0  0  0  0  0  1  0  0  0  0  0  0
  -29.9030  -16.7510   18.0800 C   0  0  0  0  0  2  0  0  0  0  0  0
  -28.8310  -23.9080   20.9780 C   0  0  0  0  0  3  0  0  0  0  0  0
  -28.2810  -23.7050   22.2730 O   0  0  0  0  0  0  0  0  0  0  0  0
  -28.2320  -24.5590   22.6900 H   0  0  0  0  0  0  0  0  0  0  0  0
  -27.9870  -25.1110   20.2660 C   0  0  0  0  0  2  0  0  0  0  0  0
  -28.2620  -26.5910   20.4530 O   0  0  0  0  0  0  0  0  0  0  0  0
  -24.6770  -32.1900   23.4030 C   0  0  0  0  0  0  0  0  0  0  0  0
  -27.1830  -27.5130   20.3750 C   0  0  0  0  0  0  0  0  0  0  0  0
  -23.4330  -30.7700   21.8160 C   0  0  0  0  0  3  0  0  0  0  0  0
  -24.8430  -29.1900   20.3790 C   0  0  0  0  0  0  0  0  0  0  0  0
  -25.9740  -31.0600   21.5730 C   0  0  0  0  0  2  0  0  0  0  0  0
  -26.0320  -29.6670   20.9450 C   0  0  0  0  0  0  0  0  0  0  0  0
  -27.2050  -28.8400   20.9300 C   0  0  0  0  0  3  0  0  0  0  0  0
  -25.9700  -27.1200   19.7630 C   0  0  0  0  0  3  0  0  0  0  0  0
  -24.8170  -27.9250   19.7780 C   0  0  0  0  0  3  0  0  0  0  0  0
  -23.6150  -30.0770   20.4400 C   0  0  0  0  0  2  0  0  0  0  0  0
  -24.7150  -31.3600   22.3190 N   0  0  0  0  0  0  0  0  0  0  0  0
  -23.6050  -32.4810   23.9560 O   0  0  0  0  0  0  0  0  0  0  0  0
  -22.7850  -29.7720   22.8060 C   0  0  0  0  0  0  0  0  0  0  0  0
  -21.4930  -29.4630   22.6030 N   0  0  0  0  0  0  0  0  0  0  0  0
  -23.4490  -29.2750   23.7210 O   0  0  0  0  0  0  0  0  0  0  0  0
  -21.0140  -29.9170   21.8390 H   0  0  0  0  0  0  0  0  0  0  0  0
  -18.2310  -27.9200   22.9000 C   0  0  0  0  0  0  0  0  0  0  0  0
  -20.7020  -28.5140   23.3880 C   0  0  0  0  0  3  0  0  0  0  0  0
  -21.0230  -27.0550   22.9900 C   0  0  0  0  0  2  0  0  0  0  0  0
  -20.0820  -26.5010   21.9150 C   0  0  0  0  0  2  0  0  0  0  0  0
  -18.6290  -26.5410   22.3990 C   0  0  0  0  0  2  0  0  0  0  0  0
  -19.2050  -28.8520   23.3490 C   0  0  0  0  0  0  0  0  0  0  0  0
  -18.7840  -30.1310   23.7720 C   0  0  0  0  0  3  0  0  0  0  0  0
  -17.4210  -30.4830   23.7540 C   0  0  0  0  0  3  0  0  0  0  0  0
  -16.4600  -29.5520   23.3230 C   0  0  0  0  0  3  0  0  0  0  0  0
  -16.8660  -28.2730   22.9010 C   0  0  0  0  0  3  0  0  0  0  0  0
  -25.9740  -32.8310   23.9860 C   0  0  0  0  0  3  0  0  0  0  0  0
  -26.5060  -32.0890   25.2720 C   0  0  1  0  0  0  0  0  0  0  0  0
  -25.4100  -31.8040   26.3270 C   0  0  0  0  0  1  0  0  0  0  0  0
  -27.1580  -30.7370   24.8970 C   0  0  0  0  0  1  0  0  0  0  0  0
  -27.6080  -32.9380   25.9480 C   0  0  0  0  0  1  0  0  0  0  0  0
  -25.6770  -34.2390   24.2890 N   0  0  0  0  0  0  0  0  0  0  0  0
  -25.9820  -35.2720   23.4920 C   0  0  0  0  0  0  0  0  0  0  0  0
  -26.6130  -35.1390   22.4400 O   0  0  0  0  0  0  0  0  0  0  0  0
  -25.1170  -34.4150   25.1090 H   0  0  0  0  0  0  0  0  0  0  0  0
  -24.2420  -37.0580   23.1630 C   0  0  0  0  0  1  0  0  0  0  0  0
  -25.5160  -36.6730   23.9320 C   0  0  0  0  0  3  0  0  0  0  0  0
  -27.6770  -37.5870   24.6560 C   0  0  0  0  0  1  0  0  0  0  0  0
  -26.5430  -37.7220   23.7460 N   0  0  0  0  0  0  0  0  0  0  0  0
  -26.1410  -38.6460   23.8740 H   0  0  0  0  0  0  0  0  0  0  0  0
  1  2  2  0
  2 18  1  0
  2  5  1  0
  3  6  1  0
  3  5  2  0
  4  6  1  0
  4 50  1  0
  6  9  1  0
  7  4  2  0
  8  1  1  0
  8  3  1  0
 10 18  1  0
 11 16  1  0
 12 13  1  0
 12 11  1  0
 14 13  1  0
 14 23  1  0
 14 15  1  0
 16 10  1  0
 16 15  1  0
 17 10  2  0
 18 19  1  0
 20 21  2  0
 21 22  1  0
 21 40  1  0
 22 25  1  0
 23 20  1  0
 23 24  1  0
 24 22  2  0
 25 26  1  0
 26 27  2  0
 28 31  1  0
 28 27  1  0
 29 28  2  0
 30 29  1  0
 30 25  2  0
 31 32  1  0
 32 37  2  0
 32 33  1  0
 33 34  2  0
 34 35  1  0
 35 39  1  0
 36 35  2  0
 37 36  1  0
 38 37  1  0
 40 41  1  0
 41 44  1  0
 41 43  1  0
 42 40  2  0
 45 46  1  0
 45 20  1  0
 47 45  1  0
 48 49  1  0
 49  1  1  0
 50 53  1  0
 50 51  1  0
 51 52  1  0
 53 54  1  0
 55 66  2  0
 56 54  1  0
 56 61  1  0
 57 65  1  0
 57 67  1  0
 58 64  1  0
 58 60  1  0
 59 65  1  0
 60 59  1  0
 61 60  2  0
 62 63  1  0
 62 56  2  0
 63 58  2  0
 64 57  1  0
 65 55  1  0
 67 69  2  0
 68 67  1  0
 70 68  1  0
 71 80  2  0
 71 76  1  0
 72 68  1  0
 73 72  1  0
 74 75  1  0
 74 73  1  0
 75 71  1  0
 76 72  1  0
 76 77  2  0
 78 77  1  0
 79 78  2  0
 80 79  1  0
 81 55  1  0
 81 86  1  0
 81 82  1  0
 82 85  1  1
 82 83  1  0
 84 82  1  0
 86 89  1  0
 87 91  1  0
 87 86  1  0
 88 87  2  0
 91 90  1  0
 93 94  1  0
 93 91  1  0
 93 92  1  0
M  ISO  4  10 100  18 100  53 101  54 101
M  END
>  <TORSDO>  (24) 
F 20

>  <SCORE>  (24) 
-12.592

>  <name>  (24) 
23

>  <ligand_id>  (24) 
23

>  <original_smiles>  (24) 
[H]OC([H])(C(=O)N([H])c1nc(N([H])C(=O)N2C([H])([H])C([H])([H])C([H])([H])C([H])(n3nc(-c4c([H])c([H])c(Oc5c([H])c([H])c(F)c([H])c5F)c([H])c4[H])c(C(=O)N([H])[H])c3N([H])[H])C2([H])[H])c(C([H])([H])C([H])([H])[H])s1)C([H])([H])Oc1c([H])c([H])c2c(c1[H])C([H])([H])N(C(=O)C([H])(N([H])C(=O)C([H])(N([H])C([H])([H])[H])C([H])([H])[H])C(C([H])([H])[H])(C([H])([H])[H])C([H])([H])[H])C([H])(C(=O)N([H])C1([H])c3c([H])c([H])c([H])c([H])c3C([H])([H])C([H])([H])C1([H])[H])C2([H])[H]

>  <smiles>  (24) 
[H]OC([H])(C(=O)N([H])c1nc(N([H])C(=O)N2C([H])([H])C([H])([H])C([H])([H])C([H])(n3nc(-c4c([H])c([H])c(Oc5c([H])c([H])c(F)c([H])c5F)c([H])c4[H])c(C(=O)N([H])[H])c3N([H])[H])C2([H])[H])c(C([H])([H])C([H])([H])[H])s1)C([H])([H])Oc1c([H])c([H])c2c(c1[H])C([H])([H])N(C(=O)C([H])(N([H])C(=O)C([H])(N([H])C([H])([H])[H])C([H])([H])[H])C(C([H])([H])[H])(C([H])([H])[H])C([H])([H])[H])C([H])(C(=O)N([H])C1([H])c3c([H])c([H])c([H])c([H])c3C([H])([H])C([H])([H])C1([H])[H])C2([H])[H]

$$$$
24:0:0
     RDKit          3D

 96104  0  0  1  0  0  0  0  0999 V2000
  -30.4960  -15.1530   20.3580 C   0  0  0  0  0  0  0  0  0  0  0  0
  -30.4070  -12.7350   19.5110 C   0  0  0  0  0  2  0  0  0  0  0  0
  -29.5060  -12.5800   18.2630 C   0  0  0  0  0  2  0  0  0  0  0  0
  -28.0420  -12.3490   18.6800 C   0  0  0  0  0  2  0  0  0  0  0  0
  -27.5890  -13.3200   19.7990 C   0  0  0  0  0  3  0  0  0  0  0  0
  -28.6220  -13.4370   20.9410 C   0  0  0  0  0  2  0  0  0  0  0  0
  -29.8860  -13.8800   20.3330 N   0  0  0  0  0  0  0  0  0  0  0  0
  -31.7160  -15.1110   20.1430 O   0  0  0  0  0  0  0  0  0  0  0  0
  -31.7470  -19.3440   19.5790 C   0  0  0  0  0  3  0  0  0  0  0  0
  -30.9840  -20.5220   19.7460 C   0  0  0  0  0  0  0  0  0  0  0  0
  -29.6140  -20.4290   20.1290 C   0  0  0  0  0  0  0  0  0  0  0  0
  -30.0750  -17.8900   20.2140 C   0  0  0  0  0  0  0  0  0  0  0  0
  -28.8960  -23.1940   19.9060 C   0  0  0  0  0  0  0  0  0  0  0  0
  -31.3100  -18.0940   19.7960 N   0  0  0  0  0  0  0  0  0  0  0  0
  -29.2330  -19.0420   20.3690 N   0  0  0  0  0  0  0  0  0  0  0  0
  -28.8070  -21.7870   20.3130 N   0  0  0  0  0  0  0  0  0  0  0  0
  -29.7640  -16.4180   20.4370 N   0  0  0  0  0  0  0  0  0  0  0  0
  -29.7230  -23.5280   19.0530 O   0  0  0  0  0  0  0  0  0  0  0  0
  -28.0050  -21.6430   20.9050 H   0  0  0  0  0  0  0  0  0  0  0  0
  -28.7940  -16.2710   20.6570 H   0  0  0  0  0  0  0  0  0  0  0  0
  -25.2010  -13.8930   20.5040 C   0  0  0  0  0  0  0  0  0  0  0  0
  -24.1320  -13.1210   20.8650 C   0  0  0  0  0  0  0  0  0  0  0  0
  -24.5980  -11.7690   20.8490 C   0  0  0  0  0  0  0  0  0  0  0  0
  -26.2490  -13.0150   20.2850 N   0  0  0  0  0  0  0  0  0  0  0  0
  -25.8950  -11.7320   20.5590 N   0  0  0  0  0  0  0  0  0  0  0  0
  -23.8680  -10.5080   21.0340 C   0  0  0  0  0  0  0  0  0  0  0  0
  -24.2820   -9.5420   21.9780 C   0  0  0  0  0  3  0  0  0  0  0  0
  -23.5480   -8.3480   22.1510 C   0  0  0  0  0  3  0  0  0  0  0  0
  -22.3850   -8.1100   21.3790 C   0  0  0  0  0  0  0  0  0  0  0  0
  -21.9900   -9.0650   20.4240 C   0  0  0  0  0  3  0  0  0  0  0  0
  -22.7260  -10.2500   20.2500 C   0  0  0  0  0  3  0  0  0  0  0  0
  -21.6280   -6.9670   21.4580 O   0  0  0  0  0  0  0  0  0  0  0  0
  -21.5540   -6.2310   22.6140 C   0  0  0  0  0  0  0  0  0  0  0  0
  -21.1140   -6.7990   23.8300 C   0  0  0  0  0  3  0  0  0  0  0  0
  -20.9870   -5.9910   24.9770 C   0  0  0  0  0  3  0  0  0  0  0  0
  -21.2890   -4.6190   24.9110 C   0  0  0  0  0  0  0  0  0  0  0  0
  -21.7230   -4.0510   23.7000 C   0  0  0  0  0  3  0  0  0  0  0  0
  -21.8520   -4.8550   22.5530 C   0  0  0  0  0  0  0  0  0  0  0  0
  -22.2510   -4.3000   21.3840 F   0  0  0  0  0  0  0  0  0  0  0  0
  -21.1600   -3.8410   26.0110 F   0  0  0  0  0  0  0  0  0  0  0  0
  -22.7310  -13.5990   21.1020 C   0  0  0  0  0  0  0  0  0  0  0  0
  -21.9860  -12.9190   21.9670 N   0  0  0  0  0  0  0  0  0  0  0  0
  -22.3030  -14.6150   20.5570 O   0  0  0  0  0  0  0  0  0  0  0  0
  -22.3420  -12.0990   22.4350 H   0  0  0  0  0  0  0  0  0  0  0  0
  -21.0470  -13.2280   22.1670 H   0  0  0  0  0  0  0  0  0  0  0  0
  -25.3650  -15.2620   20.3160 N   0  0  0  0  0  0  0  0  0  0  0  0
  -24.5800  -15.9030   20.3790 H   0  0  0  0  0  0  0  0  0  0  0  0
  -26.1930  -15.6930   19.9280 H   0  0  0  0  0  0  0  0  0  0  0  0
  -31.6570  -21.7320   19.5620 N   0  0  0  0  0  0  0  0  0  0  0  0
  -32.5100  -21.7340   19.0080 H   0  0  0  0  0  0  0  0  0  0  0  0
  -31.0630  -22.5470   19.3630 H   0  0  0  0  0  0  0  0  0  0  0  0
  -27.9050  -24.4990   20.3740 C   0  0  0  0  0  3  0  0  0  0  0  0
  -28.6530  -25.1100   22.7700 C   0  0  0  0  0  1  0  0  0  0  0  0
  -26.1740  -24.8860   22.2640 C   0  0  0  0  0  1  0  0  0  0  0  0
  -27.5930  -24.4130   21.8990 C   0  0  0  0  0  3  0  0  0  0  0  0
  -28.2010  -26.0400   20.0330 O   0  0  0  0  0  0  0  0  0  0  0  0
  -24.6540  -31.8570   23.1030 C   0  0  0  0  0  0  0  0  0  0  0  0
  -27.1770  -27.0870   20.0150 C   0  0  0  0  0  0  0  0  0  0  0  0
  -23.4350  -30.4620   21.4810 C   0  0  0  0  0  3  0  0  0  0  0  0
  -24.8640  -28.8880   20.0260 C   0  0  0  0  0  0  0  0  0  0  0  0
  -25.9930  -30.7090   21.2870 C   0  0  0  0  0  2  0  0  0  0  0  0
  -26.0580  -29.3130   20.6240 C   0  0  0  0  0  0  0  0  0  0  0  0
  -27.2150  -28.4320   20.5970 C   0  0  0  0  0  3  0  0  0  0  0  0
  -25.9590  -26.7930   19.3670 C   0  0  0  0  0  3  0  0  0  0  0  0
  -24.8330  -27.6450   19.3780 C   0  0  0  0  0  3  0  0  0  0  0  0
  -23.6390  -29.7890   20.0980 C   0  0  0  0  0  2  0  0  0  0  0  0
  -24.7160  -31.0330   22.0100 N   0  0  0  0  0  0  0  0  0  0  0  0
  -23.5740  -32.1400   23.6460 O   0  0  0  0  0  0  0  0  0  0  0  0
  -22.7670  -29.4540   22.4520 C   0  0  0  0  0  0  0  0  0  0  0  0
  -21.4370  -29.2870   22.3510 N   0  0  0  0  0  0  0  0  0  0  0  0
  -23.4520  -28.8250   23.2650 O   0  0  0  0  0  0  0  0  0  0  0  0
  -20.9410  -29.8430   21.6690 H   0  0  0  0  0  0  0  0  0  0  0  0
  -18.0610  -28.0890   22.9250 C   0  0  0  0  0  0  0  0  0  0  0  0
  -20.6280  -28.3470   23.1330 C   0  0  0  0  0  3  0  0  0  0  0  0
  -20.7130  -26.9190   22.5480 C   0  0  0  0  0  2  0  0  0  0  0  0
  -19.5870  -26.6050   21.5570 C   0  0  0  0  0  2  0  0  0  0  0  0
  -18.2210  -26.7450   22.2330 C   0  0  0  0  0  2  0  0  0  0  0  0
  -19.1920  -28.8480   23.3330 C   0  0  0  0  0  0  0  0  0  0  0  0
  -18.9870  -30.1040   23.9450 C   0  0  0  0  0  3  0  0  0  0  0  0
  -17.6870  -30.6030   24.1470 C   0  0  0  0  0  3  0  0  0  0  0  0
  -16.5730  -29.8440   23.7530 C   0  0  0  0  0  3  0  0  0  0  0  0
  -16.7600  -28.5880   23.1490 C   0  0  0  0  0  3  0  0  0  0  0  0
  -25.9360  -32.4980   23.7130 C   0  0  0  0  0  3  0  0  0  0  0  0
  -25.6100  -33.8830   24.0930 N   0  0  0  0  0  0  0  0  0  0  0  0
  -25.9110  -34.9680   23.3650 C   0  0  0  0  0  0  0  0  0  0  0  0
  -26.5540  -34.9080   22.3140 O   0  0  0  0  0  0  0  0  0  0  0  0
  -25.0340  -34.0030   24.9130 H   0  0  0  0  0  0  0  0  0  0  0  0
  -24.1530  -36.7520   23.1210 C   0  0  0  0  0  1  0  0  0  0  0  0
  -25.4210  -36.3360   23.8830 C   0  0  0  0  0  3  0  0  0  0  0  0
  -27.5680  -37.2190   24.6820 C   0  0  0  0  0  1  0  0  0  0  0  0
  -26.4380  -37.4050   23.7760 N   0  0  0  0  0  0  0  0  0  0  0  0
  -26.0270  -38.3150   23.9640 H   0  0  0  0  0  0  0  0  0  0  0  0
  -26.4910  -31.7040   24.9610 C   0  0  1  0  0  0  0  0  0  0  0  0
  -25.4260  -31.4370   26.0510 C   0  0  0  0  0  1  0  0  0  0  0  0
  -27.0760  -30.3380   24.5350 C   0  0  0  0  0  1  0  0  0  0  0  0
  -27.6520  -32.4960   25.6080 C   0  0  0  0  0  1  0  0  0  0  0  0
  1 17  1  0
  2  7  1  0
  3  4  1  0
  3  2  1  0
  5  4  1  0
  5 24  1  0
  5  6  1  0
  7  1  1  0
  7  6  1  0
  8  1  2  0
  9 10  2  0
  9 14  1  0
 10 11  1  0
 11 16  1  0
 11 15  2  0
 12 15  1  0
 12 17  1  0
 13 16  1  0
 14 12  2  0
 16 19  1  0
 17 20  1  0
 18 13  2  0
 21 22  2  0
 22 41  1  0
 23 22  1  0
 23 26  1  0
 24 21  1  0
 24 25  1  0
 25 23  2  0
 26 27  1  0
 27 28  2  0
 29 32  1  0
 29 28  1  0
 30 29  2  0
 31 30  1  0
 31 26  2  0
 32 33  1  0
 33 34  1  0
 34 35  2  0
 36 35  1  0
 36 40  1  0
 37 36  2  0
 38 33  2  0
 38 37  1  0
 39 38  1  0
 41 42  1  0
 42 45  1  0
 42 44  1  0
 43 41  2  0
 46 47  1  0
 46 21  1  0
 48 46  1  0
 49 10  1  0
 50 49  1  0
 51 49  1  0
 52 13  1  0
 52 55  1  0
 55 54  1  0
 55 53  1  0
 56 52  1  0
 57 68  2  0
 58 56  1  0
 58 63  1  0
 59 67  1  0
 59 69  1  0
 60 66  1  0
 60 62  1  0
 61 67  1  0
 62 61  1  0
 63 62  2  0
 64 65  1  0
 64 58  2  0
 65 60  2  0
 66 59  1  0
 67 57  1  0
 69 71  2  0
 70 69  1  0
 72 70  1  0
 73 82  2  0
 73 78  1  0
 74 70  1  0
 74 78  1  0
 75 74  1  0
 76 77  1  0
 76 75  1  0
 77 73  1  0
 78 79  2  0
 79 80  1  0
 81 80  2  0
 82 81  1  0
 83 57  1  0
 83 84  1  0
 83 93  1  0
 84 87  1  0
 85 89  1  0
 85 84  1  0
 86 85  2  0
 89 88  1  0
 91 89  1  0
 91 92  1  0
 91 90  1  0
 93 96  1  1
 93 94  1  0
 95 93  1  0
M  ISO  4   1 100  17 100  52 101  56 101
M  END
>  <TORSDO>  (25) 
F 18

>  <SCORE>  (25) 
-15.261

>  <name>  (25) 
24

>  <ligand_id>  (25) 
24

>  <original_smiles>  (25) 
[H]c1nc(N([H])C(=O)N2C([H])([H])C([H])([H])C([H])([H])C([H])(n3nc(-c4c([H])c([H])c(Oc5c([H])c([H])c(F)c([H])c5F)c([H])c4[H])c(C(=O)N([H])[H])c3N([H])[H])C2([H])[H])nc(N([H])C(=O)C([H])(Oc2c([H])c([H])c3c(c2[H])C([H])([H])N(C(=O)C([H])(N([H])C(=O)C([H])(N([H])C([H])([H])[H])C([H])([H])[H])C(C([H])([H])[H])(C([H])([H])[H])C([H])([H])[H])C([H])(C(=O)N([H])C2([H])c4c([H])c([H])c([H])c([H])c4C([H])([H])C([H])([H])C2([H])[H])C3([H])[H])C([H])(C([H])([H])[H])C([H])([H])[H])c1N([H])[H]

>  <smiles>  (25) 
[H]c1nc(N([H])C(=O)N2C([H])([H])C([H])([H])C([H])([H])C([H])(n3nc(-c4c([H])c([H])c(Oc5c([H])c([H])c(F)c([H])c5F)c([H])c4[H])c(C(=O)N([H])[H])c3N([H])[H])C2([H])[H])nc(N([H])C(=O)C([H])(Oc2c([H])c([H])c3c(c2[H])C([H])([H])N(C(=O)C([H])(N([H])C(=O)C([H])(N([H])C([H])([H])[H])C([H])([H])[H])C(C([H])([H])[H])(C([H])([H])[H])C([H])([H])[H])C([H])(C(=O)N([H])C2([H])c4c([H])c([H])c([H])c([H])c4C([H])([H])C([H])([H])C2([H])[H])C3([H])[H])C([H])(C([H])([H])[H])C([H])([H])[H])c1N([H])[H]

$$$$
25:0:0
     RDKit          3D

 90 98  0  0  1  0  0  0  0  0999 V2000
  -28.9710  -22.3230   20.6140 C   0  0  0  0  0  3  0  0  0  0  0  0
  -26.6890  -23.2840   19.9770 C   0  0  0  0  0  1  0  0  0  0  0  0
  -28.1830  -23.6410   20.0530 C   0  0  2  0  0  0  0  0  0  0  0  0
  -28.6110  -23.8080   18.8000 F   0  0  0  0  0  0  0  0  0  0  0  0
  -28.3580  -25.0850   20.7960 C   0  0  0  0  0  2  0  0  0  0  0  0
  -28.3410  -26.4380   20.1330 O   0  0  0  0  0  0  0  0  0  0  0  0
  -24.6290  -31.8880   23.2240 C   0  0  0  0  0  0  0  0  0  0  0  0
  -27.2210  -27.2890   20.1820 C   0  0  0  0  0  0  0  0  0  0  0  0
  -23.4190  -30.4870   21.5920 C   0  0  0  0  0  3  0  0  0  0  0  0
  -24.8630  -28.9250   20.1700 C   0  0  0  0  0  0  0  0  0  0  0  0
  -25.9600  -30.7920   21.4030 C   0  0  0  0  0  2  0  0  0  0  0  0
  -26.0340  -29.4060   20.7680 C   0  0  0  0  0  0  0  0  0  0  0  0
  -27.2170  -28.6000   20.7650 C   0  0  0  0  0  3  0  0  0  0  0  0
  -26.0390  -26.8860   19.5310 C   0  0  0  0  0  3  0  0  0  0  0  0
  -24.8680  -27.6700   19.5400 C   0  0  0  0  0  3  0  0  0  0  0  0
  -23.6290  -29.8050   20.2140 C   0  0  0  0  0  2  0  0  0  0  0  0
  -24.6880  -31.0750   22.1280 N   0  0  0  0  0  0  0  0  0  0  0  0
  -23.5470  -32.1680   23.7610 O   0  0  0  0  0  0  0  0  0  0  0  0
  -22.7580  -29.4730   22.5570 C   0  0  0  0  0  0  0  0  0  0  0  0
  -21.4310  -29.2980   22.4390 N   0  0  0  0  0  0  0  0  0  0  0  0
  -23.4390  -28.8480   23.3740 O   0  0  0  0  0  0  0  0  0  0  0  0
  -20.9400  -29.8540   21.7530 H   0  0  0  0  0  0  0  0  0  0  0  0
  -18.0540  -28.1070   22.9600 C   0  0  0  0  0  0  0  0  0  0  0  0
  -20.6140  -28.3630   23.2150 C   0  0  0  0  0  3  0  0  0  0  0  0
  -20.7120  -26.9300   22.6420 C   0  0  0  0  0  2  0  0  0  0  0  0
  -19.6030  -26.6080   21.6340 C   0  0  0  0  0  2  0  0  0  0  0  0
  -18.2250  -26.7560   22.2850 C   0  0  0  0  0  2  0  0  0  0  0  0
  -19.1760  -28.8690   23.3830 C   0  0  0  0  0  0  0  0  0  0  0  0
  -18.9610  -30.1330   23.9740 C   0  0  0  0  0  3  0  0  0  0  0  0
  -17.6580  -30.6360   24.1460 C   0  0  0  0  0  3  0  0  0  0  0  0
  -16.5510  -29.8710   23.7400 C   0  0  0  0  0  3  0  0  0  0  0  0
  -16.7500  -28.6090   23.1520 C   0  0  0  0  0  3  0  0  0  0  0  0
  -25.9140  -32.5220   23.8400 C   0  0  0  0  0  3  0  0  0  0  0  0
  -26.4420  -31.7470   25.1090 C   0  0  1  0  0  0  0  0  0  0  0  0
  -25.3580  -31.5030   26.1840 C   0  0  0  0  0  1  0  0  0  0  0  0
  -27.0250  -30.3710   24.7080 C   0  0  0  0  0  1  0  0  0  0  0  0
  -27.5970  -32.5410   25.7640 C   0  0  0  0  0  1  0  0  0  0  0  0
  -25.6010  -33.9180   24.1800 N   0  0  0  0  0  0  0  0  0  0  0  0
  -25.9240  -34.9780   23.4260 C   0  0  0  0  0  0  0  0  0  0  0  0
  -26.5850  -34.8840   22.3890 O   0  0  0  0  0  0  0  0  0  0  0  0
  -25.0130  -34.0650   24.9870 H   0  0  0  0  0  0  0  0  0  0  0  0
  -24.1860  -36.7670   23.1010 C   0  0  0  0  0  1  0  0  0  0  0  0
  -25.4360  -36.3620   23.8970 C   0  0  0  0  0  3  0  0  0  0  0  0
  -27.5770  -37.2480   24.7120 C   0  0  0  0  0  1  0  0  0  0  0  0
  -26.4640  -37.4190   23.7820 N   0  0  0  0  0  0  0  0  0  0  0  0
  -26.0560  -38.3360   23.9410 H   0  0  0  0  0  0  0  0  0  0  0  0
  -28.5960  -20.8590   20.0190 C   0  0  0  0  0  3  0  0  0  0  0  0
  -28.8310  -18.2390   20.3980 C   0  0  0  0  0  3  0  0  0  0  0  0
  -30.6740  -19.3480   20.4700 C   0  0  0  0  0  3  0  0  0  0  0  0
  -29.8720  -17.3060   20.5300 C   0  0  0  0  0  0  0  0  0  0  0  0
  -31.0520  -18.0560   20.5880 N   0  0  0  0  0  0  0  0  0  0  0  0
  -29.3510  -19.5680   20.3380 N   0  0  0  0  0  0  0  0  0  0  0  0
  -30.5520  -14.7530   20.3970 C   0  0  0  0  0  0  0  0  0  0  0  0
  -30.3870  -12.4740   19.3790 C   0  0  0  0  0  2  0  0  0  0  0  0
  -29.4440  -12.5500   18.1560 C   0  0  0  0  0  2  0  0  0  0  0  0
  -27.9730  -12.3760   18.5830 C   0  0  0  0  0  2  0  0  0  0  0  0
  -27.5980  -13.2580   19.8040 C   0  0  0  0  0  3  0  0  0  0  0  0
  -28.6550  -13.1520   20.9260 C   0  0  0  0  0  2  0  0  0  0  0  0
  -29.9530  -13.5150   20.3390 N   0  0  0  0  0  0  0  0  0  0  0  0
  -31.7390  -14.8770   20.0770 O   0  0  0  0  0  0  0  0  0  0  0  0
  -29.7110  -15.8370   20.6060 N   0  0  0  0  0  0  0  0  0  0  0  0
  -28.7620  -15.5400   20.7650 H   0  0  0  0  0  0  0  0  0  0  0  0
  -25.2070  -13.8530   20.5210 C   0  0  0  0  0  0  0  0  0  0  0  0
  -24.1400  -13.0800   20.8920 C   0  0  0  0  0  0  0  0  0  0  0  0
  -24.6040  -11.7290   20.8660 C   0  0  0  0  0  0  0  0  0  0  0  0
  -26.2520  -12.9730   20.2900 N   0  0  0  0  0  0  0  0  0  0  0  0
  -25.8960  -11.6910   20.5610 N   0  0  0  0  0  0  0  0  0  0  0  0
  -23.8780  -10.4670   21.0570 C   0  0  0  0  0  0  0  0  0  0  0  0
  -24.3200   -9.4930   21.9790 C   0  0  0  0  0  3  0  0  0  0  0  0
  -23.5940   -8.2960   22.1580 C   0  0  0  0  0  3  0  0  0  0  0  0
  -22.4120   -8.0650   21.4150 C   0  0  0  0  0  0  0  0  0  0  0  0
  -21.9900   -9.0270   20.4810 C   0  0  0  0  0  3  0  0  0  0  0  0
  -22.7160  -10.2160   20.3000 C   0  0  0  0  0  3  0  0  0  0  0  0
  -21.6570   -6.9210   21.5040 O   0  0  0  0  0  0  0  0  0  0  0  0
  -21.6330   -6.1600   22.6460 C   0  0  0  0  0  0  0  0  0  0  0  0
  -21.2500   -6.7010   23.8920 C   0  0  0  0  0  3  0  0  0  0  0  0
  -21.1730   -5.8680   25.0260 C   0  0  0  0  0  3  0  0  0  0  0  0
  -21.4700   -4.4960   24.9150 C   0  0  0  0  0  0  0  0  0  0  0  0
  -21.8460   -3.9550   23.6730 C   0  0  0  0  0  3  0  0  0  0  0  0
  -21.9250   -4.7850   22.5410 C   0  0  0  0  0  0  0  0  0  0  0  0
  -22.2680   -4.2550   21.3430 F   0  0  0  0  0  0  0  0  0  0  0  0
  -21.3880   -3.6950   26.0020 F   0  0  0  0  0  0  0  0  0  0  0  0
  -22.7410  -13.5570   21.1560 C   0  0  0  0  0  0  0  0  0  0  0  0
  -22.0130  -12.8640   22.0240 N   0  0  0  0  0  0  0  0  0  0  0  0
  -22.3040  -14.5800   20.6300 O   0  0  0  0  0  0  0  0  0  0  0  0
  -22.3800  -12.0390   22.4720 H   0  0  0  0  0  0  0  0  0  0  0  0
  -21.0740  -13.1670   22.2450 H   0  0  0  0  0  0  0  0  0  0  0  0
  -25.3680  -15.2230   20.3350 N   0  0  0  0  0  0  0  0  0  0  0  0
  -24.5860  -15.8640   20.4220 H   0  0  0  0  0  0  0  0  0  0  0  0
  -26.1860  -15.6540   19.9280 H   0  0  0  0  0  0  0  0  0  0  0  0
  3  2  1  6
  3  1  1  0
  3  5  1  0
  4  3  1  0
  6  8  1  0
  6  5  1  0
  7 18  2  0
  8 13  1  0
  9 17  1  0
  9 19  1  0
 10 16  1  0
 10 12  1  0
 11 17  1  0
 12 11  1  0
 13 12  2  0
 14 15  1  0
 14  8  2  0
 15 10  2  0
 16  9  1  0
 17  7  1  0
 19 21  2  0
 20 19  1  0
 22 20  1  0
 23 32  2  0
 23 28  1  0
 24 20  1  0
 24 28  1  0
 25 24  1  0
 26 27  1  0
 26 25  1  0
 27 23  1  0
 28 29  2  0
 29 30  1  0
 31 30  2  0
 32 31  1  0
 33  7  1  0
 33 38  1  0
 33 34  1  0
 34 37  1  1
 34 35  1  0
 36 34  1  0
 38 41  1  0
 39 43  1  0
 39 38  1  0
 40 39  2  0
 43 42  1  0
 45 43  1  0
 45 46  1  0
 45 44  1  0
 47 52  1  0
 47  1  2  0
 48 50  2  0
 49 51  2  0
 50 51  1  0
 50 61  1  0
 52 48  1  0
 52 49  1  0
 53 61  1  0
 54 59  1  0
 55 56  1  0
 55 54  1  0
 57 56  1  0
 57 66  1  0
 57 58  1  0
 59 53  1  0
 59 58  1  0
 60 53  2  0
 61 62  1  0
 63 64  2  0
 64 83  1  0
 65 64  1  0
 65 68  1  0
 66 63  1  0
 66 67  1  0
 67 65  2  0
 68 69  1  0
 69 70  2  0
 71 74  1  0
 71 70  1  0
 72 71  2  0
 73 72  1  0
 73 68  2  0
 74 75  1  0
 75 76  1  0
 76 77  2  0
 78 77  1  0
 78 82  1  0
 79 78  2  0
 80 75  2  0
 80 79  1  0
 81 80  1  0
 83 84  1  0
 84 87  1  0
 84 86  1  0
 85 83  2  0
 88 89  1  0
 88 63  1  0
 90 88  1  0
M  ISO  4   5 101   6 101  53 100  61 100
M  END
>  <TORSDO>  (26) 
F 20

>  <SCORE>  (26) 
-13.939

>  <name>  (26) 
25

>  <ligand_id>  (26) 
25

>  <original_smiles>  (26) 
[H]c1c([H])c([H])c2c(c1[H])C([H])([H])C([H])([H])C([H])([H])C2([H])N([H])C(=O)C1([H])N(C(=O)C([H])(N([H])C(=O)C([H])(N([H])C([H])([H])[H])C([H])([H])[H])C(C([H])([H])[H])(C([H])([H])[H])C([H])([H])[H])C([H])([H])c2c([H])c(OC([H])([H])C(F)(C([H])([H])[H])C([H])([H])C([H])([H])n3c([H])nc(N([H])C(=O)N4C([H])([H])C([H])([H])C([H])([H])C([H])(n5nc(-c6c([H])c([H])c(Oc7c([H])c([H])c(F)c([H])c7F)c([H])c6[H])c(C(=O)N([H])[H])c5N([H])[H])C4([H])[H])c3[H])c([H])c([H])c2C1([H])[H]

>  <smiles>  (26) 
[H]c1c([H])c([H])c2c(c1[H])C([H])([H])C([H])([H])C([H])([H])C2([H])N([H])C(=O)C1([H])N(C(=O)C([H])(N([H])C(=O)C([H])(N([H])C([H])([H])[H])C([H])([H])[H])C(C([H])([H])[H])(C([H])([H])[H])C([H])([H])[H])C([H])([H])c2c([H])c(OC([H])([H])C(F)(C([H])([H])[H])C([H])([H])C([H])([H])n3c([H])nc(N([H])C(=O)N4C([H])([H])C([H])([H])C([H])([H])C([H])(n5nc(-c6c([H])c([H])c(Oc7c([H])c([H])c(F)c([H])c7F)c([H])c6[H])c(C(=O)N([H])[H])c5N([H])[H])C4([H])[H])c3[H])c([H])c([H])c2C1([H])[H]

$$$$
26:0:0
     RDKit          3D

 94102  0  0  1  0  0  0  0  0999 V2000
  -30.6690  -18.5940   19.8190 C   0  0  0  0  0  3  0  0  0  0  0  0
  -29.6870  -17.5600   20.0450 C   0  0  0  0  0  0  0  0  0  0  0  0
  -29.0360  -20.5830   19.8750 C   0  0  0  0  0  0  0  0  0  0  0  0
  -30.3650  -20.0270   19.7350 C   0  0  0  0  0  0  0  0  0  0  0  0
  -28.3850  -18.1290   20.1830 C   0  0  0  0  0  0  0  0  0  0  0  0
  -28.0760  -19.5420   20.1020 C   0  0  0  0  0  0  0  0  0  0  0  0
  -31.3940  -20.8750   19.4950 F   0  0  0  0  0  0  0  0  0  0  0  0
  -27.3640  -17.2590   20.3940 F   0  0  0  0  0  0  0  0  0  0  0  0
  -26.4170  -20.0050   20.2910 Cl  0  0  0  0  0  0  0  0  0  0  0  0
  -30.6300  -14.9480   19.7960 C   0  0  0  0  0  0  0  0  0  0  0  0
  -30.4910  -12.6000   18.8490 C   0  0  0  0  0  2  0  0  0  0  0  0
  -29.4620  -12.5780   17.6930 C   0  0  0  0  0  2  0  0  0  0  0  0
  -28.0360  -12.3490   18.2320 C   0  0  0  0  0  2  0  0  0  0  0  0
  -27.7160  -13.2550   19.4500 C   0  0  0  0  0  3  0  0  0  0  0  0
  -28.8550  -13.2410   20.4940 C   0  0  0  0  0  2  0  0  0  0  0  0
  -30.0840  -13.6660   19.8060 N   0  0  0  0  0  0  0  0  0  0  0  0
  -31.7800  -15.0900   19.3680 O   0  0  0  0  0  0  0  0  0  0  0  0
  -29.7850  -16.0310   20.1280 N   0  0  0  0  0  0  0  0  0  0  0  0
  -28.9310  -15.6570   20.5170 H   0  0  0  0  0  0  0  0  0  0  0  0
  -25.3960  -13.8120   20.3860 C   0  0  0  0  0  0  0  0  0  0  0  0
  -24.3640  -13.0250   20.8170 C   0  0  0  0  0  0  0  0  0  0  0  0
  -24.8220  -11.6770   20.7060 C   0  0  0  0  0  0  0  0  0  0  0  0
  -26.4180  -12.9430   20.0400 N   0  0  0  0  0  0  0  0  0  0  0  0
  -26.0850  -11.6500   20.2960 N   0  0  0  0  0  0  0  0  0  0  0  0
  -24.1090  -10.4080   20.9130 C   0  0  0  0  0  0  0  0  0  0  0  0
  -24.5700   -9.4440   21.8370 C   0  0  0  0  0  3  0  0  0  0  0  0
  -23.8560   -8.2420   22.0310 C   0  0  0  0  0  3  0  0  0  0  0  0
  -22.6680   -7.9950   21.3020 C   0  0  0  0  0  0  0  0  0  0  0  0
  -22.2260   -8.9490   20.3690 C   0  0  0  0  0  3  0  0  0  0  0  0
  -22.9400  -10.1430   20.1720 C   0  0  0  0  0  3  0  0  0  0  0  0
  -21.9240   -6.8450   21.4070 O   0  0  0  0  0  0  0  0  0  0  0  0
  -21.8360   -6.1500   22.5860 C   0  0  0  0  0  0  0  0  0  0  0  0
  -21.3490   -6.7480   23.7690 C   0  0  0  0  0  3  0  0  0  0  0  0
  -21.2090   -5.9790   24.9410 C   0  0  0  0  0  3  0  0  0  0  0  0
  -21.5450   -4.6120   24.9310 C   0  0  0  0  0  0  0  0  0  0  0  0
  -22.0260   -4.0120   23.7530 C   0  0  0  0  0  3  0  0  0  0  0  0
  -22.1670   -4.7800   22.5840 C   0  0  0  0  0  0  0  0  0  0  0  0
  -22.6100   -4.1930   21.4460 F   0  0  0  0  0  0  0  0  0  0  0  0
  -21.4040   -3.8700   26.0550 F   0  0  0  0  0  0  0  0  0  0  0  0
  -22.9930  -13.4930   21.2130 C   0  0  0  0  0  0  0  0  0  0  0  0
  -22.3410  -12.7780   22.1230 N   0  0  0  0  0  0  0  0  0  0  0  0
  -22.5140  -14.5300   20.7530 O   0  0  0  0  0  0  0  0  0  0  0  0
  -22.7430  -11.9400   22.5150 H   0  0  0  0  0  0  0  0  0  0  0  0
  -21.4270  -13.0760   22.4330 H   0  0  0  0  0  0  0  0  0  0  0  0
  -25.5430  -15.1880   20.2400 N   0  0  0  0  0  0  0  0  0  0  0  0
  -24.7970  -15.8340   20.4650 H   0  0  0  0  0  0  0  0  0  0  0  0
  -26.3820  -15.6570   19.9240 H   0  0  0  0  0  0  0  0  0  0  0  0
  -28.9490  -23.3670   19.6320 C   0  0  0  0  0  0  0  0  0  0  0  0
  -28.5150  -22.0280   19.7880 N   0  0  0  0  0  0  0  0  0  0  0  0
  -30.1420  -23.6290   19.4740 O   0  0  0  0  0  0  0  0  0  0  0  0
  -27.5130  -22.0250   19.9150 H   0  0  0  0  0  0  0  0  0  0  0  0
  -27.0830  -24.5640   20.9800 C   0  0  0  0  0  1  0  0  0  0  0  0
  -27.8590  -24.6230   19.6510 C   0  0  0  0  0  3  0  0  0  0  0  0
  -28.2290  -26.1280   19.4550 O   0  0  0  0  0  0  0  0  0  0  0  0
  -24.7110  -31.5320   23.0560 C   0  0  0  0  0  0  0  0  0  0  0  0
  -27.1980  -27.1390   19.5170 C   0  0  0  0  0  0  0  0  0  0  0  0
  -23.4780  -30.3360   21.2920 C   0  0  0  0  0  3  0  0  0  0  0  0
  -24.8930  -28.9060   19.6950 C   0  0  0  0  0  0  0  0  0  0  0  0
  -26.0350  -30.5840   21.1320 C   0  0  0  0  0  2  0  0  0  0  0  0
  -26.0850  -29.2680   20.3370 C   0  0  0  0  0  0  0  0  0  0  0  0
  -27.2390  -28.4030   20.2320 C   0  0  0  0  0  3  0  0  0  0  0  0
  -25.9820  -26.8920   18.8380 C   0  0  0  0  0  3  0  0  0  0  0  0
  -24.8540  -27.7320   18.9320 C   0  0  0  0  0  3  0  0  0  0  0  0
  -23.6790  -29.8090   19.8470 C   0  0  0  0  0  2  0  0  0  0  0  0
  -24.7620  -30.8330   21.8830 N   0  0  0  0  0  0  0  0  0  0  0  0
  -23.6330  -31.7740   23.6220 O   0  0  0  0  0  0  0  0  0  0  0  0
  -22.7930  -29.2400   22.1460 C   0  0  0  0  0  0  0  0  0  0  0  0
  -21.4570  -29.1260   22.0390 N   0  0  0  0  0  0  0  0  0  0  0  0
  -23.4640  -28.5000   22.8690 O   0  0  0  0  0  0  0  0  0  0  0  0
  -20.9730  -29.7750   21.4350 H   0  0  0  0  0  0  0  0  0  0  0  0
  -18.0440  -28.0290   22.5640 C   0  0  0  0  0  0  0  0  0  0  0  0
  -20.6240  -28.1300   22.7210 C   0  0  0  0  0  3  0  0  0  0  0  0
  -20.6170  -26.7890   21.9510 C   0  0  0  0  0  2  0  0  0  0  0  0
  -19.4510  -26.6630   20.9660 C   0  0  0  0  0  2  0  0  0  0  0  0
  -18.1120  -26.7810   21.7000 C   0  0  0  0  0  2  0  0  0  0  0  0
  -19.2230  -28.6700   23.0300 C   0  0  0  0  0  0  0  0  0  0  0  0
  -19.1000  -29.8450   23.8050 C   0  0  0  0  0  3  0  0  0  0  0  0
  -17.8330  -30.3770   24.1130 C   0  0  0  0  0  3  0  0  0  0  0  0
  -16.6710  -29.7290   23.6600 C   0  0  0  0  0  3  0  0  0  0  0  0
  -16.7770  -28.5560   22.8920 C   0  0  0  0  0  3  0  0  0  0  0  0
  -26.0030  -32.0800   23.7360 C   0  0  0  0  0  3  0  0  0  0  0  0
  -25.7100  -33.4370   24.2240 N   0  0  0  0  0  0  0  0  0  0  0  0
  -26.0320  -34.5670   23.5800 C   0  0  0  0  0  0  0  0  0  0  0  0
  -26.6740  -34.5730   22.5260 O   0  0  0  0  0  0  0  0  0  0  0  0
  -25.1340  -33.5050   25.0500 H   0  0  0  0  0  0  0  0  0  0  0  0
  -24.3040  -36.3950   23.4900 C   0  0  0  0  0  1  0  0  0  0  0  0
  -25.5730  -35.9000   24.2020 C   0  0  0  0  0  3  0  0  0  0  0  0
  -27.7420  -36.6890   25.0410 C   0  0  0  0  0  1  0  0  0  0  0  0
  -26.6080  -36.9560   24.1630 N   0  0  0  0  0  0  0  0  0  0  0  0
  -26.2120  -37.8570   24.4190 H   0  0  0  0  0  0  0  0  0  0  0  0
  -26.5140  -31.1690   24.9190 C   0  0  1  0  0  0  0  0  0  0  0  0
  -25.4260  -30.8430   25.9690 C   0  0  0  0  0  1  0  0  0  0  0  0
  -27.0630  -29.8260   24.3820 C   0  0  0  0  0  1  0  0  0  0  0  0
  -27.6870  -31.8670   25.6470 C   0  0  0  0  0  1  0  0  0  0  0  0
  1  2  1  0
  2 18  1  0
  2  5  2  0
  3  6  2  0
  4  1  2  0
  4  3  1  0
  5  8  1  0
  6  5  1  0
  6  9  1  0
  7  4  1  0
 10 16  1  0
 10 18  1  0
 11 16  1  0
 12 13  1  0
 12 11  1  0
 14 13  1  0
 14 23  1  0
 14 15  1  0
 16 15  1  0
 17 10  2  0
 18 19  1  0
 20 21  2  0
 21 40  1  0
 22 21  1  0
 22 25  1  0
 23 24  1  0
 23 20  1  0
 24 22  2  0
 25 26  1  0
 26 27  2  0
 28 31  1  0
 28 27  1  0
 29 28  2  0
 30 29  1  0
 30 25  2  0
 31 32  1  0
 32 33  1  0
 33 34  2  0
 35 34  1  0
 35 39  1  0
 36 35  2  0
 37 32  2  0
 37 36  1  0
 38 37  1  0
 40 41  1  0
 41 44  1  0
 41 43  1  0
 42 40  2  0
 45 20  1  0
 45 46  1  0
 47 45  1  0
 48 53  1  0
 48 49  1  0
 49  3  1  0
 49 51  1  0
 50 48  2  0
 53 52  1  0
 54 56  1  0
 54 53  1  0
 55 66  2  0
 56 61  1  0
 57 65  1  0
 57 67  1  0
 58 64  1  0
 58 60  1  0
 59 65  1  0
 60 59  1  0
 61 60  2  0
 62 63  1  0
 62 56  2  0
 63 58  2  0
 64 57  1  0
 65 55  1  0
 67 69  2  0
 68 67  1  0
 70 68  1  0
 71 80  2  0
 71 76  1  0
 72 68  1  0
 72 76  1  0
 73 72  1  0
 74 75  1  0
 74 73  1  0
 75 71  1  0
 76 77  2  0
 77 78  1  0
 79 78  2  0
 80 79  1  0
 81 55  1  0
 81 82  1  0
 81 91  1  0
 82 85  1  0
 83 87  1  0
 83 82  1  0
 84 83  2  0
 87 86  1  0
 89 87  1  0
 89 90  1  0
 89 88  1  0
 91 94  1  1
 91 92  1  0
 93 91  1  0
M  ISO  4  10 100  18 100  53 101  54 101
M  END
>  <TORSDO>  (27) 
F 18

>  <SCORE>  (27) 
-12.409

>  <name>  (27) 
26

>  <ligand_id>  (27) 
26

>  <original_smiles>  (27) 
[H]c1c([H])c([H])c2c(c1[H])C([H])([H])C([H])([H])C([H])([H])C2([H])N([H])C(=O)C1([H])N(C(=O)C([H])(N([H])C(=O)C([H])(N([H])C([H])([H])[H])C([H])([H])[H])C(C([H])([H])[H])(C([H])([H])[H])C([H])([H])[H])C([H])([H])c2c([H])c(OC([H])(C(=O)N([H])c3c(F)c([H])c(N([H])C(=O)N4C([H])([H])C([H])([H])C([H])([H])C([H])(n5nc(-c6c([H])c([H])c(Oc7c([H])c([H])c(F)c([H])c7F)c([H])c6[H])c(C(=O)N([H])[H])c5N([H])[H])C4([H])[H])c(F)c3Cl)C([H])([H])[H])c([H])c([H])c2C1([H])[H]

>  <smiles>  (27) 
[H]c1c([H])c([H])c2c(c1[H])C([H])([H])C([H])([H])C([H])([H])C2([H])N([H])C(=O)C1([H])N(C(=O)C([H])(N([H])C(=O)C([H])(N([H])C([H])([H])[H])C([H])([H])[H])C(C([H])([H])[H])(C([H])([H])[H])C([H])([H])[H])C([H])([H])c2c([H])c(OC([H])(C(=O)N([H])c3c(F)c([H])c(N([H])C(=O)N4C([H])([H])C([H])([H])C([H])([H])C([H])(n5nc(-c6c([H])c([H])c(Oc7c([H])c([H])c(F)c([H])c7F)c([H])c6[H])c(C(=O)N([H])[H])c5N([H])[H])C4([H])[H])c(F)c3Cl)C([H])([H])[H])c([H])c([H])c2C1([H])[H]

$$$$
27:0:0
     RDKit          3D

 98106  0  0  1  0  0  0  0  0999 V2000
  -29.4040  -18.5710   20.5720 C   0  0  0  0  0  3  0  0  0  0  0  0
  -29.4190  -19.8560   19.8660 C   0  0  0  0  0  0  0  0  0  0  0  0
  -29.9280  -17.3160   20.0210 C   0  0  0  0  0  0  0  0  0  0  0  0
  -29.9370  -19.8110   18.5400 C   0  0  0  0  0  0  0  0  0  0  0  0
  -30.4470  -17.4040   18.7060 C   0  0  0  0  0  0  0  0  0  0  0  0
  -30.4540  -18.6170   17.9960 C   0  0  0  0  0  0  0  0  0  0  0  0
  -30.8790  -16.2990   18.0510 F   0  0  0  0  0  0  0  0  0  0  0  0
  -30.9160  -18.6220   16.7190 F   0  0  0  0  0  0  0  0  0  0  0  0
  -30.6240  -14.8290   20.4600 C   0  0  0  0  0  0  0  0  0  0  0  0
  -30.4720  -12.5330   19.4960 C   0  0  0  0  0  2  0  0  0  0  0  0
  -29.5780  -12.5890   18.2380 C   0  0  0  0  0  2  0  0  0  0  0  0
  -28.0960  -12.4130   18.6200 C   0  0  0  0  0  2  0  0  0  0  0  0
  -27.6770  -13.3130   19.8150 C   0  0  0  0  0  3  0  0  0  0  0  0
  -28.6980  -13.2470   20.9720 C   0  0  0  0  0  2  0  0  0  0  0  0
  -30.0120  -13.5950   20.4210 N   0  0  0  0  0  0  0  0  0  0  0  0
  -31.8230  -14.9170   20.1770 O   0  0  0  0  0  0  0  0  0  0  0  0
  -29.8430  -15.9670   20.6610 N   0  0  0  0  0  0  0  0  0  0  0  0
  -28.9680  -15.7780   21.1240 H   0  0  0  0  0  0  0  0  0  0  0  0
  -25.2690  -13.8970   20.4700 C   0  0  0  0  0  0  0  0  0  0  0  0
  -24.1980  -13.1210   20.8210 C   0  0  0  0  0  0  0  0  0  0  0  0
  -24.6710  -11.7720   20.8210 C   0  0  0  0  0  0  0  0  0  0  0  0
  -26.3230  -13.0210   20.2720 N   0  0  0  0  0  0  0  0  0  0  0  0
  -25.9690  -11.7400   20.5490 N   0  0  0  0  0  0  0  0  0  0  0  0
  -23.9480  -10.5090   21.0080 C   0  0  0  0  0  0  0  0  0  0  0  0
  -24.3560   -9.5600   21.9700 C   0  0  0  0  0  3  0  0  0  0  0  0
  -23.6330   -8.3600   22.1430 C   0  0  0  0  0  3  0  0  0  0  0  0
  -22.4860   -8.1020   21.3550 C   0  0  0  0  0  0  0  0  0  0  0  0
  -22.0960   -9.0410   20.3840 C   0  0  0  0  0  3  0  0  0  0  0  0
  -22.8200  -10.2320   20.2090 C   0  0  0  0  0  3  0  0  0  0  0  0
  -21.7360   -6.9520   21.4360 O   0  0  0  0  0  0  0  0  0  0  0  0
  -21.6530   -6.2290   22.5980 C   0  0  0  0  0  0  0  0  0  0  0  0
  -21.1640   -6.7960   23.7970 C   0  0  0  0  0  3  0  0  0  0  0  0
  -21.0290   -5.9970   24.9500 C   0  0  0  0  0  3  0  0  0  0  0  0
  -21.3720   -4.6320   24.9060 C   0  0  0  0  0  0  0  0  0  0  0  0
  -21.8510   -4.0640   23.7120 C   0  0  0  0  0  3  0  0  0  0  0  0
  -21.9880   -4.8600   22.5620 C   0  0  0  0  0  0  0  0  0  0  0  0
  -22.4320   -4.3040   21.4090 F   0  0  0  0  0  0  0  0  0  0  0  0
  -21.2360   -3.8620   26.0110 F   0  0  0  0  0  0  0  0  0  0  0  0
  -22.7910  -13.5930   21.0440 C   0  0  0  0  0  0  0  0  0  0  0  0
  -22.0410  -12.9040   21.8970 N   0  0  0  0  0  0  0  0  0  0  0  0
  -22.3630  -14.6080   20.4960 O   0  0  0  0  0  0  0  0  0  0  0  0
  -22.3980  -12.0820   22.3630 H   0  0  0  0  0  0  0  0  0  0  0  0
  -21.0960  -13.2020   22.0880 H   0  0  0  0  0  0  0  0  0  0  0  0
  -25.4300  -15.2660   20.2780 N   0  0  0  0  0  0  0  0  0  0  0  0
  -24.6550  -15.9150   20.3540 H   0  0  0  0  0  0  0  0  0  0  0  0
  -26.2800  -15.7060   19.9490 H   0  0  0  0  0  0  0  0  0  0  0  0
  -29.2670  -22.4490   20.2980 C   0  0  0  0  0  0  0  0  0  0  0  0
  -28.8120  -21.1330   20.3660 N   0  0  0  0  0  0  0  0  0  0  0  0
  -30.4620  -22.6680   20.0940 O   0  0  0  0  0  0  0  0  0  0  0  0
  -27.8950  -21.0310   20.7790 H   0  0  0  0  0  0  0  0  0  0  0  0
  -28.2750  -24.0030   22.0930 C   0  0  0  0  0  1  0  0  0  0  0  0
  -28.3320  -23.7400   20.5730 C   0  0  0  0  0  3  0  0  0  0  0  0
  -28.4280  -25.0230   18.2690 C   0  0  0  0  0  1  0  0  0  0  0  0
  -28.6810  -25.1290   19.7860 C   0  0  0  0  0  3  0  0  0  0  0  0
  -28.4420  -26.5240   20.3160 O   0  0  0  0  0  0  0  0  0  0  0  0
  -24.6130  -31.9120   23.2400 C   0  0  0  0  0  0  0  0  0  0  0  0
  -27.2830  -27.3270   20.2350 C   0  0  0  0  0  0  0  0  0  0  0  0
  -23.4320  -30.4990   21.5960 C   0  0  0  0  0  3  0  0  0  0  0  0
  -24.9040  -28.9440   20.1870 C   0  0  0  0  0  0  0  0  0  0  0  0
  -25.9720  -30.8280   21.4330 C   0  0  0  0  0  2  0  0  0  0  0  0
  -26.0620  -29.4430   20.7940 C   0  0  0  0  0  0  0  0  0  0  0  0
  -27.2500  -28.6460   20.8050 C   0  0  0  0  0  3  0  0  0  0  0  0
  -26.0920  -26.8800   19.6270 C   0  0  0  0  0  3  0  0  0  0  0  0
  -24.9240  -27.6700   19.5930 C   0  0  0  0  0  3  0  0  0  0  0  0
  -23.6600  -29.8120   20.2210 C   0  0  0  0  0  2  0  0  0  0  0  0
  -24.6910  -31.0990   22.1450 N   0  0  0  0  0  0  0  0  0  0  0  0
  -23.5240  -32.1840   23.7670 O   0  0  0  0  0  0  0  0  0  0  0  0
  -22.7670  -29.4860   22.5600 C   0  0  0  0  0  0  0  0  0  0  0  0
  -21.4410  -29.3080   22.4310 N   0  0  0  0  0  0  0  0  0  0  0  0
  -23.4430  -28.8650   23.3830 O   0  0  0  0  0  0  0  0  0  0  0  0
  -20.9550  -29.8640   21.7410 H   0  0  0  0  0  0  0  0  0  0  0  0
  -18.0610  -28.1200   22.9380 C   0  0  0  0  0  0  0  0  0  0  0  0
  -20.6210  -28.3700   23.1990 C   0  0  0  0  0  3  0  0  0  0  0  0
  -20.7160  -26.9400   22.6200 C   0  0  0  0  0  2  0  0  0  0  0  0
  -19.6100  -26.6250   21.6070 C   0  0  0  0  0  2  0  0  0  0  0  0
  -18.2310  -26.7710   22.2560 C   0  0  0  0  0  2  0  0  0  0  0  0
  -19.1840  -28.8760   23.3680 C   0  0  0  0  0  0  0  0  0  0  0  0
  -18.9710  -30.1350   23.9680 C   0  0  0  0  0  3  0  0  0  0  0  0
  -17.6680  -30.6400   24.1400 C   0  0  0  0  0  3  0  0  0  0  0  0
  -16.5590  -29.8800   23.7260 C   0  0  0  0  0  3  0  0  0  0  0  0
  -16.7570  -28.6210   23.1320 C   0  0  0  0  0  3  0  0  0  0  0  0
  -25.8850  -32.5580   23.8730 C   0  0  0  0  0  3  0  0  0  0  0  0
  -26.3820  -31.8100   25.1720 C   0  0  1  0  0  0  0  0  0  0  0  0
  -25.2730  -31.5910   26.2270 C   0  0  0  0  0  1  0  0  0  0  0  0
  -26.9740  -30.4260   24.8160 C   0  0  0  0  0  1  0  0  0  0  0  0
  -27.5220  -32.6190   25.8350 C   0  0  0  0  0  1  0  0  0  0  0  0
  -25.5670  -33.9610   24.1750 N   0  0  0  0  0  0  0  0  0  0  0  0
  -25.9140  -35.0050   23.4100 C   0  0  0  0  0  0  0  0  0  0  0  0
  -26.6030  -34.8880   22.3930 O   0  0  0  0  0  0  0  0  0  0  0  0
  -24.9580  -34.1250   24.9620 H   0  0  0  0  0  0  0  0  0  0  0  0
  -24.2040  -36.8020   22.9910 C   0  0  0  0  0  1  0  0  0  0  0  0
  -25.4200  -36.4000   23.8400 C   0  0  0  0  0  3  0  0  0  0  0  0
  -27.5280  -37.2890   24.7290 C   0  0  0  0  0  1  0  0  0  0  0  0
  -26.4580  -37.4480   23.7490 N   0  0  0  0  0  0  0  0  0  0  0  0
  -26.0500  -38.3710   23.8700 H   0  0  0  0  0  0  0  0  0  0  0  0
  -29.8810  -20.9100   17.6800 N   0  0  0  0  0  0  0  0  0  0  0  0
  -29.2830  -21.6950   17.9030 H   0  0  0  0  0  0  0  0  0  0  0  0
  -30.0780  -20.7810   16.6950 H   0  0  0  0  0  0  0  0  0  0  0  0
  2 48  1  0
  2  1  2  0
  3  1  1  0
  3 17  1  0
  4  2  1  0
  5  3  2  0
  6  4  2  0
  6  5  1  0
  7  5  1  0
  8  6  1  0
  9 17  1  0
 10 15  1  0
 11 12  1  0
 11 10  1  0
 13 12  1  0
 13 22  1  0
 13 14  1  0
 15  9  1  0
 15 14  1  0
 16  9  2  0
 17 18  1  0
 19 20  2  0
 20 21  1  0
 20 39  1  0
 21 24  1  0
 22 19  1  0
 22 23  1  0
 23 21  2  0
 24 25  1  0
 25 26  2  0
 27 30  1  0
 27 26  1  0
 28 27  2  0
 29 28  1  0
 29 24  2  0
 30 31  1  0
 31 32  1  0
 32 33  2  0
 34 33  1  0
 34 38  1  0
 35 34  2  0
 36 31  2  0
 36 35  1  0
 37 36  1  0
 39 40  1  0
 40 43  1  0
 40 42  1  0
 41 39  2  0
 44 45  1  0
 44 19  1  0
 46 44  1  0
 47 48  1  0
 47 52  1  0
 48 50  1  0
 49 47  2  0
 52 51  1  0
 54 53  1  0
 54 55  1  0
 54 52  1  0
 56 67  2  0
 57 55  1  0
 57 62  1  0
 58 66  1  0
 58 68  1  0
 59 65  1  0
 59 61  1  0
 60 66  1  0
 61 62  2  0
 61 60  1  0
 63 57  2  0
 64 63  1  0
 64 59  2  0
 65 58  1  0
 66 56  1  0
 68 70  2  0
 69 68  1  0
 71 69  1  0
 72 81  2  0
 72 77  1  0
 73 69  1  0
 73 77  1  0
 74 73  1  0
 75 76  1  0
 75 74  1  0
 76 72  1  0
 77 78  2  0
 78 79  1  0
 80 79  2  0
 81 80  1  0
 82 56  1  0
 82 87  1  0
 82 83  1  0
 83 86  1  1
 83 84  1  0
 85 83  1  0
 87 90  1  0
 88 92  1  0
 88 87  1  0
 89 88  2  0
 92 91  1  0
 94 92  1  0
 94 95  1  0
 94 93  1  0
 96 97  1  0
 96  4  1  0
 98 96  1  0
M  ISO  4   9 100  17 100  54 101  55 101
M  END
>  <TORSDO>  (28) 
F 20

>  <SCORE>  (28) 
-14.096

>  <name>  (28) 
27

>  <ligand_id>  (28) 
27

>  <original_smiles>  (28) 
[H]c1c([H])c([H])c2c(c1[H])C([H])([H])C([H])([H])C([H])([H])C2([H])N([H])C(=O)C1([H])N(C(=O)C([H])(N([H])C(=O)C([H])(N([H])C([H])([H])[H])C([H])([H])[H])C(C([H])([H])[H])(C([H])([H])[H])C([H])([H])[H])C([H])([H])c2c([H])c(OC([H])(C([H])([H])[H])C([H])(C(=O)N([H])c3c([H])c(N([H])C(=O)N4C([H])([H])C([H])([H])C([H])([H])C([H])(n5nc(-c6c([H])c([H])c(Oc7c([H])c([H])c(F)c([H])c7F)c([H])c6[H])c(C(=O)N([H])[H])c5N([H])[H])C4([H])[H])c(F)c(F)c3N([H])[H])C([H])([H])[H])c([H])c([H])c2C1([H])[H]

>  <smiles>  (28) 
[H]c1c([H])c([H])c2c(c1[H])C([H])([H])C([H])([H])C([H])([H])C2([H])N([H])C(=O)C1([H])N(C(=O)C([H])(N([H])C(=O)C([H])(N([H])C([H])([H])[H])C([H])([H])[H])C(C([H])([H])[H])(C([H])([H])[H])C([H])([H])[H])C([H])([H])c2c([H])c(OC([H])(C([H])([H])[H])C([H])(C(=O)N([H])c3c([H])c(N([H])C(=O)N4C([H])([H])C([H])([H])C([H])([H])C([H])(n5nc(-c6c([H])c([H])c(Oc7c([H])c([H])c(F)c([H])c7F)c([H])c6[H])c(C(=O)N([H])[H])c5N([H])[H])C4([H])[H])c(F)c(F)c3N([H])[H])C([H])([H])[H])c([H])c([H])c2C1([H])[H]

$$$$
28:0:0
     RDKit          3D

 93101  0  0  1  0  0  0  0  0999 V2000
  -28.9310  -23.2790   20.3940 C   0  0  0  0  0  0  0  0  0  0  0  0
  -28.6590  -21.8990   20.0750 N   0  0  0  0  0  0  0  0  0  0  0  0
  -29.8720  -23.5360   21.1480 O   0  0  0  0  0  0  0  0  0  0  0  0
  -27.7760  -21.8440   19.5830 H   0  0  0  0  0  0  0  0  0  0  0  0
  -30.4870  -15.0970   20.3030 C   0  0  0  0  0  0  0  0  0  0  0  0
  -30.4250  -12.7150   19.3810 C   0  0  0  0  0  2  0  0  0  0  0  0
  -29.4930  -12.6310   18.1480 C   0  0  0  0  0  2  0  0  0  0  0  0
  -28.0310  -12.4020   18.5780 C   0  0  0  0  0  2  0  0  0  0  0  0
  -27.6110  -13.3320   19.7440 C   0  0  0  0  0  3  0  0  0  0  0  0
  -28.6630  -13.3690   20.8730 C   0  0  0  0  0  2  0  0  0  0  0  0
  -29.9260  -13.8120   20.2630 N   0  0  0  0  0  0  0  0  0  0  0  0
  -31.6940  -15.1710   20.0370 O   0  0  0  0  0  0  0  0  0  0  0  0
  -30.5730  -20.0630   20.3370 C   0  0  0  0  0  0  0  0  0  0  0  0
  -29.2550  -20.5670   20.2500 C   0  0  0  0  0  0  0  0  0  0  0  0
  -29.7020  -17.8060   20.3620 C   0  0  0  0  0  0  0  0  0  0  0  0
  -30.7850  -18.6150   20.4100 N   0  0  0  0  0  0  0  0  0  0  0  0
  -29.6410  -16.2510   20.4330 N   0  0  0  0  0  0  0  0  0  0  0  0
  -28.2900  -18.9980   20.2450 S   0  0  0  0  0  0  0  0  0  0  0  0
  -28.6920  -15.9420   20.5680 H   0  0  0  0  0  0  0  0  0  0  0  0
  -25.2280  -13.9010   20.4780 C   0  0  0  0  0  0  0  0  0  0  0  0
  -24.1660  -13.1230   20.8490 C   0  0  0  0  0  0  0  0  0  0  0  0
  -24.6360  -11.7740   20.8230 C   0  0  0  0  0  0  0  0  0  0  0  0
  -26.2740  -13.0270   20.2420 N   0  0  0  0  0  0  0  0  0  0  0  0
  -25.9280  -11.7430   20.5160 N   0  0  0  0  0  0  0  0  0  0  0  0
  -23.9130  -10.5100   21.0130 C   0  0  0  0  0  0  0  0  0  0  0  0
  -24.3380   -9.5500   21.9580 C   0  0  0  0  0  3  0  0  0  0  0  0
  -23.6130   -8.3520   22.1360 C   0  0  0  0  0  3  0  0  0  0  0  0
  -22.4480   -8.1050   21.3700 C   0  0  0  0  0  0  0  0  0  0  0  0
  -22.0430   -9.0550   20.4160 C   0  0  0  0  0  3  0  0  0  0  0  0
  -22.7690  -10.2430   20.2350 C   0  0  0  0  0  3  0  0  0  0  0  0
  -21.6960   -6.9590   21.4580 O   0  0  0  0  0  0  0  0  0  0  0  0
  -21.6290   -6.2290   22.6180 C   0  0  0  0  0  0  0  0  0  0  0  0
  -21.1650   -6.7920   23.8260 C   0  0  0  0  0  3  0  0  0  0  0  0
  -21.0460   -5.9870   24.9780 C   0  0  0  0  0  3  0  0  0  0  0  0
  -21.3810   -4.6220   24.9210 C   0  0  0  0  0  0  0  0  0  0  0  0
  -21.8390   -4.0590   23.7170 C   0  0  0  0  0  3  0  0  0  0  0  0
  -21.9590   -4.8600   22.5670 C   0  0  0  0  0  0  0  0  0  0  0  0
  -22.3810   -4.3070   21.4040 F   0  0  0  0  0  0  0  0  0  0  0  0
  -21.2610   -3.8470   26.0240 F   0  0  0  0  0  0  0  0  0  0  0  0
  -22.7660  -13.5970   21.1110 C   0  0  0  0  0  0  0  0  0  0  0  0
  -22.0360  -12.9020   21.9760 N   0  0  0  0  0  0  0  0  0  0  0  0
  -22.3280  -14.6190   20.5830 O   0  0  0  0  0  0  0  0  0  0  0  0
  -22.4030  -12.0760   22.4240 H   0  0  0  0  0  0  0  0  0  0  0  0
  -21.0960  -13.2010   22.1940 H   0  0  0  0  0  0  0  0  0  0  0  0
  -25.3830  -15.2720   20.2920 N   0  0  0  0  0  0  0  0  0  0  0  0
  -24.6000  -15.9110   20.3820 H   0  0  0  0  0  0  0  0  0  0  0  0
  -26.1990  -15.7070   19.8830 H   0  0  0  0  0  0  0  0  0  0  0  0
  -31.7460  -20.9640   20.2960 C   0  0  0  0  0  2  0  0  0  0  0  0
  -32.9370  -20.5630   20.4580 N   0  0  0  0  0  2  0  0  0  0  0  0
  -32.9230  -19.5590   20.6170 H   0  0  0  0  0  0  0  0  0  0  0  0
  -28.2470  -24.6200   18.3000 C   0  0  0  0  0  1  0  0  0  0  0  0
  -28.0430  -24.6010   19.8280 C   0  0  0  0  0  3  0  0  0  0  0  0
  -28.2410  -26.1100   20.2850 O   0  0  0  0  0  0  0  0  0  0  0  0
  -24.6240  -31.9000   23.2270 C   0  0  0  0  0  0  0  0  0  0  0  0
  -27.2040  -27.1370   20.1990 C   0  0  0  0  0  0  0  0  0  0  0  0
  -23.4320  -30.5100   21.5800 C   0  0  0  0  0  3  0  0  0  0  0  0
  -24.8850  -28.9320   20.1590 C   0  0  0  0  0  0  0  0  0  0  0  0
  -25.9940  -30.7540   21.4350 C   0  0  0  0  0  2  0  0  0  0  0  0
  -26.0670  -29.3590   20.7770 C   0  0  0  0  0  0  0  0  0  0  0  0
  -27.2240  -28.4800   20.7770 C   0  0  0  0  0  3  0  0  0  0  0  0
  -25.9870  -26.8290   19.5470 C   0  0  0  0  0  3  0  0  0  0  0  0
  -24.8620  -27.6810   19.5290 C   0  0  0  0  0  3  0  0  0  0  0  0
  -23.6610  -29.8370   20.2020 C   0  0  0  0  0  2  0  0  0  0  0  0
  -24.7040  -31.0770   22.1350 N   0  0  0  0  0  0  0  0  0  0  0  0
  -23.5340  -32.1870   23.7470 O   0  0  0  0  0  0  0  0  0  0  0  0
  -22.7430  -29.5040   22.5370 C   0  0  0  0  0  0  0  0  0  0  0  0
  -21.4140  -29.3410   22.4060 N   0  0  0  0  0  0  0  0  0  0  0  0
  -23.4080  -28.8730   23.3630 O   0  0  0  0  0  0  0  0  0  0  0  0
  -20.9330  -29.9010   21.7160 H   0  0  0  0  0  0  0  0  0  0  0  0
  -18.0210  -28.1700   22.9160 C   0  0  0  0  0  0  0  0  0  0  0  0
  -20.5850  -28.4050   23.1720 C   0  0  0  0  0  3  0  0  0  0  0  0
  -20.6690  -26.9770   22.5840 C   0  0  0  0  0  2  0  0  0  0  0  0
  -19.5590  -26.6750   21.5720 C   0  0  0  0  0  2  0  0  0  0  0  0
  -18.1820  -26.8260   22.2240 C   0  0  0  0  0  2  0  0  0  0  0  0
  -19.1490  -28.9170   23.3470 C   0  0  0  0  0  0  0  0  0  0  0  0
  -18.9440  -30.1740   23.9560 C   0  0  0  0  0  3  0  0  0  0  0  0
  -17.6440  -30.6830   24.1370 C   0  0  0  0  0  3  0  0  0  0  0  0
  -16.5310  -29.9330   23.7200 C   0  0  0  0  0  3  0  0  0  0  0  0
  -16.7210  -28.6770   23.1170 C   0  0  0  0  0  3  0  0  0  0  0  0
  -25.8980  -32.5350   23.8640 C   0  0  0  0  0  3  0  0  0  0  0  0
  -25.5850  -33.9360   24.1920 N   0  0  0  0  0  0  0  0  0  0  0  0
  -25.9130  -34.9910   23.4350 C   0  0  0  0  0  0  0  0  0  0  0  0
  -26.5740  -34.8870   22.3980 O   0  0  0  0  0  0  0  0  0  0  0  0
  -24.9960  -34.0890   24.9980 H   0  0  0  0  0  0  0  0  0  0  0  0
  -24.1770  -36.7850   23.1060 C   0  0  0  0  0  1  0  0  0  0  0  0
  -25.4310  -36.3810   23.8980 C   0  0  0  0  0  3  0  0  0  0  0  0
  -27.5750  -37.2740   24.7000 C   0  0  0  0  0  1  0  0  0  0  0  0
  -26.4620  -37.4350   23.7680 N   0  0  0  0  0  0  0  0  0  0  0  0
  -26.0560  -38.3550   23.9140 H   0  0  0  0  0  0  0  0  0  0  0  0
  -26.3930  -31.7690   25.1520 C   0  0  1  0  0  0  0  0  0  0  0  0
  -25.2840  -31.5420   26.2060 C   0  0  0  0  0  1  0  0  0  0  0  0
  -26.9770  -30.3860   24.7820 C   0  0  0  0  0  1  0  0  0  0  0  0
  -27.5380  -32.5630   25.8250 C   0  0  0  0  0  1  0  0  0  0  0  0
  1  3  2  0
  2 14  1  0
  2  1  1  0
  4  2  1  0
  5 17  1  0
  6 11  1  0
  7  8  1  0
  7  6  1  0
  9  8  1  0
  9 23  1  0
  9 10  1  0
 11  5  1  0
 11 10  1  0
 12  5  2  0
 13 16  1  0
 14 13  2  0
 15 16  2  0
 15 17  1  0
 17 19  1  0
 18 14  1  0
 18 15  1  0
 20 21  2  0
 21 40  1  0
 22 21  1  0
 22 25  1  0
 23 20  1  0
 23 24  1  0
 24 22  2  0
 25 26  1  0
 26 27  2  0
 28 31  1  0
 28 27  1  0
 29 28  2  0
 30 29  1  0
 30 25  2  0
 31 32  1  0
 32 33  1  0
 33 34  2  0
 35 34  1  0
 35 39  1  0
 36 35  2  0
 37 32  2  0
 37 36  1  0
 38 37  1  0
 40 41  1  0
 41 44  1  0
 41 43  1  0
 42 40  2  0
 45 46  1  0
 45 20  1  0
 47 45  1  0
 48 13  1  0
 48 49  1  0
 49 50  1  0
 52 51  1  0
 52 53  1  0
 52  1  1  0
 54 65  2  0
 55 53  1  0
 55 60  1  0
 56 64  1  0
 56 66  1  0
 57 63  1  0
 57 59  1  0
 58 64  1  0
 59 58  1  0
 60 59  2  0
 61 55  2  0
 62 61  1  0
 62 57  2  0
 63 56  1  0
 64 54  1  0
 66 68  2  0
 67 66  1  0
 69 67  1  0
 70 79  2  0
 70 75  1  0
 71 67  1  0
 71 75  1  0
 72 71  1  0
 73 74  1  0
 73 72  1  0
 74 70  1  0
 75 76  2  0
 76 77  1  0
 78 77  2  0
 79 78  1  0
 80 54  1  0
 80 81  1  0
 80 90  1  0
 81 84  1  0
 82 86  1  0
 82 81  1  0
 83 82  2  0
 86 85  1  0
 88 86  1  0
 88 89  1  0
 88 87  1  0
 90 93  1  1
 90 91  1  0
 92 90  1  0
M  ISO  4   5 100  17 100  52 101  53 101
M  END
>  <TORSDO>  (29) 
F 18

>  <SCORE>  (29) 
-14.760

>  <name>  (29) 
28

>  <ligand_id>  (29) 
28

>  <original_smiles>  (29) 
[H]N=C([H])c1nc(N([H])C(=O)N2C([H])([H])C([H])([H])C([H])([H])C([H])(n3nc(-c4c([H])c([H])c(Oc5c([H])c([H])c(F)c([H])c5F)c([H])c4[H])c(C(=O)N([H])[H])c3N([H])[H])C2([H])[H])sc1N([H])C(=O)C([H])(Oc1c([H])c([H])c2c(c1[H])C([H])([H])N(C(=O)C([H])(N([H])C(=O)C([H])(N([H])C([H])([H])[H])C([H])([H])[H])C(C([H])([H])[H])(C([H])([H])[H])C([H])([H])[H])C([H])(C(=O)N([H])C1([H])c3c([H])c([H])c([H])c([H])c3C([H])([H])C([H])([H])C1([H])[H])C2([H])[H])C([H])([H])[H]

>  <smiles>  (29) 
[H]N=C([H])c1nc(N([H])C(=O)N2C([H])([H])C([H])([H])C([H])([H])C([H])(n3nc(-c4c([H])c([H])c(Oc5c([H])c([H])c(F)c([H])c5F)c([H])c4[H])c(C(=O)N([H])[H])c3N([H])[H])C2([H])[H])sc1N([H])C(=O)C([H])(Oc1c([H])c([H])c2c(c1[H])C([H])([H])N(C(=O)C([H])(N([H])C(=O)C([H])(N([H])C([H])([H])[H])C([H])([H])[H])C(C([H])([H])[H])(C([H])([H])[H])C([H])([H])[H])C([H])(C(=O)N([H])C1([H])c3c([H])c([H])c([H])c([H])c3C([H])([H])C([H])([H])C1([H])[H])C2([H])[H])C([H])([H])[H]

$$$$
29:0:0
     RDKit          3D

 97105  0  0  1  0  0  0  0  0999 V2000
  -30.7330  -18.6020   19.6150 C   0  0  0  0  0  0  0  0  0  0  0  0
  -29.4000  -18.7110   20.0000 C   0  0  0  0  0  0  0  0  0  0  0  0
  -30.4260  -21.0100   19.7810 C   0  0  0  0  0  0  0  0  0  0  0  0
  -30.1600  -23.5850   20.2840 C   0  0  0  0  0  0  0  0  0  0  0  0
  -31.2660  -19.9520   19.4990 N   0  0  0  0  0  0  0  0  0  0  0  0
  -30.7560  -22.4570   19.7040 N   0  0  0  0  0  0  0  0  0  0  0  0
  -29.1960  -23.4730   21.0550 O   0  0  0  0  0  0  0  0  0  0  0  0
  -28.8350  -20.3860   20.1480 S   0  0  0  0  0  0  0  0  0  0  0  0
  -31.5480  -22.6590   19.1010 H   0  0  0  0  0  0  0  0  0  0  0  0
  -28.3700  -17.6470   20.3040 C   0  0  2  0  0  0  0  0  0  0  0  0
  -27.4370  -18.1060   21.1350 F   0  0  0  0  0  0  0  0  0  0  0  0
  -28.8900  -16.5580   20.8720 F   0  0  0  0  0  0  0  0  0  0  0  0
  -27.6320  -17.2550   19.0200 C   0  0  0  0  0  3  0  0  0  0  0  0
  -26.5870  -16.4590   19.2450 F   0  0  0  0  0  0  0  0  0  0  0  0
  -28.4830  -16.6170   18.2140 F   0  0  0  0  0  0  0  0  0  0  0  0
  -32.6350  -17.2850   18.3370 C   0  0  0  0  0  1  0  0  0  0  0  0
  -31.6260  -17.2520   19.5240 C   0  0  0  0  0  0  0  0  0  0  0  0
  -31.6550  -14.5750   19.6280 C   0  0  0  0  0  0  0  0  0  0  0  0
  -31.2760  -12.1700   19.0690 C   0  0  0  0  0  2  0  0  0  0  0  0
  -30.2820  -12.0750   17.9000 C   0  0  0  0  0  2  0  0  0  0  0  0
  -28.8380  -12.0320   18.4430 C   0  0  0  0  0  2  0  0  0  0  0  0
  -28.5610  -13.1300   19.5120 C   0  0  0  0  0  3  0  0  0  0  0  0
  -29.6860  -13.2310   20.5600 C   0  0  0  0  0  2  0  0  0  0  0  0
  -30.9500  -13.4070   19.8260 N   0  0  0  0  0  0  0  0  0  0  0  0
  -32.8050  -14.4880   19.1870 O   0  0  0  0  0  0  0  0  0  0  0  0
  -31.0470  -15.8320   19.7480 N   0  0  0  0  0  4  0  0  0  0  0  0
  -30.0710  -15.8080   20.0050 H   0  0  0  0  0  0  0  0  0  0  0  0
  -26.3790  -13.9420   20.5970 C   0  0  0  0  0  0  0  0  0  0  0  0
  -25.2590  -13.2900   21.0330 C   0  0  0  0  0  0  0  0  0  0  0  0
  -25.4780  -11.9140   20.7470 C   0  0  0  0  0  0  0  0  0  0  0  0
  -27.2420  -12.9660   20.1210 N   0  0  0  0  0  0  0  0  0  0  0  0
  -26.7030  -11.7260   20.2570 N   0  0  0  0  0  0  0  0  0  0  0  0
  -24.5670  -10.7640   20.8640 C   0  0  0  0  0  0  0  0  0  0  0  0
  -24.8590   -9.6660   21.7060 C   0  0  0  0  0  3  0  0  0  0  0  0
  -23.9560   -8.5870   21.8110 C   0  0  0  0  0  3  0  0  0  0  0  0
  -22.7420   -8.6010   21.0860 C   0  0  0  0  0  0  0  0  0  0  0  0
  -22.4640   -9.6870   20.2300 C   0  0  0  0  0  3  0  0  0  0  0  0
  -23.3690  -10.7580   20.1190 C   0  0  0  0  0  3  0  0  0  0  0  0
  -21.8240   -7.5810   21.1060 O   0  0  0  0  0  0  0  0  0  0  0  0
  -21.5420   -6.8870   22.2560 C   0  0  0  0  0  0  0  0  0  0  0  0
  -21.0420   -7.5310   23.4140 C   0  0  0  0  0  3  0  0  0  0  0  0
  -20.7130   -6.7690   24.5530 C   0  0  0  0  0  3  0  0  0  0  0  0
  -20.8660   -5.3670   24.5340 C   0  0  0  0  0  0  0  0  0  0  0  0
  -21.3470   -4.7260   23.3790 C   0  0  0  0  0  3  0  0  0  0  0  0
  -21.6800   -5.4850   22.2420 C   0  0  0  0  0  0  0  0  0  0  0  0
  -22.1280   -4.8600   21.1270 F   0  0  0  0  0  0  0  0  0  0  0  0
  -20.5370   -4.6370   25.6220 F   0  0  0  0  0  0  0  0  0  0  0  0
  -24.0150  -13.9300   21.5780 C   0  0  0  0  0  0  0  0  0  0  0  0
  -23.3140  -13.2470   22.4730 N   0  0  0  0  0  0  0  0  0  0  0  0
  -23.6980  -15.0760   21.2580 O   0  0  0  0  0  0  0  0  0  0  0  0
  -23.5910  -12.3290   22.7740 H   0  0  0  0  0  0  0  0  0  0  0  0
  -22.4890  -13.6600   22.8900 H   0  0  0  0  0  0  0  0  0  0  0  0
  -26.7060  -15.2900   20.5410 N   0  0  0  0  0  0  0  0  0  0  0  0
  -26.0290  -15.9970   20.8090 H   0  0  0  0  0  0  0  0  0  0  0  0
  -27.5800  -15.6680   20.1950 H   0  0  0  0  0  0  0  0  0  0  0  0
  -30.7320  -25.0760   19.9920 C   0  0  0  0  0  2  0  0  0  0  0  0
  -30.2170  -26.2710   20.7800 O   0  0  0  0  0  0  0  0  0  0  0  0
  -25.1990  -30.8280   23.4220 C   0  0  0  0  0  0  0  0  0  0  0  0
  -29.0050  -26.9760   20.5490 C   0  0  0  0  0  0  0  0  0  0  0  0
  -24.5400  -29.4340   21.4950 C   0  0  0  0  0  3  0  0  0  0  0  0
  -26.4410  -28.2640   20.2300 C   0  0  0  0  0  0  0  0  0  0  0  0
  -26.9900  -30.1270   21.8000 C   0  0  0  0  0  2  0  0  0  0  0  0
  -27.4030  -28.8460   21.0680 C   0  0  0  0  0  0  0  0  0  0  0  0
  -28.6830  -28.2150   21.2040 C   0  0  0  0  0  3  0  0  0  0  0  0
  -28.0010  -26.4560   19.7010 C   0  0  0  0  0  3  0  0  0  0  0  0
  -26.7500  -27.0820   19.5380 C   0  0  0  0  0  3  0  0  0  0  0  0
  -25.0840  -28.9370   20.1290 C   0  0  0  0  0  2  0  0  0  0  0  0
  -25.5820  -30.1490   22.2970 N   0  0  0  0  0  0  0  0  0  0  0  0
  -24.0110  -30.8790   23.7770 O   0  0  0  0  0  0  0  0  0  0  0  0
  -23.9030  -28.2410   22.2510 C   0  0  0  0  0  0  0  0  0  0  0  0
  -22.6870  -27.8430   21.8490 N   0  0  0  0  0  0  0  0  0  0  0  0
  -24.5080  -27.6760   23.1640 O   0  0  0  0  0  0  0  0  0  0  0  0
  -22.2430  -28.3650   21.1060 H   0  0  0  0  0  0  0  0  0  0  0  0
  -19.5340  -26.0690   21.6600 C   0  0  0  0  0  0  0  0  0  0  0  0
  -21.9290  -26.7140   22.3900 C   0  0  0  0  0  3  0  0  0  0  0  0
  -22.3660  -25.3830   21.7350 C   0  0  0  0  0  2  0  0  0  0  0  0
  -21.5210  -24.9960   20.5180 C   0  0  0  0  0  2  0  0  0  0  0  0
  -20.0510  -24.8470   20.9190 C   0  0  0  0  0  2  0  0  0  0  0  0
  -20.4150  -26.9540   22.3350 C   0  0  0  0  0  0  0  0  0  0  0  0
  -19.8790  -28.0920   22.9810 C   0  0  0  0  0  3  0  0  0  0  0  0
  -18.4960  -28.3500   22.9510 C   0  0  0  0  0  3  0  0  0  0  0  0
  -17.6280  -27.4650   22.2870 C   0  0  0  0  0  3  0  0  0  0  0  0
  -18.1470  -26.3230   21.6480 C   0  0  0  0  0  3  0  0  0  0  0  0
  -26.2380  -31.5890   24.3030 C   0  0  0  0  0  3  0  0  0  0  0  0
  -26.4880  -30.8960   25.7000 C   0  0  1  0  0  0  0  0  0  0  0  0
  -25.1920  -30.5870   26.4870 C   0  0  0  0  0  1  0  0  0  0  0  0
  -27.2550  -29.5650   25.5230 C   0  0  0  0  0  1  0  0  0  0  0  0
  -27.3790  -31.8010   26.5830 C   0  0  0  0  0  1  0  0  0  0  0  0
  -25.7370  -32.9570   24.4980 N   0  0  0  0  0  0  0  0  0  0  0  0
  -26.1520  -34.0310   23.8050 C   0  0  0  0  0  0  0  0  0  0  0  0
  -27.0570  -33.9710   22.9730 O   0  0  0  0  0  0  0  0  0  0  0  0
  -24.9650  -33.0650   25.1380 H   0  0  0  0  0  0  0  0  0  0  0  0
  -24.4210  -35.6610   22.9780 C   0  0  0  0  0  1  0  0  0  0  0  0
  -25.4500  -35.3780   24.0840 C   0  0  0  0  0  3  0  0  0  0  0  0
  -27.2190  -36.4670   25.3960 C   0  0  0  0  0  1  0  0  0  0  0  0
  -26.3920  -36.5130   24.1950 N   0  0  0  0  0  0  0  0  0  0  0  0
  -25.8900  -37.3970   24.1940 H   0  0  0  0  0  0  0  0  0  0  0  0
  1  2  2  0
  2  8  1  0
  2 10  1  0
  3  8  1  0
  4  7  2  0
  5  1  1  0
  5  3  2  0
  6  3  1  0
  6  4  1  0
  9  6  1  0
 10 12  1  1
 10 11  1  0
 13 14  1  0
 13 10  1  0
 15 13  1  0
 16 17  1  0
 17  1  1  0
 17 26  2  0
 18 26  1  0
 18 24  1  0
 19 24  1  0
 20 21  1  0
 20 19  1  0
 22 21  1  0
 22 31  1  0
 22 23  1  0
 24 23  1  0
 25 18  2  0
 26 27  1  0
 28 29  2  0
 29 48  1  0
 30 33  1  0
 30 29  1  0
 31 32  1  0
 31 28  1  0
 32 30  2  0
 33 34  1  0
 34 35  2  0
 36 39  1  0
 36 35  1  0
 37 36  2  0
 38 37  1  0
 38 33  2  0
 39 40  1  0
 40 41  1  0
 41 42  2  0
 43 42  1  0
 43 47  1  0
 44 43  2  0
 45 40  2  0
 45 44  1  0
 46 45  1  0
 48 49  1  0
 49 51  1  0
 49 52  1  0
 50 48  2  0
 53 28  1  0
 53 54  1  0
 55 53  1  0
 56  4  1  0
 56 57  1  0
 58 69  2  0
 59 57  1  0
 59 64  1  0
 60 70  1  0
 60 68  1  0
 61 63  1  0
 62 68  1  0
 63 64  2  0
 63 62  1  0
 65 59  2  0
 66 65  1  0
 66 61  2  0
 67 61  1  0
 67 60  1  0
 68 58  1  0
 70 72  2  0
 71 70  1  0
 73 71  1  0
 74 79  1  0
 75 71  1  0
 76 75  1  0
 77 78  1  0
 77 76  1  0
 78 74  1  0
 79 75  1  0
 79 80  2  0
 81 80  1  0
 82 81  2  0
 83 74  2  0
 83 82  1  0
 84 58  1  0
 84 89  1  0
 84 85  1  0
 85 86  1  1
 85 88  1  0
 87 85  1  0
 89 92  1  0
 90 94  1  0
 90 89  1  0
 91 90  2  0
 94 93  1  0
 94 96  1  0
 96 95  1  0
 97 96  1  0
M  ISO  4  18 100  26 100  56 101  57 101
M  END
>  <TORSDO>  (30) 
F 20

>  <SCORE>  (30) 
-10.251

>  <name>  (30) 
29

>  <ligand_id>  (30) 
29

>  <original_smiles>  (30) 
[H]c1c([H])c([H])c2c(c1[H])C([H])([H])C([H])([H])C([H])([H])C2([H])N([H])C(=O)C1([H])N(C(=O)C([H])(N([H])C(=O)C([H])(N([H])C([H])([H])[H])C([H])([H])[H])C(C([H])([H])[H])(C([H])([H])[H])C([H])([H])[H])C([H])([H])c2c([H])c(OC([H])([H])C(=O)N([H])c3nc(C([H])(N([H])C(=O)N4C([H])([H])C([H])([H])C([H])([H])C([H])(n5nc(-c6c([H])c([H])c(Oc7c([H])c([H])c(F)c([H])c7F)c([H])c6[H])c(C(=O)N([H])[H])c5N([H])[H])C4([H])[H])C([H])([H])[H])c(C(F)(F)C([H])(F)F)s3)c([H])c([H])c2C1([H])[H]

>  <smiles>  (30) 
[H]c1c([H])c([H])c2c(c1[H])C([H])([H])C([H])([H])C([H])([H])C2([H])N([H])C(=O)C1([H])N(C(=O)C([H])(N([H])C(=O)C([H])(N([H])C([H])([H])[H])C([H])([H])[H])C(C([H])([H])[H])(C([H])([H])[H])C([H])([H])[H])C([H])([H])c2c([H])c(OC([H])([H])C(=O)N([H])c3nc(C([H])(N([H])C(=O)N4C([H])([H])C([H])([H])C([H])([H])C([H])(n5nc(-c6c([H])c([H])c(Oc7c([H])c([H])c(F)c([H])c7F)c([H])c6[H])c(C(=O)N([H])[H])c5N([H])[H])C4([H])[H])C([H])([H])[H])c(C(F)(F)C([H])(F)F)s3)c([H])c([H])c2C1([H])[H]

$$$$
30:0:0
     RDKit          3D

 97105  0  0  1  0  0  0  0  0999 V2000
  -29.1630  -22.4100   20.6010 C   0  0  0  0  0  0  0  0  0  0  0  0
  -29.1160  -21.1920   19.9370 N   0  0  0  0  0  0  0  0  0  0  0  0
  -29.4430  -22.4320   21.8000 O   0  0  0  0  0  0  0  0  0  0  0  0
  -28.6890  -21.2200   19.0240 H   0  0  0  0  0  0  0  0  0  0  0  0
  -30.5850  -14.7740   20.4090 C   0  0  0  0  0  0  0  0  0  0  0  0
  -30.4340  -12.5010   19.3810 C   0  0  0  0  0  2  0  0  0  0  0  0
  -29.5000  -12.5810   18.1520 C   0  0  0  0  0  2  0  0  0  0  0  0
  -28.0260  -12.4030   18.5670 C   0  0  0  0  0  2  0  0  0  0  0  0
  -27.6390  -13.2800   19.7870 C   0  0  0  0  0  3  0  0  0  0  0  0
  -28.6880  -13.1690   20.9150 C   0  0  0  0  0  2  0  0  0  0  0  0
  -29.9920  -13.5340   20.3410 N   0  0  0  0  0  0  0  0  0  0  0  0
  -31.7740  -14.9110   20.1020 O   0  0  0  0  0  0  0  0  0  0  0  0
  -30.7800  -19.4480   20.7680 C   0  0  0  0  0  0  0  0  0  0  0  0
  -29.5470  -19.9010   20.2980 C   0  0  0  0  0  0  0  0  0  0  0  0
  -29.8620  -17.3110   20.5080 C   0  0  0  0  0  0  0  0  0  0  0  0
  -30.9320  -18.0280   20.8790 N   0  0  0  0  0  0  0  0  0  0  0  0
  -29.7280  -15.8420   20.6000 N   0  0  0  0  0  0  0  0  0  0  0  0
  -28.5570  -18.4380   20.0040 S   0  0  0  0  0  0  0  0  0  0  0  0
  -28.7760  -15.5380   20.7130 H   0  0  0  0  0  0  0  0  0  0  0  0
  -25.2380  -13.8700   20.4780 C   0  0  0  0  0  0  0  0  0  0  0  0
  -24.1720  -13.0930   20.8420 C   0  0  0  0  0  0  0  0  0  0  0  0
  -24.6430  -11.7440   20.8270 C   0  0  0  0  0  0  0  0  0  0  0  0
  -26.2900  -12.9930   20.2610 N   0  0  0  0  0  0  0  0  0  0  0  0
  -25.9360  -11.7110   20.5330 N   0  0  0  0  0  0  0  0  0  0  0  0
  -23.9210  -10.4800   21.0160 C   0  0  0  0  0  0  0  0  0  0  0  0
  -24.3400   -9.5240   21.9680 C   0  0  0  0  0  3  0  0  0  0  0  0
  -23.6190   -8.3240   22.1440 C   0  0  0  0  0  3  0  0  0  0  0  0
  -22.4630   -8.0700   21.3680 C   0  0  0  0  0  0  0  0  0  0  0  0
  -22.0630   -9.0140   20.4060 C   0  0  0  0  0  3  0  0  0  0  0  0
  -22.7850  -10.2060   20.2280 C   0  0  0  0  0  3  0  0  0  0  0  0
  -21.7150   -6.9210   21.4540 O   0  0  0  0  0  0  0  0  0  0  0  0
  -21.6430   -6.1930   22.6140 C   0  0  0  0  0  0  0  0  0  0  0  0
  -21.1670   -6.7560   23.8180 C   0  0  0  0  0  3  0  0  0  0  0  0
  -21.0450   -5.9520   24.9700 C   0  0  0  0  0  3  0  0  0  0  0  0
  -21.3900   -4.5890   24.9180 C   0  0  0  0  0  0  0  0  0  0  0  0
  -21.8580   -4.0250   23.7180 C   0  0  0  0  0  3  0  0  0  0  0  0
  -21.9820   -4.8260   22.5680 C   0  0  0  0  0  0  0  0  0  0  0  0
  -22.4140   -4.2730   21.4090 F   0  0  0  0  0  0  0  0  0  0  0  0
  -21.2650   -3.8140   26.0210 F   0  0  0  0  0  0  0  0  0  0  0  0
  -22.7680  -13.5640   21.0920 C   0  0  0  0  0  0  0  0  0  0  0  0
  -22.0310  -12.8660   21.9490 N   0  0  0  0  0  0  0  0  0  0  0  0
  -22.3340  -14.5860   20.5630 O   0  0  0  0  0  0  0  0  0  0  0  0
  -22.3960  -12.0400   22.3990 H   0  0  0  0  0  0  0  0  0  0  0  0
  -21.0880  -13.1630   22.1590 H   0  0  0  0  0  0  0  0  0  0  0  0
  -25.3940  -15.2390   20.2880 N   0  0  0  0  0  0  0  0  0  0  0  0
  -24.6110  -15.8790   20.3690 H   0  0  0  0  0  0  0  0  0  0  0  0
  -26.2160  -15.6760   19.8910 H   0  0  0  0  0  0  0  0  0  0  0  0
  -33.1690  -19.9870   20.1700 C   0  0  0  0  0  1  0  0  0  0  0  0
  -32.3750  -20.1630   22.5850 C   0  0  0  0  0  1  0  0  0  0  0  0
  -31.9860  -20.2920   21.1030 C   0  0  0  0  0  3  0  0  0  0  0  0
  -28.9020  -23.8230   19.8710 C   0  0  0  0  0  3  0  0  0  0  0  0
  -28.3280  -23.6600   18.5180 N   0  0  0  0  0  4  0  0  0  0  0  0
  -27.4080  -23.2540   18.5510 H   0  0  0  0  0  0  0  0  0  0  0  0
  -28.9230  -23.0910   17.9420 H   0  0  0  0  0  0  0  0  0  0  0  0
  -28.2580  -24.5580   18.0700 H   0  0  0  0  0  0  0  0  0  0  0  0
  -28.1580  -25.0290   20.6530 C   0  0  0  0  0  2  0  0  0  0  0  0
  -28.3270  -26.4590   20.2180 O   0  0  0  0  0  0  0  0  0  0  0  0
  -24.5630  -31.8890   23.2380 C   0  0  0  0  0  0  0  0  0  0  0  0
  -27.2080  -27.3180   20.2040 C   0  0  0  0  0  0  0  0  0  0  0  0
  -23.3770  -30.4910   21.5850 C   0  0  0  0  0  3  0  0  0  0  0  0
  -24.8430  -28.9410   20.1700 C   0  0  0  0  0  0  0  0  0  0  0  0
  -25.9190  -30.8100   21.4240 C   0  0  0  0  0  2  0  0  0  0  0  0
  -26.0080  -29.4290   20.7770 C   0  0  0  0  0  0  0  0  0  0  0  0
  -27.1960  -28.6320   20.7780 C   0  0  0  0  0  3  0  0  0  0  0  0
  -26.0220  -26.8900   19.5710 C   0  0  0  0  0  3  0  0  0  0  0  0
  -24.8550  -27.6790   19.5560 C   0  0  0  0  0  3  0  0  0  0  0  0
  -23.6050  -29.8150   20.2070 C   0  0  0  0  0  2  0  0  0  0  0  0
  -24.6380  -31.0820   22.1390 N   0  0  0  0  0  0  0  0  0  0  0  0
  -23.4750  -32.1640   23.7630 O   0  0  0  0  0  0  0  0  0  0  0  0
  -22.7070  -29.4730   22.5390 C   0  0  0  0  0  0  0  0  0  0  0  0
  -21.3830  -29.2910   22.3990 N   0  0  0  0  0  0  0  0  0  0  0  0
  -23.3800  -28.8490   23.3630 O   0  0  0  0  0  0  0  0  0  0  0  0
  -20.8990  -29.8470   21.7070 H   0  0  0  0  0  0  0  0  0  0  0  0
  -18.0030  -28.0910   22.8770 C   0  0  0  0  0  0  0  0  0  0  0  0
  -20.5600  -28.3500   23.1610 C   0  0  0  0  0  3  0  0  0  0  0  0
  -20.6650  -26.9210   22.5790 C   0  0  0  0  0  2  0  0  0  0  0  0
  -19.5690  -26.6030   21.5580 C   0  0  0  0  0  2  0  0  0  0  0  0
  -18.1830  -26.7450   22.1950 C   0  0  0  0  0  2  0  0  0  0  0  0
  -19.1190  -28.8510   23.3150 C   0  0  0  0  0  0  0  0  0  0  0  0
  -18.8960  -30.1110   23.9130 C   0  0  0  0  0  3  0  0  0  0  0  0
  -17.5910  -30.6110   24.0750 C   0  0  0  0  0  3  0  0  0  0  0  0
  -16.4890  -29.8480   23.6530 C   0  0  0  0  0  3  0  0  0  0  0  0
  -16.6950  -28.5900   23.0590 C   0  0  0  0  0  3  0  0  0  0  0  0
  -25.8390  -32.5250   23.8730 C   0  0  0  0  0  3  0  0  0  0  0  0
  -26.3340  -31.7660   25.1640 C   0  0  1  0  0  0  0  0  0  0  0  0
  -25.2230  -31.5430   26.2180 C   0  0  0  0  0  1  0  0  0  0  0  0
  -26.9180  -30.3810   24.7980 C   0  0  0  0  0  1  0  0  0  0  0  0
  -27.4760  -32.5630   25.8350 C   0  0  0  0  0  1  0  0  0  0  0  0
  -25.5290  -33.9280   24.1850 N   0  0  0  0  0  0  0  0  0  0  0  0
  -25.8800  -34.9730   23.4240 C   0  0  0  0  0  0  0  0  0  0  0  0
  -26.5690  -34.8590   22.4060 O   0  0  0  0  0  0  0  0  0  0  0  0
  -24.9210  -34.0910   24.9740 H   0  0  0  0  0  0  0  0  0  0  0  0
  -24.1770  -36.7790   23.0170 C   0  0  0  0  0  1  0  0  0  0  0  0
  -25.3920  -36.3670   23.8630 C   0  0  0  0  0  3  0  0  0  0  0  0
  -27.5100  -37.2410   24.7490 C   0  0  0  0  0  1  0  0  0  0  0  0
  -26.4360  -37.4120   23.7740 N   0  0  0  0  0  0  0  0  0  0  0  0
  -26.0340  -38.3360   23.9050 H   0  0  0  0  0  0  0  0  0  0  0  0
  1  3  2  0
  2 14  1  0
  2  1  1  0
  4  2  1  0
  5 17  1  0
  6 11  1  0
  7  8  1  0
  7  6  1  0
  9  8  1  0
  9 23  1  0
  9 10  1  0
 11  5  1  0
 11 10  1  0
 12  5  2  0
 13 16  1  0
 13 50  1  0
 14 13  2  0
 15 17  1  0
 15 16  2  0
 17 19  1  0
 18 14  1  0
 18 15  1  0
 20 21  2  0
 21 40  1  0
 22 21  1  0
 22 25  1  0
 23 20  1  0
 23 24  1  0
 24 22  2  0
 25 26  1  0
 26 27  2  0
 28 31  1  0
 28 27  1  0
 29 28  2  0
 30 29  1  0
 30 25  2  0
 31 32  1  0
 32 33  1  0
 33 34  2  0
 35 34  1  0
 35 39  1  0
 36 35  2  0
 37 32  2  0
 37 36  1  0
 38 37  1  0
 40 41  1  0
 41 44  1  0
 41 43  1  0
 42 40  2  0
 45 46  1  0
 45 20  1  0
 47 45  1  0
 48 50  1  0
 50 49  1  0
 51  1  1  0
 51 56  1  0
 52 53  1  0
 52 51  1  0
 54 52  1  0
 55 52  1  0
 57 56  1  0
 58 69  2  0
 59 57  1  0
 59 64  1  0
 60 68  1  0
 60 70  1  0
 61 67  1  0
 61 63  1  0
 62 68  1  0
 63 64  2  0
 63 62  1  0
 65 59  2  0
 66 65  1  0
 66 61  2  0
 67 60  1  0
 68 58  1  0
 70 72  2  0
 71 70  1  0
 73 71  1  0
 74 83  2  0
 74 79  1  0
 75 71  1  0
 75 79  1  0
 76 75  1  0
 77 78  1  0
 77 76  1  0
 78 74  1  0
 79 80  2  0
 80 81  1  0
 82 81  2  0
 83 82  1  0
 84 58  1  0
 84 89  1  0
 84 85  1  0
 85 88  1  1
 85 86  1  0
 87 85  1  0
 89 92  1  0
 90 94  1  0
 90 89  1  0
 91 90  2  0
 94 93  1  0
 96 94  1  0
 96 97  1  0
 96 95  1  0
M  ISO  4   5 100  17 100  56 101  57 101
M  END
>  <TORSDO>  (31) 
F 20

>  <SCORE>  (31) 
-14.434

>  <name>  (31) 
30

>  <ligand_id>  (31) 
30

>  <original_smiles>  (31) 
[H]c1c([H])c([H])c2c(c1[H])C([H])([H])C([H])([H])C([H])([H])C2([H])N([H])C(=O)C1([H])N(C(=O)C([H])(N([H])C(=O)C([H])(N([H])C([H])([H])[H])C([H])([H])[H])C(C([H])([H])[H])(C([H])([H])[H])C([H])([H])[H])C([H])([H])c2c([H])c(OC([H])([H])C([H])(C(=O)N([H])c3sc(N([H])C(=O)N4C([H])([H])C([H])([H])C([H])([H])C([H])(n5nc(-c6c([H])c([H])c(Oc7c([H])c([H])c(F)c([H])c7F)c([H])c6[H])c(C(=O)N([H])[H])c5N([H])[H])C4([H])[H])nc3C([H])(C([H])([H])[H])C([H])([H])[H])[N+]([H])([H])[H])c([H])c([H])c2C1([H])[H]

>  <smiles>  (31) 
[H]c1c([H])c([H])c2c(c1[H])C([H])([H])C([H])([H])C([H])([H])C2([H])N([H])C(=O)C1([H])N(C(=O)C([H])(N([H])C(=O)C([H])(N([H])C([H])([H])[H])C([H])([H])[H])C(C([H])([H])[H])(C([H])([H])[H])C([H])([H])[H])C([H])([H])c2c([H])c(OC([H])([H])C([H])(C(=O)N([H])c3sc(N([H])C(=O)N4C([H])([H])C([H])([H])C([H])([H])C([H])(n5nc(-c6c([H])c([H])c(Oc7c([H])c([H])c(F)c([H])c7F)c([H])c6[H])c(C(=O)N([H])[H])c5N([H])[H])C4([H])[H])nc3C([H])(C([H])([H])[H])C([H])([H])[H])[N+]([H])([H])[H])c([H])c([H])c2C1([H])[H]

$$$$
31:0:0
     RDKit          3D

 99107  0  0  1  0  0  0  0  0999 V2000
  -29.5450  -19.9560   21.1640 C   0  0  0  0  0  3  0  0  0  0  0  0
  -29.4880  -19.0570   20.1020 C   0  0  0  0  0  0  0  0  0  0  0  0
  -28.6430  -21.4800   19.6670 C   0  0  0  0  0  0  0  0  0  0  0  0
  -28.0270  -24.0770   19.1190 C   0  0  0  0  0  0  0  0  0  0  0  0
  -29.0930  -21.2980   20.9200 N   0  0  0  0  0  0  0  0  0  0  0  0
  -28.2000  -22.7090   18.9960 N   0  0  0  0  0  0  0  0  0  0  0  0
  -27.6960  -24.6420   18.0760 O   0  0  0  0  0  0  0  0  0  0  0  0
  -28.7040  -19.9230   18.7670 S   0  0  0  0  0  0  0  0  0  0  0  0
  -27.9670  -22.4900   18.0380 H   0  0  0  0  0  0  0  0  0  0  0  0
  -27.2380  -24.6800   21.5030 C   0  0  0  0  0  1  0  0  0  0  0  0
  -28.2050  -25.0390   20.3620 C   0  0  0  0  0  3  0  0  0  0  0  0
  -28.2320  -26.5230   20.0440 O   0  0  0  0  0  0  0  0  0  0  0  0
  -24.6130  -31.9560   23.2210 C   0  0  0  0  0  0  0  0  0  0  0  0
  -27.1030  -27.3700   20.0690 C   0  0  0  0  0  0  0  0  0  0  0  0
  -23.3520  -30.5670   21.6140 C   0  0  0  0  0  3  0  0  0  0  0  0
  -24.7480  -29.0150   20.1320 C   0  0  0  0  0  0  0  0  0  0  0  0
  -25.8840  -30.8750   21.3450 C   0  0  0  0  0  2  0  0  0  0  0  0
  -25.9380  -29.4940   20.6910 C   0  0  0  0  0  0  0  0  0  0  0  0
  -27.1190  -28.6860   20.6400 C   0  0  0  0  0  3  0  0  0  0  0  0
  -25.8870  -26.9470   19.4880 C   0  0  0  0  0  3  0  0  0  0  0  0
  -24.7290  -27.7500   19.5210 C   0  0  0  0  0  3  0  0  0  0  0  0
  -23.5150  -29.8920   20.2260 C   0  0  0  0  0  2  0  0  0  0  0  0
  -24.6380  -31.1490   22.1180 N   0  0  0  0  0  0  0  0  0  0  0  0
  -23.5480  -32.2370   23.7890 O   0  0  0  0  0  0  0  0  0  0  0  0
  -22.7180  -29.5500   22.5910 C   0  0  0  0  0  0  0  0  0  0  0  0
  -21.3960  -29.3430   22.4730 N   0  0  0  0  0  0  0  0  0  0  0  0
  -23.4140  -28.9580   23.4180 O   0  0  0  0  0  0  0  0  0  0  0  0
  -20.8980  -29.8760   21.7740 H   0  0  0  0  0  0  0  0  0  0  0  0
  -18.0630  -28.0210   22.9640 C   0  0  0  0  0  0  0  0  0  0  0  0
  -20.6040  -28.3930   23.2540 C   0  0  0  0  0  3  0  0  0  0  0  0
  -20.7710  -26.9510   22.7200 C   0  0  0  0  0  2  0  0  0  0  0  0
  -19.6970  -26.5580   21.7020 C   0  0  0  0  0  2  0  0  0  0  0  0
  -18.3020  -26.6620   22.3250 C   0  0  0  0  0  2  0  0  0  0  0  0
  -19.1440  -28.8390   23.3870 C   0  0  0  0  0  0  0  0  0  0  0  0
  -18.8680  -30.1030   23.9490 C   0  0  0  0  0  3  0  0  0  0  0  0
  -17.5430  -30.5550   24.0880 C   0  0  0  0  0  3  0  0  0  0  0  0
  -16.4750  -29.7370   23.6780 C   0  0  0  0  0  3  0  0  0  0  0  0
  -16.7350  -28.4710   23.1250 C   0  0  0  0  0  3  0  0  0  0  0  0
  -25.9180  -32.5780   23.8080 C   0  0  0  0  0  3  0  0  0  0  0  0
  -25.6190  -33.9730   24.1680 N   0  0  0  0  0  0  0  0  0  0  0  0
  -25.9250  -35.0390   23.4140 C   0  0  0  0  0  0  0  0  0  0  0  0
  -26.5560  -34.9500   22.3570 O   0  0  0  0  0  0  0  0  0  0  0  0
  -25.0430  -34.1200   24.9850 H   0  0  0  0  0  0  0  0  0  0  0  0
  -24.1890  -36.8440   23.1500 C   0  0  0  0  0  1  0  0  0  0  0  0
  -25.4560  -36.4210   23.9110 C   0  0  0  0  0  3  0  0  0  0  0  0
  -27.6170  -37.2980   24.6850 C   0  0  0  0  0  1  0  0  0  0  0  0
  -26.4860  -37.4740   23.7780 N   0  0  0  0  0  0  0  0  0  0  0  0
  -26.0860  -38.3940   23.9440 H   0  0  0  0  0  0  0  0  0  0  0  0
  -26.4810  -31.7920   25.0570 C   0  0  1  0  0  0  0  0  0  0  0  0
  -25.4190  -31.5210   26.1480 C   0  0  0  0  0  1  0  0  0  0  0  0
  -27.0750  -30.4290   24.6270 C   0  0  0  0  0  1  0  0  0  0  0  0
  -27.6370  -32.5930   25.7060 C   0  0  0  0  0  1  0  0  0  0  0  0
  -30.2060  -17.6580   19.8810 C   0  0  0  0  0  0  0  0  0  0  0  0
  -32.4780  -18.6670   20.2910 C   0  0  0  0  0  0  0  0  0  0  0  0
  -31.6130  -17.9360   19.5700 N   0  0  0  0  0  4  0  0  0  0  0  0
  -32.4770  -18.6750   21.5240 O   0  0  0  0  0  0  0  0  0  0  0  0
  -31.8320  -17.8900   18.5840 H   0  0  0  0  0  0  0  0  0  0  0  0
  -34.8750  -19.2080   19.6320 C   0  0  0  0  0  1  0  0  0  0  0  0
  -32.9910  -19.7340   18.0140 C   0  0  0  0  0  1  0  0  0  0  0  0
  -33.2450  -21.0520   20.1240 C   0  0  0  0  0  1  0  0  0  0  0  0
  -33.4000  -19.6420   19.5070 C   0  0  1  0  0  0  0  0  0  0  0  0
  -29.9380  -16.2940   20.7410 C   0  0  0  0  0  3  0  0  0  0  0  0
  -30.1240  -16.5350   22.0420 F   0  0  0  0  0  0  0  0  0  0  0  0
  -30.6920  -14.9110   20.3630 C   0  0  0  0  0  0  0  0  0  0  0  0
  -30.5000  -12.6090   19.3830 C   0  0  0  0  0  2  0  0  0  0  0  0
  -29.5730  -12.6680   18.1490 C   0  0  0  0  0  2  0  0  0  0  0  0
  -28.1030  -12.4840   18.5750 C   0  0  0  0  0  2  0  0  0  0  0  0
  -27.7140  -13.3900   19.7720 C   0  0  0  0  0  3  0  0  0  0  0  0
  -28.7670  -13.3380   20.9010 C   0  0  0  0  0  2  0  0  0  0  0  0
  -30.0720  -13.6770   20.3210 N   0  0  0  0  0  0  0  0  0  0  0  0
  -31.8640  -14.9790   19.9750 O   0  0  0  0  0  0  0  0  0  0  0  0
  -25.3240  -13.9670   20.5100 C   0  0  0  0  0  0  0  0  0  0  0  0
  -24.2630  -13.1850   20.8730 C   0  0  0  0  0  0  0  0  0  0  0  0
  -24.7290  -11.8360   20.8330 C   0  0  0  0  0  0  0  0  0  0  0  0
  -26.3720  -13.0950   20.2630 N   0  0  0  0  0  0  0  0  0  0  0  0
  -26.0210  -11.8080   20.5230 N   0  0  0  0  0  0  0  0  0  0  0  0
  -24.0080  -10.5680   21.0130 C   0  0  0  0  0  0  0  0  0  0  0  0
  -24.4170   -9.6130   21.9690 C   0  0  0  0  0  3  0  0  0  0  0  0
  -23.6970   -8.4120   22.1370 C   0  0  0  0  0  3  0  0  0  0  0  0
  -22.5490   -8.1580   21.3480 C   0  0  0  0  0  0  0  0  0  0  0  0
  -22.1590   -9.1010   20.3820 C   0  0  0  0  0  3  0  0  0  0  0  0
  -22.8810  -10.2930   20.2130 C   0  0  0  0  0  3  0  0  0  0  0  0
  -21.8000   -7.0080   21.4260 O   0  0  0  0  0  0  0  0  0  0  0  0
  -21.6860   -6.3010   22.5950 C   0  0  0  0  0  0  0  0  0  0  0  0
  -21.1460   -6.8770   23.7660 C   0  0  0  0  0  3  0  0  0  0  0  0
  -20.9820   -6.0930   24.9250 C   0  0  0  0  0  3  0  0  0  0  0  0
  -21.3490   -4.7340   24.9150 C   0  0  0  0  0  0  0  0  0  0  0  0
  -21.8820   -4.1570   23.7480 C   0  0  0  0  0  3  0  0  0  0  0  0
  -22.0470   -4.9390   22.5910 C   0  0  0  0  0  0  0  0  0  0  0  0
  -22.5420   -4.3720   21.4640 F   0  0  0  0  0  0  0  0  0  0  0  0
  -21.1840   -3.9790   26.0260 F   0  0  0  0  0  0  0  0  0  0  0  0
  -22.8590  -13.6530   21.1450 C   0  0  0  0  0  0  0  0  0  0  0  0
  -22.1320  -12.9430   22.0020 N   0  0  0  0  0  0  0  0  0  0  0  0
  -22.4180  -14.6800   20.6330 O   0  0  0  0  0  0  0  0  0  0  0  0
  -22.5000  -12.1120   22.4370 H   0  0  0  0  0  0  0  0  0  0  0  0
  -21.1940  -13.2410   22.2260 H   0  0  0  0  0  0  0  0  0  0  0  0
  -25.4850  -15.3400   20.3400 N   0  0  0  0  0  0  0  0  0  0  0  0
  -24.7170  -15.9940   20.4520 H   0  0  0  0  0  0  0  0  0  0  0  0
  -26.3290  -15.7770   19.9960 H   0  0  0  0  0  0  0  0  0  0  0  0
  2  1  2  0
  3  5  2  0
  4 11  1  0
  5  1  1  0
  6  4  1  0
  6  3  1  0
  7  4  2  0
  8  3  1  0
  8  2  1  0
  9  6  1  0
 11 10  1  0
 12 14  1  0
 12 11  1  0
 13 24  2  0
 14 19  1  0
 15 23  1  0
 15 25  1  0
 16 22  1  0
 16 18  1  0
 17 23  1  0
 18 17  1  0
 19 18  2  0
 20 21  1  0
 20 14  2  0
 21 16  2  0
 22 15  1  0
 23 13  1  0
 25 27  2  0
 26 25  1  0
 28 26  1  0
 29 38  2  0
 29 34  1  0
 30 26  1  0
 30 34  1  0
 31 30  1  0
 32 33  1  0
 32 31  1  0
 33 29  1  0
 34 35  2  0
 35 36  1  0
 37 36  2  0
 38 37  1  0
 39 13  1  0
 39 40  1  0
 39 49  1  0
 40 43  1  0
 41 45  1  0
 41 40  1  0
 42 41  2  0
 45 44  1  0
 47 45  1  0
 47 48  1  0
 47 46  1  0
 49 52  1  1
 49 50  1  0
 51 49  1  0
 53  2  1  0
 53 62  1  0
 54 56  2  0
 55 53  2  3
 55 54  1  0
 57 55  1  0
 61 59  1  6
 61 58  1  0
 61 60  1  0
 61 54  1  0
 62 63  1  0
 64 62  1  0
 65 70  1  0
 66 67  1  0
 66 65  1  0
 68 67  1  0
 68 75  1  0
 68 69  1  0
 70 64  1  0
 70 69  1  0
 71 64  2  0
 72 73  2  0
 73 92  1  0
 74 73  1  0
 74 77  1  0
 75 72  1  0
 75 76  1  0
 76 74  2  0
 77 78  1  0
 78 79  2  0
 80 83  1  0
 80 79  1  0
 81 80  2  0
 82 81  1  0
 82 77  2  0
 83 84  1  0
 84 85  1  0
 85 86  2  0
 87 86  1  0
 87 91  1  0
 88 87  2  0
 89 84  2  0
 89 88  1  0
 90 89  1  0
 92 93  1  0
 93 96  1  0
 93 95  1  0
 94 92  2  0
 97 98  1  0
 97 72  1  0
 99 97  1  0
M  ISO  4  11 101  12 101  62 100  64 100
M  END
>  <TORSDO>  (32) 
F 21

>  <SCORE>  (32) 
-13.890

>  <name>  (32) 
31

>  <ligand_id>  (32) 
31

>  <original_smiles>  (32) 
[H]c1nc(N([H])C(=O)C([H])(Oc2c([H])c([H])c3c(c2[H])C([H])([H])N(C(=O)C([H])(N([H])C(=O)C([H])(N([H])C([H])([H])[H])C([H])([H])[H])C(C([H])([H])[H])(C([H])([H])[H])C([H])([H])[H])C([H])(C(=O)N([H])C2([H])c4c([H])c([H])c([H])c([H])c4C([H])([H])C([H])([H])C2([H])[H])C3([H])[H])C([H])([H])[H])sc1C([H])(N([H])C(=O)C(C([H])([H])[H])(C([H])([H])[H])C([H])([H])[H])C([H])(F)C(=O)N1C([H])([H])C([H])([H])C([H])([H])C([H])(n2nc(-c3c([H])c([H])c(Oc4c([H])c([H])c(F)c([H])c4F)c([H])c3[H])c(C(=O)N([H])[H])c2N([H])[H])C1([H])[H]

>  <smiles>  (32) 
[H]c1nc(N([H])C(=O)C([H])(Oc2c([H])c([H])c3c(c2[H])C([H])([H])N(C(=O)C([H])(N([H])C(=O)C([H])(N([H])C([H])([H])[H])C([H])([H])[H])C(C([H])([H])[H])(C([H])([H])[H])C([H])([H])[H])C([H])(C(=O)N([H])C2([H])c4c([H])c([H])c([H])c([H])c4C([H])([H])C([H])([H])C2([H])[H])C3([H])[H])C([H])([H])[H])sc1C([H])(N([H])C(=O)C(C([H])([H])[H])(C([H])([H])[H])C([H])([H])[H])C([H])(F)C(=O)N1C([H])([H])C([H])([H])C([H])([H])C([H])(n2nc(-c3c([H])c([H])c(Oc4c([H])c([H])c(F)c([H])c4F)c([H])c3[H])c(C(=O)N([H])[H])c2N([H])[H])C1([H])[H]

$$$$
32:0:0
     RDKit          3D

 90 98  0  0  1  0  0  0  0  0999 V2000
  -30.7980  -18.2300   21.6840 C   0  0  0  0  0  3  0  0  0  0  0  0
  -29.9400  -17.9240   20.6460 C   0  0  0  0  0  0  0  0  0  0  0  0
  -29.5380  -20.4360   20.9240 C   0  0  0  0  0  0  0  0  0  0  0  0
  -28.8420  -23.1340   20.3570 C   0  0  0  0  0  0  0  0  0  0  0  0
  -29.1960  -19.2020   20.2900 N   0  0  0  0  0  0  0  0  0  0  0  0
  -28.7960  -21.8340   21.0250 N   0  0  0  0  0  0  0  0  0  0  0  0
  -29.4880  -23.2370   19.2990 O   0  0  0  0  0  0  0  0  0  0  0  0
  -30.7980  -19.9710   22.1350 S   0  0  0  0  0  0  0  0  0  0  0  0
  -28.2930  -21.9250   21.9240 H   0  0  0  0  0  0  0  0  0  0  0  0
  -30.5200  -15.1930   20.2450 C   0  0  0  0  0  0  0  0  0  0  0  0
  -30.4030  -12.8300   19.2630 C   0  0  0  0  0  2  0  0  0  0  0  0
  -29.4240  -12.6090   18.0860 C   0  0  0  0  0  2  0  0  0  0  0  0
  -28.0070  -12.3390   18.6160 C   0  0  0  0  0  2  0  0  0  0  0  0
  -27.5740  -13.3590   19.6950 C   0  0  0  0  0  3  0  0  0  0  0  0
  -28.6550  -13.5090   20.7840 C   0  0  0  0  0  2  0  0  0  0  0  0
  -29.8850  -13.9500   20.1080 N   0  0  0  0  0  0  0  0  0  0  0  0
  -31.7520  -15.1700   20.1230 O   0  0  0  0  0  0  0  0  0  0  0  0
  -29.7830  -16.4440   20.1500 N   0  0  0  0  0  0  0  0  0  0  0  0
  -28.9730  -16.3280   19.5630 H   0  0  0  0  0  0  0  0  0  0  0  0
  -25.2230  -13.9370   20.5290 C   0  0  0  0  0  0  0  0  0  0  0  0
  -24.1680  -13.1670   20.8930 C   0  0  0  0  0  0  0  0  0  0  0  0
  -24.6290  -11.8100   20.8460 C   0  0  0  0  0  0  0  0  0  0  0  0
  -26.2600  -13.0610   20.2500 N   0  0  0  0  0  0  0  0  0  0  0  0
  -25.9130  -11.7760   20.5140 N   0  0  0  0  0  0  0  0  0  0  0  0
  -23.9070  -10.5490   21.0370 C   0  0  0  0  0  0  0  0  0  0  0  0
  -24.3500   -9.5790   21.9630 C   0  0  0  0  0  3  0  0  0  0  0  0
  -23.6310   -8.3810   22.1420 C   0  0  0  0  0  3  0  0  0  0  0  0
  -22.4490   -8.1430   21.3980 C   0  0  0  0  0  0  0  0  0  0  0  0
  -22.0230   -9.1030   20.4620 C   0  0  0  0  0  3  0  0  0  0  0  0
  -22.7430  -10.2920   20.2810 C   0  0  0  0  0  3  0  0  0  0  0  0
  -21.6980   -6.9960   21.4860 O   0  0  0  0  0  0  0  0  0  0  0  0
  -21.6550   -6.2500   22.6390 C   0  0  0  0  0  0  0  0  0  0  0  0
  -21.2250   -6.8010   23.8670 C   0  0  0  0  0  3  0  0  0  0  0  0
  -21.1340   -5.9800   25.0110 C   0  0  0  0  0  3  0  0  0  0  0  0
  -21.4630   -4.6150   24.9250 C   0  0  0  0  0  0  0  0  0  0  0  0
  -21.8880   -4.0660   23.7020 C   0  0  0  0  0  3  0  0  0  0  0  0
  -21.9820   -4.8840   22.5620 C   0  0  0  0  0  0  0  0  0  0  0  0
  -22.3690   -4.3460   21.3820 F   0  0  0  0  0  0  0  0  0  0  0  0
  -21.3690   -3.8250   26.0200 F   0  0  0  0  0  0  0  0  0  0  0  0
  -22.7690  -13.6400   21.1940 C   0  0  0  0  0  0  0  0  0  0  0  0
  -22.0510  -12.9350   22.0530 N   0  0  0  0  0  0  0  0  0  0  0  0
  -22.3340  -14.6750   20.6900 O   0  0  0  0  0  0  0  0  0  0  0  0
  -22.4180  -12.0930   22.4810 H   0  0  0  0  0  0  0  0  0  0  0  0
  -21.1160  -13.2350   22.2890 H   0  0  0  0  0  0  0  0  0  0  0  0
  -25.4150  -15.3140   20.3960 N   0  0  0  0  0  0  0  0  0  0  0  0
  -24.7030  -15.9800   20.6630 H   0  0  0  0  0  0  0  0  0  0  0  0
  -26.3370  -15.7210   20.3400 H   0  0  0  0  0  0  0  0  0  0  0  0
  -26.5250  -24.2010   21.2360 C   0  0  0  0  0  1  0  0  0  0  0  0
  -28.0190  -24.5460   20.8860 C   0  0  0  0  0  3  0  0  0  0  0  0
  -28.2810  -26.0630   20.3760 O   0  0  0  0  0  0  0  0  0  0  0  0
  -24.6130  -31.8980   23.2210 C   0  0  0  0  0  0  0  0  0  0  0  0
  -27.2740  -27.1230   20.2920 C   0  0  0  0  0  0  0  0  0  0  0  0
  -23.4630  -30.4840   21.5670 C   0  0  0  0  0  3  0  0  0  0  0  0
  -24.9630  -28.9140   20.1790 C   0  0  0  0  0  0  0  0  0  0  0  0
  -26.0210  -30.7650   21.4460 C   0  0  0  0  0  2  0  0  0  0  0  0
  -26.1280  -29.3530   20.8220 C   0  0  0  0  0  0  0  0  0  0  0  0
  -27.2810  -28.4690   20.8680 C   0  0  0  0  0  3  0  0  0  0  0  0
  -26.1200  -26.8590   19.5200 C   0  0  0  0  0  3  0  0  0  0  0  0
  -24.9770  -27.6850   19.5130 C   0  0  0  0  0  3  0  0  0  0  0  0
  -23.7270  -29.8050   20.1980 C   0  0  0  0  0  2  0  0  0  0  0  0
  -24.7240  -31.0710   22.1360 N   0  0  0  0  0  0  0  0  0  0  0  0
  -23.5110  -32.1680   23.7240 O   0  0  0  0  0  0  0  0  0  0  0  0
  -22.7790  -29.4750   22.5190 C   0  0  0  0  0  0  0  0  0  0  0  0
  -21.4550  -29.2930   22.3650 N   0  0  0  0  0  0  0  0  0  0  0  0
  -23.4380  -28.8560   23.3540 O   0  0  0  0  0  0  0  0  0  0  0  0
  -20.9820  -29.8390   21.6580 H   0  0  0  0  0  0  0  0  0  0  0  0
  -18.0640  -28.0890   22.8270 C   0  0  0  0  0  0  0  0  0  0  0  0
  -20.6230  -28.3460   23.1160 C   0  0  0  0  0  3  0  0  0  0  0  0
  -20.7320  -26.9220   22.5210 C   0  0  0  0  0  2  0  0  0  0  0  0
  -19.6380  -26.6150   21.4960 C   0  0  0  0  0  2  0  0  0  0  0  0
  -18.2490  -26.7470   22.1300 C   0  0  0  0  0  2  0  0  0  0  0  0
  -19.1830  -28.8450   23.2740 C   0  0  0  0  0  0  0  0  0  0  0  0
  -18.9630  -30.1000   23.8800 C   0  0  0  0  0  3  0  0  0  0  0  0
  -17.6610  -30.6000   24.0530 C   0  0  0  0  0  3  0  0  0  0  0  0
  -16.5570  -29.8440   23.6210 C   0  0  0  0  0  3  0  0  0  0  0  0
  -16.7570  -28.5890   23.0150 C   0  0  0  0  0  3  0  0  0  0  0  0
  -25.8650  -32.5520   23.8760 C   0  0  0  0  0  3  0  0  0  0  0  0
  -25.5340  -33.9540   24.1790 N   0  0  0  0  0  0  0  0  0  0  0  0
  -25.8880  -35.0010   23.4250 C   0  0  0  0  0  0  0  0  0  0  0  0
  -26.5930  -34.8890   22.4190 O   0  0  0  0  0  0  0  0  0  0  0  0
  -24.9090  -34.1170   24.9550 H   0  0  0  0  0  0  0  0  0  0  0  0
  -24.1710  -36.7900   22.9960 C   0  0  0  0  0  1  0  0  0  0  0  0
  -25.3810  -36.3900   23.8550 C   0  0  0  0  0  3  0  0  0  0  0  0
  -27.4820  -37.2910   24.7580 C   0  0  0  0  0  1  0  0  0  0  0  0
  -26.4130  -37.4490   23.7740 N   0  0  0  0  0  0  0  0  0  0  0  0
  -25.9960  -38.3670   23.9080 H   0  0  0  0  0  0  0  0  0  0  0  0
  -26.3390  -31.8060   25.1800 C   0  0  1  0  0  0  0  0  0  0  0  0
  -25.2100  -31.5890   26.2140 C   0  0  0  0  0  1  0  0  0  0  0  0
  -26.9320  -30.4210   24.8290 C   0  0  0  0  0  1  0  0  0  0  0  0
  -27.4730  -32.6100   25.8580 C   0  0  0  0  0  1  0  0  0  0  0  0
  1  8  1  0
  2  1  2  0
  3  6  1  0
  3  8  1  0
  4 49  1  0
  4  6  1  0
  5  2  1  0
  5  3  2  0
  6  9  1  0
  7  4  2  0
 11 16  1  0
 12 13  1  0
 12 11  1  0
 14 13  1  0
 14 23  1  0
 14 15  1  0
 16 10  1  0
 16 15  1  0
 17 10  2  0
 18 10  1  0
 18  2  1  0
 19 18  1  0
 20 21  2  0
 21 40  1  0
 22 21  1  0
 22 25  1  0
 23 24  1  0
 23 20  1  0
 24 22  2  0
 25 26  1  0
 26 27  2  0
 28 31  1  0
 28 27  1  0
 29 28  2  0
 30 29  1  0
 30 25  2  0
 31 32  1  0
 32 33  1  0
 33 34  2  0
 35 34  1  0
 35 39  1  0
 36 35  2  0
 37 32  2  0
 37 36  1  0
 38 37  1  0
 40 41  1  0
 41 44  1  0
 41 43  1  0
 42 40  2  0
 45 20  1  0
 45 46  1  0
 47 45  1  0
 49 48  1  0
 50 49  1  0
 51 62  2  0
 52 50  1  0
 52 57  1  0
 53 61  1  0
 53 63  1  0
 54 60  1  0
 54 56  1  0
 55 61  1  0
 56 57  2  0
 56 55  1  0
 58 52  2  0
 59 58  1  0
 59 54  2  0
 60 53  1  0
 61 51  1  0
 63 65  2  0
 64 63  1  0
 66 64  1  0
 67 76  2  0
 67 72  1  0
 68 64  1  0
 68 72  1  0
 69 68  1  0
 70 71  1  0
 70 69  1  0
 71 67  1  0
 72 73  2  0
 73 74  1  0
 75 74  2  0
 76 75  1  0
 77 51  1  0
 77 78  1  0
 77 87  1  0
 78 81  1  0
 79 83  1  0
 79 78  1  0
 80 79  2  0
 83 82  1  0
 85 83  1  0
 85 86  1  0
 85 84  1  0
 87 90  1  1
 87 88  1  0
 89 87  1  0
M  ISO  4  10 100  18 100  49 101  50 101
M  END
>  <TORSDO>  (33) 
F 17

>  <SCORE>  (33) 
-15.617

>  <name>  (33) 
32

>  <ligand_id>  (33) 
32

>  <original_smiles>  (33) 
[H]c1sc(N([H])C(=O)C([H])(Oc2c([H])c([H])c3c(c2[H])C([H])([H])N(C(=O)C([H])(N([H])C(=O)C([H])(N([H])C([H])([H])[H])C([H])([H])[H])C(C([H])([H])[H])(C([H])([H])[H])C([H])([H])[H])C([H])(C(=O)N([H])C2([H])c4c([H])c([H])c([H])c([H])c4C([H])([H])C([H])([H])C2([H])[H])C3([H])[H])C([H])([H])[H])nc1N([H])C(=O)N1C([H])([H])C([H])([H])C([H])([H])C([H])(n2nc(-c3c([H])c([H])c(Oc4c([H])c([H])c(F)c([H])c4F)c([H])c3[H])c(C(=O)N([H])[H])c2N([H])[H])C1([H])[H]

>  <smiles>  (33) 
[H]c1sc(N([H])C(=O)C([H])(Oc2c([H])c([H])c3c(c2[H])C([H])([H])N(C(=O)C([H])(N([H])C(=O)C([H])(N([H])C([H])([H])[H])C([H])([H])[H])C(C([H])([H])[H])(C([H])([H])[H])C([H])([H])[H])C([H])(C(=O)N([H])C2([H])c4c([H])c([H])c([H])c([H])c4C([H])([H])C([H])([H])C2([H])[H])C3([H])[H])C([H])([H])[H])nc1N([H])C(=O)N1C([H])([H])C([H])([H])C([H])([H])C([H])(n2nc(-c3c([H])c([H])c(Oc4c([H])c([H])c(F)c([H])c4F)c([H])c3[H])c(C(=O)N([H])[H])c2N([H])[H])C1([H])[H]

$$$$
33:0:0
     RDKit          3D

 93101  0  0  1  0  0  0  0  0999 V2000
  -29.5420  -22.4900   20.2690 C   0  0  0  0  0  0  0  0  0  0  0  0
  -31.1630  -17.8650   21.2390 C   0  0  0  0  0  3  0  0  0  0  0  0
  -30.0380  -17.3840   20.6180 C   0  0  0  0  0  0  0  0  0  0  0  0
  -29.6620  -19.7460   20.4750 C   0  0  0  0  0  0  0  0  0  0  0  0
  -29.1870  -18.4830   20.2060 N   0  0  0  0  0  0  0  0  0  0  0  0
  -29.0920  -21.0360   20.1330 N   0  0  0  0  0  4  0  0  0  0  0  0
  -31.1910  -19.6220   21.3520 S   0  0  0  0  0  0  0  0  0  0  0  0
  -28.2470  -20.9390   19.5810 H   0  0  0  0  0  0  0  0  0  0  0  0
  -30.5490  -14.8060   20.3870 C   0  0  0  0  0  0  0  0  0  0  0  0
  -30.3460  -12.5200   19.3800 C   0  0  0  0  0  2  0  0  0  0  0  0
  -29.4220  -12.5960   18.1460 C   0  0  0  0  0  2  0  0  0  0  0  0
  -27.9460  -12.4410   18.5650 C   0  0  0  0  0  2  0  0  0  0  0  0
  -27.5730  -13.3020   19.8020 C   0  0  0  0  0  3  0  0  0  0  0  0
  -28.6340  -13.2380   20.9220 C   0  0  0  0  0  2  0  0  0  0  0  0
  -29.9210  -13.5820   20.3160 N   0  0  0  0  0  0  0  0  0  0  0  0
  -31.7490  -14.8910   20.1090 O   0  0  0  0  0  0  0  0  0  0  0  0
  -29.7410  -15.9340   20.5130 N   0  0  0  0  0  0  0  0  0  0  0  0
  -28.7580  -15.7180   20.5370 H   0  0  0  0  0  0  0  0  0  0  0  0
  -25.1760  -13.8790   20.5030 C   0  0  0  0  0  0  0  0  0  0  0  0
  -24.1110  -13.0970   20.8680 C   0  0  0  0  0  0  0  0  0  0  0  0
  -24.5860  -11.7510   20.8510 C   0  0  0  0  0  0  0  0  0  0  0  0
  -26.2290  -13.0050   20.2860 N   0  0  0  0  0  0  0  0  0  0  0  0
  -25.8800  -11.7200   20.5620 N   0  0  0  0  0  0  0  0  0  0  0  0
  -23.8610  -10.4860   21.0400 C   0  0  0  0  0  0  0  0  0  0  0  0
  -24.2880   -9.5200   21.9800 C   0  0  0  0  0  3  0  0  0  0  0  0
  -23.5610   -8.3220   22.1550 C   0  0  0  0  0  3  0  0  0  0  0  0
  -22.3950   -8.0810   21.3900 C   0  0  0  0  0  0  0  0  0  0  0  0
  -21.9890   -9.0350   20.4380 C   0  0  0  0  0  3  0  0  0  0  0  0
  -22.7160  -10.2240   20.2620 C   0  0  0  0  0  3  0  0  0  0  0  0
  -21.6400   -6.9360   21.4760 O   0  0  0  0  0  0  0  0  0  0  0  0
  -21.5860   -6.1950   22.6290 C   0  0  0  0  0  0  0  0  0  0  0  0
  -21.1400   -6.7480   23.8490 C   0  0  0  0  0  3  0  0  0  0  0  0
  -21.0300   -5.9330   24.9930 C   0  0  0  0  0  3  0  0  0  0  0  0
  -21.3560   -4.5660   24.9210 C   0  0  0  0  0  0  0  0  0  0  0  0
  -21.7930   -4.0110   23.7050 C   0  0  0  0  0  3  0  0  0  0  0  0
  -21.9020   -4.8220   22.5610 C   0  0  0  0  0  0  0  0  0  0  0  0
  -22.3050   -4.2770   21.3890 F   0  0  0  0  0  0  0  0  0  0  0  0
  -21.2460   -3.7810   26.0190 F   0  0  0  0  0  0  0  0  0  0  0  0
  -22.7090  -13.5700   21.1190 C   0  0  0  0  0  0  0  0  0  0  0  0
  -21.9760  -12.8710   21.9780 N   0  0  0  0  0  0  0  0  0  0  0  0
  -22.2710  -14.5900   20.5880 O   0  0  0  0  0  0  0  0  0  0  0  0
  -22.3440  -12.0450   22.4230 H   0  0  0  0  0  0  0  0  0  0  0  0
  -21.0350  -13.1700   22.1940 H   0  0  0  0  0  0  0  0  0  0  0  0
  -25.3220  -15.2500   20.3150 N   0  0  0  0  0  0  0  0  0  0  0  0
  -24.5270  -15.8790   20.3810 H   0  0  0  0  0  0  0  0  0  0  0  0
  -26.1560  -15.7120   19.9730 H   0  0  0  0  0  0  0  0  0  0  0  0
  -30.7950  -22.7770   19.4060 C   0  0  0  0  0  3  0  0  0  0  0  0
  -31.5480  -23.6980   20.0070 F   0  0  0  0  0  0  0  0  0  0  0  0
  -31.5690  -21.7110   19.2140 F   0  0  0  0  0  0  0  0  0  0  0  0
  -28.4450  -23.7190   20.2430 C   0  0  0  0  0  2  0  0  0  0  0  0
  -28.5790  -25.3130   18.1350 C   0  0  0  0  0  1  0  0  0  0  0  0
  -28.7630  -25.2190   19.6630 C   0  0  0  0  0  3  0  0  0  0  0  0
  -28.4100  -26.5170   20.3340 O   0  0  0  0  0  0  0  0  0  0  0  0
  -24.5740  -31.8920   23.2380 C   0  0  0  0  0  0  0  0  0  0  0  0
  -27.2400  -27.3010   20.2400 C   0  0  0  0  0  0  0  0  0  0  0  0
  -23.3830  -30.4770   21.5920 C   0  0  0  0  0  3  0  0  0  0  0  0
  -24.8450  -28.8980   20.2060 C   0  0  0  0  0  0  0  0  0  0  0  0
  -25.9140  -30.8110   21.4080 C   0  0  0  0  0  2  0  0  0  0  0  0
  -26.0080  -29.4170   20.7880 C   0  0  0  0  0  0  0  0  0  0  0  0
  -27.1990  -28.6280   20.7900 C   0  0  0  0  0  3  0  0  0  0  0  0
  -26.0390  -26.8180   19.6810 C   0  0  0  0  0  3  0  0  0  0  0  0
  -24.8630  -27.6020   19.6580 C   0  0  0  0  0  3  0  0  0  0  0  0
  -23.5980  -29.7630   20.2270 C   0  0  0  0  0  2  0  0  0  0  0  0
  -24.6430  -31.0790   22.1390 N   0  0  0  0  0  0  0  0  0  0  0  0
  -23.4870  -32.1710   23.7660 O   0  0  0  0  0  0  0  0  0  0  0  0
  -22.7100  -29.4790   22.5640 C   0  0  0  0  0  0  0  0  0  0  0  0
  -21.3830  -29.3060   22.4410 N   0  0  0  0  0  0  0  0  0  0  0  0
  -23.3860  -28.8560   23.3860 O   0  0  0  0  0  0  0  0  0  0  0  0
  -20.8850  -29.8690   21.7630 H   0  0  0  0  0  0  0  0  0  0  0  0
  -18.0160  -28.0980   22.9540 C   0  0  0  0  0  0  0  0  0  0  0  0
  -20.5740  -28.3630   23.2130 C   0  0  0  0  0  3  0  0  0  0  0  0
  -20.6700  -26.9290   22.6420 C   0  0  0  0  0  2  0  0  0  0  0  0
  -19.5680  -26.6060   21.6250 C   0  0  0  0  0  2  0  0  0  0  0  0
  -18.1910  -26.7500   22.2750 C   0  0  0  0  0  2  0  0  0  0  0  0
  -19.1350  -28.8620   23.3810 C   0  0  0  0  0  0  0  0  0  0  0  0
  -18.9190  -30.1230   23.9750 C   0  0  0  0  0  3  0  0  0  0  0  0
  -17.6150  -30.6280   24.1390 C   0  0  0  0  0  3  0  0  0  0  0  0
  -16.5100  -29.8640   23.7230 C   0  0  0  0  0  3  0  0  0  0  0  0
  -16.7120  -28.5990   23.1440 C   0  0  0  0  0  3  0  0  0  0  0  0
  -25.8530  -32.5280   23.8700 C   0  0  0  0  0  3  0  0  0  0  0  0
  -26.3600  -31.7660   25.1590 C   0  0  1  0  0  0  0  0  0  0  0  0
  -25.2610  -31.5470   26.2230 C   0  0  0  0  0  1  0  0  0  0  0  0
  -26.9310  -30.3790   24.7810 C   0  0  0  0  0  1  0  0  0  0  0  0
  -27.5140  -32.5520   25.8250 C   0  0  0  0  0  1  0  0  0  0  0  0
  -25.5470  -33.9330   24.1900 N   0  0  0  0  0  0  0  0  0  0  0  0
  -25.8870  -34.9770   23.4250 C   0  0  0  0  0  0  0  0  0  0  0  0
  -26.5630  -34.8640   22.4010 O   0  0  0  0  0  0  0  0  0  0  0  0
  -24.9610  -34.1020   24.9950 H   0  0  0  0  0  0  0  0  0  0  0  0
  -24.1730  -36.7740   23.0260 C   0  0  0  0  0  1  0  0  0  0  0  0
  -25.3980  -36.3720   23.8640 C   0  0  0  0  0  3  0  0  0  0  0  0
  -27.5230  -37.2560   24.7180 C   0  0  0  0  0  1  0  0  0  0  0  0
  -26.4360  -37.4190   23.7560 N   0  0  0  0  0  0  0  0  0  0  0  0
  -26.0280  -38.3420   23.8870 H   0  0  0  0  0  0  0  0  0  0  0  0
  2  7  1  0
  3  2  2  0
  4  7  1  0
  5  4  2  0
  5  3  1  0
  6  1  2  0
  6  4  1  0
  8  6  1  0
  9 17  1  0
 10 15  1  0
 11 12  1  0
 11 10  1  0
 13 12  1  0
 13 22  1  0
 13 14  1  0
 15  9  1  0
 15 14  1  0
 16  9  2  0
 17 18  1  0
 17  3  1  0
 19 20  2  0
 20 39  1  0
 21 20  1  0
 21 24  1  0
 22 19  1  0
 22 23  1  0
 23 21  2  0
 24 25  1  0
 25 26  2  0
 27 30  1  0
 27 26  1  0
 28 27  2  0
 29 28  1  0
 29 24  2  0
 30 31  1  0
 31 32  1  0
 32 33  2  0
 34 33  1  0
 34 38  1  0
 35 34  2  0
 36 31  2  0
 36 35  1  0
 37 36  1  0
 39 40  1  0
 40 43  1  0
 40 42  1  0
 41 39  2  0
 44 45  1  0
 44 19  1  0
 46 44  1  0
 47 48  1  0
 47  1  1  0
 49 47  1  0
 50  1  1  0
 52 51  1  0
 52 50  1  0
 52 53  1  0
 54 65  2  0
 55 53  1  0
 55 60  1  0
 56 64  1  0
 56 66  1  0
 57 63  1  0
 57 59  1  0
 58 64  1  0
 59 60  2  0
 59 58  1  0
 61 55  2  0
 62 61  1  0
 62 57  2  0
 63 56  1  0
 64 54  1  0
 66 68  2  0
 67 66  1  0
 69 67  1  0
 70 79  2  0
 70 75  1  0
 71 67  1  0
 71 75  1  0
 72 71  1  0
 73 74  1  0
 73 72  1  0
 74 70  1  0
 75 76  2  0
 76 77  1  0
 78 77  2  0
 79 78  1  0
 80 54  1  0
 80 85  1  0
 80 81  1  0
 81 84  1  1
 81 82  1  0
 83 81  1  0
 85 88  1  0
 86 90  1  0
 86 85  1  0
 87 86  2  0
 90 89  1  0
 92 90  1  0
 92 93  1  0
 92 91  1  0
M  ISO  4   9 100  17 100  52 101  53 101
M  END
>  <TORSDO>  (34) 
F 20

>  <SCORE>  (34) 
-13.934

>  <name>  (34) 
33

>  <ligand_id>  (34) 
33

>  <original_smiles>  (34) 
[H]c1sc(N([H])C([H])(C([H])(F)F)C([H])([H])C([H])(Oc2c([H])c([H])c3c(c2[H])C([H])([H])N(C(=O)C([H])(N([H])C(=O)C([H])(N([H])C([H])([H])[H])C([H])([H])[H])C(C([H])([H])[H])(C([H])([H])[H])C([H])([H])[H])C([H])(C(=O)N([H])C2([H])c4c([H])c([H])c([H])c([H])c4C([H])([H])C([H])([H])C2([H])[H])C3([H])[H])C([H])([H])[H])nc1N([H])C(=O)N1C([H])([H])C([H])([H])C([H])([H])C([H])(n2nc(-c3c([H])c([H])c(Oc4c([H])c([H])c(F)c([H])c4F)c([H])c3[H])c(C(=O)N([H])[H])c2N([H])[H])C1([H])[H]

>  <smiles>  (34) 
[H]c1sc(N([H])C([H])(C([H])(F)F)C([H])([H])C([H])(Oc2c([H])c([H])c3c(c2[H])C([H])([H])N(C(=O)C([H])(N([H])C(=O)C([H])(N([H])C([H])([H])[H])C([H])([H])[H])C(C([H])([H])[H])(C([H])([H])[H])C([H])([H])[H])C([H])(C(=O)N([H])C2([H])c4c([H])c([H])c([H])c([H])c4C([H])([H])C([H])([H])C2([H])[H])C3([H])[H])C([H])([H])[H])nc1N([H])C(=O)N1C([H])([H])C([H])([H])C([H])([H])C([H])(n2nc(-c3c([H])c([H])c(Oc4c([H])c([H])c(F)c([H])c4F)c([H])c3[H])c(C(=O)N([H])[H])c2N([H])[H])C1([H])[H]

$$$$
34:0:0
     RDKit          3D

 97105  0  0  1  0  0  0  0  0999 V2000
  -29.1710  -23.9510   20.4280 C   0  0  0  0  0  0  0  0  0  0  0  0
  -29.1630  -22.5940   20.1090 N   0  0  0  0  0  0  0  0  0  0  0  0
  -29.7980  -24.3460   21.4150 O   0  0  0  0  0  0  0  0  0  0  0  0
  -28.6530  -22.3290   19.2780 H   0  0  0  0  0  0  0  0  0  0  0  0
  -28.7680  -21.3730   22.2280 C   0  0  0  0  0  1  0  0  0  0  0  0
  -29.6550  -21.4310   20.9670 C   0  0  0  0  0  3  0  0  0  0  0  0
  -31.0400  -18.0680   19.4170 C   0  0  0  0  0  3  0  0  0  0  0  0
  -30.8880  -19.5150   19.5070 C   0  0  0  0  0  0  0  0  0  0  0  0
  -29.9330  -19.9700   20.3980 C   0  0  0  0  0  0  0  0  0  0  0  0
  -30.2120  -17.3100   20.2260 C   0  0  0  0  0  0  0  0  0  0  0  0
  -29.1780  -18.4910   21.0770 S   0  0  0  0  0  0  0  0  0  0  0  0
  -30.8460  -14.8400   19.9900 C   0  0  0  0  0  0  0  0  0  0  0  0
  -30.6010  -12.5750   18.9640 C   0  0  0  0  0  2  0  0  0  0  0  0
  -29.6030  -12.6780   17.7890 C   0  0  0  0  0  2  0  0  0  0  0  0
  -28.1530  -12.5120   18.2850 C   0  0  0  0  0  2  0  0  0  0  0  0
  -27.8470  -13.3850   19.5320 C   0  0  0  0  0  3  0  0  0  0  0  0
  -28.9570  -13.2540   20.6000 C   0  0  0  0  0  2  0  0  0  0  0  0
  -30.2330  -13.6080   19.9590 N   0  0  0  0  0  0  0  0  0  0  0  0
  -31.9900  -14.9760   19.5430 O   0  0  0  0  0  0  0  0  0  0  0  0
  -30.0810  -15.9200   20.3940 N   0  0  0  0  0  0  0  0  0  0  0  0
  -29.2190  -15.6370   20.8370 H   0  0  0  0  0  0  0  0  0  0  0  0
  -25.5020  -13.9890   20.3830 C   0  0  0  0  0  0  0  0  0  0  0  0
  -24.4470  -13.2200   20.7920 C   0  0  0  0  0  0  0  0  0  0  0  0
  -24.8920  -11.8640   20.7130 C   0  0  0  0  0  0  0  0  0  0  0  0
  -26.5230  -13.1030   20.0800 N   0  0  0  0  0  0  0  0  0  0  0  0
  -26.1650  -11.8190   20.3390 N   0  0  0  0  0  0  0  0  0  0  0  0
  -24.1620  -10.6070   20.9160 C   0  0  0  0  0  0  0  0  0  0  0  0
  -24.5720   -9.6610   21.8810 C   0  0  0  0  0  3  0  0  0  0  0  0
  -23.8430   -8.4670   22.0700 C   0  0  0  0  0  3  0  0  0  0  0  0
  -22.6880   -8.2110   21.2930 C   0  0  0  0  0  0  0  0  0  0  0  0
  -22.2960   -9.1440   20.3180 C   0  0  0  0  0  3  0  0  0  0  0  0
  -23.0270  -10.3290   20.1260 C   0  0  0  0  0  3  0  0  0  0  0  0
  -21.9310   -7.0680   21.3900 O   0  0  0  0  0  0  0  0  0  0  0  0
  -21.7790   -6.4050   22.5810 C   0  0  0  0  0  0  0  0  0  0  0  0
  -21.2110   -7.0270   23.7140 C   0  0  0  0  0  3  0  0  0  0  0  0
  -21.0090   -6.2880   24.8970 C   0  0  0  0  0  3  0  0  0  0  0  0
  -21.3640   -4.9270   24.9470 C   0  0  0  0  0  0  0  0  0  0  0  0
  -21.9250   -4.3040   23.8180 C   0  0  0  0  0  3  0  0  0  0  0  0
  -22.1290   -5.0400   22.6370 C   0  0  0  0  0  0  0  0  0  0  0  0
  -22.6500   -4.4290   21.5460 F   0  0  0  0  0  0  0  0  0  0  0  0
  -21.1640   -4.2140   26.0800 F   0  0  0  0  0  0  0  0  0  0  0  0
  -23.0700  -13.7060   21.1420 C   0  0  0  0  0  0  0  0  0  0  0  0
  -22.3820  -13.0050   22.0360 N   0  0  0  0  0  0  0  0  0  0  0  0
  -22.6160  -14.7420   20.6590 O   0  0  0  0  0  0  0  0  0  0  0  0
  -22.7620  -12.1670   22.4480 H   0  0  0  0  0  0  0  0  0  0  0  0
  -21.4600  -13.3120   22.3130 H   0  0  0  0  0  0  0  0  0  0  0  0
  -25.6720  -15.3610   20.2240 N   0  0  0  0  0  0  0  0  0  0  0  0
  -24.9150  -16.0180   20.3780 H   0  0  0  0  0  0  0  0  0  0  0  0
  -26.5000  -15.7970   19.8370 H   0  0  0  0  0  0  0  0  0  0  0  0
  -31.7230  -20.3460   18.7480 N   0  0  0  0  0  0  0  0  0  0  0  0
  -32.5740  -19.9590   18.3500 H   0  0  0  0  0  0  0  0  0  0  0  0
  -31.8100  -21.3250   19.0020 H   0  0  0  0  0  0  0  0  0  0  0  0
  -28.3300  -25.0330   19.5960 C   0  0  0  0  0  3  0  0  0  0  0  0
  -28.7600  -25.0170   18.1130 C   0  0  0  0  0  3  0  0  0  0  0  0
  -30.0300  -25.4020   17.9690 F   0  0  0  0  0  0  0  0  0  0  0  0
  -27.9740  -25.7810   17.3540 F   0  0  0  0  0  0  0  0  0  0  0  0
  -28.3830  -26.4660   20.0750 O   0  0  0  0  0  0  0  0  0  0  0  0
  -24.6010  -31.8800   23.0820 C   0  0  0  0  0  0  0  0  0  0  0  0
  -27.2560  -27.3250   20.0000 C   0  0  0  0  0  0  0  0  0  0  0  0
  -23.4050  -30.4560   21.4600 C   0  0  0  0  0  3  0  0  0  0  0  0
  -24.8670  -28.9310   20.0160 C   0  0  0  0  0  0  0  0  0  0  0  0
  -25.9410  -30.8080   21.2520 C   0  0  0  0  0  2  0  0  0  0  0  0
  -26.0370  -29.4270   20.6050 C   0  0  0  0  0  0  0  0  0  0  0  0
  -27.2290  -28.6340   20.5920 C   0  0  0  0  0  3  0  0  0  0  0  0
  -26.0600  -26.9060   19.3710 C   0  0  0  0  0  3  0  0  0  0  0  0
  -24.8840  -27.6790   19.3890 C   0  0  0  0  0  3  0  0  0  0  0  0
  -23.6170  -29.7860   20.0780 C   0  0  0  0  0  2  0  0  0  0  0  0
  -24.6690  -31.0670   21.9870 N   0  0  0  0  0  0  0  0  0  0  0  0
  -23.5180  -32.1400   23.6270 O   0  0  0  0  0  0  0  0  0  0  0  0
  -22.7720  -29.4290   22.4300 C   0  0  0  0  0  0  0  0  0  0  0  0
  -21.4490  -29.2230   22.3150 N   0  0  0  0  0  0  0  0  0  0  0  0
  -23.4700  -28.8230   23.2460 O   0  0  0  0  0  0  0  0  0  0  0  0
  -20.9430  -29.7660   21.6300 H   0  0  0  0  0  0  0  0  0  0  0  0
  -18.1070  -27.9310   22.8310 C   0  0  0  0  0  0  0  0  0  0  0  0
  -20.6570  -28.2710   23.0980 C   0  0  0  0  0  3  0  0  0  0  0  0
  -20.8020  -26.8360   22.5410 C   0  0  0  0  0  2  0  0  0  0  0  0
  -19.7110  -26.4660   21.5310 C   0  0  0  0  0  2  0  0  0  0  0  0
  -18.3250  -26.5790   22.1730 C   0  0  0  0  0  2  0  0  0  0  0  0
  -19.2030  -28.7320   23.2510 C   0  0  0  0  0  0  0  0  0  0  0  0
  -18.9450  -29.9950   23.8270 C   0  0  0  0  0  3  0  0  0  0  0  0
  -17.6250  -30.4580   23.9860 C   0  0  0  0  0  3  0  0  0  0  0  0
  -16.5450  -29.6560   23.5810 C   0  0  0  0  0  3  0  0  0  0  0  0
  -16.7870  -28.3930   23.0100 C   0  0  0  0  0  3  0  0  0  0  0  0
  -25.8780  -32.5400   23.6880 C   0  0  0  0  0  3  0  0  0  0  0  0
  -25.5290  -33.9180   24.0660 N   0  0  0  0  0  0  0  0  0  0  0  0
  -25.8100  -35.0030   23.3330 C   0  0  0  0  0  0  0  0  0  0  0  0
  -26.4580  -34.9530   22.2850 O   0  0  0  0  0  0  0  0  0  0  0  0
  -24.9500  -34.0280   24.8850 H   0  0  0  0  0  0  0  0  0  0  0  0
  -24.0250  -36.7560   23.0640 C   0  0  0  0  0  1  0  0  0  0  0  0
  -25.2890  -36.3610   23.8450 C   0  0  0  0  0  3  0  0  0  0  0  0
  -27.4050  -37.2830   24.6800 C   0  0  0  0  0  1  0  0  0  0  0  0
  -26.2890  -37.4470   23.7530 N   0  0  0  0  0  0  0  0  0  0  0  0
  -25.8570  -38.3500   23.9340 H   0  0  0  0  0  0  0  0  0  0  0  0
  -26.4530  -31.7540   24.9300 C   0  0  1  0  0  0  0  0  0  0  0  0
  -25.3960  -31.4490   26.0170 C   0  0  0  0  0  1  0  0  0  0  0  0
  -27.0740  -30.4090   24.4880 C   0  0  0  0  0  1  0  0  0  0  0  0
  -27.5910  -32.5710   25.5840 C   0  0  0  0  0  1  0  0  0  0  0  0
  1  3  2  0
  2  1  1  0
  2  6  1  0
  4  2  1  0
  6  5  1  0
  7  8  1  0
  7 10  2  0
  8  9  2  0
  9  6  1  0
  9 11  1  0
 10 20  1  0
 10 11  1  0
 12 20  1  0
 13 18  1  0
 14 15  1  0
 14 13  1  0
 16 15  1  0
 16 25  1  0
 16 17  1  0
 18 12  1  0
 18 17  1  0
 19 12  2  0
 20 21  1  0
 22 23  2  0
 23 42  1  0
 24 23  1  0
 24 27  1  0
 25 26  1  0
 25 22  1  0
 26 24  2  0
 27 28  1  0
 28 29  2  0
 30 33  1  0
 30 29  1  0
 31 30  2  0
 32 31  1  0
 32 27  2  0
 33 34  1  0
 34 39  2  0
 34 35  1  0
 35 36  2  0
 36 37  1  0
 37 41  1  0
 38 37  2  0
 39 38  1  0
 40 39  1  0
 42 43  1  0
 43 46  1  0
 43 45  1  0
 44 42  2  0
 47 48  1  0
 47 22  1  0
 49 47  1  0
 50 52  1  0
 50  8  1  0
 51 50  1  0
 53 54  1  0
 53 57  1  0
 53  1  1  0
 55 54  1  0
 56 54  1  0
 58 69  2  0
 59 57  1  0
 59 64  1  0
 60 68  1  0
 60 70  1  0
 61 67  1  0
 61 63  1  0
 62 68  1  0
 63 62  1  0
 64 63  2  0
 65 66  1  0
 65 59  2  0
 66 61  2  0
 67 60  1  0
 68 58  1  0
 70 72  2  0
 71 70  1  0
 73 71  1  0
 74 83  2  0
 74 79  1  0
 75 71  1  0
 75 79  1  0
 76 75  1  0
 77 78  1  0
 77 76  1  0
 78 74  1  0
 79 80  2  0
 80 81  1  0
 82 81  2  0
 83 82  1  0
 84 58  1  0
 84 85  1  0
 84 94  1  0
 85 88  1  0
 86 90  1  0
 86 85  1  0
 87 86  2  0
 90 89  1  0
 92 90  1  0
 92 93  1  0
 92 91  1  0
 94 97  1  1
 94 95  1  0
 96 94  1  0
M  ISO  4  12 100  20 100  53 101  57 101
M  END
>  <TORSDO>  (35) 
F 21

>  <SCORE>  (35) 
-12.892

>  <name>  (35) 
34

>  <ligand_id>  (35) 
34

>  <original_smiles>  (35) 
[H]c1c([H])c([H])c2c(c1[H])C([H])([H])C([H])([H])C([H])([H])C2([H])N([H])C(=O)C1([H])N(C(=O)C([H])(N([H])C(=O)C([H])(N([H])C([H])([H])[H])C([H])([H])[H])C(C([H])([H])[H])(C([H])([H])[H])C([H])([H])[H])C([H])([H])c2c([H])c(OC([H])(C(=O)N([H])C([H])(c3sc(N([H])C(=O)N4C([H])([H])C([H])([H])C([H])([H])C([H])(n5nc(-c6c([H])c([H])c(Oc7c([H])c([H])c(F)c([H])c7F)c([H])c6[H])c(C(=O)N([H])[H])c5N([H])[H])C4([H])[H])c([H])c3N([H])[H])C([H])([H])[H])C([H])(F)F)c([H])c([H])c2C1([H])[H]

>  <smiles>  (35) 
[H]c1c([H])c([H])c2c(c1[H])C([H])([H])C([H])([H])C([H])([H])C2([H])N([H])C(=O)C1([H])N(C(=O)C([H])(N([H])C(=O)C([H])(N([H])C([H])([H])[H])C([H])([H])[H])C(C([H])([H])[H])(C([H])([H])[H])C([H])([H])[H])C([H])([H])c2c([H])c(OC([H])(C(=O)N([H])C([H])(c3sc(N([H])C(=O)N4C([H])([H])C([H])([H])C([H])([H])C([H])(n5nc(-c6c([H])c([H])c(Oc7c([H])c([H])c(F)c([H])c7F)c([H])c6[H])c(C(=O)N([H])[H])c5N([H])[H])C4([H])[H])c([H])c3N([H])[H])C([H])([H])[H])C([H])(F)F)c([H])c([H])c2C1([H])[H]

$$$$
35:0:0
     RDKit          3D

 94102  0  0  1  0  0  0  0  0999 V2000
  -29.9050  -18.7810   20.1690 C   0  0  0  0  0  0  0  0  0  0  0  0
  -31.1700  -19.3170   20.2850 C   0  0  0  0  0  0  0  0  0  0  0  0
  -29.4340  -21.1560   20.2570 C   0  0  0  0  0  0  0  0  0  0  0  0
  -28.9430  -23.7520   20.1030 C   0  0  0  0  0  0  0  0  0  0  0  0
  -32.4640  -18.5680   20.2690 C   0  0  0  0  0  1  0  0  0  0  0  0
  -28.9370  -19.8690   20.1810 N   0  0  0  0  0  0  0  0  0  0  0  0
  -28.6320  -22.4100   20.3450 N   0  0  0  0  0  0  0  0  0  0  0  0
  -29.9710  -24.0440   19.4850 O   0  0  0  0  0  0  0  0  0  0  0  0
  -31.1880  -21.0870   20.3750 S   0  0  0  0  0  0  0  0  0  0  0  0
  -27.7000  -22.2730   20.7070 H   0  0  0  0  0  0  0  0  0  0  0  0
  -29.5680  -17.2490   19.8460 C   0  0  0  0  0  2  0  0  0  0  0  0
  -30.7530  -14.8970   20.1150 C   0  0  0  0  0  0  0  0  0  0  0  0
  -30.5160  -12.6190   19.0790 C   0  0  0  0  0  2  0  0  0  0  0  0
  -29.5350  -12.6860   17.8860 C   0  0  0  0  0  2  0  0  0  0  0  0
  -28.0870  -12.4910   18.3710 C   0  0  0  0  0  2  0  0  0  0  0  0
  -27.7500  -13.3720   19.6030 C   0  0  0  0  0  3  0  0  0  0  0  0
  -28.8480  -13.2890   20.6860 C   0  0  0  0  0  2  0  0  0  0  0  0
  -30.1200  -13.6670   20.0550 N   0  0  0  0  0  0  0  0  0  0  0  0
  -31.8690  -15.0180   19.6000 O   0  0  0  0  0  0  0  0  0  0  0  0
  -30.2110  -16.2700   22.0510 C   0  0  0  0  0  1  0  0  0  0  0  0
  -30.0810  -16.0170   20.6170 N   0  0  0  0  0  0  0  0  0  0  0  0
  -25.3910  -13.9450   20.4290 C   0  0  0  0  0  0  0  0  0  0  0  0
  -24.3410  -13.1640   20.8280 C   0  0  0  0  0  0  0  0  0  0  0  0
  -24.8030  -11.8140   20.7580 C   0  0  0  0  0  0  0  0  0  0  0  0
  -26.4260  -13.0720   20.1390 N   0  0  0  0  0  0  0  0  0  0  0  0
  -26.0810  -11.7840   20.3970 N   0  0  0  0  0  0  0  0  0  0  0  0
  -24.0850  -10.5480   20.9570 C   0  0  0  0  0  0  0  0  0  0  0  0
  -24.5290   -9.5830   21.8880 C   0  0  0  0  0  3  0  0  0  0  0  0
  -23.8090   -8.3840   22.0750 C   0  0  0  0  0  3  0  0  0  0  0  0
  -22.6300   -8.1390   21.3310 C   0  0  0  0  0  0  0  0  0  0  0  0
  -22.2040   -9.0930   20.3880 C   0  0  0  0  0  3  0  0  0  0  0  0
  -22.9260  -10.2840   20.2000 C   0  0  0  0  0  3  0  0  0  0  0  0
  -21.8810   -6.9920   21.4260 O   0  0  0  0  0  0  0  0  0  0  0  0
  -21.8080   -6.2750   22.5950 C   0  0  0  0  0  0  0  0  0  0  0  0
  -21.3170   -6.8480   23.7890 C   0  0  0  0  0  3  0  0  0  0  0  0
  -21.1930   -6.0580   24.9490 C   0  0  0  0  0  3  0  0  0  0  0  0
  -21.5500   -4.6960   24.9160 C   0  0  0  0  0  0  0  0  0  0  0  0
  -22.0330   -4.1240   23.7260 C   0  0  0  0  0  3  0  0  0  0  0  0
  -22.1590   -4.9110   22.5680 C   0  0  0  0  0  0  0  0  0  0  0  0
  -22.6050   -4.3500   21.4190 F   0  0  0  0  0  0  0  0  0  0  0  0
  -21.4240   -3.9340   26.0270 F   0  0  0  0  0  0  0  0  0  0  0  0
  -22.9550  -13.6350   21.1640 C   0  0  0  0  0  0  0  0  0  0  0  0
  -22.2630  -12.9240   22.0460 N   0  0  0  0  0  0  0  0  0  0  0  0
  -22.4970  -14.6690   20.6780 O   0  0  0  0  0  0  0  0  0  0  0  0
  -22.6460  -12.0870   22.4580 H   0  0  0  0  0  0  0  0  0  0  0  0
  -21.3360  -13.2230   22.3160 H   0  0  0  0  0  0  0  0  0  0  0  0
  -25.5470  -15.3180   20.2660 N   0  0  0  0  0  0  0  0  0  0  0  0
  -24.7870  -15.9720   20.4180 H   0  0  0  0  0  0  0  0  0  0  0  0
  -26.3870  -15.7610   19.9170 H   0  0  0  0  0  0  0  0  0  0  0  0
  -28.0080  -24.9870   20.6190 C   0  0  0  0  0  3  0  0  0  0  0  0
  -25.7770  -23.6440   20.2120 C   0  0  0  0  0  1  0  0  0  0  0  0
  -26.6360  -23.9680   22.5710 C   0  0  0  0  0  1  0  0  0  0  0  0
  -26.5890  -24.5670   21.1490 C   0  0  0  0  0  3  0  0  0  0  0  0
  -28.1460  -26.3670   19.9610 O   0  0  0  0  0  0  0  0  0  0  0  0
  -24.5950  -31.8860   23.1830 C   0  0  0  0  0  0  0  0  0  0  0  0
  -27.0940  -27.3230   19.9710 C   0  0  0  0  0  0  0  0  0  0  0  0
  -23.3620  -30.5680   21.5010 C   0  0  0  0  0  3  0  0  0  0  0  0
  -24.7810  -29.0400   20.0090 C   0  0  0  0  0  0  0  0  0  0  0  0
  -25.9130  -30.8250   21.3260 C   0  0  0  0  0  2  0  0  0  0  0  0
  -25.9640  -29.4620   20.6310 C   0  0  0  0  0  0  0  0  0  0  0  0
  -27.1250  -28.6170   20.6030 C   0  0  0  0  0  3  0  0  0  0  0  0
  -25.9080  -27.0020   19.2820 C   0  0  0  0  0  3  0  0  0  0  0  0
  -24.7600  -27.8170   19.3200 C   0  0  0  0  0  3  0  0  0  0  0  0
  -23.5640  -29.9400   20.0960 C   0  0  0  0  0  2  0  0  0  0  0  0
  -24.6430  -31.1100   22.0600 N   0  0  0  0  0  0  0  0  0  0  0  0
  -23.5190  -32.1630   23.7320 O   0  0  0  0  0  0  0  0  0  0  0  0
  -22.6820  -29.5310   22.4290 C   0  0  0  0  0  0  0  0  0  0  0  0
  -21.3520  -29.3820   22.3040 N   0  0  0  0  0  0  0  0  0  0  0  0
  -23.3520  -28.8640   23.2220 O   0  0  0  0  0  0  0  0  0  0  0  0
  -20.8700  -29.9700   21.6380 H   0  0  0  0  0  0  0  0  0  0  0  0
  -17.9490  -28.2630   22.8230 C   0  0  0  0  0  0  0  0  0  0  0  0
  -20.5200  -28.4330   23.0470 C   0  0  0  0  0  3  0  0  0  0  0  0
  -20.5640  -27.0280   22.4010 C   0  0  0  0  0  2  0  0  0  0  0  0
  -19.4320  -26.7890   21.3970 C   0  0  0  0  0  2  0  0  0  0  0  0
  -18.0680  -26.9450   22.0760 C   0  0  0  0  0  2  0  0  0  0  0  0
  -19.0990  -28.9690   23.2650 C   0  0  0  0  0  0  0  0  0  0  0  0
  -18.9300  -30.2060   23.9230 C   0  0  0  0  0  3  0  0  0  0  0  0
  -17.6450  -30.7340   24.1460 C   0  0  0  0  0  3  0  0  0  0  0  0
  -16.5100  -30.0240   23.7210 C   0  0  0  0  0  3  0  0  0  0  0  0
  -16.6630  -28.7890   23.0640 C   0  0  0  0  0  3  0  0  0  0  0  0
  -25.8890  -32.4780   23.8200 C   0  0  0  0  0  3  0  0  0  0  0  0
  -26.3760  -31.6790   25.0920 C   0  0  1  0  0  0  0  0  0  0  0  0
  -25.2680  -31.4600   26.1500 C   0  0  0  0  0  1  0  0  0  0  0  0
  -26.9260  -30.2900   24.6930 C   0  0  0  0  0  1  0  0  0  0  0  0
  -27.5400  -32.4370   25.7710 C   0  0  0  0  0  1  0  0  0  0  0  0
  -25.6140  -33.8790   24.1680 N   0  0  0  0  0  0  0  0  0  0  0  0
  -25.9750  -34.9350   23.4270 C   0  0  0  0  0  0  0  0  0  0  0  0
  -26.6420  -34.8300   22.3940 O   0  0  0  0  0  0  0  0  0  0  0  0
  -25.0250  -34.0360   24.9730 H   0  0  0  0  0  0  0  0  0  0  0  0
  -24.2980  -36.7820   23.0980 C   0  0  0  0  0  1  0  0  0  0  0  0
  -25.5240  -36.3280   23.9060 C   0  0  0  0  0  3  0  0  0  0  0  0
  -27.6760  -37.1440   24.7650 C   0  0  0  0  0  1  0  0  0  0  0  0
  -26.5860  -37.3540   23.8150 N   0  0  0  0  0  0  0  0  0  0  0  0
  -26.2020  -38.2820   23.9760 H   0  0  0  0  0  0  0  0  0  0  0  0
  1  6  1  0
  1  2  2  0
  2  9  1  0
  3  7  1  0
  3  9  1  0
  4  7  1  0
  4 50  1  0
  5  2  1  0
  6  3  2  0
  7 10  1  0
  8  4  2  0
 11  1  1  0
 11 21  1  0
 12 21  1  0
 13 18  1  0
 14 15  1  0
 14 13  1  0
 16 15  1  0
 16 25  1  0
 16 17  1  0
 18 12  1  0
 18 17  1  0
 19 12  2  0
 21 20  1  0
 22 23  2  0
 23 42  1  0
 24 23  1  0
 24 27  1  0
 25 26  1  0
 25 22  1  0
 26 24  2  0
 27 28  1  0
 28 29  2  0
 30 33  1  0
 30 29  1  0
 31 30  2  0
 32 31  1  0
 32 27  2  0
 33 34  1  0
 34 35  1  0
 35 36  2  0
 37 36  1  0
 37 41  1  0
 38 37  2  0
 39 34  2  0
 39 38  1  0
 40 39  1  0
 42 43  1  0
 43 46  1  0
 43 45  1  0
 44 42  2  0
 47 48  1  0
 47 22  1  0
 49 47  1  0
 50 54  1  0
 50 53  1  0
 51 53  1  0
 53 52  1  0
 54 56  1  0
 55 66  2  0
 56 61  1  0
 57 65  1  0
 57 67  1  0
 58 64  1  0
 58 60  1  0
 59 65  1  0
 60 59  1  0
 61 60  2  0
 62 63  1  0
 62 56  2  0
 63 58  2  0
 64 57  1  0
 65 55  1  0
 67 69  2  0
 68 67  1  0
 70 68  1  0
 71 80  2  0
 71 76  1  0
 72 68  1  0
 72 76  1  0
 73 72  1  0
 74 75  1  0
 74 73  1  0
 75 71  1  0
 76 77  2  0
 77 78  1  0
 79 78  2  0
 80 79  1  0
 81 55  1  0
 81 86  1  0
 81 82  1  0
 82 85  1  1
 82 83  1  0
 84 82  1  0
 86 89  1  0
 87 91  1  0
 87 86  1  0
 88 87  2  0
 91 90  1  0
 93 91  1  0
 93 94  1  0
 93 92  1  0
M  ISO  4  12 100  21 100  50 101  54 101
M  END
>  <TORSDO>  (36) 
F 19

>  <SCORE>  (36) 
-13.794

>  <name>  (36) 
35

>  <ligand_id>  (36) 
35

>  <original_smiles>  (36) 
[H]c1c([H])c([H])c2c(c1[H])C([H])([H])C([H])([H])C([H])([H])C2([H])N([H])C(=O)C1([H])N(C(=O)C([H])(N([H])C(=O)C([H])(N([H])C([H])([H])[H])C([H])([H])[H])C(C([H])([H])[H])(C([H])([H])[H])C([H])([H])[H])C([H])([H])c2c([H])c(OC([H])(C(=O)N([H])c3nc(C([H])([H])N(C(=O)N4C([H])([H])C([H])([H])C([H])([H])C([H])(n5nc(-c6c([H])c([H])c(Oc7c([H])c([H])c(F)c([H])c7F)c([H])c6[H])c(C(=O)N([H])[H])c5N([H])[H])C4([H])[H])C([H])([H])[H])c(C([H])([H])[H])s3)C([H])(C([H])([H])[H])C([H])([H])[H])c([H])c([H])c2C1([H])[H]

>  <smiles>  (36) 
[H]c1c([H])c([H])c2c(c1[H])C([H])([H])C([H])([H])C([H])([H])C2([H])N([H])C(=O)C1([H])N(C(=O)C([H])(N([H])C(=O)C([H])(N([H])C([H])([H])[H])C([H])([H])[H])C(C([H])([H])[H])(C([H])([H])[H])C([H])([H])[H])C([H])([H])c2c([H])c(OC([H])(C(=O)N([H])c3nc(C([H])([H])N(C(=O)N4C([H])([H])C([H])([H])C([H])([H])C([H])(n5nc(-c6c([H])c([H])c(Oc7c([H])c([H])c(F)c([H])c7F)c([H])c6[H])c(C(=O)N([H])[H])c5N([H])[H])C4([H])[H])C([H])([H])[H])c(C([H])([H])[H])s3)C([H])(C([H])([H])[H])C([H])([H])[H])c([H])c([H])c2C1([H])[H]

$$$$
36:0:0
     RDKit          3D

 98106  0  0  1  0  0  0  0  0999 V2000
  -29.3960  -23.1580   20.1180 C   0  0  0  0  0  3  0  0  0  0  0  0
  -30.1730  -23.8560   18.9700 C   0  0  1  0  0  0  0  0  0  0  0  0
  -29.3770  -24.6520   18.2590 F   0  0  0  0  0  0  0  0  0  0  0  0
  -31.2040  -24.5560   19.4400 F   0  0  0  0  0  0  0  0  0  0  0  0
  -30.6510  -22.9230   18.1420 F   0  0  0  0  0  0  0  0  0  0  0  0
  -28.9460  -23.7570   22.6220 C   0  0  0  0  0  1  0  0  0  0  0  0
  -28.7120  -24.1810   21.1550 C   0  0  0  0  0  3  0  0  0  0  0  0
  -28.9350  -25.7650   21.0700 C   0  0  0  0  0  2  0  0  0  0  0  0
  -28.4370  -26.5610   19.9580 O   0  0  0  0  0  0  0  0  0  0  0  0
  -24.6340  -31.8410   23.1430 C   0  0  0  0  0  0  0  0  0  0  0  0
  -27.2920  -27.3450   20.0860 C   0  0  0  0  0  0  0  0  0  0  0  0
  -23.4400  -30.4460   21.4880 C   0  0  0  0  0  3  0  0  0  0  0  0
  -24.9050  -28.9020   20.0740 C   0  0  0  0  0  0  0  0  0  0  0  0
  -25.9720  -30.7860   21.3140 C   0  0  0  0  0  2  0  0  0  0  0  0
  -26.0650  -29.4060   20.6810 C   0  0  0  0  0  0  0  0  0  0  0  0
  -27.2620  -28.6350   20.6870 C   0  0  0  0  0  3  0  0  0  0  0  0
  -26.1180  -26.8770   19.4650 C   0  0  0  0  0  3  0  0  0  0  0  0
  -24.9310  -27.6370   19.4620 C   0  0  0  0  0  3  0  0  0  0  0  0
  -23.6630  -29.7680   20.1100 C   0  0  0  0  0  2  0  0  0  0  0  0
  -24.7000  -31.0420   22.0390 N   0  0  0  0  0  0  0  0  0  0  0  0
  -23.5480  -32.1120   23.6760 O   0  0  0  0  0  0  0  0  0  0  0  0
  -22.7750  -29.4260   22.4410 C   0  0  0  0  0  0  0  0  0  0  0  0
  -21.4470  -29.2620   22.3200 N   0  0  0  0  0  0  0  0  0  0  0  0
  -23.4540  -28.7820   23.2460 O   0  0  0  0  0  0  0  0  0  0  0  0
  -20.9610  -29.8300   21.6410 H   0  0  0  0  0  0  0  0  0  0  0  0
  -18.0600  -28.1100   22.8420 C   0  0  0  0  0  0  0  0  0  0  0  0
  -20.6240  -28.3250   23.0850 C   0  0  0  0  0  3  0  0  0  0  0  0
  -20.6970  -26.9020   22.4810 C   0  0  0  0  0  2  0  0  0  0  0  0
  -19.5780  -26.6160   21.4750 C   0  0  0  0  0  2  0  0  0  0  0  0
  -18.2070  -26.7700   22.1390 C   0  0  0  0  0  2  0  0  0  0  0  0
  -19.1960  -28.8470   23.2710 C   0  0  0  0  0  0  0  0  0  0  0  0
  -19.0020  -30.1020   23.8890 C   0  0  0  0  0  3  0  0  0  0  0  0
  -17.7090  -30.6200   24.0800 C   0  0  0  0  0  3  0  0  0  0  0  0
  -16.5870  -29.8790   23.6670 C   0  0  0  0  0  3  0  0  0  0  0  0
  -16.7640  -28.6270   23.0540 C   0  0  0  0  0  3  0  0  0  0  0  0
  -25.9150  -32.4700   23.7740 C   0  0  0  0  0  3  0  0  0  0  0  0
  -25.5960  -33.8590   24.1330 N   0  0  0  0  0  0  0  0  0  0  0  0
  -25.9220  -34.9290   23.3940 C   0  0  0  0  0  0  0  0  0  0  0  0
  -26.5910  -34.8500   22.3600 O   0  0  0  0  0  0  0  0  0  0  0  0
  -25.0020  -33.9940   24.9370 H   0  0  0  0  0  0  0  0  0  0  0  0
  -24.1810  -36.7170   23.0800 C   0  0  0  0  0  1  0  0  0  0  0  0
  -25.4280  -36.3050   23.8800 C   0  0  0  0  0  3  0  0  0  0  0  0
  -27.5590  -37.1860   24.7220 C   0  0  0  0  0  1  0  0  0  0  0  0
  -26.4530  -37.3670   23.7850 N   0  0  0  0  0  0  0  0  0  0  0  0
  -26.0410  -38.2800   23.9540 H   0  0  0  0  0  0  0  0  0  0  0  0
  -26.4410  -31.6770   25.0340 C   0  0  1  0  0  0  0  0  0  0  0  0
  -25.3540  -31.4130   26.1000 C   0  0  0  0  0  1  0  0  0  0  0  0
  -27.0300  -30.3110   24.6110 C   0  0  0  0  0  1  0  0  0  0  0  0
  -27.5910  -32.4650   25.7050 C   0  0  0  0  0  1  0  0  0  0  0  0
  -30.2760  -22.0350   20.6030 N   0  0  0  0  0  0  0  0  0  0  0  0
  -30.9750  -21.8680   19.8840 H   0  0  0  0  0  0  0  0  0  0  0  0
  -29.7990  -20.7360   21.1660 C   0  0  0  0  0  2  0  0  0  0  0  0
  -28.8390  -17.4040   20.3830 C   0  0  0  0  0  0  0  0  0  0  0  0
  -30.0560  -16.9300   20.6530 C   0  0  0  0  0  0  0  0  0  0  0  0
  -28.7390  -18.8060   20.0330 C   0  0  0  0  0  0  0  0  0  0  0  0
  -27.6220  -20.6220   18.9460 C   0  0  0  0  0  1  0  0  0  0  0  0
  -27.6540  -19.2860   19.4980 N   0  0  0  0  0  0  0  0  0  0  0  0
  -29.9310  -19.4970   20.3350 N   0  0  0  0  0  0  0  0  0  0  0  0
  -27.7950  -16.5700   20.2910 F   0  0  0  0  0  0  0  0  0  0  0  0
  -31.2040  -18.2880   20.7140 S   0  0  0  0  0  0  0  0  0  0  0  0
  -30.9960  -14.5640   20.2960 C   0  0  0  0  0  0  0  0  0  0  0  0
  -30.7240  -12.3210   19.2300 C   0  0  0  0  0  2  0  0  0  0  0  0
  -29.7720  -12.4540   18.0190 C   0  0  0  0  0  2  0  0  0  0  0  0
  -28.2950  -12.3490   18.4520 C   0  0  0  0  0  2  0  0  0  0  0  0
  -27.9700  -13.2440   19.6790 C   0  0  0  0  0  3  0  0  0  0  0  0
  -29.0280  -13.0450   20.7930 C   0  0  0  0  0  2  0  0  0  0  0  0
  -30.3580  -13.3500   20.2240 N   0  0  0  0  0  0  0  0  0  0  0  0
  -32.0830  -14.7660   19.7460 O   0  0  0  0  0  0  0  0  0  0  0  0
  -30.2760  -15.5380   20.9220 N   0  0  0  0  0  0  0  0  0  0  0  0
  -29.4850  -15.1330   21.3970 H   0  0  0  0  0  0  0  0  0  0  0  0
  -25.5880  -13.9340   20.3810 C   0  0  0  0  0  0  0  0  0  0  0  0
  -24.5000  -13.2090   20.7780 C   0  0  0  0  0  0  0  0  0  0  0  0
  -24.9140  -11.8440   20.7580 C   0  0  0  0  0  0  0  0  0  0  0  0
  -26.6080  -13.0190   20.1680 N   0  0  0  0  0  0  0  0  0  0  0  0
  -26.2020  -11.7530   20.4440 N   0  0  0  0  0  0  0  0  0  0  0  0
  -24.1380  -10.6160   20.9660 C   0  0  0  0  0  0  0  0  0  0  0  0
  -24.5380   -9.6370   21.9000 C   0  0  0  0  0  3  0  0  0  0  0  0
  -23.7640   -8.4730   22.0930 C   0  0  0  0  0  3  0  0  0  0  0  0
  -22.5750   -8.2810   21.3500 C   0  0  0  0  0  0  0  0  0  0  0  0
  -22.1920   -9.2490   20.4050 C   0  0  0  0  0  3  0  0  0  0  0  0
  -22.9660  -10.4040   20.2100 C   0  0  0  0  0  3  0  0  0  0  0  0
  -21.7750   -7.1680   21.4520 O   0  0  0  0  0  0  0  0  0  0  0  0
  -21.7000   -6.4390   22.6110 C   0  0  0  0  0  0  0  0  0  0  0  0
  -21.3090   -7.0240   23.8350 C   0  0  0  0  0  3  0  0  0  0  0  0
  -21.1800   -6.2230   24.9880 C   0  0  0  0  0  3  0  0  0  0  0  0
  -21.4300   -4.8390   24.9150 C   0  0  0  0  0  0  0  0  0  0  0  0
  -21.8130   -4.2540   23.6960 C   0  0  0  0  0  3  0  0  0  0  0  0
  -21.9450   -5.0530   22.5460 C   0  0  0  0  0  0  0  0  0  0  0  0
  -22.2930   -4.4800   21.3680 F   0  0  0  0  0  0  0  0  0  0  0  0
  -21.2980   -4.0680   26.0200 F   0  0  0  0  0  0  0  0  0  0  0  0
  -23.1290  -13.7480   21.0660 C   0  0  0  0  0  0  0  0  0  0  0  0
  -22.3950  -13.1070   21.9680 N   0  0  0  0  0  0  0  0  0  0  0  0
  -22.7190  -14.7770   20.5300 O   0  0  0  0  0  0  0  0  0  0  0  0
  -22.7390  -12.2760   22.4260 H   0  0  0  0  0  0  0  0  0  0  0  0
  -21.4750  -13.4530   22.2040 H   0  0  0  0  0  0  0  0  0  0  0  0
  -25.7720  -15.2900   20.1700 N   0  0  0  0  0  0  0  0  0  0  0  0
  -25.0320  -15.9540   20.3660 H   0  0  0  0  0  0  0  0  0  0  0  0
  -26.6850  -15.7300   20.1250 H   0  0  0  0  0  0  0  0  0  0  0  0
  1  2  1  0
  1 50  1  0
  1  7  1  0
  2  4  1  1
  3  2  1  0
  5  2  1  0
  7  6  1  0
  8  7  1  0
  9 11  1  0
  9  8  1  0
 10 21  2  0
 11 16  1  0
 12 20  1  0
 12 22  1  0
 13 19  1  0
 13 15  1  0
 14 20  1  0
 15 16  2  0
 15 14  1  0
 17 11  2  0
 18 17  1  0
 18 13  2  0
 19 12  1  0
 20 10  1  0
 22 24  2  0
 23 22  1  0
 25 23  1  0
 26 35  2  0
 26 31  1  0
 27 23  1  0
 27 31  1  0
 28 27  1  0
 29 30  1  0
 29 28  1  0
 30 26  1  0
 31 32  2  0
 32 33  1  0
 34 33  2  0
 35 34  1  0
 36 10  1  0
 36 37  1  0
 36 46  1  0
 37 40  1  0
 38 42  1  0
 38 37  1  0
 39 38  2  0
 42 41  1  0
 44 42  1  0
 44 45  1  0
 44 43  1  0
 46 49  1  1
 46 47  1  0
 48 46  1  0
 50 52  1  0
 51 50  1  0
 53 54  2  0
 54 60  1  0
 54 69  1  0
 55 58  1  0
 55 53  1  0
 56 57  1  0
 57 55  2  0
 58 60  1  0
 58 52  1  0
 59 53  1  0
 61 69  1  0
 62 67  1  0
 63 64  1  0
 63 62  1  0
 65 64  1  0
 65 74  1  0
 65 66  1  0
 67 61  1  0
 67 66  1  0
 68 61  2  0
 69 70  1  0
 71 72  2  0
 72 91  1  0
 73 72  1  0
 73 76  1  0
 74 71  1  0
 74 75  1  0
 75 73  2  0
 76 77  1  0
 77 78  2  0
 79 82  1  0
 79 78  1  0
 80 79  2  0
 81 80  1  0
 81 76  2  0
 82 83  1  0
 83 84  1  0
 84 85  2  0
 86 85  1  0
 86 90  1  0
 87 86  2  0
 88 83  2  0
 88 87  1  0
 89 88  1  0
 91 92  1  0
 92 95  1  0
 92 94  1  0
 93 91  2  0
 96 97  1  0
 96 71  1  0
 98 96  1  0
M  ISO  4   8 101   9 101  61 100  69 100
M  END
>  <TORSDO>  (37) 
F 22

>  <SCORE>  (37) 
-13.445

>  <name>  (37) 
36

>  <ligand_id>  (37) 
36

>  <original_smiles>  (37) 
[H]c1c([H])c([H])c2c(c1[H])C([H])([H])C([H])([H])C([H])([H])C2([H])N([H])C(=O)C1([H])N(C(=O)C([H])(N([H])C(=O)C([H])(N([H])C([H])([H])[H])C([H])([H])[H])C(C([H])([H])[H])(C([H])([H])[H])C([H])([H])[H])C([H])([H])c2c([H])c(OC([H])([H])C([H])(C([H])([H])[H])C([H])(N([H])C([H])([H])n3sc(N([H])C(=O)N4C([H])([H])C([H])([H])C([H])([H])C([H])(n5nc(-c6c([H])c([H])c(Oc7c([H])c([H])c(F)c([H])c7F)c([H])c6[H])c(C(=O)N([H])[H])c5N([H])[H])C4([H])[H])c(F)c3=NC([H])([H])[H])C(F)(F)F)c([H])c([H])c2C1([H])[H]

>  <smiles>  (37) 
[H]c1c([H])c([H])c2c(c1[H])C([H])([H])C([H])([H])C([H])([H])C2([H])N([H])C(=O)C1([H])N(C(=O)C([H])(N([H])C(=O)C([H])(N([H])C([H])([H])[H])C([H])([H])[H])C(C([H])([H])[H])(C([H])([H])[H])C([H])([H])[H])C([H])([H])c2c([H])c(OC([H])([H])C([H])(C([H])([H])[H])C([H])(N([H])C([H])([H])n3sc(N([H])C(=O)N4C([H])([H])C([H])([H])C([H])([H])C([H])(n5nc(-c6c([H])c([H])c(Oc7c([H])c([H])c(F)c([H])c7F)c([H])c6[H])c(C(=O)N([H])[H])c5N([H])[H])C4([H])[H])c(F)c3=NC([H])([H])[H])C(F)(F)F)c([H])c([H])c2C1([H])[H]

$$$$
37:0:0
     RDKit          3D

 96104  0  0  1  0  0  0  0  0999 V2000
  -29.5440  -21.7170   20.7600 C   0  0  0  0  0  0  0  0  0  0  0  0
  -29.0840  -20.5110   20.3720 N   0  0  0  0  0  0  0  0  0  0  0  0
  -30.7230  -21.9360   21.0520 O   0  0  0  0  0  0  0  0  0  0  0  0
  -28.0810  -20.4140   20.3190 H   0  0  0  0  0  0  0  0  0  0  0  0
  -30.6880  -14.5200   20.3750 C   0  0  0  0  0  0  0  0  0  0  0  0
  -30.3470  -12.3290   19.3310 C   0  0  0  0  0  2  0  0  0  0  0  0
  -29.4290  -12.5290   18.1080 C   0  0  0  0  0  2  0  0  0  0  0  0
  -27.9510  -12.4140   18.5250 C   0  0  0  0  0  2  0  0  0  0  0  0
  -27.6030  -13.2710   19.7720 C   0  0  0  0  0  3  0  0  0  0  0  0
  -28.6530  -13.1010   20.8930 C   0  0  0  0  0  2  0  0  0  0  0  0
  -29.9810  -13.3570   20.3180 N   0  0  0  0  0  0  0  0  0  0  0  0
  -31.8850  -14.5550   20.0840 O   0  0  0  0  0  0  0  0  0  0  0  0
  -29.5620  -18.0830   20.4720 C   0  0  0  0  0  3  0  0  0  0  0  0
  -31.4570  -18.3110   18.5010 C   0  0  0  0  0  3  0  0  0  0  0  0
  -29.8400  -19.3750   19.9490 C   0  0  0  0  0  0  0  0  0  0  0  0
  -30.8020  -19.4830   18.9150 C   0  0  0  0  0  0  0  0  0  0  0  0
  -30.2780  -16.9480   20.0050 C   0  0  0  0  0  0  0  0  0  0  0  0
  -31.1990  -17.0990   19.0230 N   0  0  0  0  0  0  0  0  0  0  0  0
  -29.9740  -15.6550   20.5590 N   0  0  0  0  0  0  0  0  0  0  0  0
  -29.0500  -15.5450   20.9440 H   0  0  0  0  0  0  0  0  0  0  0  0
  -25.2010  -13.8800   20.4650 C   0  0  0  0  0  0  0  0  0  0  0  0
  -24.1320  -13.1100   20.8340 C   0  0  0  0  0  0  0  0  0  0  0  0
  -24.5950  -11.7590   20.8230 C   0  0  0  0  0  0  0  0  0  0  0  0
  -26.2490  -12.9980   20.2510 N   0  0  0  0  0  0  0  0  0  0  0  0
  -25.8890  -11.7170   20.5270 N   0  0  0  0  0  0  0  0  0  0  0  0
  -23.8670  -10.4990   21.0210 C   0  0  0  0  0  0  0  0  0  0  0  0
  -24.2930   -9.5400   21.9660 C   0  0  0  0  0  3  0  0  0  0  0  0
  -23.5670   -8.3440   22.1510 C   0  0  0  0  0  3  0  0  0  0  0  0
  -22.3990   -8.0980   21.3900 C   0  0  0  0  0  0  0  0  0  0  0  0
  -21.9930   -9.0440   20.4330 C   0  0  0  0  0  3  0  0  0  0  0  0
  -22.7200  -10.2320   20.2470 C   0  0  0  0  0  3  0  0  0  0  0  0
  -21.6440   -6.9540   21.4840 O   0  0  0  0  0  0  0  0  0  0  0  0
  -21.5890   -6.2200   22.6430 C   0  0  0  0  0  0  0  0  0  0  0  0
  -21.1440   -6.7830   23.8590 C   0  0  0  0  0  3  0  0  0  0  0  0
  -21.0360   -5.9760   25.0090 C   0  0  0  0  0  3  0  0  0  0  0  0
  -21.3640   -4.6080   24.9450 C   0  0  0  0  0  0  0  0  0  0  0  0
  -21.8020   -4.0450   23.7320 C   0  0  0  0  0  3  0  0  0  0  0  0
  -21.9120   -4.8500   22.5850 C   0  0  0  0  0  0  0  0  0  0  0  0
  -22.3150   -4.2990   21.4150 F   0  0  0  0  0  0  0  0  0  0  0  0
  -21.2530   -3.8310   26.0470 F   0  0  0  0  0  0  0  0  0  0  0  0
  -22.7320  -13.5890   21.0870 C   0  0  0  0  0  0  0  0  0  0  0  0
  -21.9970  -12.9040   21.9560 N   0  0  0  0  0  0  0  0  0  0  0  0
  -22.2980  -14.6060   20.5470 O   0  0  0  0  0  0  0  0  0  0  0  0
  -22.3620  -12.0840   22.4180 H   0  0  0  0  0  0  0  0  0  0  0  0
  -21.0570  -13.2060   22.1650 H   0  0  0  0  0  0  0  0  0  0  0  0
  -25.3670  -15.2490   20.2720 N   0  0  0  0  0  0  0  0  0  0  0  0
  -24.5970  -15.9020   20.3730 H   0  0  0  0  0  0  0  0  0  0  0  0
  -26.2080  -15.6860   19.9180 H   0  0  0  0  0  0  0  0  0  0  0  0
  -31.1040  -20.6980   18.2900 N   0  0  0  0  0  0  0  0  0  0  0  0
  -32.0040  -20.7540   17.8210 H   0  0  0  0  0  0  0  0  0  0  0  0
  -30.9500  -21.5160   18.8740 H   0  0  0  0  0  0  0  0  0  0  0  0
  -27.7000  -22.7280   22.1570 C   0  0  0  0  0  1  0  0  0  0  0  0
  -28.5100  -22.8550   20.8490 C   0  0  0  0  0  3  0  0  0  0  0  0
  -29.1160  -24.2840   20.6590 C   0  0  0  0  0  2  0  0  0  0  0  0
  -28.0680  -25.2550   20.0880 C   0  0  0  0  0  2  0  0  0  0  0  0
  -28.3500  -26.6670   20.1730 O   0  0  0  0  0  0  0  0  0  0  0  0
  -24.5880  -31.8880   23.2420 C   0  0  0  0  0  0  0  0  0  0  0  0
  -27.2170  -27.4650   20.1120 C   0  0  0  0  0  0  0  0  0  0  0  0
  -23.3860  -30.5070   21.5840 C   0  0  0  0  0  3  0  0  0  0  0  0
  -24.8380  -29.0010   20.1350 C   0  0  0  0  0  0  0  0  0  0  0  0
  -25.9180  -30.8600   21.4000 C   0  0  0  0  0  2  0  0  0  0  0  0
  -26.0000  -29.5020   20.7360 C   0  0  0  0  0  0  0  0  0  0  0  0
  -27.1970  -28.7430   20.7200 C   0  0  0  0  0  3  0  0  0  0  0  0
  -26.0350  -27.0050   19.4790 C   0  0  0  0  0  3  0  0  0  0  0  0
  -24.8510  -27.7530   19.5020 C   0  0  0  0  0  3  0  0  0  0  0  0
  -23.5960  -29.8570   20.1940 C   0  0  0  0  0  2  0  0  0  0  0  0
  -24.6480  -31.0990   22.1330 N   0  0  0  0  0  0  0  0  0  0  0  0
  -23.5040  -32.1550   23.7800 O   0  0  0  0  0  0  0  0  0  0  0  0
  -22.7360  -29.4670   22.5260 C   0  0  0  0  0  0  0  0  0  0  0  0
  -21.4110  -29.2850   22.3920 N   0  0  0  0  0  0  0  0  0  0  0  0
  -23.4160  -28.8330   23.3370 O   0  0  0  0  0  0  0  0  0  0  0  0
  -20.9250  -29.8520   21.7110 H   0  0  0  0  0  0  0  0  0  0  0  0
  -18.0330  -28.0960   22.8710 C   0  0  0  0  0  0  0  0  0  0  0  0
  -20.5910  -28.3400   23.1480 C   0  0  0  0  0  3  0  0  0  0  0  0
  -20.6890  -26.9170   22.5530 C   0  0  0  0  0  2  0  0  0  0  0  0
  -19.5860  -26.6120   21.5340 C   0  0  0  0  0  2  0  0  0  0  0  0
  -18.2050  -26.7530   22.1790 C   0  0  0  0  0  2  0  0  0  0  0  0
  -19.1540  -28.8470   23.3110 C   0  0  0  0  0  0  0  0  0  0  0  0
  -18.9390  -30.1040   23.9170 C   0  0  0  0  0  3  0  0  0  0  0  0
  -17.6370  -30.6090   24.0890 C   0  0  0  0  0  3  0  0  0  0  0  0
  -16.5300  -29.8530   23.6640 C   0  0  0  0  0  3  0  0  0  0  0  0
  -16.7280  -28.5980   23.0600 C   0  0  0  0  0  3  0  0  0  0  0  0
  -25.8710  -32.5110   23.8710 C   0  0  0  0  0  3  0  0  0  0  0  0
  -26.3790  -31.7350   25.1480 C   0  0  1  0  0  0  0  0  0  0  0  0
  -25.2790  -31.4980   26.2080 C   0  0  0  0  0  1  0  0  0  0  0  0
  -26.9600  -30.3580   24.7540 C   0  0  0  0  0  1  0  0  0  0  0  0
  -27.5260  -32.5250   25.8190 C   0  0  0  0  0  1  0  0  0  0  0  0
  -25.5660  -33.9110   24.1990 N   0  0  0  0  0  0  0  0  0  0  0  0
  -25.8920  -34.9600   23.4320 C   0  0  0  0  0  0  0  0  0  0  0  0
  -26.5560  -34.8520   22.3970 O   0  0  0  0  0  0  0  0  0  0  0  0
  -24.9780  -34.0690   25.0040 H   0  0  0  0  0  0  0  0  0  0  0  0
  -24.1580  -36.7460   23.0860 C   0  0  0  0  0  1  0  0  0  0  0  0
  -25.4080  -36.3490   23.8870 C   0  0  0  0  0  3  0  0  0  0  0  0
  -27.5470  -37.2420   24.6950 C   0  0  0  0  0  1  0  0  0  0  0  0
  -26.4380  -37.4020   23.7580 N   0  0  0  0  0  0  0  0  0  0  0  0
  -26.0320  -38.3230   23.9030 H   0  0  0  0  0  0  0  0  0  0  0  0
  1 53  1  0
  1  3  2  0
  2  1  1  0
  4  2  1  0
  5 19  1  0
  6 11  1  0
  7  8  1  0
  7  6  1  0
  9  8  1  0
  9 24  1  0
  9 10  1  0
 11  5  1  0
 11 10  1  0
 12  5  2  0
 14 16  2  0
 14 18  1  0
 15  2  1  0
 15 13  2  0
 16 15  1  0
 17 13  1  0
 17 19  1  0
 18 17  2  0
 19 20  1  0
 21 22  2  0
 22 41  1  0
 23 22  1  0
 23 26  1  0
 24 21  1  0
 24 25  1  0
 25 23  2  0
 26 27  1  0
 27 28  2  0
 29 32  1  0
 29 28  1  0
 30 29  2  0
 31 30  1  0
 31 26  2  0
 32 33  1  0
 33 34  1  0
 34 35  2  0
 36 35  1  0
 36 40  1  0
 37 36  2  0
 38 33  2  0
 38 37  1  0
 39 38  1  0
 41 42  1  0
 42 45  1  0
 42 44  1  0
 43 41  2  0
 46 47  1  0
 46 21  1  0
 48 46  1  0
 49 51  1  0
 49 16  1  0
 50 49  1  0
 53 52  1  0
 54 53  1  0
 55 56  1  0
 55 54  1  0
 57 68  2  0
 58 56  1  0
 58 63  1  0
 59 67  1  0
 59 69  1  0
 60 66  1  0
 60 62  1  0
 61 67  1  0
 62 61  1  0
 63 62  2  0
 64 65  1  0
 64 58  2  0
 65 60  2  0
 66 59  1  0
 67 57  1  0
 69 71  2  0
 70 69  1  0
 72 70  1  0
 73 82  2  0
 73 78  1  0
 74 70  1  0
 74 78  1  0
 75 74  1  0
 76 77  1  0
 76 75  1  0
 77 73  1  0
 78 79  2  0
 79 80  1  0
 81 80  2  0
 82 81  1  0
 83 57  1  0
 83 88  1  0
 83 84  1  0
 84 87  1  1
 84 85  1  0
 86 84  1  0
 88 91  1  0
 89 93  1  0
 89 88  1  0
 90 89  2  0
 93 92  1  0
 95 93  1  0
 95 96  1  0
 95 94  1  0
M  ISO  4   5 100  19 100  55 101  56 101
M  END
>  <TORSDO>  (38) 
F 20

>  <SCORE>  (38) 
-13.955

>  <name>  (38) 
37

>  <ligand_id>  (38) 
37

>  <original_smiles>  (38) 
[H]c1nc(N([H])C(=O)N2C([H])([H])C([H])([H])C([H])([H])C([H])(n3nc(-c4c([H])c([H])c(Oc5c([H])c([H])c(F)c([H])c5F)c([H])c4[H])c(C(=O)N([H])[H])c3N([H])[H])C2([H])[H])c([H])c(N([H])C(=O)C([H])(C([H])([H])[H])C([H])([H])C([H])([H])Oc2c([H])c([H])c3c(c2[H])C([H])([H])N(C(=O)C([H])(N([H])C(=O)C([H])(N([H])C([H])([H])[H])C([H])([H])[H])C(C([H])([H])[H])(C([H])([H])[H])C([H])([H])[H])C([H])(C(=O)N([H])C2([H])c4c([H])c([H])c([H])c([H])c4C([H])([H])C([H])([H])C2([H])[H])C3([H])[H])c1N([H])[H]

>  <smiles>  (38) 
[H]c1nc(N([H])C(=O)N2C([H])([H])C([H])([H])C([H])([H])C([H])(n3nc(-c4c([H])c([H])c(Oc5c([H])c([H])c(F)c([H])c5F)c([H])c4[H])c(C(=O)N([H])[H])c3N([H])[H])C2([H])[H])c([H])c(N([H])C(=O)C([H])(C([H])([H])[H])C([H])([H])C([H])([H])Oc2c([H])c([H])c3c(c2[H])C([H])([H])N(C(=O)C([H])(N([H])C(=O)C([H])(N([H])C([H])([H])[H])C([H])([H])[H])C(C([H])([H])[H])(C([H])([H])[H])C([H])([H])[H])C([H])(C(=O)N([H])C2([H])c4c([H])c([H])c([H])c([H])c4C([H])([H])C([H])([H])C2([H])[H])C3([H])[H])c1N([H])[H]

$$$$
38:0:0
     RDKit          3D

 93101  0  0  1  0  0  0  0  0999 V2000
  -29.8720  -17.2770   20.3650 C   0  0  0  0  0  0  0  0  0  0  0  0
  -30.2050  -17.5820   19.0660 C   0  0  0  0  0  0  0  0  0  0  0  0
  -29.4780  -19.6480   20.2730 C   0  0  0  0  0  0  0  0  0  0  0  0
  -28.9470  -22.2040   20.0400 C   0  0  0  0  0  0  0  0  0  0  0  0
  -29.4380  -18.4950   21.0370 N   0  0  0  0  0  0  0  0  0  0  0  0
  -29.1320  -21.0180   20.7450 N   0  0  0  0  0  0  0  0  0  0  0  0
  -28.9060  -22.2010   18.8080 O   0  0  0  0  0  0  0  0  0  0  0  0
  -30.5560  -16.6640   18.1300 F   0  0  0  0  0  0  0  0  0  0  0  0
  -30.0510  -19.2780   18.6360 S   0  0  0  0  0  0  0  0  0  0  0  0
  -29.0540  -21.1270   21.7460 H   0  0  0  0  0  0  0  0  0  0  0  0
  -30.5840  -14.7700   20.4790 C   0  0  0  0  0  0  0  0  0  0  0  0
  -30.4130  -12.4950   19.4630 C   0  0  0  0  0  2  0  0  0  0  0  0
  -29.5070  -12.5950   18.2170 C   0  0  0  0  0  2  0  0  0  0  0  0
  -28.0250  -12.4160   18.6020 C   0  0  0  0  0  2  0  0  0  0  0  0
  -27.6230  -13.2940   19.8200 C   0  0  0  0  0  3  0  0  0  0  0  0
  -28.6530  -13.1800   20.9670 C   0  0  0  0  0  2  0  0  0  0  0  0
  -29.9730  -13.5350   20.4240 N   0  0  0  0  0  0  0  0  0  0  0  0
  -31.7570  -14.8800   20.1020 O   0  0  0  0  0  0  0  0  0  0  0  0
  -29.8450  -15.8800   20.8710 N   0  0  0  0  0  0  0  0  0  0  0  0
  -29.0570  -15.6670   21.4620 H   0  0  0  0  0  0  0  0  0  0  0  0
  -25.2130  -13.8900   20.4730 C   0  0  0  0  0  0  0  0  0  0  0  0
  -24.1380  -13.1200   20.8310 C   0  0  0  0  0  0  0  0  0  0  0  0
  -24.6040  -11.7690   20.8290 C   0  0  0  0  0  0  0  0  0  0  0  0
  -26.2640  -13.0100   20.2760 N   0  0  0  0  0  0  0  0  0  0  0  0
  -25.9010  -11.7300   20.5480 N   0  0  0  0  0  0  0  0  0  0  0  0
  -23.8710  -10.5110   21.0230 C   0  0  0  0  0  0  0  0  0  0  0  0
  -24.2880   -9.5510   21.9690 C   0  0  0  0  0  3  0  0  0  0  0  0
  -23.5570   -8.3560   22.1470 C   0  0  0  0  0  3  0  0  0  0  0  0
  -22.3950   -8.1140   21.3790 C   0  0  0  0  0  0  0  0  0  0  0  0
  -21.9960   -9.0620   20.4190 C   0  0  0  0  0  3  0  0  0  0  0  0
  -22.7280  -10.2480   20.2400 C   0  0  0  0  0  3  0  0  0  0  0  0
  -21.6360   -6.9700   21.4670 O   0  0  0  0  0  0  0  0  0  0  0  0
  -21.5760   -6.2350   22.6240 C   0  0  0  0  0  0  0  0  0  0  0  0
  -21.1400   -6.7970   23.8430 C   0  0  0  0  0  3  0  0  0  0  0  0
  -21.0230   -5.9870   24.9910 C   0  0  0  0  0  3  0  0  0  0  0  0
  -21.3340   -4.6160   24.9210 C   0  0  0  0  0  0  0  0  0  0  0  0
  -21.7620   -4.0520   23.7060 C   0  0  0  0  0  3  0  0  0  0  0  0
  -21.8810   -4.8590   22.5610 C   0  0  0  0  0  0  0  0  0  0  0  0
  -22.2740   -4.3060   21.3890 F   0  0  0  0  0  0  0  0  0  0  0  0
  -21.2160   -3.8370   26.0210 F   0  0  0  0  0  0  0  0  0  0  0  0
  -22.7340  -13.6020   21.0660 C   0  0  0  0  0  0  0  0  0  0  0  0
  -21.9860  -12.9200   21.9260 N   0  0  0  0  0  0  0  0  0  0  0  0
  -22.3080  -14.6210   20.5210 O   0  0  0  0  0  0  0  0  0  0  0  0
  -22.3380  -12.0980   22.3950 H   0  0  0  0  0  0  0  0  0  0  0  0
  -21.0430  -13.2280   22.1200 H   0  0  0  0  0  0  0  0  0  0  0  0
  -25.3740  -15.2600   20.2800 N   0  0  0  0  0  0  0  0  0  0  0  0
  -24.5920  -15.9010   20.3420 H   0  0  0  0  0  0  0  0  0  0  0  0
  -26.2190  -15.7020   19.9420 H   0  0  0  0  0  0  0  0  0  0  0  0
  -28.7510  -23.6260   20.7810 C   0  0  0  0  0  3  0  0  0  0  0  0
  -28.0360  -23.3910   21.9910 O   0  0  0  0  0  0  0  0  0  0  0  0
  -27.1500  -23.1340   21.7520 H   0  0  0  0  0  0  0  0  0  0  0  0
  -28.0300  -24.8720   20.0050 C   0  0  0  0  0  2  0  0  0  0  0  0
  -28.2670  -26.3410   20.3090 O   0  0  0  0  0  0  0  0  0  0  0  0
  -24.6130  -31.8870   23.2490 C   0  0  0  0  0  0  0  0  0  0  0  0
  -27.2000  -27.2720   20.2050 C   0  0  0  0  0  0  0  0  0  0  0  0
  -23.4130  -30.4960   21.6010 C   0  0  0  0  0  3  0  0  0  0  0  0
  -24.8660  -28.9520   20.1710 C   0  0  0  0  0  0  0  0  0  0  0  0
  -25.9600  -30.7920   21.4390 C   0  0  0  0  0  2  0  0  0  0  0  0
  -26.0350  -29.4120   20.7890 C   0  0  0  0  0  0  0  0  0  0  0  0
  -27.2030  -28.5800   20.8030 C   0  0  0  0  0  3  0  0  0  0  0  0
  -26.0180  -26.9110   19.5170 C   0  0  0  0  0  3  0  0  0  0  0  0
  -24.8650  -27.7110   19.5210 C   0  0  0  0  0  3  0  0  0  0  0  0
  -23.6340  -29.8300   20.2190 C   0  0  0  0  0  2  0  0  0  0  0  0
  -24.6810  -31.0780   22.1500 N   0  0  0  0  0  0  0  0  0  0  0  0
  -23.5280  -32.1640   23.7810 O   0  0  0  0  0  0  0  0  0  0  0  0
  -22.7470  -29.4760   22.5580 C   0  0  0  0  0  0  0  0  0  0  0  0
  -21.4200  -29.2980   22.4310 N   0  0  0  0  0  0  0  0  0  0  0  0
  -23.4240  -28.8480   23.3780 O   0  0  0  0  0  0  0  0  0  0  0  0
  -20.9310  -29.8570   21.7440 H   0  0  0  0  0  0  0  0  0  0  0  0
  -18.0400  -28.0970   22.9260 C   0  0  0  0  0  0  0  0  0  0  0  0
  -20.5990  -28.3590   23.2010 C   0  0  0  0  0  3  0  0  0  0  0  0
  -20.7020  -26.9260   22.6290 C   0  0  0  0  0  2  0  0  0  0  0  0
  -19.6030  -26.6020   21.6100 C   0  0  0  0  0  2  0  0  0  0  0  0
  -18.2190  -26.7470   22.2500 C   0  0  0  0  0  2  0  0  0  0  0  0
  -19.1580  -28.8590   23.3570 C   0  0  0  0  0  0  0  0  0  0  0  0
  -18.9350  -30.1220   23.9490 C   0  0  0  0  0  3  0  0  0  0  0  0
  -17.6290  -30.6210   24.1120 C   0  0  0  0  0  3  0  0  0  0  0  0
  -16.5270  -29.8560   23.6960 C   0  0  0  0  0  3  0  0  0  0  0  0
  -16.7330  -28.5960   23.1080 C   0  0  0  0  0  3  0  0  0  0  0  0
  -25.8940  -32.5200   23.8740 C   0  0  0  0  0  3  0  0  0  0  0  0
  -26.4030  -31.7530   25.1570 C   0  0  1  0  0  0  0  0  0  0  0  0
  -25.3060  -31.5240   26.2220 C   0  0  0  0  0  1  0  0  0  0  0  0
  -26.9840  -30.3700   24.7780 C   0  0  0  0  0  1  0  0  0  0  0  0
  -27.5520  -32.5480   25.8200 C   0  0  0  0  0  1  0  0  0  0  0  0
  -25.5820  -33.9200   24.2000 N   0  0  0  0  0  0  0  0  0  0  0  0
  -25.9110  -34.9720   23.4380 C   0  0  0  0  0  0  0  0  0  0  0  0
  -26.5810  -34.8670   22.4060 O   0  0  0  0  0  0  0  0  0  0  0  0
  -24.9870  -34.0760   24.9990 H   0  0  0  0  0  0  0  0  0  0  0  0
  -24.1830  -36.7670   23.0870 C   0  0  0  0  0  1  0  0  0  0  0  0
  -25.4250  -36.3600   23.8950 C   0  0  0  0  0  3  0  0  0  0  0  0
  -27.5620  -37.2510   24.7180 C   0  0  0  0  0  1  0  0  0  0  0  0
  -26.4560  -37.4140   23.7770 N   0  0  0  0  0  0  0  0  0  0  0  0
  -26.0500  -38.3350   23.9220 H   0  0  0  0  0  0  0  0  0  0  0  0
  1 19  1  0
  1  5  1  0
  2  1  2  0
  3  6  1  0
  3  5  2  0
  4  6  1  0
  4 49  1  0
  6 10  1  0
  7  4  2  0
  8  2  1  0
  9  2  1  0
  9  3  1  0
 11 19  1  0
 12 17  1  0
 13 14  1  0
 13 12  1  0
 15 14  1  0
 15 24  1  0
 15 16  1  0
 17 11  1  0
 17 16  1  0
 18 11  2  0
 19 20  1  0
 21 22  2  0
 22 41  1  0
 23 22  1  0
 23 26  1  0
 24 21  1  0
 24 25  1  0
 25 23  2  0
 26 27  1  0
 27 28  2  0
 29 32  1  0
 29 28  1  0
 30 29  2  0
 31 30  1  0
 31 26  2  0
 32 33  1  0
 33 34  1  0
 34 35  2  0
 36 35  1  0
 36 40  1  0
 37 36  2  0
 38 33  2  0
 38 37  1  0
 39 38  1  0
 41 42  1  0
 42 45  1  0
 42 44  1  0
 43 41  2  0
 46 47  1  0
 46 21  1  0
 48 46  1  0
 49 52  1  0
 49 50  1  0
 51 50  1  0
 52 53  1  0
 54 65  2  0
 55 53  1  0
 55 60  1  0
 56 64  1  0
 56 66  1  0
 57 63  1  0
 57 59  1  0
 58 64  1  0
 59 60  2  0
 59 58  1  0
 61 62  1  0
 61 55  2  0
 62 57  2  0
 63 56  1  0
 64 54  1  0
 66 68  2  0
 67 66  1  0
 69 67  1  0
 70 79  2  0
 70 75  1  0
 71 67  1  0
 71 75  1  0
 72 71  1  0
 73 74  1  0
 73 72  1  0
 74 70  1  0
 75 76  2  0
 76 77  1  0
 78 77  2  0
 79 78  1  0
 80 54  1  0
 80 85  1  0
 80 81  1  0
 81 84  1  1
 81 82  1  0
 83 81  1  0
 85 88  1  0
 86 90  1  0
 86 85  1  0
 87 86  2  0
 90 89  1  0
 92 90  1  0
 92 93  1  0
 92 91  1  0
M  ISO  4  11 100  19 100  52 101  53 101
M  END
>  <TORSDO>  (39) 
F 19

>  <SCORE>  (39) 
-14.498

>  <name>  (39) 
38

>  <ligand_id>  (39) 
38

>  <original_smiles>  (39) 
[H]OC([H])(C(=O)N([H])c1nc(N([H])C(=O)N2C([H])([H])C([H])([H])C([H])([H])C([H])(n3nc(-c4c([H])c([H])c(Oc5c([H])c([H])c(F)c([H])c5F)c([H])c4[H])c(C(=O)N([H])[H])c3N([H])[H])C2([H])[H])c(F)s1)C([H])([H])Oc1c([H])c([H])c2c(c1[H])C([H])([H])N(C(=O)C([H])(N([H])C(=O)C([H])(N([H])C([H])([H])[H])C([H])([H])[H])C(C([H])([H])[H])(C([H])([H])[H])C([H])([H])[H])C([H])(C(=O)N([H])C1([H])c3c([H])c([H])c([H])c([H])c3C([H])([H])C([H])([H])C1([H])[H])C2([H])[H]

>  <smiles>  (39) 
[H]OC([H])(C(=O)N([H])c1nc(N([H])C(=O)N2C([H])([H])C([H])([H])C([H])([H])C([H])(n3nc(-c4c([H])c([H])c(Oc5c([H])c([H])c(F)c([H])c5F)c([H])c4[H])c(C(=O)N([H])[H])c3N([H])[H])C2([H])[H])c(F)s1)C([H])([H])Oc1c([H])c([H])c2c(c1[H])C([H])([H])N(C(=O)C([H])(N([H])C(=O)C([H])(N([H])C([H])([H])[H])C([H])([H])[H])C(C([H])([H])[H])(C([H])([H])[H])C([H])([H])[H])C([H])(C(=O)N([H])C1([H])c3c([H])c([H])c([H])c([H])c3C([H])([H])C([H])([H])C1([H])[H])C2([H])[H]

$$$$
39:0:0
     RDKit          3D

 89 97  0  0  1  0  0  0  0  0999 V2000
  -27.4060  -21.6080   21.3530 C   0  0  0  0  0  1  0  0  0  0  0  0
  -28.4680  -21.7630   20.2460 C   0  0  0  0  0  3  0  0  0  0  0  0
  -28.8170  -18.9640   20.3360 C   0  0  0  0  0  3  0  0  0  0  0  0
  -30.6010  -20.0880   20.0690 C   0  0  0  0  0  3  0  0  0  0  0  0
  -29.8510  -17.9690   20.2450 C   0  0  0  0  0  0  0  0  0  0  0  0
  -30.9910  -18.7760   20.0680 N   0  0  0  0  0  0  0  0  0  0  0  0
  -29.2830  -20.3600   20.2360 N   0  0  0  0  0  0  0  0  0  0  0  0
  -30.5760  -15.2520   20.1520 C   0  0  0  0  0  0  0  0  0  0  0  0
  -30.4990  -12.8720   19.2260 C   0  0  0  0  0  2  0  0  0  0  0  0
  -29.5380  -12.7890   18.0170 C   0  0  0  0  0  2  0  0  0  0  0  0
  -28.0900  -12.5460   18.4850 C   0  0  0  0  0  2  0  0  0  0  0  0
  -27.6930  -13.4660   19.6690 C   0  0  0  0  0  3  0  0  0  0  0  0
  -28.7760  -13.5100   20.7670 C   0  0  0  0  0  2  0  0  0  0  0  0
  -30.0170  -13.9650   20.1250 N   0  0  0  0  0  0  0  0  0  0  0  0
  -31.7750  -15.3230   19.8490 O   0  0  0  0  0  0  0  0  0  0  0  0
  -29.7450  -16.4160   20.3220 N   0  0  0  0  0  0  0  0  0  0  0  0
  -28.8000  -16.1170   20.5150 H   0  0  0  0  0  0  0  0  0  0  0  0
  -25.3360  -14.0150   20.4950 C   0  0  0  0  0  0  0  0  0  0  0  0
  -24.2870  -13.2290   20.8800 C   0  0  0  0  0  0  0  0  0  0  0  0
  -24.7550  -11.8800   20.8020 C   0  0  0  0  0  0  0  0  0  0  0  0
  -26.3740  -13.1470   20.2010 N   0  0  0  0  0  0  0  0  0  0  0  0
  -26.0360  -11.8560   20.4530 N   0  0  0  0  0  0  0  0  0  0  0  0
  -24.0360  -10.6120   20.9820 C   0  0  0  0  0  0  0  0  0  0  0  0
  -24.4520   -9.6550   21.9340 C   0  0  0  0  0  3  0  0  0  0  0  0
  -23.7310   -8.4530   22.1030 C   0  0  0  0  0  3  0  0  0  0  0  0
  -22.5810   -8.1970   21.3180 C   0  0  0  0  0  0  0  0  0  0  0  0
  -22.1850   -9.1430   20.3550 C   0  0  0  0  0  3  0  0  0  0  0  0
  -22.9060  -10.3370   20.1850 C   0  0  0  0  0  3  0  0  0  0  0  0
  -21.8340   -7.0460   21.3940 O   0  0  0  0  0  0  0  0  0  0  0  0
  -21.6990   -6.3530   22.5700 C   0  0  0  0  0  0  0  0  0  0  0  0
  -21.1260   -6.9400   23.7210 C   0  0  0  0  0  3  0  0  0  0  0  0
  -20.9430   -6.1710   24.8870 C   0  0  0  0  0  3  0  0  0  0  0  0
  -21.3200   -4.8140   24.9030 C   0  0  0  0  0  0  0  0  0  0  0  0
  -21.8860   -4.2270   23.7580 C   0  0  0  0  0  3  0  0  0  0  0  0
  -22.0720   -4.9940   22.5940 C   0  0  0  0  0  0  0  0  0  0  0  0
  -22.5970   -4.4170   21.4860 F   0  0  0  0  0  0  0  0  0  0  0  0
  -21.1390   -4.0720   26.0200 F   0  0  0  0  0  0  0  0  0  0  0  0
  -22.8970  -13.6950   21.1990 C   0  0  0  0  0  0  0  0  0  0  0  0
  -22.1940  -12.9790   22.0700 N   0  0  0  0  0  0  0  0  0  0  0  0
  -22.4440  -14.7300   20.7130 O   0  0  0  0  0  0  0  0  0  0  0  0
  -22.5740  -12.1420   22.4860 H   0  0  0  0  0  0  0  0  0  0  0  0
  -21.2620  -13.2730   22.3230 H   0  0  0  0  0  0  0  0  0  0  0  0
  -25.4860  -15.3910   20.3420 N   0  0  0  0  0  0  0  0  0  0  0  0
  -24.7080  -16.0280   20.4820 H   0  0  0  0  0  0  0  0  0  0  0  0
  -26.2890  -15.8400   19.9200 H   0  0  0  0  0  0  0  0  0  0  0  0
  -28.9390  -23.3890   20.2470 C   0  0  0  0  0  0  0  0  0  0  0  0
  -30.1360  -23.6290   20.4360 O   0  0  0  0  0  0  0  0  0  0  0  0
  -27.9060  -24.7060   20.0100 C   0  0  0  0  0  2  0  0  0  0  0  0
  -28.2470  -26.2420   20.2140 O   0  0  0  0  0  0  0  0  0  0  0  0
  -24.6450  -31.9570   23.3060 C   0  0  0  0  0  0  0  0  0  0  0  0
  -27.2110  -27.2680   20.1710 C   0  0  0  0  0  0  0  0  0  0  0  0
  -23.4370  -30.5850   21.6550 C   0  0  0  0  0  3  0  0  0  0  0  0
  -24.8800  -29.0390   20.1860 C   0  0  0  0  0  0  0  0  0  0  0  0
  -25.9900  -30.8550   21.4710 C   0  0  0  0  0  2  0  0  0  0  0  0
  -26.0660  -29.4700   20.7940 C   0  0  0  0  0  0  0  0  0  0  0  0
  -27.2320  -28.6030   20.7670 C   0  0  0  0  0  3  0  0  0  0  0  0
  -25.9960  -26.9580   19.5200 C   0  0  0  0  0  3  0  0  0  0  0  0
  -24.8600  -27.7990   19.5320 C   0  0  0  0  0  3  0  0  0  0  0  0
  -23.6490  -29.9320   20.2630 C   0  0  0  0  0  2  0  0  0  0  0  0
  -24.7120  -31.1540   22.1990 N   0  0  0  0  0  0  0  0  0  0  0  0
  -23.5620  -32.2260   23.8490 O   0  0  0  0  0  0  0  0  0  0  0  0
  -22.7700  -29.5590   22.6070 C   0  0  0  0  0  0  0  0  0  0  0  0
  -21.4460  -29.3620   22.4720 N   0  0  0  0  0  0  0  0  0  0  0  0
  -23.4490  -28.9420   23.4310 O   0  0  0  0  0  0  0  0  0  0  0  0
  -20.9520  -29.9120   21.7830 H   0  0  0  0  0  0  0  0  0  0  0  0
  -18.0910  -28.0730   22.9420 C   0  0  0  0  0  0  0  0  0  0  0  0
  -20.6400  -28.4020   23.2320 C   0  0  0  0  0  3  0  0  0  0  0  0
  -20.7830  -26.9730   22.6560 C   0  0  0  0  0  2  0  0  0  0  0  0
  -19.7000  -26.6250   21.6300 C   0  0  0  0  0  2  0  0  0  0  0  0
  -18.3090  -26.7320   22.2620 C   0  0  0  0  0  2  0  0  0  0  0  0
  -19.1850  -28.8640   23.3840 C   0  0  0  0  0  0  0  0  0  0  0  0
  -18.9260  -30.1160   23.9830 C   0  0  0  0  0  3  0  0  0  0  0  0
  -17.6070  -30.5810   24.1400 C   0  0  0  0  0  3  0  0  0  0  0  0
  -16.5280  -29.7880   23.7140 C   0  0  0  0  0  3  0  0  0  0  0  0
  -16.7700  -28.5360   23.1200 C   0  0  0  0  0  3  0  0  0  0  0  0
  -25.9230  -32.5920   23.9310 C   0  0  0  0  0  3  0  0  0  0  0  0
  -26.4270  -31.8280   25.2170 C   0  0  1  0  0  0  0  0  0  0  0  0
  -25.3240  -31.6020   26.2800 C   0  0  0  0  0  1  0  0  0  0  0  0
  -27.0080  -30.4450   24.8470 C   0  0  0  0  0  1  0  0  0  0  0  0
  -27.5750  -32.6230   25.8830 C   0  0  0  0  0  1  0  0  0  0  0  0
  -25.6160  -33.9940   24.2580 N   0  0  0  0  0  0  0  0  0  0  0  0
  -25.9220  -35.0450   23.4850 C   0  0  0  0  0  0  0  0  0  0  0  0
  -26.5570  -34.9360   22.4340 O   0  0  0  0  0  0  0  0  0  0  0  0
  -25.0450  -34.1510   25.0760 H   0  0  0  0  0  0  0  0  0  0  0  0
  -24.1660  -36.8280   23.1980 C   0  0  0  0  0  1  0  0  0  0  0  0
  -25.4500  -36.4380   23.9500 C   0  0  0  0  0  3  0  0  0  0  0  0
  -27.6120  -37.3560   24.6700 C   0  0  0  0  0  1  0  0  0  0  0  0
  -26.4690  -37.4960   23.7710 N   0  0  0  0  0  0  0  0  0  0  0  0
  -26.0630  -38.4160   23.9160 H   0  0  0  0  0  0  0  0  0  0  0  0
  2 46  1  0
  2  1  1  0
  4  7  1  0
  5 16  1  0
  5  3  2  0
  6  4  2  0
  6  5  1  0
  7  2  1  0
  7  3  1  0
  8 16  1  0
  9 14  1  0
 10 11  1  0
 10  9  1  0
 12 11  1  0
 12 21  1  0
 12 13  1  0
 14  8  1  0
 14 13  1  0
 15  8  2  0
 16 17  1  0
 18 19  2  0
 19 38  1  0
 20 19  1  0
 20 23  1  0
 21 22  1  0
 21 18  1  0
 22 20  2  0
 23 24  1  0
 24 25  2  0
 26 29  1  0
 26 25  1  0
 27 26  2  0
 28 27  1  0
 28 23  2  0
 29 30  1  0
 30 35  2  0
 30 31  1  0
 31 32  2  0
 32 33  1  0
 33 37  1  0
 34 33  2  0
 35 34  1  0
 36 35  1  0
 38 39  1  0
 39 42  1  0
 39 41  1  0
 40 38  2  0
 43 44  1  0
 43 18  1  0
 45 43  1  0
 46 47  2  0
 48 49  1  0
 48 46  1  0
 50 61  2  0
 51 49  1  0
 51 56  1  0
 52 60  1  0
 52 62  1  0
 53 59  1  0
 53 55  1  0
 54 60  1  0
 55 54  1  0
 56 55  2  0
 57 58  1  0
 57 51  2  0
 58 53  2  0
 59 52  1  0
 60 50  1  0
 62 64  2  0
 63 62  1  0
 65 63  1  0
 66 75  2  0
 66 71  1  0
 67 63  1  0
 67 71  1  0
 68 67  1  0
 69 70  1  0
 69 68  1  0
 70 66  1  0
 71 72  2  0
 72 73  1  0
 74 73  2  0
 75 74  1  0
 76 50  1  0
 76 81  1  0
 76 77  1  0
 77 80  1  1
 77 78  1  0
 79 77  1  0
 81 84  1  0
 82 86  1  0
 82 81  1  0
 83 82  2  0
 86 85  1  0
 88 89  1  0
 88 86  1  0
 88 87  1  0
M  ISO  4   8 100  16 100  48 101  49 101
M  END
>  <TORSDO>  (40) 
F 19

>  <SCORE>  (40) 
-13.683

>  <name>  (40) 
39

>  <ligand_id>  (40) 
39

>  <original_smiles>  (40) 
[H]c1c([H])c([H])c2c(c1[H])C([H])([H])C([H])([H])C([H])([H])C2([H])N([H])C(=O)C1([H])N(C(=O)C([H])(N([H])C(=O)C([H])(N([H])C([H])([H])[H])C([H])([H])[H])C(C([H])([H])[H])(C([H])([H])[H])C([H])([H])[H])C([H])([H])c2c([H])c(OC([H])([H])C(=O)C([H])(n3c([H])nc(N([H])C(=O)N4C([H])([H])C([H])([H])C([H])([H])C([H])(n5nc(-c6c([H])c([H])c(Oc7c([H])c([H])c(F)c([H])c7F)c([H])c6[H])c(C(=O)N([H])[H])c5N([H])[H])C4([H])[H])c3[H])C([H])([H])[H])c([H])c([H])c2C1([H])[H]

>  <smiles>  (40) 
[H]c1c([H])c([H])c2c(c1[H])C([H])([H])C([H])([H])C([H])([H])C2([H])N([H])C(=O)C1([H])N(C(=O)C([H])(N([H])C(=O)C([H])(N([H])C([H])([H])[H])C([H])([H])[H])C(C([H])([H])[H])(C([H])([H])[H])C([H])([H])[H])C([H])([H])c2c([H])c(OC([H])([H])C(=O)C([H])(n3c([H])nc(N([H])C(=O)N4C([H])([H])C([H])([H])C([H])([H])C([H])(n5nc(-c6c([H])c([H])c(Oc7c([H])c([H])c(F)c([H])c7F)c([H])c6[H])c(C(=O)N([H])[H])c5N([H])[H])C4([H])[H])c3[H])C([H])([H])[H])c([H])c([H])c2C1([H])[H]

$$$$
40:0:0
     RDKit          3D

 94102  0  0  1  0  0  0  0  0999 V2000
  -28.5840  -22.8950   20.8090 C   0  0  0  0  0  0  0  0  0  0  0  0
  -29.1080  -21.7590   20.2900 N   0  0  0  0  0  0  0  0  0  0  0  0
  -27.6100  -22.8540   21.5640 O   0  0  0  0  0  0  0  0  0  0  0  0
  -29.9560  -21.8320   19.7460 H   0  0  0  0  0  0  0  0  0  0  0  0
  -27.4970  -20.3760   19.0520 C   0  0  0  0  0  1  0  0  0  0  0  0
  -28.4040  -20.4560   20.2900 C   0  0  0  0  0  3  0  0  0  0  0  0
  -30.9630  -17.7590   19.7250 C   0  0  0  0  0  3  0  0  0  0  0  0
  -30.1980  -16.8880   20.4770 C   0  0  0  0  0  0  0  0  0  0  0  0
  -29.3250  -19.2470   20.3360 C   0  0  0  0  0  0  0  0  0  0  0  0
  -30.4540  -19.0730   19.6360 N   0  0  0  0  0  0  0  0  0  0  0  0
  -28.8470  -17.7640   21.1740 S   0  0  0  0  0  0  0  0  0  0  0  0
  -30.9590  -14.5910   20.0020 C   0  0  0  0  0  0  0  0  0  0  0  0
  -30.6430  -12.3960   18.9010 C   0  0  0  0  0  2  0  0  0  0  0  0
  -29.6310  -12.5670   17.7470 C   0  0  0  0  0  2  0  0  0  0  0  0
  -28.1830  -12.4330   18.2580 C   0  0  0  0  0  2  0  0  0  0  0  0
  -27.9130  -13.2990   19.5170 C   0  0  0  0  0  3  0  0  0  0  0  0
  -29.0230  -13.0790   20.5720 C   0  0  0  0  0  2  0  0  0  0  0  0
  -30.3210  -13.3880   19.9410 N   0  0  0  0  0  0  0  0  0  0  0  0
  -32.0210  -14.8160   19.4120 O   0  0  0  0  0  0  0  0  0  0  0  0
  -30.3080  -15.5410   20.7080 N   0  0  0  0  0  0  0  0  0  0  0  0
  -29.5790  -15.1620   21.2920 H   0  0  0  0  0  0  0  0  0  0  0  0
  -25.5810  -13.9490   20.3970 C   0  0  0  0  0  0  0  0  0  0  0  0
  -24.5150  -13.1940   20.8100 C   0  0  0  0  0  0  0  0  0  0  0  0
  -24.9340  -11.8330   20.7030 C   0  0  0  0  0  0  0  0  0  0  0  0
  -26.5830  -13.0470   20.0700 N   0  0  0  0  0  0  0  0  0  0  0  0
  -26.2000  -11.7680   20.3110 N   0  0  0  0  0  0  0  0  0  0  0  0
  -24.1850  -10.5850   20.8990 C   0  0  0  0  0  0  0  0  0  0  0  0
  -24.5890   -9.6230   21.8520 C   0  0  0  0  0  3  0  0  0  0  0  0
  -23.8440   -8.4390   22.0340 C   0  0  0  0  0  3  0  0  0  0  0  0
  -22.6790   -8.2070   21.2650 C   0  0  0  0  0  0  0  0  0  0  0  0
  -22.2930   -9.1570   20.3030 C   0  0  0  0  0  3  0  0  0  0  0  0
  -23.0380  -10.3340   20.1180 C   0  0  0  0  0  3  0  0  0  0  0  0
  -21.9050   -7.0750   21.3570 O   0  0  0  0  0  0  0  0  0  0  0  0
  -21.7500   -6.4030   22.5430 C   0  0  0  0  0  0  0  0  0  0  0  0
  -21.2170   -7.0300   23.6900 C   0  0  0  0  0  3  0  0  0  0  0  0
  -21.0110   -6.2840   24.8670 C   0  0  0  0  0  3  0  0  0  0  0  0
  -21.3250   -4.9120   24.8970 C   0  0  0  0  0  0  0  0  0  0  0  0
  -21.8510   -4.2850   23.7540 C   0  0  0  0  0  3  0  0  0  0  0  0
  -22.0600   -5.0280   22.5790 C   0  0  0  0  0  0  0  0  0  0  0  0
  -22.5470   -4.4140   21.4740 F   0  0  0  0  0  0  0  0  0  0  0  0
  -21.1200   -4.1930   26.0260 F   0  0  0  0  0  0  0  0  0  0  0  0
  -23.1520  -13.6990   21.1880 C   0  0  0  0  0  0  0  0  0  0  0  0
  -22.4670  -13.0000   22.0870 N   0  0  0  0  0  0  0  0  0  0  0  0
  -22.7060  -14.7470   20.7230 O   0  0  0  0  0  0  0  0  0  0  0  0
  -22.8400  -12.1520   22.4850 H   0  0  0  0  0  0  0  0  0  0  0  0
  -21.5550  -13.3180   22.3820 H   0  0  0  0  0  0  0  0  0  0  0  0
  -25.7740  -15.3200   20.2530 N   0  0  0  0  0  0  0  0  0  0  0  0
  -25.0320  -15.9890   20.4240 H   0  0  0  0  0  0  0  0  0  0  0  0
  -26.6120  -15.7460   19.8810 H   0  0  0  0  0  0  0  0  0  0  0  0
  -29.2110  -24.2690   20.4220 C   0  0  0  0  0  3  0  0  0  0  0  0
  -30.5970  -24.2360   20.7380 O   0  0  0  0  0  0  0  0  0  0  0  0
  -30.6570  -24.0960   21.6790 H   0  0  0  0  0  0  0  0  0  0  0  0
  -28.5320  -25.5070   21.1130 C   0  0  0  0  0  2  0  0  0  0  0  0
  -28.6260  -26.7450   20.3670 O   0  0  0  0  0  0  0  0  0  0  0  0
  -24.7120  -31.9000   23.3770 C   0  0  0  0  0  0  0  0  0  0  0  0
  -27.4670  -27.4950   20.3410 C   0  0  0  0  0  0  0  0  0  0  0  0
  -23.5510  -30.4860   21.7100 C   0  0  0  0  0  3  0  0  0  0  0  0
  -25.0510  -28.9710   20.3020 C   0  0  0  0  0  0  0  0  0  0  0  0
  -26.0740  -30.8810   21.5530 C   0  0  0  0  0  2  0  0  0  0  0  0
  -26.1910  -29.5120   20.9110 C   0  0  0  0  0  0  0  0  0  0  0  0
  -27.4050  -28.7820   20.9240 C   0  0  0  0  0  3  0  0  0  0  0  0
  -26.3130  -26.9720   19.7220 C   0  0  0  0  0  3  0  0  0  0  0  0
  -25.1090  -27.7010   19.6990 C   0  0  0  0  0  3  0  0  0  0  0  0
  -23.7930  -29.8150   20.3310 C   0  0  0  0  0  2  0  0  0  0  0  0
  -24.7960  -31.1040   22.2720 N   0  0  0  0  0  0  0  0  0  0  0  0
  -23.6190  -32.1560   23.9020 O   0  0  0  0  0  0  0  0  0  0  0  0
  -22.8990  -29.4540   22.6600 C   0  0  0  0  0  0  0  0  0  0  0  0
  -21.5800  -29.2480   22.5060 N   0  0  0  0  0  0  0  0  0  0  0  0
  -23.5760  -28.8440   23.4910 O   0  0  0  0  0  0  0  0  0  0  0  0
  -21.0950  -29.7990   21.8120 H   0  0  0  0  0  0  0  0  0  0  0  0
  -18.2150  -27.9970   22.9390 C   0  0  0  0  0  0  0  0  0  0  0  0
  -20.7630  -28.2960   23.2600 C   0  0  0  0  0  3  0  0  0  0  0  0
  -20.9000  -26.8690   22.6830 C   0  0  0  0  0  2  0  0  0  0  0  0
  -19.8220  -26.5290   21.6480 C   0  0  0  0  0  2  0  0  0  0  0  0
  -18.4260  -26.6510   22.2660 C   0  0  0  0  0  2  0  0  0  0  0  0
  -19.3140  -28.7760   23.3910 C   0  0  0  0  0  0  0  0  0  0  0  0
  -19.0650  -30.0330   23.9810 C   0  0  0  0  0  3  0  0  0  0  0  0
  -17.7500  -30.5150   24.1230 C   0  0  0  0  0  3  0  0  0  0  0  0
  -16.6650  -29.7340   23.6880 C   0  0  0  0  0  3  0  0  0  0  0  0
  -16.8980  -28.4770   23.1020 C   0  0  0  0  0  3  0  0  0  0  0  0
  -25.9790  -32.5450   24.0200 C   0  0  0  0  0  3  0  0  0  0  0  0
  -25.6700  -33.9570   24.2880 N   0  0  0  0  0  0  0  0  0  0  0  0
  -26.0350  -34.9770   23.5010 C   0  0  0  0  0  0  0  0  0  0  0  0
  -26.7380  -34.8310   22.4960 O   0  0  0  0  0  0  0  0  0  0  0  0
  -25.0530  -34.1430   25.0640 H   0  0  0  0  0  0  0  0  0  0  0  0
  -24.3330  -36.7640   23.0180 C   0  0  0  0  0  1  0  0  0  0  0  0
  -25.5430  -36.3850   23.8870 C   0  0  0  0  0  3  0  0  0  0  0  0
  -27.6530  -37.2900   24.7560 C   0  0  0  0  0  1  0  0  0  0  0  0
  -26.5860  -37.4280   23.7680 N   0  0  0  0  0  0  0  0  0  0  0  0
  -26.1820  -38.3560   23.8620 H   0  0  0  0  0  0  0  0  0  0  0  0
  -26.4500  -31.8150   25.3370 C   0  0  1  0  0  0  0  0  0  0  0  0
  -25.3190  -31.6130   26.3720 C   0  0  0  0  0  1  0  0  0  0  0  0
  -27.0440  -30.4270   25.0060 C   0  0  0  0  0  1  0  0  0  0  0  0
  -27.5800  -32.6300   26.0090 C   0  0  0  0  0  1  0  0  0  0  0  0
  1  3  2  0
  2  6  1  0
  2  1  1  0
  4  2  1  0
  6  5  1  0
  6  9  1  0
  7  8  2  0
  8 20  1  0
  8 11  1  0
  9 11  1  0
 10  7  1  0
 10  9  2  0
 12 20  1  0
 13 18  1  0
 14 15  1  0
 14 13  1  0
 16 15  1  0
 16 25  1  0
 16 17  1  0
 18 12  1  0
 18 17  1  0
 19 12  2  0
 20 21  1  0
 22 23  2  0
 23 42  1  0
 24 23  1  0
 24 27  1  0
 25 26  1  0
 25 22  1  0
 26 24  2  0
 27 28  1  0
 28 29  2  0
 30 33  1  0
 30 29  1  0
 31 30  2  0
 32 31  1  0
 32 27  2  0
 33 34  1  0
 34 39  2  0
 34 35  1  0
 35 36  2  0
 36 37  1  0
 37 41  1  0
 38 37  2  0
 39 38  1  0
 40 39  1  0
 42 43  1  0
 43 46  1  0
 43 45  1  0
 44 42  2  0
 47 22  1  0
 47 48  1  0
 49 47  1  0
 50 51  1  0
 50  1  1  0
 50 53  1  0
 51 52  1  0
 54 53  1  0
 55 66  2  0
 56 54  1  0
 56 61  1  0
 57 65  1  0
 57 67  1  0
 58 64  1  0
 58 60  1  0
 59 65  1  0
 60 61  2  0
 60 59  1  0
 62 56  2  0
 63 62  1  0
 63 58  2  0
 64 57  1  0
 65 55  1  0
 67 69  2  0
 68 67  1  0
 70 68  1  0
 71 80  2  0
 71 76  1  0
 72 68  1  0
 72 76  1  0
 73 72  1  0
 74 75  1  0
 74 73  1  0
 75 71  1  0
 76 77  2  0
 77 78  1  0
 79 78  2  0
 80 79  1  0
 81 55  1  0
 81 82  1  0
 81 91  1  0
 82 85  1  0
 83 87  1  0
 83 82  1  0
 84 83  2  0
 87 86  1  0
 89 90  1  0
 89 87  1  0
 89 88  1  0
 91 94  1  1
 91 92  1  0
 93 91  1  0
M  ISO  4  12 100  20 100  53 101  54 101
M  END
>  <TORSDO>  (41) 
F 21

>  <SCORE>  (41) 
-12.995

>  <name>  (41) 
40

>  <ligand_id>  (41) 
40

>  <original_smiles>  (41) 
[H]OC([H])(C(=O)N([H])C([H])(c1nc([H])c(N([H])C(=O)N2C([H])([H])C([H])([H])C([H])([H])C([H])(n3nc(-c4c([H])c([H])c(Oc5c([H])c([H])c(F)c([H])c5F)c([H])c4[H])c(C(=O)N([H])[H])c3N([H])[H])C2([H])[H])s1)C([H])([H])[H])C([H])([H])Oc1c([H])c([H])c2c(c1[H])C([H])([H])N(C(=O)C([H])(N([H])C(=O)C([H])(N([H])C([H])([H])[H])C([H])([H])[H])C(C([H])([H])[H])(C([H])([H])[H])C([H])([H])[H])C([H])(C(=O)N([H])C1([H])c3c([H])c([H])c([H])c([H])c3C([H])([H])C([H])([H])C1([H])[H])C2([H])[H]

>  <smiles>  (41) 
[H]OC([H])(C(=O)N([H])C([H])(c1nc([H])c(N([H])C(=O)N2C([H])([H])C([H])([H])C([H])([H])C([H])(n3nc(-c4c([H])c([H])c(Oc5c([H])c([H])c(F)c([H])c5F)c([H])c4[H])c(C(=O)N([H])[H])c3N([H])[H])C2([H])[H])s1)C([H])([H])[H])C([H])([H])Oc1c([H])c([H])c2c(c1[H])C([H])([H])N(C(=O)C([H])(N([H])C(=O)C([H])(N([H])C([H])([H])[H])C([H])([H])[H])C(C([H])([H])[H])(C([H])([H])[H])C([H])([H])[H])C([H])(C(=O)N([H])C1([H])c3c([H])c([H])c([H])c([H])c3C([H])([H])C([H])([H])C1([H])[H])C2([H])[H]

$$$$
41:0:0
     RDKit          3D

 94102  0  0  1  0  0  0  0  0999 V2000
  -31.0900  -23.4900   20.1690 C   0  0  0  0  0  1  0  0  0  0  0  0
  -29.6810  -22.9960   19.7640 C   0  0  0  0  0  3  0  0  0  0  0  0
  -30.2550  -20.4950   20.1790 C   0  0  0  0  0  0  0  0  0  0  0  0
  -29.4190  -21.5760   20.1780 N   0  0  0  0  0  0  0  0  0  0  0  0
  -31.4780  -20.5940   20.0510 O   0  0  0  0  0  0  0  0  0  0  0  0
  -28.4450  -21.3420   20.3210 H   0  0  0  0  0  0  0  0  0  0  0  0
  -30.6180  -14.5880   20.4820 C   0  0  0  0  0  0  0  0  0  0  0  0
  -30.3790  -12.3950   19.3490 C   0  0  0  0  0  2  0  0  0  0  0  0
  -29.4380  -12.5720   18.1370 C   0  0  0  0  0  2  0  0  0  0  0  0
  -27.9610  -12.4190   18.5540 C   0  0  0  0  0  2  0  0  0  0  0  0
  -27.6070  -13.2550   19.8110 C   0  0  0  0  0  3  0  0  0  0  0  0
  -28.6580  -13.0460   20.9270 C   0  0  0  0  0  2  0  0  0  0  0  0
  -29.9860  -13.3780   20.3750 N   0  0  0  0  0  0  0  0  0  0  0  0
  -31.7290  -14.7940   19.9820 O   0  0  0  0  0  0  0  0  0  0  0  0
  -29.6440  -19.1000   20.3150 C   0  0  0  0  0  0  0  0  0  0  0  0
  -29.5910  -16.8680   20.6310 C   0  0  0  0  0  3  0  0  0  0  0  0
  -30.3410  -17.9840   20.7120 N   0  0  0  0  0  0  0  0  0  0  0  0
  -28.3630  -18.8910   19.9460 N   0  0  0  0  0  2  0  0  0  0  0  0
  -29.9260  -15.5590   21.1260 N   0  0  0  0  0  0  0  0  0  0  0  0
  -27.9940  -17.2450   20.0590 S   0  0  0  0  0  0  0  0  0  0  0  0
  -29.1500  -15.1360   21.6110 H   0  0  0  0  0  0  0  0  0  0  0  0
  -25.2000  -13.8580   20.4960 C   0  0  0  0  0  0  0  0  0  0  0  0
  -24.1320  -13.0890   20.8660 C   0  0  0  0  0  0  0  0  0  0  0  0
  -24.5940  -11.7390   20.8420 C   0  0  0  0  0  0  0  0  0  0  0  0
  -26.2490  -12.9800   20.2790 N   0  0  0  0  0  0  0  0  0  0  0  0
  -25.8860  -11.6990   20.5440 N   0  0  0  0  0  0  0  0  0  0  0  0
  -23.8650  -10.4790   21.0300 C   0  0  0  0  0  0  0  0  0  0  0  0
  -24.2950   -9.5110   21.9640 C   0  0  0  0  0  3  0  0  0  0  0  0
  -23.5690   -8.3140   22.1410 C   0  0  0  0  0  3  0  0  0  0  0  0
  -22.3980   -8.0770   21.3820 C   0  0  0  0  0  0  0  0  0  0  0  0
  -21.9880   -9.0340   20.4350 C   0  0  0  0  0  3  0  0  0  0  0  0
  -22.7150  -10.2220   20.2580 C   0  0  0  0  0  3  0  0  0  0  0  0
  -21.6410   -6.9340   21.4680 O   0  0  0  0  0  0  0  0  0  0  0  0
  -21.5950   -6.1860   22.6190 C   0  0  0  0  0  0  0  0  0  0  0  0
  -21.1650   -6.7350   23.8470 C   0  0  0  0  0  3  0  0  0  0  0  0
  -21.0690   -5.9130   24.9890 C   0  0  0  0  0  3  0  0  0  0  0  0
  -21.3890   -4.5450   24.9010 C   0  0  0  0  0  0  0  0  0  0  0  0
  -21.8130   -3.9970   23.6780 C   0  0  0  0  0  3  0  0  0  0  0  0
  -21.9120   -4.8150   22.5390 C   0  0  0  0  0  0  0  0  0  0  0  0
  -22.3000   -4.2780   21.3570 F   0  0  0  0  0  0  0  0  0  0  0  0
  -21.2880   -3.7540   25.9940 F   0  0  0  0  0  0  0  0  0  0  0  0
  -22.7330  -13.5680   21.1270 C   0  0  0  0  0  0  0  0  0  0  0  0
  -21.9960  -12.8720   21.9860 N   0  0  0  0  0  0  0  0  0  0  0  0
  -22.3020  -14.5950   20.6060 O   0  0  0  0  0  0  0  0  0  0  0  0
  -22.3580  -12.0430   22.4340 H   0  0  0  0  0  0  0  0  0  0  0  0
  -21.0560  -13.1740   22.2030 H   0  0  0  0  0  0  0  0  0  0  0  0
  -25.3500  -15.2270   20.3040 N   0  0  0  0  0  0  0  0  0  0  0  0
  -24.5550  -15.8550   20.3610 H   0  0  0  0  0  0  0  0  0  0  0  0
  -26.1610  -15.6510   19.8770 H   0  0  0  0  0  0  0  0  0  0  0  0
  -28.5920  -24.0520   20.2260 C   0  0  1  0  0  0  0  0  0  0  0  0
  -27.3830  -23.5070   20.0830 F   0  0  0  0  0  0  0  0  0  0  0  0
  -28.7780  -24.3010   21.5230 F   0  0  0  0  0  0  0  0  0  0  0  0
  -28.5940  -25.4250   19.4310 C   0  0  0  0  0  2  0  0  0  0  0  0
  -28.4080  -26.6670   20.1740 O   0  0  0  0  0  0  0  0  0  0  0  0
  -24.5900  -31.8850   23.2480 C   0  0  0  0  0  0  0  0  0  0  0  0
  -27.2240  -27.3980   20.1460 C   0  0  0  0  0  0  0  0  0  0  0  0
  -23.3780  -30.4830   21.6120 C   0  0  0  0  0  3  0  0  0  0  0  0
  -24.8270  -28.9390   20.1800 C   0  0  0  0  0  0  0  0  0  0  0  0
  -25.9070  -30.8290   21.4070 C   0  0  0  0  0  2  0  0  0  0  0  0
  -25.9910  -29.4540   20.7600 C   0  0  0  0  0  0  0  0  0  0  0  0
  -27.1870  -28.6900   20.7400 C   0  0  0  0  0  3  0  0  0  0  0  0
  -26.0290  -26.9020   19.5780 C   0  0  0  0  0  3  0  0  0  0  0  0
  -24.8450  -27.6640   19.5890 C   0  0  0  0  0  3  0  0  0  0  0  0
  -23.5820  -29.8000   20.2330 C   0  0  0  0  0  2  0  0  0  0  0  0
  -24.6420  -31.0810   22.1460 N   0  0  0  0  0  0  0  0  0  0  0  0
  -23.5100  -32.1570   23.7930 O   0  0  0  0  0  0  0  0  0  0  0  0
  -22.7300  -29.4620   22.5760 C   0  0  0  0  0  0  0  0  0  0  0  0
  -21.4050  -29.2750   22.4510 N   0  0  0  0  0  0  0  0  0  0  0  0
  -23.4160  -28.8420   23.3930 O   0  0  0  0  0  0  0  0  0  0  0  0
  -20.9120  -29.8270   21.7640 H   0  0  0  0  0  0  0  0  0  0  0  0
  -18.0390  -28.0630   22.9580 C   0  0  0  0  0  0  0  0  0  0  0  0
  -20.5950  -28.3340   23.2250 C   0  0  0  0  0  3  0  0  0  0  0  0
  -20.7040  -26.9030   22.6500 C   0  0  0  0  0  2  0  0  0  0  0  0
  -19.6020  -26.5730   21.6390 C   0  0  0  0  0  2  0  0  0  0  0  0
  -18.2200  -26.7120   22.2850 C   0  0  0  0  0  2  0  0  0  0  0  0
  -19.1540  -28.8300   23.3850 C   0  0  0  0  0  0  0  0  0  0  0  0
  -18.9320  -30.0940   23.9740 C   0  0  0  0  0  3  0  0  0  0  0  0
  -17.6250  -30.5900   24.1420 C   0  0  0  0  0  3  0  0  0  0  0  0
  -16.5240  -29.8190   23.7320 C   0  0  0  0  0  3  0  0  0  0  0  0
  -16.7310  -28.5580   23.1460 C   0  0  0  0  0  3  0  0  0  0  0  0
  -25.8780  -32.5190   23.8610 C   0  0  0  0  0  3  0  0  0  0  0  0
  -26.3960  -31.7550   25.1410 C   0  0  1  0  0  0  0  0  0  0  0  0
  -25.3040  -31.5320   26.2130 C   0  0  0  0  0  1  0  0  0  0  0  0
  -26.9780  -30.3740   24.7620 C   0  0  0  0  0  1  0  0  0  0  0  0
  -27.5470  -32.5520   25.7980 C   0  0  0  0  0  1  0  0  0  0  0  0
  -25.5730  -33.9200   24.1820 N   0  0  0  0  0  0  0  0  0  0  0  0
  -25.9080  -34.9660   23.4160 C   0  0  0  0  0  0  0  0  0  0  0  0
  -26.5780  -34.8550   22.3860 O   0  0  0  0  0  0  0  0  0  0  0  0
  -24.9810  -34.0800   24.9840 H   0  0  0  0  0  0  0  0  0  0  0  0
  -24.1910  -36.7660   23.0380 C   0  0  0  0  0  1  0  0  0  0  0  0
  -25.4210  -36.3580   23.8640 C   0  0  0  0  0  3  0  0  0  0  0  0
  -27.5500  -37.2370   24.7130 C   0  0  0  0  0  1  0  0  0  0  0  0
  -26.4580  -37.4070   23.7590 N   0  0  0  0  0  0  0  0  0  0  0  0
  -26.0530  -38.3290   23.9010 H   0  0  0  0  0  0  0  0  0  0  0  0
  2  1  1  0
  2  4  1  0
  2 50  1  0
  3 15  1  0
  4  3  1  0
  4  6  1  0
  5  3  2  0
  7 19  1  0
  8 13  1  0
  9 10  1  0
  9  8  1  0
 11 10  1  0
 11 25  1  0
 11 12  1  0
 13  7  1  0
 13 12  1  0
 14  7  2  0
 15 17  2  0
 16 17  1  0
 16 19  1  0
 18 20  1  0
 18 15  1  0
 19 21  1  0
 20 16  1  0
 22 23  2  0
 23 42  1  0
 24 23  1  0
 24 27  1  0
 25 22  1  0
 25 26  1  0
 26 24  2  0
 27 28  1  0
 28 29  2  0
 30 33  1  0
 30 29  1  0
 31 30  2  0
 32 31  1  0
 32 27  2  0
 33 34  1  0
 34 35  1  0
 35 36  2  0
 37 36  1  0
 37 41  1  0
 38 37  2  0
 39 34  2  0
 39 38  1  0
 40 39  1  0
 42 43  1  0
 43 46  1  0
 43 45  1  0
 44 42  2  0
 47 48  1  0
 47 22  1  0
 49 47  1  0
 50 52  1  1
 51 50  1  0
 53 54  1  0
 53 50  1  0
 55 66  2  0
 56 54  1  0
 56 61  1  0
 57 65  1  0
 57 67  1  0
 58 64  1  0
 58 60  1  0
 59 65  1  0
 60 59  1  0
 61 60  2  0
 62 63  1  0
 62 56  2  0
 63 58  2  0
 64 57  1  0
 65 55  1  0
 67 69  2  0
 68 67  1  0
 70 68  1  0
 71 80  2  0
 71 76  1  0
 72 68  1  0
 72 76  1  0
 73 72  1  0
 74 75  1  0
 74 73  1  0
 75 71  1  0
 76 77  2  0
 77 78  1  0
 79 78  2  0
 80 79  1  0
 81 55  1  0
 81 86  1  0
 81 82  1  0
 82 85  1  1
 82 83  1  0
 84 82  1  0
 86 89  1  0
 87 91  1  0
 87 86  1  0
 88 87  2  0
 91 90  1  0
 93 91  1  0
 93 94  1  0
 93 92  1  0
M  ISO  4   7 100  19 100  53 101  54 101
M  END
>  <TORSDO>  (42) 
F 19

>  <SCORE>  (42) 
-14.523

>  <name>  (42) 
41

>  <ligand_id>  (42) 
41

>  <original_smiles>  (42) 
[H]c1c([H])c([H])c2c(c1[H])C([H])([H])C([H])([H])C([H])([H])C2([H])N([H])C(=O)C1([H])N(C(=O)C([H])(N([H])C(=O)C([H])(N([H])C([H])([H])[H])C([H])([H])[H])C(C([H])([H])[H])(C([H])([H])[H])C([H])([H])[H])C([H])([H])c2c([H])c(OC([H])([H])C(F)(F)C([H])(N([H])C(=O)c3nsc(N([H])C(=O)N4C([H])([H])C([H])([H])C([H])([H])C([H])(n5nc(-c6c([H])c([H])c(Oc7c([H])c([H])c(F)c([H])c7F)c([H])c6[H])c(C(=O)N([H])[H])c5N([H])[H])C4([H])[H])n3)C([H])([H])[H])c([H])c([H])c2C1([H])[H]

>  <smiles>  (42) 
[H]c1c([H])c([H])c2c(c1[H])C([H])([H])C([H])([H])C([H])([H])C2([H])N([H])C(=O)C1([H])N(C(=O)C([H])(N([H])C(=O)C([H])(N([H])C([H])([H])[H])C([H])([H])[H])C(C([H])([H])[H])(C([H])([H])[H])C([H])([H])[H])C([H])([H])c2c([H])c(OC([H])([H])C(F)(F)C([H])(N([H])C(=O)c3nsc(N([H])C(=O)N4C([H])([H])C([H])([H])C([H])([H])C([H])(n5nc(-c6c([H])c([H])c(Oc7c([H])c([H])c(F)c([H])c7F)c([H])c6[H])c(C(=O)N([H])[H])c5N([H])[H])C4([H])[H])n3)C([H])([H])[H])c([H])c([H])c2C1([H])[H]

$$$$
42:0:0
     RDKit          3D

 94102  0  0  1  0  0  0  0  0999 V2000
  -29.7220  -18.6610   19.8640 C   0  0  0  0  0  0  0  0  0  0  0  0
  -28.3650  -18.6570   20.1510 C   0  0  0  0  0  0  0  0  0  0  0  0
  -29.2550  -21.0400   19.9780 C   0  0  0  0  0  0  0  0  0  0  0  0
  -30.1750  -20.0450   19.7700 N   0  0  0  0  0  0  0  0  0  0  0  0
  -29.4600  -22.4860   19.9430 N   0  0  0  0  0  0  0  0  0  0  0  0
  -27.6880  -20.2900   20.2920 S   0  0  0  0  0  0  0  0  0  0  0  0
  -30.4080  -22.6860   19.6360 H   0  0  0  0  0  0  0  0  0  0  0  0
  -30.9950  -14.9120   20.0830 C   0  0  0  0  0  0  0  0  0  0  0  0
  -30.7910  -12.5190   19.3940 C   0  0  0  0  0  2  0  0  0  0  0  0
  -29.8840  -12.4210   18.1480 C   0  0  0  0  0  2  0  0  0  0  0  0
  -28.4090  -12.2960   18.5690 C   0  0  0  0  0  2  0  0  0  0  0  0
  -28.0050  -13.3330   19.6520 C   0  0  0  0  0  3  0  0  0  0  0  0
  -29.0420  -13.4220   20.7930 C   0  0  0  0  0  2  0  0  0  0  0  0
  -30.3440  -13.6980   20.1760 N   0  0  0  0  0  0  0  0  0  0  0  0
  -32.1980  -14.8940   19.8070 O   0  0  0  0  0  0  0  0  0  0  0  0
  -30.6720  -17.3980   19.7670 C   0  0  0  0  0  0  0  0  0  0  0  0
  -30.2600  -16.1020   20.1000 N   0  0  0  0  0  0  0  0  0  0  0  0
  -31.8160  -17.6120   19.3460 O   0  0  0  0  0  0  0  0  0  0  0  0
  -29.2880  -16.0330   20.3520 H   0  0  0  0  0  0  0  0  0  0  0  0
  -25.6480  -14.0120   20.3960 C   0  0  0  0  0  0  0  0  0  0  0  0
  -24.5540  -13.2790   20.7650 C   0  0  0  0  0  0  0  0  0  0  0  0
  -24.9650  -11.9110   20.7330 C   0  0  0  0  0  0  0  0  0  0  0  0
  -26.6570  -13.0940   20.1550 N   0  0  0  0  0  0  0  0  0  0  0  0
  -26.2540  -11.8240   20.4220 N   0  0  0  0  0  0  0  0  0  0  0  0
  -24.1900  -10.6780   20.9240 C   0  0  0  0  0  0  0  0  0  0  0  0
  -24.5890   -9.6890   21.8510 C   0  0  0  0  0  3  0  0  0  0  0  0
  -23.8140   -8.5220   22.0300 C   0  0  0  0  0  3  0  0  0  0  0  0
  -22.6260   -8.3380   21.2850 C   0  0  0  0  0  0  0  0  0  0  0  0
  -22.2460   -9.3150   20.3480 C   0  0  0  0  0  3  0  0  0  0  0  0
  -23.0200  -10.4720   20.1650 C   0  0  0  0  0  3  0  0  0  0  0  0
  -21.8250   -7.2250   21.3740 O   0  0  0  0  0  0  0  0  0  0  0  0
  -21.7630   -6.4730   22.5190 C   0  0  0  0  0  0  0  0  0  0  0  0
  -21.3590   -7.0270   23.7540 C   0  0  0  0  0  3  0  0  0  0  0  0
  -21.2430   -6.2020   24.8910 C   0  0  0  0  0  3  0  0  0  0  0  0
  -21.5200   -4.8260   24.7950 C   0  0  0  0  0  0  0  0  0  0  0  0
  -21.9160   -4.2710   23.5650 C   0  0  0  0  0  3  0  0  0  0  0  0
  -22.0340   -5.0920   22.4300 C   0  0  0  0  0  0  0  0  0  0  0  0
  -22.3960   -4.5500   21.2420 F   0  0  0  0  0  0  0  0  0  0  0  0
  -21.4010   -4.0320   25.8840 F   0  0  0  0  0  0  0  0  0  0  0  0
  -23.1790  -13.8120   21.0420 C   0  0  0  0  0  0  0  0  0  0  0  0
  -22.4320  -13.1510   21.9200 N   0  0  0  0  0  0  0  0  0  0  0  0
  -22.7770  -14.8490   20.5170 O   0  0  0  0  0  0  0  0  0  0  0  0
  -22.7700  -12.3120   22.3660 H   0  0  0  0  0  0  0  0  0  0  0  0
  -21.5080  -13.4900   22.1480 H   0  0  0  0  0  0  0  0  0  0  0  0
  -25.8630  -15.3760   20.2240 N   0  0  0  0  0  0  0  0  0  0  0  0
  -25.1340  -16.0570   20.3970 H   0  0  0  0  0  0  0  0  0  0  0  0
  -26.7620  -15.8080   20.0450 H   0  0  0  0  0  0  0  0  0  0  0  0
  -27.4990  -17.5830   20.3730 N   0  0  0  0  0  0  0  0  0  0  0  0
  -27.7950  -16.8410   21.0000 H   0  0  0  0  0  0  0  0  0  0  0  0
  -26.5350  -17.8250   20.5860 H   0  0  0  0  0  0  0  0  0  0  0  0
  -27.2490  -23.6370   20.3840 C   0  0  0  0  0  1  0  0  0  0  0  0
  -28.7760  -23.7800   20.4020 C   0  0  0  0  0  3  0  0  0  0  0  0
  -29.1680  -25.1940   19.6850 C   0  0  0  0  0  2  0  0  0  0  0  0
  -28.9460  -26.5530   20.3100 O   0  0  0  0  0  0  0  0  0  0  0  0
  -24.7530  -31.7060   23.2180 C   0  0  0  0  0  0  0  0  0  0  0  0
  -27.7830  -27.3500   20.1850 C   0  0  0  0  0  0  0  0  0  0  0  0
  -23.7290  -30.3050   21.4620 C   0  0  0  0  0  3  0  0  0  0  0  0
  -25.3440  -28.8750   20.0740 C   0  0  0  0  0  0  0  0  0  0  0  0
  -26.2570  -30.7480   21.4480 C   0  0  0  0  0  2  0  0  0  0  0  0
  -26.4470  -29.3940   20.7600 C   0  0  0  0  0  0  0  0  0  0  0  0
  -27.6660  -28.6440   20.8040 C   0  0  0  0  0  3  0  0  0  0  0  0
  -26.6510  -26.8940   19.4760 C   0  0  0  0  0  3  0  0  0  0  0  0
  -25.4500  -27.6350   19.4230 C   0  0  0  0  0  3  0  0  0  0  0  0
  -24.0620  -29.6880   20.0760 C   0  0  0  0  0  2  0  0  0  0  0  0
  -24.9280  -30.9390   22.1000 N   0  0  0  0  0  0  0  0  0  0  0  0
  -23.6260  -31.9080   23.6930 O   0  0  0  0  0  0  0  0  0  0  0  0
  -23.0620  -29.2260   22.3480 C   0  0  0  0  0  0  0  0  0  0  0  0
  -21.7430  -29.0310   22.1800 N   0  0  0  0  0  0  0  0  0  0  0  0
  -23.7330  -28.5690   23.1480 O   0  0  0  0  0  0  0  0  0  0  0  0
  -21.2600  -29.6150   21.5130 H   0  0  0  0  0  0  0  0  0  0  0  0
  -18.3690  -27.7880   22.5900 C   0  0  0  0  0  0  0  0  0  0  0  0
  -20.9280  -28.0330   22.8750 C   0  0  0  0  0  3  0  0  0  0  0  0
  -21.0310  -26.6510   22.1870 C   0  0  0  0  0  2  0  0  0  0  0  0
  -19.9280  -26.4060   21.1530 C   0  0  0  0  0  2  0  0  0  0  0  0
  -18.5470  -26.4970   21.8090 C   0  0  0  0  0  2  0  0  0  0  0  0
  -19.4860  -28.5170   23.0770 C   0  0  0  0  0  0  0  0  0  0  0  0
  -19.2650  -29.7280   23.7680 C   0  0  0  0  0  3  0  0  0  0  0  0
  -17.9600  -30.2100   23.9760 C   0  0  0  0  0  3  0  0  0  0  0  0
  -16.8560  -29.4770   23.5060 C   0  0  0  0  0  3  0  0  0  0  0  0
  -17.0620  -28.2680   22.8180 C   0  0  0  0  0  3  0  0  0  0  0  0
  -25.9590  -32.3840   23.9400 C   0  0  0  0  0  3  0  0  0  0  0  0
  -26.3920  -31.6370   25.2610 C   0  0  1  0  0  0  0  0  0  0  0  0
  -25.2230  -31.3750   26.2400 C   0  0  0  0  0  1  0  0  0  0  0  0
  -27.0440  -30.2740   24.9320 C   0  0  0  0  0  1  0  0  0  0  0  0
  -27.4620  -32.4690   26.0070 C   0  0  0  0  0  1  0  0  0  0  0  0
  -25.5770  -33.7730   24.2350 N   0  0  0  0  0  0  0  0  0  0  0  0
  -25.9360  -34.8350   23.5020 C   0  0  0  0  0  0  0  0  0  0  0  0
  -26.6900  -34.7510   22.5290 O   0  0  0  0  0  0  0  0  0  0  0  0
  -24.9150  -33.9090   24.9850 H   0  0  0  0  0  0  0  0  0  0  0  0
  -24.1780  -36.5660   23.0120 C   0  0  0  0  0  1  0  0  0  0  0  0
  -25.3710  -36.2090   23.9130 C   0  0  0  0  0  3  0  0  0  0  0  0
  -27.4030  -37.1770   24.8950 C   0  0  0  0  0  1  0  0  0  0  0  0
  -26.3720  -37.2960   23.8660 N   0  0  0  0  0  0  0  0  0  0  0  0
  -25.9240  -38.2030   23.9680 H   0  0  0  0  0  0  0  0  0  0  0  0
  1  2  2  0
  2  6  1  0
  2 48  1  0
  3  6  1  0
  4  1  1  0
  4  3  2  0
  5  3  1  0
  5 52  1  0
  7  5  1  0
  8 17  1  0
  8 14  1  0
  9 14  1  0
 10 11  1  0
 10  9  1  0
 12 11  1  0
 12 23  1  0
 12 13  1  0
 14 13  1  0
 15  8  2  0
 16  1  1  0
 16 17  1  0
 17 19  1  0
 18 16  2  0
 20 21  2  0
 21 40  1  0
 22 21  1  0
 22 25  1  0
 23 20  1  0
 23 24  1  0
 24 22  2  0
 25 26  1  0
 26 27  2  0
 28 31  1  0
 28 27  1  0
 29 28  2  0
 30 29  1  0
 30 25  2  0
 31 32  1  0
 32 33  1  0
 33 34  2  0
 35 34  1  0
 35 39  1  0
 36 35  2  0
 37 32  2  0
 37 36  1  0
 38 37  1  0
 40 41  1  0
 41 44  1  0
 41 43  1  0
 42 40  2  0
 45 20  1  0
 45 46  1  0
 47 45  1  0
 48 50  1  0
 48 49  1  0
 52 51  1  0
 53 54  1  0
 53 52  1  0
 55 66  2  0
 56 54  1  0
 56 61  1  0
 57 65  1  0
 57 67  1  0
 58 64  1  0
 58 60  1  0
 59 65  1  0
 60 61  2  0
 60 59  1  0
 62 56  2  0
 63 62  1  0
 63 58  2  0
 64 57  1  0
 65 55  1  0
 67 69  2  0
 68 67  1  0
 70 68  1  0
 71 80  2  0
 71 76  1  0
 72 68  1  0
 72 76  1  0
 73 72  1  0
 74 75  1  0
 74 73  1  0
 75 71  1  0
 76 77  2  0
 77 78  1  0
 79 78  2  0
 80 79  1  0
 81 55  1  0
 81 86  1  0
 81 82  1  0
 82 85  1  1
 82 83  1  0
 84 82  1  0
 86 89  1  0
 87 91  1  0
 87 86  1  0
 88 87  2  0
 91 90  1  0
 93 91  1  0
 93 94  1  0
 93 92  1  0
M  ISO  4   8 100  17 100  53 101  54 101
M  END
>  <TORSDO>  (43) 
F 19

>  <SCORE>  (43) 
-13.747

>  <name>  (43) 
42

>  <ligand_id>  (43) 
42

>  <original_smiles>  (43) 
[H]c1c([H])c([H])c2c(c1[H])C([H])([H])C([H])([H])C([H])([H])C2([H])N([H])C(=O)C1([H])N(C(=O)C([H])(N([H])C(=O)C([H])(N([H])C([H])([H])[H])C([H])([H])[H])C(C([H])([H])[H])(C([H])([H])[H])C([H])([H])[H])C([H])([H])c2c([H])c(OC([H])([H])C([H])(N([H])c3nc(C(=O)N([H])C(=O)N4C([H])([H])C([H])([H])C([H])([H])C([H])(n5nc(-c6c([H])c([H])c(Oc7c([H])c([H])c(F)c([H])c7F)c([H])c6[H])c(C(=O)N([H])[H])c5N([H])[H])C4([H])[H])c(N([H])[H])s3)C([H])([H])[H])c([H])c([H])c2C1([H])[H]

>  <smiles>  (43) 
[H]c1c([H])c([H])c2c(c1[H])C([H])([H])C([H])([H])C([H])([H])C2([H])N([H])C(=O)C1([H])N(C(=O)C([H])(N([H])C(=O)C([H])(N([H])C([H])([H])[H])C([H])([H])[H])C(C([H])([H])[H])(C([H])([H])[H])C([H])([H])[H])C([H])([H])c2c([H])c(OC([H])([H])C([H])(N([H])c3nc(C(=O)N([H])C(=O)N4C([H])([H])C([H])([H])C([H])([H])C([H])(n5nc(-c6c([H])c([H])c(Oc7c([H])c([H])c(F)c([H])c7F)c([H])c6[H])c(C(=O)N([H])[H])c5N([H])[H])C4([H])[H])c(N([H])[H])s3)C([H])([H])[H])c([H])c([H])c2C1([H])[H]

$$$$
43:0:0
     RDKit          3D

 86 94  0  0  1  0  0  0  0  0999 V2000
  -30.7400  -18.8420   19.4120 C   0  0  0  0  0  3  0  0  0  0  0  0
  -29.7310  -18.3070   20.1830 C   0  0  0  0  0  0  0  0  0  0  0  0
  -29.2570  -20.9500   20.1650 C   0  0  0  0  0  0  0  0  0  0  0  0
  -28.9290  -19.5810   20.5830 N   0  0  0  0  0  0  0  0  0  0  0  0
  -30.7000  -20.6340   19.1640 S   0  0  0  0  0  0  0  0  0  0  0  0
  -30.3690  -15.4040   20.2670 C   0  0  0  0  0  0  0  0  0  0  0  0
  -30.3940  -12.9260   19.4390 C   0  0  0  0  0  2  0  0  0  0  0  0
  -29.4890  -12.6620   18.2090 C   0  0  0  0  0  2  0  0  0  0  0  0
  -28.0500  -12.3530   18.6510 C   0  0  0  0  0  2  0  0  0  0  0  0
  -27.5640  -13.3470   19.7360 C   0  0  0  0  0  3  0  0  0  0  0  0
  -28.5990  -13.5440   20.8670 C   0  0  0  0  0  2  0  0  0  0  0  0
  -29.8220  -14.0770   20.2420 N   0  0  0  0  0  0  0  0  0  0  0  0
  -31.5860  -15.3920   20.0240 O   0  0  0  0  0  0  0  0  0  0  0  0
  -29.5920  -16.6860   20.4100 N   0  0  0  0  0  0  0  0  0  0  0  0
  -28.6530  -16.4510   20.6920 H   0  0  0  0  0  0  0  0  0  0  0  0
  -25.1820  -13.8960   20.4600 C   0  0  0  0  0  0  0  0  0  0  0  0
  -24.1220  -13.1150   20.8270 C   0  0  0  0  0  0  0  0  0  0  0  0
  -24.5990  -11.7670   20.8120 C   0  0  0  0  0  0  0  0  0  0  0  0
  -26.2340  -13.0260   20.2380 N   0  0  0  0  0  0  0  0  0  0  0  0
  -25.8960  -11.7400   20.5200 N   0  0  0  0  0  0  0  0  0  0  0  0
  -23.8770  -10.5020   21.0020 C   0  0  0  0  0  0  0  0  0  0  0  0
  -24.2950   -9.5450   21.9520 C   0  0  0  0  0  3  0  0  0  0  0  0
  -23.5680   -8.3480   22.1310 C   0  0  0  0  0  3  0  0  0  0  0  0
  -22.4080   -8.0980   21.3590 C   0  0  0  0  0  0  0  0  0  0  0  0
  -22.0100   -9.0430   20.3970 C   0  0  0  0  0  3  0  0  0  0  0  0
  -22.7390  -10.2320   20.2160 C   0  0  0  0  0  3  0  0  0  0  0  0
  -21.6540   -6.9530   21.4450 O   0  0  0  0  0  0  0  0  0  0  0  0
  -21.5790   -6.2270   22.6060 C   0  0  0  0  0  0  0  0  0  0  0  0
  -21.1100   -6.7960   23.8110 C   0  0  0  0  0  3  0  0  0  0  0  0
  -20.9820   -5.9960   24.9640 C   0  0  0  0  0  3  0  0  0  0  0  0
  -21.3140   -4.6280   24.9130 C   0  0  0  0  0  0  0  0  0  0  0  0
  -21.7770   -4.0600   23.7130 C   0  0  0  0  0  3  0  0  0  0  0  0
  -21.9050   -4.8570   22.5620 C   0  0  0  0  0  0  0  0  0  0  0  0
  -22.3320   -4.3000   21.4030 F   0  0  0  0  0  0  0  0  0  0  0  0
  -21.1850   -3.8560   26.0180 F   0  0  0  0  0  0  0  0  0  0  0  0
  -22.7200  -13.5840   21.0740 C   0  0  0  0  0  0  0  0  0  0  0  0
  -21.9840  -12.8890   21.9340 N   0  0  0  0  0  0  0  0  0  0  0  0
  -22.2850  -14.6050   20.5420 O   0  0  0  0  0  0  0  0  0  0  0  0
  -22.3480  -12.0630   22.3840 H   0  0  0  0  0  0  0  0  0  0  0  0
  -21.0450  -13.1900   22.1500 H   0  0  0  0  0  0  0  0  0  0  0  0
  -25.3280  -15.2660   20.2670 N   0  0  0  0  0  0  0  0  0  0  0  0
  -24.5360  -15.8980   20.3360 H   0  0  0  0  0  0  0  0  0  0  0  0
  -26.1550  -15.7100   19.8890 H   0  0  0  0  0  0  0  0  0  0  0  0
  -28.8650  -22.6220   20.6500 C   0  0  0  0  0  2  0  0  0  0  0  0
  -28.1870  -24.1790   19.9410 C   0  0  0  0  0  2  0  0  0  0  0  0
  -28.2160  -25.8160   20.3360 O   0  0  0  0  0  0  0  0  0  0  0  0
  -24.6060  -31.8380   23.2210 C   0  0  0  0  0  0  0  0  0  0  0  0
  -27.1980  -26.9230   20.2280 C   0  0  0  0  0  0  0  0  0  0  0  0
  -23.4220  -30.4340   21.5800 C   0  0  0  0  0  3  0  0  0  0  0  0
  -24.8870  -28.8230   20.1670 C   0  0  0  0  0  0  0  0  0  0  0  0
  -25.9950  -30.6430   21.4500 C   0  0  0  0  0  2  0  0  0  0  0  0
  -26.0720  -29.2270   20.7940 C   0  0  0  0  0  0  0  0  0  0  0  0
  -27.2170  -28.3010   20.7950 C   0  0  0  0  0  3  0  0  0  0  0  0
  -25.9820  -26.6830   19.5490 C   0  0  0  0  0  3  0  0  0  0  0  0
  -24.8710  -27.5720   19.5260 C   0  0  0  0  0  3  0  0  0  0  0  0
  -23.6630  -29.7440   20.2070 C   0  0  0  0  0  2  0  0  0  0  0  0
  -24.6950  -31.0010   22.1350 N   0  0  0  0  0  0  0  0  0  0  0  0
  -23.5130  -32.1290   23.7380 O   0  0  0  0  0  0  0  0  0  0  0  0
  -22.7210  -29.4440   22.5480 C   0  0  0  0  0  0  0  0  0  0  0  0
  -21.3880  -29.2880   22.4260 N   0  0  0  0  0  0  0  0  0  0  0  0
  -23.3840  -28.8130   23.3780 O   0  0  0  0  0  0  0  0  0  0  0  0
  -20.9030  -29.8440   21.7370 H   0  0  0  0  0  0  0  0  0  0  0  0
  -18.0040  -28.0860   22.9320 C   0  0  0  0  0  0  0  0  0  0  0  0
  -20.5640  -28.3530   23.1980 C   0  0  0  0  0  3  0  0  0  0  0  0
  -20.6670  -26.9160   22.6300 C   0  0  0  0  0  2  0  0  0  0  0  0
  -19.5650  -26.5890   21.6160 C   0  0  0  0  0  2  0  0  0  0  0  0
  -18.1800  -26.7390   22.2520 C   0  0  0  0  0  2  0  0  0  0  0  0
  -19.1220  -28.8500   23.3630 C   0  0  0  0  0  0  0  0  0  0  0  0
  -18.8980  -30.1080   23.9640 C   0  0  0  0  0  3  0  0  0  0  0  0
  -17.5920  -30.6010   24.1400 C   0  0  0  0  0  3  0  0  0  0  0  0
  -16.4910  -29.8350   23.7220 C   0  0  0  0  0  3  0  0  0  0  0  0
  -16.6970  -28.5800   23.1240 C   0  0  0  0  0  3  0  0  0  0  0  0
  -25.8710  -32.4880   23.8590 C   0  0  0  0  0  3  0  0  0  0  0  0
  -25.5510  -33.8910   24.1760 N   0  0  0  0  0  0  0  0  0  0  0  0
  -25.8910  -34.9470   23.4240 C   0  0  0  0  0  0  0  0  0  0  0  0
  -26.5690  -34.8460   22.4000 O   0  0  0  0  0  0  0  0  0  0  0  0
  -24.9520  -34.0450   24.9730 H   0  0  0  0  0  0  0  0  0  0  0  0
  -24.1700  -36.7520   23.0710 C   0  0  0  0  0  1  0  0  0  0  0  0
  -25.4080  -36.3400   23.8840 C   0  0  0  0  0  3  0  0  0  0  0  0
  -27.5370  -37.2260   24.7280 C   0  0  0  0  0  1  0  0  0  0  0  0
  -26.4430  -37.3910   23.7730 N   0  0  0  0  0  0  0  0  0  0  0  0
  -26.0380  -38.3110   23.9160 H   0  0  0  0  0  0  0  0  0  0  0  0
  -26.3660  -31.7390   25.1570 C   0  0  1  0  0  0  0  0  0  0  0  0
  -25.2540  -31.5250   26.2110 C   0  0  0  0  0  1  0  0  0  0  0  0
  -26.9510  -30.3520   24.8100 C   0  0  0  0  0  1  0  0  0  0  0  0
  -27.5080  -32.5420   25.8250 C   0  0  0  0  0  1  0  0  0  0  0  0
  1  2  2  0
  2 14  1  0
  2  4  1  0
  3  4  2  0
  3 44  1  0
  5  1  1  0
  5  3  1  0
  6 14  1  0
  7 12  1  0
  8  9  1  0
  8  7  1  0
 10  9  1  0
 10 19  1  0
 10 11  1  0
 12  6  1  0
 12 11  1  0
 13  6  2  0
 14 15  1  0
 16 17  2  0
 17 36  1  0
 18 17  1  0
 18 21  1  0
 19 16  1  0
 19 20  1  0
 20 18  2  0
 21 22  1  0
 22 23  2  0
 24 27  1  0
 24 23  1  0
 25 24  2  0
 26 25  1  0
 26 21  2  0
 27 28  1  0
 28 29  1  0
 29 30  2  0
 31 30  1  0
 31 35  1  0
 32 31  2  0
 33 28  2  0
 33 32  1  0
 34 33  1  0
 36 37  1  0
 37 40  1  0
 37 39  1  0
 38 36  2  0
 41 42  1  0
 41 16  1  0
 43 41  1  0
 45 46  1  0
 45 44  1  0
 47 58  2  0
 48 46  1  0
 48 53  1  0
 49 57  1  0
 49 59  1  0
 50 56  1  0
 50 52  1  0
 51 57  1  0
 52 53  2  0
 52 51  1  0
 54 48  2  0
 55 54  1  0
 55 50  2  0
 56 49  1  0
 57 47  1  0
 59 61  2  0
 60 59  1  0
 62 60  1  0
 63 72  2  0
 63 68  1  0
 64 60  1  0
 64 68  1  0
 65 64  1  0
 66 67  1  0
 66 65  1  0
 67 63  1  0
 68 69  2  0
 69 70  1  0
 71 70  2  0
 72 71  1  0
 73 47  1  0
 73 74  1  0
 73 83  1  0
 74 77  1  0
 75 79  1  0
 75 74  1  0
 76 75  2  0
 79 78  1  0
 81 79  1  0
 81 82  1  0
 81 80  1  0
 83 86  1  1
 83 84  1  0
 85 83  1  0
M  ISO  4   6 100  14 100  45 101  46 101
M  END
>  <TORSDO>  (44) 
F 18

>  <SCORE>  (44) 
-15.889

>  <name>  (44) 
43

>  <ligand_id>  (44) 
43

>  <original_smiles>  (44) 
[H]c1sc(C([H])([H])C([H])([H])Oc2c([H])c([H])c3c(c2[H])C([H])([H])N(C(=O)C([H])(N([H])C(=O)C([H])(N([H])C([H])([H])[H])C([H])([H])[H])C(C([H])([H])[H])(C([H])([H])[H])C([H])([H])[H])C([H])(C(=O)N([H])C2([H])c4c([H])c([H])c([H])c([H])c4C([H])([H])C([H])([H])C2([H])[H])C3([H])[H])nc1N([H])C(=O)N1C([H])([H])C([H])([H])C([H])([H])C([H])(n2nc(-c3c([H])c([H])c(Oc4c([H])c([H])c(F)c([H])c4F)c([H])c3[H])c(C(=O)N([H])[H])c2N([H])[H])C1([H])[H]

>  <smiles>  (44) 
[H]c1sc(C([H])([H])C([H])([H])Oc2c([H])c([H])c3c(c2[H])C([H])([H])N(C(=O)C([H])(N([H])C(=O)C([H])(N([H])C([H])([H])[H])C([H])([H])[H])C(C([H])([H])[H])(C([H])([H])[H])C([H])([H])[H])C([H])(C(=O)N([H])C2([H])c4c([H])c([H])c([H])c([H])c4C([H])([H])C([H])([H])C2([H])[H])C3([H])[H])nc1N([H])C(=O)N1C([H])([H])C([H])([H])C([H])([H])C([H])(n2nc(-c3c([H])c([H])c(Oc4c([H])c([H])c(F)c([H])c4F)c([H])c3[H])c(C(=O)N([H])[H])c2N([H])[H])C1([H])[H]

$$$$
44:0:0
     RDKit          3D

 94102  0  0  1  0  0  0  0  0999 V2000
  -28.3410  -23.7910   20.2380 C   0  0  0  0  0  0  0  0  0  0  0  0
  -29.0440  -22.7010   20.7370 N   0  0  0  0  0  0  0  0  0  0  0  0
  -27.5960  -23.6890   19.2610 O   0  0  0  0  0  0  0  0  0  0  0  0
  -29.6910  -22.9750   21.4620 H   0  0  0  0  0  0  0  0  0  0  0  0
  -28.2030  -20.4430   19.8290 C   0  0  0  0  0  0  0  0  0  0  0  0
  -29.0720  -21.3150   20.4740 C   0  0  0  0  0  0  0  0  0  0  0  0
  -29.7160  -18.7500   20.4050 C   0  0  0  0  0  0  0  0  0  0  0  0
  -28.5600  -19.0540   19.7850 N   0  0  0  0  0  0  0  0  0  0  0  0
  -27.0800  -20.8510   19.2860 F   0  0  0  0  0  0  0  0  0  0  0  0
  -30.3870  -20.2780   21.0960 S   0  0  0  0  0  0  0  0  0  0  0  0
  -30.5360  -17.3960   20.3790 C   0  0  0  0  0  2  0  0  0  0  0  0
  -30.6240  -14.8270   20.2250 C   0  0  0  0  0  0  0  0  0  0  0  0
  -30.3630  -12.5680   19.1920 C   0  0  0  0  0  2  0  0  0  0  0  0
  -29.3920  -12.6490   17.9960 C   0  0  0  0  0  2  0  0  0  0  0  0
  -27.9390  -12.4720   18.4690 C   0  0  0  0  0  2  0  0  0  0  0  0
  -27.6010  -13.3530   19.7020 C   0  0  0  0  0  3  0  0  0  0  0  0
  -28.6890  -13.2690   20.7910 C   0  0  0  0  0  2  0  0  0  0  0  0
  -29.9640  -13.6200   20.1570 N   0  0  0  0  0  0  0  0  0  0  0  0
  -31.8070  -14.8870   19.8820 O   0  0  0  0  0  0  0  0  0  0  0  0
  -29.9200  -16.0010   20.4630 N   0  0  0  0  0  0  0  0  0  0  0  0
  -28.9370  -15.9390   20.6800 H   0  0  0  0  0  0  0  0  0  0  0  0
  -25.2380  -13.9360   20.5080 C   0  0  0  0  0  0  0  0  0  0  0  0
  -24.1820  -13.1580   20.8950 C   0  0  0  0  0  0  0  0  0  0  0  0
  -24.6410  -11.8060   20.8300 C   0  0  0  0  0  0  0  0  0  0  0  0
  -26.2730  -13.0570   20.2290 N   0  0  0  0  0  0  0  0  0  0  0  0
  -25.9230  -11.7700   20.4860 N   0  0  0  0  0  0  0  0  0  0  0  0
  -23.9170  -10.5420   21.0180 C   0  0  0  0  0  0  0  0  0  0  0  0
  -24.3580   -9.5690   21.9420 C   0  0  0  0  0  3  0  0  0  0  0  0
  -23.6320   -8.3700   22.1190 C   0  0  0  0  0  3  0  0  0  0  0  0
  -22.4540   -8.1370   21.3710 C   0  0  0  0  0  0  0  0  0  0  0  0
  -22.0330   -9.0990   20.4360 C   0  0  0  0  0  3  0  0  0  0  0  0
  -22.7590  -10.2890   20.2580 C   0  0  0  0  0  3  0  0  0  0  0  0
  -21.6990   -6.9910   21.4590 O   0  0  0  0  0  0  0  0  0  0  0  0
  -21.6400   -6.2550   22.6150 C   0  0  0  0  0  0  0  0  0  0  0  0
  -21.1670   -6.8060   23.8270 C   0  0  0  0  0  3  0  0  0  0  0  0
  -21.0590   -5.9940   24.9740 C   0  0  0  0  0  3  0  0  0  0  0  0
  -21.4110   -4.6330   24.9100 C   0  0  0  0  0  0  0  0  0  0  0  0
  -21.8760   -4.0820   23.7040 C   0  0  0  0  0  3  0  0  0  0  0  0
  -21.9880   -4.8900   22.5590 C   0  0  0  0  0  0  0  0  0  0  0  0
  -22.4170   -4.3480   21.3940 F   0  0  0  0  0  0  0  0  0  0  0  0
  -21.2990   -3.8510   26.0100 F   0  0  0  0  0  0  0  0  0  0  0  0
  -22.7930  -13.6320   21.2110 C   0  0  0  0  0  0  0  0  0  0  0  0
  -22.0860  -12.9200   22.0810 N   0  0  0  0  0  0  0  0  0  0  0  0
  -22.3480  -14.6700   20.7230 O   0  0  0  0  0  0  0  0  0  0  0  0
  -22.4610  -12.0810   22.4960 H   0  0  0  0  0  0  0  0  0  0  0  0
  -21.1560  -13.2210   22.3370 H   0  0  0  0  0  0  0  0  0  0  0  0
  -25.4000  -15.3090   20.3460 N   0  0  0  0  0  0  0  0  0  0  0  0
  -24.6340  -15.9590   20.4910 H   0  0  0  0  0  0  0  0  0  0  0  0
  -26.2320  -15.7540   19.9800 H   0  0  0  0  0  0  0  0  0  0  0  0
  -28.5330  -25.2350   20.9430 C   0  0  0  0  0  3  0  0  0  0  0  0
  -28.6120  -26.3880   23.2590 C   0  0  0  0  0  1  0  0  0  0  0  0
  -26.4320  -25.2950   22.5190 C   0  0  0  0  0  1  0  0  0  0  0  0
  -27.9680  -25.2840   22.3980 C   0  0  0  0  0  3  0  0  0  0  0  0
  -28.3940  -26.5110   20.1480 O   0  0  0  0  0  0  0  0  0  0  0  0
  -24.6050  -31.8890   23.2290 C   0  0  0  0  0  0  0  0  0  0  0  0
  -27.2610  -27.3460   20.1760 C   0  0  0  0  0  0  0  0  0  0  0  0
  -23.4190  -30.4920   21.5730 C   0  0  0  0  0  3  0  0  0  0  0  0
  -24.8860  -28.9520   20.1470 C   0  0  0  0  0  0  0  0  0  0  0  0
  -25.9560  -30.8290   21.4010 C   0  0  0  0  0  2  0  0  0  0  0  0
  -26.0500  -29.4500   20.7480 C   0  0  0  0  0  0  0  0  0  0  0  0
  -27.2420  -28.6640   20.7400 C   0  0  0  0  0  3  0  0  0  0  0  0
  -26.0810  -26.9030   19.5480 C   0  0  0  0  0  3  0  0  0  0  0  0
  -24.9060  -27.6860   19.5350 C   0  0  0  0  0  3  0  0  0  0  0  0
  -23.6440  -29.8220   20.1910 C   0  0  0  0  0  2  0  0  0  0  0  0
  -24.6790  -31.0890   22.1230 N   0  0  0  0  0  0  0  0  0  0  0  0
  -23.5180  -32.1540   23.7620 O   0  0  0  0  0  0  0  0  0  0  0  0
  -22.7590  -29.4670   22.5250 C   0  0  0  0  0  0  0  0  0  0  0  0
  -21.4340  -29.2860   22.3960 N   0  0  0  0  0  0  0  0  0  0  0  0
  -23.4390  -28.8360   23.3390 O   0  0  0  0  0  0  0  0  0  0  0  0
  -20.9440  -29.8460   21.7120 H   0  0  0  0  0  0  0  0  0  0  0  0
  -18.0560  -28.0950   22.9090 C   0  0  0  0  0  0  0  0  0  0  0  0
  -20.6180  -28.3390   23.1580 C   0  0  0  0  0  3  0  0  0  0  0  0
  -20.7090  -26.9180   22.5550 C   0  0  0  0  0  2  0  0  0  0  0  0
  -19.5950  -26.6190   21.5460 C   0  0  0  0  0  2  0  0  0  0  0  0
  -18.2210  -26.7570   22.2050 C   0  0  0  0  0  2  0  0  0  0  0  0
  -19.1820  -28.8440   23.3420 C   0  0  0  0  0  0  0  0  0  0  0  0
  -18.9740  -30.0960   23.9600 C   0  0  0  0  0  3  0  0  0  0  0  0
  -17.6740  -30.6000   24.1490 C   0  0  0  0  0  3  0  0  0  0  0  0
  -16.5610  -29.8470   23.7320 C   0  0  0  0  0  3  0  0  0  0  0  0
  -16.7550  -28.5960   23.1180 C   0  0  0  0  0  3  0  0  0  0  0  0
  -25.8800  -32.5270   23.8610 C   0  0  0  0  0  3  0  0  0  0  0  0
  -26.3830  -31.7620   25.1470 C   0  0  1  0  0  0  0  0  0  0  0  0
  -25.2770  -31.5270   26.2030 C   0  0  0  0  0  1  0  0  0  0  0  0
  -26.9750  -30.3830   24.7700 C   0  0  0  0  0  1  0  0  0  0  0  0
  -27.5240  -32.5620   25.8190 C   0  0  0  0  0  1  0  0  0  0  0  0
  -25.5650  -33.9270   24.1840 N   0  0  0  0  0  0  0  0  0  0  0  0
  -25.9010  -34.9790   23.4270 C   0  0  0  0  0  0  0  0  0  0  0  0
  -26.5820  -34.8740   22.4030 O   0  0  0  0  0  0  0  0  0  0  0  0
  -24.9620  -34.0820   24.9790 H   0  0  0  0  0  0  0  0  0  0  0  0
  -24.1830  -36.7750   23.0420 C   0  0  0  0  0  1  0  0  0  0  0  0
  -25.4080  -36.3680   23.8770 C   0  0  0  0  0  3  0  0  0  0  0  0
  -27.5230  -37.2540   24.7530 C   0  0  0  0  0  1  0  0  0  0  0  0
  -26.4440  -37.4210   23.7840 N   0  0  0  0  0  0  0  0  0  0  0  0
  -26.0360  -38.3420   23.9180 H   0  0  0  0  0  0  0  0  0  0  0  0
  1  2  1  0
  1 50  1  0
  2  4  1  0
  3  1  2  0
  5  6  2  0
  6  2  1  0
  6 10  1  0
  7 10  1  0
  8  5  1  0
  8  7  2  0
  9  5  1  0
 11  7  1  0
 11 20  1  0
 12 20  1  0
 13 18  1  0
 14 15  1  0
 14 13  1  0
 16 15  1  0
 16 25  1  0
 16 17  1  0
 18 12  1  0
 18 17  1  0
 19 12  2  0
 20 21  1  0
 22 23  2  0
 23 42  1  0
 24 23  1  0
 24 27  1  0
 25 26  1  0
 25 22  1  0
 26 24  2  0
 27 28  1  0
 28 29  2  0
 30 33  1  0
 30 29  1  0
 31 30  2  0
 32 31  1  0
 32 27  2  0
 33 34  1  0
 34 35  1  0
 35 36  2  0
 37 36  1  0
 37 41  1  0
 38 37  2  0
 39 34  2  0
 39 38  1  0
 40 39  1  0
 42 43  1  0
 43 46  1  0
 43 45  1  0
 44 42  2  0
 47 48  1  0
 47 22  1  0
 49 47  1  0
 50 54  1  0
 50 53  1  0
 53 52  1  0
 53 51  1  0
 54 56  1  0
 55 66  2  0
 56 61  1  0
 57 65  1  0
 57 67  1  0
 58 64  1  0
 58 60  1  0
 59 65  1  0
 60 59  1  0
 61 60  2  0
 62 56  2  0
 63 62  1  0
 63 58  2  0
 64 57  1  0
 65 55  1  0
 67 69  2  0
 68 67  1  0
 70 68  1  0
 71 80  2  0
 71 76  1  0
 72 68  1  0
 72 76  1  0
 73 72  1  0
 74 75  1  0
 74 73  1  0
 75 71  1  0
 76 77  2  0
 77 78  1  0
 79 78  2  0
 80 79  1  0
 81 55  1  0
 81 86  1  0
 81 82  1  0
 82 85  1  1
 82 83  1  0
 84 82  1  0
 86 89  1  0
 87 91  1  0
 87 86  1  0
 88 87  2  0
 91 90  1  0
 93 91  1  0
 93 94  1  0
 93 92  1  0
M  ISO  4  12 100  20 100  50 101  54 101
M  END
>  <TORSDO>  (45) 
F 20

>  <SCORE>  (45) 
-14.143

>  <name>  (45) 
44

>  <ligand_id>  (45) 
44

>  <original_smiles>  (45) 
[H]c1c([H])c([H])c2c(c1[H])C([H])([H])C([H])([H])C([H])([H])C2([H])N([H])C(=O)C1([H])N(C(=O)C([H])(N([H])C(=O)C([H])(N([H])C([H])([H])[H])C([H])([H])[H])C(C([H])([H])[H])(C([H])([H])[H])C([H])([H])[H])C([H])([H])c2c([H])c(OC([H])(C(=O)N([H])c3sc(C([H])([H])N([H])C(=O)N4C([H])([H])C([H])([H])C([H])([H])C([H])(n5nc(-c6c([H])c([H])c(Oc7c([H])c([H])c(F)c([H])c7F)c([H])c6[H])c(C(=O)N([H])[H])c5N([H])[H])C4([H])[H])nc3F)C([H])(C([H])([H])[H])C([H])([H])[H])c([H])c([H])c2C1([H])[H]

>  <smiles>  (45) 
[H]c1c([H])c([H])c2c(c1[H])C([H])([H])C([H])([H])C([H])([H])C2([H])N([H])C(=O)C1([H])N(C(=O)C([H])(N([H])C(=O)C([H])(N([H])C([H])([H])[H])C([H])([H])[H])C(C([H])([H])[H])(C([H])([H])[H])C([H])([H])[H])C([H])([H])c2c([H])c(OC([H])(C(=O)N([H])c3sc(C([H])([H])N([H])C(=O)N4C([H])([H])C([H])([H])C([H])([H])C([H])(n5nc(-c6c([H])c([H])c(Oc7c([H])c([H])c(F)c([H])c7F)c([H])c6[H])c(C(=O)N([H])[H])c5N([H])[H])C4([H])[H])nc3F)C([H])(C([H])([H])[H])C([H])([H])[H])c([H])c([H])c2C1([H])[H]

$$$$
45:0:0
     RDKit          3D

 95103  0  0  1  0  0  0  0  0999 V2000
  -30.0970  -22.1480   19.8060 C   0  0  0  0  0  0  0  0  0  0  0  0
  -30.7040  -21.1460   20.4600 N   0  0  0  0  0  0  0  0  0  0  0  0
  -30.1620  -22.2720   18.5820 O   0  0  0  0  0  0  0  0  0  0  0  0
  -30.5670  -21.0700   21.4580 H   0  0  0  0  0  0  0  0  0  0  0  0
  -32.7470  -19.7530   20.6680 C   0  0  0  0  0  1  0  0  0  0  0  0
  -31.5070  -20.1010   19.8280 C   0  0  0  0  0  3  0  0  0  0  0  0
  -29.0730  -17.8710   17.9260 C   0  0  0  0  0  3  0  0  0  0  0  0
  -29.9030  -18.9490   18.2540 C   0  0  0  0  0  3  0  0  0  0  0  0
  -29.0520  -16.7630   18.7870 C   0  0  0  0  0  3  0  0  0  0  0  0
  -30.6540  -18.8960   19.4390 C   0  0  0  0  0  0  0  0  0  0  0  0
  -29.8490  -16.7600   19.9510 C   0  0  0  0  0  0  0  0  0  0  0  0
  -30.5930  -17.8420   20.2920 N   0  0  0  0  0  0  0  0  0  0  0  0
  -30.6100  -14.5310   20.4520 C   0  0  0  0  0  0  0  0  0  0  0  0
  -30.3220  -12.3760   19.3280 C   0  0  0  0  0  2  0  0  0  0  0  0
  -29.3660  -12.6040   18.1360 C   0  0  0  0  0  2  0  0  0  0  0  0
  -27.8980  -12.4500   18.5790 C   0  0  0  0  0  2  0  0  0  0  0  0
  -27.5640  -13.2610   19.8610 C   0  0  0  0  0  3  0  0  0  0  0  0
  -28.6370  -13.0410   20.9550 C   0  0  0  0  0  2  0  0  0  0  0  0
  -29.9560  -13.3430   20.3720 N   0  0  0  0  0  0  0  0  0  0  0  0
  -31.7770  -14.6830   20.0770 O   0  0  0  0  0  0  0  0  0  0  0  0
  -29.8280  -15.5840   20.7400 N   0  0  0  0  0  0  0  0  0  0  0  0
  -28.9170  -15.3140   21.0720 H   0  0  0  0  0  0  0  0  0  0  0  0
  -25.1630  -13.8400   20.5840 C   0  0  0  0  0  0  0  0  0  0  0  0
  -24.1050  -13.0540   20.9510 C   0  0  0  0  0  0  0  0  0  0  0  0
  -24.5800  -11.7070   20.9040 C   0  0  0  0  0  0  0  0  0  0  0  0
  -26.2170  -12.9710   20.3420 N   0  0  0  0  0  0  0  0  0  0  0  0
  -25.8690  -11.6830   20.5890 N   0  0  0  0  0  0  0  0  0  0  0  0
  -23.8680  -10.4350   21.0840 C   0  0  0  0  0  0  0  0  0  0  0  0
  -24.3070   -9.4700   22.0160 C   0  0  0  0  0  3  0  0  0  0  0  0
  -23.5960   -8.2620   22.1840 C   0  0  0  0  0  3  0  0  0  0  0  0
  -22.4340   -8.0110   21.4170 C   0  0  0  0  0  0  0  0  0  0  0  0
  -22.0150   -8.9660   20.4730 C   0  0  0  0  0  3  0  0  0  0  0  0
  -22.7260  -10.1650   20.3040 C   0  0  0  0  0  3  0  0  0  0  0  0
  -21.6950   -6.8560   21.4940 O   0  0  0  0  0  0  0  0  0  0  0  0
  -21.6400   -6.1120   22.6460 C   0  0  0  0  0  0  0  0  0  0  0  0
  -21.1570   -6.6520   23.8590 C   0  0  0  0  0  3  0  0  0  0  0  0
  -21.0530   -5.8320   25.0000 C   0  0  0  0  0  3  0  0  0  0  0  0
  -21.4210   -4.4750   24.9310 C   0  0  0  0  0  0  0  0  0  0  0  0
  -21.8970   -3.9350   23.7220 C   0  0  0  0  0  3  0  0  0  0  0  0
  -22.0030   -4.7520   22.5820 C   0  0  0  0  0  0  0  0  0  0  0  0
  -22.4430   -4.2210   21.4160 F   0  0  0  0  0  0  0  0  0  0  0  0
  -21.3130   -3.6860   26.0250 F   0  0  0  0  0  0  0  0  0  0  0  0
  -22.7040  -13.5130   21.2370 C   0  0  0  0  0  0  0  0  0  0  0  0
  -21.9840  -12.7940   22.0910 N   0  0  0  0  0  0  0  0  0  0  0  0
  -22.2560  -14.5440   20.7360 O   0  0  0  0  0  0  0  0  0  0  0  0
  -22.3560  -11.9590   22.5170 H   0  0  0  0  0  0  0  0  0  0  0  0
  -21.0470  -13.0880   22.3260 H   0  0  0  0  0  0  0  0  0  0  0  0
  -25.3110  -15.2150   20.4180 N   0  0  0  0  0  0  0  0  0  0  0  0
  -24.5320  -15.8530   20.5380 H   0  0  0  0  0  0  0  0  0  0  0  0
  -26.1470  -15.6720   20.0750 H   0  0  0  0  0  0  0  0  0  0  0  0
  -29.2960  -23.1550   20.6370 C   0  0  0  0  0  2  0  0  0  0  0  0
  -29.3340  -24.5930   20.0690 C   0  0  0  0  0  3  0  0  0  0  0  0
  -30.5890  -25.0530   20.1030 F   0  0  0  0  0  0  0  0  0  0  0  0
  -28.4300  -25.5610   20.8440 C   0  0  0  0  0  2  0  0  0  0  0  0
  -28.4610  -26.8500   20.2260 O   0  0  0  0  0  0  0  0  0  0  0  0
  -24.5520  -31.9510   23.2570 C   0  0  0  0  0  0  0  0  0  0  0  0
  -27.2750  -27.5400   20.2300 C   0  0  0  0  0  0  0  0  0  0  0  0
  -23.3740  -30.5250   21.6120 C   0  0  0  0  0  3  0  0  0  0  0  0
  -24.8580  -28.9960   20.2110 C   0  0  0  0  0  0  0  0  0  0  0  0
  -25.8930  -30.9190   21.4310 C   0  0  0  0  0  2  0  0  0  0  0  0
  -26.0020  -29.5450   20.8030 C   0  0  0  0  0  0  0  0  0  0  0  0
  -27.2150  -28.8240   20.8090 C   0  0  0  0  0  3  0  0  0  0  0  0
  -26.1180  -26.9990   19.6270 C   0  0  0  0  0  3  0  0  0  0  0  0
  -24.9080  -27.7190   19.6220 C   0  0  0  0  0  3  0  0  0  0  0  0
  -23.6010  -29.8360   20.2400 C   0  0  0  0  0  2  0  0  0  0  0  0
  -24.6240  -31.1470   22.1590 N   0  0  0  0  0  0  0  0  0  0  0  0
  -23.4640  -32.2150   23.7870 O   0  0  0  0  0  0  0  0  0  0  0  0
  -22.7280  -29.5020   22.5740 C   0  0  0  0  0  0  0  0  0  0  0  0
  -21.4090  -29.2960   22.4280 N   0  0  0  0  0  0  0  0  0  0  0  0
  -23.4110  -28.8960   23.4040 O   0  0  0  0  0  0  0  0  0  0  0  0
  -20.9200  -29.8370   21.7280 H   0  0  0  0  0  0  0  0  0  0  0  0
  -18.0480  -28.0540   22.8810 C   0  0  0  0  0  0  0  0  0  0  0  0
  -20.5960  -28.3520   23.1930 C   0  0  0  0  0  3  0  0  0  0  0  0
  -20.7300  -26.9190   22.6300 C   0  0  0  0  0  2  0  0  0  0  0  0
  -19.6500  -26.5710   21.6010 C   0  0  0  0  0  2  0  0  0  0  0  0
  -18.2570  -26.7010   22.2210 C   0  0  0  0  0  2  0  0  0  0  0  0
  -19.1490  -28.8370   23.3230 C   0  0  0  0  0  0  0  0  0  0  0  0
  -18.9030  -30.1030   23.8960 C   0  0  0  0  0  3  0  0  0  0  0  0
  -17.5880  -30.5880   24.0340 C   0  0  0  0  0  3  0  0  0  0  0  0
  -16.5020  -29.8010   23.6130 C   0  0  0  0  0  3  0  0  0  0  0  0
  -16.7330  -28.5380   23.0410 C   0  0  0  0  0  3  0  0  0  0  0  0
  -25.8280  -32.5970   23.8820 C   0  0  0  0  0  3  0  0  0  0  0  0
  -25.5140  -34.0010   24.1760 N   0  0  0  0  0  0  0  0  0  0  0  0
  -25.8660  -35.0370   23.4030 C   0  0  0  0  0  0  0  0  0  0  0  0
  -26.5610  -34.9110   22.3900 O   0  0  0  0  0  0  0  0  0  0  0  0
  -24.9000  -34.1730   24.9590 H   0  0  0  0  0  0  0  0  0  0  0  0
  -24.1630  -36.8300   22.9470 C   0  0  0  0  0  1  0  0  0  0  0  0
  -25.3670  -36.4340   23.8170 C   0  0  0  0  0  3  0  0  0  0  0  0
  -27.4670  -37.3260   24.7240 C   0  0  0  0  0  1  0  0  0  0  0  0
  -26.4090  -37.4810   23.7290 N   0  0  0  0  0  0  0  0  0  0  0  0
  -26.0010  -38.4060   23.8400 H   0  0  0  0  0  0  0  0  0  0  0  0
  -26.3310  -31.8520   25.1800 C   0  0  1  0  0  0  0  0  0  0  0  0
  -25.2250  -31.6300   26.2370 C   0  0  0  0  0  1  0  0  0  0  0  0
  -26.9240  -30.4700   24.8200 C   0  0  0  0  0  1  0  0  0  0  0  0
  -27.4710  -32.6620   25.8420 C   0  0  0  0  0  1  0  0  0  0  0  0
  1  2  1  0
  1 51  1  0
  2  4  1  0
  3  1  2  0
  6  2  1  0
  6  5  1  0
  7  8  2  0
  7  9  1  0
  8 10  1  0
  9 11  2  0
 10  6  1  0
 10 12  2  0
 11 12  1  0
 11 21  1  0
 13 21  1  0
 14 19  1  0
 15 16  1  0
 15 14  1  0
 17 16  1  0
 17 26  1  0
 17 18  1  0
 19 13  1  0
 19 18  1  0
 20 13  2  0
 21 22  1  0
 23 24  2  0
 24 43  1  0
 25 24  1  0
 25 28  1  0
 26 23  1  0
 26 27  1  0
 27 25  2  0
 28 29  1  0
 29 30  2  0
 31 34  1  0
 31 30  1  0
 32 31  2  0
 33 32  1  0
 33 28  2  0
 34 35  1  0
 35 36  1  0
 36 37  2  0
 38 37  1  0
 38 42  1  0
 39 38  2  0
 40 35  2  0
 40 39  1  0
 41 40  1  0
 43 44  1  0
 44 47  1  0
 44 46  1  0
 45 43  2  0
 48 49  1  0
 48 23  1  0
 50 48  1  0
 52 53  1  0
 52 51  1  0
 52 54  1  0
 55 57  1  0
 55 54  1  0
 56 67  2  0
 57 62  1  0
 58 66  1  0
 58 68  1  0
 59 65  1  0
 59 61  1  0
 60 66  1  0
 61 62  2  0
 61 60  1  0
 63 57  2  0
 64 63  1  0
 64 59  2  0
 65 58  1  0
 66 56  1  0
 68 70  2  0
 69 68  1  0
 71 69  1  0
 72 81  2  0
 72 77  1  0
 73 69  1  0
 73 77  1  0
 74 73  1  0
 75 76  1  0
 75 74  1  0
 76 72  1  0
 77 78  2  0
 78 79  1  0
 80 79  2  0
 81 80  1  0
 82 56  1  0
 82 83  1  0
 82 92  1  0
 83 86  1  0
 84 88  1  0
 84 83  1  0
 85 84  2  0
 88 87  1  0
 90 88  1  0
 90 91  1  0
 90 89  1  0
 92 95  1  1
 92 93  1  0
 94 92  1  0
M  ISO  4  13 100  21 100  54 101  55 101
M  END
>  <TORSDO>  (46) 
F 21

>  <SCORE>  (46) 
-13.457

>  <name>  (46) 
45

>  <ligand_id>  (46) 
45

>  <original_smiles>  (46) 
[H]c1c(N([H])C(=O)N2C([H])([H])C([H])([H])C([H])([H])C([H])(n3nc(-c4c([H])c([H])c(Oc5c([H])c([H])c(F)c([H])c5F)c([H])c4[H])c(C(=O)N([H])[H])c3N([H])[H])C2([H])[H])nc(C([H])(N([H])C(=O)C([H])([H])C([H])(F)C([H])([H])Oc2c([H])c([H])c3c(c2[H])C([H])([H])N(C(=O)C([H])(N([H])C(=O)C([H])(N([H])C([H])([H])[H])C([H])([H])[H])C(C([H])([H])[H])(C([H])([H])[H])C([H])([H])[H])C([H])(C(=O)N([H])C2([H])c4c([H])c([H])c([H])c([H])c4C([H])([H])C([H])([H])C2([H])[H])C3([H])[H])C([H])([H])[H])c([H])c1[H]

>  <smiles>  (46) 
[H]c1c(N([H])C(=O)N2C([H])([H])C([H])([H])C([H])([H])C([H])(n3nc(-c4c([H])c([H])c(Oc5c([H])c([H])c(F)c([H])c5F)c([H])c4[H])c(C(=O)N([H])[H])c3N([H])[H])C2([H])[H])nc(C([H])(N([H])C(=O)C([H])([H])C([H])(F)C([H])([H])Oc2c([H])c([H])c3c(c2[H])C([H])([H])N(C(=O)C([H])(N([H])C(=O)C([H])(N([H])C([H])([H])[H])C([H])([H])[H])C(C([H])([H])[H])(C([H])([H])[H])C([H])([H])[H])C([H])(C(=O)N([H])C2([H])c4c([H])c([H])c([H])c([H])c4C([H])([H])C([H])([H])C2([H])[H])C3([H])[H])C([H])([H])[H])c([H])c1[H]

$$$$
46:0:0
     RDKit          3D

 92100  0  0  1  0  0  0  0  0999 V2000
  -28.9020  -19.1480   20.1380 C   0  0  0  0  0  0  0  0  0  0  0  0
  -30.2250  -18.7700   19.9440 C   0  0  0  0  0  0  0  0  0  0  0  0
  -29.7240  -21.3330   19.9120 C   0  0  0  0  0  0  0  0  0  0  0  0
  -28.9090  -23.8650   20.0240 C   0  0  0  0  0  0  0  0  0  0  0  0
  -27.7610  -18.2150   20.4010 C   0  0  0  0  0  1  0  0  0  0  0  0
  -28.6400  -20.5590   20.1130 N   0  0  0  0  0  0  0  0  0  0  0  0
  -29.7880  -22.8100   19.8380 N   0  0  0  0  0  0  0  0  0  0  0  0
  -27.7440  -23.7000   20.3920 O   0  0  0  0  0  0  0  0  0  0  0  0
  -31.1560  -20.2750   19.7040 S   0  0  0  0  0  0  0  0  0  0  0  0
  -30.7090  -23.1360   19.5840 H   0  0  0  0  0  0  0  0  0  0  0  0
  -29.5940  -25.6660   18.2430 C   0  0  0  0  0  1  0  0  0  0  0  0
  -29.4430  -25.3550   19.7450 C   0  0  0  0  0  3  0  0  0  0  0  0
  -28.9640  -26.5180   20.5680 O   0  0  0  0  0  0  0  0  0  0  0  0
  -24.8050  -31.7700   23.2630 C   0  0  0  0  0  0  0  0  0  0  0  0
  -27.8010  -27.2960   20.3950 C   0  0  0  0  0  0  0  0  0  0  0  0
  -23.7770  -30.3360   21.5350 C   0  0  0  0  0  3  0  0  0  0  0  0
  -25.3830  -28.8380   20.2140 C   0  0  0  0  0  0  0  0  0  0  0  0
  -26.3100  -30.7400   21.5390 C   0  0  0  0  0  2  0  0  0  0  0  0
  -26.4860  -29.3670   20.8940 C   0  0  0  0  0  0  0  0  0  0  0  0
  -27.6930  -28.6060   20.9730 C   0  0  0  0  0  3  0  0  0  0  0  0
  -26.6620  -26.8130   19.7160 C   0  0  0  0  0  3  0  0  0  0  0  0
  -25.4750  -27.5700   19.6170 C   0  0  0  0  0  3  0  0  0  0  0  0
  -24.1160  -29.6720   20.1730 C   0  0  0  0  0  2  0  0  0  0  0  0
  -24.9780  -30.9680   22.1700 N   0  0  0  0  0  0  0  0  0  0  0  0
  -23.6750  -32.0060   23.7160 O   0  0  0  0  0  0  0  0  0  0  0  0
  -23.0810  -29.2940   22.4430 C   0  0  0  0  0  0  0  0  0  0  0  0
  -21.7570  -29.1280   22.2710 N   0  0  0  0  0  0  0  0  0  0  0  0
  -23.7310  -28.6390   23.2610 O   0  0  0  0  0  0  0  0  0  0  0  0
  -21.2920  -29.7090   21.5880 H   0  0  0  0  0  0  0  0  0  0  0  0
  -18.3410  -28.0400   22.7510 C   0  0  0  0  0  0  0  0  0  0  0  0
  -20.9130  -28.1700   22.9860 C   0  0  0  0  0  3  0  0  0  0  0  0
  -20.9420  -26.7830   22.3020 C   0  0  0  0  0  2  0  0  0  0  0  0
  -19.8100  -26.5850   21.2890 C   0  0  0  0  0  2  0  0  0  0  0  0
  -18.4470  -26.7390   21.9710 C   0  0  0  0  0  2  0  0  0  0  0  0
  -19.4990  -28.7190   23.2140 C   0  0  0  0  0  0  0  0  0  0  0  0
  -19.3460  -29.9410   23.9030 C   0  0  0  0  0  3  0  0  0  0  0  0
  -18.0670  -30.4820   24.1350 C   0  0  0  0  0  3  0  0  0  0  0  0
  -16.9240  -29.7980   23.6860 C   0  0  0  0  0  3  0  0  0  0  0  0
  -17.0620  -28.5780   23.0000 C   0  0  0  0  0  3  0  0  0  0  0  0
  -26.0120  -32.4460   23.9810 C   0  0  0  0  0  3  0  0  0  0  0  0
  -25.6390  -33.8390   24.2660 N   0  0  0  0  0  0  0  0  0  0  0  0
  -25.9840  -34.8910   23.5130 C   0  0  0  0  0  0  0  0  0  0  0  0
  -26.7190  -34.7950   22.5260 O   0  0  0  0  0  0  0  0  0  0  0  0
  -24.9930  -33.9860   25.0280 H   0  0  0  0  0  0  0  0  0  0  0  0
  -24.2140  -36.6140   23.0390 C   0  0  0  0  0  1  0  0  0  0  0  0
  -25.4270  -36.2700   23.9180 C   0  0  0  0  0  3  0  0  0  0  0  0
  -27.4760  -37.2580   24.8440 C   0  0  0  0  0  1  0  0  0  0  0  0
  -26.4250  -37.3570   23.8340 N   0  0  0  0  0  0  0  0  0  0  0  0
  -25.9780  -38.2650   23.9300 H   0  0  0  0  0  0  0  0  0  0  0  0
  -26.4410  -31.7060   25.3080 C   0  0  1  0  0  0  0  0  0  0  0  0
  -25.2630  -31.4230   26.2700 C   0  0  0  0  0  1  0  0  0  0  0  0
  -27.1200  -30.3550   24.9840 C   0  0  0  0  0  1  0  0  0  0  0  0
  -27.4860  -32.5550   26.0690 C   0  0  0  0  0  1  0  0  0  0  0  0
  -31.0080  -17.3950   20.0220 C   0  0  0  0  0  2  0  0  0  0  0  0
  -31.1130  -14.8220   20.0410 C   0  0  0  0  0  0  0  0  0  0  0  0
  -30.8220  -12.5360   19.0890 C   0  0  0  0  0  2  0  0  0  0  0  0
  -29.8590  -12.6060   17.8860 C   0  0  0  0  0  2  0  0  0  0  0  0
  -28.3970  -12.4740   18.3560 C   0  0  0  0  0  2  0  0  0  0  0  0
  -28.0720  -13.3930   19.5640 C   0  0  0  0  0  3  0  0  0  0  0  0
  -29.1570  -13.3170   20.6590 C   0  0  0  0  0  2  0  0  0  0  0  0
  -30.4410  -13.6220   20.0200 N   0  0  0  0  0  0  0  0  0  0  0  0
  -32.2970  -14.8620   19.6950 O   0  0  0  0  0  0  0  0  0  0  0  0
  -30.4110  -16.0050   20.2240 N   0  0  0  0  0  0  0  0  0  0  0  0
  -29.4300  -15.9350   20.4470 H   0  0  0  0  0  0  0  0  0  0  0  0
  -25.7310  -14.0410   20.3850 C   0  0  0  0  0  0  0  0  0  0  0  0
  -24.6560  -13.2920   20.7790 C   0  0  0  0  0  0  0  0  0  0  0  0
  -25.0770  -11.9290   20.7080 C   0  0  0  0  0  0  0  0  0  0  0  0
  -26.7380  -13.1360   20.0970 N   0  0  0  0  0  0  0  0  0  0  0  0
  -26.3540  -11.8580   20.3550 N   0  0  0  0  0  0  0  0  0  0  0  0
  -24.3170  -10.6860   20.8980 C   0  0  0  0  0  0  0  0  0  0  0  0
  -24.6940   -9.7320   21.8700 C   0  0  0  0  0  3  0  0  0  0  0  0
  -23.9370   -8.5550   22.0480 C   0  0  0  0  0  3  0  0  0  0  0  0
  -22.7890   -8.3220   21.2530 C   0  0  0  0  0  0  0  0  0  0  0  0
  -22.4320   -9.2630   20.2710 C   0  0  0  0  0  3  0  0  0  0  0  0
  -23.1900  -10.4320   20.0920 C   0  0  0  0  0  3  0  0  0  0  0  0
  -22.0070   -7.1950   21.3370 O   0  0  0  0  0  0  0  0  0  0  0  0
  -21.8320   -6.5270   22.5230 C   0  0  0  0  0  0  0  0  0  0  0  0
  -21.2010   -7.1320   23.6320 C   0  0  0  0  0  3  0  0  0  0  0  0
  -20.9800   -6.3880   24.8090 C   0  0  0  0  0  3  0  0  0  0  0  0
  -21.3790   -5.0400   24.8750 C   0  0  0  0  0  0  0  0  0  0  0  0
  -22.0020   -4.4350   23.7700 C   0  0  0  0  0  3  0  0  0  0  0  0
  -22.2250   -5.1760   22.5960 C   0  0  0  0  0  0  0  0  0  0  0  0
  -22.8070   -4.5820   21.5260 F   0  0  0  0  0  0  0  0  0  0  0  0
  -21.1590   -4.3220   26.0010 F   0  0  0  0  0  0  0  0  0  0  0  0
  -23.2850  -13.8070   21.1040 C   0  0  0  0  0  0  0  0  0  0  0  0
  -22.5780  -13.1380   22.0080 N   0  0  0  0  0  0  0  0  0  0  0  0
  -22.8500  -14.8370   20.5900 O   0  0  0  0  0  0  0  0  0  0  0  0
  -22.9430  -12.3050   22.4450 H   0  0  0  0  0  0  0  0  0  0  0  0
  -21.6590  -13.4650   22.2700 H   0  0  0  0  0  0  0  0  0  0  0  0
  -25.9300  -15.4090   20.2210 N   0  0  0  0  0  0  0  0  0  0  0  0
  -25.1750  -16.0740   20.3430 H   0  0  0  0  0  0  0  0  0  0  0  0
  -26.7520  -15.8170   19.7960 H   0  0  0  0  0  0  0  0  0  0  0  0
  1  5  1  0
  2 54  1  0
  2  1  2  0
  3  6  2  0
  4  8  2  0
  6  1  1  0
  7  3  1  0
  7  4  1  0
  9  3  1  0
  9  2  1  0
 10  7  1  0
 12 11  1  0
 12  4  1  0
 12 13  1  0
 14 25  2  0
 15 13  1  0
 15 20  1  0
 16 24  1  0
 16 26  1  0
 17 19  1  0
 18 24  1  0
 19 20  2  0
 19 18  1  0
 21 15  2  0
 22 21  1  0
 22 17  2  0
 23 17  1  0
 23 16  1  0
 24 14  1  0
 26 28  2  0
 27 26  1  0
 29 27  1  0
 30 39  2  0
 30 35  1  0
 31 27  1  0
 31 35  1  0
 32 31  1  0
 33 34  1  0
 33 32  1  0
 34 30  1  0
 35 36  2  0
 36 37  1  0
 38 37  2  0
 39 38  1  0
 40 14  1  0
 40 41  1  0
 40 50  1  0
 41 44  1  0
 42 46  1  0
 42 41  1  0
 43 42  2  0
 46 45  1  0
 48 46  1  0
 48 49  1  0
 48 47  1  0
 50 53  1  1
 50 51  1  0
 52 50  1  0
 54 63  1  0
 55 63  1  0
 56 61  1  0
 57 58  1  0
 57 56  1  0
 59 58  1  0
 59 68  1  0
 59 60  1  0
 61 55  1  0
 61 60  1  0
 62 55  2  0
 63 64  1  0
 65 66  2  0
 66 85  1  0
 67 66  1  0
 67 70  1  0
 68 69  1  0
 68 65  1  0
 69 67  2  0
 70 71  1  0
 71 72  2  0
 73 76  1  0
 73 72  1  0
 74 73  2  0
 75 74  1  0
 75 70  2  0
 76 77  1  0
 77 82  2  0
 77 78  1  0
 78 79  2  0
 79 80  1  0
 80 84  1  0
 81 80  2  0
 82 81  1  0
 83 82  1  0
 85 86  1  0
 86 89  1  0
 86 88  1  0
 87 85  2  0
 90 91  1  0
 90 65  1  0
 92 90  1  0
M  ISO  4  12 101  13 101  55 100  63 100
M  END
>  <TORSDO>  (47) 
F 18

>  <SCORE>  (47) 
-14.221

>  <name>  (47) 
46

>  <ligand_id>  (47) 
46

>  <original_smiles>  (47) 
[H]c1c([H])c([H])c2c(c1[H])C([H])([H])C([H])([H])C([H])([H])C2([H])N([H])C(=O)C1([H])N(C(=O)C([H])(N([H])C(=O)C([H])(N([H])C([H])([H])[H])C([H])([H])[H])C(C([H])([H])[H])(C([H])([H])[H])C([H])([H])[H])C([H])([H])c2c([H])c(OC([H])(C(=O)N([H])c3nc(C([H])([H])[H])c(C([H])([H])N([H])C(=O)N4C([H])([H])C([H])([H])C([H])([H])C([H])(n5nc(-c6c([H])c([H])c(Oc7c([H])c([H])c(F)c([H])c7F)c([H])c6[H])c(C(=O)N([H])[H])c5N([H])[H])C4([H])[H])s3)C([H])([H])[H])c([H])c([H])c2C1([H])[H]

>  <smiles>  (47) 
[H]c1c([H])c([H])c2c(c1[H])C([H])([H])C([H])([H])C([H])([H])C2([H])N([H])C(=O)C1([H])N(C(=O)C([H])(N([H])C(=O)C([H])(N([H])C([H])([H])[H])C([H])([H])[H])C(C([H])([H])[H])(C([H])([H])[H])C([H])([H])[H])C([H])([H])c2c([H])c(OC([H])(C(=O)N([H])c3nc(C([H])([H])[H])c(C([H])([H])N([H])C(=O)N4C([H])([H])C([H])([H])C([H])([H])C([H])(n5nc(-c6c([H])c([H])c(Oc7c([H])c([H])c(F)c([H])c7F)c([H])c6[H])c(C(=O)N([H])[H])c5N([H])[H])C4([H])[H])s3)C([H])([H])[H])c([H])c([H])c2C1([H])[H]

$$$$
47:0:0
     RDKit          3D

 93101  0  0  1  0  0  0  0  0999 V2000
  -31.6480  -18.9750   21.6710 C   0  0  0  0  0  3  0  0  0  0  0  0
  -30.8740  -20.0570   21.2230 C   0  0  0  0  0  3  0  0  0  0  0  0
  -31.2400  -17.6550   21.4280 C   0  0  0  0  0  0  0  0  0  0  0  0
  -29.6600  -19.8530   20.5370 C   0  0  0  0  0  0  0  0  0  0  0  0
  -30.0700  -17.4030   20.6720 C   0  0  0  0  0  0  0  0  0  0  0  0
  -29.2350  -22.4180   20.0820 C   0  0  0  0  0  0  0  0  0  0  0  0
  -29.2920  -18.5170   20.2900 N   0  0  0  0  0  0  0  0  0  0  0  0
  -28.8490  -21.0830   20.2650 N   0  0  0  0  0  0  0  0  0  0  0  0
  -30.3930  -22.6710   19.7410 O   0  0  0  0  0  0  0  0  0  0  0  0
  -31.9650  -16.6510   21.9760 F   0  0  0  0  0  0  0  0  0  0  0  0
  -27.8510  -20.9330   20.3100 H   0  0  0  0  0  0  0  0  0  0  0  0
  -30.5070  -14.8480   20.1780 C   0  0  0  0  0  0  0  0  0  0  0  0
  -30.2860  -12.6040   19.0870 C   0  0  0  0  0  2  0  0  0  0  0  0
  -29.3030  -12.7240   17.9020 C   0  0  0  0  0  2  0  0  0  0  0  0
  -27.8500  -12.5240   18.3750 C   0  0  0  0  0  2  0  0  0  0  0  0
  -27.5180  -13.3540   19.6440 C   0  0  0  0  0  3  0  0  0  0  0  0
  -28.6180  -13.2300   20.7200 C   0  0  0  0  0  2  0  0  0  0  0  0
  -29.8850  -13.6190   20.0900 N   0  0  0  0  0  0  0  0  0  0  0  0
  -31.6760  -14.9440   19.7880 O   0  0  0  0  0  0  0  0  0  0  0  0
  -29.7210  -15.9710   20.4460 N   0  0  0  0  0  0  0  0  0  0  0  0
  -28.7380  -15.7750   20.5020 H   0  0  0  0  0  0  0  0  0  0  0  0
  -25.1480  -13.8980   20.4540 C   0  0  0  0  0  0  0  0  0  0  0  0
  -24.1070  -13.1040   20.8500 C   0  0  0  0  0  0  0  0  0  0  0  0
  -24.5900  -11.7610   20.7910 C   0  0  0  0  0  0  0  0  0  0  0  0
  -26.1960  -13.0380   20.1740 N   0  0  0  0  0  0  0  0  0  0  0  0
  -25.8710  -11.7470   20.4380 N   0  0  0  0  0  0  0  0  0  0  0  0
  -23.8900  -10.4860   20.9910 C   0  0  0  0  0  0  0  0  0  0  0  0
  -24.3490   -9.5300   21.9240 C   0  0  0  0  0  3  0  0  0  0  0  0
  -23.6470   -8.3190   22.1120 C   0  0  0  0  0  3  0  0  0  0  0  0
  -22.4720   -8.0580   21.3690 C   0  0  0  0  0  0  0  0  0  0  0  0
  -22.0320   -9.0040   20.4260 C   0  0  0  0  0  3  0  0  0  0  0  0
  -22.7350  -10.2060   20.2360 C   0  0  0  0  0  3  0  0  0  0  0  0
  -21.7400   -6.8990   21.4670 O   0  0  0  0  0  0  0  0  0  0  0  0
  -21.7020   -6.1660   22.6260 C   0  0  0  0  0  0  0  0  0  0  0  0
  -21.2510   -6.7200   23.8430 C   0  0  0  0  0  3  0  0  0  0  0  0
  -21.1620   -5.9140   24.9950 C   0  0  0  0  0  3  0  0  0  0  0  0
  -21.5160   -4.5530   24.9300 C   0  0  0  0  0  0  0  0  0  0  0  0
  -21.9620   -3.9970   23.7190 C   0  0  0  0  0  3  0  0  0  0  0  0
  -22.0510   -4.8010   22.5690 C   0  0  0  0  0  0  0  0  0  0  0  0
  -22.4610   -4.2570   21.3970 F   0  0  0  0  0  0  0  0  0  0  0  0
  -21.4240   -3.7750   26.0340 F   0  0  0  0  0  0  0  0  0  0  0  0
  -22.7120  -13.5570   21.1700 C   0  0  0  0  0  0  0  0  0  0  0  0
  -22.0200  -12.8380   22.0460 N   0  0  0  0  0  0  0  0  0  0  0  0
  -22.2450  -14.5860   20.6820 O   0  0  0  0  0  0  0  0  0  0  0  0
  -22.4110  -12.0060   22.4650 H   0  0  0  0  0  0  0  0  0  0  0  0
  -21.0850  -13.1240   22.3040 H   0  0  0  0  0  0  0  0  0  0  0  0
  -25.2830  -15.2740   20.2830 N   0  0  0  0  0  0  0  0  0  0  0  0
  -24.5010  -15.9070   20.4120 H   0  0  0  0  0  0  0  0  0  0  0  0
  -26.1010  -15.7340   19.9050 H   0  0  0  0  0  0  0  0  0  0  0  0
  -28.2530  -23.6970   20.2510 C   0  0  0  0  0  2  0  0  0  0  0  0
  -28.6130  -25.2260   18.1150 C   0  0  0  0  0  1  0  0  0  0  0  0
  -28.6770  -25.1620   19.6510 C   0  0  0  0  0  3  0  0  0  0  0  0
  -28.4020  -26.5210   20.2610 O   0  0  0  0  0  0  0  0  0  0  0  0
  -24.6150  -31.9310   23.2370 C   0  0  0  0  0  0  0  0  0  0  0  0
  -27.2490  -27.3370   20.1770 C   0  0  0  0  0  0  0  0  0  0  0  0
  -23.4140  -30.5160   21.6060 C   0  0  0  0  0  3  0  0  0  0  0  0
  -24.8670  -28.9540   20.1820 C   0  0  0  0  0  0  0  0  0  0  0  0
  -25.9540  -30.8360   21.4150 C   0  0  0  0  0  2  0  0  0  0  0  0
  -26.0370  -29.4520   20.7690 C   0  0  0  0  0  0  0  0  0  0  0  0
  -27.2240  -28.6540   20.7530 C   0  0  0  0  0  3  0  0  0  0  0  0
  -26.0510  -26.8920   19.5820 C   0  0  0  0  0  3  0  0  0  0  0  0
  -24.8800  -27.6830   19.5800 C   0  0  0  0  0  3  0  0  0  0  0  0
  -23.6250  -29.8240   20.2320 C   0  0  0  0  0  2  0  0  0  0  0  0
  -24.6790  -31.1160   22.1420 N   0  0  0  0  0  0  0  0  0  0  0  0
  -23.5330  -32.2040   23.7760 O   0  0  0  0  0  0  0  0  0  0  0  0
  -22.7570  -29.5090   22.5800 C   0  0  0  0  0  0  0  0  0  0  0  0
  -21.4330  -29.3160   22.4520 N   0  0  0  0  0  0  0  0  0  0  0  0
  -23.4390  -28.8990   23.4080 O   0  0  0  0  0  0  0  0  0  0  0  0
  -20.9410  -29.8540   21.7530 H   0  0  0  0  0  0  0  0  0  0  0  0
  -18.0670  -28.0840   22.9570 C   0  0  0  0  0  0  0  0  0  0  0  0
  -20.6220  -28.3750   23.2270 C   0  0  0  0  0  3  0  0  0  0  0  0
  -20.7390  -26.9400   22.6620 C   0  0  0  0  0  2  0  0  0  0  0  0
  -19.6430  -26.6010   21.6470 C   0  0  0  0  0  2  0  0  0  0  0  0
  -18.2590  -26.7330   22.2900 C   0  0  0  0  0  2  0  0  0  0  0  0
  -19.1760  -28.8630   23.3820 C   0  0  0  0  0  0  0  0  0  0  0  0
  -18.9420  -30.1260   23.9660 C   0  0  0  0  0  3  0  0  0  0  0  0
  -17.6310  -30.6130   24.1270 C   0  0  0  0  0  3  0  0  0  0  0  0
  -16.5360  -29.8320   23.7180 C   0  0  0  0  0  3  0  0  0  0  0  0
  -16.7550  -28.5690   23.1400 C   0  0  0  0  0  3  0  0  0  0  0  0
  -25.8950  -32.5760   23.8530 C   0  0  0  0  0  3  0  0  0  0  0  0
  -25.5770  -33.9740   24.1780 N   0  0  0  0  0  0  0  0  0  0  0  0
  -25.9100  -35.0300   23.4220 C   0  0  0  0  0  0  0  0  0  0  0  0
  -26.5830  -34.9280   22.3940 O   0  0  0  0  0  0  0  0  0  0  0  0
  -24.9730  -34.1240   24.9730 H   0  0  0  0  0  0  0  0  0  0  0  0
  -24.1800  -36.8210   23.0540 C   0  0  0  0  0  1  0  0  0  0  0  0
  -25.4150  -36.4170   23.8770 C   0  0  0  0  0  3  0  0  0  0  0  0
  -27.5410  -37.3060   24.7290 C   0  0  0  0  0  1  0  0  0  0  0  0
  -26.4470  -37.4730   23.7750 N   0  0  0  0  0  0  0  0  0  0  0  0
  -26.0390  -38.3920   23.9190 H   0  0  0  0  0  0  0  0  0  0  0  0
  -26.4160  -31.8180   25.1370 C   0  0  1  0  0  0  0  0  0  0  0  0
  -25.3260  -31.5800   26.2070 C   0  0  0  0  0  1  0  0  0  0  0  0
  -27.0120  -30.4430   24.7590 C   0  0  0  0  0  1  0  0  0  0  0  0
  -27.5580  -32.6260   25.7950 C   0  0  0  0  0  1  0  0  0  0  0  0
  2  1  2  0
  3  1  1  0
  3 10  1  0
  4  2  1  0
  5  3  2  0
  6 50  1  0
  6  8  1  0
  7  4  2  0
  7  5  1  0
  8 11  1  0
  8  4  1  0
  9  6  2  0
 12 20  1  0
 13 18  1  0
 14 15  1  0
 14 13  1  0
 16 15  1  0
 16 25  1  0
 16 17  1  0
 18 12  1  0
 18 17  1  0
 19 12  2  0
 20 21  1  0
 20  5  1  0
 22 23  2  0
 23 42  1  0
 24 23  1  0
 24 27  1  0
 25 26  1  0
 25 22  1  0
 26 24  2  0
 27 28  1  0
 28 29  2  0
 30 33  1  0
 30 29  1  0
 31 30  2  0
 32 31  1  0
 32 27  2  0
 33 34  1  0
 34 35  1  0
 35 36  2  0
 37 36  1  0
 37 41  1  0
 38 37  2  0
 39 34  2  0
 39 38  1  0
 40 39  1  0
 42 43  1  0
 43 46  1  0
 43 45  1  0
 44 42  2  0
 47 48  1  0
 47 22  1  0
 49 47  1  0
 52 51  1  0
 52 50  1  0
 52 53  1  0
 54 65  2  0
 55 53  1  0
 55 60  1  0
 56 64  1  0
 56 66  1  0
 57 63  1  0
 57 59  1  0
 58 64  1  0
 59 58  1  0
 60 59  2  0
 61 55  2  0
 62 61  1  0
 62 57  2  0
 63 56  1  0
 64 54  1  0
 66 68  2  0
 67 66  1  0
 69 67  1  0
 70 79  2  0
 70 75  1  0
 71 67  1  0
 71 75  1  0
 72 71  1  0
 73 74  1  0
 73 72  1  0
 74 70  1  0
 75 76  2  0
 76 77  1  0
 78 77  2  0
 79 78  1  0
 80 54  1  0
 80 81  1  0
 80 90  1  0
 81 84  1  0
 82 86  1  0
 82 81  1  0
 83 82  2  0
 86 85  1  0
 88 86  1  0
 88 89  1  0
 88 87  1  0
 90 93  1  1
 90 91  1  0
 92 90  1  0
M  ISO  4  12 100  20 100  52 101  53 101
M  END
>  <TORSDO>  (48) 
F 18

>  <SCORE>  (48) 
-14.559

>  <name>  (48) 
47

>  <ligand_id>  (48) 
47

>  <original_smiles>  (48) 
[H]c1c(N([H])C(=O)C([H])([H])C([H])(Oc2c([H])c([H])c3c(c2[H])C([H])([H])N(C(=O)C([H])(N([H])C(=O)C([H])(N([H])C([H])([H])[H])C([H])([H])[H])C(C([H])([H])[H])(C([H])([H])[H])C([H])([H])[H])C([H])(C(=O)N([H])C2([H])c4c([H])c([H])c([H])c([H])c4C([H])([H])C([H])([H])C2([H])[H])C3([H])[H])C([H])([H])[H])nc(N([H])C(=O)N2C([H])([H])C([H])([H])C([H])([H])C([H])(n3nc(-c4c([H])c([H])c(Oc5c([H])c([H])c(F)c([H])c5F)c([H])c4[H])c(C(=O)N([H])[H])c3N([H])[H])C2([H])[H])c(F)c1[H]

>  <smiles>  (48) 
[H]c1c(N([H])C(=O)C([H])([H])C([H])(Oc2c([H])c([H])c3c(c2[H])C([H])([H])N(C(=O)C([H])(N([H])C(=O)C([H])(N([H])C([H])([H])[H])C([H])([H])[H])C(C([H])([H])[H])(C([H])([H])[H])C([H])([H])[H])C([H])(C(=O)N([H])C2([H])c4c([H])c([H])c([H])c([H])c4C([H])([H])C([H])([H])C2([H])[H])C3([H])[H])C([H])([H])[H])nc(N([H])C(=O)N2C([H])([H])C([H])([H])C([H])([H])C([H])(n3nc(-c4c([H])c([H])c(Oc5c([H])c([H])c(F)c([H])c5F)c([H])c4[H])c(C(=O)N([H])[H])c3N([H])[H])C2([H])[H])c(F)c1[H]

$$$$
48:0:0
     RDKit          3D

 98106  0  0  1  0  0  0  0  0999 V2000
  -28.9790  -20.7640   21.4950 C   0  0  0  0  0  3  0  0  0  0  0  0
  -29.8390  -20.0270   19.4420 C   0  0  0  0  0  0  0  0  0  0  0  0
  -29.3270  -21.1760   20.2300 C   0  0  0  0  0  0  0  0  0  0  0  0
  -29.9010  -18.7940   20.1330 C   0  0  0  0  0  0  0  0  0  0  0  0
  -29.2760  -19.0370   21.7510 S   0  0  0  0  0  0  0  0  0  0  0  0
  -30.8890  -14.9580   19.8850 C   0  0  0  0  0  0  0  0  0  0  0  0
  -30.5840  -12.6640   18.9420 C   0  0  0  0  0  2  0  0  0  0  0  0
  -29.5810  -12.7200   17.7700 C   0  0  0  0  0  2  0  0  0  0  0  0
  -28.1450  -12.5400   18.2930 C   0  0  0  0  0  2  0  0  0  0  0  0
  -27.8410  -13.4420   19.5200 C   0  0  0  0  0  3  0  0  0  0  0  0
  -28.9690  -13.4030   20.5750 C   0  0  0  0  0  2  0  0  0  0  0  0
  -30.2200  -13.7480   19.8910 N   0  0  0  0  0  0  0  0  0  0  0  0
  -32.0600  -14.9460   19.4980 O   0  0  0  0  0  0  0  0  0  0  0  0
  -30.6340  -17.4560   19.8050 C   0  0  0  0  0  0  0  0  0  0  0  0
  -30.2040  -16.1610   20.1160 N   0  0  0  0  0  0  0  0  0  0  0  0
  -31.6810  -17.6350   19.1810 O   0  0  0  0  0  0  0  0  0  0  0  0
  -29.2830  -16.0850   20.5120 H   0  0  0  0  0  0  0  0  0  0  0  0
  -25.5250  -14.0190   20.4520 C   0  0  0  0  0  0  0  0  0  0  0  0
  -24.4800  -13.2390   20.8680 C   0  0  0  0  0  0  0  0  0  0  0  0
  -24.9220  -11.8860   20.7460 C   0  0  0  0  0  0  0  0  0  0  0  0
  -26.5370  -13.1410   20.1010 N   0  0  0  0  0  0  0  0  0  0  0  0
  -26.1870  -11.8500   20.3410 N   0  0  0  0  0  0  0  0  0  0  0  0
  -24.1950  -10.6240   20.9360 C   0  0  0  0  0  0  0  0  0  0  0  0
  -24.6330   -9.6490   21.8590 C   0  0  0  0  0  3  0  0  0  0  0  0
  -23.9040   -8.4540   22.0380 C   0  0  0  0  0  3  0  0  0  0  0  0
  -22.7230   -8.2230   21.2920 C   0  0  0  0  0  0  0  0  0  0  0  0
  -22.3050   -9.1870   20.3560 C   0  0  0  0  0  3  0  0  0  0  0  0
  -23.0340  -10.3740   20.1760 C   0  0  0  0  0  3  0  0  0  0  0  0
  -21.9650   -7.0800   21.3810 O   0  0  0  0  0  0  0  0  0  0  0  0
  -21.8630   -6.3740   22.5520 C   0  0  0  0  0  0  0  0  0  0  0  0
  -21.3350   -6.9510   23.7270 C   0  0  0  0  0  3  0  0  0  0  0  0
  -21.1840   -6.1690   24.8890 C   0  0  0  0  0  3  0  0  0  0  0  0
  -21.5490   -4.8100   24.8760 C   0  0  0  0  0  0  0  0  0  0  0  0
  -22.0700   -4.2310   23.7060 C   0  0  0  0  0  3  0  0  0  0  0  0
  -22.2230   -5.0100   22.5460 C   0  0  0  0  0  0  0  0  0  0  0  0
  -22.7050   -4.4430   21.4140 F   0  0  0  0  0  0  0  0  0  0  0  0
  -21.3960   -4.0560   25.9910 F   0  0  0  0  0  0  0  0  0  0  0  0
  -23.1130  -13.7180   21.2610 C   0  0  0  0  0  0  0  0  0  0  0  0
  -22.4460  -12.9980   22.1540 N   0  0  0  0  0  0  0  0  0  0  0  0
  -22.6500  -14.7650   20.8100 O   0  0  0  0  0  0  0  0  0  0  0  0
  -22.8360  -12.1510   22.5410 H   0  0  0  0  0  0  0  0  0  0  0  0
  -21.5310  -13.3000   22.4600 H   0  0  0  0  0  0  0  0  0  0  0  0
  -25.6920  -15.3930   20.3200 N   0  0  0  0  0  0  0  0  0  0  0  0
  -24.9380  -16.0470   20.5040 H   0  0  0  0  0  0  0  0  0  0  0  0
  -26.5070  -15.8370   19.9160 H   0  0  0  0  0  0  0  0  0  0  0  0
  -30.3230  -20.1290   18.0150 C   0  0  1  0  0  0  0  0  0  0  0  0
  -29.8120  -21.1950   17.3960 F   0  0  0  0  0  0  0  0  0  0  0  0
  -31.6490  -20.2410   17.9570 F   0  0  0  0  0  0  0  0  0  0  0  0
  -29.9650  -19.0640   17.2930 F   0  0  0  0  0  0  0  0  0  0  0  0
  -28.9400  -23.8160   20.3450 C   0  0  0  0  0  0  0  0  0  0  0  0
  -29.1280  -22.5740   19.7350 N   0  0  0  0  0  0  0  0  0  0  0  0
  -29.1030  -23.9530   21.5610 O   0  0  0  0  0  0  0  0  0  0  0  0
  -29.0960  -22.6450   18.7250 H   0  0  0  0  0  0  0  0  0  0  0  0
  -28.4670  -25.1060   19.4790 C   0  0  0  0  0  3  0  0  0  0  0  0
  -28.3780  -24.3630   17.0050 C   0  0  0  0  0  1  0  0  0  0  0  0
  -29.4180  -26.5790   17.5440 C   0  0  0  0  0  1  0  0  0  0  0  0
  -29.1570  -25.1560   18.0760 C   0  0  0  0  0  3  0  0  0  0  0  0
  -28.4900  -26.4900   20.1170 O   0  0  0  0  0  0  0  0  0  0  0  0
  -24.7100  -31.9250   23.1610 C   0  0  0  0  0  0  0  0  0  0  0  0
  -27.3830  -27.3880   20.0360 C   0  0  0  0  0  0  0  0  0  0  0  0
  -23.5310  -30.5220   21.5120 C   0  0  0  0  0  3  0  0  0  0  0  0
  -25.0040  -29.0230   20.0520 C   0  0  0  0  0  0  0  0  0  0  0  0
  -26.0690  -30.8720   21.3310 C   0  0  0  0  0  2  0  0  0  0  0  0
  -26.1700  -29.4990   20.6640 C   0  0  0  0  0  0  0  0  0  0  0  0
  -27.3570  -28.6900   20.6530 C   0  0  0  0  0  3  0  0  0  0  0  0
  -26.1940  -27.0130   19.3650 C   0  0  0  0  0  3  0  0  0  0  0  0
  -25.0230  -27.7900   19.3930 C   0  0  0  0  0  3  0  0  0  0  0  0
  -23.7530  -29.8770   20.1210 C   0  0  0  0  0  2  0  0  0  0  0  0
  -24.7890  -31.1260   22.0570 N   0  0  0  0  0  0  0  0  0  0  0  0
  -23.6210  -32.1750   23.7010 O   0  0  0  0  0  0  0  0  0  0  0  0
  -22.8930  -29.4780   22.4620 C   0  0  0  0  0  0  0  0  0  0  0  0
  -21.5730  -29.2590   22.3260 N   0  0  0  0  0  0  0  0  0  0  0  0
  -23.5850  -28.8700   23.2820 O   0  0  0  0  0  0  0  0  0  0  0  0
  -21.0710  -29.8020   21.6390 H   0  0  0  0  0  0  0  0  0  0  0  0
  -18.2330  -27.9460   22.8040 C   0  0  0  0  0  0  0  0  0  0  0  0
  -20.7810  -28.2920   23.0890 C   0  0  0  0  0  3  0  0  0  0  0  0
  -20.9330  -26.8660   22.5110 C   0  0  0  0  0  2  0  0  0  0  0  0
  -19.8500  -26.5090   21.4890 C   0  0  0  0  0  2  0  0  0  0  0  0
  -18.4600  -26.6050   22.1260 C   0  0  0  0  0  2  0  0  0  0  0  0
  -19.3230  -28.7450   23.2430 C   0  0  0  0  0  0  0  0  0  0  0  0
  -19.0570  -29.9960   23.8380 C   0  0  0  0  0  3  0  0  0  0  0  0
  -17.7350  -30.4510   24.0000 C   0  0  0  0  0  3  0  0  0  0  0  0
  -16.6600  -29.6510   23.5760 C   0  0  0  0  0  3  0  0  0  0  0  0
  -16.9100  -28.4000   22.9840 C   0  0  0  0  0  3  0  0  0  0  0  0
  -25.9790  -32.5830   23.7830 C   0  0  0  0  0  3  0  0  0  0  0  0
  -26.5220  -31.8080   25.0460 C   0  0  1  0  0  0  0  0  0  0  0  0
  -25.4360  -31.5060   26.1050 C   0  0  0  0  0  1  0  0  0  0  0  0
  -27.1600  -30.4620   24.6310 C   0  0  0  0  0  1  0  0  0  0  0  0
  -27.6390  -32.6330   25.7270 C   0  0  0  0  0  1  0  0  0  0  0  0
  -25.6350  -33.9680   24.1370 N   0  0  0  0  0  0  0  0  0  0  0  0
  -25.9340  -35.0430   23.3950 C   0  0  0  0  0  0  0  0  0  0  0  0
  -26.5970  -34.9750   22.3570 O   0  0  0  0  0  0  0  0  0  0  0  0
  -25.0450  -34.0940   24.9460 H   0  0  0  0  0  0  0  0  0  0  0  0
  -24.1600  -36.8010   23.0810 C   0  0  0  0  0  1  0  0  0  0  0  0
  -25.4150  -36.4100   23.8800 C   0  0  0  0  0  3  0  0  0  0  0  0
  -27.5240  -37.3360   24.7300 C   0  0  0  0  0  1  0  0  0  0  0  0
  -26.4210  -37.4900   23.7840 N   0  0  0  0  0  0  0  0  0  0  0  0
  -25.9930  -38.3980   23.9440 H   0  0  0  0  0  0  0  0  0  0  0  0
  1  5  1  0
  2  4  2  0
  2  3  1  0
  3  1  2  0
  4  5  1  0
  6 12  1  0
  6 15  1  0
  7 12  1  0
  8  9  1  0
  8  7  1  0
 10  9  1  0
 10 21  1  0
 10 11  1  0
 12 11  1  0
 13  6  2  0
 14 15  1  0
 14  4  1  0
 15 17  1  0
 16 14  2  0
 18 19  2  0
 19 38  1  0
 20 19  1  0
 20 23  1  0
 21 22  1  0
 21 18  1  0
 22 20  2  0
 23 24  1  0
 24 25  2  0
 26 29  1  0
 26 25  1  0
 27 26  2  0
 28 27  1  0
 28 23  2  0
 29 30  1  0
 30 31  1  0
 31 32  2  0
 33 32  1  0
 33 37  1  0
 34 33  2  0
 35 30  2  0
 35 34  1  0
 36 35  1  0
 38 39  1  0
 39 42  1  0
 39 41  1  0
 40 38  2  0
 43 18  1  0
 43 44  1  0
 45 43  1  0
 46  2  1  0
 46 47  1  6
 48 46  1  0
 49 46  1  0
 50 52  2  0
 51  3  1  0
 51 50  1  0
 53 51  1  0
 54 57  1  0
 54 58  1  0
 54 50  1  0
 55 57  1  0
 56 57  1  0
 59 70  2  0
 60 58  1  0
 60 65  1  0
 61 69  1  0
 61 71  1  0
 62 68  1  0
 62 64  1  0
 63 69  1  0
 64 63  1  0
 65 64  2  0
 66 67  1  0
 66 60  2  0
 67 62  2  0
 68 61  1  0
 69 59  1  0
 71 73  2  0
 72 71  1  0
 74 72  1  0
 75 84  2  0
 75 80  1  0
 76 72  1  0
 76 80  1  0
 77 76  1  0
 78 79  1  0
 78 77  1  0
 79 75  1  0
 80 81  2  0
 81 82  1  0
 83 82  2  0
 84 83  1  0
 85 59  1  0
 85 90  1  0
 85 86  1  0
 86 89  1  1
 86 87  1  0
 88 86  1  0
 90 93  1  0
 91 95  1  0
 91 90  1  0
 92 91  2  0
 95 94  1  0
 97 95  1  0
 97 98  1  0
 97 96  1  0
M  ISO  4   6 100  15 100  54 101  58 101
M  END
>  <TORSDO>  (49) 
F 20

>  <SCORE>  (49) 
-12.496

>  <name>  (49) 
48

>  <ligand_id>  (49) 
48

>  <original_smiles>  (49) 
[H]c1sc(C(=O)N([H])C(=O)N2C([H])([H])C([H])([H])C([H])([H])C([H])(n3nc(-c4c([H])c([H])c(Oc5c([H])c([H])c(F)c([H])c5F)c([H])c4[H])c(C(=O)N([H])[H])c3N([H])[H])C2([H])[H])c(C(F)(F)F)c1N([H])C(=O)C([H])(Oc1c([H])c([H])c2c(c1[H])C([H])([H])N(C(=O)C([H])(N([H])C(=O)C([H])(N([H])C([H])([H])[H])C([H])([H])[H])C(C([H])([H])[H])(C([H])([H])[H])C([H])([H])[H])C([H])(C(=O)N([H])C1([H])c3c([H])c([H])c([H])c([H])c3C([H])([H])C([H])([H])C1([H])[H])C2([H])[H])C([H])(C([H])([H])[H])C([H])([H])[H]

>  <smiles>  (49) 
[H]c1sc(C(=O)N([H])C(=O)N2C([H])([H])C([H])([H])C([H])([H])C([H])(n3nc(-c4c([H])c([H])c(Oc5c([H])c([H])c(F)c([H])c5F)c([H])c4[H])c(C(=O)N([H])[H])c3N([H])[H])C2([H])[H])c(C(F)(F)F)c1N([H])C(=O)C([H])(Oc1c([H])c([H])c2c(c1[H])C([H])([H])N(C(=O)C([H])(N([H])C(=O)C([H])(N([H])C([H])([H])[H])C([H])([H])[H])C(C([H])([H])[H])(C([H])([H])[H])C([H])([H])[H])C([H])(C(=O)N([H])C1([H])c3c([H])c([H])c([H])c([H])c3C([H])([H])C([H])([H])C1([H])[H])C2([H])[H])C([H])(C([H])([H])[H])C([H])([H])[H]

$$$$
49:0:0
     RDKit          3D

 94102  0  0  1  0  0  0  0  0999 V2000
  -28.8810  -20.8970   19.9570 C   0  0  0  0  0  0  0  0  0  0  0  0
  -27.9410  -20.7910   19.1590 O   0  0  0  0  0  0  0  0  0  0  0  0
  -30.5910  -14.7440   20.3590 C   0  0  0  0  0  0  0  0  0  0  0  0
  -30.3760  -12.4660   19.3510 C   0  0  0  0  0  2  0  0  0  0  0  0
  -29.4360  -12.5550   18.1290 C   0  0  0  0  0  2  0  0  0  0  0  0
  -27.9620  -12.3930   18.5630 C   0  0  0  0  0  2  0  0  0  0  0  0
  -27.5970  -13.2700   19.7920 C   0  0  0  0  0  3  0  0  0  0  0  0
  -28.6670  -13.1740   20.9010 C   0  0  0  0  0  2  0  0  0  0  0  0
  -29.9600  -13.5230   20.3010 N   0  0  0  0  0  0  0  0  0  0  0  0
  -31.7830  -14.8320   20.0530 O   0  0  0  0  0  0  0  0  0  0  0  0
  -29.7210  -19.6670   20.3200 C   0  0  0  0  0  0  0  0  0  0  0  0
  -31.0700  -19.6460   20.6520 C   0  0  0  0  0  0  0  0  0  0  0  0
  -30.1310  -17.3070   20.4990 C   0  0  0  0  0  0  0  0  0  0  0  0
  -29.2310  -18.3040   20.2440 N   0  0  0  0  0  0  0  0  0  0  0  0
  -29.7970  -15.8710   20.5020 N   0  0  0  0  0  0  0  0  0  0  0  0
  -31.7050  -18.0060   20.8740 S   0  0  0  0  0  0  0  0  0  0  0  0
  -28.8150  -15.6820   20.5880 H   0  0  0  0  0  0  0  0  0  0  0  0
  -25.2100  -13.8570   20.5280 C   0  0  0  0  0  0  0  0  0  0  0  0
  -24.1490  -13.0780   20.9020 C   0  0  0  0  0  0  0  0  0  0  0  0
  -24.6170  -11.7280   20.8720 C   0  0  0  0  0  0  0  0  0  0  0  0
  -26.2560  -12.9800   20.2890 N   0  0  0  0  0  0  0  0  0  0  0  0
  -25.9060  -11.6950   20.5600 N   0  0  0  0  0  0  0  0  0  0  0  0
  -23.8920  -10.4660   21.0620 C   0  0  0  0  0  0  0  0  0  0  0  0
  -24.3340   -9.4930   21.9850 C   0  0  0  0  0  3  0  0  0  0  0  0
  -23.6140   -8.2920   22.1660 C   0  0  0  0  0  3  0  0  0  0  0  0
  -22.4310   -8.0570   21.4240 C   0  0  0  0  0  0  0  0  0  0  0  0
  -22.0040   -9.0180   20.4900 C   0  0  0  0  0  3  0  0  0  0  0  0
  -22.7280  -10.2100   20.3070 C   0  0  0  0  0  3  0  0  0  0  0  0
  -21.6760   -6.9110   21.5150 O   0  0  0  0  0  0  0  0  0  0  0  0
  -21.6500   -6.1560   22.6590 C   0  0  0  0  0  0  0  0  0  0  0  0
  -21.2600   -6.6980   23.9020 C   0  0  0  0  0  3  0  0  0  0  0  0
  -21.1810   -5.8690   25.0400 C   0  0  0  0  0  3  0  0  0  0  0  0
  -21.4860   -4.5010   24.9350 C   0  0  0  0  0  0  0  0  0  0  0  0
  -21.8710   -3.9570   23.6980 C   0  0  0  0  0  3  0  0  0  0  0  0
  -21.9530   -4.7830   22.5620 C   0  0  0  0  0  0  0  0  0  0  0  0
  -22.3030   -4.2490   21.3670 F   0  0  0  0  0  0  0  0  0  0  0  0
  -21.4030   -3.7020   26.0240 F   0  0  0  0  0  0  0  0  0  0  0  0
  -22.7510  -13.5500   21.1760 C   0  0  0  0  0  0  0  0  0  0  0  0
  -22.0270  -12.8530   22.0470 N   0  0  0  0  0  0  0  0  0  0  0  0
  -22.3090  -14.5730   20.6550 O   0  0  0  0  0  0  0  0  0  0  0  0
  -22.3940  -12.0220   22.4870 H   0  0  0  0  0  0  0  0  0  0  0  0
  -21.0890  -13.1510   22.2710 H   0  0  0  0  0  0  0  0  0  0  0  0
  -25.3710  -15.2270   20.3430 N   0  0  0  0  0  0  0  0  0  0  0  0
  -24.6030  -15.8820   20.4480 H   0  0  0  0  0  0  0  0  0  0  0  0
  -26.2060  -15.6610   19.9730 H   0  0  0  0  0  0  0  0  0  0  0  0
  -31.9870  -20.6920   20.7940 N   0  0  0  0  0  0  0  0  0  0  0  0
  -31.8060  -21.6660   20.5760 H   0  0  0  0  0  0  0  0  0  0  0  0
  -32.9310  -20.5470   21.1360 H   0  0  0  0  0  0  0  0  0  0  0  0
  -29.0360  -22.3310   20.6710 C   0  0  0  0  0  2  0  0  0  0  0  0
  -28.5880  -23.6600   18.4330 C   0  0  0  0  0  1  0  0  0  0  0  0
  -30.5160  -24.2550   19.8630 C   0  0  0  0  0  1  0  0  0  0  0  0
  -29.0480  -23.7830   19.9020 C   0  0  2  0  0  0  0  0  0  0  0  0
  -28.1830  -24.9760   20.5880 C   0  0  0  0  0  2  0  0  0  0  0  0
  -28.3500  -26.4230   20.2030 O   0  0  0  0  0  0  0  0  0  0  0  0
  -24.6080  -31.8830   23.2410 C   0  0  0  0  0  0  0  0  0  0  0  0
  -27.2290  -27.2850   20.2040 C   0  0  0  0  0  0  0  0  0  0  0  0
  -23.4080  -30.4760   21.6070 C   0  0  0  0  0  3  0  0  0  0  0  0
  -24.8630  -28.9120   20.1900 C   0  0  0  0  0  0  0  0  0  0  0  0
  -25.9520  -30.7870   21.4230 C   0  0  0  0  0  2  0  0  0  0  0  0
  -26.0340  -29.4020   20.7830 C   0  0  0  0  0  0  0  0  0  0  0  0
  -27.2210  -28.6030   20.7740 C   0  0  0  0  0  3  0  0  0  0  0  0
  -26.0350  -26.8590   19.5860 C   0  0  0  0  0  3  0  0  0  0  0  0
  -24.8680  -27.6490   19.5790 C   0  0  0  0  0  3  0  0  0  0  0  0
  -23.6250  -29.7870   20.2300 C   0  0  0  0  0  2  0  0  0  0  0  0
  -24.6760  -31.0680   22.1460 N   0  0  0  0  0  0  0  0  0  0  0  0
  -23.5240  -32.1640   23.7740 O   0  0  0  0  0  0  0  0  0  0  0  0
  -22.7420  -29.4670   22.5730 C   0  0  0  0  0  0  0  0  0  0  0  0
  -21.4150  -29.2890   22.4450 N   0  0  0  0  0  0  0  0  0  0  0  0
  -23.4180  -28.8470   23.3960 O   0  0  0  0  0  0  0  0  0  0  0  0
  -20.9270  -29.8450   21.7570 H   0  0  0  0  0  0  0  0  0  0  0  0
  -18.0390  -28.0790   22.9400 C   0  0  0  0  0  0  0  0  0  0  0  0
  -20.5950  -28.3530   23.2170 C   0  0  0  0  0  3  0  0  0  0  0  0
  -20.7060  -26.9170   22.6530 C   0  0  0  0  0  2  0  0  0  0  0  0
  -19.6090  -26.5830   21.6380 C   0  0  0  0  0  2  0  0  0  0  0  0
  -18.2240  -26.7280   22.2740 C   0  0  0  0  0  2  0  0  0  0  0  0
  -19.1530  -28.8490   23.3700 C   0  0  0  0  0  0  0  0  0  0  0  0
  -18.9250  -30.1150   23.9540 C   0  0  0  0  0  3  0  0  0  0  0  0
  -17.6200  -30.6130   24.1110 C   0  0  0  0  0  3  0  0  0  0  0  0
  -16.5200  -29.8400   23.6980 C   0  0  0  0  0  3  0  0  0  0  0  0
  -16.7310  -28.5750   23.1200 C   0  0  0  0  0  3  0  0  0  0  0  0
  -25.8910  -32.5190   23.8630 C   0  0  0  0  0  3  0  0  0  0  0  0
  -26.4050  -31.7550   25.1450 C   0  0  1  0  0  0  0  0  0  0  0  0
  -25.3120  -31.5250   26.2140 C   0  0  0  0  0  1  0  0  0  0  0  0
  -26.9830  -30.3730   24.7620 C   0  0  0  0  0  1  0  0  0  0  0  0
  -27.5530  -32.5520   25.8060 C   0  0  0  0  0  1  0  0  0  0  0  0
  -25.5780  -33.9190   24.1900 N   0  0  0  0  0  0  0  0  0  0  0  0
  -25.9080  -34.9730   23.4300 C   0  0  0  0  0  0  0  0  0  0  0  0
  -26.5760  -34.8690   22.3980 O   0  0  0  0  0  0  0  0  0  0  0  0
  -24.9860  -34.0750   24.9920 H   0  0  0  0  0  0  0  0  0  0  0  0
  -24.1790  -36.7670   23.0760 C   0  0  0  0  0  1  0  0  0  0  0  0
  -25.4210  -36.3620   23.8870 C   0  0  0  0  0  3  0  0  0  0  0  0
  -27.5560  -37.2490   24.7120 C   0  0  0  0  0  1  0  0  0  0  0  0
  -26.4520  -37.4160   23.7730 N   0  0  0  0  0  0  0  0  0  0  0  0
  -26.0450  -38.3350   23.9230 H   0  0  0  0  0  0  0  0  0  0  0  0
  1 11  1  0
  1 49  1  0
  2  1  2  0
  3 15  1  0
  4  9  1  0
  5  6  1  0
  5  4  1  0
  7  6  1  0
  7 21  1  0
  7  8  1  0
  9  3  1  0
  9  8  1  0
 10  3  2  0
 11 12  2  0
 12 46  1  0
 12 16  1  0
 13 15  1  0
 13 16  1  0
 14 11  1  0
 14 13  2  0
 15 17  1  0
 18 19  2  0
 19 38  1  0
 20 19  1  0
 20 23  1  0
 21 18  1  0
 21 22  1  0
 22 20  2  0
 23 24  1  0
 24 25  2  0
 26 29  1  0
 26 25  1  0
 27 26  2  0
 28 27  1  0
 28 23  2  0
 29 30  1  0
 30 31  1  0
 31 32  2  0
 33 32  1  0
 33 37  1  0
 34 33  2  0
 35 30  2  0
 35 34  1  0
 36 35  1  0
 38 39  1  0
 39 42  1  0
 39 41  1  0
 40 38  2  0
 43 44  1  0
 43 18  1  0
 45 43  1  0
 46 48  1  0
 47 46  1  0
 52 50  1  6
 51 52  1  0
 52 53  1  0
 52 49  1  0
 54 56  1  0
 54 53  1  0
 55 66  2  0
 56 61  1  0
 57 65  1  0
 57 67  1  0
 58 64  1  0
 58 60  1  0
 59 65  1  0
 60 59  1  0
 61 60  2  0
 62 56  2  0
 63 62  1  0
 63 58  2  0
 64 57  1  0
 65 55  1  0
 67 69  2  0
 68 67  1  0
 70 68  1  0
 71 80  2  0
 71 76  1  0
 72 68  1  0
 72 76  1  0
 73 72  1  0
 74 75  1  0
 74 73  1  0
 75 71  1  0
 76 77  2  0
 77 78  1  0
 79 78  2  0
 80 79  1  0
 81 55  1  0
 81 86  1  0
 81 82  1  0
 82 85  1  1
 82 83  1  0
 84 82  1  0
 86 89  1  0
 87 91  1  0
 87 86  1  0
 88 87  2  0
 91 90  1  0
 93 91  1  0
 93 94  1  0
 93 92  1  0
M  ISO  4   3 100  15 100  53 101  54 101
M  END
>  <TORSDO>  (50) 
F 20

>  <SCORE>  (50) 
-14.261

>  <name>  (50) 
49

>  <ligand_id>  (50) 
49

>  <original_smiles>  (50) 
[H]c1c([H])c([H])c2c(c1[H])C([H])([H])C([H])([H])C([H])([H])C2([H])N([H])C(=O)C1([H])N(C(=O)C([H])(N([H])C(=O)C([H])(N([H])C([H])([H])[H])C([H])([H])[H])C(C([H])([H])[H])(C([H])([H])[H])C([H])([H])[H])C([H])([H])c2c([H])c(OC([H])([H])C(C([H])([H])[H])(C([H])([H])[H])C([H])([H])C(=O)c3nc(N([H])C(=O)N4C([H])([H])C([H])([H])C([H])([H])C([H])(n5nc(-c6c([H])c([H])c(Oc7c([H])c([H])c(F)c([H])c7F)c([H])c6[H])c(C(=O)N([H])[H])c5N([H])[H])C4([H])[H])sc3N([H])[H])c([H])c([H])c2C1([H])[H]

>  <smiles>  (50) 
[H]c1c([H])c([H])c2c(c1[H])C([H])([H])C([H])([H])C([H])([H])C2([H])N([H])C(=O)C1([H])N(C(=O)C([H])(N([H])C(=O)C([H])(N([H])C([H])([H])[H])C([H])([H])[H])C(C([H])([H])[H])(C([H])([H])[H])C([H])([H])[H])C([H])([H])c2c([H])c(OC([H])([H])C(C([H])([H])[H])(C([H])([H])[H])C([H])([H])C(=O)c3nc(N([H])C(=O)N4C([H])([H])C([H])([H])C([H])([H])C([H])(n5nc(-c6c([H])c([H])c(Oc7c([H])c([H])c(F)c([H])c7F)c([H])c6[H])c(C(=O)N([H])[H])c5N([H])[H])C4([H])[H])sc3N([H])[H])c([H])c([H])c2C1([H])[H]

$$$$
50:0:0
     RDKit          3D

 94102  0  0  1  0  0  0  0  0999 V2000
  -29.0200  -21.1300   20.0670 C   0  0  0  0  0  0  0  0  0  0  0  0
  -28.4000  -21.2120   19.0040 O   0  0  0  0  0  0  0  0  0  0  0  0
  -30.5600  -14.8460   20.3030 C   0  0  0  0  0  0  0  0  0  0  0  0
  -30.4020  -12.5600   19.2920 C   0  0  0  0  0  2  0  0  0  0  0  0
  -29.4300  -12.6110   18.0910 C   0  0  0  0  0  2  0  0  0  0  0  0
  -27.9710  -12.4160   18.5540 C   0  0  0  0  0  2  0  0  0  0  0  0
  -27.6130  -13.3030   19.7750 C   0  0  0  0  0  3  0  0  0  0  0  0
  -28.6970  -13.2130   20.8710 C   0  0  0  0  0  2  0  0  0  0  0  0
  -29.9680  -13.6020   20.2460 N   0  0  0  0  0  0  0  0  0  0  0  0
  -31.7530  -14.9630   20.0070 O   0  0  0  0  0  0  0  0  0  0  0  0
  -29.6450  -19.7960   20.5290 C   0  0  0  0  0  0  0  0  0  0  0  0
  -30.7530  -19.6830   21.3630 C   0  0  0  0  0  0  0  0  0  0  0  0
  -30.0060  -17.4030   20.5730 C   0  0  0  0  0  0  0  0  0  0  0  0
  -29.2480  -18.4560   20.1040 N   0  0  0  0  0  0  0  0  0  0  0  0
  -29.7210  -15.9540   20.3950 N   0  0  0  0  0  0  0  0  0  0  0  0
  -31.2980  -18.0170   21.5960 S   0  0  0  0  0  0  0  0  0  0  0  0
  -28.7390  -15.7190   20.4010 H   0  0  0  0  0  0  0  0  0  0  0  0
  -25.2470  -13.8920   20.5620 C   0  0  0  0  0  0  0  0  0  0  0  0
  -24.1860  -13.1140   20.9530 C   0  0  0  0  0  0  0  0  0  0  0  0
  -24.6430  -11.7640   20.8870 C   0  0  0  0  0  0  0  0  0  0  0  0
  -26.2800  -13.0100   20.2920 N   0  0  0  0  0  0  0  0  0  0  0  0
  -25.9270  -11.7260   20.5490 N   0  0  0  0  0  0  0  0  0  0  0  0
  -23.9160  -10.5010   21.0670 C   0  0  0  0  0  0  0  0  0  0  0  0
  -24.3530   -9.5240   21.9870 C   0  0  0  0  0  3  0  0  0  0  0  0
  -23.6260   -8.3270   22.1570 C   0  0  0  0  0  3  0  0  0  0  0  0
  -22.4510   -8.0960   21.4060 C   0  0  0  0  0  0  0  0  0  0  0  0
  -22.0330   -9.0620   20.4730 C   0  0  0  0  0  3  0  0  0  0  0  0
  -22.7590  -10.2520   20.3020 C   0  0  0  0  0  3  0  0  0  0  0  0
  -21.6930   -6.9500   21.4890 O   0  0  0  0  0  0  0  0  0  0  0  0
  -21.6330   -6.2080   22.6420 C   0  0  0  0  0  0  0  0  0  0  0  0
  -21.1460   -6.7510   23.8510 C   0  0  0  0  0  3  0  0  0  0  0  0
  -21.0380   -5.9350   24.9940 C   0  0  0  0  0  3  0  0  0  0  0  0
  -21.4020   -4.5770   24.9270 C   0  0  0  0  0  0  0  0  0  0  0  0
  -21.8810   -4.0330   23.7230 C   0  0  0  0  0  3  0  0  0  0  0  0
  -21.9940   -4.8470   22.5820 C   0  0  0  0  0  0  0  0  0  0  0  0
  -22.4360   -4.3150   21.4180 F   0  0  0  0  0  0  0  0  0  0  0  0
  -21.2890   -3.7910   26.0230 F   0  0  0  0  0  0  0  0  0  0  0  0
  -22.8000  -13.5950   21.2600 C   0  0  0  0  0  0  0  0  0  0  0  0
  -22.0820  -12.8810   22.1230 N   0  0  0  0  0  0  0  0  0  0  0  0
  -22.3590  -14.6350   20.7730 O   0  0  0  0  0  0  0  0  0  0  0  0
  -22.4480  -12.0370   22.5370 H   0  0  0  0  0  0  0  0  0  0  0  0
  -21.1520  -13.1850   22.3730 H   0  0  0  0  0  0  0  0  0  0  0  0
  -25.4020  -15.2600   20.3820 N   0  0  0  0  0  0  0  0  0  0  0  0
  -24.5990  -15.8790   20.4230 H   0  0  0  0  0  0  0  0  0  0  0  0
  -26.1600  -15.6490   19.8340 H   0  0  0  0  0  0  0  0  0  0  0  0
  -31.5110  -20.6720   21.9970 N   0  0  0  0  0  0  0  0  0  0  0  0
  -31.3610  -21.6660   21.8360 H   0  0  0  0  0  0  0  0  0  0  0  0
  -32.3080  -20.4890   22.6050 H   0  0  0  0  0  0  0  0  0  0  0  0
  -29.1770  -22.3030   20.9160 O   0  0  0  0  0  0  0  0  0  0  0  0
  -29.2270  -23.7670   20.5490 C   0  0  0  0  0  2  0  0  0  0  0  0
  -27.5280  -24.1790   18.8640 C   0  0  0  0  0  1  0  0  0  0  0  0
  -26.9310  -24.4250   21.3610 C   0  0  0  0  0  1  0  0  0  0  0  0
  -27.9670  -24.7420   20.2470 C   0  0  1  0  0  0  0  0  0  0  0  0
  -28.2080  -26.2750   20.2620 O   0  0  0  0  0  0  0  0  0  0  0  0
  -24.6040  -31.9210   23.2480 C   0  0  0  0  0  0  0  0  0  0  0  0
  -27.1470  -27.2370   20.2090 C   0  0  0  0  0  0  0  0  0  0  0  0
  -23.4030  -30.5370   21.6020 C   0  0  0  0  0  3  0  0  0  0  0  0
  -24.8380  -28.9800   20.1810 C   0  0  0  0  0  0  0  0  0  0  0  0
  -25.9550  -30.8030   21.4420 C   0  0  0  0  0  2  0  0  0  0  0  0
  -26.0180  -29.4160   20.7920 C   0  0  0  0  0  0  0  0  0  0  0  0
  -27.1760  -28.5600   20.7980 C   0  0  0  0  0  3  0  0  0  0  0  0
  -25.9320  -26.8950   19.5810 C   0  0  0  0  0  3  0  0  0  0  0  0
  -24.8030  -27.7300   19.5620 C   0  0  0  0  0  3  0  0  0  0  0  0
  -23.6190  -29.8750   20.2190 C   0  0  0  0  0  2  0  0  0  0  0  0
  -24.6770  -31.1050   22.1530 N   0  0  0  0  0  0  0  0  0  0  0  0
  -23.5150  -32.2060   23.7730 O   0  0  0  0  0  0  0  0  0  0  0  0
  -22.7230  -29.5210   22.5500 C   0  0  0  0  0  0  0  0  0  0  0  0
  -21.3980  -29.3520   22.4090 N   0  0  0  0  0  0  0  0  0  0  0  0
  -23.3890  -28.8860   23.3720 O   0  0  0  0  0  0  0  0  0  0  0  0
  -20.9170  -29.9190   21.7270 H   0  0  0  0  0  0  0  0  0  0  0  0
  -18.0100  -28.1830   22.9280 C   0  0  0  0  0  0  0  0  0  0  0  0
  -20.5740  -28.4140   23.1760 C   0  0  0  0  0  3  0  0  0  0  0  0
  -20.6550  -26.9880   22.5900 C   0  0  0  0  0  2  0  0  0  0  0  0
  -19.5420  -26.6870   21.5810 C   0  0  0  0  0  2  0  0  0  0  0  0
  -18.1660  -26.8390   22.2350 C   0  0  0  0  0  2  0  0  0  0  0  0
  -19.1430  -28.9280   23.3570 C   0  0  0  0  0  0  0  0  0  0  0  0
  -18.9420  -30.1830   23.9690 C   0  0  0  0  0  3  0  0  0  0  0  0
  -17.6470  -30.6980   24.1540 C   0  0  0  0  0  3  0  0  0  0  0  0
  -16.5290  -29.9540   23.7370 C   0  0  0  0  0  3  0  0  0  0  0  0
  -16.7140  -28.7000   23.1270 C   0  0  0  0  0  3  0  0  0  0  0  0
  -25.8800  -32.5490   23.8820 C   0  0  0  0  0  3  0  0  0  0  0  0
  -26.3700  -31.7850   25.1720 C   0  0  1  0  0  0  0  0  0  0  0  0
  -25.2550  -31.5620   26.2210 C   0  0  0  0  0  1  0  0  0  0  0  0
  -26.9550  -30.4020   24.8000 C   0  0  0  0  0  1  0  0  0  0  0  0
  -27.5100  -32.5830   25.8430 C   0  0  0  0  0  1  0  0  0  0  0  0
  -25.5700  -33.9520   24.2040 N   0  0  0  0  0  0  0  0  0  0  0  0
  -25.9000  -34.9990   23.4340 C   0  0  0  0  0  0  0  0  0  0  0  0
  -26.5650  -34.8810   22.4010 O   0  0  0  0  0  0  0  0  0  0  0  0
  -24.9880  -34.1160   25.0100 H   0  0  0  0  0  0  0  0  0  0  0  0
  -24.1810  -36.7980   23.0640 C   0  0  0  0  0  1  0  0  0  0  0  0
  -25.4190  -36.3920   23.8810 C   0  0  0  0  0  3  0  0  0  0  0  0
  -27.5500  -37.2780   24.7210 C   0  0  0  0  0  1  0  0  0  0  0  0
  -26.4580  -37.4400   23.7670 N   0  0  0  0  0  0  0  0  0  0  0  0
  -26.0500  -38.3600   23.9060 H   0  0  0  0  0  0  0  0  0  0  0  0
  1 11  1  0
  1 49  1  0
  2  1  2  0
  3 15  1  0
  4  9  1  0
  5  6  1  0
  5  4  1  0
  7  6  1  0
  7 21  1  0
  7  8  1  0
  9  3  1  0
  9  8  1  0
 10  3  2  0
 11 12  2  0
 12 16  1  0
 12 46  1  0
 13 16  1  0
 14 11  1  0
 14 13  2  0
 15 17  1  0
 15 13  1  0
 18 19  2  0
 19 38  1  0
 20 19  1  0
 20 23  1  0
 21 22  1  0
 21 18  1  0
 22 20  2  0
 23 24  1  0
 24 25  2  0
 26 29  1  0
 26 25  1  0
 27 26  2  0
 28 27  1  0
 28 23  2  0
 29 30  1  0
 30 31  1  0
 31 32  2  0
 33 32  1  0
 33 37  1  0
 34 33  2  0
 35 30  2  0
 35 34  1  0
 36 35  1  0
 38 39  1  0
 39 42  1  0
 39 41  1  0
 40 38  2  0
 43 44  1  0
 43 18  1  0
 45 43  1  0
 46 48  1  0
 47 46  1  0
 50 49  1  0
 53 51  1  6
 53 54  1  0
 53 50  1  0
 53 52  1  0
 55 66  2  0
 56 54  1  0
 56 61  1  0
 57 65  1  0
 57 67  1  0
 58 64  1  0
 58 60  1  0
 59 65  1  0
 60 61  2  0
 60 59  1  0
 62 56  2  0
 63 62  1  0
 63 58  2  0
 64 57  1  0
 65 55  1  0
 67 69  2  0
 68 67  1  0
 70 68  1  0
 71 80  2  0
 71 76  1  0
 72 68  1  0
 72 76  1  0
 73 72  1  0
 74 75  1  0
 74 73  1  0
 75 71  1  0
 76 77  2  0
 77 78  1  0
 79 78  2  0
 80 79  1  0
 81 55  1  0
 81 86  1  0
 81 82  1  0
 82 85  1  1
 82 83  1  0
 84 82  1  0
 86 89  1  0
 87 91  1  0
 87 86  1  0
 88 87  2  0
 91 90  1  0
 93 91  1  0
 93 94  1  0
 93 92  1  0
M  ISO  4   3 100  15 100  53 101  54 101
M  END
>  <TORSDO>  (51) 
F 20

>  <SCORE>  (51) 
-14.326

>  <name>  (51) 
50

>  <ligand_id>  (51) 
50

>  <original_smiles>  (51) 
[H]c1c([H])c([H])c2c(c1[H])C([H])([H])C([H])([H])C([H])([H])C2([H])N([H])C(=O)C1([H])N(C(=O)C([H])(N([H])C(=O)C([H])(N([H])C([H])([H])[H])C([H])([H])[H])C(C([H])([H])[H])(C([H])([H])[H])C([H])([H])[H])C([H])([H])c2c([H])c(OC(C([H])([H])[H])(C([H])([H])[H])C([H])([H])OC(=O)c3nc(N([H])C(=O)N4C([H])([H])C([H])([H])C([H])([H])C([H])(n5nc(-c6c([H])c([H])c(Oc7c([H])c([H])c(F)c([H])c7F)c([H])c6[H])c(C(=O)N([H])[H])c5N([H])[H])C4([H])[H])sc3N([H])[H])c([H])c([H])c2C1([H])[H]

>  <smiles>  (51) 
[H]c1c([H])c([H])c2c(c1[H])C([H])([H])C([H])([H])C([H])([H])C2([H])N([H])C(=O)C1([H])N(C(=O)C([H])(N([H])C(=O)C([H])(N([H])C([H])([H])[H])C([H])([H])[H])C(C([H])([H])[H])(C([H])([H])[H])C([H])([H])[H])C([H])([H])c2c([H])c(OC(C([H])([H])[H])(C([H])([H])[H])C([H])([H])OC(=O)c3nc(N([H])C(=O)N4C([H])([H])C([H])([H])C([H])([H])C([H])(n5nc(-c6c([H])c([H])c(Oc7c([H])c([H])c(F)c([H])c7F)c([H])c6[H])c(C(=O)N([H])[H])c5N([H])[H])C4([H])[H])sc3N([H])[H])c([H])c([H])c2C1([H])[H]

$$$$
51:0:0
     RDKit          3D

 95103  0  0  1  0  0  0  0  0999 V2000
  -29.6620  -18.6620   20.1280 C   0  0  0  0  0  0  0  0  0  0  0  0
  -29.4720  -18.8530   18.7630 C   0  0  0  0  0  0  0  0  0  0  0  0
  -29.1250  -21.0350   20.0160 C   0  0  0  0  0  0  0  0  0  0  0  0
  -29.0680  -23.6630   20.1640 C   0  0  0  0  0  0  0  0  0  0  0  0
  -29.4230  -19.9400   20.8070 N   0  0  0  0  0  0  0  0  0  0  0  0
  -28.6030  -22.3730   20.4220 N   0  0  0  0  0  0  0  0  0  0  0  0
  -30.2770  -23.9090   20.2280 O   0  0  0  0  0  0  0  0  0  0  0  0
  -29.0770  -20.5240   18.3330 S   0  0  0  0  0  0  0  0  0  0  0  0
  -27.6020  -22.3630   20.5490 H   0  0  0  0  0  0  0  0  0  0  0  0
  -30.5980  -14.8530   20.4390 C   0  0  0  0  0  0  0  0  0  0  0  0
  -30.4100  -12.5570   19.4290 C   0  0  0  0  0  2  0  0  0  0  0  0
  -29.4950  -12.5700   18.1880 C   0  0  0  0  0  2  0  0  0  0  0  0
  -28.0180  -12.3940   18.5940 C   0  0  0  0  0  2  0  0  0  0  0  0
  -27.6100  -13.3040   19.7840 C   0  0  0  0  0  3  0  0  0  0  0  0
  -28.6530  -13.2740   20.9190 C   0  0  0  0  0  2  0  0  0  0  0  0
  -29.9410  -13.6430   20.3210 N   0  0  0  0  0  0  0  0  0  0  0  0
  -31.8190  -14.8700   20.2660 O   0  0  0  0  0  0  0  0  0  0  0  0
  -30.2790  -17.3380   20.7680 C   0  0  0  0  0  0  0  0  0  0  0  0
  -29.8610  -16.0440   20.4390 N   0  0  0  0  0  0  0  0  0  0  0  0
  -31.1730  -17.4890   21.6100 O   0  0  0  0  0  0  0  0  0  0  0  0
  -28.9260  -15.9800   20.0780 H   0  0  0  0  0  0  0  0  0  0  0  0
  -25.2100  -13.8900   20.4620 C   0  0  0  0  0  0  0  0  0  0  0  0
  -24.1400  -13.1160   20.8210 C   0  0  0  0  0  0  0  0  0  0  0  0
  -24.6100  -11.7660   20.8200 C   0  0  0  0  0  0  0  0  0  0  0  0
  -26.2620  -13.0120   20.2600 N   0  0  0  0  0  0  0  0  0  0  0  0
  -25.9080  -11.7310   20.5410 N   0  0  0  0  0  0  0  0  0  0  0  0
  -23.8840  -10.5030   21.0090 C   0  0  0  0  0  0  0  0  0  0  0  0
  -24.3000   -9.5480   21.9640 C   0  0  0  0  0  3  0  0  0  0  0  0
  -23.5730   -8.3520   22.1420 C   0  0  0  0  0  3  0  0  0  0  0  0
  -22.4160   -8.1010   21.3650 C   0  0  0  0  0  0  0  0  0  0  0  0
  -22.0220   -9.0450   20.4000 C   0  0  0  0  0  3  0  0  0  0  0  0
  -22.7490  -10.2330   20.2200 C   0  0  0  0  0  3  0  0  0  0  0  0
  -21.6630   -6.9550   21.4520 O   0  0  0  0  0  0  0  0  0  0  0  0
  -21.5890   -6.2280   22.6130 C   0  0  0  0  0  0  0  0  0  0  0  0
  -21.1280   -6.7980   23.8200 C   0  0  0  0  0  3  0  0  0  0  0  0
  -21.0020   -5.9960   24.9730 C   0  0  0  0  0  3  0  0  0  0  0  0
  -21.3270   -4.6270   24.9190 C   0  0  0  0  0  0  0  0  0  0  0  0
  -21.7810   -4.0590   23.7160 C   0  0  0  0  0  3  0  0  0  0  0  0
  -21.9090   -4.8560   22.5660 C   0  0  0  0  0  0  0  0  0  0  0  0
  -22.3260   -4.2980   21.4040 F   0  0  0  0  0  0  0  0  0  0  0  0
  -21.1990   -3.8560   26.0230 F   0  0  0  0  0  0  0  0  0  0  0  0
  -22.7350  -13.5900   21.0520 C   0  0  0  0  0  0  0  0  0  0  0  0
  -21.9880  -12.9030   21.9080 N   0  0  0  0  0  0  0  0  0  0  0  0
  -22.3080  -14.6070   20.5060 O   0  0  0  0  0  0  0  0  0  0  0  0
  -22.3470  -12.0790   22.3700 H   0  0  0  0  0  0  0  0  0  0  0  0
  -21.0440  -13.2020   22.1020 H   0  0  0  0  0  0  0  0  0  0  0  0
  -25.3710  -15.2580   20.2650 N   0  0  0  0  0  0  0  0  0  0  0  0
  -24.6020  -15.9130   20.3520 H   0  0  0  0  0  0  0  0  0  0  0  0
  -26.2160  -15.6910   19.9160 H   0  0  0  0  0  0  0  0  0  0  0  0
  -29.6030  -17.9570   17.6990 N   0  0  0  0  0  0  0  0  0  0  0  0
  -29.9750  -17.0150   17.7690 H   0  0  0  0  0  0  0  0  0  0  0  0
  -29.5230  -18.2560   16.7300 H   0  0  0  0  0  0  0  0  0  0  0  0
  -28.1610  -24.9210   18.2000 C   0  0  0  0  0  1  0  0  0  0  0  0
  -28.0650  -24.8710   19.7440 C   0  0  0  0  0  3  0  0  0  0  0  0
  -28.2780  -26.3080   20.2250 O   0  0  0  0  0  0  0  0  0  0  0  0
  -24.6200  -31.9070   23.2370 C   0  0  0  0  0  0  0  0  0  0  0  0
  -27.1960  -27.2480   20.1820 C   0  0  0  0  0  0  0  0  0  0  0  0
  -23.4160  -30.5170   21.5990 C   0  0  0  0  0  3  0  0  0  0  0  0
  -24.8570  -28.9570   20.1750 C   0  0  0  0  0  0  0  0  0  0  0  0
  -25.9680  -30.7940   21.4280 C   0  0  0  0  0  2  0  0  0  0  0  0
  -26.0390  -29.4100   20.7740 C   0  0  0  0  0  0  0  0  0  0  0  0
  -27.2100  -28.5710   20.7630 C   0  0  0  0  0  3  0  0  0  0  0  0
  -25.9690  -26.8790   19.5760 C   0  0  0  0  0  3  0  0  0  0  0  0
  -24.8310  -27.6990   19.5650 C   0  0  0  0  0  3  0  0  0  0  0  0
  -23.6300  -29.8450   20.2200 C   0  0  0  0  0  2  0  0  0  0  0  0
  -24.6890  -31.0900   22.1440 N   0  0  0  0  0  0  0  0  0  0  0  0
  -23.5340  -32.1930   23.7640 O   0  0  0  0  0  0  0  0  0  0  0  0
  -22.7400  -29.5050   22.5570 C   0  0  0  0  0  0  0  0  0  0  0  0
  -21.4130  -29.3340   22.4260 N   0  0  0  0  0  0  0  0  0  0  0  0
  -23.4100  -28.8760   23.3810 O   0  0  0  0  0  0  0  0  0  0  0  0
  -20.9290  -29.8900   21.7350 H   0  0  0  0  0  0  0  0  0  0  0  0
  -18.0260  -28.1590   22.9340 C   0  0  0  0  0  0  0  0  0  0  0  0
  -20.5870  -28.4010   23.1960 C   0  0  0  0  0  3  0  0  0  0  0  0
  -20.6770  -26.9700   22.6160 C   0  0  0  0  0  2  0  0  0  0  0  0
  -19.5690  -26.6580   21.6050 C   0  0  0  0  0  2  0  0  0  0  0  0
  -18.1910  -26.8110   22.2540 C   0  0  0  0  0  2  0  0  0  0  0  0
  -19.1500  -28.9130   23.3630 C   0  0  0  0  0  0  0  0  0  0  0  0
  -18.9410  -30.1740   23.9600 C   0  0  0  0  0  3  0  0  0  0  0  0
  -17.6400  -30.6830   24.1340 C   0  0  0  0  0  3  0  0  0  0  0  0
  -16.5300  -29.9250   23.7220 C   0  0  0  0  0  3  0  0  0  0  0  0
  -16.7230  -28.6660   23.1270 C   0  0  0  0  0  3  0  0  0  0  0  0
  -25.8990  -32.5400   23.8630 C   0  0  0  0  0  3  0  0  0  0  0  0
  -25.5880  -33.9390   24.1960 N   0  0  0  0  0  0  0  0  0  0  0  0
  -25.9180  -34.9950   23.4410 C   0  0  0  0  0  0  0  0  0  0  0  0
  -26.5830  -34.8950   22.4060 O   0  0  0  0  0  0  0  0  0  0  0  0
  -24.9970  -34.0910   25.0000 H   0  0  0  0  0  0  0  0  0  0  0  0
  -24.1910  -36.7940   23.0980 C   0  0  0  0  0  1  0  0  0  0  0  0
  -25.4340  -36.3820   23.9050 C   0  0  0  0  0  3  0  0  0  0  0  0
  -27.5690  -37.2630   24.7380 C   0  0  0  0  0  1  0  0  0  0  0  0
  -26.4670  -37.4340   23.7950 N   0  0  0  0  0  0  0  0  0  0  0  0
  -26.0630  -38.3550   23.9440 H   0  0  0  0  0  0  0  0  0  0  0  0
  -26.4070  -31.7690   25.1430 C   0  0  1  0  0  0  0  0  0  0  0  0
  -25.3090  -31.5340   26.2070 C   0  0  0  0  0  1  0  0  0  0  0  0
  -26.9900  -30.3900   24.7590 C   0  0  0  0  0  1  0  0  0  0  0  0
  -27.5560  -32.5620   25.8100 C   0  0  0  0  0  1  0  0  0  0  0  0
  1 18  1  0
  1  5  1  0
  2  1  2  0
  3  6  1  0
  3  5  2  0
  4  7  2  0
  4  6  1  0
  6  9  1  0
  8  2  1  0
  8  3  1  0
 10 19  1  0
 11 16  1  0
 12 13  1  0
 12 11  1  0
 14 13  1  0
 14 25  1  0
 14 15  1  0
 16 10  1  0
 16 15  1  0
 17 10  2  0
 18 20  2  0
 19 18  1  0
 21 19  1  0
 22 23  2  0
 23 42  1  0
 24 23  1  0
 24 27  1  0
 25 22  1  0
 25 26  1  0
 26 24  2  0
 27 28  1  0
 28 29  2  0
 30 33  1  0
 30 29  1  0
 31 30  2  0
 32 31  1  0
 32 27  2  0
 33 34  1  0
 34 35  1  0
 35 36  2  0
 37 36  1  0
 37 41  1  0
 38 37  2  0
 39 34  2  0
 39 38  1  0
 40 39  1  0
 42 43  1  0
 43 46  1  0
 43 45  1  0
 44 42  2  0
 47 48  1  0
 47 22  1  0
 49 47  1  0
 50 51  1  0
 50  2  1  0
 52 50  1  0
 54 53  1  0
 54  4  1  0
 54 55  1  0
 56 67  2  0
 57 55  1  0
 57 62  1  0
 58 66  1  0
 58 68  1  0
 59 65  1  0
 59 61  1  0
 60 66  1  0
 61 60  1  0
 62 61  2  0
 63 57  2  0
 64 63  1  0
 64 59  2  0
 65 58  1  0
 66 56  1  0
 68 70  2  0
 69 68  1  0
 71 69  1  0
 72 81  2  0
 72 77  1  0
 73 69  1  0
 73 77  1  0
 74 73  1  0
 75 76  1  0
 75 74  1  0
 76 72  1  0
 77 78  2  0
 78 79  1  0
 80 79  2  0
 81 80  1  0
 82 56  1  0
 82 83  1  0
 82 92  1  0
 83 86  1  0
 84 88  1  0
 84 83  1  0
 85 84  2  0
 88 87  1  0
 90 88  1  0
 90 91  1  0
 90 89  1  0
 92 95  1  1
 92 93  1  0
 94 92  1  0
M  ISO  4  10 100  19 100  54 101  55 101
M  END
>  <TORSDO>  (52) 
F 18

>  <SCORE>  (52) 
-15.097

>  <name>  (52) 
51

>  <ligand_id>  (52) 
51

>  <original_smiles>  (52) 
[H]c1c([H])c([H])c2c(c1[H])C([H])([H])C([H])([H])C([H])([H])C2([H])N([H])C(=O)C1([H])N(C(=O)C([H])(N([H])C(=O)C([H])(N([H])C([H])([H])[H])C([H])([H])[H])C(C([H])([H])[H])(C([H])([H])[H])C([H])([H])[H])C([H])([H])c2c([H])c(OC([H])(C(=O)N([H])c3nc(C(=O)N([H])C(=O)N4C([H])([H])C([H])([H])C([H])([H])C([H])(n5nc(-c6c([H])c([H])c(Oc7c([H])c([H])c(F)c([H])c7F)c([H])c6[H])c(C(=O)N([H])[H])c5N([H])[H])C4([H])[H])c(N([H])[H])s3)C([H])([H])[H])c([H])c([H])c2C1([H])[H]

>  <smiles>  (52) 
[H]c1c([H])c([H])c2c(c1[H])C([H])([H])C([H])([H])C([H])([H])C2([H])N([H])C(=O)C1([H])N(C(=O)C([H])(N([H])C(=O)C([H])(N([H])C([H])([H])[H])C([H])([H])[H])C(C([H])([H])[H])(C([H])([H])[H])C([H])([H])[H])C([H])([H])c2c([H])c(OC([H])(C(=O)N([H])c3nc(C(=O)N([H])C(=O)N4C([H])([H])C([H])([H])C([H])([H])C([H])(n5nc(-c6c([H])c([H])c(Oc7c([H])c([H])c(F)c([H])c7F)c([H])c6[H])c(C(=O)N([H])[H])c5N([H])[H])C4([H])[H])c(N([H])[H])s3)C([H])([H])[H])c([H])c([H])c2C1([H])[H]

$$$$
52:0:0
     RDKit          3D

 99107  0  0  1  0  0  0  0  0999 V2000
  -29.3890  -20.7260   19.8720 C   0  0  0  0  0  0  0  0  0  0  0  0
  -30.1630  -21.7440   19.4220 N   0  0  0  0  0  0  0  0  0  0  0  0
  -28.2840  -20.9260   20.3850 O   0  0  0  0  0  0  0  0  0  0  0  0
  -31.0550  -21.4130   19.0770 H   0  0  0  0  0  0  0  0  0  0  0  0
  -30.6700  -14.5860   20.4180 C   0  0  0  0  0  0  0  0  0  0  0  0
  -30.3760  -12.3710   19.3810 C   0  0  0  0  0  2  0  0  0  0  0  0
  -29.4540  -12.5370   18.1540 C   0  0  0  0  0  2  0  0  0  0  0  0
  -27.9780  -12.3970   18.5730 C   0  0  0  0  0  2  0  0  0  0  0  0
  -27.6200  -13.2570   19.8150 C   0  0  0  0  0  3  0  0  0  0  0  0
  -28.6700  -13.1130   20.9400 C   0  0  0  0  0  2  0  0  0  0  0  0
  -29.9920  -13.4010   20.3640 N   0  0  0  0  0  0  0  0  0  0  0  0
  -31.8530  -14.6510   20.0770 O   0  0  0  0  0  0  0  0  0  0  0  0
  -29.9500  -19.3050   19.6600 C   0  0  0  0  0  0  0  0  0  0  0  0
  -30.7510  -18.9250   18.5880 C   0  0  0  0  0  0  0  0  0  0  0  0
  -30.1950  -17.0100   20.0640 C   0  0  0  0  0  0  0  0  0  0  0  0
  -29.6090  -18.1680   20.4610 N   0  0  0  0  0  0  0  0  0  0  0  0
  -29.9560  -15.7180   20.6780 N   0  0  0  0  0  0  0  0  0  0  0  0
  -31.1870  -17.2400   18.6300 S   0  0  0  0  0  0  0  0  0  0  0  0
  -29.0680  -15.6050   21.1360 H   0  0  0  0  0  0  0  0  0  0  0  0
  -25.2180  -13.8490   20.5160 C   0  0  0  0  0  0  0  0  0  0  0  0
  -24.1490  -13.0770   20.8790 C   0  0  0  0  0  0  0  0  0  0  0  0
  -24.6130  -11.7250   20.8530 C   0  0  0  0  0  0  0  0  0  0  0  0
  -26.2670  -12.9710   20.2910 N   0  0  0  0  0  0  0  0  0  0  0  0
  -25.9050  -11.6880   20.5520 N   0  0  0  0  0  0  0  0  0  0  0  0
  -23.8830  -10.4630   21.0430 C   0  0  0  0  0  0  0  0  0  0  0  0
  -24.3130   -9.4960   21.9780 C   0  0  0  0  0  3  0  0  0  0  0  0
  -23.5870   -8.2990   22.1560 C   0  0  0  0  0  3  0  0  0  0  0  0
  -22.4170   -8.0580   21.3990 C   0  0  0  0  0  0  0  0  0  0  0  0
  -22.0060   -9.0140   20.4550 C   0  0  0  0  0  3  0  0  0  0  0  0
  -22.7310  -10.2040   20.2730 C   0  0  0  0  0  3  0  0  0  0  0  0
  -21.6630   -6.9130   21.4860 O   0  0  0  0  0  0  0  0  0  0  0  0
  -21.6180   -6.1670   22.6370 C   0  0  0  0  0  0  0  0  0  0  0  0
  -21.1930   -6.7200   23.8640 C   0  0  0  0  0  3  0  0  0  0  0  0
  -21.0950   -5.9010   25.0070 C   0  0  0  0  0  3  0  0  0  0  0  0
  -21.4070   -4.5310   24.9230 C   0  0  0  0  0  0  0  0  0  0  0  0
  -21.8220   -3.9790   23.6990 C   0  0  0  0  0  3  0  0  0  0  0  0
  -21.9260   -4.7940   22.5580 C   0  0  0  0  0  0  0  0  0  0  0  0
  -22.3080   -4.2520   21.3770 F   0  0  0  0  0  0  0  0  0  0  0  0
  -21.3050   -3.7440   26.0190 F   0  0  0  0  0  0  0  0  0  0  0  0
  -22.7510  -13.5560   21.1430 C   0  0  0  0  0  0  0  0  0  0  0  0
  -22.0150  -12.8620   22.0030 N   0  0  0  0  0  0  0  0  0  0  0  0
  -22.3200  -14.5820   20.6190 O   0  0  0  0  0  0  0  0  0  0  0  0
  -22.3770  -12.0340   22.4530 H   0  0  0  0  0  0  0  0  0  0  0  0
  -21.0740  -13.1630   22.2170 H   0  0  0  0  0  0  0  0  0  0  0  0
  -25.3840  -15.2180   20.3350 N   0  0  0  0  0  0  0  0  0  0  0  0
  -24.6100  -15.8660   20.4210 H   0  0  0  0  0  0  0  0  0  0  0  0
  -26.2290  -15.6550   19.9900 H   0  0  0  0  0  0  0  0  0  0  0  0
  -31.2180  -19.6430   17.4880 N   0  0  0  0  0  0  0  0  0  0  0  0
  -30.7010  -20.4310   17.1120 H   0  0  0  0  0  0  0  0  0  0  0  0
  -31.6930  -19.1390   16.7470 H   0  0  0  0  0  0  0  0  0  0  0  0
  -29.8080  -23.1240   18.9600 C   0  0  0  0  0  3  0  0  0  0  0  0
  -29.1940  -24.1480   19.9930 C   0  0  0  0  0  0  0  0  0  0  0  0
  -29.2750  -24.0120   21.2180 O   0  0  0  0  0  0  0  0  0  0  0  0
  -28.4590  -25.3800   19.3680 C   0  0  0  0  0  2  0  0  0  0  0  0
  -28.3580  -26.5740   20.2090 O   0  0  0  0  0  0  0  0  0  0  0  0
  -24.5960  -31.8770   23.2590 C   0  0  0  0  0  0  0  0  0  0  0  0
  -27.2060  -27.3640   20.1610 C   0  0  0  0  0  0  0  0  0  0  0  0
  -23.3860  -30.4820   21.6200 C   0  0  0  0  0  3  0  0  0  0  0  0
  -24.8310  -28.9450   20.1860 C   0  0  0  0  0  0  0  0  0  0  0  0
  -25.9230  -30.8090   21.4290 C   0  0  0  0  0  2  0  0  0  0  0  0
  -25.9990  -29.4370   20.7790 C   0  0  0  0  0  0  0  0  0  0  0  0
  -27.1850  -28.6540   20.7660 C   0  0  0  0  0  3  0  0  0  0  0  0
  -26.0030  -26.9090   19.5650 C   0  0  0  0  0  3  0  0  0  0  0  0
  -24.8320  -27.6840   19.5770 C   0  0  0  0  0  3  0  0  0  0  0  0
  -23.5940  -29.8130   20.2370 C   0  0  0  0  0  2  0  0  0  0  0  0
  -24.6530  -31.0730   22.1580 N   0  0  0  0  0  0  0  0  0  0  0  0
  -23.5140  -32.1540   23.7950 O   0  0  0  0  0  0  0  0  0  0  0  0
  -22.7310  -29.4590   22.5780 C   0  0  0  0  0  0  0  0  0  0  0  0
  -21.4060  -29.2790   22.4500 N   0  0  0  0  0  0  0  0  0  0  0  0
  -23.4120  -28.8330   23.3940 O   0  0  0  0  0  0  0  0  0  0  0  0
  -20.9190  -29.8370   21.7620 H   0  0  0  0  0  0  0  0  0  0  0  0
  -18.0270  -28.0880   22.9410 C   0  0  0  0  0  0  0  0  0  0  0  0
  -20.5850  -28.3420   23.2180 C   0  0  0  0  0  3  0  0  0  0  0  0
  -20.6870  -26.9120   22.6410 C   0  0  0  0  0  2  0  0  0  0  0  0
  -19.5860  -26.5900   21.6260 C   0  0  0  0  0  2  0  0  0  0  0  0
  -18.2030  -26.7370   22.2680 C   0  0  0  0  0  2  0  0  0  0  0  0
  -19.1450  -28.8480   23.3730 C   0  0  0  0  0  0  0  0  0  0  0  0
  -18.9270  -30.1120   23.9610 C   0  0  0  0  0  3  0  0  0  0  0  0
  -17.6230  -30.6160   24.1250 C   0  0  0  0  0  3  0  0  0  0  0  0
  -16.5170  -29.8520   23.7090 C   0  0  0  0  0  3  0  0  0  0  0  0
  -16.7210  -28.5900   23.1220 C   0  0  0  0  0  3  0  0  0  0  0  0
  -25.8820  -32.5050   23.8790 C   0  0  0  0  0  3  0  0  0  0  0  0
  -25.5770  -33.9050   24.2040 N   0  0  0  0  0  0  0  0  0  0  0  0
  -25.9070  -34.9530   23.4390 C   0  0  0  0  0  0  0  0  0  0  0  0
  -26.5740  -34.8440   22.4050 O   0  0  0  0  0  0  0  0  0  0  0  0
  -24.9850  -34.0630   25.0070 H   0  0  0  0  0  0  0  0  0  0  0  0
  -24.1810  -36.7470   23.0830 C   0  0  0  0  0  1  0  0  0  0  0  0
  -25.4240  -36.3440   23.8920 C   0  0  0  0  0  3  0  0  0  0  0  0
  -27.5630  -37.2290   24.7130 C   0  0  0  0  0  1  0  0  0  0  0  0
  -26.4570  -37.3950   23.7720 N   0  0  0  0  0  0  0  0  0  0  0  0
  -26.0530  -38.3160   23.9140 H   0  0  0  0  0  0  0  0  0  0  0  0
  -26.3940  -31.7350   25.1570 C   0  0  1  0  0  0  0  0  0  0  0  0
  -25.2990  -31.5070   26.2250 C   0  0  0  0  0  1  0  0  0  0  0  0
  -26.9710  -30.3530   24.7710 C   0  0  0  0  0  1  0  0  0  0  0  0
  -27.5470  -32.5280   25.8190 C   0  0  0  0  0  1  0  0  0  0  0  0
  -32.2320  -24.0010   19.3130 C   0  0  0  0  0  1  0  0  0  0  0  0
  -31.0810  -23.7720   18.3100 C   0  0  0  0  0  3  0  0  0  0  0  0
  -30.6300  -22.8210   15.9260 C   0  0  0  0  0  1  0  0  0  0  0  0
  -31.6340  -23.0330   17.0690 C   0  0  0  0  0  2  0  0  0  0  0  0
  1  3  2  0
  2  1  1  0
  4  2  1  0
  5 17  1  0
  6 11  1  0
  7  8  1  0
  7  6  1  0
  9  8  1  0
  9 23  1  0
  9 10  1  0
 11  5  1  0
 11 10  1  0
 12  5  2  0
 13  1  1  0
 13 16  1  0
 14 18  1  0
 14 13  2  0
 15 16  2  0
 15 17  1  0
 17 19  1  0
 18 15  1  0
 20 21  2  0
 21 40  1  0
 22 21  1  0
 22 25  1  0
 23 20  1  0
 23 24  1  0
 24 22  2  0
 25 26  1  0
 26 27  2  0
 28 31  1  0
 28 27  1  0
 29 28  2  0
 30 29  1  0
 30 25  2  0
 31 32  1  0
 32 33  1  0
 33 34  2  0
 35 34  1  0
 35 39  1  0
 36 35  2  0
 37 32  2  0
 37 36  1  0
 38 37  1  0
 40 41  1  0
 41 44  1  0
 41 43  1  0
 42 40  2  0
 45 46  1  0
 45 20  1  0
 47 45  1  0
 48 14  1  0
 49 48  1  0
 50 48  1  0
 51  2  1  0
 51 52  1  0
 52 53  2  0
 54 52  1  0
 54 55  1  0
 56 67  2  0
 57 55  1  0
 57 62  1  0
 58 66  1  0
 58 68  1  0
 59 65  1  0
 59 61  1  0
 60 66  1  0
 61 60  1  0
 62 61  2  0
 63 64  1  0
 63 57  2  0
 64 59  2  0
 65 58  1  0
 66 56  1  0
 68 70  2  0
 69 68  1  0
 71 69  1  0
 72 81  2  0
 72 77  1  0
 73 69  1  0
 73 77  1  0
 74 73  1  0
 75 76  1  0
 75 74  1  0
 76 72  1  0
 77 78  2  0
 78 79  1  0
 80 79  2  0
 81 80  1  0
 82 56  1  0
 82 83  1  0
 82 92  1  0
 83 86  1  0
 84 88  1  0
 84 83  1  0
 85 84  2  0
 88 87  1  0
 90 88  1  0
 90 91  1  0
 90 89  1  0
 92 95  1  1
 92 93  1  0
 94 92  1  0
 97 51  1  0
 97 96  1  0
 98 99  1  0
 99 97  1  0
M  ISO  4   5 100  17 100  54 101  55 101
M  END
>  <TORSDO>  (53) 
F 22

>  <SCORE>  (53) 
-13.457

>  <name>  (53) 
52

>  <ligand_id>  (53) 
52

>  <original_smiles>  (53) 
[H]c1c([H])c([H])c2c(c1[H])C([H])([H])C([H])([H])C([H])([H])C2([H])N([H])C(=O)C1([H])N(C(=O)C([H])(N([H])C(=O)C([H])(N([H])C([H])([H])[H])C([H])([H])[H])C(C([H])([H])[H])(C([H])([H])[H])C([H])([H])[H])C([H])([H])c2c([H])c(OC([H])([H])C(=O)C([H])(N([H])C(=O)c3nc(N([H])C(=O)N4C([H])([H])C([H])([H])C([H])([H])C([H])(n5nc(-c6c([H])c([H])c(Oc7c([H])c([H])c(F)c([H])c7F)c([H])c6[H])c(C(=O)N([H])[H])c5N([H])[H])C4([H])[H])sc3N([H])[H])C([H])(C([H])([H])[H])C([H])([H])C([H])([H])[H])c([H])c([H])c2C1([H])[H]

>  <smiles>  (53) 
[H]c1c([H])c([H])c2c(c1[H])C([H])([H])C([H])([H])C([H])([H])C2([H])N([H])C(=O)C1([H])N(C(=O)C([H])(N([H])C(=O)C([H])(N([H])C([H])([H])[H])C([H])([H])[H])C(C([H])([H])[H])(C([H])([H])[H])C([H])([H])[H])C([H])([H])c2c([H])c(OC([H])([H])C(=O)C([H])(N([H])C(=O)c3nc(N([H])C(=O)N4C([H])([H])C([H])([H])C([H])([H])C([H])(n5nc(-c6c([H])c([H])c(Oc7c([H])c([H])c(F)c([H])c7F)c([H])c6[H])c(C(=O)N([H])[H])c5N([H])[H])C4([H])[H])sc3N([H])[H])C([H])(C([H])([H])[H])C([H])([H])C([H])([H])[H])c([H])c([H])c2C1([H])[H]

$$$$
53:0:0
     RDKit          3D

 95103  0  0  1  0  0  0  0  0999 V2000
  -30.6180  -14.6640   20.5050 C   0  0  0  0  0  0  0  0  0  0  0  0
  -30.3530  -12.4810   19.3770 C   0  0  0  0  0  2  0  0  0  0  0  0
  -29.4110  -12.6930   18.1700 C   0  0  0  0  0  2  0  0  0  0  0  0
  -27.9360  -12.5440   18.5920 C   0  0  0  0  0  2  0  0  0  0  0  0
  -27.5880  -13.3290   19.8850 C   0  0  0  0  0  3  0  0  0  0  0  0
  -28.6570  -13.1230   20.9850 C   0  0  0  0  0  2  0  0  0  0  0  0
  -29.9710  -13.4610   20.4130 N   0  0  0  0  0  0  0  0  0  0  0  0
  -31.7860  -14.8000   20.1280 O   0  0  0  0  0  0  0  0  0  0  0  0
  -28.7130  -18.2400   18.4220 C   0  0  0  0  0  3  0  0  0  0  0  0
  -29.0560  -17.0080   18.9950 C   0  0  0  0  0  0  0  0  0  0  0  0
  -29.7300  -17.0170   20.2330 C   0  0  0  0  0  0  0  0  0  0  0  0
  -29.6450  -19.3810   20.1710 C   0  0  0  0  0  0  0  0  0  0  0  0
  -29.4130  -21.8520   20.5770 C   0  0  0  0  0  0  0  0  0  0  0  0
  -29.0080  -19.4100   19.0090 N   0  0  0  0  0  0  0  0  0  0  0  0
  -30.0250  -18.2410   20.7990 N   0  0  0  0  0  0  0  0  0  0  0  0
  -29.8720  -15.7340   20.9040 N   0  0  0  0  0  0  0  0  0  0  0  0
  -30.0190  -20.6270   20.6820 N   0  0  0  0  0  0  0  0  0  0  0  0
  -28.2090  -21.9900   20.3380 O   0  0  0  0  0  0  0  0  0  0  0  0
  -28.7230  -15.8640   18.3590 F   0  0  0  0  0  0  0  0  0  0  0  0
  -29.0190  -15.4320   21.3400 H   0  0  0  0  0  0  0  0  0  0  0  0
  -30.9460  -20.6330   21.0740 H   0  0  0  0  0  0  0  0  0  0  0  0
  -25.1830  -13.9180   20.5600 C   0  0  0  0  0  0  0  0  0  0  0  0
  -24.1150  -13.1400   20.9130 C   0  0  0  0  0  0  0  0  0  0  0  0
  -24.5860  -11.7920   20.8890 C   0  0  0  0  0  0  0  0  0  0  0  0
  -26.2360  -13.0420   20.3520 N   0  0  0  0  0  0  0  0  0  0  0  0
  -25.8820  -11.7590   20.6050 N   0  0  0  0  0  0  0  0  0  0  0  0
  -23.8650  -10.5270   21.0620 C   0  0  0  0  0  0  0  0  0  0  0  0
  -24.2790   -9.5660   22.0100 C   0  0  0  0  0  3  0  0  0  0  0  0
  -23.5580   -8.3620   22.1720 C   0  0  0  0  0  3  0  0  0  0  0  0
  -22.4080   -8.1120   21.3850 C   0  0  0  0  0  0  0  0  0  0  0  0
  -22.0160   -9.0610   20.4250 C   0  0  0  0  0  3  0  0  0  0  0  0
  -22.7380  -10.2560   20.2620 C   0  0  0  0  0  3  0  0  0  0  0  0
  -21.6630   -6.9600   21.4560 O   0  0  0  0  0  0  0  0  0  0  0  0
  -21.5690   -6.2350   22.6170 C   0  0  0  0  0  0  0  0  0  0  0  0
  -21.0650   -6.8010   23.8080 C   0  0  0  0  0  3  0  0  0  0  0  0
  -20.9200   -6.0040   24.9590 C   0  0  0  0  0  3  0  0  0  0  0  0
  -21.2670   -4.6390   24.9190 C   0  0  0  0  0  0  0  0  0  0  0  0
  -21.7600   -4.0720   23.7320 C   0  0  0  0  0  3  0  0  0  0  0  0
  -21.9080   -4.8670   22.5840 C   0  0  0  0  0  0  0  0  0  0  0  0
  -22.3650   -4.3130   21.4340 F   0  0  0  0  0  0  0  0  0  0  0  0
  -21.1170   -3.8680   26.0220 F   0  0  0  0  0  0  0  0  0  0  0  0
  -22.7110  -13.6080   21.1600 C   0  0  0  0  0  0  0  0  0  0  0  0
  -21.9690  -12.9090   22.0110 N   0  0  0  0  0  0  0  0  0  0  0  0
  -22.2770  -14.6320   20.6320 O   0  0  0  0  0  0  0  0  0  0  0  0
  -22.3310  -12.0820   22.4660 H   0  0  0  0  0  0  0  0  0  0  0  0
  -21.0240  -13.2060   22.2120 H   0  0  0  0  0  0  0  0  0  0  0  0
  -25.3390  -15.2880   20.3740 N   0  0  0  0  0  0  0  0  0  0  0  0
  -24.5510  -15.9240   20.4290 H   0  0  0  0  0  0  0  0  0  0  0  0
  -26.1540  -15.7080   19.9480 H   0  0  0  0  0  0  0  0  0  0  0  0
  -30.2830  -23.1320   20.7740 C   0  0  0  0  0  2  0  0  0  0  0  0
  -29.6680  -24.5280   21.2070 C   0  0  0  0  0  3  0  0  0  0  0  0
  -29.2450  -24.4620   22.5550 O   0  0  0  0  0  0  0  0  0  0  0  0
  -28.8450  -25.3040   22.7530 H   0  0  0  0  0  0  0  0  0  0  0  0
  -28.5400  -25.2390   20.3750 C   0  0  0  0  0  2  0  0  0  0  0  0
  -28.5310  -26.6760   20.6420 O   0  0  0  0  0  0  0  0  0  0  0  0
  -24.6090  -32.0090   23.4010 C   0  0  0  0  0  0  0  0  0  0  0  0
  -27.3540  -27.4210   20.5560 C   0  0  0  0  0  0  0  0  0  0  0  0
  -23.4570  -30.5520   21.7670 C   0  0  0  0  0  3  0  0  0  0  0  0
  -24.9570  -28.9620   20.4400 C   0  0  0  0  0  0  0  0  0  0  0  0
  -25.9940  -30.8900   21.6500 C   0  0  0  0  0  2  0  0  0  0  0  0
  -26.0990  -29.4970   21.0500 C   0  0  0  0  0  0  0  0  0  0  0  0
  -27.2980  -28.7360   21.1000 C   0  0  0  0  0  3  0  0  0  0  0  0
  -26.1880  -26.9150   19.9430 C   0  0  0  0  0  3  0  0  0  0  0  0
  -25.0020  -27.6710   19.8840 C   0  0  0  0  0  3  0  0  0  0  0  0
  -23.7130  -29.8250   20.4190 C   0  0  0  0  0  2  0  0  0  0  0  0
  -24.7030  -31.1720   22.3280 N   0  0  0  0  0  0  0  0  0  0  0  0
  -23.5120  -32.2970   23.8990 O   0  0  0  0  0  0  0  0  0  0  0  0
  -22.7720  -29.5670   22.7400 C   0  0  0  0  0  0  0  0  0  0  0  0
  -21.4530  -29.3730   22.5750 N   0  0  0  0  0  0  0  0  0  0  0  0
  -23.4260  -28.9800   23.6060 O   0  0  0  0  0  0  0  0  0  0  0  0
  -20.9870  -29.9030   21.8510 H   0  0  0  0  0  0  0  0  0  0  0  0
  -18.0720  -28.1520   22.9730 C   0  0  0  0  0  0  0  0  0  0  0  0
  -20.6130  -28.4570   23.3470 C   0  0  0  0  0  3  0  0  0  0  0  0
  -20.7540  -27.0020   22.8390 C   0  0  0  0  0  2  0  0  0  0  0  0
  -19.7050  -26.6220   21.7910 C   0  0  0  0  0  2  0  0  0  0  0  0
  -18.2940  -26.7780   22.3650 C   0  0  0  0  0  2  0  0  0  0  0  0
  -19.1610  -28.9470   23.4180 C   0  0  0  0  0  0  0  0  0  0  0  0
  -18.9010  -30.2310   23.9440 C   0  0  0  0  0  3  0  0  0  0  0  0
  -17.5840  -30.7210   24.0280 C   0  0  0  0  0  3  0  0  0  0  0  0
  -16.5080  -29.9240   23.5990 C   0  0  0  0  0  3  0  0  0  0  0  0
  -16.7530  -28.6420   23.0760 C   0  0  0  0  0  3  0  0  0  0  0  0
  -25.8730  -32.6630   24.0430 C   0  0  0  0  0  3  0  0  0  0  0  0
  -26.3480  -31.9380   25.3620 C   0  0  1  0  0  0  0  0  0  0  0  0
  -25.2190  -31.7250   26.3970 C   0  0  0  0  0  1  0  0  0  0  0  0
  -26.9580  -30.5560   25.0340 C   0  0  0  0  0  1  0  0  0  0  0  0
  -27.4680  -32.7650   26.0380 C   0  0  0  0  0  1  0  0  0  0  0  0
  -25.5530  -34.0710   24.3130 N   0  0  0  0  0  0  0  0  0  0  0  0
  -25.8970  -35.0980   23.5250 C   0  0  0  0  0  0  0  0  0  0  0  0
  -26.5820  -34.9580   22.5060 O   0  0  0  0  0  0  0  0  0  0  0  0
  -24.9400  -34.2520   25.0940 H   0  0  0  0  0  0  0  0  0  0  0  0
  -24.1530  -36.8590   23.0960 C   0  0  0  0  0  1  0  0  0  0  0  0
  -25.3990  -36.4990   23.9220 C   0  0  0  0  0  3  0  0  0  0  0  0
  -27.5280  -37.4340   24.7110 C   0  0  0  0  0  1  0  0  0  0  0  0
  -26.4220  -37.5550   23.7650 N   0  0  0  0  0  0  0  0  0  0  0  0
  -26.0090  -38.4770   23.8780 H   0  0  0  0  0  0  0  0  0  0  0  0
  1 16  1  0
  2  7  1  0
  3  4  1  0
  3  2  1  0
  5  4  1  0
  5 25  1  0
  5  6  1  0
  7  1  1  0
  7  6  1  0
  8  1  2  0
  9 10  2  0
  9 14  1  0
 10 11  1  0
 11 15  2  0
 11 16  1  0
 12 17  1  0
 12 15  1  0
 13 17  1  0
 13 50  1  0
 14 12  2  0
 16 20  1  0
 17 21  1  0
 18 13  2  0
 19 10  1  0
 22 23  2  0
 23 42  1  0
 24 23  1  0
 24 27  1  0
 25 22  1  0
 25 26  1  0
 26 24  2  0
 27 28  1  0
 28 29  2  0
 30 33  1  0
 30 29  1  0
 31 30  2  0
 32 31  1  0
 32 27  2  0
 33 34  1  0
 34 35  1  0
 35 36  2  0
 37 36  1  0
 37 41  1  0
 38 37  2  0
 39 34  2  0
 39 38  1  0
 40 39  1  0
 42 43  1  0
 43 46  1  0
 43 45  1  0
 44 42  2  0
 47 48  1  0
 47 22  1  0
 49 47  1  0
 50 51  1  0
 51 54  1  0
 51 52  1  0
 52 53  1  0
 54 55  1  0
 56 67  2  0
 57 55  1  0
 57 62  1  0
 58 66  1  0
 58 68  1  0
 59 61  1  0
 60 66  1  0
 61 62  2  0
 61 60  1  0
 63 57  2  0
 64 63  1  0
 64 59  2  0
 65 59  1  0
 65 58  1  0
 66 56  1  0
 68 70  2  0
 69 68  1  0
 71 69  1  0
 72 81  2  0
 72 77  1  0
 73 69  1  0
 73 77  1  0
 74 73  1  0
 75 76  1  0
 75 74  1  0
 76 72  1  0
 77 78  2  0
 78 79  1  0
 80 79  2  0
 81 80  1  0
 82 56  1  0
 82 87  1  0
 82 83  1  0
 83 86  1  1
 83 84  1  0
 85 83  1  0
 87 90  1  0
 88 92  1  0
 88 87  1  0
 89 88  2  0
 92 91  1  0
 94 95  1  0
 94 92  1  0
 94 93  1  0
M  ISO  4   1 100  16 100  54 101  55 101
M  END
>  <TORSDO>  (54) 
F 19

>  <SCORE>  (54) 
-14.380

>  <name>  (54) 
53

>  <ligand_id>  (54) 
53

>  <original_smiles>  (54) 
[H]OC([H])(C([H])([H])Oc1c([H])c([H])c2c(c1[H])C([H])([H])N(C(=O)C([H])(N([H])C(=O)C([H])(N([H])C([H])([H])[H])C([H])([H])[H])C(C([H])([H])[H])(C([H])([H])[H])C([H])([H])[H])C([H])(C(=O)N([H])C1([H])c3c([H])c([H])c([H])c([H])c3C([H])([H])C([H])([H])C1([H])[H])C2([H])[H])C([H])([H])C(=O)N([H])c1nc([H])c(F)c(N([H])C(=O)N2C([H])([H])C([H])([H])C([H])([H])C([H])(n3nc(-c4c([H])c([H])c(Oc5c([H])c([H])c(F)c([H])c5F)c([H])c4[H])c(C(=O)N([H])[H])c3N([H])[H])C2([H])[H])n1

>  <smiles>  (54) 
[H]OC([H])(C([H])([H])Oc1c([H])c([H])c2c(c1[H])C([H])([H])N(C(=O)C([H])(N([H])C(=O)C([H])(N([H])C([H])([H])[H])C([H])([H])[H])C(C([H])([H])[H])(C([H])([H])[H])C([H])([H])[H])C([H])(C(=O)N([H])C1([H])c3c([H])c([H])c([H])c([H])c3C([H])([H])C([H])([H])C1([H])[H])C2([H])[H])C([H])([H])C(=O)N([H])c1nc([H])c(F)c(N([H])C(=O)N2C([H])([H])C([H])([H])C([H])([H])C([H])(n3nc(-c4c([H])c([H])c(Oc5c([H])c([H])c(F)c([H])c5F)c([H])c4[H])c(C(=O)N([H])[H])c3N([H])[H])C2([H])[H])n1

$$$$
54:0:0
     RDKit          3D

 96104  0  0  1  0  0  0  0  0999 V2000
  -29.3230  -22.7050   19.7980 N   0  0  0  0  0  0  0  0  0  0  0  0
  -28.4340  -22.4960   19.3440 H   0  0  0  0  0  0  0  0  0  0  0  0
  -28.4120  -21.4910   21.9250 O   0  0  0  0  0  0  0  0  0  0  0  0
  -30.9100  -21.8630   21.7110 O   0  0  0  0  0  0  0  0  0  0  0  0
  -29.6210  -21.5200   21.0880 S   0  0  2  0  0  0  0  0  0  0  0  0
  -30.3510  -19.3410   19.2680 C   0  0  0  0  0  3  0  0  0  0  0  0
  -30.4870  -17.9030   19.2110 C   0  0  0  0  0  0  0  0  0  0  0  0
  -30.1210  -17.1960   20.3420 C   0  0  0  0  0  0  0  0  0  0  0  0
  -29.8670  -19.7980   20.4690 C   0  0  0  0  0  0  0  0  0  0  0  0
  -30.9040  -17.3180   18.1130 F   0  0  0  0  0  0  0  0  0  0  0  0
  -29.5370  -18.3980   21.5070 S   0  0  0  0  0  0  0  0  0  0  0  0
  -30.8450  -14.7910   20.1640 C   0  0  0  0  0  0  0  0  0  0  0  0
  -30.6490  -12.5290   19.1520 C   0  0  0  0  0  2  0  0  0  0  0  0
  -29.6820  -12.6290   17.9510 C   0  0  0  0  0  2  0  0  0  0  0  0
  -28.2190  -12.4640   18.4100 C   0  0  0  0  0  2  0  0  0  0  0  0
  -27.8780  -13.3430   19.6420 C   0  0  0  0  0  3  0  0  0  0  0  0
  -28.9550  -13.2110   20.7420 C   0  0  0  0  0  2  0  0  0  0  0  0
  -30.2510  -13.5560   20.1360 N   0  0  0  0  0  0  0  0  0  0  0  0
  -31.9880  -14.9580   19.7300 O   0  0  0  0  0  0  0  0  0  0  0  0
  -30.0610  -15.8300   20.5940 N   0  0  0  0  0  0  0  0  0  0  0  0
  -29.2360  -15.5350   21.0930 H   0  0  0  0  0  0  0  0  0  0  0  0
  -25.5070  -13.9440   20.4240 C   0  0  0  0  0  0  0  0  0  0  0  0
  -24.4430  -13.1710   20.8070 C   0  0  0  0  0  0  0  0  0  0  0  0
  -24.8960  -11.8180   20.7420 C   0  0  0  0  0  0  0  0  0  0  0  0
  -26.5400  -13.0610   20.1530 N   0  0  0  0  0  0  0  0  0  0  0  0
  -26.1790  -11.7770   20.4020 N   0  0  0  0  0  0  0  0  0  0  0  0
  -24.1670  -10.5570   20.9300 C   0  0  0  0  0  0  0  0  0  0  0  0
  -24.5610   -9.6140   21.9050 C   0  0  0  0  0  3  0  0  0  0  0  0
  -23.8350   -8.4170   22.0790 C   0  0  0  0  0  3  0  0  0  0  0  0
  -22.6990   -8.1540   21.2780 C   0  0  0  0  0  0  0  0  0  0  0  0
  -22.3230   -9.0850   20.2940 C   0  0  0  0  0  3  0  0  0  0  0  0
  -23.0500  -10.2740   20.1180 C   0  0  0  0  0  3  0  0  0  0  0  0
  -21.9460   -7.0080   21.3590 O   0  0  0  0  0  0  0  0  0  0  0  0
  -21.7830   -6.3370   22.5440 C   0  0  0  0  0  0  0  0  0  0  0  0
  -21.1870   -6.9460   23.6690 C   0  0  0  0  0  3  0  0  0  0  0  0
  -20.9750   -6.1990   24.8460 C   0  0  0  0  0  3  0  0  0  0  0  0
  -21.3480   -4.8420   24.8950 C   0  0  0  0  0  0  0  0  0  0  0  0
  -21.9360   -4.2320   23.7730 C   0  0  0  0  0  3  0  0  0  0  0  0
  -22.1500   -4.9770   22.6010 C   0  0  0  0  0  0  0  0  0  0  0  0
  -22.6980   -4.3780   21.5160 F   0  0  0  0  0  0  0  0  0  0  0  0
  -21.1380   -4.1220   26.0220 F   0  0  0  0  0  0  0  0  0  0  0  0
  -23.0560  -13.6520   21.1220 C   0  0  0  0  0  0  0  0  0  0  0  0
  -22.3450  -12.9420   21.9900 N   0  0  0  0  0  0  0  0  0  0  0  0
  -22.6130  -14.6910   20.6330 O   0  0  0  0  0  0  0  0  0  0  0  0
  -22.7180  -12.1010   22.4050 H   0  0  0  0  0  0  0  0  0  0  0  0
  -21.4150  -13.2420   22.2440 H   0  0  0  0  0  0  0  0  0  0  0  0
  -25.6780  -15.3150   20.2630 N   0  0  0  0  0  0  0  0  0  0  0  0
  -24.9190  -15.9740   20.3930 H   0  0  0  0  0  0  0  0  0  0  0  0
  -26.5200  -15.7470   19.9020 H   0  0  0  0  0  0  0  0  0  0  0  0
  -29.5570  -24.2200   19.8860 C   0  0  0  0  0  3  0  0  0  0  0  0
  -30.8070  -24.6450   20.6890 C   0  0  0  0  0  0  0  0  0  0  0  0
  -32.1690  -24.4130   20.0410 C   0  0  0  0  0  1  0  0  0  0  0  0
  -30.7420  -25.1370   21.8170 O   0  0  0  0  0  0  0  0  0  0  0  0
  -27.6240  -24.8320   21.5370 C   0  0  0  0  0  1  0  0  0  0  0  0
  -28.2670  -25.1260   20.1620 C   0  0  0  0  0  3  0  0  0  0  0  0
  -28.4370  -26.5970   19.9870 O   0  0  0  0  0  0  0  0  0  0  0  0
  -24.7150  -31.8800   23.1640 C   0  0  0  0  0  0  0  0  0  0  0  0
  -27.3050  -27.4270   19.9600 C   0  0  0  0  0  0  0  0  0  0  0  0
  -23.4850  -30.4980   21.5270 C   0  0  0  0  0  3  0  0  0  0  0  0
  -24.9180  -28.9990   20.0350 C   0  0  0  0  0  0  0  0  0  0  0  0
  -26.0130  -30.8620   21.2810 C   0  0  0  0  0  2  0  0  0  0  0  0
  -26.0940  -29.4990   20.6060 C   0  0  0  0  0  0  0  0  0  0  0  0
  -27.2910  -28.7250   20.5560 C   0  0  0  0  0  3  0  0  0  0  0  0
  -26.1040  -26.9840   19.3570 C   0  0  0  0  0  3  0  0  0  0  0  0
  -24.9230  -27.7490   19.4010 C   0  0  0  0  0  3  0  0  0  0  0  0
  -23.6690  -29.8530   20.1290 C   0  0  0  0  0  2  0  0  0  0  0  0
  -24.7580  -31.0980   22.0460 N   0  0  0  0  0  0  0  0  0  0  0  0
  -23.6420  -32.1300   23.7330 O   0  0  0  0  0  0  0  0  0  0  0  0
  -22.8620  -29.4540   22.4850 C   0  0  0  0  0  0  0  0  0  0  0  0
  -21.5420  -29.2380   22.3690 N   0  0  0  0  0  0  0  0  0  0  0  0
  -23.5670  -28.8430   23.2930 O   0  0  0  0  0  0  0  0  0  0  0  0
  -21.0310  -29.7860   21.6910 H   0  0  0  0  0  0  0  0  0  0  0  0
  -18.2150  -27.9000   22.8520 C   0  0  0  0  0  0  0  0  0  0  0  0
  -20.7590  -28.2690   23.1380 C   0  0  0  0  0  3  0  0  0  0  0  0
  -20.9250  -26.8390   22.5720 C   0  0  0  0  0  2  0  0  0  0  0  0
  -19.8440  -26.4650   21.5520 C   0  0  0  0  0  2  0  0  0  0  0  0
  -18.4530  -26.5580   22.1820 C   0  0  0  0  0  2  0  0  0  0  0  0
  -19.2970  -28.7100   23.2860 C   0  0  0  0  0  0  0  0  0  0  0  0
  -19.0210  -29.9670   23.8690 C   0  0  0  0  0  3  0  0  0  0  0  0
  -17.6940  -30.4130   24.0240 C   0  0  0  0  0  3  0  0  0  0  0  0
  -16.6270  -29.6010   23.6040 C   0  0  0  0  0  3  0  0  0  0  0  0
  -16.8870  -28.3460   23.0260 C   0  0  0  0  0  3  0  0  0  0  0  0
  -26.0060  -32.5160   23.7650 C   0  0  0  0  0  3  0  0  0  0  0  0
  -25.6920  -33.9090   24.1150 N   0  0  0  0  0  0  0  0  0  0  0  0
  -26.0180  -34.9740   23.3700 C   0  0  0  0  0  0  0  0  0  0  0  0
  -26.6820  -34.8870   22.3350 O   0  0  0  0  0  0  0  0  0  0  0  0
  -25.1060  -34.0510   24.9240 H   0  0  0  0  0  0  0  0  0  0  0  0
  -24.2880  -36.7720   23.0420 C   0  0  0  0  0  1  0  0  0  0  0  0
  -25.5290  -36.3550   23.8490 C   0  0  0  0  0  3  0  0  0  0  0  0
  -27.6570  -37.2320   24.7040 C   0  0  0  0  0  1  0  0  0  0  0  0
  -26.5610  -37.4110   23.7540 N   0  0  0  0  0  0  0  0  0  0  0  0
  -26.1540  -38.3280   23.9090 H   0  0  0  0  0  0  0  0  0  0  0  0
  -26.5520  -31.7390   25.0240 C   0  0  1  0  0  0  0  0  0  0  0  0
  -25.4810  -31.4820   26.1090 C   0  0  0  0  0  1  0  0  0  0  0  0
  -27.1420  -30.3720   24.6090 C   0  0  0  0  0  1  0  0  0  0  0  0
  -27.7070  -32.5400   25.6710 C   0  0  0  0  0  1  0  0  0  0  0  0
  1 50  1  0
  5  1  1  6
  2  1  1  0
  5  4  2  0
  5  3  2  0
  6  9  2  0
  7  6  1  0
  7  8  2  0
  8 20  1  0
  8 11  1  0
  9  5  1  0
  9 11  1  0
 10  7  1  0
 12 20  1  0
 13 18  1  0
 14 15  1  0
 14 13  1  0
 16 15  1  0
 16 25  1  0
 16 17  1  0
 18 12  1  0
 18 17  1  0
 19 12  2  0
 20 21  1  0
 22 23  2  0
 23 42  1  0
 24 23  1  0
 24 27  1  0
 25 26  1  0
 25 22  1  0
 26 24  2  0
 27 28  1  0
 28 29  2  0
 30 33  1  0
 30 29  1  0
 31 30  2  0
 32 31  1  0
 32 27  2  0
 33 34  1  0
 34 39  2  0
 34 35  1  0
 35 36  2  0
 36 37  1  0
 37 41  1  0
 38 37  2  0
 39 38  1  0
 40 39  1  0
 42 43  1  0
 43 46  1  0
 43 45  1  0
 44 42  2  0
 47 48  1  0
 47 22  1  0
 49 47  1  0
 50 55  1  0
 50 51  1  0
 51 53  2  0
 52 51  1  0
 55 54  1  0
 56 55  1  0
 57 68  2  0
 58 56  1  0
 58 63  1  0
 59 67  1  0
 59 69  1  0
 60 66  1  0
 60 62  1  0
 61 67  1  0
 62 61  1  0
 63 62  2  0
 64 65  1  0
 64 58  2  0
 65 60  2  0
 66 59  1  0
 67 57  1  0
 69 71  2  0
 70 69  1  0
 72 70  1  0
 73 82  2  0
 73 78  1  0
 74 70  1  0
 74 78  1  0
 75 74  1  0
 76 77  1  0
 76 75  1  0
 77 73  1  0
 78 79  2  0
 79 80  1  0
 81 80  2  0
 82 81  1  0
 83 57  1  0
 83 84  1  0
 83 93  1  0
 84 87  1  0
 85 89  1  0
 85 84  1  0
 86 85  2  0
 89 88  1  0
 91 89  1  0
 91 92  1  0
 91 90  1  0
 93 96  1  1
 93 94  1  0
 95 93  1  0
M  ISO  4  12 100  20 100  55 101  56 101
M  END
>  <TORSDO>  (55) 
F 21

>  <SCORE>  (55) 
-12.935

>  <name>  (55) 
54

>  <ligand_id>  (55) 
54

>  <original_smiles>  (55) 
[H]c1c([H])c([H])c2c(c1[H])C([H])([H])C([H])([H])C([H])([H])C2([H])N([H])C(=O)C1([H])N(C(=O)C([H])(N([H])C(=O)C([H])(N([H])C([H])([H])[H])C([H])([H])[H])C(C([H])([H])[H])(C([H])([H])[H])C([H])([H])[H])C([H])([H])c2c([H])c(OC([H])(C([H])([H])[H])C([H])(C(=O)C([H])([H])[H])N([H])S(=O)(=O)c3sc(N([H])C(=O)N4C([H])([H])C([H])([H])C([H])([H])C([H])(n5nc(-c6c([H])c([H])c(Oc7c([H])c([H])c(F)c([H])c7F)c([H])c6[H])c(C(=O)N([H])[H])c5N([H])[H])C4([H])[H])c(F)c3[H])c([H])c([H])c2C1([H])[H]

>  <smiles>  (55) 
[H]c1c([H])c([H])c2c(c1[H])C([H])([H])C([H])([H])C([H])([H])C2([H])N([H])C(=O)C1([H])N(C(=O)C([H])(N([H])C(=O)C([H])(N([H])C([H])([H])[H])C([H])([H])[H])C(C([H])([H])[H])(C([H])([H])[H])C([H])([H])[H])C([H])([H])c2c([H])c(OC([H])(C([H])([H])[H])C([H])(C(=O)C([H])([H])[H])N([H])S(=O)(=O)c3sc(N([H])C(=O)N4C([H])([H])C([H])([H])C([H])([H])C([H])(n5nc(-c6c([H])c([H])c(Oc7c([H])c([H])c(F)c([H])c7F)c([H])c6[H])c(C(=O)N([H])[H])c5N([H])[H])C4([H])[H])c(F)c3[H])c([H])c([H])c2C1([H])[H]

$$$$
55:0:0
     RDKit          3D

 95103  0  0  1  0  0  0  0  0999 V2000
  -29.3430  -18.4230   19.6510 C   0  0  0  0  0  3  0  0  0  0  0  0
  -29.0670  -19.0100   18.4090 C   0  0  0  0  0  3  0  0  0  0  0  0
  -29.2770  -20.7540   20.0130 C   0  0  0  0  0  3  0  0  0  0  0  0
  -28.4070  -23.1510   20.0240 C   0  0  0  0  0  0  0  0  0  0  0  0
  -28.2200  -18.5690   17.2470 C   0  0  0  0  0  1  0  0  0  0  0  0
  -29.3870  -19.5170   20.5960 N   0  0  0  0  0  2  0  0  0  0  0  0
  -28.8350  -21.9920   20.6420 N   0  0  0  0  0  0  0  0  0  0  0  0
  -28.4780  -23.3140   18.8070 O   0  0  0  0  0  0  0  0  0  0  0  0
  -29.6020  -20.6440   18.3120 S   0  0  0  0  0  0  0  0  0  0  0  0
  -28.7040  -21.9540   21.6370 H   0  0  0  0  0  0  0  0  0  0  0  0
  -28.9820  -16.1370   18.6520 C   0  0  0  0  0  1  0  0  0  0  0  0
  -27.8540  -16.8880   20.8600 C   0  0  0  0  0  1  0  0  0  0  0  0
  -29.1390  -16.8770   20.0110 C   0  0  2  0  0  0  0  0  0  0  0  0
  -30.7710  -14.8480   20.5970 C   0  0  0  0  0  0  0  0  0  0  0  0
  -30.5730  -12.5250   19.6860 C   0  0  0  0  0  2  0  0  0  0  0  0
  -29.7080  -12.4770   18.4080 C   0  0  0  0  0  2  0  0  0  0  0  0
  -28.2110  -12.3400   18.7580 C   0  0  0  0  0  2  0  0  0  0  0  0
  -27.7580  -13.2510   19.9390 C   0  0  0  0  0  3  0  0  0  0  0  0
  -28.7800  -13.2900   21.1020 C   0  0  0  0  0  2  0  0  0  0  0  0
  -30.0900  -13.6460   20.5290 N   0  0  0  0  0  0  0  0  0  0  0  0
  -31.9720  -14.8790   20.3340 O   0  0  0  0  0  0  0  0  0  0  0  0
  -30.1310  -16.0610   20.8320 N   0  0  0  0  0  0  0  0  0  0  0  0
  -30.7570  -16.6970   21.3030 H   0  0  0  0  0  0  0  0  0  0  0  0
  -25.3240  -13.8380   20.4980 C   0  0  0  0  0  0  0  0  0  0  0  0
  -24.2600  -13.0680   20.8450 C   0  0  0  0  0  0  0  0  0  0  0  0
  -24.7450  -11.7240   20.8700 C   0  0  0  0  0  0  0  0  0  0  0  0
  -26.3990  -12.9680   20.3670 N   0  0  0  0  0  0  0  0  0  0  0  0
  -26.0500  -11.6900   20.6410 N   0  0  0  0  0  0  0  0  0  0  0  0
  -24.0280  -10.4630   21.0430 C   0  0  0  0  0  0  0  0  0  0  0  0
  -24.4270   -9.5180   22.0100 C   0  0  0  0  0  3  0  0  0  0  0  0
  -23.7060   -8.3190   22.1730 C   0  0  0  0  0  3  0  0  0  0  0  0
  -22.5700   -8.0590   21.3670 C   0  0  0  0  0  0  0  0  0  0  0  0
  -22.1970   -8.9930   20.3860 C   0  0  0  0  0  3  0  0  0  0  0  0
  -22.9210  -10.1840   20.2220 C   0  0  0  0  0  3  0  0  0  0  0  0
  -21.8220   -6.9110   21.4400 O   0  0  0  0  0  0  0  0  0  0  0  0
  -21.7210   -6.1970   22.6060 C   0  0  0  0  0  0  0  0  0  0  0  0
  -21.2150   -6.7730   23.7930 C   0  0  0  0  0  3  0  0  0  0  0  0
  -21.0640   -5.9820   24.9490 C   0  0  0  0  0  3  0  0  0  0  0  0
  -21.4080   -4.6160   24.9180 C   0  0  0  0  0  0  0  0  0  0  0  0
  -21.9090   -4.0400   23.7360 C   0  0  0  0  0  3  0  0  0  0  0  0
  -22.0630   -4.8300   22.5830 C   0  0  0  0  0  0  0  0  0  0  0  0
  -22.5270   -4.2680   21.4410 F   0  0  0  0  0  0  0  0  0  0  0  0
  -21.2540   -3.8530   26.0250 F   0  0  0  0  0  0  0  0  0  0  0  0
  -22.8500  -13.5370   21.0410 C   0  0  0  0  0  0  0  0  0  0  0  0
  -22.0980  -12.8590   21.8980 N   0  0  0  0  0  0  0  0  0  0  0  0
  -22.4280  -14.5490   20.4780 O   0  0  0  0  0  0  0  0  0  0  0  0
  -22.4540  -12.0460   22.3770 H   0  0  0  0  0  0  0  0  0  0  0  0
  -21.1520  -13.1620   22.0880 H   0  0  0  0  0  0  0  0  0  0  0  0
  -25.4370  -15.1980   20.2570 N   0  0  0  0  0  0  0  0  0  0  0  0
  -24.6380  -15.8180   20.3370 H   0  0  0  0  0  0  0  0  0  0  0  0
  -26.2820  -15.6620   19.9600 H   0  0  0  0  0  0  0  0  0  0  0  0
  -27.4270  -23.9550   22.2650 C   0  0  0  0  0  1  0  0  0  0  0  0
  -27.7560  -24.3480   20.8100 C   0  0  0  0  0  3  0  0  0  0  0  0
  -28.5470  -25.7160   20.7630 C   0  0  0  0  0  2  0  0  0  0  0  0
  -28.2720  -26.7200   19.7590 O   0  0  0  0  0  0  0  0  0  0  0  0
  -24.5580  -31.8600   23.1340 C   0  0  0  0  0  0  0  0  0  0  0  0
  -27.1360  -27.4880   19.8840 C   0  0  0  0  0  0  0  0  0  0  0  0
  -23.3300  -30.5200   21.4630 C   0  0  0  0  0  3  0  0  0  0  0  0
  -24.7680  -29.0340   19.9640 C   0  0  0  0  0  0  0  0  0  0  0  0
  -25.8560  -30.8800   21.2470 C   0  0  0  0  0  2  0  0  0  0  0  0
  -25.9340  -29.5280   20.5580 C   0  0  0  0  0  0  0  0  0  0  0  0
  -27.1270  -28.7570   20.5190 C   0  0  0  0  0  3  0  0  0  0  0  0
  -25.9570  -27.0350   19.2610 C   0  0  0  0  0  3  0  0  0  0  0  0
  -24.7790  -27.7970   19.2990 C   0  0  0  0  0  3  0  0  0  0  0  0
  -23.5220  -29.8880   20.0530 C   0  0  0  0  0  2  0  0  0  0  0  0
  -24.6000  -31.1020   22.0040 N   0  0  0  0  0  0  0  0  0  0  0  0
  -23.4840  -32.1140   23.6930 O   0  0  0  0  0  0  0  0  0  0  0  0
  -22.6940  -29.4620   22.3990 C   0  0  0  0  0  0  0  0  0  0  0  0
  -21.3680  -29.2850   22.2840 N   0  0  0  0  0  0  0  0  0  0  0  0
  -23.3920  -28.7900   23.1620 O   0  0  0  0  0  0  0  0  0  0  0  0
  -20.8700  -29.8810   21.6350 H   0  0  0  0  0  0  0  0  0  0  0  0
  -17.9880  -28.1190   22.7750 C   0  0  0  0  0  0  0  0  0  0  0  0
  -20.5550  -28.3190   23.0240 C   0  0  0  0  0  3  0  0  0  0  0  0
  -20.6310  -26.9070   22.3860 C   0  0  0  0  0  2  0  0  0  0  0  0
  -19.5100  -26.6530   21.3670 C   0  0  0  0  0  2  0  0  0  0  0  0
  -18.1260  -26.8080   22.0130 C   0  0  0  0  0  2  0  0  0  0  0  0
  -19.1250  -28.8400   23.2290 C   0  0  0  0  0  0  0  0  0  0  0  0
  -18.9420  -30.0800   23.8770 C   0  0  0  0  0  3  0  0  0  0  0  0
  -17.6500  -30.5920   24.0950 C   0  0  0  0  0  3  0  0  0  0  0  0
  -16.5250  -29.8590   23.6710 C   0  0  0  0  0  3  0  0  0  0  0  0
  -16.6960  -28.6250   23.0140 C   0  0  0  0  0  3  0  0  0  0  0  0
  -25.8490  -32.4660   23.7670 C   0  0  0  0  0  3  0  0  0  0  0  0
  -26.3690  -31.6610   25.0170 C   0  0  1  0  0  0  0  0  0  0  0  0
  -25.2810  -31.3980   26.0830 C   0  0  0  0  0  1  0  0  0  0  0  0
  -26.9390  -30.2910   24.5820 C   0  0  0  0  0  1  0  0  0  0  0  0
  -27.5280  -32.4300   25.6960 C   0  0  0  0  0  1  0  0  0  0  0  0
  -25.5520  -33.8560   24.1300 N   0  0  0  0  0  0  0  0  0  0  0  0
  -25.8840  -34.9250   23.3920 C   0  0  0  0  0  0  0  0  0  0  0  0
  -26.5540  -34.8430   22.3570 O   0  0  0  0  0  0  0  0  0  0  0  0
  -24.9570  -33.9960   24.9340 H   0  0  0  0  0  0  0  0  0  0  0  0
  -24.1740  -36.7440   23.0740 C   0  0  0  0  0  1  0  0  0  0  0  0
  -25.4040  -36.3080   23.8820 C   0  0  0  0  0  3  0  0  0  0  0  0
  -27.5400  -37.1550   24.7530 C   0  0  0  0  0  1  0  0  0  0  0  0
  -26.4480  -37.3540   23.8040 N   0  0  0  0  0  0  0  0  0  0  0  0
  -26.0450  -38.2730   23.9710 H   0  0  0  0  0  0  0  0  0  0  0  0
  1 13  1  0
  1  6  1  0
  2  5  1  0
  2  1  1  0
  3  6  1  0
  3  7  1  0
  4  7  1  0
  4 53  1  0
  7 10  1  0
  8  4  2  0
  9  2  1  0
  9  3  1  0
 13 11  1  6
 13 22  1  0
 13 12  1  0
 14 22  1  0
 15 20  1  0
 16 17  1  0
 16 15  1  0
 18 17  1  0
 18 27  1  0
 18 19  1  0
 20 14  1  0
 20 19  1  0
 21 14  2  0
 22 23  1  0
 24 25  2  0
 25 26  1  0
 25 44  1  0
 26 29  1  0
 27 24  1  0
 27 28  1  0
 28 26  2  0
 29 30  1  0
 30 31  2  0
 32 35  1  0
 32 31  1  0
 33 32  2  0
 34 33  1  0
 34 29  2  0
 35 36  1  0
 36 37  1  0
 37 38  2  0
 39 38  1  0
 39 43  1  0
 40 39  2  0
 41 36  2  0
 41 40  1  0
 42 41  1  0
 44 45  1  0
 45 48  1  0
 45 47  1  0
 46 44  2  0
 49 50  1  0
 49 24  1  0
 51 49  1  0
 53 52  1  0
 54 53  1  0
 55 57  1  0
 55 54  1  0
 56 67  2  0
 57 62  1  0
 58 66  1  0
 58 68  1  0
 59 65  1  0
 59 61  1  0
 60 66  1  0
 61 60  1  0
 62 61  2  0
 63 64  1  0
 63 57  2  0
 64 59  2  0
 65 58  1  0
 66 56  1  0
 68 70  2  0
 69 68  1  0
 71 69  1  0
 72 81  2  0
 72 77  1  0
 73 69  1  0
 73 77  1  0
 74 73  1  0
 75 76  1  0
 75 74  1  0
 76 72  1  0
 77 78  2  0
 78 79  1  0
 80 79  2  0
 81 80  1  0
 82 56  1  0
 82 87  1  0
 82 83  1  0
 83 86  1  1
 83 84  1  0
 85 83  1  0
 87 90  1  0
 88 92  1  0
 88 87  1  0
 89 88  2  0
 92 91  1  0
 94 92  1  0
 94 95  1  0
 94 93  1  0
M  ISO  4  14 100  22 100  54 101  55 101
M  END
>  <TORSDO>  (56) 
F 19

>  <SCORE>  (56) 
-13.405

>  <name>  (56) 
55

>  <ligand_id>  (56) 
55

>  <original_smiles>  (56) 
[H]c1c([H])c([H])c2c(c1[H])C([H])([H])C([H])([H])C([H])([H])C2([H])N([H])C(=O)C1([H])N(C(=O)C([H])(N([H])C(=O)C([H])(N([H])C([H])([H])[H])C([H])([H])[H])C(C([H])([H])[H])(C([H])([H])[H])C([H])([H])[H])C([H])([H])c2c([H])c(OC([H])([H])C([H])(C(=O)N([H])c3nc(C(N([H])C(=O)N4C([H])([H])C([H])([H])C([H])([H])C([H])(n5nc(-c6c([H])c([H])c(Oc7c([H])c([H])c(F)c([H])c7F)c([H])c6[H])c(C(=O)N([H])[H])c5N([H])[H])C4([H])[H])(C([H])([H])[H])C([H])([H])[H])c(C([H])([H])[H])s3)C([H])([H])[H])c([H])c([H])c2C1([H])[H]

>  <smiles>  (56) 
[H]c1c([H])c([H])c2c(c1[H])C([H])([H])C([H])([H])C([H])([H])C2([H])N([H])C(=O)C1([H])N(C(=O)C([H])(N([H])C(=O)C([H])(N([H])C([H])([H])[H])C([H])([H])[H])C(C([H])([H])[H])(C([H])([H])[H])C([H])([H])[H])C([H])([H])c2c([H])c(OC([H])([H])C([H])(C(=O)N([H])c3nc(C(N([H])C(=O)N4C([H])([H])C([H])([H])C([H])([H])C([H])(n5nc(-c6c([H])c([H])c(Oc7c([H])c([H])c(F)c([H])c7F)c([H])c6[H])c(C(=O)N([H])[H])c5N([H])[H])C4([H])[H])(C([H])([H])[H])C([H])([H])[H])c(C([H])([H])[H])s3)C([H])([H])[H])c([H])c([H])c2C1([H])[H]

$$$$
56:0:0
     RDKit          3D

 95103  0  0  1  0  0  0  0  0999 V2000
  -29.1060  -22.4410   20.6940 C   0  0  0  0  0  0  0  0  0  0  0  0
  -29.1760  -21.2640   19.9690 N   0  0  0  0  0  0  0  0  0  0  0  0
  -29.1950  -22.4170   21.9250 O   0  0  0  0  0  0  0  0  0  0  0  0
  -28.8750  -21.3910   19.0100 H   0  0  0  0  0  0  0  0  0  0  0  0
  -30.5830  -14.8150   20.3220 C   0  0  0  0  0  0  0  0  0  0  0  0
  -30.4100  -12.5390   19.2940 C   0  0  0  0  0  2  0  0  0  0  0  0
  -29.4520  -12.6110   18.0830 C   0  0  0  0  0  2  0  0  0  0  0  0
  -27.9850  -12.4370   18.5250 C   0  0  0  0  0  2  0  0  0  0  0  0
  -27.6200  -13.3200   19.7470 C   0  0  0  0  0  3  0  0  0  0  0  0
  -28.6910  -13.2180   20.8560 C   0  0  0  0  0  2  0  0  0  0  0  0
  -29.9830  -13.5780   20.2560 N   0  0  0  0  0  0  0  0  0  0  0  0
  -31.7760  -14.9410   20.0220 O   0  0  0  0  0  0  0  0  0  0  0  0
  -30.8290  -19.4830   20.7970 C   0  0  0  0  0  0  0  0  0  0  0  0
  -29.6050  -19.9630   20.3000 C   0  0  0  0  0  0  0  0  0  0  0  0
  -29.8850  -17.3620   20.4460 C   0  0  0  0  0  0  0  0  0  0  0  0
  -30.9400  -18.0550   20.8930 N   0  0  0  0  0  0  0  0  0  0  0  0
  -29.7300  -15.8930   20.4820 N   0  0  0  0  0  0  0  0  0  0  0  0
  -28.6190  -18.5180   19.9130 S   0  0  0  0  0  0  0  0  0  0  0  0
  -28.7690  -15.6000   20.5260 H   0  0  0  0  0  0  0  0  0  0  0  0
  -25.2360  -13.9100   20.4940 C   0  0  0  0  0  0  0  0  0  0  0  0
  -24.1760  -13.1340   20.8700 C   0  0  0  0  0  0  0  0  0  0  0  0
  -24.6410  -11.7840   20.8350 C   0  0  0  0  0  0  0  0  0  0  0  0
  -26.2810  -13.0330   20.2480 N   0  0  0  0  0  0  0  0  0  0  0  0
  -25.9300  -11.7490   20.5160 N   0  0  0  0  0  0  0  0  0  0  0  0
  -23.9180  -10.5190   21.0240 C   0  0  0  0  0  0  0  0  0  0  0  0
  -24.3470   -9.5550   21.9640 C   0  0  0  0  0  3  0  0  0  0  0  0
  -23.6220   -8.3580   22.1410 C   0  0  0  0  0  3  0  0  0  0  0  0
  -22.4550   -8.1140   21.3780 C   0  0  0  0  0  0  0  0  0  0  0  0
  -22.0480   -9.0650   20.4270 C   0  0  0  0  0  3  0  0  0  0  0  0
  -22.7720  -10.2550   20.2480 C   0  0  0  0  0  3  0  0  0  0  0  0
  -21.7030   -6.9690   21.4650 O   0  0  0  0  0  0  0  0  0  0  0  0
  -21.6350   -6.2380   22.6250 C   0  0  0  0  0  0  0  0  0  0  0  0
  -21.1610   -6.7980   23.8320 C   0  0  0  0  0  3  0  0  0  0  0  0
  -21.0440   -5.9940   24.9820 C   0  0  0  0  0  3  0  0  0  0  0  0
  -21.3890   -4.6300   24.9260 C   0  0  0  0  0  0  0  0  0  0  0  0
  -21.8570   -4.0700   23.7250 C   0  0  0  0  0  3  0  0  0  0  0  0
  -21.9770   -4.8710   22.5770 C   0  0  0  0  0  0  0  0  0  0  0  0
  -22.4070   -4.3220   21.4150 F   0  0  0  0  0  0  0  0  0  0  0  0
  -21.2690   -3.8550   26.0290 F   0  0  0  0  0  0  0  0  0  0  0  0
  -22.7780  -13.6070   21.1500 C   0  0  0  0  0  0  0  0  0  0  0  0
  -22.0550  -12.9030   22.0130 N   0  0  0  0  0  0  0  0  0  0  0  0
  -22.3380  -14.6350   20.6370 O   0  0  0  0  0  0  0  0  0  0  0  0
  -22.4250  -12.0710   22.4480 H   0  0  0  0  0  0  0  0  0  0  0  0
  -21.1160  -13.2000   22.2420 H   0  0  0  0  0  0  0  0  0  0  0  0
  -25.3920  -15.2820   20.3140 N   0  0  0  0  0  0  0  0  0  0  0  0
  -24.6080  -15.9200   20.4110 H   0  0  0  0  0  0  0  0  0  0  0  0
  -26.2040  -15.7230   19.9020 H   0  0  0  0  0  0  0  0  0  0  0  0
  -31.9900  -20.3300   21.1280 C   0  0  0  0  0  0  0  0  0  0  0  0
  -33.1360  -19.6480   21.8710 C   0  0  0  0  0  1  0  0  0  0  0  0
  -32.1290  -21.5220   20.8410 O   0  0  0  0  0  0  0  0  0  0  0  0
  -30.3230  -24.3660   19.5710 C   0  0  0  0  0  1  0  0  0  0  0  0
  -28.9220  -23.8560   19.9500 C   0  0  1  0  0  0  0  0  0  0  0  0
  -28.2840  -23.6110   18.8010 F   0  0  0  0  0  0  0  0  0  0  0  0
  -28.1380  -25.0640   20.6880 C   0  0  0  0  0  2  0  0  0  0  0  0
  -28.3190  -26.4920   20.2540 O   0  0  0  0  0  0  0  0  0  0  0  0
  -24.5780  -31.9370   23.2480 C   0  0  0  0  0  0  0  0  0  0  0  0
  -27.2050  -27.3510   20.2340 C   0  0  0  0  0  0  0  0  0  0  0  0
  -23.3820  -30.5270   21.6130 C   0  0  0  0  0  3  0  0  0  0  0  0
  -24.8400  -28.9690   20.1980 C   0  0  0  0  0  0  0  0  0  0  0  0
  -25.9210  -30.8460   21.4330 C   0  0  0  0  0  2  0  0  0  0  0  0
  -26.0070  -29.4620   20.7980 C   0  0  0  0  0  0  0  0  0  0  0  0
  -27.1950  -28.6660   20.8010 C   0  0  0  0  0  3  0  0  0  0  0  0
  -26.0200  -26.9190   19.6000 C   0  0  0  0  0  3  0  0  0  0  0  0
  -24.8510  -27.7050   19.5850 C   0  0  0  0  0  3  0  0  0  0  0  0
  -23.6020  -29.8440   20.2380 C   0  0  0  0  0  2  0  0  0  0  0  0
  -24.6460  -31.1220   22.1550 N   0  0  0  0  0  0  0  0  0  0  0  0
  -23.4920  -32.2140   23.7790 O   0  0  0  0  0  0  0  0  0  0  0  0
  -22.7190  -29.5150   22.5760 C   0  0  0  0  0  0  0  0  0  0  0  0
  -21.3930  -29.3370   22.4490 N   0  0  0  0  0  0  0  0  0  0  0  0
  -23.3980  -28.8920   23.3960 O   0  0  0  0  0  0  0  0  0  0  0  0
  -20.9050  -29.8970   21.7640 H   0  0  0  0  0  0  0  0  0  0  0  0
  -18.0130  -28.1500   22.9590 C   0  0  0  0  0  0  0  0  0  0  0  0
  -20.5720  -28.4010   23.2200 C   0  0  0  0  0  3  0  0  0  0  0  0
  -20.6680  -26.9690   22.6430 C   0  0  0  0  0  2  0  0  0  0  0  0
  -19.5600  -26.6520   21.6330 C   0  0  0  0  0  2  0  0  0  0  0  0
  -18.1820  -26.8010   22.2800 C   0  0  0  0  0  2  0  0  0  0  0  0
  -19.1350  -28.9090   23.3850 C   0  0  0  0  0  0  0  0  0  0  0  0
  -18.9220  -30.1720   23.9780 C   0  0  0  0  0  3  0  0  0  0  0  0
  -17.6190  -30.6770   24.1500 C   0  0  0  0  0  3  0  0  0  0  0  0
  -16.5100  -29.9150   23.7390 C   0  0  0  0  0  3  0  0  0  0  0  0
  -16.7090  -28.6540   23.1480 C   0  0  0  0  0  3  0  0  0  0  0  0
  -25.8560  -32.5760   23.8730 C   0  0  0  0  0  3  0  0  0  0  0  0
  -26.3630  -31.8200   25.1620 C   0  0  1  0  0  0  0  0  0  0  0  0
  -25.2600  -31.5930   26.2240 C   0  0  0  0  0  1  0  0  0  0  0  0
  -26.9480  -30.4380   24.7910 C   0  0  0  0  0  1  0  0  0  0  0  0
  -27.5080  -32.6220   25.8240 C   0  0  0  0  0  1  0  0  0  0  0  0
  -25.5450  -33.9790   24.1850 N   0  0  0  0  0  0  0  0  0  0  0  0
  -25.8880  -35.0230   23.4190 C   0  0  0  0  0  0  0  0  0  0  0  0
  -26.5660  -34.9070   22.3950 O   0  0  0  0  0  0  0  0  0  0  0  0
  -24.9430  -34.1420   24.9780 H   0  0  0  0  0  0  0  0  0  0  0  0
  -24.1750  -36.8240   23.0230 C   0  0  0  0  0  1  0  0  0  0  0  0
  -25.4020  -36.4180   23.8590 C   0  0  0  0  0  3  0  0  0  0  0  0
  -27.5260  -37.2980   24.7220 C   0  0  0  0  0  1  0  0  0  0  0  0
  -26.4430  -37.4650   23.7560 N   0  0  0  0  0  0  0  0  0  0  0  0
  -26.0400  -38.3880   23.8940 H   0  0  0  0  0  0  0  0  0  0  0  0
  1  3  2  0
  2 14  1  0
  2  1  1  0
  4  2  1  0
  5 17  1  0
  6 11  1  0
  7  8  1  0
  7  6  1  0
  9  8  1  0
  9 23  1  0
  9 10  1  0
 11  5  1  0
 11 10  1  0
 12  5  2  0
 13 16  1  0
 13 48  1  0
 14 13  2  0
 15 17  1  0
 15 16  2  0
 17 19  1  0
 18 14  1  0
 18 15  1  0
 20 21  2  0
 21 40  1  0
 22 21  1  0
 22 25  1  0
 23 20  1  0
 23 24  1  0
 24 22  2  0
 25 26  1  0
 26 27  2  0
 28 31  1  0
 28 27  1  0
 29 28  2  0
 30 29  1  0
 30 25  2  0
 31 32  1  0
 32 33  1  0
 33 34  2  0
 35 34  1  0
 35 39  1  0
 36 35  2  0
 37 32  2  0
 37 36  1  0
 38 37  1  0
 40 41  1  0
 41 44  1  0
 41 43  1  0
 42 40  2  0
 45 46  1  0
 45 20  1  0
 47 45  1  0
 48 49  1  0
 50 48  2  0
 52 51  1  6
 52 54  1  0
 52  1  1  0
 53 52  1  0
 55 54  1  0
 56 67  2  0
 57 55  1  0
 57 62  1  0
 58 66  1  0
 58 68  1  0
 59 65  1  0
 59 61  1  0
 60 66  1  0
 61 62  2  0
 61 60  1  0
 63 57  2  0
 64 63  1  0
 64 59  2  0
 65 58  1  0
 66 56  1  0
 68 70  2  0
 69 68  1  0
 71 69  1  0
 72 81  2  0
 72 77  1  0
 73 69  1  0
 73 77  1  0
 74 73  1  0
 75 76  1  0
 75 74  1  0
 76 72  1  0
 77 78  2  0
 78 79  1  0
 80 79  2  0
 81 80  1  0
 82 56  1  0
 82 87  1  0
 82 83  1  0
 83 86  1  1
 83 84  1  0
 85 83  1  0
 87 90  1  0
 88 92  1  0
 88 87  1  0
 89 88  2  0
 92 91  1  0
 94 92  1  0
 94 95  1  0
 94 93  1  0
M  ISO  4   5 100  17 100  54 101  55 101
M  END
>  <TORSDO>  (57) 
F 19

>  <SCORE>  (57) 
-14.656

>  <name>  (57) 
56

>  <ligand_id>  (57) 
56

>  <original_smiles>  (57) 
[H]c1c([H])c([H])c2c(c1[H])C([H])([H])C([H])([H])C([H])([H])C2([H])N([H])C(=O)C1([H])N(C(=O)C([H])(N([H])C(=O)C([H])(N([H])C([H])([H])[H])C([H])([H])[H])C(C([H])([H])[H])(C([H])([H])[H])C([H])([H])[H])C([H])([H])c2c([H])c(OC([H])([H])C(F)(C(=O)N([H])c3sc(N([H])C(=O)N4C([H])([H])C([H])([H])C([H])([H])C([H])(n5nc(-c6c([H])c([H])c(Oc7c([H])c([H])c(F)c([H])c7F)c([H])c6[H])c(C(=O)N([H])[H])c5N([H])[H])C4([H])[H])nc3C(=O)C([H])([H])[H])C([H])([H])[H])c([H])c([H])c2C1([H])[H]

>  <smiles>  (57) 
[H]c1c([H])c([H])c2c(c1[H])C([H])([H])C([H])([H])C([H])([H])C2([H])N([H])C(=O)C1([H])N(C(=O)C([H])(N([H])C(=O)C([H])(N([H])C([H])([H])[H])C([H])([H])[H])C(C([H])([H])[H])(C([H])([H])[H])C([H])([H])[H])C([H])([H])c2c([H])c(OC([H])([H])C(F)(C(=O)N([H])c3sc(N([H])C(=O)N4C([H])([H])C([H])([H])C([H])([H])C([H])(n5nc(-c6c([H])c([H])c(Oc7c([H])c([H])c(F)c([H])c7F)c([H])c6[H])c(C(=O)N([H])[H])c5N([H])[H])C4([H])[H])nc3C(=O)C([H])([H])[H])C([H])([H])[H])c([H])c([H])c2C1([H])[H]

$$$$
57:0:0
     RDKit          3D

 93101  0  0  1  0  0  0  0  0999 V2000
  -29.1380  -22.3670   20.0290 C   0  0  0  0  0  0  0  0  0  0  0  0
  -29.6100  -21.2710   20.7300 N   0  0  0  0  0  0  0  0  0  0  0  0
  -28.4920  -22.2020   18.9920 O   0  0  0  0  0  0  0  0  0  0  0  0
  -29.9780  -21.4930   21.6440 H   0  0  0  0  0  0  0  0  0  0  0  0
  -30.6280  -14.7750   20.0090 C   0  0  0  0  0  0  0  0  0  0  0  0
  -30.3600  -12.5310   18.9380 C   0  0  0  0  0  2  0  0  0  0  0  0
  -29.3440  -12.6600   17.7800 C   0  0  0  0  0  2  0  0  0  0  0  0
  -27.9020  -12.4830   18.2960 C   0  0  0  0  0  2  0  0  0  0  0  0
  -27.6170  -13.3270   19.5670 C   0  0  0  0  0  3  0  0  0  0  0  0
  -28.7440  -13.1760   20.6140 C   0  0  0  0  0  2  0  0  0  0  0  0
  -30.0110  -13.5430   19.9640 N   0  0  0  0  0  0  0  0  0  0  0  0
  -31.7500  -14.9190   19.5110 O   0  0  0  0  0  0  0  0  0  0  0  0
  -30.0990  -19.3240   19.1780 C   0  0  0  0  0  0  0  0  0  0  0  0
  -29.7140  -19.9130   20.3750 C   0  0  0  0  0  0  0  0  0  0  0  0
  -29.9710  -17.3020   20.3240 C   0  0  0  0  0  0  0  0  0  0  0  0
  -30.2410  -17.9030   19.1520 N   0  0  0  0  0  0  0  0  0  0  0  0
  -29.9130  -15.8350   20.5330 N   0  0  0  0  0  0  0  0  0  0  0  0
  -30.3820  -20.0350   18.1110 F   0  0  0  0  0  0  0  0  0  0  0  0
  -29.5040  -18.5600   21.5300 S   0  0  0  0  0  0  0  0  0  0  0  0
  -29.1390  -15.5400   21.1060 H   0  0  0  0  0  0  0  0  0  0  0  0
  -25.2820  -13.9110   20.4590 C   0  0  0  0  0  0  0  0  0  0  0  0
  -24.2350  -13.1320   20.8740 C   0  0  0  0  0  0  0  0  0  0  0  0
  -24.6840  -11.7790   20.7680 C   0  0  0  0  0  0  0  0  0  0  0  0
  -26.3020  -13.0330   20.1280 N   0  0  0  0  0  0  0  0  0  0  0  0
  -25.9510  -11.7440   20.3740 N   0  0  0  0  0  0  0  0  0  0  0  0
  -23.9600  -10.5160   20.9640 C   0  0  0  0  0  0  0  0  0  0  0  0
  -24.4090   -9.5430   21.8830 C   0  0  0  0  0  3  0  0  0  0  0  0
  -23.6850   -8.3440   22.0680 C   0  0  0  0  0  3  0  0  0  0  0  0
  -22.4980   -8.1120   21.3330 C   0  0  0  0  0  0  0  0  0  0  0  0
  -22.0680   -9.0740   20.4030 C   0  0  0  0  0  3  0  0  0  0  0  0
  -22.7920  -10.2640   20.2160 C   0  0  0  0  0  3  0  0  0  0  0  0
  -21.7440   -6.9670   21.4280 O   0  0  0  0  0  0  0  0  0  0  0  0
  -21.6700   -6.2490   22.5940 C   0  0  0  0  0  0  0  0  0  0  0  0
  -21.1820   -6.8190   23.7910 C   0  0  0  0  0  3  0  0  0  0  0  0
  -21.0560   -6.0270   24.9480 C   0  0  0  0  0  3  0  0  0  0  0  0
  -21.4080   -4.6640   24.9110 C   0  0  0  0  0  0  0  0  0  0  0  0
  -21.8880   -4.0930   23.7200 C   0  0  0  0  0  3  0  0  0  0  0  0
  -22.0150   -4.8830   22.5640 C   0  0  0  0  0  0  0  0  0  0  0  0
  -22.4590   -4.3220   21.4140 F   0  0  0  0  0  0  0  0  0  0  0  0
  -21.2790   -3.9010   26.0210 F   0  0  0  0  0  0  0  0  0  0  0  0
  -22.8620  -13.6100   21.2510 C   0  0  0  0  0  0  0  0  0  0  0  0
  -22.1860  -12.8900   22.1400 N   0  0  0  0  0  0  0  0  0  0  0  0
  -22.4010  -14.6540   20.7930 O   0  0  0  0  0  0  0  0  0  0  0  0
  -22.5740  -12.0440   22.5320 H   0  0  0  0  0  0  0  0  0  0  0  0
  -21.2680  -13.1910   22.4340 H   0  0  0  0  0  0  0  0  0  0  0  0
  -25.4450  -15.2860   20.3160 N   0  0  0  0  0  0  0  0  0  0  0  0
  -24.6870  -15.9370   20.4880 H   0  0  0  0  0  0  0  0  0  0  0  0
  -26.2630  -15.7290   19.9160 H   0  0  0  0  0  0  0  0  0  0  0  0
  -30.4910  -24.4780   19.5520 C   0  0  0  0  0  1  0  0  0  0  0  0
  -29.4400  -23.8820   20.5040 C   0  0  0  0  0  3  0  0  0  0  0  0
  -26.8870  -24.3480   20.7940 C   0  0  0  0  0  1  0  0  0  0  0  0
  -28.2850  -25.0030   20.7830 C   0  0  0  0  0  3  0  0  0  0  0  0
  -28.4040  -26.4010   20.1910 O   0  0  0  0  0  0  0  0  0  0  0  0
  -24.6180  -31.8540   23.1850 C   0  0  0  0  0  0  0  0  0  0  0  0
  -27.3040  -27.2920   20.1610 C   0  0  0  0  0  0  0  0  0  0  0  0
  -23.4480  -30.4380   21.5390 C   0  0  0  0  0  3  0  0  0  0  0  0
  -24.9330  -28.9130   20.1160 C   0  0  0  0  0  0  0  0  0  0  0  0
  -25.9880  -30.7800   21.3810 C   0  0  0  0  0  2  0  0  0  0  0  0
  -26.0910  -29.3980   20.7380 C   0  0  0  0  0  0  0  0  0  0  0  0
  -27.2790  -28.5980   20.7580 C   0  0  0  0  0  3  0  0  0  0  0  0
  -26.1450  -26.9110   19.4520 C   0  0  0  0  0  3  0  0  0  0  0  0
  -24.9650  -27.6760   19.4600 C   0  0  0  0  0  3  0  0  0  0  0  0
  -23.6830  -29.7710   20.1590 C   0  0  0  0  0  2  0  0  0  0  0  0
  -24.7030  -31.0440   22.0910 N   0  0  0  0  0  0  0  0  0  0  0  0
  -23.5270  -32.1160   23.7130 O   0  0  0  0  0  0  0  0  0  0  0  0
  -22.7950  -29.4090   22.4940 C   0  0  0  0  0  0  0  0  0  0  0  0
  -21.4690  -29.2230   22.3730 N   0  0  0  0  0  0  0  0  0  0  0  0
  -23.4810  -28.7830   23.3070 O   0  0  0  0  0  0  0  0  0  0  0  0
  -20.9730  -29.7810   21.6920 H   0  0  0  0  0  0  0  0  0  0  0  0
  -18.0990  -28.0120   22.8980 C   0  0  0  0  0  0  0  0  0  0  0  0
  -20.6610  -28.2750   23.1420 C   0  0  0  0  0  3  0  0  0  0  0  0
  -20.7590  -26.8500   22.5520 C   0  0  0  0  0  2  0  0  0  0  0  0
  -19.6470  -26.5350   21.5450 C   0  0  0  0  0  2  0  0  0  0  0  0
  -18.2730  -26.6700   22.2050 C   0  0  0  0  0  2  0  0  0  0  0  0
  -19.2210  -28.7720   23.3240 C   0  0  0  0  0  0  0  0  0  0  0  0
  -19.0050  -30.0270   23.9330 C   0  0  0  0  0  3  0  0  0  0  0  0
  -17.7010  -30.5230   24.1190 C   0  0  0  0  0  3  0  0  0  0  0  0
  -16.5940  -29.7600   23.7080 C   0  0  0  0  0  3  0  0  0  0  0  0
  -16.7950  -28.5050   23.1040 C   0  0  0  0  0  3  0  0  0  0  0  0
  -25.8870  -32.5080   23.8150 C   0  0  0  0  0  3  0  0  0  0  0  0
  -25.5500  -33.9000   24.1490 N   0  0  0  0  0  0  0  0  0  0  0  0
  -25.8580  -34.9610   23.3920 C   0  0  0  0  0  0  0  0  0  0  0  0
  -26.5270  -34.8730   22.3570 O   0  0  0  0  0  0  0  0  0  0  0  0
  -24.9550  -34.0410   24.9520 H   0  0  0  0  0  0  0  0  0  0  0  0
  -24.0990  -36.7260   23.0450 C   0  0  0  0  0  1  0  0  0  0  0  0
  -25.3480  -36.3400   23.8550 C   0  0  0  0  0  3  0  0  0  0  0  0
  -27.4630  -37.2620   24.6950 C   0  0  0  0  0  1  0  0  0  0  0  0
  -26.3620  -37.4110   23.7470 N   0  0  0  0  0  0  0  0  0  0  0  0
  -25.9380  -38.3240   23.8920 H   0  0  0  0  0  0  0  0  0  0  0  0
  -26.4120  -31.7430   25.0910 C   0  0  1  0  0  0  0  0  0  0  0  0
  -25.3190  -31.4820   26.1530 C   0  0  0  0  0  1  0  0  0  0  0  0
  -27.0230  -30.3770   24.7010 C   0  0  0  0  0  1  0  0  0  0  0  0
  -27.5440  -32.5560   25.7600 C   0  0  0  0  0  1  0  0  0  0  0  0
  1 50  1  0
  1  2  1  0
  2  4  1  0
  3  1  2  0
  5 17  1  0
  6 11  1  0
  7  8  1  0
  7  6  1  0
  9  8  1  0
  9 24  1  0
  9 10  1  0
 11  5  1  0
 11 10  1  0
 12  5  2  0
 13 14  2  0
 14  2  1  0
 14 19  1  0
 15 17  1  0
 15 19  1  0
 16 13  1  0
 16 15  2  0
 17 20  1  0
 18 13  1  0
 21 22  2  0
 22 41  1  0
 23 22  1  0
 23 26  1  0
 24 25  1  0
 24 21  1  0
 25 23  2  0
 26 27  1  0
 27 28  2  0
 29 32  1  0
 29 28  1  0
 30 29  2  0
 31 30  1  0
 31 26  2  0
 32 33  1  0
 33 34  1  0
 34 35  2  0
 36 35  1  0
 36 40  1  0
 37 36  2  0
 38 33  2  0
 38 37  1  0
 39 38  1  0
 41 42  1  0
 42 45  1  0
 42 44  1  0
 43 41  2  0
 46 21  1  0
 46 47  1  0
 48 46  1  0
 50 49  1  0
 50 52  1  0
 52 51  1  0
 53 52  1  0
 54 65  2  0
 55 53  1  0
 55 60  1  0
 56 64  1  0
 56 66  1  0
 57 63  1  0
 57 59  1  0
 58 64  1  0
 59 60  2  0
 59 58  1  0
 61 62  1  0
 61 55  2  0
 62 57  2  0
 63 56  1  0
 64 54  1  0
 66 68  2  0
 67 66  1  0
 69 67  1  0
 70 79  2  0
 70 75  1  0
 71 67  1  0
 71 75  1  0
 72 71  1  0
 73 74  1  0
 73 72  1  0
 74 70  1  0
 75 76  2  0
 76 77  1  0
 78 77  2  0
 79 78  1  0
 80 54  1  0
 80 81  1  0
 80 90  1  0
 81 84  1  0
 82 86  1  0
 82 81  1  0
 83 82  2  0
 86 85  1  0
 88 86  1  0
 88 89  1  0
 88 87  1  0
 90 93  1  1
 90 91  1  0
 92 90  1  0
M  ISO  4   5 100  17 100  52 101  53 101
M  END
>  <TORSDO>  (58) 
F 18

>  <SCORE>  (58) 
-14.039

>  <name>  (58) 
57

>  <ligand_id>  (58) 
57

>  <original_smiles>  (58) 
[H]c1c([H])c([H])c2c(c1[H])C([H])([H])C([H])([H])C([H])([H])C2([H])N([H])C(=O)C1([H])N(C(=O)C([H])(N([H])C(=O)C([H])(N([H])C([H])([H])[H])C([H])([H])[H])C(C([H])([H])[H])(C([H])([H])[H])C([H])([H])[H])C([H])([H])c2c([H])c(OC([H])(C([H])([H])[H])C([H])(C(=O)N([H])c3sc(N([H])C(=O)N4C([H])([H])C([H])([H])C([H])([H])C([H])(n5nc(-c6c([H])c([H])c(Oc7c([H])c([H])c(F)c([H])c7F)c([H])c6[H])c(C(=O)N([H])[H])c5N([H])[H])C4([H])[H])nc3F)C([H])([H])[H])c([H])c([H])c2C1([H])[H]

>  <smiles>  (58) 
[H]c1c([H])c([H])c2c(c1[H])C([H])([H])C([H])([H])C([H])([H])C2([H])N([H])C(=O)C1([H])N(C(=O)C([H])(N([H])C(=O)C([H])(N([H])C([H])([H])[H])C([H])([H])[H])C(C([H])([H])[H])(C([H])([H])[H])C([H])([H])[H])C([H])([H])c2c([H])c(OC([H])(C([H])([H])[H])C([H])(C(=O)N([H])c3sc(N([H])C(=O)N4C([H])([H])C([H])([H])C([H])([H])C([H])(n5nc(-c6c([H])c([H])c(Oc7c([H])c([H])c(F)c([H])c7F)c([H])c6[H])c(C(=O)N([H])[H])c5N([H])[H])C4([H])[H])nc3F)C([H])([H])[H])c([H])c([H])c2C1([H])[H]

$$$$
58:0:0
     RDKit          3D

 93101  0  0  1  0  0  0  0  0999 V2000
  -29.1870  -21.1260   21.2690 N   0  0  0  0  0  0  0  0  0  0  0  0
  -28.7700  -20.9280   22.1760 H   0  0  0  0  0  0  0  0  0  0  0  0
  -30.6330  -14.8900   20.3620 C   0  0  0  0  0  0  0  0  0  0  0  0
  -30.4270  -12.6100   19.3210 C   0  0  0  0  0  2  0  0  0  0  0  0
  -29.4930  -12.6470   18.0930 C   0  0  0  0  0  2  0  0  0  0  0  0
  -28.0260  -12.4500   18.5160 C   0  0  0  0  0  2  0  0  0  0  0  0
  -27.6420  -13.3440   19.7290 C   0  0  0  0  0  3  0  0  0  0  0  0
  -28.6980  -13.2920   20.8560 C   0  0  0  0  0  2  0  0  0  0  0  0
  -29.9920  -13.6660   20.2720 N   0  0  0  0  0  0  0  0  0  0  0  0
  -31.8000  -14.9560   19.9600 O   0  0  0  0  0  0  0  0  0  0  0  0
  -30.8070  -17.7590   19.2380 C   0  0  0  0  0  3  0  0  0  0  0  0
  -30.3170  -20.1440   19.3570 C   0  0  0  0  0  3  0  0  0  0  0  0
  -30.9000  -19.0530   18.6990 C   0  0  0  0  0  0  0  0  0  0  0  0
  -30.1030  -17.5020   20.4290 C   0  0  0  0  0  0  0  0  0  0  0  0
  -29.6610  -19.9420   20.5770 C   0  0  0  0  0  0  0  0  0  0  0  0
  -29.5550  -18.6290   21.0820 N   0  0  0  0  0  0  0  0  0  0  0  0
  -29.9440  -16.0410   20.7980 N   0  0  0  0  0  0  0  0  0  0  0  0
  -31.5620  -19.2440   17.5390 F   0  0  0  0  0  0  0  0  0  0  0  0
  -29.1090  -15.8420   21.3240 H   0  0  0  0  0  0  0  0  0  0  0  0
  -25.2600  -13.9110   20.4820 C   0  0  0  0  0  0  0  0  0  0  0  0
  -24.2020  -13.1330   20.8600 C   0  0  0  0  0  0  0  0  0  0  0  0
  -24.6730  -11.7810   20.8190 C   0  0  0  0  0  0  0  0  0  0  0  0
  -26.3070  -13.0380   20.2310 N   0  0  0  0  0  0  0  0  0  0  0  0
  -25.9620  -11.7530   20.4970 N   0  0  0  0  0  0  0  0  0  0  0  0
  -23.9540  -10.5180   21.0120 C   0  0  0  0  0  0  0  0  0  0  0  0
  -24.3860   -9.5580   21.9510 C   0  0  0  0  0  3  0  0  0  0  0  0
  -23.6650   -8.3550   22.1310 C   0  0  0  0  0  3  0  0  0  0  0  0
  -22.5000   -8.1070   21.3700 C   0  0  0  0  0  0  0  0  0  0  0  0
  -22.0850   -9.0580   20.4210 C   0  0  0  0  0  3  0  0  0  0  0  0
  -22.8080  -10.2520   20.2400 C   0  0  0  0  0  3  0  0  0  0  0  0
  -21.7460   -6.9590   21.4620 O   0  0  0  0  0  0  0  0  0  0  0  0
  -21.6830   -6.2290   22.6180 C   0  0  0  0  0  0  0  0  0  0  0  0
  -21.2000   -6.7830   23.8250 C   0  0  0  0  0  3  0  0  0  0  0  0
  -21.0760   -5.9740   24.9720 C   0  0  0  0  0  3  0  0  0  0  0  0
  -21.4390   -4.6160   24.9180 C   0  0  0  0  0  0  0  0  0  0  0  0
  -21.9180   -4.0620   23.7170 C   0  0  0  0  0  3  0  0  0  0  0  0
  -22.0380   -4.8650   22.5720 C   0  0  0  0  0  0  0  0  0  0  0  0
  -22.4790   -4.3200   21.4140 F   0  0  0  0  0  0  0  0  0  0  0  0
  -21.3160   -3.8390   26.0210 F   0  0  0  0  0  0  0  0  0  0  0  0
  -22.8080  -13.6070   21.1430 C   0  0  0  0  0  0  0  0  0  0  0  0
  -22.0800  -12.9040   22.0020 N   0  0  0  0  0  0  0  0  0  0  0  0
  -22.3690  -14.6380   20.6400 O   0  0  0  0  0  0  0  0  0  0  0  0
  -22.4450  -12.0690   22.4400 H   0  0  0  0  0  0  0  0  0  0  0  0
  -21.1430  -13.2070   22.2270 H   0  0  0  0  0  0  0  0  0  0  0  0
  -25.4250  -15.2830   20.3000 N   0  0  0  0  0  0  0  0  0  0  0  0
  -24.6600  -15.9440   20.3940 H   0  0  0  0  0  0  0  0  0  0  0  0
  -26.2760  -15.7090   19.9560 H   0  0  0  0  0  0  0  0  0  0  0  0
  -27.0820  -22.3500   20.8450 C   0  0  0  0  0  1  0  0  0  0  0  0
  -28.6040  -22.3670   20.5850 C   0  0  0  0  0  3  0  0  0  0  0  0
  -29.1480  -23.8900   20.8860 C   0  0  0  0  0  2  0  0  0  0  0  0
  -29.2530  -25.2110   18.6300 C   0  0  0  0  0  1  0  0  0  0  0  0
  -28.5410  -25.1180   19.9920 C   0  0  0  0  0  3  0  0  0  0  0  0
  -28.4810  -26.5480   20.4430 O   0  0  0  0  0  0  0  0  0  0  0  0
  -24.5780  -31.8950   23.2380 C   0  0  0  0  0  0  0  0  0  0  0  0
  -27.3400  -27.3710   20.2640 C   0  0  0  0  0  0  0  0  0  0  0  0
  -23.4330  -30.4910   21.5620 C   0  0  0  0  0  3  0  0  0  0  0  0
  -24.9430  -28.9690   20.1580 C   0  0  0  0  0  0  0  0  0  0  0  0
  -25.9640  -30.8460   21.4330 C   0  0  0  0  0  2  0  0  0  0  0  0
  -26.0820  -29.4640   20.8010 C   0  0  0  0  0  0  0  0  0  0  0  0
  -27.2720  -28.6770   20.8530 C   0  0  0  0  0  3  0  0  0  0  0  0
  -26.1850  -26.9500   19.5530 C   0  0  0  0  0  3  0  0  0  0  0  0
  -25.0020  -27.7200   19.5180 C   0  0  0  0  0  3  0  0  0  0  0  0
  -23.6880  -29.8190   20.1830 C   0  0  0  0  0  2  0  0  0  0  0  0
  -24.6780  -31.0970   22.1340 N   0  0  0  0  0  0  0  0  0  0  0  0
  -23.4800  -32.1600   23.7470 O   0  0  0  0  0  0  0  0  0  0  0  0
  -22.7610  -29.4660   22.5050 C   0  0  0  0  0  0  0  0  0  0  0  0
  -21.4350  -29.2830   22.3600 N   0  0  0  0  0  0  0  0  0  0  0  0
  -23.4290  -28.8320   23.3290 O   0  0  0  0  0  0  0  0  0  0  0  0
  -20.9550  -29.8450   21.6690 H   0  0  0  0  0  0  0  0  0  0  0  0
  -18.0460  -28.1040   22.8240 C   0  0  0  0  0  0  0  0  0  0  0  0
  -20.6050  -28.3350   23.1090 C   0  0  0  0  0  3  0  0  0  0  0  0
  -20.6990  -26.9170   22.5020 C   0  0  0  0  0  2  0  0  0  0  0  0
  -19.5960  -26.6250   21.4790 C   0  0  0  0  0  2  0  0  0  0  0  0
  -18.2150  -26.7680   22.1220 C   0  0  0  0  0  2  0  0  0  0  0  0
  -19.1680  -28.8480   23.2740 C   0  0  0  0  0  0  0  0  0  0  0  0
  -18.9570  -30.1020   23.8890 C   0  0  0  0  0  3  0  0  0  0  0  0
  -17.6540  -30.6090   24.0600 C   0  0  0  0  0  3  0  0  0  0  0  0
  -16.5470  -29.8610   23.6220 C   0  0  0  0  0  3  0  0  0  0  0  0
  -16.7440  -28.6090   23.0140 C   0  0  0  0  0  3  0  0  0  0  0  0
  -25.8410  -32.5370   23.8900 C   0  0  0  0  0  3  0  0  0  0  0  0
  -26.3240  -31.7760   25.1860 C   0  0  1  0  0  0  0  0  0  0  0  0
  -25.2020  -31.5390   26.2240 C   0  0  0  0  0  1  0  0  0  0  0  0
  -26.9220  -30.3990   24.8140 C   0  0  0  0  0  1  0  0  0  0  0  0
  -27.4500  -32.5800   25.8770 C   0  0  0  0  0  1  0  0  0  0  0  0
  -25.5180  -33.9380   24.2020 N   0  0  0  0  0  0  0  0  0  0  0  0
  -25.8680  -34.9860   23.4430 C   0  0  0  0  0  0  0  0  0  0  0  0
  -26.5670  -34.8750   22.4320 O   0  0  0  0  0  0  0  0  0  0  0  0
  -24.8930  -34.0980   24.9790 H   0  0  0  0  0  0  0  0  0  0  0  0
  -24.1520  -36.7760   23.0250 C   0  0  0  0  0  1  0  0  0  0  0  0
  -25.3660  -36.3760   23.8760 C   0  0  0  0  0  3  0  0  0  0  0  0
  -27.4710  -37.2740   24.7700 C   0  0  0  0  0  1  0  0  0  0  0  0
  -26.4000  -37.4300   23.7890 N   0  0  0  0  0  0  0  0  0  0  0  0
  -25.9880  -38.3500   23.9130 H   0  0  0  0  0  0  0  0  0  0  0  0
  1  2  1  0
  3 17  1  0
  4  9  1  0
  5  6  1  0
  5  4  1  0
  7  6  1  0
  7 23  1  0
  7  8  1  0
  9  3  1  0
  9  8  1  0
 10  3  2  0
 11 14  1  0
 12 15  2  0
 13 11  2  0
 13 12  1  0
 14 17  1  0
 14 16  2  0
 15 16  1  0
 15  1  1  0
 17 19  1  0
 18 13  1  0
 20 21  2  0
 21 40  1  0
 22 21  1  0
 22 25  1  0
 23 20  1  0
 23 24  1  0
 24 22  2  0
 25 26  1  0
 26 27  2  0
 28 31  1  0
 28 27  1  0
 29 28  2  0
 30 29  1  0
 30 25  2  0
 31 32  1  0
 32 33  1  0
 33 34  2  0
 35 34  1  0
 35 39  1  0
 36 35  2  0
 37 32  2  0
 37 36  1  0
 38 37  1  0
 40 41  1  0
 41 44  1  0
 41 43  1  0
 42 40  2  0
 45 46  1  0
 45 20  1  0
 47 45  1  0
 49 48  1  0
 49 50  1  0
 49  1  1  0
 52 51  1  0
 52 53  1  0
 52 50  1  0
 54 65  2  0
 55 53  1  0
 55 60  1  0
 56 64  1  0
 56 66  1  0
 57 63  1  0
 57 59  1  0
 58 64  1  0
 59 60  2  0
 59 58  1  0
 61 55  2  0
 62 61  1  0
 62 57  2  0
 63 56  1  0
 64 54  1  0
 66 68  2  0
 67 66  1  0
 69 67  1  0
 70 79  2  0
 70 75  1  0
 71 67  1  0
 71 75  1  0
 72 71  1  0
 73 74  1  0
 73 72  1  0
 74 70  1  0
 75 76  2  0
 76 77  1  0
 78 77  2  0
 79 78  1  0
 80 54  1  0
 80 85  1  0
 80 81  1  0
 81 84  1  1
 81 82  1  0
 83 81  1  0
 85 88  1  0
 86 90  1  0
 86 85  1  0
 87 86  2  0
 90 89  1  0
 92 90  1  0
 92 93  1  0
 92 91  1  0
M  ISO  4   3 100  17 100  52 101  53 101
M  END
>  <TORSDO>  (59) 
F 19

>  <SCORE>  (59) 
-14.328

>  <name>  (59) 
58

>  <ligand_id>  (59) 
58

>  <original_smiles>  (59) 
[H]c1c([H])c([H])c2c(c1[H])C([H])([H])C([H])([H])C([H])([H])C2([H])N([H])C(=O)C1([H])N(C(=O)C([H])(N([H])C(=O)C([H])(N([H])C([H])([H])[H])C([H])([H])[H])C(C([H])([H])[H])(C([H])([H])[H])C([H])([H])[H])C([H])([H])c2c([H])c(OC([H])(C([H])([H])[H])C([H])([H])C([H])(N([H])c3nc(N([H])C(=O)N4C([H])([H])C([H])([H])C([H])([H])C([H])(n5nc(-c6c([H])c([H])c(Oc7c([H])c([H])c(F)c([H])c7F)c([H])c6[H])c(C(=O)N([H])[H])c5N([H])[H])C4([H])[H])c([H])c(F)c3[H])C([H])([H])[H])c([H])c([H])c2C1([H])[H]

>  <smiles>  (59) 
[H]c1c([H])c([H])c2c(c1[H])C([H])([H])C([H])([H])C([H])([H])C2([H])N([H])C(=O)C1([H])N(C(=O)C([H])(N([H])C(=O)C([H])(N([H])C([H])([H])[H])C([H])([H])[H])C(C([H])([H])[H])(C([H])([H])[H])C([H])([H])[H])C([H])([H])c2c([H])c(OC([H])(C([H])([H])[H])C([H])([H])C([H])(N([H])c3nc(N([H])C(=O)N4C([H])([H])C([H])([H])C([H])([H])C([H])(n5nc(-c6c([H])c([H])c(Oc7c([H])c([H])c(F)c([H])c7F)c([H])c6[H])c(C(=O)N([H])[H])c5N([H])[H])C4([H])[H])c([H])c(F)c3[H])C([H])([H])[H])c([H])c([H])c2C1([H])[H]

$$$$
59:0:0
     RDKit          3D

 94102  0  0  1  0  0  0  0  0999 V2000
  -28.5810  -21.6670   20.4730 C   0  0  0  0  0  0  0  0  0  0  0  0
  -27.4070  -21.5360   20.8410 O   0  0  0  0  0  0  0  0  0  0  0  0
  -30.5490  -15.1340   20.2850 C   0  0  0  0  0  0  0  0  0  0  0  0
  -30.4520  -12.7630   19.3540 C   0  0  0  0  0  2  0  0  0  0  0  0
  -29.5010  -12.6870   18.1350 C   0  0  0  0  0  2  0  0  0  0  0  0
  -28.0450  -12.4660   18.5850 C   0  0  0  0  0  2  0  0  0  0  0  0
  -27.6480  -13.3850   19.7690 C   0  0  0  0  0  3  0  0  0  0  0  0
  -28.7210  -13.4080   20.8800 C   0  0  0  0  0  2  0  0  0  0  0  0
  -29.9730  -13.8560   20.2550 N   0  0  0  0  0  0  0  0  0  0  0  0
  -31.7420  -15.1950   19.9600 O   0  0  0  0  0  0  0  0  0  0  0  0
  -29.4550  -20.3230   20.3040 C   0  0  0  0  0  0  0  0  0  0  0  0
  -30.7790  -20.2600   19.8790 C   0  0  0  0  0  0  0  0  0  0  0  0
  -29.9680  -17.8410   20.3410 C   0  0  0  0  0  0  0  0  0  0  0  0
  -29.0560  -18.8960   20.5500 N   0  0  0  0  0  0  0  0  0  0  0  0
  -29.7580  -16.3120   20.5050 N   0  0  0  0  0  0  0  0  0  0  0  0
  -31.4690  -18.6060   19.8120 S   0  0  0  0  0  0  0  0  0  0  0  0
  -28.8220  -16.0820   20.7910 H   0  0  0  0  0  0  0  0  0  0  0  0
  -25.2850  -13.9520   20.5650 C   0  0  0  0  0  0  0  0  0  0  0  0
  -24.2240  -13.1720   20.9350 C   0  0  0  0  0  0  0  0  0  0  0  0
  -24.6830  -11.8210   20.8640 C   0  0  0  0  0  0  0  0  0  0  0  0
  -26.3190  -13.0760   20.2840 N   0  0  0  0  0  0  0  0  0  0  0  0
  -25.9680  -11.7870   20.5290 N   0  0  0  0  0  0  0  0  0  0  0  0
  -23.9530  -10.5580   21.0340 C   0  0  0  0  0  0  0  0  0  0  0  0
  -24.3780   -9.5810   21.9620 C   0  0  0  0  0  3  0  0  0  0  0  0
  -23.6490   -8.3830   22.1260 C   0  0  0  0  0  3  0  0  0  0  0  0
  -22.4810   -8.1530   21.3600 C   0  0  0  0  0  0  0  0  0  0  0  0
  -22.0730   -9.1190   20.4240 C   0  0  0  0  0  3  0  0  0  0  0  0
  -22.8020  -10.3090   20.2590 C   0  0  0  0  0  3  0  0  0  0  0  0
  -21.7240   -7.0090   21.4330 O   0  0  0  0  0  0  0  0  0  0  0  0
  -21.6440   -6.2700   22.5870 C   0  0  0  0  0  0  0  0  0  0  0  0
  -21.1400   -6.8160   23.7880 C   0  0  0  0  0  3  0  0  0  0  0  0
  -21.0120   -6.0020   24.9310 C   0  0  0  0  0  3  0  0  0  0  0  0
  -21.3750   -4.6430   24.8740 C   0  0  0  0  0  0  0  0  0  0  0  0
  -21.8700   -4.0970   23.6760 C   0  0  0  0  0  3  0  0  0  0  0  0
  -22.0010   -4.9070   22.5360 C   0  0  0  0  0  0  0  0  0  0  0  0
  -22.4580   -4.3700   21.3780 F   0  0  0  0  0  0  0  0  0  0  0  0
  -21.2430   -3.8590   25.9690 F   0  0  0  0  0  0  0  0  0  0  0  0
  -22.8340  -13.6480   21.2390 C   0  0  0  0  0  0  0  0  0  0  0  0
  -22.1150  -12.9290   22.0940 N   0  0  0  0  0  0  0  0  0  0  0  0
  -22.3940  -14.6890   20.7540 O   0  0  0  0  0  0  0  0  0  0  0  0
  -22.4880  -12.0860   22.5050 H   0  0  0  0  0  0  0  0  0  0  0  0
  -21.1810  -13.2240   22.3400 H   0  0  0  0  0  0  0  0  0  0  0  0
  -25.4500  -15.3260   20.4140 N   0  0  0  0  0  0  0  0  0  0  0  0
  -24.6940  -15.9820   20.5750 H   0  0  0  0  0  0  0  0  0  0  0  0
  -26.2710  -15.7640   20.0170 H   0  0  0  0  0  0  0  0  0  0  0  0
  -31.6190  -21.3030   19.4900 N   0  0  0  0  0  0  0  0  0  0  0  0
  -31.2350  -22.1500   19.0740 H   0  0  0  0  0  0  0  0  0  0  0  0
  -32.5480  -21.1050   19.1250 H   0  0  0  0  0  0  0  0  0  0  0  0
  -29.0050  -23.2840   20.1850 C   0  0  0  0  0  3  0  0  0  0  0  0
  -27.7470  -24.7040   22.0240 C   0  0  0  0  0  1  0  0  0  0  0  0
  -28.0120  -24.6590   20.5080 C   0  0  0  0  0  3  0  0  0  0  0  0
  -28.2830  -26.1950   20.2120 O   0  0  0  0  0  0  0  0  0  0  0  0
  -24.6210  -31.9140   23.2200 C   0  0  0  0  0  0  0  0  0  0  0  0
  -27.2280  -27.1980   20.1740 C   0  0  0  0  0  0  0  0  0  0  0  0
  -23.4310  -30.5140   21.5790 C   0  0  0  0  0  3  0  0  0  0  0  0
  -24.8910  -28.9530   20.1470 C   0  0  0  0  0  0  0  0  0  0  0  0
  -25.9860  -30.7920   21.4120 C   0  0  0  0  0  2  0  0  0  0  0  0
  -26.0700  -29.3990   20.7570 C   0  0  0  0  0  0  0  0  0  0  0  0
  -27.2400  -28.5400   20.7470 C   0  0  0  0  0  3  0  0  0  0  0  0
  -26.0230  -26.8710   19.5130 C   0  0  0  0  0  3  0  0  0  0  0  0
  -24.8840  -27.7050   19.5060 C   0  0  0  0  0  3  0  0  0  0  0  0
  -23.6560  -29.8420   20.1980 C   0  0  0  0  0  2  0  0  0  0  0  0
  -24.7000  -31.0960   22.1240 N   0  0  0  0  0  0  0  0  0  0  0  0
  -23.5320  -32.1860   23.7500 O   0  0  0  0  0  0  0  0  0  0  0  0
  -22.7610  -29.4980   22.5390 C   0  0  0  0  0  0  0  0  0  0  0  0
  -21.4340  -29.3090   22.4080 N   0  0  0  0  0  0  0  0  0  0  0  0
  -23.4370  -28.8810   23.3660 O   0  0  0  0  0  0  0  0  0  0  0  0
  -20.9450  -29.8600   21.7170 H   0  0  0  0  0  0  0  0  0  0  0  0
  -18.0660  -28.0680   22.9050 C   0  0  0  0  0  0  0  0  0  0  0  0
  -20.6210  -28.3610   23.1750 C   0  0  0  0  0  3  0  0  0  0  0  0
  -20.7400  -26.9310   22.5970 C   0  0  0  0  0  2  0  0  0  0  0  0
  -19.6430  -26.5990   21.5800 C   0  0  0  0  0  2  0  0  0  0  0  0
  -18.2590  -26.7240   22.2240 C   0  0  0  0  0  2  0  0  0  0  0  0
  -19.1750  -28.8440   23.3360 C   0  0  0  0  0  0  0  0  0  0  0  0
  -18.9380  -30.1010   23.9350 C   0  0  0  0  0  3  0  0  0  0  0  0
  -17.6250  -30.5840   24.1020 C   0  0  0  0  0  3  0  0  0  0  0  0
  -16.5310  -29.8050   23.6850 C   0  0  0  0  0  3  0  0  0  0  0  0
  -16.7530  -28.5480   23.0960 C   0  0  0  0  0  3  0  0  0  0  0  0
  -25.8930  -32.5600   23.8480 C   0  0  0  0  0  3  0  0  0  0  0  0
  -26.4020  -31.8000   25.1340 C   0  0  1  0  0  0  0  0  0  0  0  0
  -25.2990  -31.5630   26.1920 C   0  0  0  0  0  1  0  0  0  0  0  0
  -26.9950  -30.4230   24.7580 C   0  0  0  0  0  1  0  0  0  0  0  0
  -27.5440  -32.6010   25.7990 C   0  0  0  0  0  1  0  0  0  0  0  0
  -25.5740  -33.9580   24.1750 N   0  0  0  0  0  0  0  0  0  0  0  0
  -25.9090  -35.0160   23.4230 C   0  0  0  0  0  0  0  0  0  0  0  0
  -26.5860  -34.9160   22.3950 O   0  0  0  0  0  0  0  0  0  0  0  0
  -24.9750  -34.1100   24.9730 H   0  0  0  0  0  0  0  0  0  0  0  0
  -24.1870  -36.8150   23.0590 C   0  0  0  0  0  1  0  0  0  0  0  0
  -25.4190  -36.4050   23.8820 C   0  0  0  0  0  3  0  0  0  0  0  0
  -27.5390  -37.2880   24.7520 C   0  0  0  0  0  1  0  0  0  0  0  0
  -26.4550  -37.4570   23.7880 N   0  0  0  0  0  0  0  0  0  0  0  0
  -26.0480  -38.3780   23.9290 H   0  0  0  0  0  0  0  0  0  0  0  0
  -29.2750  -23.4310   18.7980 O   0  0  0  0  0  0  0  0  0  0  0  0
  -29.4850  -24.3500   18.6610 H   0  0  0  0  0  0  0  0  0  0  0  0
  1  2  2  0
  3 15  1  0
  4  9  1  0
  5  6  1  0
  5  4  1  0
  7  6  1  0
  7 21  1  0
  7  8  1  0
  9  3  1  0
  9  8  1  0
 10  3  2  0
 11  1  1  0
 11 14  1  0
 12 11  2  0
 13 15  1  0
 13 14  2  0
 15 17  1  0
 16 12  1  0
 16 13  1  0
 18 19  2  0
 19 38  1  0
 20 19  1  0
 20 23  1  0
 21 22  1  0
 21 18  1  0
 22 20  2  0
 23 24  1  0
 24 25  2  0
 26 29  1  0
 26 25  1  0
 27 26  2  0
 28 27  1  0
 28 23  2  0
 29 30  1  0
 30 31  1  0
 31 32  2  0
 33 32  1  0
 33 37  1  0
 34 33  2  0
 35 30  2  0
 35 34  1  0
 36 35  1  0
 38 39  1  0
 39 42  1  0
 39 41  1  0
 40 38  2  0
 43 18  1  0
 43 44  1  0
 45 43  1  0
 46 12  1  0
 47 46  1  0
 48 46  1  0
 49 93  1  0
 49  1  1  0
 49 51  1  0
 51 50  1  0
 52 51  1  0
 53 64  2  0
 54 52  1  0
 54 59  1  0
 55 63  1  0
 55 65  1  0
 56 62  1  0
 56 58  1  0
 57 63  1  0
 58 57  1  0
 59 58  2  0
 60 54  2  0
 61 60  1  0
 61 56  2  0
 62 55  1  0
 63 53  1  0
 65 67  2  0
 66 65  1  0
 68 66  1  0
 69 78  2  0
 69 74  1  0
 70 66  1  0
 70 74  1  0
 71 70  1  0
 72 73  1  0
 72 71  1  0
 73 69  1  0
 74 75  2  0
 75 76  1  0
 77 76  2  0
 78 77  1  0
 79 53  1  0
 79 84  1  0
 79 80  1  0
 80 83  1  1
 80 81  1  0
 82 80  1  0
 84 87  1  0
 85 89  1  0
 85 84  1  0
 86 85  2  0
 89 88  1  0
 91 89  1  0
 91 92  1  0
 91 90  1  0
 94 93  1  0
M  ISO  4   3 100  15 100  51 101  52 101
M  END
>  <TORSDO>  (60) 
F 20

>  <SCORE>  (60) 
-15.237

>  <name>  (60) 
59

>  <ligand_id>  (60) 
59

>  <original_smiles>  (60) 
[H]OC([H])(C(=O)c1nc(N([H])C(=O)N2C([H])([H])C([H])([H])C([H])([H])C([H])(n3nc(-c4c([H])c([H])c(Oc5c([H])c([H])c(F)c([H])c5F)c([H])c4[H])c(C(=O)N([H])[H])c3N([H])[H])C2([H])[H])sc1N([H])[H])C([H])(Oc1c([H])c([H])c2c(c1[H])C([H])([H])N(C(=O)C([H])(N([H])C(=O)C([H])(N([H])C([H])([H])[H])C([H])([H])[H])C(C([H])([H])[H])(C([H])([H])[H])C([H])([H])[H])C([H])(C(=O)N([H])C1([H])c3c([H])c([H])c([H])c([H])c3C([H])([H])C([H])([H])C1([H])[H])C2([H])[H])C([H])([H])[H]

>  <smiles>  (60) 
[H]OC([H])(C(=O)c1nc(N([H])C(=O)N2C([H])([H])C([H])([H])C([H])([H])C([H])(n3nc(-c4c([H])c([H])c(Oc5c([H])c([H])c(F)c([H])c5F)c([H])c4[H])c(C(=O)N([H])[H])c3N([H])[H])C2([H])[H])sc1N([H])[H])C([H])(Oc1c([H])c([H])c2c(c1[H])C([H])([H])N(C(=O)C([H])(N([H])C(=O)C([H])(N([H])C([H])([H])[H])C([H])([H])[H])C(C([H])([H])[H])(C([H])([H])[H])C([H])([H])[H])C([H])(C(=O)N([H])C1([H])c3c([H])c([H])c([H])c([H])c3C([H])([H])C([H])([H])C1([H])[H])C2([H])[H])C([H])([H])[H]

$$$$
60:0:0
     RDKit          3D

 95103  0  0  1  0  0  0  0  0999 V2000
  -27.0630  -21.8270   19.0650 C   0  0  0  0  0  1  0  0  0  0  0  0
  -28.5740  -21.9310   19.4220 C   0  0  1  0  0  0  0  0  0  0  0  0
  -28.2690  -18.1580   20.3750 C   0  0  0  0  0  3  0  0  0  0  0  0
  -28.9920  -20.4420   20.0600 C   0  0  0  0  0  0  0  0  0  0  0  0
  -29.5690  -17.5520   20.4040 C   0  0  0  0  0  0  0  0  0  0  0  0
  -30.3160  -19.8540   20.1840 C   0  0  0  0  0  0  0  0  0  0  0  0
  -27.9960  -19.5050   20.2090 N   0  0  0  0  0  0  0  0  0  0  0  0
  -30.5850  -18.4870   20.3360 N   0  0  0  0  0  0  0  0  0  0  0  0
  -31.4560  -20.6430   20.1090 N   0  0  0  0  0  0  0  0  0  0  0  0
  -31.3740  -21.5910   19.7620 H   0  0  0  0  0  0  0  0  0  0  0  0
  -32.3530  -20.2040   19.9350 H   0  0  0  0  0  0  0  0  0  0  0  0
  -30.4890  -14.9590   20.2800 C   0  0  0  0  0  0  0  0  0  0  0  0
  -30.3850  -12.6380   19.2870 C   0  0  0  0  0  2  0  0  0  0  0  0
  -29.4200  -12.6500   18.0760 C   0  0  0  0  0  2  0  0  0  0  0  0
  -27.9620  -12.4390   18.5310 C   0  0  0  0  0  2  0  0  0  0  0  0
  -27.5860  -13.3270   19.7450 C   0  0  0  0  0  3  0  0  0  0  0  0
  -28.6640  -13.2690   20.8490 C   0  0  0  0  0  2  0  0  0  0  0  0
  -29.9340  -13.6870   20.2380 N   0  0  0  0  0  0  0  0  0  0  0  0
  -31.6710  -15.0950   19.9410 O   0  0  0  0  0  0  0  0  0  0  0  0
  -29.6200  -16.0370   20.5330 N   0  0  0  0  0  0  0  0  0  0  0  0
  -28.7170  -15.6670   20.7830 H   0  0  0  0  0  0  0  0  0  0  0  0
  -25.2140  -13.9000   20.5290 C   0  0  0  0  0  0  0  0  0  0  0  0
  -24.1570  -13.1200   20.9110 C   0  0  0  0  0  0  0  0  0  0  0  0
  -24.6210  -11.7700   20.8480 C   0  0  0  0  0  0  0  0  0  0  0  0
  -26.2530  -13.0260   20.2560 N   0  0  0  0  0  0  0  0  0  0  0  0
  -25.9060  -11.7380   20.5120 N   0  0  0  0  0  0  0  0  0  0  0  0
  -23.8980  -10.5050   21.0300 C   0  0  0  0  0  0  0  0  0  0  0  0
  -24.3260   -9.5370   21.9660 C   0  0  0  0  0  3  0  0  0  0  0  0
  -23.6040   -8.3370   22.1370 C   0  0  0  0  0  3  0  0  0  0  0  0
  -22.4390   -8.0950   21.3700 C   0  0  0  0  0  0  0  0  0  0  0  0
  -22.0300   -9.0510   20.4240 C   0  0  0  0  0  3  0  0  0  0  0  0
  -22.7540  -10.2430   20.2510 C   0  0  0  0  0  3  0  0  0  0  0  0
  -21.6890   -6.9460   21.4500 O   0  0  0  0  0  0  0  0  0  0  0  0
  -21.6040   -6.2210   22.6110 C   0  0  0  0  0  0  0  0  0  0  0  0
  -21.0860   -6.7780   23.8010 C   0  0  0  0  0  3  0  0  0  0  0  0
  -20.9530   -5.9770   24.9530 C   0  0  0  0  0  3  0  0  0  0  0  0
  -21.3270   -4.6200   24.9140 C   0  0  0  0  0  0  0  0  0  0  0  0
  -21.8370   -4.0630   23.7290 C   0  0  0  0  0  3  0  0  0  0  0  0
  -21.9720   -4.8610   22.5800 C   0  0  0  0  0  0  0  0  0  0  0  0
  -22.4440   -4.3140   21.4340 F   0  0  0  0  0  0  0  0  0  0  0  0
  -21.1910   -3.8480   26.0190 F   0  0  0  0  0  0  0  0  0  0  0  0
  -22.7650  -13.5920   21.2120 C   0  0  0  0  0  0  0  0  0  0  0  0
  -22.0490  -12.8800   22.0750 N   0  0  0  0  0  0  0  0  0  0  0  0
  -22.3200  -14.6280   20.7180 O   0  0  0  0  0  0  0  0  0  0  0  0
  -22.4220  -12.0430   22.4970 H   0  0  0  0  0  0  0  0  0  0  0  0
  -21.1160  -13.1780   22.3180 H   0  0  0  0  0  0  0  0  0  0  0  0
  -25.3710  -15.2730   20.3640 N   0  0  0  0  0  0  0  0  0  0  0  0
  -24.5810  -15.9020   20.4590 H   0  0  0  0  0  0  0  0  0  0  0  0
  -26.1470  -15.6910   19.8690 H   0  0  0  0  0  0  0  0  0  0  0  0
  -29.3780  -20.8420   17.1230 C   0  0  0  0  0  1  0  0  0  0  0  0
  -29.3140  -22.0720   18.0550 C   0  0  0  0  0  2  0  0  0  0  0  0
  -28.6140  -23.4200   20.2360 C   0  0  0  0  0  3  0  0  0  0  0  0
  -28.2090  -25.1500   18.0730 C   0  0  0  0  0  1  0  0  0  0  0  0
  -28.5610  -24.9890   19.5700 C   0  0  0  0  0  0  0  0  0  0  0  0
  -28.3380  -26.3510   20.2660 O   0  0  0  0  0  0  0  0  0  0  0  0
  -24.5920  -31.9280   23.1850 C   0  0  0  0  0  0  0  0  0  0  0  0
  -27.2210  -27.2500   20.1760 C   0  0  0  0  0  0  0  0  0  0  0  0
  -23.4060  -30.5210   21.5440 C   0  0  0  0  0  3  0  0  0  0  0  0
  -24.8670  -28.9470   20.1360 C   0  0  0  0  0  0  0  0  0  0  0  0
  -25.9550  -30.8080   21.3870 C   0  0  0  0  0  2  0  0  0  0  0  0
  -26.0380  -29.4150   20.7420 C   0  0  0  0  0  0  0  0  0  0  0  0
  -27.2110  -28.5820   20.7470 C   0  0  0  0  0  3  0  0  0  0  0  0
  -26.0110  -26.8550   19.5670 C   0  0  0  0  0  3  0  0  0  0  0  0
  -24.8620  -27.6770   19.5360 C   0  0  0  0  0  3  0  0  0  0  0  0
  -23.6360  -29.8370   20.1690 C   0  0  0  0  0  2  0  0  0  0  0  0
  -24.6700  -31.1070   22.0940 N   0  0  0  0  0  0  0  0  0  0  0  0
  -23.5030  -32.2100   23.7070 O   0  0  0  0  0  0  0  0  0  0  0  0
  -22.7270  -29.5150   22.5060 C   0  0  0  0  0  0  0  0  0  0  0  0
  -21.3970  -29.3540   22.3840 N   0  0  0  0  0  0  0  0  0  0  0  0
  -23.3980  -28.8830   23.3250 O   0  0  0  0  0  0  0  0  0  0  0  0
  -20.9120  -29.9170   21.6990 H   0  0  0  0  0  0  0  0  0  0  0  0
  -18.0050  -28.2040   22.9170 C   0  0  0  0  0  0  0  0  0  0  0  0
  -20.5710  -28.4220   23.1550 C   0  0  0  0  0  3  0  0  0  0  0  0
  -20.6420  -26.9940   22.5650 C   0  0  0  0  0  2  0  0  0  0  0  0
  -19.5220  -26.7010   21.5600 C   0  0  0  0  0  2  0  0  0  0  0  0
  -18.1520  -26.8600   22.2240 C   0  0  0  0  0  2  0  0  0  0  0  0
  -19.1400  -28.9450   23.3400 C   0  0  0  0  0  0  0  0  0  0  0  0
  -18.9480  -30.2020   23.9500 C   0  0  0  0  0  3  0  0  0  0  0  0
  -17.6530  -30.7210   24.1400 C   0  0  0  0  0  3  0  0  0  0  0  0
  -16.5320  -29.9770   23.7310 C   0  0  0  0  0  3  0  0  0  0  0  0
  -16.7080  -28.7210   23.1250 C   0  0  0  0  0  3  0  0  0  0  0  0
  -25.8650  -32.5700   23.8170 C   0  0  0  0  0  3  0  0  0  0  0  0
  -26.3730  -31.8030   25.1010 C   0  0  1  0  0  0  0  0  0  0  0  0
  -25.2720  -31.5630   26.1610 C   0  0  0  0  0  1  0  0  0  0  0  0
  -26.9660  -30.4270   24.7200 C   0  0  0  0  0  1  0  0  0  0  0  0
  -27.5140  -32.6050   25.7730 C   0  0  0  0  0  1  0  0  0  0  0  0
  -25.5460  -33.9670   24.1480 N   0  0  0  0  0  0  0  0  0  0  0  0
  -25.8790  -35.0250   23.3970 C   0  0  0  0  0  0  0  0  0  0  0  0
  -26.5550  -34.9280   22.3700 O   0  0  0  0  0  0  0  0  0  0  0  0
  -24.9440  -34.1140   24.9460 H   0  0  0  0  0  0  0  0  0  0  0  0
  -24.1580  -36.8250   23.0330 C   0  0  0  0  0  1  0  0  0  0  0  0
  -25.3860  -36.4110   23.8600 C   0  0  0  0  0  3  0  0  0  0  0  0
  -27.5020  -37.2940   24.7390 C   0  0  0  0  0  1  0  0  0  0  0  0
  -26.4210  -37.4640   23.7720 N   0  0  0  0  0  0  0  0  0  0  0  0
  -26.0120  -38.3850   23.9120 H   0  0  0  0  0  0  0  0  0  0  0  0
  2  1  1  6
  2  4  1  0
  2 52  1  0
  3  5  1  0
  4  6  2  0
  4  7  1  0
  5 20  1  0
  6  8  1  0
  7  3  2  0
  8  5  2  0
  9  6  1  0
 10  9  1  0
 11  9  1  0
 12 20  1  0
 13 18  1  0
 14 15  1  0
 14 13  1  0
 16 15  1  0
 16 25  1  0
 16 17  1  0
 18 12  1  0
 18 17  1  0
 19 12  2  0
 20 21  1  0
 22 23  2  0
 23 42  1  0
 24 23  1  0
 24 27  1  0
 25 26  1  0
 25 22  1  0
 26 24  2  0
 27 28  1  0
 28 29  2  0
 30 33  1  0
 30 29  1  0
 31 30  2  0
 32 31  1  0
 32 27  2  0
 33 34  1  0
 34 35  1  0
 35 36  2  0
 37 36  1  0
 37 41  1  0
 38 37  2  0
 39 34  2  0
 39 38  1  0
 40 39  1  0
 42 43  1  0
 43 46  1  0
 43 45  1  0
 44 42  2  0
 47 48  1  0
 47 22  1  0
 49 47  1  0
 50 51  1  0
 51  2  1  0
 53 54  1  0
 54 52  2  0
 54 55  1  0
 56 67  2  0
 57 55  1  0
 57 62  1  0
 58 66  1  0
 58 68  1  0
 59 65  1  0
 59 61  1  0
 60 66  1  0
 61 62  2  0
 61 60  1  0
 63 57  2  0
 64 63  1  0
 64 59  2  0
 65 58  1  0
 66 56  1  0
 68 70  2  0
 69 68  1  0
 71 69  1  0
 72 81  2  0
 72 77  1  0
 73 69  1  0
 73 77  1  0
 74 73  1  0
 75 76  1  0
 75 74  1  0
 76 72  1  0
 77 78  2  0
 78 79  1  0
 80 79  2  0
 81 80  1  0
 82 56  1  0
 82 87  1  0
 82 83  1  0
 83 86  1  1
 83 84  1  0
 85 83  1  0
 87 90  1  0
 88 92  1  0
 88 87  1  0
 89 88  2  0
 92 91  1  0
 94 92  1  0
 94 95  1  0
 94 93  1  0
M  ISO  4  12 100  20 100  54 101  55 101
M  END
>  <TORSDO>  (61) 
F 20

>  <SCORE>  (61) 
-15.002

>  <name>  (61) 
60

>  <ligand_id>  (61) 
60

>  <original_smiles>  (61) 
[H]c1nc(C(C([H])([H])[H])(C([H])([H])C([H])([H])[H])C([H])([H])C([H])(Oc2c([H])c([H])c3c(c2[H])C([H])([H])N(C(=O)C([H])(N([H])C(=O)C([H])(N([H])C([H])([H])[H])C([H])([H])[H])C(C([H])([H])[H])(C([H])([H])[H])C([H])([H])[H])C([H])(C(=O)N([H])C2([H])c4c([H])c([H])c([H])c([H])c4C([H])([H])C([H])([H])C2([H])[H])C3([H])[H])C([H])([H])[H])c(N([H])[H])nc1N([H])C(=O)N1C([H])([H])C([H])([H])C([H])([H])C([H])(n2nc(-c3c([H])c([H])c(Oc4c([H])c([H])c(F)c([H])c4F)c([H])c3[H])c(C(=O)N([H])[H])c2N([H])[H])C1([H])[H]

>  <smiles>  (61) 
[H]c1nc(C(C([H])([H])[H])(C([H])([H])C([H])([H])[H])C([H])([H])C([H])(Oc2c([H])c([H])c3c(c2[H])C([H])([H])N(C(=O)C([H])(N([H])C(=O)C([H])(N([H])C([H])([H])[H])C([H])([H])[H])C(C([H])([H])[H])(C([H])([H])[H])C([H])([H])[H])C([H])(C(=O)N([H])C2([H])c4c([H])c([H])c([H])c([H])c4C([H])([H])C([H])([H])C2([H])[H])C3([H])[H])C([H])([H])[H])c(N([H])[H])nc1N([H])C(=O)N1C([H])([H])C([H])([H])C([H])([H])C([H])(n2nc(-c3c([H])c([H])c(Oc4c([H])c([H])c(F)c([H])c4F)c([H])c3[H])c(C(=O)N([H])[H])c2N([H])[H])C1([H])[H]

$$$$
61:0:0
     RDKit          3D

 91 99  0  0  1  0  0  0  0  0999 V2000
  -28.6920  -23.8190   20.0440 C   0  0  0  0  0  0  0  0  0  0  0  0
  -28.8370  -22.6090   20.7080 N   0  0  0  0  0  0  0  0  0  0  0  0
  -28.9340  -23.9180   18.8380 O   0  0  0  0  0  0  0  0  0  0  0  0
  -28.7020  -22.7040   21.7050 H   0  0  0  0  0  0  0  0  0  0  0  0
  -29.3960  -19.2540   19.0420 C   0  0  0  0  0  3  0  0  0  0  0  0
  -29.0220  -20.6640   19.0740 C   0  0  0  0  0  3  0  0  0  0  0  0
  -29.8390  -18.7200   20.2360 C   0  0  0  0  0  0  0  0  0  0  0  0
  -29.1350  -21.2980   20.2990 C   0  0  0  0  0  0  0  0  0  0  0  0
  -29.7180  -20.0420   21.4320 S   0  0  0  0  0  0  0  0  0  0  0  0
  -30.5600  -17.3510   20.5590 C   0  0  0  0  0  2  0  0  0  0  0  0
  -30.7080  -14.8070   20.0350 C   0  0  0  0  0  0  0  0  0  0  0  0
  -30.4430  -12.5400   19.0200 C   0  0  0  0  0  2  0  0  0  0  0  0
  -29.4600  -12.6130   17.8340 C   0  0  0  0  0  2  0  0  0  0  0  0
  -28.0080  -12.4360   18.3240 C   0  0  0  0  0  2  0  0  0  0  0  0
  -27.6800  -13.3260   19.5550 C   0  0  0  0  0  3  0  0  0  0  0  0
  -28.7840  -13.2520   20.6310 C   0  0  0  0  0  2  0  0  0  0  0  0
  -30.0510  -13.5980   19.9780 N   0  0  0  0  0  0  0  0  0  0  0  0
  -31.8880  -14.8780   19.6870 O   0  0  0  0  0  0  0  0  0  0  0  0
  -29.9880  -15.9610   20.3000 N   0  0  0  0  0  0  0  0  0  0  0  0
  -29.0040  -15.8410   20.4840 H   0  0  0  0  0  0  0  0  0  0  0  0
  -25.3320  -13.9110   20.4020 C   0  0  0  0  0  0  0  0  0  0  0  0
  -24.2810  -13.1350   20.8080 C   0  0  0  0  0  0  0  0  0  0  0  0
  -24.7390  -11.7830   20.7360 C   0  0  0  0  0  0  0  0  0  0  0  0
  -26.3610  -13.0340   20.1030 N   0  0  0  0  0  0  0  0  0  0  0  0
  -26.0140  -11.7470   20.3690 N   0  0  0  0  0  0  0  0  0  0  0  0
  -24.0180  -10.5200   20.9380 C   0  0  0  0  0  0  0  0  0  0  0  0
  -24.4690   -9.5490   21.8610 C   0  0  0  0  0  3  0  0  0  0  0  0
  -23.7470   -8.3520   22.0500 C   0  0  0  0  0  3  0  0  0  0  0  0
  -22.5590   -8.1150   21.3190 C   0  0  0  0  0  0  0  0  0  0  0  0
  -22.1260   -9.0740   20.3840 C   0  0  0  0  0  3  0  0  0  0  0  0
  -22.8490  -10.2620   20.1920 C   0  0  0  0  0  3  0  0  0  0  0  0
  -21.8060   -6.9700   21.4190 O   0  0  0  0  0  0  0  0  0  0  0  0
  -21.7590   -6.2390   22.5790 C   0  0  0  0  0  0  0  0  0  0  0  0
  -21.3050   -6.7970   23.7940 C   0  0  0  0  0  3  0  0  0  0  0  0
  -21.2080   -5.9910   24.9460 C   0  0  0  0  0  3  0  0  0  0  0  0
  -21.5520   -4.6280   24.8830 C   0  0  0  0  0  0  0  0  0  0  0  0
  -21.9980   -4.0690   23.6720 C   0  0  0  0  0  3  0  0  0  0  0  0
  -22.0980   -4.8720   22.5220 C   0  0  0  0  0  0  0  0  0  0  0  0
  -22.5090   -4.3230   21.3530 F   0  0  0  0  0  0  0  0  0  0  0  0
  -21.4510   -3.8510   25.9860 F   0  0  0  0  0  0  0  0  0  0  0  0
  -22.8980  -13.6110   21.1440 C   0  0  0  0  0  0  0  0  0  0  0  0
  -22.2040  -12.9040   22.0270 N   0  0  0  0  0  0  0  0  0  0  0  0
  -22.4430  -14.6460   20.6580 O   0  0  0  0  0  0  0  0  0  0  0  0
  -22.5860  -12.0680   22.4450 H   0  0  0  0  0  0  0  0  0  0  0  0
  -21.2760  -13.2030   22.2910 H   0  0  0  0  0  0  0  0  0  0  0  0
  -25.4910  -15.2850   20.2370 N   0  0  0  0  0  0  0  0  0  0  0  0
  -24.7270  -15.9360   20.3860 H   0  0  0  0  0  0  0  0  0  0  0  0
  -26.3170  -15.7260   19.8530 H   0  0  0  0  0  0  0  0  0  0  0  0
  -28.7870  -25.1990   22.2480 C   0  0  0  0  0  1  0  0  0  0  0  0
  -28.1730  -25.1180   20.8400 C   0  0  0  0  0  3  0  0  0  0  0  0
  -28.3770  -26.4740   20.2300 O   0  0  0  0  0  0  0  0  0  0  0  0
  -24.6210  -31.9010   23.2730 C   0  0  0  0  0  0  0  0  0  0  0  0
  -27.2760  -27.3530   20.2210 C   0  0  0  0  0  0  0  0  0  0  0  0
  -23.4350  -30.4980   21.6250 C   0  0  0  0  0  3  0  0  0  0  0  0
  -24.9040  -28.9590   20.2000 C   0  0  0  0  0  0  0  0  0  0  0  0
  -25.9740  -30.8330   21.4510 C   0  0  0  0  0  2  0  0  0  0  0  0
  -26.0700  -29.4550   20.8010 C   0  0  0  0  0  0  0  0  0  0  0  0
  -27.2620  -28.6650   20.7980 C   0  0  0  0  0  3  0  0  0  0  0  0
  -26.0910  -26.9180   19.5920 C   0  0  0  0  0  3  0  0  0  0  0  0
  -24.9190  -27.6980   19.5830 C   0  0  0  0  0  3  0  0  0  0  0  0
  -23.6600  -29.8250   20.2450 C   0  0  0  0  0  2  0  0  0  0  0  0
  -24.6950  -31.0960   22.1730 N   0  0  0  0  0  0  0  0  0  0  0  0
  -23.5330  -32.1680   23.8060 O   0  0  0  0  0  0  0  0  0  0  0  0
  -22.7750  -29.4740   22.5820 C   0  0  0  0  0  0  0  0  0  0  0  0
  -21.4500  -29.2940   22.4580 N   0  0  0  0  0  0  0  0  0  0  0  0
  -23.4570  -28.8450   23.3940 O   0  0  0  0  0  0  0  0  0  0  0  0
  -20.9590  -29.8550   21.7740 H   0  0  0  0  0  0  0  0  0  0  0  0
  -18.0750  -28.0880   22.9630 C   0  0  0  0  0  0  0  0  0  0  0  0
  -20.6340  -28.3500   23.2240 C   0  0  0  0  0  3  0  0  0  0  0  0
  -20.7350  -26.9230   22.6380 C   0  0  0  0  0  2  0  0  0  0  0  0
  -19.6300  -26.6060   21.6250 C   0  0  0  0  0  2  0  0  0  0  0  0
  -18.2500  -26.7440   22.2760 C   0  0  0  0  0  2  0  0  0  0  0  0
  -19.1940  -28.8480   23.3950 C   0  0  0  0  0  0  0  0  0  0  0  0
  -18.9760  -30.1050   23.9990 C   0  0  0  0  0  3  0  0  0  0  0  0
  -17.6710  -30.6030   24.1740 C   0  0  0  0  0  3  0  0  0  0  0  0
  -16.5660  -29.8400   23.7580 C   0  0  0  0  0  3  0  0  0  0  0  0
  -16.7690  -28.5840   23.1610 C   0  0  0  0  0  3  0  0  0  0  0  0
  -25.8950  -32.5440   23.9030 C   0  0  0  0  0  3  0  0  0  0  0  0
  -26.3970  -31.7880   25.1950 C   0  0  1  0  0  0  0  0  0  0  0  0
  -25.2910  -31.5600   26.2510 C   0  0  0  0  0  1  0  0  0  0  0  0
  -26.9870  -30.4060   24.8270 C   0  0  0  0  0  1  0  0  0  0  0  0
  -27.5400  -32.5910   25.8610 C   0  0  0  0  0  1  0  0  0  0  0  0
  -25.5790  -33.9440   24.2140 N   0  0  0  0  0  0  0  0  0  0  0  0
  -25.9130  -34.9910   23.4460 C   0  0  0  0  0  0  0  0  0  0  0  0
  -26.5890  -34.8760   22.4190 O   0  0  0  0  0  0  0  0  0  0  0  0
  -24.9780  -34.1060   25.0080 H   0  0  0  0  0  0  0  0  0  0  0  0
  -24.1860  -36.7790   23.0610 C   0  0  0  0  0  1  0  0  0  0  0  0
  -25.4210  -36.3830   23.8850 C   0  0  0  0  0  3  0  0  0  0  0  0
  -27.5470  -37.2810   24.7270 C   0  0  0  0  0  1  0  0  0  0  0  0
  -26.4540  -37.4370   23.7710 N   0  0  0  0  0  0  0  0  0  0  0  0
  -26.0450  -38.3580   23.9040 H   0  0  0  0  0  0  0  0  0  0  0  0
  1  2  1  0
  1 50  1  0
  2  4  1  0
  3  1  2  0
  5  6  1  0
  5  7  2  0
  6  8  2  0
  7 10  1  0
  7  9  1  0
  8  2  1  0
  8  9  1  0
 11 19  1  0
 12 17  1  0
 13 14  1  0
 13 12  1  0
 15 14  1  0
 15 24  1  0
 15 16  1  0
 17 11  1  0
 17 16  1  0
 18 11  2  0
 19 20  1  0
 19 10  1  0
 21 22  2  0
 22 41  1  0
 23 22  1  0
 23 26  1  0
 24 25  1  0
 24 21  1  0
 25 23  2  0
 26 27  1  0
 27 28  2  0
 29 32  1  0
 29 28  1  0
 30 29  2  0
 31 30  1  0
 31 26  2  0
 32 33  1  0
 33 34  1  0
 34 35  2  0
 36 35  1  0
 36 40  1  0
 37 36  2  0
 38 33  2  0
 38 37  1  0
 39 38  1  0
 41 42  1  0
 42 45  1  0
 42 44  1  0
 43 41  2  0
 46 47  1  0
 46 21  1  0
 48 46  1  0
 50 49  1  0
 51 50  1  0
 52 63  2  0
 53 51  1  0
 53 58  1  0
 54 62  1  0
 54 64  1  0
 55 61  1  0
 55 57  1  0
 56 62  1  0
 57 56  1  0
 58 57  2  0
 59 53  2  0
 60 59  1  0
 60 55  2  0
 61 54  1  0
 62 52  1  0
 64 66  2  0
 65 64  1  0
 67 65  1  0
 68 77  2  0
 68 73  1  0
 69 65  1  0
 69 73  1  0
 70 69  1  0
 71 72  1  0
 71 70  1  0
 72 68  1  0
 73 74  2  0
 74 75  1  0
 76 75  2  0
 77 76  1  0
 78 52  1  0
 78 83  1  0
 78 79  1  0
 79 82  1  1
 79 80  1  0
 81 79  1  0
 83 86  1  0
 84 88  1  0
 84 83  1  0
 85 84  2  0
 88 87  1  0
 90 88  1  0
 90 91  1  0
 90 89  1  0
M  ISO  4  11 100  19 100  50 101  51 101
M  END
>  <TORSDO>  (62) 
F 19

>  <SCORE>  (62) 
-13.935

>  <name>  (62) 
61

>  <ligand_id>  (62) 
61

>  <original_smiles>  (62) 
[H]c1c(N([H])C(=O)C([H])(Oc2c([H])c([H])c3c(c2[H])C([H])([H])N(C(=O)C([H])(N([H])C(=O)C([H])(N([H])C([H])([H])[H])C([H])([H])[H])C(C([H])([H])[H])(C([H])([H])[H])C([H])([H])[H])C([H])(C(=O)N([H])C2([H])c4c([H])c([H])c([H])c([H])c4C([H])([H])C([H])([H])C2([H])[H])C3([H])[H])C([H])([H])[H])sc(C([H])([H])N([H])C(=O)N2C([H])([H])C([H])([H])C([H])([H])C([H])(n3nc(-c4c([H])c([H])c(Oc5c([H])c([H])c(F)c([H])c5F)c([H])c4[H])c(C(=O)N([H])[H])c3N([H])[H])C2([H])[H])c1[H]

>  <smiles>  (62) 
[H]c1c(N([H])C(=O)C([H])(Oc2c([H])c([H])c3c(c2[H])C([H])([H])N(C(=O)C([H])(N([H])C(=O)C([H])(N([H])C([H])([H])[H])C([H])([H])[H])C(C([H])([H])[H])(C([H])([H])[H])C([H])([H])[H])C([H])(C(=O)N([H])C2([H])c4c([H])c([H])c([H])c([H])c4C([H])([H])C([H])([H])C2([H])[H])C3([H])[H])C([H])([H])[H])sc(C([H])([H])N([H])C(=O)N2C([H])([H])C([H])([H])C([H])([H])C([H])(n3nc(-c4c([H])c([H])c(Oc5c([H])c([H])c(F)c([H])c5F)c([H])c4[H])c(C(=O)N([H])[H])c3N([H])[H])C2([H])[H])c1[H]

$$$$
62:0:0
     RDKit          3D

 98106  0  0  1  0  0  0  0  0999 V2000
  -29.3450  -18.3590   19.9060 C   0  0  0  0  0  0  0  0  0  0  0  0
  -28.0330  -18.3760   19.4570 C   0  0  0  0  0  0  0  0  0  0  0  0
  -28.8640  -20.7440   19.6980 C   0  0  0  0  0  0  0  0  0  0  0  0
  -28.1440  -23.2920   19.7790 C   0  0  0  0  0  0  0  0  0  0  0  0
  -29.8070  -19.7510   19.9500 N   0  0  0  0  0  0  0  0  0  0  0  0
  -29.0580  -22.2340   19.6430 N   0  0  0  0  0  0  0  0  0  0  0  0
  -27.0880  -23.1220   20.3920 O   0  0  0  0  0  0  0  0  0  0  0  0
  -27.3500  -19.9870   19.2340 S   0  0  0  0  0  0  0  0  0  0  0  0
  -29.9720  -22.5160   19.3230 H   0  0  0  0  0  0  0  0  0  0  0  0
  -27.1770  -17.3010   19.2560 N   0  0  0  0  0  0  0  0  0  0  0  0
  -27.0620  -16.7280   20.0870 H   0  0  0  0  0  0  0  0  0  0  0  0
  -26.2580  -17.5620   18.9110 H   0  0  0  0  0  0  0  0  0  0  0  0
  -27.8920  -24.8110   17.6680 C   0  0  0  0  0  1  0  0  0  0  0  0
  -28.4000  -24.7620   19.1220 C   0  0  0  0  0  3  0  0  0  0  0  0
  -28.1430  -26.0870   19.8370 O   0  0  0  0  0  0  0  0  0  0  0  0
  -24.5980  -31.5920   22.9850 C   0  0  0  0  0  0  0  0  0  0  0  0
  -27.0340  -26.9750   19.7700 C   0  0  0  0  0  0  0  0  0  0  0  0
  -23.3200  -30.2270   21.3760 C   0  0  0  0  0  3  0  0  0  0  0  0
  -24.6970  -28.6690   19.8700 C   0  0  0  0  0  0  0  0  0  0  0  0
  -25.8580  -30.5050   21.0980 C   0  0  0  0  0  2  0  0  0  0  0  0
  -25.8970  -29.1280   20.4260 C   0  0  0  0  0  0  0  0  0  0  0  0
  -27.0620  -28.2930   20.3610 C   0  0  0  0  0  3  0  0  0  0  0  0
  -25.8020  -26.5810   19.2090 C   0  0  0  0  0  3  0  0  0  0  0  0
  -24.6560  -27.4060   19.2540 C   0  0  0  0  0  3  0  0  0  0  0  0
  -23.4750  -29.5660   19.9800 C   0  0  0  0  0  2  0  0  0  0  0  0
  -24.6140  -30.7950   21.8750 N   0  0  0  0  0  0  0  0  0  0  0  0
  -23.5380  -31.8720   23.5660 O   0  0  0  0  0  0  0  0  0  0  0  0
  -22.6810  -29.2090   22.3520 C   0  0  0  0  0  0  0  0  0  0  0  0
  -21.3550  -29.0160   22.2470 N   0  0  0  0  0  0  0  0  0  0  0  0
  -23.3790  -28.5950   23.1630 O   0  0  0  0  0  0  0  0  0  0  0  0
  -20.8470  -29.5630   21.5670 H   0  0  0  0  0  0  0  0  0  0  0  0
  -18.0170  -27.7170   22.7620 C   0  0  0  0  0  0  0  0  0  0  0  0
  -20.5650  -28.0660   23.0330 C   0  0  0  0  0  3  0  0  0  0  0  0
  -20.7140  -26.6260   22.4850 C   0  0  0  0  0  2  0  0  0  0  0  0
  -19.6280  -26.2510   21.4740 C   0  0  0  0  0  2  0  0  0  0  0  0
  -18.2400  -26.3620   22.1100 C   0  0  0  0  0  2  0  0  0  0  0  0
  -19.1090  -28.5220   23.1830 C   0  0  0  0  0  0  0  0  0  0  0  0
  -18.8470  -29.7860   23.7520 C   0  0  0  0  0  3  0  0  0  0  0  0
  -17.5250  -30.2480   23.9080 C   0  0  0  0  0  3  0  0  0  0  0  0
  -16.4480  -29.4400   23.5030 C   0  0  0  0  0  3  0  0  0  0  0  0
  -16.6940  -28.1780   22.9360 C   0  0  0  0  0  3  0  0  0  0  0  0
  -25.9070  -32.2110   23.5670 C   0  0  0  0  0  3  0  0  0  0  0  0
  -25.5910  -33.5690   24.0340 N   0  0  0  0  0  0  0  0  0  0  0  0
  -25.8570  -34.6910   23.3520 C   0  0  0  0  0  0  0  0  0  0  0  0
  -26.4620  -34.6930   22.2780 O   0  0  0  0  0  0  0  0  0  0  0  0
  -25.0450  -33.6390   24.8800 H   0  0  0  0  0  0  0  0  0  0  0  0
  -24.0710  -36.4620   23.2750 C   0  0  0  0  0  1  0  0  0  0  0  0
  -25.3740  -36.0240   23.9610 C   0  0  0  0  0  3  0  0  0  0  0  0
  -27.5430  -36.8950   24.7150 C   0  0  0  0  0  1  0  0  0  0  0  0
  -26.3750  -37.1110   23.8650 N   0  0  0  0  0  0  0  0  0  0  0  0
  -25.9600  -38.0040   24.1170 H   0  0  0  0  0  0  0  0  0  0  0  0
  -26.5300  -31.3570   24.7390 C   0  0  1  0  0  0  0  0  0  0  0  0
  -25.5200  -31.0040   25.8560 C   0  0  0  0  0  1  0  0  0  0  0  0
  -27.1180  -30.0340   24.1990 C   0  0  0  0  0  1  0  0  0  0  0  0
  -27.7040  -32.1310   25.3860 C   0  0  0  0  0  1  0  0  0  0  0  0
  -30.0770  -16.9860   20.4020 C   0  0  0  0  0  0  0  0  0  0  0  0
  -31.2920  -14.7050   19.5050 C   0  0  0  0  0  0  0  0  0  0  0  0
  -30.7890  -12.4850   18.4530 C   0  0  0  0  0  2  0  0  0  0  0  0
  -29.7030  -12.6240   17.3660 C   0  0  0  0  0  2  0  0  0  0  0  0
  -28.3040  -12.5000   17.9980 C   0  0  0  0  0  2  0  0  0  0  0  0
  -28.1430  -13.3620   19.2800 C   0  0  0  0  0  3  0  0  0  0  0  0
  -29.3430  -13.2250   20.2390 C   0  0  0  0  0  2  0  0  0  0  0  0
  -30.5360  -13.5500   19.4580 N   0  0  0  0  0  0  0  0  0  0  0  0
  -32.4550  -14.6460   19.1020 O   0  0  0  0  0  0  0  0  0  0  0  0
  -30.6980  -15.9720   19.4250 N   0  0  0  0  0  4  0  0  0  0  0  0
  -31.2340  -16.5050   18.7580 H   0  0  0  0  0  0  0  0  0  0  0  0
  -25.9420  -14.0240   20.4000 C   0  0  0  0  0  0  0  0  0  0  0  0
  -24.8910  -13.2900   20.8750 C   0  0  0  0  0  0  0  0  0  0  0  0
  -25.2470  -11.9200   20.6780 C   0  0  0  0  0  0  0  0  0  0  0  0
  -26.8730  -13.1080   19.9500 N   0  0  0  0  0  0  0  0  0  0  0  0
  -26.4740  -11.8300   20.1790 N   0  0  0  0  0  0  0  0  0  0  0  0
  -24.4640  -10.6950   20.8800 C   0  0  0  0  0  0  0  0  0  0  0  0
  -24.8670   -9.7060   21.8020 C   0  0  0  0  0  3  0  0  0  0  0  0
  -24.0870   -8.5460   21.9950 C   0  0  0  0  0  3  0  0  0  0  0  0
  -22.8880   -8.3680   21.2630 C   0  0  0  0  0  0  0  0  0  0  0  0
  -22.5030   -9.3450   20.3290 C   0  0  0  0  0  3  0  0  0  0  0  0
  -23.2850  -10.4960   20.1350 C   0  0  0  0  0  3  0  0  0  0  0  0
  -22.0780   -7.2620   21.3650 O   0  0  0  0  0  0  0  0  0  0  0  0
  -21.8970   -6.6120   22.5580 C   0  0  0  0  0  0  0  0  0  0  0  0
  -21.3730   -7.2700   23.6930 C   0  0  0  0  0  3  0  0  0  0  0  0
  -21.1370   -6.5460   24.8800 C   0  0  0  0  0  3  0  0  0  0  0  0
  -21.4160   -5.1670   24.9310 C   0  0  0  0  0  0  0  0  0  0  0  0
  -21.9320   -4.5100   23.8000 C   0  0  0  0  0  3  0  0  0  0  0  0
  -22.1690   -5.2300   22.6170 C   0  0  0  0  0  0  0  0  0  0  0  0
  -22.6460   -4.5880   21.5240 F   0  0  0  0  0  0  0  0  0  0  0  0
  -21.1830   -4.4700   26.0680 F   0  0  0  0  0  0  0  0  0  0  0  0
  -23.5810  -13.8300   21.3710 C   0  0  0  0  0  0  0  0  0  0  0  0
  -22.9540  -13.1420   22.3180 N   0  0  0  0  0  0  0  0  0  0  0  0
  -23.1320  -14.8960   20.9520 O   0  0  0  0  0  0  0  0  0  0  0  0
  -23.3330  -12.2770   22.6750 H   0  0  0  0  0  0  0  0  0  0  0  0
  -22.0820  -13.4850   22.6950 H   0  0  0  0  0  0  0  0  0  0  0  0
  -26.1680  -15.3880   20.2700 N   0  0  0  0  0  0  0  0  0  0  0  0
  -25.3370  -15.9660   20.3520 H   0  0  0  0  0  0  0  0  0  0  0  0
  -26.7420  -15.6500   19.4770 H   0  0  0  0  0  0  0  0  0  0  0  0
  -32.3920  -17.5000   21.4620 C   0  0  0  0  0  1  0  0  0  0  0  0
  -30.9190  -17.1330   21.7050 C   0  0  0  0  0  3  0  0  0  0  0  0
  -30.2770  -19.5160   22.6400 C   0  0  0  0  0  1  0  0  0  0  0  0
  -30.2600  -17.9870   22.8200 C   0  0  0  0  0  2  0  0  0  0  0  0
  1  5  1  0
  1 56  1  0
  2  1  2  0
  3  5  2  0
  4  7  2  0
  6  3  1  0
  6  4  1  0
  8  2  1  0
  8  3  1  0
  9  6  1  0
 10  2  1  0
 10 11  1  0
 12 10  1  0
 14 13  1  0
 14  4  1  0
 14 15  1  0
 16 27  2  0
 17 15  1  0
 17 22  1  0
 18 26  1  0
 18 28  1  0
 19 25  1  0
 19 21  1  0
 20 26  1  0
 21 20  1  0
 22 21  2  0
 23 24  1  0
 23 17  2  0
 24 19  2  0
 25 18  1  0
 26 16  1  0
 28 30  2  0
 29 28  1  0
 31 29  1  0
 32 41  2  0
 32 37  1  0
 33 29  1  0
 33 37  1  0
 34 33  1  0
 35 36  1  0
 35 34  1  0
 36 32  1  0
 37 38  2  0
 38 39  1  0
 40 39  2  0
 41 40  1  0
 42 16  1  0
 42 43  1  0
 42 52  1  0
 43 46  1  0
 44 48  1  0
 44 43  1  0
 45 44  2  0
 48 47  1  0
 50 48  1  0
 50 51  1  0
 50 49  1  0
 52 55  1  1
 52 53  1  0
 54 52  1  0
 56 96  1  0
 58 63  1  0
 59 60  1  0
 59 58  1  0
 61 60  1  0
 61 70  1  0
 61 62  1  0
 63 57  1  0
 63 62  1  0
 64 57  2  0
 65 57  1  0
 65 56  2  0
 66 65  1  0
 67 68  2  0
 68 87  1  0
 69 68  1  0
 69 72  1  0
 70 71  1  0
 70 67  1  0
 71 69  2  0
 72 73  1  0
 73 74  2  0
 75 78  1  0
 75 74  1  0
 76 75  2  0
 77 76  1  0
 77 72  2  0
 78 79  1  0
 79 84  2  0
 79 80  1  0
 80 81  2  0
 81 82  1  0
 82 86  1  0
 83 82  2  0
 84 83  1  0
 85 84  1  0
 87 88  1  0
 88 90  1  0
 88 91  1  0
 89 87  2  0
 92 93  1  0
 92 67  1  0
 94 92  1  0
 96 95  1  0
 96 98  1  0
 97 98  1  0
M  ISO  4  14 101  15 101  57 100  65 100
M  END
>  <TORSDO>  (63) 
F 21

>  <SCORE>  (63) 
-10.546

>  <name>  (63) 
62

>  <ligand_id>  (63) 
62

>  <original_smiles>  (63) 
[H]c1c([H])c([H])c2c(c1[H])C([H])([H])C([H])([H])C([H])([H])C2([H])N([H])C(=O)C1([H])N(C(=O)C([H])(N([H])C(=O)C([H])(N([H])C([H])([H])[H])C([H])([H])[H])C(C([H])([H])[H])(C([H])([H])[H])C([H])([H])[H])C([H])([H])c2c([H])c(OC([H])(C(=O)N([H])c3nc(C([H])(N([H])C(=O)N4C([H])([H])C([H])([H])C([H])([H])C([H])(n5nc(-c6c([H])c([H])c(Oc7c([H])c([H])c(F)c([H])c7F)c([H])c6[H])c(C(=O)N([H])[H])c5N([H])[H])C4([H])[H])C([H])(C([H])([H])[H])C([H])([H])C([H])([H])[H])c(N([H])[H])s3)C([H])([H])[H])c([H])c([H])c2C1([H])[H]

>  <smiles>  (63) 
[H]c1c([H])c([H])c2c(c1[H])C([H])([H])C([H])([H])C([H])([H])C2([H])N([H])C(=O)C1([H])N(C(=O)C([H])(N([H])C(=O)C([H])(N([H])C([H])([H])[H])C([H])([H])[H])C(C([H])([H])[H])(C([H])([H])[H])C([H])([H])[H])C([H])([H])c2c([H])c(OC([H])(C(=O)N([H])c3nc(C([H])(N([H])C(=O)N4C([H])([H])C([H])([H])C([H])([H])C([H])(n5nc(-c6c([H])c([H])c(Oc7c([H])c([H])c(F)c([H])c7F)c([H])c6[H])c(C(=O)N([H])[H])c5N([H])[H])C4([H])[H])C([H])(C([H])([H])[H])C([H])([H])C([H])([H])[H])c(N([H])[H])s3)C([H])([H])[H])c([H])c([H])c2C1([H])[H]

$$$$
63:0:0
     RDKit          3D

 96104  0  0  1  0  0  0  0  0999 V2000
  -29.3010  -18.5070   20.3310 C   0  0  0  0  0  0  0  0  0  0  0  0
  -30.1470  -17.4030   20.7640 C   0  0  0  0  0  0  0  0  0  0  0  0
  -29.6730  -19.8780   20.6500 C   0  0  0  0  0  0  0  0  0  0  0  0
  -31.4910  -19.0060   21.7320 C   0  0  0  0  0  0  0  0  0  0  0  0
  -31.2530  -17.7300   21.4740 N   0  0  0  0  0  0  0  0  0  0  0  0
  -30.7840  -20.0690   21.3860 N   0  0  0  0  0  0  0  0  0  0  0  0
  -32.6280  -19.2550   22.4300 N   0  0  0  0  0  0  0  0  0  0  0  0
  -28.9630  -21.0830   20.2350 N   0  0  0  0  0  0  0  0  0  0  0  0
  -28.1700  -18.2570   19.6250 F   0  0  0  0  0  0  0  0  0  0  0  0
  -33.0300  -18.4820   22.9420 H   0  0  0  0  0  0  0  0  0  0  0  0
  -32.7070  -20.1630   22.8690 H   0  0  0  0  0  0  0  0  0  0  0  0
  -28.1190  -20.9040   19.7020 H   0  0  0  0  0  0  0  0  0  0  0  0
  -30.5960  -14.8420   20.3970 C   0  0  0  0  0  0  0  0  0  0  0  0
  -30.4140  -12.5600   19.3800 C   0  0  0  0  0  2  0  0  0  0  0  0
  -29.4820  -12.6140   18.1500 C   0  0  0  0  0  2  0  0  0  0  0  0
  -28.0110  -12.4300   18.5750 C   0  0  0  0  0  2  0  0  0  0  0  0
  -27.6220  -13.3200   19.7850 C   0  0  0  0  0  3  0  0  0  0  0  0
  -28.6760  -13.2540   20.9110 C   0  0  0  0  0  2  0  0  0  0  0  0
  -29.9680  -13.6180   20.3150 N   0  0  0  0  0  0  0  0  0  0  0  0
  -31.7940  -14.9210   20.1030 O   0  0  0  0  0  0  0  0  0  0  0  0
  -29.8030  -15.9780   20.5300 N   0  0  0  0  0  0  0  0  0  0  0  0
  -28.8140  -15.8040   20.4860 H   0  0  0  0  0  0  0  0  0  0  0  0
  -25.2270  -13.8950   20.4980 C   0  0  0  0  0  0  0  0  0  0  0  0
  -24.1670  -13.1150   20.8670 C   0  0  0  0  0  0  0  0  0  0  0  0
  -24.6400  -11.7670   20.8440 C   0  0  0  0  0  0  0  0  0  0  0  0
  -26.2790  -13.0220   20.2690 N   0  0  0  0  0  0  0  0  0  0  0  0
  -25.9320  -11.7380   20.5410 N   0  0  0  0  0  0  0  0  0  0  0  0
  -23.9210  -10.5010   21.0350 C   0  0  0  0  0  0  0  0  0  0  0  0
  -24.3590   -9.5370   21.9690 C   0  0  0  0  0  3  0  0  0  0  0  0
  -23.6400   -8.3350   22.1480 C   0  0  0  0  0  3  0  0  0  0  0  0
  -22.4700   -8.0890   21.3900 C   0  0  0  0  0  0  0  0  0  0  0  0
  -22.0530   -9.0410   20.4440 C   0  0  0  0  0  3  0  0  0  0  0  0
  -22.7720  -10.2340   20.2640 C   0  0  0  0  0  3  0  0  0  0  0  0
  -21.7250   -6.9380   21.4770 O   0  0  0  0  0  0  0  0  0  0  0  0
  -21.6760   -6.1970   22.6310 C   0  0  0  0  0  0  0  0  0  0  0  0
  -21.2310   -6.7480   23.8520 C   0  0  0  0  0  3  0  0  0  0  0  0
  -21.1330   -5.9320   24.9970 C   0  0  0  0  0  3  0  0  0  0  0  0
  -21.4680   -4.5670   24.9210 C   0  0  0  0  0  0  0  0  0  0  0  0
  -21.9050   -4.0150   23.7040 C   0  0  0  0  0  3  0  0  0  0  0  0
  -22.0070   -4.8280   22.5610 C   0  0  0  0  0  0  0  0  0  0  0  0
  -22.4090   -4.2870   21.3860 F   0  0  0  0  0  0  0  0  0  0  0  0
  -21.3660   -3.7810   26.0180 F   0  0  0  0  0  0  0  0  0  0  0  0
  -22.7640  -13.5820   21.1270 C   0  0  0  0  0  0  0  0  0  0  0  0
  -22.0370  -12.8830   21.9910 N   0  0  0  0  0  0  0  0  0  0  0  0
  -22.3230  -14.6020   20.6000 O   0  0  0  0  0  0  0  0  0  0  0  0
  -22.4070  -12.0580   22.4370 H   0  0  0  0  0  0  0  0  0  0  0  0
  -21.0960  -13.1770   22.2080 H   0  0  0  0  0  0  0  0  0  0  0  0
  -25.3800  -15.2670   20.3120 N   0  0  0  0  0  0  0  0  0  0  0  0
  -24.5960  -15.9040   20.4000 H   0  0  0  0  0  0  0  0  0  0  0  0
  -26.1950  -15.7050   19.9040 H   0  0  0  0  0  0  0  0  0  0  0  0
  -30.6990  -22.9390   20.2210 C   0  0  0  0  0  1  0  0  0  0  0  0
  -29.2560  -22.5390   20.6070 C   0  0  0  0  0  3  0  0  0  0  0  0
  -28.3640  -23.9040   18.5510 C   0  0  0  0  0  1  0  0  0  0  0  0
  -28.2540  -23.7180   20.0740 C   0  0  0  0  0  3  0  0  0  0  0  0
  -28.2600  -25.1630   20.8280 C   0  0  0  0  0  2  0  0  0  0  0  0
  -28.2850  -26.5060   20.1640 O   0  0  0  0  0  0  0  0  0  0  0  0
  -24.5680  -31.9560   23.2390 C   0  0  0  0  0  0  0  0  0  0  0  0
  -27.1620  -27.3530   20.2050 C   0  0  0  0  0  0  0  0  0  0  0  0
  -23.3610  -30.5530   21.6060 C   0  0  0  0  0  3  0  0  0  0  0  0
  -24.8050  -28.9850   20.1900 C   0  0  0  0  0  0  0  0  0  0  0  0
  -25.9020  -30.8590   21.4180 C   0  0  0  0  0  2  0  0  0  0  0  0
  -25.9780  -29.4740   20.7780 C   0  0  0  0  0  0  0  0  0  0  0  0
  -27.1630  -28.6730   20.7650 C   0  0  0  0  0  3  0  0  0  0  0  0
  -25.9640  -26.9130   19.6100 C   0  0  0  0  0  3  0  0  0  0  0  0
  -24.8020  -27.7110   19.5960 C   0  0  0  0  0  3  0  0  0  0  0  0
  -23.5730  -29.8680   20.2300 C   0  0  0  0  0  2  0  0  0  0  0  0
  -24.6300  -31.1420   22.1430 N   0  0  0  0  0  0  0  0  0  0  0  0
  -23.4860  -32.2380   23.7730 O   0  0  0  0  0  0  0  0  0  0  0  0
  -22.6950  -29.5420   22.5720 C   0  0  0  0  0  0  0  0  0  0  0  0
  -21.3690  -29.3630   22.4430 N   0  0  0  0  0  0  0  0  0  0  0  0
  -23.3710  -28.9230   23.3960 O   0  0  0  0  0  0  0  0  0  0  0  0
  -20.8820  -29.9140   21.7480 H   0  0  0  0  0  0  0  0  0  0  0  0
  -17.9930  -28.1650   22.9450 C   0  0  0  0  0  0  0  0  0  0  0  0
  -20.5500  -28.4300   23.2190 C   0  0  0  0  0  3  0  0  0  0  0  0
  -20.6570  -26.9960   22.6510 C   0  0  0  0  0  2  0  0  0  0  0  0
  -19.5570  -26.6660   21.6370 C   0  0  0  0  0  2  0  0  0  0  0  0
  -18.1740  -26.8130   22.2770 C   0  0  0  0  0  2  0  0  0  0  0  0
  -19.1090  -28.9320   23.3720 C   0  0  0  0  0  0  0  0  0  0  0  0
  -18.8870  -30.1970   23.9570 C   0  0  0  0  0  3  0  0  0  0  0  0
  -17.5810  -30.6970   24.1180 C   0  0  0  0  0  3  0  0  0  0  0  0
  -16.4790  -29.9290   23.7060 C   0  0  0  0  0  3  0  0  0  0  0  0
  -16.6860  -28.6640   23.1270 C   0  0  0  0  0  3  0  0  0  0  0  0
  -25.8530  -32.5900   23.8580 C   0  0  0  0  0  3  0  0  0  0  0  0
  -26.3680  -31.8250   25.1390 C   0  0  1  0  0  0  0  0  0  0  0  0
  -25.2740  -31.5970   26.2070 C   0  0  0  0  0  1  0  0  0  0  0  0
  -26.9480  -30.4420   24.7590 C   0  0  0  0  0  1  0  0  0  0  0  0
  -27.5200  -32.6200   25.7960 C   0  0  0  0  0  1  0  0  0  0  0  0
  -25.5460  -33.9900   24.1810 N   0  0  0  0  0  0  0  0  0  0  0  0
  -25.8900  -35.0400   23.4230 C   0  0  0  0  0  0  0  0  0  0  0  0
  -26.5660  -34.9310   22.3960 O   0  0  0  0  0  0  0  0  0  0  0  0
  -24.9440  -34.1510   24.9760 H   0  0  0  0  0  0  0  0  0  0  0  0
  -24.1790  -36.8470   23.0480 C   0  0  0  0  0  1  0  0  0  0  0  0
  -25.4080  -36.4330   23.8740 C   0  0  0  0  0  3  0  0  0  0  0  0
  -27.5380  -37.3020   24.7320 C   0  0  0  0  0  1  0  0  0  0  0  0
  -26.4500  -37.4780   23.7740 N   0  0  0  0  0  0  0  0  0  0  0  0
  -26.0490  -38.4010   23.9180 H   0  0  0  0  0  0  0  0  0  0  0  0
  1  3  1  0
  1  2  2  0
  2  5  1  0
  3  6  2  0
  4  7  1  0
  5  4  2  0
  6  4  1  0
  7 11  1  0
  7 10  1  0
  8 52  1  0
  8  3  1  0
  9  1  1  0
 12  8  1  0
 13 21  1  0
 14 19  1  0
 15 16  1  0
 15 14  1  0
 17 16  1  0
 17 26  1  0
 17 18  1  0
 19 13  1  0
 19 18  1  0
 20 13  2  0
 21  2  1  0
 22 21  1  0
 23 24  2  0
 24 43  1  0
 25 24  1  0
 25 28  1  0
 26 23  1  0
 26 27  1  0
 27 25  2  0
 28 29  1  0
 29 30  2  0
 31 34  1  0
 31 30  1  0
 32 31  2  0
 33 32  1  0
 33 28  2  0
 34 35  1  0
 35 36  1  0
 36 37  2  0
 38 37  1  0
 38 42  1  0
 39 38  2  0
 40 35  2  0
 40 39  1  0
 41 40  1  0
 43 44  1  0
 44 47  1  0
 44 46  1  0
 45 43  2  0
 48 49  1  0
 48 23  1  0
 50 48  1  0
 52 51  1  0
 54 53  1  0
 54 52  1  0
 54 55  1  0
 56 58  1  0
 56 55  1  0
 57 68  2  0
 58 63  1  0
 59 67  1  0
 59 69  1  0
 60 66  1  0
 60 62  1  0
 61 67  1  0
 62 61  1  0
 63 62  2  0
 64 58  2  0
 65 64  1  0
 65 60  2  0
 66 59  1  0
 67 57  1  0
 69 71  2  0
 70 69  1  0
 72 70  1  0
 73 82  2  0
 73 78  1  0
 74 70  1  0
 74 78  1  0
 75 74  1  0
 76 77  1  0
 76 75  1  0
 77 73  1  0
 78 79  2  0
 79 80  1  0
 81 80  2  0
 82 81  1  0
 83 57  1  0
 83 88  1  0
 83 84  1  0
 84 87  1  1
 84 85  1  0
 86 84  1  0
 88 91  1  0
 89 93  1  0
 89 88  1  0
 90 89  2  0
 93 92  1  0
 95 93  1  0
 95 96  1  0
 95 94  1  0
M  ISO  4  13 100  21 100  55 101  56 101
M  END
>  <TORSDO>  (64) 
F 19

>  <SCORE>  (64) 
-14.462

>  <name>  (64) 
63

>  <ligand_id>  (64) 
63

>  <original_smiles>  (64) 
[H]c1c([H])c([H])c2c(c1[H])C([H])([H])C([H])([H])C([H])([H])C2([H])N([H])C(=O)C1([H])N(C(=O)C([H])(N([H])C(=O)C([H])(N([H])C([H])([H])[H])C([H])([H])[H])C(C([H])([H])[H])(C([H])([H])[H])C([H])([H])[H])C([H])([H])c2c([H])c(OC([H])([H])C([H])(C([H])([H])[H])C([H])(N([H])c3nc(N([H])[H])nc(N([H])C(=O)N4C([H])([H])C([H])([H])C([H])([H])C([H])(n5nc(-c6c([H])c([H])c(Oc7c([H])c([H])c(F)c([H])c7F)c([H])c6[H])c(C(=O)N([H])[H])c5N([H])[H])C4([H])[H])c3F)C([H])([H])[H])c([H])c([H])c2C1([H])[H]

>  <smiles>  (64) 
[H]c1c([H])c([H])c2c(c1[H])C([H])([H])C([H])([H])C([H])([H])C2([H])N([H])C(=O)C1([H])N(C(=O)C([H])(N([H])C(=O)C([H])(N([H])C([H])([H])[H])C([H])([H])[H])C(C([H])([H])[H])(C([H])([H])[H])C([H])([H])[H])C([H])([H])c2c([H])c(OC([H])([H])C([H])(C([H])([H])[H])C([H])(N([H])c3nc(N([H])[H])nc(N([H])C(=O)N4C([H])([H])C([H])([H])C([H])([H])C([H])(n5nc(-c6c([H])c([H])c(Oc7c([H])c([H])c(F)c([H])c7F)c([H])c6[H])c(C(=O)N([H])[H])c5N([H])[H])C4([H])[H])c3F)C([H])([H])[H])c([H])c([H])c2C1([H])[H]

$$$$
64:0:0
     RDKit          3D

 96104  0  0  1  0  0  0  0  0999 V2000
  -29.9250  -20.6230   21.5460 C   0  0  0  0  0  3  0  0  0  0  0  0
  -30.2860  -19.2090   21.4740 C   0  0  0  0  0  0  0  0  0  0  0  0
  -30.0750  -18.6230   20.2400 C   0  0  0  0  0  0  0  0  0  0  0  0
  -29.4160  -21.1970   20.3930 C   0  0  0  0  0  0  0  0  0  0  0  0
  -29.4100  -19.8940   19.1720 S   0  0  0  0  0  0  0  0  0  0  0  0
  -30.8680  -14.8230   19.7160 C   0  0  0  0  0  0  0  0  0  0  0  0
  -30.4590  -12.6020   18.6680 C   0  0  0  0  0  2  0  0  0  0  0  0
  -29.4230  -12.7750   17.5360 C   0  0  0  0  0  2  0  0  0  0  0  0
  -27.9990  -12.6080   18.0940 C   0  0  0  0  0  2  0  0  0  0  0  0
  -27.7660  -13.4410   19.3850 C   0  0  0  0  0  3  0  0  0  0  0  0
  -28.9260  -13.2990   20.3980 C   0  0  0  0  0  2  0  0  0  0  0  0
  -30.1720  -13.6310   19.7000 N   0  0  0  0  0  0  0  0  0  0  0  0
  -32.0080  -14.8320   19.2420 O   0  0  0  0  0  0  0  0  0  0  0  0
  -30.5250  -17.2830   19.6070 C   0  0  0  0  0  0  0  0  0  0  0  0
  -30.2380  -16.0080   20.0920 N   0  0  0  0  0  0  0  0  0  0  0  0
  -31.1820  -17.4200   18.5710 O   0  0  0  0  0  0  0  0  0  0  0  0
  -29.4560  -15.9320   20.7210 H   0  0  0  0  0  0  0  0  0  0  0  0
  -25.4650  -14.0170   20.3590 C   0  0  0  0  0  0  0  0  0  0  0  0
  -24.4310  -13.2380   20.7970 C   0  0  0  0  0  0  0  0  0  0  0  0
  -24.8720  -11.8850   20.6690 C   0  0  0  0  0  0  0  0  0  0  0  0
  -26.4710  -13.1410   19.9890 N   0  0  0  0  0  0  0  0  0  0  0  0
  -26.1280  -11.8500   20.2380 N   0  0  0  0  0  0  0  0  0  0  0  0
  -24.1500  -10.6210   20.8760 C   0  0  0  0  0  0  0  0  0  0  0  0
  -24.6090   -9.6500   21.7930 C   0  0  0  0  0  3  0  0  0  0  0  0
  -23.8860   -8.4540   21.9900 C   0  0  0  0  0  3  0  0  0  0  0  0
  -22.6910   -8.2190   21.2700 C   0  0  0  0  0  0  0  0  0  0  0  0
  -22.2500   -9.1800   20.3430 C   0  0  0  0  0  3  0  0  0  0  0  0
  -22.9730  -10.3680   20.1430 C   0  0  0  0  0  3  0  0  0  0  0  0
  -21.9360   -7.0750   21.3760 O   0  0  0  0  0  0  0  0  0  0  0  0
  -21.8560   -6.3740   22.5520 C   0  0  0  0  0  0  0  0  0  0  0  0
  -21.3780   -6.9650   23.7430 C   0  0  0  0  0  3  0  0  0  0  0  0
  -21.2470   -6.1890   24.9110 C   0  0  0  0  0  3  0  0  0  0  0  0
  -21.5840   -4.8210   24.8920 C   0  0  0  0  0  0  0  0  0  0  0  0
  -22.0560   -4.2300   23.7060 C   0  0  0  0  0  3  0  0  0  0  0  0
  -22.1900   -5.0040   22.5400 C   0  0  0  0  0  0  0  0  0  0  0  0
  -22.6230   -4.4240   21.3950 F   0  0  0  0  0  0  0  0  0  0  0  0
  -21.4510   -4.0740   26.0120 F   0  0  0  0  0  0  0  0  0  0  0  0
  -23.0720  -13.7140   21.2200 C   0  0  0  0  0  0  0  0  0  0  0  0
  -22.4300  -12.9980   22.1350 N   0  0  0  0  0  0  0  0  0  0  0  0
  -22.5950  -14.7580   20.7750 O   0  0  0  0  0  0  0  0  0  0  0  0
  -22.8320  -12.1540   22.5130 H   0  0  0  0  0  0  0  0  0  0  0  0
  -21.5230  -13.2990   22.4640 H   0  0  0  0  0  0  0  0  0  0  0  0
  -25.6300  -15.3920   20.2210 N   0  0  0  0  0  0  0  0  0  0  0  0
  -24.8820  -16.0480   20.4250 H   0  0  0  0  0  0  0  0  0  0  0  0
  -26.4420  -15.8350   19.8100 H   0  0  0  0  0  0  0  0  0  0  0  0
  -30.9020  -18.4430   22.6120 C   0  0  1  0  0  0  0  0  0  0  0  0
  -30.9410  -19.1650   23.7340 F   0  0  0  0  0  0  0  0  0  0  0  0
  -30.2120  -17.3330   22.8720 F   0  0  0  0  0  0  0  0  0  0  0  0
  -32.1520  -18.0830   22.3240 F   0  0  0  0  0  0  0  0  0  0  0  0
  -29.2160  -23.7500   20.5610 C   0  0  0  0  0  0  0  0  0  0  0  0
  -28.8630  -22.4670   20.1710 N   0  0  0  0  0  0  0  0  0  0  0  0
  -30.3630  -24.0190   20.9270 O   0  0  0  0  0  0  0  0  0  0  0  0
  -27.9750  -22.4440   19.6860 H   0  0  0  0  0  0  0  0  0  0  0  0
  -27.3810  -24.7100   21.9520 C   0  0  0  0  0  1  0  0  0  0  0  0
  -28.0860  -24.8910   20.5830 C   0  0  0  0  0  3  0  0  0  0  0  0
  -28.4500  -26.3570   20.3960 O   0  0  0  0  0  0  0  0  0  0  0  0
  -24.6600  -31.8570   23.2320 C   0  0  0  0  0  0  0  0  0  0  0  0
  -27.3790  -27.2800   20.2510 C   0  0  0  0  0  0  0  0  0  0  0  0
  -23.4970  -30.4000   21.6180 C   0  0  0  0  0  3  0  0  0  0  0  0
  -24.9900  -28.8820   20.1970 C   0  0  0  0  0  0  0  0  0  0  0  0
  -26.0320  -30.7760   21.4320 C   0  0  0  0  0  2  0  0  0  0  0  0
  -26.1490  -29.3890   20.8000 C   0  0  0  0  0  0  0  0  0  0  0  0
  -27.3470  -28.5990   20.8200 C   0  0  0  0  0  3  0  0  0  0  0  0
  -26.2100  -26.8750   19.5660 C   0  0  0  0  0  3  0  0  0  0  0  0
  -25.0280  -27.6320   19.5660 C   0  0  0  0  0  3  0  0  0  0  0  0
  -23.7290  -29.7190   20.2440 C   0  0  0  0  0  2  0  0  0  0  0  0
  -24.7480  -31.0300   22.1490 N   0  0  0  0  0  0  0  0  0  0  0  0
  -23.5700  -32.1140   23.7620 O   0  0  0  0  0  0  0  0  0  0  0  0
  -22.8630  -29.3790   22.5930 C   0  0  0  0  0  0  0  0  0  0  0  0
  -21.5560  -29.1110   22.4270 N   0  0  0  0  0  0  0  0  0  0  0  0
  -23.5480  -28.8300   23.4610 O   0  0  0  0  0  0  0  0  0  0  0  0
  -21.0600  -29.6110   21.7020 H   0  0  0  0  0  0  0  0  0  0  0  0
  -18.2650  -27.6500   22.7990 C   0  0  0  0  0  0  0  0  0  0  0  0
  -20.7680  -28.1530   23.2060 C   0  0  0  0  0  3  0  0  0  0  0  0
  -21.0300  -26.7030   22.7340 C   0  0  0  0  0  2  0  0  0  0  0  0
  -20.0290  -26.2230   21.6790 C   0  0  0  0  0  2  0  0  0  0  0  0
  -18.5990  -26.2830   22.2270 C   0  0  0  0  0  2  0  0  0  0  0  0
  -19.2850  -28.5340   23.2440 C   0  0  0  0  0  0  0  0  0  0  0  0
  -18.9200  -29.8040   23.7380 C   0  0  0  0  0  3  0  0  0  0  0  0
  -17.5690  -30.1960   23.7950 C   0  0  0  0  0  3  0  0  0  0  0  0
  -16.5640  -29.3110   23.3690 C   0  0  0  0  0  3  0  0  0  0  0  0
  -16.9120  -28.0420   22.8760 C   0  0  0  0  0  3  0  0  0  0  0  0
  -25.9230  -32.5380   23.8410 C   0  0  0  0  0  3  0  0  0  0  0  0
  -26.4660  -31.8010   25.1260 C   0  0  1  0  0  0  0  0  0  0  0  0
  -25.3790  -31.5290   26.1930 C   0  0  0  0  0  1  0  0  0  0  0  0
  -27.1080  -30.4450   24.7530 C   0  0  0  0  0  1  0  0  0  0  0  0
  -27.5800  -32.6500   25.7850 C   0  0  0  0  0  1  0  0  0  0  0  0
  -25.5720  -33.9310   24.1550 N   0  0  0  0  0  0  0  0  0  0  0  0
  -25.8990  -34.9890   23.4020 C   0  0  0  0  0  0  0  0  0  0  0  0
  -26.5990  -34.8990   22.3900 O   0  0  0  0  0  0  0  0  0  0  0  0
  -24.9520  -34.0750   24.9390 H   0  0  0  0  0  0  0  0  0  0  0  0
  -24.1460  -36.7460   22.9880 C   0  0  0  0  0  1  0  0  0  0  0  0
  -25.3660  -36.3670   23.8410 C   0  0  0  0  0  3  0  0  0  0  0  0
  -27.4510  -37.2970   24.7440 C   0  0  0  0  0  1  0  0  0  0  0  0
  -26.3800  -37.4420   23.7630 N   0  0  0  0  0  0  0  0  0  0  0  0
  -25.9510  -38.3540   23.8950 H   0  0  0  0  0  0  0  0  0  0  0  0
  2  1  1  0
  2 46  1  0
  3  2  2  0
  4  1  2  0
  5  3  1  0
  5  4  1  0
  6 15  1  0
  7 12  1  0
  8  9  1  0
  8  7  1  0
 10  9  1  0
 10 21  1  0
 10 11  1  0
 12  6  1  0
 12 11  1  0
 13  6  2  0
 14 15  1  0
 14  3  1  0
 15 17  1  0
 16 14  2  0
 18 19  2  0
 19 38  1  0
 20 19  1  0
 20 23  1  0
 21 22  1  0
 21 18  1  0
 22 20  2  0
 23 24  1  0
 24 25  2  0
 26 29  1  0
 26 25  1  0
 27 26  2  0
 28 27  1  0
 28 23  2  0
 29 30  1  0
 30 31  1  0
 31 32  2  0
 33 32  1  0
 33 37  1  0
 34 33  2  0
 35 30  2  0
 35 34  1  0
 36 35  1  0
 38 39  1  0
 39 42  1  0
 39 41  1  0
 40 38  2  0
 43 18  1  0
 43 44  1  0
 45 43  1  0
 46 48  1  1
 46 47  1  0
 49 46  1  0
 50 55  1  0
 50 52  2  0
 51  4  1  0
 51 50  1  0
 53 51  1  0
 55 54  1  0
 56 55  1  0
 57 68  2  0
 58 56  1  0
 58 63  1  0
 59 67  1  0
 59 69  1  0
 60 66  1  0
 60 62  1  0
 61 67  1  0
 62 63  2  0
 62 61  1  0
 64 65  1  0
 64 58  2  0
 65 60  2  0
 66 59  1  0
 67 57  1  0
 69 71  2  0
 70 69  1  0
 72 70  1  0
 73 82  2  0
 73 78  1  0
 74 70  1  0
 74 78  1  0
 75 74  1  0
 76 77  1  0
 76 75  1  0
 77 73  1  0
 78 79  2  0
 79 80  1  0
 81 80  2  0
 82 81  1  0
 83 57  1  0
 83 88  1  0
 83 84  1  0
 84 87  1  1
 84 85  1  0
 86 84  1  0
 88 91  1  0
 89 93  1  0
 89 88  1  0
 90 89  2  0
 93 92  1  0
 95 93  1  0
 95 96  1  0
 95 94  1  0
M  ISO  4   6 100  15 100  55 101  56 101
M  END
>  <TORSDO>  (65) 
F 19

>  <SCORE>  (65) 
-13.261

>  <name>  (65) 
64

>  <ligand_id>  (65) 
64

>  <original_smiles>  (65) 
[H]c1c([H])c([H])c2c(c1[H])C([H])([H])C([H])([H])C([H])([H])C2([H])N([H])C(=O)C1([H])N(C(=O)C([H])(N([H])C(=O)C([H])(N([H])C([H])([H])[H])C([H])([H])[H])C(C([H])([H])[H])(C([H])([H])[H])C([H])([H])[H])C([H])([H])c2c([H])c(OC([H])(C(=O)N([H])c3sc(C(=O)N([H])C(=O)N4C([H])([H])C([H])([H])C([H])([H])C([H])(n5nc(-c6c([H])c([H])c(Oc7c([H])c([H])c(F)c([H])c7F)c([H])c6[H])c(C(=O)N([H])[H])c5N([H])[H])C4([H])[H])c(C(F)(F)F)c3[H])C([H])([H])[H])c([H])c([H])c2C1([H])[H]

>  <smiles>  (65) 
[H]c1c([H])c([H])c2c(c1[H])C([H])([H])C([H])([H])C([H])([H])C2([H])N([H])C(=O)C1([H])N(C(=O)C([H])(N([H])C(=O)C([H])(N([H])C([H])([H])[H])C([H])([H])[H])C(C([H])([H])[H])(C([H])([H])[H])C([H])([H])[H])C([H])([H])c2c([H])c(OC([H])(C(=O)N([H])c3sc(C(=O)N([H])C(=O)N4C([H])([H])C([H])([H])C([H])([H])C([H])(n5nc(-c6c([H])c([H])c(Oc7c([H])c([H])c(F)c([H])c7F)c([H])c6[H])c(C(=O)N([H])[H])c5N([H])[H])C4([H])[H])c(C(F)(F)F)c3[H])C([H])([H])[H])c([H])c([H])c2C1([H])[H]

$$$$
65:0:0
     RDKit          3D

100109  0  0  1  0  0  0  0  0999 V2000
  -30.4820  -15.0560   20.3770 C   0  0  0  0  0  0  0  0  0  0  0  0
  -30.4160  -12.6670   19.4800 C   0  0  0  0  0  2  0  0  0  0  0  0
  -29.5070  -12.5920   18.2290 C   0  0  0  0  0  2  0  0  0  0  0  0
  -28.0320  -12.3910   18.6300 C   0  0  0  0  0  2  0  0  0  0  0  0
  -27.6040  -13.3270   19.7910 C   0  0  0  0  0  3  0  0  0  0  0  0
  -28.6360  -13.3470   20.9390 C   0  0  0  0  0  2  0  0  0  0  0  0
  -29.9170  -13.7720   20.3540 N   0  0  0  0  0  0  0  0  0  0  0  0
  -31.6830  -15.1220   20.0800 O   0  0  0  0  0  0  0  0  0  0  0  0
  -30.3930  -19.9380   19.5690 C   0  0  0  0  0  0  0  0  0  0  0  0
  -29.3240  -20.5370   20.2910 C   0  0  0  0  0  0  0  0  0  0  0  0
  -29.7130  -17.7640   20.4200 C   0  0  0  0  0  0  0  0  0  0  0  0
  -30.5520  -18.4840   19.6500 N   0  0  0  0  0  0  0  0  0  0  0  0
  -29.6640  -16.2160   20.5960 N   0  0  0  0  0  0  0  0  0  0  0  0
  -28.5750  -19.0550   21.0970 S   0  0  0  0  0  0  0  0  0  0  0  0
  -28.7590  -15.9260   20.9330 H   0  0  0  0  0  0  0  0  0  0  0  0
  -30.9950  -21.1570   17.3690 C   0  0  0  0  0  2  0  0  0  0  0  0
  -32.1620  -21.3590   16.3950 C   0  0  0  0  0  2  0  0  0  0  0  0
  -33.7540  -21.6260   18.3750 C   0  0  0  0  0  2  0  0  0  0  0  0
  -31.4820  -20.5610   18.7030 C   0  0  0  0  0  3  0  0  0  0  0  0
  -32.6280  -21.3540   19.4160 C   0  0  2  0  0  0  0  0  0  0  0  0
  -33.2640  -22.2150   17.0340 C   0  0  1  0  0  0  0  0  0  0  0  0
  -32.1590  -22.6820   20.0430 C   0  0  0  0  0  1  0  0  0  0  0  0
  -33.2260  -20.5010   20.5560 C   0  0  0  0  0  1  0  0  0  0  0  0
  -34.2930  -22.2720   16.1900 F   0  0  0  0  0  0  0  0  0  0  0  0
  -32.8160  -23.4590   17.2050 F   0  0  0  0  0  0  0  0  0  0  0  0
  -25.2140  -13.9310   20.4720 C   0  0  0  0  0  0  0  0  0  0  0  0
  -24.1380  -13.1710   20.8380 C   0  0  0  0  0  0  0  0  0  0  0  0
  -24.5910  -11.8170   20.8340 C   0  0  0  0  0  0  0  0  0  0  0  0
  -26.2540  -13.0410   20.2660 N   0  0  0  0  0  0  0  0  0  0  0  0
  -25.8870  -11.7650   20.5470 N   0  0  0  0  0  0  0  0  0  0  0  0
  -23.8480  -10.5650   21.0270 C   0  0  0  0  0  0  0  0  0  0  0  0
  -24.2650   -9.5970   21.9680 C   0  0  0  0  0  3  0  0  0  0  0  0
  -23.5240   -8.4080   22.1510 C   0  0  0  0  0  3  0  0  0  0  0  0
  -22.3500   -8.1810   21.3940 C   0  0  0  0  0  0  0  0  0  0  0  0
  -21.9510   -9.1380   20.4440 C   0  0  0  0  0  3  0  0  0  0  0  0
  -22.6910  -10.3170   20.2600 C   0  0  0  0  0  3  0  0  0  0  0  0
  -21.5800   -7.0480   21.4870 O   0  0  0  0  0  0  0  0  0  0  0  0
  -21.5300   -6.3030   22.6380 C   0  0  0  0  0  0  0  0  0  0  0  0
  -21.1380   -6.8640   23.8730 C   0  0  0  0  0  3  0  0  0  0  0  0
  -21.0360   -6.0460   25.0170 C   0  0  0  0  0  3  0  0  0  0  0  0
  -21.3130   -4.6700   24.9250 C   0  0  0  0  0  0  0  0  0  0  0  0
  -21.6970   -4.1070   23.6940 C   0  0  0  0  0  3  0  0  0  0  0  0
  -21.8020   -4.9220   22.5540 C   0  0  0  0  0  0  0  0  0  0  0  0
  -22.1530   -4.3720   21.3650 F   0  0  0  0  0  0  0  0  0  0  0  0
  -21.2070   -3.8830   26.0210 F   0  0  0  0  0  0  0  0  0  0  0  0
  -22.7390  -13.6650   21.0740 C   0  0  0  0  0  0  0  0  0  0  0  0
  -21.9870  -12.9950   21.9400 N   0  0  0  0  0  0  0  0  0  0  0  0
  -22.3230  -14.6830   20.5250 O   0  0  0  0  0  0  0  0  0  0  0  0
  -22.3360  -12.1720   22.4100 H   0  0  0  0  0  0  0  0  0  0  0  0
  -21.0480  -13.3090   22.1360 H   0  0  0  0  0  0  0  0  0  0  0  0
  -25.3910  -15.2980   20.2730 N   0  0  0  0  0  0  0  0  0  0  0  0
  -24.6100  -15.9430   20.3330 H   0  0  0  0  0  0  0  0  0  0  0  0
  -26.2140  -15.7130   19.8580 H   0  0  0  0  0  0  0  0  0  0  0  0
  -28.7300  -23.1990   19.9320 C   0  0  0  0  0  0  0  0  0  0  0  0
  -28.8680  -21.9100   20.5710 N   0  0  0  0  0  0  0  0  0  0  0  0
  -28.9570  -23.3030   18.7310 O   0  0  0  0  0  0  0  0  0  0  0  0
  -28.4800  -21.9720   21.5030 H   0  0  0  0  0  0  0  0  0  0  0  0
  -26.7740  -24.3400   21.2320 C   0  0  0  0  0  1  0  0  0  0  0  0
  -28.1820  -24.6140   20.6690 C   0  0  0  0  0  3  0  0  0  0  0  0
  -28.3160  -26.0810   20.0560 O   0  0  0  0  0  0  0  0  0  0  0  0
  -24.7040  -31.8370   23.1040 C   0  0  0  0  0  0  0  0  0  0  0  0
  -27.2740  -27.0990   20.0610 C   0  0  0  0  0  0  0  0  0  0  0  0
  -23.5020  -30.4330   21.4780 C   0  0  0  0  0  3  0  0  0  0  0  0
  -24.9490  -28.8660   20.0390 C   0  0  0  0  0  0  0  0  0  0  0  0
  -26.0570  -30.7030   21.2930 C   0  0  0  0  0  2  0  0  0  0  0  0
  -26.1330  -29.3070   20.6430 C   0  0  0  0  0  0  0  0  0  0  0  0
  -27.2990  -28.4410   20.6370 C   0  0  0  0  0  3  0  0  0  0  0  0
  -26.0740  -26.7880   19.3890 C   0  0  0  0  0  3  0  0  0  0  0  0
  -24.9350  -27.6220   19.3920 C   0  0  0  0  0  3  0  0  0  0  0  0
  -23.7190  -29.7610   20.0970 C   0  0  0  0  0  2  0  0  0  0  0  0
  -24.7760  -31.0150   22.0120 N   0  0  0  0  0  0  0  0  0  0  0  0
  -23.6210  -32.1120   23.6420 O   0  0  0  0  0  0  0  0  0  0  0  0
  -22.8410  -29.4190   22.4460 C   0  0  0  0  0  0  0  0  0  0  0  0
  -21.5100  -29.2480   22.3480 N   0  0  0  0  0  0  0  0  0  0  0  0
  -23.5290  -28.7900   23.2550 O   0  0  0  0  0  0  0  0  0  0  0  0
  -21.0110  -29.8090   21.6720 H   0  0  0  0  0  0  0  0  0  0  0  0
  -18.1410  -28.0400   22.9130 C   0  0  0  0  0  0  0  0  0  0  0  0
  -20.7040  -28.3050   23.1300 C   0  0  0  0  0  3  0  0  0  0  0  0
  -20.7960  -26.8770   22.5430 C   0  0  0  0  0  2  0  0  0  0  0  0
  -19.6730  -26.5590   21.5500 C   0  0  0  0  0  2  0  0  0  0  0  0
  -18.3050  -26.6980   22.2230 C   0  0  0  0  0  2  0  0  0  0  0  0
  -19.2670  -28.8030   23.3250 C   0  0  0  0  0  0  0  0  0  0  0  0
  -19.0540  -30.0600   23.9310 C   0  0  0  0  0  3  0  0  0  0  0  0
  -17.7510  -30.5540   24.1310 C   0  0  0  0  0  3  0  0  0  0  0  0
  -16.6410  -29.7880   23.7330 C   0  0  0  0  0  3  0  0  0  0  0  0
  -16.8370  -28.5330   23.1300 C   0  0  0  0  0  3  0  0  0  0  0  0
  -25.9820  -32.4870   23.7160 C   0  0  0  0  0  3  0  0  0  0  0  0
  -25.6480  -33.8720   24.0900 N   0  0  0  0  0  0  0  0  0  0  0  0
  -25.9440  -34.9540   23.3580 C   0  0  0  0  0  0  0  0  0  0  0  0
  -26.5920  -34.8940   22.3110 O   0  0  0  0  0  0  0  0  0  0  0  0
  -25.0680  -33.9920   24.9070 H   0  0  0  0  0  0  0  0  0  0  0  0
  -24.1770  -36.7280   23.0980 C   0  0  0  0  0  1  0  0  0  0  0  0
  -25.4430  -36.3220   23.8680 C   0  0  0  0  0  3  0  0  0  0  0  0
  -27.5800  -37.2240   24.6740 C   0  0  0  0  0  1  0  0  0  0  0  0
  -26.4510  -37.3970   23.7640 N   0  0  0  0  0  0  0  0  0  0  0  0
  -26.0300  -38.3040   23.9500 H   0  0  0  0  0  0  0  0  0  0  0  0
  -26.5330  -31.7030   24.9700 C   0  0  1  0  0  0  0  0  0  0  0  0
  -25.4660  -31.4330   26.0560 C   0  0  0  0  0  1  0  0  0  0  0  0
  -27.1280  -30.3400   24.5490 C   0  0  0  0  0  1  0  0  0  0  0  0
  -27.6850  -32.5030   25.6240 C   0  0  0  0  0  1  0  0  0  0  0  0
  1 13  1  0
  2  7  1  0
  3  4  1  0
  3  2  1  0
  5  4  1  0
  5 29  1  0
  5  6  1  0
  7  1  1  0
  7  6  1  0
  8  1  2  0
  9 12  1  0
  9 10  2  0
 10 55  1  0
 10 14  1  0
 11 13  1  0
 11 14  1  0
 12 11  2  0
 13 15  1  0
 16 19  1  0
 17 21  1  0
 17 16  1  0
 18 20  1  0
 19 20  1  0
 19  9  1  0
 20 22  1  1
 20 23  1  0
 21 25  1  1
 21 18  1  0
 24 21  1  0
 26 27  2  0
 27 46  1  0
 28 27  1  0
 28 31  1  0
 29 26  1  0
 29 30  1  0
 30 28  2  0
 31 32  1  0
 32 33  2  0
 34 37  1  0
 34 33  1  0
 35 34  2  0
 36 35  1  0
 36 31  2  0
 37 38  1  0
 38 39  1  0
 39 40  2  0
 41 40  1  0
 41 45  1  0
 42 41  2  0
 43 38  2  0
 43 42  1  0
 44 43  1  0
 46 47  1  0
 47 50  1  0
 47 49  1  0
 48 46  2  0
 51 52  1  0
 51 26  1  0
 53 51  1  0
 54 55  1  0
 54 59  1  0
 55 57  1  0
 56 54  2  0
 59 58  1  0
 60 62  1  0
 60 59  1  0
 61 72  2  0
 62 67  1  0
 63 71  1  0
 63 73  1  0
 64 70  1  0
 64 66  1  0
 65 71  1  0
 66 65  1  0
 67 66  2  0
 68 69  1  0
 68 62  2  0
 69 64  2  0
 70 63  1  0
 71 61  1  0
 73 75  2  0
 74 73  1  0
 76 74  1  0
 77 86  2  0
 77 82  1  0
 78 74  1  0
 78 82  1  0
 79 78  1  0
 80 81  1  0
 80 79  1  0
 81 77  1  0
 82 83  2  0
 83 84  1  0
 85 84  2  0
 86 85  1  0
 87 61  1  0
 87 88  1  0
 87 97  1  0
 88 91  1  0
 89 93  1  0
 89 88  1  0
 90 89  2  0
 93 92  1  0
 95 93  1  0
 95 96  1  0
 95 94  1  0
 97100  1  1
 97 98  1  0
 99 97  1  0
M  ISO  4   1 100  13 100  59 101  60 101
M  END
>  <TORSDO>  (66) 
F 18

>  <SCORE>  (66) 
-14.086

>  <name>  (66) 
65

>  <ligand_id>  (66) 
65

>  <original_smiles>  (66) 
[H]c1c([H])c([H])c2c(c1[H])C([H])([H])C([H])([H])C([H])([H])C2([H])N([H])C(=O)C1([H])N(C(=O)C([H])(N([H])C(=O)C([H])(N([H])C([H])([H])[H])C([H])([H])[H])C(C([H])([H])[H])(C([H])([H])[H])C([H])([H])[H])C([H])([H])c2c([H])c(OC([H])(C(=O)N([H])c3sc(N([H])C(=O)N4C([H])([H])C([H])([H])C([H])([H])C([H])(n5nc(-c6c([H])c([H])c(Oc7c([H])c([H])c(F)c([H])c7F)c([H])c6[H])c(C(=O)N([H])[H])c5N([H])[H])C4([H])[H])nc3C3([H])C([H])([H])C([H])([H])C(F)(F)C([H])([H])C3(C([H])([H])[H])C([H])([H])[H])C([H])([H])[H])c([H])c([H])c2C1([H])[H]

>  <smiles>  (66) 
[H]c1c([H])c([H])c2c(c1[H])C([H])([H])C([H])([H])C([H])([H])C2([H])N([H])C(=O)C1([H])N(C(=O)C([H])(N([H])C(=O)C([H])(N([H])C([H])([H])[H])C([H])([H])[H])C(C([H])([H])[H])(C([H])([H])[H])C([H])([H])[H])C([H])([H])c2c([H])c(OC([H])(C(=O)N([H])c3sc(N([H])C(=O)N4C([H])([H])C([H])([H])C([H])([H])C([H])(n5nc(-c6c([H])c([H])c(Oc7c([H])c([H])c(F)c([H])c7F)c([H])c6[H])c(C(=O)N([H])[H])c5N([H])[H])C4([H])[H])nc3C3([H])C([H])([H])C([H])([H])C(F)(F)C([H])([H])C3(C([H])([H])[H])C([H])([H])[H])C([H])([H])[H])c([H])c([H])c2C1([H])[H]

$$$$
66:0:0
     RDKit          3D

 93101  0  0  1  0  0  0  0  0999 V2000
  -29.9950  -19.6890   18.5560 C   0  0  0  0  0  3  0  0  0  0  0  0
  -30.3360  -17.2880   18.6700 C   0  0  0  0  0  3  0  0  0  0  0  0
  -30.3690  -18.4860   17.9460 C   0  0  0  0  0  0  0  0  0  0  0  0
  -29.5760  -19.7170   19.9010 C   0  0  0  0  0  0  0  0  0  0  0  0
  -29.9300  -17.2700   20.0180 C   0  0  0  0  0  0  0  0  0  0  0  0
  -28.8140  -22.2260   19.8730 C   0  0  0  0  0  0  0  0  0  0  0  0
  -29.5570  -18.4950   20.5940 N   0  0  0  0  0  0  0  0  0  0  0  0
  -29.3110  -21.0670   20.4710 N   0  0  0  0  0  0  0  0  0  0  0  0
  -28.1780  -22.1510   18.8170 O   0  0  0  0  0  0  0  0  0  0  0  0
  -30.7660  -18.4820   16.6500 F   0  0  0  0  0  0  0  0  0  0  0  0
  -29.6320  -21.1870   21.4190 H   0  0  0  0  0  0  0  0  0  0  0  0
  -30.5830  -14.7750   20.4070 C   0  0  0  0  0  0  0  0  0  0  0  0
  -30.3750  -12.4880   19.4380 C   0  0  0  0  0  2  0  0  0  0  0  0
  -29.4570  -12.5700   18.1990 C   0  0  0  0  0  2  0  0  0  0  0  0
  -27.9820  -12.4050   18.6100 C   0  0  0  0  0  2  0  0  0  0  0  0
  -27.5960  -13.2980   19.8200 C   0  0  0  0  0  3  0  0  0  0  0  0
  -28.6410  -13.2150   20.9560 C   0  0  0  0  0  2  0  0  0  0  0  0
  -29.9500  -13.5510   20.3800 N   0  0  0  0  0  0  0  0  0  0  0  0
  -31.7690  -14.8450   20.0690 O   0  0  0  0  0  0  0  0  0  0  0  0
  -29.8400  -15.9270   20.6510 N   0  0  0  0  0  0  0  0  0  0  0  0
  -28.9890  -15.7710   21.1670 H   0  0  0  0  0  0  0  0  0  0  0  0
  -25.2020  -13.8920   20.5200 C   0  0  0  0  0  0  0  0  0  0  0  0
  -24.1300  -13.1210   20.8790 C   0  0  0  0  0  0  0  0  0  0  0  0
  -24.5920  -11.7680   20.8560 C   0  0  0  0  0  0  0  0  0  0  0  0
  -26.2460  -13.0110   20.2960 N   0  0  0  0  0  0  0  0  0  0  0  0
  -25.8860  -11.7280   20.5610 N   0  0  0  0  0  0  0  0  0  0  0  0
  -23.8600  -10.5090   21.0410 C   0  0  0  0  0  0  0  0  0  0  0  0
  -24.2780   -9.5420   21.9810 C   0  0  0  0  0  3  0  0  0  0  0  0
  -23.5460   -8.3470   22.1540 C   0  0  0  0  0  3  0  0  0  0  0  0
  -22.3820   -8.1110   21.3840 C   0  0  0  0  0  0  0  0  0  0  0  0
  -21.9840   -9.0650   20.4330 C   0  0  0  0  0  3  0  0  0  0  0  0
  -22.7160  -10.2520   20.2590 C   0  0  0  0  0  3  0  0  0  0  0  0
  -21.6230   -6.9670   21.4650 O   0  0  0  0  0  0  0  0  0  0  0  0
  -21.5520   -6.2310   22.6200 C   0  0  0  0  0  0  0  0  0  0  0  0
  -21.0920   -6.7870   23.8330 C   0  0  0  0  0  3  0  0  0  0  0  0
  -20.9700   -5.9770   24.9790 C   0  0  0  0  0  3  0  0  0  0  0  0
  -21.2980   -4.6100   24.9130 C   0  0  0  0  0  0  0  0  0  0  0  0
  -21.7520   -4.0520   23.7040 C   0  0  0  0  0  3  0  0  0  0  0  0
  -21.8760   -4.8600   22.5610 C   0  0  0  0  0  0  0  0  0  0  0  0
  -22.2940   -4.3140   21.3940 F   0  0  0  0  0  0  0  0  0  0  0  0
  -21.1740   -3.8280   26.0100 F   0  0  0  0  0  0  0  0  0  0  0  0
  -22.7310  -13.6020   21.1330 C   0  0  0  0  0  0  0  0  0  0  0  0
  -21.9890  -12.9070   21.9870 N   0  0  0  0  0  0  0  0  0  0  0  0
  -22.3050  -14.6310   20.6090 O   0  0  0  0  0  0  0  0  0  0  0  0
  -22.3470  -12.0770   22.4360 H   0  0  0  0  0  0  0  0  0  0  0  0
  -21.0500  -13.2130   22.1990 H   0  0  0  0  0  0  0  0  0  0  0  0
  -25.3690  -15.2620   20.3400 N   0  0  0  0  0  0  0  0  0  0  0  0
  -24.5990  -15.9150   20.4380 H   0  0  0  0  0  0  0  0  0  0  0  0
  -26.2130  -15.6980   19.9940 H   0  0  0  0  0  0  0  0  0  0  0  0
  -29.0000  -23.6990   20.5020 C   0  0  0  0  0  3  0  0  0  0  0  0
  -30.2800  -24.0400   20.3240 F   0  0  0  0  0  0  0  0  0  0  0  0
  -28.0830  -24.9250   19.9470 C   0  0  0  0  0  2  0  0  0  0  0  0
  -28.2910  -26.3830   20.2910 O   0  0  0  0  0  0  0  0  0  0  0  0
  -24.6250  -31.9020   23.2750 C   0  0  0  0  0  0  0  0  0  0  0  0
  -27.2050  -27.2930   20.2080 C   0  0  0  0  0  0  0  0  0  0  0  0
  -23.4180  -30.5150   21.6300 C   0  0  0  0  0  3  0  0  0  0  0  0
  -24.8620  -28.9620   20.1950 C   0  0  0  0  0  0  0  0  0  0  0  0
  -25.9630  -30.8050   21.4580 C   0  0  0  0  0  2  0  0  0  0  0  0
  -26.0350  -29.4250   20.8040 C   0  0  0  0  0  0  0  0  0  0  0  0
  -27.2070  -28.6000   20.8050 C   0  0  0  0  0  3  0  0  0  0  0  0
  -26.0120  -26.9110   19.5510 C   0  0  0  0  0  3  0  0  0  0  0  0
  -24.8570  -27.7140   19.5570 C   0  0  0  0  0  3  0  0  0  0  0  0
  -23.6320  -29.8490   20.2460 C   0  0  0  0  0  2  0  0  0  0  0  0
  -24.6880  -31.0930   22.1770 N   0  0  0  0  0  0  0  0  0  0  0  0
  -23.5420  -32.1850   23.8070 O   0  0  0  0  0  0  0  0  0  0  0  0
  -22.7460  -29.5000   22.5860 C   0  0  0  0  0  0  0  0  0  0  0  0
  -21.4200  -29.3270   22.4550 N   0  0  0  0  0  0  0  0  0  0  0  0
  -23.4200  -28.8720   23.4070 O   0  0  0  0  0  0  0  0  0  0  0  0
  -20.9360  -29.8870   21.7690 H   0  0  0  0  0  0  0  0  0  0  0  0
  -18.0370  -28.1400   22.9500 C   0  0  0  0  0  0  0  0  0  0  0  0
  -20.5960  -28.3910   23.2240 C   0  0  0  0  0  3  0  0  0  0  0  0
  -20.6930  -26.9590   22.6460 C   0  0  0  0  0  2  0  0  0  0  0  0
  -19.5910  -26.6420   21.6300 C   0  0  0  0  0  2  0  0  0  0  0  0
  -18.2090  -26.7910   22.2720 C   0  0  0  0  0  2  0  0  0  0  0  0
  -19.1570  -28.8970   23.3830 C   0  0  0  0  0  0  0  0  0  0  0  0
  -18.9410  -30.1590   23.9790 C   0  0  0  0  0  3  0  0  0  0  0  0
  -17.6380  -30.6640   24.1450 C   0  0  0  0  0  3  0  0  0  0  0  0
  -16.5320  -29.9040   23.7270 C   0  0  0  0  0  3  0  0  0  0  0  0
  -16.7320  -28.6430   23.1360 C   0  0  0  0  0  3  0  0  0  0  0  0
  -25.9090  -32.5290   23.9010 C   0  0  0  0  0  3  0  0  0  0  0  0
  -25.6100  -33.9330   24.2170 N   0  0  0  0  0  0  0  0  0  0  0  0
  -25.9500  -34.9770   23.4490 C   0  0  0  0  0  0  0  0  0  0  0  0
  -26.6170  -34.8590   22.4170 O   0  0  0  0  0  0  0  0  0  0  0  0
  -25.0190  -34.0990   25.0190 H   0  0  0  0  0  0  0  0  0  0  0  0
  -24.2400  -36.7850   23.0780 C   0  0  0  0  0  1  0  0  0  0  0  0
  -25.4760  -36.3750   23.8940 C   0  0  0  0  0  3  0  0  0  0  0  0
  -27.6160  -37.2490   24.7240 C   0  0  0  0  0  1  0  0  0  0  0  0
  -26.5190  -37.4170   23.7730 N   0  0  0  0  0  0  0  0  0  0  0  0
  -26.1210  -38.3420   23.9070 H   0  0  0  0  0  0  0  0  0  0  0  0
  -26.4070  -31.7650   25.1890 C   0  0  1  0  0  0  0  0  0  0  0  0
  -25.3040  -31.5480   26.2510 C   0  0  0  0  0  1  0  0  0  0  0  0
  -26.9800  -30.3780   24.8170 C   0  0  0  0  0  1  0  0  0  0  0  0
  -27.5610  -32.5550   25.8520 C   0  0  0  0  0  1  0  0  0  0  0  0
  1  4  1  0
  2  5  2  0
  3  1  2  0
  3  2  1  0
  4  8  1  0
  4  7  2  0
  5  7  1  0
  5 20  1  0
  6  8  1  0
  6 50  1  0
  8 11  1  0
  9  6  2  0
 10  3  1  0
 12 20  1  0
 13 18  1  0
 14 15  1  0
 14 13  1  0
 16 15  1  0
 16 25  1  0
 16 17  1  0
 18 12  1  0
 18 17  1  0
 19 12  2  0
 20 21  1  0
 22 23  2  0
 23 42  1  0
 24 23  1  0
 24 27  1  0
 25 22  1  0
 25 26  1  0
 26 24  2  0
 27 28  1  0
 28 29  2  0
 30 33  1  0
 30 29  1  0
 31 30  2  0
 32 31  1  0
 32 27  2  0
 33 34  1  0
 34 35  1  0
 35 36  2  0
 37 36  1  0
 37 41  1  0
 38 37  2  0
 39 34  2  0
 39 38  1  0
 40 39  1  0
 42 43  1  0
 43 46  1  0
 43 45  1  0
 44 42  2  0
 47 48  1  0
 47 22  1  0
 49 47  1  0
 50 51  1  0
 52 53  1  0
 52 50  1  0
 54 65  2  0
 55 53  1  0
 55 60  1  0
 56 64  1  0
 56 66  1  0
 57 63  1  0
 57 59  1  0
 58 64  1  0
 59 60  2  0
 59 58  1  0
 61 62  1  0
 61 55  2  0
 62 57  2  0
 63 56  1  0
 64 54  1  0
 66 68  2  0
 67 66  1  0
 69 67  1  0
 70 79  2  0
 70 75  1  0
 71 67  1  0
 71 75  1  0
 72 71  1  0
 73 74  1  0
 73 72  1  0
 74 70  1  0
 75 76  2  0
 76 77  1  0
 78 77  2  0
 79 78  1  0
 80 54  1  0
 80 81  1  0
 80 90  1  0
 81 84  1  0
 82 86  1  0
 82 81  1  0
 83 82  2  0
 86 85  1  0
 88 86  1  0
 88 89  1  0
 88 87  1  0
 90 93  1  1
 90 91  1  0
 92 90  1  0
M  ISO  4  12 100  20 100  52 101  53 101
M  END
>  <TORSDO>  (67) 
F 18

>  <SCORE>  (67) 
-14.719

>  <name>  (67) 
66

>  <ligand_id>  (67) 
66

>  <original_smiles>  (67) 
[H]c1c([H])c([H])c2c(c1[H])C([H])([H])C([H])([H])C([H])([H])C2([H])N([H])C(=O)C1([H])N(C(=O)C([H])(N([H])C(=O)C([H])(N([H])C([H])([H])[H])C([H])([H])[H])C(C([H])([H])[H])(C([H])([H])[H])C([H])([H])[H])C([H])([H])c2c([H])c(OC([H])([H])C([H])(F)C(=O)N([H])c3nc(N([H])C(=O)N4C([H])([H])C([H])([H])C([H])([H])C([H])(n5nc(-c6c([H])c([H])c(Oc7c([H])c([H])c(F)c([H])c7F)c([H])c6[H])c(C(=O)N([H])[H])c5N([H])[H])C4([H])[H])c([H])c(F)c3[H])c([H])c([H])c2C1([H])[H]

>  <smiles>  (67) 
[H]c1c([H])c([H])c2c(c1[H])C([H])([H])C([H])([H])C([H])([H])C2([H])N([H])C(=O)C1([H])N(C(=O)C([H])(N([H])C(=O)C([H])(N([H])C([H])([H])[H])C([H])([H])[H])C(C([H])([H])[H])(C([H])([H])[H])C([H])([H])[H])C([H])([H])c2c([H])c(OC([H])([H])C([H])(F)C(=O)N([H])c3nc(N([H])C(=O)N4C([H])([H])C([H])([H])C([H])([H])C([H])(n5nc(-c6c([H])c([H])c(Oc7c([H])c([H])c(F)c([H])c7F)c([H])c6[H])c(C(=O)N([H])[H])c5N([H])[H])C4([H])[H])c([H])c(F)c3[H])c([H])c([H])c2C1([H])[H]

$$$$
67:0:0
     RDKit          3D

 98106  0  0  1  0  0  0  0  0999 V2000
  -29.4630  -21.3830   20.8250 C   0  0  0  0  0  0  0  0  0  0  0  0
  -29.1440  -22.4480   20.0100 N   0  0  0  0  0  0  0  0  0  0  0  0
  -29.6220  -21.5950   22.0300 O   0  0  0  0  0  0  0  0  0  0  0  0
  -28.9600  -22.2180   19.0430 H   0  0  0  0  0  0  0  0  0  0  0  0
  -30.5830  -14.7940   20.0890 C   0  0  0  0  0  0  0  0  0  0  0  0
  -30.3390  -12.5430   19.0320 C   0  0  0  0  0  2  0  0  0  0  0  0
  -29.3380  -12.6620   17.8600 C   0  0  0  0  0  2  0  0  0  0  0  0
  -27.8920  -12.4800   18.3570 C   0  0  0  0  0  2  0  0  0  0  0  0
  -27.5860  -13.3260   19.6220 C   0  0  0  0  0  3  0  0  0  0  0  0
  -28.6990  -13.1870   20.6840 C   0  0  0  0  0  2  0  0  0  0  0  0
  -29.9720  -13.5580   20.0460 N   0  0  0  0  0  0  0  0  0  0  0  0
  -31.7140  -14.9350   19.6160 O   0  0  0  0  0  0  0  0  0  0  0  0
  -29.6590  -19.9240   20.3190 C   0  0  0  0  0  0  0  0  0  0  0  0
  -30.1860  -19.3280   19.1760 C   0  0  0  0  0  0  0  0  0  0  0  0
  -29.9160  -17.3220   20.3490 C   0  0  0  0  0  0  0  0  0  0  0  0
  -30.3060  -17.9090   19.2030 N   0  0  0  0  0  0  0  0  0  0  0  0
  -29.8510  -15.8590   20.5810 N   0  0  0  0  0  0  0  0  0  0  0  0
  -29.3260  -18.5940   21.4760 S   0  0  0  0  0  0  0  0  0  0  0  0
  -29.0600  -15.5720   21.1350 H   0  0  0  0  0  0  0  0  0  0  0  0
  -25.2350  -13.8990   20.4800 C   0  0  0  0  0  0  0  0  0  0  0  0
  -24.1880  -13.1160   20.8830 C   0  0  0  0  0  0  0  0  0  0  0  0
  -24.6450  -11.7650   20.7880 C   0  0  0  0  0  0  0  0  0  0  0  0
  -26.2640  -13.0260   20.1680 N   0  0  0  0  0  0  0  0  0  0  0  0
  -25.9180  -11.7360   20.4110 N   0  0  0  0  0  0  0  0  0  0  0  0
  -23.9250  -10.4980   20.9770 C   0  0  0  0  0  0  0  0  0  0  0  0
  -24.3700   -9.5260   21.9000 C   0  0  0  0  0  3  0  0  0  0  0  0
  -23.6500   -8.3250   22.0790 C   0  0  0  0  0  3  0  0  0  0  0  0
  -22.4700   -8.0880   21.3350 C   0  0  0  0  0  0  0  0  0  0  0  0
  -22.0420   -9.0490   20.4010 C   0  0  0  0  0  3  0  0  0  0  0  0
  -22.7640  -10.2420   20.2200 C   0  0  0  0  0  3  0  0  0  0  0  0
  -21.7210   -6.9380   21.4220 O   0  0  0  0  0  0  0  0  0  0  0  0
  -21.6400   -6.2200   22.5880 C   0  0  0  0  0  0  0  0  0  0  0  0
  -21.1380   -6.7860   23.7790 C   0  0  0  0  0  3  0  0  0  0  0  0
  -21.0070   -5.9920   24.9360 C   0  0  0  0  0  3  0  0  0  0  0  0
  -21.3680   -4.6320   24.9020 C   0  0  0  0  0  0  0  0  0  0  0  0
  -21.8640   -4.0650   23.7130 C   0  0  0  0  0  3  0  0  0  0  0  0
  -21.9970   -4.8560   22.5600 C   0  0  0  0  0  0  0  0  0  0  0  0
  -22.4540   -4.2990   21.4120 F   0  0  0  0  0  0  0  0  0  0  0  0
  -21.2360   -3.8660   26.0100 F   0  0  0  0  0  0  0  0  0  0  0  0
  -22.8060  -13.5860   21.2410 C   0  0  0  0  0  0  0  0  0  0  0  0
  -22.1260  -12.8690   22.1270 N   0  0  0  0  0  0  0  0  0  0  0  0
  -22.3420  -14.6240   20.7700 O   0  0  0  0  0  0  0  0  0  0  0  0
  -22.5150  -12.0290   22.5270 H   0  0  0  0  0  0  0  0  0  0  0  0
  -21.2020  -13.1650   22.4100 H   0  0  0  0  0  0  0  0  0  0  0  0
  -25.3920  -15.2750   20.3330 N   0  0  0  0  0  0  0  0  0  0  0  0
  -24.6260  -15.9220   20.4900 H   0  0  0  0  0  0  0  0  0  0  0  0
  -26.2080  -15.7180   19.9320 H   0  0  0  0  0  0  0  0  0  0  0  0
  -30.6220  -19.9840   18.0220 N   0  0  0  0  0  0  0  0  0  0  0  0
  -30.8270  -20.9770   18.0350 H   0  0  0  0  0  0  0  0  0  0  0  0
  -31.1450  -19.4660   17.3240 H   0  0  0  0  0  0  0  0  0  0  0  0
  -29.3530  -23.9480   20.2640 C   0  0  0  0  0  3  0  0  0  0  0  0
  -30.4300  -24.4320   19.2660 C   0  0  1  0  0  0  0  0  0  0  0  0
  -31.4740  -23.5980   19.2740 F   0  0  0  0  0  0  0  0  0  0  0  0
  -29.9310  -24.4680   18.0310 F   0  0  0  0  0  0  0  0  0  0  0  0
  -30.8750  -25.6460   19.5900 F   0  0  0  0  0  0  0  0  0  0  0  0
  -27.1440  -24.4620   21.3980 C   0  0  0  0  0  1  0  0  0  0  0  0
  -28.0670  -24.9340   20.2520 C   0  0  0  0  0  3  0  0  0  0  0  0
  -28.2670  -26.4330   20.3400 O   0  0  0  0  0  0  0  0  0  0  0  0
  -24.6170  -31.9290   23.3370 C   0  0  0  0  0  0  0  0  0  0  0  0
  -27.1770  -27.3350   20.2500 C   0  0  0  0  0  0  0  0  0  0  0  0
  -23.3990  -30.5520   21.6890 C   0  0  0  0  0  3  0  0  0  0  0  0
  -24.8360  -29.0030   20.2410 C   0  0  0  0  0  0  0  0  0  0  0  0
  -25.9440  -30.8400   21.5090 C   0  0  0  0  0  2  0  0  0  0  0  0
  -26.0110  -29.4650   20.8470 C   0  0  0  0  0  0  0  0  0  0  0  0
  -27.1830  -28.6430   20.8410 C   0  0  0  0  0  3  0  0  0  0  0  0
  -25.9860  -26.9550   19.5870 C   0  0  0  0  0  3  0  0  0  0  0  0
  -24.8280  -27.7550   19.5990 C   0  0  0  0  0  3  0  0  0  0  0  0
  -23.6050  -29.8870   20.3040 C   0  0  0  0  0  2  0  0  0  0  0  0
  -24.6720  -31.1240   22.2350 N   0  0  0  0  0  0  0  0  0  0  0  0
  -23.5360  -32.2130   23.8740 O   0  0  0  0  0  0  0  0  0  0  0  0
  -22.7270  -29.5350   22.6450 C   0  0  0  0  0  0  0  0  0  0  0  0
  -21.4040  -29.3480   22.4980 N   0  0  0  0  0  0  0  0  0  0  0  0
  -23.3960  -28.9160   23.4760 O   0  0  0  0  0  0  0  0  0  0  0  0
  -20.9220  -29.8980   21.8010 H   0  0  0  0  0  0  0  0  0  0  0  0
  -18.0270  -28.1310   22.9550 C   0  0  0  0  0  0  0  0  0  0  0  0
  -20.5800  -28.4090   23.2620 C   0  0  0  0  0  3  0  0  0  0  0  0
  -20.7000  -26.9740   22.6950 C   0  0  0  0  0  2  0  0  0  0  0  0
  -19.6170  -26.6400   21.6670 C   0  0  0  0  0  2  0  0  0  0  0  0
  -18.2230  -26.7800   22.2890 C   0  0  0  0  0  2  0  0  0  0  0  0
  -19.1340  -28.9030   23.3970 C   0  0  0  0  0  0  0  0  0  0  0  0
  -18.8980  -30.1670   23.9800 C   0  0  0  0  0  3  0  0  0  0  0  0
  -17.5860  -30.6580   24.1270 C   0  0  0  0  0  3  0  0  0  0  0  0
  -16.4940  -29.8820   23.7020 C   0  0  0  0  0  3  0  0  0  0  0  0
  -16.7150  -28.6210   23.1200 C   0  0  0  0  0  3  0  0  0  0  0  0
  -25.9040  -32.5490   23.9590 C   0  0  0  0  0  3  0  0  0  0  0  0
  -26.4050  -31.7790   25.2440 C   0  0  1  0  0  0  0  0  0  0  0  0
  -25.3020  -31.5590   26.3050 C   0  0  0  0  0  1  0  0  0  0  0  0
  -26.9770  -30.3940   24.8650 C   0  0  0  0  0  1  0  0  0  0  0  0
  -27.5590  -32.5650   25.9090 C   0  0  0  0  0  1  0  0  0  0  0  0
  -25.6120  -33.9530   24.2820 N   0  0  0  0  0  0  0  0  0  0  0  0
  -25.9210  -34.9950   23.4980 C   0  0  0  0  0  0  0  0  0  0  0  0
  -26.5510  -34.8770   22.4450 O   0  0  0  0  0  0  0  0  0  0  0  0
  -25.0480  -34.1220   25.1010 H   0  0  0  0  0  0  0  0  0  0  0  0
  -24.1750  -36.7840   23.2080 C   0  0  0  0  0  1  0  0  0  0  0  0
  -25.4580  -36.3920   23.9580 C   0  0  0  0  0  3  0  0  0  0  0  0
  -27.6280  -37.2980   24.6650 C   0  0  0  0  0  1  0  0  0  0  0  0
  -26.4820  -37.4430   23.7710 N   0  0  0  0  0  0  0  0  0  0  0  0
  -26.0820  -38.3660   23.9190 H   0  0  0  0  0  0  0  0  0  0  0  0
  1  3  2  0
  2 51  1  0
  2  1  1  0
  4  2  1  0
  5 17  1  0
  6 11  1  0
  7  8  1  0
  7  6  1  0
  9  8  1  0
  9 23  1  0
  9 10  1  0
 11  5  1  0
 11 10  1  0
 12  5  2  0
 13  1  1  0
 13 18  1  0
 14 16  1  0
 14 13  2  0
 15 17  1  0
 15 18  1  0
 16 15  2  0
 17 19  1  0
 20 21  2  0
 21 40  1  0
 22 21  1  0
 22 25  1  0
 23 24  1  0
 23 20  1  0
 24 22  2  0
 25 26  1  0
 26 27  2  0
 28 31  1  0
 28 27  1  0
 29 28  2  0
 30 29  1  0
 30 25  2  0
 31 32  1  0
 32 33  1  0
 33 34  2  0
 35 34  1  0
 35 39  1  0
 36 35  2  0
 37 32  2  0
 37 36  1  0
 38 37  1  0
 40 41  1  0
 41 44  1  0
 41 43  1  0
 42 40  2  0
 45 20  1  0
 45 46  1  0
 47 45  1  0
 48 49  1  0
 48 14  1  0
 50 48  1  0
 51 52  1  0
 52 53  1  6
 52 55  1  0
 54 52  1  0
 57 51  1  0
 57 58  1  0
 57 56  1  0
 59 70  2  0
 60 58  1  0
 60 65  1  0
 61 69  1  0
 61 71  1  0
 62 68  1  0
 62 64  1  0
 63 69  1  0
 64 63  1  0
 65 64  2  0
 66 67  1  0
 66 60  2  0
 67 62  2  0
 68 61  1  0
 69 59  1  0
 71 73  2  0
 72 71  1  0
 74 72  1  0
 75 84  2  0
 75 80  1  0
 76 72  1  0
 76 80  1  0
 77 76  1  0
 78 79  1  0
 78 77  1  0
 79 75  1  0
 80 81  2  0
 81 82  1  0
 83 82  2  0
 84 83  1  0
 85 59  1  0
 85 90  1  0
 85 86  1  0
 86 89  1  1
 86 87  1  0
 88 86  1  0
 90 93  1  0
 91 95  1  0
 91 90  1  0
 92 91  2  0
 95 94  1  0
 97 98  1  0
 97 95  1  0
 97 96  1  0
M  ISO  4   5 100  17 100  57 101  58 101
M  END
>  <TORSDO>  (68) 
F 20

>  <SCORE>  (68) 
-13.555

>  <name>  (68) 
67

>  <ligand_id>  (68) 
67

>  <original_smiles>  (68) 
[H]c1c([H])c([H])c2c(c1[H])C([H])([H])C([H])([H])C([H])([H])C2([H])N([H])C(=O)C1([H])N(C(=O)C([H])(N([H])C(=O)C([H])(N([H])C([H])([H])[H])C([H])([H])[H])C(C([H])([H])[H])(C([H])([H])[H])C([H])([H])[H])C([H])([H])c2c([H])c(OC([H])(C([H])([H])[H])C([H])(N([H])C(=O)c3sc(N([H])C(=O)N4C([H])([H])C([H])([H])C([H])([H])C([H])(n5nc(-c6c([H])c([H])c(Oc7c([H])c([H])c(F)c([H])c7F)c([H])c6[H])c(C(=O)N([H])[H])c5N([H])[H])C4([H])[H])nc3N([H])[H])C(F)(F)F)c([H])c([H])c2C1([H])[H]

>  <smiles>  (68) 
[H]c1c([H])c([H])c2c(c1[H])C([H])([H])C([H])([H])C([H])([H])C2([H])N([H])C(=O)C1([H])N(C(=O)C([H])(N([H])C(=O)C([H])(N([H])C([H])([H])[H])C([H])([H])[H])C(C([H])([H])[H])(C([H])([H])[H])C([H])([H])[H])C([H])([H])c2c([H])c(OC([H])(C([H])([H])[H])C([H])(N([H])C(=O)c3sc(N([H])C(=O)N4C([H])([H])C([H])([H])C([H])([H])C([H])(n5nc(-c6c([H])c([H])c(Oc7c([H])c([H])c(F)c([H])c7F)c([H])c6[H])c(C(=O)N([H])[H])c5N([H])[H])C4([H])[H])nc3N([H])[H])C(F)(F)F)c([H])c([H])c2C1([H])[H]

$$$$
68:0:0
     RDKit          3D

 89 97  0  0  1  0  0  0  0  0999 V2000
  -28.8110  -22.2100   21.1610 C   0  0  0  0  0  3  0  0  0  0  0  0
  -28.6520  -22.9460   20.0040 C   0  0  0  0  0  0  0  0  0  0  0  0
  -29.2560  -20.7380   21.2240 C   0  0  0  0  0  0  0  0  0  0  0  0
  -29.3150  -20.0280   20.0430 N   0  0  0  0  0  0  0  0  0  0  0  0
  -29.5710  -20.1920   22.2820 O   0  0  0  0  0  0  0  0  0  0  0  0
  -28.9610  -21.4440   18.8540 S   0  0  0  0  0  0  0  0  0  0  0  0
  -27.7650  -24.4650   19.7700 C   0  0  1  0  0  0  0  0  0  0  0  0
  -27.3030  -24.3530   18.5010 F   0  0  0  0  0  0  0  0  0  0  0  0
  -26.6920  -24.2680   20.5740 F   0  0  0  0  0  0  0  0  0  0  0  0
  -28.1020  -25.9450   19.9470 O   0  0  0  0  0  0  0  0  0  0  0  0
  -24.5720  -31.9140   23.0910 C   0  0  0  0  0  0  0  0  0  0  0  0
  -27.1140  -27.0900   19.9100 C   0  0  0  0  0  0  0  0  0  0  0  0
  -23.3580  -30.5310   21.4580 C   0  0  0  0  0  3  0  0  0  0  0  0
  -24.7940  -28.9800   19.9620 C   0  0  0  0  0  0  0  0  0  0  0  0
  -25.9220  -30.7680   21.2580 C   0  0  0  0  0  2  0  0  0  0  0  0
  -25.9940  -29.3700   20.5710 C   0  0  0  0  0  0  0  0  0  0  0  0
  -27.1430  -28.4470   20.5260 C   0  0  0  0  0  3  0  0  0  0  0  0
  -25.8820  -26.8860   19.2380 C   0  0  0  0  0  3  0  0  0  0  0  0
  -24.7660  -27.7600   19.2760 C   0  0  0  0  0  3  0  0  0  0  0  0
  -23.5650  -29.8830   20.0620 C   0  0  0  0  0  2  0  0  0  0  0  0
  -24.6400  -31.0990   21.9880 N   0  0  0  0  0  0  0  0  0  0  0  0
  -23.4920  -32.1770   23.6440 O   0  0  0  0  0  0  0  0  0  0  0  0
  -22.7020  -29.5060   22.4210 C   0  0  0  0  0  0  0  0  0  0  0  0
  -21.3820  -29.2790   22.2880 N   0  0  0  0  0  0  0  0  0  0  0  0
  -23.3890  -28.9170   23.2580 O   0  0  0  0  0  0  0  0  0  0  0  0
  -20.8770  -29.8080   21.5900 H   0  0  0  0  0  0  0  0  0  0  0  0
  -18.0660  -27.8770   22.7500 C   0  0  0  0  0  0  0  0  0  0  0  0
  -20.5990  -28.3060   23.0580 C   0  0  0  0  0  3  0  0  0  0  0  0
  -20.7990  -26.8730   22.5100 C   0  0  0  0  0  2  0  0  0  0  0  0
  -19.7400  -26.4670   21.4800 C   0  0  0  0  0  2  0  0  0  0  0  0
  -18.3400  -26.5320   22.0950 C   0  0  0  0  0  2  0  0  0  0  0  0
  -19.1260  -28.7150   23.1870 C   0  0  0  0  0  0  0  0  0  0  0  0
  -18.8140  -29.9660   23.7630 C   0  0  0  0  0  3  0  0  0  0  0  0
  -17.4760  -30.3810   23.9040 C   0  0  0  0  0  3  0  0  0  0  0  0
  -16.4310  -29.5420   23.4790 C   0  0  0  0  0  3  0  0  0  0  0  0
  -16.7270  -28.2920   22.9090 C   0  0  0  0  0  3  0  0  0  0  0  0
  -25.8470  -32.5670   23.7030 C   0  0  0  0  0  3  0  0  0  0  0  0
  -25.5090  -33.9490   24.0890 N   0  0  0  0  0  0  0  0  0  0  0  0
  -25.7970  -35.0410   23.3680 C   0  0  0  0  0  0  0  0  0  0  0  0
  -26.4370  -34.9920   22.3140 O   0  0  0  0  0  0  0  0  0  0  0  0
  -24.9350  -34.0580   24.9110 H   0  0  0  0  0  0  0  0  0  0  0  0
  -24.0390  -36.8300   23.1300 C   0  0  0  0  0  1  0  0  0  0  0  0
  -25.3000  -36.4030   23.8970 C   0  0  0  0  0  3  0  0  0  0  0  0
  -27.4260  -37.2980   24.7450 C   0  0  0  0  0  1  0  0  0  0  0  0
  -26.3160  -37.4760   23.8120 N   0  0  0  0  0  0  0  0  0  0  0  0
  -25.8960  -38.3840   23.9890 H   0  0  0  0  0  0  0  0  0  0  0  0
  -26.4070  -31.7780   24.9510 C   0  0  1  0  0  0  0  0  0  0  0  0
  -25.3340  -31.4590   26.0200 C   0  0  0  0  0  1  0  0  0  0  0  0
  -27.0470  -30.4400   24.5210 C   0  0  0  0  0  1  0  0  0  0  0  0
  -27.5270  -32.6010   25.6300 C   0  0  0  0  0  1  0  0  0  0  0  0
  -30.0580  -18.5310   19.7150 C   0  0  0  0  0  2  0  0  0  0  0  0
  -30.5440  -15.6050   19.9470 C   0  0  0  0  0  0  0  0  0  0  0  0
  -30.5820  -13.1040   19.2010 C   0  0  0  0  0  2  0  0  0  0  0  0
  -29.6560  -12.7830   18.0000 C   0  0  0  0  0  2  0  0  0  0  0  0
  -28.2290  -12.4760   18.4820 C   0  0  0  0  0  2  0  0  0  0  0  0
  -27.7570  -13.4830   19.5590 C   0  0  0  0  0  3  0  0  0  0  0  0
  -28.8160  -13.7490   20.6530 C   0  0  0  0  0  2  0  0  0  0  0  0
  -30.0100  -14.2770   19.9700 N   0  0  0  0  0  0  0  0  0  0  0  0
  -31.7570  -15.6040   19.6920 O   0  0  0  0  0  0  0  0  0  0  0  0
  -29.7720  -16.8890   20.0070 N   0  0  0  0  0  0  0  0  0  0  0  0
  -28.7990  -16.7110   20.2090 H   0  0  0  0  0  0  0  0  0  0  0  0
  -25.4150  -14.0070   20.4120 C   0  0  0  0  0  0  0  0  0  0  0  0
  -24.3700  -13.2170   20.7970 C   0  0  0  0  0  0  0  0  0  0  0  0
  -24.8420  -11.8710   20.7170 C   0  0  0  0  0  0  0  0  0  0  0  0
  -26.4520  -13.1440   20.1100 N   0  0  0  0  0  0  0  0  0  0  0  0
  -26.1210  -11.8500   20.3620 N   0  0  0  0  0  0  0  0  0  0  0  0
  -24.1240  -10.6000   20.9000 C   0  0  0  0  0  0  0  0  0  0  0  0
  -24.4980   -9.6770   21.9010 C   0  0  0  0  0  3  0  0  0  0  0  0
  -23.7770   -8.4750   22.0710 C   0  0  0  0  0  3  0  0  0  0  0  0
  -22.6700   -8.1870   21.2380 C   0  0  0  0  0  0  0  0  0  0  0  0
  -22.3160   -9.1000   20.2290 C   0  0  0  0  0  3  0  0  0  0  0  0
  -23.0370  -10.2920   20.0570 C   0  0  0  0  0  3  0  0  0  0  0  0
  -21.9280   -7.0330   21.3130 O   0  0  0  0  0  0  0  0  0  0  0  0
  -21.6870   -6.4090   22.5110 C   0  0  0  0  0  0  0  0  0  0  0  0
  -20.9660   -7.0400   23.5480 C   0  0  0  0  0  3  0  0  0  0  0  0
  -20.6800   -6.3360   24.7350 C   0  0  0  0  0  3  0  0  0  0  0  0
  -21.1060   -5.0040   24.8850 C   0  0  0  0  0  0  0  0  0  0  0  0
  -21.8190   -4.3720   23.8510 C   0  0  0  0  0  3  0  0  0  0  0  0
  -22.1050   -5.0720   22.6660 C   0  0  0  0  0  0  0  0  0  0  0  0
  -22.7750   -4.4520   21.6650 F   0  0  0  0  0  0  0  0  0  0  0  0
  -20.8260   -4.3250   26.0230 F   0  0  0  0  0  0  0  0  0  0  0  0
  -22.9810  -13.6820   21.1220 C   0  0  0  0  0  0  0  0  0  0  0  0
  -22.2870  -12.9700   22.0020 N   0  0  0  0  0  0  0  0  0  0  0  0
  -22.5230  -14.7120   20.6300 O   0  0  0  0  0  0  0  0  0  0  0  0
  -22.6740  -12.1370   22.4200 H   0  0  0  0  0  0  0  0  0  0  0  0
  -21.3570  -13.2640   22.2620 H   0  0  0  0  0  0  0  0  0  0  0  0
  -25.5650  -15.3830   20.2620 N   0  0  0  0  0  0  0  0  0  0  0  0
  -24.7960  -16.0270   20.4140 H   0  0  0  0  0  0  0  0  0  0  0  0
  -26.3880  -15.8340   19.8840 H   0  0  0  0  0  0  0  0  0  0  0  0
  1  3  1  0
  2  1  2  0
  3  5  2  0
  4  3  1  0
  6  2  1  0
  6  4  1  0
  7 10  1  0
  7  2  1  0
  7  9  1  1
  8  7  1  0
 11 22  2  0
 12 10  1  0
 12 17  1  0
 13 21  1  0
 13 23  1  0
 14 20  1  0
 14 16  1  0
 15 21  1  0
 16 15  1  0
 17 16  2  0
 18 19  1  0
 18 12  2  0
 19 14  2  0
 20 13  1  0
 21 11  1  0
 23 25  2  0
 24 23  1  0
 26 24  1  0
 27 36  2  0
 27 32  1  0
 28 24  1  0
 28 32  1  0
 29 28  1  0
 30 31  1  0
 30 29  1  0
 31 27  1  0
 32 33  2  0
 33 34  1  0
 35 34  2  0
 36 35  1  0
 37 11  1  0
 37 38  1  0
 37 47  1  0
 38 41  1  0
 39 43  1  0
 39 38  1  0
 40 39  2  0
 43 42  1  0
 45 43  1  0
 45 46  1  0
 45 44  1  0
 47 50  1  1
 47 48  1  0
 49 47  1  0
 51 60  1  0
 51  4  1  0
 52 58  1  0
 52 60  1  0
 53 58  1  0
 54 55  1  0
 54 53  1  0
 56 55  1  0
 56 65  1  0
 56 57  1  0
 58 57  1  0
 59 52  2  0
 60 61  1  0
 62 63  2  0
 63 82  1  0
 64 63  1  0
 64 67  1  0
 65 66  1  0
 65 62  1  0
 66 64  2  0
 67 68  1  0
 68 69  2  0
 70 73  1  0
 70 69  1  0
 71 70  2  0
 72 71  1  0
 72 67  2  0
 73 74  1  0
 74 79  2  0
 74 75  1  0
 75 76  2  0
 76 77  1  0
 77 81  1  0
 78 77  2  0
 79 78  1  0
 80 79  1  0
 82 83  1  0
 83 86  1  0
 83 85  1  0
 84 82  2  0
 87 62  1  0
 87 88  1  0
 89 87  1  0
M  ISO  4   7 101  10 101  52 100  60 100
M  END
>  <TORSDO>  (69) 
F 18

>  <SCORE>  (69) 
-14.967

>  <name>  (69) 
68

>  <ligand_id>  (69) 
68

>  <original_smiles>  (69) 
[H]c1c([H])c([H])c2c(c1[H])C([H])([H])C([H])([H])C([H])([H])C2([H])N([H])C(=O)C1([H])N(C(=O)C([H])(N([H])C(=O)C([H])(N([H])C([H])([H])[H])C([H])([H])[H])C(C([H])([H])[H])(C([H])([H])[H])C([H])([H])[H])C([H])([H])c2c([H])c(OC(F)(F)c3sn(C([H])([H])N([H])C(=O)N4C([H])([H])C([H])([H])C([H])([H])C([H])(n5nc(-c6c([H])c([H])c(Oc7c([H])c([H])c(F)c([H])c7F)c([H])c6[H])c(C(=O)N([H])[H])c5N([H])[H])C4([H])[H])c(=O)c3[H])c([H])c([H])c2C1([H])[H]

>  <smiles>  (69) 
[H]c1c([H])c([H])c2c(c1[H])C([H])([H])C([H])([H])C([H])([H])C2([H])N([H])C(=O)C1([H])N(C(=O)C([H])(N([H])C(=O)C([H])(N([H])C([H])([H])[H])C([H])([H])[H])C(C([H])([H])[H])(C([H])([H])[H])C([H])([H])[H])C([H])([H])c2c([H])c(OC(F)(F)c3sn(C([H])([H])N([H])C(=O)N4C([H])([H])C([H])([H])C([H])([H])C([H])(n5nc(-c6c([H])c([H])c(Oc7c([H])c([H])c(F)c([H])c7F)c([H])c6[H])c(C(=O)N([H])[H])c5N([H])[H])C4([H])[H])c(=O)c3[H])c([H])c([H])c2C1([H])[H]

$$$$
69:0:0
     RDKit          3D

 95103  0  0  1  0  0  0  0  0999 V2000
  -28.6770  -22.3390   20.4040 C   0  0  0  0  0  3  0  0  0  0  0  0
  -31.7440  -17.9790   20.6240 C   0  0  0  0  0  3  0  0  0  0  0  0
  -30.4290  -17.5920   20.7560 C   0  0  0  0  0  0  0  0  0  0  0  0
  -30.2190  -19.9600   20.5060 C   0  0  0  0  0  0  0  0  0  0  0  0
  -29.5620  -18.7620   20.6980 N   0  0  0  0  0  0  0  0  0  0  0  0
  -29.8070  -21.3400   20.3780 N   0  0  0  0  0  0  0  0  0  0  0  0
  -31.9550  -19.6990   20.4050 S   0  0  0  0  0  0  0  0  0  0  0  0
  -30.6210  -21.8890   20.1130 H   0  0  0  0  0  0  0  0  0  0  0  0
  -30.7940  -14.9900   20.7420 C   0  0  0  0  0  0  0  0  0  0  0  0
  -30.6260  -12.7150   19.7290 C   0  0  0  0  0  2  0  0  0  0  0  0
  -29.7630  -12.7890   18.4510 C   0  0  0  0  0  2  0  0  0  0  0  0
  -28.2730  -12.6120   18.7980 C   0  0  0  0  0  2  0  0  0  0  0  0
  -27.8280  -13.4920   19.9960 C   0  0  0  0  0  3  0  0  0  0  0  0
  -28.8250  -13.4240   21.1740 C   0  0  0  0  0  2  0  0  0  0  0  0
  -30.1480  -13.7760   20.6480 N   0  0  0  0  0  0  0  0  0  0  0  0
  -32.0010  -15.0310   20.4890 O   0  0  0  0  0  0  0  0  0  0  0  0
  -30.0480  -16.1580   20.9200 N   0  0  0  0  0  0  0  0  0  0  0  0
  -29.0730  -15.9950   21.1130 H   0  0  0  0  0  0  0  0  0  0  0  0
  -25.3950  -14.0520   20.5780 C   0  0  0  0  0  0  0  0  0  0  0  0
  -24.3210  -13.2660   20.8960 C   0  0  0  0  0  0  0  0  0  0  0  0
  -24.8060  -11.9220   20.9120 C   0  0  0  0  0  0  0  0  0  0  0  0
  -26.4640  -13.1860   20.4140 N   0  0  0  0  0  0  0  0  0  0  0  0
  -26.1140  -11.9010   20.6790 N   0  0  0  0  0  0  0  0  0  0  0  0
  -24.0880  -10.6510   21.0750 C   0  0  0  0  0  0  0  0  0  0  0  0
  -24.4640   -9.7120   22.0620 C   0  0  0  0  0  3  0  0  0  0  0  0
  -23.7450   -8.5080   22.2130 C   0  0  0  0  0  3  0  0  0  0  0  0
  -22.6370   -8.2320   21.3770 C   0  0  0  0  0  0  0  0  0  0  0  0
  -22.2820   -9.1590   20.3810 C   0  0  0  0  0  3  0  0  0  0  0  0
  -23.0020  -10.3540   20.2290 C   0  0  0  0  0  3  0  0  0  0  0  0
  -21.8950   -7.0760   21.4340 O   0  0  0  0  0  0  0  0  0  0  0  0
  -21.7580   -6.3660   22.6000 C   0  0  0  0  0  0  0  0  0  0  0  0
  -21.1910   -6.9400   23.7600 C   0  0  0  0  0  3  0  0  0  0  0  0
  -21.0040   -6.1540   24.9140 C   0  0  0  0  0  3  0  0  0  0  0  0
  -21.3760   -4.7950   24.9100 C   0  0  0  0  0  0  0  0  0  0  0  0
  -21.9340   -4.2210   23.7540 C   0  0  0  0  0  3  0  0  0  0  0  0
  -22.1220   -5.0040   22.6020 C   0  0  0  0  0  0  0  0  0  0  0  0
  -22.6420   -4.4410   21.4850 F   0  0  0  0  0  0  0  0  0  0  0  0
  -21.1900   -4.0380   26.0160 F   0  0  0  0  0  0  0  0  0  0  0  0
  -22.9040  -13.7240   21.0750 C   0  0  0  0  0  0  0  0  0  0  0  0
  -22.1360  -13.0310   21.9080 N   0  0  0  0  0  0  0  0  0  0  0  0
  -22.4820  -14.7340   20.5140 O   0  0  0  0  0  0  0  0  0  0  0  0
  -22.4870  -12.2130   22.3850 H   0  0  0  0  0  0  0  0  0  0  0  0
  -21.1840  -13.3240   22.0730 H   0  0  0  0  0  0  0  0  0  0  0  0
  -25.5480  -15.4230   20.3880 N   0  0  0  0  0  0  0  0  0  0  0  0
  -24.7640  -16.0640   20.4400 H   0  0  0  0  0  0  0  0  0  0  0  0
  -26.3990  -15.8660   20.0690 H   0  0  0  0  0  0  0  0  0  0  0  0
  -27.6510  -22.0400   19.2970 C   0  0  0  0  0  0  0  0  0  0  0  0
  -27.9610  -21.5220   18.2200 O   0  0  0  0  0  0  0  0  0  0  0  0
  -25.4330  -22.9430   18.3640 C   0  0  0  0  0  1  0  0  0  0  0  0
  -26.1960  -22.4150   19.5920 C   0  0  0  0  0  2  0  0  0  0  0  0
  -29.1570  -23.9050   20.3810 C   0  0  0  0  0  3  0  0  0  0  0  0
  -30.2180  -23.9630   19.4310 O   0  0  0  0  0  0  0  0  0  0  0  0
  -29.8470  -23.8060   18.5680 H   0  0  0  0  0  0  0  0  0  0  0  0
  -28.1160  -25.1040   20.0250 C   0  0  0  0  0  2  0  0  0  0  0  0
  -28.3760  -26.5710   20.2720 O   0  0  0  0  0  0  0  0  0  0  0  0
  -24.5830  -31.9800   23.3100 C   0  0  0  0  0  0  0  0  0  0  0  0
  -27.2790  -27.4670   20.2080 C   0  0  0  0  0  0  0  0  0  0  0  0
  -23.4250  -30.6110   21.6170 C   0  0  0  0  0  3  0  0  0  0  0  0
  -24.9150  -29.1080   20.1810 C   0  0  0  0  0  0  0  0  0  0  0  0
  -25.9700  -30.9410   21.4940 C   0  0  0  0  0  2  0  0  0  0  0  0
  -26.0740  -29.5760   20.8150 C   0  0  0  0  0  0  0  0  0  0  0  0
  -27.2600  -28.7700   20.8160 C   0  0  0  0  0  3  0  0  0  0  0  0
  -26.0940  -27.0760   19.5420 C   0  0  0  0  0  3  0  0  0  0  0  0
  -24.9330  -27.8670   19.5330 C   0  0  0  0  0  3  0  0  0  0  0  0
  -23.6720  -29.9740   20.2250 C   0  0  0  0  0  2  0  0  0  0  0  0
  -24.6780  -31.1940   22.1980 N   0  0  0  0  0  0  0  0  0  0  0  0
  -23.4850  -32.2370   23.8270 O   0  0  0  0  0  0  0  0  0  0  0  0
  -22.7510  -29.5660   22.5380 C   0  0  0  0  0  0  0  0  0  0  0  0
  -21.4270  -29.3870   22.3870 N   0  0  0  0  0  0  0  0  0  0  0  0
  -23.4190  -28.9190   23.3490 O   0  0  0  0  0  0  0  0  0  0  0  0
  -20.9470  -29.9620   21.7110 H   0  0  0  0  0  0  0  0  0  0  0  0
  -18.0380  -28.2030   22.8480 C   0  0  0  0  0  0  0  0  0  0  0  0
  -20.6000  -28.4260   23.1200 C   0  0  0  0  0  3  0  0  0  0  0  0
  -20.6860  -27.0190   22.4840 C   0  0  0  0  0  2  0  0  0  0  0  0
  -19.5770  -26.7490   21.4620 C   0  0  0  0  0  2  0  0  0  0  0  0
  -18.1990  -26.8820   22.1160 C   0  0  0  0  0  2  0  0  0  0  0  0
  -19.1660  -28.9360   23.3050 C   0  0  0  0  0  0  0  0  0  0  0  0
  -18.9610  -30.1750   23.9500 C   0  0  0  0  0  3  0  0  0  0  0  0
  -17.6610  -30.6820   24.1420 C   0  0  0  0  0  3  0  0  0  0  0  0
  -16.5480  -29.9450   23.7010 C   0  0  0  0  0  3  0  0  0  0  0  0
  -16.7370  -28.7070   23.0600 C   0  0  0  0  0  3  0  0  0  0  0  0
  -25.8450  -32.6110   23.9730 C   0  0  0  0  0  3  0  0  0  0  0  0
  -25.5340  -34.0150   24.2740 N   0  0  0  0  0  0  0  0  0  0  0  0
  -25.8740  -35.0550   23.5010 C   0  0  0  0  0  0  0  0  0  0  0  0
  -26.5530  -34.9330   22.4770 O   0  0  0  0  0  0  0  0  0  0  0  0
  -24.9340  -34.1850   25.0680 H   0  0  0  0  0  0  0  0  0  0  0  0
  -24.1380  -36.8350   23.1170 C   0  0  0  0  0  1  0  0  0  0  0  0
  -25.3850  -36.4520   23.9300 C   0  0  0  0  0  3  0  0  0  0  0  0
  -27.5180  -37.3680   24.7340 C   0  0  0  0  0  1  0  0  0  0  0  0
  -26.4150  -37.5050   23.7860 N   0  0  0  0  0  0  0  0  0  0  0  0
  -26.0060  -38.4280   23.9060 H   0  0  0  0  0  0  0  0  0  0  0  0
  -26.3030  -31.8530   25.2790 C   0  0  1  0  0  0  0  0  0  0  0  0
  -25.1660  -31.6350   26.3050 C   0  0  0  0  0  1  0  0  0  0  0  0
  -26.8950  -30.4680   24.9310 C   0  0  0  0  0  1  0  0  0  0  0  0
  -27.4300  -32.6510   25.9780 C   0  0  0  0  0  1  0  0  0  0  0  0
  1 47  1  0
  2  3  2  0
  3 17  1  0
  4  5  2  0
  5  3  1  0
  6  1  1  0
  6  4  1  0
  7  4  1  0
  7  2  1  0
  8  6  1  0
  9 17  1  0
 10 15  1  0
 11 12  1  0
 11 10  1  0
 13 12  1  0
 13 22  1  0
 13 14  1  0
 15  9  1  0
 15 14  1  0
 16  9  2  0
 17 18  1  0
 19 20  2  0
 20 21  1  0
 20 39  1  0
 21 24  1  0
 22 19  1  0
 22 23  1  0
 23 21  2  0
 24 25  1  0
 25 26  2  0
 27 30  1  0
 27 26  1  0
 28 27  2  0
 29 28  1  0
 29 24  2  0
 30 31  1  0
 31 36  2  0
 31 32  1  0
 32 33  2  0
 34 33  1  0
 34 38  1  0
 35 34  2  0
 36 35  1  0
 37 36  1  0
 39 40  1  0
 40 43  1  0
 40 42  1  0
 41 39  2  0
 44 45  1  0
 44 19  1  0
 46 44  1  0
 47 50  1  0
 48 47  2  0
 49 50  1  0
 51 54  1  0
 51  1  1  0
 52 51  1  0
 53 52  1  0
 54 55  1  0
 56 67  2  0
 57 55  1  0
 57 62  1  0
 58 66  1  0
 58 68  1  0
 59 65  1  0
 59 61  1  0
 60 66  1  0
 61 62  2  0
 61 60  1  0
 63 57  2  0
 64 63  1  0
 64 59  2  0
 65 58  1  0
 66 56  1  0
 68 70  2  0
 69 68  1  0
 71 69  1  0
 72 81  2  0
 72 77  1  0
 73 69  1  0
 73 77  1  0
 74 73  1  0
 75 76  1  0
 75 74  1  0
 76 72  1  0
 77 78  2  0
 78 79  1  0
 80 79  2  0
 81 80  1  0
 82 56  1  0
 82 83  1  0
 82 92  1  0
 83 86  1  0
 84 88  1  0
 84 83  1  0
 85 84  2  0
 88 87  1  0
 90 91  1  0
 90 88  1  0
 90 89  1  0
 92 95  1  1
 92 93  1  0
 94 92  1  0
M  ISO  4   9 100  17 100  54 101  55 101
M  END
>  <TORSDO>  (70) 
F 22

>  <SCORE>  (70) 
-13.370

>  <name>  (70) 
69

>  <ligand_id>  (70) 
69

>  <original_smiles>  (70) 
[H]OC([H])(C([H])([H])Oc1c([H])c([H])c2c(c1[H])C([H])([H])N(C(=O)C([H])(N([H])C(=O)C([H])(N([H])C([H])([H])[H])C([H])([H])[H])C(C([H])([H])[H])(C([H])([H])[H])C([H])([H])[H])C([H])(C(=O)N([H])C1([H])c3c([H])c([H])c([H])c([H])c3C([H])([H])C([H])([H])C1([H])[H])C2([H])[H])C([H])(C(=O)C([H])([H])C([H])([H])[H])N([H])c1nc(N([H])C(=O)N2C([H])([H])C([H])([H])C([H])([H])C([H])(n3nc(-c4c([H])c([H])c(Oc5c([H])c([H])c(F)c([H])c5F)c([H])c4[H])c(C(=O)N([H])[H])c3N([H])[H])C2([H])[H])c([H])s1

>  <smiles>  (70) 
[H]OC([H])(C([H])([H])Oc1c([H])c([H])c2c(c1[H])C([H])([H])N(C(=O)C([H])(N([H])C(=O)C([H])(N([H])C([H])([H])[H])C([H])([H])[H])C(C([H])([H])[H])(C([H])([H])[H])C([H])([H])[H])C([H])(C(=O)N([H])C1([H])c3c([H])c([H])c([H])c([H])c3C([H])([H])C([H])([H])C1([H])[H])C2([H])[H])C([H])(C(=O)C([H])([H])C([H])([H])[H])N([H])c1nc(N([H])C(=O)N2C([H])([H])C([H])([H])C([H])([H])C([H])(n3nc(-c4c([H])c([H])c(Oc5c([H])c([H])c(F)c([H])c5F)c([H])c4[H])c(C(=O)N([H])[H])c3N([H])[H])C2([H])[H])c([H])s1

$$$$
70:0:0
     RDKit          3D

 93101  0  0  1  0  0  0  0  0999 V2000
  -29.6690  -18.6770   20.1740 C   0  0  0  0  0  0  0  0  0  0  0  0
  -29.5420  -18.8670   18.8070 C   0  0  0  0  0  0  0  0  0  0  0  0
  -29.1210  -21.0420   20.0430 C   0  0  0  0  0  0  0  0  0  0  0  0
  -29.0460  -23.6690   20.1840 C   0  0  0  0  0  0  0  0  0  0  0  0
  -29.7710  -17.8660   17.7160 C   0  0  0  0  0  1  0  0  0  0  0  0
  -29.3900  -19.9490   20.8450 N   0  0  0  0  0  0  0  0  0  0  0  0
  -28.5780  -22.3770   20.4270 N   0  0  0  0  0  0  0  0  0  0  0  0
  -30.2530  -23.9130   20.2660 O   0  0  0  0  0  0  0  0  0  0  0  0
  -29.1520  -20.5350   18.3590 S   0  0  0  0  0  0  0  0  0  0  0  0
  -27.5740  -22.3570   20.5410 H   0  0  0  0  0  0  0  0  0  0  0  0
  -30.5970  -14.8690   20.4460 C   0  0  0  0  0  0  0  0  0  0  0  0
  -30.4120  -12.5780   19.4230 C   0  0  0  0  0  2  0  0  0  0  0  0
  -29.4960  -12.5920   18.1820 C   0  0  0  0  0  2  0  0  0  0  0  0
  -28.0200  -12.4100   18.5920 C   0  0  0  0  0  2  0  0  0  0  0  0
  -27.6100  -13.3190   19.7810 C   0  0  0  0  0  3  0  0  0  0  0  0
  -28.6520  -13.2900   20.9170 C   0  0  0  0  0  2  0  0  0  0  0  0
  -29.9410  -13.6600   20.3200 N   0  0  0  0  0  0  0  0  0  0  0  0
  -31.8190  -14.8860   20.2720 O   0  0  0  0  0  0  0  0  0  0  0  0
  -30.2770  -17.3480   20.8060 C   0  0  0  0  0  0  0  0  0  0  0  0
  -29.8610  -16.0600   20.4540 N   0  0  0  0  0  0  0  0  0  0  0  0
  -31.1680  -17.4910   21.6510 O   0  0  0  0  0  0  0  0  0  0  0  0
  -28.9230  -16.0010   20.0970 H   0  0  0  0  0  0  0  0  0  0  0  0
  -25.2120  -13.9030   20.4670 C   0  0  0  0  0  0  0  0  0  0  0  0
  -24.1430  -13.1290   20.8220 C   0  0  0  0  0  0  0  0  0  0  0  0
  -24.6120  -11.7790   20.8160 C   0  0  0  0  0  0  0  0  0  0  0  0
  -26.2620  -13.0260   20.2590 N   0  0  0  0  0  0  0  0  0  0  0  0
  -25.9090  -11.7440   20.5340 N   0  0  0  0  0  0  0  0  0  0  0  0
  -23.8850  -10.5160   21.0020 C   0  0  0  0  0  0  0  0  0  0  0  0
  -24.3010   -9.5570   21.9510 C   0  0  0  0  0  3  0  0  0  0  0  0
  -23.5740   -8.3590   22.1250 C   0  0  0  0  0  3  0  0  0  0  0  0
  -22.4150   -8.1130   21.3500 C   0  0  0  0  0  0  0  0  0  0  0  0
  -22.0180   -9.0610   20.3900 C   0  0  0  0  0  3  0  0  0  0  0  0
  -22.7470  -10.2500   20.2140 C   0  0  0  0  0  3  0  0  0  0  0  0
  -21.6610   -6.9670   21.4330 O   0  0  0  0  0  0  0  0  0  0  0  0
  -21.5930   -6.2330   22.5890 C   0  0  0  0  0  0  0  0  0  0  0  0
  -21.1430   -6.7960   23.8040 C   0  0  0  0  0  3  0  0  0  0  0  0
  -21.0200   -5.9890   24.9510 C   0  0  0  0  0  3  0  0  0  0  0  0
  -21.3380   -4.6190   24.8860 C   0  0  0  0  0  0  0  0  0  0  0  0
  -21.7810   -4.0550   23.6770 C   0  0  0  0  0  3  0  0  0  0  0  0
  -21.9050   -4.8600   22.5310 C   0  0  0  0  0  0  0  0  0  0  0  0
  -22.3110   -4.3080   21.3630 F   0  0  0  0  0  0  0  0  0  0  0  0
  -21.2140   -3.8400   25.9860 F   0  0  0  0  0  0  0  0  0  0  0  0
  -22.7380  -13.6030   21.0540 C   0  0  0  0  0  0  0  0  0  0  0  0
  -21.9910  -12.9130   21.9090 N   0  0  0  0  0  0  0  0  0  0  0  0
  -22.3100  -14.6230   20.5130 O   0  0  0  0  0  0  0  0  0  0  0  0
  -22.3480  -12.0900   22.3690 H   0  0  0  0  0  0  0  0  0  0  0  0
  -21.0460  -13.2140   22.1040 H   0  0  0  0  0  0  0  0  0  0  0  0
  -25.3730  -15.2720   20.2750 N   0  0  0  0  0  0  0  0  0  0  0  0
  -24.5970  -15.9210   20.3550 H   0  0  0  0  0  0  0  0  0  0  0  0
  -26.2160  -15.7110   19.9300 H   0  0  0  0  0  0  0  0  0  0  0  0
  -28.1700  -24.9440   18.2160 C   0  0  0  0  0  1  0  0  0  0  0  0
  -28.0520  -24.8830   19.7580 C   0  0  0  0  0  3  0  0  0  0  0  0
  -28.2620  -26.3190   20.2500 O   0  0  0  0  0  0  0  0  0  0  0  0
  -24.6030  -31.9270   23.2460 C   0  0  0  0  0  0  0  0  0  0  0  0
  -27.1830  -27.2620   20.2020 C   0  0  0  0  0  0  0  0  0  0  0  0
  -23.4010  -30.5310   21.6100 C   0  0  0  0  0  3  0  0  0  0  0  0
  -24.8450  -28.9700   20.1910 C   0  0  0  0  0  0  0  0  0  0  0  0
  -25.9540  -30.8090   21.4430 C   0  0  0  0  0  2  0  0  0  0  0  0
  -26.0260  -29.4230   20.7920 C   0  0  0  0  0  0  0  0  0  0  0  0
  -27.1970  -28.5840   20.7850 C   0  0  0  0  0  3  0  0  0  0  0  0
  -25.9600  -26.8940   19.5890 C   0  0  0  0  0  3  0  0  0  0  0  0
  -24.8200  -27.7140   19.5790 C   0  0  0  0  0  3  0  0  0  0  0  0
  -23.6190  -29.8600   20.2320 C   0  0  0  0  0  2  0  0  0  0  0  0
  -24.6720  -31.1080   22.1550 N   0  0  0  0  0  0  0  0  0  0  0  0
  -23.5170  -32.2130   23.7720 O   0  0  0  0  0  0  0  0  0  0  0  0
  -22.7260  -29.5200   22.5690 C   0  0  0  0  0  0  0  0  0  0  0  0
  -21.4000  -29.3410   22.4330 N   0  0  0  0  0  0  0  0  0  0  0  0
  -23.3950  -28.9000   23.4000 O   0  0  0  0  0  0  0  0  0  0  0  0
  -20.9160  -29.8910   21.7360 H   0  0  0  0  0  0  0  0  0  0  0  0
  -18.0170  -28.1460   22.9230 C   0  0  0  0  0  0  0  0  0  0  0  0
  -20.5750  -28.4070   23.2040 C   0  0  0  0  0  3  0  0  0  0  0  0
  -20.6790  -26.9730   22.6370 C   0  0  0  0  0  2  0  0  0  0  0  0
  -19.5820  -26.6450   21.6190 C   0  0  0  0  0  2  0  0  0  0  0  0
  -18.1970  -26.7940   22.2540 C   0  0  0  0  0  2  0  0  0  0  0  0
  -19.1330  -28.9110   23.3540 C   0  0  0  0  0  0  0  0  0  0  0  0
  -18.9100  -30.1760   23.9400 C   0  0  0  0  0  3  0  0  0  0  0  0
  -17.6050  -30.6770   24.0990 C   0  0  0  0  0  3  0  0  0  0  0  0
  -16.5030  -29.9090   23.6830 C   0  0  0  0  0  3  0  0  0  0  0  0
  -16.7090  -28.6460   23.1010 C   0  0  0  0  0  3  0  0  0  0  0  0
  -25.8830  -32.5600   23.8700 C   0  0  0  0  0  3  0  0  0  0  0  0
  -25.5740  -33.9620   24.1950 N   0  0  0  0  0  0  0  0  0  0  0  0
  -25.9070  -35.0130   23.4340 C   0  0  0  0  0  0  0  0  0  0  0  0
  -26.5760  -34.9050   22.4030 O   0  0  0  0  0  0  0  0  0  0  0  0
  -24.9810  -34.1200   24.9970 H   0  0  0  0  0  0  0  0  0  0  0  0
  -24.1850  -36.8110   23.0770 C   0  0  0  0  0  1  0  0  0  0  0  0
  -25.4240  -36.4030   23.8900 C   0  0  0  0  0  3  0  0  0  0  0  0
  -27.5590  -37.2850   24.7240 C   0  0  0  0  0  1  0  0  0  0  0  0
  -26.4600  -37.4540   23.7760 N   0  0  0  0  0  0  0  0  0  0  0  0
  -26.0560  -38.3750   23.9200 H   0  0  0  0  0  0  0  0  0  0  0  0
  -26.3890  -31.7950   25.1550 C   0  0  1  0  0  0  0  0  0  0  0  0
  -25.2890  -31.5680   26.2170 C   0  0  0  0  0  1  0  0  0  0  0  0
  -26.9710  -30.4130   24.7780 C   0  0  0  0  0  1  0  0  0  0  0  0
  -27.5380  -32.5900   25.8180 C   0  0  0  0  0  1  0  0  0  0  0  0
  1 19  1  0
  1  6  1  0
  2  1  2  0
  3  7  1  0
  3  6  2  0
  4  8  2  0
  4  7  1  0
  5  2  1  0
  7 10  1  0
  9  2  1  0
  9  3  1  0
 11 20  1  0
 12 17  1  0
 13 14  1  0
 13 12  1  0
 15 14  1  0
 15 26  1  0
 15 16  1  0
 17 11  1  0
 17 16  1  0
 18 11  2  0
 19 21  2  0
 20 19  1  0
 22 20  1  0
 23 24  2  0
 24 43  1  0
 25 24  1  0
 25 28  1  0
 26 23  1  0
 26 27  1  0
 27 25  2  0
 28 29  1  0
 29 30  2  0
 31 34  1  0
 31 30  1  0
 32 31  2  0
 33 32  1  0
 33 28  2  0
 34 35  1  0
 35 36  1  0
 36 37  2  0
 38 37  1  0
 38 42  1  0
 39 38  2  0
 40 35  2  0
 40 39  1  0
 41 40  1  0
 43 44  1  0
 44 47  1  0
 44 46  1  0
 45 43  2  0
 48 49  1  0
 48 23  1  0
 50 48  1  0
 52 51  1  0
 52  4  1  0
 52 53  1  0
 54 65  2  0
 55 53  1  0
 55 60  1  0
 56 64  1  0
 56 66  1  0
 57 63  1  0
 57 59  1  0
 58 64  1  0
 59 58  1  0
 60 59  2  0
 61 55  2  0
 62 61  1  0
 62 57  2  0
 63 56  1  0
 64 54  1  0
 66 68  2  0
 67 66  1  0
 69 67  1  0
 70 79  2  0
 70 75  1  0
 71 67  1  0
 71 75  1  0
 72 71  1  0
 73 74  1  0
 73 72  1  0
 74 70  1  0
 75 76  2  0
 76 77  1  0
 78 77  2  0
 79 78  1  0
 80 54  1  0
 80 81  1  0
 80 90  1  0
 81 84  1  0
 82 86  1  0
 82 81  1  0
 83 82  2  0
 86 85  1  0
 88 86  1  0
 88 89  1  0
 88 87  1  0
 90 93  1  1
 90 91  1  0
 92 90  1  0
M  ISO  4  11 100  20 100  52 101  53 101
M  END
>  <TORSDO>  (71) 
F 17

>  <SCORE>  (71) 
-15.076

>  <name>  (71) 
70

>  <ligand_id>  (71) 
70

>  <original_smiles>  (71) 
[H]c1c([H])c([H])c2c(c1[H])C([H])([H])C([H])([H])C([H])([H])C2([H])N([H])C(=O)C1([H])N(C(=O)C([H])(N([H])C(=O)C([H])(N([H])C([H])([H])[H])C([H])([H])[H])C(C([H])([H])[H])(C([H])([H])[H])C([H])([H])[H])C([H])([H])c2c([H])c(OC([H])(C(=O)N([H])c3nc(C(=O)N([H])C(=O)N4C([H])([H])C([H])([H])C([H])([H])C([H])(n5nc(-c6c([H])c([H])c(Oc7c([H])c([H])c(F)c([H])c7F)c([H])c6[H])c(C(=O)N([H])[H])c5N([H])[H])C4([H])[H])c(C([H])([H])[H])s3)C([H])([H])[H])c([H])c([H])c2C1([H])[H]

>  <smiles>  (71) 
[H]c1c([H])c([H])c2c(c1[H])C([H])([H])C([H])([H])C([H])([H])C2([H])N([H])C(=O)C1([H])N(C(=O)C([H])(N([H])C(=O)C([H])(N([H])C([H])([H])[H])C([H])([H])[H])C(C([H])([H])[H])(C([H])([H])[H])C([H])([H])[H])C([H])([H])c2c([H])c(OC([H])(C(=O)N([H])c3nc(C(=O)N([H])C(=O)N4C([H])([H])C([H])([H])C([H])([H])C([H])(n5nc(-c6c([H])c([H])c(Oc7c([H])c([H])c(F)c([H])c7F)c([H])c6[H])c(C(=O)N([H])[H])c5N([H])[H])C4([H])[H])c(C([H])([H])[H])s3)C([H])([H])[H])c([H])c([H])c2C1([H])[H]

$$$$
71:0:0
     RDKit          3D

 93101  0  0  1  0  0  0  0  0999 V2000
  -29.1110  -23.5130   19.8510 C   0  0  0  0  0  0  0  0  0  0  0  0
  -28.9340  -22.2060   20.3820 N   0  0  0  0  0  0  0  0  0  0  0  0
  -29.8550  -23.7030   18.8850 O   0  0  0  0  0  0  0  0  0  0  0  0
  -28.2840  -22.2450   21.1540 H   0  0  0  0  0  0  0  0  0  0  0  0
  -28.9800  -18.3960   21.0410 C   0  0  0  0  0  3  0  0  0  0  0  0
  -30.5110  -18.7440   19.3130 C   0  0  0  0  0  3  0  0  0  0  0  0
  -29.8940  -17.7450   20.1540 C   0  0  0  0  0  0  0  0  0  0  0  0
  -28.7290  -19.8160   21.0690 C   0  0  0  0  0  0  0  0  0  0  0  0
  -29.3640  -20.7450   20.1880 C   0  0  0  0  0  0  0  0  0  0  0  0
  -30.2630  -20.1350   19.3240 N   0  0  0  0  0  0  0  0  0  0  0  0
  -27.8370  -20.2990   21.9700 F   0  0  0  0  0  0  0  0  0  0  0  0
  -30.8040  -15.1360   19.7370 C   0  0  0  0  0  0  0  0  0  0  0  0
  -30.6750  -12.8040   18.7400 C   0  0  0  0  0  2  0  0  0  0  0  0
  -29.6290  -12.7860   17.5980 C   0  0  0  0  0  2  0  0  0  0  0  0
  -28.2090  -12.5470   18.1500 C   0  0  0  0  0  2  0  0  0  0  0  0
  -27.9040  -13.4280   19.3890 C   0  0  0  0  0  3  0  0  0  0  0  0
  -29.0560  -13.3940   20.4170 C   0  0  0  0  0  2  0  0  0  0  0  0
  -30.2710  -13.8480   19.7230 N   0  0  0  0  0  0  0  0  0  0  0  0
  -31.9380  -15.3030   19.2760 O   0  0  0  0  0  0  0  0  0  0  0  0
  -29.9720  -16.2030   20.1550 N   0  0  0  0  0  0  0  0  0  0  0  0
  -29.1600  -15.7960   20.5950 H   0  0  0  0  0  0  0  0  0  0  0  0
  -25.5990  -13.9650   20.3690 C   0  0  0  0  0  0  0  0  0  0  0  0
  -24.5730  -13.1700   20.7990 C   0  0  0  0  0  0  0  0  0  0  0  0
  -25.0300  -11.8230   20.6570 C   0  0  0  0  0  0  0  0  0  0  0  0
  -26.6140  -13.1030   19.9890 N   0  0  0  0  0  0  0  0  0  0  0  0
  -26.2860  -11.8060   20.2260 N   0  0  0  0  0  0  0  0  0  0  0  0
  -24.3230  -10.5510   20.8520 C   0  0  0  0  0  0  0  0  0  0  0  0
  -24.7410   -9.6130   21.8210 C   0  0  0  0  0  3  0  0  0  0  0  0
  -24.0310   -8.4050   22.0010 C   0  0  0  0  0  3  0  0  0  0  0  0
  -22.8880   -8.1280   21.2140 C   0  0  0  0  0  0  0  0  0  0  0  0
  -22.4900   -9.0560   20.2360 C   0  0  0  0  0  3  0  0  0  0  0  0
  -23.2000  -10.2540   20.0530 C   0  0  0  0  0  3  0  0  0  0  0  0
  -22.1520   -6.9710   21.3030 O   0  0  0  0  0  0  0  0  0  0  0  0
  -21.9450   -6.3410   22.5040 C   0  0  0  0  0  0  0  0  0  0  0  0
  -21.3180   -6.9900   23.5890 C   0  0  0  0  0  3  0  0  0  0  0  0
  -21.0620   -6.2820   24.7810 C   0  0  0  0  0  3  0  0  0  0  0  0
  -21.4250   -4.9270   24.8880 C   0  0  0  0  0  0  0  0  0  0  0  0
  -22.0460   -4.2770   23.8060 C   0  0  0  0  0  3  0  0  0  0  0  0
  -22.3030   -4.9820   22.6170 C   0  0  0  0  0  0  0  0  0  0  0  0
  -22.8830   -4.3450   21.5710 F   0  0  0  0  0  0  0  0  0  0  0  0
  -21.1740   -4.2440   26.0290 F   0  0  0  0  0  0  0  0  0  0  0  0
  -23.2080  -13.6280   21.2230 C   0  0  0  0  0  0  0  0  0  0  0  0
  -22.5650  -12.8920   22.1220 N   0  0  0  0  0  0  0  0  0  0  0  0
  -22.7240  -14.6740   20.7910 O   0  0  0  0  0  0  0  0  0  0  0  0
  -22.9720  -12.0450   22.4910 H   0  0  0  0  0  0  0  0  0  0  0  0
  -21.6520  -13.1790   22.4470 H   0  0  0  0  0  0  0  0  0  0  0  0
  -25.7450  -15.3440   20.2430 N   0  0  0  0  0  0  0  0  0  0  0  0
  -24.9840  -15.9820   20.4450 H   0  0  0  0  0  0  0  0  0  0  0  0
  -26.5310  -15.7980   19.7980 H   0  0  0  0  0  0  0  0  0  0  0  0
  -28.9650  -25.0640   21.8920 C   0  0  0  0  0  1  0  0  0  0  0  0
  -26.8620  -24.4060   20.7210 C   0  0  0  0  0  1  0  0  0  0  0  0
  -28.3310  -24.8400   20.5080 C   0  0  2  0  0  0  0  0  0  0  0  0
  -28.4500  -26.2850   19.8940 O   0  0  0  0  0  0  0  0  0  0  0  0
  -24.7300  -31.8570   23.0730 C   0  0  0  0  0  0  0  0  0  0  0  0
  -27.3870  -27.2690   19.9210 C   0  0  0  0  0  0  0  0  0  0  0  0
  -23.5530  -30.4790   21.4040 C   0  0  0  0  0  3  0  0  0  0  0  0
  -25.0310  -28.9760   19.9300 C   0  0  0  0  0  0  0  0  0  0  0  0
  -26.1010  -30.7960   21.2440 C   0  0  0  0  0  2  0  0  0  0  0  0
  -26.2000  -29.4220   20.5610 C   0  0  0  0  0  0  0  0  0  0  0  0
  -27.3800  -28.5820   20.5460 C   0  0  0  0  0  3  0  0  0  0  0  0
  -26.2080  -26.9580   19.2120 C   0  0  0  0  0  3  0  0  0  0  0  0
  -25.0460  -27.7580   19.2390 C   0  0  0  0  0  3  0  0  0  0  0  0
  -23.7840  -29.8450   20.0070 C   0  0  0  0  0  2  0  0  0  0  0  0
  -24.8140  -31.0650   21.9620 N   0  0  0  0  0  0  0  0  0  0  0  0
  -23.6400  -32.1050   23.6110 O   0  0  0  0  0  0  0  0  0  0  0  0
  -22.8990  -29.4330   22.3410 C   0  0  0  0  0  0  0  0  0  0  0  0
  -21.5720  -29.2470   22.2240 N   0  0  0  0  0  0  0  0  0  0  0  0
  -23.5880  -28.7920   23.1380 O   0  0  0  0  0  0  0  0  0  0  0  0
  -21.0710  -29.8170   21.5560 H   0  0  0  0  0  0  0  0  0  0  0  0
  -18.2090  -28.0030   22.7480 C   0  0  0  0  0  0  0  0  0  0  0  0
  -20.7700  -28.2770   22.9760 C   0  0  0  0  0  3  0  0  0  0  0  0
  -20.8720  -26.8670   22.3500 C   0  0  0  0  0  2  0  0  0  0  0  0
  -19.7540  -26.5710   21.3460 C   0  0  0  0  0  2  0  0  0  0  0  0
  -18.3840  -26.6800   22.0210 C   0  0  0  0  0  2  0  0  0  0  0  0
  -19.3290  -28.7600   23.1830 C   0  0  0  0  0  0  0  0  0  0  0  0
  -19.1100  -29.9970   23.8270 C   0  0  0  0  0  3  0  0  0  0  0  0
  -17.8050  -30.4780   24.0380 C   0  0  0  0  0  3  0  0  0  0  0  0
  -16.6990  -29.7180   23.6190 C   0  0  0  0  0  3  0  0  0  0  0  0
  -16.9020  -28.4810   22.9790 C   0  0  0  0  0  3  0  0  0  0  0  0
  -25.9970  -32.5050   23.7090 C   0  0  0  0  0  3  0  0  0  0  0  0
  -25.6560  -33.8880   24.0800 N   0  0  0  0  0  0  0  0  0  0  0  0
  -25.9640  -34.9710   23.3550 C   0  0  0  0  0  0  0  0  0  0  0  0
  -26.6310  -34.9140   22.3190 O   0  0  0  0  0  0  0  0  0  0  0  0
  -25.0630  -34.0050   24.8870 H   0  0  0  0  0  0  0  0  0  0  0  0
  -24.1990  -36.7430   23.0680 C   0  0  0  0  0  1  0  0  0  0  0  0
  -25.4520  -36.3360   23.8590 C   0  0  0  0  0  3  0  0  0  0  0  0
  -27.5690  -37.2430   24.7090 C   0  0  0  0  0  1  0  0  0  0  0  0
  -26.4640  -37.4130   23.7710 N   0  0  0  0  0  0  0  0  0  0  0  0
  -26.0390  -38.3200   23.9410 H   0  0  0  0  0  0  0  0  0  0  0  0
  -26.5310  -31.7140   24.9670 C   0  0  1  0  0  0  0  0  0  0  0  0
  -25.4440  -31.4270   26.0290 C   0  0  0  0  0  1  0  0  0  0  0  0
  -27.1460  -30.3590   24.5480 C   0  0  0  0  0  1  0  0  0  0  0  0
  -27.6630  -32.5180   25.6470 C   0  0  0  0  0  1  0  0  0  0  0  0
  1  2  1  0
  1 52  1  0
  2  4  1  0
  3  1  2  0
  5  8  1  0
  6 10  2  0
  6  7  1  0
  7 20  1  0
  7  5  2  0
  8 11  1  0
  9  2  1  0
  9  8  2  0
 10  9  1  0
 12 20  1  0
 13 18  1  0
 14 15  1  0
 14 13  1  0
 16 15  1  0
 16 25  1  0
 16 17  1  0
 18 12  1  0
 18 17  1  0
 19 12  2  0
 20 21  1  0
 22 23  2  0
 23 42  1  0
 24 23  1  0
 24 27  1  0
 25 26  1  0
 25 22  1  0
 26 24  2  0
 27 28  1  0
 28 29  2  0
 30 33  1  0
 30 29  1  0
 31 30  2  0
 32 31  1  0
 32 27  2  0
 33 34  1  0
 34 39  2  0
 34 35  1  0
 35 36  2  0
 36 37  1  0
 37 41  1  0
 38 37  2  0
 39 38  1  0
 40 39  1  0
 42 43  1  0
 43 46  1  0
 43 45  1  0
 44 42  2  0
 47 22  1  0
 47 48  1  0
 49 47  1  0
 52 51  1  1
 52 50  1  0
 53 55  1  0
 53 52  1  0
 54 65  2  0
 55 60  1  0
 56 64  1  0
 56 66  1  0
 57 63  1  0
 57 59  1  0
 58 64  1  0
 59 58  1  0
 60 59  2  0
 61 62  1  0
 61 55  2  0
 62 57  2  0
 63 56  1  0
 64 54  1  0
 66 68  2  0
 67 66  1  0
 69 67  1  0
 70 79  2  0
 70 75  1  0
 71 67  1  0
 71 75  1  0
 72 71  1  0
 73 74  1  0
 73 72  1  0
 74 70  1  0
 75 76  2  0
 76 77  1  0
 78 77  2  0
 79 78  1  0
 80 54  1  0
 80 81  1  0
 80 90  1  0
 81 84  1  0
 82 86  1  0
 82 81  1  0
 83 82  2  0
 86 85  1  0
 88 86  1  0
 88 89  1  0
 88 87  1  0
 90 93  1  1
 90 91  1  0
 92 90  1  0
M  ISO  4  12 100  20 100  52 101  53 101
M  END
>  <TORSDO>  (72) 
F 18

>  <SCORE>  (72) 
-12.270

>  <name>  (72) 
71

>  <ligand_id>  (72) 
71

>  <original_smiles>  (72) 
[H]c1nc(N([H])C(=O)C(Oc2c([H])c([H])c3c(c2[H])C([H])([H])N(C(=O)C([H])(N([H])C(=O)C([H])(N([H])C([H])([H])[H])C([H])([H])[H])C(C([H])([H])[H])(C([H])([H])[H])C([H])([H])[H])C([H])(C(=O)N([H])C2([H])c4c([H])c([H])c([H])c([H])c4C([H])([H])C([H])([H])C2([H])[H])C3([H])[H])(C([H])([H])[H])C([H])([H])[H])c(F)c([H])c1N([H])C(=O)N1C([H])([H])C([H])([H])C([H])([H])C([H])(n2nc(-c3c([H])c([H])c(Oc4c([H])c([H])c(F)c([H])c4F)c([H])c3[H])c(C(=O)N([H])[H])c2N([H])[H])C1([H])[H]

>  <smiles>  (72) 
[H]c1nc(N([H])C(=O)C(Oc2c([H])c([H])c3c(c2[H])C([H])([H])N(C(=O)C([H])(N([H])C(=O)C([H])(N([H])C([H])([H])[H])C([H])([H])[H])C(C([H])([H])[H])(C([H])([H])[H])C([H])([H])[H])C([H])(C(=O)N([H])C2([H])c4c([H])c([H])c([H])c([H])c4C([H])([H])C([H])([H])C2([H])[H])C3([H])[H])(C([H])([H])[H])C([H])([H])[H])c(F)c([H])c1N([H])C(=O)N1C([H])([H])C([H])([H])C([H])([H])C([H])(n2nc(-c3c([H])c([H])c(Oc4c([H])c([H])c(F)c([H])c4F)c([H])c3[H])c(C(=O)N([H])[H])c2N([H])[H])C1([H])[H]

$$$$
72:0:0
     RDKit          3D

 98106  0  0  1  0  0  0  0  0999 V2000
  -29.8090  -18.0320   19.9310 C   0  0  0  0  0  0  0  0  0  0  0  0
  -28.7180  -17.9440   19.0790 C   0  0  0  0  0  0  0  0  0  0  0  0
  -29.0760  -20.2630   19.9390 C   0  0  0  0  0  0  0  0  0  0  0  0
  -28.3510  -22.6940   19.9090 C   0  0  0  0  0  0  0  0  0  0  0  0
  -29.9410  -19.3590   20.4370 N   0  0  0  0  0  0  0  0  0  0  0  0
  -29.1810  -21.6680   20.2550 N   0  0  0  0  0  0  0  0  0  0  0  0
  -27.2680  -22.4950   19.3530 O   0  0  0  0  0  0  0  0  0  0  0  0
  -27.9100  -19.4930   18.8620 S   0  0  0  0  0  0  0  0  0  0  0  0
  -30.0100  -21.9250   20.7710 H   0  0  0  0  0  0  0  0  0  0  0  0
  -28.1910  -16.8600   18.3840 N   0  0  0  0  0  0  0  0  0  0  0  0
  -28.4580  -15.8890   18.4800 H   0  0  0  0  0  0  0  0  0  0  0  0
  -27.3740  -16.9670   17.7890 H   0  0  0  0  0  0  0  0  0  0  0  0
  -30.1950  -24.4640   19.7960 C   0  0  0  0  0  1  0  0  0  0  0  0
  -28.7530  -24.1730   20.2670 C   0  0  0  0  0  3  0  0  0  0  0  0
  -27.7240  -25.2580   19.7450 C   0  0  0  0  0  2  0  0  0  0  0  0
  -27.8920  -26.6580   20.1540 O   0  0  0  0  0  0  0  0  0  0  0  0
  -24.4830  -32.1220   23.3220 C   0  0  0  0  0  0  0  0  0  0  0  0
  -26.7730  -27.5000   20.1460 C   0  0  0  0  0  0  0  0  0  0  0  0
  -23.1370  -30.7570   21.7650 C   0  0  0  0  0  3  0  0  0  0  0  0
  -24.4490  -29.1560   20.2730 C   0  0  0  0  0  0  0  0  0  0  0  0
  -25.6680  -31.0000   21.4290 C   0  0  0  0  0  2  0  0  0  0  0  0
  -25.6640  -29.6200   20.7900 C   0  0  0  0  0  0  0  0  0  0  0  0
  -26.8250  -28.8000   20.7240 C   0  0  0  0  0  3  0  0  0  0  0  0
  -25.5340  -27.0900   19.5920 C   0  0  0  0  0  3  0  0  0  0  0  0
  -24.3800  -27.8900   19.6760 C   0  0  0  0  0  3  0  0  0  0  0  0
  -23.2450  -30.0660   20.3800 C   0  0  0  0  0  2  0  0  0  0  0  0
  -24.4530  -31.3110   22.2270 N   0  0  0  0  0  0  0  0  0  0  0  0
  -23.4440  -32.4370   23.9180 O   0  0  0  0  0  0  0  0  0  0  0  0
  -22.5040  -29.7660   22.7670 C   0  0  0  0  0  0  0  0  0  0  0  0
  -21.2070  -29.4670   22.5830 N   0  0  0  0  0  0  0  0  0  0  0  0
  -23.1810  -29.2630   23.6690 O   0  0  0  0  0  0  0  0  0  0  0  0
  -20.7170  -29.9240   21.8250 H   0  0  0  0  0  0  0  0  0  0  0  0
  -17.9490  -27.9360   22.9070 C   0  0  0  0  0  0  0  0  0  0  0  0
  -20.4180  -28.5330   23.3870 C   0  0  0  0  0  3  0  0  0  0  0  0
  -20.7370  -27.0660   23.0130 C   0  0  0  0  0  2  0  0  0  0  0  0
  -19.7960  -26.4960   21.9480 C   0  0  0  0  0  2  0  0  0  0  0  0
  -18.3430  -26.5500   22.4320 C   0  0  0  0  0  2  0  0  0  0  0  0
  -18.9230  -28.8730   23.3430 C   0  0  0  0  0  0  0  0  0  0  0  0
  -18.5050  -30.1620   23.7410 C   0  0  0  0  0  3  0  0  0  0  0  0
  -17.1440  -30.5160   23.7140 C   0  0  0  0  0  3  0  0  0  0  0  0
  -16.1820  -29.5800   23.2950 C   0  0  0  0  0  3  0  0  0  0  0  0
  -16.5850  -28.2930   22.8970 C   0  0  0  0  0  3  0  0  0  0  0  0
  -25.8220  -32.7140   23.8630 C   0  0  0  0  0  3  0  0  0  0  0  0
  -25.5930  -34.1370   24.1490 N   0  0  0  0  0  0  0  0  0  0  0  0
  -25.9110  -35.1410   23.3230 C   0  0  0  0  0  0  0  0  0  0  0  0
  -26.5030  -34.9680   22.2520 O   0  0  0  0  0  0  0  0  0  0  0  0
  -25.0710  -34.3560   24.9870 H   0  0  0  0  0  0  0  0  0  0  0  0
  -24.2260  -36.9810   23.0170 C   0  0  0  0  0  1  0  0  0  0  0  0
  -25.5090  -36.5640   23.7530 C   0  0  0  0  0  3  0  0  0  0  0  0
  -27.7280  -37.4020   24.3870 C   0  0  0  0  0  1  0  0  0  0  0  0
  -26.5680  -37.5700   23.5160 N   0  0  0  0  0  0  0  0  0  0  0  0
  -26.2040  -38.5100   23.6480 H   0  0  0  0  0  0  0  0  0  0  0  0
  -26.3620  -31.9680   25.1420 C   0  0  1  0  0  0  0  0  0  0  0  0
  -25.2980  -31.7790   26.2460 C   0  0  0  0  0  1  0  0  0  0  0  0
  -26.9110  -30.5710   24.7690 C   0  0  0  0  0  1  0  0  0  0  0  0
  -27.5420  -32.7610   25.7540 C   0  0  0  0  0  1  0  0  0  0  0  0
  -30.8340  -16.9540   20.3890 C   0  0  0  0  0  3  0  0  0  0  0  0
  -30.5910  -14.5500   19.4960 C   0  0  0  0  0  0  0  0  0  0  0  0
  -30.0660  -12.3720   18.4090 C   0  0  0  0  0  2  0  0  0  0  0  0
  -28.9780  -12.5030   17.3250 C   0  0  0  0  0  2  0  0  0  0  0  0
  -27.5800  -12.3360   17.9370 C   0  0  0  0  0  2  0  0  0  0  0  0
  -27.3810  -13.2290   19.1840 C   0  0  0  0  0  3  0  0  0  0  0  0
  -28.5680  -13.1050   20.1590 C   0  0  0  0  0  2  0  0  0  0  0  0
  -29.8320  -13.4000   19.4510 N   0  0  0  0  0  0  0  0  0  0  0  0
  -31.4390  -14.7390   18.6240 O   0  0  0  0  0  0  0  0  0  0  0  0
  -30.2370  -15.0690   21.8750 C   0  0  0  0  0  1  0  0  0  0  0  0
  -30.3770  -15.5030   20.4690 N   0  0  0  0  0  0  0  0  0  0  0  0
  -25.1510  -13.8390   20.3140 C   0  0  0  0  0  0  0  0  0  0  0  0
  -24.1330  -13.0620   20.8080 C   0  0  0  0  0  0  0  0  0  0  0  0
  -24.5430  -11.7070   20.6260 C   0  0  0  0  0  0  0  0  0  0  0  0
  -26.1130  -12.9500   19.8570 N   0  0  0  0  0  0  0  0  0  0  0  0
  -25.7650  -11.6610   20.1090 N   0  0  0  0  0  0  0  0  0  0  0  0
  -23.8150  -10.4520   20.8610 C   0  0  0  0  0  0  0  0  0  0  0  0
  -24.2890   -9.4850   21.7750 C   0  0  0  0  0  3  0  0  0  0  0  0
  -23.5640   -8.2940   21.9970 C   0  0  0  0  0  3  0  0  0  0  0  0
  -22.3500   -8.0630   21.3110 C   0  0  0  0  0  0  0  0  0  0  0  0
  -21.8950   -9.0160   20.3840 C   0  0  0  0  0  3  0  0  0  0  0  0
  -22.6190  -10.2000   20.1560 C   0  0  0  0  0  3  0  0  0  0  0  0
  -21.5900   -6.9250   21.4420 O   0  0  0  0  0  0  0  0  0  0  0  0
  -21.5050   -6.2520   22.6340 C   0  0  0  0  0  0  0  0  0  0  0  0
  -21.0070   -6.8660   23.8040 C   0  0  0  0  0  3  0  0  0  0  0  0
  -20.8710   -6.1160   24.9890 C   0  0  0  0  0  3  0  0  0  0  0  0
  -21.2230   -4.7530   25.0050 C   0  0  0  0  0  0  0  0  0  0  0  0
  -21.7110   -4.1370   23.8390 C   0  0  0  0  0  3  0  0  0  0  0  0
  -21.8510   -4.8860   22.6580 C   0  0  0  0  0  0  0  0  0  0  0  0
  -22.3030   -4.2840   21.5320 F   0  0  0  0  0  0  0  0  0  0  0  0
  -21.0870   -4.0300   26.1420 F   0  0  0  0  0  0  0  0  0  0  0  0
  -22.8090  -13.5490   21.3210 C   0  0  0  0  0  0  0  0  0  0  0  0
  -22.2090  -12.8230   22.2590 N   0  0  0  0  0  0  0  0  0  0  0  0
  -22.3140  -14.6010   20.9220 O   0  0  0  0  0  0  0  0  0  0  0  0
  -22.6400  -11.9850   22.6200 H   0  0  0  0  0  0  0  0  0  0  0  0
  -21.3080  -13.1100   22.6170 H   0  0  0  0  0  0  0  0  0  0  0  0
  -25.3250  -15.2160   20.2080 N   0  0  0  0  0  0  0  0  0  0  0  0
  -24.6220  -15.8660   20.5410 H   0  0  0  0  0  0  0  0  0  0  0  0
  -26.1230  -15.6800   19.7890 H   0  0  0  0  0  0  0  0  0  0  0  0
  -32.9040  -18.5290   19.9510 C   0  0  0  0  0  1  0  0  0  0  0  0
  -33.2850  -16.0600   20.2590 C   0  0  0  0  0  1  0  0  0  0  0  0
  -32.2790  -17.1280   19.7650 C   0  0  0  0  0  3  0  0  0  0  0  0
  1 57  1  0
  1  5  1  0
  2  1  2  0
  3  6  1  0
  3  5  2  0
  4  6  1  0
  4 14  1  0
  6  9  1  0
  7  4  2  0
  8  2  1  0
  8  3  1  0
 10 11  1  0
 10  2  1  0
 12 10  1  0
 14 13  1  0
 15 16  1  0
 15 14  1  0
 17 28  2  0
 18 16  1  0
 18 23  1  0
 19 27  1  0
 19 29  1  0
 20 26  1  0
 20 22  1  0
 21 27  1  0
 22 21  1  0
 23 22  2  0
 24 25  1  0
 24 18  2  0
 25 20  2  0
 26 19  1  0
 27 17  1  0
 29 31  2  0
 30 29  1  0
 32 30  1  0
 33 38  1  0
 34 30  1  0
 35 34  1  0
 36 37  1  0
 36 35  1  0
 37 33  1  0
 38 34  1  0
 38 39  2  0
 40 39  1  0
 41 40  2  0
 42 33  2  0
 42 41  1  0
 43 17  1  0
 43 44  1  0
 43 53  1  0
 44 47  1  0
 45 49  1  0
 45 44  1  0
 46 45  2  0
 49 48  1  0
 51 52  1  0
 51 49  1  0
 51 50  1  0
 53 56  1  1
 53 54  1  0
 55 53  1  0
 57 98  1  0
 57 67  1  0
 58 67  1  0
 59 64  1  0
 60 61  1  0
 60 59  1  0
 62 61  1  0
 62 71  1  0
 62 63  1  0
 64 58  1  0
 64 63  1  0
 65 58  2  0
 67 66  1  0
 68 69  2  0
 69 88  1  0
 70 69  1  0
 70 73  1  0
 71 72  1  0
 71 68  1  0
 72 70  2  0
 73 74  1  0
 74 75  2  0
 76 79  1  0
 76 75  1  0
 77 76  2  0
 78 77  1  0
 78 73  2  0
 79 80  1  0
 80 85  2  0
 80 81  1  0
 81 82  2  0
 82 83  1  0
 83 87  1  0
 84 83  2  0
 85 84  1  0
 86 85  1  0
 88 89  1  0
 89 92  1  0
 89 91  1  0
 90 88  2  0
 93 68  1  0
 93 94  1  0
 95 93  1  0
 98 96  1  0
 98 97  1  0
M  ISO  4  15 101  16 101  58 100  67 100
M  END
>  <TORSDO>  (73) 
F 21

>  <SCORE>  (73) 
-11.703

>  <name>  (73) 
72

>  <ligand_id>  (73) 
72

>  <original_smiles>  (73) 
[H]c1c([H])c([H])c2c(c1[H])C([H])([H])C([H])([H])C([H])([H])C2([H])N([H])C(=O)C1([H])N(C(=O)C([H])(N([H])C(=O)C([H])(N([H])C([H])([H])[H])C([H])([H])[H])C(C([H])([H])[H])(C([H])([H])[H])C([H])([H])[H])C([H])([H])c2c([H])c(OC([H])([H])C([H])(C(=O)N([H])c3nc(C([H])(N(C(=O)N4C([H])([H])C([H])([H])C([H])([H])C([H])(n5nc(-c6c([H])c([H])c(Oc7c([H])c([H])c(F)c([H])c7F)c([H])c6[H])c(C(=O)N([H])[H])c5N([H])[H])C4([H])[H])C([H])([H])[H])C([H])(C([H])([H])[H])C([H])([H])[H])c(N([H])[H])s3)C([H])([H])[H])c([H])c([H])c2C1([H])[H]

>  <smiles>  (73) 
[H]c1c([H])c([H])c2c(c1[H])C([H])([H])C([H])([H])C([H])([H])C2([H])N([H])C(=O)C1([H])N(C(=O)C([H])(N([H])C(=O)C([H])(N([H])C([H])([H])[H])C([H])([H])[H])C(C([H])([H])[H])(C([H])([H])[H])C([H])([H])[H])C([H])([H])c2c([H])c(OC([H])([H])C([H])(C(=O)N([H])c3nc(C([H])(N(C(=O)N4C([H])([H])C([H])([H])C([H])([H])C([H])(n5nc(-c6c([H])c([H])c(Oc7c([H])c([H])c(F)c([H])c7F)c([H])c6[H])c(C(=O)N([H])[H])c5N([H])[H])C4([H])[H])C([H])([H])[H])C([H])(C([H])([H])[H])C([H])([H])[H])c(N([H])[H])s3)C([H])([H])[H])c([H])c([H])c2C1([H])[H]

$$$$
73:0:0
     RDKit          3D

 97105  0  0  1  0  0  0  0  0999 V2000
  -28.3960  -20.2730   20.2630 C   0  0  0  0  0  3  0  0  0  0  0  0
  -29.2010  -21.3900   19.8980 C   0  0  0  0  0  0  0  0  0  0  0  0
  -30.5480  -21.0590   19.6070 C   0  0  0  0  0  0  0  0  0  0  0  0
  -31.0100  -19.7170   19.7380 C   0  0  0  0  0  0  0  0  0  0  0  0
  -30.1280  -18.6750   20.1470 C   0  0  0  0  0  0  0  0  0  0  0  0
  -28.8230  -18.9750   20.3920 N   0  0  0  0  0  0  0  0  0  0  0  0
  -31.4060  -22.0110   19.1660 F   0  0  0  0  0  0  0  0  0  0  0  0
  -32.3200  -19.4480   19.5020 F   0  0  0  0  0  0  0  0  0  0  0  0
  -29.0470  -24.0050   19.9750 C   0  0  0  0  0  0  0  0  0  0  0  0
  -28.6000  -22.7260   19.7290 N   0  0  0  0  0  0  0  0  0  0  0  0
  -30.0950  -24.2310   20.5820 O   0  0  0  0  0  0  0  0  0  0  0  0
  -27.6610  -22.7090   19.3510 H   0  0  0  0  0  0  0  0  0  0  0  0
  -28.5200  -25.5370   17.9930 C   0  0  0  0  0  1  0  0  0  0  0  0
  -28.1520  -25.2140   19.4540 C   0  0  0  0  0  3  0  0  0  0  0  0
  -28.2100  -26.5140   20.1800 O   0  0  0  0  0  0  0  0  0  0  0  0
  -24.5640  -31.9690   23.2560 C   0  0  0  0  0  0  0  0  0  0  0  0
  -27.0970  -27.3860   20.1380 C   0  0  0  0  0  0  0  0  0  0  0  0
  -23.3270  -30.5790   21.6390 C   0  0  0  0  0  3  0  0  0  0  0  0
  -24.7440  -29.0330   20.1820 C   0  0  0  0  0  0  0  0  0  0  0  0
  -25.8670  -30.8740   21.4190 C   0  0  0  0  0  2  0  0  0  0  0  0
  -25.9270  -29.4960   20.7720 C   0  0  0  0  0  0  0  0  0  0  0  0
  -27.1010  -28.6800   20.7520 C   0  0  0  0  0  3  0  0  0  0  0  0
  -25.8880  -27.0000   19.5070 C   0  0  0  0  0  3  0  0  0  0  0  0
  -24.7290  -27.7910   19.5400 C   0  0  0  0  0  3  0  0  0  0  0  0
  -23.5150  -29.9120   20.2530 C   0  0  0  0  0  2  0  0  0  0  0  0
  -24.6060  -31.1580   22.1600 N   0  0  0  0  0  0  0  0  0  0  0  0
  -23.4910  -32.2560   23.8050 O   0  0  0  0  0  0  0  0  0  0  0  0
  -22.6730  -29.5620   22.6050 C   0  0  0  0  0  0  0  0  0  0  0  0
  -21.3500  -29.3630   22.4720 N   0  0  0  0  0  0  0  0  0  0  0  0
  -23.3540  -28.9580   23.4370 O   0  0  0  0  0  0  0  0  0  0  0  0
  -20.8600  -29.9050   21.7730 H   0  0  0  0  0  0  0  0  0  0  0  0
  -17.9860  -28.1290   22.9670 C   0  0  0  0  0  0  0  0  0  0  0  0
  -20.5380  -28.4270   23.2500 C   0  0  0  0  0  3  0  0  0  0  0  0
  -20.6630  -26.9890   22.6970 C   0  0  0  0  0  2  0  0  0  0  0  0
  -19.5720  -26.6360   21.6800 C   0  0  0  0  0  2  0  0  0  0  0  0
  -18.1840  -26.7720   22.3130 C   0  0  0  0  0  2  0  0  0  0  0  0
  -19.0910  -28.9140   23.3930 C   0  0  0  0  0  0  0  0  0  0  0  0
  -18.8500  -30.1810   23.9650 C   0  0  0  0  0  3  0  0  0  0  0  0
  -17.5380  -30.6670   24.1140 C   0  0  0  0  0  3  0  0  0  0  0  0
  -16.4480  -29.8810   23.7030 C   0  0  0  0  0  3  0  0  0  0  0  0
  -16.6720  -28.6140   23.1360 C   0  0  0  0  0  3  0  0  0  0  0  0
  -25.8600  -32.5920   23.8560 C   0  0  0  0  0  3  0  0  0  0  0  0
  -26.3910  -31.8170   25.1230 C   0  0  1  0  0  0  0  0  0  0  0  0
  -25.3090  -31.5670   26.2000 C   0  0  0  0  0  1  0  0  0  0  0  0
  -26.9760  -30.4430   24.7210 C   0  0  0  0  0  1  0  0  0  0  0  0
  -27.5470  -32.6120   25.7730 C   0  0  0  0  0  1  0  0  0  0  0  0
  -25.5600  -33.9910   24.1910 N   0  0  0  0  0  0  0  0  0  0  0  0
  -25.8760  -35.0430   23.4250 C   0  0  0  0  0  0  0  0  0  0  0  0
  -26.5190  -34.9390   22.3770 O   0  0  0  0  0  0  0  0  0  0  0  0
  -24.9810  -34.1470   25.0030 H   0  0  0  0  0  0  0  0  0  0  0  0
  -24.1500  -36.8480   23.1100 C   0  0  0  0  0  1  0  0  0  0  0  0
  -25.4040  -36.4330   23.8960 C   0  0  0  0  0  3  0  0  0  0  0  0
  -27.5530  -37.3150   24.6930 C   0  0  0  0  0  1  0  0  0  0  0  0
  -26.4400  -37.4800   23.7630 N   0  0  0  0  0  0  0  0  0  0  0  0
  -26.0390  -38.4040   23.9080 H   0  0  0  0  0  0  0  0  0  0  0  0
  -30.7190  -17.2580   20.5450 C   0  0  0  0  0  3  0  0  0  0  0  0
  -30.6630  -14.7750   19.9630 C   0  0  0  0  0  0  0  0  0  0  0  0
  -30.3160  -12.5350   18.9400 C   0  0  0  0  0  2  0  0  0  0  0  0
  -29.3050  -12.6280   17.7780 C   0  0  0  0  0  2  0  0  0  0  0  0
  -27.8680  -12.4620   18.3060 C   0  0  0  0  0  2  0  0  0  0  0  0
  -27.5760  -13.3440   19.5490 C   0  0  0  0  0  3  0  0  0  0  0  0
  -28.7100  -13.2680   20.5960 C   0  0  0  0  0  2  0  0  0  0  0  0
  -29.9660  -13.5940   19.9090 N   0  0  0  0  0  0  0  0  0  0  0  0
  -31.8330  -14.8130   19.5820 O   0  0  0  0  0  0  0  0  0  0  0  0
  -30.0140  -15.9470   20.2700 N   0  0  0  0  0  0  0  0  0  0  0  0
  -29.0240  -15.9290   20.4470 H   0  0  0  0  0  0  0  0  0  0  0  0
  -25.2460  -13.9170   20.4540 C   0  0  0  0  0  0  0  0  0  0  0  0
  -24.2050  -13.1340   20.8720 C   0  0  0  0  0  0  0  0  0  0  0  0
  -24.6620  -11.7830   20.7790 C   0  0  0  0  0  0  0  0  0  0  0  0
  -26.2700  -13.0430   20.1280 N   0  0  0  0  0  0  0  0  0  0  0  0
  -25.9320  -11.7540   20.3880 N   0  0  0  0  0  0  0  0  0  0  0  0
  -23.9470  -10.5170   20.9840 C   0  0  0  0  0  0  0  0  0  0  0  0
  -24.4140   -9.5420   21.8940 C   0  0  0  0  0  3  0  0  0  0  0  0
  -23.6960   -8.3420   22.0870 C   0  0  0  0  0  3  0  0  0  0  0  0
  -22.4970   -8.1080   21.3710 C   0  0  0  0  0  0  0  0  0  0  0  0
  -22.0490   -9.0720   20.4510 C   0  0  0  0  0  3  0  0  0  0  0  0
  -22.7680  -10.2640   20.2560 C   0  0  0  0  0  3  0  0  0  0  0  0
  -21.7470   -6.9610   21.4770 O   0  0  0  0  0  0  0  0  0  0  0  0
  -21.7190   -6.2230   22.6330 C   0  0  0  0  0  0  0  0  0  0  0  0
  -21.2480   -6.7650   23.8500 C   0  0  0  0  0  3  0  0  0  0  0  0
  -21.1710   -5.9510   24.9980 C   0  0  0  0  0  3  0  0  0  0  0  0
  -21.5510   -4.5980   24.9300 C   0  0  0  0  0  0  0  0  0  0  0  0
  -22.0140   -4.0560   23.7180 C   0  0  0  0  0  3  0  0  0  0  0  0
  -22.0930   -4.8660   22.5720 C   0  0  0  0  0  0  0  0  0  0  0  0
  -22.5190   -4.3340   21.4020 F   0  0  0  0  0  0  0  0  0  0  0  0
  -21.4690   -3.8130   26.0310 F   0  0  0  0  0  0  0  0  0  0  0  0
  -22.8290  -13.6050   21.2430 C   0  0  0  0  0  0  0  0  0  0  0  0
  -22.1540  -12.8860   22.1310 N   0  0  0  0  0  0  0  0  0  0  0  0
  -22.3630  -14.6450   20.7800 O   0  0  0  0  0  0  0  0  0  0  0  0
  -22.5450  -12.0440   22.5270 H   0  0  0  0  0  0  0  0  0  0  0  0
  -21.2330  -13.1820   22.4240 H   0  0  0  0  0  0  0  0  0  0  0  0
  -25.3990  -15.2920   20.2990 N   0  0  0  0  0  0  0  0  0  0  0  0
  -24.6430  -15.9410   20.4880 H   0  0  0  0  0  0  0  0  0  0  0  0
  -26.2230  -15.7440   19.9250 H   0  0  0  0  0  0  0  0  0  0  0  0
  -31.0980  -17.2690   22.0420 C   0  0  0  0  0  3  0  0  0  0  0  0
  -30.0080  -17.2080   22.8090 F   0  0  0  0  0  0  0  0  0  0  0  0
  -31.7990  -18.3570   22.3620 F   0  0  0  0  0  0  0  0  0  0  0  0
  1  6  1  0
  2  1  2  0
  3  4  2  0
  3  2  1  0
  4  5  1  0
  5  6  2  0
  5 56  1  0
  7  3  1  0
  8  4  1  0
  9 11  2  0
 10  2  1  0
 10  9  1  0
 12 10  1  0
 14 13  1  0
 14  9  1  0
 14 15  1  0
 16 27  2  0
 17 15  1  0
 17 22  1  0
 18 26  1  0
 18 28  1  0
 19 25  1  0
 19 21  1  0
 20 26  1  0
 21 20  1  0
 22 21  2  0
 23 24  1  0
 23 17  2  0
 24 19  2  0
 25 18  1  0
 26 16  1  0
 28 30  2  0
 29 28  1  0
 31 29  1  0
 32 41  2  0
 32 37  1  0
 33 29  1  0
 33 37  1  0
 34 33  1  0
 35 36  1  0
 35 34  1  0
 36 32  1  0
 37 38  2  0
 38 39  1  0
 40 39  2  0
 41 40  1  0
 42 16  1  0
 42 47  1  0
 42 43  1  0
 43 46  1  1
 43 44  1  0
 45 43  1  0
 47 50  1  0
 48 52  1  0
 48 47  1  0
 49 48  2  0
 52 51  1  0
 54 52  1  0
 54 55  1  0
 54 53  1  0
 56 95  1  0
 57 65  1  0
 58 63  1  0
 59 60  1  0
 59 58  1  0
 61 60  1  0
 61 70  1  0
 61 62  1  0
 63 57  1  0
 63 62  1  0
 64 57  2  0
 65 66  1  0
 65 56  1  0
 67 68  2  0
 68 87  1  0
 69 68  1  0
 69 72  1  0
 70 71  1  0
 70 67  1  0
 71 69  2  0
 72 73  1  0
 73 74  2  0
 75 78  1  0
 75 74  1  0
 76 75  2  0
 77 76  1  0
 77 72  2  0
 78 79  1  0
 79 80  1  0
 80 81  2  0
 82 81  1  0
 82 86  1  0
 83 82  2  0
 84 79  2  0
 84 83  1  0
 85 84  1  0
 87 88  1  0
 88 91  1  0
 88 90  1  0
 89 87  2  0
 92 67  1  0
 92 93  1  0
 94 92  1  0
 95 97  1  0
 95 96  1  0
M  ISO  4  14 101  15 101  57 100  65 100
M  END
>  <TORSDO>  (74) 
F 20

>  <SCORE>  (74) 
-13.928

>  <name>  (74) 
73

>  <ligand_id>  (74) 
73

>  <original_smiles>  (74) 
[H]c1nc(C([H])(N([H])C(=O)N2C([H])([H])C([H])([H])C([H])([H])C([H])(n3nc(-c4c([H])c([H])c(Oc5c([H])c([H])c(F)c([H])c5F)c([H])c4[H])c(C(=O)N([H])[H])c3N([H])[H])C2([H])[H])C([H])(F)F)c(F)c(F)c1N([H])C(=O)C([H])(Oc1c([H])c([H])c2c(c1[H])C([H])([H])N(C(=O)C([H])(N([H])C(=O)C([H])(N([H])C([H])([H])[H])C([H])([H])[H])C(C([H])([H])[H])(C([H])([H])[H])C([H])([H])[H])C([H])(C(=O)N([H])C1([H])c3c([H])c([H])c([H])c([H])c3C([H])([H])C([H])([H])C1([H])[H])C2([H])[H])C([H])([H])[H]

>  <smiles>  (74) 
[H]c1nc(C([H])(N([H])C(=O)N2C([H])([H])C([H])([H])C([H])([H])C([H])(n3nc(-c4c([H])c([H])c(Oc5c([H])c([H])c(F)c([H])c5F)c([H])c4[H])c(C(=O)N([H])[H])c3N([H])[H])C2([H])[H])C([H])(F)F)c(F)c(F)c1N([H])C(=O)C([H])(Oc1c([H])c([H])c2c(c1[H])C([H])([H])N(C(=O)C([H])(N([H])C(=O)C([H])(N([H])C([H])([H])[H])C([H])([H])[H])C(C([H])([H])[H])(C([H])([H])[H])C([H])([H])[H])C([H])(C(=O)N([H])C1([H])c3c([H])c([H])c([H])c([H])c3C([H])([H])C([H])([H])C1([H])[H])C2([H])[H])C([H])([H])[H]

$$$$
74:0:0
     RDKit          3D

 95103  0  0  1  0  0  0  0  0999 V2000
  -28.6540  -21.7710   19.8220 C   0  0  0  0  0  3  0  0  0  0  0  0
  -30.7970  -18.4820   20.6250 C   0  0  0  0  0  0  0  0  0  0  0  0
  -29.7350  -17.5850   20.5330 C   0  0  0  0  0  0  0  0  0  0  0  0
  -29.2330  -20.3040   20.3490 C   0  0  0  0  0  0  0  0  0  0  0  0
  -30.5220  -19.8990   20.5130 N   0  0  0  0  0  0  0  0  0  0  0  0
  -28.3030  -18.7080   20.3470 S   0  0  0  0  0  0  0  0  0  0  0  0
  -30.5020  -15.0130   20.3700 C   0  0  0  0  0  0  0  0  0  0  0  0
  -30.4120  -12.6840   19.3530 C   0  0  0  0  0  2  0  0  0  0  0  0
  -29.4570  -12.6800   18.1350 C   0  0  0  0  0  2  0  0  0  0  0  0
  -27.9970  -12.4510   18.5790 C   0  0  0  0  0  2  0  0  0  0  0  0
  -27.6080  -13.3220   19.8010 C   0  0  0  0  0  3  0  0  0  0  0  0
  -28.6820  -13.2860   20.9090 C   0  0  0  0  0  2  0  0  0  0  0  0
  -29.9410  -13.7370   20.2980 N   0  0  0  0  0  0  0  0  0  0  0  0
  -31.6970  -15.1220   20.0720 O   0  0  0  0  0  0  0  0  0  0  0  0
  -29.6530  -16.1390   20.5750 N   0  0  0  0  0  0  0  0  0  0  0  0
  -28.7110  -15.8260   20.7440 H   0  0  0  0  0  0  0  0  0  0  0  0
  -25.2310  -13.8670   20.5770 C   0  0  0  0  0  0  0  0  0  0  0  0
  -24.1780  -13.0760   20.9450 C   0  0  0  0  0  0  0  0  0  0  0  0
  -24.6520  -11.7310   20.8830 C   0  0  0  0  0  0  0  0  0  0  0  0
  -26.2780  -13.0030   20.3070 N   0  0  0  0  0  0  0  0  0  0  0  0
  -25.9400  -11.7110   20.5570 N   0  0  0  0  0  0  0  0  0  0  0  0
  -23.9370  -10.4590   21.0570 C   0  0  0  0  0  0  0  0  0  0  0  0
  -24.3600   -9.4960   21.9980 C   0  0  0  0  0  3  0  0  0  0  0  0
  -23.6440   -8.2900   22.1610 C   0  0  0  0  0  3  0  0  0  0  0  0
  -22.4890   -8.0410   21.3830 C   0  0  0  0  0  0  0  0  0  0  0  0
  -22.0830   -8.9930   20.4320 C   0  0  0  0  0  3  0  0  0  0  0  0
  -22.8010  -10.1900   20.2670 C   0  0  0  0  0  3  0  0  0  0  0  0
  -21.7440   -6.8870   21.4550 O   0  0  0  0  0  0  0  0  0  0  0  0
  -21.6450   -6.1660   22.6180 C   0  0  0  0  0  0  0  0  0  0  0  0
  -21.0670   -6.7110   23.7870 C   0  0  0  0  0  3  0  0  0  0  0  0
  -20.9210   -5.9130   24.9380 C   0  0  0  0  0  3  0  0  0  0  0  0
  -21.3410   -4.5700   24.9230 C   0  0  0  0  0  0  0  0  0  0  0  0
  -21.9110   -4.0230   23.7590 C   0  0  0  0  0  3  0  0  0  0  0  0
  -22.0600   -4.8200   22.6100 C   0  0  0  0  0  0  0  0  0  0  0  0
  -22.5890   -4.2830   21.4850 F   0  0  0  0  0  0  0  0  0  0  0  0
  -21.1940   -3.8000   26.0260 F   0  0  0  0  0  0  0  0  0  0  0  0
  -22.7810  -13.5380   21.2360 C   0  0  0  0  0  0  0  0  0  0  0  0
  -22.0620  -12.8180   22.0910 N   0  0  0  0  0  0  0  0  0  0  0  0
  -22.3330  -14.5740   20.7420 O   0  0  0  0  0  0  0  0  0  0  0  0
  -22.4360  -11.9810   22.5120 H   0  0  0  0  0  0  0  0  0  0  0  0
  -21.1230  -13.1090   22.3270 H   0  0  0  0  0  0  0  0  0  0  0  0
  -25.3780  -15.2430   20.4210 N   0  0  0  0  0  0  0  0  0  0  0  0
  -24.5930  -15.8730   20.5450 H   0  0  0  0  0  0  0  0  0  0  0  0
  -26.1870  -15.6970   20.0220 H   0  0  0  0  0  0  0  0  0  0  0  0
  -32.1120  -18.0710   20.7990 N   0  0  0  0  0  0  0  0  0  0  0  0
  -32.3020  -17.0800   20.6450 H   0  0  0  0  0  0  0  0  0  0  0  0
  -32.8550  -18.6940   20.5050 H   0  0  0  0  0  0  0  0  0  0  0  0
  -28.8700  -23.2840   20.5020 C   0  0  0  0  0  0  0  0  0  0  0  0
  -29.7170  -23.4190   21.3920 O   0  0  0  0  0  0  0  0  0  0  0  0
  -27.9700  -24.6220   20.0500 C   0  0  0  0  0  2  0  0  0  0  0  0
  -28.2770  -26.1230   20.4030 O   0  0  0  0  0  0  0  0  0  0  0  0
  -24.6170  -31.8870   23.2560 C   0  0  0  0  0  0  0  0  0  0  0  0
  -27.2470  -27.1390   20.2950 C   0  0  0  0  0  0  0  0  0  0  0  0
  -23.4510  -30.4870   21.5970 C   0  0  0  0  0  3  0  0  0  0  0  0
  -24.9270  -28.9070   20.2040 C   0  0  0  0  0  0  0  0  0  0  0  0
  -26.0080  -30.7440   21.4860 C   0  0  0  0  0  2  0  0  0  0  0  0
  -26.0940  -29.3470   20.8410 C   0  0  0  0  0  0  0  0  0  0  0  0
  -27.2540  -28.4780   20.8730 C   0  0  0  0  0  3  0  0  0  0  0  0
  -26.0560  -26.8160   19.6050 C   0  0  0  0  0  3  0  0  0  0  0  0
  -24.9230  -27.6570   19.5710 C   0  0  0  0  0  3  0  0  0  0  0  0
  -23.7010  -29.8070   20.2230 C   0  0  0  0  0  2  0  0  0  0  0  0
  -24.7110  -31.0620   22.1680 N   0  0  0  0  0  0  0  0  0  0  0  0
  -23.5210  -32.1760   23.7600 O   0  0  0  0  0  0  0  0  0  0  0  0
  -22.7510  -29.4840   22.5480 C   0  0  0  0  0  0  0  0  0  0  0  0
  -21.4220  -29.3280   22.4100 N   0  0  0  0  0  0  0  0  0  0  0  0
  -23.4070  -28.8470   23.3780 O   0  0  0  0  0  0  0  0  0  0  0  0
  -20.9500  -29.8940   21.7200 H   0  0  0  0  0  0  0  0  0  0  0  0
  -18.0150  -28.1970   22.9120 C   0  0  0  0  0  0  0  0  0  0  0  0
  -20.5810  -28.3970   23.1690 C   0  0  0  0  0  3  0  0  0  0  0  0
  -20.6460  -26.9730   22.5720 C   0  0  0  0  0  2  0  0  0  0  0  0
  -19.5320  -26.6920   21.5590 C   0  0  0  0  0  2  0  0  0  0  0  0
  -18.1580  -26.8560   22.2120 C   0  0  0  0  0  2  0  0  0  0  0  0
  -19.1520  -28.9280   23.3480 C   0  0  0  0  0  0  0  0  0  0  0  0
  -18.9630  -30.1830   23.9650 C   0  0  0  0  0  3  0  0  0  0  0  0
  -17.6700  -30.7080   24.1480 C   0  0  0  0  0  3  0  0  0  0  0  0
  -16.5470  -29.9740   23.7270 C   0  0  0  0  0  3  0  0  0  0  0  0
  -16.7210  -28.7200   23.1150 C   0  0  0  0  0  3  0  0  0  0  0  0
  -25.8830  -32.5250   23.9070 C   0  0  0  0  0  3  0  0  0  0  0  0
  -25.5700  -33.9300   24.2140 N   0  0  0  0  0  0  0  0  0  0  0  0
  -25.9150  -34.9750   23.4500 C   0  0  0  0  0  0  0  0  0  0  0  0
  -26.5990  -34.8580   22.4300 O   0  0  0  0  0  0  0  0  0  0  0  0
  -24.9650  -34.0950   25.0060 H   0  0  0  0  0  0  0  0  0  0  0  0
  -24.2180  -36.7870   23.0360 C   0  0  0  0  0  1  0  0  0  0  0  0
  -25.4290  -36.3720   23.8870 C   0  0  0  0  0  3  0  0  0  0  0  0
  -27.5350  -37.2550   24.7930 C   0  0  0  0  0  1  0  0  0  0  0  0
  -26.4750  -37.4150   23.8000 N   0  0  0  0  0  0  0  0  0  0  0  0
  -26.0710  -38.3410   23.9150 H   0  0  0  0  0  0  0  0  0  0  0  0
  -26.3550  -31.7700   25.2100 C   0  0  1  0  0  0  0  0  0  0  0  0
  -25.2270  -31.5490   26.2460 C   0  0  0  0  0  1  0  0  0  0  0  0
  -26.9470  -30.3850   24.8620 C   0  0  0  0  0  1  0  0  0  0  0  0
  -27.4850  -32.5710   25.8990 C   0  0  0  0  0  1  0  0  0  0  0  0
  -28.9810  -21.8870   18.3120 C   0  0  0  0  0  2  0  0  0  0  0  0
  -28.6230  -20.6590   17.4550 C   0  0  0  0  0  3  0  0  0  0  0  0
  -29.0990  -20.8230   16.2210 F   0  0  0  0  0  0  0  0  0  0  0  0
  -26.8570  -20.4430   17.3540 Cl  0  0  0  0  0  0  0  0  0  0  0  0
  1 92  1  0
  1  4  1  0
  1 48  1  0
  2 45  1  0
  3 15  1  0
  3  2  2  0
  4  5  2  0
  5  2  1  0
  6  4  1  0
  6  3  1  0
  7 15  1  0
  8 13  1  0
  9 10  1  0
  9  8  1  0
 11 10  1  0
 11 20  1  0
 11 12  1  0
 13  7  1  0
 13 12  1  0
 14  7  2  0
 15 16  1  0
 17 18  2  0
 18 37  1  0
 19 18  1  0
 19 22  1  0
 20 21  1  0
 20 17  1  0
 21 19  2  0
 22 23  1  0
 23 24  2  0
 25 28  1  0
 25 24  1  0
 26 25  2  0
 27 26  1  0
 27 22  2  0
 28 29  1  0
 29 30  1  0
 30 31  2  0
 32 31  1  0
 32 36  1  0
 33 32  2  0
 34 29  2  0
 34 33  1  0
 35 34  1  0
 37 38  1  0
 38 41  1  0
 38 40  1  0
 39 37  2  0
 42 43  1  0
 42 17  1  0
 44 42  1  0
 46 45  1  0
 47 45  1  0
 48 49  2  0
 50 51  1  0
 50 48  1  0
 52 63  2  0
 53 51  1  0
 53 58  1  0
 54 62  1  0
 54 64  1  0
 55 61  1  0
 55 57  1  0
 56 62  1  0
 57 58  2  0
 57 56  1  0
 59 53  2  0
 60 59  1  0
 60 55  2  0
 61 54  1  0
 62 52  1  0
 64 66  2  0
 65 64  1  0
 67 65  1  0
 68 77  2  0
 68 73  1  0
 69 65  1  0
 69 73  1  0
 70 69  1  0
 71 72  1  0
 71 70  1  0
 72 68  1  0
 73 74  2  0
 74 75  1  0
 76 75  2  0
 77 76  1  0
 78 52  1  0
 78 79  1  0
 78 88  1  0
 79 82  1  0
 80 84  1  0
 80 79  1  0
 81 80  2  0
 84 83  1  0
 86 84  1  0
 86 87  1  0
 86 85  1  0
 88 91  1  1
 88 89  1  0
 90 88  1  0
 93 94  1  0
 93 92  1  0
 95 93  1  0
M  ISO  4   7 100  15 100  50 101  51 101
M  END
>  <TORSDO>  (75) 
F 22

>  <SCORE>  (75) 
-13.682

>  <name>  (75) 
74

>  <ligand_id>  (75) 
74

>  <original_smiles>  (75) 
[H]c1c([H])c([H])c2c(c1[H])C([H])([H])C([H])([H])C([H])([H])C2([H])N([H])C(=O)C1([H])N(C(=O)C([H])(N([H])C(=O)C([H])(N([H])C([H])([H])[H])C([H])([H])[H])C(C([H])([H])[H])(C([H])([H])[H])C([H])([H])[H])C([H])([H])c2c([H])c(OC([H])([H])C(=O)C([H])(c3nc(N([H])[H])c(N([H])C(=O)N4C([H])([H])C([H])([H])C([H])([H])C([H])(n5nc(-c6c([H])c([H])c(Oc7c([H])c([H])c(F)c([H])c7F)c([H])c6[H])c(C(=O)N([H])[H])c5N([H])[H])C4([H])[H])s3)C([H])([H])C([H])(F)Cl)c([H])c([H])c2C1([H])[H]

>  <smiles>  (75) 
[H]c1c([H])c([H])c2c(c1[H])C([H])([H])C([H])([H])C([H])([H])C2([H])N([H])C(=O)C1([H])N(C(=O)C([H])(N([H])C(=O)C([H])(N([H])C([H])([H])[H])C([H])([H])[H])C(C([H])([H])[H])(C([H])([H])[H])C([H])([H])[H])C([H])([H])c2c([H])c(OC([H])([H])C(=O)C([H])(c3nc(N([H])[H])c(N([H])C(=O)N4C([H])([H])C([H])([H])C([H])([H])C([H])(n5nc(-c6c([H])c([H])c(Oc7c([H])c([H])c(F)c([H])c7F)c([H])c6[H])c(C(=O)N([H])[H])c5N([H])[H])C4([H])[H])s3)C([H])([H])C([H])(F)Cl)c([H])c([H])c2C1([H])[H]

$$$$
75:0:0
     RDKit          3D

 94102  0  0  1  0  0  0  0  0999 V2000
  -28.2030  -22.7530   20.4960 C   0  0  0  0  0  3  0  0  0  0  0  0
  -27.2580  -18.6030   20.1740 C   0  0  0  0  0  2  0  0  0  0  0  0
  -29.3960  -18.0950   19.9200 C   0  0  0  0  0  0  0  0  0  0  0  0
  -28.7550  -20.2340   20.1470 C   0  0  0  0  0  0  0  0  0  0  0  0
  -28.1510  -17.6350   19.9890 N   0  0  0  0  0  0  0  0  0  0  0  0
  -27.4820  -19.9100   20.2810 N   0  0  0  0  0  0  0  0  0  0  0  0
  -29.7650  -19.3830   19.9720 N   0  0  0  0  0  2  0  0  0  0  0  0
  -29.0790  -21.5900   20.1890 N   0  0  0  0  0  0  0  0  0  0  0  0
  -30.0640  -21.8080   20.0980 H   0  0  0  0  0  0  0  0  0  0  0  0
  -30.5070  -17.0330   19.7950 C   0  0  0  0  0  2  0  0  0  0  0  0
  -30.8410  -14.5550   19.8290 C   0  0  0  0  0  0  0  0  0  0  0  0
  -30.5450  -12.2710   18.9400 C   0  0  0  0  0  2  0  0  0  0  0  0
  -29.5610  -12.3540   17.7540 C   0  0  0  0  0  2  0  0  0  0  0  0
  -28.1080  -12.2310   18.2570 C   0  0  0  0  0  2  0  0  0  0  0  0
  -27.8070  -13.1800   19.4490 C   0  0  0  0  0  3  0  0  0  0  0  0
  -28.9080  -13.0960   20.5280 C   0  0  0  0  0  2  0  0  0  0  0  0
  -30.1960  -13.3580   19.8710 N   0  0  0  0  0  0  0  0  0  0  0  0
  -31.9670  -14.6760   19.3370 O   0  0  0  0  0  0  0  0  0  0  0  0
  -30.1190  -15.6500   20.1470 N   0  0  0  0  0  0  0  0  0  0  0  0
  -29.1900  -15.5580   20.5320 H   0  0  0  0  0  0  0  0  0  0  0  0
  -25.4870  -13.8400   20.3300 C   0  0  0  0  0  0  0  0  0  0  0  0
  -24.4210  -13.0940   20.7530 C   0  0  0  0  0  0  0  0  0  0  0  0
  -24.8360  -11.7310   20.6680 C   0  0  0  0  0  0  0  0  0  0  0  0
  -26.4840  -12.9330   20.0120 N   0  0  0  0  0  0  0  0  0  0  0  0
  -26.1020  -11.6560   20.2750 N   0  0  0  0  0  0  0  0  0  0  0  0
  -24.0850  -10.4880   20.8830 C   0  0  0  0  0  0  0  0  0  0  0  0
  -24.4910   -9.5370   21.8470 C   0  0  0  0  0  3  0  0  0  0  0  0
  -23.7420   -8.3580   22.0500 C   0  0  0  0  0  3  0  0  0  0  0  0
  -22.5720   -8.1200   21.2900 C   0  0  0  0  0  0  0  0  0  0  0  0
  -22.1850   -9.0580   20.3160 C   0  0  0  0  0  3  0  0  0  0  0  0
  -22.9340  -10.2290   20.1110 C   0  0  0  0  0  3  0  0  0  0  0  0
  -21.7960   -6.9920   21.4020 O   0  0  0  0  0  0  0  0  0  0  0  0
  -21.6600   -6.3270   22.5940 C   0  0  0  0  0  0  0  0  0  0  0  0
  -21.1580   -6.9640   23.7500 C   0  0  0  0  0  3  0  0  0  0  0  0
  -20.9690   -6.2250   24.9360 C   0  0  0  0  0  3  0  0  0  0  0  0
  -21.2720   -4.8500   24.9640 C   0  0  0  0  0  0  0  0  0  0  0  0
  -21.7640   -4.2120   23.8120 C   0  0  0  0  0  3  0  0  0  0  0  0
  -21.9560   -4.9490   22.6300 C   0  0  0  0  0  0  0  0  0  0  0  0
  -22.4120   -4.3250   21.5170 F   0  0  0  0  0  0  0  0  0  0  0  0
  -21.0830   -4.1380   26.1000 F   0  0  0  0  0  0  0  0  0  0  0  0
  -23.0610  -13.6070   21.1260 C   0  0  0  0  0  0  0  0  0  0  0  0
  -22.3780  -12.9240   22.0380 N   0  0  0  0  0  0  0  0  0  0  0  0
  -22.6160  -14.6470   20.6450 O   0  0  0  0  0  0  0  0  0  0  0  0
  -22.7510  -12.0760   22.4420 H   0  0  0  0  0  0  0  0  0  0  0  0
  -21.4700  -13.2500   22.3350 H   0  0  0  0  0  0  0  0  0  0  0  0
  -25.6910  -15.2090   20.1740 N   0  0  0  0  0  0  0  0  0  0  0  0
  -24.9660  -15.8890   20.3720 H   0  0  0  0  0  0  0  0  0  0  0  0
  -26.5620  -15.6240   19.8660 H   0  0  0  0  0  0  0  0  0  0  0  0
  -28.9310  -24.1330   20.3230 C   0  0  0  0  0  0  0  0  0  0  0  0
  -29.9890  -24.2230   19.6890 O   0  0  0  0  0  0  0  0  0  0  0  0
  -28.3090  -25.3950   20.9960 C   0  0  0  0  0  2  0  0  0  0  0  0
  -28.5010  -26.6370   20.2610 O   0  0  0  0  0  0  0  0  0  0  0  0
  -24.4970  -31.7700   23.2120 C   0  0  0  0  0  0  0  0  0  0  0  0
  -27.3560  -27.4100   20.1920 C   0  0  0  0  0  0  0  0  0  0  0  0
  -23.3880  -30.3580   21.5120 C   0  0  0  0  0  3  0  0  0  0  0  0
  -24.9330  -28.8770   20.1190 C   0  0  0  0  0  0  0  0  0  0  0  0
  -25.9110  -30.7840   21.4080 C   0  0  0  0  0  2  0  0  0  0  0  0
  -26.0580  -29.4230   20.7520 C   0  0  0  0  0  0  0  0  0  0  0  0
  -27.2790  -28.7000   20.7770 C   0  0  0  0  0  3  0  0  0  0  0  0
  -26.2170  -26.8910   19.5420 C   0  0  0  0  0  3  0  0  0  0  0  0
  -25.0100  -27.6140   19.5070 C   0  0  0  0  0  3  0  0  0  0  0  0
  -23.6640  -29.6990   20.1340 C   0  0  0  0  0  2  0  0  0  0  0  0
  -24.6140  -30.9870   22.1020 N   0  0  0  0  0  0  0  0  0  0  0  0
  -23.3910  -32.0070   23.7180 O   0  0  0  0  0  0  0  0  0  0  0  0
  -22.7290  -29.3110   22.4390 C   0  0  0  0  0  0  0  0  0  0  0  0
  -21.4090  -29.1180   22.2840 N   0  0  0  0  0  0  0  0  0  0  0  0
  -23.4030  -28.6760   23.2530 O   0  0  0  0  0  0  0  0  0  0  0  0
  -20.9250  -29.6790   21.5980 H   0  0  0  0  0  0  0  0  0  0  0  0
  -18.0360  -27.8890   22.7100 C   0  0  0  0  0  0  0  0  0  0  0  0
  -20.5900  -28.1500   23.0120 C   0  0  0  0  0  3  0  0  0  0  0  0
  -20.7030  -26.7410   22.3860 C   0  0  0  0  0  2  0  0  0  0  0  0
  -19.6100  -26.4470   21.3570 C   0  0  0  0  0  2  0  0  0  0  0  0
  -18.2240  -26.5600   21.9980 C   0  0  0  0  0  2  0  0  0  0  0  0
  -19.1470  -28.6420   23.1740 C   0  0  0  0  0  0  0  0  0  0  0  0
  -18.9180  -29.8860   23.8000 C   0  0  0  0  0  3  0  0  0  0  0  0
  -17.6100  -30.3780   23.9690 C   0  0  0  0  0  3  0  0  0  0  0  0
  -16.5120  -29.6210   23.5210 C   0  0  0  0  0  3  0  0  0  0  0  0
  -16.7260  -28.3780   22.8970 C   0  0  0  0  0  3  0  0  0  0  0  0
  -25.7410  -32.4260   23.8850 C   0  0  0  0  0  3  0  0  0  0  0  0
  -25.3890  -33.8160   24.2040 N   0  0  0  0  0  0  0  0  0  0  0  0
  -25.7220  -34.8760   23.4550 C   0  0  0  0  0  0  0  0  0  0  0  0
  -26.4270  -34.7880   22.4470 O   0  0  0  0  0  0  0  0  0  0  0  0
  -24.7600  -33.9540   24.9830 H   0  0  0  0  0  0  0  0  0  0  0  0
  -23.9610  -36.6240   23.0480 C   0  0  0  0  0  1  0  0  0  0  0  0
  -25.1870  -36.2520   23.8960 C   0  0  0  0  0  3  0  0  0  0  0  0
  -27.2750  -37.1930   24.7830 C   0  0  0  0  0  1  0  0  0  0  0  0
  -26.1970  -37.3300   23.8070 N   0  0  0  0  0  0  0  0  0  0  0  0
  -25.7660  -38.2420   23.9380 H   0  0  0  0  0  0  0  0  0  0  0  0
  -26.2260  -31.6620   25.1780 C   0  0  1  0  0  0  0  0  0  0  0  0
  -25.0970  -31.3860   26.1980 C   0  0  0  0  0  1  0  0  0  0  0  0
  -26.8640  -30.3050   24.8020 C   0  0  0  0  0  1  0  0  0  0  0  0
  -27.3260  -32.4840   25.8910 C   0  0  0  0  0  1  0  0  0  0  0  0
  -27.0860  -22.6690   18.1430 C   0  0  0  0  0  1  0  0  0  0  0  0
  -26.8880  -22.7510   19.6670 C   0  0  0  0  0  2  0  0  0  0  0  0
  1 94  1  0
  2  6  1  0
  3  7  1  0
  3  5  2  0
  4  8  1  0
  4  6  2  0
  5  2  1  0
  7  4  1  0
  8  1  1  0
  9  8  1  0
 10  3  1  0
 10 19  1  0
 11 17  1  0
 11 19  1  0
 12 17  1  0
 13 14  1  0
 13 12  1  0
 15 14  1  0
 15 24  1  0
 15 16  1  0
 17 16  1  0
 18 11  2  0
 19 20  1  0
 21 22  2  0
 22 41  1  0
 23 22  1  0
 23 26  1  0
 24 25  1  0
 24 21  1  0
 25 23  2  0
 26 27  1  0
 27 28  2  0
 29 32  1  0
 29 28  1  0
 30 29  2  0
 31 30  1  0
 31 26  2  0
 32 33  1  0
 33 38  2  0
 33 34  1  0
 34 35  2  0
 35 36  1  0
 36 40  1  0
 37 36  2  0
 38 37  1  0
 39 38  1  0
 41 42  1  0
 42 45  1  0
 42 44  1  0
 43 41  2  0
 46 21  1  0
 46 47  1  0
 48 46  1  0
 49  1  1  0
 49 51  1  0
 50 49  2  0
 52 51  1  0
 53 64  2  0
 54 52  1  0
 54 59  1  0
 55 63  1  0
 55 65  1  0
 56 62  1  0
 56 58  1  0
 57 63  1  0
 58 59  2  0
 58 57  1  0
 60 54  2  0
 61 60  1  0
 61 56  2  0
 62 55  1  0
 63 53  1  0
 65 67  2  0
 66 65  1  0
 68 66  1  0
 69 78  2  0
 69 74  1  0
 70 66  1  0
 70 74  1  0
 71 70  1  0
 72 73  1  0
 72 71  1  0
 73 69  1  0
 74 75  2  0
 75 76  1  0
 77 76  2  0
 78 77  1  0
 79 53  1  0
 79 80  1  0
 79 89  1  0
 80 83  1  0
 81 85  1  0
 81 80  1  0
 82 81  2  0
 85 84  1  0
 87 85  1  0
 87 88  1  0
 87 86  1  0
 89 92  1  1
 89 90  1  0
 91 89  1  0
 93 94  1  0
M  ISO  4  11 100  19 100  51 101  52 101
M  END
>  <TORSDO>  (76) 
F 21

>  <SCORE>  (76) 
-13.087

>  <name>  (76) 
75

>  <ligand_id>  (76) 
75

>  <original_smiles>  (76) 
[H]c1nc(N([H])C([H])(C(=O)C([H])([H])Oc2c([H])c([H])c3c(c2[H])C([H])([H])N(C(=O)C([H])(N([H])C(=O)C([H])(N([H])C([H])([H])[H])C([H])([H])[H])C(C([H])([H])[H])(C([H])([H])[H])C([H])([H])[H])C([H])(C(=O)N([H])C2([H])c4c([H])c([H])c([H])c([H])c4C([H])([H])C([H])([H])C2([H])[H])C3([H])[H])C([H])([H])C([H])([H])[H])nc(C([H])([H])N([H])C(=O)N2C([H])([H])C([H])([H])C([H])([H])C([H])(n3nc(-c4c([H])c([H])c(Oc5c([H])c([H])c(F)c([H])c5F)c([H])c4[H])c(C(=O)N([H])[H])c3N([H])[H])C2([H])[H])n1

>  <smiles>  (76) 
[H]c1nc(N([H])C([H])(C(=O)C([H])([H])Oc2c([H])c([H])c3c(c2[H])C([H])([H])N(C(=O)C([H])(N([H])C(=O)C([H])(N([H])C([H])([H])[H])C([H])([H])[H])C(C([H])([H])[H])(C([H])([H])[H])C([H])([H])[H])C([H])(C(=O)N([H])C2([H])c4c([H])c([H])c([H])c([H])c4C([H])([H])C([H])([H])C2([H])[H])C3([H])[H])C([H])([H])C([H])([H])[H])nc(C([H])([H])N([H])C(=O)N2C([H])([H])C([H])([H])C([H])([H])C([H])(n3nc(-c4c([H])c([H])c(Oc5c([H])c([H])c(F)c([H])c5F)c([H])c4[H])c(C(=O)N([H])[H])c3N([H])[H])C2([H])[H])n1

$$$$
76:0:0
     RDKit          3D

 94102  0  0  1  0  0  0  0  0999 V2000
  -30.4550  -17.9940   21.5480 C   0  0  0  0  0  0  0  0  0  0  0  0
  -30.0910  -17.5500   20.2800 C   0  0  0  0  0  0  0  0  0  0  0  0
  -29.6260  -19.8910   20.0920 C   0  0  0  0  0  0  0  0  0  0  0  0
  -28.9510  -22.4180   20.0370 C   0  0  0  0  0  0  0  0  0  0  0  0
  -29.5950  -18.6550   19.4860 N   0  0  0  0  0  0  0  0  0  0  0  0
  -29.1560  -21.1590   19.4850 N   0  0  0  0  0  0  0  0  0  0  0  0
  -29.0030  -22.5860   21.2590 O   0  0  0  0  0  0  0  0  0  0  0  0
  -30.3270  -19.7540   21.7020 S   0  0  0  0  0  0  0  0  0  0  0  0
  -28.9590  -21.1110   18.4950 H   0  0  0  0  0  0  0  0  0  0  0  0
  -30.8110  -15.0260   19.9520 C   0  0  0  0  0  0  0  0  0  0  0  0
  -30.6560  -12.6930   19.0440 C   0  0  0  0  0  2  0  0  0  0  0  0
  -29.6640  -12.6600   17.8620 C   0  0  0  0  0  2  0  0  0  0  0  0
  -28.2130  -12.4930   18.3590 C   0  0  0  0  0  2  0  0  0  0  0  0
  -27.8610  -13.4460   19.5320 C   0  0  0  0  0  3  0  0  0  0  0  0
  -28.9620  -13.4340   20.6130 C   0  0  0  0  0  2  0  0  0  0  0  0
  -30.2210  -13.7830   19.9430 N   0  0  0  0  0  0  0  0  0  0  0  0
  -32.0090  -15.1460   19.6800 O   0  0  0  0  0  0  0  0  0  0  0  0
  -29.9500  -16.1160   19.9270 N   0  0  0  0  0  0  0  0  0  0  0  0
  -28.9990  -15.8490   19.7220 H   0  0  0  0  0  0  0  0  0  0  0  0
  -25.5190  -14.0500   20.3930 C   0  0  0  0  0  0  0  0  0  0  0  0
  -24.4630  -13.2790   20.7940 C   0  0  0  0  0  0  0  0  0  0  0  0
  -24.9090  -11.9240   20.7150 C   0  0  0  0  0  0  0  0  0  0  0  0
  -26.5410  -13.1650   20.0900 N   0  0  0  0  0  0  0  0  0  0  0  0
  -26.1840  -11.8810   20.3480 N   0  0  0  0  0  0  0  0  0  0  0  0
  -24.1760  -10.6670   20.9090 C   0  0  0  0  0  0  0  0  0  0  0  0
  -24.6070   -9.6960   21.8400 C   0  0  0  0  0  3  0  0  0  0  0  0
  -23.8720   -8.5040   22.0220 C   0  0  0  0  0  3  0  0  0  0  0  0
  -22.6930   -8.2750   21.2720 C   0  0  0  0  0  0  0  0  0  0  0  0
  -22.2830   -9.2340   20.3300 C   0  0  0  0  0  3  0  0  0  0  0  0
  -23.0180  -10.4170   20.1460 C   0  0  0  0  0  3  0  0  0  0  0  0
  -21.9310   -7.1360   21.3640 O   0  0  0  0  0  0  0  0  0  0  0  0
  -21.8410   -6.4220   22.5330 C   0  0  0  0  0  0  0  0  0  0  0  0
  -21.3490   -7.0000   23.7240 C   0  0  0  0  0  3  0  0  0  0  0  0
  -21.2070   -6.2130   24.8840 C   0  0  0  0  0  3  0  0  0  0  0  0
  -21.5490   -4.8480   24.8540 C   0  0  0  0  0  0  0  0  0  0  0  0
  -22.0340   -4.2690   23.6680 C   0  0  0  0  0  3  0  0  0  0  0  0
  -22.1770   -5.0530   22.5110 C   0  0  0  0  0  0  0  0  0  0  0  0
  -22.6250   -4.4850   21.3650 F   0  0  0  0  0  0  0  0  0  0  0  0
  -21.4070   -4.0880   25.9650 F   0  0  0  0  0  0  0  0  0  0  0  0
  -23.0840  -13.7650   21.1370 C   0  0  0  0  0  0  0  0  0  0  0  0
  -22.3910  -13.0750   22.0340 N   0  0  0  0  0  0  0  0  0  0  0  0
  -22.6320  -14.7980   20.6440 O   0  0  0  0  0  0  0  0  0  0  0  0
  -22.7620  -12.2350   22.4520 H   0  0  0  0  0  0  0  0  0  0  0  0
  -21.4750  -13.3970   22.3120 H   0  0  0  0  0  0  0  0  0  0  0  0
  -25.6850  -15.4240   20.2360 N   0  0  0  0  0  0  0  0  0  0  0  0
  -24.9080  -16.0660   20.3600 H   0  0  0  0  0  0  0  0  0  0  0  0
  -26.5140  -15.8780   19.8750 H   0  0  0  0  0  0  0  0  0  0  0  0
  -30.8310  -17.2590   22.7680 C   0  0  0  0  0  0  0  0  0  0  0  0
  -31.0570  -18.0020   24.0860 C   0  0  0  0  0  1  0  0  0  0  0  0
  -30.9450  -16.0300   22.7780 O   0  0  0  0  0  0  0  0  0  0  0  0
  -28.6390  -23.6950   19.1190 C   0  0  0  0  0  3  0  0  0  0  0  0
  -27.9140  -23.2500   18.0820 F   0  0  0  0  0  0  0  0  0  0  0  0
  -27.9580  -25.0830   19.6870 C   0  0  0  0  0  2  0  0  0  0  0  0
  -28.1530  -26.5790   19.6420 O   0  0  0  0  0  0  0  0  0  0  0  0
  -24.5720  -31.8780   23.1080 C   0  0  0  0  0  0  0  0  0  0  0  0
  -27.0350  -27.4410   19.7170 C   0  0  0  0  0  0  0  0  0  0  0  0
  -23.2920  -30.5510   21.4670 C   0  0  0  0  0  3  0  0  0  0  0  0
  -24.6740  -29.0670   19.8970 C   0  0  0  0  0  0  0  0  0  0  0  0
  -25.8180  -30.8860   21.1630 C   0  0  0  0  0  2  0  0  0  0  0  0
  -25.8750  -29.5310   20.4540 C   0  0  0  0  0  0  0  0  0  0  0  0
  -27.0590  -28.7340   20.3450 C   0  0  0  0  0  3  0  0  0  0  0  0
  -25.8070  -27.0350   19.1520 C   0  0  0  0  0  3  0  0  0  0  0  0
  -24.6450  -27.8260   19.2400 C   0  0  0  0  0  3  0  0  0  0  0  0
  -23.4430  -29.9410   20.0460 C   0  0  0  0  0  2  0  0  0  0  0  0
  -24.5850  -31.1190   21.9710 N   0  0  0  0  0  0  0  0  0  0  0  0
  -23.5140  -32.1250   23.7050 O   0  0  0  0  0  0  0  0  0  0  0  0
  -22.6770  -29.4880   22.4080 C   0  0  0  0  0  0  0  0  0  0  0  0
  -21.3560  -29.2740   22.2960 N   0  0  0  0  0  0  0  0  0  0  0  0
  -23.3870  -28.8640   23.1990 O   0  0  0  0  0  0  0  0  0  0  0  0
  -20.8380  -29.8420   21.6400 H   0  0  0  0  0  0  0  0  0  0  0  0
  -18.0380  -27.9030   22.7680 C   0  0  0  0  0  0  0  0  0  0  0  0
  -20.5790  -28.2860   23.0500 C   0  0  0  0  0  3  0  0  0  0  0  0
  -20.7520  -26.8680   22.4640 C   0  0  0  0  0  2  0  0  0  0  0  0
  -19.6740  -26.5000   21.4390 C   0  0  0  0  0  2  0  0  0  0  0  0
  -18.2830  -26.5710   22.0790 C   0  0  0  0  0  2  0  0  0  0  0  0
  -19.1150  -28.7150   23.2080 C   0  0  0  0  0  0  0  0  0  0  0  0
  -18.8340  -29.9570   23.8150 C   0  0  0  0  0  3  0  0  0  0  0  0
  -17.5070  -30.3930   23.9810 C   0  0  0  0  0  3  0  0  0  0  0  0
  -16.4420  -29.5820   23.5540 C   0  0  0  0  0  3  0  0  0  0  0  0
  -16.7070  -28.3380   22.9530 C   0  0  0  0  0  3  0  0  0  0  0  0
  -25.8800  -32.4900   23.6990 C   0  0  0  0  0  3  0  0  0  0  0  0
  -26.4500  -31.6730   24.9230 C   0  0  1  0  0  0  0  0  0  0  0  0
  -25.3970  -31.3850   26.0190 C   0  0  0  0  0  1  0  0  0  0  0  0
  -27.0290  -30.3170   24.4530 C   0  0  0  0  0  1  0  0  0  0  0  0
  -27.6170  -32.4540   25.5730 C   0  0  0  0  0  1  0  0  0  0  0  0
  -25.5850  -33.8730   24.0920 N   0  0  0  0  0  0  0  0  0  0  0  0
  -25.8890  -34.9560   23.3630 C   0  0  0  0  0  0  0  0  0  0  0  0
  -26.5170  -34.8930   22.3040 O   0  0  0  0  0  0  0  0  0  0  0  0
  -25.0170  -33.9990   24.9160 H   0  0  0  0  0  0  0  0  0  0  0  0
  -24.1510  -36.7680   23.1580 C   0  0  0  0  0  1  0  0  0  0  0  0
  -25.4260  -36.3250   23.8950 C   0  0  0  0  0  3  0  0  0  0  0  0
  -27.5950  -37.1800   24.6690 C   0  0  0  0  0  1  0  0  0  0  0  0
  -26.4550  -37.3830   23.7790 N   0  0  0  0  0  0  0  0  0  0  0  0
  -26.0550  -38.2950   23.9800 H   0  0  0  0  0  0  0  0  0  0  0  0
  1  8  1  0
  1 48  1  0
  2  1  2  0
  3  8  1  0
  4  7  2  0
  5  3  2  0
  5  2  1  0
  6  4  1  0
  6  3  1  0
  9  6  1  0
 11 16  1  0
 12 13  1  0
 12 11  1  0
 14 13  1  0
 14 23  1  0
 14 15  1  0
 16 10  1  0
 16 15  1  0
 17 10  2  0
 18 10  1  0
 18  2  1  0
 19 18  1  0
 20 21  2  0
 21 40  1  0
 22 21  1  0
 22 25  1  0
 23 24  1  0
 23 20  1  0
 24 22  2  0
 25 26  1  0
 26 27  2  0
 28 31  1  0
 28 27  1  0
 29 28  2  0
 30 29  1  0
 30 25  2  0
 31 32  1  0
 32 33  1  0
 33 34  2  0
 35 34  1  0
 35 39  1  0
 36 35  2  0
 37 32  2  0
 37 36  1  0
 38 37  1  0
 40 41  1  0
 41 44  1  0
 41 43  1  0
 42 40  2  0
 45 46  1  0
 45 20  1  0
 47 45  1  0
 48 50  2  0
 48 49  1  0
 51 52  1  0
 51 53  1  0
 51  4  1  0
 54 53  1  0
 54 56  1  0
 55 66  2  0
 56 61  1  0
 57 65  1  0
 57 67  1  0
 58 64  1  0
 58 60  1  0
 59 65  1  0
 60 59  1  0
 61 60  2  0
 62 63  1  0
 62 56  2  0
 63 58  2  0
 64 57  1  0
 65 55  1  0
 67 69  2  0
 68 67  1  0
 70 68  1  0
 71 80  2  0
 71 76  1  0
 72 68  1  0
 72 76  1  0
 73 72  1  0
 74 75  1  0
 74 73  1  0
 75 71  1  0
 76 77  2  0
 77 78  1  0
 79 78  2  0
 80 79  1  0
 81 55  1  0
 81 86  1  0
 81 82  1  0
 82 85  1  1
 82 83  1  0
 84 82  1  0
 86 89  1  0
 87 91  1  0
 87 86  1  0
 88 87  2  0
 91 90  1  0
 93 91  1  0
 93 94  1  0
 93 92  1  0
M  ISO  4  10 100  18 100  53 101  54 101
M  END
>  <TORSDO>  (77) 
F 19

>  <SCORE>  (77) 
-12.738

>  <name>  (77) 
76

>  <ligand_id>  (77) 
76

>  <original_smiles>  (77) 
[H]c1c([H])c([H])c2c(c1[H])C([H])([H])C([H])([H])C([H])([H])C2([H])N([H])C(=O)C1([H])N(C(=O)C([H])(N([H])C(=O)C([H])(N([H])C([H])([H])[H])C([H])([H])[H])C(C([H])([H])[H])(C([H])([H])[H])C([H])([H])[H])C([H])([H])c2c([H])c(OC([H])([H])C([H])(F)C(=O)N([H])c3nc(N([H])C(=O)N4C([H])([H])C([H])([H])C([H])([H])C([H])(n5nc(-c6c([H])c([H])c(Oc7c([H])c([H])c(F)c([H])c7F)c([H])c6[H])c(C(=O)N([H])[H])c5N([H])[H])C4([H])[H])c(C(=O)C([H])([H])[H])s3)c([H])c([H])c2C1([H])[H]

>  <smiles>  (77) 
[H]c1c([H])c([H])c2c(c1[H])C([H])([H])C([H])([H])C([H])([H])C2([H])N([H])C(=O)C1([H])N(C(=O)C([H])(N([H])C(=O)C([H])(N([H])C([H])([H])[H])C([H])([H])[H])C(C([H])([H])[H])(C([H])([H])[H])C([H])([H])[H])C([H])([H])c2c([H])c(OC([H])([H])C([H])(F)C(=O)N([H])c3nc(N([H])C(=O)N4C([H])([H])C([H])([H])C([H])([H])C([H])(n5nc(-c6c([H])c([H])c(Oc7c([H])c([H])c(F)c([H])c7F)c([H])c6[H])c(C(=O)N([H])[H])c5N([H])[H])C4([H])[H])c(C(=O)C([H])([H])[H])s3)c([H])c([H])c2C1([H])[H]

$$$$
77:0:0
     RDKit          3D

 93101  0  0  1  0  0  0  0  0999 V2000
  -31.1100  -17.3060   19.1260 C   0  0  0  0  0  3  0  0  0  0  0  0
  -30.1610  -17.0610   20.0960 C   0  0  0  0  0  0  0  0  0  0  0  0
  -29.8550  -19.3350   19.7370 C   0  0  0  0  0  0  0  0  0  0  0  0
  -29.0510  -21.5720   20.6790 C   0  0  0  0  0  0  0  0  0  0  0  0
  -29.4340  -18.2460   20.4360 N   0  0  0  0  0  0  0  0  0  0  0  0
  -29.3110  -20.6680   19.7080 N   0  0  0  0  0  0  0  0  0  0  0  0
  -28.7820  -21.2560   21.8410 O   0  0  0  0  0  0  0  0  0  0  0  0
  -31.1460  -18.9630   18.6080 S   0  0  0  0  0  0  0  0  0  0  0  0
  -29.4530  -21.1430   18.8250 H   0  0  0  0  0  0  0  0  0  0  0  0
  -30.6430  -14.5930   20.4120 C   0  0  0  0  0  0  0  0  0  0  0  0
  -30.3520  -12.3790   19.3690 C   0  0  0  0  0  2  0  0  0  0  0  0
  -29.4360  -12.5610   18.1410 C   0  0  0  0  0  2  0  0  0  0  0  0
  -27.9560  -12.4310   18.5520 C   0  0  0  0  0  2  0  0  0  0  0  0
  -27.6000  -13.2860   19.7990 C   0  0  0  0  0  3  0  0  0  0  0  0
  -28.6460  -13.1210   20.9250 C   0  0  0  0  0  2  0  0  0  0  0  0
  -29.9680  -13.4070   20.3540 N   0  0  0  0  0  0  0  0  0  0  0  0
  -31.8370  -14.6520   20.1060 O   0  0  0  0  0  0  0  0  0  0  0  0
  -29.9030  -15.7270   20.6150 N   0  0  0  0  0  0  0  0  0  0  0  0
  -28.9870  -15.5820   21.0100 H   0  0  0  0  0  0  0  0  0  0  0  0
  -25.2020  -13.8930   20.4890 C   0  0  0  0  0  0  0  0  0  0  0  0
  -24.1310  -13.1240   20.8530 C   0  0  0  0  0  0  0  0  0  0  0  0
  -24.5900  -11.7710   20.8370 C   0  0  0  0  0  0  0  0  0  0  0  0
  -26.2470  -13.0090   20.2720 N   0  0  0  0  0  0  0  0  0  0  0  0
  -25.8840  -11.7290   20.5430 N   0  0  0  0  0  0  0  0  0  0  0  0
  -23.8590  -10.5120   21.0280 C   0  0  0  0  0  0  0  0  0  0  0  0
  -24.2810   -9.5480   21.9700 C   0  0  0  0  0  3  0  0  0  0  0  0
  -23.5500   -8.3550   22.1490 C   0  0  0  0  0  3  0  0  0  0  0  0
  -22.3820   -8.1170   21.3850 C   0  0  0  0  0  0  0  0  0  0  0  0
  -21.9800   -9.0690   20.4320 C   0  0  0  0  0  3  0  0  0  0  0  0
  -22.7120  -10.2530   20.2520 C   0  0  0  0  0  3  0  0  0  0  0  0
  -21.6240   -6.9730   21.4720 O   0  0  0  0  0  0  0  0  0  0  0  0
  -21.5640   -6.2350   22.6280 C   0  0  0  0  0  0  0  0  0  0  0  0
  -21.1360   -6.7970   23.8500 C   0  0  0  0  0  3  0  0  0  0  0  0
  -21.0230   -5.9860   24.9970 C   0  0  0  0  0  3  0  0  0  0  0  0
  -21.3280   -4.6130   24.9220 C   0  0  0  0  0  0  0  0  0  0  0  0
  -21.7490   -4.0500   23.7030 C   0  0  0  0  0  3  0  0  0  0  0  0
  -21.8640   -4.8590   22.5590 C   0  0  0  0  0  0  0  0  0  0  0  0
  -22.2490   -4.3080   21.3840 F   0  0  0  0  0  0  0  0  0  0  0  0
  -21.2120   -3.8310   26.0210 F   0  0  0  0  0  0  0  0  0  0  0  0
  -22.7320  -13.6060   21.1050 C   0  0  0  0  0  0  0  0  0  0  0  0
  -21.9910  -12.9170   21.9660 N   0  0  0  0  0  0  0  0  0  0  0  0
  -22.3030  -14.6290   20.5740 O   0  0  0  0  0  0  0  0  0  0  0  0
  -22.3490  -12.0900   22.4210 H   0  0  0  0  0  0  0  0  0  0  0  0
  -21.0520  -13.2230   22.1750 H   0  0  0  0  0  0  0  0  0  0  0  0
  -25.3700  -15.2630   20.3030 N   0  0  0  0  0  0  0  0  0  0  0  0
  -24.5990  -15.9150   20.3990 H   0  0  0  0  0  0  0  0  0  0  0  0
  -26.2180  -15.7020   19.9660 H   0  0  0  0  0  0  0  0  0  0  0  0
  -29.1150  -23.0810   20.2460 C   0  0  0  0  0  3  0  0  0  0  0  0
  -29.0990  -23.1630   18.9120 F   0  0  0  0  0  0  0  0  0  0  0  0
  -28.0700  -24.1010   20.8380 C   0  0  0  0  0  2  0  0  0  0  0  0
  -28.0950  -25.9840   22.6100 C   0  0  0  0  0  1  0  0  0  0  0  0
  -28.5930  -25.5450   21.2180 C   0  0  0  0  0  3  0  0  0  0  0  0
  -28.4640  -26.6320   20.2490 O   0  0  0  0  0  0  0  0  0  0  0  0
  -24.6230  -31.8980   23.2420 C   0  0  0  0  0  0  0  0  0  0  0  0
  -27.3120  -27.4040   20.2460 C   0  0  0  0  0  0  0  0  0  0  0  0
  -23.4450  -30.4780   21.5960 C   0  0  0  0  0  3  0  0  0  0  0  0
  -24.9220  -28.9310   20.2000 C   0  0  0  0  0  0  0  0  0  0  0  0
  -25.9730  -30.8390   21.4270 C   0  0  0  0  0  2  0  0  0  0  0  0
  -26.0720  -29.4600   20.7980 C   0  0  0  0  0  0  0  0  0  0  0  0
  -27.2750  -28.7070   20.8100 C   0  0  0  0  0  3  0  0  0  0  0  0
  -26.1470  -26.9010   19.6350 C   0  0  0  0  0  3  0  0  0  0  0  0
  -24.9550  -27.6530   19.6120 C   0  0  0  0  0  3  0  0  0  0  0  0
  -23.6740  -29.7870   20.2250 C   0  0  0  0  0  2  0  0  0  0  0  0
  -24.6980  -31.0880   22.1460 N   0  0  0  0  0  0  0  0  0  0  0  0
  -23.5330  -32.1680   23.7670 O   0  0  0  0  0  0  0  0  0  0  0  0
  -22.7860  -29.4620   22.5580 C   0  0  0  0  0  0  0  0  0  0  0  0
  -21.4610  -29.2800   22.4250 N   0  0  0  0  0  0  0  0  0  0  0  0
  -23.4640  -28.8390   23.3790 O   0  0  0  0  0  0  0  0  0  0  0  0
  -20.9740  -29.8340   21.7350 H   0  0  0  0  0  0  0  0  0  0  0  0
  -18.0820  -28.0950   22.9160 C   0  0  0  0  0  0  0  0  0  0  0  0
  -20.6400  -28.3440   23.1930 C   0  0  0  0  0  3  0  0  0  0  0  0
  -20.7400  -26.9130   22.6160 C   0  0  0  0  0  2  0  0  0  0  0  0
  -19.6390  -26.5940   21.6000 C   0  0  0  0  0  2  0  0  0  0  0  0
  -18.2560  -26.7440   22.2410 C   0  0  0  0  0  2  0  0  0  0  0  0
  -19.2020  -28.8520   23.3500 C   0  0  0  0  0  0  0  0  0  0  0  0
  -18.9860  -30.1160   23.9400 C   0  0  0  0  0  3  0  0  0  0  0  0
  -17.6820  -30.6210   24.1030 C   0  0  0  0  0  3  0  0  0  0  0  0
  -16.5760  -29.8600   23.6860 C   0  0  0  0  0  3  0  0  0  0  0  0
  -16.7770  -28.5990   23.0980 C   0  0  0  0  0  3  0  0  0  0  0  0
  -25.8970  -32.5410   23.8730 C   0  0  0  0  0  3  0  0  0  0  0  0
  -26.4040  -31.7800   25.1590 C   0  0  1  0  0  0  0  0  0  0  0  0
  -25.3010  -31.5430   26.2170 C   0  0  0  0  0  1  0  0  0  0  0  0
  -26.9990  -30.4040   24.7790 C   0  0  0  0  0  1  0  0  0  0  0  0
  -27.5440  -32.5840   25.8300 C   0  0  0  0  0  1  0  0  0  0  0  0
  -25.5750  -33.9390   24.1890 N   0  0  0  0  0  0  0  0  0  0  0  0
  -25.9130  -34.9890   23.4260 C   0  0  0  0  0  0  0  0  0  0  0  0
  -26.5960  -34.8800   22.4050 O   0  0  0  0  0  0  0  0  0  0  0  0
  -24.9640  -34.0950   24.9770 H   0  0  0  0  0  0  0  0  0  0  0  0
  -24.1820  -36.7720   23.0370 C   0  0  0  0  0  1  0  0  0  0  0  0
  -25.4130  -36.3780   23.8670 C   0  0  0  0  0  3  0  0  0  0  0  0
  -27.5320  -37.2790   24.7190 C   0  0  0  0  0  1  0  0  0  0  0  0
  -26.4420  -37.4350   23.7600 N   0  0  0  0  0  0  0  0  0  0  0  0
  -26.0310  -38.3550   23.8960 H   0  0  0  0  0  0  0  0  0  0  0  0
  1  2  2  0
  2  5  1  0
  2 18  1  0
  3  5  2  0
  4  7  2  0
  6  3  1  0
  6  4  1  0
  8  1  1  0
  8  3  1  0
  9  6  1  0
 10 18  1  0
 11 16  1  0
 12 13  1  0
 12 11  1  0
 14 13  1  0
 14 23  1  0
 14 15  1  0
 16 10  1  0
 16 15  1  0
 17 10  2  0
 18 19  1  0
 20 21  2  0
 21 40  1  0
 22 21  1  0
 22 25  1  0
 23 20  1  0
 23 24  1  0
 24 22  2  0
 25 26  1  0
 26 27  2  0
 28 31  1  0
 28 27  1  0
 29 28  2  0
 30 29  1  0
 30 25  2  0
 31 32  1  0
 32 33  1  0
 33 34  2  0
 35 34  1  0
 35 39  1  0
 36 35  2  0
 37 32  2  0
 37 36  1  0
 38 37  1  0
 40 41  1  0
 41 44  1  0
 41 43  1  0
 42 40  2  0
 45 46  1  0
 45 20  1  0
 47 45  1  0
 48 49  1  0
 48  4  1  0
 48 50  1  0
 50 52  1  0
 52 51  1  0
 53 52  1  0
 54 65  2  0
 55 53  1  0
 55 60  1  0
 56 64  1  0
 56 66  1  0
 57 63  1  0
 57 59  1  0
 58 64  1  0
 59 60  2  0
 59 58  1  0
 61 55  2  0
 62 61  1  0
 62 57  2  0
 63 56  1  0
 64 54  1  0
 66 68  2  0
 67 66  1  0
 69 67  1  0
 70 79  2  0
 70 75  1  0
 71 67  1  0
 71 75  1  0
 72 71  1  0
 73 74  1  0
 73 72  1  0
 74 70  1  0
 75 76  2  0
 76 77  1  0
 78 77  2  0
 79 78  1  0
 80 54  1  0
 80 85  1  0
 80 81  1  0
 81 84  1  1
 81 82  1  0
 83 81  1  0
 85 88  1  0
 86 90  1  0
 86 85  1  0
 87 86  2  0
 90 89  1  0
 92 90  1  0
 92 93  1  0
 92 91  1  0
M  ISO  4  10 100  18 100  52 101  53 101
M  END
>  <TORSDO>  (78) 
F 19

>  <SCORE>  (78) 
-14.380

>  <name>  (78) 
77

>  <ligand_id>  (78) 
77

>  <original_smiles>  (78) 
[H]c1sc(N([H])C(=O)C([H])(F)C([H])([H])C([H])(Oc2c([H])c([H])c3c(c2[H])C([H])([H])N(C(=O)C([H])(N([H])C(=O)C([H])(N([H])C([H])([H])[H])C([H])([H])[H])C(C([H])([H])[H])(C([H])([H])[H])C([H])([H])[H])C([H])(C(=O)N([H])C2([H])c4c([H])c([H])c([H])c([H])c4C([H])([H])C([H])([H])C2([H])[H])C3([H])[H])C([H])([H])[H])nc1N([H])C(=O)N1C([H])([H])C([H])([H])C([H])([H])C([H])(n2nc(-c3c([H])c([H])c(Oc4c([H])c([H])c(F)c([H])c4F)c([H])c3[H])c(C(=O)N([H])[H])c2N([H])[H])C1([H])[H]

>  <smiles>  (78) 
[H]c1sc(N([H])C(=O)C([H])(F)C([H])([H])C([H])(Oc2c([H])c([H])c3c(c2[H])C([H])([H])N(C(=O)C([H])(N([H])C(=O)C([H])(N([H])C([H])([H])[H])C([H])([H])[H])C(C([H])([H])[H])(C([H])([H])[H])C([H])([H])[H])C([H])(C(=O)N([H])C2([H])c4c([H])c([H])c([H])c([H])c4C([H])([H])C([H])([H])C2([H])[H])C3([H])[H])C([H])([H])[H])nc1N([H])C(=O)N1C([H])([H])C([H])([H])C([H])([H])C([H])(n2nc(-c3c([H])c([H])c(Oc4c([H])c([H])c(F)c([H])c4F)c([H])c3[H])c(C(=O)N([H])[H])c2N([H])[H])C1([H])[H]

$$$$
78:0:0
     RDKit          3D

 92100  0  0  1  0  0  0  0  0999 V2000
  -28.4160  -16.6740   20.6850 C   0  0  0  0  0  3  0  0  0  0  0  0
  -29.7840  -16.6840   20.6520 C   0  0  0  0  0  0  0  0  0  0  0  0
  -29.3540  -18.9430   20.3580 C   0  0  0  0  0  0  0  0  0  0  0  0
  -28.8480  -21.4110   20.0900 C   0  0  0  0  0  0  0  0  0  0  0  0
  -30.3120  -17.9960   20.5130 N   0  0  0  0  0  0  0  0  0  0  0  0
  -29.6680  -20.3480   20.3100 N   0  0  0  0  0  0  0  0  0  0  0  0
  -27.7240  -21.2980   19.5890 O   0  0  0  0  0  0  0  0  0  0  0  0
  -27.7270  -18.2550   20.3920 S   0  0  0  0  0  0  0  0  0  0  0  0
  -30.6130  -20.5930   20.5700 H   0  0  0  0  0  0  0  0  0  0  0  0
  -30.9290  -14.5290   20.1410 C   0  0  0  0  0  0  0  0  0  0  0  0
  -30.4910  -12.3550   19.0290 C   0  0  0  0  0  2  0  0  0  0  0  0
  -29.5070  -12.5100   17.8530 C   0  0  0  0  0  2  0  0  0  0  0  0
  -28.0580  -12.3760   18.3540 C   0  0  0  0  0  2  0  0  0  0  0  0
  -27.7690  -13.2710   19.5890 C   0  0  0  0  0  3  0  0  0  0  0  0
  -28.8720  -13.1260   20.6680 C   0  0  0  0  0  2  0  0  0  0  0  0
  -30.1710  -13.3940   20.0330 N   0  0  0  0  0  0  0  0  0  0  0  0
  -31.9940  -14.6500   19.5330 O   0  0  0  0  0  0  0  0  0  0  0  0
  -30.5520  -15.5190   20.9850 N   0  0  0  0  0  0  0  0  0  0  0  0
  -31.4070  -15.8310   21.4190 H   0  0  0  0  0  0  0  0  0  0  0  0
  -25.4160  -13.9180   20.3980 C   0  0  0  0  0  0  0  0  0  0  0  0
  -24.3550  -13.1730   20.8270 C   0  0  0  0  0  0  0  0  0  0  0  0
  -24.7830  -11.8100   20.7670 C   0  0  0  0  0  0  0  0  0  0  0  0
  -26.4350  -13.0190   20.1280 N   0  0  0  0  0  0  0  0  0  0  0  0
  -26.0580  -11.7440   20.4030 N   0  0  0  0  0  0  0  0  0  0  0  0
  -24.0300  -10.5670   20.9750 C   0  0  0  0  0  0  0  0  0  0  0  0
  -24.4690   -9.5840   21.8870 C   0  0  0  0  0  3  0  0  0  0  0  0
  -23.7190   -8.4030   22.0830 C   0  0  0  0  0  3  0  0  0  0  0  0
  -22.5160   -8.1990   21.3650 C   0  0  0  0  0  0  0  0  0  0  0  0
  -22.0960   -9.1730   20.4420 C   0  0  0  0  0  3  0  0  0  0  0  0
  -22.8460  -10.3440   20.2450 C   0  0  0  0  0  3  0  0  0  0  0  0
  -21.7360   -7.0740   21.4750 O   0  0  0  0  0  0  0  0  0  0  0  0
  -21.6990   -6.3320   22.6290 C   0  0  0  0  0  0  0  0  0  0  0  0
  -21.2710   -6.8830   23.8560 C   0  0  0  0  0  3  0  0  0  0  0  0
  -21.1830   -6.0680   25.0010 C   0  0  0  0  0  3  0  0  0  0  0  0
  -21.5120   -4.7010   24.9200 C   0  0  0  0  0  0  0  0  0  0  0  0
  -21.9340   -4.1490   23.6980 C   0  0  0  0  0  3  0  0  0  0  0  0
  -22.0240   -4.9620   22.5550 C   0  0  0  0  0  0  0  0  0  0  0  0
  -22.4110   -4.4210   21.3740 F   0  0  0  0  0  0  0  0  0  0  0  0
  -21.4190   -3.9160   26.0180 F   0  0  0  0  0  0  0  0  0  0  0  0
  -22.9860  -13.6860   21.1670 C   0  0  0  0  0  0  0  0  0  0  0  0
  -22.2850  -13.0080   22.0700 N   0  0  0  0  0  0  0  0  0  0  0  0
  -22.5490  -14.7220   20.6670 O   0  0  0  0  0  0  0  0  0  0  0  0
  -22.6530  -12.1710   22.4970 H   0  0  0  0  0  0  0  0  0  0  0  0
  -21.3660  -13.3340   22.3390 H   0  0  0  0  0  0  0  0  0  0  0  0
  -25.5770  -15.2810   20.1800 N   0  0  0  0  0  0  0  0  0  0  0  0
  -24.7910  -15.9170   20.2670 H   0  0  0  0  0  0  0  0  0  0  0  0
  -26.3370  -15.6800   19.6420 H   0  0  0  0  0  0  0  0  0  0  0  0
  -29.3680  -22.8290   20.4940 C   0  0  0  0  0  3  0  0  0  0  0  0
  -30.7050  -22.8210   20.4840 F   0  0  0  0  0  0  0  0  0  0  0  0
  -28.8510  -24.1030   19.7120 C   0  0  0  0  0  2  0  0  0  0  0  0
  -28.4740  -25.3380   20.6100 C   0  0  0  0  0  2  0  0  0  0  0  0
  -28.5060  -26.6570   19.9940 O   0  0  0  0  0  0  0  0  0  0  0  0
  -24.5590  -31.7500   23.1590 C   0  0  0  0  0  0  0  0  0  0  0  0
  -27.3370  -27.4050   20.0180 C   0  0  0  0  0  0  0  0  0  0  0  0
  -23.4130  -30.3820   21.4460 C   0  0  0  0  0  3  0  0  0  0  0  0
  -24.9270  -28.9040   20.0120 C   0  0  0  0  0  0  0  0  0  0  0  0
  -25.9430  -30.7770   21.3200 C   0  0  0  0  0  2  0  0  0  0  0  0
  -26.0660  -29.4230   20.6400 C   0  0  0  0  0  0  0  0  0  0  0  0
  -27.2770  -28.6830   20.6340 C   0  0  0  0  0  3  0  0  0  0  0  0
  -26.1810  -26.9120   19.3820 C   0  0  0  0  0  3  0  0  0  0  0  0
  -24.9820  -27.6520   19.3750 C   0  0  0  0  0  3  0  0  0  0  0  0
  -23.6670  -29.7470   20.0530 C   0  0  0  0  0  2  0  0  0  0  0  0
  -24.6550  -30.9850   22.0330 N   0  0  0  0  0  0  0  0  0  0  0  0
  -23.4600  -31.9910   23.6800 O   0  0  0  0  0  0  0  0  0  0  0  0
  -22.7540  -29.3260   22.3620 C   0  0  0  0  0  0  0  0  0  0  0  0
  -21.4240  -29.1780   22.2450 N   0  0  0  0  0  0  0  0  0  0  0  0
  -23.4350  -28.6430   23.1300 O   0  0  0  0  0  0  0  0  0  0  0  0
  -20.9340  -29.7830   21.5990 H   0  0  0  0  0  0  0  0  0  0  0  0
  -18.0290  -28.0550   22.7650 C   0  0  0  0  0  0  0  0  0  0  0  0
  -20.6000  -28.2110   22.9720 C   0  0  0  0  0  3  0  0  0  0  0  0
  -20.6390  -26.8250   22.2850 C   0  0  0  0  0  2  0  0  0  0  0  0
  -19.4970  -26.6220   21.2850 C   0  0  0  0  0  2  0  0  0  0  0  0
  -18.1400  -26.7570   21.9820 C   0  0  0  0  0  2  0  0  0  0  0  0
  -19.1850  -28.7470   23.2140 C   0  0  0  0  0  0  0  0  0  0  0  0
  -19.0280  -29.9670   23.9050 C   0  0  0  0  0  3  0  0  0  0  0  0
  -17.7470  -30.4980   24.1480 C   0  0  0  0  0  3  0  0  0  0  0  0
  -16.6050  -29.8000   23.7170 C   0  0  0  0  0  3  0  0  0  0  0  0
  -16.7460  -28.5800   23.0320 C   0  0  0  0  0  3  0  0  0  0  0  0
  -25.8180  -32.3800   23.8310 C   0  0  0  0  0  3  0  0  0  0  0  0
  -26.2850  -31.6080   25.1260 C   0  0  1  0  0  0  0  0  0  0  0  0
  -25.1520  -31.3720   26.1510 C   0  0  0  0  0  1  0  0  0  0  0  0
  -26.8800  -30.2280   24.7550 C   0  0  0  0  0  1  0  0  0  0  0  0
  -27.4120  -32.3980   25.8310 C   0  0  0  0  0  1  0  0  0  0  0  0
  -25.4990  -33.7780   24.1490 N   0  0  0  0  0  0  0  0  0  0  0  0
  -25.8610  -34.8300   23.4020 C   0  0  0  0  0  0  0  0  0  0  0  0
  -26.5670  -34.7240   22.3980 O   0  0  0  0  0  0  0  0  0  0  0  0
  -24.8790  -33.9330   24.9290 H   0  0  0  0  0  0  0  0  0  0  0  0
  -24.1560  -36.6280   22.9760 C   0  0  0  0  0  1  0  0  0  0  0  0
  -25.3570  -36.2180   23.8420 C   0  0  0  0  0  3  0  0  0  0  0  0
  -27.4460  -37.1060   24.7800 C   0  0  0  0  0  1  0  0  0  0  0  0
  -26.3970  -37.2670   23.7770 N   0  0  0  0  0  0  0  0  0  0  0  0
  -25.9860  -38.1900   23.8910 H   0  0  0  0  0  0  0  0  0  0  0  0
  2  1  2  0
  2 18  1  0
  3  8  1  0
  3  5  2  0
  4  6  1  0
  4 48  1  0
  5  2  1  0
  6  3  1  0
  6  9  1  0
  7  4  2  0
  8  1  1  0
 10 18  1  0
 11 16  1  0
 12 13  1  0
 12 11  1  0
 14 13  1  0
 14 23  1  0
 14 15  1  0
 16 10  1  0
 16 15  1  0
 17 10  2  0
 18 19  1  0
 20 21  2  0
 21 40  1  0
 22 21  1  0
 22 25  1  0
 23 20  1  0
 23 24  1  0
 24 22  2  0
 25 26  1  0
 26 27  2  0
 28 31  1  0
 28 27  1  0
 29 28  2  0
 30 29  1  0
 30 25  2  0
 31 32  1  0
 32 33  1  0
 33 34  2  0
 35 34  1  0
 35 39  1  0
 36 35  2  0
 37 32  2  0
 37 36  1  0
 38 37  1  0
 40 41  1  0
 41 44  1  0
 41 43  1  0
 42 40  2  0
 45 46  1  0
 45 20  1  0
 47 45  1  0
 48 49  1  0
 50 48  1  0
 50 51  1  0
 52 54  1  0
 52 51  1  0
 53 64  2  0
 54 59  1  0
 55 63  1  0
 55 65  1  0
 56 62  1  0
 56 58  1  0
 57 63  1  0
 58 57  1  0
 59 58  2  0
 60 54  2  0
 61 60  1  0
 61 56  2  0
 62 55  1  0
 63 53  1  0
 65 67  2  0
 66 65  1  0
 68 66  1  0
 69 78  2  0
 69 74  1  0
 70 66  1  0
 70 74  1  0
 71 70  1  0
 72 73  1  0
 72 71  1  0
 73 69  1  0
 74 75  2  0
 75 76  1  0
 77 76  2  0
 78 77  1  0
 79 53  1  0
 79 84  1  0
 79 80  1  0
 80 83  1  1
 80 81  1  0
 82 80  1  0
 84 87  1  0
 85 89  1  0
 85 84  1  0
 86 85  2  0
 89 88  1  0
 91 89  1  0
 91 92  1  0
 91 90  1  0
M  ISO  4  10 100  18 100  51 101  52 101
M  END
>  <TORSDO>  (79) 
F 19

>  <SCORE>  (79) 
-14.057

>  <name>  (79) 
78

>  <ligand_id>  (79) 
78

>  <original_smiles>  (79) 
[H]c1sc(N([H])C(=O)C([H])(F)C([H])([H])C([H])([H])Oc2c([H])c([H])c3c(c2[H])C([H])([H])N(C(=O)C([H])(N([H])C(=O)C([H])(N([H])C([H])([H])[H])C([H])([H])[H])C(C([H])([H])[H])(C([H])([H])[H])C([H])([H])[H])C([H])(C(=O)N([H])C2([H])c4c([H])c([H])c([H])c([H])c4C([H])([H])C([H])([H])C2([H])[H])C3([H])[H])nc1N([H])C(=O)N1C([H])([H])C([H])([H])C([H])([H])C([H])(n2nc(-c3c([H])c([H])c(Oc4c([H])c([H])c(F)c([H])c4F)c([H])c3[H])c(C(=O)N([H])[H])c2N([H])[H])C1([H])[H]

>  <smiles>  (79) 
[H]c1sc(N([H])C(=O)C([H])(F)C([H])([H])C([H])([H])Oc2c([H])c([H])c3c(c2[H])C([H])([H])N(C(=O)C([H])(N([H])C(=O)C([H])(N([H])C([H])([H])[H])C([H])([H])[H])C(C([H])([H])[H])(C([H])([H])[H])C([H])([H])[H])C([H])(C(=O)N([H])C2([H])c4c([H])c([H])c([H])c([H])c4C([H])([H])C([H])([H])C2([H])[H])C3([H])[H])nc1N([H])C(=O)N1C([H])([H])C([H])([H])C([H])([H])C([H])(n2nc(-c3c([H])c([H])c(Oc4c([H])c([H])c(F)c([H])c4F)c([H])c3[H])c(C(=O)N([H])[H])c2N([H])[H])C1([H])[H]

$$$$
79:0:0
     RDKit          3D

 98106  0  0  1  0  0  0  0  0999 V2000
  -29.5730  -19.6280   18.6170 C   0  0  0  0  0  3  0  0  0  0  0  0
  -29.8160  -18.3720   18.0320 C   0  0  0  0  0  0  0  0  0  0  0  0
  -29.9360  -17.2230   18.8390 C   0  0  0  0  0  0  0  0  0  0  0  0
  -29.4190  -19.7850   20.0170 C   0  0  0  0  0  3  0  0  0  0  0  0
  -29.8130  -17.3110   20.2490 C   0  0  0  0  0  0  0  0  0  0  0  0
  -28.7690  -22.3260   19.9560 C   0  0  0  0  0  0  0  0  0  0  0  0
  -29.5450  -18.6010   20.7650 N   0  0  0  0  0  0  0  0  0  0  0  0
  -29.2040  -21.1530   20.5760 N   0  0  0  0  0  0  0  0  0  0  0  0
  -28.2150  -22.2800   18.8540 O   0  0  0  0  0  0  0  0  0  0  0  0
  -30.1140  -16.0260   18.2290 F   0  0  0  0  0  0  0  0  0  0  0  0
  -29.4300  -18.6760   21.7800 H   0  0  0  0  0  0  0  0  0  0  0  0
  -29.4650  -21.2950   21.5420 H   0  0  0  0  0  0  0  0  0  0  0  0
  -30.6470  -14.9110   20.7750 C   0  0  0  0  0  0  0  0  0  0  0  0
  -30.5620  -12.5970   19.8360 C   0  0  0  0  0  2  0  0  0  0  0  0
  -29.7100  -12.6120   18.5450 C   0  0  0  0  0  2  0  0  0  0  0  0
  -28.2160  -12.4290   18.8750 C   0  0  0  0  0  2  0  0  0  0  0  0
  -27.7440  -13.3350   20.0420 C   0  0  0  0  0  3  0  0  0  0  0  0
  -28.7250  -13.2910   21.2360 C   0  0  0  0  0  2  0  0  0  0  0  0
  -30.0550  -13.6640   20.7350 N   0  0  0  0  0  0  0  0  0  0  0  0
  -31.8440  -15.0160   20.4700 O   0  0  0  0  0  0  0  0  0  0  0  0
  -29.8610  -16.0350   21.0160 N   0  0  0  0  0  0  0  0  0  0  0  0
  -29.0280  -15.8400   21.5430 H   0  0  0  0  0  0  0  0  0  0  0  0
  -25.3040  -13.8920   20.6100 C   0  0  0  0  0  0  0  0  0  0  0  0
  -24.2310  -13.1040   20.9220 C   0  0  0  0  0  0  0  0  0  0  0  0
  -24.7180  -11.7610   20.9380 C   0  0  0  0  0  0  0  0  0  0  0  0
  -26.3750  -13.0290   20.4490 N   0  0  0  0  0  0  0  0  0  0  0  0
  -26.0270  -11.7440   20.7100 N   0  0  0  0  0  0  0  0  0  0  0  0
  -24.0040  -10.4890   21.0980 C   0  0  0  0  0  0  0  0  0  0  0  0
  -24.3870   -9.5450   22.0760 C   0  0  0  0  0  3  0  0  0  0  0  0
  -23.6730   -8.3360   22.2230 C   0  0  0  0  0  3  0  0  0  0  0  0
  -22.5620   -8.0640   21.3900 C   0  0  0  0  0  0  0  0  0  0  0  0
  -22.1980   -8.9960   20.4020 C   0  0  0  0  0  3  0  0  0  0  0  0
  -22.9130  -10.1970   20.2550 C   0  0  0  0  0  3  0  0  0  0  0  0
  -21.8220   -6.9070   21.4450 O   0  0  0  0  0  0  0  0  0  0  0  0
  -21.6900   -6.1910   22.6080 C   0  0  0  0  0  0  0  0  0  0  0  0
  -21.1230   -6.7570   23.7710 C   0  0  0  0  0  3  0  0  0  0  0  0
  -20.9430   -5.9640   24.9220 C   0  0  0  0  0  3  0  0  0  0  0  0
  -21.3190   -4.6080   24.9100 C   0  0  0  0  0  0  0  0  0  0  0  0
  -21.8770   -4.0420   23.7510 C   0  0  0  0  0  3  0  0  0  0  0  0
  -22.0600   -4.8320   22.6020 C   0  0  0  0  0  0  0  0  0  0  0  0
  -22.5800   -4.2750   21.4810 F   0  0  0  0  0  0  0  0  0  0  0  0
  -21.1400   -3.8450   26.0140 F   0  0  0  0  0  0  0  0  0  0  0  0
  -22.8110  -13.5600   21.0970 C   0  0  0  0  0  0  0  0  0  0  0  0
  -22.0390  -12.8580   21.9190 N   0  0  0  0  0  0  0  0  0  0  0  0
  -22.3940  -14.5740   20.5410 O   0  0  0  0  0  0  0  0  0  0  0  0
  -22.3890  -12.0390   22.3930 H   0  0  0  0  0  0  0  0  0  0  0  0
  -21.0830  -13.1450   22.0770 H   0  0  0  0  0  0  0  0  0  0  0  0
  -25.4560  -15.2630   20.4240 N   0  0  0  0  0  0  0  0  0  0  0  0
  -24.6630  -15.8940   20.4720 H   0  0  0  0  0  0  0  0  0  0  0  0
  -26.2920  -15.7080   20.0720 H   0  0  0  0  0  0  0  0  0  0  0  0
  -29.9230  -18.2470   16.6400 N   0  0  0  0  0  0  0  0  0  0  0  0
  -29.3060  -18.8400   16.0990 H   0  0  0  0  0  0  0  0  0  0  0  0
  -29.8860  -17.2860   16.3200 H   0  0  0  0  0  0  0  0  0  0  0  0
  -28.9080  -23.7820   20.6310 C   0  0  0  0  0  3  0  0  0  0  0  0
  -28.6710  -23.6520   22.0250 O   0  0  0  0  0  0  0  0  0  0  0  0
  -28.7570  -24.5230   22.4000 H   0  0  0  0  0  0  0  0  0  0  0  0
  -27.9730  -24.9930   20.0710 C   0  0  0  0  0  2  0  0  0  0  0  0
  -28.2540  -26.4670   20.2620 O   0  0  0  0  0  0  0  0  0  0  0  0
  -24.5630  -31.9620   23.2630 C   0  0  0  0  0  0  0  0  0  0  0  0
  -27.1700  -27.3790   20.1850 C   0  0  0  0  0  0  0  0  0  0  0  0
  -23.3600  -30.5610   21.6280 C   0  0  0  0  0  3  0  0  0  0  0  0
  -24.8110  -29.0250   20.1840 C   0  0  0  0  0  0  0  0  0  0  0  0
  -25.9010  -30.8820   21.4360 C   0  0  0  0  0  2  0  0  0  0  0  0
  -25.9840  -29.5020   20.7820 C   0  0  0  0  0  0  0  0  0  0  0  0
  -27.1670  -28.6910   20.7720 C   0  0  0  0  0  3  0  0  0  0  0  0
  -25.9730  -26.9850   19.5410 C   0  0  0  0  0  3  0  0  0  0  0  0
  -24.8110  -27.7760   19.5510 C   0  0  0  0  0  3  0  0  0  0  0  0
  -23.5720  -29.8970   20.2430 C   0  0  0  0  0  2  0  0  0  0  0  0
  -24.6270  -31.1530   22.1650 N   0  0  0  0  0  0  0  0  0  0  0  0
  -23.4790  -32.2310   23.8040 O   0  0  0  0  0  0  0  0  0  0  0  0
  -22.7070  -29.5380   22.5880 C   0  0  0  0  0  0  0  0  0  0  0  0
  -21.3870  -29.3290   22.4490 N   0  0  0  0  0  0  0  0  0  0  0  0
  -23.3890  -28.9330   23.4200 O   0  0  0  0  0  0  0  0  0  0  0  0
  -20.8920  -29.8700   21.7520 H   0  0  0  0  0  0  0  0  0  0  0  0
  -18.0370  -28.0320   22.9010 C   0  0  0  0  0  0  0  0  0  0  0  0
  -20.5800  -28.3810   23.2210 C   0  0  0  0  0  3  0  0  0  0  0  0
  -20.7400  -26.9420   22.6750 C   0  0  0  0  0  2  0  0  0  0  0  0
  -19.6710  -26.5640   21.6450 C   0  0  0  0  0  2  0  0  0  0  0  0
  -18.2710  -26.6760   22.2550 C   0  0  0  0  0  2  0  0  0  0  0  0
  -19.1210  -28.8380   23.3410 C   0  0  0  0  0  0  0  0  0  0  0  0
  -18.8480  -30.1040   23.9040 C   0  0  0  0  0  3  0  0  0  0  0  0
  -17.5240  -30.5640   24.0340 C   0  0  0  0  0  3  0  0  0  0  0  0
  -16.4550  -29.7550   23.6100 C   0  0  0  0  0  3  0  0  0  0  0  0
  -16.7120  -28.4910   23.0500 C   0  0  0  0  0  3  0  0  0  0  0  0
  -25.8430  -32.6030   23.8800 C   0  0  0  0  0  3  0  0  0  0  0  0
  -26.3540  -31.8500   25.1690 C   0  0  1  0  0  0  0  0  0  0  0  0
  -25.2560  -31.6260   26.2360 C   0  0  0  0  0  1  0  0  0  0  0  0
  -26.9410  -30.4670   24.8010 C   0  0  0  0  0  1  0  0  0  0  0  0
  -27.5010  -32.6540   25.8250 C   0  0  0  0  0  1  0  0  0  0  0  0
  -25.5310  -34.0060   24.1920 N   0  0  0  0  0  0  0  0  0  0  0  0
  -25.8780  -35.0510   23.4300 C   0  0  0  0  0  0  0  0  0  0  0  0
  -26.5640  -34.9370   22.4090 O   0  0  0  0  0  0  0  0  0  0  0  0
  -24.9250  -34.1680   24.9830 H   0  0  0  0  0  0  0  0  0  0  0  0
  -24.1790  -36.8610   23.0160 C   0  0  0  0  0  1  0  0  0  0  0  0
  -25.3900  -36.4460   23.8680 C   0  0  0  0  0  3  0  0  0  0  0  0
  -27.5020  -37.3170   24.7680 C   0  0  0  0  0  1  0  0  0  0  0  0
  -26.4350  -37.4890   23.7860 N   0  0  0  0  0  0  0  0  0  0  0  0
  -26.0330  -38.4130   23.9130 H   0  0  0  0  0  0  0  0  0  0  0  0
  1  4  1  0
  2  1  2  0
  2  3  1  0
  3  5  2  0
  4  8  1  0
  4  7  1  0
  5  7  1  0
  5 21  1  0
  6  8  1  0
  6 54  1  0
  7 11  1  0
  8 12  1  0
  9  6  2  0
 10  3  1  0
 13 21  1  0
 14 19  1  0
 15 16  1  0
 15 14  1  0
 17 16  1  0
 17 26  1  0
 17 18  1  0
 19 13  1  0
 19 18  1  0
 20 13  2  0
 21 22  1  0
 23 24  2  0
 24 25  1  0
 24 43  1  0
 25 28  1  0
 26 23  1  0
 26 27  1  0
 27 25  2  0
 28 29  1  0
 29 30  2  0
 31 34  1  0
 31 30  1  0
 32 31  2  0
 33 32  1  0
 33 28  2  0
 34 35  1  0
 35 36  1  0
 36 37  2  0
 38 37  1  0
 38 42  1  0
 39 38  2  0
 40 35  2  0
 40 39  1  0
 41 40  1  0
 43 44  1  0
 44 47  1  0
 44 46  1  0
 45 43  2  0
 48 49  1  0
 48 23  1  0
 50 48  1  0
 51  2  1  0
 52 51  1  0
 53 51  1  0
 54 57  1  0
 54 55  1  0
 55 56  1  0
 57 58  1  0
 59 70  2  0
 60 58  1  0
 60 65  1  0
 61 69  1  0
 61 71  1  0
 62 68  1  0
 62 64  1  0
 63 69  1  0
 64 63  1  0
 65 64  2  0
 66 67  1  0
 66 60  2  0
 67 62  2  0
 68 61  1  0
 69 59  1  0
 71 73  2  0
 72 71  1  0
 74 72  1  0
 75 84  2  0
 75 80  1  0
 76 72  1  0
 76 80  1  0
 77 76  1  0
 78 79  1  0
 78 77  1  0
 79 75  1  0
 80 81  2  0
 81 82  1  0
 83 82  2  0
 84 83  1  0
 85 59  1  0
 85 90  1  0
 85 86  1  0
 86 89  1  1
 86 87  1  0
 88 86  1  0
 90 93  1  0
 91 95  1  0
 91 90  1  0
 92 91  2  0
 95 94  1  0
 97 95  1  0
 97 98  1  0
 97 96  1  0
M  ISO  4  13 100  21 100  57 101  58 101
M  END
>  <TORSDO>  (80) 
F 20

>  <SCORE>  (80) 
-14.338

>  <name>  (80) 
79

>  <ligand_id>  (80) 
79

>  <original_smiles>  (80) 
[H]OC([H])(C(=O)N([H])c1c([H])c(N([H])[H])c(F)c(N([H])C(=O)N2C([H])([H])C([H])([H])C([H])([H])C([H])(n3nc(-c4c([H])c([H])c(Oc5c([H])c([H])c(F)c([H])c5F)c([H])c4[H])c(C(=O)N([H])[H])c3N([H])[H])C2([H])[H])[n+]1[H])C([H])([H])Oc1c([H])c([H])c2c(c1[H])C([H])([H])N(C(=O)C([H])(N([H])C(=O)C([H])(N([H])C([H])([H])[H])C([H])([H])[H])C(C([H])([H])[H])(C([H])([H])[H])C([H])([H])[H])C([H])(C(=O)N([H])C1([H])c3c([H])c([H])c([H])c([H])c3C([H])([H])C([H])([H])C1([H])[H])C2([H])[H]

>  <smiles>  (80) 
[H]OC([H])(C(=O)N([H])c1c([H])c(N([H])[H])c(F)c(N([H])C(=O)N2C([H])([H])C([H])([H])C([H])([H])C([H])(n3nc(-c4c([H])c([H])c(Oc5c([H])c([H])c(F)c([H])c5F)c([H])c4[H])c(C(=O)N([H])[H])c3N([H])[H])C2([H])[H])[n+]1[H])C([H])([H])Oc1c([H])c([H])c2c(c1[H])C([H])([H])N(C(=O)C([H])(N([H])C(=O)C([H])(N([H])C([H])([H])[H])C([H])([H])[H])C(C([H])([H])[H])(C([H])([H])[H])C([H])([H])[H])C([H])(C(=O)N([H])C1([H])c3c([H])c([H])c([H])c([H])c3C([H])([H])C([H])([H])C1([H])[H])C2([H])[H]

$$$$
80:0:0
     RDKit          3D

 95103  0  0  1  0  0  0  0  0999 V2000
  -29.3100  -22.3660   19.1940 C   0  0  0  0  0  0  0  0  0  0  0  0
  -29.9560  -22.7950   18.2280 O   0  0  0  0  0  0  0  0  0  0  0  0
  -29.0060  -18.7080   20.6780 C   0  0  0  0  0  3  0  0  0  0  0  0
  -29.5740  -20.7970   19.5940 C   0  0  0  0  0  0  0  0  0  0  0  0
  -30.0120  -17.8810   20.0640 C   0  0  0  0  0  0  0  0  0  0  0  0
  -30.6430  -19.9760   19.0240 C   0  0  0  0  0  0  0  0  0  0  0  0
  -28.7900  -20.0730   20.4650 N   0  0  0  0  0  0  0  0  0  0  0  0
  -30.8360  -18.6110   19.2370 N   0  0  0  0  0  0  0  0  0  0  0  0
  -31.6420  -20.5050   18.2020 N   0  0  0  0  0  0  0  0  0  0  0  0
  -31.6710  -21.4970   17.9960 H   0  0  0  0  0  0  0  0  0  0  0  0
  -32.4180  -19.9560   17.8540 H   0  0  0  0  0  0  0  0  0  0  0  0
  -30.8020  -15.2500   19.9980 C   0  0  0  0  0  0  0  0  0  0  0  0
  -30.6520  -12.9220   19.0290 C   0  0  0  0  0  2  0  0  0  0  0  0
  -29.6730  -12.9700   17.8320 C   0  0  0  0  0  2  0  0  0  0  0  0
  -28.2280  -12.7460   18.3140 C   0  0  0  0  0  2  0  0  0  0  0  0
  -27.8740  -13.6260   19.5420 C   0  0  0  0  0  3  0  0  0  0  0  0
  -28.9750  -13.5670   20.6260 C   0  0  0  0  0  2  0  0  0  0  0  0
  -30.2360  -13.9800   19.9910 N   0  0  0  0  0  0  0  0  0  0  0  0
  -31.9750  -15.3560   19.6190 O   0  0  0  0  0  0  0  0  0  0  0  0
  -30.0070  -16.3720   20.3130 N   0  0  0  0  0  0  0  0  0  0  0  0
  -29.1640  -16.0800   20.7850 H   0  0  0  0  0  0  0  0  0  0  0  0
  -25.5170  -14.1900   20.3610 C   0  0  0  0  0  0  0  0  0  0  0  0
  -24.4580  -13.4100   20.7360 C   0  0  0  0  0  0  0  0  0  0  0  0
  -24.9180  -12.0570   20.6640 C   0  0  0  0  0  0  0  0  0  0  0  0
  -26.5500  -13.3160   20.0660 N   0  0  0  0  0  0  0  0  0  0  0  0
  -26.1990  -12.0250   20.3100 N   0  0  0  0  0  0  0  0  0  0  0  0
  -24.1950  -10.7940   20.8550 C   0  0  0  0  0  0  0  0  0  0  0  0
  -24.5970   -9.8460   21.8190 C   0  0  0  0  0  3  0  0  0  0  0  0
  -23.8710   -8.6480   21.9940 C   0  0  0  0  0  3  0  0  0  0  0  0
  -22.7250   -8.3920   21.2060 C   0  0  0  0  0  0  0  0  0  0  0  0
  -22.3410   -9.3280   20.2310 C   0  0  0  0  0  3  0  0  0  0  0  0
  -23.0690  -10.5180   20.0540 C   0  0  0  0  0  3  0  0  0  0  0  0
  -21.9740   -7.2450   21.2910 O   0  0  0  0  0  0  0  0  0  0  0  0
  -21.8480   -6.5520   22.4700 C   0  0  0  0  0  0  0  0  0  0  0  0
  -21.2640   -7.1330   23.6170 C   0  0  0  0  0  3  0  0  0  0  0  0
  -21.0880   -6.3650   24.7840 C   0  0  0  0  0  3  0  0  0  0  0  0
  -21.4870   -5.0150   24.8050 C   0  0  0  0  0  0  0  0  0  0  0  0
  -22.0630   -4.4310   23.6640 C   0  0  0  0  0  3  0  0  0  0  0  0
  -22.2440   -5.2000   22.5000 C   0  0  0  0  0  0  0  0  0  0  0  0
  -22.7800   -4.6270   21.3960 F   0  0  0  0  0  0  0  0  0  0  0  0
  -21.3130   -4.2750   25.9260 F   0  0  0  0  0  0  0  0  0  0  0  0
  -23.0710  -13.8870   21.0550 C   0  0  0  0  0  0  0  0  0  0  0  0
  -22.3620  -13.1780   21.9270 N   0  0  0  0  0  0  0  0  0  0  0  0
  -22.6250  -14.9250   20.5700 O   0  0  0  0  0  0  0  0  0  0  0  0
  -22.7390  -12.3420   22.3480 H   0  0  0  0  0  0  0  0  0  0  0  0
  -21.4350  -13.4860   22.1860 H   0  0  0  0  0  0  0  0  0  0  0  0
  -25.6710  -15.5650   20.2260 N   0  0  0  0  0  0  0  0  0  0  0  0
  -24.9010  -16.1970   20.4290 H   0  0  0  0  0  0  0  0  0  0  0  0
  -26.5080  -16.0450   19.9220 H   0  0  0  0  0  0  0  0  0  0  0  0
  -28.3030  -23.5420   19.7970 C   0  0  2  0  0  0  0  0  0  0  0  0
  -28.1960  -23.3650   21.1140 F   0  0  0  0  0  0  0  0  0  0  0  0
  -25.9240  -22.2950   19.6190 C   0  0  0  0  0  1  0  0  0  0  0  0
  -26.8610  -23.4450   19.1840 C   0  0  0  0  0  2  0  0  0  0  0  0
  -28.7950  -25.1540   19.5790 C   0  0  0  0  0  2  0  0  0  0  0  0
  -28.5410  -26.4700   20.3650 O   0  0  0  0  0  0  0  0  0  0  0  0
  -24.6380  -31.9400   23.2730 C   0  0  0  0  0  0  0  0  0  0  0  0
  -27.4550  -27.3960   20.2240 C   0  0  0  0  0  0  0  0  0  0  0  0
  -23.5430  -30.5610   21.5500 C   0  0  0  0  0  3  0  0  0  0  0  0
  -25.0890  -29.0710   20.1320 C   0  0  0  0  0  0  0  0  0  0  0  0
  -26.0910  -30.8980   21.5030 C   0  0  0  0  0  2  0  0  0  0  0  0
  -26.2230  -29.5330   20.8090 C   0  0  0  0  0  0  0  0  0  0  0  0
  -27.4070  -28.7070   20.8430 C   0  0  0  0  0  3  0  0  0  0  0  0
  -26.3000  -27.0310   19.5040 C   0  0  0  0  0  3  0  0  0  0  0  0
  -25.1420  -27.8360   19.4610 C   0  0  0  0  0  3  0  0  0  0  0  0
  -23.8340  -29.9300   20.1600 C   0  0  0  0  0  2  0  0  0  0  0  0
  -24.7730  -31.1550   22.1640 N   0  0  0  0  0  0  0  0  0  0  0  0
  -23.5250  -32.1810   23.7620 O   0  0  0  0  0  0  0  0  0  0  0  0
  -22.8540  -29.5090   22.4520 C   0  0  0  0  0  0  0  0  0  0  0  0
  -21.5320  -29.3320   22.2870 N   0  0  0  0  0  0  0  0  0  0  0  0
  -23.5130  -28.8570   23.2670 O   0  0  0  0  0  0  0  0  0  0  0  0
  -21.0540  -29.9120   21.6110 H   0  0  0  0  0  0  0  0  0  0  0  0
  -18.1360  -28.1590   22.7190 C   0  0  0  0  0  0  0  0  0  0  0  0
  -20.7000  -28.3620   22.9990 C   0  0  0  0  0  3  0  0  0  0  0  0
  -20.7790  -26.9690   22.3320 C   0  0  0  0  0  2  0  0  0  0  0  0
  -19.6690  -26.7280   21.3020 C   0  0  0  0  0  2  0  0  0  0  0  0
  -18.2910  -26.8540   21.9570 C   0  0  0  0  0  2  0  0  0  0  0  0
  -19.2670  -28.8750   23.1950 C   0  0  0  0  0  0  0  0  0  0  0  0
  -19.0670  -30.1000   23.8670 C   0  0  0  0  0  3  0  0  0  0  0  0
  -17.7680  -30.6100   24.0650 C   0  0  0  0  0  3  0  0  0  0  0  0
  -16.6530  -29.8890   23.6050 C   0  0  0  0  0  3  0  0  0  0  0  0
  -16.8370  -28.6650   22.9390 C   0  0  0  0  0  3  0  0  0  0  0  0
  -25.8730  -32.5870   23.9720 C   0  0  0  0  0  3  0  0  0  0  0  0
  -26.2980  -31.8390   25.2960 C   0  0  1  0  0  0  0  0  0  0  0  0
  -25.1270  -31.6070   26.2780 C   0  0  0  0  0  1  0  0  0  0  0  0
  -26.9230  -30.4640   24.9750 C   0  0  0  0  0  1  0  0  0  0  0  0
  -27.3830  -32.6590   26.0330 C   0  0  0  0  0  1  0  0  0  0  0  0
  -25.5370  -33.9880   24.2630 N   0  0  0  0  0  0  0  0  0  0  0  0
  -25.8890  -35.0360   23.5060 C   0  0  0  0  0  0  0  0  0  0  0  0
  -26.5960  -34.9240   22.5010 O   0  0  0  0  0  0  0  0  0  0  0  0
  -24.9110  -34.1460   25.0390 H   0  0  0  0  0  0  0  0  0  0  0  0
  -24.1450  -36.8010   23.0810 C   0  0  0  0  0  1  0  0  0  0  0  0
  -25.3730  -36.4250   23.9270 C   0  0  0  0  0  3  0  0  0  0  0  0
  -27.4710  -37.3630   24.7970 C   0  0  0  0  0  1  0  0  0  0  0  0
  -26.3930  -37.4920   23.8200 N   0  0  0  0  0  0  0  0  0  0  0  0
  -25.9680  -38.4090   23.9390 H   0  0  0  0  0  0  0  0  0  0  0  0
  1  4  1  0
  1 50  1  0
  2  1  2  0
  4  7  2  0
  5 20  1  0
  5  3  2  0
  6  8  2  0
  6  4  1  0
  7  3  1  0
  8  5  1  0
  9  6  1  0
 10  9  1  0
 11  9  1  0
 12 20  1  0
 13 18  1  0
 14 15  1  0
 14 13  1  0
 16 15  1  0
 16 25  1  0
 16 17  1  0
 18 12  1  0
 18 17  1  0
 19 12  2  0
 20 21  1  0
 22 23  2  0
 23 42  1  0
 24 23  1  0
 24 27  1  0
 25 26  1  0
 25 22  1  0
 26 24  2  0
 27 28  1  0
 28 29  2  0
 30 33  1  0
 30 29  1  0
 31 30  2  0
 32 31  1  0
 32 27  2  0
 33 34  1  0
 34 39  2  0
 34 35  1  0
 35 36  2  0
 36 37  1  0
 37 41  1  0
 38 37  2  0
 39 38  1  0
 40 39  1  0
 42 43  1  0
 43 46  1  0
 43 45  1  0
 44 42  2  0
 47 22  1  0
 47 48  1  0
 49 47  1  0
 50 51  1  1
 53 52  1  0
 53 50  1  0
 54 50  1  0
 54 55  1  0
 56 67  2  0
 57 55  1  0
 57 62  1  0
 58 66  1  0
 58 68  1  0
 59 65  1  0
 59 61  1  0
 60 66  1  0
 61 62  2  0
 61 60  1  0
 63 57  2  0
 64 63  1  0
 64 59  2  0
 65 58  1  0
 66 56  1  0
 68 70  2  0
 69 68  1  0
 71 69  1  0
 72 81  2  0
 72 77  1  0
 73 69  1  0
 73 77  1  0
 74 73  1  0
 75 76  1  0
 75 74  1  0
 76 72  1  0
 77 78  2  0
 78 79  1  0
 80 79  2  0
 81 80  1  0
 82 56  1  0
 82 87  1  0
 82 83  1  0
 83 86  1  1
 83 84  1  0
 85 83  1  0
 87 90  1  0
 88 92  1  0
 88 87  1  0
 89 88  2  0
 92 91  1  0
 94 92  1  0
 94 95  1  0
 94 93  1  0
M  ISO  4  12 100  20 100  54 101  55 101
M  END
>  <TORSDO>  (81) 
F 20

>  <SCORE>  (81) 
-13.956

>  <name>  (81) 
80

>  <ligand_id>  (81) 
80

>  <original_smiles>  (81) 
[H]c1nc(C(=O)C(F)(C([H])([H])Oc2c([H])c([H])c3c(c2[H])C([H])([H])N(C(=O)C([H])(N([H])C(=O)C([H])(N([H])C([H])([H])[H])C([H])([H])[H])C(C([H])([H])[H])(C([H])([H])[H])C([H])([H])[H])C([H])(C(=O)N([H])C2([H])c4c([H])c([H])c([H])c([H])c4C([H])([H])C([H])([H])C2([H])[H])C3([H])[H])C([H])([H])C([H])([H])[H])c(N([H])[H])nc1N([H])C(=O)N1C([H])([H])C([H])([H])C([H])([H])C([H])(n2nc(-c3c([H])c([H])c(Oc4c([H])c([H])c(F)c([H])c4F)c([H])c3[H])c(C(=O)N([H])[H])c2N([H])[H])C1([H])[H]

>  <smiles>  (81) 
[H]c1nc(C(=O)C(F)(C([H])([H])Oc2c([H])c([H])c3c(c2[H])C([H])([H])N(C(=O)C([H])(N([H])C(=O)C([H])(N([H])C([H])([H])[H])C([H])([H])[H])C(C([H])([H])[H])(C([H])([H])[H])C([H])([H])[H])C([H])(C(=O)N([H])C2([H])c4c([H])c([H])c([H])c([H])c4C([H])([H])C([H])([H])C2([H])[H])C3([H])[H])C([H])([H])C([H])([H])[H])c(N([H])[H])nc1N([H])C(=O)N1C([H])([H])C([H])([H])C([H])([H])C([H])(n2nc(-c3c([H])c([H])c(Oc4c([H])c([H])c(F)c([H])c4F)c([H])c3[H])c(C(=O)N([H])[H])c2N([H])[H])C1([H])[H]

$$$$
81:0:0
     RDKit          3D

 97105  0  0  1  0  0  0  0  0999 V2000
  -28.4820  -21.1960   19.5880 C   0  0  0  0  0  3  0  0  0  0  0  0
  -30.7130  -14.8400   20.3830 C   0  0  0  0  0  0  0  0  0  0  0  0
  -30.5520  -12.5520   19.3930 C   0  0  0  0  0  2  0  0  0  0  0  0
  -29.6140  -12.6370   18.1690 C   0  0  0  0  0  2  0  0  0  0  0  0
  -28.1430  -12.4580   18.5870 C   0  0  0  0  0  2  0  0  0  0  0  0
  -27.7600  -13.3320   19.8110 C   0  0  0  0  0  3  0  0  0  0  0  0
  -28.8170  -13.2320   20.9350 C   0  0  0  0  0  2  0  0  0  0  0  0
  -30.1190  -13.5930   20.3550 N   0  0  0  0  0  0  0  0  0  0  0  0
  -31.8910  -14.9690   20.0370 O   0  0  0  0  0  0  0  0  0  0  0  0
  -29.3460  -19.8960   19.9380 C   0  0  0  0  0  0  0  0  0  0  0  0
  -30.6360  -19.4790   19.6110 C   0  0  0  0  0  0  0  0  0  0  0  0
  -29.9260  -17.3770   20.3860 C   0  0  0  0  0  0  0  0  0  0  0  0
  -30.9300  -18.0980   19.8420 N   0  0  0  0  0  0  0  0  0  0  0  0
  -29.8840  -15.9180   20.6470 N   0  0  0  0  0  0  0  0  0  0  0  0
  -28.5540  -18.4850   20.7110 S   0  0  0  0  0  0  0  0  0  0  0  0
  -28.9880  -15.6140   20.9960 H   0  0  0  0  0  0  0  0  0  0  0  0
  -25.3660  -13.9220   20.5280 C   0  0  0  0  0  0  0  0  0  0  0  0
  -24.2970  -13.1490   20.8920 C   0  0  0  0  0  0  0  0  0  0  0  0
  -24.7570  -11.7970   20.8500 C   0  0  0  0  0  0  0  0  0  0  0  0
  -26.4100  -13.0420   20.2880 N   0  0  0  0  0  0  0  0  0  0  0  0
  -26.0490  -11.7580   20.5420 N   0  0  0  0  0  0  0  0  0  0  0  0
  -24.0260  -10.5350   21.0300 C   0  0  0  0  0  0  0  0  0  0  0  0
  -24.4280   -9.5770   21.9850 C   0  0  0  0  0  3  0  0  0  0  0  0
  -23.6980   -8.3790   22.1510 C   0  0  0  0  0  3  0  0  0  0  0  0
  -22.5490   -8.1310   21.3650 C   0  0  0  0  0  0  0  0  0  0  0  0
  -22.1660   -9.0780   20.3990 C   0  0  0  0  0  3  0  0  0  0  0  0
  -22.8950  -10.2670   20.2300 C   0  0  0  0  0  3  0  0  0  0  0  0
  -21.7940   -6.9850   21.4380 O   0  0  0  0  0  0  0  0  0  0  0  0
  -21.6840   -6.2720   22.6050 C   0  0  0  0  0  0  0  0  0  0  0  0
  -21.1450   -6.8400   23.7780 C   0  0  0  0  0  3  0  0  0  0  0  0
  -20.9870   -6.0490   24.9340 C   0  0  0  0  0  3  0  0  0  0  0  0
  -21.3530   -4.6910   24.9160 C   0  0  0  0  0  0  0  0  0  0  0  0
  -21.8860   -4.1230   23.7440 C   0  0  0  0  0  3  0  0  0  0  0  0
  -22.0480   -4.9100   22.5930 C   0  0  0  0  0  0  0  0  0  0  0  0
  -22.5380   -4.3520   21.4610 F   0  0  0  0  0  0  0  0  0  0  0  0
  -21.1940   -3.9290   26.0230 F   0  0  0  0  0  0  0  0  0  0  0  0
  -22.8990  -13.6290   21.1560 C   0  0  0  0  0  0  0  0  0  0  0  0
  -22.1570  -12.9220   22.0040 N   0  0  0  0  0  0  0  0  0  0  0  0
  -22.4700  -14.6630   20.6480 O   0  0  0  0  0  0  0  0  0  0  0  0
  -22.5090  -12.0840   22.4420 H   0  0  0  0  0  0  0  0  0  0  0  0
  -21.2210  -13.2300   22.2210 H   0  0  0  0  0  0  0  0  0  0  0  0
  -25.5320  -15.2950   20.3540 N   0  0  0  0  0  0  0  0  0  0  0  0
  -24.7580  -15.9400   20.4600 H   0  0  0  0  0  0  0  0  0  0  0  0
  -26.3380  -15.7240   19.9220 H   0  0  0  0  0  0  0  0  0  0  0  0
  -31.6220  -20.2750   19.0290 N   0  0  0  0  0  0  0  0  0  0  0  0
  -31.5860  -21.2790   19.1750 H   0  0  0  0  0  0  0  0  0  0  0  0
  -32.5690  -19.9160   18.9970 H   0  0  0  0  0  0  0  0  0  0  0  0
  -26.3690  -21.6500   18.1720 C   0  0  0  0  0  1  0  0  0  0  0  0
  -27.6370  -19.5970   17.6740 C   0  0  0  0  0  1  0  0  0  0  0  0
  -28.6170  -21.7940   17.0680 C   0  0  0  0  0  1  0  0  0  0  0  0
  -27.7960  -21.0600   18.1580 C   0  0  2  0  0  0  0  0  0  0  0  0
  -28.3010  -23.7680   20.1850 C   0  0  0  0  0  0  0  0  0  0  0  0
  -28.9840  -22.6410   19.7410 N   0  0  0  0  0  0  0  0  0  0  0  0
  -27.4050  -23.6610   21.0250 O   0  0  0  0  0  0  0  0  0  0  0  0
  -29.7580  -22.8570   19.1280 H   0  0  0  0  0  0  0  0  0  0  0  0
  -28.5610  -25.2160   19.5350 C   0  0  0  0  0  2  0  0  0  0  0  0
  -28.3670  -26.4640   20.3520 O   0  0  0  0  0  0  0  0  0  0  0  0
  -24.6030  -31.9550   23.2420 C   0  0  0  0  0  0  0  0  0  0  0  0
  -27.2440  -27.3150   20.2600 C   0  0  0  0  0  0  0  0  0  0  0  0
  -23.4160  -30.5310   21.6110 C   0  0  0  0  0  3  0  0  0  0  0  0
  -24.8800  -28.9550   20.2140 C   0  0  0  0  0  0  0  0  0  0  0  0
  -25.9600  -30.8370   21.4490 C   0  0  0  0  0  2  0  0  0  0  0  0
  -26.0440  -29.4450   20.8180 C   0  0  0  0  0  0  0  0  0  0  0  0
  -27.2240  -28.6340   20.8340 C   0  0  0  0  0  3  0  0  0  0  0  0
  -26.0450  -26.8780   19.6540 C   0  0  0  0  0  3  0  0  0  0  0  0
  -24.8830  -27.6790   19.6290 C   0  0  0  0  0  3  0  0  0  0  0  0
  -23.6450  -29.8340   20.2410 C   0  0  0  0  0  2  0  0  0  0  0  0
  -24.6790  -31.1280   22.1560 N   0  0  0  0  0  0  0  0  0  0  0  0
  -23.5140  -32.2380   23.7630 O   0  0  0  0  0  0  0  0  0  0  0  0
  -22.7450  -29.5290   22.5790 C   0  0  0  0  0  0  0  0  0  0  0  0
  -21.4180  -29.3530   22.4480 N   0  0  0  0  0  0  0  0  0  0  0  0
  -23.4180  -28.9070   23.4060 O   0  0  0  0  0  0  0  0  0  0  0  0
  -20.9360  -29.9070   21.7560 H   0  0  0  0  0  0  0  0  0  0  0  0
  -18.0310  -28.1940   22.9630 C   0  0  0  0  0  0  0  0  0  0  0  0
  -20.5920  -28.4260   23.2250 C   0  0  0  0  0  3  0  0  0  0  0  0
  -20.6760  -26.9910   22.6530 C   0  0  0  0  0  2  0  0  0  0  0  0
  -19.5690  -26.6780   21.6440 C   0  0  0  0  0  2  0  0  0  0  0  0
  -18.1910  -26.8410   22.2910 C   0  0  0  0  0  2  0  0  0  0  0  0
  -19.1580  -28.9460   23.3870 C   0  0  0  0  0  0  0  0  0  0  0  0
  -18.9520  -30.2130   23.9750 C   0  0  0  0  0  3  0  0  0  0  0  0
  -17.6510  -30.7260   24.1470 C   0  0  0  0  0  3  0  0  0  0  0  0
  -16.5380  -29.9690   23.7380 C   0  0  0  0  0  3  0  0  0  0  0  0
  -16.7300  -28.7060   23.1490 C   0  0  0  0  0  3  0  0  0  0  0  0
  -25.8790  -32.5990   23.8680 C   0  0  0  0  0  3  0  0  0  0  0  0
  -26.3860  -31.8430   25.1570 C   0  0  1  0  0  0  0  0  0  0  0  0
  -25.2840  -31.6020   26.2170 C   0  0  0  0  0  1  0  0  0  0  0  0
  -26.9850  -30.4680   24.7820 C   0  0  0  0  0  1  0  0  0  0  0  0
  -27.5210  -32.6510   25.8280 C   0  0  0  0  0  1  0  0  0  0  0  0
  -25.5590  -33.9980   24.1880 N   0  0  0  0  0  0  0  0  0  0  0  0
  -25.8830  -35.0490   23.4230 C   0  0  0  0  0  0  0  0  0  0  0  0
  -26.5530  -34.9430   22.3920 O   0  0  0  0  0  0  0  0  0  0  0  0
  -24.9690  -34.1510   24.9920 H   0  0  0  0  0  0  0  0  0  0  0  0
  -24.1690  -36.8460   23.0270 C   0  0  0  0  0  1  0  0  0  0  0  0
  -25.3860  -36.4370   23.8710 C   0  0  0  0  0  3  0  0  0  0  0  0
  -27.4950  -37.3240   24.7650 C   0  0  0  0  0  1  0  0  0  0  0  0
  -26.4210  -37.4890   23.7890 N   0  0  0  0  0  0  0  0  0  0  0  0
  -26.0110  -38.4090   23.9250 H   0  0  0  0  0  0  0  0  0  0  0  0
  1 51  1  0
  1 53  1  0
  1 10  1  0
  2 14  1  0
  3  8  1  0
  4  5  1  0
  4  3  1  0
  6  5  1  0
  6 20  1  0
  6  7  1  0
  8  2  1  0
  8  7  1  0
  9  2  2  0
 10 15  1  0
 11 13  1  0
 11 10  2  0
 12 14  1  0
 12 15  1  0
 13 12  2  0
 14 16  1  0
 17 18  2  0
 18 37  1  0
 19 18  1  0
 19 22  1  0
 20 17  1  0
 20 21  1  0
 21 19  2  0
 22 23  1  0
 23 24  2  0
 25 28  1  0
 25 24  1  0
 26 25  2  0
 27 26  1  0
 27 22  2  0
 28 29  1  0
 29 30  1  0
 30 31  2  0
 32 31  1  0
 32 36  1  0
 33 32  2  0
 34 29  2  0
 34 33  1  0
 35 34  1  0
 37 38  1  0
 38 41  1  0
 38 40  1  0
 39 37  2  0
 42 43  1  0
 42 17  1  0
 44 42  1  0
 45 46  1  0
 45 11  1  0
 47 45  1  0
 51 49  1  6
 50 51  1  0
 51 48  1  0
 52 54  2  0
 53 52  1  0
 55 53  1  0
 56 52  1  0
 56 57  1  0
 58 69  2  0
 59 57  1  0
 59 64  1  0
 60 68  1  0
 60 70  1  0
 61 67  1  0
 61 63  1  0
 62 68  1  0
 63 64  2  0
 63 62  1  0
 65 59  2  0
 66 65  1  0
 66 61  2  0
 67 60  1  0
 68 58  1  0
 70 72  2  0
 71 70  1  0
 73 71  1  0
 74 83  2  0
 74 79  1  0
 75 71  1  0
 75 79  1  0
 76 75  1  0
 77 78  1  0
 77 76  1  0
 78 74  1  0
 79 80  2  0
 80 81  1  0
 82 81  2  0
 83 82  1  0
 84 58  1  0
 84 89  1  0
 84 85  1  0
 85 88  1  1
 85 86  1  0
 87 85  1  0
 89 92  1  0
 90 94  1  0
 90 89  1  0
 91 90  2  0
 94 93  1  0
 96 94  1  0
 96 97  1  0
 96 95  1  0
M  ISO  4   2 100  14 100  56 101  57 101
M  END
>  <TORSDO>  (82) 
F 20

>  <SCORE>  (82) 
-14.037

>  <name>  (82) 
81

>  <ligand_id>  (82) 
81

>  <original_smiles>  (82) 
[H]c1c([H])c([H])c2c(c1[H])C([H])([H])C([H])([H])C([H])([H])C2([H])N([H])C(=O)C1([H])N(C(=O)C([H])(N([H])C(=O)C([H])(N([H])C([H])([H])[H])C([H])([H])[H])C(C([H])([H])[H])(C([H])([H])[H])C([H])([H])[H])C([H])([H])c2c([H])c(OC([H])([H])C(=O)N([H])C([H])(c3sc(N([H])C(=O)N4C([H])([H])C([H])([H])C([H])([H])C([H])(n5nc(-c6c([H])c([H])c(Oc7c([H])c([H])c(F)c([H])c7F)c([H])c6[H])c(C(=O)N([H])[H])c5N([H])[H])C4([H])[H])nc3N([H])[H])C(C([H])([H])[H])(C([H])([H])[H])C([H])([H])[H])c([H])c([H])c2C1([H])[H]

>  <smiles>  (82) 
[H]c1c([H])c([H])c2c(c1[H])C([H])([H])C([H])([H])C([H])([H])C2([H])N([H])C(=O)C1([H])N(C(=O)C([H])(N([H])C(=O)C([H])(N([H])C([H])([H])[H])C([H])([H])[H])C(C([H])([H])[H])(C([H])([H])[H])C([H])([H])[H])C([H])([H])c2c([H])c(OC([H])([H])C(=O)N([H])C([H])(c3sc(N([H])C(=O)N4C([H])([H])C([H])([H])C([H])([H])C([H])(n5nc(-c6c([H])c([H])c(Oc7c([H])c([H])c(F)c([H])c7F)c([H])c6[H])c(C(=O)N([H])[H])c5N([H])[H])C4([H])[H])nc3N([H])[H])C(C([H])([H])[H])(C([H])([H])[H])C([H])([H])[H])c([H])c([H])c2C1([H])[H]

$$$$
82:0:0
     RDKit          3D

 91 99  0  0  1  0  0  0  0  0999 V2000
  -31.0920  -17.7550   21.7600 C   0  0  0  0  0  3  0  0  0  0  0  0
  -30.0870  -17.3620   20.9020 C   0  0  0  0  0  0  0  0  0  0  0  0
  -29.7670  -19.7420   20.9200 C   0  0  0  0  0  0  0  0  0  0  0  0
  -29.2830  -22.3130   21.1150 C   0  0  0  0  0  0  0  0  0  0  0  0
  -29.3520  -18.5220   20.4300 N   0  0  0  0  0  0  0  0  0  0  0  0
  -29.2770  -21.0750   20.4740 N   0  0  0  0  0  0  0  0  0  0  0  0
  -29.4150  -22.3630   22.3440 O   0  0  0  0  0  0  0  0  0  0  0  0
  -31.1150  -19.5010   22.0440 S   0  0  0  0  0  0  0  0  0  0  0  0
  -28.9840  -21.1130   19.5090 H   0  0  0  0  0  0  0  0  0  0  0  0
  -30.5800  -14.8150   20.4250 C   0  0  0  0  0  0  0  0  0  0  0  0
  -30.3940  -12.5640   19.3290 C   0  0  0  0  0  2  0  0  0  0  0  0
  -29.4390  -12.6160   18.1140 C   0  0  0  0  0  2  0  0  0  0  0  0
  -27.9710  -12.4370   18.5510 C   0  0  0  0  0  2  0  0  0  0  0  0
  -27.6000  -13.3120   19.7790 C   0  0  0  0  0  3  0  0  0  0  0  0
  -28.6650  -13.2080   20.8920 C   0  0  0  0  0  2  0  0  0  0  0  0
  -29.9510  -13.5930   20.2960 N   0  0  0  0  0  0  0  0  0  0  0  0
  -31.7760  -14.9130   20.1330 O   0  0  0  0  0  0  0  0  0  0  0  0
  -29.7820  -15.9390   20.6130 N   0  0  0  0  0  0  0  0  0  0  0  0
  -28.7980  -15.7360   20.5340 H   0  0  0  0  0  0  0  0  0  0  0  0
  -25.2100  -13.8990   20.4990 C   0  0  0  0  0  0  0  0  0  0  0  0
  -24.1480  -13.1240   20.8710 C   0  0  0  0  0  0  0  0  0  0  0  0
  -24.6160  -11.7730   20.8460 C   0  0  0  0  0  0  0  0  0  0  0  0
  -26.2580  -13.0220   20.2690 N   0  0  0  0  0  0  0  0  0  0  0  0
  -25.9070  -11.7390   20.5420 N   0  0  0  0  0  0  0  0  0  0  0  0
  -23.8930  -10.5100   21.0390 C   0  0  0  0  0  0  0  0  0  0  0  0
  -24.3360   -9.5400   21.9660 C   0  0  0  0  0  3  0  0  0  0  0  0
  -23.6120   -8.3400   22.1480 C   0  0  0  0  0  3  0  0  0  0  0  0
  -22.4330   -8.1020   21.4010 C   0  0  0  0  0  0  0  0  0  0  0  0
  -22.0110   -9.0620   20.4630 C   0  0  0  0  0  3  0  0  0  0  0  0
  -22.7340  -10.2520   20.2800 C   0  0  0  0  0  3  0  0  0  0  0  0
  -21.6850   -6.9560   21.4950 O   0  0  0  0  0  0  0  0  0  0  0  0
  -21.6550   -6.2050   22.6430 C   0  0  0  0  0  0  0  0  0  0  0  0
  -21.2590   -6.7530   23.8810 C   0  0  0  0  0  3  0  0  0  0  0  0
  -21.1750   -5.9300   25.0200 C   0  0  0  0  0  3  0  0  0  0  0  0
  -21.4790   -4.5570   24.9230 C   0  0  0  0  0  0  0  0  0  0  0  0
  -21.8670   -4.0080   23.6880 C   0  0  0  0  0  3  0  0  0  0  0  0
  -21.9510   -4.8300   22.5510 C   0  0  0  0  0  0  0  0  0  0  0  0
  -22.3060   -4.2920   21.3600 F   0  0  0  0  0  0  0  0  0  0  0  0
  -21.3910   -3.7640   26.0170 F   0  0  0  0  0  0  0  0  0  0  0  0
  -22.7480  -13.5950   21.1340 C   0  0  0  0  0  0  0  0  0  0  0  0
  -22.0190  -12.9030   21.9990 N   0  0  0  0  0  0  0  0  0  0  0  0
  -22.3090  -14.6180   20.6070 O   0  0  0  0  0  0  0  0  0  0  0  0
  -22.3860  -12.0760   22.4490 H   0  0  0  0  0  0  0  0  0  0  0  0
  -21.0800  -13.2010   22.2190 H   0  0  0  0  0  0  0  0  0  0  0  0
  -25.3690  -15.2710   20.3120 N   0  0  0  0  0  0  0  0  0  0  0  0
  -24.5900  -15.9140   20.3990 H   0  0  0  0  0  0  0  0  0  0  0  0
  -26.2000  -15.7100   19.9420 H   0  0  0  0  0  0  0  0  0  0  0  0
  -29.1700  -23.7180   20.3130 C   0  0  0  0  0  3  0  0  0  0  0  0
  -29.0000  -23.4450   19.0130 F   0  0  0  0  0  0  0  0  0  0  0  0
  -28.1730  -24.9430   20.7540 C   0  0  0  0  0  2  0  0  0  0  0  0
  -28.3700  -26.3860   20.3090 O   0  0  0  0  0  0  0  0  0  0  0  0
  -24.6420  -31.9090   23.2410 C   0  0  0  0  0  0  0  0  0  0  0  0
  -27.2630  -27.2750   20.2640 C   0  0  0  0  0  0  0  0  0  0  0  0
  -23.4420  -30.5050   21.6010 C   0  0  0  0  0  3  0  0  0  0  0  0
  -24.9010  -28.9290   20.1980 C   0  0  0  0  0  0  0  0  0  0  0  0
  -25.9900  -30.7960   21.4410 C   0  0  0  0  0  2  0  0  0  0  0  0
  -26.0700  -29.4090   20.8060 C   0  0  0  0  0  0  0  0  0  0  0  0
  -27.2520  -28.5970   20.8270 C   0  0  0  0  0  3  0  0  0  0  0  0
  -26.0800  -26.8650   19.6100 C   0  0  0  0  0  3  0  0  0  0  0  0
  -24.9150  -27.6650   19.5850 C   0  0  0  0  0  3  0  0  0  0  0  0
  -23.6670  -29.8170   20.2290 C   0  0  0  0  0  2  0  0  0  0  0  0
  -24.7080  -31.0940   22.1470 N   0  0  0  0  0  0  0  0  0  0  0  0
  -23.5560  -32.1920   23.7710 O   0  0  0  0  0  0  0  0  0  0  0  0
  -22.7750  -29.4950   22.5670 C   0  0  0  0  0  0  0  0  0  0  0  0
  -21.4500  -29.3190   22.4440 N   0  0  0  0  0  0  0  0  0  0  0  0
  -23.4510  -28.8680   23.3860 O   0  0  0  0  0  0  0  0  0  0  0  0
  -20.9570  -29.8630   21.7500 H   0  0  0  0  0  0  0  0  0  0  0  0
  -18.0720  -28.1220   22.9660 C   0  0  0  0  0  0  0  0  0  0  0  0
  -20.6330  -28.3870   23.2240 C   0  0  0  0  0  3  0  0  0  0  0  0
  -20.7350  -26.9520   22.6600 C   0  0  0  0  0  2  0  0  0  0  0  0
  -19.6300  -26.6220   21.6500 C   0  0  0  0  0  2  0  0  0  0  0  0
  -18.2490  -26.7690   22.2960 C   0  0  0  0  0  2  0  0  0  0  0  0
  -19.1920  -28.8870   23.3880 C   0  0  0  0  0  0  0  0  0  0  0  0
  -18.9780  -30.1520   23.9760 C   0  0  0  0  0  3  0  0  0  0  0  0
  -17.6740  -30.6520   24.1520 C   0  0  0  0  0  3  0  0  0  0  0  0
  -16.5670  -29.8870   23.7470 C   0  0  0  0  0  3  0  0  0  0  0  0
  -16.7680  -28.6250   23.1590 C   0  0  0  0  0  3  0  0  0  0  0  0
  -25.9230  -32.5520   23.8570 C   0  0  0  0  0  3  0  0  0  0  0  0
  -25.6070  -33.9500   24.1850 N   0  0  0  0  0  0  0  0  0  0  0  0
  -25.9280  -35.0050   23.4230 C   0  0  0  0  0  0  0  0  0  0  0  0
  -26.5980  -34.9070   22.3920 O   0  0  0  0  0  0  0  0  0  0  0  0
  -25.0190  -34.1030   24.9910 H   0  0  0  0  0  0  0  0  0  0  0  0
  -24.1940  -36.7940   23.0770 C   0  0  0  0  0  1  0  0  0  0  0  0
  -25.4360  -36.3900   23.8850 C   0  0  0  0  0  3  0  0  0  0  0  0
  -27.5660  -37.2860   24.7180 C   0  0  0  0  0  1  0  0  0  0  0  0
  -26.4630  -37.4490   23.7750 N   0  0  0  0  0  0  0  0  0  0  0  0
  -26.0490  -38.3650   23.9300 H   0  0  0  0  0  0  0  0  0  0  0  0
  -26.4470  -31.7910   25.1370 C   0  0  1  0  0  0  0  0  0  0  0  0
  -25.3590  -31.5580   26.2120 C   0  0  0  0  0  1  0  0  0  0  0  0
  -27.0390  -30.4130   24.7630 C   0  0  0  0  0  1  0  0  0  0  0  0
  -27.5900  -32.6000   25.7960 C   0  0  0  0  0  1  0  0  0  0  0  0
  1  8  1  0
  2  1  2  0
  3  8  1  0
  4  7  2  0
  5  2  1  0
  5  3  2  0
  6  3  1  0
  6  4  1  0
  9  6  1  0
 10 18  1  0
 11 16  1  0
 12 13  1  0
 12 11  1  0
 14 13  1  0
 14 23  1  0
 14 15  1  0
 16 10  1  0
 16 15  1  0
 17 10  2  0
 18  2  1  0
 19 18  1  0
 20 21  2  0
 21 40  1  0
 22 21  1  0
 22 25  1  0
 23 20  1  0
 23 24  1  0
 24 22  2  0
 25 26  1  0
 26 27  2  0
 28 31  1  0
 28 27  1  0
 29 28  2  0
 30 29  1  0
 30 25  2  0
 31 32  1  0
 32 33  1  0
 33 34  2  0
 35 34  1  0
 35 39  1  0
 36 35  2  0
 37 32  2  0
 37 36  1  0
 38 37  1  0
 40 41  1  0
 41 44  1  0
 41 43  1  0
 42 40  2  0
 45 46  1  0
 45 20  1  0
 47 45  1  0
 48 49  1  0
 48 50  1  0
 48  4  1  0
 51 50  1  0
 52 63  2  0
 53 51  1  0
 53 58  1  0
 54 62  1  0
 54 64  1  0
 55 61  1  0
 55 57  1  0
 56 62  1  0
 57 58  2  0
 57 56  1  0
 59 53  2  0
 60 59  1  0
 60 55  2  0
 61 54  1  0
 62 52  1  0
 64 66  2  0
 65 64  1  0
 67 65  1  0
 68 77  2  0
 68 73  1  0
 69 65  1  0
 69 73  1  0
 70 69  1  0
 71 72  1  0
 71 70  1  0
 72 68  1  0
 73 74  2  0
 74 75  1  0
 76 75  2  0
 77 76  1  0
 78 52  1  0
 78 79  1  0
 78 88  1  0
 79 82  1  0
 80 84  1  0
 80 79  1  0
 81 80  2  0
 84 83  1  0
 86 84  1  0
 86 87  1  0
 86 85  1  0
 88 91  1  1
 88 89  1  0
 90 88  1  0
M  ISO  4  10 100  18 100  50 101  51 101
M  END
>  <TORSDO>  (83) 
F 18

>  <SCORE>  (83) 
-14.806

>  <name>  (83) 
82

>  <ligand_id>  (83) 
82

>  <original_smiles>  (83) 
[H]c1sc(N([H])C(=O)C([H])(F)C([H])([H])Oc2c([H])c([H])c3c(c2[H])C([H])([H])N(C(=O)C([H])(N([H])C(=O)C([H])(N([H])C([H])([H])[H])C([H])([H])[H])C(C([H])([H])[H])(C([H])([H])[H])C([H])([H])[H])C([H])(C(=O)N([H])C2([H])c4c([H])c([H])c([H])c([H])c4C([H])([H])C([H])([H])C2([H])[H])C3([H])[H])nc1N([H])C(=O)N1C([H])([H])C([H])([H])C([H])([H])C([H])(n2nc(-c3c([H])c([H])c(Oc4c([H])c([H])c(F)c([H])c4F)c([H])c3[H])c(C(=O)N([H])[H])c2N([H])[H])C1([H])[H]

>  <smiles>  (83) 
[H]c1sc(N([H])C(=O)C([H])(F)C([H])([H])Oc2c([H])c([H])c3c(c2[H])C([H])([H])N(C(=O)C([H])(N([H])C(=O)C([H])(N([H])C([H])([H])[H])C([H])([H])[H])C(C([H])([H])[H])(C([H])([H])[H])C([H])([H])[H])C([H])(C(=O)N([H])C2([H])c4c([H])c([H])c([H])c([H])c4C([H])([H])C([H])([H])C2([H])[H])C3([H])[H])nc1N([H])C(=O)N1C([H])([H])C([H])([H])C([H])([H])C([H])(n2nc(-c3c([H])c([H])c(Oc4c([H])c([H])c(F)c([H])c4F)c([H])c3[H])c(C(=O)N([H])[H])c2N([H])[H])C1([H])[H]

$$$$
83:0:0
     RDKit          3D

 94102  0  0  1  0  0  0  0  0999 V2000
  -29.2250  -18.1000   18.4510 C   0  0  0  0  0  3  0  0  0  0  0  0
  -29.2930  -19.3090   19.1520 C   0  0  0  0  0  3  0  0  0  0  0  0
  -29.4420  -16.8990   19.1350 C   0  0  0  0  0  0  0  0  0  0  0  0
  -29.5700  -19.3160   20.5320 C   0  0  0  0  0  0  0  0  0  0  0  0
  -29.7700  -16.9210   20.5120 C   0  0  0  0  0  0  0  0  0  0  0  0
  -29.0310  -21.7730   20.9020 C   0  0  0  0  0  0  0  0  0  0  0  0
  -29.8160  -18.1270   21.1830 N   0  0  0  0  0  0  0  0  0  0  0  0
  -29.6880  -20.6030   21.1750 N   0  0  0  0  0  0  0  0  0  0  0  0
  -27.9970  -21.8190   20.2330 O   0  0  0  0  0  0  0  0  0  0  0  0
  -29.3170  -15.7400   18.4490 F   0  0  0  0  0  0  0  0  0  0  0  0
  -30.4190  -20.6680   21.8680 H   0  0  0  0  0  0  0  0  0  0  0  0
  -30.6600  -14.6000   20.6810 C   0  0  0  0  0  0  0  0  0  0  0  0
  -30.4220  -12.3960   19.5770 C   0  0  0  0  0  2  0  0  0  0  0  0
  -29.5230  -12.5540   18.3320 C   0  0  0  0  0  2  0  0  0  0  0  0
  -28.0290  -12.4560   18.7040 C   0  0  0  0  0  2  0  0  0  0  0  0
  -27.6510  -13.2900   19.9590 C   0  0  0  0  0  3  0  0  0  0  0  0
  -28.6750  -13.0940   21.1020 C   0  0  0  0  0  2  0  0  0  0  0  0
  -30.0110  -13.4040   20.5730 N   0  0  0  0  0  0  0  0  0  0  0  0
  -31.8120  -14.7620   20.2630 O   0  0  0  0  0  0  0  0  0  0  0  0
  -29.9330  -15.6430   21.1650 N   0  0  0  0  0  0  0  0  0  0  0  0
  -29.1410  -15.3640   21.7180 H   0  0  0  0  0  0  0  0  0  0  0  0
  -25.2360  -13.8920   20.6110 C   0  0  0  0  0  0  0  0  0  0  0  0
  -24.1580  -13.1180   20.9490 C   0  0  0  0  0  0  0  0  0  0  0  0
  -24.6200  -11.7670   20.9250 C   0  0  0  0  0  0  0  0  0  0  0  0
  -26.2850  -13.0100   20.3990 N   0  0  0  0  0  0  0  0  0  0  0  0
  -25.9170  -11.7260   20.6480 N   0  0  0  0  0  0  0  0  0  0  0  0
  -23.8850  -10.5040   21.0910 C   0  0  0  0  0  0  0  0  0  0  0  0
  -24.2790   -9.5400   22.0450 C   0  0  0  0  0  3  0  0  0  0  0  0
  -23.5480   -8.3430   22.2010 C   0  0  0  0  0  3  0  0  0  0  0  0
  -22.4080   -8.1000   21.3990 C   0  0  0  0  0  0  0  0  0  0  0  0
  -22.0330   -9.0500   20.4320 C   0  0  0  0  0  3  0  0  0  0  0  0
  -22.7670  -10.2390   20.2760 C   0  0  0  0  0  3  0  0  0  0  0  0
  -21.6520   -6.9540   21.4630 O   0  0  0  0  0  0  0  0  0  0  0  0
  -21.5430   -6.2270   22.6220 C   0  0  0  0  0  0  0  0  0  0  0  0
  -21.0020   -6.7830   23.8010 C   0  0  0  0  0  3  0  0  0  0  0  0
  -20.8440   -5.9780   24.9490 C   0  0  0  0  0  3  0  0  0  0  0  0
  -21.2170   -4.6210   24.9160 C   0  0  0  0  0  0  0  0  0  0  0  0
  -21.7520   -4.0660   23.7400 C   0  0  0  0  0  3  0  0  0  0  0  0
  -21.9120   -4.8670   22.5960 C   0  0  0  0  0  0  0  0  0  0  0  0
  -22.4110   -4.3210   21.4610 F   0  0  0  0  0  0  0  0  0  0  0  0
  -21.0570   -3.8480   26.0160 F   0  0  0  0  0  0  0  0  0  0  0  0
  -22.7530  -13.5940   21.1850 C   0  0  0  0  0  0  0  0  0  0  0  0
  -21.9990  -12.8890   22.0200 N   0  0  0  0  0  0  0  0  0  0  0  0
  -22.3330  -14.6250   20.6620 O   0  0  0  0  0  0  0  0  0  0  0  0
  -22.3490  -12.0560   22.4690 H   0  0  0  0  0  0  0  0  0  0  0  0
  -21.0530  -13.1860   22.2140 H   0  0  0  0  0  0  0  0  0  0  0  0
  -25.4140  -15.2620   20.4470 N   0  0  0  0  0  0  0  0  0  0  0  0
  -24.6600  -15.9290   20.5660 H   0  0  0  0  0  0  0  0  0  0  0  0
  -26.2720  -15.6850   20.1160 H   0  0  0  0  0  0  0  0  0  0  0  0
  -29.5880  -23.0960   21.5150 C   0  0  0  0  0  3  0  0  0  0  0  0
  -30.8180  -23.3090   21.0400 F   0  0  0  0  0  0  0  0  0  0  0  0
  -28.7360  -24.4290   21.4460 C   0  0  0  0  0  2  0  0  0  0  0  0
  -28.7290  -25.3100   20.1480 C   0  0  0  0  0  2  0  0  0  0  0  0
  -28.5720  -26.7410   20.4020 O   0  0  0  0  0  0  0  0  0  0  0  0
  -24.5650  -31.9270   23.2470 C   0  0  0  0  0  0  0  0  0  0  0  0
  -27.3640  -27.4300   20.3250 C   0  0  0  0  0  0  0  0  0  0  0  0
  -23.4310  -30.4910   21.5870 C   0  0  0  0  0  3  0  0  0  0  0  0
  -24.9460  -28.9420   20.2280 C   0  0  0  0  0  0  0  0  0  0  0  0
  -25.9600  -30.8620   21.4680 C   0  0  0  0  0  2  0  0  0  0  0  0
  -26.0810  -29.4810   20.8450 C   0  0  0  0  0  0  0  0  0  0  0  0
  -27.2880  -28.7360   20.8780 C   0  0  0  0  0  3  0  0  0  0  0  0
  -26.2040  -26.9130   19.7020 C   0  0  0  0  0  3  0  0  0  0  0  0
  -25.0080  -27.6620   19.6480 C   0  0  0  0  0  3  0  0  0  0  0  0
  -23.6930  -29.7950   20.2230 C   0  0  0  0  0  2  0  0  0  0  0  0
  -24.6680  -31.1130   22.1580 N   0  0  0  0  0  0  0  0  0  0  0  0
  -23.4640  -32.1940   23.7500 O   0  0  0  0  0  0  0  0  0  0  0  0
  -22.7560  -29.4780   22.5410 C   0  0  0  0  0  0  0  0  0  0  0  0
  -21.4350  -29.2910   22.3860 N   0  0  0  0  0  0  0  0  0  0  0  0
  -23.4220  -28.8610   23.3780 O   0  0  0  0  0  0  0  0  0  0  0  0
  -20.9590  -29.8430   21.6880 H   0  0  0  0  0  0  0  0  0  0  0  0
  -18.0460  -28.1240   22.8600 C   0  0  0  0  0  0  0  0  0  0  0  0
  -20.6040  -28.3550   23.1440 C   0  0  0  0  0  3  0  0  0  0  0  0
  -20.6950  -26.9280   22.5550 C   0  0  0  0  0  2  0  0  0  0  0  0
  -19.5950  -26.6250   21.5330 C   0  0  0  0  0  2  0  0  0  0  0  0
  -18.2110  -26.7790   22.1720 C   0  0  0  0  0  2  0  0  0  0  0  0
  -19.1700  -28.8710   23.3020 C   0  0  0  0  0  0  0  0  0  0  0  0
  -18.9610  -30.1300   23.9040 C   0  0  0  0  0  3  0  0  0  0  0  0
  -17.6610  -30.6430   24.0690 C   0  0  0  0  0  3  0  0  0  0  0  0
  -16.5510  -29.8940   23.6420 C   0  0  0  0  0  3  0  0  0  0  0  0
  -16.7440  -28.6360   23.0440 C   0  0  0  0  0  3  0  0  0  0  0  0
  -25.8220  -32.5830   23.9010 C   0  0  0  0  0  3  0  0  0  0  0  0
  -26.3070  -31.8380   25.2060 C   0  0  1  0  0  0  0  0  0  0  0  0
  -25.1820  -31.5970   26.2410 C   0  0  0  0  0  1  0  0  0  0  0  0
  -26.9210  -30.4640   24.8510 C   0  0  0  0  0  1  0  0  0  0  0  0
  -27.4220  -32.6580   25.8960 C   0  0  0  0  0  1  0  0  0  0  0  0
  -25.4900  -33.9830   24.1990 N   0  0  0  0  0  0  0  0  0  0  0  0
  -25.8320  -35.0280   23.4330 C   0  0  0  0  0  0  0  0  0  0  0  0
  -26.5310  -34.9160   22.4230 O   0  0  0  0  0  0  0  0  0  0  0  0
  -24.8700  -34.1430   24.9800 H   0  0  0  0  0  0  0  0  0  0  0  0
  -24.1030  -36.8020   22.9900 C   0  0  0  0  0  1  0  0  0  0  0  0
  -25.3150  -36.4170   23.8550 C   0  0  0  0  0  3  0  0  0  0  0  0
  -27.4020  -37.3380   24.7650 C   0  0  0  0  0  1  0  0  0  0  0  0
  -26.3420  -37.4790   23.7700 N   0  0  0  0  0  0  0  0  0  0  0  0
  -25.9220  -38.3980   23.8810 H   0  0  0  0  0  0  0  0  0  0  0  0
  1  3  2  0
  1  2  1  0
  2  4  2  0
  3  5  1  0
  4  8  1  0
  4  7  1  0
  5 20  1  0
  5  7  2  0
  6  8  1  0
  6 50  1  0
  8 11  1  0
  9  6  2  0
 10  3  1  0
 12 20  1  0
 13 18  1  0
 14 15  1  0
 14 13  1  0
 16 15  1  0
 16 25  1  0
 16 17  1  0
 18 12  1  0
 18 17  1  0
 19 12  2  0
 20 21  1  0
 22 23  2  0
 23 42  1  0
 24 23  1  0
 24 27  1  0
 25 22  1  0
 25 26  1  0
 26 24  2  0
 27 28  1  0
 28 29  2  0
 30 33  1  0
 30 29  1  0
 31 30  2  0
 32 31  1  0
 32 27  2  0
 33 34  1  0
 34 35  1  0
 35 36  2  0
 37 36  1  0
 37 41  1  0
 38 37  2  0
 39 34  2  0
 39 38  1  0
 40 39  1  0
 42 43  1  0
 43 46  1  0
 43 45  1  0
 44 42  2  0
 47 48  1  0
 47 22  1  0
 49 47  1  0
 50 51  1  0
 52 50  1  0
 53 54  1  0
 53 52  1  0
 55 66  2  0
 56 54  1  0
 56 61  1  0
 57 65  1  0
 57 67  1  0
 58 60  1  0
 59 65  1  0
 60 61  2  0
 60 59  1  0
 62 56  2  0
 63 62  1  0
 63 58  2  0
 64 58  1  0
 64 57  1  0
 65 55  1  0
 67 69  2  0
 68 67  1  0
 70 68  1  0
 71 80  2  0
 71 76  1  0
 72 68  1  0
 72 76  1  0
 73 72  1  0
 74 75  1  0
 74 73  1  0
 75 71  1  0
 76 77  2  0
 77 78  1  0
 79 78  2  0
 80 79  1  0
 81 55  1  0
 81 86  1  0
 81 82  1  0
 82 85  1  1
 82 83  1  0
 84 82  1  0
 86 89  1  0
 87 91  1  0
 87 86  1  0
 88 87  2  0
 91 90  1  0
 93 91  1  0
 93 94  1  0
 93 92  1  0
M  ISO  4  12 100  20 100  53 101  54 101
M  END
>  <TORSDO>  (84) 
F 19

>  <SCORE>  (84) 
-14.370

>  <name>  (84) 
83

>  <ligand_id>  (84) 
83

>  <original_smiles>  (84) 
[H]c1c(N([H])C(=O)C([H])(F)C([H])([H])C([H])([H])Oc2c([H])c([H])c3c(c2[H])C([H])([H])N(C(=O)C([H])(N([H])C(=O)C([H])(N([H])C([H])([H])[H])C([H])([H])[H])C(C([H])([H])[H])(C([H])([H])[H])C([H])([H])[H])C([H])(C(=O)N([H])C2([H])c4c([H])c([H])c([H])c([H])c4C([H])([H])C([H])([H])C2([H])[H])C3([H])[H])nc(N([H])C(=O)N2C([H])([H])C([H])([H])C([H])([H])C([H])(n3nc(-c4c([H])c([H])c(Oc5c([H])c([H])c(F)c([H])c5F)c([H])c4[H])c(C(=O)N([H])[H])c3N([H])[H])C2([H])[H])c(F)c1[H]

>  <smiles>  (84) 
[H]c1c(N([H])C(=O)C([H])(F)C([H])([H])C([H])([H])Oc2c([H])c([H])c3c(c2[H])C([H])([H])N(C(=O)C([H])(N([H])C(=O)C([H])(N([H])C([H])([H])[H])C([H])([H])[H])C(C([H])([H])[H])(C([H])([H])[H])C([H])([H])[H])C([H])(C(=O)N([H])C2([H])c4c([H])c([H])c([H])c([H])c4C([H])([H])C([H])([H])C2([H])[H])C3([H])[H])nc(N([H])C(=O)N2C([H])([H])C([H])([H])C([H])([H])C([H])(n3nc(-c4c([H])c([H])c(Oc5c([H])c([H])c(F)c([H])c5F)c([H])c4[H])c(C(=O)N([H])[H])c3N([H])[H])C2([H])[H])c(F)c1[H]

$$$$
84:0:0
     RDKit          3D

 90 98  0  0  1  0  0  0  0  0999 V2000
  -30.4530  -17.9180   21.9980 C   0  0  0  0  0  3  0  0  0  0  0  0
  -30.0220  -17.6150   20.7260 C   0  0  0  0  0  0  0  0  0  0  0  0
  -29.8310  -20.0060   20.7570 C   0  0  0  0  0  0  0  0  0  0  0  0
  -29.0760  -22.4700   20.8820 C   0  0  0  0  0  0  0  0  0  0  0  0
  -29.7100  -18.8470   20.0280 N   0  0  0  0  0  0  0  0  0  0  0  0
  -29.6660  -21.3860   20.2580 N   0  0  0  0  0  0  0  0  0  0  0  0
  -28.2190  -22.2800   21.7490 O   0  0  0  0  0  0  0  0  0  0  0  0
  -30.4120  -19.6390   22.3790 S   0  0  0  0  0  0  0  0  0  0  0  0
  -30.1890  -21.5930   19.4200 H   0  0  0  0  0  0  0  0  0  0  0  0
  -29.6310  -16.1740   20.2030 C   0  0  0  0  0  2  0  0  0  0  0  0
  -30.5860  -14.8750   20.1570 C   0  0  0  0  0  0  0  0  0  0  0  0
  -30.4200  -12.6250   19.0900 C   0  0  0  0  0  2  0  0  0  0  0  0
  -29.4360  -12.7590   17.9010 C   0  0  0  0  0  2  0  0  0  0  0  0
  -27.9760  -12.5670   18.3640 C   0  0  0  0  0  2  0  0  0  0  0  0
  -27.6410  -13.3960   19.6300 C   0  0  0  0  0  3  0  0  0  0  0  0
  -28.7350  -13.2340   20.7080 C   0  0  0  0  0  2  0  0  0  0  0  0
  -30.0240  -13.6170   20.1130 N   0  0  0  0  0  0  0  0  0  0  0  0
  -31.7800  -15.0120   19.8680 O   0  0  0  0  0  0  0  0  0  0  0  0
  -25.2670  -13.9680   20.4240 C   0  0  0  0  0  0  0  0  0  0  0  0
  -24.2160  -13.1830   20.8120 C   0  0  0  0  0  0  0  0  0  0  0  0
  -24.6870  -11.8370   20.7560 C   0  0  0  0  0  0  0  0  0  0  0  0
  -26.3110  -13.0980   20.1510 N   0  0  0  0  0  0  0  0  0  0  0  0
  -25.9700  -11.8110   20.4130 N   0  0  0  0  0  0  0  0  0  0  0  0
  -23.9760  -10.5660   20.9510 C   0  0  0  0  0  0  0  0  0  0  0  0
  -24.4260   -9.6020   21.8790 C   0  0  0  0  0  3  0  0  0  0  0  0
  -23.7150   -8.3970   22.0620 C   0  0  0  0  0  3  0  0  0  0  0  0
  -22.5380   -8.1480   21.3160 C   0  0  0  0  0  0  0  0  0  0  0  0
  -22.1060   -9.1010   20.3770 C   0  0  0  0  0  3  0  0  0  0  0  0
  -22.8190  -10.2980   20.1920 C   0  0  0  0  0  3  0  0  0  0  0  0
  -21.7970   -6.9940   21.4080 O   0  0  0  0  0  0  0  0  0  0  0  0
  -21.7500   -6.2590   22.5650 C   0  0  0  0  0  0  0  0  0  0  0  0
  -21.2680   -6.8050   23.7750 C   0  0  0  0  0  3  0  0  0  0  0  0
  -21.1730   -5.9940   24.9230 C   0  0  0  0  0  3  0  0  0  0  0  0
  -21.5480   -4.6380   24.8630 C   0  0  0  0  0  0  0  0  0  0  0  0
  -22.0220   -4.0920   23.6570 C   0  0  0  0  0  3  0  0  0  0  0  0
  -22.1200   -4.9010   22.5100 C   0  0  0  0  0  0  0  0  0  0  0  0
  -22.5580   -4.3650   21.3460 F   0  0  0  0  0  0  0  0  0  0  0  0
  -21.4480   -3.8570   25.9630 F   0  0  0  0  0  0  0  0  0  0  0  0
  -22.8210  -13.6470   21.1220 C   0  0  0  0  0  0  0  0  0  0  0  0
  -22.1180  -12.9340   21.9950 N   0  0  0  0  0  0  0  0  0  0  0  0
  -22.3650  -14.6760   20.6280 O   0  0  0  0  0  0  0  0  0  0  0  0
  -22.5000  -12.1010   22.4170 H   0  0  0  0  0  0  0  0  0  0  0  0
  -21.1830  -13.2250   22.2450 H   0  0  0  0  0  0  0  0  0  0  0  0
  -25.4150  -15.3420   20.2570 N   0  0  0  0  0  0  0  0  0  0  0  0
  -24.6440  -15.9860   20.3960 H   0  0  0  0  0  0  0  0  0  0  0  0
  -26.2470  -15.7950   19.9010 H   0  0  0  0  0  0  0  0  0  0  0  0
  -29.4590  -23.9960   20.5650 C   0  0  0  0  0  2  0  0  0  0  0  0
  -28.5170  -24.9550   18.4160 C   0  0  0  0  0  1  0  0  0  0  0  0
  -28.4000  -25.0570   19.9530 C   0  0  0  0  0  3  0  0  0  0  0  0
  -28.4910  -26.5180   20.3230 O   0  0  0  0  0  0  0  0  0  0  0  0
  -24.6310  -31.9340   23.2660 C   0  0  0  0  0  0  0  0  0  0  0  0
  -27.3560  -27.3690   20.2620 C   0  0  0  0  0  0  0  0  0  0  0  0
  -23.4770  -30.5200   21.6070 C   0  0  0  0  0  3  0  0  0  0  0  0
  -24.9720  -28.9860   20.2120 C   0  0  0  0  0  0  0  0  0  0  0  0
  -26.0210  -30.8600   21.4720 C   0  0  0  0  0  2  0  0  0  0  0  0
  -26.1300  -29.4810   20.8240 C   0  0  0  0  0  0  0  0  0  0  0  0
  -27.3240  -28.6880   20.8320 C   0  0  0  0  0  3  0  0  0  0  0  0
  -26.1540  -26.9330   19.6510 C   0  0  0  0  0  3  0  0  0  0  0  0
  -24.9890  -27.7180   19.6170 C   0  0  0  0  0  3  0  0  0  0  0  0
  -23.7260  -29.8500   20.2320 C   0  0  0  0  0  2  0  0  0  0  0  0
  -24.7270  -31.1230   22.1710 N   0  0  0  0  0  0  0  0  0  0  0  0
  -23.5330  -32.1990   23.7780 O   0  0  0  0  0  0  0  0  0  0  0  0
  -22.8060  -29.4970   22.5550 C   0  0  0  0  0  0  0  0  0  0  0  0
  -21.4860  -29.2990   22.4000 N   0  0  0  0  0  0  0  0  0  0  0  0
  -23.4760  -28.8820   23.3890 O   0  0  0  0  0  0  0  0  0  0  0  0
  -21.0040  -29.8480   21.7010 H   0  0  0  0  0  0  0  0  0  0  0  0
  -18.1130  -28.0630   22.8400 C   0  0  0  0  0  0  0  0  0  0  0  0
  -20.6640  -28.3520   23.1560 C   0  0  0  0  0  3  0  0  0  0  0  0
  -20.7920  -26.9220   22.5830 C   0  0  0  0  0  2  0  0  0  0  0  0
  -19.7140  -26.5860   21.5490 C   0  0  0  0  0  2  0  0  0  0  0  0
  -18.3190  -26.7150   22.1680 C   0  0  0  0  0  2  0  0  0  0  0  0
  -19.2150  -28.8380   23.2890 C   0  0  0  0  0  0  0  0  0  0  0  0
  -18.9700  -30.0980   23.8770 C   0  0  0  0  0  3  0  0  0  0  0  0
  -17.6570  -30.5830   24.0190 C   0  0  0  0  0  3  0  0  0  0  0  0
  -16.5690  -29.8050   23.5860 C   0  0  0  0  0  3  0  0  0  0  0  0
  -16.7980  -28.5470   23.0010 C   0  0  0  0  0  3  0  0  0  0  0  0
  -25.8930  -32.5840   23.9120 C   0  0  0  0  0  3  0  0  0  0  0  0
  -26.3740  -31.8390   25.2180 C   0  0  1  0  0  0  0  0  0  0  0  0
  -25.2490  -31.6110   26.2550 C   0  0  0  0  0  1  0  0  0  0  0  0
  -26.9800  -30.4610   24.8710 C   0  0  0  0  0  1  0  0  0  0  0  0
  -27.4960  -32.6550   25.9020 C   0  0  0  0  0  1  0  0  0  0  0  0
  -25.5670  -33.9870   24.2090 N   0  0  0  0  0  0  0  0  0  0  0  0
  -25.9080  -35.0280   23.4380 C   0  0  0  0  0  0  0  0  0  0  0  0
  -26.5980  -34.9100   22.4220 O   0  0  0  0  0  0  0  0  0  0  0  0
  -24.9550  -34.1520   24.9960 H   0  0  0  0  0  0  0  0  0  0  0  0
  -24.1860  -36.8110   23.0070 C   0  0  0  0  0  1  0  0  0  0  0  0
  -25.4040  -36.4220   23.8610 C   0  0  0  0  0  3  0  0  0  0  0  0
  -27.5040  -37.3330   24.7490 C   0  0  0  0  0  1  0  0  0  0  0  0
  -26.4370  -37.4760   23.7620 N   0  0  0  0  0  0  0  0  0  0  0  0
  -26.0230  -38.3990   23.8740 H   0  0  0  0  0  0  0  0  0  0  0  0
  1  8  1  0
  2  1  2  0
  3  8  1  0
  4  7  2  0
  5  2  1  0
  5  3  2  0
  6  3  1  0
  6  4  1  0
  9  6  1  0
 10  2  1  0
 11 10  1  0
 12 17  1  0
 13 14  1  0
 13 12  1  0
 15 14  1  0
 15 22  1  0
 15 16  1  0
 17 11  1  0
 17 16  1  0
 18 11  2  0
 19 20  2  0
 20 39  1  0
 21 20  1  0
 21 24  1  0
 22 23  1  0
 22 19  1  0
 23 21  2  0
 24 25  1  0
 25 26  2  0
 27 30  1  0
 27 26  1  0
 28 27  2  0
 29 28  1  0
 29 24  2  0
 30 31  1  0
 31 32  1  0
 32 33  2  0
 34 33  1  0
 34 38  1  0
 35 34  2  0
 36 31  2  0
 36 35  1  0
 37 36  1  0
 39 40  1  0
 40 43  1  0
 40 42  1  0
 41 39  2  0
 44 45  1  0
 44 19  1  0
 46 44  1  0
 47  4  1  0
 49 48  1  0
 49 50  1  0
 49 47  1  0
 51 62  2  0
 52 50  1  0
 52 57  1  0
 53 61  1  0
 53 63  1  0
 54 60  1  0
 54 56  1  0
 55 61  1  0
 56 57  2  0
 56 55  1  0
 58 52  2  0
 59 58  1  0
 59 54  2  0
 60 53  1  0
 61 51  1  0
 63 65  2  0
 64 63  1  0
 66 64  1  0
 67 76  2  0
 67 72  1  0
 68 64  1  0
 68 72  1  0
 69 68  1  0
 70 71  1  0
 70 69  1  0
 71 67  1  0
 72 73  2  0
 73 74  1  0
 75 74  2  0
 76 75  1  0
 77 51  1  0
 77 82  1  0
 77 78  1  0
 78 81  1  1
 78 79  1  0
 80 78  1  0
 82 85  1  0
 83 87  1  0
 83 82  1  0
 84 83  2  0
 87 86  1  0
 89 87  1  0
 89 90  1  0
 89 88  1  0
M  ISO  4  10 100  11 100  49 101  50 101
M  END
>  <TORSDO>  (85) 
F 19

>  <SCORE>  (85) 
-13.837

>  <name>  (85) 
84

>  <ligand_id>  (85) 
84

>  <original_smiles>  (85) 
[H]c1sc(N([H])C(=O)C([H])([H])C([H])(Oc2c([H])c([H])c3c(c2[H])C([H])([H])N(C(=O)C([H])(N([H])C(=O)C([H])(N([H])C([H])([H])[H])C([H])([H])[H])C(C([H])([H])[H])(C([H])([H])[H])C([H])([H])[H])C([H])(C(=O)N([H])C2([H])c4c([H])c([H])c([H])c([H])c4C([H])([H])C([H])([H])C2([H])[H])C3([H])[H])C([H])([H])[H])nc1C([H])([H])C(=O)N1C([H])([H])C([H])([H])C([H])([H])C([H])(n2nc(-c3c([H])c([H])c(Oc4c([H])c([H])c(F)c([H])c4F)c([H])c3[H])c(C(=O)N([H])[H])c2N([H])[H])C1([H])[H]

>  <smiles>  (85) 
[H]c1sc(N([H])C(=O)C([H])([H])C([H])(Oc2c([H])c([H])c3c(c2[H])C([H])([H])N(C(=O)C([H])(N([H])C(=O)C([H])(N([H])C([H])([H])[H])C([H])([H])[H])C(C([H])([H])[H])(C([H])([H])[H])C([H])([H])[H])C([H])(C(=O)N([H])C2([H])c4c([H])c([H])c([H])c([H])c4C([H])([H])C([H])([H])C2([H])[H])C3([H])[H])C([H])([H])[H])nc1C([H])([H])C(=O)N1C([H])([H])C([H])([H])C([H])([H])C([H])(n2nc(-c3c([H])c([H])c(Oc4c([H])c([H])c(F)c([H])c4F)c([H])c3[H])c(C(=O)N([H])[H])c2N([H])[H])C1([H])[H]

$$$$
85:0:0
     RDKit          3D

 87 95  0  0  1  0  0  0  0  0999 V2000
  -28.9440  -21.3580   19.5450 C   0  0  0  0  0  3  0  0  0  0  0  0
  -28.7600  -22.0940   21.4750 C   0  0  0  0  0  3  0  0  0  0  0  0
  -29.2620  -20.1240   20.3150 C   0  0  0  0  0  0  0  0  0  0  0  0
  -29.1230  -20.7560   21.5810 N   0  0  0  0  0  0  0  0  0  0  0  0
  -28.5960  -22.6740   20.2500 N   0  0  0  0  0  0  0  0  0  0  0  0
  -28.2140  -24.2910   18.2370 C   0  0  0  0  0  1  0  0  0  0  0  0
  -27.9630  -24.2090   19.7500 C   0  0  0  0  0  3  0  0  0  0  0  0
  -28.1820  -25.7620   20.2790 O   0  0  0  0  0  0  0  0  0  0  0  0
  -24.6300  -31.8740   23.1720 C   0  0  0  0  0  0  0  0  0  0  0  0
  -27.2000  -26.9210   20.1680 C   0  0  0  0  0  0  0  0  0  0  0  0
  -23.4450  -30.4670   21.5380 C   0  0  0  0  0  3  0  0  0  0  0  0
  -24.9030  -28.8570   20.1160 C   0  0  0  0  0  0  0  0  0  0  0  0
  -26.0160  -30.6620   21.4030 C   0  0  0  0  0  2  0  0  0  0  0  0
  -26.0910  -29.2440   20.7470 C   0  0  0  0  0  0  0  0  0  0  0  0
  -27.2260  -28.2980   20.7510 C   0  0  0  0  0  3  0  0  0  0  0  0
  -25.9790  -26.7180   19.4780 C   0  0  0  0  0  3  0  0  0  0  0  0
  -24.8780  -27.6160   19.4600 C   0  0  0  0  0  3  0  0  0  0  0  0
  -23.6820  -29.7800   20.1640 C   0  0  0  0  0  2  0  0  0  0  0  0
  -24.7190  -31.0310   22.0900 N   0  0  0  0  0  0  0  0  0  0  0  0
  -23.5370  -32.1630   23.6880 O   0  0  0  0  0  0  0  0  0  0  0  0
  -22.7490  -29.4760   22.5080 C   0  0  0  0  0  0  0  0  0  0  0  0
  -21.4170  -29.3140   22.3890 N   0  0  0  0  0  0  0  0  0  0  0  0
  -23.4160  -28.8520   23.3370 O   0  0  0  0  0  0  0  0  0  0  0  0
  -20.9310  -29.8680   21.6980 H   0  0  0  0  0  0  0  0  0  0  0  0
  -18.0380  -28.0920   22.9120 C   0  0  0  0  0  0  0  0  0  0  0  0
  -20.5980  -28.3750   23.1660 C   0  0  0  0  0  3  0  0  0  0  0  0
  -20.7040  -26.9410   22.5940 C   0  0  0  0  0  2  0  0  0  0  0  0
  -19.6010  -26.6100   21.5830 C   0  0  0  0  0  2  0  0  0  0  0  0
  -18.2210  -26.7450   22.2330 C   0  0  0  0  0  2  0  0  0  0  0  0
  -19.1530  -28.8640   23.3360 C   0  0  0  0  0  0  0  0  0  0  0  0
  -18.9250  -30.1220   23.9360 C   0  0  0  0  0  3  0  0  0  0  0  0
  -17.6160  -30.6090   24.1130 C   0  0  0  0  0  3  0  0  0  0  0  0
  -16.5160  -29.8350   23.7030 C   0  0  0  0  0  3  0  0  0  0  0  0
  -16.7280  -28.5790   23.1090 C   0  0  0  0  0  3  0  0  0  0  0  0
  -25.8940  -32.5290   23.8060 C   0  0  0  0  0  3  0  0  0  0  0  0
  -25.5640  -33.9260   24.1410 N   0  0  0  0  0  0  0  0  0  0  0  0
  -25.8890  -34.9940   23.4000 C   0  0  0  0  0  0  0  0  0  0  0  0
  -26.5580  -34.9070   22.3680 O   0  0  0  0  0  0  0  0  0  0  0  0
  -24.9670  -34.0660   24.9430 H   0  0  0  0  0  0  0  0  0  0  0  0
  -24.1520  -36.7900   23.0760 C   0  0  0  0  0  1  0  0  0  0  0  0
  -25.3980  -36.3780   23.8770 C   0  0  0  0  0  3  0  0  0  0  0  0
  -27.5290  -37.2690   24.7150 C   0  0  0  0  0  1  0  0  0  0  0  0
  -26.4250  -37.4370   23.7730 N   0  0  0  0  0  0  0  0  0  0  0  0
  -26.0140  -38.3550   23.9270 H   0  0  0  0  0  0  0  0  0  0  0  0
  -26.4020  -31.7700   25.0950 C   0  0  1  0  0  0  0  0  0  0  0  0
  -25.3020  -31.5380   26.1580 C   0  0  0  0  0  1  0  0  0  0  0  0
  -26.9940  -30.3900   24.7300 C   0  0  0  0  0  1  0  0  0  0  0  0
  -27.5450  -32.5760   25.7590 C   0  0  0  0  0  1  0  0  0  0  0  0
  -29.9580  -18.4790   20.0200 C   0  0  0  0  0  2  0  0  0  0  0  0
  -30.4010  -15.5020   20.2130 C   0  0  0  0  0  0  0  0  0  0  0  0
  -30.3980  -13.0200   19.3590 C   0  0  0  0  0  2  0  0  0  0  0  0
  -29.4870  -12.7560   18.1310 C   0  0  0  0  0  2  0  0  0  0  0  0
  -28.0460  -12.4590   18.5760 C   0  0  0  0  0  2  0  0  0  0  0  0
  -27.5810  -13.4300   19.6880 C   0  0  0  0  0  3  0  0  0  0  0  0
  -28.6250  -13.6330   20.8080 C   0  0  0  0  0  2  0  0  0  0  0  0
  -29.8380  -14.1780   20.1680 N   0  0  0  0  0  0  0  0  0  0  0  0
  -31.6170  -15.4650   19.9640 O   0  0  0  0  0  0  0  0  0  0  0  0
  -29.6700  -16.8240   20.3340 N   0  0  0  0  0  0  0  0  0  0  0  0
  -28.7000  -16.6700   20.5610 H   0  0  0  0  0  0  0  0  0  0  0  0
  -25.2120  -13.9740   20.4430 C   0  0  0  0  0  0  0  0  0  0  0  0
  -24.1540  -13.1940   20.8140 C   0  0  0  0  0  0  0  0  0  0  0  0
  -24.6260  -11.8460   20.7890 C   0  0  0  0  0  0  0  0  0  0  0  0
  -26.2580  -13.1030   20.2020 N   0  0  0  0  0  0  0  0  0  0  0  0
  -25.9190  -11.8150   20.4800 N   0  0  0  0  0  0  0  0  0  0  0  0
  -23.9020  -10.5810   20.9830 C   0  0  0  0  0  0  0  0  0  0  0  0
  -24.3270   -9.6230   21.9290 C   0  0  0  0  0  3  0  0  0  0  0  0
  -23.5990   -8.4280   22.1130 C   0  0  0  0  0  3  0  0  0  0  0  0
  -22.4330   -8.1810   21.3500 C   0  0  0  0  0  0  0  0  0  0  0  0
  -22.0270   -9.1290   20.3940 C   0  0  0  0  0  3  0  0  0  0  0  0
  -22.7550  -10.3150   20.2090 C   0  0  0  0  0  3  0  0  0  0  0  0
  -21.6780   -7.0370   21.4430 O   0  0  0  0  0  0  0  0  0  0  0  0
  -21.6100   -6.3110   22.6050 C   0  0  0  0  0  0  0  0  0  0  0  0
  -21.1510   -6.8790   23.8130 C   0  0  0  0  0  3  0  0  0  0  0  0
  -21.0310   -6.0790   24.9670 C   0  0  0  0  0  3  0  0  0  0  0  0
  -21.3600   -4.7120   24.9140 C   0  0  0  0  0  0  0  0  0  0  0  0
  -21.8120   -4.1430   23.7100 C   0  0  0  0  0  3  0  0  0  0  0  0
  -21.9330   -4.9400   22.5590 C   0  0  0  0  0  0  0  0  0  0  0  0
  -22.3490   -4.3810   21.3970 F   0  0  0  0  0  0  0  0  0  0  0  0
  -21.2380   -3.9410   26.0210 F   0  0  0  0  0  0  0  0  0  0  0  0
  -22.7540  -13.6680   21.0750 C   0  0  0  0  0  0  0  0  0  0  0  0
  -22.0250  -12.9770   21.9420 N   0  0  0  0  0  0  0  0  0  0  0  0
  -22.3180  -14.6900   20.5450 O   0  0  0  0  0  0  0  0  0  0  0  0
  -22.3930  -12.1510   22.3930 H   0  0  0  0  0  0  0  0  0  0  0  0
  -21.0850  -13.2760   22.1610 H   0  0  0  0  0  0  0  0  0  0  0  0
  -25.3670  -15.3440   20.2570 N   0  0  0  0  0  0  0  0  0  0  0  0
  -24.5920  -15.9910   20.3590 H   0  0  0  0  0  0  0  0  0  0  0  0
  -26.2020  -15.7830   19.8910 H   0  0  0  0  0  0  0  0  0  0  0  0
  1  5  1  0
  1  3  2  0
  2  4  2  0
  3  4  1  0
  5  2  1  0
  7  6  1  0
  7  5  1  0
  7  8  1  0
  9 20  2  0
 10  8  1  0
 10 15  1  0
 11 19  1  0
 11 21  1  0
 12 18  1  0
 12 14  1  0
 13 19  1  0
 14 15  2  0
 14 13  1  0
 16 10  2  0
 17 16  1  0
 17 12  2  0
 18 11  1  0
 19  9  1  0
 21 23  2  0
 22 21  1  0
 24 22  1  0
 25 34  2  0
 25 30  1  0
 26 22  1  0
 26 30  1  0
 27 26  1  0
 28 29  1  0
 28 27  1  0
 29 25  1  0
 30 31  2  0
 31 32  1  0
 33 32  2  0
 34 33  1  0
 35  9  1  0
 35 36  1  0
 35 45  1  0
 36 39  1  0
 37 41  1  0
 37 36  1  0
 38 37  2  0
 41 40  1  0
 43 41  1  0
 43 44  1  0
 43 42  1  0
 45 48  1  1
 45 46  1  0
 47 45  1  0
 49  3  1  0
 49 58  1  0
 50 58  1  0
 51 56  1  0
 52 53  1  0
 52 51  1  0
 54 53  1  0
 54 63  1  0
 54 55  1  0
 56 50  1  0
 56 55  1  0
 57 50  2  0
 58 59  1  0
 60 61  2  0
 61 80  1  0
 62 61  1  0
 62 65  1  0
 63 60  1  0
 63 64  1  0
 64 62  2  0
 65 66  1  0
 66 67  2  0
 68 71  1  0
 68 67  1  0
 69 68  2  0
 70 69  1  0
 70 65  2  0
 71 72  1  0
 72 73  1  0
 73 74  2  0
 75 74  1  0
 75 79  1  0
 76 75  2  0
 77 72  2  0
 77 76  1  0
 78 77  1  0
 80 81  1  0
 81 84  1  0
 81 83  1  0
 82 80  2  0
 85 86  1  0
 85 60  1  0
 87 85  1  0
M  ISO  4   7 101   8 101  50 100  58 100
M  END
>  <TORSDO>  (86) 
F 18

>  <SCORE>  (86) 
-16.583

>  <name>  (86) 
85

>  <ligand_id>  (86) 
85

>  <original_smiles>  (86) 
[H]c1c([H])c([H])c2c(c1[H])C([H])([H])C([H])([H])C([H])([H])C2([H])N([H])C(=O)C1([H])N(C(=O)C([H])(N([H])C(=O)C([H])(N([H])C([H])([H])[H])C([H])([H])[H])C(C([H])([H])[H])(C([H])([H])[H])C([H])([H])[H])C([H])([H])c2c([H])c(OC([H])(n3c([H])nc(C([H])([H])N([H])C(=O)N4C([H])([H])C([H])([H])C([H])([H])C([H])(n5nc(-c6c([H])c([H])c(Oc7c([H])c([H])c(F)c([H])c7F)c([H])c6[H])c(C(=O)N([H])[H])c5N([H])[H])C4([H])[H])c3[H])C([H])([H])[H])c([H])c([H])c2C1([H])[H]

>  <smiles>  (86) 
[H]c1c([H])c([H])c2c(c1[H])C([H])([H])C([H])([H])C([H])([H])C2([H])N([H])C(=O)C1([H])N(C(=O)C([H])(N([H])C(=O)C([H])(N([H])C([H])([H])[H])C([H])([H])[H])C(C([H])([H])[H])(C([H])([H])[H])C([H])([H])[H])C([H])([H])c2c([H])c(OC([H])(n3c([H])nc(C([H])([H])N([H])C(=O)N4C([H])([H])C([H])([H])C([H])([H])C([H])(n5nc(-c6c([H])c([H])c(Oc7c([H])c([H])c(F)c([H])c7F)c([H])c6[H])c(C(=O)N([H])[H])c5N([H])[H])C4([H])[H])c3[H])C([H])([H])[H])c([H])c([H])c2C1([H])[H]

$$$$
86:0:0
     RDKit          3D

 93101  0  0  1  0  0  0  0  0999 V2000
  -29.3750  -17.5540   21.0530 C   0  0  0  0  0  0  0  0  0  0  0  0
  -30.3430  -16.8070   20.4040 C   0  0  0  0  0  0  0  0  0  0  0  0
  -30.4040  -19.2980   19.9860 C   0  0  0  0  0  0  0  0  0  0  0  0
  -30.0410  -21.8220   19.9020 C   0  0  0  0  0  0  0  0  0  0  0  0
  -28.2930  -17.0370   21.9530 C   0  0  0  0  0  1  0  0  0  0  0  0
  -29.4240  -18.9380   20.8190 N   0  0  0  0  0  0  0  0  0  0  0  0
  -30.6410  -20.6500   19.5590 N   0  0  0  0  0  0  0  0  0  0  0  0
  -29.1210  -21.9160   20.7200 O   0  0  0  0  0  0  0  0  0  0  0  0
  -31.3610  -17.8960   19.4500 S   0  0  0  0  0  0  0  0  0  0  0  0
  -31.3820  -20.7460   18.8800 H   0  0  0  0  0  0  0  0  0  0  0  0
  -31.0720  -14.5230   19.7080 C   0  0  0  0  0  0  0  0  0  0  0  0
  -30.6920  -12.3730   18.5360 C   0  0  0  0  0  2  0  0  0  0  0  0
  -29.6090  -12.6010   17.4590 C   0  0  0  0  0  2  0  0  0  0  0  0
  -28.1920  -12.4550   18.0500 C   0  0  0  0  0  2  0  0  0  0  0  0
  -28.0130  -13.2520   19.3690 C   0  0  0  0  0  3  0  0  0  0  0  0
  -29.1850  -12.9690   20.3350 C   0  0  0  0  0  2  0  0  0  0  0  0
  -30.4390  -13.3150   19.6380 N   0  0  0  0  0  0  0  0  0  0  0  0
  -32.1100  -14.7690   19.0830 O   0  0  0  0  0  0  0  0  0  0  0  0
  -30.4300  -15.4380   20.4730 N   0  0  0  0  0  0  0  0  0  0  0  0
  -29.7260  -15.0110   21.0560 H   0  0  0  0  0  0  0  0  0  0  0  0
  -25.7310  -13.8710   20.3880 C   0  0  0  0  0  0  0  0  0  0  0  0
  -24.6970  -13.1030   20.8500 C   0  0  0  0  0  0  0  0  0  0  0  0
  -25.1170  -11.7450   20.7030 C   0  0  0  0  0  0  0  0  0  0  0  0
  -26.7190  -12.9820   19.9930 N   0  0  0  0  0  0  0  0  0  0  0  0
  -26.3590  -11.6960   20.2360 N   0  0  0  0  0  0  0  0  0  0  0  0
  -24.3900  -10.4890   20.9240 C   0  0  0  0  0  0  0  0  0  0  0  0
  -24.8360   -9.5320   21.8620 C   0  0  0  0  0  3  0  0  0  0  0  0
  -24.1090   -8.3410   22.0700 C   0  0  0  0  0  3  0  0  0  0  0  0
  -22.9210   -8.0970   21.3400 C   0  0  0  0  0  0  0  0  0  0  0  0
  -22.4940   -9.0430   20.3920 C   0  0  0  0  0  3  0  0  0  0  0  0
  -23.2200  -10.2260   20.1810 C   0  0  0  0  0  3  0  0  0  0  0  0
  -22.1640   -6.9570   21.4570 O   0  0  0  0  0  0  0  0  0  0  0  0
  -22.0200   -6.3110   22.6590 C   0  0  0  0  0  0  0  0  0  0  0  0
  -21.4410   -6.9430   23.7810 C   0  0  0  0  0  3  0  0  0  0  0  0
  -21.2460   -6.2200   24.9750 C   0  0  0  0  0  3  0  0  0  0  0  0
  -21.6200   -4.8640   25.0470 C   0  0  0  0  0  0  0  0  0  0  0  0
  -22.1900   -4.2320   23.9290 C   0  0  0  0  0  3  0  0  0  0  0  0
  -22.3860   -4.9520   22.7370 C   0  0  0  0  0  0  0  0  0  0  0  0
  -22.9170   -4.3310   21.6560 F   0  0  0  0  0  0  0  0  0  0  0  0
  -21.4250   -4.1680   26.1900 F   0  0  0  0  0  0  0  0  0  0  0  0
  -23.3550  -13.5920   21.3140 C   0  0  0  0  0  0  0  0  0  0  0  0
  -22.7270  -12.8760   22.2400 N   0  0  0  0  0  0  0  0  0  0  0  0
  -22.8750  -14.6420   20.8890 O   0  0  0  0  0  0  0  0  0  0  0  0
  -23.1290  -12.0250   22.6050 H   0  0  0  0  0  0  0  0  0  0  0  0
  -21.8310  -13.1850   22.5910 H   0  0  0  0  0  0  0  0  0  0  0  0
  -25.9060  -15.2460   20.2520 N   0  0  0  0  0  0  0  0  0  0  0  0
  -25.1680  -15.9060   20.4710 H   0  0  0  0  0  0  0  0  0  0  0  0
  -26.7100  -15.6820   19.8170 H   0  0  0  0  0  0  0  0  0  0  0  0
  -30.5900  -23.1020   19.2090 C   0  0  0  0  0  3  0  0  0  0  0  0
  -30.3070  -23.0560   17.9040 F   0  0  0  0  0  0  0  0  0  0  0  0
  -30.2490  -24.5180   19.8000 C   0  0  0  0  0  2  0  0  0  0  0  0
  -28.8990  -25.1930   19.4140 C   0  0  0  0  0  2  0  0  0  0  0  0
  -28.8620  -26.5880   19.8160 O   0  0  0  0  0  0  0  0  0  0  0  0
  -24.7240  -31.4650   23.0040 C   0  0  0  0  0  0  0  0  0  0  0  0
  -27.6520  -27.2720   19.7880 C   0  0  0  0  0  0  0  0  0  0  0  0
  -23.6250  -30.0850   21.2710 C   0  0  0  0  0  3  0  0  0  0  0  0
  -25.1840  -28.6870   19.8110 C   0  0  0  0  0  0  0  0  0  0  0  0
  -26.1370  -30.5670   21.1510 C   0  0  0  0  0  2  0  0  0  0  0  0
  -26.3040  -29.2310   20.4480 C   0  0  0  0  0  0  0  0  0  0  0  0
  -27.5390  -28.5330   20.4310 C   0  0  0  0  0  3  0  0  0  0  0  0
  -26.5070  -26.7540   19.1390 C   0  0  0  0  0  3  0  0  0  0  0  0
  -25.2830  -27.4500   19.1520 C   0  0  0  0  0  3  0  0  0  0  0  0
  -23.8980  -29.4820   19.8680 C   0  0  0  0  0  2  0  0  0  0  0  0
  -24.8450  -30.7190   21.8680 N   0  0  0  0  0  0  0  0  0  0  0  0
  -23.6180  -31.6590   23.5280 O   0  0  0  0  0  0  0  0  0  0  0  0
  -23.0030  -28.9900   22.1680 C   0  0  0  0  0  0  0  0  0  0  0  0
  -21.6860  -28.7720   22.0240 N   0  0  0  0  0  0  0  0  0  0  0  0
  -23.7040  -28.3410   22.9490 O   0  0  0  0  0  0  0  0  0  0  0  0
  -21.1790  -29.3500   21.3680 H   0  0  0  0  0  0  0  0  0  0  0  0
  -18.3430  -27.4730   22.4740 C   0  0  0  0  0  0  0  0  0  0  0  0
  -20.8980  -27.7640   22.7340 C   0  0  0  0  0  3  0  0  0  0  0  0
  -21.0220  -26.3810   22.0560 C   0  0  0  0  0  2  0  0  0  0  0  0
  -19.9140  -26.1090   21.0330 C   0  0  0  0  0  2  0  0  0  0  0  0
  -18.5380  -26.1790   21.7010 C   0  0  0  0  0  2  0  0  0  0  0  0
  -19.4520  -28.2260   22.9450 C   0  0  0  0  0  0  0  0  0  0  0  0
  -19.2150  -29.4380   23.6280 C   0  0  0  0  0  3  0  0  0  0  0  0
  -17.9040  -29.9000   23.8420 C   0  0  0  0  0  3  0  0  0  0  0  0
  -16.8090  -29.1440   23.3870 C   0  0  0  0  0  3  0  0  0  0  0  0
  -17.0300  -27.9330   22.7090 C   0  0  0  0  0  3  0  0  0  0  0  0
  -25.9630  -32.1270   23.6830 C   0  0  0  0  0  3  0  0  0  0  0  0
  -26.4840  -31.3300   24.9400 C   0  0  1  0  0  0  0  0  0  0  0  0
  -25.3760  -30.9970   25.9680 C   0  0  0  0  0  1  0  0  0  0  0  0
  -27.1410  -29.9980   24.5070 C   0  0  0  0  0  1  0  0  0  0  0  0
  -27.5790  -32.1480   25.6650 C   0  0  0  0  0  1  0  0  0  0  0  0
  -25.5810  -33.4960   24.0590 N   0  0  0  0  0  0  0  0  0  0  0  0
  -25.8660  -34.5900   23.3380 C   0  0  0  0  0  0  0  0  0  0  0  0
  -26.5470  -34.5550   22.3100 O   0  0  0  0  0  0  0  0  0  0  0  0
  -24.9740  -33.5930   24.8590 H   0  0  0  0  0  0  0  0  0  0  0  0
  -24.0380  -36.2920   23.0440 C   0  0  0  0  0  1  0  0  0  0  0  0
  -25.3050  -35.9350   23.8380 C   0  0  0  0  0  3  0  0  0  0  0  0
  -27.3830  -36.9230   24.6940 C   0  0  0  0  0  1  0  0  0  0  0  0
  -26.2760  -37.0460   23.7490 N   0  0  0  0  0  0  0  0  0  0  0  0
  -25.8190  -37.9390   23.9110 H   0  0  0  0  0  0  0  0  0  0  0  0
  1  5  1  0
  2 19  1  0
  2  1  2  0
  3  6  2  0
  4  8  2  0
  6  1  1  0
  7  4  1  0
  7  3  1  0
  9  3  1  0
  9  2  1  0
 10  7  1  0
 11 19  1  0
 12 17  1  0
 13 14  1  0
 13 12  1  0
 15 14  1  0
 15 24  1  0
 15 16  1  0
 17 11  1  0
 17 16  1  0
 18 11  2  0
 19 20  1  0
 21 22  2  0
 22 41  1  0
 23 22  1  0
 23 26  1  0
 24 25  1  0
 24 21  1  0
 25 23  2  0
 26 27  1  0
 27 28  2  0
 29 32  1  0
 29 28  1  0
 30 29  2  0
 31 30  1  0
 31 26  2  0
 32 33  1  0
 33 38  2  0
 33 34  1  0
 34 35  2  0
 35 36  1  0
 36 40  1  0
 37 36  2  0
 38 37  1  0
 39 38  1  0
 41 42  1  0
 42 45  1  0
 42 44  1  0
 43 41  2  0
 46 21  1  0
 46 47  1  0
 48 46  1  0
 49 50  1  0
 49 51  1  0
 49  4  1  0
 52 51  1  0
 52 53  1  0
 54 65  2  0
 55 53  1  0
 55 60  1  0
 56 64  1  0
 56 66  1  0
 57 63  1  0
 57 59  1  0
 58 64  1  0
 59 58  1  0
 60 59  2  0
 61 62  1  0
 61 55  2  0
 62 57  2  0
 63 56  1  0
 64 54  1  0
 66 68  2  0
 67 66  1  0
 69 67  1  0
 70 79  2  0
 70 75  1  0
 71 67  1  0
 71 75  1  0
 72 71  1  0
 73 74  1  0
 73 72  1  0
 74 70  1  0
 75 76  2  0
 76 77  1  0
 78 77  2  0
 79 78  1  0
 80 54  1  0
 80 85  1  0
 80 81  1  0
 81 84  1  1
 81 82  1  0
 83 81  1  0
 85 88  1  0
 86 90  1  0
 86 85  1  0
 87 86  2  0
 90 89  1  0
 92 90  1  0
 92 93  1  0
 92 91  1  0
M  ISO  4  11 100  19 100  52 101  53 101
M  END
>  <TORSDO>  (87) 
F 19

>  <SCORE>  (87) 
-9.656

>  <name>  (87) 
86

>  <ligand_id>  (87) 
86

>  <original_smiles>  (87) 
[H]c1c([H])c([H])c2c(c1[H])C([H])([H])C([H])([H])C([H])([H])C2([H])N([H])C(=O)C1([H])N(C(=O)C([H])(N([H])C(=O)C([H])(N([H])C([H])([H])[H])C([H])([H])[H])C(C([H])([H])[H])(C([H])([H])[H])C([H])([H])[H])C([H])([H])c2c([H])c(OC([H])([H])C([H])([H])C([H])(F)C(=O)N([H])c3nc(C([H])([H])[H])c(N([H])C(=O)N4C([H])([H])C([H])([H])C([H])([H])C([H])(n5nc(-c6c([H])c([H])c(Oc7c([H])c([H])c(F)c([H])c7F)c([H])c6[H])c(C(=O)N([H])[H])c5N([H])[H])C4([H])[H])s3)c([H])c([H])c2C1([H])[H]

>  <smiles>  (87) 
[H]c1c([H])c([H])c2c(c1[H])C([H])([H])C([H])([H])C([H])([H])C2([H])N([H])C(=O)C1([H])N(C(=O)C([H])(N([H])C(=O)C([H])(N([H])C([H])([H])[H])C([H])([H])[H])C(C([H])([H])[H])(C([H])([H])[H])C([H])([H])[H])C([H])([H])c2c([H])c(OC([H])([H])C([H])([H])C([H])(F)C(=O)N([H])c3nc(C([H])([H])[H])c(N([H])C(=O)N4C([H])([H])C([H])([H])C([H])([H])C([H])(n5nc(-c6c([H])c([H])c(Oc7c([H])c([H])c(F)c([H])c7F)c([H])c6[H])c(C(=O)N([H])[H])c5N([H])[H])C4([H])[H])s3)c([H])c([H])c2C1([H])[H]

$$$$
87:0:0
     RDKit          3D

 89 97  0  0  1  0  0  0  0  0999 V2000
  -28.9260  -23.1780   20.3150 C   0  0  0  0  0  0  0  0  0  0  0  0
  -28.6020  -21.7600   20.2810 N   0  0  0  0  0  0  0  0  0  0  0  0
  -30.1080  -23.4960   20.4760 O   0  0  0  0  0  0  0  0  0  0  0  0
  -27.6050  -21.6250   20.1910 H   0  0  0  0  0  0  0  0  0  0  0  0
  -30.4680  -15.1480   20.3350 C   0  0  0  0  0  0  0  0  0  0  0  0
  -30.4200  -12.7480   19.4340 C   0  0  0  0  0  2  0  0  0  0  0  0
  -29.4890  -12.6200   18.2030 C   0  0  0  0  0  2  0  0  0  0  0  0
  -28.0330  -12.3720   18.6420 C   0  0  0  0  0  2  0  0  0  0  0  0
  -27.6010  -13.3150   19.7950 C   0  0  0  0  0  3  0  0  0  0  0  0
  -28.6550  -13.3970   20.9180 C   0  0  0  0  0  2  0  0  0  0  0  0
  -29.9040  -13.8590   20.2960 N   0  0  0  0  0  0  0  0  0  0  0  0
  -31.6800  -15.1960   20.0850 O   0  0  0  0  0  0  0  0  0  0  0  0
  -30.7630  -20.3310   20.3120 C   0  0  0  0  0  3  0  0  0  0  0  0
  -29.3850  -20.3960   20.3310 C   0  0  0  0  0  0  0  0  0  0  0  0
  -29.8700  -17.8940   20.3810 C   0  0  0  0  0  0  0  0  0  0  0  0
  -28.9250  -18.9620   20.3740 N   0  0  0  0  0  0  0  0  0  0  0  0
  -29.6540  -16.3430   20.4400 N   0  0  0  0  0  0  0  0  0  0  0  0
  -31.4570  -18.6780   20.3290 S   0  0  0  0  0  0  0  0  0  0  0  0
  -28.6850  -16.1020   20.5660 H   0  0  0  0  0  0  0  0  0  0  0  0
  -25.2210  -13.8650   20.5470 C   0  0  0  0  0  0  0  0  0  0  0  0
  -24.1660  -13.0800   20.9180 C   0  0  0  0  0  0  0  0  0  0  0  0
  -24.6420  -11.7330   20.8840 C   0  0  0  0  0  0  0  0  0  0  0  0
  -26.2710  -12.9970   20.3020 N   0  0  0  0  0  0  0  0  0  0  0  0
  -25.9330  -11.7090   20.5710 N   0  0  0  0  0  0  0  0  0  0  0  0
  -23.9250  -10.4650   21.0720 C   0  0  0  0  0  0  0  0  0  0  0  0
  -24.3660   -9.4960   22.0000 C   0  0  0  0  0  3  0  0  0  0  0  0
  -23.6460   -8.2950   22.1770 C   0  0  0  0  0  3  0  0  0  0  0  0
  -22.4710   -8.0540   21.4260 C   0  0  0  0  0  0  0  0  0  0  0  0
  -22.0490   -9.0120   20.4870 C   0  0  0  0  0  3  0  0  0  0  0  0
  -22.7700  -10.2040   20.3080 C   0  0  0  0  0  3  0  0  0  0  0  0
  -21.7220   -6.9050   21.5120 O   0  0  0  0  0  0  0  0  0  0  0  0
  -21.6860   -6.1550   22.6600 C   0  0  0  0  0  0  0  0  0  0  0  0
  -21.2480   -6.6950   23.8890 C   0  0  0  0  0  3  0  0  0  0  0  0
  -21.1600   -5.8700   25.0280 C   0  0  0  0  0  3  0  0  0  0  0  0
  -21.4980   -4.5080   24.9410 C   0  0  0  0  0  0  0  0  0  0  0  0
  -21.9290   -3.9670   23.7170 C   0  0  0  0  0  3  0  0  0  0  0  0
  -22.0190   -4.7870   22.5790 C   0  0  0  0  0  0  0  0  0  0  0  0
  -22.4140   -4.2570   21.3970 F   0  0  0  0  0  0  0  0  0  0  0  0
  -21.4060   -3.7130   26.0330 F   0  0  0  0  0  0  0  0  0  0  0  0
  -22.7650  -13.5470   21.1880 C   0  0  0  0  0  0  0  0  0  0  0  0
  -22.0450  -12.8490   22.0590 N   0  0  0  0  0  0  0  0  0  0  0  0
  -22.3190  -14.5650   20.6620 O   0  0  0  0  0  0  0  0  0  0  0  0
  -22.4190  -12.0260   22.5070 H   0  0  0  0  0  0  0  0  0  0  0  0
  -21.1040  -13.1450   22.2830 H   0  0  0  0  0  0  0  0  0  0  0  0
  -25.3700  -15.2380   20.3700 N   0  0  0  0  0  0  0  0  0  0  0  0
  -24.5890  -15.8760   20.4750 H   0  0  0  0  0  0  0  0  0  0  0  0
  -26.1920  -15.6840   19.9850 H   0  0  0  0  0  0  0  0  0  0  0  0
  -27.8460  -24.4820   20.1510 C   0  0  0  0  0  2  0  0  0  0  0  0
  -28.1850  -26.0420   20.2930 O   0  0  0  0  0  0  0  0  0  0  0  0
  -24.6200  -31.8950   23.2480 C   0  0  0  0  0  0  0  0  0  0  0  0
  -27.1630  -27.0920   20.2280 C   0  0  0  0  0  0  0  0  0  0  0  0
  -23.4150  -30.5020   21.6130 C   0  0  0  0  0  3  0  0  0  0  0  0
  -24.8550  -28.9090   20.1900 C   0  0  0  0  0  0  0  0  0  0  0  0
  -25.9760  -30.7330   21.4530 C   0  0  0  0  0  2  0  0  0  0  0  0
  -26.0420  -29.3320   20.8000 C   0  0  0  0  0  0  0  0  0  0  0  0
  -27.1950  -28.4430   20.7990 C   0  0  0  0  0  3  0  0  0  0  0  0
  -25.9460  -26.7960   19.5730 C   0  0  0  0  0  3  0  0  0  0  0  0
  -24.8260  -27.6590   19.5570 C   0  0  0  0  0  3  0  0  0  0  0  0
  -23.6360  -29.8220   20.2360 C   0  0  0  0  0  2  0  0  0  0  0  0
  -24.6910  -31.0680   22.1580 N   0  0  0  0  0  0  0  0  0  0  0  0
  -23.5330  -32.1870   23.7730 O   0  0  0  0  0  0  0  0  0  0  0  0
  -22.7260  -29.5040   22.5780 C   0  0  0  0  0  0  0  0  0  0  0  0
  -21.3970  -29.3380   22.4500 N   0  0  0  0  0  0  0  0  0  0  0  0
  -23.3920  -28.8810   23.4090 O   0  0  0  0  0  0  0  0  0  0  0  0
  -20.9140  -29.8920   21.7570 H   0  0  0  0  0  0  0  0  0  0  0  0
  -18.0120  -28.1360   22.9500 C   0  0  0  0  0  0  0  0  0  0  0  0
  -20.5710  -28.4050   23.2240 C   0  0  0  0  0  3  0  0  0  0  0  0
  -20.6760  -26.9690   22.6590 C   0  0  0  0  0  2  0  0  0  0  0  0
  -19.5780  -26.6390   21.6420 C   0  0  0  0  0  2  0  0  0  0  0  0
  -18.1940  -26.7850   22.2800 C   0  0  0  0  0  2  0  0  0  0  0  0
  -19.1280  -28.9040   23.3790 C   0  0  0  0  0  0  0  0  0  0  0  0
  -18.9040  -30.1670   23.9680 C   0  0  0  0  0  3  0  0  0  0  0  0
  -17.5960  -30.6640   24.1310 C   0  0  0  0  0  3  0  0  0  0  0  0
  -16.4950  -29.8940   23.7160 C   0  0  0  0  0  3  0  0  0  0  0  0
  -16.7050  -28.6320   23.1320 C   0  0  0  0  0  3  0  0  0  0  0  0
  -25.8980  -32.5300   23.8760 C   0  0  0  0  0  3  0  0  0  0  0  0
  -25.5870  -33.9300   24.2110 N   0  0  0  0  0  0  0  0  0  0  0  0
  -25.8970  -34.9870   23.4500 C   0  0  0  0  0  0  0  0  0  0  0  0
  -26.5380  -34.8870   22.4000 O   0  0  0  0  0  0  0  0  0  0  0  0
  -25.0130  -34.0810   25.0270 H   0  0  0  0  0  0  0  0  0  0  0  0
  -24.1450  -36.7730   23.1660 C   0  0  0  0  0  1  0  0  0  0  0  0
  -25.4210  -36.3750   23.9250 C   0  0  0  0  0  3  0  0  0  0  0  0
  -27.5810  -37.2810   24.6670 C   0  0  0  0  0  1  0  0  0  0  0  0
  -26.4420  -37.4350   23.7650 N   0  0  0  0  0  0  0  0  0  0  0  0
  -26.0360  -38.3530   23.9220 H   0  0  0  0  0  0  0  0  0  0  0  0
  -26.4050  -31.7610   25.1580 C   0  0  1  0  0  0  0  0  0  0  0  0
  -25.3070  -31.5320   26.2230 C   0  0  0  0  0  1  0  0  0  0  0  0
  -26.9840  -30.3780   24.7790 C   0  0  0  0  0  1  0  0  0  0  0  0
  -27.5560  -32.5530   25.8220 C   0  0  0  0  0  1  0  0  0  0  0  0
  1  3  2  0
  2  1  1  0
  2 14  1  0
  4  2  1  0
  5 17  1  0
  6 11  1  0
  7  8  1  0
  7  6  1  0
  9  8  1  0
  9 23  1  0
  9 10  1  0
 11  5  1  0
 11 10  1  0
 12  5  2  0
 13 18  1  0
 13 14  2  0
 14 16  1  0
 15 17  1  0
 16 15  2  0
 17 19  1  0
 18 15  1  0
 20 21  2  0
 21 40  1  0
 22 21  1  0
 22 25  1  0
 23 20  1  0
 23 24  1  0
 24 22  2  0
 25 26  1  0
 26 27  2  0
 28 31  1  0
 28 27  1  0
 29 28  2  0
 30 29  1  0
 30 25  2  0
 31 32  1  0
 32 33  1  0
 33 34  2  0
 35 34  1  0
 35 39  1  0
 36 35  2  0
 37 32  2  0
 37 36  1  0
 38 37  1  0
 40 41  1  0
 41 44  1  0
 41 43  1  0
 42 40  2  0
 45 46  1  0
 45 20  1  0
 47 45  1  0
 48 49  1  0
 48  1  1  0
 50 61  2  0
 51 49  1  0
 51 56  1  0
 52 60  1  0
 52 62  1  0
 53 59  1  0
 53 55  1  0
 54 60  1  0
 55 54  1  0
 56 55  2  0
 57 51  2  0
 58 57  1  0
 58 53  2  0
 59 52  1  0
 60 50  1  0
 62 64  2  0
 63 62  1  0
 65 63  1  0
 66 75  2  0
 66 71  1  0
 67 63  1  0
 67 71  1  0
 68 67  1  0
 69 70  1  0
 69 68  1  0
 70 66  1  0
 71 72  2  0
 72 73  1  0
 74 73  2  0
 75 74  1  0
 76 50  1  0
 76 77  1  0
 76 86  1  0
 77 80  1  0
 78 82  1  0
 78 77  1  0
 79 78  2  0
 82 81  1  0
 84 85  1  0
 84 82  1  0
 84 83  1  0
 86 89  1  1
 86 87  1  0
 88 86  1  0
M  ISO  4   5 100  17 100  48 101  49 101
M  END
>  <TORSDO>  (88) 
F 17

>  <SCORE>  (88) 
-15.720

>  <name>  (88) 
87

>  <ligand_id>  (88) 
87

>  <original_smiles>  (88) 
[H]c1sc(N([H])C(=O)N2C([H])([H])C([H])([H])C([H])([H])C([H])(n3nc(-c4c([H])c([H])c(Oc5c([H])c([H])c(F)c([H])c5F)c([H])c4[H])c(C(=O)N([H])[H])c3N([H])[H])C2([H])[H])nc1N([H])C(=O)C([H])([H])Oc1c([H])c([H])c2c(c1[H])C([H])([H])N(C(=O)C([H])(N([H])C(=O)C([H])(N([H])C([H])([H])[H])C([H])([H])[H])C(C([H])([H])[H])(C([H])([H])[H])C([H])([H])[H])C([H])(C(=O)N([H])C1([H])c3c([H])c([H])c([H])c([H])c3C([H])([H])C([H])([H])C1([H])[H])C2([H])[H]

>  <smiles>  (88) 
[H]c1sc(N([H])C(=O)N2C([H])([H])C([H])([H])C([H])([H])C([H])(n3nc(-c4c([H])c([H])c(Oc5c([H])c([H])c(F)c([H])c5F)c([H])c4[H])c(C(=O)N([H])[H])c3N([H])[H])C2([H])[H])nc1N([H])C(=O)C([H])([H])Oc1c([H])c([H])c2c(c1[H])C([H])([H])N(C(=O)C([H])(N([H])C(=O)C([H])(N([H])C([H])([H])[H])C([H])([H])[H])C(C([H])([H])[H])(C([H])([H])[H])C([H])([H])[H])C([H])(C(=O)N([H])C1([H])c3c([H])c([H])c([H])c([H])c3C([H])([H])C([H])([H])C1([H])[H])C2([H])[H]

$$$$
88:0:0
     RDKit          3D

 90 98  0  0  1  0  0  0  0  0999 V2000
  -28.9480  -23.1890   20.3660 C   0  0  0  0  0  0  0  0  0  0  0  0
  -28.6540  -21.7790   20.1680 N   0  0  0  0  0  0  0  0  0  0  0  0
  -29.9870  -23.4850   20.9610 O   0  0  0  0  0  0  0  0  0  0  0  0
  -27.7310  -21.6600   19.7730 H   0  0  0  0  0  0  0  0  0  0  0  0
  -30.4670  -15.1540   20.3780 C   0  0  0  0  0  0  0  0  0  0  0  0
  -30.4310  -12.7500   19.4820 C   0  0  0  0  0  2  0  0  0  0  0  0
  -29.5180  -12.6170   18.2380 C   0  0  0  0  0  2  0  0  0  0  0  0
  -28.0570  -12.3680   18.6570 C   0  0  0  0  0  2  0  0  0  0  0  0
  -27.6070  -13.3180   19.7950 C   0  0  0  0  0  3  0  0  0  0  0  0
  -28.6420  -13.4060   20.9350 C   0  0  0  0  0  2  0  0  0  0  0  0
  -29.9010  -13.8660   20.3280 N   0  0  0  0  0  0  0  0  0  0  0  0
  -31.6850  -15.1970   20.1580 O   0  0  0  0  0  0  0  0  0  0  0  0
  -30.7690  -20.3400   20.5440 C   0  0  0  0  0  3  0  0  0  0  0  0
  -29.4050  -20.4100   20.3510 C   0  0  0  0  0  0  0  0  0  0  0  0
  -29.8750  -17.9040   20.4260 C   0  0  0  0  0  0  0  0  0  0  0  0
  -28.9430  -18.9760   20.2960 N   0  0  0  0  0  0  0  0  0  0  0  0
  -29.6520  -16.3510   20.4440 N   0  0  0  0  0  0  0  0  0  0  0  0
  -31.4520  -18.6840   20.6280 S   0  0  0  0  0  0  0  0  0  0  0  0
  -28.6760  -16.1130   20.5080 H   0  0  0  0  0  0  0  0  0  0  0  0
  -25.2180  -13.8810   20.5030 C   0  0  0  0  0  0  0  0  0  0  0  0
  -24.1540  -13.1010   20.8630 C   0  0  0  0  0  0  0  0  0  0  0  0
  -24.6280  -11.7520   20.8470 C   0  0  0  0  0  0  0  0  0  0  0  0
  -26.2690  -13.0070   20.2810 N   0  0  0  0  0  0  0  0  0  0  0  0
  -25.9240  -11.7230   20.5570 N   0  0  0  0  0  0  0  0  0  0  0  0
  -23.9050  -10.4870   21.0320 C   0  0  0  0  0  0  0  0  0  0  0  0
  -24.3290   -9.5260   21.9760 C   0  0  0  0  0  3  0  0  0  0  0  0
  -23.6050   -8.3260   22.1500 C   0  0  0  0  0  3  0  0  0  0  0  0
  -22.4430   -8.0800   21.3780 C   0  0  0  0  0  0  0  0  0  0  0  0
  -22.0400   -9.0300   20.4240 C   0  0  0  0  0  3  0  0  0  0  0  0
  -22.7650  -10.2210   20.2490 C   0  0  0  0  0  3  0  0  0  0  0  0
  -21.6920   -6.9330   21.4610 O   0  0  0  0  0  0  0  0  0  0  0  0
  -21.6290   -6.1950   22.6160 C   0  0  0  0  0  0  0  0  0  0  0  0
  -21.1750   -6.7520   23.8320 C   0  0  0  0  0  3  0  0  0  0  0  0
  -21.0610   -5.9400   24.9790 C   0  0  0  0  0  3  0  0  0  0  0  0
  -21.3900   -4.5720   24.9100 C   0  0  0  0  0  0  0  0  0  0  0  0
  -21.8360   -4.0150   23.6980 C   0  0  0  0  0  3  0  0  0  0  0  0
  -21.9520   -4.8240   22.5540 C   0  0  0  0  0  0  0  0  0  0  0  0
  -22.3620   -4.2770   21.3840 F   0  0  0  0  0  0  0  0  0  0  0  0
  -21.2720   -3.7910   26.0080 F   0  0  0  0  0  0  0  0  0  0  0  0
  -22.7500  -13.5710   21.1050 C   0  0  0  0  0  0  0  0  0  0  0  0
  -22.0100  -12.8770   21.9610 N   0  0  0  0  0  0  0  0  0  0  0  0
  -22.3160  -14.5900   20.5680 O   0  0  0  0  0  0  0  0  0  0  0  0
  -22.3730  -12.0540   22.4180 H   0  0  0  0  0  0  0  0  0  0  0  0
  -21.0660  -13.1740   22.1650 H   0  0  0  0  0  0  0  0  0  0  0  0
  -25.3720  -15.2510   20.3150 N   0  0  0  0  0  0  0  0  0  0  0  0
  -24.5890  -15.8910   20.3900 H   0  0  0  0  0  0  0  0  0  0  0  0
  -26.1990  -15.6880   19.9290 H   0  0  0  0  0  0  0  0  0  0  0  0
  -28.1350  -24.5070   18.3100 C   0  0  0  0  0  1  0  0  0  0  0  0
  -28.0090  -24.5140   19.8470 C   0  0  0  0  0  3  0  0  0  0  0  0
  -28.2250  -26.0470   20.2660 O   0  0  0  0  0  0  0  0  0  0  0  0
  -24.6420  -31.8920   23.2310 C   0  0  0  0  0  0  0  0  0  0  0  0
  -27.1920  -27.0920   20.1960 C   0  0  0  0  0  0  0  0  0  0  0  0
  -23.4350  -30.4940   21.6030 C   0  0  0  0  0  3  0  0  0  0  0  0
  -24.8740  -28.9050   20.1760 C   0  0  0  0  0  0  0  0  0  0  0  0
  -25.9960  -30.7320   21.4310 C   0  0  0  0  0  2  0  0  0  0  0  0
  -26.0640  -29.3310   20.7770 C   0  0  0  0  0  0  0  0  0  0  0  0
  -27.2200  -28.4450   20.7660 C   0  0  0  0  0  3  0  0  0  0  0  0
  -25.9610  -26.7890   19.5690 C   0  0  0  0  0  3  0  0  0  0  0  0
  -24.8410  -27.6490   19.5550 C   0  0  0  0  0  3  0  0  0  0  0  0
  -23.6530  -29.8150   20.2260 C   0  0  0  0  0  2  0  0  0  0  0  0
  -24.7130  -31.0620   22.1430 N   0  0  0  0  0  0  0  0  0  0  0  0
  -23.5570  -32.1810   23.7600 O   0  0  0  0  0  0  0  0  0  0  0  0
  -22.7540  -29.4930   22.5720 C   0  0  0  0  0  0  0  0  0  0  0  0
  -21.4240  -29.3250   22.4540 N   0  0  0  0  0  0  0  0  0  0  0  0
  -23.4260  -28.8690   23.3970 O   0  0  0  0  0  0  0  0  0  0  0  0
  -20.9360  -29.8800   21.7640 H   0  0  0  0  0  0  0  0  0  0  0  0
  -18.0440  -28.1200   22.9780 C   0  0  0  0  0  0  0  0  0  0  0  0
  -20.6040  -28.3910   23.2320 C   0  0  0  0  0  3  0  0  0  0  0  0
  -20.7070  -26.9550   22.6680 C   0  0  0  0  0  2  0  0  0  0  0  0
  -19.6020  -26.6240   21.6590 C   0  0  0  0  0  2  0  0  0  0  0  0
  -18.2220  -26.7680   22.3070 C   0  0  0  0  0  2  0  0  0  0  0  0
  -19.1620  -28.8880   23.3980 C   0  0  0  0  0  0  0  0  0  0  0  0
  -18.9400  -30.1510   23.9890 C   0  0  0  0  0  3  0  0  0  0  0  0
  -17.6330  -30.6470   24.1600 C   0  0  0  0  0  3  0  0  0  0  0  0
  -16.5310  -29.8760   23.7520 C   0  0  0  0  0  3  0  0  0  0  0  0
  -16.7360  -28.6140   23.1680 C   0  0  0  0  0  3  0  0  0  0  0  0
  -25.9200  -32.5330   23.8510 C   0  0  0  0  0  3  0  0  0  0  0  0
  -25.6050  -33.9320   24.1870 N   0  0  0  0  0  0  0  0  0  0  0  0
  -25.9240  -34.9910   23.4310 C   0  0  0  0  0  0  0  0  0  0  0  0
  -26.5790  -34.8940   22.3910 O   0  0  0  0  0  0  0  0  0  0  0  0
  -25.0210  -34.0800   24.9970 H   0  0  0  0  0  0  0  0  0  0  0  0
  -24.1860  -36.7880   23.1150 C   0  0  0  0  0  1  0  0  0  0  0  0
  -25.4410  -36.3780   23.9040 C   0  0  0  0  0  3  0  0  0  0  0  0
  -27.5860  -37.2690   24.7070 C   0  0  0  0  0  1  0  0  0  0  0  0
  -26.4700  -37.4340   23.7790 N   0  0  0  0  0  0  0  0  0  0  0  0
  -26.0640  -38.3530   23.9330 H   0  0  0  0  0  0  0  0  0  0  0  0
  -26.4370  -31.7670   25.1310 C   0  0  1  0  0  0  0  0  0  0  0  0
  -25.3460  -31.5350   26.2040 C   0  0  0  0  0  1  0  0  0  0  0  0
  -27.0190  -30.3870   24.7510 C   0  0  0  0  0  1  0  0  0  0  0  0
  -27.5890  -32.5650   25.7880 C   0  0  0  0  0  1  0  0  0  0  0  0
  1  3  2  0
  2 14  1  0
  2  1  1  0
  4  2  1  0
  5 17  1  0
  6 11  1  0
  7  8  1  0
  7  6  1  0
  9  8  1  0
  9 23  1  0
  9 10  1  0
 11  5  1  0
 11 10  1  0
 12  5  2  0
 13 18  1  0
 14 13  2  0
 15 17  1  0
 15 18  1  0
 16 14  1  0
 16 15  2  0
 17 19  1  0
 20 21  2  0
 21 40  1  0
 22 21  1  0
 22 25  1  0
 23 20  1  0
 23 24  1  0
 24 22  2  0
 25 26  1  0
 26 27  2  0
 28 31  1  0
 28 27  1  0
 29 28  2  0
 30 29  1  0
 30 25  2  0
 31 32  1  0
 32 33  1  0
 33 34  2  0
 35 34  1  0
 35 39  1  0
 36 35  2  0
 37 32  2  0
 37 36  1  0
 38 37  1  0
 40 41  1  0
 41 44  1  0
 41 43  1  0
 42 40  2  0
 45 46  1  0
 45 20  1  0
 47 45  1  0
 49 48  1  0
 49 50  1  0
 49  1  1  0
 51 62  2  0
 52 50  1  0
 52 57  1  0
 53 61  1  0
 53 63  1  0
 54 60  1  0
 54 56  1  0
 55 61  1  0
 56 55  1  0
 57 56  2  0
 58 52  2  0
 59 58  1  0
 59 54  2  0
 60 53  1  0
 61 51  1  0
 63 65  2  0
 64 63  1  0
 66 64  1  0
 67 76  2  0
 67 72  1  0
 68 64  1  0
 68 72  1  0
 69 68  1  0
 70 71  1  0
 70 69  1  0
 71 67  1  0
 72 73  2  0
 73 74  1  0
 75 74  2  0
 76 75  1  0
 77 51  1  0
 77 78  1  0
 77 87  1  0
 78 81  1  0
 79 83  1  0
 79 78  1  0
 80 79  2  0
 83 82  1  0
 85 83  1  0
 85 86  1  0
 85 84  1  0
 87 90  1  1
 87 88  1  0
 89 87  1  0
M  ISO  4   5 100  17 100  49 101  50 101
M  END
>  <TORSDO>  (89) 
F 17

>  <SCORE>  (89) 
-15.479

>  <name>  (89) 
88

>  <ligand_id>  (89) 
88

>  <original_smiles>  (89) 
[H]c1sc(N([H])C(=O)N2C([H])([H])C([H])([H])C([H])([H])C([H])(n3nc(-c4c([H])c([H])c(Oc5c([H])c([H])c(F)c([H])c5F)c([H])c4[H])c(C(=O)N([H])[H])c3N([H])[H])C2([H])[H])nc1N([H])C(=O)C([H])(Oc1c([H])c([H])c2c(c1[H])C([H])([H])N(C(=O)C([H])(N([H])C(=O)C([H])(N([H])C([H])([H])[H])C([H])([H])[H])C(C([H])([H])[H])(C([H])([H])[H])C([H])([H])[H])C([H])(C(=O)N([H])C1([H])c3c([H])c([H])c([H])c([H])c3C([H])([H])C([H])([H])C1([H])[H])C2([H])[H])C([H])([H])[H]

>  <smiles>  (89) 
[H]c1sc(N([H])C(=O)N2C([H])([H])C([H])([H])C([H])([H])C([H])(n3nc(-c4c([H])c([H])c(Oc5c([H])c([H])c(F)c([H])c5F)c([H])c4[H])c(C(=O)N([H])[H])c3N([H])[H])C2([H])[H])nc1N([H])C(=O)C([H])(Oc1c([H])c([H])c2c(c1[H])C([H])([H])N(C(=O)C([H])(N([H])C(=O)C([H])(N([H])C([H])([H])[H])C([H])([H])[H])C(C([H])([H])[H])(C([H])([H])[H])C([H])([H])[H])C([H])(C(=O)N([H])C1([H])c3c([H])c([H])c([H])c([H])c3C([H])([H])C([H])([H])C1([H])[H])C2([H])[H])C([H])([H])[H]

$$$$
89:0:0
     RDKit          3D

 94102  0  0  1  0  0  0  0  0999 V2000
  -29.6070  -21.6260   20.5360 C   0  0  0  0  0  0  0  0  0  0  0  0
  -30.5770  -20.7080   20.2720 N   0  0  0  0  0  0  0  0  0  0  0  0
  -28.5070  -21.2990   20.9860 O   0  0  0  0  0  0  0  0  0  0  0  0
  -31.3460  -21.0470   19.7100 H   0  0  0  0  0  0  0  0  0  0  0  0
  -30.7980  -18.9400   22.0030 C   0  0  0  0  0  0  0  0  0  0  0  0
  -30.8880  -17.5070   22.0990 C   0  0  0  0  0  0  0  0  0  0  0  0
  -30.6710  -19.4060   20.7070 C   0  0  0  0  0  0  0  0  0  0  0  0
  -30.9140  -16.8530   20.8860 C   0  0  0  0  0  0  0  0  0  0  0  0
  -30.8590  -19.8330   23.2150 C   0  0  0  0  0  1  0  0  0  0  0  0
  -30.9440  -16.7930   23.4260 C   0  0  0  0  0  1  0  0  0  0  0  0
  -30.7970  -18.0410   19.5900 S   0  0  0  0  0  0  0  0  0  0  0  0
  -31.5330  -14.6340   19.8940 C   0  0  0  0  0  0  0  0  0  0  0  0
  -31.1230  -12.4900   18.7040 C   0  0  0  0  0  2  0  0  0  0  0  0
  -30.0680  -12.7140   17.5980 C   0  0  0  0  0  2  0  0  0  0  0  0
  -28.6330  -12.6180   18.1580 C   0  0  0  0  0  2  0  0  0  0  0  0
  -28.4430  -13.4480   19.4550 C   0  0  0  0  0  3  0  0  0  0  0  0
  -29.5780  -13.1380   20.4530 C   0  0  0  0  0  2  0  0  0  0  0  0
  -30.8640  -13.4480   19.7920 N   0  0  0  0  0  0  0  0  0  0  0  0
  -32.5530  -14.8890   19.2430 O   0  0  0  0  0  0  0  0  0  0  0  0
  -30.9750  -15.4870   20.7800 N   0  0  0  0  0  0  0  0  0  0  0  0
  -30.3030  -15.0120   21.3630 H   0  0  0  0  0  0  0  0  0  0  0  0
  -26.1760  -14.1560   20.4550 C   0  0  0  0  0  0  0  0  0  0  0  0
  -25.0920  -13.4280   20.8690 C   0  0  0  0  0  0  0  0  0  0  0  0
  -25.4430  -12.0560   20.6810 C   0  0  0  0  0  0  0  0  0  0  0  0
  -27.1230  -13.2280   20.0460 N   0  0  0  0  0  0  0  0  0  0  0  0
  -26.6880  -11.9560   20.2340 N   0  0  0  0  0  0  0  0  0  0  0  0
  -24.6450  -10.8340   20.8440 C   0  0  0  0  0  0  0  0  0  0  0  0
  -25.0120   -9.8310   21.7670 C   0  0  0  0  0  3  0  0  0  0  0  0
  -24.2200   -8.6730   21.9190 C   0  0  0  0  0  3  0  0  0  0  0  0
  -23.0450   -8.5110   21.1470 C   0  0  0  0  0  0  0  0  0  0  0  0
  -22.6960   -9.5020   20.2120 C   0  0  0  0  0  3  0  0  0  0  0  0
  -23.4890  -10.6520   20.0580 C   0  0  0  0  0  3  0  0  0  0  0  0
  -22.2290   -7.4080   21.2070 O   0  0  0  0  0  0  0  0  0  0  0  0
  -22.0120   -6.7380   22.3840 C   0  0  0  0  0  0  0  0  0  0  0  0
  -21.5100   -7.3890   23.5320 C   0  0  0  0  0  3  0  0  0  0  0  0
  -21.2370   -6.6480   24.6990 C   0  0  0  0  0  3  0  0  0  0  0  0
  -21.4540   -5.2570   24.7180 C   0  0  0  0  0  0  0  0  0  0  0  0
  -21.9480   -4.6050   23.5740 C   0  0  0  0  0  3  0  0  0  0  0  0
  -22.2230   -5.3430   22.4100 C   0  0  0  0  0  0  0  0  0  0  0  0
  -22.6780   -4.7070   21.3040 F   0  0  0  0  0  0  0  0  0  0  0  0
  -21.1850   -4.5430   25.8360 F   0  0  0  0  0  0  0  0  0  0  0  0
  -23.7710  -13.9730   21.3280 C   0  0  0  0  0  0  0  0  0  0  0  0
  -23.1030  -13.2750   22.2410 N   0  0  0  0  0  0  0  0  0  0  0  0
  -23.3420  -15.0490   20.9140 O   0  0  0  0  0  0  0  0  0  0  0  0
  -23.4630  -12.4020   22.5980 H   0  0  0  0  0  0  0  0  0  0  0  0
  -22.2190  -13.6190   22.5890 H   0  0  0  0  0  0  0  0  0  0  0  0
  -26.4300  -15.5220   20.3750 N   0  0  0  0  0  0  0  0  0  0  0  0
  -25.7390  -16.2200   20.6290 H   0  0  0  0  0  0  0  0  0  0  0  0
  -27.2830  -15.9260   20.0100 H   0  0  0  0  0  0  0  0  0  0  0  0
  -31.1620  -23.3590   19.4130 C   0  0  0  0  0  1  0  0  0  0  0  0
  -29.9040  -23.1400   20.2830 C   0  0  0  0  0  3  0  0  0  0  0  0
  -28.7060  -24.0210   19.7580 C   0  0  0  0  0  2  0  0  0  0  0  0
  -28.5880  -25.4350   20.4200 C   0  0  0  0  0  2  0  0  0  0  0  0
  -28.3780  -26.5380   19.5100 O   0  0  0  0  0  0  0  0  0  0  0  0
  -24.7370  -31.6120   23.0340 C   0  0  0  0  0  0  0  0  0  0  0  0
  -27.2160  -27.2750   19.6580 C   0  0  0  0  0  0  0  0  0  0  0  0
  -23.4490  -30.2810   21.3940 C   0  0  0  0  0  3  0  0  0  0  0  0
  -24.8320  -28.7940   19.8430 C   0  0  0  0  0  0  0  0  0  0  0  0
  -25.9660  -30.6390   21.0900 C   0  0  0  0  0  2  0  0  0  0  0  0
  -26.0180  -29.2910   20.3950 C   0  0  0  0  0  0  0  0  0  0  0  0
  -27.2170  -28.5410   20.2930 C   0  0  0  0  0  3  0  0  0  0  0  0
  -26.0120  -26.7900   19.1110 C   0  0  0  0  0  3  0  0  0  0  0  0
  -24.8230  -27.5420   19.2010 C   0  0  0  0  0  3  0  0  0  0  0  0
  -23.5940  -29.6550   19.9820 C   0  0  0  0  0  2  0  0  0  0  0  0
  -24.7390  -30.8560   21.8980 N   0  0  0  0  0  0  0  0  0  0  0  0
  -23.6850  -31.8620   23.6370 O   0  0  0  0  0  0  0  0  0  0  0  0
  -22.8400  -29.2250   22.3420 C   0  0  0  0  0  0  0  0  0  0  0  0
  -21.5160  -29.0200   22.2440 N   0  0  0  0  0  0  0  0  0  0  0  0
  -23.5570  -28.5920   23.1240 O   0  0  0  0  0  0  0  0  0  0  0  0
  -20.9980  -29.5840   21.5850 H   0  0  0  0  0  0  0  0  0  0  0  0
  -18.1880  -27.7060   22.7440 C   0  0  0  0  0  0  0  0  0  0  0  0
  -20.7370  -28.0450   23.0060 C   0  0  0  0  0  3  0  0  0  0  0  0
  -20.8840  -26.6260   22.4110 C   0  0  0  0  0  2  0  0  0  0  0  0
  -19.7880  -26.2810   21.3980 C   0  0  0  0  0  2  0  0  0  0  0  0
  -18.4050  -26.3720   22.0510 C   0  0  0  0  0  2  0  0  0  0  0  0
  -19.2820  -28.5000   23.1790 C   0  0  0  0  0  0  0  0  0  0  0  0
  -19.0260  -29.7490   23.7840 C   0  0  0  0  0  3  0  0  0  0  0  0
  -17.7070  -30.2040   23.9640 C   0  0  0  0  0  3  0  0  0  0  0  0
  -16.6250  -29.4080   23.5470 C   0  0  0  0  0  3  0  0  0  0  0  0
  -16.8680  -28.1620   22.9410 C   0  0  0  0  0  3  0  0  0  0  0  0
  -26.0530  -32.2150   23.6170 C   0  0  0  0  0  3  0  0  0  0  0  0
  -26.6590  -31.3600   24.7970 C   0  0  1  0  0  0  0  0  0  0  0  0
  -25.6400  -31.0300   25.9130 C   0  0  0  0  0  1  0  0  0  0  0  0
  -27.2320  -30.0260   24.2640 C   0  0  0  0  0  1  0  0  0  0  0  0
  -27.8390  -32.1240   25.4440 C   0  0  0  0  0  1  0  0  0  0  0  0
  -25.7530  -33.5800   24.0690 N   0  0  0  0  0  0  0  0  0  0  0  0
  -26.0590  -34.6910   23.3850 C   0  0  0  0  0  0  0  0  0  0  0  0
  -26.6930  -34.6740   22.3260 O   0  0  0  0  0  0  0  0  0  0  0  0
  -25.1830  -33.6680   24.8970 H   0  0  0  0  0  0  0  0  0  0  0  0
  -24.3200  -36.5000   23.2310 C   0  0  0  0  0  1  0  0  0  0  0  0
  -25.5860  -36.0360   23.9690 C   0  0  0  0  0  3  0  0  0  0  0  0
  -27.7460  -36.8570   24.7960 C   0  0  0  0  0  1  0  0  0  0  0  0
  -26.6130  -37.0980   23.9080 N   0  0  0  0  0  0  0  0  0  0  0  0
  -26.2120  -38.0020   24.1470 H   0  0  0  0  0  0  0  0  0  0  0  0
  1  3  2  0
  2  1  1  0
  2  7  1  0
  4  2  1  0
  5  6  1  0
  5  9  1  0
  6 10  1  0
  7  5  2  0
  8  6  2  0
 11  7  1  0
 11  8  1  0
 12 20  1  0
 13 18  1  0
 14 15  1  0
 14 13  1  0
 16 15  1  0
 16 25  1  0
 16 17  1  0
 18 12  1  0
 18 17  1  0
 19 12  2  0
 20  8  1  0
 20 21  1  0
 22 23  2  0
 23 42  1  0
 24 27  1  0
 24 23  1  0
 25 26  1  0
 25 22  1  0
 26 24  2  0
 27 28  1  0
 28 29  2  0
 30 33  1  0
 30 29  1  0
 31 30  2  0
 32 31  1  0
 32 27  2  0
 33 34  1  0
 34 39  2  0
 34 35  1  0
 35 36  2  0
 36 37  1  0
 37 41  1  0
 38 37  2  0
 39 38  1  0
 40 39  1  0
 42 43  1  0
 43 46  1  0
 43 45  1  0
 44 42  2  0
 47 22  1  0
 47 48  1  0
 49 47  1  0
 51 50  1  0
 51  1  1  0
 52 51  1  0
 52 53  1  0
 54 56  1  0
 54 53  1  0
 55 66  2  0
 56 61  1  0
 57 65  1  0
 57 67  1  0
 58 64  1  0
 58 60  1  0
 59 65  1  0
 60 59  1  0
 61 60  2  0
 62 63  1  0
 62 56  2  0
 63 58  2  0
 64 57  1  0
 65 55  1  0
 67 69  2  0
 68 67  1  0
 70 68  1  0
 71 80  2  0
 71 76  1  0
 72 68  1  0
 72 76  1  0
 73 72  1  0
 74 75  1  0
 74 73  1  0
 75 71  1  0
 76 77  2  0
 77 78  1  0
 79 78  2  0
 80 79  1  0
 81 55  1  0
 81 86  1  0
 81 82  1  0
 82 85  1  1
 82 83  1  0
 84 82  1  0
 86 89  1  0
 87 91  1  0
 87 86  1  0
 88 87  2  0
 91 90  1  0
 93 91  1  0
 93 94  1  0
 93 92  1  0
M  ISO  4  12 100  20 100  53 101  54 101
M  END
>  <TORSDO>  (90) 
F 20

>  <SCORE>  (90) 
-11.127

>  <name>  (90) 
89

>  <ligand_id>  (90) 
89

>  <original_smiles>  (90) 
[H]c1c([H])c([H])c2c(c1[H])C([H])([H])C([H])([H])C([H])([H])C2([H])N([H])C(=O)C1([H])N(C(=O)C([H])(N([H])C(=O)C([H])(N([H])C([H])([H])[H])C([H])([H])[H])C(C([H])([H])[H])(C([H])([H])[H])C([H])([H])[H])C([H])([H])c2c([H])c(OC([H])([H])C([H])([H])C([H])(C(=O)N([H])c3sc(N([H])C(=O)N4C([H])([H])C([H])([H])C([H])([H])C([H])(n5nc(-c6c([H])c([H])c(Oc7c([H])c([H])c(F)c([H])c7F)c([H])c6[H])c(C(=O)N([H])[H])c5N([H])[H])C4([H])[H])c(C([H])([H])[H])c3C([H])([H])[H])C([H])([H])[H])c([H])c([H])c2C1([H])[H]

>  <smiles>  (90) 
[H]c1c([H])c([H])c2c(c1[H])C([H])([H])C([H])([H])C([H])([H])C2([H])N([H])C(=O)C1([H])N(C(=O)C([H])(N([H])C(=O)C([H])(N([H])C([H])([H])[H])C([H])([H])[H])C(C([H])([H])[H])(C([H])([H])[H])C([H])([H])[H])C([H])([H])c2c([H])c(OC([H])([H])C([H])([H])C([H])(C(=O)N([H])c3sc(N([H])C(=O)N4C([H])([H])C([H])([H])C([H])([H])C([H])(n5nc(-c6c([H])c([H])c(Oc7c([H])c([H])c(F)c([H])c7F)c([H])c6[H])c(C(=O)N([H])[H])c5N([H])[H])C4([H])[H])c(C([H])([H])[H])c3C([H])([H])[H])C([H])([H])[H])c([H])c([H])c2C1([H])[H]

$$$$
90:0:0
     RDKit          3D

 92100  0  0  1  0  0  0  0  0999 V2000
  -28.3800  -23.6690   19.8110 C   0  0  0  0  0  0  0  0  0  0  0  0
  -28.7750  -22.3820   20.2540 N   0  0  0  0  0  0  0  0  0  0  0  0
  -28.0370  -23.8910   18.6440 O   0  0  0  0  0  0  0  0  0  0  0  0
  -29.2600  -22.3790   21.1360 H   0  0  0  0  0  0  0  0  0  0  0  0
  -28.5730  -21.0930   19.7050 C   0  0  0  0  0  0  0  0  0  0  0  0
  -27.4670  -20.7630   18.4760 S   0  0  0  0  0  0  0  0  0  0  0  0
  -31.1250  -18.0590   20.7100 C   0  0  0  0  0  3  0  0  0  0  0  0
  -29.9180  -17.4430   20.4660 C   0  0  0  0  0  0  0  0  0  0  0  0
  -29.3160  -19.7960   20.2220 C   0  0  0  0  0  0  0  0  0  0  0  0
  -28.9180  -18.4620   20.2150 N   0  0  0  0  0  0  0  0  0  0  0  0
  -31.0400  -19.8350   20.6170 S   0  0  0  0  0  0  0  0  0  0  0  0
  -30.5210  -14.8380   20.3670 C   0  0  0  0  0  0  0  0  0  0  0  0
  -30.3760  -12.5350   19.3750 C   0  0  0  0  0  2  0  0  0  0  0  0
  -29.4370  -12.5650   18.1470 C   0  0  0  0  0  2  0  0  0  0  0  0
  -27.9690  -12.3730   18.5760 C   0  0  0  0  0  2  0  0  0  0  0  0
  -27.5770  -13.2740   19.7770 C   0  0  0  0  0  3  0  0  0  0  0  0
  -28.6330  -13.2140   20.9030 C   0  0  0  0  0  2  0  0  0  0  0  0
  -29.9210  -13.5940   20.3090 N   0  0  0  0  0  0  0  0  0  0  0  0
  -31.7210  -14.9360   20.0870 O   0  0  0  0  0  0  0  0  0  0  0  0
  -29.6940  -15.9620   20.5080 N   0  0  0  0  0  0  0  0  0  0  0  0
  -28.7260  -15.7060   20.6040 H   0  0  0  0  0  0  0  0  0  0  0  0
  -25.1860  -13.8560   20.4930 C   0  0  0  0  0  0  0  0  0  0  0  0
  -24.1230  -13.0800   20.8620 C   0  0  0  0  0  0  0  0  0  0  0  0
  -24.5930  -11.7310   20.8440 C   0  0  0  0  0  0  0  0  0  0  0  0
  -26.2350  -12.9810   20.2670 N   0  0  0  0  0  0  0  0  0  0  0  0
  -25.8860  -11.6980   20.5440 N   0  0  0  0  0  0  0  0  0  0  0  0
  -23.8720  -10.4660   21.0390 C   0  0  0  0  0  0  0  0  0  0  0  0
  -24.3110   -9.5010   21.9700 C   0  0  0  0  0  3  0  0  0  0  0  0
  -23.5900   -8.3020   22.1530 C   0  0  0  0  0  3  0  0  0  0  0  0
  -22.4150   -8.0590   21.4030 C   0  0  0  0  0  0  0  0  0  0  0  0
  -21.9960   -9.0130   20.4590 C   0  0  0  0  0  3  0  0  0  0  0  0
  -22.7170  -10.2040   20.2750 C   0  0  0  0  0  3  0  0  0  0  0  0
  -21.6650   -6.9110   21.4940 O   0  0  0  0  0  0  0  0  0  0  0  0
  -21.6320   -6.1630   22.6440 C   0  0  0  0  0  0  0  0  0  0  0  0
  -21.2210   -6.7110   23.8780 C   0  0  0  0  0  3  0  0  0  0  0  0
  -21.1360   -5.8890   25.0200 C   0  0  0  0  0  3  0  0  0  0  0  0
  -21.4520   -4.5210   24.9280 C   0  0  0  0  0  0  0  0  0  0  0  0
  -21.8560   -3.9710   23.6980 C   0  0  0  0  0  3  0  0  0  0  0  0
  -21.9430   -4.7910   22.5580 C   0  0  0  0  0  0  0  0  0  0  0  0
  -22.3130   -4.2540   21.3710 F   0  0  0  0  0  0  0  0  0  0  0  0
  -21.3620   -3.7280   26.0210 F   0  0  0  0  0  0  0  0  0  0  0  0
  -22.7210  -13.5520   21.1180 C   0  0  0  0  0  0  0  0  0  0  0  0
  -21.9900  -12.8590   21.9840 N   0  0  0  0  0  0  0  0  0  0  0  0
  -22.2830  -14.5710   20.5870 O   0  0  0  0  0  0  0  0  0  0  0  0
  -22.3570  -12.0330   22.4360 H   0  0  0  0  0  0  0  0  0  0  0  0
  -21.0500  -13.1570   22.1990 H   0  0  0  0  0  0  0  0  0  0  0  0
  -25.3420  -15.2270   20.3050 N   0  0  0  0  0  0  0  0  0  0  0  0
  -24.5620  -15.8690   20.3990 H   0  0  0  0  0  0  0  0  0  0  0  0
  -26.1730  -15.6730   19.9400 H   0  0  0  0  0  0  0  0  0  0  0  0
  -27.2760  -24.8130   21.8630 C   0  0  0  0  0  1  0  0  0  0  0  0
  -28.3490  -24.9730   20.7710 C   0  0  0  0  0  3  0  0  0  0  0  0
  -28.3370  -26.3760   20.1600 O   0  0  0  0  0  0  0  0  0  0  0  0
  -24.6220  -31.8740   23.2310 C   0  0  0  0  0  0  0  0  0  0  0  0
  -27.2180  -27.2520   20.1800 C   0  0  0  0  0  0  0  0  0  0  0  0
  -23.4140  -30.4740   21.5950 C   0  0  0  0  0  3  0  0  0  0  0  0
  -24.8610  -28.9090   20.1650 C   0  0  0  0  0  0  0  0  0  0  0  0
  -25.9570  -30.7780   21.4030 C   0  0  0  0  0  2  0  0  0  0  0  0
  -26.0360  -29.3910   20.7590 C   0  0  0  0  0  0  0  0  0  0  0  0
  -27.2180  -28.5760   20.7460 C   0  0  0  0  0  3  0  0  0  0  0  0
  -26.0200  -26.8400   19.5620 C   0  0  0  0  0  3  0  0  0  0  0  0
  -24.8580  -27.6450   19.5540 C   0  0  0  0  0  3  0  0  0  0  0  0
  -23.6260  -29.7930   20.2140 C   0  0  0  0  0  2  0  0  0  0  0  0
  -24.6850  -31.0630   22.1320 N   0  0  0  0  0  0  0  0  0  0  0  0
  -23.5400  -32.1510   23.7690 O   0  0  0  0  0  0  0  0  0  0  0  0
  -22.7510  -29.4620   22.5600 C   0  0  0  0  0  0  0  0  0  0  0  0
  -21.4230  -29.2880   22.4430 N   0  0  0  0  0  0  0  0  0  0  0  0
  -23.4320  -28.8350   23.3750 O   0  0  0  0  0  0  0  0  0  0  0  0
  -20.9330  -29.8450   21.7580 H   0  0  0  0  0  0  0  0  0  0  0  0
  -18.0500  -28.0820   22.9550 C   0  0  0  0  0  0  0  0  0  0  0  0
  -20.6080  -28.3500   23.2160 C   0  0  0  0  0  3  0  0  0  0  0  0
  -20.7130  -26.9170   22.6410 C   0  0  0  0  0  2  0  0  0  0  0  0
  -19.6090  -26.5920   21.6310 C   0  0  0  0  0  2  0  0  0  0  0  0
  -18.2290  -26.7340   22.2790 C   0  0  0  0  0  2  0  0  0  0  0  0
  -19.1680  -28.8480   23.3820 C   0  0  0  0  0  0  0  0  0  0  0  0
  -18.9470  -30.1080   23.9750 C   0  0  0  0  0  3  0  0  0  0  0  0
  -17.6420  -30.6060   24.1470 C   0  0  0  0  0  3  0  0  0  0  0  0
  -16.5380  -29.8390   23.7370 C   0  0  0  0  0  3  0  0  0  0  0  0
  -16.7430  -28.5790   23.1460 C   0  0  0  0  0  3  0  0  0  0  0  0
  -25.9040  -32.5100   23.8490 C   0  0  0  0  0  3  0  0  0  0  0  0
  -26.4220  -31.7430   25.1290 C   0  0  1  0  0  0  0  0  0  0  0  0
  -25.3300  -31.5130   26.2000 C   0  0  0  0  0  1  0  0  0  0  0  0
  -27.0000  -30.3630   24.7420 C   0  0  0  0  0  1  0  0  0  0  0  0
  -27.5750  -32.5370   25.7850 C   0  0  0  0  0  1  0  0  0  0  0  0
  -25.5950  -33.9090   24.1800 N   0  0  0  0  0  0  0  0  0  0  0  0
  -25.9260  -34.9620   23.4220 C   0  0  0  0  0  0  0  0  0  0  0  0
  -26.5910  -34.8590   22.3870 O   0  0  0  0  0  0  0  0  0  0  0  0
  -25.0030  -34.0640   24.9830 H   0  0  0  0  0  0  0  0  0  0  0  0
  -24.1990  -36.7590   23.0760 C   0  0  0  0  0  1  0  0  0  0  0  0
  -25.4420  -36.3520   23.8830 C   0  0  0  0  0  3  0  0  0  0  0  0
  -27.5820  -37.2330   24.7060 C   0  0  0  0  0  1  0  0  0  0  0  0
  -26.4760  -37.4040   23.7670 N   0  0  0  0  0  0  0  0  0  0  0  0
  -26.0720  -38.3240   23.9180 H   0  0  0  0  0  0  0  0  0  0  0  0
  1  2  1  0
  1 51  1  0
  2  4  1  0
  3  1  2  0
  5  9  1  0
  5  2  1  0
  6  5  2  0
  8 20  1  0
  8  7  2  0
  9 11  1  0
 10  9  2  0
 10  8  1  0
 11  7  1  0
 12 20  1  0
 13 18  1  0
 14 15  1  0
 14 13  1  0
 16 15  1  0
 16 25  1  0
 16 17  1  0
 18 12  1  0
 18 17  1  0
 19 12  2  0
 20 21  1  0
 22 23  2  0
 23 42  1  0
 24 23  1  0
 24 27  1  0
 25 22  1  0
 25 26  1  0
 26 24  2  0
 27 28  1  0
 28 29  2  0
 30 33  1  0
 30 29  1  0
 31 30  2  0
 32 31  1  0
 32 27  2  0
 33 34  1  0
 34 35  1  0
 35 36  2  0
 37 36  1  0
 37 41  1  0
 38 37  2  0
 39 34  2  0
 39 38  1  0
 40 39  1  0
 42 43  1  0
 43 46  1  0
 43 45  1  0
 44 42  2  0
 47 48  1  0
 47 22  1  0
 49 47  1  0
 51 50  1  0
 52 54  1  0
 52 51  1  0
 53 64  2  0
 54 59  1  0
 55 63  1  0
 55 65  1  0
 56 62  1  0
 56 58  1  0
 57 63  1  0
 58 57  1  0
 59 58  2  0
 60 54  2  0
 61 60  1  0
 61 56  2  0
 62 55  1  0
 63 53  1  0
 65 67  2  0
 66 65  1  0
 68 66  1  0
 69 78  2  0
 69 74  1  0
 70 66  1  0
 70 74  1  0
 71 70  1  0
 72 73  1  0
 72 71  1  0
 73 69  1  0
 74 75  2  0
 75 76  1  0
 77 76  2  0
 78 77  1  0
 79 53  1  0
 79 84  1  0
 79 80  1  0
 80 83  1  1
 80 81  1  0
 82 80  1  0
 84 87  1  0
 85 89  1  0
 85 84  1  0
 86 85  2  0
 89 88  1  0
 91 89  1  0
 91 92  1  0
 91 90  1  0
M  ISO  4  12 100  20 100  51 101  52 101
M  END
>  <TORSDO>  (91) 
F 19

>  <SCORE>  (91) 
-14.381

>  <name>  (91) 
90

>  <ligand_id>  (91) 
90

>  <original_smiles>  (91) 
[H]c1sc(C(=S)N([H])C(=O)C([H])(Oc2c([H])c([H])c3c(c2[H])C([H])([H])N(C(=O)C([H])(N([H])C(=O)C([H])(N([H])C([H])([H])[H])C([H])([H])[H])C(C([H])([H])[H])(C([H])([H])[H])C([H])([H])[H])C([H])(C(=O)N([H])C2([H])c4c([H])c([H])c([H])c([H])c4C([H])([H])C([H])([H])C2([H])[H])C3([H])[H])C([H])([H])[H])nc1N([H])C(=O)N1C([H])([H])C([H])([H])C([H])([H])C([H])(n2nc(-c3c([H])c([H])c(Oc4c([H])c([H])c(F)c([H])c4F)c([H])c3[H])c(C(=O)N([H])[H])c2N([H])[H])C1([H])[H]

>  <smiles>  (91) 
[H]c1sc(C(=S)N([H])C(=O)C([H])(Oc2c([H])c([H])c3c(c2[H])C([H])([H])N(C(=O)C([H])(N([H])C(=O)C([H])(N([H])C([H])([H])[H])C([H])([H])[H])C(C([H])([H])[H])(C([H])([H])[H])C([H])([H])[H])C([H])(C(=O)N([H])C2([H])c4c([H])c([H])c([H])c([H])c4C([H])([H])C([H])([H])C2([H])[H])C3([H])[H])C([H])([H])[H])nc1N([H])C(=O)N1C([H])([H])C([H])([H])C([H])([H])C([H])(n2nc(-c3c([H])c([H])c(Oc4c([H])c([H])c(F)c([H])c4F)c([H])c3[H])c(C(=O)N([H])[H])c2N([H])[H])C1([H])[H]

$$$$
91:0:0
     RDKit          3D

 95103  0  0  1  0  0  0  0  0999 V2000
  -29.0810  -22.2940   20.0500 C   0  0  0  0  0  0  0  0  0  0  0  0
  -28.6300  -21.0010   20.3390 N   0  0  0  0  0  0  0  0  0  0  0  0
  -30.1610  -22.4440   19.4740 O   0  0  0  0  0  0  0  0  0  0  0  0
  -27.8440  -20.9740   20.9740 H   0  0  0  0  0  0  0  0  0  0  0  0
  -30.4870  -14.8420   20.2560 C   0  0  0  0  0  0  0  0  0  0  0  0
  -30.3260  -12.5540   19.2710 C   0  0  0  0  0  2  0  0  0  0  0  0
  -29.3720  -12.6380   18.0590 C   0  0  0  0  0  2  0  0  0  0  0  0
  -27.9060  -12.4590   18.5010 C   0  0  0  0  0  2  0  0  0  0  0  0
  -27.5510  -13.3180   19.7460 C   0  0  0  0  0  3  0  0  0  0  0  0
  -28.6250  -13.2150   20.8500 C   0  0  0  0  0  2  0  0  0  0  0  0
  -29.9090  -13.5900   20.2440 N   0  0  0  0  0  0  0  0  0  0  0  0
  -31.6400  -14.9760   19.8300 O   0  0  0  0  0  0  0  0  0  0  0  0
  -29.4070  -19.3190   18.5810 C   0  0  0  0  0  0  0  0  0  0  0  0
  -29.1180  -19.6530   19.8990 C   0  0  0  0  0  0  0  0  0  0  0  0
  -29.6790  -17.3180   20.1050 C   0  0  0  0  0  0  0  0  0  0  0  0
  -29.1820  -18.4510   20.7200 N   0  0  0  0  0  0  0  0  0  0  0  0
  -29.7170  -15.9350   20.6470 N   0  0  0  0  0  0  0  0  0  0  0  0
  -30.0970  -17.6900   18.4440 S   0  0  0  0  0  0  0  0  0  0  0  0
  -28.9130  -15.6900   21.2040 H   0  0  0  0  0  0  0  0  0  0  0  0
  -25.1820  -13.9010   20.5350 C   0  0  0  0  0  0  0  0  0  0  0  0
  -24.1250  -13.1220   20.9180 C   0  0  0  0  0  0  0  0  0  0  0  0
  -24.5830  -11.7700   20.8480 C   0  0  0  0  0  0  0  0  0  0  0  0
  -26.2160  -13.0230   20.2560 N   0  0  0  0  0  0  0  0  0  0  0  0
  -25.8650  -11.7360   20.5070 N   0  0  0  0  0  0  0  0  0  0  0  0
  -23.8570  -10.5070   21.0330 C   0  0  0  0  0  0  0  0  0  0  0  0
  -24.2910   -9.5340   21.9610 C   0  0  0  0  0  3  0  0  0  0  0  0
  -23.5640   -8.3370   22.1340 C   0  0  0  0  0  3  0  0  0  0  0  0
  -22.3920   -8.1020   21.3760 C   0  0  0  0  0  0  0  0  0  0  0  0
  -21.9800   -9.0620   20.4350 C   0  0  0  0  0  3  0  0  0  0  0  0
  -22.7060  -10.2510   20.2610 C   0  0  0  0  0  3  0  0  0  0  0  0
  -21.6380   -6.9550   21.4560 O   0  0  0  0  0  0  0  0  0  0  0  0
  -21.5660   -6.2210   22.6140 C   0  0  0  0  0  0  0  0  0  0  0  0
  -21.0630   -6.7690   23.8140 C   0  0  0  0  0  3  0  0  0  0  0  0
  -20.9430   -5.9570   24.9600 C   0  0  0  0  0  3  0  0  0  0  0  0
  -21.3110   -4.6000   24.9070 C   0  0  0  0  0  0  0  0  0  0  0  0
  -21.8070   -4.0520   23.7100 C   0  0  0  0  0  3  0  0  0  0  0  0
  -21.9300   -4.8600   22.5660 C   0  0  0  0  0  0  0  0  0  0  0  0
  -22.3860   -4.3210   21.4090 F   0  0  0  0  0  0  0  0  0  0  0  0
  -21.1900   -3.8190   26.0060 F   0  0  0  0  0  0  0  0  0  0  0  0
  -22.7360  -13.5980   21.2330 C   0  0  0  0  0  0  0  0  0  0  0  0
  -22.0250  -12.8850   22.0980 N   0  0  0  0  0  0  0  0  0  0  0  0
  -22.2910  -14.6370   20.7470 O   0  0  0  0  0  0  0  0  0  0  0  0
  -22.3960  -12.0440   22.5180 H   0  0  0  0  0  0  0  0  0  0  0  0
  -21.0940  -13.1880   22.3490 H   0  0  0  0  0  0  0  0  0  0  0  0
  -25.3480  -15.2750   20.3830 N   0  0  0  0  0  0  0  0  0  0  0  0
  -24.5850  -15.9290   20.5230 H   0  0  0  0  0  0  0  0  0  0  0  0
  -26.1860  -15.7210   20.0350 H   0  0  0  0  0  0  0  0  0  0  0  0
  -28.7030  -19.2170   16.1390 C   0  0  0  0  0  1  0  0  0  0  0  0
  -29.2070  -20.0950   17.3000 C   0  0  2  0  0  0  0  0  0  0  0  0
  -30.3370  -20.6730   16.8960 F   0  0  0  0  0  0  0  0  0  0  0  0
  -28.2710  -21.0370   17.4100 F   0  0  0  0  0  0  0  0  0  0  0  0
  -28.3040  -23.6480   20.4930 C   0  0  0  0  0  2  0  0  0  0  0  0
  -28.4120  -25.0120   18.2410 C   0  0  0  0  0  1  0  0  0  0  0  0
  -28.6320  -25.0810   19.7640 C   0  0  0  0  0  3  0  0  0  0  0  0
  -28.3900  -26.4770   20.3230 O   0  0  0  0  0  0  0  0  0  0  0  0
  -24.6200  -31.9470   23.2310 C   0  0  0  0  0  0  0  0  0  0  0  0
  -27.2450  -27.3100   20.2330 C   0  0  0  0  0  0  0  0  0  0  0  0
  -23.4220  -30.5220   21.6120 C   0  0  0  0  0  3  0  0  0  0  0  0
  -24.8740  -28.9520   20.2000 C   0  0  0  0  0  0  0  0  0  0  0  0
  -25.9620  -30.8390   21.4210 C   0  0  0  0  0  2  0  0  0  0  0  0
  -26.0450  -29.4490   20.7830 C   0  0  0  0  0  0  0  0  0  0  0  0
  -27.2280  -28.6430   20.7780 C   0  0  0  0  0  3  0  0  0  0  0  0
  -26.0380  -26.8690   19.6500 C   0  0  0  0  0  3  0  0  0  0  0  0
  -24.8770  -27.6710   19.6200 C   0  0  0  0  0  3  0  0  0  0  0  0
  -23.6370  -29.8270   20.2400 C   0  0  0  0  0  2  0  0  0  0  0  0
  -24.6870  -31.1230   22.1430 N   0  0  0  0  0  0  0  0  0  0  0  0
  -23.5350  -32.2240   23.7660 O   0  0  0  0  0  0  0  0  0  0  0  0
  -22.7610  -29.5180   22.5890 C   0  0  0  0  0  0  0  0  0  0  0  0
  -21.4380  -29.3250   22.4590 N   0  0  0  0  0  0  0  0  0  0  0  0
  -23.4410  -28.9130   23.4230 O   0  0  0  0  0  0  0  0  0  0  0  0
  -20.9470  -29.8610   21.7560 H   0  0  0  0  0  0  0  0  0  0  0  0
  -18.0710  -28.0950   22.9690 C   0  0  0  0  0  0  0  0  0  0  0  0
  -20.6260  -28.3930   23.2440 C   0  0  0  0  0  3  0  0  0  0  0  0
  -20.7490  -26.9530   22.6960 C   0  0  0  0  0  2  0  0  0  0  0  0
  -19.6560  -26.5980   21.6830 C   0  0  0  0  0  2  0  0  0  0  0  0
  -18.2680  -26.7380   22.3170 C   0  0  0  0  0  2  0  0  0  0  0  0
  -19.1780  -28.8780   23.3920 C   0  0  0  0  0  0  0  0  0  0  0  0
  -18.9410  -30.1470   23.9630 C   0  0  0  0  0  3  0  0  0  0  0  0
  -17.6290  -30.6340   24.1170 C   0  0  0  0  0  3  0  0  0  0  0  0
  -16.5360  -29.8490   23.7130 C   0  0  0  0  0  3  0  0  0  0  0  0
  -16.7570  -28.5810   23.1440 C   0  0  0  0  0  3  0  0  0  0  0  0
  -25.8990  -32.5970   23.8440 C   0  0  0  0  0  3  0  0  0  0  0  0
  -26.4240  -31.8440   25.1280 C   0  0  1  0  0  0  0  0  0  0  0  0
  -25.3310  -31.6080   26.1980 C   0  0  0  0  0  1  0  0  0  0  0  0
  -27.0200  -30.4680   24.7530 C   0  0  0  0  0  1  0  0  0  0  0  0
  -27.5660  -32.6570   25.7830 C   0  0  0  0  0  1  0  0  0  0  0  0
  -25.5770  -33.9960   24.1630 N   0  0  0  0  0  0  0  0  0  0  0  0
  -25.8920  -35.0480   23.3950 C   0  0  0  0  0  0  0  0  0  0  0  0
  -26.5540  -34.9440   22.3600 O   0  0  0  0  0  0  0  0  0  0  0  0
  -24.9920  -34.1510   24.9700 H   0  0  0  0  0  0  0  0  0  0  0  0
  -24.1520  -36.8310   23.0410 C   0  0  0  0  0  1  0  0  0  0  0  0
  -25.3980  -36.4360   23.8490 C   0  0  0  0  0  3  0  0  0  0  0  0
  -27.5260  -37.3440   24.6780 C   0  0  0  0  0  1  0  0  0  0  0  0
  -26.4240  -37.4960   23.7300 N   0  0  0  0  0  0  0  0  0  0  0  0
  -26.0120  -38.4150   23.8700 H   0  0  0  0  0  0  0  0  0  0  0  0
  1  2  1  0
  1 52  1  0
  2  4  1  0
  3  1  2  0
  5 17  1  0
  6 11  1  0
  7  8  1  0
  7  6  1  0
  9  8  1  0
  9 23  1  0
  9 10  1  0
 11  5  1  0
 11 10  1  0
 12  5  2  0
 13 14  2  0
 14  2  1  0
 14 16  1  0
 15 17  1  0
 15 16  2  0
 17 19  1  0
 18 13  1  0
 18 15  1  0
 20 21  2  0
 21 40  1  0
 22 21  1  0
 22 25  1  0
 23 24  1  0
 23 20  1  0
 24 22  2  0
 25 26  1  0
 26 27  2  0
 28 31  1  0
 28 27  1  0
 29 28  2  0
 30 29  1  0
 30 25  2  0
 31 32  1  0
 32 33  1  0
 33 34  2  0
 35 34  1  0
 35 39  1  0
 36 35  2  0
 37 32  2  0
 37 36  1  0
 38 37  1  0
 40 41  1  0
 41 44  1  0
 41 43  1  0
 42 40  2  0
 45 46  1  0
 45 20  1  0
 47 45  1  0
 49 48  1  6
 49 51  1  0
 49 13  1  0
 50 49  1  0
 54 53  1  0
 54 55  1  0
 54 52  1  0
 56 67  2  0
 57 55  1  0
 57 62  1  0
 58 66  1  0
 58 68  1  0
 59 65  1  0
 59 61  1  0
 60 66  1  0
 61 60  1  0
 62 61  2  0
 63 57  2  0
 64 63  1  0
 64 59  2  0
 65 58  1  0
 66 56  1  0
 68 70  2  0
 69 68  1  0
 71 69  1  0
 72 81  2  0
 72 77  1  0
 73 69  1  0
 73 77  1  0
 74 73  1  0
 75 76  1  0
 75 74  1  0
 76 72  1  0
 77 78  2  0
 78 79  1  0
 80 79  2  0
 81 80  1  0
 82 56  1  0
 82 87  1  0
 82 83  1  0
 83 86  1  1
 83 84  1  0
 85 83  1  0
 87 90  1  0
 88 92  1  0
 88 87  1  0
 89 88  2  0
 92 91  1  0
 94 92  1  0
 94 95  1  0
 94 93  1  0
M  ISO  4   5 100  17 100  54 101  55 101
M  END
>  <TORSDO>  (92) 
F 19

>  <SCORE>  (92) 
-14.499

>  <name>  (92) 
91

>  <ligand_id>  (92) 
91

>  <original_smiles>  (92) 
[H]c1c([H])c([H])c2c(c1[H])C([H])([H])C([H])([H])C([H])([H])C2([H])N([H])C(=O)C1([H])N(C(=O)C([H])(N([H])C(=O)C([H])(N([H])C([H])([H])[H])C([H])([H])[H])C(C([H])([H])[H])(C([H])([H])[H])C([H])([H])[H])C([H])([H])c2c([H])c(OC([H])(C([H])([H])[H])C([H])([H])C(=O)N([H])c3nc(N([H])C(=O)N4C([H])([H])C([H])([H])C([H])([H])C([H])(n5nc(-c6c([H])c([H])c(Oc7c([H])c([H])c(F)c([H])c7F)c([H])c6[H])c(C(=O)N([H])[H])c5N([H])[H])C4([H])[H])sc3C(F)(F)C([H])([H])[H])c([H])c([H])c2C1([H])[H]

>  <smiles>  (92) 
[H]c1c([H])c([H])c2c(c1[H])C([H])([H])C([H])([H])C([H])([H])C2([H])N([H])C(=O)C1([H])N(C(=O)C([H])(N([H])C(=O)C([H])(N([H])C([H])([H])[H])C([H])([H])[H])C(C([H])([H])[H])(C([H])([H])[H])C([H])([H])[H])C([H])([H])c2c([H])c(OC([H])(C([H])([H])[H])C([H])([H])C(=O)N([H])c3nc(N([H])C(=O)N4C([H])([H])C([H])([H])C([H])([H])C([H])(n5nc(-c6c([H])c([H])c(Oc7c([H])c([H])c(F)c([H])c7F)c([H])c6[H])c(C(=O)N([H])[H])c5N([H])[H])C4([H])[H])sc3C(F)(F)C([H])([H])[H])c([H])c([H])c2C1([H])[H]

$$$$
92:0:0
     RDKit          3D

 94102  0  0  1  0  0  0  0  0999 V2000
  -28.5880  -23.9430   21.9720 C   0  0  0  0  0  1  0  0  0  0  0  0
  -29.0390  -23.8100   20.5080 C   0  0  0  0  0  3  0  0  0  0  0  0
  -30.3620  -18.9980   21.6260 C   0  0  0  0  0  3  0  0  0  0  0  0
  -30.0520  -18.7120   20.3200 C   0  0  0  0  0  0  0  0  0  0  0  0
  -29.4530  -21.0360   20.4530 C   0  0  0  0  0  0  0  0  0  0  0  0
  -29.5160  -19.9000   19.6870 N   0  0  0  0  0  0  0  0  0  0  0  0
  -28.9640  -22.3460   20.0600 N   0  0  0  0  0  0  0  0  0  0  0  0
  -30.0580  -20.6760   22.0720 S   0  0  0  0  0  0  0  0  0  0  0  0
  -28.5570  -22.2820   19.1310 H   0  0  0  0  0  0  0  0  0  0  0  0
  -30.3440  -17.3530   19.5690 C   0  0  0  0  0  2  0  0  0  0  0  0
  -30.8630  -14.8330   19.9760 C   0  0  0  0  0  0  0  0  0  0  0  0
  -30.5910  -12.5740   18.9650 C   0  0  0  0  0  2  0  0  0  0  0  0
  -29.6040  -12.6800   17.7800 C   0  0  0  0  0  2  0  0  0  0  0  0
  -28.1520  -12.5170   18.2680 C   0  0  0  0  0  2  0  0  0  0  0  0
  -27.8370  -13.3820   19.5170 C   0  0  0  0  0  3  0  0  0  0  0  0
  -28.9440  -13.2770   20.5920 C   0  0  0  0  0  2  0  0  0  0  0  0
  -30.2200  -13.6170   19.9500 N   0  0  0  0  0  0  0  0  0  0  0  0
  -32.0260  -14.9210   19.5760 O   0  0  0  0  0  0  0  0  0  0  0  0
  -30.1150  -15.9770   20.1930 N   0  0  0  0  0  0  0  0  0  0  0  0
  -29.1820  -15.8190   20.5400 H   0  0  0  0  0  0  0  0  0  0  0  0
  -25.4870  -13.9710   20.3640 C   0  0  0  0  0  0  0  0  0  0  0  0
  -24.4330  -13.1950   20.7650 C   0  0  0  0  0  0  0  0  0  0  0  0
  -24.8850  -11.8430   20.6830 C   0  0  0  0  0  0  0  0  0  0  0  0
  -26.5140  -13.0910   20.0610 N   0  0  0  0  0  0  0  0  0  0  0  0
  -26.1610  -11.8040   20.3160 N   0  0  0  0  0  0  0  0  0  0  0  0
  -24.1600  -10.5800   20.8780 C   0  0  0  0  0  0  0  0  0  0  0  0
  -24.5680   -9.6330   21.8420 C   0  0  0  0  0  3  0  0  0  0  0  0
  -23.8420   -8.4360   22.0250 C   0  0  0  0  0  3  0  0  0  0  0  0
  -22.6920   -8.1770   21.2400 C   0  0  0  0  0  0  0  0  0  0  0  0
  -22.3040   -9.1120   20.2660 C   0  0  0  0  0  3  0  0  0  0  0  0
  -23.0310  -10.3000   20.0820 C   0  0  0  0  0  3  0  0  0  0  0  0
  -21.9420   -7.0300   21.3280 O   0  0  0  0  0  0  0  0  0  0  0  0
  -21.7760   -6.3670   22.5170 C   0  0  0  0  0  0  0  0  0  0  0  0
  -21.2050   -6.9930   23.6450 C   0  0  0  0  0  3  0  0  0  0  0  0
  -20.9880   -6.2560   24.8270 C   0  0  0  0  0  3  0  0  0  0  0  0
  -21.3340   -4.8920   24.8800 C   0  0  0  0  0  0  0  0  0  0  0  0
  -21.9000   -4.2640   23.7550 C   0  0  0  0  0  3  0  0  0  0  0  0
  -22.1180   -5.0000   22.5760 C   0  0  0  0  0  0  0  0  0  0  0  0
  -22.6420   -4.3860   21.4880 F   0  0  0  0  0  0  0  0  0  0  0  0
  -21.1200   -4.1790   26.0100 F   0  0  0  0  0  0  0  0  0  0  0  0
  -23.0520  -13.6740   21.1050 C   0  0  0  0  0  0  0  0  0  0  0  0
  -22.3620  -12.9730   21.9980 N   0  0  0  0  0  0  0  0  0  0  0  0
  -22.5930  -14.7060   20.6150 O   0  0  0  0  0  0  0  0  0  0  0  0
  -22.7470  -12.1400   22.4190 H   0  0  0  0  0  0  0  0  0  0  0  0
  -21.4360  -13.2730   22.2660 H   0  0  0  0  0  0  0  0  0  0  0  0
  -25.6490  -15.3440   20.2070 N   0  0  0  0  0  0  0  0  0  0  0  0
  -24.8880  -15.9950   20.3730 H   0  0  0  0  0  0  0  0  0  0  0  0
  -26.4690  -15.7890   19.8160 H   0  0  0  0  0  0  0  0  0  0  0  0
  -28.2730  -24.9750   19.6480 C   0  0  0  0  0  3  0  0  0  0  0  0
  -28.7270  -25.0140   18.1620 C   0  0  1  0  0  0  0  0  0  0  0  0
  -28.1060  -25.9720   17.4730 F   0  0  0  0  0  0  0  0  0  0  0  0
  -30.0420  -25.2280   18.0860 F   0  0  0  0  0  0  0  0  0  0  0  0
  -28.4470  -23.8540   17.5670 F   0  0  0  0  0  0  0  0  0  0  0  0
  -28.3300  -26.4100   20.1250 O   0  0  0  0  0  0  0  0  0  0  0  0
  -24.5590  -31.8460   23.1160 C   0  0  0  0  0  0  0  0  0  0  0  0
  -27.2140  -27.2850   20.0440 C   0  0  0  0  0  0  0  0  0  0  0  0
  -23.3740  -30.4390   21.4700 C   0  0  0  0  0  3  0  0  0  0  0  0
  -24.8440  -28.9160   20.0370 C   0  0  0  0  0  0  0  0  0  0  0  0
  -25.9160  -30.7760   21.2960 C   0  0  0  0  0  2  0  0  0  0  0  0
  -26.0100  -29.3970   20.6440 C   0  0  0  0  0  0  0  0  0  0  0  0
  -27.1950  -28.5910   20.6440 C   0  0  0  0  0  3  0  0  0  0  0  0
  -26.0200  -26.8820   19.3980 C   0  0  0  0  0  3  0  0  0  0  0  0
  -24.8550  -27.6670   19.4050 C   0  0  0  0  0  3  0  0  0  0  0  0
  -23.6000  -29.7800   20.0860 C   0  0  0  0  0  2  0  0  0  0  0  0
  -24.6360  -31.0380   22.0170 N   0  0  0  0  0  0  0  0  0  0  0  0
  -23.4720  -32.1080   23.6500 O   0  0  0  0  0  0  0  0  0  0  0  0
  -22.7240  -29.4080   22.4250 C   0  0  0  0  0  0  0  0  0  0  0  0
  -21.3990  -29.2140   22.2970 N   0  0  0  0  0  0  0  0  0  0  0  0
  -23.4110  -28.7870   23.2380 O   0  0  0  0  0  0  0  0  0  0  0  0
  -20.9030  -29.7710   21.6160 H   0  0  0  0  0  0  0  0  0  0  0  0
  -18.0380  -27.9680   22.7890 C   0  0  0  0  0  0  0  0  0  0  0  0
  -20.5920  -28.2620   23.0640 C   0  0  0  0  0  3  0  0  0  0  0  0
  -20.7150  -26.8340   22.4870 C   0  0  0  0  0  2  0  0  0  0  0  0
  -19.6200  -26.4980   21.4690 C   0  0  0  0  0  2  0  0  0  0  0  0
  -18.2340  -26.6220   22.1110 C   0  0  0  0  0  2  0  0  0  0  0  0
  -19.1440  -28.7450   23.2230 C   0  0  0  0  0  0  0  0  0  0  0  0
  -18.9070  -30.0030   23.8180 C   0  0  0  0  0  3  0  0  0  0  0  0
  -17.5940  -30.4860   23.9800 C   0  0  0  0  0  3  0  0  0  0  0  0
  -16.5020  -29.7060   23.5630 C   0  0  0  0  0  3  0  0  0  0  0  0
  -16.7250  -28.4480   22.9730 C   0  0  0  0  0  3  0  0  0  0  0  0
  -25.8320  -32.4940   23.7410 C   0  0  0  0  0  3  0  0  0  0  0  0
  -26.3780  -31.7040   24.9940 C   0  0  1  0  0  0  0  0  0  0  0  0
  -25.3000  -31.4150   26.0650 C   0  0  0  0  0  1  0  0  0  0  0  0
  -26.9900  -30.3510   24.5650 C   0  0  0  0  0  1  0  0  0  0  0  0
  -27.5140  -32.5100   25.6660 C   0  0  0  0  0  1  0  0  0  0  0  0
  -25.4930  -33.8760   24.1090 N   0  0  0  0  0  0  0  0  0  0  0  0
  -25.7840  -34.9540   23.3700 C   0  0  0  0  0  0  0  0  0  0  0  0
  -26.4360  -34.8920   22.3250 O   0  0  0  0  0  0  0  0  0  0  0  0
  -24.9100  -33.9970   24.9250 H   0  0  0  0  0  0  0  0  0  0  0  0
  -24.0090  -36.7140   23.0860 C   0  0  0  0  0  1  0  0  0  0  0  0
  -25.2710  -36.3190   23.8700 C   0  0  0  0  0  3  0  0  0  0  0  0
  -27.3930  -37.2380   24.6980 C   0  0  0  0  0  1  0  0  0  0  0  0
  -26.2770  -37.3990   23.7680 N   0  0  0  0  0  0  0  0  0  0  0  0
  -25.8510  -38.3050   23.9410 H   0  0  0  0  0  0  0  0  0  0  0  0
  2  1  1  0
  3  8  1  0
  4  3  2  0
  5  8  1  0
  6  4  1  0
  6  5  2  0
  7  5  1  0
  7  2  1  0
  9  7  1  0
 10 19  1  0
 10  4  1  0
 11 19  1  0
 12 17  1  0
 13 14  1  0
 13 12  1  0
 15 14  1  0
 15 24  1  0
 15 16  1  0
 17 11  1  0
 17 16  1  0
 18 11  2  0
 19 20  1  0
 21 22  2  0
 22 41  1  0
 23 22  1  0
 23 26  1  0
 24 25  1  0
 24 21  1  0
 25 23  2  0
 26 27  1  0
 27 28  2  0
 29 32  1  0
 29 28  1  0
 30 29  2  0
 31 30  1  0
 31 26  2  0
 32 33  1  0
 33 38  2  0
 33 34  1  0
 34 35  2  0
 35 36  1  0
 36 40  1  0
 37 36  2  0
 38 37  1  0
 39 38  1  0
 41 42  1  0
 42 45  1  0
 42 44  1  0
 43 41  2  0
 46 21  1  0
 46 47  1  0
 48 46  1  0
 49 54  1  0
 49  2  1  0
 50 49  1  0
 50 51  1  6
 52 50  1  0
 53 50  1  0
 55 66  2  0
 56 54  1  0
 56 61  1  0
 57 65  1  0
 57 67  1  0
 58 64  1  0
 58 60  1  0
 59 65  1  0
 60 59  1  0
 61 60  2  0
 62 63  1  0
 62 56  2  0
 63 58  2  0
 64 57  1  0
 65 55  1  0
 67 69  2  0
 68 67  1  0
 70 68  1  0
 71 80  2  0
 71 76  1  0
 72 68  1  0
 72 76  1  0
 73 72  1  0
 74 75  1  0
 74 73  1  0
 75 71  1  0
 76 77  2  0
 77 78  1  0
 79 78  2  0
 80 79  1  0
 81 55  1  0
 81 86  1  0
 81 82  1  0
 82 85  1  1
 82 83  1  0
 84 82  1  0
 86 89  1  0
 87 91  1  0
 87 86  1  0
 88 87  2  0
 91 90  1  0
 93 91  1  0
 93 94  1  0
 93 92  1  0
M  ISO  4  11 100  19 100  49 101  54 101
M  END
>  <TORSDO>  (93) 
F 20

>  <SCORE>  (93) 
-13.338

>  <name>  (93) 
92

>  <ligand_id>  (93) 
92

>  <original_smiles>  (93) 
[H]c1sc(N([H])C([H])(C([H])([H])[H])C([H])(Oc2c([H])c([H])c3c(c2[H])C([H])([H])N(C(=O)C([H])(N([H])C(=O)C([H])(N([H])C([H])([H])[H])C([H])([H])[H])C(C([H])([H])[H])(C([H])([H])[H])C([H])([H])[H])C([H])(C(=O)N([H])C2([H])c4c([H])c([H])c([H])c([H])c4C([H])([H])C([H])([H])C2([H])[H])C3([H])[H])C(F)(F)F)nc1C([H])([H])N([H])C(=O)N1C([H])([H])C([H])([H])C([H])([H])C([H])(n2nc(-c3c([H])c([H])c(Oc4c([H])c([H])c(F)c([H])c4F)c([H])c3[H])c(C(=O)N([H])[H])c2N([H])[H])C1([H])[H]

>  <smiles>  (93) 
[H]c1sc(N([H])C([H])(C([H])([H])[H])C([H])(Oc2c([H])c([H])c3c(c2[H])C([H])([H])N(C(=O)C([H])(N([H])C(=O)C([H])(N([H])C([H])([H])[H])C([H])([H])[H])C(C([H])([H])[H])(C([H])([H])[H])C([H])([H])[H])C([H])(C(=O)N([H])C2([H])c4c([H])c([H])c([H])c([H])c4C([H])([H])C([H])([H])C2([H])[H])C3([H])[H])C(F)(F)F)nc1C([H])([H])N([H])C(=O)N1C([H])([H])C([H])([H])C([H])([H])C([H])(n2nc(-c3c([H])c([H])c(Oc4c([H])c([H])c(F)c([H])c4F)c([H])c3[H])c(C(=O)N([H])[H])c2N([H])[H])C1([H])[H]

$$$$
93:0:0
     RDKit          3D

 91 99  0  0  1  0  0  0  0  0999 V2000
  -28.6910  -18.1430   21.0290 C   0  0  0  0  0  3  0  0  0  0  0  0
  -29.9780  -18.1770   20.5510 C   0  0  0  0  0  0  0  0  0  0  0  0
  -29.4200  -20.4110   20.3680 C   0  0  0  0  0  0  0  0  0  0  0  0
  -28.9240  -22.8730   20.3340 C   0  0  0  0  0  0  0  0  0  0  0  0
  -30.3670  -19.4780   20.1640 N   0  0  0  0  0  0  0  0  0  0  0  0
  -29.6650  -21.7810   20.0290 N   0  0  0  0  0  0  0  0  0  0  0  0
  -27.9180  -22.8160   21.0450 O   0  0  0  0  0  0  0  0  0  0  0  0
  -27.9360  -19.7230   21.0330 S   0  0  0  0  0  0  0  0  0  0  0  0
  -30.5030  -21.9490   19.4920 H   0  0  0  0  0  0  0  0  0  0  0  0
  -30.9680  -17.0310   20.4480 C   0  0  0  0  0  2  0  0  0  0  0  0
  -31.0670  -14.5860   20.0380 C   0  0  0  0  0  0  0  0  0  0  0  0
  -30.6940  -12.4010   18.9560 C   0  0  0  0  0  2  0  0  0  0  0  0
  -29.7060  -12.5840   17.7850 C   0  0  0  0  0  2  0  0  0  0  0  0
  -28.2540  -12.4570   18.2820 C   0  0  0  0  0  2  0  0  0  0  0  0
  -27.9720  -13.3230   19.5390 C   0  0  0  0  0  3  0  0  0  0  0  0
  -29.0740  -13.1410   20.6070 C   0  0  0  0  0  2  0  0  0  0  0  0
  -30.3690  -13.4180   19.9710 N   0  0  0  0  0  0  0  0  0  0  0  0
  -32.1880  -14.7110   19.5380 O   0  0  0  0  0  0  0  0  0  0  0  0
  -30.4150  -15.6640   20.5220 N   0  0  0  0  0  0  0  0  0  0  0  0
  -29.4840  -15.5440   20.8850 H   0  0  0  0  0  0  0  0  0  0  0  0
  -25.6260  -13.9540   20.3840 C   0  0  0  0  0  0  0  0  0  0  0  0
  -24.5640  -13.1920   20.7910 C   0  0  0  0  0  0  0  0  0  0  0  0
  -24.9980  -11.8330   20.7070 C   0  0  0  0  0  0  0  0  0  0  0  0
  -26.6420  -13.0600   20.0820 N   0  0  0  0  0  0  0  0  0  0  0  0
  -26.2710  -11.7780   20.3340 N   0  0  0  0  0  0  0  0  0  0  0  0
  -24.2590  -10.5800   20.9060 C   0  0  0  0  0  0  0  0  0  0  0  0
  -24.6930   -9.6050   21.8330 C   0  0  0  0  0  3  0  0  0  0  0  0
  -23.9550   -8.4170   22.0200 C   0  0  0  0  0  3  0  0  0  0  0  0
  -22.7690   -8.1930   21.2790 C   0  0  0  0  0  0  0  0  0  0  0  0
  -22.3550   -9.1560   20.3410 C   0  0  0  0  0  3  0  0  0  0  0  0
  -23.0940  -10.3360   20.1530 C   0  0  0  0  0  3  0  0  0  0  0  0
  -22.0010   -7.0580   21.3750 O   0  0  0  0  0  0  0  0  0  0  0  0
  -21.9200   -6.3410   22.5420 C   0  0  0  0  0  0  0  0  0  0  0  0
  -21.4360   -6.9150   23.7380 C   0  0  0  0  0  3  0  0  0  0  0  0
  -21.3030   -6.1230   24.8960 C   0  0  0  0  0  3  0  0  0  0  0  0
  -21.6460   -4.7580   24.8590 C   0  0  0  0  0  0  0  0  0  0  0  0
  -22.1250   -4.1840   23.6680 C   0  0  0  0  0  3  0  0  0  0  0  0
  -22.2580   -4.9730   22.5130 C   0  0  0  0  0  0  0  0  0  0  0  0
  -22.7000   -4.4090   21.3620 F   0  0  0  0  0  0  0  0  0  0  0  0
  -21.5120   -3.9950   25.9690 F   0  0  0  0  0  0  0  0  0  0  0  0
  -23.1920  -13.6870   21.1430 C   0  0  0  0  0  0  0  0  0  0  0  0
  -22.5010  -12.9910   22.0390 N   0  0  0  0  0  0  0  0  0  0  0  0
  -22.7440  -14.7250   20.6610 O   0  0  0  0  0  0  0  0  0  0  0  0
  -22.8780  -12.1480   22.4490 H   0  0  0  0  0  0  0  0  0  0  0  0
  -21.5830  -13.3040   22.3200 H   0  0  0  0  0  0  0  0  0  0  0  0
  -25.8090  -15.3250   20.2270 N   0  0  0  0  0  0  0  0  0  0  0  0
  -25.0550  -15.9870   20.3760 H   0  0  0  0  0  0  0  0  0  0  0  0
  -26.6380  -15.7520   19.8330 H   0  0  0  0  0  0  0  0  0  0  0  0
  -29.3750  -24.2490   19.7650 C   0  0  0  0  0  2  0  0  0  0  0  0
  -28.7560  -25.4920   20.4780 C   0  0  0  0  0  2  0  0  0  0  0  0
  -28.8300  -26.7370   19.7360 O   0  0  0  0  0  0  0  0  0  0  0  0
  -24.8280  -31.6080   23.0870 C   0  0  0  0  0  0  0  0  0  0  0  0
  -27.6610  -27.4760   19.7480 C   0  0  0  0  0  0  0  0  0  0  0  0
  -23.6880  -30.2660   21.3510 C   0  0  0  0  0  3  0  0  0  0  0  0
  -25.2120  -28.8920   19.8320 C   0  0  0  0  0  0  0  0  0  0  0  0
  -26.1980  -30.7430   21.1890 C   0  0  0  0  0  2  0  0  0  0  0  0
  -26.3470  -29.4220   20.4580 C   0  0  0  0  0  0  0  0  0  0  0  0
  -27.5790  -28.7250   20.4100 C   0  0  0  0  0  3  0  0  0  0  0  0
  -26.5140  -26.9710   19.1010 C   0  0  0  0  0  3  0  0  0  0  0  0
  -25.2910  -27.6670   19.1460 C   0  0  0  0  0  3  0  0  0  0  0  0
  -23.9300  -29.6890   19.9300 C   0  0  0  0  0  2  0  0  0  0  0  0
  -24.9220  -30.8840   21.9350 N   0  0  0  0  0  0  0  0  0  0  0  0
  -23.7350  -31.7980   23.6380 O   0  0  0  0  0  0  0  0  0  0  0  0
  -23.0800  -29.1560   22.2410 C   0  0  0  0  0  0  0  0  0  0  0  0
  -21.7610  -28.9360   22.1060 N   0  0  0  0  0  0  0  0  0  0  0  0
  -23.7900  -28.5010   23.0070 O   0  0  0  0  0  0  0  0  0  0  0  0
  -21.2480  -29.5210   21.4620 H   0  0  0  0  0  0  0  0  0  0  0  0
  -18.4280  -27.6150   22.5640 C   0  0  0  0  0  0  0  0  0  0  0  0
  -20.9840  -27.9170   22.8120 C   0  0  0  0  0  3  0  0  0  0  0  0
  -21.1110  -26.5420   22.1180 C   0  0  0  0  0  2  0  0  0  0  0  0
  -19.9970  -26.2740   21.1000 C   0  0  0  0  0  2  0  0  0  0  0  0
  -18.6250  -26.3300   21.7780 C   0  0  0  0  0  2  0  0  0  0  0  0
  -19.5360  -28.3680   23.0360 C   0  0  0  0  0  0  0  0  0  0  0  0
  -19.2980  -29.5740   23.7310 C   0  0  0  0  0  3  0  0  0  0  0  0
  -17.9850  -30.0270   23.9590 C   0  0  0  0  0  3  0  0  0  0  0  0
  -16.8920  -29.2690   23.5050 C   0  0  0  0  0  3  0  0  0  0  0  0
  -17.1140  -28.0660   22.8130 C   0  0  0  0  0  3  0  0  0  0  0  0
  -26.0830  -32.2540   23.7520 C   0  0  0  0  0  3  0  0  0  0  0  0
  -26.6060  -31.4480   25.0040 C   0  0  1  0  0  0  0  0  0  0  0  0
  -25.5080  -31.1400   26.0480 C   0  0  0  0  0  1  0  0  0  0  0  0
  -27.2320  -30.1030   24.5650 C   0  0  0  0  0  1  0  0  0  0  0  0
  -27.7280  -32.2460   25.7110 C   0  0  0  0  0  1  0  0  0  0  0  0
  -25.7270  -33.6270   24.1300 N   0  0  0  0  0  0  0  0  0  0  0  0
  -26.0380  -34.7170   23.4150 C   0  0  0  0  0  0  0  0  0  0  0  0
  -26.7240  -34.6730   22.3920 O   0  0  0  0  0  0  0  0  0  0  0  0
  -25.1180  -33.7330   24.9280 H   0  0  0  0  0  0  0  0  0  0  0  0
  -24.2520  -36.4610   23.1100 C   0  0  0  0  0  1  0  0  0  0  0  0
  -25.5010  -36.0720   23.9160 C   0  0  0  0  0  3  0  0  0  0  0  0
  -27.5920  -37.0040   24.8030 C   0  0  0  0  0  1  0  0  0  0  0  0
  -26.4980  -37.1610   23.8480 N   0  0  0  0  0  0  0  0  0  0  0  0
  -26.0590  -38.0630   24.0150 H   0  0  0  0  0  0  0  0  0  0  0  0
  1  8  1  0
  2  1  2  0
  3  8  1  0
  4  7  2  0
  5  3  2  0
  5  2  1  0
  6  4  1  0
  6  3  1  0
  9  6  1  0
 10 19  1  0
 10  2  1  0
 11 19  1  0
 12 17  1  0
 13 14  1  0
 13 12  1  0
 15 14  1  0
 15 24  1  0
 15 16  1  0
 17 11  1  0
 17 16  1  0
 18 11  2  0
 19 20  1  0
 21 22  2  0
 22 41  1  0
 23 22  1  0
 23 26  1  0
 24 25  1  0
 24 21  1  0
 25 23  2  0
 26 27  1  0
 27 28  2  0
 29 32  1  0
 29 28  1  0
 30 29  2  0
 31 30  1  0
 31 26  2  0
 32 33  1  0
 33 34  1  0
 34 35  2  0
 36 35  1  0
 36 40  1  0
 37 36  2  0
 38 33  2  0
 38 37  1  0
 39 38  1  0
 41 42  1  0
 42 45  1  0
 42 44  1  0
 43 41  2  0
 46 47  1  0
 46 21  1  0
 48 46  1  0
 49  4  1  0
 49 50  1  0
 51 53  1  0
 51 50  1  0
 52 63  2  0
 53 58  1  0
 54 62  1  0
 54 64  1  0
 55 61  1  0
 55 57  1  0
 56 62  1  0
 57 56  1  0
 58 57  2  0
 59 60  1  0
 59 53  2  0
 60 55  2  0
 61 54  1  0
 62 52  1  0
 64 66  2  0
 65 64  1  0
 67 65  1  0
 68 77  2  0
 68 73  1  0
 69 65  1  0
 69 73  1  0
 70 69  1  0
 71 72  1  0
 71 70  1  0
 72 68  1  0
 73 74  2  0
 74 75  1  0
 76 75  2  0
 77 76  1  0
 78 52  1  0
 78 83  1  0
 78 79  1  0
 79 82  1  1
 79 80  1  0
 81 79  1  0
 83 86  1  0
 84 88  1  0
 84 83  1  0
 85 84  2  0
 88 87  1  0
 90 88  1  0
 90 91  1  0
 90 89  1  0
M  ISO  4  11 100  19 100  50 101  51 101
M  END
>  <TORSDO>  (94) 
F 19

>  <SCORE>  (94) 
-11.707

>  <name>  (94) 
93

>  <ligand_id>  (94) 
93

>  <original_smiles>  (94) 
[H]c1sc(N([H])C(=O)C([H])([H])C([H])([H])Oc2c([H])c([H])c3c(c2[H])C([H])([H])N(C(=O)C([H])(N([H])C(=O)C([H])(N([H])C([H])([H])[H])C([H])([H])[H])C(C([H])([H])[H])(C([H])([H])[H])C([H])([H])[H])C([H])(C(=O)N([H])C2([H])c4c([H])c([H])c([H])c([H])c4C([H])([H])C([H])([H])C2([H])[H])C3([H])[H])nc1C([H])([H])N([H])C(=O)N1C([H])([H])C([H])([H])C([H])([H])C([H])(n2nc(-c3c([H])c([H])c(Oc4c([H])c([H])c(F)c([H])c4F)c([H])c3[H])c(C(=O)N([H])[H])c2N([H])[H])C1([H])[H]

>  <smiles>  (94) 
[H]c1sc(N([H])C(=O)C([H])([H])C([H])([H])Oc2c([H])c([H])c3c(c2[H])C([H])([H])N(C(=O)C([H])(N([H])C(=O)C([H])(N([H])C([H])([H])[H])C([H])([H])[H])C(C([H])([H])[H])(C([H])([H])[H])C([H])([H])[H])C([H])(C(=O)N([H])C2([H])c4c([H])c([H])c([H])c([H])c4C([H])([H])C([H])([H])C2([H])[H])C3([H])[H])nc1C([H])([H])N([H])C(=O)N1C([H])([H])C([H])([H])C([H])([H])C([H])(n2nc(-c3c([H])c([H])c(Oc4c([H])c([H])c(F)c([H])c4F)c([H])c3[H])c(C(=O)N([H])[H])c2N([H])[H])C1([H])[H]

$$$$
94:0:0
     RDKit          3D

 90 98  0  0  1  0  0  0  0  0999 V2000
  -30.7980  -18.2300   21.6840 C   0  0  0  0  0  3  0  0  0  0  0  0
  -29.9400  -17.9240   20.6460 C   0  0  0  0  0  0  0  0  0  0  0  0
  -29.5380  -20.4360   20.9240 C   0  0  0  0  0  0  0  0  0  0  0  0
  -28.8420  -23.1340   20.3570 C   0  0  0  0  0  0  0  0  0  0  0  0
  -29.1960  -19.2020   20.2900 N   0  0  0  0  0  0  0  0  0  0  0  0
  -28.7960  -21.8340   21.0250 N   0  0  0  0  0  0  0  0  0  0  0  0
  -29.4880  -23.2370   19.2990 O   0  0  0  0  0  0  0  0  0  0  0  0
  -30.7980  -19.9710   22.1350 S   0  0  0  0  0  0  0  0  0  0  0  0
  -28.2930  -21.9250   21.9240 H   0  0  0  0  0  0  0  0  0  0  0  0
  -30.5200  -15.1930   20.2450 C   0  0  0  0  0  0  0  0  0  0  0  0
  -30.4030  -12.8300   19.2630 C   0  0  0  0  0  2  0  0  0  0  0  0
  -29.4240  -12.6090   18.0860 C   0  0  0  0  0  2  0  0  0  0  0  0
  -28.0070  -12.3390   18.6160 C   0  0  0  0  0  2  0  0  0  0  0  0
  -27.5740  -13.3590   19.6950 C   0  0  0  0  0  3  0  0  0  0  0  0
  -28.6550  -13.5090   20.7840 C   0  0  0  0  0  2  0  0  0  0  0  0
  -29.8850  -13.9500   20.1080 N   0  0  0  0  0  0  0  0  0  0  0  0
  -31.7520  -15.1700   20.1230 O   0  0  0  0  0  0  0  0  0  0  0  0
  -29.7830  -16.4440   20.1500 N   0  0  0  0  0  0  0  0  0  0  0  0
  -28.9730  -16.3280   19.5630 H   0  0  0  0  0  0  0  0  0  0  0  0
  -25.2230  -13.9370   20.5290 C   0  0  0  0  0  0  0  0  0  0  0  0
  -24.1680  -13.1670   20.8930 C   0  0  0  0  0  0  0  0  0  0  0  0
  -24.6290  -11.8100   20.8460 C   0  0  0  0  0  0  0  0  0  0  0  0
  -26.2600  -13.0610   20.2500 N   0  0  0  0  0  0  0  0  0  0  0  0
  -25.9130  -11.7760   20.5140 N   0  0  0  0  0  0  0  0  0  0  0  0
  -23.9070  -10.5490   21.0370 C   0  0  0  0  0  0  0  0  0  0  0  0
  -24.3500   -9.5790   21.9630 C   0  0  0  0  0  3  0  0  0  0  0  0
  -23.6310   -8.3810   22.1420 C   0  0  0  0  0  3  0  0  0  0  0  0
  -22.4490   -8.1430   21.3980 C   0  0  0  0  0  0  0  0  0  0  0  0
  -22.0230   -9.1030   20.4620 C   0  0  0  0  0  3  0  0  0  0  0  0
  -22.7430  -10.2920   20.2810 C   0  0  0  0  0  3  0  0  0  0  0  0
  -21.6980   -6.9960   21.4860 O   0  0  0  0  0  0  0  0  0  0  0  0
  -21.6550   -6.2500   22.6390 C   0  0  0  0  0  0  0  0  0  0  0  0
  -21.2250   -6.8010   23.8670 C   0  0  0  0  0  3  0  0  0  0  0  0
  -21.1340   -5.9800   25.0110 C   0  0  0  0  0  3  0  0  0  0  0  0
  -21.4630   -4.6150   24.9250 C   0  0  0  0  0  0  0  0  0  0  0  0
  -21.8880   -4.0660   23.7020 C   0  0  0  0  0  3  0  0  0  0  0  0
  -21.9820   -4.8840   22.5620 C   0  0  0  0  0  0  0  0  0  0  0  0
  -22.3690   -4.3460   21.3820 F   0  0  0  0  0  0  0  0  0  0  0  0
  -21.3690   -3.8250   26.0200 F   0  0  0  0  0  0  0  0  0  0  0  0
  -22.7690  -13.6400   21.1940 C   0  0  0  0  0  0  0  0  0  0  0  0
  -22.0510  -12.9350   22.0530 N   0  0  0  0  0  0  0  0  0  0  0  0
  -22.3340  -14.6750   20.6900 O   0  0  0  0  0  0  0  0  0  0  0  0
  -22.4180  -12.0930   22.4810 H   0  0  0  0  0  0  0  0  0  0  0  0
  -21.1160  -13.2350   22.2890 H   0  0  0  0  0  0  0  0  0  0  0  0
  -25.4150  -15.3140   20.3960 N   0  0  0  0  0  0  0  0  0  0  0  0
  -24.7030  -15.9800   20.6630 H   0  0  0  0  0  0  0  0  0  0  0  0
  -26.3370  -15.7210   20.3400 H   0  0  0  0  0  0  0  0  0  0  0  0
  -26.5250  -24.2010   21.2360 C   0  0  0  0  0  1  0  0  0  0  0  0
  -28.0190  -24.5460   20.8860 C   0  0  0  0  0  3  0  0  0  0  0  0
  -28.2810  -26.0630   20.3760 O   0  0  0  0  0  0  0  0  0  0  0  0
  -24.6130  -31.8980   23.2210 C   0  0  0  0  0  0  0  0  0  0  0  0
  -27.2740  -27.1230   20.2920 C   0  0  0  0  0  0  0  0  0  0  0  0
  -23.4630  -30.4840   21.5670 C   0  0  0  0  0  3  0  0  0  0  0  0
  -24.9630  -28.9140   20.1790 C   0  0  0  0  0  0  0  0  0  0  0  0
  -26.0210  -30.7650   21.4460 C   0  0  0  0  0  2  0  0  0  0  0  0
  -26.1280  -29.3530   20.8220 C   0  0  0  0  0  0  0  0  0  0  0  0
  -27.2810  -28.4690   20.8680 C   0  0  0  0  0  3  0  0  0  0  0  0
  -26.1200  -26.8590   19.5200 C   0  0  0  0  0  3  0  0  0  0  0  0
  -24.9770  -27.6850   19.5130 C   0  0  0  0  0  3  0  0  0  0  0  0
  -23.7270  -29.8050   20.1980 C   0  0  0  0  0  2  0  0  0  0  0  0
  -24.7240  -31.0710   22.1360 N   0  0  0  0  0  0  0  0  0  0  0  0
  -23.5110  -32.1680   23.7240 O   0  0  0  0  0  0  0  0  0  0  0  0
  -22.7790  -29.4750   22.5190 C   0  0  0  0  0  0  0  0  0  0  0  0
  -21.4550  -29.2930   22.3650 N   0  0  0  0  0  0  0  0  0  0  0  0
  -23.4380  -28.8560   23.3540 O   0  0  0  0  0  0  0  0  0  0  0  0
  -20.9820  -29.8390   21.6580 H   0  0  0  0  0  0  0  0  0  0  0  0
  -18.0640  -28.0890   22.8270 C   0  0  0  0  0  0  0  0  0  0  0  0
  -20.6230  -28.3460   23.1160 C   0  0  0  0  0  3  0  0  0  0  0  0
  -20.7320  -26.9220   22.5210 C   0  0  0  0  0  2  0  0  0  0  0  0
  -19.6380  -26.6150   21.4960 C   0  0  0  0  0  2  0  0  0  0  0  0
  -18.2490  -26.7470   22.1300 C   0  0  0  0  0  2  0  0  0  0  0  0
  -19.1830  -28.8450   23.2740 C   0  0  0  0  0  0  0  0  0  0  0  0
  -18.9630  -30.1000   23.8800 C   0  0  0  0  0  3  0  0  0  0  0  0
  -17.6610  -30.6000   24.0530 C   0  0  0  0  0  3  0  0  0  0  0  0
  -16.5570  -29.8440   23.6210 C   0  0  0  0  0  3  0  0  0  0  0  0
  -16.7570  -28.5890   23.0150 C   0  0  0  0  0  3  0  0  0  0  0  0
  -25.8650  -32.5520   23.8760 C   0  0  0  0  0  3  0  0  0  0  0  0
  -25.5340  -33.9540   24.1790 N   0  0  0  0  0  0  0  0  0  0  0  0
  -25.8880  -35.0010   23.4250 C   0  0  0  0  0  0  0  0  0  0  0  0
  -26.5930  -34.8890   22.4190 O   0  0  0  0  0  0  0  0  0  0  0  0
  -24.9090  -34.1170   24.9550 H   0  0  0  0  0  0  0  0  0  0  0  0
  -24.1710  -36.7900   22.9960 C   0  0  0  0  0  1  0  0  0  0  0  0
  -25.3810  -36.3900   23.8550 C   0  0  0  0  0  3  0  0  0  0  0  0
  -27.4820  -37.2910   24.7580 C   0  0  0  0  0  1  0  0  0  0  0  0
  -26.4130  -37.4490   23.7740 N   0  0  0  0  0  0  0  0  0  0  0  0
  -25.9960  -38.3670   23.9080 H   0  0  0  0  0  0  0  0  0  0  0  0
  -26.3390  -31.8060   25.1800 C   0  0  1  0  0  0  0  0  0  0  0  0
  -25.2100  -31.5890   26.2140 C   0  0  0  0  0  1  0  0  0  0  0  0
  -26.9320  -30.4210   24.8290 C   0  0  0  0  0  1  0  0  0  0  0  0
  -27.4730  -32.6100   25.8580 C   0  0  0  0  0  1  0  0  0  0  0  0
  1  8  1  0
  2  1  2  0
  3  6  1  0
  3  8  1  0
  4 49  1  0
  4  6  1  0
  5  2  1  0
  5  3  2  0
  6  9  1  0
  7  4  2  0
 11 16  1  0
 12 13  1  0
 12 11  1  0
 14 13  1  0
 14 23  1  0
 14 15  1  0
 16 10  1  0
 16 15  1  0
 17 10  2  0
 18 10  1  0
 18  2  1  0
 19 18  1  0
 20 21  2  0
 21 40  1  0
 22 21  1  0
 22 25  1  0
 23 24  1  0
 23 20  1  0
 24 22  2  0
 25 26  1  0
 26 27  2  0
 28 31  1  0
 28 27  1  0
 29 28  2  0
 30 29  1  0
 30 25  2  0
 31 32  1  0
 32 33  1  0
 33 34  2  0
 35 34  1  0
 35 39  1  0
 36 35  2  0
 37 32  2  0
 37 36  1  0
 38 37  1  0
 40 41  1  0
 41 44  1  0
 41 43  1  0
 42 40  2  0
 45 20  1  0
 45 46  1  0
 47 45  1  0
 49 48  1  0
 50 49  1  0
 51 62  2  0
 52 50  1  0
 52 57  1  0
 53 61  1  0
 53 63  1  0
 54 60  1  0
 54 56  1  0
 55 61  1  0
 56 57  2  0
 56 55  1  0
 58 52  2  0
 59 58  1  0
 59 54  2  0
 60 53  1  0
 61 51  1  0
 63 65  2  0
 64 63  1  0
 66 64  1  0
 67 76  2  0
 67 72  1  0
 68 64  1  0
 68 72  1  0
 69 68  1  0
 70 71  1  0
 70 69  1  0
 71 67  1  0
 72 73  2  0
 73 74  1  0
 75 74  2  0
 76 75  1  0
 77 51  1  0
 77 78  1  0
 77 87  1  0
 78 81  1  0
 79 83  1  0
 79 78  1  0
 80 79  2  0
 83 82  1  0
 85 83  1  0
 85 86  1  0
 85 84  1  0
 87 90  1  1
 87 88  1  0
 89 87  1  0
M  ISO  4  10 100  18 100  49 101  50 101
M  END
>  <TORSDO>  (95) 
F 17

>  <SCORE>  (95) 
-15.617

>  <name>  (95) 
94

>  <ligand_id>  (95) 
94

>  <original_smiles>  (95) 
[H]c1sc(N([H])C(=O)C([H])(Oc2c([H])c([H])c3c(c2[H])C([H])([H])N(C(=O)C([H])(N([H])C(=O)C([H])(N([H])C([H])([H])[H])C([H])([H])[H])C(C([H])([H])[H])(C([H])([H])[H])C([H])([H])[H])C([H])(C(=O)N([H])C2([H])c4c([H])c([H])c([H])c([H])c4C([H])([H])C([H])([H])C2([H])[H])C3([H])[H])C([H])([H])[H])nc1N([H])C(=O)N1C([H])([H])C([H])([H])C([H])([H])C([H])(n2nc(-c3c([H])c([H])c(Oc4c([H])c([H])c(F)c([H])c4F)c([H])c3[H])c(C(=O)N([H])[H])c2N([H])[H])C1([H])[H]

>  <smiles>  (95) 
[H]c1sc(N([H])C(=O)C([H])(Oc2c([H])c([H])c3c(c2[H])C([H])([H])N(C(=O)C([H])(N([H])C(=O)C([H])(N([H])C([H])([H])[H])C([H])([H])[H])C(C([H])([H])[H])(C([H])([H])[H])C([H])([H])[H])C([H])(C(=O)N([H])C2([H])c4c([H])c([H])c([H])c([H])c4C([H])([H])C([H])([H])C2([H])[H])C3([H])[H])C([H])([H])[H])nc1N([H])C(=O)N1C([H])([H])C([H])([H])C([H])([H])C([H])(n2nc(-c3c([H])c([H])c(Oc4c([H])c([H])c(F)c([H])c4F)c([H])c3[H])c(C(=O)N([H])[H])c2N([H])[H])C1([H])[H]

$$$$
95:0:0
     RDKit          3D

 96104  0  0  1  0  0  0  0  0999 V2000
  -30.5780  -17.3480   18.8100 C   0  0  0  0  0  3  0  0  0  0  0  0
  -29.9790  -17.2660   20.0910 C   0  0  0  0  0  0  0  0  0  0  0  0
  -30.2480  -19.6370   18.6750 C   0  0  0  0  0  0  0  0  0  0  0  0
  -29.6150  -19.6980   19.9590 C   0  0  0  0  0  0  0  0  0  0  0  0
  -28.8120  -22.2160   19.9270 C   0  0  0  0  0  0  0  0  0  0  0  0
  -30.7080  -18.5000   18.1200 N   0  0  0  0  0  0  0  0  0  0  0  0
  -29.5010  -18.4710   20.6380 N   0  0  0  0  0  0  0  0  0  0  0  0
  -30.5060  -20.7400   17.8750 N   0  0  0  0  0  0  0  0  0  0  0  0
  -29.2590  -21.0380   20.5220 N   0  0  0  0  0  0  0  0  0  0  0  0
  -28.2930  -22.1850   18.8090 O   0  0  0  0  0  0  0  0  0  0  0  0
  -29.8190  -21.4800   18.0090 H   0  0  0  0  0  0  0  0  0  0  0  0
  -30.6500  -20.5310   16.8960 H   0  0  0  0  0  0  0  0  0  0  0  0
  -29.4380  -21.1490   21.5090 H   0  0  0  0  0  0  0  0  0  0  0  0
  -30.5800  -14.7530   20.3860 C   0  0  0  0  0  0  0  0  0  0  0  0
  -30.3580  -12.4800   19.3850 C   0  0  0  0  0  2  0  0  0  0  0  0
  -29.4250  -12.5810   18.1580 C   0  0  0  0  0  2  0  0  0  0  0  0
  -27.9540  -12.4130   18.5870 C   0  0  0  0  0  2  0  0  0  0  0  0
  -27.5860  -13.2870   19.8160 C   0  0  0  0  0  3  0  0  0  0  0  0
  -28.6460  -13.1870   20.9360 C   0  0  0  0  0  2  0  0  0  0  0  0
  -29.9460  -13.5300   20.3480 N   0  0  0  0  0  0  0  0  0  0  0  0
  -31.7610  -14.8320   20.0330 O   0  0  0  0  0  0  0  0  0  0  0  0
  -29.8400  -15.8990   20.6600 N   0  0  0  0  0  0  0  0  0  0  0  0
  -28.9780  -15.7360   21.1560 H   0  0  0  0  0  0  0  0  0  0  0  0
  -25.2020  -13.8770   20.5530 C   0  0  0  0  0  0  0  0  0  0  0  0
  -24.1350  -13.1030   20.9190 C   0  0  0  0  0  0  0  0  0  0  0  0
  -24.5920  -11.7510   20.8740 C   0  0  0  0  0  0  0  0  0  0  0  0
  -26.2420  -12.9970   20.3060 N   0  0  0  0  0  0  0  0  0  0  0  0
  -25.8830  -11.7120   20.5610 N   0  0  0  0  0  0  0  0  0  0  0  0
  -23.8620  -10.4890   21.0530 C   0  0  0  0  0  0  0  0  0  0  0  0
  -24.2900   -9.5100   21.9770 C   0  0  0  0  0  3  0  0  0  0  0  0
  -23.5580   -8.3150   22.1460 C   0  0  0  0  0  3  0  0  0  0  0  0
  -22.3830   -8.0900   21.3880 C   0  0  0  0  0  0  0  0  0  0  0  0
  -21.9750   -9.0560   20.4540 C   0  0  0  0  0  3  0  0  0  0  0  0
  -22.7070  -10.2420   20.2840 C   0  0  0  0  0  3  0  0  0  0  0  0
  -21.6240   -6.9480   21.4650 O   0  0  0  0  0  0  0  0  0  0  0  0
  -21.5650   -6.1980   22.6120 C   0  0  0  0  0  0  0  0  0  0  0  0
  -21.1050   -6.7390   23.8330 C   0  0  0  0  0  3  0  0  0  0  0  0
  -20.9950   -5.9150   24.9710 C   0  0  0  0  0  3  0  0  0  0  0  0
  -21.3350   -4.5520   24.8890 C   0  0  0  0  0  0  0  0  0  0  0  0
  -21.7890   -4.0110   23.6750 C   0  0  0  0  0  3  0  0  0  0  0  0
  -21.9010   -4.8320   22.5390 C   0  0  0  0  0  0  0  0  0  0  0  0
  -22.3180   -4.3000   21.3650 F   0  0  0  0  0  0  0  0  0  0  0  0
  -21.2230   -3.7580   25.9810 F   0  0  0  0  0  0  0  0  0  0  0  0
  -22.7400  -13.5830   21.1970 C   0  0  0  0  0  0  0  0  0  0  0  0
  -22.0070  -12.8780   22.0510 N   0  0  0  0  0  0  0  0  0  0  0  0
  -22.3080  -14.6200   20.6930 O   0  0  0  0  0  0  0  0  0  0  0  0
  -22.3690  -12.0400   22.4830 H   0  0  0  0  0  0  0  0  0  0  0  0
  -21.0710  -13.1810   22.2790 H   0  0  0  0  0  0  0  0  0  0  0  0
  -25.3710  -15.2490   20.3880 N   0  0  0  0  0  0  0  0  0  0  0  0
  -24.6040  -15.9040   20.4960 H   0  0  0  0  0  0  0  0  0  0  0  0
  -26.2140  -15.6850   20.0350 H   0  0  0  0  0  0  0  0  0  0  0  0
  -28.9110  -23.6520   20.6550 C   0  0  0  0  0  3  0  0  0  0  0  0
  -28.7000  -23.4640   22.0480 O   0  0  0  0  0  0  0  0  0  0  0  0
  -28.7950  -24.3170   22.4600 H   0  0  0  0  0  0  0  0  0  0  0  0
  -27.9500  -24.8680   20.1540 C   0  0  0  0  0  2  0  0  0  0  0  0
  -28.2370  -26.3380   20.3700 O   0  0  0  0  0  0  0  0  0  0  0  0
  -24.6170  -31.9440   23.2480 C   0  0  0  0  0  0  0  0  0  0  0  0
  -27.1650  -27.2630   20.2730 C   0  0  0  0  0  0  0  0  0  0  0  0
  -23.3980  -30.5310   21.6350 C   0  0  0  0  0  3  0  0  0  0  0  0
  -24.8320  -28.9450   20.2280 C   0  0  0  0  0  0  0  0  0  0  0  0
  -25.9450  -30.8100   21.4460 C   0  0  0  0  0  2  0  0  0  0  0  0
  -26.0100  -29.4160   20.8200 C   0  0  0  0  0  0  0  0  0  0  0  0
  -27.1800  -28.5880   20.8330 C   0  0  0  0  0  3  0  0  0  0  0  0
  -25.9670  -26.8740   19.6300 C   0  0  0  0  0  3  0  0  0  0  0  0
  -24.8160  -27.6830   19.6200 C   0  0  0  0  0  3  0  0  0  0  0  0
  -23.6050  -29.8360   20.2650 C   0  0  0  0  0  2  0  0  0  0  0  0
  -24.6730  -31.1140   22.1660 N   0  0  0  0  0  0  0  0  0  0  0  0
  -23.5360  -32.2420   23.7790 O   0  0  0  0  0  0  0  0  0  0  0  0
  -22.7260  -29.5370   22.6130 C   0  0  0  0  0  0  0  0  0  0  0  0
  -21.4000  -29.3570   22.4810 N   0  0  0  0  0  0  0  0  0  0  0  0
  -23.3970  -28.9290   23.4490 O   0  0  0  0  0  0  0  0  0  0  0  0
  -20.9150  -29.9000   21.7790 H   0  0  0  0  0  0  0  0  0  0  0  0
  -18.0160  -28.1840   22.9980 C   0  0  0  0  0  0  0  0  0  0  0  0
  -20.5750  -28.4380   23.2670 C   0  0  0  0  0  3  0  0  0  0  0  0
  -20.6720  -26.9950   22.7200 C   0  0  0  0  0  2  0  0  0  0  0  0
  -19.5710  -26.6580   21.7100 C   0  0  0  0  0  2  0  0  0  0  0  0
  -18.1890  -26.8210   22.3480 C   0  0  0  0  0  2  0  0  0  0  0  0
  -19.1380  -28.9490   23.4160 C   0  0  0  0  0  0  0  0  0  0  0  0
  -18.9230  -30.2230   23.9860 C   0  0  0  0  0  3  0  0  0  0  0  0
  -17.6200  -30.7330   24.1400 C   0  0  0  0  0  3  0  0  0  0  0  0
  -16.5130  -29.9640   23.7380 C   0  0  0  0  0  3  0  0  0  0  0  0
  -16.7120  -28.6920   23.1740 C   0  0  0  0  0  3  0  0  0  0  0  0
  -25.9050  -32.5790   23.8580 C   0  0  0  0  0  3  0  0  0  0  0  0
  -26.4300  -31.8110   25.1330 C   0  0  1  0  0  0  0  0  0  0  0  0
  -25.3440  -31.5730   26.2070 C   0  0  0  0  0  1  0  0  0  0  0  0
  -27.0130  -30.4330   24.7410 C   0  0  0  0  0  1  0  0  0  0  0  0
  -27.5820  -32.6080   25.7890 C   0  0  0  0  0  1  0  0  0  0  0  0
  -25.5990  -33.9780   24.1890 N   0  0  0  0  0  0  0  0  0  0  0  0
  -25.9210  -35.0300   23.4250 C   0  0  0  0  0  0  0  0  0  0  0  0
  -26.5770  -34.9260   22.3860 O   0  0  0  0  0  0  0  0  0  0  0  0
  -25.0150  -34.1340   24.9980 H   0  0  0  0  0  0  0  0  0  0  0  0
  -24.1990  -36.8320   23.0820 C   0  0  0  0  0  1  0  0  0  0  0  0
  -25.4410  -36.4200   23.8890 C   0  0  0  0  0  3  0  0  0  0  0  0
  -27.5770  -37.2990   24.7230 C   0  0  0  0  0  1  0  0  0  0  0  0
  -26.4780  -37.4690   23.7760 N   0  0  0  0  0  0  0  0  0  0  0  0
  -26.0750  -38.3900   23.9200 H   0  0  0  0  0  0  0  0  0  0  0  0
  1  2  1  0
  2  7  2  0
  2 22  1  0
  3  4  2  0
  4  9  1  0
  4  7  1  0
  5  9  1  0
  5 52  1  0
  6  3  1  0
  6  1  2  0
  8 11  1  0
  8  3  1  0
  9 13  1  0
 10  5  2  0
 12  8  1  0
 14 22  1  0
 15 20  1  0
 16 17  1  0
 16 15  1  0
 18 17  1  0
 18 27  1  0
 18 19  1  0
 20 14  1  0
 20 19  1  0
 21 14  2  0
 22 23  1  0
 24 25  2  0
 25 44  1  0
 26 25  1  0
 26 29  1  0
 27 24  1  0
 27 28  1  0
 28 26  2  0
 29 30  1  0
 30 31  2  0
 32 35  1  0
 32 31  1  0
 33 32  2  0
 34 33  1  0
 34 29  2  0
 35 36  1  0
 36 37  1  0
 37 38  2  0
 39 38  1  0
 39 43  1  0
 40 39  2  0
 41 36  2  0
 41 40  1  0
 42 41  1  0
 44 45  1  0
 45 48  1  0
 45 47  1  0
 46 44  2  0
 49 50  1  0
 49 24  1  0
 51 49  1  0
 52 55  1  0
 52 53  1  0
 53 54  1  0
 55 56  1  0
 57 68  2  0
 58 56  1  0
 58 63  1  0
 59 67  1  0
 59 69  1  0
 60 66  1  0
 60 62  1  0
 61 67  1  0
 62 63  2  0
 62 61  1  0
 64 58  2  0
 65 64  1  0
 65 60  2  0
 66 59  1  0
 67 57  1  0
 69 71  2  0
 70 69  1  0
 72 70  1  0
 73 82  2  0
 73 78  1  0
 74 70  1  0
 74 78  1  0
 75 74  1  0
 76 77  1  0
 76 75  1  0
 77 73  1  0
 78 79  2  0
 79 80  1  0
 81 80  2  0
 82 81  1  0
 83 57  1  0
 83 88  1  0
 83 84  1  0
 84 87  1  1
 84 85  1  0
 86 84  1  0
 88 91  1  0
 89 93  1  0
 89 88  1  0
 90 89  2  0
 93 92  1  0
 95 93  1  0
 95 96  1  0
 95 94  1  0
M  ISO  4  14 100  22 100  55 101  56 101
M  END
>  <TORSDO>  (96) 
F 19

>  <SCORE>  (96) 
-14.618

>  <name>  (96) 
95

>  <ligand_id>  (96) 
95

>  <original_smiles>  (96) 
[H]OC([H])(C(=O)N([H])c1nc(N([H])C(=O)N2C([H])([H])C([H])([H])C([H])([H])C([H])(n3nc(-c4c([H])c([H])c(Oc5c([H])c([H])c(F)c([H])c5F)c([H])c4[H])c(C(=O)N([H])[H])c3N([H])[H])C2([H])[H])c([H])nc1N([H])[H])C([H])([H])Oc1c([H])c([H])c2c(c1[H])C([H])([H])N(C(=O)C([H])(N([H])C(=O)C([H])(N([H])C([H])([H])[H])C([H])([H])[H])C(C([H])([H])[H])(C([H])([H])[H])C([H])([H])[H])C([H])(C(=O)N([H])C1([H])c3c([H])c([H])c([H])c([H])c3C([H])([H])C([H])([H])C1([H])[H])C2([H])[H]

>  <smiles>  (96) 
[H]OC([H])(C(=O)N([H])c1nc(N([H])C(=O)N2C([H])([H])C([H])([H])C([H])([H])C([H])(n3nc(-c4c([H])c([H])c(Oc5c([H])c([H])c(F)c([H])c5F)c([H])c4[H])c(C(=O)N([H])[H])c3N([H])[H])C2([H])[H])c([H])nc1N([H])[H])C([H])([H])Oc1c([H])c([H])c2c(c1[H])C([H])([H])N(C(=O)C([H])(N([H])C(=O)C([H])(N([H])C([H])([H])[H])C([H])([H])[H])C(C([H])([H])[H])(C([H])([H])[H])C([H])([H])[H])C([H])(C(=O)N([H])C1([H])c3c([H])c([H])c([H])c([H])c3C([H])([H])C([H])([H])C1([H])[H])C2([H])[H]

$$$$
