0:0:0
     RDKit          3D

 94102  0  0  1  0  0  0  0  0999 V2000
  -28.9840  -21.7180   22.0720 C   0  0  0  0  0  1  0  0  0  0  0  0
  -29.4090  -21.4840   20.6140 C   0  0  0  0  0  3  0  0  0  0  0  0
  -29.1560  -16.8990   21.1070 C   0  0  0  0  0  0  0  0  0  0  0  0
  -30.3910  -16.4040   20.7350 C   0  0  0  0  0  0  0  0  0  0  0  0
  -30.1450  -18.9060   20.6460 C   0  0  0  0  0  0  0  0  0  0  0  0
  -27.9720  -16.0810   21.5320 C   0  0  0  0  0  1  0  0  0  0  0  0
  -29.0300  -18.2960   21.0440 N   0  0  0  0  0  0  0  0  0  0  0  0
  -30.2820  -20.2970   20.5000 N   0  0  0  0  0  0  0  0  0  0  0  0
  -31.4520  -17.7510   20.3080 S   0  0  0  0  0  0  0  0  0  0  0  0
  -31.2200  -20.5450   20.2050 H   0  0  0  0  0  0  0  0  0  0  0  0
  -31.1600  -14.2840   19.7070 C   0  0  0  0  0  0  0  0  0  0  0  0
  -30.7480  -12.1670   18.4740 C   0  0  0  0  0  2  0  0  0  0  0  0
  -29.6620  -12.4050   17.4020 C   0  0  0  0  0  2  0  0  0  0  0  0
  -28.2450  -12.2630   17.9980 C   0  0  0  0  0  2  0  0  0  0  0  0
  -28.0760  -13.0610   19.3170 C   0  0  0  0  0  3  0  0  0  0  0  0
  -29.2420  -12.7530   20.2810 C   0  0  0  0  0  2  0  0  0  0  0  0
  -30.5070  -13.0930   19.5950 N   0  0  0  0  0  0  0  0  0  0  0  0
  -32.1230  -14.5950   18.9960 O   0  0  0  0  0  0  0  0  0  0  0  0
  -30.6850  -15.0660   20.7000 N   0  0  0  0  0  0  0  0  0  0  0  0
  -30.1370  -14.5220   21.3500 H   0  0  0  0  0  0  0  0  0  0  0  0
  -25.8130  -13.6970   20.3710 C   0  0  0  0  0  0  0  0  0  0  0  0
  -24.7730  -12.9350   20.8300 C   0  0  0  0  0  0  0  0  0  0  0  0
  -25.1680  -11.5750   20.6450 C   0  0  0  0  0  0  0  0  0  0  0  0
  -26.7820  -12.8000   19.9440 N   0  0  0  0  0  0  0  0  0  0  0  0
  -26.4030  -11.5160   20.1610 N   0  0  0  0  0  0  0  0  0  0  0  0
  -24.4210  -10.3260   20.8460 C   0  0  0  0  0  0  0  0  0  0  0  0
  -24.8390   -9.3590   21.7870 C   0  0  0  0  0  3  0  0  0  0  0  0
  -24.0960   -8.1740   21.9720 C   0  0  0  0  0  3  0  0  0  0  0  0
  -22.9200   -7.9480   21.2170 C   0  0  0  0  0  0  0  0  0  0  0  0
  -22.5230   -8.9030   20.2640 C   0  0  0  0  0  3  0  0  0  0  0  0
  -23.2670  -10.0800   20.0770 C   0  0  0  0  0  3  0  0  0  0  0  0
  -22.1490   -6.8150   21.3110 O   0  0  0  0  0  0  0  0  0  0  0  0
  -21.9510   -6.1780   22.5110 C   0  0  0  0  0  0  0  0  0  0  0  0
  -21.4230   -6.8510   23.6340 C   0  0  0  0  0  3  0  0  0  0  0  0
  -21.1700   -6.1420   24.8240 C   0  0  0  0  0  3  0  0  0  0  0  0
  -21.4330   -4.7600   24.8910 C   0  0  0  0  0  0  0  0  0  0  0  0
  -21.9520   -4.0870   23.7720 C   0  0  0  0  0  3  0  0  0  0  0  0
  -22.2070   -4.7940   22.5840 C   0  0  0  0  0  0  0  0  0  0  0  0
  -22.6880   -4.1370   21.5010 F   0  0  0  0  0  0  0  0  0  0  0  0
  -21.1820   -4.0760   26.0330 F   0  0  0  0  0  0  0  0  0  0  0  0
  -23.4450  -13.4360   21.3230 C   0  0  0  0  0  0  0  0  0  0  0  0
  -22.8380  -12.7320   22.2730 N   0  0  0  0  0  0  0  0  0  0  0  0
  -22.9590  -14.4830   20.8990 O   0  0  0  0  0  0  0  0  0  0  0  0
  -23.2460  -11.8830   22.6350 H   0  0  0  0  0  0  0  0  0  0  0  0
  -21.9530  -13.0480   22.6440 H   0  0  0  0  0  0  0  0  0  0  0  0
  -26.0110  -15.0690   20.2650 N   0  0  0  0  0  0  0  0  0  0  0  0
  -25.2840  -15.7380   20.4940 H   0  0  0  0  0  0  0  0  0  0  0  0
  -26.8110  -15.4960   19.8150 H   0  0  0  0  0  0  0  0  0  0  0  0
  -31.4700  -23.0430   20.5070 C   0  0  0  0  0  1  0  0  0  0  0  0
  -30.0590  -22.7530   19.9510 C   0  0  0  0  0  3  0  0  0  0  0  0
  -29.1570  -24.0440   19.7750 C   0  0  0  0  0  2  0  0  0  0  0  0
  -29.0050  -25.4880   21.9510 C   0  0  0  0  0  1  0  0  0  0  0  0
  -29.5290  -25.3870   20.5090 C   0  0  0  0  0  3  0  0  0  0  0  0
  -29.2980  -26.6020   19.7490 O   0  0  0  0  0  0  0  0  0  0  0  0
  -24.9910  -31.2560   23.0270 C   0  0  0  0  0  0  0  0  0  0  0  0
  -28.0670  -27.2240   19.7860 C   0  0  0  0  0  0  0  0  0  0  0  0
  -23.9530  -29.8860   21.2470 C   0  0  0  0  0  3  0  0  0  0  0  0
  -25.5690  -28.5560   19.7840 C   0  0  0  0  0  0  0  0  0  0  0  0
  -26.4480  -30.4470   21.1650 C   0  0  0  0  0  2  0  0  0  0  0  0
  -26.6620  -29.1290   20.4460 C   0  0  0  0  0  0  0  0  0  0  0  0
  -27.9170  -28.4750   20.4360 C   0  0  0  0  0  3  0  0  0  0  0  0
  -26.9570  -26.6660   19.1220 C   0  0  0  0  0  3  0  0  0  0  0  0
  -25.7130  -27.3260   19.1160 C   0  0  0  0  0  3  0  0  0  0  0  0
  -24.2650  -29.3220   19.8340 C   0  0  0  0  0  2  0  0  0  0  0  0
  -25.1460  -30.5430   21.8740 N   0  0  0  0  0  0  0  0  0  0  0  0
  -23.8770  -31.4060   23.5430 O   0  0  0  0  0  0  0  0  0  0  0  0
  -23.3520  -28.7540   22.1130 C   0  0  0  0  0  0  0  0  0  0  0  0
  -22.0530  -28.4770   21.9190 N   0  0  0  0  0  0  0  0  0  0  0  0
  -24.0520  -28.1310   22.9150 O   0  0  0  0  0  0  0  0  0  0  0  0
  -21.5450  -29.0400   21.2500 H   0  0  0  0  0  0  0  0  0  0  0  0
  -18.7700  -26.9880   22.1860 C   0  0  0  0  0  0  0  0  0  0  0  0
  -21.2870  -27.4260   22.5880 C   0  0  0  0  0  3  0  0  0  0  0  0
  -21.5270  -26.0500   21.9240 C   0  0  0  0  0  2  0  0  0  0  0  0
  -20.4950  -25.7140   20.8440 C   0  0  0  0  0  2  0  0  0  0  0  0
  -19.0820  -25.7050   21.4350 C   0  0  0  0  0  2  0  0  0  0  0  0
  -19.8060  -27.8020   22.7140 C   0  0  0  0  0  0  0  0  0  0  0  0
  -19.4650  -29.0000   23.3790 C   0  0  0  0  0  3  0  0  0  0  0  0
  -18.1200  -29.3850   23.5210 C   0  0  0  0  0  3  0  0  0  0  0  0
  -17.0980  -28.5660   23.0120 C   0  0  0  0  0  3  0  0  0  0  0  0
  -17.4220  -27.3700   22.3490 C   0  0  0  0  0  3  0  0  0  0  0  0
  -26.2040  -31.9360   23.7370 C   0  0  0  0  0  3  0  0  0  0  0  0
  -26.7320  -31.1220   24.9810 C   0  0  1  0  0  0  0  0  0  0  0  0
  -25.6180  -30.6940   25.9630 C   0  0  0  0  0  1  0  0  0  0  0  0
  -27.4720  -29.8460   24.5180 C   0  0  0  0  0  1  0  0  0  0  0  0
  -27.7590  -31.9720   25.7670 C   0  0  0  0  0  1  0  0  0  0  0  0
  -25.7830  -33.2840   24.1390 N   0  0  0  0  0  0  0  0  0  0  0  0
  -26.0670  -34.4040   23.4600 C   0  0  0  0  0  0  0  0  0  0  0  0
  -26.7820  -34.4130   22.4540 O   0  0  0  0  0  0  0  0  0  0  0  0
  -25.1470  -33.3450   24.9210 H   0  0  0  0  0  0  0  0  0  0  0  0
  -24.2260  -36.0870   23.1370 C   0  0  0  0  0  1  0  0  0  0  0  0
  -25.4600  -35.7230   23.9790 C   0  0  0  0  0  3  0  0  0  0  0  0
  -27.4890  -36.7030   24.9510 C   0  0  0  0  0  1  0  0  0  0  0  0
  -26.4140  -36.8530   23.9750 N   0  0  0  0  0  0  0  0  0  0  0  0
  -25.9360  -37.7300   24.1600 H   0  0  0  0  0  0  0  0  0  0  0  0
  2  1  1  0
  3  6  1  0
  4  3  2  0
  5  7  2  0
  7  3  1  0
  8  2  1  0
  8  5  1  0
  9  5  1  0
  9  4  1  0
 10  8  1  0
 11 19  1  0
 12 17  1  0
 13 14  1  0
 13 12  1  0
 15 14  1  0
 15 24  1  0
 15 16  1  0
 17 11  1  0
 17 16  1  0
 18 11  2  0
 19  4  1  0
 19 20  1  0
 21 22  2  0
 22 41  1  0
 23 22  1  0
 23 26  1  0
 24 25  1  0
 24 21  1  0
 25 23  2  0
 26 27  1  0
 27 28  2  0
 29 32  1  0
 29 28  1  0
 30 29  2  0
 31 30  1  0
 31 26  2  0
 32 33  1  0
 33 38  2  0
 33 34  1  0
 34 35  2  0
 35 36  1  0
 36 40  1  0
 37 36  2  0
 38 37  1  0
 39 38  1  0
 41 42  1  0
 42 44  1  0
 42 45  1  0
 43 41  2  0
 46 21  1  0
 46 47  1  0
 48 46  1  0
 50 49  1  0
 50  2  1  0
 51 50  1  0
 51 53  1  0
 53 52  1  0
 54 56  1  0
 54 53  1  0
 55 66  2  0
 56 61  1  0
 57 65  1  0
 57 67  1  0
 58 64  1  0
 58 60  1  0
 59 65  1  0
 60 59  1  0
 61 60  2  0
 62 56  2  0
 63 62  1  0
 63 58  2  0
 64 57  1  0
 65 55  1  0
 67 69  2  0
 68 67  1  0
 70 68  1  0
 71 80  2  0
 71 76  1  0
 72 68  1  0
 72 76  1  0
 73 72  1  0
 74 75  1  0
 74 73  1  0
 75 71  1  0
 76 77  2  0
 77 78  1  0
 79 78  2  0
 80 79  1  0
 81 55  1  0
 81 86  1  0
 81 82  1  0
 82 85  1  1
 82 83  1  0
 84 82  1  0
 86 89  1  0
 87 91  1  0
 87 86  1  0
 88 87  2  0
 91 90  1  0
 93 91  1  0
 93 94  1  0
 93 92  1  0
M  ISO  4  11 100  19 100  53 101  54 101
M  END
>  <TORSDO>  (1) 
F 20

>  <SCORE>  (1) 
-9.549

>  <name>  (1) 
0

>  <ligand_id>  (1) 
0

>  <original_smiles>  (1) 
[H]c1c([H])c([H])c2c(c1[H])C([H])([H])C([H])([H])C([H])([H])C2([H])N([H])C(=O)C1([H])N(C(=O)C([H])(N([H])C(=O)C([H])(N([H])C([H])([H])[H])C([H])([H])[H])C(C([H])([H])[H])(C([H])([H])[H])C([H])([H])[H])C([H])([H])c2c([H])c(OC([H])(C([H])([H])[H])C([H])([H])C([H])(C([H])([H])[H])C([H])(N([H])c3nc(C([H])([H])[H])c(N([H])C(=O)N4C([H])([H])C([H])([H])C([H])([H])C([H])(n5nc(-c6c([H])c([H])c(Oc7c([H])c([H])c(F)c([H])c7F)c([H])c6[H])c(C(=O)N([H])[H])c5N([H])[H])C4([H])[H])s3)C([H])([H])[H])c([H])c([H])c2C1([H])[H]

>  <smiles>  (1) 
[H]c1c([H])c([H])c2c(c1[H])C([H])([H])C([H])([H])C([H])([H])C2([H])N([H])C(=O)C1([H])N(C(=O)C([H])(N([H])C(=O)C([H])(N([H])C([H])([H])[H])C([H])([H])[H])C(C([H])([H])[H])(C([H])([H])[H])C([H])([H])[H])C([H])([H])c2c([H])c(OC([H])(C([H])([H])[H])C([H])([H])C([H])(C([H])([H])[H])C([H])(N([H])c3nc(C([H])([H])[H])c(N([H])C(=O)N4C([H])([H])C([H])([H])C([H])([H])C([H])(n5nc(-c6c([H])c([H])c(Oc7c([H])c([H])c(F)c([H])c7F)c([H])c6[H])c(C(=O)N([H])[H])c5N([H])[H])C4([H])[H])s3)C([H])([H])[H])c([H])c([H])c2C1([H])[H]

$$$$
1:0:0
     RDKit          3D

 94102  0  0  1  0  0  0  0  0999 V2000
  -28.9170  -22.3360   20.9400 C   0  0  0  0  0  3  0  0  0  0  0  0
  -31.3050  -17.8160   20.9210 C   0  0  0  0  0  3  0  0  0  0  0  0
  -30.0570  -17.3130   20.6390 C   0  0  0  0  0  0  0  0  0  0  0  0
  -29.6460  -19.6750   20.5220 C   0  0  0  0  0  0  0  0  0  0  0  0
  -29.1320  -18.4040   20.4100 N   0  0  0  0  0  0  0  0  0  0  0  0
  -28.9700  -20.9410   20.3080 N   0  0  0  0  0  0  0  0  0  0  0  0
  -31.3650  -19.5750   20.9280 S   0  0  0  0  0  0  0  0  0  0  0  0
  -28.1190  -20.7800   19.7840 H   0  0  0  0  0  0  0  0  0  0  0  0
  -30.5310  -14.7400   20.3890 C   0  0  0  0  0  0  0  0  0  0  0  0
  -30.3230  -12.4850   19.3290 C   0  0  0  0  0  2  0  0  0  0  0  0
  -29.3830  -12.6180   18.1140 C   0  0  0  0  0  2  0  0  0  0  0  0
  -27.9110  -12.4380   18.5390 C   0  0  0  0  0  2  0  0  0  0  0  0
  -27.5520  -13.2650   19.8030 C   0  0  0  0  0  3  0  0  0  0  0  0
  -28.6230  -13.1420   20.9090 C   0  0  0  0  0  2  0  0  0  0  0  0
  -29.9110  -13.5130   20.3100 N   0  0  0  0  0  0  0  0  0  0  0  0
  -31.7110  -14.8430   20.0300 O   0  0  0  0  0  0  0  0  0  0  0  0
  -29.7460  -15.8590   20.6480 N   0  0  0  0  0  0  0  0  0  0  0  0
  -28.7770  -15.6430   20.8250 H   0  0  0  0  0  0  0  0  0  0  0  0
  -25.1660  -13.8300   20.5510 C   0  0  0  0  0  0  0  0  0  0  0  0
  -24.1090  -13.0490   20.9270 C   0  0  0  0  0  0  0  0  0  0  0  0
  -24.5810  -11.6990   20.8830 C   0  0  0  0  0  0  0  0  0  0  0  0
  -26.2140  -12.9590   20.2980 N   0  0  0  0  0  0  0  0  0  0  0  0
  -25.8680  -11.6700   20.5590 N   0  0  0  0  0  0  0  0  0  0  0  0
  -23.8580  -10.4320   21.0740 C   0  0  0  0  0  0  0  0  0  0  0  0
  -24.2830   -9.4730   22.0200 C   0  0  0  0  0  3  0  0  0  0  0  0
  -23.5610   -8.2720   22.1970 C   0  0  0  0  0  3  0  0  0  0  0  0
  -22.4020   -8.0220   21.4250 C   0  0  0  0  0  0  0  0  0  0  0  0
  -21.9960   -8.9690   20.4700 C   0  0  0  0  0  3  0  0  0  0  0  0
  -22.7180  -10.1610   20.2900 C   0  0  0  0  0  3  0  0  0  0  0  0
  -21.6530   -6.8720   21.5100 O   0  0  0  0  0  0  0  0  0  0  0  0
  -21.5760   -6.1470   22.6720 C   0  0  0  0  0  0  0  0  0  0  0  0
  -21.0830   -6.7090   23.8680 C   0  0  0  0  0  3  0  0  0  0  0  0
  -20.9540   -5.9090   25.0210 C   0  0  0  0  0  3  0  0  0  0  0  0
  -21.3120   -4.5480   24.9790 C   0  0  0  0  0  0  0  0  0  0  0  0
  -21.8020   -3.9850   23.7870 C   0  0  0  0  0  3  0  0  0  0  0  0
  -21.9320   -4.7840   22.6370 C   0  0  0  0  0  0  0  0  0  0  0  0
  -22.3830   -4.2320   21.4840 F   0  0  0  0  0  0  0  0  0  0  0  0
  -21.1830   -3.7770   26.0850 F   0  0  0  0  0  0  0  0  0  0  0  0
  -22.7130  -13.5210   21.2130 C   0  0  0  0  0  0  0  0  0  0  0  0
  -21.9920  -12.8170   22.0810 N   0  0  0  0  0  0  0  0  0  0  0  0
  -22.2670  -14.5490   20.7050 O   0  0  0  0  0  0  0  0  0  0  0  0
  -22.3640  -11.9900   22.5220 H   0  0  0  0  0  0  0  0  0  0  0  0
  -21.0560  -13.1200   22.3120 H   0  0  0  0  0  0  0  0  0  0  0  0
  -25.3180  -15.2020   20.3810 N   0  0  0  0  0  0  0  0  0  0  0  0
  -24.5340  -15.8410   20.4610 H   0  0  0  0  0  0  0  0  0  0  0  0
  -26.1520  -15.6530   20.0290 H   0  0  0  0  0  0  0  0  0  0  0  0
  -30.0340  -22.5080   21.9800 C   0  0  0  0  0  0  0  0  0  0  0  0
  -31.1030  -23.0680   21.7280 O   0  0  0  0  0  0  0  0  0  0  0  0
  -31.0480  -21.7310   24.2130 C   0  0  0  0  0  1  0  0  0  0  0  0
  -29.7810  -21.8770   23.3550 C   0  0  0  0  0  2  0  0  0  0  0  0
  -28.8060  -23.6880   20.0330 C   0  0  0  0  0  3  0  0  0  0  0  0
  -27.9840  -23.4260   19.0140 F   0  0  0  0  0  0  0  0  0  0  0  0
  -28.2860  -25.0610   20.7410 C   0  0  0  0  0  2  0  0  0  0  0  0
  -28.3880  -26.4340   20.1480 O   0  0  0  0  0  0  0  0  0  0  0  0
  -24.5840  -31.8610   23.1600 C   0  0  0  0  0  0  0  0  0  0  0  0
  -27.2610  -27.2800   20.1590 C   0  0  0  0  0  0  0  0  0  0  0  0
  -23.4090  -30.4550   21.5060 C   0  0  0  0  0  3  0  0  0  0  0  0
  -24.8870  -28.8940   20.1110 C   0  0  0  0  0  0  0  0  0  0  0  0
  -25.9530  -30.7710   21.3650 C   0  0  0  0  0  2  0  0  0  0  0  0
  -26.0480  -29.3880   20.7230 C   0  0  0  0  0  0  0  0  0  0  0  0
  -27.2380  -28.5930   20.7340 C   0  0  0  0  0  3  0  0  0  0  0  0
  -26.0780  -26.8400   19.5300 C   0  0  0  0  0  3  0  0  0  0  0  0
  -24.9060  -27.6260   19.5060 C   0  0  0  0  0  3  0  0  0  0  0  0
  -23.6470  -29.7690   20.1350 C   0  0  0  0  0  2  0  0  0  0  0  0
  -24.6670  -31.0480   22.0670 N   0  0  0  0  0  0  0  0  0  0  0  0
  -23.4920  -32.1400   23.6770 O   0  0  0  0  0  0  0  0  0  0  0  0
  -22.7310  -29.4430   22.4620 C   0  0  0  0  0  0  0  0  0  0  0  0
  -21.4070  -29.2670   22.3180 N   0  0  0  0  0  0  0  0  0  0  0  0
  -23.3990  -28.8170   23.2890 O   0  0  0  0  0  0  0  0  0  0  0  0
  -20.9260  -29.8150   21.6190 H   0  0  0  0  0  0  0  0  0  0  0  0
  -18.0200  -28.1070   22.8150 C   0  0  0  0  0  0  0  0  0  0  0  0
  -20.5790  -28.3320   23.0840 C   0  0  0  0  0  3  0  0  0  0  0  0
  -20.6650  -26.9060   22.4940 C   0  0  0  0  0  2  0  0  0  0  0  0
  -19.5600  -26.6090   21.4760 C   0  0  0  0  0  2  0  0  0  0  0  0
  -18.1790  -26.7650   22.1220 C   0  0  0  0  0  2  0  0  0  0  0  0
  -19.1470  -28.8510   23.2530 C   0  0  0  0  0  0  0  0  0  0  0  0
  -18.9450  -30.1080   23.8610 C   0  0  0  0  0  3  0  0  0  0  0  0
  -17.6480  -30.6250   24.0350 C   0  0  0  0  0  3  0  0  0  0  0  0
  -16.5340  -29.8790   23.6130 C   0  0  0  0  0  3  0  0  0  0  0  0
  -16.7200  -28.6210   23.0110 C   0  0  0  0  0  3  0  0  0  0  0  0
  -25.8570  -32.4990   23.8010 C   0  0  0  0  0  3  0  0  0  0  0  0
  -25.5300  -33.8910   24.1390 N   0  0  0  0  0  0  0  0  0  0  0  0
  -25.8610  -34.9560   23.3950 C   0  0  0  0  0  0  0  0  0  0  0  0
  -26.5420  -34.8680   22.3690 O   0  0  0  0  0  0  0  0  0  0  0  0
  -24.9210  -34.0300   24.9310 H   0  0  0  0  0  0  0  0  0  0  0  0
  -24.1310  -36.7480   23.0310 C   0  0  0  0  0  1  0  0  0  0  0  0
  -25.3570  -36.3340   23.8610 C   0  0  0  0  0  3  0  0  0  0  0  0
  -27.4710  -37.2220   24.7450 C   0  0  0  0  0  1  0  0  0  0  0  0
  -26.3850  -37.3960   23.7850 N   0  0  0  0  0  0  0  0  0  0  0  0
  -25.9700  -38.3110   23.9380 H   0  0  0  0  0  0  0  0  0  0  0  0
  -26.3650  -31.7220   25.0780 C   0  0  1  0  0  0  0  0  0  0  0  0
  -25.2580  -31.4710   26.1300 C   0  0  0  0  0  1  0  0  0  0  0  0
  -26.9640  -30.3500   24.6900 C   0  0  0  0  0  1  0  0  0  0  0  0
  -27.4990  -32.5210   25.7610 C   0  0  0  0  0  1  0  0  0  0  0  0
  1 47  1  0
  2  7  1  0
  3 17  1  0
  3  2  2  0
  4  7  1  0
  5  4  2  0
  5  3  1  0
  6  4  1  0
  6  1  1  0
  8  6  1  0
  9 17  1  0
 10 15  1  0
 11 12  1  0
 11 10  1  0
 13 12  1  0
 13 22  1  0
 13 14  1  0
 15  9  1  0
 15 14  1  0
 16  9  2  0
 17 18  1  0
 19 20  2  0
 20 39  1  0
 21 20  1  0
 21 24  1  0
 22 19  1  0
 22 23  1  0
 23 21  2  0
 24 25  1  0
 25 26  2  0
 27 30  1  0
 27 26  1  0
 28 27  2  0
 29 28  1  0
 29 24  2  0
 30 31  1  0
 31 32  1  0
 32 33  2  0
 34 33  1  0
 34 38  1  0
 35 34  2  0
 36 31  2  0
 36 35  1  0
 37 36  1  0
 39 40  1  0
 40 43  1  0
 40 42  1  0
 41 39  2  0
 44 45  1  0
 44 19  1  0
 46 44  1  0
 47 50  1  0
 48 47  2  0
 50 49  1  0
 51 52  1  0
 51 53  1  0
 51  1  1  0
 54 56  1  0
 54 53  1  0
 55 66  2  0
 56 61  1  0
 57 65  1  0
 57 67  1  0
 58 64  1  0
 58 60  1  0
 59 65  1  0
 60 61  2  0
 60 59  1  0
 62 56  2  0
 63 62  1  0
 63 58  2  0
 64 57  1  0
 65 55  1  0
 67 69  2  0
 68 67  1  0
 70 68  1  0
 71 80  2  0
 71 76  1  0
 72 68  1  0
 72 76  1  0
 73 72  1  0
 74 75  1  0
 74 73  1  0
 75 71  1  0
 76 77  2  0
 77 78  1  0
 79 78  2  0
 80 79  1  0
 81 55  1  0
 81 82  1  0
 81 91  1  0
 82 85  1  0
 83 87  1  0
 83 82  1  0
 84 83  2  0
 87 86  1  0
 89 87  1  0
 89 90  1  0
 89 88  1  0
 91 94  1  1
 91 92  1  0
 93 91  1  0
M  ISO  4   9 100  17 100  53 101  54 101
M  END
>  <TORSDO>  (2) 
F 21

>  <SCORE>  (2) 
-14.089

>  <name>  (2) 
1

>  <ligand_id>  (2) 
1

>  <original_smiles>  (2) 
[H]c1sc(N([H])C([H])(C(=O)C([H])([H])C([H])([H])[H])C([H])(F)C([H])([H])Oc2c([H])c([H])c3c(c2[H])C([H])([H])N(C(=O)C([H])(N([H])C(=O)C([H])(N([H])C([H])([H])[H])C([H])([H])[H])C(C([H])([H])[H])(C([H])([H])[H])C([H])([H])[H])C([H])(C(=O)N([H])C2([H])c4c([H])c([H])c([H])c([H])c4C([H])([H])C([H])([H])C2([H])[H])C3([H])[H])nc1N([H])C(=O)N1C([H])([H])C([H])([H])C([H])([H])C([H])(n2nc(-c3c([H])c([H])c(Oc4c([H])c([H])c(F)c([H])c4F)c([H])c3[H])c(C(=O)N([H])[H])c2N([H])[H])C1([H])[H]

>  <smiles>  (2) 
[H]c1sc(N([H])C([H])(C(=O)C([H])([H])C([H])([H])[H])C([H])(F)C([H])([H])Oc2c([H])c([H])c3c(c2[H])C([H])([H])N(C(=O)C([H])(N([H])C(=O)C([H])(N([H])C([H])([H])[H])C([H])([H])[H])C(C([H])([H])[H])(C([H])([H])[H])C([H])([H])[H])C([H])(C(=O)N([H])C2([H])c4c([H])c([H])c([H])c([H])c4C([H])([H])C([H])([H])C2([H])[H])C3([H])[H])nc1N([H])C(=O)N1C([H])([H])C([H])([H])C([H])([H])C([H])(n2nc(-c3c([H])c([H])c(Oc4c([H])c([H])c(F)c([H])c4F)c([H])c3[H])c(C(=O)N([H])[H])c2N([H])[H])C1([H])[H]

$$$$
2:0:0
     RDKit          3D

 94102  0  0  1  0  0  0  0  0999 V2000
  -28.6510  -23.3130   18.5940 C   0  0  0  0  0  1  0  0  0  0  0  0
  -28.8350  -23.0030   20.0890 C   0  0  0  0  0  3  0  0  0  0  0  0
  -28.6940  -18.3870   20.4690 C   0  0  0  0  0  3  0  0  0  0  0  0
  -30.0160  -18.0230   20.6000 C   0  0  0  0  0  0  0  0  0  0  0  0
  -29.6270  -20.4670   20.3320 C   0  0  0  0  0  0  0  0  0  0  0  0
  -28.4860  -19.7740   20.3100 N   0  0  0  0  0  0  0  0  0  0  0  0
  -29.7470  -21.8580   20.2430 N   0  0  0  0  0  0  0  0  0  0  0  0
  -31.0450  -19.4470   20.5400 S   0  0  0  0  0  0  0  0  0  0  0  0
  -30.7060  -22.1540   20.3870 H   0  0  0  0  0  0  0  0  0  0  0  0
  -30.7490  -14.4470   20.0750 C   0  0  0  0  0  0  0  0  0  0  0  0
  -30.3110  -12.3080   18.9270 C   0  0  0  0  0  2  0  0  0  0  0  0
  -29.3060  -12.5150   17.7810 C   0  0  0  0  0  2  0  0  0  0  0  0
  -27.8610  -12.3880   18.3010 C   0  0  0  0  0  2  0  0  0  0  0  0
  -27.6030  -13.2250   19.5820 C   0  0  0  0  0  3  0  0  0  0  0  0
  -28.7250  -13.0250   20.6240 C   0  0  0  0  0  2  0  0  0  0  0  0
  -30.0050  -13.3110   19.9590 N   0  0  0  0  0  0  0  0  0  0  0  0
  -31.8810  -14.5110   19.5890 O   0  0  0  0  0  0  0  0  0  0  0  0
  -30.7280  -16.7290   20.8300 C   0  0  0  0  0  0  0  0  0  0  0  0
  -30.1140  -15.5560   20.5270 N   0  0  0  0  0  0  0  0  0  0  0  0
  -31.8840  -16.7740   21.2680 O   0  0  0  0  0  0  0  0  0  0  0  0
  -29.1100  -15.5360   20.5100 H   0  0  0  0  0  0  0  0  0  0  0  0
  -25.2580  -13.8350   20.4450 C   0  0  0  0  0  0  0  0  0  0  0  0
  -24.2080  -13.0660   20.8640 C   0  0  0  0  0  0  0  0  0  0  0  0
  -24.6550  -11.7100   20.7840 C   0  0  0  0  0  0  0  0  0  0  0  0
  -26.2820  -12.9520   20.1410 N   0  0  0  0  0  0  0  0  0  0  0  0
  -25.9240  -11.6660   20.4020 N   0  0  0  0  0  0  0  0  0  0  0  0
  -23.9290  -10.4520   20.9940 C   0  0  0  0  0  0  0  0  0  0  0  0
  -24.3870   -9.4740   21.9060 C   0  0  0  0  0  3  0  0  0  0  0  0
  -23.6580   -8.2830   22.1040 C   0  0  0  0  0  3  0  0  0  0  0  0
  -22.4580   -8.0580   21.3900 C   0  0  0  0  0  0  0  0  0  0  0  0
  -22.0200   -9.0210   20.4640 C   0  0  0  0  0  3  0  0  0  0  0  0
  -22.7500  -10.2040   20.2640 C   0  0  0  0  0  3  0  0  0  0  0  0
  -21.6990   -6.9170   21.4990 O   0  0  0  0  0  0  0  0  0  0  0  0
  -21.6720   -6.1770   22.6530 C   0  0  0  0  0  0  0  0  0  0  0  0
  -21.2680   -6.7360   23.8860 C   0  0  0  0  0  3  0  0  0  0  0  0
  -21.1880   -5.9240   25.0350 C   0  0  0  0  0  3  0  0  0  0  0  0
  -21.5030   -4.5540   24.9530 C   0  0  0  0  0  0  0  0  0  0  0  0
  -21.8990   -3.9950   23.7250 C   0  0  0  0  0  3  0  0  0  0  0  0
  -21.9810   -4.8040   22.5780 C   0  0  0  0  0  0  0  0  0  0  0  0
  -22.3450   -4.2560   21.3940 F   0  0  0  0  0  0  0  0  0  0  0  0
  -21.4190   -3.7710   26.0540 F   0  0  0  0  0  0  0  0  0  0  0  0
  -22.8340  -13.5510   21.2240 C   0  0  0  0  0  0  0  0  0  0  0  0
  -22.1490  -12.8480   22.1180 N   0  0  0  0  0  0  0  0  0  0  0  0
  -22.3780  -14.5910   20.7490 O   0  0  0  0  0  0  0  0  0  0  0  0
  -22.5330  -12.0050   22.5230 H   0  0  0  0  0  0  0  0  0  0  0  0
  -21.2300  -13.1560   22.4020 H   0  0  0  0  0  0  0  0  0  0  0  0
  -25.4170  -15.2080   20.2740 N   0  0  0  0  0  0  0  0  0  0  0  0
  -24.6410  -15.8450   20.4070 H   0  0  0  0  0  0  0  0  0  0  0  0
  -26.2080  -15.6390   19.8150 H   0  0  0  0  0  0  0  0  0  0  0  0
  -30.6140  -24.8350   20.4450 C   0  0  0  0  0  1  0  0  0  0  0  0
  -29.4500  -23.8040   22.4080 C   0  0  0  0  0  1  0  0  0  0  0  0
  -29.2690  -24.2610   20.9390 C   0  0  2  0  0  0  0  0  0  0  0  0
  -28.1700  -25.3910   20.9630 C   0  0  0  0  0  2  0  0  0  0  0  0
  -28.4040  -26.5920   20.1850 O   0  0  0  0  0  0  0  0  0  0  0  0
  -24.6190  -31.8420   23.1980 C   0  0  0  0  0  0  0  0  0  0  0  0
  -27.2850  -27.3980   20.1270 C   0  0  0  0  0  0  0  0  0  0  0  0
  -23.4330  -30.4370   21.5480 C   0  0  0  0  0  3  0  0  0  0  0  0
  -24.9000  -28.9180   20.1220 C   0  0  0  0  0  0  0  0  0  0  0  0
  -25.9600  -30.8080   21.3650 C   0  0  0  0  0  2  0  0  0  0  0  0
  -26.0570  -29.4400   20.7160 C   0  0  0  0  0  0  0  0  0  0  0  0
  -27.2590  -28.6900   20.7100 C   0  0  0  0  0  3  0  0  0  0  0  0
  -26.1150  -26.9040   19.5110 C   0  0  0  0  0  3  0  0  0  0  0  0
  -24.9250  -27.6520   19.5130 C   0  0  0  0  0  3  0  0  0  0  0  0
  -23.6530  -29.7700   20.1660 C   0  0  0  0  0  2  0  0  0  0  0  0
  -24.6880  -31.0430   22.0960 N   0  0  0  0  0  0  0  0  0  0  0  0
  -23.5340  -32.1070   23.7320 O   0  0  0  0  0  0  0  0  0  0  0  0
  -22.7780  -29.4100   22.5020 C   0  0  0  0  0  0  0  0  0  0  0  0
  -21.4500  -29.2410   22.3840 N   0  0  0  0  0  0  0  0  0  0  0  0
  -23.4620  -28.7680   23.3050 O   0  0  0  0  0  0  0  0  0  0  0  0
  -20.9610  -29.8040   21.7030 H   0  0  0  0  0  0  0  0  0  0  0  0
  -18.0670  -28.0920   22.9210 C   0  0  0  0  0  0  0  0  0  0  0  0
  -20.6320  -28.3050   23.1550 C   0  0  0  0  0  3  0  0  0  0  0  0
  -20.7040  -26.8820   22.5550 C   0  0  0  0  0  2  0  0  0  0  0  0
  -19.5820  -26.5920   21.5550 C   0  0  0  0  0  2  0  0  0  0  0  0
  -18.2130  -26.7510   22.2230 C   0  0  0  0  0  2  0  0  0  0  0  0
  -19.2040  -28.8290   23.3440 C   0  0  0  0  0  0  0  0  0  0  0  0
  -19.0140  -30.0880   23.9550 C   0  0  0  0  0  3  0  0  0  0  0  0
  -17.7190  -30.6040   24.1530 C   0  0  0  0  0  3  0  0  0  0  0  0
  -16.5970  -29.8620   23.7480 C   0  0  0  0  0  3  0  0  0  0  0  0
  -16.7720  -28.6100   23.1320 C   0  0  0  0  0  3  0  0  0  0  0  0
  -25.8980  -32.4830   23.8240 C   0  0  0  0  0  3  0  0  0  0  0  0
  -26.4230  -31.7050   25.0930 C   0  0  1  0  0  0  0  0  0  0  0  0
  -25.3340  -31.4460   26.1590 C   0  0  0  0  0  1  0  0  0  0  0  0
  -27.0190  -30.3370   24.6860 C   0  0  0  0  0  1  0  0  0  0  0  0
  -27.5650  -32.5040   25.7610 C   0  0  0  0  0  1  0  0  0  0  0  0
  -25.5750  -33.8740   24.1630 N   0  0  0  0  0  0  0  0  0  0  0  0
  -25.8890  -34.9340   23.4040 C   0  0  0  0  0  0  0  0  0  0  0  0
  -26.5510  -34.8410   22.3670 O   0  0  0  0  0  0  0  0  0  0  0  0
  -24.9870  -34.0210   24.9700 H   0  0  0  0  0  0  0  0  0  0  0  0
  -24.1370  -36.7070   23.0700 C   0  0  0  0  0  1  0  0  0  0  0  0
  -25.3890  -36.3140   23.8710 C   0  0  0  0  0  3  0  0  0  0  0  0
  -27.5170  -37.2220   24.6930 C   0  0  0  0  0  1  0  0  0  0  0  0
  -26.4090  -37.3790   23.7550 N   0  0  0  0  0  0  0  0  0  0  0  0
  -25.9920  -38.2930   23.9100 H   0  0  0  0  0  0  0  0  0  0  0  0
  2  1  1  0
  2  7  1  0
  2 52  1  0
  3  4  2  0
  4 18  1  0
  5  8  1  0
  6  5  2  0
  6  3  1  0
  7  5  1  0
  7  9  1  0
  8  4  1  0
 10 19  1  0
 11 16  1  0
 12 13  1  0
 12 11  1  0
 14 13  1  0
 14 25  1  0
 14 15  1  0
 16 10  1  0
 16 15  1  0
 17 10  2  0
 18 20  2  0
 19 18  1  0
 21 19  1  0
 22 23  2  0
 23 42  1  0
 24 23  1  0
 24 27  1  0
 25 26  1  0
 25 22  1  0
 26 24  2  0
 27 28  1  0
 28 29  2  0
 30 33  1  0
 30 29  1  0
 31 30  2  0
 32 31  1  0
 32 27  2  0
 33 34  1  0
 34 35  1  0
 35 36  2  0
 37 36  1  0
 37 41  1  0
 38 37  2  0
 39 34  2  0
 39 38  1  0
 40 39  1  0
 42 43  1  0
 43 46  1  0
 43 45  1  0
 44 42  2  0
 47 48  1  0
 47 22  1  0
 49 47  1  0
 52 50  1  6
 52 53  1  0
 52 51  1  0
 54 53  1  0
 55 66  2  0
 56 54  1  0
 56 61  1  0
 57 65  1  0
 57 67  1  0
 58 64  1  0
 58 60  1  0
 59 65  1  0
 60 59  1  0
 61 60  2  0
 62 63  1  0
 62 56  2  0
 63 58  2  0
 64 57  1  0
 65 55  1  0
 67 69  2  0
 68 67  1  0
 70 68  1  0
 71 80  2  0
 71 76  1  0
 72 68  1  0
 72 76  1  0
 73 72  1  0
 74 75  1  0
 74 73  1  0
 75 71  1  0
 76 77  2  0
 77 78  1  0
 79 78  2  0
 80 79  1  0
 81 55  1  0
 81 86  1  0
 81 82  1  0
 82 85  1  1
 82 83  1  0
 84 82  1  0
 86 89  1  0
 87 91  1  0
 87 86  1  0
 88 87  2  0
 91 90  1  0
 93 91  1  0
 93 94  1  0
 93 92  1  0
M  ISO  4  10 100  19 100  53 101  54 101
M  END
>  <TORSDO>  (3) 
F 19

>  <SCORE>  (3) 
-14.471

>  <name>  (3) 
2

>  <ligand_id>  (3) 
2

>  <original_smiles>  (3) 
[H]c1nc(N([H])C([H])(C([H])([H])[H])C(C([H])([H])[H])(C([H])([H])[H])C([H])([H])Oc2c([H])c([H])c3c(c2[H])C([H])([H])N(C(=O)C([H])(N([H])C(=O)C([H])(N([H])C([H])([H])[H])C([H])([H])[H])C(C([H])([H])[H])(C([H])([H])[H])C([H])([H])[H])C([H])(C(=O)N([H])C2([H])c4c([H])c([H])c([H])c([H])c4C([H])([H])C([H])([H])C2([H])[H])C3([H])[H])sc1C(=O)N([H])C(=O)N1C([H])([H])C([H])([H])C([H])([H])C([H])(n2nc(-c3c([H])c([H])c(Oc4c([H])c([H])c(F)c([H])c4F)c([H])c3[H])c(C(=O)N([H])[H])c2N([H])[H])C1([H])[H]

>  <smiles>  (3) 
[H]c1nc(N([H])C([H])(C([H])([H])[H])C(C([H])([H])[H])(C([H])([H])[H])C([H])([H])Oc2c([H])c([H])c3c(c2[H])C([H])([H])N(C(=O)C([H])(N([H])C(=O)C([H])(N([H])C([H])([H])[H])C([H])([H])[H])C(C([H])([H])[H])(C([H])([H])[H])C([H])([H])[H])C([H])(C(=O)N([H])C2([H])c4c([H])c([H])c([H])c([H])c4C([H])([H])C([H])([H])C2([H])[H])C3([H])[H])sc1C(=O)N([H])C(=O)N1C([H])([H])C([H])([H])C([H])([H])C([H])(n2nc(-c3c([H])c([H])c(Oc4c([H])c([H])c(F)c([H])c4F)c([H])c3[H])c(C(=O)N([H])[H])c2N([H])[H])C1([H])[H]

$$$$
4:0:0
     RDKit          3D

 97105  0  0  1  0  0  0  0  0999 V2000
  -28.5740  -22.4050   19.9000 C   0  0  0  0  0  3  0  0  0  0  0  0
  -30.8080  -22.3800   18.5160 C   0  0  0  0  0  1  0  0  0  0  0  0
  -28.8280  -20.9510   17.7650 C   0  0  0  0  0  1  0  0  0  0  0  0
  -29.2790  -22.2140   18.5230 C   0  0  0  0  0  3  0  0  0  0  0  0
  -28.7110  -23.8710   20.5610 C   0  0  0  0  0  3  0  0  0  0  0  0
  -27.7810  -23.9270   21.6360 O   0  0  0  0  0  0  0  0  0  0  0  0
  -26.9050  -23.9170   21.2650 H   0  0  0  0  0  0  0  0  0  0  0  0
  -28.3890  -25.1270   19.6200 C   0  0  0  0  0  2  0  0  0  0  0  0
  -28.3660  -26.5140   20.1620 O   0  0  0  0  0  0  0  0  0  0  0  0
  -24.6350  -31.8840   23.2270 C   0  0  0  0  0  0  0  0  0  0  0  0
  -27.2190  -27.3300   20.1240 C   0  0  0  0  0  0  0  0  0  0  0  0
  -23.4130  -30.4890   21.6000 C   0  0  0  0  0  3  0  0  0  0  0  0
  -24.8470  -28.9460   20.1560 C   0  0  0  0  0  0  0  0  0  0  0  0
  -25.9520  -30.8100   21.3870 C   0  0  0  0  0  2  0  0  0  0  0  0
  -26.0240  -29.4320   20.7370 C   0  0  0  0  0  0  0  0  0  0  0  0
  -27.2090  -28.6350   20.7130 C   0  0  0  0  0  3  0  0  0  0  0  0
  -26.0070  -26.8980   19.5330 C   0  0  0  0  0  3  0  0  0  0  0  0
  -24.8420  -27.6830   19.5510 C   0  0  0  0  0  3  0  0  0  0  0  0
  -23.6110  -29.8190   20.2160 C   0  0  0  0  0  2  0  0  0  0  0  0
  -24.6870  -31.0770   22.1270 N   0  0  0  0  0  0  0  0  0  0  0  0
  -23.5570  -32.1580   23.7750 O   0  0  0  0  0  0  0  0  0  0  0  0
  -22.7640  -29.4670   22.5640 C   0  0  0  0  0  0  0  0  0  0  0  0
  -21.4370  -29.2840   22.4480 N   0  0  0  0  0  0  0  0  0  0  0  0
  -23.4530  -28.8410   23.3750 O   0  0  0  0  0  0  0  0  0  0  0  0
  -20.9380  -29.8420   21.7690 H   0  0  0  0  0  0  0  0  0  0  0  0
  -18.0720  -28.0650   22.9660 C   0  0  0  0  0  0  0  0  0  0  0  0
  -20.6290  -28.3440   23.2280 C   0  0  0  0  0  3  0  0  0  0  0  0
  -20.7380  -26.9090   22.6620 C   0  0  0  0  0  2  0  0  0  0  0  0
  -19.6370  -26.5720   21.6520 C   0  0  0  0  0  2  0  0  0  0  0  0
  -18.2560  -26.7120   22.2990 C   0  0  0  0  0  2  0  0  0  0  0  0
  -19.1860  -28.8370   23.3880 C   0  0  0  0  0  0  0  0  0  0  0  0
  -18.9600  -30.1020   23.9730 C   0  0  0  0  0  3  0  0  0  0  0  0
  -17.6520  -30.5950   24.1410 C   0  0  0  0  0  3  0  0  0  0  0  0
  -16.5520  -29.8210   23.7350 C   0  0  0  0  0  3  0  0  0  0  0  0
  -16.7630  -28.5580   23.1520 C   0  0  0  0  0  3  0  0  0  0  0  0
  -25.9230  -32.5180   23.8330 C   0  0  0  0  0  3  0  0  0  0  0  0
  -25.6120  -33.9130   24.1730 N   0  0  0  0  0  0  0  0  0  0  0  0
  -25.9280  -34.9720   23.4160 C   0  0  0  0  0  0  0  0  0  0  0  0
  -26.5850  -34.8780   22.3760 O   0  0  0  0  0  0  0  0  0  0  0  0
  -25.0220  -34.0600   24.9790 H   0  0  0  0  0  0  0  0  0  0  0  0
  -24.1860  -36.7620   23.1000 C   0  0  0  0  0  1  0  0  0  0  0  0
  -25.4420  -36.3560   23.8900 C   0  0  0  0  0  3  0  0  0  0  0  0
  -27.5850  -37.2470   24.6930 C   0  0  0  0  0  1  0  0  0  0  0  0
  -26.4660  -37.4160   23.7690 N   0  0  0  0  0  0  0  0  0  0  0  0
  -26.0570  -38.3320   23.9310 H   0  0  0  0  0  0  0  0  0  0  0  0
  -26.4580  -31.7450   25.1010 C   0  0  1  0  0  0  0  0  0  0  0  0
  -25.3800  -31.5010   26.1840 C   0  0  0  0  0  1  0  0  0  0  0  0
  -27.0370  -30.3690   24.6970 C   0  0  0  0  0  1  0  0  0  0  0  0
  -27.6130  -32.5410   25.7530 C   0  0  0  0  0  1  0  0  0  0  0  0
  -28.5360  -20.9020   21.0750 S   0  0  0  0  0  0  0  0  0  0  0  0
  -30.6490  -14.6840   20.3670 C   0  0  0  0  0  0  0  0  0  0  0  0
  -30.3720  -12.4470   19.3140 C   0  0  0  0  0  2  0  0  0  0  0  0
  -29.4360  -12.5810   18.0940 C   0  0  0  0  0  2  0  0  0  0  0  0
  -27.9620  -12.4360   18.5200 C   0  0  0  0  0  2  0  0  0  0  0  0
  -27.6110  -13.2940   19.7670 C   0  0  0  0  0  3  0  0  0  0  0  0
  -28.6740  -13.1620   20.8800 C   0  0  0  0  0  2  0  0  0  0  0  0
  -29.9790  -13.4870   20.2900 N   0  0  0  0  0  0  0  0  0  0  0  0
  -31.8250  -14.7350   19.9920 O   0  0  0  0  0  0  0  0  0  0  0  0
  -31.6370  -17.6490   20.6410 C   0  0  0  0  0  3  0  0  0  0  0  0
  -31.9520  -19.0070   20.6910 C   0  0  0  0  0  0  0  0  0  0  0  0
  -30.2820  -17.2500   20.6640 C   0  0  0  0  0  0  0  0  0  0  0  0
  -29.7650  -19.5690   20.7340 C   0  0  0  0  0  0  0  0  0  0  0  0
  -31.0270  -19.9620   20.7660 N   0  0  0  0  0  0  0  0  0  0  0  0
  -29.3530  -18.2710   20.7240 N   0  0  0  0  0  0  0  0  0  0  0  0
  -29.9220  -15.8200   20.6640 N   0  0  0  0  0  0  0  0  0  0  0  0
  -28.9490  -15.6390   20.8520 H   0  0  0  0  0  0  0  0  0  0  0  0
  -25.2220  -13.8860   20.4880 C   0  0  0  0  0  0  0  0  0  0  0  0
  -24.1580  -13.1120   20.8620 C   0  0  0  0  0  0  0  0  0  0  0  0
  -24.6220  -11.7620   20.8390 C   0  0  0  0  0  0  0  0  0  0  0  0
  -26.2680  -13.0070   20.2580 N   0  0  0  0  0  0  0  0  0  0  0  0
  -25.9130  -11.7250   20.5310 N   0  0  0  0  0  0  0  0  0  0  0  0
  -23.8970  -10.5000   21.0340 C   0  0  0  0  0  0  0  0  0  0  0  0
  -24.3360   -9.5320   21.9630 C   0  0  0  0  0  3  0  0  0  0  0  0
  -23.6100   -8.3360   22.1460 C   0  0  0  0  0  3  0  0  0  0  0  0
  -22.4290   -8.1000   21.4030 C   0  0  0  0  0  0  0  0  0  0  0  0
  -22.0100   -9.0580   20.4610 C   0  0  0  0  0  3  0  0  0  0  0  0
  -22.7370  -10.2450   20.2740 C   0  0  0  0  0  3  0  0  0  0  0  0
  -21.6740   -6.9570   21.4960 O   0  0  0  0  0  0  0  0  0  0  0  0
  -21.6400   -6.2070   22.6450 C   0  0  0  0  0  0  0  0  0  0  0  0
  -21.2400   -6.7570   23.8830 C   0  0  0  0  0  3  0  0  0  0  0  0
  -21.1530   -5.9360   25.0230 C   0  0  0  0  0  3  0  0  0  0  0  0
  -21.4570   -4.5640   24.9280 C   0  0  0  0  0  0  0  0  0  0  0  0
  -21.8510   -4.0130   23.6960 C   0  0  0  0  0  3  0  0  0  0  0  0
  -21.9370   -4.8320   22.5570 C   0  0  0  0  0  0  0  0  0  0  0  0
  -22.2960   -4.2920   21.3680 F   0  0  0  0  0  0  0  0  0  0  0  0
  -21.3660   -3.7720   26.0220 F   0  0  0  0  0  0  0  0  0  0  0  0
  -22.7610  -13.5900   21.1330 C   0  0  0  0  0  0  0  0  0  0  0  0
  -22.0340  -12.8990   22.0020 N   0  0  0  0  0  0  0  0  0  0  0  0
  -22.3230  -14.6130   20.6060 O   0  0  0  0  0  0  0  0  0  0  0  0
  -22.4010  -12.0730   22.4500 H   0  0  0  0  0  0  0  0  0  0  0  0
  -21.0960  -13.2020   22.2240 H   0  0  0  0  0  0  0  0  0  0  0  0
  -25.3850  -15.2570   20.3030 N   0  0  0  0  0  0  0  0  0  0  0  0
  -24.6130  -15.9070   20.4060 H   0  0  0  0  0  0  0  0  0  0  0  0
  -26.2250  -15.7000   19.9570 H   0  0  0  0  0  0  0  0  0  0  0  0
  -33.2700  -19.4310   20.6780 N   0  0  0  0  0  0  0  0  0  0  0  0
  -34.0410  -18.7750   20.7070 H   0  0  0  0  0  0  0  0  0  0  0  0
  -33.5180  -20.4090   20.7770 H   0  0  0  0  0  0  0  0  0  0  0  0
  1  4  1  0
  1  5  1  0
  1 50  1  0
  2  4  1  0
  3  4  1  0
  5  8  1  0
  5  6  1  0
  7  6  1  0
  8  9  1  0
 10 21  2  0
 11  9  1  0
 11 16  1  0
 12 20  1  0
 12 22  1  0
 13 19  1  0
 13 15  1  0
 14 20  1  0
 15 14  1  0
 16 15  2  0
 17 18  1  0
 17 11  2  0
 18 13  2  0
 19 12  1  0
 20 10  1  0
 22 24  2  0
 23 22  1  0
 25 23  1  0
 26 35  2  0
 26 31  1  0
 27 23  1  0
 27 31  1  0
 28 27  1  0
 29 30  1  0
 29 28  1  0
 30 26  1  0
 31 32  2  0
 32 33  1  0
 34 33  2  0
 35 34  1  0
 36 10  1  0
 36 37  1  0
 36 46  1  0
 37 40  1  0
 38 42  1  0
 38 37  1  0
 39 38  2  0
 42 41  1  0
 44 42  1  0
 44 45  1  0
 44 43  1  0
 46 49  1  1
 46 47  1  0
 48 46  1  0
 51 65  1  0
 52 57  1  0
 53 54  1  0
 53 52  1  0
 55 54  1  0
 55 70  1  0
 55 56  1  0
 57 51  1  0
 57 56  1  0
 58 51  2  0
 59 61  1  0
 59 60  2  0
 60 63  1  0
 61 64  2  0
 62 63  2  0
 62 50  1  0
 64 62  1  0
 65 61  1  0
 65 66  1  0
 67 68  2  0
 68 87  1  0
 69 68  1  0
 69 72  1  0
 70 67  1  0
 70 71  1  0
 71 69  2  0
 72 73  1  0
 73 74  2  0
 75 78  1  0
 75 74  1  0
 76 75  2  0
 77 76  1  0
 77 72  2  0
 78 79  1  0
 79 80  1  0
 80 81  2  0
 82 81  1  0
 82 86  1  0
 83 82  2  0
 84 79  2  0
 84 83  1  0
 85 84  1  0
 87 88  1  0
 88 91  1  0
 88 90  1  0
 89 87  2  0
 92 93  1  0
 92 67  1  0
 94 92  1  0
 95 60  1  0
 95 96  1  0
 95 97  1  0
M  ISO  4   8 101   9 101  51 100  65 100
M  END
>  <TORSDO>  (4) 
F 22

>  <SCORE>  (4) 
-13.750

>  <name>  (4) 
4

>  <ligand_id>  (4) 
4

>  <original_smiles>  (4) 
[H]OC([H])(C([H])([H])Oc1c([H])c([H])c2c(c1[H])C([H])([H])N(C(=O)C([H])(N([H])C(=O)C([H])(N([H])C([H])([H])[H])C([H])([H])[H])C(C([H])([H])[H])(C([H])([H])[H])C([H])([H])[H])C([H])(C(=O)N([H])C1([H])c3c([H])c([H])c([H])c([H])c3C([H])([H])C([H])([H])C1([H])[H])C2([H])[H])C([H])(Sc1nc(N([H])[H])c([H])c(N([H])C(=O)N2C([H])([H])C([H])([H])C([H])([H])C([H])(n3nc(-c4c([H])c([H])c(Oc5c([H])c([H])c(F)c([H])c5F)c([H])c4[H])c(C(=O)N([H])[H])c3N([H])[H])C2([H])[H])n1)C([H])(C([H])([H])[H])C([H])([H])[H]

>  <smiles>  (4) 
[H]OC([H])(C([H])([H])Oc1c([H])c([H])c2c(c1[H])C([H])([H])N(C(=O)C([H])(N([H])C(=O)C([H])(N([H])C([H])([H])[H])C([H])([H])[H])C(C([H])([H])[H])(C([H])([H])[H])C([H])([H])[H])C([H])(C(=O)N([H])C1([H])c3c([H])c([H])c([H])c([H])c3C([H])([H])C([H])([H])C1([H])[H])C2([H])[H])C([H])(Sc1nc(N([H])[H])c([H])c(N([H])C(=O)N2C([H])([H])C([H])([H])C([H])([H])C([H])(n3nc(-c4c([H])c([H])c(Oc5c([H])c([H])c(F)c([H])c5F)c([H])c4[H])c(C(=O)N([H])[H])c3N([H])[H])C2([H])[H])n1)C([H])(C([H])([H])[H])C([H])([H])[H]

$$$$
5:0:0
     RDKit          3D

 92100  0  0  1  0  0  0  0  0999 V2000
  -29.3850  -22.8100   20.2110 C   0  0  0  0  0  3  0  0  0  0  0  0
  -30.1490  -23.0310   19.1420 F   0  0  0  0  0  0  0  0  0  0  0  0
  -28.3330  -17.7910   19.7610 C   0  0  0  0  0  3  0  0  0  0  0  0
  -29.5930  -18.0880   20.2170 C   0  0  0  0  0  0  0  0  0  0  0  0
  -28.7160  -20.2220   19.9590 C   0  0  0  0  0  0  0  0  0  0  0  0
  -29.7950  -19.4930   20.3180 N   0  0  0  0  0  0  0  0  0  0  0  0
  -28.5620  -21.6210   19.9540 N   0  0  0  0  0  0  0  0  0  0  0  0
  -27.3650  -19.2140   19.4610 S   0  0  0  0  0  0  0  0  0  0  0  0
  -27.6370  -21.8830   19.6360 H   0  0  0  0  0  0  0  0  0  0  0  0
  -30.6690  -17.0680   20.6010 C   0  0  0  0  0  2  0  0  0  0  0  0
  -30.9480  -14.5620   20.3030 C   0  0  0  0  0  0  0  0  0  0  0  0
  -30.6590  -12.3080   19.3260 C   0  0  0  0  0  2  0  0  0  0  0  0
  -29.7130  -12.4180   18.1140 C   0  0  0  0  0  2  0  0  0  0  0  0
  -28.2400  -12.3030   18.5560 C   0  0  0  0  0  2  0  0  0  0  0  0
  -27.9040  -13.2110   19.7710 C   0  0  0  0  0  3  0  0  0  0  0  0
  -28.9740  -13.0910   20.8810 C   0  0  0  0  0  2  0  0  0  0  0  0
  -30.2830  -13.3700   20.2750 N   0  0  0  0  0  0  0  0  0  0  0  0
  -32.0900  -14.6870   19.8570 O   0  0  0  0  0  0  0  0  0  0  0  0
  -30.2290  -15.6470   20.6770 N   0  0  0  0  0  0  0  0  0  0  0  0
  -29.2950  -15.4790   21.0150 H   0  0  0  0  0  0  0  0  0  0  0  0
  -25.5400  -13.8550   20.5520 C   0  0  0  0  0  0  0  0  0  0  0  0
  -24.4640  -13.1030   20.9410 C   0  0  0  0  0  0  0  0  0  0  0  0
  -24.8880  -11.7410   20.8650 C   0  0  0  0  0  0  0  0  0  0  0  0
  -26.5570  -12.9540   20.2770 N   0  0  0  0  0  0  0  0  0  0  0  0
  -26.1690  -11.6750   20.5230 N   0  0  0  0  0  0  0  0  0  0  0  0
  -24.1310  -10.4960   21.0420 C   0  0  0  0  0  0  0  0  0  0  0  0
  -24.5280   -9.5170   21.9800 C   0  0  0  0  0  3  0  0  0  0  0  0
  -23.7740   -8.3360   22.1430 C   0  0  0  0  0  3  0  0  0  0  0  0
  -22.6070   -8.1260   21.3710 C   0  0  0  0  0  0  0  0  0  0  0  0
  -22.2290   -9.0920   20.4210 C   0  0  0  0  0  3  0  0  0  0  0  0
  -22.9860  -10.2640   20.2550 C   0  0  0  0  0  3  0  0  0  0  0  0
  -21.8260   -6.9980   21.4450 O   0  0  0  0  0  0  0  0  0  0  0  0
  -21.7080   -6.2790   22.6080 C   0  0  0  0  0  0  0  0  0  0  0  0
  -21.1980   -6.8560   23.7920 C   0  0  0  0  0  3  0  0  0  0  0  0
  -21.0300   -6.0640   24.9460 C   0  0  0  0  0  3  0  0  0  0  0  0
  -21.3600   -4.6960   24.9150 C   0  0  0  0  0  0  0  0  0  0  0  0
  -21.8620   -4.1190   23.7350 C   0  0  0  0  0  3  0  0  0  0  0  0
  -22.0330   -4.9080   22.5850 C   0  0  0  0  0  0  0  0  0  0  0  0
  -22.4980   -4.3420   21.4450 F   0  0  0  0  0  0  0  0  0  0  0  0
  -21.1910   -3.9330   26.0190 F   0  0  0  0  0  0  0  0  0  0  0  0
  -23.0870  -13.6120   21.2540 C   0  0  0  0  0  0  0  0  0  0  0  0
  -22.3540  -12.9190   22.1190 N   0  0  0  0  0  0  0  0  0  0  0  0
  -22.6700  -14.6620   20.7680 O   0  0  0  0  0  0  0  0  0  0  0  0
  -22.7040  -12.0700   22.5400 H   0  0  0  0  0  0  0  0  0  0  0  0
  -21.4300  -13.2430   22.3640 H   0  0  0  0  0  0  0  0  0  0  0  0
  -25.7230  -15.2210   20.3790 N   0  0  0  0  0  0  0  0  0  0  0  0
  -24.9060  -15.8220   20.4160 H   0  0  0  0  0  0  0  0  0  0  0  0
  -26.4170  -15.5590   19.7260 H   0  0  0  0  0  0  0  0  0  0  0  0
  -27.2100  -23.8840   21.2020 C   0  0  0  0  0  1  0  0  0  0  0  0
  -28.6200  -24.1350   20.6370 C   0  0  0  0  0  3  0  0  0  0  0  0
  -28.6240  -25.3320   19.6190 C   0  0  0  0  0  2  0  0  0  0  0  0
  -28.4560  -26.6480   20.2230 O   0  0  0  0  0  0  0  0  0  0  0  0
  -24.5760  -31.8450   23.2260 C   0  0  0  0  0  0  0  0  0  0  0  0
  -27.2610  -27.3600   20.1830 C   0  0  0  0  0  0  0  0  0  0  0  0
  -23.3970  -30.4450   21.5660 C   0  0  0  0  0  3  0  0  0  0  0  0
  -24.8680  -28.9020   20.1640 C   0  0  0  0  0  0  0  0  0  0  0  0
  -25.9290  -30.7900   21.4110 C   0  0  0  0  0  2  0  0  0  0  0  0
  -26.0210  -29.4150   20.7690 C   0  0  0  0  0  0  0  0  0  0  0  0
  -27.2150  -28.6530   20.7730 C   0  0  0  0  0  3  0  0  0  0  0  0
  -26.0790  -26.8670   19.5840 C   0  0  0  0  0  3  0  0  0  0  0  0
  -24.8930  -27.6280   19.5730 C   0  0  0  0  0  3  0  0  0  0  0  0
  -23.6290  -29.7690   20.1890 C   0  0  0  0  0  2  0  0  0  0  0  0
  -24.6530  -31.0430   22.1260 N   0  0  0  0  0  0  0  0  0  0  0  0
  -23.4870  -32.1170   23.7490 O   0  0  0  0  0  0  0  0  0  0  0  0
  -22.7280  -29.4240   22.5160 C   0  0  0  0  0  0  0  0  0  0  0  0
  -21.4030  -29.2490   22.3750 N   0  0  0  0  0  0  0  0  0  0  0  0
  -23.4000  -28.7920   23.3360 O   0  0  0  0  0  0  0  0  0  0  0  0
  -20.9230  -29.8110   21.6870 H   0  0  0  0  0  0  0  0  0  0  0  0
  -18.0150  -28.0900   22.8570 C   0  0  0  0  0  0  0  0  0  0  0  0
  -20.5750  -28.3120   23.1330 C   0  0  0  0  0  3  0  0  0  0  0  0
  -20.6600  -26.8870   22.5380 C   0  0  0  0  0  2  0  0  0  0  0  0
  -19.5540  -26.5930   21.5190 C   0  0  0  0  0  2  0  0  0  0  0  0
  -18.1750  -26.7480   22.1640 C   0  0  0  0  0  2  0  0  0  0  0  0
  -19.1430  -28.8320   23.2980 C   0  0  0  0  0  0  0  0  0  0  0  0
  -18.9400  -30.0920   23.9040 C   0  0  0  0  0  3  0  0  0  0  0  0
  -17.6410  -30.6080   24.0740 C   0  0  0  0  0  3  0  0  0  0  0  0
  -16.5270  -29.8620   23.6470 C   0  0  0  0  0  3  0  0  0  0  0  0
  -16.7160  -28.6060   23.0450 C   0  0  0  0  0  3  0  0  0  0  0  0
  -25.8520  -32.4760   23.8680 C   0  0  0  0  0  3  0  0  0  0  0  0
  -26.3470  -31.7060   25.1540 C   0  0  1  0  0  0  0  0  0  0  0  0
  -25.2360  -31.4640   26.2010 C   0  0  0  0  0  1  0  0  0  0  0  0
  -26.9430  -30.3310   24.7710 C   0  0  0  0  0  1  0  0  0  0  0  0
  -27.4820  -32.5050   25.8370 C   0  0  0  0  0  1  0  0  0  0  0  0
  -25.5390  -33.8760   24.1890 N   0  0  0  0  0  0  0  0  0  0  0  0
  -25.8800  -34.9240   23.4290 C   0  0  0  0  0  0  0  0  0  0  0  0
  -26.5610  -34.8160   22.4050 O   0  0  0  0  0  0  0  0  0  0  0  0
  -24.9390  -34.0340   24.9850 H   0  0  0  0  0  0  0  0  0  0  0  0
  -24.1610  -36.7170   23.0390 C   0  0  0  0  0  1  0  0  0  0  0  0
  -25.3890  -36.3140   23.8730 C   0  0  0  0  0  3  0  0  0  0  0  0
  -27.5040  -37.2050   24.7460 C   0  0  0  0  0  1  0  0  0  0  0  0
  -26.4250  -37.3660   23.7750 N   0  0  0  0  0  0  0  0  0  0  0  0
  -26.0150  -38.2870   23.9060 H   0  0  0  0  0  0  0  0  0  0  0  0
  1  2  1  0
  1 50  1  0
  3  4  2  0
  4  6  1  0
  4 10  1  0
  5  6  2  0
  7  5  1  0
  7  1  1  0
  8  3  1  0
  8  5  1  0
  9  7  1  0
 10 19  1  0
 11 19  1  0
 12 17  1  0
 13 14  1  0
 13 12  1  0
 15 14  1  0
 15 24  1  0
 15 16  1  0
 17 11  1  0
 17 16  1  0
 18 11  2  0
 19 20  1  0
 21 22  2  0
 22 41  1  0
 23 22  1  0
 23 26  1  0
 24 25  1  0
 24 21  1  0
 25 23  2  0
 26 27  1  0
 27 28  2  0
 29 32  1  0
 29 28  1  0
 30 29  2  0
 31 30  1  0
 31 26  2  0
 32 33  1  0
 33 34  1  0
 34 35  2  0
 36 35  1  0
 36 40  1  0
 37 36  2  0
 38 33  2  0
 38 37  1  0
 39 38  1  0
 41 42  1  0
 42 45  1  0
 42 44  1  0
 43 41  2  0
 46 47  1  0
 46 21  1  0
 48 46  1  0
 50 49  1  0
 51 52  1  0
 51 50  1  0
 53 64  2  0
 54 52  1  0
 54 59  1  0
 55 63  1  0
 55 65  1  0
 56 62  1  0
 56 58  1  0
 57 63  1  0
 58 59  2  0
 58 57  1  0
 60 54  2  0
 61 60  1  0
 61 56  2  0
 62 55  1  0
 63 53  1  0
 65 67  2  0
 66 65  1  0
 68 66  1  0
 69 78  2  0
 69 74  1  0
 70 66  1  0
 70 74  1  0
 71 70  1  0
 72 73  1  0
 72 71  1  0
 73 69  1  0
 74 75  2  0
 75 76  1  0
 77 76  2  0
 78 77  1  0
 79 53  1  0
 79 84  1  0
 79 80  1  0
 80 83  1  1
 80 81  1  0
 82 80  1  0
 84 87  1  0
 85 89  1  0
 85 84  1  0
 86 85  2  0
 89 88  1  0
 91 89  1  0
 91 92  1  0
 91 90  1  0
M  ISO  4  11 100  19 100  51 101  52 101
M  END
>  <TORSDO>  (5) 
F 20

>  <SCORE>  (5) 
-13.683

>  <name>  (5) 
5

>  <ligand_id>  (5) 
5

>  <original_smiles>  (5) 
[H]c1sc(N([H])C([H])(F)C([H])(C([H])([H])[H])C([H])([H])Oc2c([H])c([H])c3c(c2[H])C([H])([H])N(C(=O)C([H])(N([H])C(=O)C([H])(N([H])C([H])([H])[H])C([H])([H])[H])C(C([H])([H])[H])(C([H])([H])[H])C([H])([H])[H])C([H])(C(=O)N([H])C2([H])c4c([H])c([H])c([H])c([H])c4C([H])([H])C([H])([H])C2([H])[H])C3([H])[H])nc1C([H])([H])N([H])C(=O)N1C([H])([H])C([H])([H])C([H])([H])C([H])(n2nc(-c3c([H])c([H])c(Oc4c([H])c([H])c(F)c([H])c4F)c([H])c3[H])c(C(=O)N([H])[H])c2N([H])[H])C1([H])[H]

>  <smiles>  (5) 
[H]c1sc(N([H])C([H])(F)C([H])(C([H])([H])[H])C([H])([H])Oc2c([H])c([H])c3c(c2[H])C([H])([H])N(C(=O)C([H])(N([H])C(=O)C([H])(N([H])C([H])([H])[H])C([H])([H])[H])C(C([H])([H])[H])(C([H])([H])[H])C([H])([H])[H])C([H])(C(=O)N([H])C2([H])c4c([H])c([H])c([H])c([H])c4C([H])([H])C([H])([H])C2([H])[H])C3([H])[H])nc1C([H])([H])N([H])C(=O)N1C([H])([H])C([H])([H])C([H])([H])C([H])(n2nc(-c3c([H])c([H])c(Oc4c([H])c([H])c(F)c([H])c4F)c([H])c3[H])c(C(=O)N([H])[H])c2N([H])[H])C1([H])[H]

$$$$
6:0:0
     RDKit          3D

 93101  0  0  1  0  0  0  0  0999 V2000
  -30.5590  -14.8290   20.4440 C   0  0  0  0  0  0  0  0  0  0  0  0
  -30.3850  -12.5510   19.4180 C   0  0  0  0  0  2  0  0  0  0  0  0
  -29.4510  -12.6040   18.1870 C   0  0  0  0  0  2  0  0  0  0  0  0
  -27.9800  -12.4280   18.6050 C   0  0  0  0  0  2  0  0  0  0  0  0
  -27.5980  -13.3170   19.8160 C   0  0  0  0  0  3  0  0  0  0  0  0
  -28.6390  -13.2370   20.9520 C   0  0  0  0  0  2  0  0  0  0  0  0
  -29.9400  -13.5970   20.3750 N   0  0  0  0  0  0  0  0  0  0  0  0
  -31.7570  -14.8990   20.1450 O   0  0  0  0  0  0  0  0  0  0  0  0
  -30.0240  -17.4200   20.4490 C   0  0  0  0  0  0  0  0  0  0  0  0
  -29.5590  -19.6970   20.3320 C   0  0  0  0  0  3  0  0  0  0  0  0
  -29.1690  -22.3010   20.0980 C   0  0  0  0  0  0  0  0  0  0  0  0
  -29.0970  -18.4380   20.6510 N   0  0  0  0  0  0  0  0  0  0  0  0
  -31.2240  -17.8410   20.0040 N   0  0  0  0  0  2  0  0  0  0  0  0
  -29.7740  -15.9640   20.6740 N   0  0  0  0  0  0  0  0  0  0  0  0
  -28.8080  -20.9910   20.4340 N   0  0  0  0  0  0  0  0  0  0  0  0
  -30.2750  -22.5140   19.6010 O   0  0  0  0  0  0  0  0  0  0  0  0
  -31.2150  -19.5380   19.7900 S   0  0  0  0  0  0  0  0  0  0  0  0
  -28.8380  -15.7620   20.9840 H   0  0  0  0  0  0  0  0  0  0  0  0
  -27.8780  -20.9010   20.8190 H   0  0  0  0  0  0  0  0  0  0  0  0
  -25.2050  -13.9180   20.4980 C   0  0  0  0  0  0  0  0  0  0  0  0
  -24.1290  -13.1510   20.8500 C   0  0  0  0  0  0  0  0  0  0  0  0
  -24.5900  -11.7980   20.8470 C   0  0  0  0  0  0  0  0  0  0  0  0
  -26.2490  -13.0330   20.2910 N   0  0  0  0  0  0  0  0  0  0  0  0
  -25.8860  -11.7540   20.5660 N   0  0  0  0  0  0  0  0  0  0  0  0
  -23.8580  -10.5390   21.0340 C   0  0  0  0  0  0  0  0  0  0  0  0
  -24.2790   -9.5740   21.9760 C   0  0  0  0  0  3  0  0  0  0  0  0
  -23.5450   -8.3820   22.1540 C   0  0  0  0  0  3  0  0  0  0  0  0
  -22.3760   -8.1480   21.3910 C   0  0  0  0  0  0  0  0  0  0  0  0
  -21.9750   -9.1010   20.4390 C   0  0  0  0  0  3  0  0  0  0  0  0
  -22.7090  -10.2850   20.2590 C   0  0  0  0  0  3  0  0  0  0  0  0
  -21.6110   -7.0090   21.4790 O   0  0  0  0  0  0  0  0  0  0  0  0
  -21.5550   -6.2680   22.6320 C   0  0  0  0  0  0  0  0  0  0  0  0
  -21.1390   -6.8290   23.8600 C   0  0  0  0  0  3  0  0  0  0  0  0
  -21.0290   -6.0150   25.0040 C   0  0  0  0  0  3  0  0  0  0  0  0
  -21.3230   -4.6400   24.9230 C   0  0  0  0  0  0  0  0  0  0  0  0
  -21.7320   -4.0800   23.7010 C   0  0  0  0  0  3  0  0  0  0  0  0
  -21.8450   -4.8910   22.5580 C   0  0  0  0  0  0  0  0  0  0  0  0
  -22.2170   -4.3400   21.3780 F   0  0  0  0  0  0  0  0  0  0  0  0
  -21.2110   -3.8570   26.0210 F   0  0  0  0  0  0  0  0  0  0  0  0
  -22.7270  -13.6360   21.0800 C   0  0  0  0  0  0  0  0  0  0  0  0
  -21.9790  -12.9570   21.9420 N   0  0  0  0  0  0  0  0  0  0  0  0
  -22.3030  -14.6500   20.5290 O   0  0  0  0  0  0  0  0  0  0  0  0
  -22.3350  -12.1390   22.4130 H   0  0  0  0  0  0  0  0  0  0  0  0
  -21.0350  -13.2630   22.1330 H   0  0  0  0  0  0  0  0  0  0  0  0
  -25.3760  -15.2880   20.3160 N   0  0  0  0  0  0  0  0  0  0  0  0
  -24.6110  -15.9460   20.4240 H   0  0  0  0  0  0  0  0  0  0  0  0
  -26.2410  -15.7410   20.0530 H   0  0  0  0  0  0  0  0  0  0  0  0
  -26.7480  -23.2340   20.0590 C   0  0  0  0  0  1  0  0  0  0  0  0
  -28.2220  -23.6030   20.3480 C   0  0  0  0  0  3  0  0  0  0  0  0
  -28.6280  -25.0650   19.6840 C   0  0  0  0  0  3  0  0  0  0  0  0
  -29.8670  -25.3590   17.4190 C   0  0  0  0  0  1  0  0  0  0  0  0
  -28.5290  -25.1040   18.1290 C   0  0  0  0  0  2  0  0  0  0  0  0
  -28.4310  -26.4460   20.2910 O   0  0  0  0  0  0  0  0  0  0  0  0
  -24.6270  -31.9030   23.2520 C   0  0  0  0  0  0  0  0  0  0  0  0
  -27.2910  -27.2880   20.2260 C   0  0  0  0  0  0  0  0  0  0  0  0
  -23.4490  -30.4830   21.6170 C   0  0  0  0  0  3  0  0  0  0  0  0
  -24.9190  -28.9220   20.2110 C   0  0  0  0  0  0  0  0  0  0  0  0
  -25.9910  -30.8080   21.4440 C   0  0  0  0  0  2  0  0  0  0  0  0
  -26.0850  -29.4170   20.8050 C   0  0  0  0  0  0  0  0  0  0  0  0
  -27.2690  -28.6090   20.8040 C   0  0  0  0  0  3  0  0  0  0  0  0
  -26.0910  -26.8520   19.6290 C   0  0  0  0  0  3  0  0  0  0  0  0
  -24.9240  -27.6460   19.6230 C   0  0  0  0  0  3  0  0  0  0  0  0
  -23.6780  -29.7990   20.2440 C   0  0  0  0  0  2  0  0  0  0  0  0
  -24.7100  -31.0820   22.1620 N   0  0  0  0  0  0  0  0  0  0  0  0
  -23.5360  -32.1790   23.7720 O   0  0  0  0  0  0  0  0  0  0  0  0
  -22.7870  -29.4690   22.5790 C   0  0  0  0  0  0  0  0  0  0  0  0
  -21.4640  -29.2810   22.4450 N   0  0  0  0  0  0  0  0  0  0  0  0
  -23.4660  -28.8530   23.4040 O   0  0  0  0  0  0  0  0  0  0  0  0
  -20.9740  -29.8240   21.7480 H   0  0  0  0  0  0  0  0  0  0  0  0
  -18.0920  -28.0710   22.9340 C   0  0  0  0  0  0  0  0  0  0  0  0
  -20.6470  -28.3420   23.2160 C   0  0  0  0  0  3  0  0  0  0  0  0
  -20.7590  -26.9080   22.6430 C   0  0  0  0  0  2  0  0  0  0  0  0
  -19.6640  -26.5790   21.6250 C   0  0  0  0  0  2  0  0  0  0  0  0
  -18.2780  -26.7200   22.2640 C   0  0  0  0  0  2  0  0  0  0  0  0
  -19.2050  -28.8400   23.3660 C   0  0  0  0  0  0  0  0  0  0  0  0
  -18.9780  -30.1030   23.9520 C   0  0  0  0  0  3  0  0  0  0  0  0
  -17.6710  -30.5990   24.1130 C   0  0  0  0  0  3  0  0  0  0  0  0
  -16.5720  -29.8270   23.6980 C   0  0  0  0  0  3  0  0  0  0  0  0
  -16.7820  -28.5650   23.1110 C   0  0  0  0  0  3  0  0  0  0  0  0
  -25.8980  -32.5540   23.8810 C   0  0  0  0  0  3  0  0  0  0  0  0
  -25.5710  -33.9520   24.1980 N   0  0  0  0  0  0  0  0  0  0  0  0
  -25.9030  -35.0020   23.4360 C   0  0  0  0  0  0  0  0  0  0  0  0
  -26.5850  -34.8970   22.4130 O   0  0  0  0  0  0  0  0  0  0  0  0
  -24.9630  -34.1050   24.9890 H   0  0  0  0  0  0  0  0  0  0  0  0
  -24.1600  -36.7740   23.0560 C   0  0  0  0  0  1  0  0  0  0  0  0
  -25.3980  -36.3890   23.8810 C   0  0  0  0  0  3  0  0  0  0  0  0
  -27.5200  -37.2970   24.7190 C   0  0  0  0  0  1  0  0  0  0  0  0
  -26.4190  -37.4520   23.7710 N   0  0  0  0  0  0  0  0  0  0  0  0
  -26.0020  -38.3670   23.9220 H   0  0  0  0  0  0  0  0  0  0  0  0
  -26.4070  -31.7970   25.1710 C   0  0  1  0  0  0  0  0  0  0  0  0
  -25.3040  -31.5630   26.2290 C   0  0  0  0  0  1  0  0  0  0  0  0
  -27.0010  -30.4200   24.7970 C   0  0  0  0  0  1  0  0  0  0  0  0
  -27.5470  -32.6030   25.8350 C   0  0  0  0  0  1  0  0  0  0  0  0
  1 14  1  0
  2  7  1  0
  3  4  1  0
  3  2  1  0
  5  4  1  0
  5 23  1  0
  5  6  1  0
  7  1  1  0
  7  6  1  0
  8  1  2  0
  9 12  2  0
  9 14  1  0
 10 15  1  0
 10 12  1  0
 11 49  1  0
 11 15  1  0
 13  9  1  0
 14 18  1  0
 15 19  1  0
 16 11  2  0
 17 13  1  0
 17 10  1  0
 20 21  2  0
 21 40  1  0
 22 21  1  0
 22 25  1  0
 23 20  1  0
 23 24  1  0
 24 22  2  0
 25 26  1  0
 26 27  2  0
 28 31  1  0
 28 27  1  0
 29 28  2  0
 30 29  1  0
 30 25  2  0
 31 32  1  0
 32 33  1  0
 33 34  2  0
 35 34  1  0
 35 39  1  0
 36 35  2  0
 37 32  2  0
 37 36  1  0
 38 37  1  0
 40 41  1  0
 41 44  1  0
 41 43  1  0
 42 40  2  0
 45 46  1  0
 45 20  1  0
 47 45  1  0
 49 48  1  0
 50 52  1  0
 50 53  1  0
 50 49  1  0
 51 52  1  0
 54 65  2  0
 55 53  1  0
 55 60  1  0
 56 64  1  0
 56 66  1  0
 57 63  1  0
 57 59  1  0
 58 64  1  0
 59 58  1  0
 60 59  2  0
 61 55  2  0
 62 61  1  0
 62 57  2  0
 63 56  1  0
 64 54  1  0
 66 68  2  0
 67 66  1  0
 69 67  1  0
 70 79  2  0
 70 75  1  0
 71 67  1  0
 71 75  1  0
 72 71  1  0
 73 74  1  0
 73 72  1  0
 74 70  1  0
 75 76  2  0
 76 77  1  0
 78 77  2  0
 79 78  1  0
 80 54  1  0
 80 81  1  0
 80 90  1  0
 81 84  1  0
 82 86  1  0
 82 81  1  0
 83 82  2  0
 86 85  1  0
 88 86  1  0
 88 89  1  0
 88 87  1  0
 90 93  1  1
 90 91  1  0
 92 90  1  0
M  ISO  4   1 100  14 100  50 101  53 101
M  END
>  <TORSDO>  (6) 
F 18

>  <SCORE>  (6) 
-14.720

>  <name>  (6) 
6

>  <ligand_id>  (6) 
6

>  <original_smiles>  (6) 
[H]c1c([H])c([H])c2c(c1[H])C([H])([H])C([H])([H])C([H])([H])C2([H])N([H])C(=O)C1([H])N(C(=O)C([H])(N([H])C(=O)C([H])(N([H])C([H])([H])[H])C([H])([H])[H])C(C([H])([H])[H])(C([H])([H])[H])C([H])([H])[H])C([H])([H])c2c([H])c(OC([H])(C([H])([H])C([H])([H])[H])C([H])(C(=O)N([H])c3nc(N([H])C(=O)N4C([H])([H])C([H])([H])C([H])([H])C([H])(n5nc(-c6c([H])c([H])c(Oc7c([H])c([H])c(F)c([H])c7F)c([H])c6[H])c(C(=O)N([H])[H])c5N([H])[H])C4([H])[H])ns3)C([H])([H])[H])c([H])c([H])c2C1([H])[H]

>  <smiles>  (6) 
[H]c1c([H])c([H])c2c(c1[H])C([H])([H])C([H])([H])C([H])([H])C2([H])N([H])C(=O)C1([H])N(C(=O)C([H])(N([H])C(=O)C([H])(N([H])C([H])([H])[H])C([H])([H])[H])C(C([H])([H])[H])(C([H])([H])[H])C([H])([H])[H])C([H])([H])c2c([H])c(OC([H])(C([H])([H])C([H])([H])[H])C([H])(C(=O)N([H])c3nc(N([H])C(=O)N4C([H])([H])C([H])([H])C([H])([H])C([H])(n5nc(-c6c([H])c([H])c(Oc7c([H])c([H])c(F)c([H])c7F)c([H])c6[H])c(C(=O)N([H])[H])c5N([H])[H])C4([H])[H])ns3)C([H])([H])[H])c([H])c([H])c2C1([H])[H]

$$$$
7:0:0
     RDKit          3D

 93101  0  0  1  0  0  0  0  0999 V2000
  -30.4720  -18.7110   21.7930 C   0  0  0  0  0  0  0  0  0  0  0  0
  -30.4850  -18.2950   20.4780 C   0  0  0  0  0  0  0  0  0  0  0  0
  -29.9930  -20.7150   20.7900 C   0  0  0  0  0  0  0  0  0  0  0  0
  -29.5240  -22.9320   19.7310 C   0  0  0  0  0  0  0  0  0  0  0  0
  -30.8050  -17.8880   23.0000 C   0  0  0  0  0  1  0  0  0  0  0  0
  -30.1970  -20.0830   21.9510 N   0  0  0  0  0  0  0  0  0  0  0  0
  -29.8660  -22.1350   20.7670 N   0  0  0  0  0  0  0  0  0  0  0  0
  -29.0860  -22.4980   18.6620 O   0  0  0  0  0  0  0  0  0  0  0  0
  -30.0500  -19.6200   19.4080 S   0  0  0  0  0  0  0  0  0  0  0  0
  -30.1190  -22.6020   21.6240 H   0  0  0  0  0  0  0  0  0  0  0  0
  -30.9680  -17.0010   19.8630 C   0  0  0  0  0  2  0  0  0  0  0  0
  -31.0570  -14.5610   19.9680 C   0  0  0  0  0  0  0  0  0  0  0  0
  -30.6340  -12.3570   18.9670 C   0  0  0  0  0  2  0  0  0  0  0  0
  -29.6370  -12.5230   17.8010 C   0  0  0  0  0  2  0  0  0  0  0  0
  -28.1920  -12.4140   18.3200 C   0  0  0  0  0  2  0  0  0  0  0  0
  -27.9280  -13.3090   19.5620 C   0  0  0  0  0  3  0  0  0  0  0  0
  -29.0470  -13.1650   20.6190 C   0  0  0  0  0  2  0  0  0  0  0  0
  -30.3330  -13.4090   19.9530 N   0  0  0  0  0  0  0  0  0  0  0  0
  -32.1830  -14.6250   19.4700 O   0  0  0  0  0  0  0  0  0  0  0  0
  -30.4240  -15.7030   20.3190 N   0  0  0  0  0  0  0  0  0  0  0  0
  -29.4800  -15.6520   20.6700 H   0  0  0  0  0  0  0  0  0  0  0  0
  -25.6130  -13.9520   20.4750 C   0  0  0  0  0  0  0  0  0  0  0  0
  -24.5500  -13.1970   20.8900 C   0  0  0  0  0  0  0  0  0  0  0  0
  -24.9620  -11.8340   20.7710 C   0  0  0  0  0  0  0  0  0  0  0  0
  -26.6080  -13.0510   20.1310 N   0  0  0  0  0  0  0  0  0  0  0  0
  -26.2250  -11.7700   20.3670 N   0  0  0  0  0  0  0  0  0  0  0  0
  -24.2090  -10.5880   20.9610 C   0  0  0  0  0  0  0  0  0  0  0  0
  -24.6350   -9.5990   21.8760 C   0  0  0  0  0  3  0  0  0  0  0  0
  -23.8830   -8.4180   22.0550 C   0  0  0  0  0  3  0  0  0  0  0  0
  -22.6910   -8.2170   21.3190 C   0  0  0  0  0  0  0  0  0  0  0  0
  -22.2830   -9.1940   20.3940 C   0  0  0  0  0  3  0  0  0  0  0  0
  -23.0350  -10.3670   20.2130 C   0  0  0  0  0  3  0  0  0  0  0  0
  -21.9100   -7.0900   21.4100 O   0  0  0  0  0  0  0  0  0  0  0  0
  -21.8230   -6.3660   22.5720 C   0  0  0  0  0  0  0  0  0  0  0  0
  -21.3130   -6.9260   23.7630 C   0  0  0  0  0  3  0  0  0  0  0  0
  -21.1760   -6.1270   24.9160 C   0  0  0  0  0  3  0  0  0  0  0  0
  -21.5380   -4.7670   24.8770 C   0  0  0  0  0  0  0  0  0  0  0  0
  -22.0420   -4.2050   23.6900 C   0  0  0  0  0  3  0  0  0  0  0  0
  -22.1800   -5.0020   22.5400 C   0  0  0  0  0  0  0  0  0  0  0  0
  -22.6450   -4.4510   21.3930 F   0  0  0  0  0  0  0  0  0  0  0  0
  -21.4000   -3.9970   25.9810 F   0  0  0  0  0  0  0  0  0  0  0  0
  -23.1930  -13.7050   21.2830 C   0  0  0  0  0  0  0  0  0  0  0  0
  -22.5100  -13.0010   22.1800 N   0  0  0  0  0  0  0  0  0  0  0  0
  -22.7500  -14.7610   20.8320 O   0  0  0  0  0  0  0  0  0  0  0  0
  -22.8810  -12.1450   22.5650 H   0  0  0  0  0  0  0  0  0  0  0  0
  -21.6030  -13.3230   22.4860 H   0  0  0  0  0  0  0  0  0  0  0  0
  -25.8110  -15.3230   20.3400 N   0  0  0  0  0  0  0  0  0  0  0  0
  -25.0760  -15.9970   20.5290 H   0  0  0  0  0  0  0  0  0  0  0  0
  -26.6450  -15.7480   19.9560 H   0  0  0  0  0  0  0  0  0  0  0  0
  -29.6840  -24.4640   19.8970 C   0  0  0  0  0  2  0  0  0  0  0  0
  -27.7970  -24.9640   21.5180 C   0  0  0  0  0  1  0  0  0  0  0  0
  -28.3520  -25.2350   20.0980 C   0  0  0  0  0  3  0  0  0  0  0  0
  -28.5140  -26.6650   19.8770 O   0  0  0  0  0  0  0  0  0  0  0  0
  -24.6600  -31.6760   23.1530 C   0  0  0  0  0  0  0  0  0  0  0  0
  -27.3560  -27.4280   19.8390 C   0  0  0  0  0  0  0  0  0  0  0  0
  -23.4680  -30.3310   21.4560 C   0  0  0  0  0  3  0  0  0  0  0  0
  -24.9390  -28.9070   19.9360 C   0  0  0  0  0  0  0  0  0  0  0  0
  -25.9860  -30.7500   21.2550 C   0  0  0  0  0  2  0  0  0  0  0  0
  -26.0950  -29.4160   20.5420 C   0  0  0  0  0  0  0  0  0  0  0  0
  -27.3080  -28.6870   20.4870 C   0  0  0  0  0  3  0  0  0  0  0  0
  -26.1840  -26.9580   19.2010 C   0  0  0  0  0  3  0  0  0  0  0  0
  -24.9810  -27.6780   19.2600 C   0  0  0  0  0  3  0  0  0  0  0  0
  -23.6770  -29.7330   20.0410 C   0  0  0  0  0  2  0  0  0  0  0  0
  -24.7230  -30.9310   22.0120 N   0  0  0  0  0  0  0  0  0  0  0  0
  -23.5770  -31.8980   23.7150 O   0  0  0  0  0  0  0  0  0  0  0  0
  -22.8510  -29.2450   22.3700 C   0  0  0  0  0  0  0  0  0  0  0  0
  -21.5380  -29.0110   22.2170 N   0  0  0  0  0  0  0  0  0  0  0  0
  -23.5510  -28.6220   23.1720 O   0  0  0  0  0  0  0  0  0  0  0  0
  -21.0330  -29.5720   21.5450 H   0  0  0  0  0  0  0  0  0  0  0  0
  -18.2150  -27.6470   22.6160 C   0  0  0  0  0  0  0  0  0  0  0  0
  -20.7530  -28.0110   22.9420 C   0  0  0  0  0  3  0  0  0  0  0  0
  -20.9290  -26.6060   22.3240 C   0  0  0  0  0  2  0  0  0  0  0  0
  -19.8600  -26.2670   21.2800 C   0  0  0  0  0  2  0  0  0  0  0  0
  -18.4630  -26.3280   21.9020 C   0  0  0  0  0  2  0  0  0  0  0  0
  -19.2890  -28.4440   23.0900 C   0  0  0  0  0  0  0  0  0  0  0  0
  -19.0040  -29.6770   23.7160 C   0  0  0  0  0  3  0  0  0  0  0  0
  -17.6750  -30.1150   23.8720 C   0  0  0  0  0  3  0  0  0  0  0  0
  -16.6140  -29.3150   23.4140 C   0  0  0  0  0  3  0  0  0  0  0  0
  -16.8840  -28.0820   22.7930 C   0  0  0  0  0  3  0  0  0  0  0  0
  -25.9360  -32.3070   23.7890 C   0  0  0  0  0  3  0  0  0  0  0  0
  -26.4550  -31.5170   25.0520 C   0  0  1  0  0  0  0  0  0  0  0  0
  -25.3570  -31.2430   26.1080 C   0  0  0  0  0  1  0  0  0  0  0  0
  -27.0580  -30.1550   24.6350 C   0  0  0  0  0  1  0  0  0  0  0  0
  -27.5910  -32.3130   25.7380 C   0  0  0  0  0  1  0  0  0  0  0  0
  -25.6160  -33.6960   24.1380 N   0  0  0  0  0  0  0  0  0  0  0  0
  -25.9450  -34.7620   23.3960 C   0  0  0  0  0  0  0  0  0  0  0  0
  -26.6210  -34.6790   22.3660 O   0  0  0  0  0  0  0  0  0  0  0  0
  -25.0130  -33.8340   24.9360 H   0  0  0  0  0  0  0  0  0  0  0  0
  -24.2000  -36.5430   23.0620 C   0  0  0  0  0  1  0  0  0  0  0  0
  -25.4450  -36.1390   23.8700 C   0  0  0  0  0  3  0  0  0  0  0  0
  -27.5590  -37.0450   24.7300 C   0  0  0  0  0  1  0  0  0  0  0  0
  -26.4680  -37.2030   23.7710 N   0  0  0  0  0  0  0  0  0  0  0  0
  -26.0510  -38.1190   23.9130 H   0  0  0  0  0  0  0  0  0  0  0  0
  1  6  1  0
  1  5  1  0
  2  1  2  0
  3  6  2  0
  4 50  1  0
  4  7  1  0
  7  3  1  0
  7 10  1  0
  8  4  2  0
  9  2  1  0
  9  3  1  0
 11 20  1  0
 11  2  1  0
 12 20  1  0
 13 18  1  0
 14 15  1  0
 14 13  1  0
 16 15  1  0
 16 25  1  0
 16 17  1  0
 18 12  1  0
 18 17  1  0
 19 12  2  0
 20 21  1  0
 22 23  2  0
 23 42  1  0
 24 23  1  0
 24 27  1  0
 25 26  1  0
 25 22  1  0
 26 24  2  0
 27 28  1  0
 28 29  2  0
 30 33  1  0
 30 29  1  0
 31 30  2  0
 32 31  1  0
 32 27  2  0
 33 34  1  0
 34 35  1  0
 35 36  2  0
 37 36  1  0
 37 41  1  0
 38 37  2  0
 39 34  2  0
 39 38  1  0
 40 39  1  0
 42 43  1  0
 43 46  1  0
 43 45  1  0
 44 42  2  0
 47 22  1  0
 47 48  1  0
 49 47  1  0
 50 52  1  0
 52 51  1  0
 53 52  1  0
 54 65  2  0
 55 53  1  0
 55 60  1  0
 56 64  1  0
 56 66  1  0
 57 63  1  0
 57 59  1  0
 58 64  1  0
 59 58  1  0
 60 59  2  0
 61 62  1  0
 61 55  2  0
 62 57  2  0
 63 56  1  0
 64 54  1  0
 66 68  2  0
 67 66  1  0
 69 67  1  0
 70 79  2  0
 70 75  1  0
 71 67  1  0
 71 75  1  0
 72 71  1  0
 73 74  1  0
 73 72  1  0
 74 70  1  0
 75 76  2  0
 76 77  1  0
 78 77  2  0
 79 78  1  0
 80 54  1  0
 80 85  1  0
 80 81  1  0
 81 84  1  1
 81 82  1  0
 83 81  1  0
 85 88  1  0
 86 90  1  0
 86 85  1  0
 87 86  2  0
 90 89  1  0
 92 90  1  0
 92 93  1  0
 92 91  1  0
M  ISO  4  12 100  20 100  52 101  53 101
M  END
>  <TORSDO>  (7) 
F 19

>  <SCORE>  (7) 
-13.093

>  <name>  (7) 
7

>  <ligand_id>  (7) 
7

>  <original_smiles>  (7) 
[H]c1c([H])c([H])c2c(c1[H])C([H])([H])C([H])([H])C([H])([H])C2([H])N([H])C(=O)C1([H])N(C(=O)C([H])(N([H])C(=O)C([H])(N([H])C([H])([H])[H])C([H])([H])[H])C(C([H])([H])[H])(C([H])([H])[H])C([H])([H])[H])C([H])([H])c2c([H])c(OC([H])(C([H])([H])[H])C([H])([H])C(=O)N([H])c3nc(C([H])([H])[H])c(C([H])([H])N([H])C(=O)N4C([H])([H])C([H])([H])C([H])([H])C([H])(n5nc(-c6c([H])c([H])c(Oc7c([H])c([H])c(F)c([H])c7F)c([H])c6[H])c(C(=O)N([H])[H])c5N([H])[H])C4([H])[H])s3)c([H])c([H])c2C1([H])[H]

>  <smiles>  (7) 
[H]c1c([H])c([H])c2c(c1[H])C([H])([H])C([H])([H])C([H])([H])C2([H])N([H])C(=O)C1([H])N(C(=O)C([H])(N([H])C(=O)C([H])(N([H])C([H])([H])[H])C([H])([H])[H])C(C([H])([H])[H])(C([H])([H])[H])C([H])([H])[H])C([H])([H])c2c([H])c(OC([H])(C([H])([H])[H])C([H])([H])C(=O)N([H])c3nc(C([H])([H])[H])c(C([H])([H])N([H])C(=O)N4C([H])([H])C([H])([H])C([H])([H])C([H])(n5nc(-c6c([H])c([H])c(Oc7c([H])c([H])c(F)c([H])c7F)c([H])c6[H])c(C(=O)N([H])[H])c5N([H])[H])C4([H])[H])s3)c([H])c([H])c2C1([H])[H]

$$$$
8:0:0
     RDKit          3D

 93101  0  0  1  0  0  0  0  0999 V2000
  -31.0490  -19.9520   19.6530 C   0  0  0  0  0  3  0  0  0  0  0  0
  -29.8880  -19.6640   20.3310 C   0  0  0  0  0  0  0  0  0  0  0  0
  -29.7660  -21.9880   20.2060 C   0  0  0  0  0  0  0  0  0  0  0  0
  -29.1610  -20.8530   20.6270 N   0  0  0  0  0  0  0  0  0  0  0  0
  -29.3480  -23.3270   20.3580 N   0  0  0  0  0  0  0  0  0  0  0  0
  -31.2780  -21.6610   19.3780 S   0  0  0  0  0  0  0  0  0  0  0  0
  -30.0330  -23.9640   19.9650 H   0  0  0  0  0  0  0  0  0  0  0  0
  -27.8390  -23.4990   22.2690 C   0  0  0  0  0  1  0  0  0  0  0  0
  -26.9920  -23.8180   19.9620 C   0  0  0  0  0  1  0  0  0  0  0  0
  -28.1920  -24.0770   20.8820 C   0  0  2  0  0  0  0  0  0  0  0  0
  -29.8780  -25.9510   21.5890 C   0  0  0  0  0  1  0  0  0  0  0  0
  -28.4670  -25.6480   21.0630 C   0  0  0  0  0  3  0  0  0  0  0  0
  -28.2730  -26.5600   19.9450 O   0  0  0  0  0  0  0  0  0  0  0  0
  -24.6190  -31.8680   23.1730 C   0  0  0  0  0  0  0  0  0  0  0  0
  -27.1620  -27.3910   20.0060 C   0  0  0  0  0  0  0  0  0  0  0  0
  -23.3770  -30.4890   21.5410 C   0  0  0  0  0  3  0  0  0  0  0  0
  -24.7970  -28.9600   20.0710 C   0  0  0  0  0  0  0  0  0  0  0  0
  -25.9070  -30.8190   21.3090 C   0  0  0  0  0  2  0  0  0  0  0  0
  -25.9720  -29.4500   20.6560 C   0  0  0  0  0  0  0  0  0  0  0  0
  -27.1600  -28.6690   20.6300 C   0  0  0  0  0  3  0  0  0  0  0  0
  -25.9770  -26.9510   19.3860 C   0  0  0  0  0  3  0  0  0  0  0  0
  -24.7960  -27.7100   19.4330 C   0  0  0  0  0  3  0  0  0  0  0  0
  -23.5600  -29.8290   20.1500 C   0  0  0  0  0  2  0  0  0  0  0  0
  -24.6530  -31.0740   22.0640 N   0  0  0  0  0  0  0  0  0  0  0  0
  -23.5490  -32.1410   23.7340 O   0  0  0  0  0  0  0  0  0  0  0  0
  -22.7370  -29.4610   22.5010 C   0  0  0  0  0  0  0  0  0  0  0  0
  -21.4090  -29.2860   22.3980 N   0  0  0  0  0  0  0  0  0  0  0  0
  -23.4300  -28.8250   23.2990 O   0  0  0  0  0  0  0  0  0  0  0  0
  -20.9100  -29.8500   21.7250 H   0  0  0  0  0  0  0  0  0  0  0  0
  -18.0410  -28.0880   22.9400 C   0  0  0  0  0  0  0  0  0  0  0  0
  -20.6010  -28.3440   23.1730 C   0  0  0  0  0  3  0  0  0  0  0  0
  -20.6950  -26.9170   22.5840 C   0  0  0  0  0  2  0  0  0  0  0  0
  -19.5760  -26.6020   21.5860 C   0  0  0  0  0  2  0  0  0  0  0  0
  -18.2050  -26.7430   22.2540 C   0  0  0  0  0  2  0  0  0  0  0  0
  -19.1660  -28.8470   23.3580 C   0  0  0  0  0  0  0  0  0  0  0  0
  -18.9580  -30.1060   23.9610 C   0  0  0  0  0  3  0  0  0  0  0  0
  -17.6560  -30.6080   24.1500 C   0  0  0  0  0  3  0  0  0  0  0  0
  -16.5450  -29.8460   23.7490 C   0  0  0  0  0  3  0  0  0  0  0  0
  -16.7380  -28.5890   23.1490 C   0  0  0  0  0  3  0  0  0  0  0  0
  -25.9180  -32.4880   23.7750 C   0  0  0  0  0  3  0  0  0  0  0  0
  -26.4690  -31.6890   25.0190 C   0  0  1  0  0  0  0  0  0  0  0  0
  -25.4090  -31.4430   26.1180 C   0  0  0  0  0  1  0  0  0  0  0  0
  -27.0270  -30.3140   24.5830 C   0  0  0  0  0  1  0  0  0  0  0  0
  -27.6470  -32.4610   25.6570 C   0  0  0  0  0  1  0  0  0  0  0  0
  -25.6160  -33.8780   24.1420 N   0  0  0  0  0  0  0  0  0  0  0  0
  -25.9240  -34.9470   23.3950 C   0  0  0  0  0  0  0  0  0  0  0  0
  -26.5650  -34.8660   22.3440 O   0  0  0  0  0  0  0  0  0  0  0  0
  -25.0450  -34.0150   24.9640 H   0  0  0  0  0  0  0  0  0  0  0  0
  -24.1820  -36.7400   23.1280 C   0  0  0  0  0  1  0  0  0  0  0  0
  -25.4470  -36.3230   23.8950 C   0  0  0  0  0  3  0  0  0  0  0  0
  -27.6030  -37.1970   24.6800 C   0  0  0  0  0  1  0  0  0  0  0  0
  -26.4720  -37.3820   23.7740 N   0  0  0  0  0  0  0  0  0  0  0  0
  -26.0700  -38.2980   23.9530 H   0  0  0  0  0  0  0  0  0  0  0  0
  -29.3860  -18.2570   20.7190 C   0  0  0  0  0  3  0  0  0  0  0  0
  -30.4080  -17.0760   20.5110 C   0  0  0  0  0  3  0  0  0  0  0  0
  -30.6470  -14.5720   20.4400 C   0  0  0  0  0  0  0  0  0  0  0  0
  -30.3640  -12.3670   19.3620 C   0  0  0  0  0  2  0  0  0  0  0  0
  -29.4450  -12.5390   18.1340 C   0  0  0  0  0  2  0  0  0  0  0  0
  -27.9660  -12.3990   18.5430 C   0  0  0  0  0  2  0  0  0  0  0  0
  -27.6030  -13.2620   19.7790 C   0  0  0  0  0  3  0  0  0  0  0  0
  -28.6440  -13.1000   20.9130 C   0  0  0  0  0  2  0  0  0  0  0  0
  -29.9700  -13.3910   20.3500 N   0  0  0  0  0  0  0  0  0  0  0  0
  -31.8090  -14.6870   20.0490 O   0  0  0  0  0  0  0  0  0  0  0  0
  -29.9290  -15.6820   20.7590 N   0  0  0  0  0  0  0  0  0  0  0  0
  -28.9750  -15.5460   21.0580 H   0  0  0  0  0  0  0  0  0  0  0  0
  -25.1950  -13.8730   20.4440 C   0  0  0  0  0  0  0  0  0  0  0  0
  -24.1230  -13.1040   20.8070 C   0  0  0  0  0  0  0  0  0  0  0  0
  -24.5860  -11.7530   20.8080 C   0  0  0  0  0  0  0  0  0  0  0  0
  -26.2440  -12.9890   20.2440 N   0  0  0  0  0  0  0  0  0  0  0  0
  -25.8810  -11.7110   20.5230 N   0  0  0  0  0  0  0  0  0  0  0  0
  -23.8580  -10.4930   21.0050 C   0  0  0  0  0  0  0  0  0  0  0  0
  -24.2810   -9.5350   21.9540 C   0  0  0  0  0  3  0  0  0  0  0  0
  -23.5530   -8.3400   22.1390 C   0  0  0  0  0  3  0  0  0  0  0  0
  -22.3870   -8.0940   21.3760 C   0  0  0  0  0  0  0  0  0  0  0  0
  -21.9830   -9.0410   20.4170 C   0  0  0  0  0  3  0  0  0  0  0  0
  -22.7120  -10.2270   20.2310 C   0  0  0  0  0  3  0  0  0  0  0  0
  -21.6320   -6.9500   21.4690 O   0  0  0  0  0  0  0  0  0  0  0  0
  -21.5810   -6.2120   22.6250 C   0  0  0  0  0  0  0  0  0  0  0  0
  -21.1650   -6.7760   23.8510 C   0  0  0  0  0  3  0  0  0  0  0  0
  -21.0610   -5.9660   24.9990 C   0  0  0  0  0  3  0  0  0  0  0  0
  -21.3630   -4.5930   24.9230 C   0  0  0  0  0  0  0  0  0  0  0  0
  -21.7740   -4.0290   23.7020 C   0  0  0  0  0  3  0  0  0  0  0  0
  -21.8790   -4.8360   22.5550 C   0  0  0  0  0  0  0  0  0  0  0  0
  -22.2540   -4.2840   21.3770 F   0  0  0  0  0  0  0  0  0  0  0  0
  -21.2570   -3.8120   26.0240 F   0  0  0  0  0  0  0  0  0  0  0  0
  -22.7200  -13.5840   21.0440 C   0  0  0  0  0  0  0  0  0  0  0  0
  -21.9770  -12.9040   21.9110 N   0  0  0  0  0  0  0  0  0  0  0  0
  -22.2900  -14.6000   20.5000 O   0  0  0  0  0  0  0  0  0  0  0  0
  -22.3360  -12.0840   22.3760 H   0  0  0  0  0  0  0  0  0  0  0  0
  -21.0360  -13.2100   22.1110 H   0  0  0  0  0  0  0  0  0  0  0  0
  -25.3620  -15.2390   20.2460 N   0  0  0  0  0  0  0  0  0  0  0  0
  -24.5900  -15.8930   20.3210 H   0  0  0  0  0  0  0  0  0  0  0  0
  -26.2110  -15.6710   19.9060 H   0  0  0  0  0  0  0  0  0  0  0  0
  1  2  2  0
  2  4  1  0
  2 54  1  0
  3  5  1  0
  3  4  2  0
  5 10  1  0
  6  1  1  0
  6  3  1  0
  7  5  1  0
 10  9  1  6
 10 12  1  0
 10  8  1  0
 12 11  1  0
 13 15  1  0
 13 12  1  0
 14 25  2  0
 15 20  1  0
 16 24  1  0
 16 26  1  0
 17 23  1  0
 17 19  1  0
 18 24  1  0
 19 18  1  0
 20 19  2  0
 21 22  1  0
 21 15  2  0
 22 17  2  0
 23 16  1  0
 24 14  1  0
 26 28  2  0
 27 26  1  0
 29 27  1  0
 30 39  2  0
 30 35  1  0
 31 27  1  0
 31 35  1  0
 32 31  1  0
 33 34  1  0
 33 32  1  0
 34 30  1  0
 35 36  2  0
 36 37  1  0
 38 37  2  0
 39 38  1  0
 40 14  1  0
 40 45  1  0
 40 41  1  0
 41 44  1  1
 41 42  1  0
 43 41  1  0
 45 48  1  0
 46 50  1  0
 46 45  1  0
 47 46  2  0
 50 49  1  0
 52 50  1  0
 52 53  1  0
 52 51  1  0
 55 54  2  0
 55 64  1  0
 56 64  1  0
 57 62  1  0
 58 59  1  0
 58 57  1  0
 60 59  1  0
 60 69  1  0
 60 61  1  0
 62 56  1  0
 62 61  1  0
 63 56  2  0
 64 65  1  0
 66 67  2  0
 67 68  1  0
 67 86  1  0
 68 71  1  0
 69 66  1  0
 69 70  1  0
 70 68  2  0
 71 72  1  0
 72 73  2  0
 74 77  1  0
 74 73  1  0
 75 74  2  0
 76 75  1  0
 76 71  2  0
 77 78  1  0
 78 79  1  0
 79 80  2  0
 81 80  1  0
 81 85  1  0
 82 81  2  0
 83 78  2  0
 83 82  1  0
 84 83  1  0
 86 87  1  0
 87 90  1  0
 87 89  1  0
 88 86  2  0
 91 92  1  0
 91 66  1  0
 93 91  1  0
M  ISO  4  12 101  13 101  56 100  64 100
M  END
>  <TORSDO>  (8) 
F 20

>  <SCORE>  (8) 
-13.542

>  <name>  (8) 
8

>  <ligand_id>  (8) 
8

>  <original_smiles>  (8) 
[H]c1sc(N([H])C(C([H])([H])[H])(C([H])([H])[H])C([H])(Oc2c([H])c([H])c3c(c2[H])C([H])([H])N(C(=O)C([H])(N([H])C(=O)C([H])(N([H])C([H])([H])[H])C([H])([H])[H])C(C([H])([H])[H])(C([H])([H])[H])C([H])([H])[H])C([H])(C(=O)N([H])C2([H])c4c([H])c([H])c([H])c([H])c4C([H])([H])C([H])([H])C2([H])[H])C3([H])[H])C([H])([H])[H])nc1C([H])([H])C([H])([H])N([H])C(=O)N1C([H])([H])C([H])([H])C([H])([H])C([H])(n2nc(-c3c([H])c([H])c(Oc4c([H])c([H])c(F)c([H])c4F)c([H])c3[H])c(C(=O)N([H])[H])c2N([H])[H])C1([H])[H]

>  <smiles>  (8) 
[H]c1sc(N([H])C(C([H])([H])[H])(C([H])([H])[H])C([H])(Oc2c([H])c([H])c3c(c2[H])C([H])([H])N(C(=O)C([H])(N([H])C(=O)C([H])(N([H])C([H])([H])[H])C([H])([H])[H])C(C([H])([H])[H])(C([H])([H])[H])C([H])([H])[H])C([H])(C(=O)N([H])C2([H])c4c([H])c([H])c([H])c([H])c4C([H])([H])C([H])([H])C2([H])[H])C3([H])[H])C([H])([H])[H])nc1C([H])([H])C([H])([H])N([H])C(=O)N1C([H])([H])C([H])([H])C([H])([H])C([H])(n2nc(-c3c([H])c([H])c(Oc4c([H])c([H])c(F)c([H])c4F)c([H])c3[H])c(C(=O)N([H])[H])c2N([H])[H])C1([H])[H]

$$$$
9:0:0
     RDKit          3D

 96104  0  0  1  0  0  0  0  0999 V2000
  -29.2730  -20.4690   19.7790 C   0  0  0  0  0  0  0  0  0  0  0  0
  -28.4960  -20.4970   18.3040 S   0  0  0  0  0  0  0  0  0  0  0  0
  -30.6990  -14.4700   20.3620 C   0  0  0  0  0  0  0  0  0  0  0  0
  -30.3770  -12.3640   19.1170 C   0  0  0  0  0  2  0  0  0  0  0  0
  -29.4110  -12.6210   17.9420 C   0  0  0  0  0  2  0  0  0  0  0  0
  -27.9440  -12.4770   18.3930 C   0  0  0  0  0  2  0  0  0  0  0  0
  -27.6370  -13.2670   19.6940 C   0  0  0  0  0  3  0  0  0  0  0  0
  -28.7060  -12.9790   20.7720 C   0  0  0  0  0  2  0  0  0  0  0  0
  -30.0280  -13.2980   20.2000 N   0  0  0  0  0  0  0  0  0  0  0  0
  -31.7970  -14.6840   19.8370 O   0  0  0  0  0  0  0  0  0  0  0  0
  -29.8040  -19.2230   20.3080 C   0  0  0  0  0  0  0  0  0  0  0  0
  -31.1010  -18.8580   20.6370 C   0  0  0  0  0  0  0  0  0  0  0  0
  -30.1210  -16.8140   20.8530 C   0  0  0  0  0  0  0  0  0  0  0  0
  -31.2590  -17.5050   20.9620 N   0  0  0  0  0  0  0  0  0  0  0  0
  -30.0270  -15.4100   21.0520 N   0  0  0  0  0  0  0  0  0  0  0  0
  -28.7430  -17.8210   20.4520 S   0  0  0  0  0  0  0  0  0  0  0  0
  -29.1440  -15.0870   21.4130 H   0  0  0  0  0  0  0  0  0  0  0  0
  -25.2420  -13.8700   20.4210 C   0  0  0  0  0  0  0  0  0  0  0  0
  -24.1780  -13.0940   20.8010 C   0  0  0  0  0  0  0  0  0  0  0  0
  -24.6430  -11.7440   20.7640 C   0  0  0  0  0  0  0  0  0  0  0  0
  -26.2870  -12.9910   20.1810 N   0  0  0  0  0  0  0  0  0  0  0  0
  -25.9320  -11.7090   20.4430 N   0  0  0  0  0  0  0  0  0  0  0  0
  -23.9250  -10.4790   20.9620 C   0  0  0  0  0  0  0  0  0  0  0  0
  -24.3500   -9.5290   21.9180 C   0  0  0  0  0  3  0  0  0  0  0  0
  -23.6310   -8.3280   22.1020 C   0  0  0  0  0  3  0  0  0  0  0  0
  -22.4730   -8.0700   21.3330 C   0  0  0  0  0  0  0  0  0  0  0  0
  -22.0660   -9.0080   20.3690 C   0  0  0  0  0  3  0  0  0  0  0  0
  -22.7860  -10.2000   20.1820 C   0  0  0  0  0  3  0  0  0  0  0  0
  -21.7260   -6.9200   21.4260 O   0  0  0  0  0  0  0  0  0  0  0  0
  -21.6420   -6.2090   22.5970 C   0  0  0  0  0  0  0  0  0  0  0  0
  -21.1410   -6.7850   23.7850 C   0  0  0  0  0  3  0  0  0  0  0  0
  -21.0080   -5.9980   24.9460 C   0  0  0  0  0  3  0  0  0  0  0  0
  -21.3660   -4.6370   24.9210 C   0  0  0  0  0  0  0  0  0  0  0  0
  -21.8600   -4.0610   23.7370 C   0  0  0  0  0  3  0  0  0  0  0  0
  -21.9950   -4.8450   22.5770 C   0  0  0  0  0  0  0  0  0  0  0  0
  -22.4520   -4.2790   21.4340 F   0  0  0  0  0  0  0  0  0  0  0  0
  -21.2310   -3.8790   26.0340 F   0  0  0  0  0  0  0  0  0  0  0  0
  -22.7830  -13.5680   21.0880 C   0  0  0  0  0  0  0  0  0  0  0  0
  -22.0630  -12.8610   21.9540 N   0  0  0  0  0  0  0  0  0  0  0  0
  -22.3370  -14.5970   20.5810 O   0  0  0  0  0  0  0  0  0  0  0  0
  -22.4350  -12.0280   22.3850 H   0  0  0  0  0  0  0  0  0  0  0  0
  -21.1270  -13.1580   22.1890 H   0  0  0  0  0  0  0  0  0  0  0  0
  -25.4020  -15.2410   20.2430 N   0  0  0  0  0  0  0  0  0  0  0  0
  -24.6350  -15.8920   20.3640 H   0  0  0  0  0  0  0  0  0  0  0  0
  -26.2450  -15.6840   19.9020 H   0  0  0  0  0  0  0  0  0  0  0  0
  -32.2490  -19.6570   20.6120 N   0  0  0  0  0  0  0  0  0  0  0  0
  -32.1950  -20.6600   20.4720 H   0  0  0  0  0  0  0  0  0  0  0  0
  -33.1490  -19.3070   20.9240 H   0  0  0  0  0  0  0  0  0  0  0  0
  -29.5560  -21.6550   20.3760 N   0  0  0  0  0  0  0  0  0  0  0  0
  -29.4690  -22.4310   19.7350 H   0  0  0  0  0  0  0  0  0  0  0  0
  -30.0720  -21.3270   22.8200 C   0  0  0  0  0  1  0  0  0  0  0  0
  -29.2140  -22.0300   21.7550 C   0  0  0  0  0  3  0  0  0  0  0  0
  -29.3410  -23.5660   21.9400 C   0  0  0  0  0  2  0  0  0  0  0  0
  -28.5870  -24.4590   20.9270 C   0  0  0  0  0  2  0  0  0  0  0  0
  -28.7800  -25.9640   21.2180 C   0  0  0  0  0  2  0  0  0  0  0  0
  -28.4220  -26.7580   20.0910 O   0  0  0  0  0  0  0  0  0  0  0  0
  -24.5530  -31.9010   23.2020 C   0  0  0  0  0  0  0  0  0  0  0  0
  -27.2480  -27.4630   20.1790 C   0  0  0  0  0  0  0  0  0  0  0  0
  -23.3700  -30.4910   21.5500 C   0  0  0  0  0  3  0  0  0  0  0  0
  -24.8470  -28.9450   20.1570 C   0  0  0  0  0  0  0  0  0  0  0  0
  -25.8940  -30.8550   21.3800 C   0  0  0  0  0  2  0  0  0  0  0  0
  -25.9920  -29.4780   20.7620 C   0  0  0  0  0  0  0  0  0  0  0  0
  -27.1960  -28.7400   20.7810 C   0  0  0  0  0  3  0  0  0  0  0  0
  -26.0920  -26.9370   19.5700 C   0  0  0  0  0  3  0  0  0  0  0  0
  -24.8890  -27.6690   19.5650 C   0  0  0  0  0  3  0  0  0  0  0  0
  -23.6000  -29.8030   20.1770 C   0  0  0  0  0  2  0  0  0  0  0  0
  -24.6230  -31.0980   22.1040 N   0  0  0  0  0  0  0  0  0  0  0  0
  -23.4650  -32.1750   23.7270 O   0  0  0  0  0  0  0  0  0  0  0  0
  -22.7070  -29.4740   22.5060 C   0  0  0  0  0  0  0  0  0  0  0  0
  -21.3830  -29.2980   22.3690 N   0  0  0  0  0  0  0  0  0  0  0  0
  -23.3810  -28.8450   23.3270 O   0  0  0  0  0  0  0  0  0  0  0  0
  -20.9000  -29.8560   21.6800 H   0  0  0  0  0  0  0  0  0  0  0  0
  -17.9940  -28.1410   22.8550 C   0  0  0  0  0  0  0  0  0  0  0  0
  -20.5550  -28.3650   23.1310 C   0  0  0  0  0  3  0  0  0  0  0  0
  -20.6410  -26.9380   22.5420 C   0  0  0  0  0  2  0  0  0  0  0  0
  -19.5350  -26.6380   21.5250 C   0  0  0  0  0  2  0  0  0  0  0  0
  -18.1540  -26.7950   22.1690 C   0  0  0  0  0  2  0  0  0  0  0  0
  -19.1220  -28.8850   23.2910 C   0  0  0  0  0  0  0  0  0  0  0  0
  -18.9210  -30.1470   23.8910 C   0  0  0  0  0  3  0  0  0  0  0  0
  -17.6240  -30.6670   24.0580 C   0  0  0  0  0  3  0  0  0  0  0  0
  -16.5090  -29.9200   23.6380 C   0  0  0  0  0  3  0  0  0  0  0  0
  -16.6950  -28.6590   23.0440 C   0  0  0  0  0  3  0  0  0  0  0  0
  -25.8320  -32.5340   23.8360 C   0  0  0  0  0  3  0  0  0  0  0  0
  -25.5170  -33.9310   24.1630 N   0  0  0  0  0  0  0  0  0  0  0  0
  -25.8650  -34.9840   23.4100 C   0  0  0  0  0  0  0  0  0  0  0  0
  -26.5540  -34.8800   22.3910 O   0  0  0  0  0  0  0  0  0  0  0  0
  -24.9050  -34.0850   24.9500 H   0  0  0  0  0  0  0  0  0  0  0  0
  -24.1550  -36.7820   23.0070 C   0  0  0  0  0  1  0  0  0  0  0  0
  -25.3670  -36.3710   23.8570 C   0  0  0  0  0  3  0  0  0  0  0  0
  -27.4730  -37.2460   24.7630 C   0  0  0  0  0  1  0  0  0  0  0  0
  -26.4060  -37.4210   23.7820 N   0  0  0  0  0  0  0  0  0  0  0  0
  -25.9980  -38.3430   23.9160 H   0  0  0  0  0  0  0  0  0  0  0  0
  -26.3400  -31.7600   25.1140 C   0  0  1  0  0  0  0  0  0  0  0  0
  -25.2370  -31.5120   26.1700 C   0  0  0  0  0  1  0  0  0  0  0  0
  -26.9310  -30.3870   24.7180 C   0  0  0  0  0  1  0  0  0  0  0  0
  -27.4830  -32.5540   25.7890 C   0  0  0  0  0  1  0  0  0  0  0  0
  1 11  1  0
  1 49  1  0
  2  1  2  0
  3 15  1  0
  4  9  1  0
  5  6  1  0
  5  4  1  0
  7  6  1  0
  7 21  1  0
  7  8  1  0
  9  3  1  0
  9  8  1  0
 10  3  2  0
 11 16  1  0
 11 12  2  0
 12 14  1  0
 13 14  2  0
 13 15  1  0
 15 17  1  0
 16 13  1  0
 18 19  2  0
 19 38  1  0
 20 19  1  0
 20 23  1  0
 21 18  1  0
 21 22  1  0
 22 20  2  0
 23 24  1  0
 24 25  2  0
 26 29  1  0
 26 25  1  0
 27 26  2  0
 28 27  1  0
 28 23  2  0
 29 30  1  0
 30 31  1  0
 31 32  2  0
 33 32  1  0
 33 37  1  0
 34 33  2  0
 35 30  2  0
 35 34  1  0
 36 35  1  0
 38 39  1  0
 39 42  1  0
 39 41  1  0
 40 38  2  0
 43 44  1  0
 43 18  1  0
 45 43  1  0
 46 12  1  0
 46 48  1  0
 47 46  1  0
 49 52  1  0
 50 49  1  0
 52 53  1  0
 52 51  1  0
 54 55  1  0
 54 53  1  0
 56 58  1  0
 56 55  1  0
 57 68  2  0
 58 63  1  0
 59 67  1  0
 59 69  1  0
 60 66  1  0
 60 62  1  0
 61 67  1  0
 62 63  2  0
 62 61  1  0
 64 58  2  0
 65 64  1  0
 65 60  2  0
 66 59  1  0
 67 57  1  0
 69 71  2  0
 70 69  1  0
 72 70  1  0
 73 82  2  0
 73 78  1  0
 74 70  1  0
 74 78  1  0
 75 74  1  0
 76 77  1  0
 76 75  1  0
 77 73  1  0
 78 79  2  0
 79 80  1  0
 81 80  2  0
 82 81  1  0
 83 57  1  0
 83 84  1  0
 83 93  1  0
 84 87  1  0
 85 89  1  0
 85 84  1  0
 86 85  2  0
 89 88  1  0
 91 89  1  0
 91 92  1  0
 91 90  1  0
 93 96  1  1
 93 94  1  0
 95 93  1  0
M  ISO  4   3 100  15 100  55 101  56 101
M  END
>  <TORSDO>  (9) 
F 22

>  <SCORE>  (9) 
-13.769

>  <name>  (9) 
9

>  <ligand_id>  (9) 
9

>  <original_smiles>  (9) 
[H]c1c([H])c([H])c2c(c1[H])C([H])([H])C([H])([H])C([H])([H])C2([H])N([H])C(=O)C1([H])N(C(=O)C([H])(N([H])C(=O)C([H])(N([H])C([H])([H])[H])C([H])([H])[H])C(C([H])([H])[H])(C([H])([H])[H])C([H])([H])[H])C([H])([H])c2c([H])c(OC([H])([H])C([H])([H])C([H])([H])C([H])(N([H])C(=S)c3sc(N([H])C(=O)N4C([H])([H])C([H])([H])C([H])([H])C([H])(n5nc(-c6c([H])c([H])c(Oc7c([H])c([H])c(F)c([H])c7F)c([H])c6[H])c(C(=O)N([H])[H])c5N([H])[H])C4([H])[H])nc3N([H])[H])C([H])([H])[H])c([H])c([H])c2C1([H])[H]

>  <smiles>  (9) 
[H]c1c([H])c([H])c2c(c1[H])C([H])([H])C([H])([H])C([H])([H])C2([H])N([H])C(=O)C1([H])N(C(=O)C([H])(N([H])C(=O)C([H])(N([H])C([H])([H])[H])C([H])([H])[H])C(C([H])([H])[H])(C([H])([H])[H])C([H])([H])[H])C([H])([H])c2c([H])c(OC([H])([H])C([H])([H])C([H])([H])C([H])(N([H])C(=S)c3sc(N([H])C(=O)N4C([H])([H])C([H])([H])C([H])([H])C([H])(n5nc(-c6c([H])c([H])c(Oc7c([H])c([H])c(F)c([H])c7F)c([H])c6[H])c(C(=O)N([H])[H])c5N([H])[H])C4([H])[H])nc3N([H])[H])C([H])([H])[H])c([H])c([H])c2C1([H])[H]

$$$$
10:0:0
     RDKit          3D

103111  0  0  1  0  0  0  0  0999 V2000
  -28.3700  -22.6970   21.4940 C   0  0  0  0  0  0  0  0  0  0  0  0
  -29.2410  -21.7220   21.1850 N   0  0  0  0  0  0  0  0  0  0  0  0
  -27.1500  -22.6210   21.3260 O   0  0  0  0  0  0  0  0  0  0  0  0
  -30.2250  -21.9170   21.3650 H   0  0  0  0  0  0  0  0  0  0  0  0
  -27.7880  -19.8700   20.4310 C   0  0  0  0  0  3  0  0  0  0  0  0
  -29.0190  -20.3980   20.7230 C   0  0  0  0  0  0  0  0  0  0  0  0
  -30.0900  -19.4550   20.5320 C   0  0  0  0  0  0  0  0  0  0  0  0
  -29.6630  -18.2390   20.0510 C   0  0  0  0  0  0  0  0  0  0  0  0
  -27.9220  -18.2210   19.8860 S   0  0  0  0  0  0  0  0  0  0  0  0
  -32.1460  -20.4990   21.5420 C   0  0  0  0  0  0  0  0  0  0  0  0
  -31.4850  -19.6920   20.6980 N   0  0  0  0  0  0  0  0  0  0  0  0
  -31.6080  -21.2690   22.3420 O   0  0  0  0  0  0  0  0  0  0  0  0
  -32.0860  -19.0880   20.1580 H   0  0  0  0  0  0  0  0  0  0  0  0
  -34.2410  -21.7660   20.9250 C   0  0  0  0  0  1  0  0  0  0  0  0
  -34.2770  -20.1060   22.8460 C   0  0  0  0  0  1  0  0  0  0  0  0
  -33.6770  -20.4420   21.4700 C   0  0  0  0  0  3  0  0  0  0  0  0
  -30.4650  -17.0320   19.6440 C   0  0  0  0  0  2  0  0  0  0  0  0
  -30.4550  -15.8600   20.6530 C   0  0  0  0  0  3  0  0  0  0  0  0
  -31.1490  -16.2110   21.7400 F   0  0  0  0  0  0  0  0  0  0  0  0
  -31.1000  -14.5950   20.0320 C   0  0  0  0  0  0  0  0  0  0  0  0
  -30.7520  -12.4070   18.9530 C   0  0  0  0  0  2  0  0  0  0  0  0
  -29.7780  -12.5950   17.7710 C   0  0  0  0  0  2  0  0  0  0  0  0
  -28.3120  -12.4990   18.2430 C   0  0  0  0  0  2  0  0  0  0  0  0
  -28.0250  -13.3730   19.4930 C   0  0  0  0  0  3  0  0  0  0  0  0
  -29.1070  -13.1420   20.5720 C   0  0  0  0  0  2  0  0  0  0  0  0
  -30.4190  -13.4190   19.9670 N   0  0  0  0  0  0  0  0  0  0  0  0
  -32.2060  -14.7340   19.4960 O   0  0  0  0  0  0  0  0  0  0  0  0
  -25.6660  -14.0440   20.2760 C   0  0  0  0  0  0  0  0  0  0  0  0
  -24.5910  -13.3010   20.6820 C   0  0  0  0  0  0  0  0  0  0  0  0
  -25.0140  -11.9380   20.6350 C   0  0  0  0  0  0  0  0  0  0  0  0
  -26.6800  -13.1360   20.0130 N   0  0  0  0  0  0  0  0  0  0  0  0
  -26.2910  -11.8640   20.2820 N   0  0  0  0  0  0  0  0  0  0  0  0
  -24.2620  -10.6950   20.8480 C   0  0  0  0  0  0  0  0  0  0  0  0
  -24.6550   -9.7520   21.8230 C   0  0  0  0  0  3  0  0  0  0  0  0
  -23.9050   -8.5740   22.0220 C   0  0  0  0  0  3  0  0  0  0  0  0
  -22.7470   -8.3300   21.2460 C   0  0  0  0  0  0  0  0  0  0  0  0
  -22.3720   -9.2620   20.2620 C   0  0  0  0  0  3  0  0  0  0  0  0
  -23.1230  -10.4320   20.0600 C   0  0  0  0  0  3  0  0  0  0  0  0
  -21.9700   -7.2020   21.3520 O   0  0  0  0  0  0  0  0  0  0  0  0
  -21.8170   -6.5430   22.5470 C   0  0  0  0  0  0  0  0  0  0  0  0
  -21.3060   -7.1900   23.6930 C   0  0  0  0  0  3  0  0  0  0  0  0
  -21.0990   -6.4590   24.8810 C   0  0  0  0  0  3  0  0  0  0  0  0
  -21.3920   -5.0830   24.9210 C   0  0  0  0  0  0  0  0  0  0  0  0
  -21.8960   -4.4370   23.7780 C   0  0  0  0  0  3  0  0  0  0  0  0
  -22.1050   -5.1640   22.5940 C   0  0  0  0  0  0  0  0  0  0  0  0
  -22.5700   -4.5320   21.4900 F   0  0  0  0  0  0  0  0  0  0  0  0
  -21.1870   -4.3790   26.0580 F   0  0  0  0  0  0  0  0  0  0  0  0
  -23.2170  -13.8160   21.0050 C   0  0  0  0  0  0  0  0  0  0  0  0
  -22.5080  -13.1450   21.9070 N   0  0  0  0  0  0  0  0  0  0  0  0
  -22.7830  -14.8470   20.4930 O   0  0  0  0  0  0  0  0  0  0  0  0
  -22.8730  -12.3110   22.3430 H   0  0  0  0  0  0  0  0  0  0  0  0
  -21.5890  -13.4730   22.1670 H   0  0  0  0  0  0  0  0  0  0  0  0
  -25.8580  -15.4090   20.0910 N   0  0  0  0  0  0  0  0  0  0  0  0
  -25.1070  -16.0780   20.2210 H   0  0  0  0  0  0  0  0  0  0  0  0
  -26.7030  -15.8270   19.7250 H   0  0  0  0  0  0  0  0  0  0  0  0
  -28.9740  -23.9540   22.1400 C   0  0  0  0  0  3  0  0  0  0  0  0
  -28.7710  -23.8590   23.5940 N   0  0  0  0  0  4  0  0  0  0  0  0
  -27.7890  -23.8140   23.7980 H   0  0  0  0  0  0  0  0  0  0  0  0
  -29.1780  -24.6410   24.0740 H   0  0  0  0  0  0  0  0  0  0  0  0
  -29.1970  -23.0150   23.9390 H   0  0  0  0  0  0  0  0  0  0  0  0
  -28.3860  -25.2860   21.5960 C   0  0  0  0  0  2  0  0  0  0  0  0
  -28.6210  -25.5500   20.0930 C   0  0  0  0  0  2  0  0  0  0  0  0
  -28.5760  -26.9530   19.8200 O   0  0  0  0  0  0  0  0  0  0  0  0
  -24.6170  -31.8080   23.1620 C   0  0  0  0  0  0  0  0  0  0  0  0
  -27.3580  -27.5910   19.8790 C   0  0  0  0  0  0  0  0  0  0  0  0
  -23.4330  -30.4430   21.4710 C   0  0  0  0  0  3  0  0  0  0  0  0
  -24.9150  -29.0040   19.9760 C   0  0  0  0  0  0  0  0  0  0  0  0
  -25.9430  -30.8870   21.2640 C   0  0  0  0  0  2  0  0  0  0  0  0
  -26.0610  -29.5470   20.5700 C   0  0  0  0  0  0  0  0  0  0  0  0
  -27.2860  -28.8490   20.5130 C   0  0  0  0  0  3  0  0  0  0  0  0
  -26.1950  -27.0500   19.2880 C   0  0  0  0  0  3  0  0  0  0  0  0
  -24.9750  -27.7540   19.3330 C   0  0  0  0  0  3  0  0  0  0  0  0
  -23.6470  -29.8240   20.0640 C   0  0  0  0  0  2  0  0  0  0  0  0
  -24.6830  -31.0590   22.0250 N   0  0  0  0  0  0  0  0  0  0  0  0
  -23.5340  -32.0280   23.7220 O   0  0  0  0  0  0  0  0  0  0  0  0
  -22.8190  -29.3670   22.3920 C   0  0  0  0  0  0  0  0  0  0  0  0
  -21.5020  -29.1420   22.2530 N   0  0  0  0  0  0  0  0  0  0  0  0
  -23.5240  -28.7370   23.1860 O   0  0  0  0  0  0  0  0  0  0  0  0
  -20.9940  -29.7060   21.5860 H   0  0  0  0  0  0  0  0  0  0  0  0
  -18.1740  -27.8070   22.6800 C   0  0  0  0  0  0  0  0  0  0  0  0
  -20.7170  -28.1490   22.9860 C   0  0  0  0  0  3  0  0  0  0  0  0
  -20.8790  -26.7430   22.3610 C   0  0  0  0  0  2  0  0  0  0  0  0
  -19.7970  -26.4150   21.3270 C   0  0  0  0  0  2  0  0  0  0  0  0
  -18.4050  -26.4880   21.9640 C   0  0  0  0  0  2  0  0  0  0  0  0
  -19.2600  -28.5950   23.1460 C   0  0  0  0  0  0  0  0  0  0  0  0
  -18.9910  -29.8300   23.7750 C   0  0  0  0  0  3  0  0  0  0  0  0
  -17.6670  -30.2780   23.9440 C   0  0  0  0  0  3  0  0  0  0  0  0
  -16.5950  -29.4870   23.4960 C   0  0  0  0  0  3  0  0  0  0  0  0
  -16.8500  -28.2530   22.8710 C   0  0  0  0  0  3  0  0  0  0  0  0
  -25.8920  -32.4440   23.7990 C   0  0  0  0  0  3  0  0  0  0  0  0
  -26.4200  -31.6540   25.0580 C   0  0  1  0  0  0  0  0  0  0  0  0
  -25.3290  -31.3730   26.1170 C   0  0  0  0  0  1  0  0  0  0  0  0
  -27.0290  -30.2970   24.6320 C   0  0  0  0  0  1  0  0  0  0  0  0
  -27.5550  -32.4530   25.7410 C   0  0  0  0  0  1  0  0  0  0  0  0
  -25.5640  -33.8310   24.1540 N   0  0  0  0  0  0  0  0  0  0  0  0
  -25.8950  -34.9020   23.4220 C   0  0  0  0  0  0  0  0  0  0  0  0
  -26.5800  -34.8280   22.3980 O   0  0  0  0  0  0  0  0  0  0  0  0
  -24.9560  -33.9620   24.9500 H   0  0  0  0  0  0  0  0  0  0  0  0
  -24.1500  -36.6810   23.0780 C   0  0  0  0  0  1  0  0  0  0  0  0
  -25.3830  -36.2740   23.9000 C   0  0  0  0  0  3  0  0  0  0  0  0
  -27.4930  -37.1650   24.7850 C   0  0  0  0  0  1  0  0  0  0  0  0
  -26.4060  -37.3410   23.8270 N   0  0  0  0  0  0  0  0  0  0  0  0
  -25.9860  -38.2530   23.9860 H   0  0  0  0  0  0  0  0  0  0  0  0
  1 56  1  0
  2  4  1  0
  2  1  1  0
  3  1  2  0
  5  6  2  0
  6  2  1  0
  7 11  1  0
  7  6  1  0
  8  7  2  0
  9  8  1  0
  9  5  1  0
 10 12  2  0
 11 10  1  0
 13 11  1  0
 14 16  1  0
 16 10  1  0
 16 15  1  0
 17  8  1  0
 17 18  1  0
 18 19  1  0
 20 18  1  0
 21 26  1  0
 22 23  1  0
 22 21  1  0
 24 23  1  0
 24 31  1  0
 24 25  1  0
 26 20  1  0
 26 25  1  0
 27 20  2  0
 28 29  2  0
 29 48  1  0
 30 29  1  0
 30 33  1  0
 31 28  1  0
 31 32  1  0
 32 30  2  0
 33 34  1  0
 34 35  2  0
 36 39  1  0
 36 35  1  0
 37 36  2  0
 38 37  1  0
 38 33  2  0
 39 40  1  0
 40 45  2  0
 40 41  1  0
 41 42  2  0
 42 43  1  0
 43 47  1  0
 44 43  2  0
 45 44  1  0
 46 45  1  0
 48 49  1  0
 49 52  1  0
 49 51  1  0
 50 48  2  0
 53 54  1  0
 53 28  1  0
 55 53  1  0
 56 61  1  0
 56 57  1  0
 57 58  1  0
 57 60  1  0
 57 59  1  0
 62 61  1  0
 63 65  1  0
 63 62  1  0
 64 75  2  0
 65 70  1  0
 66 74  1  0
 66 76  1  0
 67 73  1  0
 67 69  1  0
 68 74  1  0
 69 68  1  0
 70 69  2  0
 71 72  1  0
 71 65  2  0
 72 67  2  0
 73 66  1  0
 74 64  1  0
 76 78  2  0
 77 76  1  0
 79 77  1  0
 80 89  2  0
 80 85  1  0
 81 77  1  0
 81 85  1  0
 82 81  1  0
 83 84  1  0
 83 82  1  0
 84 80  1  0
 85 86  2  0
 86 87  1  0
 88 87  2  0
 89 88  1  0
 90 64  1  0
 90 95  1  0
 90 91  1  0
 91 94  1  1
 91 92  1  0
 93 91  1  0
 95 98  1  0
 96100  1  0
 96 95  1  0
 97 96  2  0
100 99  1  0
102100  1  0
102103  1  0
102101  1  0
M  ISO  4  18 100  20 100  62 101  63 101
M  END
>  <TORSDO>  (10) 
F 25

>  <SCORE>  (10) 
-12.199

>  <name>  (10) 
10

>  <ligand_id>  (10) 
10

>  <original_smiles>  (10) 
[H]c1sc(C([H])([H])C([H])(F)C(=O)N2C([H])([H])C([H])([H])C([H])([H])C([H])(n3nc(-c4c([H])c([H])c(Oc5c([H])c([H])c(F)c([H])c5F)c([H])c4[H])c(C(=O)N([H])[H])c3N([H])[H])C2([H])[H])c(N([H])C(=O)C([H])(C([H])([H])[H])C([H])([H])[H])c1N([H])C(=O)C([H])(C([H])([H])C([H])([H])Oc1c([H])c([H])c2c(c1[H])C([H])([H])N(C(=O)C([H])(N([H])C(=O)C([H])(N([H])C([H])([H])[H])C([H])([H])[H])C(C([H])([H])[H])(C([H])([H])[H])C([H])([H])[H])C([H])(C(=O)N([H])C1([H])c3c([H])c([H])c([H])c([H])c3C([H])([H])C([H])([H])C1([H])[H])C2([H])[H])[N+]([H])([H])[H]

>  <smiles>  (10) 
[H]c1sc(C([H])([H])C([H])(F)C(=O)N2C([H])([H])C([H])([H])C([H])([H])C([H])(n3nc(-c4c([H])c([H])c(Oc5c([H])c([H])c(F)c([H])c5F)c([H])c4[H])c(C(=O)N([H])[H])c3N([H])[H])C2([H])[H])c(N([H])C(=O)C([H])(C([H])([H])[H])C([H])([H])[H])c1N([H])C(=O)C([H])(C([H])([H])C([H])([H])Oc1c([H])c([H])c2c(c1[H])C([H])([H])N(C(=O)C([H])(N([H])C(=O)C([H])(N([H])C([H])([H])[H])C([H])([H])[H])C(C([H])([H])[H])(C([H])([H])[H])C([H])([H])[H])C([H])(C(=O)N([H])C1([H])c3c([H])c([H])c([H])c([H])c3C([H])([H])C([H])([H])C1([H])[H])C2([H])[H])[N+]([H])([H])[H]

$$$$
11:0:0
     RDKit          3D

 90 98  0  0  1  0  0  0  0  0999 V2000
  -28.7910  -22.3410   22.2040 C   0  0  0  0  0  1  0  0  0  0  0  0
  -28.9050  -22.4220   20.6710 C   0  0  0  0  0  3  0  0  0  0  0  0
  -29.1970  -23.9430   20.2250 C   0  0  0  0  0  3  0  0  0  0  0  0
  -28.1240  -25.0820   20.5650 C   0  0  0  0  0  3  0  0  0  0  0  0
  -28.3610  -26.5060   20.1900 O   0  0  0  0  0  0  0  0  0  0  0  0
  -24.6190  -31.9000   23.2340 C   0  0  0  0  0  0  0  0  0  0  0  0
  -27.2470  -27.3620   20.1620 C   0  0  0  0  0  0  0  0  0  0  0  0
  -23.4200  -30.5040   21.5870 C   0  0  0  0  0  3  0  0  0  0  0  0
  -24.8770  -28.9680   20.1540 C   0  0  0  0  0  0  0  0  0  0  0  0
  -25.9590  -30.8340   21.4070 C   0  0  0  0  0  2  0  0  0  0  0  0
  -26.0440  -29.4580   20.7530 C   0  0  0  0  0  0  0  0  0  0  0  0
  -27.2330  -28.6670   20.7470 C   0  0  0  0  0  3  0  0  0  0  0  0
  -26.0610  -26.9370   19.5220 C   0  0  0  0  0  3  0  0  0  0  0  0
  -24.8860  -27.7120   19.5290 C   0  0  0  0  0  3  0  0  0  0  0  0
  -23.6360  -29.8370   20.2060 C   0  0  0  0  0  2  0  0  0  0  0  0
  -24.6850  -31.0960   22.1330 N   0  0  0  0  0  0  0  0  0  0  0  0
  -23.5340  -32.1710   23.7690 O   0  0  0  0  0  0  0  0  0  0  0  0
  -22.7600  -29.4810   22.5430 C   0  0  0  0  0  0  0  0  0  0  0  0
  -21.4360  -29.2950   22.4100 N   0  0  0  0  0  0  0  0  0  0  0  0
  -23.4400  -28.8580   23.3640 O   0  0  0  0  0  0  0  0  0  0  0  0
  -20.9470  -29.8510   21.7230 H   0  0  0  0  0  0  0  0  0  0  0  0
  -18.0660  -28.0690   22.8870 C   0  0  0  0  0  0  0  0  0  0  0  0
  -20.6200  -28.3500   23.1750 C   0  0  0  0  0  3  0  0  0  0  0  0
  -20.7370  -26.9190   22.6010 C   0  0  0  0  0  2  0  0  0  0  0  0
  -19.6450  -26.5880   21.5790 C   0  0  0  0  0  2  0  0  0  0  0  0
  -18.2570  -26.7220   22.2130 C   0  0  0  0  0  2  0  0  0  0  0  0
  -19.1750  -28.8410   23.3240 C   0  0  0  0  0  0  0  0  0  0  0  0
  -18.9410  -30.1030   23.9140 C   0  0  0  0  0  3  0  0  0  0  0  0
  -17.6310  -30.5930   24.0700 C   0  0  0  0  0  3  0  0  0  0  0  0
  -16.5360  -29.8190   23.6490 C   0  0  0  0  0  3  0  0  0  0  0  0
  -16.7540  -28.5590   23.0640 C   0  0  0  0  0  3  0  0  0  0  0  0
  -25.8990  -32.5340   23.8600 C   0  0  0  0  0  3  0  0  0  0  0  0
  -26.4100  -31.7640   25.1400 C   0  0  1  0  0  0  0  0  0  0  0  0
  -25.3130  -31.5270   26.2040 C   0  0  0  0  0  1  0  0  0  0  0  0
  -26.9960  -30.3870   24.7510 C   0  0  0  0  0  1  0  0  0  0  0  0
  -27.5590  -32.5600   25.8030 C   0  0  0  0  0  1  0  0  0  0  0  0
  -25.5880  -33.9330   24.1890 N   0  0  0  0  0  0  0  0  0  0  0  0
  -25.9210  -34.9850   23.4290 C   0  0  0  0  0  0  0  0  0  0  0  0
  -26.5920  -34.8810   22.3990 O   0  0  0  0  0  0  0  0  0  0  0  0
  -24.9950  -34.0870   24.9890 H   0  0  0  0  0  0  0  0  0  0  0  0
  -24.1930  -36.7770   23.0730 C   0  0  0  0  0  1  0  0  0  0  0  0
  -25.4330  -36.3750   23.8860 C   0  0  0  0  0  3  0  0  0  0  0  0
  -27.5680  -37.2580   24.7180 C   0  0  0  0  0  1  0  0  0  0  0  0
  -26.4670  -37.4270   23.7730 N   0  0  0  0  0  0  0  0  0  0  0  0
  -26.0620  -38.3480   23.9190 H   0  0  0  0  0  0  0  0  0  0  0  0
  -29.9350  -21.4570   20.2410 O   0  0  0  0  0  0  0  0  0  0  0  0
  -30.9780  -17.9830   20.1700 C   0  0  0  0  0  2  0  0  0  0  0  0
  -28.6680  -19.2870   20.6780 C   0  0  0  0  0  2  0  0  0  0  0  0
  -29.8250  -17.2130   20.5110 C   0  0  0  0  0  0  0  0  0  0  0  0
  -29.8250  -20.0460   20.3470 C   0  0  0  0  0  0  0  0  0  0  0  0
  -28.6760  -17.9160   20.7600 N   0  0  0  0  0  0  0  0  0  0  0  0
  -30.9760  -19.3560   20.0900 N   0  0  0  0  0  0  0  0  0  0  0  0
  -30.6190  -14.7360   20.1780 C   0  0  0  0  0  0  0  0  0  0  0  0
  -30.4080  -12.5130   19.0690 C   0  0  0  0  0  2  0  0  0  0  0  0
  -29.4210  -12.6600   17.8880 C   0  0  0  0  0  2  0  0  0  0  0  0
  -27.9630  -12.4820   18.3590 C   0  0  0  0  0  2  0  0  0  0  0  0
  -27.6430  -13.3130   19.6290 C   0  0  0  0  0  3  0  0  0  0  0  0
  -28.7370  -13.1280   20.7060 C   0  0  0  0  0  2  0  0  0  0  0  0
  -30.0250  -13.5000   20.0980 N   0  0  0  0  0  0  0  0  0  0  0  0
  -31.7620  -14.9210   19.7480 O   0  0  0  0  0  0  0  0  0  0  0  0
  -29.8010  -15.7520   20.6130 N   0  0  0  0  0  0  0  0  0  0  0  0
  -28.9270  -15.3980   20.9610 H   0  0  0  0  0  0  0  0  0  0  0  0
  -25.2690  -13.8980   20.4200 C   0  0  0  0  0  0  0  0  0  0  0  0
  -24.2160  -13.1180   20.8150 C   0  0  0  0  0  0  0  0  0  0  0  0
  -24.6830  -11.7690   20.7600 C   0  0  0  0  0  0  0  0  0  0  0  0
  -26.3100  -13.0230   20.1500 N   0  0  0  0  0  0  0  0  0  0  0  0
  -25.9640  -11.7370   20.4140 N   0  0  0  0  0  0  0  0  0  0  0  0
  -23.9670  -10.5020   20.9640 C   0  0  0  0  0  0  0  0  0  0  0  0
  -24.4160   -9.5430   21.8980 C   0  0  0  0  0  3  0  0  0  0  0  0
  -23.7010   -8.3400   22.0880 C   0  0  0  0  0  3  0  0  0  0  0  0
  -22.5250   -8.0880   21.3430 C   0  0  0  0  0  0  0  0  0  0  0  0
  -22.0960   -9.0360   20.3970 C   0  0  0  0  0  3  0  0  0  0  0  0
  -22.8120  -10.2300   20.2050 C   0  0  0  0  0  3  0  0  0  0  0  0
  -21.7810   -6.9370   21.4420 O   0  0  0  0  0  0  0  0  0  0  0  0
  -21.7270   -6.2130   22.6060 C   0  0  0  0  0  0  0  0  0  0  0  0
  -21.2860   -6.7840   23.8190 C   0  0  0  0  0  3  0  0  0  0  0  0
  -21.1800   -5.9860   24.9760 C   0  0  0  0  0  3  0  0  0  0  0  0
  -21.5060   -4.6170   24.9190 C   0  0  0  0  0  0  0  0  0  0  0  0
  -21.9400   -4.0450   23.7100 C   0  0  0  0  0  3  0  0  0  0  0  0
  -22.0470   -4.8410   22.5560 C   0  0  0  0  0  0  0  0  0  0  0  0
  -22.4460   -4.2820   21.3880 F   0  0  0  0  0  0  0  0  0  0  0  0
  -21.3970   -3.8480   26.0270 F   0  0  0  0  0  0  0  0  0  0  0  0
  -22.8250  -13.5870   21.1310 C   0  0  0  0  0  0  0  0  0  0  0  0
  -22.1240  -12.8800   22.0110 N   0  0  0  0  0  0  0  0  0  0  0  0
  -22.3680  -14.6150   20.6320 O   0  0  0  0  0  0  0  0  0  0  0  0
  -22.5070  -12.0480   22.4370 H   0  0  0  0  0  0  0  0  0  0  0  0
  -21.1920  -13.1740   22.2630 H   0  0  0  0  0  0  0  0  0  0  0  0
  -25.4210  -15.2720   20.2500 N   0  0  0  0  0  0  0  0  0  0  0  0
  -24.6550  -15.9190   20.3940 H   0  0  0  0  0  0  0  0  0  0  0  0
  -26.2590  -15.7250   19.9080 H   0  0  0  0  0  0  0  0  0  0  0  0
  2  1  1  0
  3  4  2  0
  3  2  1  0
  5  4  1  0
  6 17  2  0
  7  5  1  0
  7 12  1  0
  8 16  1  0
  8 18  1  0
  9 15  1  0
  9 11  1  0
 10 16  1  0
 11 10  1  0
 12 11  2  0
 13 14  1  0
 13  7  2  0
 14  9  2  0
 15  8  1  0
 16  6  1  0
 18 20  2  0
 19 18  1  0
 21 19  1  0
 22 31  2  0
 22 27  1  0
 23 19  1  0
 23 27  1  0
 24 23  1  0
 25 26  1  0
 25 24  1  0
 26 22  1  0
 27 28  2  0
 28 29  1  0
 30 29  2  0
 31 30  1  0
 32  6  1  0
 32 37  1  0
 32 33  1  0
 33 36  1  1
 33 34  1  0
 35 33  1  0
 37 40  1  0
 38 42  1  0
 38 37  1  0
 39 38  2  0
 42 41  1  0
 44 42  1  0
 44 45  1  0
 44 43  1  0
 46 50  1  0
 46  2  1  0
 47 49  1  0
 48 51  1  0
 49 61  1  0
 49 51  2  0
 50 48  1  0
 52 47  1  0
 52 50  2  0
 53 61  1  0
 54 59  1  0
 55 56  1  0
 55 54  1  0
 57 56  1  0
 57 66  1  0
 57 58  1  0
 59 53  1  0
 59 58  1  0
 60 53  2  0
 61 62  1  0
 63 64  2  0
 64 83  1  0
 65 64  1  0
 65 68  1  0
 66 67  1  0
 66 63  1  0
 67 65  2  0
 68 69  1  0
 69 70  2  0
 71 74  1  0
 71 70  1  0
 72 71  2  0
 73 72  1  0
 73 68  2  0
 74 75  1  0
 75 76  1  0
 76 77  2  0
 78 77  1  0
 78 82  1  0
 79 78  2  0
 80 75  2  0
 80 79  1  0
 81 80  1  0
 83 84  1  0
 84 87  1  0
 84 86  1  0
 85 83  2  0
 88 89  1  0
 88 63  1  0
 90 88  1  0
M  ISO  4   4 101   5 101  53 100  61 100
M  END
>  <TORSDO>  (11) 
F 20

>  <SCORE>  (11) 
-13.851

>  <name>  (11) 
11

>  <ligand_id>  (11) 
11

>  <original_smiles>  (11) 
[H]c1nc(N([H])C(=O)N2C([H])([H])C([H])([H])C([H])([H])C([H])(n3nc(-c4c([H])c([H])c(Oc5c([H])c([H])c(F)c([H])c5F)c([H])c4[H])c(C(=O)N([H])[H])c3N([H])[H])C2([H])[H])c([H])nc1OC([H])(C([H])([H])[H])C([H])([H])C([H])([H])Oc1c([H])c([H])c2c(c1[H])C([H])([H])N(C(=O)C([H])(N([H])C(=O)C([H])(N([H])C([H])([H])[H])C([H])([H])[H])C(C([H])([H])[H])(C([H])([H])[H])C([H])([H])[H])C([H])(C(=O)N([H])C1([H])c3c([H])c([H])c([H])c([H])c3C([H])([H])C([H])([H])C1([H])[H])C2([H])[H]

>  <smiles>  (11) 
[H]c1nc(N([H])C(=O)N2C([H])([H])C([H])([H])C([H])([H])C([H])(n3nc(-c4c([H])c([H])c(Oc5c([H])c([H])c(F)c([H])c5F)c([H])c4[H])c(C(=O)N([H])[H])c3N([H])[H])C2([H])[H])c([H])nc1OC([H])(C([H])([H])[H])C([H])([H])C([H])([H])Oc1c([H])c([H])c2c(c1[H])C([H])([H])N(C(=O)C([H])(N([H])C(=O)C([H])(N([H])C([H])([H])[H])C([H])([H])[H])C(C([H])([H])[H])(C([H])([H])[H])C([H])([H])[H])C([H])(C(=O)N([H])C1([H])c3c([H])c([H])c([H])c([H])c3C([H])([H])C([H])([H])C1([H])[H])C2([H])[H]

$$$$
12:0:0
     RDKit          3D

 97105  0  0  1  0  0  0  0  0999 V2000
  -30.6140  -14.6670   20.0870 C   0  0  0  0  0  0  0  0  0  0  0  0
  -30.7240  -12.1540   19.7400 C   0  0  0  0  0  2  0  0  0  0  0  0
  -29.9130  -11.7810   18.4750 C   0  0  0  0  0  2  0  0  0  0  0  0
  -28.4210  -11.5980   18.8120 C   0  0  0  0  0  2  0  0  0  0  0  0
  -27.8710  -12.7380   19.7100 C   0  0  0  0  0  3  0  0  0  0  0  0
  -28.8110  -13.0410   20.8950 C   0  0  0  0  0  2  0  0  0  0  0  0
  -30.1220  -13.3850   20.3260 N   0  0  0  0  0  0  0  0  0  0  0  0
  -31.8220  -14.7740   19.8350 O   0  0  0  0  0  0  0  0  0  0  0  0
  -30.0220  -19.3190   18.4160 C   0  0  0  0  0  3  0  0  0  0  0  0
  -28.8200  -20.0320   18.7420 C   0  0  0  0  0  0  0  0  0  0  0  0
  -28.3030  -17.8440   19.9750 C   0  0  0  0  0  0  0  0  0  0  0  0
  -27.9870  -19.2080   19.5500 C   0  0  0  0  0  0  0  0  0  0  0  0
  -29.5290  -17.2000   19.5720 C   0  0  0  0  0  0  0  0  0  0  0  0
  -30.3480  -18.0020   18.7960 N   0  0  0  0  0  0  0  0  0  0  0  0
  -29.6810  -15.7320   20.0070 N   0  0  0  0  0  0  0  0  0  0  0  0
  -26.8300  -19.8020   19.9340 F   0  0  0  0  0  0  0  0  0  0  0  0
  -28.7800  -15.3900   20.2910 H   0  0  0  0  0  0  0  0  0  0  0  0
  -25.4620  -13.3960   20.2610 C   0  0  0  0  0  0  0  0  0  0  0  0
  -24.3640  -12.6650   20.6200 C   0  0  0  0  0  0  0  0  0  0  0  0
  -24.8070  -11.3100   20.7170 C   0  0  0  0  0  0  0  0  0  0  0  0
  -26.5020  -12.4910   20.1470 N   0  0  0  0  0  0  0  0  0  0  0  0
  -26.1150  -11.2350   20.4890 N   0  0  0  0  0  0  0  0  0  0  0  0
  -24.0510  -10.0750   20.9630 C   0  0  0  0  0  0  0  0  0  0  0  0
  -24.4860   -9.1110   21.8990 C   0  0  0  0  0  3  0  0  0  0  0  0
  -23.7290   -7.9410   22.1270 C   0  0  0  0  0  3  0  0  0  0  0  0
  -22.5230   -7.7270   21.4200 C   0  0  0  0  0  0  0  0  0  0  0  0
  -22.1050   -8.6800   20.4720 C   0  0  0  0  0  3  0  0  0  0  0  0
  -22.8620   -9.8420   20.2440 C   0  0  0  0  0  3  0  0  0  0  0  0
  -21.7380   -6.6080   21.5540 O   0  0  0  0  0  0  0  0  0  0  0  0
  -21.7260   -5.8730   22.7140 C   0  0  0  0  0  0  0  0  0  0  0  0
  -21.3560   -6.4430   23.9510 C   0  0  0  0  0  3  0  0  0  0  0  0
  -21.2940   -5.6370   25.1060 C   0  0  0  0  0  3  0  0  0  0  0  0
  -21.5830   -4.2630   25.0240 C   0  0  0  0  0  0  0  0  0  0  0  0
  -21.9430   -3.6920   23.7910 C   0  0  0  0  0  3  0  0  0  0  0  0
  -22.0130   -4.4960   22.6390 C   0  0  0  0  0  0  0  0  0  0  0  0
  -22.3390   -3.9370   21.4490 F   0  0  0  0  0  0  0  0  0  0  0  0
  -21.5140   -3.4860   26.1310 F   0  0  0  0  0  0  0  0  0  0  0  0
  -22.9630  -13.1840   20.7750 C   0  0  0  0  0  0  0  0  0  0  0  0
  -22.1920  -12.6020   21.6860 N   0  0  0  0  0  0  0  0  0  0  0  0
  -22.5590  -14.1450   20.1220 O   0  0  0  0  0  0  0  0  0  0  0  0
  -22.5330  -11.8360   22.2490 H   0  0  0  0  0  0  0  0  0  0  0  0
  -21.2500  -12.9380   21.8340 H   0  0  0  0  0  0  0  0  0  0  0  0
  -25.6600  -14.7450   20.0050 N   0  0  0  0  0  0  0  0  0  0  0  0
  -24.9140  -15.4080   20.1770 H   0  0  0  0  0  0  0  0  0  0  0  0
  -26.5680  -15.1880   20.0790 H   0  0  0  0  0  0  0  0  0  0  0  0
  -28.7170  -22.6560   17.8040 C   0  0  0  0  0  0  0  0  0  0  0  0
  -28.2940  -21.4330   18.3750 N   0  0  0  0  0  0  0  0  0  0  0  0
  -29.8630  -22.7590   17.3640 O   0  0  0  0  0  0  0  0  0  0  0  0
  -27.3320  -21.5220   18.6810 H   0  0  0  0  0  0  0  0  0  0  0  0
  -26.8380  -24.0070   18.9880 C   0  0  0  0  0  1  0  0  0  0  0  0
  -27.6940  -23.9670   17.7090 C   0  0  0  0  0  3  0  0  0  0  0  0
  -28.1500  -25.4480   17.4890 O   0  0  0  0  0  0  0  0  0  0  0  0
  -25.7100  -29.9510   22.8260 C   0  0  0  0  0  0  0  0  0  0  0  0
  -27.3150  -26.5340   17.9470 C   0  0  0  0  0  0  0  0  0  0  0  0
  -24.2380  -29.5350   20.8930 C   0  0  0  0  0  3  0  0  0  0  0  0
  -25.3470  -28.4760   18.8360 C   0  0  0  0  0  0  0  0  0  0  0  0
  -26.7970  -29.4480   20.6070 C   0  0  0  0  0  2  0  0  0  0  0  0
  -26.6040  -28.4460   19.4550 C   0  0  0  0  0  0  0  0  0  0  0  0
  -27.5940  -27.4950   19.0010 C   0  0  0  0  0  3  0  0  0  0  0  0
  -26.0580  -26.6920   17.3240 C   0  0  0  0  0  3  0  0  0  0  0  0
  -25.0880  -27.6140   17.7620 C   0  0  0  0  0  3  0  0  0  0  0  0
  -24.3030  -29.4530   19.3460 C   0  0  0  0  0  2  0  0  0  0  0  0
  -25.6070  -29.6410   21.4980 N   0  0  0  0  0  0  0  0  0  0  0  0
  -24.7050  -30.1580   23.5220 O   0  0  0  0  0  0  0  0  0  0  0  0
  -23.4180  -28.3390   21.4400 C   0  0  0  0  0  0  0  0  0  0  0  0
  -22.0770  -28.4370   21.3840 N   0  0  0  0  0  0  0  0  0  0  0  0
  -23.9890  -27.3400   21.8830 O   0  0  0  0  0  0  0  0  0  0  0  0
  -21.6810  -29.2910   21.0170 H   0  0  0  0  0  0  0  0  0  0  0  0
  -18.5510  -27.6470   21.6510 C   0  0  0  0  0  0  0  0  0  0  0  0
  -21.1230  -27.4070   21.8010 C   0  0  0  0  0  3  0  0  0  0  0  0
  -20.9780  -26.3120   20.7190 C   0  0  0  0  0  2  0  0  0  0  0  0
  -19.8240  -26.5740   19.7450 C   0  0  0  0  0  2  0  0  0  0  0  0
  -18.4930  -26.6580   20.4990 C   0  0  0  0  0  2  0  0  0  0  0  0
  -19.7870  -28.0110   22.2520 C   0  0  0  0  0  0  0  0  0  0  0  0
  -19.7840  -28.9590   23.2990 C   0  0  0  0  0  3  0  0  0  0  0  0
  -18.5820  -29.5370   23.7460 C   0  0  0  0  0  3  0  0  0  0  0  0
  -17.3610  -29.1630   23.1570 C   0  0  0  0  0  3  0  0  0  0  0  0
  -17.3470  -28.2170   22.1160 C   0  0  0  0  0  3  0  0  0  0  0  0
  -27.0970  -30.0780   23.5270 C   0  0  0  0  0  3  0  0  0  0  0  0
  -27.5390  -28.7540   24.2650 C   0  0  1  0  0  0  0  0  0  0  0  0
  -26.4700  -28.1930   25.2320 C   0  0  0  0  0  1  0  0  0  0  0  0
  -27.8810  -27.6410   23.2480 C   0  0  0  0  0  1  0  0  0  0  0  0
  -28.8280  -29.0160   25.0780 C   0  0  0  0  0  1  0  0  0  0  0  0
  -27.0140  -31.1920   24.4840 N   0  0  0  0  0  0  0  0  0  0  0  0
  -27.5760  -32.3950   24.3060 C   0  0  0  0  0  0  0  0  0  0  0  0
  -28.2850  -32.6640   23.3320 O   0  0  0  0  0  0  0  0  0  0  0  0
  -26.4000  -31.0640   25.2740 H   0  0  0  0  0  0  0  0  0  0  0  0
  -26.2830  -34.4840   24.8590 C   0  0  0  0  0  1  0  0  0  0  0  0
  -27.3160  -33.4710   25.3800 C   0  0  0  0  0  3  0  0  0  0  0  0
  -29.4670  -33.3510   26.5600 C   0  0  0  0  0  1  0  0  0  0  0  0
  -28.5390  -34.1890   25.8050 N   0  0  0  0  0  0  0  0  0  0  0  0
  -28.3010  -34.9950   26.3770 H   0  0  0  0  0  0  0  0  0  0  0  0
  -27.4520  -17.0700   20.8100 N   0  0  0  0  0  0  0  0  0  0  0  0
  -27.8300  -16.9370   21.7400 H   0  0  0  0  0  0  0  0  0  0  0  0
  -25.3990  -16.3850   21.9460 C   0  0  0  0  0  1  0  0  0  0  0  0
  -25.3110  -17.0240   19.5250 C   0  0  0  0  0  1  0  0  0  0  0  0
  -26.0100  -17.2910   20.8710 C   0  0  0  0  0  3  0  0  0  0  0  0
  1  7  1  0
  2  7  1  0
  3  4  1  0
  3  2  1  0
  5  4  1  0
  5 21  1  0
  5  6  1  0
  7  6  1  0
  8  1  2  0
  9 10  2  0
  9 14  1  0
 10 12  1  0
 11 93  1  0
 12 16  1  0
 12 11  2  0
 13 11  1  0
 13 15  1  0
 14 13  2  0
 15  1  1  0
 15 17  1  0
 18 19  2  0
 19 20  1  0
 19 38  1  0
 20 23  1  0
 21 18  1  0
 21 22  1  0
 22 20  2  0
 23 24  1  0
 24 25  2  0
 26 29  1  0
 26 25  1  0
 27 26  2  0
 28 27  1  0
 28 23  2  0
 29 30  1  0
 30 31  1  0
 31 32  2  0
 33 32  1  0
 33 37  1  0
 34 33  2  0
 35 30  2  0
 35 34  1  0
 36 35  1  0
 38 39  1  0
 39 42  1  0
 39 41  1  0
 40 38  2  0
 43 45  1  0
 43 44  1  0
 43 18  1  0
 46 47  1  0
 47 49  1  0
 47 10  1  0
 48 46  2  0
 51 46  1  0
 51 50  1  0
 52 51  1  0
 52 54  1  0
 53 64  2  0
 54 59  1  0
 55 65  1  0
 55 63  1  0
 56 62  1  0
 56 58  1  0
 57 63  1  0
 58 57  1  0
 59 58  2  0
 60 61  1  0
 60 54  2  0
 61 56  2  0
 62 55  1  0
 63 53  1  0
 65 67  2  0
 66 65  1  0
 68 66  1  0
 69 78  2  0
 69 74  1  0
 70 66  1  0
 70 74  1  0
 71 70  1  0
 72 73  1  0
 72 71  1  0
 73 69  1  0
 74 75  2  0
 75 76  1  0
 77 76  2  0
 78 77  1  0
 79 53  1  0
 79 80  1  0
 79 84  1  0
 80 83  1  1
 80 81  1  0
 82 80  1  0
 84 87  1  0
 85 84  1  0
 85 89  1  0
 86 85  2  0
 89 88  1  0
 89 91  1  0
 91 92  1  0
 91 90  1  0
 93 97  1  0
 93 94  1  0
 96 97  1  0
 97 95  1  0
M  ISO  4   1 100  15 100  51 101  52 101
M  END
>  <TORSDO>  (12) 
F 19

>  <SCORE>  (12) 
-5.935

>  <name>  (12) 
12

>  <ligand_id>  (12) 
12

>  <original_smiles>  (12) 
[H]c1nc(N([H])C(=O)N2C([H])([H])C([H])([H])C([H])([H])C([H])(n3nc(-c4c([H])c([H])c(Oc5c([H])c([H])c(F)c([H])c5F)c([H])c4[H])c(C(=O)N([H])[H])c3N([H])[H])C2([H])[H])c(N([H])C([H])(C([H])([H])[H])C([H])([H])[H])c(F)c1N([H])C(=O)C([H])(Oc1c([H])c([H])c2c(c1[H])C([H])([H])N(C(=O)C([H])(N([H])C(=O)C([H])(N([H])C([H])([H])[H])C([H])([H])[H])C(C([H])([H])[H])(C([H])([H])[H])C([H])([H])[H])C([H])(C(=O)N([H])C1([H])c3c([H])c([H])c([H])c([H])c3C([H])([H])C([H])([H])C1([H])[H])C2([H])[H])C([H])([H])[H]

>  <smiles>  (12) 
[H]c1nc(N([H])C(=O)N2C([H])([H])C([H])([H])C([H])([H])C([H])(n3nc(-c4c([H])c([H])c(Oc5c([H])c([H])c(F)c([H])c5F)c([H])c4[H])c(C(=O)N([H])[H])c3N([H])[H])C2([H])[H])c(N([H])C([H])(C([H])([H])[H])C([H])([H])[H])c(F)c1N([H])C(=O)C([H])(Oc1c([H])c([H])c2c(c1[H])C([H])([H])N(C(=O)C([H])(N([H])C(=O)C([H])(N([H])C([H])([H])[H])C([H])([H])[H])C(C([H])([H])[H])(C([H])([H])[H])C([H])([H])[H])C([H])(C(=O)N([H])C1([H])c3c([H])c([H])c([H])c([H])c3C([H])([H])C([H])([H])C1([H])[H])C2([H])[H])C([H])([H])[H]

$$$$
13:0:0
     RDKit          3D

 98106  0  0  1  0  0  0  0  0999 V2000
  -29.8370  -21.5270   20.6830 C   0  0  0  0  0  3  0  0  0  0  0  0
  -32.4340  -21.1060   20.6440 C   0  0  0  0  0  1  0  0  0  0  0  0
  -31.2620  -21.9880   21.1090 C   0  0  0  0  0  3  0  0  0  0  0  0
  -31.3470  -22.1880   22.8840 Cl  0  0  0  0  0  0  0  0  0  0  0  0
  -29.3690  -20.3790   21.4980 N   0  0  0  0  0  0  0  0  0  0  0  0
  -29.4570  -20.6800   22.4650 H   0  0  0  0  0  0  0  0  0  0  0  0
  -30.4460  -14.4870   20.0410 C   0  0  0  0  0  0  0  0  0  0  0  0
  -30.1340  -12.2970   18.9210 C   0  0  0  0  0  2  0  0  0  0  0  0
  -29.0970  -12.4560   17.7880 C   0  0  0  0  0  2  0  0  0  0  0  0
  -27.6620  -12.2880   18.3320 C   0  0  0  0  0  2  0  0  0  0  0  0
  -27.3990  -13.1220   19.6140 C   0  0  0  0  0  3  0  0  0  0  0  0
  -28.5430  -12.9460   20.6360 C   0  0  0  0  0  2  0  0  0  0  0  0
  -29.7990  -13.2900   19.9540 N   0  0  0  0  0  0  0  0  0  0  0  0
  -31.5890  -14.6500   19.6080 O   0  0  0  0  0  0  0  0  0  0  0  0
  -29.8890  -19.0470   21.4760 C   0  0  0  0  0  0  0  0  0  0  0  0
  -30.8220  -18.5860   22.3760 C   0  0  0  0  0  0  0  0  0  0  0  0
  -30.0710  -16.8050   20.9090 C   0  0  0  0  0  0  0  0  0  0  0  0
  -29.4450  -17.9860   20.6430 N   0  0  0  0  0  0  0  0  0  0  0  0
  -29.6600  -15.5510   20.3510 N   0  0  0  0  0  0  0  0  0  0  0  0
  -31.3660  -19.3540   23.3510 F   0  0  0  0  0  0  0  0  0  0  0  0
  -31.2980  -16.9280   22.1660 S   0  0  0  0  0  0  0  0  0  0  0  0
  -28.6710  -15.3680   20.3780 H   0  0  0  0  0  0  0  0  0  0  0  0
  -25.0630  -13.6900   20.5200 C   0  0  0  0  0  0  0  0  0  0  0  0
  -24.0330  -12.8990   20.9560 C   0  0  0  0  0  0  0  0  0  0  0  0
  -24.5020  -11.5530   20.8640 C   0  0  0  0  0  0  0  0  0  0  0  0
  -26.0940  -12.8230   20.1950 N   0  0  0  0  0  0  0  0  0  0  0  0
  -25.7660  -11.5330   20.4590 N   0  0  0  0  0  0  0  0  0  0  0  0
  -23.8030  -10.2800   21.0830 C   0  0  0  0  0  0  0  0  0  0  0  0
  -24.2780   -9.3300   22.0150 C   0  0  0  0  0  3  0  0  0  0  0  0
  -23.5790   -8.1210   22.2220 C   0  0  0  0  0  3  0  0  0  0  0  0
  -22.3930   -7.8540   21.4980 C   0  0  0  0  0  0  0  0  0  0  0  0
  -21.9370   -8.7940   20.5580 C   0  0  0  0  0  3  0  0  0  0  0  0
  -22.6360   -9.9940   20.3480 C   0  0  0  0  0  3  0  0  0  0  0  0
  -21.6630   -6.6950   21.6130 O   0  0  0  0  0  0  0  0  0  0  0  0
  -21.6360   -5.9770   22.7820 C   0  0  0  0  0  0  0  0  0  0  0  0
  -21.1630   -6.5350   23.9890 C   0  0  0  0  0  3  0  0  0  0  0  0
  -21.0850   -5.7400   25.1500 C   0  0  0  0  0  3  0  0  0  0  0  0
  -21.4720   -4.3870   25.1040 C   0  0  0  0  0  0  0  0  0  0  0  0
  -21.9380   -3.8280   23.9020 C   0  0  0  0  0  3  0  0  0  0  0  0
  -22.0160   -4.6200   22.7430 C   0  0  0  0  0  0  0  0  0  0  0  0
  -22.4470   -4.0710   21.5820 F   0  0  0  0  0  0  0  0  0  0  0  0
  -21.3910   -3.6220   26.2170 F   0  0  0  0  0  0  0  0  0  0  0  0
  -22.6570  -13.3580   21.3430 C   0  0  0  0  0  0  0  0  0  0  0  0
  -22.0020  -12.6330   22.2430 N   0  0  0  0  0  0  0  0  0  0  0  0
  -22.1740  -14.3910   20.8820 O   0  0  0  0  0  0  0  0  0  0  0  0
  -22.4080  -11.7970   22.6370 H   0  0  0  0  0  0  0  0  0  0  0  0
  -21.0820  -12.9200   22.5460 H   0  0  0  0  0  0  0  0  0  0  0  0
  -25.1990  -15.0640   20.3500 N   0  0  0  0  0  0  0  0  0  0  0  0
  -24.4180  -15.6980   20.4810 H   0  0  0  0  0  0  0  0  0  0  0  0
  -25.9960  -15.5090   19.9110 H   0  0  0  0  0  0  0  0  0  0  0  0
  -28.7530  -22.7020   20.6560 C   0  0  0  0  0  2  0  0  0  0  0  0
  -29.1320  -24.2500   20.7230 C   0  0  0  0  0  2  0  0  0  0  0  0
  -28.4860  -25.2500   19.6800 C   0  0  0  0  0  3  0  0  0  0  0  0
  -30.7270  -25.8330   18.5500 C   0  0  0  0  0  1  0  0  0  0  0  0
  -28.5960  -26.2680   17.3190 C   0  0  0  0  0  1  0  0  0  0  0  0
  -29.3510  -23.9410   17.6420 C   0  0  0  0  0  1  0  0  0  0  0  0
  -29.2840  -25.3210   18.3250 C   0  0  2  0  0  0  0  0  0  0  0  0
  -28.3790  -26.6150   20.2150 O   0  0  0  0  0  0  0  0  0  0  0  0
  -24.5150  -31.8800   23.1780 C   0  0  0  0  0  0  0  0  0  0  0  0
  -27.2020  -27.3710   20.1500 C   0  0  0  0  0  0  0  0  0  0  0  0
  -23.3380  -30.4840   21.5120 C   0  0  0  0  0  3  0  0  0  0  0  0
  -24.8140  -28.9430   20.1100 C   0  0  0  0  0  0  0  0  0  0  0  0
  -25.8750  -30.8210   21.3640 C   0  0  0  0  0  2  0  0  0  0  0  0
  -25.9690  -29.4460   20.7200 C   0  0  0  0  0  0  0  0  0  0  0  0
  -27.1610  -28.6720   20.7330 C   0  0  0  0  0  3  0  0  0  0  0  0
  -26.0140  -26.9040   19.5340 C   0  0  0  0  0  3  0  0  0  0  0  0
  -24.8360  -27.6730   19.5140 C   0  0  0  0  0  3  0  0  0  0  0  0
  -23.5740  -29.8130   20.1340 C   0  0  0  0  0  2  0  0  0  0  0  0
  -24.5940  -31.0770   22.0760 N   0  0  0  0  0  0  0  0  0  0  0  0
  -23.4260  -32.1540   23.6970 O   0  0  0  0  0  0  0  0  0  0  0  0
  -22.6660  -29.4610   22.4550 C   0  0  0  0  0  0  0  0  0  0  0  0
  -21.3450  -29.2740   22.2970 N   0  0  0  0  0  0  0  0  0  0  0  0
  -23.3300  -28.8390   23.2890 O   0  0  0  0  0  0  0  0  0  0  0  0
  -20.8680  -29.8310   21.6010 H   0  0  0  0  0  0  0  0  0  0  0  0
  -17.9620  -28.0720   22.7220 C   0  0  0  0  0  0  0  0  0  0  0  0
  -20.5140  -28.3330   23.0470 C   0  0  0  0  0  3  0  0  0  0  0  0
  -20.6280  -26.9030   22.4700 C   0  0  0  0  0  2  0  0  0  0  0  0
  -19.5490  -26.5810   21.4320 C   0  0  0  0  0  2  0  0  0  0  0  0
  -18.1540  -26.7240   22.0480 C   0  0  0  0  0  2  0  0  0  0  0  0
  -19.0710  -28.8340   23.1760 C   0  0  0  0  0  0  0  0  0  0  0  0
  -18.8420  -30.0980   23.7650 C   0  0  0  0  0  3  0  0  0  0  0  0
  -17.5340  -30.5980   23.9100 C   0  0  0  0  0  3  0  0  0  0  0  0
  -16.4380  -29.8330   23.4740 C   0  0  0  0  0  3  0  0  0  0  0  0
  -16.6530  -28.5730   22.8850 C   0  0  0  0  0  3  0  0  0  0  0  0
  -25.7890  -32.5100   23.8230 C   0  0  0  0  0  3  0  0  0  0  0  0
  -25.4740  -33.9080   24.1480 N   0  0  0  0  0  0  0  0  0  0  0  0
  -25.8260  -34.9610   23.3970 C   0  0  0  0  0  0  0  0  0  0  0  0
  -26.5200  -34.8570   22.3820 O   0  0  0  0  0  0  0  0  0  0  0  0
  -24.8670  -34.0660   24.9390 H   0  0  0  0  0  0  0  0  0  0  0  0
  -24.1210  -36.7630   22.9910 C   0  0  0  0  0  1  0  0  0  0  0  0
  -25.3310  -36.3500   23.8450 C   0  0  0  0  0  3  0  0  0  0  0  0
  -27.4320  -37.2240   24.7640 C   0  0  0  0  0  1  0  0  0  0  0  0
  -26.3720  -37.3980   23.7740 N   0  0  0  0  0  0  0  0  0  0  0  0
  -25.9640  -38.3180   23.9090 H   0  0  0  0  0  0  0  0  0  0  0  0
  -26.2810  -31.7370   25.1070 C   0  0  1  0  0  0  0  0  0  0  0  0
  -25.1660  -31.4930   26.1510 C   0  0  0  0  0  1  0  0  0  0  0  0
  -26.8750  -30.3620   24.7200 C   0  0  0  0  0  1  0  0  0  0  0  0
  -27.4180  -32.5300   25.7930 C   0  0  0  0  0  1  0  0  0  0  0  0
  1 51  1  0
  1  3  1  0
  1  5  1  0
  3  2  1  0
  3  4  1  0
  5  6  1  0
  7 19  1  0
  8 13  1  0
  9 10  1  0
  9  8  1  0
 11 10  1  0
 11 26  1  0
 11 12  1  0
 13  7  1  0
 13 12  1  0
 14  7  2  0
 15  5  1  0
 15 16  2  0
 16 20  1  0
 17 21  1  0
 18 17  2  0
 18 15  1  0
 19 22  1  0
 19 17  1  0
 21 16  1  0
 23 24  2  0
 24 43  1  0
 25 24  1  0
 25 28  1  0
 26 27  1  0
 26 23  1  0
 27 25  2  0
 28 29  1  0
 29 30  2  0
 31 34  1  0
 31 30  1  0
 32 31  2  0
 33 32  1  0
 33 28  2  0
 34 35  1  0
 35 36  1  0
 36 37  2  0
 38 37  1  0
 38 42  1  0
 39 38  2  0
 40 35  2  0
 40 39  1  0
 41 40  1  0
 43 44  1  0
 44 47  1  0
 44 46  1  0
 45 43  2  0
 48 49  1  0
 48 23  1  0
 50 48  1  0
 51 52  1  0
 53 58  1  0
 53 52  1  0
 57 55  1  6
 56 57  1  0
 57 54  1  0
 57 53  1  0
 59 70  2  0
 60 58  1  0
 60 65  1  0
 61 69  1  0
 61 71  1  0
 62 68  1  0
 62 64  1  0
 63 69  1  0
 64 65  2  0
 64 63  1  0
 66 60  2  0
 67 66  1  0
 67 62  2  0
 68 61  1  0
 69 59  1  0
 71 73  2  0
 72 71  1  0
 74 72  1  0
 75 84  2  0
 75 80  1  0
 76 72  1  0
 76 80  1  0
 77 76  1  0
 78 79  1  0
 78 77  1  0
 79 75  1  0
 80 81  2  0
 81 82  1  0
 83 82  2  0
 84 83  1  0
 85 59  1  0
 85 86  1  0
 85 95  1  0
 86 89  1  0
 87 91  1  0
 87 86  1  0
 88 87  2  0
 91 90  1  0
 93 91  1  0
 93 94  1  0
 93 92  1  0
 95 98  1  1
 95 96  1  0
 97 95  1  0
M  ISO  4   7 100  19 100  53 101  58 101
M  END
>  <TORSDO>  (13) 
F 22

>  <SCORE>  (13) 
-12.520

>  <name>  (13) 
13

>  <ligand_id>  (13) 
13

>  <original_smiles>  (13) 
[H]c1c([H])c([H])c2c(c1[H])C([H])([H])C([H])([H])C([H])([H])C2([H])N([H])C(=O)C1([H])N(C(=O)C([H])(N([H])C(=O)C([H])(N([H])C([H])([H])[H])C([H])([H])[H])C(C([H])([H])[H])(C([H])([H])[H])C([H])([H])[H])C([H])([H])c2c([H])c(OC([H])(C([H])([H])C([H])([H])C([H])(N([H])c3nc(N([H])C(=O)N4C([H])([H])C([H])([H])C([H])([H])C([H])(n5nc(-c6c([H])c([H])c(Oc7c([H])c([H])c(F)c([H])c7F)c([H])c6[H])c(C(=O)N([H])[H])c5N([H])[H])C4([H])[H])sc3F)C([H])(Cl)C([H])([H])[H])C(C([H])([H])[H])(C([H])([H])[H])C([H])([H])[H])c([H])c([H])c2C1([H])[H]

>  <smiles>  (13) 
[H]c1c([H])c([H])c2c(c1[H])C([H])([H])C([H])([H])C([H])([H])C2([H])N([H])C(=O)C1([H])N(C(=O)C([H])(N([H])C(=O)C([H])(N([H])C([H])([H])[H])C([H])([H])[H])C(C([H])([H])[H])(C([H])([H])[H])C([H])([H])[H])C([H])([H])c2c([H])c(OC([H])(C([H])([H])C([H])([H])C([H])(N([H])c3nc(N([H])C(=O)N4C([H])([H])C([H])([H])C([H])([H])C([H])(n5nc(-c6c([H])c([H])c(Oc7c([H])c([H])c(F)c([H])c7F)c([H])c6[H])c(C(=O)N([H])[H])c5N([H])[H])C4([H])[H])sc3F)C([H])(Cl)C([H])([H])[H])C(C([H])([H])[H])(C([H])([H])[H])C([H])([H])[H])c([H])c([H])c2C1([H])[H]

$$$$
14:0:0
     RDKit          3D

 95103  0  0  1  0  0  0  0  0999 V2000
  -29.3020  -19.1710   19.4740 C   0  0  0  0  0  0  0  0  0  0  0  0
  -30.1260  -18.5850   20.4160 C   0  0  0  0  0  0  0  0  0  0  0  0
  -29.4270  -20.9370   20.9330 C   0  0  0  0  0  0  0  0  0  0  0  0
  -28.8250  -23.4080   20.8730 C   0  0  0  0  0  0  0  0  0  0  0  0
  -28.8360  -18.5740   18.1800 C   0  0  0  0  0  1  0  0  0  0  0  0
  -28.9230  -20.4940   19.7740 N   0  0  0  0  0  0  0  0  0  0  0  0
  -29.1980  -22.2480   21.4710 N   0  0  0  0  0  0  0  0  0  0  0  0
  -28.6320  -23.5260   19.6600 O   0  0  0  0  0  0  0  0  0  0  0  0
  -30.3600  -19.6840   21.7710 S   0  0  0  0  0  0  0  0  0  0  0  0
  -29.3640  -22.3250   22.4630 H   0  0  0  0  0  0  0  0  0  0  0  0
  -30.8760  -17.2580   20.3070 C   0  0  0  0  0  2  0  0  0  0  0  0
  -30.1900  -15.9180   20.7550 C   0  0  0  0  0  3  0  0  0  0  0  0
  -30.1730  -15.8530   22.0890 F   0  0  0  0  0  0  0  0  0  0  0  0
  -30.8760  -14.6300   20.1760 C   0  0  0  0  0  0  0  0  0  0  0  0
  -30.5120  -12.5030   18.9650 C   0  0  0  0  0  2  0  0  0  0  0  0
  -29.5240  -12.7600   17.8070 C   0  0  0  0  0  2  0  0  0  0  0  0
  -28.0690  -12.6040   18.2920 C   0  0  0  0  0  2  0  0  0  0  0  0
  -27.7890  -13.3920   19.5990 C   0  0  0  0  0  3  0  0  0  0  0  0
  -28.8930  -13.1500   20.6530 C   0  0  0  0  0  2  0  0  0  0  0  0
  -30.1910  -13.4580   20.0410 N   0  0  0  0  0  0  0  0  0  0  0  0
  -32.0100  -14.7500   19.6990 O   0  0  0  0  0  0  0  0  0  0  0  0
  -25.4240  -13.9730   20.4230 C   0  0  0  0  0  0  0  0  0  0  0  0
  -24.3730  -13.1900   20.8200 C   0  0  0  0  0  0  0  0  0  0  0  0
  -24.8370  -11.8410   20.7460 C   0  0  0  0  0  0  0  0  0  0  0  0
  -26.4600  -13.1000   20.1310 N   0  0  0  0  0  0  0  0  0  0  0  0
  -26.1140  -11.8120   20.3860 N   0  0  0  0  0  0  0  0  0  0  0  0
  -24.1220  -10.5720   20.9410 C   0  0  0  0  0  0  0  0  0  0  0  0
  -24.5520   -9.6210   21.8910 C   0  0  0  0  0  3  0  0  0  0  0  0
  -23.8370   -8.4170   22.0730 C   0  0  0  0  0  3  0  0  0  0  0  0
  -22.6780   -8.1570   21.3030 C   0  0  0  0  0  0  0  0  0  0  0  0
  -22.2690   -9.0970   20.3430 C   0  0  0  0  0  3  0  0  0  0  0  0
  -22.9830  -10.2930   20.1590 C   0  0  0  0  0  3  0  0  0  0  0  0
  -21.9360   -7.0050   21.3930 O   0  0  0  0  0  0  0  0  0  0  0  0
  -21.8190   -6.3130   22.5720 C   0  0  0  0  0  0  0  0  0  0  0  0
  -21.2780   -6.9070   23.7330 C   0  0  0  0  0  3  0  0  0  0  0  0
  -21.1120   -6.1390   24.9040 C   0  0  0  0  0  3  0  0  0  0  0  0
  -21.4780   -4.7800   24.9140 C   0  0  0  0  0  0  0  0  0  0  0  0
  -22.0120   -4.1860   23.7560 C   0  0  0  0  0  3  0  0  0  0  0  0
  -22.1790   -4.9500   22.5880 C   0  0  0  0  0  0  0  0  0  0  0  0
  -22.6750   -4.3680   21.4700 F   0  0  0  0  0  0  0  0  0  0  0  0
  -21.3110   -4.0410   26.0350 F   0  0  0  0  0  0  0  0  0  0  0  0
  -22.9870  -13.6580   21.1560 C   0  0  0  0  0  0  0  0  0  0  0  0
  -22.2940  -12.9420   22.0350 N   0  0  0  0  0  0  0  0  0  0  0  0
  -22.5260  -14.6920   20.6740 O   0  0  0  0  0  0  0  0  0  0  0  0
  -22.6780  -12.1050   22.4470 H   0  0  0  0  0  0  0  0  0  0  0  0
  -21.3650  -13.2380   22.3010 H   0  0  0  0  0  0  0  0  0  0  0  0
  -25.5750  -15.3470   20.2630 N   0  0  0  0  0  0  0  0  0  0  0  0
  -24.8110  -15.9950   20.4180 H   0  0  0  0  0  0  0  0  0  0  0  0
  -26.4110  -15.7990   19.9150 H   0  0  0  0  0  0  0  0  0  0  0  0
  -28.5740  -24.6240   21.8210 C   0  0  0  0  0  3  0  0  0  0  0  0
  -30.5860  -26.1790   21.3400 C   0  0  0  0  0  1  0  0  0  0  0  0
  -29.0570  -26.0770   21.4270 C   0  0  0  0  0  3  0  0  0  0  0  0
  -28.5610  -26.6080   20.1850 O   0  0  0  0  0  0  0  0  0  0  0  0
  -24.6030  -31.8240   23.1630 C   0  0  0  0  0  0  0  0  0  0  0  0
  -27.4150  -27.3800   20.2190 C   0  0  0  0  0  0  0  0  0  0  0  0
  -23.4790  -30.3940   21.4870 C   0  0  0  0  0  3  0  0  0  0  0  0
  -25.0080  -28.8680   20.1270 C   0  0  0  0  0  0  0  0  0  0  0  0
  -26.0060  -30.7820   21.3840 C   0  0  0  0  0  2  0  0  0  0  0  0
  -26.1360  -29.4030   20.7660 C   0  0  0  0  0  0  0  0  0  0  0  0
  -27.3440  -28.6640   20.8180 C   0  0  0  0  0  3  0  0  0  0  0  0
  -26.2800  -26.8730   19.5590 C   0  0  0  0  0  3  0  0  0  0  0  0
  -25.0750  -27.6000   19.5230 C   0  0  0  0  0  3  0  0  0  0  0  0
  -23.7520  -29.7110   20.1210 C   0  0  0  0  0  2  0  0  0  0  0  0
  -24.7120  -31.0170   22.0700 N   0  0  0  0  0  0  0  0  0  0  0  0
  -23.4980  -32.0830   23.6620 O   0  0  0  0  0  0  0  0  0  0  0  0
  -22.8080  -29.3690   22.4290 C   0  0  0  0  0  0  0  0  0  0  0  0
  -21.4860  -29.1870   22.2750 N   0  0  0  0  0  0  0  0  0  0  0  0
  -23.4750  -28.7400   23.2560 O   0  0  0  0  0  0  0  0  0  0  0  0
  -21.0100  -29.7490   21.5830 H   0  0  0  0  0  0  0  0  0  0  0  0
  -18.0990  -28.0040   22.7180 C   0  0  0  0  0  0  0  0  0  0  0  0
  -20.6550  -28.2450   23.0230 C   0  0  0  0  0  3  0  0  0  0  0  0
  -20.7580  -26.8200   22.4310 C   0  0  0  0  0  2  0  0  0  0  0  0
  -19.6650  -26.5130   21.4020 C   0  0  0  0  0  2  0  0  0  0  0  0
  -18.2770  -26.6600   22.0320 C   0  0  0  0  0  2  0  0  0  0  0  0
  -19.2170  -28.7550   23.1690 C   0  0  0  0  0  0  0  0  0  0  0  0
  -18.9970  -30.0140   23.7710 C   0  0  0  0  0  3  0  0  0  0  0  0
  -17.6940  -30.5190   23.9260 C   0  0  0  0  0  3  0  0  0  0  0  0
  -16.5900  -29.7660   23.4890 C   0  0  0  0  0  3  0  0  0  0  0  0
  -16.7940  -28.5100   22.8910 C   0  0  0  0  0  3  0  0  0  0  0  0
  -25.8550  -32.4790   23.8240 C   0  0  0  0  0  3  0  0  0  0  0  0
  -25.5100  -33.8690   24.1480 N   0  0  0  0  0  0  0  0  0  0  0  0
  -25.8320  -34.9270   23.3930 C   0  0  0  0  0  0  0  0  0  0  0  0
  -26.5200  -34.8380   22.3720 O   0  0  0  0  0  0  0  0  0  0  0  0
  -24.9010  -34.0110   24.9410 H   0  0  0  0  0  0  0  0  0  0  0  0
  -24.0700  -36.6800   23.0040 C   0  0  0  0  0  1  0  0  0  0  0  0
  -25.3040  -36.3050   23.8400 C   0  0  0  0  0  3  0  0  0  0  0  0
  -27.3970  -37.2420   24.7170 C   0  0  0  0  0  1  0  0  0  0  0  0
  -26.3150  -37.3800   23.7460 N   0  0  0  0  0  0  0  0  0  0  0  0
  -25.8850  -38.2920   23.8780 H   0  0  0  0  0  0  0  0  0  0  0  0
  -26.3510  -31.7120   25.1120 C   0  0  1  0  0  0  0  0  0  0  0  0
  -25.2320  -31.4450   26.1450 C   0  0  0  0  0  1  0  0  0  0  0  0
  -26.9750  -30.3490   24.7290 C   0  0  0  0  0  1  0  0  0  0  0  0
  -27.4640  -32.5270   25.8110 C   0  0  0  0  0  1  0  0  0  0  0  0
  -27.2040  -24.6700   22.1780 O   0  0  0  0  0  0  0  0  0  0  0  0
  -26.7380  -24.9180   21.3870 H   0  0  0  0  0  0  0  0  0  0  0  0
  1  6  1  0
  1  2  2  0
  2  9  1  0
  3  7  1  0
  3  9  1  0
  4  7  1  0
  5  1  1  0
  6  3  2  0
  7 10  1  0
  8  4  2  0
 11  2  1  0
 11 12  1  0
 12 13  1  0
 14 12  1  0
 15 20  1  0
 16 17  1  0
 16 15  1  0
 18 17  1  0
 18 25  1  0
 18 19  1  0
 20 14  1  0
 20 19  1  0
 21 14  2  0
 22 23  2  0
 23 42  1  0
 24 23  1  0
 24 27  1  0
 25 26  1  0
 25 22  1  0
 26 24  2  0
 27 28  1  0
 28 29  2  0
 30 33  1  0
 30 29  1  0
 31 30  2  0
 32 31  1  0
 32 27  2  0
 33 34  1  0
 34 39  2  0
 34 35  1  0
 35 36  2  0
 36 37  1  0
 37 41  1  0
 38 37  2  0
 39 38  1  0
 40 39  1  0
 42 43  1  0
 43 46  1  0
 43 45  1  0
 44 42  2  0
 47 48  1  0
 47 22  1  0
 49 47  1  0
 50  4  1  0
 50 94  1  0
 52 51  1  0
 52 50  1  0
 53 55  1  0
 53 52  1  0
 54 65  2  0
 55 60  1  0
 56 64  1  0
 56 66  1  0
 57 59  1  0
 58 64  1  0
 59 60  2  0
 59 58  1  0
 61 55  2  0
 62 61  1  0
 62 57  2  0
 63 57  1  0
 63 56  1  0
 64 54  1  0
 66 68  2  0
 67 66  1  0
 69 67  1  0
 70 79  2  0
 70 75  1  0
 71 67  1  0
 71 75  1  0
 72 71  1  0
 73 74  1  0
 73 72  1  0
 74 70  1  0
 75 76  2  0
 76 77  1  0
 78 77  2  0
 79 78  1  0
 80 54  1  0
 80 81  1  0
 80 90  1  0
 81 84  1  0
 82 86  1  0
 82 81  1  0
 83 82  2  0
 86 85  1  0
 88 86  1  0
 88 89  1  0
 88 87  1  0
 90 93  1  1
 90 91  1  0
 92 90  1  0
 95 94  1  0
M  ISO  4  12 100  14 100  52 101  53 101
M  END
>  <TORSDO>  (14) 
F 21

>  <SCORE>  (14) 
-13.849

>  <name>  (14) 
14

>  <ligand_id>  (14) 
14

>  <original_smiles>  (14) 
[H]OC([H])(C(=O)N([H])c1nc(C([H])([H])[H])c(C([H])([H])C([H])(F)C(=O)N2C([H])([H])C([H])([H])C([H])([H])C([H])(n3nc(-c4c([H])c([H])c(Oc5c([H])c([H])c(F)c([H])c5F)c([H])c4[H])c(C(=O)N([H])[H])c3N([H])[H])C2([H])[H])s1)C([H])(Oc1c([H])c([H])c2c(c1[H])C([H])([H])N(C(=O)C([H])(N([H])C(=O)C([H])(N([H])C([H])([H])[H])C([H])([H])[H])C(C([H])([H])[H])(C([H])([H])[H])C([H])([H])[H])C([H])(C(=O)N([H])C1([H])c3c([H])c([H])c([H])c([H])c3C([H])([H])C([H])([H])C1([H])[H])C2([H])[H])C([H])([H])[H]

>  <smiles>  (14) 
[H]OC([H])(C(=O)N([H])c1nc(C([H])([H])[H])c(C([H])([H])C([H])(F)C(=O)N2C([H])([H])C([H])([H])C([H])([H])C([H])(n3nc(-c4c([H])c([H])c(Oc5c([H])c([H])c(F)c([H])c5F)c([H])c4[H])c(C(=O)N([H])[H])c3N([H])[H])C2([H])[H])s1)C([H])(Oc1c([H])c([H])c2c(c1[H])C([H])([H])N(C(=O)C([H])(N([H])C(=O)C([H])(N([H])C([H])([H])[H])C([H])([H])[H])C(C([H])([H])[H])(C([H])([H])[H])C([H])([H])[H])C([H])(C(=O)N([H])C1([H])c3c([H])c([H])c([H])c([H])c3C([H])([H])C([H])([H])C1([H])[H])C2([H])[H])C([H])([H])[H]

$$$$
15:0:0
     RDKit          3D

 91 99  0  0  1  0  0  0  0  0999 V2000
  -29.5960  -18.6760   20.4560 C   0  0  0  0  0  0  0  0  0  0  0  0
  -28.3340  -19.1040   20.0780 C   0  0  0  0  0  0  0  0  0  0  0  0
  -29.1260  -21.2400   20.5530 C   0  0  0  0  0  0  0  0  0  0  0  0
  -28.4560  -23.7710   20.2400 C   0  0  0  0  0  0  0  0  0  0  0  0
  -28.0850  -20.5100   20.1100 N   0  0  0  0  0  0  0  0  0  0  0  0
  -29.0740  -22.6890   20.8450 N   0  0  0  0  0  0  0  0  0  0  0  0
  -27.9900  -23.6850   19.1000 O   0  0  0  0  0  0  0  0  0  0  0  0
  -27.4100  -18.2650   19.6740 F   0  0  0  0  0  0  0  0  0  0  0  0
  -30.4970  -20.1360   20.9550 S   0  0  0  0  0  0  0  0  0  0  0  0
  -29.5820  -22.9470   21.6790 H   0  0  0  0  0  0  0  0  0  0  0  0
  -30.2020  -17.3050   20.4860 C   0  0  0  0  0  3  0  0  0  0  0  0
  -29.7210  -16.0030   20.5110 C   0  0  0  0  0  3  0  0  0  0  0  0
  -30.5670  -14.7550   20.3770 C   0  0  0  0  0  0  0  0  0  0  0  0
  -30.3610  -12.4760   19.3830 C   0  0  0  0  0  2  0  0  0  0  0  0
  -29.4340  -12.5620   18.1480 C   0  0  0  0  0  2  0  0  0  0  0  0
  -27.9580  -12.3930   18.5640 C   0  0  0  0  0  2  0  0  0  0  0  0
  -27.5770  -13.2840   19.7740 C   0  0  0  0  0  3  0  0  0  0  0  0
  -28.6260  -13.1930   20.9040 C   0  0  0  0  0  2  0  0  0  0  0  0
  -29.9350  -13.5300   20.3320 N   0  0  0  0  0  0  0  0  0  0  0  0
  -31.7670  -14.8140   20.0920 O   0  0  0  0  0  0  0  0  0  0  0  0
  -25.1880  -13.8880   20.4850 C   0  0  0  0  0  0  0  0  0  0  0  0
  -24.1180  -13.1180   20.8530 C   0  0  0  0  0  0  0  0  0  0  0  0
  -24.5780  -11.7660   20.8360 C   0  0  0  0  0  0  0  0  0  0  0  0
  -26.2300  -13.0040   20.2600 N   0  0  0  0  0  0  0  0  0  0  0  0
  -25.8710  -11.7240   20.5370 N   0  0  0  0  0  0  0  0  0  0  0  0
  -23.8490  -10.5070   21.0290 C   0  0  0  0  0  0  0  0  0  0  0  0
  -24.2760   -9.5410   21.9660 C   0  0  0  0  0  3  0  0  0  0  0  0
  -23.5470   -8.3460   22.1470 C   0  0  0  0  0  3  0  0  0  0  0  0
  -22.3750   -8.1080   21.3890 C   0  0  0  0  0  0  0  0  0  0  0  0
  -21.9670   -9.0620   20.4400 C   0  0  0  0  0  3  0  0  0  0  0  0
  -22.6970  -10.2490   20.2580 C   0  0  0  0  0  3  0  0  0  0  0  0
  -21.6180   -6.9660   21.4790 O   0  0  0  0  0  0  0  0  0  0  0  0
  -21.5670   -6.2240   22.6320 C   0  0  0  0  0  0  0  0  0  0  0  0
  -21.1510   -6.7840   23.8610 C   0  0  0  0  0  3  0  0  0  0  0  0
  -21.0480   -5.9690   25.0060 C   0  0  0  0  0  3  0  0  0  0  0  0
  -21.3490   -4.5960   24.9230 C   0  0  0  0  0  0  0  0  0  0  0  0
  -21.7580   -4.0370   23.7000 C   0  0  0  0  0  3  0  0  0  0  0  0
  -21.8640   -4.8480   22.5570 C   0  0  0  0  0  0  0  0  0  0  0  0
  -22.2370   -4.3010   21.3750 F   0  0  0  0  0  0  0  0  0  0  0  0
  -21.2430   -3.8120   26.0210 F   0  0  0  0  0  0  0  0  0  0  0  0
  -22.7190  -13.6000   21.1080 C   0  0  0  0  0  0  0  0  0  0  0  0
  -21.9820  -12.9110   21.9720 N   0  0  0  0  0  0  0  0  0  0  0  0
  -22.2890  -14.6220   20.5750 O   0  0  0  0  0  0  0  0  0  0  0  0
  -22.3440  -12.0840   22.4250 H   0  0  0  0  0  0  0  0  0  0  0  0
  -21.0430  -13.2150   22.1840 H   0  0  0  0  0  0  0  0  0  0  0  0
  -25.3550  -15.2560   20.2980 N   0  0  0  0  0  0  0  0  0  0  0  0
  -24.5850  -15.9090   20.3950 H   0  0  0  0  0  0  0  0  0  0  0  0
  -26.2020  -15.6950   19.9600 H   0  0  0  0  0  0  0  0  0  0  0  0
  -29.3330  -25.3060   22.1600 C   0  0  0  0  0  1  0  0  0  0  0  0
  -28.3110  -25.1730   21.0190 C   0  0  0  0  0  3  0  0  0  0  0  0
  -28.3960  -26.4490   20.2450 O   0  0  0  0  0  0  0  0  0  0  0  0
  -24.6310  -31.8920   23.2580 C   0  0  0  0  0  0  0  0  0  0  0  0
  -27.2870  -27.3140   20.2550 C   0  0  0  0  0  0  0  0  0  0  0  0
  -23.4480  -30.4780   21.6160 C   0  0  0  0  0  3  0  0  0  0  0  0
  -24.9190  -28.9230   20.2130 C   0  0  0  0  0  0  0  0  0  0  0  0
  -25.9880  -30.8070   21.4500 C   0  0  0  0  0  2  0  0  0  0  0  0
  -26.0830  -29.4210   20.8140 C   0  0  0  0  0  0  0  0  0  0  0  0
  -27.2750  -28.6310   20.8200 C   0  0  0  0  0  3  0  0  0  0  0  0
  -26.1040  -26.8670   19.6370 C   0  0  0  0  0  3  0  0  0  0  0  0
  -24.9330  -27.6510   19.6140 C   0  0  0  0  0  3  0  0  0  0  0  0
  -23.6780  -29.7940   20.2430 C   0  0  0  0  0  2  0  0  0  0  0  0
  -24.7080  -31.0780   22.1650 N   0  0  0  0  0  0  0  0  0  0  0  0
  -23.5430  -32.1660   23.7840 O   0  0  0  0  0  0  0  0  0  0  0  0
  -22.7830  -29.4640   22.5770 C   0  0  0  0  0  0  0  0  0  0  0  0
  -21.4570  -29.2860   22.4470 N   0  0  0  0  0  0  0  0  0  0  0  0
  -23.4580  -28.8410   23.3990 O   0  0  0  0  0  0  0  0  0  0  0  0
  -20.9710  -29.8410   21.7560 H   0  0  0  0  0  0  0  0  0  0  0  0
  -18.0780  -28.0910   22.9440 C   0  0  0  0  0  0  0  0  0  0  0  0
  -20.6360  -28.3500   23.2180 C   0  0  0  0  0  3  0  0  0  0  0  0
  -20.7390  -26.9180   22.6420 C   0  0  0  0  0  2  0  0  0  0  0  0
  -19.6380  -26.5960   21.6260 C   0  0  0  0  0  2  0  0  0  0  0  0
  -18.2560  -26.7410   22.2680 C   0  0  0  0  0  2  0  0  0  0  0  0
  -19.1960  -28.8530   23.3750 C   0  0  0  0  0  0  0  0  0  0  0  0
  -18.9770  -30.1160   23.9670 C   0  0  0  0  0  3  0  0  0  0  0  0
  -17.6720  -30.6170   24.1310 C   0  0  0  0  0  3  0  0  0  0  0  0
  -16.5680  -29.8530   23.7160 C   0  0  0  0  0  3  0  0  0  0  0  0
  -16.7720  -28.5910   23.1280 C   0  0  0  0  0  3  0  0  0  0  0  0
  -25.9060  -32.5350   23.8880 C   0  0  0  0  0  3  0  0  0  0  0  0
  -25.5870  -33.9340   24.2070 N   0  0  0  0  0  0  0  0  0  0  0  0
  -25.9180  -34.9840   23.4440 C   0  0  0  0  0  0  0  0  0  0  0  0
  -26.5930  -34.8780   22.4170 O   0  0  0  0  0  0  0  0  0  0  0  0
  -24.9870  -34.0910   25.0040 H   0  0  0  0  0  0  0  0  0  0  0  0
  -24.1820  -36.7670   23.0720 C   0  0  0  0  0  1  0  0  0  0  0  0
  -25.4230  -36.3740   23.8890 C   0  0  0  0  0  3  0  0  0  0  0  0
  -27.5510  -37.2750   24.7200 C   0  0  0  0  0  1  0  0  0  0  0  0
  -26.4500  -37.4310   23.7730 N   0  0  0  0  0  0  0  0  0  0  0  0
  -26.0400  -38.3510   23.9130 H   0  0  0  0  0  0  0  0  0  0  0  0
  -26.4130  -31.7760   25.1760 C   0  0  1  0  0  0  0  0  0  0  0  0
  -25.3110  -31.5430   26.2360 C   0  0  0  0  0  1  0  0  0  0  0  0
  -27.0030  -30.3950   24.8010 C   0  0  0  0  0  1  0  0  0  0  0  0
  -27.5550  -32.5780   25.8420 C   0  0  0  0  0  1  0  0  0  0  0  0
  1 11  1  0
  1  9  1  0
  2  5  1  0
  2  1  2  0
  3  6  1  0
  3  9  1  0
  4  6  1  0
  4 50  1  0
  5  3  2  0
  6 10  1  0
  7  4  2  0
  8  2  1  0
 11 12  2  0
 13 12  1  0
 14 19  1  0
 15 16  1  0
 15 14  1  0
 17 16  1  0
 17 24  1  0
 17 18  1  0
 19 13  1  0
 19 18  1  0
 20 13  2  0
 21 22  2  0
 22 41  1  0
 23 22  1  0
 23 26  1  0
 24 21  1  0
 24 25  1  0
 25 23  2  0
 26 27  1  0
 27 28  2  0
 29 32  1  0
 29 28  1  0
 30 29  2  0
 31 30  1  0
 31 26  2  0
 32 33  1  0
 33 34  1  0
 34 35  2  0
 36 35  1  0
 36 40  1  0
 37 36  2  0
 38 33  2  0
 38 37  1  0
 39 38  1  0
 41 42  1  0
 42 45  1  0
 42 44  1  0
 43 41  2  0
 46 47  1  0
 46 21  1  0
 48 46  1  0
 50 49  1  0
 51 53  1  0
 51 50  1  0
 52 63  2  0
 53 58  1  0
 54 62  1  0
 54 64  1  0
 55 61  1  0
 55 57  1  0
 56 62  1  0
 57 58  2  0
 57 56  1  0
 59 53  2  0
 60 59  1  0
 60 55  2  0
 61 54  1  0
 62 52  1  0
 64 66  2  0
 65 64  1  0
 67 65  1  0
 68 77  2  0
 68 73  1  0
 69 65  1  0
 69 73  1  0
 70 69  1  0
 71 72  1  0
 71 70  1  0
 72 68  1  0
 73 74  2  0
 74 75  1  0
 76 75  2  0
 77 76  1  0
 78 52  1  0
 78 79  1  0
 78 88  1  0
 79 82  1  0
 80 84  1  0
 80 79  1  0
 81 80  2  0
 84 83  1  0
 86 84  1  0
 86 87  1  0
 86 85  1  0
 88 91  1  1
 88 89  1  0
 90 88  1  0
M  ISO  4  12 100  13 100  50 101  51 101
M  END
>  <TORSDO>  (15) 
F 18

>  <SCORE>  (15) 
-14.889

>  <name>  (15) 
15

>  <ligand_id>  (15) 
15

>  <original_smiles>  (15) 
[H]C(C(=O)N1C([H])([H])C([H])([H])C([H])([H])C([H])(n2nc(-c3c([H])c([H])c(Oc4c([H])c([H])c(F)c([H])c4F)c([H])c3[H])c(C(=O)N([H])[H])c2N([H])[H])C1([H])[H])=C([H])c1sc(N([H])C(=O)C([H])(Oc2c([H])c([H])c3c(c2[H])C([H])([H])N(C(=O)C([H])(N([H])C(=O)C([H])(N([H])C([H])([H])[H])C([H])([H])[H])C(C([H])([H])[H])(C([H])([H])[H])C([H])([H])[H])C([H])(C(=O)N([H])C2([H])c4c([H])c([H])c([H])c([H])c4C([H])([H])C([H])([H])C2([H])[H])C3([H])[H])C([H])([H])[H])nc1F

>  <smiles>  (15) 
[H]C(C(=O)N1C([H])([H])C([H])([H])C([H])([H])C([H])(n2nc(-c3c([H])c([H])c(Oc4c([H])c([H])c(F)c([H])c4F)c([H])c3[H])c(C(=O)N([H])[H])c2N([H])[H])C1([H])[H])=C([H])c1sc(N([H])C(=O)C([H])(Oc2c([H])c([H])c3c(c2[H])C([H])([H])N(C(=O)C([H])(N([H])C(=O)C([H])(N([H])C([H])([H])[H])C([H])([H])[H])C(C([H])([H])[H])(C([H])([H])[H])C([H])([H])[H])C([H])(C(=O)N([H])C2([H])c4c([H])c([H])c([H])c([H])c4C([H])([H])C([H])([H])C2([H])[H])C3([H])[H])C([H])([H])[H])nc1F

$$$$
16:0:0
     RDKit          3D

 92100  0  0  1  0  0  0  0  0999 V2000
  -29.3950  -21.9980   20.6170 C   0  0  0  0  0  3  0  0  0  0  0  0
  -29.0130  -23.1370   21.0720 N   0  0  0  0  0  0  0  0  0  0  0  0
  -28.9390  -24.2470   20.2250 C   0  0  0  0  0  0  0  0  0  0  0  0
  -29.2220  -24.2920   19.0250 O   0  0  0  0  0  0  0  0  0  0  0  0
  -29.2310  -25.8420   22.2150 C   0  0  0  0  0  1  0  0  0  0  0  0
  -28.4210  -25.5290   20.9440 C   0  0  0  0  0  3  0  0  0  0  0  0
  -28.4860  -26.7050   20.1030 O   0  0  0  0  0  0  0  0  0  0  0  0
  -24.6260  -31.8670   23.1940 C   0  0  0  0  0  0  0  0  0  0  0  0
  -27.3360  -27.4690   20.1030 C   0  0  0  0  0  0  0  0  0  0  0  0
  -23.4480  -30.4700   21.5290 C   0  0  0  0  0  3  0  0  0  0  0  0
  -24.9310  -28.9590   20.1010 C   0  0  0  0  0  0  0  0  0  0  0  0
  -25.9720  -30.8530   21.3560 C   0  0  0  0  0  2  0  0  0  0  0  0
  -26.0800  -29.4880   20.7030 C   0  0  0  0  0  0  0  0  0  0  0  0
  -27.2900  -28.7520   20.6980 C   0  0  0  0  0  3  0  0  0  0  0  0
  -26.1740  -26.9560   19.4920 C   0  0  0  0  0  3  0  0  0  0  0  0
  -24.9730  -27.6930   19.4900 C   0  0  0  0  0  3  0  0  0  0  0  0
  -23.6770  -29.8040   20.1440 C   0  0  0  0  0  2  0  0  0  0  0  0
  -24.7000  -31.0780   22.0850 N   0  0  0  0  0  0  0  0  0  0  0  0
  -23.5370  -32.1230   23.7280 O   0  0  0  0  0  0  0  0  0  0  0  0
  -22.7970  -29.4340   22.4740 C   0  0  0  0  0  0  0  0  0  0  0  0
  -21.4790  -29.2270   22.3210 N   0  0  0  0  0  0  0  0  0  0  0  0
  -23.4770  -28.8190   23.3000 O   0  0  0  0  0  0  0  0  0  0  0  0
  -20.9920  -29.7760   21.6270 H   0  0  0  0  0  0  0  0  0  0  0  0
  -18.1210  -27.9590   22.7410 C   0  0  0  0  0  0  0  0  0  0  0  0
  -20.6660  -28.2720   23.0720 C   0  0  0  0  0  3  0  0  0  0  0  0
  -20.8130  -26.8430   22.4990 C   0  0  0  0  0  2  0  0  0  0  0  0
  -19.7430  -26.4970   21.4590 C   0  0  0  0  0  2  0  0  0  0  0  0
  -18.3430  -26.6130   22.0700 C   0  0  0  0  0  2  0  0  0  0  0  0
  -19.2130  -28.7440   23.1980 C   0  0  0  0  0  0  0  0  0  0  0  0
  -18.9540  -30.0020   23.7820 C   0  0  0  0  0  3  0  0  0  0  0  0
  -17.6350  -30.4760   23.9160 C   0  0  0  0  0  3  0  0  0  0  0  0
  -16.5570  -29.6870   23.4780 C   0  0  0  0  0  3  0  0  0  0  0  0
  -16.8010  -28.4310   22.8960 C   0  0  0  0  0  3  0  0  0  0  0  0
  -25.9000  -32.5040   23.8310 C   0  0  0  0  0  3  0  0  0  0  0  0
  -26.4120  -31.7300   25.1080 C   0  0  1  0  0  0  0  0  0  0  0  0
  -25.3100  -31.4750   26.1620 C   0  0  0  0  0  1  0  0  0  0  0  0
  -27.0120  -30.3600   24.7110 C   0  0  0  0  0  1  0  0  0  0  0  0
  -27.5470  -32.5320   25.7870 C   0  0  0  0  0  1  0  0  0  0  0  0
  -25.5790  -33.8990   24.1630 N   0  0  0  0  0  0  0  0  0  0  0  0
  -25.9170  -34.9560   23.4130 C   0  0  0  0  0  0  0  0  0  0  0  0
  -26.6030  -34.8620   22.3920 O   0  0  0  0  0  0  0  0  0  0  0  0
  -24.9730  -34.0470   24.9570 H   0  0  0  0  0  0  0  0  0  0  0  0
  -24.1920  -36.7450   23.0300 C   0  0  0  0  0  1  0  0  0  0  0  0
  -25.4150  -36.3400   23.8680 C   0  0  0  0  0  3  0  0  0  0  0  0
  -27.5230  -37.2290   24.7590 C   0  0  0  0  0  1  0  0  0  0  0  0
  -26.4460  -37.3970   23.7870 N   0  0  0  0  0  0  0  0  0  0  0  0
  -26.0320  -38.3150   23.9270 H   0  0  0  0  0  0  0  0  0  0  0  0
  -29.5110  -20.7770   21.5450 C   0  0  0  0  0  2  0  0  0  0  0  0
  -30.8520  -14.5840   20.0110 C   0  0  0  0  0  0  0  0  0  0  0  0
  -30.5110  -12.4340   18.8340 C   0  0  0  0  0  2  0  0  0  0  0  0
  -29.4730  -12.6520   17.7130 C   0  0  0  0  0  2  0  0  0  0  0  0
  -28.0360  -12.4940   18.2510 C   0  0  0  0  0  2  0  0  0  0  0  0
  -27.7950  -13.2970   19.5570 C   0  0  0  0  0  3  0  0  0  0  0  0
  -28.9330  -13.0430   20.5720 C   0  0  0  0  0  2  0  0  0  0  0  0
  -30.2080  -13.3850   19.9170 N   0  0  0  0  0  0  0  0  0  0  0  0
  -31.9350  -14.7960   19.4540 O   0  0  0  0  0  0  0  0  0  0  0  0
  -31.0220  -19.0760   20.2070 C   0  0  0  0  0  0  0  0  0  0  0  0
  -29.9390  -19.4230   20.9920 C   0  0  0  0  0  0  0  0  0  0  0  0
  -30.2410  -16.9640   20.6540 C   0  0  0  0  0  0  0  0  0  0  0  0
  -32.0350  -20.0020   19.6070 C   0  0  0  0  0  1  0  0  0  0  0  0
  -31.1720  -17.6880   20.0170 N   0  0  0  0  0  0  0  0  0  0  0  0
  -30.1540  -15.5350   20.6710 N   0  0  0  0  0  0  0  0  0  0  0  0
  -29.0730  -17.9800   21.4980 S   0  0  0  0  0  0  0  0  0  0  0  0
  -29.3370  -15.1770   21.1390 H   0  0  0  0  0  0  0  0  0  0  0  0
  -25.4690  -13.8880   20.4890 C   0  0  0  0  0  0  0  0  0  0  0  0
  -24.4260  -13.1070   20.9090 C   0  0  0  0  0  0  0  0  0  0  0  0
  -24.8670  -11.7550   20.7740 C   0  0  0  0  0  0  0  0  0  0  0  0
  -26.4820  -13.0110   20.1300 N   0  0  0  0  0  0  0  0  0  0  0  0
  -26.1260  -11.7200   20.3570 N   0  0  0  0  0  0  0  0  0  0  0  0
  -24.1450  -10.4900   20.9620 C   0  0  0  0  0  0  0  0  0  0  0  0
  -24.6010   -9.5080   21.8680 C   0  0  0  0  0  3  0  0  0  0  0  0
  -23.8800   -8.3070   22.0450 C   0  0  0  0  0  3  0  0  0  0  0  0
  -22.6900   -8.0810   21.3150 C   0  0  0  0  0  0  0  0  0  0  0  0
  -22.2520   -9.0520   20.3990 C   0  0  0  0  0  3  0  0  0  0  0  0
  -22.9730  -10.2440   20.2200 C   0  0  0  0  0  3  0  0  0  0  0  0
  -21.9380   -6.9330   21.4040 O   0  0  0  0  0  0  0  0  0  0  0  0
  -21.8560   -6.2140   22.5690 C   0  0  0  0  0  0  0  0  0  0  0  0
  -21.3630   -6.7830   23.7630 C   0  0  0  0  0  3  0  0  0  0  0  0
  -21.2310   -5.9880   24.9190 C   0  0  0  0  0  3  0  0  0  0  0  0
  -21.5810   -4.6250   24.8810 C   0  0  0  0  0  0  0  0  0  0  0  0
  -22.0680   -4.0560   23.6920 C   0  0  0  0  0  3  0  0  0  0  0  0
  -22.2020   -4.8480   22.5390 C   0  0  0  0  0  0  0  0  0  0  0  0
  -22.6510   -4.2900   21.3880 F   0  0  0  0  0  0  0  0  0  0  0  0
  -21.4480   -3.8600   25.9900 F   0  0  0  0  0  0  0  0  0  0  0  0
  -23.0620  -13.5800   21.3190 C   0  0  0  0  0  0  0  0  0  0  0  0
  -22.3990  -12.8480   22.2080 N   0  0  0  0  0  0  0  0  0  0  0  0
  -22.5930  -14.6340   20.8890 O   0  0  0  0  0  0  0  0  0  0  0  0
  -22.7920  -11.9950   22.5790 H   0  0  0  0  0  0  0  0  0  0  0  0
  -21.4880  -13.1450   22.5240 H   0  0  0  0  0  0  0  0  0  0  0  0
  -25.6350  -15.2650   20.3660 N   0  0  0  0  0  0  0  0  0  0  0  0
  -24.8860  -15.9170   20.5650 H   0  0  0  0  0  0  0  0  0  0  0  0
  -26.4520  -15.7110   19.9670 H   0  0  0  0  0  0  0  0  0  0  0  0
  1  2  2  0
  1 48  1  0
  3  6  1  0
  3  2  1  0
  4  3  2  0
  6  5  1  0
  7  6  1  0
  8 19  2  0
  9  7  1  0
  9 14  1  0
 10 18  1  0
 10 20  1  0
 11 17  1  0
 11 13  1  0
 12 18  1  0
 13 12  1  0
 14 13  2  0
 15  9  2  0
 16 15  1  0
 16 11  2  0
 17 10  1  0
 18  8  1  0
 20 22  2  0
 21 20  1  0
 23 21  1  0
 24 33  2  0
 24 29  1  0
 25 21  1  0
 25 29  1  0
 26 25  1  0
 27 28  1  0
 27 26  1  0
 28 24  1  0
 29 30  2  0
 30 31  1  0
 32 31  2  0
 33 32  1  0
 34  8  1  0
 34 39  1  0
 34 35  1  0
 35 38  1  1
 35 36  1  0
 37 35  1  0
 39 42  1  0
 40 44  1  0
 40 39  1  0
 41 40  2  0
 44 43  1  0
 46 44  1  0
 46 47  1  0
 46 45  1  0
 49 62  1  0
 50 55  1  0
 51 52  1  0
 51 50  1  0
 53 52  1  0
 53 68  1  0
 53 54  1  0
 55 49  1  0
 55 54  1  0
 56 49  2  0
 57 58  2  0
 58 63  1  0
 58 48  1  0
 59 62  1  0
 59 63  1  0
 60 57  1  0
 61 57  1  0
 61 59  2  0
 62 64  1  0
 65 66  2  0
 66 85  1  0
 67 66  1  0
 67 70  1  0
 68 69  1  0
 68 65  1  0
 69 67  2  0
 70 71  1  0
 71 72  2  0
 73 76  1  0
 73 72  1  0
 74 73  2  0
 75 74  1  0
 75 70  2  0
 76 77  1  0
 77 78  1  0
 78 79  2  0
 80 79  1  0
 80 84  1  0
 81 80  2  0
 82 77  2  0
 82 81  1  0
 83 82  1  0
 85 86  1  0
 86 89  1  0
 86 88  1  0
 87 85  2  0
 90 65  1  0
 90 91  1  0
 92 90  1  0
M  ISO  4   6 101   7 101  49 100  62 100
M  END
>  <TORSDO>  (16) 
F 19

>  <SCORE>  (16) 
-12.977

>  <name>  (16) 
16

>  <ligand_id>  (16) 
16

>  <original_smiles>  (16) 
[H]C(=NC(=O)C([H])(Oc1c([H])c([H])c2c(c1[H])C([H])([H])N(C(=O)C([H])(N([H])C(=O)C([H])(N([H])C([H])([H])[H])C([H])([H])[H])C(C([H])([H])[H])(C([H])([H])[H])C([H])([H])[H])C([H])(C(=O)N([H])C1([H])c3c([H])c([H])c([H])c([H])c3C([H])([H])C([H])([H])C1([H])[H])C2([H])[H])C([H])([H])[H])C([H])([H])c1sc(N([H])C(=O)N2C([H])([H])C([H])([H])C([H])([H])C([H])(n3nc(-c4c([H])c([H])c(Oc5c([H])c([H])c(F)c([H])c5F)c([H])c4[H])c(C(=O)N([H])[H])c3N([H])[H])C2([H])[H])nc1C([H])([H])[H]

>  <smiles>  (16) 
[H]C(=NC(=O)C([H])(Oc1c([H])c([H])c2c(c1[H])C([H])([H])N(C(=O)C([H])(N([H])C(=O)C([H])(N([H])C([H])([H])[H])C([H])([H])[H])C(C([H])([H])[H])(C([H])([H])[H])C([H])([H])[H])C([H])(C(=O)N([H])C1([H])c3c([H])c([H])c([H])c([H])c3C([H])([H])C([H])([H])C1([H])[H])C2([H])[H])C([H])([H])[H])C([H])([H])c1sc(N([H])C(=O)N2C([H])([H])C([H])([H])C([H])([H])C([H])(n3nc(-c4c([H])c([H])c(Oc5c([H])c([H])c(F)c([H])c5F)c([H])c4[H])c(C(=O)N([H])[H])c3N([H])[H])C2([H])[H])nc1C([H])([H])[H]

$$$$
17:0:0
     RDKit          3D

 96104  0  0  1  0  0  0  0  0999 V2000
  -29.1090  -21.5250   20.3150 C   0  0  0  0  0  0  0  0  0  0  0  0
  -30.1970  -20.7490   20.1020 N   0  0  0  0  0  0  0  0  0  0  0  0
  -28.1770  -21.1830   21.0480 O   0  0  0  0  0  0  0  0  0  0  0  0
  -30.9720  -21.2040   19.6370 H   0  0  0  0  0  0  0  0  0  0  0  0
  -30.7620  -14.5420   20.4440 C   0  0  0  0  0  0  0  0  0  0  0  0
  -30.4460  -12.3700   19.3180 C   0  0  0  0  0  2  0  0  0  0  0  0
  -29.4910  -12.5730   18.1240 C   0  0  0  0  0  2  0  0  0  0  0  0
  -28.0260  -12.4280   18.5710 C   0  0  0  0  0  2  0  0  0  0  0  0
  -27.7010  -13.2720   19.8310 C   0  0  0  0  0  3  0  0  0  0  0  0
  -28.7690  -13.0690   20.9310 C   0  0  0  0  0  2  0  0  0  0  0  0
  -30.0870  -13.3630   20.3430 N   0  0  0  0  0  0  0  0  0  0  0  0
  -31.8930  -14.6920   19.9720 O   0  0  0  0  0  0  0  0  0  0  0  0
  -31.6220  -18.8550   20.7850 C   0  0  0  0  0  0  0  0  0  0  0  0
  -30.4100  -19.4350   20.4380 C   0  0  0  0  0  0  0  0  0  0  0  0
  -30.3380  -16.9610   20.8100 C   0  0  0  0  0  0  0  0  0  0  0  0
  -31.5500  -17.4730   21.0230 N   0  0  0  0  0  0  0  0  0  0  0  0
  -30.0480  -15.5720   20.9430 N   0  0  0  0  0  0  0  0  0  0  0  0
  -29.1490  -18.1950   20.4000 S   0  0  0  0  0  0  0  0  0  0  0  0
  -29.1100  -15.3410   21.2280 H   0  0  0  0  0  0  0  0  0  0  0  0
  -25.3070  -13.8720   20.5660 C   0  0  0  0  0  0  0  0  0  0  0  0
  -24.2440  -13.0910   20.9370 C   0  0  0  0  0  0  0  0  0  0  0  0
  -24.7080  -11.7410   20.8850 C   0  0  0  0  0  0  0  0  0  0  0  0
  -26.3530  -12.9930   20.3210 N   0  0  0  0  0  0  0  0  0  0  0  0
  -25.9950  -11.7080   20.5680 N   0  0  0  0  0  0  0  0  0  0  0  0
  -23.9860  -10.4750   21.0630 C   0  0  0  0  0  0  0  0  0  0  0  0
  -24.4160   -9.5040   21.9950 C   0  0  0  0  0  3  0  0  0  0  0  0
  -23.6940   -8.3030   22.1620 C   0  0  0  0  0  3  0  0  0  0  0  0
  -22.5290   -8.0630   21.3980 C   0  0  0  0  0  0  0  0  0  0  0  0
  -22.1180   -9.0220   20.4560 C   0  0  0  0  0  3  0  0  0  0  0  0
  -22.8390  -10.2160   20.2860 C   0  0  0  0  0  3  0  0  0  0  0  0
  -21.7790   -6.9140   21.4750 O   0  0  0  0  0  0  0  0  0  0  0  0
  -21.7080   -6.1770   22.6290 C   0  0  0  0  0  0  0  0  0  0  0  0
  -21.2180   -6.7260   23.8350 C   0  0  0  0  0  3  0  0  0  0  0  0
  -21.0960   -5.9140   24.9800 C   0  0  0  0  0  3  0  0  0  0  0  0
  -21.4540   -4.5540   24.9220 C   0  0  0  0  0  0  0  0  0  0  0  0
  -21.9370   -4.0040   23.7200 C   0  0  0  0  0  3  0  0  0  0  0  0
  -22.0600   -4.8130   22.5770 C   0  0  0  0  0  0  0  0  0  0  0  0
  -22.5060   -4.2730   21.4170 F   0  0  0  0  0  0  0  0  0  0  0  0
  -21.3300   -3.7720   26.0200 F   0  0  0  0  0  0  0  0  0  0  0  0
  -22.8490  -13.5620   21.2270 C   0  0  0  0  0  0  0  0  0  0  0  0
  -22.1310  -12.8480   22.0880 N   0  0  0  0  0  0  0  0  0  0  0  0
  -22.4050  -14.5950   20.7290 O   0  0  0  0  0  0  0  0  0  0  0  0
  -22.5030  -12.0080   22.5060 H   0  0  0  0  0  0  0  0  0  0  0  0
  -21.1970  -13.1480   22.3330 H   0  0  0  0  0  0  0  0  0  0  0  0
  -25.4700  -15.2440   20.4010 N   0  0  0  0  0  0  0  0  0  0  0  0
  -24.7040  -15.8980   20.5220 H   0  0  0  0  0  0  0  0  0  0  0  0
  -26.3070  -15.6820   20.0380 H   0  0  0  0  0  0  0  0  0  0  0  0
  -34.0970  -18.8920   20.2060 C   0  0  0  0  0  1  0  0  0  0  0  0
  -32.9590  -19.5190   21.0310 C   0  0  2  0  0  0  0  0  0  0  0  0
  -33.3030  -19.4200   22.3150 F   0  0  0  0  0  0  0  0  0  0  0  0
  -32.9360  -20.8170   20.7270 F   0  0  0  0  0  0  0  0  0  0  0  0
  -29.0550  -22.8970   19.5890 C   0  0  0  0  0  2  0  0  0  0  0  0
  -29.5520  -24.4260   21.5900 C   0  0  0  0  0  1  0  0  0  0  0  0
  -28.6110  -24.1680   20.3990 C   0  0  0  0  0  3  0  0  0  0  0  0
  -28.5350  -25.4340   19.4770 C   0  0  0  0  0  2  0  0  0  0  0  0
  -28.3920  -26.7160   20.1500 O   0  0  0  0  0  0  0  0  0  0  0  0
  -24.5890  -31.9420   23.2280 C   0  0  0  0  0  0  0  0  0  0  0  0
  -27.2070  -27.4440   20.1310 C   0  0  0  0  0  0  0  0  0  0  0  0
  -23.3800  -30.5400   21.5930 C   0  0  0  0  0  3  0  0  0  0  0  0
  -24.8240  -28.9970   20.1630 C   0  0  0  0  0  0  0  0  0  0  0  0
  -25.9150  -30.8750   21.3990 C   0  0  0  0  0  2  0  0  0  0  0  0
  -25.9910  -29.5060   20.7430 C   0  0  0  0  0  0  0  0  0  0  0  0
  -27.1860  -28.7380   20.7170 C   0  0  0  0  0  3  0  0  0  0  0  0
  -26.0060  -26.9530   19.5690 C   0  0  0  0  0  3  0  0  0  0  0  0
  -24.8270  -27.7220   19.5770 C   0  0  0  0  0  3  0  0  0  0  0  0
  -23.5870  -29.8650   20.2130 C   0  0  0  0  0  2  0  0  0  0  0  0
  -24.6460  -31.1360   22.1300 N   0  0  0  0  0  0  0  0  0  0  0  0
  -23.5080  -32.2180   23.7680 O   0  0  0  0  0  0  0  0  0  0  0  0
  -22.7300  -29.5170   22.5530 C   0  0  0  0  0  0  0  0  0  0  0  0
  -21.4050  -29.3370   22.4270 N   0  0  0  0  0  0  0  0  0  0  0  0
  -23.4140  -28.8900   23.3660 O   0  0  0  0  0  0  0  0  0  0  0  0
  -20.9130  -29.8910   21.7400 H   0  0  0  0  0  0  0  0  0  0  0  0
  -18.0260  -28.1620   22.9480 C   0  0  0  0  0  0  0  0  0  0  0  0
  -20.5880  -28.3980   23.1970 C   0  0  0  0  0  3  0  0  0  0  0  0
  -20.6760  -26.9700   22.6110 C   0  0  0  0  0  2  0  0  0  0  0  0
  -19.5630  -26.6640   21.6040 C   0  0  0  0  0  2  0  0  0  0  0  0
  -18.1880  -26.8150   22.2600 C   0  0  0  0  0  2  0  0  0  0  0  0
  -19.1540  -28.9120   23.3720 C   0  0  0  0  0  0  0  0  0  0  0  0
  -18.9520  -30.1750   23.9690 C   0  0  0  0  0  3  0  0  0  0  0  0
  -17.6530  -30.6880   24.1500 C   0  0  0  0  0  3  0  0  0  0  0  0
  -16.5400  -29.9320   23.7430 C   0  0  0  0  0  3  0  0  0  0  0  0
  -16.7260  -28.6720   23.1460 C   0  0  0  0  0  3  0  0  0  0  0  0
  -25.8750  -32.5750   23.8420 C   0  0  0  0  0  3  0  0  0  0  0  0
  -26.3930  -31.8090   25.1210 C   0  0  1  0  0  0  0  0  0  0  0  0
  -25.2960  -31.5760   26.1870 C   0  0  0  0  0  1  0  0  0  0  0  0
  -26.9800  -30.4310   24.7320 C   0  0  0  0  0  1  0  0  0  0  0  0
  -27.5430  -32.6050   25.7830 C   0  0  0  0  0  1  0  0  0  0  0  0
  -25.5700  -33.9750   24.1660 N   0  0  0  0  0  0  0  0  0  0  0  0
  -25.9120  -35.0220   23.4040 C   0  0  0  0  0  0  0  0  0  0  0  0
  -26.5910  -34.9130   22.3780 O   0  0  0  0  0  0  0  0  0  0  0  0
  -24.9680  -34.1360   24.9610 H   0  0  0  0  0  0  0  0  0  0  0  0
  -24.2050  -36.8260   23.0150 C   0  0  0  0  0  1  0  0  0  0  0  0
  -25.4270  -36.4120   23.8520 C   0  0  0  0  0  3  0  0  0  0  0  0
  -27.5460  -37.2830   24.7320 C   0  0  0  0  0  1  0  0  0  0  0  0
  -26.4700  -37.4570   23.7600 N   0  0  0  0  0  0  0  0  0  0  0  0
  -26.0700  -38.3810   23.9000 H   0  0  0  0  0  0  0  0  0  0  0  0
  1  3  2  0
  2  1  1  0
  2 14  1  0
  4  2  1  0
  5 17  1  0
  6 11  1  0
  7  8  1  0
  7  6  1  0
  9  8  1  0
  9 23  1  0
  9 10  1  0
 11  5  1  0
 11 10  1  0
 12  5  2  0
 13 16  1  0
 13 49  1  0
 14 13  2  0
 15 17  1  0
 15 16  2  0
 17 19  1  0
 18 14  1  0
 18 15  1  0
 20 21  2  0
 21 40  1  0
 22 21  1  0
 22 25  1  0
 23 20  1  0
 23 24  1  0
 24 22  2  0
 25 26  1  0
 26 27  2  0
 28 31  1  0
 28 27  1  0
 29 28  2  0
 30 29  1  0
 30 25  2  0
 31 32  1  0
 32 33  1  0
 33 34  2  0
 35 34  1  0
 35 39  1  0
 36 35  2  0
 37 32  2  0
 37 36  1  0
 38 37  1  0
 40 41  1  0
 41 44  1  0
 41 43  1  0
 42 40  2  0
 45 46  1  0
 45 20  1  0
 47 45  1  0
 49 48  1  6
 49 50  1  0
 51 49  1  0
 52  1  1  0
 52 54  1  0
 54 53  1  0
 55 56  1  0
 55 54  1  0
 57 68  2  0
 58 56  1  0
 58 63  1  0
 59 67  1  0
 59 69  1  0
 60 66  1  0
 60 62  1  0
 61 67  1  0
 62 61  1  0
 63 62  2  0
 64 65  1  0
 64 58  2  0
 65 60  2  0
 66 59  1  0
 67 57  1  0
 69 71  2  0
 70 69  1  0
 72 70  1  0
 73 82  2  0
 73 78  1  0
 74 70  1  0
 74 78  1  0
 75 74  1  0
 76 77  1  0
 76 75  1  0
 77 73  1  0
 78 79  2  0
 79 80  1  0
 81 80  2  0
 82 81  1  0
 83 57  1  0
 83 88  1  0
 83 84  1  0
 84 87  1  1
 84 85  1  0
 86 84  1  0
 88 91  1  0
 89 93  1  0
 89 88  1  0
 90 89  2  0
 93 92  1  0
 95 93  1  0
 95 96  1  0
 95 94  1  0
M  ISO  4   5 100  17 100  55 101  56 101
M  END
>  <TORSDO>  (17) 
F 20

>  <SCORE>  (17) 
-14.320

>  <name>  (17) 
17

>  <ligand_id>  (17) 
17

>  <original_smiles>  (17) 
[H]c1c([H])c([H])c2c(c1[H])C([H])([H])C([H])([H])C([H])([H])C2([H])N([H])C(=O)C1([H])N(C(=O)C([H])(N([H])C(=O)C([H])(N([H])C([H])([H])[H])C([H])([H])[H])C(C([H])([H])[H])(C([H])([H])[H])C([H])([H])[H])C([H])([H])c2c([H])c(OC([H])([H])C([H])(C([H])([H])[H])C([H])([H])C(=O)N([H])c3sc(N([H])C(=O)N4C([H])([H])C([H])([H])C([H])([H])C([H])(n5nc(-c6c([H])c([H])c(Oc7c([H])c([H])c(F)c([H])c7F)c([H])c6[H])c(C(=O)N([H])[H])c5N([H])[H])C4([H])[H])nc3C(F)(F)C([H])([H])[H])c([H])c([H])c2C1([H])[H]

>  <smiles>  (17) 
[H]c1c([H])c([H])c2c(c1[H])C([H])([H])C([H])([H])C([H])([H])C2([H])N([H])C(=O)C1([H])N(C(=O)C([H])(N([H])C(=O)C([H])(N([H])C([H])([H])[H])C([H])([H])[H])C(C([H])([H])[H])(C([H])([H])[H])C([H])([H])[H])C([H])([H])c2c([H])c(OC([H])([H])C([H])(C([H])([H])[H])C([H])([H])C(=O)N([H])c3sc(N([H])C(=O)N4C([H])([H])C([H])([H])C([H])([H])C([H])(n5nc(-c6c([H])c([H])c(Oc7c([H])c([H])c(F)c([H])c7F)c([H])c6[H])c(C(=O)N([H])[H])c5N([H])[H])C4([H])[H])nc3C(F)(F)C([H])([H])[H])c([H])c([H])c2C1([H])[H]

$$$$
18:0:0
     RDKit          3D

 98106  0  0  1  0  0  0  0  0999 V2000
  -29.4880  -20.9940   21.3850 C   0  0  0  0  0  0  0  0  0  0  0  0
  -28.6950  -21.0440   22.4720 N   0  0  0  0  0  4  0  0  0  0  0  0
  -29.7800  -22.1570   20.7300 N   0  0  0  0  0  0  0  0  0  0  0  0
  -28.5250  -20.1990   23.0000 H   0  0  0  0  0  0  0  0  0  0  0  0
  -28.2600  -21.8900   22.8040 H   0  0  0  0  0  0  0  0  0  0  0  0
  -30.3520  -22.0710   19.8980 H   0  0  0  0  0  0  0  0  0  0  0  0
  -30.9700  -14.8380   19.8820 C   0  0  0  0  0  0  0  0  0  0  0  0
  -30.6640  -12.6280   18.7820 C   0  0  0  0  0  2  0  0  0  0  0  0
  -29.6310  -12.7670   17.6420 C   0  0  0  0  0  2  0  0  0  0  0  0
  -28.1930  -12.6040   18.1750 C   0  0  0  0  0  2  0  0  0  0  0  0
  -27.9300  -13.4830   19.4280 C   0  0  0  0  0  3  0  0  0  0  0  0
  -29.0580  -13.2950   20.4660 C   0  0  0  0  0  2  0  0  0  0  0  0
  -30.3350  -13.6300   19.8130 N   0  0  0  0  0  0  0  0  0  0  0  0
  -32.0460  -15.0450   19.3120 O   0  0  0  0  0  0  0  0  0  0  0  0
  -30.0390  -19.6880   20.9900 C   0  0  0  0  0  0  0  0  0  0  0  0
  -31.3220  -19.3230   20.6220 C   0  0  0  0  0  0  0  0  0  0  0  0
  -30.3840  -17.2320   20.5870 C   0  0  0  0  0  0  0  0  0  0  0  0
  -31.4960  -17.9490   20.3600 N   0  0  0  0  0  0  0  0  0  0  0  0
  -30.2670  -15.8010   20.5360 N   0  0  0  0  0  0  0  0  0  0  0  0
  -29.0250  -18.2480   21.0790 S   0  0  0  0  0  0  0  0  0  0  0  0
  -29.4170  -15.4600   20.9540 H   0  0  0  0  0  0  0  0  0  0  0  0
  -25.6240  -14.1100   20.3890 C   0  0  0  0  0  0  0  0  0  0  0  0
  -24.5700  -13.3410   20.8110 C   0  0  0  0  0  0  0  0  0  0  0  0
  -24.9880  -11.9830   20.6610 C   0  0  0  0  0  0  0  0  0  0  0  0
  -26.6160  -13.2170   20.0130 N   0  0  0  0  0  0  0  0  0  0  0  0
  -26.2410  -11.9310   20.2300 N   0  0  0  0  0  0  0  0  0  0  0  0
  -24.2470  -10.7280   20.8400 C   0  0  0  0  0  0  0  0  0  0  0  0
  -24.6850   -9.7350   21.7420 C   0  0  0  0  0  3  0  0  0  0  0  0
  -23.9450   -8.5460   21.9100 C   0  0  0  0  0  3  0  0  0  0  0  0
  -22.7540   -8.3410   21.1750 C   0  0  0  0  0  0  0  0  0  0  0  0
  -22.3340   -9.3240   20.2610 C   0  0  0  0  0  3  0  0  0  0  0  0
  -23.0740  -10.5050   20.0910 C   0  0  0  0  0  3  0  0  0  0  0  0
  -21.9840   -7.2060   21.2520 O   0  0  0  0  0  0  0  0  0  0  0  0
  -21.8720   -6.4920   22.4180 C   0  0  0  0  0  0  0  0  0  0  0  0
  -21.3500   -7.0670   23.5970 C   0  0  0  0  0  3  0  0  0  0  0  0
  -21.1870   -6.2780   24.7530 C   0  0  0  0  0  3  0  0  0  0  0  0
  -21.5340   -4.9140   24.7290 C   0  0  0  0  0  0  0  0  0  0  0  0
  -22.0480   -4.3370   23.5530 C   0  0  0  0  0  3  0  0  0  0  0  0
  -22.2130   -5.1240   22.4000 C   0  0  0  0  0  0  0  0  0  0  0  0
  -22.6880   -4.5580   21.2640 F   0  0  0  0  0  0  0  0  0  0  0  0
  -21.3690   -4.1530   25.8370 F   0  0  0  0  0  0  0  0  0  0  0  0
  -23.2210  -13.8360   21.2420 C   0  0  0  0  0  0  0  0  0  0  0  0
  -22.5590  -13.1110   22.1370 N   0  0  0  0  0  0  0  0  0  0  0  0
  -22.7580  -14.8920   20.8120 O   0  0  0  0  0  0  0  0  0  0  0  0
  -22.9490  -12.2550   22.5030 H   0  0  0  0  0  0  0  0  0  0  0  0
  -21.6560  -13.4200   22.4660 H   0  0  0  0  0  0  0  0  0  0  0  0
  -25.8120  -15.4830   20.2860 N   0  0  0  0  0  0  0  0  0  0  0  0
  -25.0610  -16.1330   20.4860 H   0  0  0  0  0  0  0  0  0  0  0  0
  -26.6210  -15.9310   19.8760 H   0  0  0  0  0  0  0  0  0  0  0  0
  -32.4270  -20.1690   20.5110 N   0  0  0  0  0  0  0  0  0  0  0  0
  -32.4840  -20.9660   21.1370 H   0  0  0  0  0  0  0  0  0  0  0  0
  -33.3280  -19.7180   20.3890 H   0  0  0  0  0  0  0  0  0  0  0  0
  -30.9380  -24.0730   21.7580 C   0  0  0  0  0  1  0  0  0  0  0  0
  -29.5900  -23.5630   21.2090 C   0  0  0  0  0  3  0  0  0  0  0  0
  -28.9250  -24.5400   20.1650 C   0  0  0  0  0  2  0  0  0  0  0  0
  -28.0860  -26.3220   21.8970 C   0  0  0  0  0  1  0  0  0  0  0  0
  -28.8170  -26.0660   20.5510 C   0  0  0  0  0  3  0  0  0  0  0  0
  -28.3570  -26.8780   19.4320 O   0  0  0  0  0  0  0  0  0  0  0  0
  -24.5480  -31.7510   23.0190 C   0  0  0  0  0  0  0  0  0  0  0  0
  -27.1880  -27.6060   19.5500 C   0  0  0  0  0  0  0  0  0  0  0  0
  -23.3130  -30.4180   21.3370 C   0  0  0  0  0  3  0  0  0  0  0  0
  -24.7520  -29.0300   19.7510 C   0  0  0  0  0  0  0  0  0  0  0  0
  -25.8150  -30.8870   21.0480 C   0  0  0  0  0  2  0  0  0  0  0  0
  -25.9190  -29.5630   20.3140 C   0  0  0  0  0  0  0  0  0  0  0  0
  -27.1440  -28.8630   20.2000 C   0  0  0  0  0  3  0  0  0  0  0  0
  -26.0110  -27.0950   18.9740 C   0  0  0  0  0  3  0  0  0  0  0  0
  -24.7970  -27.8020   19.0660 C   0  0  0  0  0  3  0  0  0  0  0  0
  -23.4820  -29.8350   19.9070 C   0  0  0  0  0  2  0  0  0  0  0  0
  -24.5790  -31.0320   21.8600 N   0  0  0  0  0  0  0  0  0  0  0  0
  -23.4850  -31.9420   23.6280 O   0  0  0  0  0  0  0  0  0  0  0  0
  -22.7360  -29.3170   22.2580 C   0  0  0  0  0  0  0  0  0  0  0  0
  -21.4180  -29.0760   22.1480 N   0  0  0  0  0  0  0  0  0  0  0  0
  -23.4720  -28.6810   23.0150 O   0  0  0  0  0  0  0  0  0  0  0  0
  -20.8890  -29.6460   21.5030 H   0  0  0  0  0  0  0  0  0  0  0  0
  -18.1270  -27.6510   22.6280 C   0  0  0  0  0  0  0  0  0  0  0  0
  -20.6680  -28.0580   22.8870 C   0  0  0  0  0  3  0  0  0  0  0  0
  -20.8560  -26.6660   22.2460 C   0  0  0  0  0  2  0  0  0  0  0  0
  -19.7650  -26.3190   21.2280 C   0  0  0  0  0  2  0  0  0  0  0  0
  -18.3830  -26.3460   21.8910 C   0  0  0  0  0  2  0  0  0  0  0  0
  -19.2030  -28.4610   23.0830 C   0  0  0  0  0  0  0  0  0  0  0  0
  -18.9160  -29.6770   23.7390 C   0  0  0  0  0  3  0  0  0  0  0  0
  -17.5890  -30.0920   23.9360 C   0  0  0  0  0  3  0  0  0  0  0  0
  -16.5270  -29.2830   23.4960 C   0  0  0  0  0  3  0  0  0  0  0  0
  -16.7970  -28.0620   22.8530 C   0  0  0  0  0  3  0  0  0  0  0  0
  -25.8380  -32.3830   23.6260 C   0  0  0  0  0  3  0  0  0  0  0  0
  -26.4190  -31.5650   24.8430 C   0  0  1  0  0  0  0  0  0  0  0  0
  -25.3720  -31.2560   25.9360 C   0  0  0  0  0  1  0  0  0  0  0  0
  -27.0080  -30.2200   24.3590 C   0  0  0  0  0  1  0  0  0  0  0  0
  -27.5780  -32.3520   25.4960 C   0  0  0  0  0  1  0  0  0  0  0  0
  -25.5110  -33.7590   24.0240 N   0  0  0  0  0  0  0  0  0  0  0  0
  -25.8200  -34.8510   23.3160 C   0  0  0  0  0  0  0  0  0  0  0  0
  -26.4880  -34.8110   22.2770 O   0  0  0  0  0  0  0  0  0  0  0  0
  -24.9060  -33.8590   24.8280 H   0  0  0  0  0  0  0  0  0  0  0  0
  -24.0640  -36.6360   23.0620 C   0  0  0  0  0  1  0  0  0  0  0  0
  -25.3130  -36.2080   23.8450 C   0  0  0  0  0  3  0  0  0  0  0  0
  -27.4300  -37.0800   24.7280 C   0  0  0  0  0  1  0  0  0  0  0  0
  -26.3310  -37.2810   23.7890 N   0  0  0  0  0  0  0  0  0  0  0  0
  -25.9110  -38.1860   23.9890 H   0  0  0  0  0  0  0  0  0  0  0  0
  1  2  2  0
  2  5  1  0
  2  4  1  0
  3 54  1  0
  3  1  1  0
  6  3  1  0
  7 19  1  0
  8 13  1  0
  9 10  1  0
  9  8  1  0
 11 10  1  0
 11 25  1  0
 11 12  1  0
 13  7  1  0
 13 12  1  0
 14  7  2  0
 15 20  1  0
 15  1  1  0
 16 15  2  0
 17 20  1  0
 18 17  2  0
 18 16  1  0
 19 17  1  0
 19 21  1  0
 22 23  2  0
 23 42  1  0
 24 23  1  0
 24 27  1  0
 25 26  1  0
 25 22  1  0
 26 24  2  0
 27 28  1  0
 28 29  2  0
 30 33  1  0
 30 29  1  0
 31 30  2  0
 32 31  1  0
 32 27  2  0
 33 34  1  0
 34 35  1  0
 35 36  2  0
 37 36  1  0
 37 41  1  0
 38 37  2  0
 39 34  2  0
 39 38  1  0
 40 39  1  0
 42 43  1  0
 43 46  1  0
 43 45  1  0
 44 42  2  0
 47 22  1  0
 47 48  1  0
 49 47  1  0
 50 16  1  0
 50 51  1  0
 52 50  1  0
 54 53  1  0
 55 57  1  0
 55 54  1  0
 57 56  1  0
 58 60  1  0
 58 57  1  0
 59 70  2  0
 60 65  1  0
 61 69  1  0
 61 71  1  0
 62 68  1  0
 62 64  1  0
 63 69  1  0
 64 63  1  0
 65 64  2  0
 66 67  1  0
 66 60  2  0
 67 62  2  0
 68 61  1  0
 69 59  1  0
 71 73  2  0
 72 71  1  0
 74 72  1  0
 75 84  2  0
 75 80  1  0
 76 72  1  0
 76 80  1  0
 77 76  1  0
 78 79  1  0
 78 77  1  0
 79 75  1  0
 80 81  2  0
 81 82  1  0
 83 82  2  0
 84 83  1  0
 85 59  1  0
 85 90  1  0
 85 86  1  0
 86 89  1  1
 86 87  1  0
 88 86  1  0
 90 93  1  0
 91 95  1  0
 91 90  1  0
 92 91  2  0
 95 94  1  0
 97 95  1  0
 97 98  1  0
 97 96  1  0
M  ISO  4   7 100  19 100  57 101  58 101
M  END
>  <TORSDO>  (18) 
F 20

>  <SCORE>  (18) 
-11.986

>  <name>  (18) 
18

>  <ligand_id>  (18) 
18

>  <original_smiles>  (18) 
[H]c1c([H])c([H])c2c(c1[H])C([H])([H])C([H])([H])C([H])([H])C2([H])N([H])C(=O)C1([H])N(C(=O)C([H])(N([H])C(=O)C([H])(N([H])C([H])([H])[H])C([H])([H])[H])C(C([H])([H])[H])(C([H])([H])[H])C([H])([H])[H])C([H])([H])c2c([H])c(OC([H])(C([H])([H])[H])C([H])([H])C([H])([N+]([H])=C(c3sc(N([H])C(=O)N4C([H])([H])C([H])([H])C([H])([H])C([H])(n5nc(-c6c([H])c([H])c(Oc7c([H])c([H])c(F)c([H])c7F)c([H])c6[H])c(C(=O)N([H])[H])c5N([H])[H])C4([H])[H])nc3N([H])[H])N([H])[H])C([H])([H])[H])c([H])c([H])c2C1([H])[H]

>  <smiles>  (18) 
[H]c1c([H])c([H])c2c(c1[H])C([H])([H])C([H])([H])C([H])([H])C2([H])N([H])C(=O)C1([H])N(C(=O)C([H])(N([H])C(=O)C([H])(N([H])C([H])([H])[H])C([H])([H])[H])C(C([H])([H])[H])(C([H])([H])[H])C([H])([H])[H])C([H])([H])c2c([H])c(OC([H])(C([H])([H])[H])C([H])([H])C([H])([N+]([H])=C(c3sc(N([H])C(=O)N4C([H])([H])C([H])([H])C([H])([H])C([H])(n5nc(-c6c([H])c([H])c(Oc7c([H])c([H])c(F)c([H])c7F)c([H])c6[H])c(C(=O)N([H])[H])c5N([H])[H])C4([H])[H])nc3N([H])[H])N([H])[H])C([H])([H])[H])c([H])c([H])c2C1([H])[H]

$$$$
19:0:0
     RDKit          3D

 91 99  0  0  1  0  0  0  0  0999 V2000
  -31.3490  -18.0150   19.7080 C   0  0  0  0  0  3  0  0  0  0  0  0
  -30.2630  -17.4420   20.3390 C   0  0  0  0  0  0  0  0  0  0  0  0
  -30.1440  -20.0010   19.9200 C   0  0  0  0  0  0  0  0  0  0  0  0
  -29.0650  -22.3670   20.1980 C   0  0  0  0  0  0  0  0  0  0  0  0
  -31.2690  -19.4140   19.4820 N   0  0  0  0  0  0  0  0  0  0  0  0
  -30.0220  -21.4600   19.8180 N   0  0  0  0  0  0  0  0  0  0  0  0
  -27.9790  -22.0090   20.6580 O   0  0  0  0  0  0  0  0  0  0  0  0
  -29.0520  -18.7540   20.5990 S   0  0  0  0  0  0  0  0  0  0  0  0
  -30.8310  -21.9170   19.4200 H   0  0  0  0  0  0  0  0  0  0  0  0
  -28.8970  -15.8410   21.8350 C   0  0  0  0  0  1  0  0  0  0  0  0
  -30.1470  -15.9880   20.9430 C   0  0  0  0  0  3  0  0  0  0  0  0
  -30.6430  -14.6970   20.0980 C   0  0  0  0  0  0  0  0  0  0  0  0
  -30.3850  -12.4900   18.9250 C   0  0  0  0  0  2  0  0  0  0  0  0
  -29.3660  -12.6200   17.7670 C   0  0  0  0  0  2  0  0  0  0  0  0
  -27.9230  -12.4150   18.2750 C   0  0  0  0  0  2  0  0  0  0  0  0
  -27.6380  -13.2260   19.5670 C   0  0  0  0  0  3  0  0  0  0  0  0
  -28.7600  -12.9910   20.5930 C   0  0  0  0  0  2  0  0  0  0  0  0
  -30.0140  -13.4650   19.9860 N   0  0  0  0  0  0  0  0  0  0  0  0
  -31.7110  -14.8430   19.4910 O   0  0  0  0  0  0  0  0  0  0  0  0
  -25.2900  -13.8060   20.4450 C   0  0  0  0  0  0  0  0  0  0  0  0
  -24.2530  -13.0240   20.8720 C   0  0  0  0  0  0  0  0  0  0  0  0
  -24.7150  -11.6750   20.7870 C   0  0  0  0  0  0  0  0  0  0  0  0
  -26.3190  -12.9330   20.1270 N   0  0  0  0  0  0  0  0  0  0  0  0
  -25.9810  -11.6450   20.3880 N   0  0  0  0  0  0  0  0  0  0  0  0
  -24.0060  -10.4070   21.0010 C   0  0  0  0  0  0  0  0  0  0  0  0
  -24.4610   -9.4580   21.9410 C   0  0  0  0  0  3  0  0  0  0  0  0
  -23.7540   -8.2540   22.1420 C   0  0  0  0  0  3  0  0  0  0  0  0
  -22.5780   -7.9900   21.3980 C   0  0  0  0  0  0  0  0  0  0  0  0
  -22.1410   -8.9300   20.4470 C   0  0  0  0  0  3  0  0  0  0  0  0
  -22.8510  -10.1250   20.2450 C   0  0  0  0  0  3  0  0  0  0  0  0
  -21.8390   -6.8380   21.5080 O   0  0  0  0  0  0  0  0  0  0  0  0
  -21.7540   -6.1460   22.6890 C   0  0  0  0  0  0  0  0  0  0  0  0
  -21.2360   -6.7350   23.8620 C   0  0  0  0  0  3  0  0  0  0  0  0
  -21.1000   -5.9670   25.0350 C   0  0  0  0  0  3  0  0  0  0  0  0
  -21.4760   -4.6100   25.0350 C   0  0  0  0  0  0  0  0  0  0  0  0
  -21.9860   -4.0210   23.8660 C   0  0  0  0  0  3  0  0  0  0  0  0
  -22.1230   -4.7850   22.6950 C   0  0  0  0  0  0  0  0  0  0  0  0
  -22.5980   -4.2080   21.5660 F   0  0  0  0  0  0  0  0  0  0  0  0
  -21.3410   -3.8700   26.1600 F   0  0  0  0  0  0  0  0  0  0  0  0
  -22.8760  -13.4910   21.2470 C   0  0  0  0  0  0  0  0  0  0  0  0
  -22.2080  -12.7710   22.1400 N   0  0  0  0  0  0  0  0  0  0  0  0
  -22.4070  -14.5320   20.7840 O   0  0  0  0  0  0  0  0  0  0  0  0
  -22.6110  -11.9310   22.5290 H   0  0  0  0  0  0  0  0  0  0  0  0
  -21.2880  -13.0630   22.4390 H   0  0  0  0  0  0  0  0  0  0  0  0
  -25.4400  -15.1800   20.2830 N   0  0  0  0  0  0  0  0  0  0  0  0
  -24.6700  -15.8230   20.4240 H   0  0  0  0  0  0  0  0  0  0  0  0
  -26.2550  -15.6210   19.8740 H   0  0  0  0  0  0  0  0  0  0  0  0
  -29.3820  -23.9250   20.0600 C   0  0  0  0  0  3  0  0  0  0  0  0
  -30.2790  -24.0800   19.0820 F   0  0  0  0  0  0  0  0  0  0  0  0
  -28.1890  -24.9680   19.8250 C   0  0  0  0  0  2  0  0  0  0  0  0
  -28.4010  -26.4390   20.0080 O   0  0  0  0  0  0  0  0  0  0  0  0
  -24.6540  -31.8200   23.1040 C   0  0  0  0  0  0  0  0  0  0  0  0
  -27.2760  -27.2900   19.9810 C   0  0  0  0  0  0  0  0  0  0  0  0
  -23.4510  -30.4360   21.4530 C   0  0  0  0  0  3  0  0  0  0  0  0
  -24.9030  -28.9030   20.0050 C   0  0  0  0  0  0  0  0  0  0  0  0
  -25.9920  -30.7540   21.2740 C   0  0  0  0  0  2  0  0  0  0  0  0
  -26.0730  -29.3850   20.6070 C   0  0  0  0  0  0  0  0  0  0  0  0
  -27.2620  -28.5900   20.5820 C   0  0  0  0  0  3  0  0  0  0  0  0
  -26.0770  -26.8680   19.3610 C   0  0  0  0  0  3  0  0  0  0  0  0
  -24.9090  -27.6510   19.3740 C   0  0  0  0  0  3  0  0  0  0  0  0
  -23.6650  -29.7750   20.0660 C   0  0  0  0  0  2  0  0  0  0  0  0
  -24.7170  -31.0220   21.9980 N   0  0  0  0  0  0  0  0  0  0  0  0
  -23.5720  -32.0890   23.6440 O   0  0  0  0  0  0  0  0  0  0  0  0
  -22.7940  -29.4060   22.4040 C   0  0  0  0  0  0  0  0  0  0  0  0
  -21.4650  -29.2390   22.2910 N   0  0  0  0  0  0  0  0  0  0  0  0
  -23.4790  -28.7600   23.2010 O   0  0  0  0  0  0  0  0  0  0  0  0
  -20.9710  -29.8070   21.6170 H   0  0  0  0  0  0  0  0  0  0  0  0
  -18.0800  -28.1050   22.8690 C   0  0  0  0  0  0  0  0  0  0  0  0
  -20.6490  -28.2960   23.0570 C   0  0  0  0  0  3  0  0  0  0  0  0
  -20.6990  -26.8830   22.4290 C   0  0  0  0  0  2  0  0  0  0  0  0
  -19.5550  -26.6240   21.4430 C   0  0  0  0  0  2  0  0  0  0  0  0
  -18.1990  -26.7780   22.1370 C   0  0  0  0  0  2  0  0  0  0  0  0
  -19.2290  -28.8260   23.2850 C   0  0  0  0  0  0  0  0  0  0  0  0
  -19.0610  -30.0720   23.9310 C   0  0  0  0  0  3  0  0  0  0  0  0
  -17.7750  -30.5970   24.1600 C   0  0  0  0  0  3  0  0  0  0  0  0
  -16.6400  -29.8700   23.7590 C   0  0  0  0  0  3  0  0  0  0  0  0
  -16.7930  -28.6260   23.1220 C   0  0  0  0  0  3  0  0  0  0  0  0
  -25.9350  -32.4510   23.7270 C   0  0  0  0  0  3  0  0  0  0  0  0
  -26.4790  -31.6510   24.9760 C   0  0  1  0  0  0  0  0  0  0  0  0
  -25.4010  -31.3620   26.0470 C   0  0  0  0  0  1  0  0  0  0  0  0
  -27.0830  -30.2950   24.5400 C   0  0  0  0  0  1  0  0  0  0  0  0
  -27.6230  -32.4460   25.6490 C   0  0  0  0  0  1  0  0  0  0  0  0
  -25.6090  -33.8350   24.1040 N   0  0  0  0  0  0  0  0  0  0  0  0
  -25.9080  -34.9160   23.3700 C   0  0  0  0  0  0  0  0  0  0  0  0
  -26.5570  -34.8520   22.3230 O   0  0  0  0  0  0  0  0  0  0  0  0
  -25.0340  -33.9550   24.9250 H   0  0  0  0  0  0  0  0  0  0  0  0
  -24.1530  -36.6950   23.0930 C   0  0  0  0  0  1  0  0  0  0  0  0
  -25.4090  -36.2820   23.8770 C   0  0  0  0  0  3  0  0  0  0  0  0
  -27.5380  -37.1780   24.7140 C   0  0  0  0  0  1  0  0  0  0  0  0
  -26.4270  -37.3520   23.7830 N   0  0  0  0  0  0  0  0  0  0  0  0
  -26.0090  -38.2630   23.9520 H   0  0  0  0  0  0  0  0  0  0  0  0
  1  2  2  0
  2  8  1  0
  2 11  1  0
  3  8  1  0
  4  7  2  0
  5  1  1  0
  5  3  2  0
  6  3  1  0
  6  4  1  0
  9  6  1  0
 11 10  1  0
 12 11  1  0
 13 18  1  0
 14 15  1  0
 14 13  1  0
 16 15  1  0
 16 23  1  0
 16 17  1  0
 18 12  1  0
 18 17  1  0
 19 12  2  0
 20 21  2  0
 21 40  1  0
 22 21  1  0
 22 25  1  0
 23 24  1  0
 23 20  1  0
 24 22  2  0
 25 26  1  0
 26 27  2  0
 28 31  1  0
 28 27  1  0
 29 28  2  0
 30 29  1  0
 30 25  2  0
 31 32  1  0
 32 37  2  0
 32 33  1  0
 33 34  2  0
 35 34  1  0
 35 39  1  0
 36 35  2  0
 37 36  1  0
 38 37  1  0
 40 41  1  0
 41 44  1  0
 41 43  1  0
 42 40  2  0
 45 46  1  0
 45 20  1  0
 47 45  1  0
 48 49  1  0
 48  4  1  0
 50 51  1  0
 50 48  1  0
 52 63  2  0
 53 51  1  0
 53 58  1  0
 54 62  1  0
 54 64  1  0
 55 61  1  0
 55 57  1  0
 56 62  1  0
 57 56  1  0
 58 57  2  0
 59 60  1  0
 59 53  2  0
 60 55  2  0
 61 54  1  0
 62 52  1  0
 64 66  2  0
 65 64  1  0
 67 65  1  0
 68 77  2  0
 68 73  1  0
 69 65  1  0
 69 73  1  0
 70 69  1  0
 71 72  1  0
 71 70  1  0
 72 68  1  0
 73 74  2  0
 74 75  1  0
 76 75  2  0
 77 76  1  0
 78 52  1  0
 78 83  1  0
 78 79  1  0
 79 82  1  1
 79 80  1  0
 81 79  1  0
 83 86  1  0
 84 88  1  0
 84 83  1  0
 85 84  2  0
 88 87  1  0
 90 88  1  0
 90 91  1  0
 90 89  1  0
M  ISO  4  11 100  12 100  50 101  51 101
M  END
>  <TORSDO>  (19) 
F 19

>  <SCORE>  (19) 
-12.920

>  <name>  (19) 
19

>  <ligand_id>  (19) 
19

>  <original_smiles>  (19) 
[H]c1nc(N([H])C(=O)C([H])(F)C([H])([H])Oc2c([H])c([H])c3c(c2[H])C([H])([H])N(C(=O)C([H])(N([H])C(=O)C([H])(N([H])C([H])([H])[H])C([H])([H])[H])C(C([H])([H])[H])(C([H])([H])[H])C([H])([H])[H])C([H])(C(=O)N([H])C2([H])c4c([H])c([H])c([H])c([H])c4C([H])([H])C([H])([H])C2([H])[H])C3([H])[H])sc1C([H])(C(=O)N1C([H])([H])C([H])([H])C([H])([H])C([H])(n2nc(-c3c([H])c([H])c(Oc4c([H])c([H])c(F)c([H])c4F)c([H])c3[H])c(C(=O)N([H])[H])c2N([H])[H])C1([H])[H])C([H])([H])[H]

>  <smiles>  (19) 
[H]c1nc(N([H])C(=O)C([H])(F)C([H])([H])Oc2c([H])c([H])c3c(c2[H])C([H])([H])N(C(=O)C([H])(N([H])C(=O)C([H])(N([H])C([H])([H])[H])C([H])([H])[H])C(C([H])([H])[H])(C([H])([H])[H])C([H])([H])[H])C([H])(C(=O)N([H])C2([H])c4c([H])c([H])c([H])c([H])c4C([H])([H])C([H])([H])C2([H])[H])C3([H])[H])sc1C([H])(C(=O)N1C([H])([H])C([H])([H])C([H])([H])C([H])(n2nc(-c3c([H])c([H])c(Oc4c([H])c([H])c(F)c([H])c4F)c([H])c3[H])c(C(=O)N([H])[H])c2N([H])[H])C1([H])[H])C([H])([H])[H]

$$$$
20:0:0
     RDKit          3D

107115  0  0  1  0  0  0  0  0999 V2000
  -30.0690  -21.8470   19.6290 C   0  0  0  0  0  3  0  0  0  0  0  0
  -31.2410  -22.6400   19.1260 N   0  0  0  0  0  4  0  0  0  0  0  0
  -32.0210  -22.0080   19.2430 H   0  0  0  0  0  0  0  0  0  0  0  0
  -31.1560  -22.7490   18.1270 H   0  0  0  0  0  0  0  0  0  0  0  0
  -31.7640  -23.9140   19.7310 C   0  0  0  0  0  3  0  0  0  0  0  0
  -31.1470  -24.2910   21.1000 C   0  0  0  0  0  0  0  0  0  0  0  0
  -30.6370  -25.3920   21.3130 O   0  0  0  0  0  0  0  0  0  0  0  0
  -31.2260  -23.2530   22.2310 C   0  0  0  0  0  2  0  0  0  0  0  0
  -28.7140  -22.6310   22.2690 C   0  0  0  0  0  1  0  0  0  0  0  0
  -30.1750  -22.1490   24.2630 C   0  0  0  0  0  1  0  0  0  0  0  0
  -29.9370  -23.1030   23.0840 C   0  0  0  0  0  3  0  0  0  0  0  0
  -31.7440  -25.1120   18.7350 C   0  0  0  0  0  2  0  0  0  0  0  0
  -32.1850  -26.1220   16.4470 C   0  0  0  0  0  1  0  0  0  0  0  0
  -33.7100  -24.2990   17.2600 C   0  0  0  0  0  1  0  0  0  0  0  0
  -32.2720  -24.8470   17.3040 C   0  0  0  0  0  3  0  0  0  0  0  0
  -28.7430  -22.3340   18.8930 C   0  0  0  0  0  3  0  0  0  0  0  0
  -28.8060  -21.7420   17.6960 F   0  0  0  0  0  0  0  0  0  0  0  0
  -28.4160  -23.8700   18.5690 C   0  0  0  0  0  3  0  0  0  0  0  0
  -27.4760  -23.8230   17.5030 O   0  0  0  0  0  0  0  0  0  0  0  0
  -27.7350  -23.0910   16.9470 H   0  0  0  0  0  0  0  0  0  0  0  0
  -27.7210  -24.8050   19.6250 C   0  0  0  0  0  2  0  0  0  0  0  0
  -27.9020  -26.2430   19.3760 O   0  0  0  0  0  0  0  0  0  0  0  0
  -24.5520  -31.4620   23.0240 C   0  0  0  0  0  0  0  0  0  0  0  0
  -26.7920  -27.0820   19.4880 C   0  0  0  0  0  0  0  0  0  0  0  0
  -23.1930  -30.2280   21.3710 C   0  0  0  0  0  3  0  0  0  0  0  0
  -24.4930  -28.7430   19.7490 C   0  0  0  0  0  0  0  0  0  0  0  0
  -25.7260  -30.4780   21.0510 C   0  0  0  0  0  2  0  0  0  0  0  0
  -25.7110  -29.1560   20.3020 C   0  0  0  0  0  0  0  0  0  0  0  0
  -26.8670  -28.3360   20.1600 C   0  0  0  0  0  3  0  0  0  0  0  0
  -25.5530  -26.7180   18.9160 C   0  0  0  0  0  3  0  0  0  0  0  0
  -24.4120  -27.5270   19.0530 C   0  0  0  0  0  3  0  0  0  0  0  0
  -23.2940  -29.6480   19.9360 C   0  0  0  0  0  2  0  0  0  0  0  0
  -24.5120  -30.7360   21.8700 N   0  0  0  0  0  0  0  0  0  0  0  0
  -23.5150  -31.7400   23.6420 O   0  0  0  0  0  0  0  0  0  0  0  0
  -22.5540  -29.1660   22.2960 C   0  0  0  0  0  0  0  0  0  0  0  0
  -21.2250  -29.0020   22.1910 N   0  0  0  0  0  0  0  0  0  0  0  0
  -23.2500  -28.4960   23.0620 O   0  0  0  0  0  0  0  0  0  0  0  0
  -20.7240  -29.5910   21.5390 H   0  0  0  0  0  0  0  0  0  0  0  0
  -17.8550  -27.7870   22.6790 C   0  0  0  0  0  0  0  0  0  0  0  0
  -20.4150  -28.0390   22.9360 C   0  0  0  0  0  3  0  0  0  0  0  0
  -20.5160  -26.6290   22.3070 C   0  0  0  0  0  2  0  0  0  0  0  0
  -19.4030  -26.3430   21.2930 C   0  0  0  0  0  2  0  0  0  0  0  0
  -18.0280  -26.4640   21.9530 C   0  0  0  0  0  2  0  0  0  0  0  0
  -18.9770  -28.5350   23.1250 C   0  0  0  0  0  0  0  0  0  0  0  0
  -18.7580  -29.7770   23.7610 C   0  0  0  0  0  3  0  0  0  0  0  0
  -17.4540  -30.2670   23.9590 C   0  0  0  0  0  3  0  0  0  0  0  0
  -16.3480  -29.5130   23.5310 C   0  0  0  0  0  3  0  0  0  0  0  0
  -16.5490  -28.2740   22.8960 C   0  0  0  0  0  3  0  0  0  0  0  0
  -25.8950  -32.0000   23.6060 C   0  0  0  0  0  3  0  0  0  0  0  0
  -25.6650  -33.3830   24.0470 N   0  0  0  0  0  0  0  0  0  0  0  0
  -26.0150  -34.4740   23.3480 C   0  0  0  0  0  0  0  0  0  0  0  0
  -26.6360  -34.4140   22.2830 O   0  0  0  0  0  0  0  0  0  0  0  0
  -25.1080  -33.5070   24.8780 H   0  0  0  0  0  0  0  0  0  0  0  0
  -24.3580  -36.3600   23.2030 C   0  0  0  0  0  1  0  0  0  0  0  0
  -25.6140  -35.8450   23.9240 C   0  0  0  0  0  3  0  0  0  0  0  0
  -27.8140  -36.5780   24.7300 C   0  0  0  0  0  1  0  0  0  0  0  0
  -26.6890  -36.8580   23.8410 N   0  0  0  0  0  0  0  0  0  0  0  0
  -26.3310  -37.7800   24.0700 H   0  0  0  0  0  0  0  0  0  0  0  0
  -26.4520  -31.1250   24.7940 C   0  0  1  0  0  0  0  0  0  0  0  0
  -25.4170  -30.8600   25.9120 C   0  0  0  0  0  1  0  0  0  0  0  0
  -26.9460  -29.7520   24.2810 C   0  0  0  0  0  1  0  0  0  0  0  0
  -27.6780  -31.8220   25.4310 C   0  0  0  0  0  1  0  0  0  0  0  0
  -30.5220  -20.3230   19.3920 C   0  0  0  0  0  2  0  0  0  0  0  0
  -30.5820  -14.4580   19.9610 C   0  0  0  0  0  0  0  0  0  0  0  0
  -30.3790  -12.1770   19.0000 C   0  0  0  0  0  2  0  0  0  0  0  0
  -29.3660  -12.2160   17.8360 C   0  0  0  0  0  2  0  0  0  0  0  0
  -27.9150  -12.0690   18.3390 C   0  0  0  0  0  2  0  0  0  0  0  0
  -27.6100  -12.9830   19.5560 C   0  0  0  0  0  3  0  0  0  0  0  0
  -28.7240  -12.8700   20.6190 C   0  0  0  0  0  2  0  0  0  0  0  0
  -30.0040  -13.2180   19.9750 N   0  0  0  0  0  0  0  0  0  0  0  0
  -31.6460  -14.6780   19.3750 O   0  0  0  0  0  0  0  0  0  0  0  0
  -29.7070  -19.0670   19.7570 C   0  0  0  0  0  0  0  0  0  0  0  0
  -28.3510  -18.9140   19.9020 C   0  0  0  0  0  0  0  0  0  0  0  0
  -29.5260  -16.7760   20.2410 C   0  0  0  0  0  0  0  0  0  0  0  0
  -30.3660  -17.8060   19.9520 N   0  0  0  0  0  0  0  0  0  0  0  0
  -29.8740  -15.4220   20.6120 N   0  0  0  0  0  0  0  0  0  0  0  0
  -27.4490  -19.9100   19.7580 F   0  0  0  0  0  0  0  0  0  0  0  0
  -27.8440  -17.3000   20.3190 S   0  0  0  0  0  0  0  0  0  0  0  0
  -29.1500  -14.9820   21.1580 H   0  0  0  0  0  0  0  0  0  0  0  0
  -25.2810  -13.6010   20.4600 C   0  0  0  0  0  0  0  0  0  0  0  0
  -24.2300  -12.8340   20.8820 C   0  0  0  0  0  0  0  0  0  0  0  0
  -24.6600  -11.4770   20.7630 C   0  0  0  0  0  0  0  0  0  0  0  0
  -26.2900  -12.7110   20.1210 N   0  0  0  0  0  0  0  0  0  0  0  0
  -25.9230  -11.4260   20.3560 N   0  0  0  0  0  0  0  0  0  0  0  0
  -23.9220  -10.2230   20.9560 C   0  0  0  0  0  0  0  0  0  0  0  0
  -24.3630   -9.2460   21.8760 C   0  0  0  0  0  3  0  0  0  0  0  0
  -23.6240   -8.0570   22.0600 C   0  0  0  0  0  3  0  0  0  0  0  0
  -22.4370   -7.8350   21.3250 C   0  0  0  0  0  0  0  0  0  0  0  0
  -22.0180   -8.8010   20.3920 C   0  0  0  0  0  3  0  0  0  0  0  0
  -22.7550   -9.9810   20.2050 C   0  0  0  0  0  3  0  0  0  0  0  0
  -21.6700   -6.6980   21.4160 O   0  0  0  0  0  0  0  0  0  0  0  0
  -21.5610   -5.9970   22.5900 C   0  0  0  0  0  0  0  0  0  0  0  0
  -21.0420   -6.5860   23.7640 C   0  0  0  0  0  3  0  0  0  0  0  0
  -20.8840   -5.8120   24.9300 C   0  0  0  0  0  3  0  0  0  0  0  0
  -21.2330   -4.4470   24.9210 C   0  0  0  0  0  0  0  0  0  0  0  0
  -21.7460   -3.8590   23.7500 C   0  0  0  0  0  3  0  0  0  0  0  0
  -21.9040   -4.6310   22.5870 C   0  0  0  0  0  0  0  0  0  0  0  0
  -22.3760   -4.0530   21.4560 F   0  0  0  0  0  0  0  0  0  0  0  0
  -21.0760   -3.6990   26.0370 F   0  0  0  0  0  0  0  0  0  0  0  0
  -22.8700  -13.3250   21.2830 C   0  0  0  0  0  0  0  0  0  0  0  0
  -22.2050  -12.6120   22.1870 N   0  0  0  0  0  0  0  0  0  0  0  0
  -22.4080  -14.3710   20.8320 O   0  0  0  0  0  0  0  0  0  0  0  0
  -22.5930  -11.7630   22.5690 H   0  0  0  0  0  0  0  0  0  0  0  0
  -21.2930  -12.9200   22.5000 H   0  0  0  0  0  0  0  0  0  0  0  0
  -25.4610  -14.9720   20.3210 N   0  0  0  0  0  0  0  0  0  0  0  0
  -24.7270  -15.6440   20.5150 H   0  0  0  0  0  0  0  0  0  0  0  0
  -26.2870  -15.3970   19.9240 H   0  0  0  0  0  0  0  0  0  0  0  0
  1 63  1  0
  2  3  1  0
  2  1  1  0
  2  5  1  0
  4  2  1  0
  5 12  1  0
  5  6  1  0
  6  7  2  0
  6  8  1  0
  8 11  1  0
  9 11  1  0
 11 10  1  0
 13 15  1  0
 14 15  1  0
 15 12  1  0
 16 17  1  0
 16  1  1  0
 18 16  1  0
 18 21  1  0
 19 18  1  0
 20 19  1  0
 22 24  1  0
 22 21  1  0
 23 34  2  0
 24 29  1  0
 25 33  1  0
 25 35  1  0
 26 32  1  0
 26 28  1  0
 27 33  1  0
 28 27  1  0
 29 28  2  0
 30 31  1  0
 30 24  2  0
 31 26  2  0
 32 25  1  0
 33 23  1  0
 35 37  2  0
 36 35  1  0
 38 36  1  0
 39 48  2  0
 39 44  1  0
 40 36  1  0
 40 44  1  0
 41 40  1  0
 42 43  1  0
 42 41  1  0
 43 39  1  0
 44 45  2  0
 45 46  1  0
 47 46  2  0
 48 47  1  0
 49 23  1  0
 49 50  1  0
 49 59  1  0
 50 53  1  0
 51 55  1  0
 51 50  1  0
 52 51  2  0
 55 54  1  0
 57 55  1  0
 57 58  1  0
 57 56  1  0
 59 62  1  1
 59 60  1  0
 61 59  1  0
 63 72  1  0
 64 70  1  0
 64 76  1  0
 65 70  1  0
 66 67  1  0
 66 65  1  0
 68 67  1  0
 68 83  1  0
 68 69  1  0
 70 69  1  0
 71 64  2  0
 72 73  2  0
 72 75  1  0
 73 78  1  0
 74 78  1  0
 74 76  1  0
 75 74  2  0
 76 79  1  0
 77 73  1  0
 80 81  2  0
 81100  1  0
 82 81  1  0
 82 85  1  0
 83 84  1  0
 83 80  1  0
 84 82  2  0
 85 86  1  0
 86 87  2  0
 88 91  1  0
 88 87  1  0
 89 88  2  0
 90 89  1  0
 90 85  2  0
 91 92  1  0
 92 93  1  0
 93 94  2  0
 95 94  1  0
 95 99  1  0
 96 95  2  0
 97 92  2  0
 97 96  1  0
 98 97  1  0
100101  1  0
101104  1  0
101103  1  0
102100  2  0
105 80  1  0
105106  1  0
107105  1  0
M  ISO  4  21 101  22 101  64 100  76 100
M  END
>  <TORSDO>  (20) 
F 28

>  <SCORE>  (20) 
-10.588

>  <name>  (20) 
20

>  <ligand_id>  (20) 
20

>  <original_smiles>  (20) 
[H]OC([H])(C([H])([H])Oc1c([H])c([H])c2c(c1[H])C([H])([H])N(C(=O)C([H])(N([H])C(=O)C([H])(N([H])C([H])([H])[H])C([H])([H])[H])C(C([H])([H])[H])(C([H])([H])[H])C([H])([H])[H])C([H])(C(=O)N([H])C1([H])c3c([H])c([H])c([H])c([H])c3C([H])([H])C([H])([H])C1([H])[H])C2([H])[H])C([H])(F)C([H])(C([H])([H])c1nc(N([H])C(=O)N2C([H])([H])C([H])([H])C([H])([H])C([H])(n3nc(-c4c([H])c([H])c(Oc5c([H])c([H])c(F)c([H])c5F)c([H])c4[H])c(C(=O)N([H])[H])c3N([H])[H])C2([H])[H])sc1F)[N+]([H])([H])C([H])(C(=O)C([H])([H])C([H])(C([H])([H])[H])C([H])([H])[H])C([H])([H])C([H])(C([H])([H])[H])C([H])([H])[H]

>  <smiles>  (20) 
[H]OC([H])(C([H])([H])Oc1c([H])c([H])c2c(c1[H])C([H])([H])N(C(=O)C([H])(N([H])C(=O)C([H])(N([H])C([H])([H])[H])C([H])([H])[H])C(C([H])([H])[H])(C([H])([H])[H])C([H])([H])[H])C([H])(C(=O)N([H])C1([H])c3c([H])c([H])c([H])c([H])c3C([H])([H])C([H])([H])C1([H])[H])C2([H])[H])C([H])(F)C([H])(C([H])([H])c1nc(N([H])C(=O)N2C([H])([H])C([H])([H])C([H])([H])C([H])(n3nc(-c4c([H])c([H])c(Oc5c([H])c([H])c(F)c([H])c5F)c([H])c4[H])c(C(=O)N([H])[H])c3N([H])[H])C2([H])[H])sc1F)[N+]([H])([H])C([H])(C(=O)C([H])([H])C([H])(C([H])([H])[H])C([H])([H])[H])C([H])([H])C([H])(C([H])([H])[H])C([H])([H])[H]

$$$$
21:0:0
     RDKit          3D

 94102  0  0  1  0  0  0  0  0999 V2000
  -29.5100  -21.2380   21.0480 C   0  0  0  0  0  3  0  0  0  0  0  0
  -30.8630  -17.9260   19.6470 C   0  0  0  0  0  3  0  0  0  0  0  0
  -29.9530  -17.1600   20.3590 C   0  0  0  0  0  0  0  0  0  0  0  0
  -29.7080  -19.7600   20.5330 C   0  0  0  0  0  0  0  0  0  0  0  0
  -30.7040  -19.3390   19.7320 N   0  0  0  0  0  0  0  0  0  0  0  0
  -28.8150  -18.3100   21.1190 S   0  0  0  0  0  0  0  0  0  0  0  0
  -30.5960  -14.7140   20.0470 C   0  0  0  0  0  0  0  0  0  0  0  0
  -30.3380  -12.4950   18.9380 C   0  0  0  0  0  2  0  0  0  0  0  0
  -29.3280  -12.6480   17.7790 C   0  0  0  0  0  2  0  0  0  0  0  0
  -27.8810  -12.4730   18.2820 C   0  0  0  0  0  2  0  0  0  0  0  0
  -27.5920  -13.2990   19.5640 C   0  0  0  0  0  3  0  0  0  0  0  0
  -28.7090  -13.1170   20.6150 C   0  0  0  0  0  2  0  0  0  0  0  0
  -29.9820  -13.4860   19.9770 N   0  0  0  0  0  0  0  0  0  0  0  0
  -31.7350  -14.8730   19.5980 O   0  0  0  0  0  0  0  0  0  0  0  0
  -29.8230  -15.7720   20.4890 N   0  0  0  0  0  0  0  0  0  0  0  0
  -28.9580  -15.4720   20.9090 H   0  0  0  0  0  0  0  0  0  0  0  0
  -25.2420  -13.8840   20.4160 C   0  0  0  0  0  0  0  0  0  0  0  0
  -24.1950  -13.1040   20.8260 C   0  0  0  0  0  0  0  0  0  0  0  0
  -24.6530  -11.7530   20.7470 C   0  0  0  0  0  0  0  0  0  0  0  0
  -26.2710  -13.0070   20.1130 N   0  0  0  0  0  0  0  0  0  0  0  0
  -25.9270  -11.7200   20.3720 N   0  0  0  0  0  0  0  0  0  0  0  0
  -23.9360  -10.4870   20.9510 C   0  0  0  0  0  0  0  0  0  0  0  0
  -24.3860   -9.5250   21.8820 C   0  0  0  0  0  3  0  0  0  0  0  0
  -23.6680   -8.3250   22.0730 C   0  0  0  0  0  3  0  0  0  0  0  0
  -22.4870   -8.0780   21.3360 C   0  0  0  0  0  0  0  0  0  0  0  0
  -22.0570   -9.0290   20.3930 C   0  0  0  0  0  3  0  0  0  0  0  0
  -22.7750  -10.2210   20.1990 C   0  0  0  0  0  3  0  0  0  0  0  0
  -21.7390   -6.9300   21.4360 O   0  0  0  0  0  0  0  0  0  0  0  0
  -21.6800   -6.2100   22.6020 C   0  0  0  0  0  0  0  0  0  0  0  0
  -21.2250   -6.7850   23.8100 C   0  0  0  0  0  3  0  0  0  0  0  0
  -21.1140   -5.9910   24.9690 C   0  0  0  0  0  3  0  0  0  0  0  0
  -21.4470   -4.6250   24.9220 C   0  0  0  0  0  0  0  0  0  0  0  0
  -21.8940   -4.0500   23.7190 C   0  0  0  0  0  3  0  0  0  0  0  0
  -22.0080   -4.8400   22.5630 C   0  0  0  0  0  0  0  0  0  0  0  0
  -22.4190   -4.2760   21.4020 F   0  0  0  0  0  0  0  0  0  0  0  0
  -21.3330   -3.8600   26.0340 F   0  0  0  0  0  0  0  0  0  0  0  0
  -22.8130  -13.5760   21.1770 C   0  0  0  0  0  0  0  0  0  0  0  0
  -22.1250  -12.8610   22.0600 N   0  0  0  0  0  0  0  0  0  0  0  0
  -22.3530  -14.6140   20.7020 O   0  0  0  0  0  0  0  0  0  0  0  0
  -22.5110  -12.0210   22.4650 H   0  0  0  0  0  0  0  0  0  0  0  0
  -21.2020  -13.1600   22.3380 H   0  0  0  0  0  0  0  0  0  0  0  0
  -25.4000  -15.2580   20.2550 N   0  0  0  0  0  0  0  0  0  0  0  0
  -24.6380  -15.9090   20.4130 H   0  0  0  0  0  0  0  0  0  0  0  0
  -26.2230  -15.7000   19.8670 H   0  0  0  0  0  0  0  0  0  0  0  0
  -29.0880  -22.4270   20.0380 C   0  0  0  0  0  2  0  0  0  0  0  0
  -28.6550  -23.8550   20.6210 C   0  0  0  0  0  0  0  0  0  0  0  0
  -28.3350  -23.9540   21.8110 O   0  0  0  0  0  0  0  0  0  0  0  0
  -28.5920  -25.1430   19.6890 C   0  0  0  0  0  2  0  0  0  0  0  0
  -28.4570  -26.4790   20.3470 O   0  0  0  0  0  0  0  0  0  0  0  0
  -24.6490  -31.8830   23.2430 C   0  0  0  0  0  0  0  0  0  0  0  0
  -27.3110  -27.2950   20.2520 C   0  0  0  0  0  0  0  0  0  0  0  0
  -23.4640  -30.4610   21.6080 C   0  0  0  0  0  3  0  0  0  0  0  0
  -24.9330  -28.9020   20.2040 C   0  0  0  0  0  0  0  0  0  0  0  0
  -26.0010  -30.7910   21.4340 C   0  0  0  0  0  2  0  0  0  0  0  0
  -26.0930  -29.4020   20.8080 C   0  0  0  0  0  0  0  0  0  0  0  0
  -27.2790  -28.6080   20.8250 C   0  0  0  0  0  3  0  0  0  0  0  0
  -26.1230  -26.8470   19.6290 C   0  0  0  0  0  3  0  0  0  0  0  0
  -24.9530  -27.6320   19.6060 C   0  0  0  0  0  3  0  0  0  0  0  0
  -23.6880  -29.7670   20.2380 C   0  0  0  0  0  2  0  0  0  0  0  0
  -24.7240  -31.0630   22.1520 N   0  0  0  0  0  0  0  0  0  0  0  0
  -23.5600  -32.1590   23.7690 O   0  0  0  0  0  0  0  0  0  0  0  0
  -22.8020  -29.4500   22.5760 C   0  0  0  0  0  0  0  0  0  0  0  0
  -21.4750  -29.2720   22.4500 N   0  0  0  0  0  0  0  0  0  0  0  0
  -23.4800  -28.8290   23.3970 O   0  0  0  0  0  0  0  0  0  0  0  0
  -20.9870  -29.8250   21.7600 H   0  0  0  0  0  0  0  0  0  0  0  0
  -18.0970  -28.0870   22.9620 C   0  0  0  0  0  0  0  0  0  0  0  0
  -20.6570  -28.3390   23.2250 C   0  0  0  0  0  3  0  0  0  0  0  0
  -20.7540  -26.9050   22.6540 C   0  0  0  0  0  2  0  0  0  0  0  0
  -19.6480  -26.5830   21.6430 C   0  0  0  0  0  2  0  0  0  0  0  0
  -18.2680  -26.7350   22.2890 C   0  0  0  0  0  2  0  0  0  0  0  0
  -19.2190  -28.8460   23.3860 C   0  0  0  0  0  0  0  0  0  0  0  0
  -19.0050  -30.1110   23.9740 C   0  0  0  0  0  3  0  0  0  0  0  0
  -17.7030  -30.6180   24.1440 C   0  0  0  0  0  3  0  0  0  0  0  0
  -16.5960  -29.8540   23.7360 C   0  0  0  0  0  3  0  0  0  0  0  0
  -16.7930  -28.5910   23.1510 C   0  0  0  0  0  3  0  0  0  0  0  0
  -25.9220  -32.5320   23.8660 C   0  0  0  0  0  3  0  0  0  0  0  0
  -25.5970  -33.9290   24.1900 N   0  0  0  0  0  0  0  0  0  0  0  0
  -25.9210  -34.9830   23.4300 C   0  0  0  0  0  0  0  0  0  0  0  0
  -26.5930  -34.8830   22.4000 O   0  0  0  0  0  0  0  0  0  0  0  0
  -25.0000  -34.0790   24.9910 H   0  0  0  0  0  0  0  0  0  0  0  0
  -24.1770  -36.7600   23.0670 C   0  0  0  0  0  1  0  0  0  0  0  0
  -25.4200  -36.3680   23.8820 C   0  0  0  0  0  3  0  0  0  0  0  0
  -27.5420  -37.2770   24.7180 C   0  0  0  0  0  1  0  0  0  0  0  0
  -26.4430  -37.4310   23.7690 N   0  0  0  0  0  0  0  0  0  0  0  0
  -26.0280  -38.3470   23.9120 H   0  0  0  0  0  0  0  0  0  0  0  0
  -26.4400  -31.7730   25.1490 C   0  0  1  0  0  0  0  0  0  0  0  0
  -25.3430  -31.5270   26.2110 C   0  0  0  0  0  1  0  0  0  0  0  0
  -27.0430  -30.4020   24.7650 C   0  0  0  0  0  1  0  0  0  0  0  0
  -27.5760  -32.5850   25.8160 C   0  0  0  0  0  1  0  0  0  0  0  0
  -30.7410  -21.6850   21.8980 C   0  0  0  0  0  2  0  0  0  0  0  0
  -32.1790  -21.8150   23.9360 C   0  0  0  0  0  1  0  0  0  0  0  0
  -31.5490  -19.5600   23.1160 C   0  0  0  0  0  1  0  0  0  0  0  0
  -29.8190  -21.0460   24.1990 C   0  0  0  0  0  1  0  0  0  0  0  0
  -31.0460  -21.0080   23.2680 C   0  0  2  0  0  0  0  0  0  0  0  0
  1 45  1  0
  1 90  1  0
  2  5  1  0
  2  3  2  0
  3 15  1  0
  3  6  1  0
  4  1  1  0
  4  6  1  0
  5  4  2  0
  7 15  1  0
  8 13  1  0
  9 10  1  0
  9  8  1  0
 11 10  1  0
 11 20  1  0
 11 12  1  0
 13  7  1  0
 13 12  1  0
 14  7  2  0
 15 16  1  0
 17 18  2  0
 18 37  1  0
 19 18  1  0
 19 22  1  0
 20 21  1  0
 20 17  1  0
 21 19  2  0
 22 23  1  0
 23 24  2  0
 25 28  1  0
 25 24  1  0
 26 25  2  0
 27 26  1  0
 27 22  2  0
 28 29  1  0
 29 30  1  0
 30 31  2  0
 32 31  1  0
 32 36  1  0
 33 32  2  0
 34 29  2  0
 34 33  1  0
 35 34  1  0
 37 38  1  0
 38 41  1  0
 38 40  1  0
 39 37  2  0
 42 43  1  0
 42 17  1  0
 44 42  1  0
 45 46  1  0
 46 47  2  0
 48 49  1  0
 48 46  1  0
 50 61  2  0
 51 49  1  0
 51 56  1  0
 52 60  1  0
 52 62  1  0
 53 59  1  0
 53 55  1  0
 54 60  1  0
 55 56  2  0
 55 54  1  0
 57 51  2  0
 58 57  1  0
 58 53  2  0
 59 52  1  0
 60 50  1  0
 62 64  2  0
 63 62  1  0
 65 63  1  0
 66 75  2  0
 66 71  1  0
 67 63  1  0
 67 71  1  0
 68 67  1  0
 69 70  1  0
 69 68  1  0
 70 66  1  0
 71 72  2  0
 72 73  1  0
 74 73  2  0
 75 74  1  0
 76 50  1  0
 76 77  1  0
 76 86  1  0
 77 80  1  0
 78 82  1  0
 78 77  1  0
 79 78  2  0
 82 81  1  0
 84 82  1  0
 84 85  1  0
 84 83  1  0
 86 89  1  1
 86 87  1  0
 88 86  1  0
 90 94  1  0
 94 92  1  6
 94 91  1  0
 94 93  1  0
M  ISO  4   7 100  15 100  48 101  49 101
M  END
>  <TORSDO>  (21) 
F 22

>  <SCORE>  (21) 
-12.336

>  <name>  (21) 
21

>  <ligand_id>  (21) 
21

>  <original_smiles>  (21) 
[H]c1nc(C([H])(C([H])([H])C(=O)C([H])([H])Oc2c([H])c([H])c3c(c2[H])C([H])([H])N(C(=O)C([H])(N([H])C(=O)C([H])(N([H])C([H])([H])[H])C([H])([H])[H])C(C([H])([H])[H])(C([H])([H])[H])C([H])([H])[H])C([H])(C(=O)N([H])C2([H])c4c([H])c([H])c([H])c([H])c4C([H])([H])C([H])([H])C2([H])[H])C3([H])[H])C([H])([H])C(C([H])([H])[H])(C([H])([H])[H])C([H])([H])[H])sc1N([H])C(=O)N1C([H])([H])C([H])([H])C([H])([H])C([H])(n2nc(-c3c([H])c([H])c(Oc4c([H])c([H])c(F)c([H])c4F)c([H])c3[H])c(C(=O)N([H])[H])c2N([H])[H])C1([H])[H]

>  <smiles>  (21) 
[H]c1nc(C([H])(C([H])([H])C(=O)C([H])([H])Oc2c([H])c([H])c3c(c2[H])C([H])([H])N(C(=O)C([H])(N([H])C(=O)C([H])(N([H])C([H])([H])[H])C([H])([H])[H])C(C([H])([H])[H])(C([H])([H])[H])C([H])([H])[H])C([H])(C(=O)N([H])C2([H])c4c([H])c([H])c([H])c([H])c4C([H])([H])C([H])([H])C2([H])[H])C3([H])[H])C([H])([H])C(C([H])([H])[H])(C([H])([H])[H])C([H])([H])[H])sc1N([H])C(=O)N1C([H])([H])C([H])([H])C([H])([H])C([H])(n2nc(-c3c([H])c([H])c(Oc4c([H])c([H])c(F)c([H])c4F)c([H])c3[H])c(C(=O)N([H])[H])c2N([H])[H])C1([H])[H]

$$$$
22:0:0
     RDKit          3D

 97105  0  0  1  0  0  0  0  0999 V2000
  -30.4990  -17.7980   21.7000 C   0  0  0  0  0  0  0  0  0  0  0  0
  -30.6470  -18.5750   22.8320 C   0  0  0  0  0  0  0  0  0  0  0  0
  -30.2690  -19.8800   20.7870 C   0  0  0  0  0  0  0  0  0  0  0  0
  -30.6010  -22.0740   19.7160 C   0  0  0  0  0  0  0  0  0  0  0  0
  -30.2520  -18.5600   20.5390 N   0  0  0  0  0  0  0  0  0  0  0  0
  -30.0330  -20.8520   19.7750 N   0  0  0  0  0  0  0  0  0  0  0  0
  -31.6420  -22.3540   20.3180 O   0  0  0  0  0  0  0  0  0  0  0  0
  -30.5140  -20.2750   22.4850 S   0  0  0  0  0  0  0  0  0  0  0  0
  -29.2940  -20.6490   19.1200 H   0  0  0  0  0  0  0  0  0  0  0  0
  -30.9050  -18.1780   24.1390 N   0  0  0  0  0  0  0  0  0  0  0  0
  -30.9670  -18.8230   24.9210 H   0  0  0  0  0  0  0  0  0  0  0  0
  -31.1080  -17.2200   24.4120 H   0  0  0  0  0  0  0  0  0  0  0  0
  -32.0710  -15.9060   22.1430 C   0  0  0  0  0  1  0  0  0  0  0  0
  -30.6630  -16.2900   21.6430 C   0  0  0  0  0  3  0  0  0  0  0  0
  -30.9840  -14.6960   19.7680 C   0  0  0  0  0  0  0  0  0  0  0  0
  -30.5130  -12.5800   18.6060 C   0  0  0  0  0  2  0  0  0  0  0  0
  -29.4570  -12.8510   17.5150 C   0  0  0  0  0  2  0  0  0  0  0  0
  -28.0360  -12.7200   18.0920 C   0  0  0  0  0  2  0  0  0  0  0  0
  -27.8490  -13.5130   19.4150 C   0  0  0  0  0  3  0  0  0  0  0  0
  -29.0130  -13.2510   20.3970 C   0  0  0  0  0  2  0  0  0  0  0  0
  -30.2730  -13.5400   19.6940 N   0  0  0  0  0  0  0  0  0  0  0  0
  -32.0460  -14.8680   19.1640 O   0  0  0  0  0  0  0  0  0  0  0  0
  -30.3600  -15.7500   20.3140 N   0  0  0  0  0  0  0  0  0  0  0  0
  -30.3270  -16.5290   19.6710 H   0  0  0  0  0  0  0  0  0  0  0  0
  -25.5800  -14.1230   20.4650 C   0  0  0  0  0  0  0  0  0  0  0  0
  -24.5240  -13.3520   20.8680 C   0  0  0  0  0  0  0  0  0  0  0  0
  -24.9190  -11.9970   20.6530 C   0  0  0  0  0  0  0  0  0  0  0  0
  -26.5510  -13.2370   20.0250 N   0  0  0  0  0  0  0  0  0  0  0  0
  -26.1640  -11.9480   20.1970 N   0  0  0  0  0  0  0  0  0  0  0  0
  -24.1650  -10.7460   20.8030 C   0  0  0  0  0  0  0  0  0  0  0  0
  -24.5860   -9.7330   21.6920 C   0  0  0  0  0  3  0  0  0  0  0  0
  -23.8380   -8.5450   21.8320 C   0  0  0  0  0  3  0  0  0  0  0  0
  -22.6510   -8.3630   21.0800 C   0  0  0  0  0  0  0  0  0  0  0  0
  -22.2500   -9.3630   20.1790 C   0  0  0  0  0  3  0  0  0  0  0  0
  -23.0000  -10.5430   20.0360 C   0  0  0  0  0  3  0  0  0  0  0  0
  -21.8700   -7.2340   21.1340 O   0  0  0  0  0  0  0  0  0  0  0  0
  -21.6990   -6.5310   22.2990 C   0  0  0  0  0  0  0  0  0  0  0  0
  -21.1540   -7.1280   23.4580 C   0  0  0  0  0  3  0  0  0  0  0  0
  -20.9340   -6.3500   24.6130 C   0  0  0  0  0  3  0  0  0  0  0  0
  -21.2450   -4.9770   24.6090 C   0  0  0  0  0  0  0  0  0  0  0  0
  -21.7810   -4.3810   23.4540 C   0  0  0  0  0  3  0  0  0  0  0  0
  -22.0070   -5.1560   22.3030 C   0  0  0  0  0  0  0  0  0  0  0  0
  -22.5060   -4.5710   21.1860 F   0  0  0  0  0  0  0  0  0  0  0  0
  -21.0280   -4.2280   25.7150 F   0  0  0  0  0  0  0  0  0  0  0  0
  -23.1900  -13.8480   21.3470 C   0  0  0  0  0  0  0  0  0  0  0  0
  -22.5490  -13.1070   22.2490 N   0  0  0  0  0  0  0  0  0  0  0  0
  -22.7310  -14.9240   20.9640 O   0  0  0  0  0  0  0  0  0  0  0  0
  -22.9430  -12.2410   22.5800 H   0  0  0  0  0  0  0  0  0  0  0  0
  -21.6590  -13.4160   22.6160 H   0  0  0  0  0  0  0  0  0  0  0  0
  -25.7880  -15.4980   20.4200 N   0  0  0  0  0  0  0  0  0  0  0  0
  -25.0750  -16.1610   20.7050 H   0  0  0  0  0  0  0  0  0  0  0  0
  -26.6570  -15.9410   20.1470 H   0  0  0  0  0  0  0  0  0  0  0  0
  -29.9660  -23.1300   18.7910 C   0  0  0  0  0  2  0  0  0  0  0  0
  -29.3520  -24.3340   19.5600 C   0  0  0  0  0  3  0  0  0  0  0  0
  -28.3040  -23.9220   20.2780 F   0  0  0  0  0  0  0  0  0  0  0  0
  -28.9000  -25.5020   18.6510 C   0  0  0  0  0  2  0  0  0  0  0  0
  -28.6270  -26.6880   19.4100 O   0  0  0  0  0  0  0  0  0  0  0  0
  -24.6420  -31.2980   23.0470 C   0  0  0  0  0  0  0  0  0  0  0  0
  -27.3710  -27.2680   19.4980 C   0  0  0  0  0  0  0  0  0  0  0  0
  -23.4260  -29.9760   21.3430 C   0  0  0  0  0  3  0  0  0  0  0  0
  -24.8880  -28.6260   19.7390 C   0  0  0  0  0  0  0  0  0  0  0  0
  -25.9160  -30.4810   21.0660 C   0  0  0  0  0  2  0  0  0  0  0  0
  -26.0400  -29.1660   20.3200 C   0  0  0  0  0  0  0  0  0  0  0  0
  -27.2730  -28.4910   20.2010 C   0  0  0  0  0  3  0  0  0  0  0  0
  -26.1950  -26.7290   18.9260 C   0  0  0  0  0  3  0  0  0  0  0  0
  -24.9600  -27.4040   19.0460 C   0  0  0  0  0  3  0  0  0  0  0  0
  -23.6050  -29.4120   19.9070 C   0  0  0  0  0  2  0  0  0  0  0  0
  -24.6830  -30.5940   21.8810 N   0  0  0  0  0  0  0  0  0  0  0  0
  -23.5740  -31.4760   23.6520 O   0  0  0  0  0  0  0  0  0  0  0  0
  -22.8620  -28.8530   22.2430 C   0  0  0  0  0  0  0  0  0  0  0  0
  -21.5660  -28.5430   22.0750 N   0  0  0  0  0  0  0  0  0  0  0  0
  -23.5900  -28.2630   23.0450 O   0  0  0  0  0  0  0  0  0  0  0  0
  -21.0310  -29.0810   21.4060 H   0  0  0  0  0  0  0  0  0  0  0  0
  -18.3640  -26.8940   22.3260 C   0  0  0  0  0  0  0  0  0  0  0  0
  -20.8370  -27.4920   22.7810 C   0  0  0  0  0  3  0  0  0  0  0  0
  -21.1730  -26.0950   22.2080 C   0  0  0  0  0  2  0  0  0  0  0  0
  -20.1990  -25.6430   21.1160 C   0  0  0  0  0  2  0  0  0  0  0  0
  -18.7700  -25.5910   21.6600 C   0  0  0  0  0  2  0  0  0  0  0  0
  -19.3350  -27.7940   22.8390 C   0  0  0  0  0  0  0  0  0  0  0  0
  -18.9050  -29.0100   23.4150 C   0  0  0  0  0  3  0  0  0  0  0  0
  -17.5350  -29.3280   23.4860 C   0  0  0  0  0  3  0  0  0  0  0  0
  -16.5780  -28.4260   22.9900 C   0  0  0  0  0  3  0  0  0  0  0  0
  -16.9920  -27.2110   22.4160 C   0  0  0  0  0  3  0  0  0  0  0  0
  -25.9260  -31.9370   23.6630 C   0  0  0  0  0  3  0  0  0  0  0  0
  -25.6090  -33.3270   24.0100 N   0  0  0  0  0  0  0  0  0  0  0  0
  -25.9380  -34.3910   23.2630 C   0  0  0  0  0  0  0  0  0  0  0  0
  -26.6120  -34.3040   22.2350 O   0  0  0  0  0  0  0  0  0  0  0  0
  -25.0140  -33.4680   24.8130 H   0  0  0  0  0  0  0  0  0  0  0  0
  -24.1960  -36.1690   22.9200 C   0  0  0  0  0  1  0  0  0  0  0  0
  -25.4370  -35.7710   23.7330 C   0  0  0  0  0  3  0  0  0  0  0  0
  -27.5580  -36.6690   24.5820 C   0  0  0  0  0  1  0  0  0  0  0  0
  -26.4620  -36.8330   23.6320 N   0  0  0  0  0  0  0  0  0  0  0  0
  -26.0490  -37.7490   23.7830 H   0  0  0  0  0  0  0  0  0  0  0  0
  -26.4610  -31.1580   24.9270 C   0  0  1  0  0  0  0  0  0  0  0  0
  -25.3830  -30.9160   26.0090 C   0  0  0  0  0  1  0  0  0  0  0  0
  -27.0400  -29.7840   24.5120 C   0  0  0  0  0  1  0  0  0  0  0  0
  -27.6190  -31.9490   25.5810 C   0  0  0  0  0  1  0  0  0  0  0  0
  1  2  2  0
  2 10  1  0
  3  8  1  0
  4  6  1  0
  4  7  2  0
  5  3  2  0
  5  1  1  0
  6  3  1  0
  8  2  1  0
  9  6  1  0
 10 12  1  0
 10 11  1  0
 14  1  1  0
 14 13  1  0
 15 23  1  0
 16 21  1  0
 17 18  1  0
 17 16  1  0
 19 18  1  0
 19 28  1  0
 19 20  1  0
 21 15  1  0
 21 20  1  0
 22 15  2  0
 23 14  1  0
 24 23  1  0
 25 26  2  0
 26 45  1  0
 27 30  1  0
 27 26  1  0
 28 29  1  0
 28 25  1  0
 29 27  2  0
 30 31  1  0
 31 32  2  0
 33 36  1  0
 33 32  1  0
 34 33  2  0
 35 34  1  0
 35 30  2  0
 36 37  1  0
 37 42  2  0
 37 38  1  0
 38 39  2  0
 40 39  1  0
 40 44  1  0
 41 40  2  0
 42 41  1  0
 43 42  1  0
 45 46  1  0
 46 48  1  0
 46 49  1  0
 47 45  2  0
 50 25  1  0
 50 51  1  0
 52 50  1  0
 53 54  1  0
 53  4  1  0
 54 55  1  0
 56 57  1  0
 56 54  1  0
 57 59  1  0
 58 69  2  0
 59 64  1  0
 60 68  1  0
 60 70  1  0
 61 67  1  0
 61 63  1  0
 62 68  1  0
 63 62  1  0
 64 63  2  0
 65 66  1  0
 65 59  2  0
 66 61  2  0
 67 60  1  0
 68 58  1  0
 70 72  2  0
 71 70  1  0
 73 71  1  0
 74 83  2  0
 74 79  1  0
 75 71  1  0
 75 79  1  0
 76 75  1  0
 77 78  1  0
 77 76  1  0
 78 74  1  0
 79 80  2  0
 80 81  1  0
 82 81  2  0
 83 82  1  0
 84 58  1  0
 84 85  1  0
 84 94  1  0
 85 88  1  0
 86 90  1  0
 86 85  1  0
 87 86  2  0
 90 89  1  0
 92 90  1  0
 92 93  1  0
 92 91  1  0
 94 97  1  1
 94 95  1  0
 96 94  1  0
M  ISO  4  15 100  23 100  56 101  57 101
M  END
>  <TORSDO>  (22) 
F 21

>  <SCORE>  (22) 
-9.359

>  <name>  (22) 
22

>  <ligand_id>  (22) 
22

>  <original_smiles>  (22) 
[H]c1c([H])c([H])c2c(c1[H])C([H])([H])C([H])([H])C([H])([H])C2([H])N([H])C(=O)C1([H])N(C(=O)C([H])(N([H])C(=O)C([H])(N([H])C([H])([H])[H])C([H])([H])[H])C(C([H])([H])[H])(C([H])([H])[H])C([H])([H])[H])C([H])([H])c2c([H])c(OC([H])([H])C([H])(F)C([H])([H])C(=O)N([H])c3nc(C([H])(N([H])C(=O)N4C([H])([H])C([H])([H])C([H])([H])C([H])(n5nc(-c6c([H])c([H])c(Oc7c([H])c([H])c(F)c([H])c7F)c([H])c6[H])c(C(=O)N([H])[H])c5N([H])[H])C4([H])[H])C([H])([H])[H])c(N([H])[H])s3)c([H])c([H])c2C1([H])[H]

>  <smiles>  (22) 
[H]c1c([H])c([H])c2c(c1[H])C([H])([H])C([H])([H])C([H])([H])C2([H])N([H])C(=O)C1([H])N(C(=O)C([H])(N([H])C(=O)C([H])(N([H])C([H])([H])[H])C([H])([H])[H])C(C([H])([H])[H])(C([H])([H])[H])C([H])([H])[H])C([H])([H])c2c([H])c(OC([H])([H])C([H])(F)C([H])([H])C(=O)N([H])c3nc(C([H])(N([H])C(=O)N4C([H])([H])C([H])([H])C([H])([H])C([H])(n5nc(-c6c([H])c([H])c(Oc7c([H])c([H])c(F)c([H])c7F)c([H])c6[H])c(C(=O)N([H])[H])c5N([H])[H])C4([H])[H])C([H])([H])[H])c(N([H])[H])s3)c([H])c([H])c2C1([H])[H]

$$$$
23:0:0
     RDKit          3D

 95103  0  0  1  0  0  0  0  0999 V2000
  -28.2480  -22.2090   20.6480 C   0  0  0  0  0  0  0  0  0  0  0  0
  -28.8720  -21.2670   21.3750 N   0  0  0  0  0  0  0  0  0  0  0  0
  -28.2480  -22.2320   19.4130 O   0  0  0  0  0  0  0  0  0  0  0  0
  -28.9390  -21.4600   22.3650 H   0  0  0  0  0  0  0  0  0  0  0  0
  -29.6510  -18.0060   19.8800 C   0  0  0  0  0  3  0  0  0  0  0  0
  -29.0320  -19.2910   19.8780 C   0  0  0  0  0  3  0  0  0  0  0  0
  -30.4410  -17.7910   20.9800 C   0  0  0  0  0  0  0  0  0  0  0  0
  -29.3320  -20.0510   20.9870 C   0  0  0  0  0  0  0  0  0  0  0  0
  -30.4130  -19.1740   22.0400 S   0  0  0  0  0  0  0  0  0  0  0  0
  -31.2690  -16.5950   21.3370 C   0  0  0  0  0  2  0  0  0  0  0  0
  -31.1420  -14.4440   20.0790 C   0  0  0  0  0  0  0  0  0  0  0  0
  -30.7400  -12.2910   18.9420 C   0  0  0  0  0  2  0  0  0  0  0  0
  -29.7510  -12.4650   17.7730 C   0  0  0  0  0  2  0  0  0  0  0  0
  -28.2940  -12.3670   18.2660 C   0  0  0  0  0  2  0  0  0  0  0  0
  -28.0210  -13.2590   19.5060 C   0  0  0  0  0  3  0  0  0  0  0  0
  -29.1080  -13.0340   20.5780 C   0  0  0  0  0  2  0  0  0  0  0  0
  -30.4200  -13.2990   19.9600 N   0  0  0  0  0  0  0  0  0  0  0  0
  -32.1680  -14.6710   19.4310 O   0  0  0  0  0  0  0  0  0  0  0  0
  -30.6550  -15.3260   20.9580 N   0  0  0  0  0  0  0  0  0  0  0  0
  -29.8090  -15.0670   21.4430 H   0  0  0  0  0  0  0  0  0  0  0  0
  -25.6780  -13.9540   20.3240 C   0  0  0  0  0  0  0  0  0  0  0  0
  -24.6000  -13.2160   20.7320 C   0  0  0  0  0  0  0  0  0  0  0  0
  -25.0060  -11.8490   20.6670 C   0  0  0  0  0  0  0  0  0  0  0  0
  -26.6780  -13.0360   20.0390 N   0  0  0  0  0  0  0  0  0  0  0  0
  -26.2780  -11.7650   20.2980 N   0  0  0  0  0  0  0  0  0  0  0  0
  -24.2440  -10.6110   20.8760 C   0  0  0  0  0  0  0  0  0  0  0  0
  -24.6380   -9.6530   21.8360 C   0  0  0  0  0  3  0  0  0  0  0  0
  -23.8790   -8.4790   22.0320 C   0  0  0  0  0  3  0  0  0  0  0  0
  -22.7090   -8.2580   21.2670 C   0  0  0  0  0  0  0  0  0  0  0  0
  -22.3330   -9.2030   20.2960 C   0  0  0  0  0  3  0  0  0  0  0  0
  -23.0950  -10.3670   20.1000 C   0  0  0  0  0  3  0  0  0  0  0  0
  -21.9230   -7.1350   21.3690 O   0  0  0  0  0  0  0  0  0  0  0  0
  -21.7850   -6.4590   22.5550 C   0  0  0  0  0  0  0  0  0  0  0  0
  -21.2770   -7.0860   23.7150 C   0  0  0  0  0  3  0  0  0  0  0  0
  -21.0860   -6.3360   24.8930 C   0  0  0  0  0  3  0  0  0  0  0  0
  -21.3960   -4.9620   24.9120 C   0  0  0  0  0  0  0  0  0  0  0  0
  -21.8970   -4.3370   23.7570 C   0  0  0  0  0  3  0  0  0  0  0  0
  -22.0890   -5.0830   22.5820 C   0  0  0  0  0  0  0  0  0  0  0  0
  -22.5530   -4.4720   21.4650 F   0  0  0  0  0  0  0  0  0  0  0  0
  -21.2050   -4.2400   26.0410 F   0  0  0  0  0  0  0  0  0  0  0  0
  -23.2350  -13.7400   21.0750 C   0  0  0  0  0  0  0  0  0  0  0  0
  -22.5200  -13.0590   21.9640 N   0  0  0  0  0  0  0  0  0  0  0  0
  -22.8130  -14.7890   20.5910 O   0  0  0  0  0  0  0  0  0  0  0  0
  -22.8730  -12.2080   22.3770 H   0  0  0  0  0  0  0  0  0  0  0  0
  -21.6070  -13.3960   22.2370 H   0  0  0  0  0  0  0  0  0  0  0  0
  -25.8890  -15.3190   20.1530 N   0  0  0  0  0  0  0  0  0  0  0  0
  -25.1580  -16.0060   20.3040 H   0  0  0  0  0  0  0  0  0  0  0  0
  -26.7490  -15.7240   19.8040 H   0  0  0  0  0  0  0  0  0  0  0  0
  -25.9940  -23.2720   20.9910 C   0  0  0  0  0  1  0  0  0  0  0  0
  -27.4670  -23.2720   21.4540 C   0  0  0  0  0  3  0  0  0  0  0  0
  -28.0670  -24.7100   21.5000 C   0  0  0  0  0  3  0  0  0  0  0  0
  -29.1570  -24.7360   22.4100 O   0  0  0  0  0  0  0  0  0  0  0  0
  -29.4720  -25.6350   22.4430 H   0  0  0  0  0  0  0  0  0  0  0  0
  -28.5390  -25.3370   20.1600 C   0  0  0  0  0  2  0  0  0  0  0  0
  -28.5620  -26.7750   20.2460 O   0  0  0  0  0  0  0  0  0  0  0  0
  -24.6670  -31.9040   23.2790 C   0  0  0  0  0  0  0  0  0  0  0  0
  -27.3690  -27.4720   20.2260 C   0  0  0  0  0  0  0  0  0  0  0  0
  -23.4850  -30.4900   21.6340 C   0  0  0  0  0  3  0  0  0  0  0  0
  -24.9590  -28.9620   20.2260 C   0  0  0  0  0  0  0  0  0  0  0  0
  -26.0120  -30.8640   21.4570 C   0  0  0  0  0  2  0  0  0  0  0  0
  -26.1110  -29.4950   20.8170 C   0  0  0  0  0  0  0  0  0  0  0  0
  -27.3180  -28.7590   20.8100 C   0  0  0  0  0  3  0  0  0  0  0  0
  -26.1950  -26.9540   19.6290 C   0  0  0  0  0  3  0  0  0  0  0  0
  -24.9980  -27.6900   19.6310 C   0  0  0  0  0  3  0  0  0  0  0  0
  -23.7100  -29.8140   20.2570 C   0  0  0  0  0  2  0  0  0  0  0  0
  -24.7400  -31.1030   22.1810 N   0  0  0  0  0  0  0  0  0  0  0  0
  -23.5800  -32.1700   23.8120 O   0  0  0  0  0  0  0  0  0  0  0  0
  -22.8350  -29.4640   22.5920 C   0  0  0  0  0  0  0  0  0  0  0  0
  -21.5130  -29.2730   22.4560 N   0  0  0  0  0  0  0  0  0  0  0  0
  -23.5160  -28.8420   23.4110 O   0  0  0  0  0  0  0  0  0  0  0  0
  -21.0240  -29.8270   21.7710 H   0  0  0  0  0  0  0  0  0  0  0  0
  -18.1400  -28.0690   22.9400 C   0  0  0  0  0  0  0  0  0  0  0  0
  -20.6960  -28.3320   23.2240 C   0  0  0  0  0  3  0  0  0  0  0  0
  -20.8050  -26.9010   22.6460 C   0  0  0  0  0  2  0  0  0  0  0  0
  -19.7090  -26.5770   21.6270 C   0  0  0  0  0  2  0  0  0  0  0  0
  -18.3240  -26.7190   22.2660 C   0  0  0  0  0  2  0  0  0  0  0  0
  -19.2560  -28.8330   23.3750 C   0  0  0  0  0  0  0  0  0  0  0  0
  -19.0330  -30.0960   23.9650 C   0  0  0  0  0  3  0  0  0  0  0  0
  -17.7280  -30.5940   24.1270 C   0  0  0  0  0  3  0  0  0  0  0  0
  -16.6260  -29.8270   23.7110 C   0  0  0  0  0  3  0  0  0  0  0  0
  -16.8330  -28.5670   23.1230 C   0  0  0  0  0  3  0  0  0  0  0  0
  -25.9430  -32.5490   23.9060 C   0  0  0  0  0  3  0  0  0  0  0  0
  -25.6220  -33.9460   24.2230 N   0  0  0  0  0  0  0  0  0  0  0  0
  -25.9590  -34.9960   23.4620 C   0  0  0  0  0  0  0  0  0  0  0  0
  -26.6470  -34.8920   22.4410 O   0  0  0  0  0  0  0  0  0  0  0  0
  -25.0140  -34.1010   25.0130 H   0  0  0  0  0  0  0  0  0  0  0  0
  -24.2290  -36.7800   23.0660 C   0  0  0  0  0  1  0  0  0  0  0  0
  -25.4560  -36.3850   23.9030 C   0  0  0  0  0  3  0  0  0  0  0  0
  -27.5660  -37.2830   24.7750 C   0  0  0  0  0  1  0  0  0  0  0  0
  -26.4850  -37.4420   23.8060 N   0  0  0  0  0  0  0  0  0  0  0  0
  -26.0720  -38.3600   23.9430 H   0  0  0  0  0  0  0  0  0  0  0  0
  -26.4560  -31.7880   25.1900 C   0  0  1  0  0  0  0  0  0  0  0  0
  -25.3560  -31.5420   26.2500 C   0  0  0  0  0  1  0  0  0  0  0  0
  -27.0560  -30.4150   24.8080 C   0  0  0  0  0  1  0  0  0  0  0  0
  -27.5920  -32.5980   25.8590 C   0  0  0  0  0  1  0  0  0  0  0  0
  1  2  1  0
  1 50  1  0
  2  4  1  0
  3  1  2  0
  5  7  2  0
  6  5  1  0
  6  8  2  0
  7 10  1  0
  7  9  1  0
  8  2  1  0
  8  9  1  0
 11 19  1  0
 12 17  1  0
 13 14  1  0
 13 12  1  0
 15 14  1  0
 15 24  1  0
 15 16  1  0
 17 11  1  0
 17 16  1  0
 18 11  2  0
 19 10  1  0
 19 20  1  0
 21 22  2  0
 22 41  1  0
 23 22  1  0
 23 26  1  0
 24 25  1  0
 24 21  1  0
 25 23  2  0
 26 27  1  0
 27 28  2  0
 29 32  1  0
 29 28  1  0
 30 29  2  0
 31 30  1  0
 31 26  2  0
 32 33  1  0
 33 38  2  0
 33 34  1  0
 34 35  2  0
 35 36  1  0
 36 40  1  0
 37 36  2  0
 38 37  1  0
 39 38  1  0
 41 42  1  0
 42 45  1  0
 42 44  1  0
 43 41  2  0
 46 47  1  0
 46 21  1  0
 48 46  1  0
 50 49  1  0
 50 51  1  0
 51 54  1  0
 51 52  1  0
 52 53  1  0
 54 55  1  0
 56 67  2  0
 57 55  1  0
 57 62  1  0
 58 66  1  0
 58 68  1  0
 59 65  1  0
 59 61  1  0
 60 66  1  0
 61 60  1  0
 62 61  2  0
 63 64  1  0
 63 57  2  0
 64 59  2  0
 65 58  1  0
 66 56  1  0
 68 70  2  0
 69 68  1  0
 71 69  1  0
 72 81  2  0
 72 77  1  0
 73 69  1  0
 73 77  1  0
 74 73  1  0
 75 76  1  0
 75 74  1  0
 76 72  1  0
 77 78  2  0
 78 79  1  0
 80 79  2  0
 81 80  1  0
 82 56  1  0
 82 83  1  0
 82 92  1  0
 83 86  1  0
 84 88  1  0
 84 83  1  0
 85 84  2  0
 88 87  1  0
 90 88  1  0
 90 91  1  0
 90 89  1  0
 92 95  1  1
 92 93  1  0
 94 92  1  0
M  ISO  4  11 100  19 100  54 101  55 101
M  END
>  <TORSDO>  (23) 
F 22

>  <SCORE>  (23) 
-13.183

>  <name>  (23) 
23

>  <ligand_id>  (23) 
23

>  <original_smiles>  (23) 
[H]OC([H])(C([H])([H])Oc1c([H])c([H])c2c(c1[H])C([H])([H])N(C(=O)C([H])(N([H])C(=O)C([H])(N([H])C([H])([H])[H])C([H])([H])[H])C(C([H])([H])[H])(C([H])([H])[H])C([H])([H])[H])C([H])(C(=O)N([H])C1([H])c3c([H])c([H])c([H])c([H])c3C([H])([H])C([H])([H])C1([H])[H])C2([H])[H])C([H])(C(=O)N([H])c1sc(C([H])([H])N([H])C(=O)N2C([H])([H])C([H])([H])C([H])([H])C([H])(n3nc(-c4c([H])c([H])c(Oc5c([H])c([H])c(F)c([H])c5F)c([H])c4[H])c(C(=O)N([H])[H])c3N([H])[H])C2([H])[H])c([H])c1[H])C([H])([H])[H]

>  <smiles>  (23) 
[H]OC([H])(C([H])([H])Oc1c([H])c([H])c2c(c1[H])C([H])([H])N(C(=O)C([H])(N([H])C(=O)C([H])(N([H])C([H])([H])[H])C([H])([H])[H])C(C([H])([H])[H])(C([H])([H])[H])C([H])([H])[H])C([H])(C(=O)N([H])C1([H])c3c([H])c([H])c([H])c([H])c3C([H])([H])C([H])([H])C1([H])[H])C2([H])[H])C([H])(C(=O)N([H])c1sc(C([H])([H])N([H])C(=O)N2C([H])([H])C([H])([H])C([H])([H])C([H])(n3nc(-c4c([H])c([H])c(Oc5c([H])c([H])c(F)c([H])c5F)c([H])c4[H])c(C(=O)N([H])[H])c3N([H])[H])C2([H])[H])c([H])c1[H])C([H])([H])[H]

$$$$
24:0:0
     RDKit          3D

 91 98  0  0  1  0  0  0  0  0999 V2000
  -29.1660  -21.3010   19.9360 C   0  0  0  0  0  3  0  0  0  0  0  0
  -29.0490  -21.3600   18.6070 F   0  0  0  0  0  0  0  0  0  0  0  0
  -28.4300  -22.8080   20.5450 C   0  0  0  0  0  3  0  0  0  0  0  0
  -29.0780  -23.0320   21.6890 F   0  0  0  0  0  0  0  0  0  0  0  0
  -28.2230  -24.4330   19.8440 C   0  0  0  0  0  2  0  0  0  0  0  0
  -28.1450  -25.9690   20.3990 O   0  0  0  0  0  0  0  0  0  0  0  0
  -24.6060  -31.9190   23.2390 C   0  0  0  0  0  0  0  0  0  0  0  0
  -27.1240  -27.0320   20.2600 C   0  0  0  0  0  0  0  0  0  0  0  0
  -23.3990  -30.5200   21.6100 C   0  0  0  0  0  3  0  0  0  0  0  0
  -24.8320  -28.8980   20.1960 C   0  0  0  0  0  0  0  0  0  0  0  0
  -25.9620  -30.7190   21.4600 C   0  0  0  0  0  2  0  0  0  0  0  0
  -26.0180  -29.3080   20.8160 C   0  0  0  0  0  0  0  0  0  0  0  0
  -27.1550  -28.3920   20.8290 C   0  0  0  0  0  3  0  0  0  0  0  0
  -25.9130  -26.7620   19.5840 C   0  0  0  0  0  3  0  0  0  0  0  0
  -24.8020  -27.6440   19.5610 C   0  0  0  0  0  3  0  0  0  0  0  0
  -23.6190  -29.8240   20.2380 C   0  0  0  0  0  2  0  0  0  0  0  0
  -24.6770  -31.0800   22.1560 N   0  0  0  0  0  0  0  0  0  0  0  0
  -23.5210  -32.2220   23.7590 O   0  0  0  0  0  0  0  0  0  0  0  0
  -22.6990  -29.5370   22.5840 C   0  0  0  0  0  0  0  0  0  0  0  0
  -21.3670  -29.3820   22.4600 N   0  0  0  0  0  0  0  0  0  0  0  0
  -23.3600  -28.9140   23.4180 O   0  0  0  0  0  0  0  0  0  0  0  0
  -20.8870  -29.9360   21.7640 H   0  0  0  0  0  0  0  0  0  0  0  0
  -17.9760  -28.2050   22.9720 C   0  0  0  0  0  0  0  0  0  0  0  0
  -20.5370  -28.4600   23.2410 C   0  0  0  0  0  3  0  0  0  0  0  0
  -20.6320  -27.0200   22.6830 C   0  0  0  0  0  2  0  0  0  0  0  0
  -19.5310  -26.6920   21.6700 C   0  0  0  0  0  2  0  0  0  0  0  0
  -18.1480  -26.8490   22.3080 C   0  0  0  0  0  2  0  0  0  0  0  0
  -19.0970  -28.9680   23.3950 C   0  0  0  0  0  0  0  0  0  0  0  0
  -18.8800  -30.2350   23.9790 C   0  0  0  0  0  3  0  0  0  0  0  0
  -17.5770  -30.7400   24.1410 C   0  0  0  0  0  3  0  0  0  0  0  0
  -16.4710  -29.9750   23.7310 C   0  0  0  0  0  3  0  0  0  0  0  0
  -16.6710  -28.7100   23.1530 C   0  0  0  0  0  3  0  0  0  0  0  0
  -25.8850  -32.5540   23.8640 C   0  0  0  0  0  3  0  0  0  0  0  0
  -25.5800  -33.9580   24.1920 N   0  0  0  0  0  0  0  0  0  0  0  0
  -25.9150  -35.0130   23.4350 C   0  0  0  0  0  0  0  0  0  0  0  0
  -26.5780  -34.9050   22.4010 O   0  0  0  0  0  0  0  0  0  0  0  0
  -24.9910  -34.1150   24.9960 H   0  0  0  0  0  0  0  0  0  0  0  0
  -24.1980  -36.8240   23.1030 C   0  0  0  0  0  1  0  0  0  0  0  0
  -25.4440  -36.4060   23.9000 C   0  0  0  0  0  3  0  0  0  0  0  0
  -27.5920  -37.2800   24.7110 C   0  0  0  0  0  1  0  0  0  0  0  0
  -26.4830  -37.4530   23.7750 N   0  0  0  0  0  0  0  0  0  0  0  0
  -26.0840  -38.3750   23.9240 H   0  0  0  0  0  0  0  0  0  0  0  0
  -26.3850  -31.7930   25.1560 C   0  0  1  0  0  0  0  0  0  0  0  0
  -25.2840  -31.5790   26.2200 C   0  0  0  0  0  1  0  0  0  0  0  0
  -26.9600  -30.4060   24.7920 C   0  0  0  0  0  1  0  0  0  0  0  0
  -27.5390  -32.5860   25.8160 C   0  0  0  0  0  1  0  0  0  0  0  0
  -29.0060  -19.5650   20.3430 C   0  0  0  0  0  3  0  0  0  0  0  0
  -27.7910  -19.2050   19.9250 F   0  0  0  0  0  0  0  0  0  0  0  0
  -30.0600  -18.1520   20.0460 C   0  0  0  0  0  3  0  0  0  0  0  0
  -30.4270  -15.2500   19.8840 C   0  0  0  0  0  0  0  0  0  0  0  0
  -30.2870  -12.8400   18.9670 C   0  0  0  0  0  2  0  0  0  0  0  0
  -29.2860  -12.7070   17.7930 C   0  0  0  0  0  2  0  0  0  0  0  0
  -27.8670  -12.4420   18.3250 C   0  0  0  0  0  2  0  0  0  0  0  0
  -27.5100  -13.3740   19.5120 C   0  0  0  0  0  3  0  0  0  0  0  0
  -28.6340  -13.4750   20.5660 C   0  0  0  0  0  2  0  0  0  0  0  0
  -29.8300  -13.9630   19.8650 N   0  0  0  0  0  0  0  0  0  0  0  0
  -31.5990  -15.2290   19.4890 O   0  0  0  0  0  0  0  0  0  0  0  0
  -29.7310  -16.5230   20.1480 N   0  0  0  0  0  0  0  0  0  0  0  0
  -28.7760  -16.3640   20.4280 H   0  0  0  0  0  0  0  0  0  0  0  0
  -25.1980  -13.9130   20.4430 C   0  0  0  0  0  0  0  0  0  0  0  0
  -24.1630  -13.1260   20.8650 C   0  0  0  0  0  0  0  0  0  0  0  0
  -24.6240  -11.7770   20.7640 C   0  0  0  0  0  0  0  0  0  0  0  0
  -26.2190  -13.0450   20.1020 N   0  0  0  0  0  0  0  0  0  0  0  0
  -25.8910  -11.7520   20.3610 N   0  0  0  0  0  0  0  0  0  0  0  0
  -23.9090  -10.5100   20.9670 C   0  0  0  0  0  0  0  0  0  0  0  0
  -24.3760   -9.5340   21.8740 C   0  0  0  0  0  3  0  0  0  0  0  0
  -23.6580   -8.3340   22.0690 C   0  0  0  0  0  3  0  0  0  0  0  0
  -22.4580   -8.1010   21.3560 C   0  0  0  0  0  0  0  0  0  0  0  0
  -22.0090   -9.0660   20.4370 C   0  0  0  0  0  3  0  0  0  0  0  0
  -22.7280  -10.2560   20.2410 C   0  0  0  0  0  3  0  0  0  0  0  0
  -21.7080   -6.9550   21.4610 O   0  0  0  0  0  0  0  0  0  0  0  0
  -21.6800   -6.2170   22.6170 C   0  0  0  0  0  0  0  0  0  0  0  0
  -21.2530   -6.7690   23.8440 C   0  0  0  0  0  3  0  0  0  0  0  0
  -21.1740   -5.9560   24.9930 C   0  0  0  0  0  3  0  0  0  0  0  0
  -21.5110   -4.5930   24.9160 C   0  0  0  0  0  0  0  0  0  0  0  0
  -21.9310   -4.0390   23.6940 C   0  0  0  0  0  3  0  0  0  0  0  0
  -22.0120   -4.8490   22.5470 C   0  0  0  0  0  0  0  0  0  0  0  0
  -22.3970   -4.3050   21.3670 F   0  0  0  0  0  0  0  0  0  0  0  0
  -21.4270   -3.8090   26.0170 F   0  0  0  0  0  0  0  0  0  0  0  0
  -22.7900  -13.5950   21.2420 C   0  0  0  0  0  0  0  0  0  0  0  0
  -22.1190  -12.8740   22.1330 N   0  0  0  0  0  0  0  0  0  0  0  0
  -22.3220  -14.6370   20.7830 O   0  0  0  0  0  0  0  0  0  0  0  0
  -22.5120  -12.0300   22.5240 H   0  0  0  0  0  0  0  0  0  0  0  0
  -21.1990  -13.1700   22.4300 H   0  0  0  0  0  0  0  0  0  0  0  0
  -25.3480  -15.2890   20.2920 N   0  0  0  0  0  0  0  0  0  0  0  0
  -24.5870  -15.9340   20.4700 H   0  0  0  0  0  0  0  0  0  0  0  0
  -26.1590  -15.7370   19.8850 H   0  0  0  0  0  0  0  0  0  0  0  0
  -32.6190  -17.7190   20.6770 C   0  0  0  0  0  1  0  0  0  0  0  0
  -31.3100  -18.4790   20.9260 C   0  0  1  0  0  0  0  0  0  0  0  0
  -31.6280  -19.7590   20.7470 F   0  0  0  0  0  0  0  0  0  0  0  0
  -30.9890  -18.3090   22.2090 F   0  0  0  0  0  0  0  0  0  0  0  0
  1  2  1  0
  1 47  1  0
  1  3  1  0
  3  4  1  0
  5  6  1  0
  5  3  1  0
  7 18  2  0
  8  6  1  0
  8 13  1  0
  9 17  1  0
  9 19  1  0
 10 16  1  0
 10 12  1  0
 11 17  1  0
 12 13  2  0
 12 11  1  0
 14  8  2  0
 15 14  1  0
 15 10  2  0
 16  9  1  0
 17  7  1  0
 19 21  2  0
 20 19  1  0
 22 20  1  0
 23 32  2  0
 23 28  1  0
 24 20  1  0
 24 28  1  0
 25 24  1  0
 26 27  1  0
 26 25  1  0
 27 23  1  0
 28 29  2  0
 29 30  1  0
 31 30  2  0
 32 31  1  0
 33  7  1  0
 33 34  1  0
 33 43  1  0
 34 37  1  0
 35 39  1  0
 35 34  1  0
 36 35  2  0
 39 38  1  0
 41 39  1  0
 41 42  1  0
 41 40  1  0
 43 46  1  1
 43 44  1  0
 45 43  1  0
 47 48  1  0
 49 58  1  0
 49 47  1  0
 49 89  1  0
 50 58  1  0
 51 56  1  0
 52 53  1  0
 52 51  1  0
 54 53  1  0
 54 63  1  0
 54 55  1  0
 56 50  1  0
 56 55  1  0
 57 50  2  0
 58 59  1  0
 60 61  2  0
 61 80  1  0
 62 61  1  0
 62 65  1  0
 63 64  1  0
 63 60  1  0
 64 62  2  0
 65 66  1  0
 66 67  2  0
 68 71  1  0
 68 67  1  0
 69 68  2  0
 70 69  1  0
 70 65  2  0
 71 72  1  0
 72 73  1  0
 73 74  2  0
 75 74  1  0
 75 79  1  0
 76 75  2  0
 77 72  2  0
 77 76  1  0
 78 77  1  0
 80 81  1  0
 81 84  1  0
 81 83  1  0
 82 80  2  0
 85 60  1  0
 85 86  1  0
 87 85  1  0
 89 88  1  6
 89 91  1  0
 90 89  1  0
M  ISO  4   5 101   6 101  50 100  58 100
M  END
>  <TORSDO>  (24) 
F 21

>  <SCORE>  (24) 
-15.342

>  <name>  (24) 
24

>  <ligand_id>  (24) 
24

>  <original_smiles>  (24) 
[H]c1c([H])c([H])c2c(c1[H])C([H])([H])C([H])([H])C([H])([H])C2([H])N([H])C(=O)C1([H])N(C(=O)C([H])(N([H])C(=O)C([H])(N([H])C([H])([H])[H])C([H])([H])[H])C(C([H])([H])[H])(C([H])([H])[H])C([H])([H])[H])C([H])([H])c2c([H])c(OC([H])([H])C([H])(F)C([H])(F)C([H])(F)C([H])(N([H])C(=O)N3C([H])([H])C([H])([H])C([H])([H])C([H])(n4nc(-c5c([H])c([H])c(Oc6c([H])c([H])c(F)c([H])c6F)c([H])c5[H])c(C(=O)N([H])[H])c4N([H])[H])C3([H])[H])C(F)(F)C([H])([H])[H])c([H])c([H])c2C1([H])[H]

>  <smiles>  (24) 
[H]c1c([H])c([H])c2c(c1[H])C([H])([H])C([H])([H])C([H])([H])C2([H])N([H])C(=O)C1([H])N(C(=O)C([H])(N([H])C(=O)C([H])(N([H])C([H])([H])[H])C([H])([H])[H])C(C([H])([H])[H])(C([H])([H])[H])C([H])([H])[H])C([H])([H])c2c([H])c(OC([H])([H])C([H])(F)C([H])(F)C([H])(F)C([H])(N([H])C(=O)N3C([H])([H])C([H])([H])C([H])([H])C([H])(n4nc(-c5c([H])c([H])c(Oc6c([H])c([H])c(F)c([H])c6F)c([H])c5[H])c(C(=O)N([H])[H])c4N([H])[H])C3([H])[H])C(F)(F)C([H])([H])[H])c([H])c([H])c2C1([H])[H]

$$$$
25:0:0
     RDKit          3D

 94102  0  0  1  0  0  0  0  0999 V2000
  -28.7820  -21.7340   20.1590 C   0  0  0  0  0  3  0  0  0  0  0  0
  -26.8470  -22.7680   21.5400 C   0  0  0  0  0  1  0  0  0  0  0  0
  -28.2290  -23.0080   20.8800 C   0  0  0  0  0  3  0  0  0  0  0  0
  -28.1910  -24.3200   20.0360 C   0  0  0  0  0  2  0  0  0  0  0  0
  -28.0430  -25.7930   22.2050 C   0  0  0  0  0  1  0  0  0  0  0  0
  -28.6540  -25.6030   20.8010 C   0  0  0  0  0  3  0  0  0  0  0  0
  -28.5690  -26.8250   20.0330 O   0  0  0  0  0  0  0  0  0  0  0  0
  -24.6370  -31.8840   23.1770 C   0  0  0  0  0  0  0  0  0  0  0  0
  -27.3830  -27.5310   20.0540 C   0  0  0  0  0  0  0  0  0  0  0  0
  -23.4680  -30.4850   21.5070 C   0  0  0  0  0  3  0  0  0  0  0  0
  -24.9600  -28.9900   20.0730 C   0  0  0  0  0  0  0  0  0  0  0  0
  -25.9880  -30.8850   21.3350 C   0  0  0  0  0  2  0  0  0  0  0  0
  -26.1010  -29.5220   20.6860 C   0  0  0  0  0  0  0  0  0  0  0  0
  -27.3150  -28.7990   20.6800 C   0  0  0  0  0  3  0  0  0  0  0  0
  -26.2340  -27.0220   19.4150 C   0  0  0  0  0  3  0  0  0  0  0  0
  -25.0230  -27.7400   19.4330 C   0  0  0  0  0  3  0  0  0  0  0  0
  -23.6980  -29.8230   20.1210 C   0  0  0  0  0  2  0  0  0  0  0  0
  -24.7160  -31.0990   22.0660 N   0  0  0  0  0  0  0  0  0  0  0  0
  -23.5470  -32.1330   23.7110 O   0  0  0  0  0  0  0  0  0  0  0  0
  -22.8270  -29.4410   22.4500 C   0  0  0  0  0  0  0  0  0  0  0  0
  -21.5000  -29.2730   22.3360 N   0  0  0  0  0  0  0  0  0  0  0  0
  -23.5170  -28.7900   23.2370 O   0  0  0  0  0  0  0  0  0  0  0  0
  -21.0060  -29.8450   21.6650 H   0  0  0  0  0  0  0  0  0  0  0  0
  -18.1230  -28.1200   22.8710 C   0  0  0  0  0  0  0  0  0  0  0  0
  -20.6910  -28.3210   23.0910 C   0  0  0  0  0  3  0  0  0  0  0  0
  -20.7590  -26.9120   22.4560 C   0  0  0  0  0  2  0  0  0  0  0  0
  -19.6270  -26.6450   21.4600 C   0  0  0  0  0  2  0  0  0  0  0  0
  -18.2610  -26.7950   22.1370 C   0  0  0  0  0  2  0  0  0  0  0  0
  -19.2650  -28.8440   23.3050 C   0  0  0  0  0  0  0  0  0  0  0  0
  -19.0830  -30.0890   23.9450 C   0  0  0  0  0  3  0  0  0  0  0  0
  -17.7920  -30.6070   24.1620 C   0  0  0  0  0  3  0  0  0  0  0  0
  -16.6650  -29.8750   23.7520 C   0  0  0  0  0  3  0  0  0  0  0  0
  -16.8320  -28.6350   23.1110 C   0  0  0  0  0  3  0  0  0  0  0  0
  -25.9070  -32.5270   23.8150 C   0  0  0  0  0  3  0  0  0  0  0  0
  -25.5800  -33.9200   24.1450 N   0  0  0  0  0  0  0  0  0  0  0  0
  -25.9140  -34.9780   23.3920 C   0  0  0  0  0  0  0  0  0  0  0  0
  -26.6020  -34.8840   22.3720 O   0  0  0  0  0  0  0  0  0  0  0  0
  -24.9690  -34.0660   24.9340 H   0  0  0  0  0  0  0  0  0  0  0  0
  -24.1780  -36.7550   23.0090 C   0  0  0  0  0  1  0  0  0  0  0  0
  -25.4060  -36.3600   23.8450 C   0  0  0  0  0  3  0  0  0  0  0  0
  -27.5100  -37.2660   24.7280 C   0  0  0  0  0  1  0  0  0  0  0  0
  -26.4310  -37.4220   23.7550 N   0  0  0  0  0  0  0  0  0  0  0  0
  -26.0130  -38.3390   23.8880 H   0  0  0  0  0  0  0  0  0  0  0  0
  -26.4200  -31.7520   25.0900 C   0  0  1  0  0  0  0  0  0  0  0  0
  -25.3140  -31.4910   26.1390 C   0  0  0  0  0  1  0  0  0  0  0  0
  -27.0260  -30.3860   24.6920 C   0  0  0  0  0  1  0  0  0  0  0  0
  -27.5530  -32.5530   25.7720 C   0  0  0  0  0  1  0  0  0  0  0  0
  -27.7580  -21.1430   19.3820 O   0  0  0  0  0  0  0  0  0  0  0  0
  -27.5520  -21.7470   18.6770 H   0  0  0  0  0  0  0  0  0  0  0  0
  -29.3450  -20.7170   21.1920 C   0  0  0  0  0  2  0  0  0  0  0  0
  -30.8760  -14.5620   20.0630 C   0  0  0  0  0  0  0  0  0  0  0  0
  -30.5360  -12.4040   18.9240 C   0  0  0  0  0  2  0  0  0  0  0  0
  -29.5400  -12.6490   17.7710 C   0  0  0  0  0  2  0  0  0  0  0  0
  -28.0800  -12.5360   18.2650 C   0  0  0  0  0  2  0  0  0  0  0  0
  -27.8130  -13.3350   19.5690 C   0  0  0  0  0  3  0  0  0  0  0  0
  -28.9230  -13.0640   20.6100 C   0  0  0  0  0  2  0  0  0  0  0  0
  -30.2250  -13.3700   19.9860 N   0  0  0  0  0  0  0  0  0  0  0  0
  -31.9760  -14.7650   19.5370 O   0  0  0  0  0  0  0  0  0  0  0  0
  -29.8100  -19.3680   20.7150 C   0  0  0  0  0  0  0  0  0  0  0  0
  -30.9430  -19.0170   20.0210 C   0  0  0  0  0  0  0  0  0  0  0  0
  -30.1940  -16.9350   20.5090 C   0  0  0  0  0  0  0  0  0  0  0  0
  -31.1620  -17.6380   19.9050 N   0  0  0  0  0  0  0  0  0  0  0  0
  -30.1550  -15.5230   20.6590 N   0  0  0  0  0  0  0  0  0  0  0  0
  -31.8020  -19.8970   19.5580 F   0  0  0  0  0  0  0  0  0  0  0  0
  -28.9080  -17.9390   21.1630 S   0  0  0  0  0  0  0  0  0  0  0  0
  -29.3360  -15.1730   21.1290 H   0  0  0  0  0  0  0  0  0  0  0  0
  -25.4610  -13.9340   20.4410 C   0  0  0  0  0  0  0  0  0  0  0  0
  -24.4080  -13.1560   20.8390 C   0  0  0  0  0  0  0  0  0  0  0  0
  -24.8510  -11.8020   20.7220 C   0  0  0  0  0  0  0  0  0  0  0  0
  -26.4820  -13.0540   20.1130 N   0  0  0  0  0  0  0  0  0  0  0  0
  -26.1210  -11.7660   20.3370 N   0  0  0  0  0  0  0  0  0  0  0  0
  -24.1240  -10.5390   20.9020 C   0  0  0  0  0  0  0  0  0  0  0  0
  -24.5570   -9.5600   21.8230 C   0  0  0  0  0  3  0  0  0  0  0  0
  -23.8280   -8.3630   21.9900 C   0  0  0  0  0  3  0  0  0  0  0  0
  -22.6530   -8.1360   21.2350 C   0  0  0  0  0  0  0  0  0  0  0  0
  -22.2400   -9.1050   20.3010 C   0  0  0  0  0  3  0  0  0  0  0  0
  -22.9690  -10.2940   20.1330 C   0  0  0  0  0  3  0  0  0  0  0  0
  -21.8950   -6.9920   21.3120 O   0  0  0  0  0  0  0  0  0  0  0  0
  -21.7930   -6.2730   22.4770 C   0  0  0  0  0  0  0  0  0  0  0  0
  -21.2750   -6.8420   23.6600 C   0  0  0  0  0  3  0  0  0  0  0  0
  -21.1210   -6.0490   24.8140 C   0  0  0  0  0  3  0  0  0  0  0  0
  -21.4760   -4.6870   24.7850 C   0  0  0  0  0  0  0  0  0  0  0  0
  -21.9870   -4.1170   23.6060 C   0  0  0  0  0  3  0  0  0  0  0  0
  -22.1430   -4.9080   22.4540 C   0  0  0  0  0  0  0  0  0  0  0  0
  -22.6160   -4.3480   21.3150 F   0  0  0  0  0  0  0  0  0  0  0  0
  -21.3220   -3.9220   25.8910 F   0  0  0  0  0  0  0  0  0  0  0  0
  -23.0330  -13.6310   21.2180 C   0  0  0  0  0  0  0  0  0  0  0  0
  -22.3550  -12.9010   22.0970 N   0  0  0  0  0  0  0  0  0  0  0  0
  -22.5730  -14.6810   20.7730 O   0  0  0  0  0  0  0  0  0  0  0  0
  -22.7430  -12.0510   22.4780 H   0  0  0  0  0  0  0  0  0  0  0  0
  -21.4340  -13.1930   22.3930 H   0  0  0  0  0  0  0  0  0  0  0  0
  -25.6300  -15.3090   20.3120 N   0  0  0  0  0  0  0  0  0  0  0  0
  -24.8820  -15.9660   20.5030 H   0  0  0  0  0  0  0  0  0  0  0  0
  -26.4610  -15.7560   19.9470 H   0  0  0  0  0  0  0  0  0  0  0  0
  1  3  1  0
  1 50  1  0
  3  2  1  0
  4  6  1  0
  4  3  1  0
  6  5  1  0
  7  9  1  0
  7  6  1  0
  8 19  2  0
  9 14  1  0
 10 18  1  0
 10 20  1  0
 11 17  1  0
 11 13  1  0
 12 18  1  0
 13 12  1  0
 14 13  2  0
 15 16  1  0
 15  9  2  0
 16 11  2  0
 17 10  1  0
 18  8  1  0
 20 22  2  0
 21 20  1  0
 23 21  1  0
 24 33  2  0
 24 29  1  0
 25 21  1  0
 25 29  1  0
 26 25  1  0
 27 28  1  0
 27 26  1  0
 28 24  1  0
 29 30  2  0
 30 31  1  0
 32 31  2  0
 33 32  1  0
 34  8  1  0
 34 35  1  0
 34 44  1  0
 35 38  1  0
 36 40  1  0
 36 35  1  0
 37 36  2  0
 40 39  1  0
 42 40  1  0
 42 43  1  0
 42 41  1  0
 44 47  1  1
 44 45  1  0
 46 44  1  0
 48  1  1  0
 49 48  1  0
 51 63  1  0
 52 57  1  0
 53 54  1  0
 53 52  1  0
 55 54  1  0
 55 70  1  0
 55 56  1  0
 57 51  1  0
 57 56  1  0
 58 51  2  0
 59 65  1  0
 59 50  1  0
 60 59  2  0
 61 63  1  0
 61 65  1  0
 62 60  1  0
 62 61  2  0
 63 66  1  0
 64 60  1  0
 67 68  2  0
 68 87  1  0
 69 68  1  0
 69 72  1  0
 70 71  1  0
 70 67  1  0
 71 69  2  0
 72 73  1  0
 73 74  2  0
 75 78  1  0
 75 74  1  0
 76 75  2  0
 77 76  1  0
 77 72  2  0
 78 79  1  0
 79 80  1  0
 80 81  2  0
 82 81  1  0
 82 86  1  0
 83 82  2  0
 84 79  2  0
 84 83  1  0
 85 84  1  0
 87 88  1  0
 88 91  1  0
 88 90  1  0
 89 87  2  0
 92 67  1  0
 92 93  1  0
 94 92  1  0
M  ISO  4   6 101   7 101  51 100  63 100
M  END
>  <TORSDO>  (25) 
F 21

>  <SCORE>  (25) 
-13.098

>  <name>  (25) 
25

>  <ligand_id>  (25) 
25

>  <original_smiles>  (25) 
[H]OC([H])(C([H])([H])c1sc(N([H])C(=O)N2C([H])([H])C([H])([H])C([H])([H])C([H])(n3nc(-c4c([H])c([H])c(Oc5c([H])c([H])c(F)c([H])c5F)c([H])c4[H])c(C(=O)N([H])[H])c3N([H])[H])C2([H])[H])nc1F)C([H])(C([H])([H])[H])C([H])([H])C([H])(Oc1c([H])c([H])c2c(c1[H])C([H])([H])N(C(=O)C([H])(N([H])C(=O)C([H])(N([H])C([H])([H])[H])C([H])([H])[H])C(C([H])([H])[H])(C([H])([H])[H])C([H])([H])[H])C([H])(C(=O)N([H])C1([H])c3c([H])c([H])c([H])c([H])c3C([H])([H])C([H])([H])C1([H])[H])C2([H])[H])C([H])([H])[H]

>  <smiles>  (25) 
[H]OC([H])(C([H])([H])c1sc(N([H])C(=O)N2C([H])([H])C([H])([H])C([H])([H])C([H])(n3nc(-c4c([H])c([H])c(Oc5c([H])c([H])c(F)c([H])c5F)c([H])c4[H])c(C(=O)N([H])[H])c3N([H])[H])C2([H])[H])nc1F)C([H])(C([H])([H])[H])C([H])([H])C([H])(Oc1c([H])c([H])c2c(c1[H])C([H])([H])N(C(=O)C([H])(N([H])C(=O)C([H])(N([H])C([H])([H])[H])C([H])([H])[H])C(C([H])([H])[H])(C([H])([H])[H])C([H])([H])[H])C([H])(C(=O)N([H])C1([H])c3c([H])c([H])c([H])c([H])c3C([H])([H])C([H])([H])C1([H])[H])C2([H])[H])C([H])([H])[H]

$$$$
26:0:0
     RDKit          3D

 95103  0  0  1  0  0  0  0  0999 V2000
  -28.0460  -21.8620   19.6680 C   0  0  0  0  0  0  0  0  0  0  0  0
  -27.8590  -20.5170   19.7220 N   0  0  0  0  0  0  0  0  0  0  0  0
  -27.1450  -22.5270   19.1610 O   0  0  0  0  0  0  0  0  0  0  0  0
  -26.8990  -20.2940   19.4930 H   0  0  0  0  0  0  0  0  0  0  0  0
  -29.8870  -19.0070   19.4610 C   0  0  0  0  0  3  0  0  0  0  0  0
  -27.9940  -18.3110   20.7490 C   0  0  0  0  0  3  0  0  0  0  0  0
  -28.6360  -19.3400   20.0270 C   0  0  0  0  0  0  0  0  0  0  0  0
  -30.4060  -17.6900   19.6210 C   0  0  0  0  0  0  0  0  0  0  0  0
  -29.6690  -16.7050   20.3510 C   0  0  0  0  0  0  0  0  0  0  0  0
  -28.4860  -17.0600   20.9130 N   0  0  0  0  0  0  0  0  0  0  0  0
  -31.6130  -17.4040   19.0810 F   0  0  0  0  0  0  0  0  0  0  0  0
  -30.5440  -14.4490   19.6750 C   0  0  0  0  0  0  0  0  0  0  0  0
  -29.9870  -12.3500   18.4660 C   0  0  0  0  0  2  0  0  0  0  0  0
  -28.9050  -12.5930   17.3950 C   0  0  0  0  0  2  0  0  0  0  0  0
  -27.5020  -12.4500   18.0100 C   0  0  0  0  0  2  0  0  0  0  0  0
  -27.3430  -13.2670   19.3190 C   0  0  0  0  0  3  0  0  0  0  0  0
  -28.5240  -13.0180   20.2800 C   0  0  0  0  0  2  0  0  0  0  0  0
  -29.7750  -13.3200   19.5610 N   0  0  0  0  0  0  0  0  0  0  0  0
  -31.5510  -14.5990   18.9790 O   0  0  0  0  0  0  0  0  0  0  0  0
  -30.1930  -15.3740   20.6190 N   0  0  0  0  0  0  0  0  0  0  0  0
  -25.0690  -13.9060   20.3330 C   0  0  0  0  0  0  0  0  0  0  0  0
  -24.0310  -13.1480   20.8050 C   0  0  0  0  0  0  0  0  0  0  0  0
  -24.4490  -11.7880   20.6860 C   0  0  0  0  0  0  0  0  0  0  0  0
  -26.0540  -13.0070   19.9550 N   0  0  0  0  0  0  0  0  0  0  0  0
  -25.6940  -11.7270   20.2270 N   0  0  0  0  0  0  0  0  0  0  0  0
  -23.7170  -10.5380   20.9320 C   0  0  0  0  0  0  0  0  0  0  0  0
  -24.2160   -9.5500   21.8110 C   0  0  0  0  0  3  0  0  0  0  0  0
  -23.4860   -8.3650   22.0450 C   0  0  0  0  0  3  0  0  0  0  0  0
  -22.2410   -8.1600   21.4030 C   0  0  0  0  0  0  0  0  0  0  0  0
  -21.7600   -9.1360   20.5130 C   0  0  0  0  0  3  0  0  0  0  0  0
  -22.4910  -10.3130   20.2760 C   0  0  0  0  0  3  0  0  0  0  0  0
  -21.4750   -7.0290   21.5500 O   0  0  0  0  0  0  0  0  0  0  0  0
  -21.5100   -6.2820   22.7000 C   0  0  0  0  0  0  0  0  0  0  0  0
  -21.2160   -6.8410   23.9630 C   0  0  0  0  0  3  0  0  0  0  0  0
  -21.1930   -6.0200   25.1080 C   0  0  0  0  0  3  0  0  0  0  0  0
  -21.4570   -4.6420   24.9940 C   0  0  0  0  0  0  0  0  0  0  0  0
  -21.7440   -4.0820   23.7360 C   0  0  0  0  0  3  0  0  0  0  0  0
  -21.7680   -4.9000   22.5920 C   0  0  0  0  0  0  0  0  0  0  0  0
  -22.0250   -4.3520   21.3810 F   0  0  0  0  0  0  0  0  0  0  0  0
  -21.4270   -3.8520   26.0920 F   0  0  0  0  0  0  0  0  0  0  0  0
  -22.6890  -13.6510   21.2550 C   0  0  0  0  0  0  0  0  0  0  0  0
  -22.0610  -12.9640   22.2000 N   0  0  0  0  0  0  0  0  0  0  0  0
  -22.2130  -14.6910   20.8020 O   0  0  0  0  0  0  0  0  0  0  0  0
  -22.4650  -12.1260   22.5930 H   0  0  0  0  0  0  0  0  0  0  0  0
  -21.1630  -13.2820   22.5390 H   0  0  0  0  0  0  0  0  0  0  0  0
  -25.2510  -15.2760   20.1740 N   0  0  0  0  0  0  0  0  0  0  0  0
  -24.5330  -15.9470   20.4230 H   0  0  0  0  0  0  0  0  0  0  0  0
  -26.1060  -15.7080   19.8460 H   0  0  0  0  0  0  0  0  0  0  0  0
  -31.8610  -15.8740   22.4130 C   0  0  0  0  0  1  0  0  0  0  0  0
  -30.6050  -15.0850   22.0040 C   0  0  0  0  0  2  0  0  0  0  0  0
  -29.2770  -22.6230   20.2110 C   0  0  0  0  0  2  0  0  0  0  0  0
  -29.3190  -24.1820   19.9090 C   0  0  0  0  0  3  0  0  0  0  0  0
  -30.5220  -24.6160   20.2910 F   0  0  0  0  0  0  0  0  0  0  0  0
  -28.2530  -25.1310   20.5700 C   0  0  0  0  0  2  0  0  0  0  0  0
  -28.3750  -26.5510   20.2170 O   0  0  0  0  0  0  0  0  0  0  0  0
  -24.4910  -31.8190   23.1860 C   0  0  0  0  0  0  0  0  0  0  0  0
  -27.2140  -27.3200   20.1960 C   0  0  0  0  0  0  0  0  0  0  0  0
  -23.3240  -30.3920   21.5400 C   0  0  0  0  0  3  0  0  0  0  0  0
  -24.8140  -28.8520   20.1500 C   0  0  0  0  0  0  0  0  0  0  0  0
  -25.8560  -30.7580   21.3820 C   0  0  0  0  0  2  0  0  0  0  0  0
  -25.9630  -29.3770   20.7550 C   0  0  0  0  0  0  0  0  0  0  0  0
  -27.1670  -28.6220   20.7680 C   0  0  0  0  0  3  0  0  0  0  0  0
  -26.0470  -26.8360   19.5640 C   0  0  0  0  0  3  0  0  0  0  0  0
  -24.8560  -27.5850   19.5450 C   0  0  0  0  0  3  0  0  0  0  0  0
  -23.5630  -29.7030   20.1710 C   0  0  0  0  0  2  0  0  0  0  0  0
  -24.5740  -31.0080   22.0940 N   0  0  0  0  0  0  0  0  0  0  0  0
  -23.3990  -32.0850   23.7090 O   0  0  0  0  0  0  0  0  0  0  0  0
  -22.6670  -29.3750   22.5020 C   0  0  0  0  0  0  0  0  0  0  0  0
  -21.3400  -29.1960   22.3730 N   0  0  0  0  0  0  0  0  0  0  0  0
  -23.3460  -28.7490   23.3190 O   0  0  0  0  0  0  0  0  0  0  0  0
  -20.8530  -29.7510   21.6840 H   0  0  0  0  0  0  0  0  0  0  0  0
  -17.9610  -28.0150   22.8790 C   0  0  0  0  0  0  0  0  0  0  0  0
  -20.5210  -28.2600   23.1440 C   0  0  0  0  0  3  0  0  0  0  0  0
  -20.6150  -26.8300   22.5620 C   0  0  0  0  0  2  0  0  0  0  0  0
  -19.5090  -26.5170   21.5500 C   0  0  0  0  0  2  0  0  0  0  0  0
  -18.1300  -26.6680   22.1980 C   0  0  0  0  0  2  0  0  0  0  0  0
  -19.0850  -28.7710   23.3080 C   0  0  0  0  0  0  0  0  0  0  0  0
  -18.8750  -30.0330   23.9050 C   0  0  0  0  0  3  0  0  0  0  0  0
  -17.5720  -30.5400   24.0760 C   0  0  0  0  0  3  0  0  0  0  0  0
  -16.4640  -29.7830   23.6620 C   0  0  0  0  0  3  0  0  0  0  0  0
  -16.6590  -28.5220   23.0700 C   0  0  0  0  0  3  0  0  0  0  0  0
  -25.7610  -32.4710   23.8170 C   0  0  0  0  0  3  0  0  0  0  0  0
  -25.4270  -33.8640   24.1460 N   0  0  0  0  0  0  0  0  0  0  0  0
  -25.7450  -34.9210   23.3870 C   0  0  0  0  0  0  0  0  0  0  0  0
  -26.4190  -34.8280   22.3580 O   0  0  0  0  0  0  0  0  0  0  0  0
  -24.8270  -34.0080   24.9450 H   0  0  0  0  0  0  0  0  0  0  0  0
  -23.9820  -36.6810   23.0310 C   0  0  0  0  0  1  0  0  0  0  0  0
  -25.2330  -36.3030   23.8420 C   0  0  0  0  0  3  0  0  0  0  0  0
  -27.3520  -37.2320   24.6650 C   0  0  0  0  0  1  0  0  0  0  0  0
  -26.2470  -37.3730   23.7200 N   0  0  0  0  0  0  0  0  0  0  0  0
  -25.8240  -38.2880   23.8590 H   0  0  0  0  0  0  0  0  0  0  0  0
  -26.2800  -31.7060   25.0950 C   0  0  1  0  0  0  0  0  0  0  0  0
  -25.1850  -31.4480   26.1570 C   0  0  0  0  0  1  0  0  0  0  0  0
  -26.8840  -30.3370   24.7060 C   0  0  0  0  0  1  0  0  0  0  0  0
  -27.4140  -32.5160   25.7650 C   0  0  0  0  0  1  0  0  0  0  0  0
  1  2  1  0
  1 51  1  0
  2  7  1  0
  3  1  2  0
  4  2  1  0
  5  8  2  0
  5  7  1  0
  6 10  1  0
  7  6  2  0
  8  9  1  0
  9 20  1  0
  9 10  2  0
 11  8  1  0
 12 20  1  0
 13 18  1  0
 14 15  1  0
 14 13  1  0
 16 15  1  0
 16 24  1  0
 16 17  1  0
 18 12  1  0
 18 17  1  0
 19 12  2  0
 20 50  1  0
 21 22  2  0
 22 41  1  0
 23 22  1  0
 23 26  1  0
 24 25  1  0
 24 21  1  0
 25 23  2  0
 26 27  1  0
 27 28  2  0
 29 32  1  0
 29 28  1  0
 30 29  2  0
 31 30  1  0
 31 26  2  0
 32 33  1  0
 33 34  1  0
 34 35  2  0
 36 35  1  0
 36 40  1  0
 37 36  2  0
 38 33  2  0
 38 37  1  0
 39 38  1  0
 41 42  1  0
 42 45  1  0
 42 44  1  0
 43 41  2  0
 46 21  1  0
 46 47  1  0
 48 46  1  0
 50 49  1  0
 52 51  1  0
 52 53  1  0
 52 54  1  0
 55 54  1  0
 56 67  2  0
 57 55  1  0
 57 62  1  0
 58 66  1  0
 58 68  1  0
 59 65  1  0
 59 61  1  0
 60 66  1  0
 61 62  2  0
 61 60  1  0
 63 57  2  0
 64 63  1  0
 64 59  2  0
 65 58  1  0
 66 56  1  0
 68 70  2  0
 69 68  1  0
 71 69  1  0
 72 81  2  0
 72 77  1  0
 73 69  1  0
 73 77  1  0
 74 73  1  0
 75 76  1  0
 75 74  1  0
 76 72  1  0
 77 78  2  0
 78 79  1  0
 80 79  2  0
 81 80  1  0
 82 56  1  0
 82 83  1  0
 82 92  1  0
 83 86  1  0
 84 88  1  0
 84 83  1  0
 85 84  2  0
 88 87  1  0
 90 88  1  0
 90 91  1  0
 90 89  1  0
 92 95  1  1
 92 93  1  0
 94 92  1  0
M  ISO  4  12 100  20 100  54 101  55 101
M  END
>  <TORSDO>  (26) 
F 21

>  <SCORE>  (26) 
-10.790

>  <name>  (26) 
26

>  <ligand_id>  (26) 
26

>  <original_smiles>  (26) 
[H]c1nc(N(C(=O)N2C([H])([H])C([H])([H])C([H])([H])C([H])(n3nc(-c4c([H])c([H])c(Oc5c([H])c([H])c(F)c([H])c5F)c([H])c4[H])c(C(=O)N([H])[H])c3N([H])[H])C2([H])[H])C([H])([H])C([H])([H])[H])c(F)c([H])c1N([H])C(=O)C([H])([H])C([H])(F)C([H])([H])Oc1c([H])c([H])c2c(c1[H])C([H])([H])N(C(=O)C([H])(N([H])C(=O)C([H])(N([H])C([H])([H])[H])C([H])([H])[H])C(C([H])([H])[H])(C([H])([H])[H])C([H])([H])[H])C([H])(C(=O)N([H])C1([H])c3c([H])c([H])c([H])c([H])c3C([H])([H])C([H])([H])C1([H])[H])C2([H])[H]

>  <smiles>  (26) 
[H]c1nc(N(C(=O)N2C([H])([H])C([H])([H])C([H])([H])C([H])(n3nc(-c4c([H])c([H])c(Oc5c([H])c([H])c(F)c([H])c5F)c([H])c4[H])c(C(=O)N([H])[H])c3N([H])[H])C2([H])[H])C([H])([H])C([H])([H])[H])c(F)c([H])c1N([H])C(=O)C([H])([H])C([H])(F)C([H])([H])Oc1c([H])c([H])c2c(c1[H])C([H])([H])N(C(=O)C([H])(N([H])C(=O)C([H])(N([H])C([H])([H])[H])C([H])([H])[H])C(C([H])([H])[H])(C([H])([H])[H])C([H])([H])[H])C([H])(C(=O)N([H])C1([H])c3c([H])c([H])c([H])c([H])c3C([H])([H])C([H])([H])C1([H])[H])C2([H])[H]

$$$$
27:0:0
     RDKit          3D

 96104  0  0  1  0  0  0  0  0999 V2000
  -29.1550  -22.2880   20.5340 C   0  0  0  0  0  0  0  0  0  0  0  0
  -30.0270  -21.2390   20.2590 N   0  0  0  0  0  0  0  0  0  0  0  0
  -28.0550  -22.0540   21.0380 O   0  0  0  0  0  0  0  0  0  0  0  0
  -30.8410  -21.5360   19.7380 H   0  0  0  0  0  0  0  0  0  0  0  0
  -30.8430  -14.9320   19.7210 C   0  0  0  0  0  0  0  0  0  0  0  0
  -30.5360  -12.6900   18.6210 C   0  0  0  0  0  2  0  0  0  0  0  0
  -29.4380  -12.7630   17.5350 C   0  0  0  0  0  2  0  0  0  0  0  0
  -28.0440  -12.5410   18.1530 C   0  0  0  0  0  2  0  0  0  0  0  0
  -27.8200  -13.4030   19.4220 C   0  0  0  0  0  3  0  0  0  0  0  0
  -29.0140  -13.3100   20.3950 C   0  0  0  0  0  2  0  0  0  0  0  0
  -30.2120  -13.7090   19.6450 N   0  0  0  0  0  0  0  0  0  0  0  0
  -32.0100  -15.0410   19.3310 O   0  0  0  0  0  0  0  0  0  0  0  0
  -30.5690  -19.4440   21.9600 C   0  0  0  0  0  0  0  0  0  0  0  0
  -30.0970  -19.8120   20.7010 C   0  0  0  0  0  0  0  0  0  0  0  0
  -30.3090  -17.4250   20.4280 C   0  0  0  0  0  0  0  0  0  0  0  0
  -29.9340  -18.6290   19.8670 N   0  0  0  0  0  0  0  0  0  0  0  0
  -30.0400  -16.0570   19.9060 N   0  0  0  0  0  0  0  0  0  0  0  0
  -30.8890  -17.7000   22.0640 S   0  0  0  0  0  0  0  0  0  0  0  0
  -29.0590  -15.8340   19.8700 H   0  0  0  0  0  0  0  0  0  0  0  0
  -25.5670  -13.9700   20.5090 C   0  0  0  0  0  0  0  0  0  0  0  0
  -24.5450  -13.1800   20.9620 C   0  0  0  0  0  0  0  0  0  0  0  0
  -24.9710  -11.8320   20.7700 C   0  0  0  0  0  0  0  0  0  0  0  0
  -26.5520  -13.0970   20.0730 N   0  0  0  0  0  0  0  0  0  0  0  0
  -26.2100  -11.8020   20.2920 N   0  0  0  0  0  0  0  0  0  0  0  0
  -24.2490  -10.5670   20.9580 C   0  0  0  0  0  0  0  0  0  0  0  0
  -24.6950   -9.5920   21.8750 C   0  0  0  0  0  3  0  0  0  0  0  0
  -23.9720   -8.3930   22.0550 C   0  0  0  0  0  3  0  0  0  0  0  0
  -22.7890   -8.1610   21.3120 C   0  0  0  0  0  0  0  0  0  0  0  0
  -22.3620   -9.1260   20.3820 C   0  0  0  0  0  3  0  0  0  0  0  0
  -23.0860  -10.3160   20.2030 C   0  0  0  0  0  3  0  0  0  0  0  0
  -22.0360   -7.0150   21.3990 O   0  0  0  0  0  0  0  0  0  0  0  0
  -21.8890   -6.3400   22.5840 C   0  0  0  0  0  0  0  0  0  0  0  0
  -21.3300   -6.9520   23.7260 C   0  0  0  0  0  3  0  0  0  0  0  0
  -21.1320   -6.2020   24.9010 C   0  0  0  0  0  3  0  0  0  0  0  0
  -21.4850   -4.8390   24.9360 C   0  0  0  0  0  0  0  0  0  0  0  0
  -22.0360   -4.2240   23.7970 C   0  0  0  0  0  3  0  0  0  0  0  0
  -22.2340   -4.9730   22.6230 C   0  0  0  0  0  0  0  0  0  0  0  0
  -22.7470   -4.3720   21.5220 F   0  0  0  0  0  0  0  0  0  0  0  0
  -21.2870   -4.1140   26.0620 F   0  0  0  0  0  0  0  0  0  0  0  0
  -23.2070  -13.6530   21.4500 C   0  0  0  0  0  0  0  0  0  0  0  0
  -22.5980  -12.9150   22.3710 N   0  0  0  0  0  0  0  0  0  0  0  0
  -22.7180  -14.7090   21.0510 O   0  0  0  0  0  0  0  0  0  0  0  0
  -23.0120  -12.0600   22.7090 H   0  0  0  0  0  0  0  0  0  0  0  0
  -21.7100  -13.2140   22.7450 H   0  0  0  0  0  0  0  0  0  0  0  0
  -25.7250  -15.3480   20.4040 N   0  0  0  0  0  0  0  0  0  0  0  0
  -24.9530  -15.9750   20.6120 H   0  0  0  0  0  0  0  0  0  0  0  0
  -26.4930  -15.8130   19.9400 H   0  0  0  0  0  0  0  0  0  0  0  0
  -29.8290  -21.2510   23.6660 C   0  0  0  0  0  1  0  0  0  0  0  0
  -32.3040  -20.8890   23.1620 C   0  0  0  0  0  1  0  0  0  0  0  0
  -30.9060  -20.2530   23.1980 C   0  0  0  0  0  3  0  0  0  0  0  0
  -29.8170  -23.9240   18.6680 C   0  0  0  0  0  1  0  0  0  0  0  0
  -29.5030  -23.8430   20.1790 C   0  0  2  0  0  0  0  0  0  0  0  0
  -32.1320  -23.9940   20.5480 C   0  0  0  0  0  1  0  0  0  0  0  0
  -30.7090  -24.3040   21.0550 C   0  0  0  0  0  2  0  0  0  0  0  0
  -28.3260  -24.9530   20.4530 C   0  0  0  0  0  2  0  0  0  0  0  0
  -28.5430  -26.4450   20.2590 O   0  0  0  0  0  0  0  0  0  0  0  0
  -24.6910  -31.8820   23.1960 C   0  0  0  0  0  0  0  0  0  0  0  0
  -27.4280  -27.3220   20.1930 C   0  0  0  0  0  0  0  0  0  0  0  0
  -23.5440  -30.4640   21.5360 C   0  0  0  0  0  3  0  0  0  0  0  0
  -25.0490  -28.9440   20.1260 C   0  0  0  0  0  0  0  0  0  0  0  0
  -26.0850  -30.8160   21.3980 C   0  0  0  0  0  2  0  0  0  0  0  0
  -26.2020  -29.4350   20.7480 C   0  0  0  0  0  0  0  0  0  0  0  0
  -27.3970  -28.6400   20.7640 C   0  0  0  0  0  3  0  0  0  0  0  0
  -26.2520  -26.9040   19.5290 C   0  0  0  0  0  3  0  0  0  0  0  0
  -25.0800  -27.6880   19.5030 C   0  0  0  0  0  3  0  0  0  0  0  0
  -23.8010  -29.8070   20.1540 C   0  0  0  0  0  2  0  0  0  0  0  0
  -24.7900  -31.0740   22.1000 N   0  0  0  0  0  0  0  0  0  0  0  0
  -23.5930  -32.1360   23.7160 O   0  0  0  0  0  0  0  0  0  0  0  0
  -22.8850  -29.4290   22.4830 C   0  0  0  0  0  0  0  0  0  0  0  0
  -21.5660  -29.2250   22.3370 N   0  0  0  0  0  0  0  0  0  0  0  0
  -23.5630  -28.8130   23.3060 O   0  0  0  0  0  0  0  0  0  0  0  0
  -21.0790  -29.7710   21.6410 H   0  0  0  0  0  0  0  0  0  0  0  0
  -18.2150  -27.9290   22.7660 C   0  0  0  0  0  0  0  0  0  0  0  0
  -20.7570  -28.2680   23.0960 C   0  0  0  0  0  3  0  0  0  0  0  0
  -20.9180  -26.8360   22.5330 C   0  0  0  0  0  2  0  0  0  0  0  0
  -19.8510  -26.4750   21.4950 C   0  0  0  0  0  2  0  0  0  0  0  0
  -18.4500  -26.5820   22.1030 C   0  0  0  0  0  2  0  0  0  0  0  0
  -19.2990  -28.7270   23.2180 C   0  0  0  0  0  0  0  0  0  0  0  0
  -19.0280  -29.9860   23.7980 C   0  0  0  0  0  3  0  0  0  0  0  0
  -17.7060  -30.4500   23.9290 C   0  0  0  0  0  3  0  0  0  0  0  0
  -16.6350  -29.6490   23.4950 C   0  0  0  0  0  3  0  0  0  0  0  0
  -16.8890  -28.3910   22.9200 C   0  0  0  0  0  3  0  0  0  0  0  0
  -25.9480  -32.5430   23.8380 C   0  0  0  0  0  3  0  0  0  0  0  0
  -26.4670  -31.7800   25.1180 C   0  0  1  0  0  0  0  0  0  0  0  0
  -25.3640  -31.5080   26.1680 C   0  0  0  0  0  1  0  0  0  0  0  0
  -27.0960  -30.4240   24.7290 C   0  0  0  0  0  1  0  0  0  0  0  0
  -27.5880  -32.6020   25.8000 C   0  0  0  0  0  1  0  0  0  0  0  0
  -25.6010  -33.9300   24.1730 N   0  0  0  0  0  0  0  0  0  0  0  0
  -25.9230  -34.9980   23.4310 C   0  0  0  0  0  0  0  0  0  0  0  0
  -26.6130  -34.9180   22.4110 O   0  0  0  0  0  0  0  0  0  0  0  0
  -24.9890  -34.0650   24.9640 H   0  0  0  0  0  0  0  0  0  0  0  0
  -24.1610  -36.7560   23.0650 C   0  0  0  0  0  1  0  0  0  0  0  0
  -25.3950  -36.3680   23.8940 C   0  0  0  0  0  3  0  0  0  0  0  0
  -27.4910  -37.2900   24.7760 C   0  0  0  0  0  1  0  0  0  0  0  0
  -26.4040  -37.4450   23.8160 N   0  0  0  0  0  0  0  0  0  0  0  0
  -25.9750  -38.3540   23.9710 H   0  0  0  0  0  0  0  0  0  0  0  0
  1  3  2  0
  2  1  1  0
  2 14  1  0
  4  2  1  0
  5 17  1  0
  6 11  1  0
  7  8  1  0
  7  6  1  0
  9  8  1  0
  9 23  1  0
  9 10  1  0
 11  5  1  0
 11 10  1  0
 12  5  2  0
 13 18  1  0
 13 50  1  0
 14 13  2  0
 15 18  1  0
 16 15  2  0
 16 14  1  0
 17 15  1  0
 19 17  1  0
 20 21  2  0
 21 40  1  0
 22 25  1  0
 22 21  1  0
 23 24  1  0
 23 20  1  0
 24 22  2  0
 25 26  1  0
 26 27  2  0
 28 31  1  0
 28 27  1  0
 29 28  2  0
 30 29  1  0
 30 25  2  0
 31 32  1  0
 32 37  2  0
 32 33  1  0
 33 34  2  0
 34 35  1  0
 35 39  1  0
 36 35  2  0
 37 36  1  0
 38 37  1  0
 40 41  1  0
 41 43  1  0
 41 44  1  0
 42 40  2  0
 45 20  1  0
 45 46  1  0
 47 45  1  0
 49 50  1  0
 50 48  1  0
 52 51  1  6
 52 55  1  0
 52  1  1  0
 52 54  1  0
 53 54  1  0
 56 55  1  0
 57 68  2  0
 58 56  1  0
 58 63  1  0
 59 67  1  0
 59 69  1  0
 60 66  1  0
 60 62  1  0
 61 67  1  0
 62 63  2  0
 62 61  1  0
 64 58  2  0
 65 64  1  0
 65 60  2  0
 66 59  1  0
 67 57  1  0
 69 71  2  0
 70 69  1  0
 72 70  1  0
 73 82  2  0
 73 78  1  0
 74 70  1  0
 74 78  1  0
 75 74  1  0
 76 77  1  0
 76 75  1  0
 77 73  1  0
 78 79  2  0
 79 80  1  0
 81 80  2  0
 82 81  1  0
 83 57  1  0
 83 88  1  0
 83 84  1  0
 84 87  1  1
 84 85  1  0
 86 84  1  0
 88 91  1  0
 89 93  1  0
 89 88  1  0
 90 89  2  0
 93 92  1  0
 95 93  1  0
 95 96  1  0
 95 94  1  0
M  ISO  4   5 100  17 100  55 101  56 101
M  END
>  <TORSDO>  (27) 
F 20

>  <SCORE>  (27) 
-12.994

>  <name>  (27) 
27

>  <ligand_id>  (27) 
27

>  <original_smiles>  (27) 
[H]c1c([H])c([H])c2c(c1[H])C([H])([H])C([H])([H])C([H])([H])C2([H])N([H])C(=O)C1([H])N(C(=O)C([H])(N([H])C(=O)C([H])(N([H])C([H])([H])[H])C([H])([H])[H])C(C([H])([H])[H])(C([H])([H])[H])C([H])([H])[H])C([H])([H])c2c([H])c(OC([H])([H])C(C(=O)N([H])c3nc(N([H])C(=O)N4C([H])([H])C([H])([H])C([H])([H])C([H])(n5nc(-c6c([H])c([H])c(Oc7c([H])c([H])c(F)c([H])c7F)c([H])c6[H])c(C(=O)N([H])[H])c5N([H])[H])C4([H])[H])sc3C([H])(C([H])([H])[H])C([H])([H])[H])(C([H])([H])[H])C([H])([H])C([H])([H])[H])c([H])c([H])c2C1([H])[H]

>  <smiles>  (27) 
[H]c1c([H])c([H])c2c(c1[H])C([H])([H])C([H])([H])C([H])([H])C2([H])N([H])C(=O)C1([H])N(C(=O)C([H])(N([H])C(=O)C([H])(N([H])C([H])([H])[H])C([H])([H])[H])C(C([H])([H])[H])(C([H])([H])[H])C([H])([H])[H])C([H])([H])c2c([H])c(OC([H])([H])C(C(=O)N([H])c3nc(N([H])C(=O)N4C([H])([H])C([H])([H])C([H])([H])C([H])(n5nc(-c6c([H])c([H])c(Oc7c([H])c([H])c(F)c([H])c7F)c([H])c6[H])c(C(=O)N([H])[H])c5N([H])[H])C4([H])[H])sc3C([H])(C([H])([H])[H])C([H])([H])[H])(C([H])([H])[H])C([H])([H])C([H])([H])[H])c([H])c([H])c2C1([H])[H]

$$$$
28:0:0
     RDKit          3D

 94102  0  0  1  0  0  0  0  0999 V2000
  -31.8660  -19.2920   19.7640 C   0  0  0  0  0  3  0  0  0  0  0  0
  -29.2610  -19.2180   20.3640 C   0  0  0  0  0  0  0  0  0  0  0  0
  -30.0210  -18.0220   20.2160 C   0  0  0  0  0  0  0  0  0  0  0  0
  -29.9340  -20.4520   20.1670 C   0  0  0  0  0  0  0  0  0  0  0  0
  -31.3310  -18.0820   19.9100 N   0  0  0  0  0  0  0  0  0  0  0  0
  -31.2450  -20.4660   19.8710 N   0  0  0  0  0  0  0  0  0  0  0  0
  -29.2660  -21.7040   20.2770 N   0  0  0  0  0  0  0  0  0  0  0  0
  -27.9380  -19.1860   20.6580 F   0  0  0  0  0  0  0  0  0  0  0  0
  -28.2740  -21.6230   20.4650 H   0  0  0  0  0  0  0  0  0  0  0  0
  -29.3090  -22.8900   18.0890 C   0  0  0  0  0  1  0  0  0  0  0  0
  -29.7420  -22.9210   19.5670 C   0  0  0  0  0  3  0  0  0  0  0  0
  -29.5550  -24.2240   21.8010 C   0  0  0  0  0  1  0  0  0  0  0  0
  -29.4790  -24.3250   20.2690 C   0  0  0  0  0  3  0  0  0  0  0  0
  -28.2470  -25.1890   19.8250 C   0  0  0  0  0  2  0  0  0  0  0  0
  -28.3350  -26.5930   20.2090 O   0  0  0  0  0  0  0  0  0  0  0  0
  -24.5820  -31.8940   23.2330 C   0  0  0  0  0  0  0  0  0  0  0  0
  -27.1810  -27.3710   20.1680 C   0  0  0  0  0  0  0  0  0  0  0  0
  -23.3660  -30.5000   21.5960 C   0  0  0  0  0  3  0  0  0  0  0  0
  -24.8060  -28.9410   20.1770 C   0  0  0  0  0  0  0  0  0  0  0  0
  -25.9020  -30.8180   21.4060 C   0  0  0  0  0  2  0  0  0  0  0  0
  -25.9720  -29.4420   20.7640 C   0  0  0  0  0  0  0  0  0  0  0  0
  -27.1610  -28.6660   20.7550 C   0  0  0  0  0  3  0  0  0  0  0  0
  -25.9880  -26.9040   19.5660 C   0  0  0  0  0  3  0  0  0  0  0  0
  -24.8110  -27.6740   19.5750 C   0  0  0  0  0  3  0  0  0  0  0  0
  -23.5720  -29.8170   20.2190 C   0  0  0  0  0  2  0  0  0  0  0  0
  -24.6360  -31.0870   22.1360 N   0  0  0  0  0  0  0  0  0  0  0  0
  -23.5030  -32.1800   23.7690 O   0  0  0  0  0  0  0  0  0  0  0  0
  -22.7020  -29.4870   22.5590 C   0  0  0  0  0  0  0  0  0  0  0  0
  -21.3740  -29.3250   22.4350 N   0  0  0  0  0  0  0  0  0  0  0  0
  -23.3770  -28.8530   23.3730 O   0  0  0  0  0  0  0  0  0  0  0  0
  -20.8920  -29.8840   21.7450 H   0  0  0  0  0  0  0  0  0  0  0  0
  -17.9830  -28.1780   22.9460 C   0  0  0  0  0  0  0  0  0  0  0  0
  -20.5460  -28.3980   23.2070 C   0  0  0  0  0  3  0  0  0  0  0  0
  -20.6260  -26.9660   22.6290 C   0  0  0  0  0  2  0  0  0  0  0  0
  -19.5150  -26.6620   21.6180 C   0  0  0  0  0  2  0  0  0  0  0  0
  -18.1360  -26.8270   22.2670 C   0  0  0  0  0  2  0  0  0  0  0  0
  -19.1150  -28.9220   23.3730 C   0  0  0  0  0  0  0  0  0  0  0  0
  -18.9180  -30.1870   23.9680 C   0  0  0  0  0  3  0  0  0  0  0  0
  -17.6230  -30.7100   24.1400 C   0  0  0  0  0  3  0  0  0  0  0  0
  -16.5050  -29.9630   23.7300 C   0  0  0  0  0  3  0  0  0  0  0  0
  -16.6860  -28.6970   23.1410 C   0  0  0  0  0  3  0  0  0  0  0  0
  -25.8720  -32.5170   23.8530 C   0  0  0  0  0  3  0  0  0  0  0  0
  -26.3820  -31.7440   25.1310 C   0  0  1  0  0  0  0  0  0  0  0  0
  -25.2860  -31.5140   26.1970 C   0  0  0  0  0  1  0  0  0  0  0  0
  -26.9560  -30.3630   24.7390 C   0  0  0  0  0  1  0  0  0  0  0  0
  -27.5390  -32.5300   25.7920 C   0  0  0  0  0  1  0  0  0  0  0  0
  -25.5740  -33.9170   24.1800 N   0  0  0  0  0  0  0  0  0  0  0  0
  -25.9140  -34.9670   23.4190 C   0  0  0  0  0  0  0  0  0  0  0  0
  -26.5830  -34.8560   22.3890 O   0  0  0  0  0  0  0  0  0  0  0  0
  -24.9790  -34.0780   24.9800 H   0  0  0  0  0  0  0  0  0  0  0  0
  -24.1960  -36.7680   23.0540 C   0  0  0  0  0  1  0  0  0  0  0  0
  -25.4320  -36.3590   23.8720 C   0  0  0  0  0  3  0  0  0  0  0  0
  -27.5820  -37.2170   24.6960 C   0  0  0  0  0  1  0  0  0  0  0  0
  -26.4690  -37.4110   23.7720 N   0  0  0  0  0  0  0  0  0  0  0  0
  -26.0650  -38.3260   23.9550 H   0  0  0  0  0  0  0  0  0  0  0  0
  -29.3910  -16.6080   20.2830 C   0  0  0  0  0  2  0  0  0  0  0  0
  -30.7490  -14.5080   20.1650 C   0  0  0  0  0  0  0  0  0  0  0  0
  -30.3850  -12.3560   18.9840 C   0  0  0  0  0  2  0  0  0  0  0  0
  -29.3950  -12.5600   17.8200 C   0  0  0  0  0  2  0  0  0  0  0  0
  -27.9400  -12.4120   18.3090 C   0  0  0  0  0  2  0  0  0  0  0  0
  -27.6550  -13.2370   19.5910 C   0  0  0  0  0  3  0  0  0  0  0  0
  -28.7550  -13.0240   20.6550 C   0  0  0  0  0  2  0  0  0  0  0  0
  -30.0540  -13.3390   20.0320 N   0  0  0  0  0  0  0  0  0  0  0  0
  -31.8420  -14.6800   19.6170 O   0  0  0  0  0  0  0  0  0  0  0  0
  -30.7300  -15.7980   22.2160 C   0  0  0  0  0  1  0  0  0  0  0  0
  -30.1670  -15.4940   20.9000 N   0  0  0  0  0  0  0  0  0  0  0  0
  -25.2970  -13.8490   20.4100 C   0  0  0  0  0  0  0  0  0  0  0  0
  -24.2400  -13.0800   20.8150 C   0  0  0  0  0  0  0  0  0  0  0  0
  -24.6910  -11.7250   20.7500 C   0  0  0  0  0  0  0  0  0  0  0  0
  -26.3250  -12.9640   20.1250 N   0  0  0  0  0  0  0  0  0  0  0  0
  -25.9670  -11.6800   20.3880 N   0  0  0  0  0  0  0  0  0  0  0  0
  -23.9630  -10.4660   20.9550 C   0  0  0  0  0  0  0  0  0  0  0  0
  -24.4090   -9.4980   21.8820 C   0  0  0  0  0  3  0  0  0  0  0  0
  -23.6820   -8.3040   22.0760 C   0  0  0  0  0  3  0  0  0  0  0  0
  -22.4940   -8.0700   21.3440 C   0  0  0  0  0  0  0  0  0  0  0  0
  -22.0670   -9.0260   20.4070 C   0  0  0  0  0  3  0  0  0  0  0  0
  -22.7940  -10.2120   20.2100 C   0  0  0  0  0  3  0  0  0  0  0  0
  -21.7360   -6.9280   21.4480 O   0  0  0  0  0  0  0  0  0  0  0  0
  -21.6910   -6.1980   22.6080 C   0  0  0  0  0  0  0  0  0  0  0  0
  -21.2670   -6.7640   23.8300 C   0  0  0  0  0  3  0  0  0  0  0  0
  -21.1690   -5.9590   24.9820 C   0  0  0  0  0  3  0  0  0  0  0  0
  -21.4850   -4.5890   24.9150 C   0  0  0  0  0  0  0  0  0  0  0  0
  -21.9040   -4.0220   23.6980 C   0  0  0  0  0  3  0  0  0  0  0  0
  -22.0030   -4.8240   22.5470 C   0  0  0  0  0  0  0  0  0  0  0  0
  -22.3860   -4.2680   21.3730 F   0  0  0  0  0  0  0  0  0  0  0  0
  -21.3850   -3.8150   26.0200 F   0  0  0  0  0  0  0  0  0  0  0  0
  -22.8600  -13.5640   21.1510 C   0  0  0  0  0  0  0  0  0  0  0  0
  -22.1620  -12.8590   22.0350 N   0  0  0  0  0  0  0  0  0  0  0  0
  -22.4090  -14.5990   20.6640 O   0  0  0  0  0  0  0  0  0  0  0  0
  -22.5380  -12.0200   22.4490 H   0  0  0  0  0  0  0  0  0  0  0  0
  -21.2350  -13.1630   22.3000 H   0  0  0  0  0  0  0  0  0  0  0  0
  -25.4630  -15.2210   20.2390 N   0  0  0  0  0  0  0  0  0  0  0  0
  -24.6990  -15.8730   20.3750 H   0  0  0  0  0  0  0  0  0  0  0  0
  -26.2890  -15.6560   19.8510 H   0  0  0  0  0  0  0  0  0  0  0  0
  1  6  2  0
  1  5  1  0
  2  8  1  0
  3 56  1  0
  3  2  1  0
  4  7  1  0
  4  2  2  0
  5  3  2  0
  6  4  1  0
  7  9  1  0
 11 10  1  0
 11 13  1  0
 11  7  1  0
 13 12  1  0
 14 15  1  0
 14 13  1  0
 16 27  2  0
 17 15  1  0
 17 22  1  0
 18 26  1  0
 18 28  1  0
 19 25  1  0
 19 21  1  0
 20 26  1  0
 21 20  1  0
 22 21  2  0
 23 24  1  0
 23 17  2  0
 24 19  2  0
 25 18  1  0
 26 16  1  0
 28 30  2  0
 29 28  1  0
 31 29  1  0
 32 41  2  0
 32 37  1  0
 33 29  1  0
 33 37  1  0
 34 33  1  0
 35 36  1  0
 35 34  1  0
 36 32  1  0
 37 38  2  0
 38 39  1  0
 40 39  2  0
 41 40  1  0
 42 16  1  0
 42 47  1  0
 42 43  1  0
 43 46  1  1
 43 44  1  0
 45 43  1  0
 47 50  1  0
 48 52  1  0
 48 47  1  0
 49 48  2  0
 52 51  1  0
 54 52  1  0
 54 55  1  0
 54 53  1  0
 56 66  1  0
 57 66  1  0
 58 63  1  0
 59 60  1  0
 59 58  1  0
 61 60  1  0
 61 70  1  0
 61 62  1  0
 63 57  1  0
 63 62  1  0
 64 57  2  0
 66 65  1  0
 67 68  2  0
 68 87  1  0
 69 68  1  0
 69 72  1  0
 70 71  1  0
 70 67  1  0
 71 69  2  0
 72 73  1  0
 73 74  2  0
 75 78  1  0
 75 74  1  0
 76 75  2  0
 77 76  1  0
 77 72  2  0
 78 79  1  0
 79 80  1  0
 80 81  2  0
 82 81  1  0
 82 86  1  0
 83 82  2  0
 84 79  2  0
 84 83  1  0
 85 84  1  0
 87 88  1  0
 88 91  1  0
 88 90  1  0
 89 87  2  0
 92 93  1  0
 92 67  1  0
 94 92  1  0
M  ISO  4  14 101  15 101  57 100  66 100
M  END
>  <TORSDO>  (28) 
F 20

>  <SCORE>  (28) 
-13.915

>  <name>  (28) 
28

>  <ligand_id>  (28) 
28

>  <original_smiles>  (28) 
[H]c1nc(N([H])C([H])(C([H])([H])[H])C([H])(C([H])([H])[H])C([H])([H])Oc2c([H])c([H])c3c(c2[H])C([H])([H])N(C(=O)C([H])(N([H])C(=O)C([H])(N([H])C([H])([H])[H])C([H])([H])[H])C(C([H])([H])[H])(C([H])([H])[H])C([H])([H])[H])C([H])(C(=O)N([H])C2([H])c4c([H])c([H])c([H])c([H])c4C([H])([H])C([H])([H])C2([H])[H])C3([H])[H])c(F)c(C([H])([H])N(C(=O)N2C([H])([H])C([H])([H])C([H])([H])C([H])(n3nc(-c4c([H])c([H])c(Oc5c([H])c([H])c(F)c([H])c5F)c([H])c4[H])c(C(=O)N([H])[H])c3N([H])[H])C2([H])[H])C([H])([H])[H])n1

>  <smiles>  (28) 
[H]c1nc(N([H])C([H])(C([H])([H])[H])C([H])(C([H])([H])[H])C([H])([H])Oc2c([H])c([H])c3c(c2[H])C([H])([H])N(C(=O)C([H])(N([H])C(=O)C([H])(N([H])C([H])([H])[H])C([H])([H])[H])C(C([H])([H])[H])(C([H])([H])[H])C([H])([H])[H])C([H])(C(=O)N([H])C2([H])c4c([H])c([H])c([H])c([H])c4C([H])([H])C([H])([H])C2([H])[H])C3([H])[H])c(F)c(C([H])([H])N(C(=O)N2C([H])([H])C([H])([H])C([H])([H])C([H])(n3nc(-c4c([H])c([H])c(Oc5c([H])c([H])c(F)c([H])c5F)c([H])c4[H])c(C(=O)N([H])[H])c3N([H])[H])C2([H])[H])C([H])([H])[H])n1

$$$$
29:0:0
     RDKit          3D

 95103  0  0  1  0  0  0  0  0999 V2000
  -29.0000  -19.0200   19.7940 C   0  0  0  0  0  0  0  0  0  0  0  0
  -30.3390  -18.6370   19.8710 C   0  0  0  0  0  0  0  0  0  0  0  0
  -29.8600  -21.2040   19.9320 C   0  0  0  0  0  0  0  0  0  0  0  0
  -29.0240  -23.7260   20.0650 C   0  0  0  0  0  0  0  0  0  0  0  0
  -28.7590  -20.4400   19.8400 N   0  0  0  0  0  0  0  0  0  0  0  0
  -29.9310  -22.6810   19.9930 N   0  0  0  0  0  0  0  0  0  0  0  0
  -27.8080  -23.5420   20.1560 O   0  0  0  0  0  0  0  0  0  0  0  0
  -31.3010  -20.1410   19.9480 S   0  0  0  0  0  0  0  0  0  0  0  0
  -30.8830  -23.0170   19.9700 H   0  0  0  0  0  0  0  0  0  0  0  0
  -27.7950  -18.1040   19.7470 C   0  0  1  0  0  0  0  0  0  0  0  0
  -28.1150  -16.8630   19.3820 F   0  0  0  0  0  0  0  0  0  0  0  0
  -27.2040  -18.0310   20.9410 F   0  0  0  0  0  0  0  0  0  0  0  0
  -26.8860  -18.5420   18.8750 F   0  0  0  0  0  0  0  0  0  0  0  0
  -29.9920  -25.6820   18.6080 C   0  0  0  0  0  1  0  0  0  0  0  0
  -29.5900  -25.2290   20.0250 C   0  0  0  0  0  3  0  0  0  0  0  0
  -28.9780  -26.3110   20.8690 O   0  0  0  0  0  0  0  0  0  0  0  0
  -24.6770  -31.6390   23.1690 C   0  0  0  0  0  0  0  0  0  0  0  0
  -27.8240  -27.0820   20.6090 C   0  0  0  0  0  0  0  0  0  0  0  0
  -23.7460  -30.1520   21.4320 C   0  0  0  0  0  3  0  0  0  0  0  0
  -25.4220  -28.6170   20.2490 C   0  0  0  0  0  0  0  0  0  0  0  0
  -26.2760  -30.5590   21.5640 C   0  0  0  0  0  2  0  0  0  0  0  0
  -26.4860  -29.1660   20.9720 C   0  0  0  0  0  0  0  0  0  0  0  0
  -27.6870  -28.4090   21.1400 C   0  0  0  0  0  3  0  0  0  0  0  0
  -26.7240  -26.5780   19.8850 C   0  0  0  0  0  3  0  0  0  0  0  0
  -25.5450  -27.3300   19.6970 C   0  0  0  0  0  3  0  0  0  0  0  0
  -24.1590  -29.4460   20.1130 C   0  0  0  0  0  2  0  0  0  0  0  0
  -24.9120  -30.8040   22.1140 N   0  0  0  0  0  0  0  0  0  0  0  0
  -23.5250  -31.8880   23.5510 O   0  0  0  0  0  0  0  0  0  0  0  0
  -22.9990  -29.1380   22.3330 C   0  0  0  0  0  0  0  0  0  0  0  0
  -21.6780  -29.0030   22.1280 N   0  0  0  0  0  0  0  0  0  0  0  0
  -23.6120  -28.4770   23.1750 O   0  0  0  0  0  0  0  0  0  0  0  0
  -21.2450  -29.5870   21.4260 H   0  0  0  0  0  0  0  0  0  0  0  0
  -18.2190  -28.0470   22.5770 C   0  0  0  0  0  0  0  0  0  0  0  0
  -20.7920  -28.0730   22.8300 C   0  0  0  0  0  3  0  0  0  0  0  0
  -20.7700  -26.6920   22.1360 C   0  0  0  0  0  2  0  0  0  0  0  0
  -19.6390  -26.5460   21.1150 C   0  0  0  0  0  2  0  0  0  0  0  0
  -18.2780  -26.7490   21.7890 C   0  0  0  0  0  2  0  0  0  0  0  0
  -19.3990  -28.6770   23.0520 C   0  0  0  0  0  0  0  0  0  0  0  0
  -19.2900  -29.8990   23.7500 C   0  0  0  0  0  3  0  0  0  0  0  0
  -18.0320  -30.4880   23.9770 C   0  0  0  0  0  3  0  0  0  0  0  0
  -16.8650  -29.8530   23.5160 C   0  0  0  0  0  3  0  0  0  0  0  0
  -16.9590  -28.6340   22.8220 C   0  0  0  0  0  3  0  0  0  0  0  0
  -25.8450  -32.3390   23.9310 C   0  0  0  0  0  3  0  0  0  0  0  0
  -26.2430  -31.6030   25.2690 C   0  0  1  0  0  0  0  0  0  0  0  0
  -25.0390  -31.2890   26.1880 C   0  0  0  0  0  1  0  0  0  0  0  0
  -26.9650  -30.2690   24.9660 C   0  0  0  0  0  1  0  0  0  0  0  0
  -27.2410  -32.4720   26.0700 C   0  0  0  0  0  1  0  0  0  0  0  0
  -25.4310  -33.7230   24.2070 N   0  0  0  0  0  0  0  0  0  0  0  0
  -25.7820  -34.7850   23.4710 C   0  0  0  0  0  0  0  0  0  0  0  0
  -26.5540  -34.7100   22.5120 O   0  0  0  0  0  0  0  0  0  0  0  0
  -24.7540  -33.8530   24.9450 H   0  0  0  0  0  0  0  0  0  0  0  0
  -23.9990  -36.4760   22.9330 C   0  0  0  0  0  1  0  0  0  0  0  0
  -25.1800  -36.1500   23.8600 C   0  0  0  0  0  3  0  0  0  0  0  0
  -27.1680  -37.1700   24.8770 C   0  0  0  0  0  1  0  0  0  0  0  0
  -26.1590  -37.2590   23.8260 N   0  0  0  0  0  0  0  0  0  0  0  0
  -25.6900  -38.1560   23.9120 H   0  0  0  0  0  0  0  0  0  0  0  0
  -31.0980  -17.2540   20.0460 C   0  0  0  0  0  2  0  0  0  0  0  0
  -31.1490  -14.6700   20.0020 C   0  0  0  0  0  0  0  0  0  0  0  0
  -30.8050  -12.3880   19.0620 C   0  0  0  0  0  2  0  0  0  0  0  0
  -29.8500  -12.4760   17.8510 C   0  0  0  0  0  2  0  0  0  0  0  0
  -28.3830  -12.3860   18.3150 C   0  0  0  0  0  2  0  0  0  0  0  0
  -28.0750  -13.3210   19.5150 C   0  0  0  0  0  3  0  0  0  0  0  0
  -29.1520  -13.2210   20.6170 C   0  0  0  0  0  2  0  0  0  0  0  0
  -30.4470  -13.4880   19.9840 N   0  0  0  0  0  0  0  0  0  0  0  0
  -32.3340  -14.6820   19.6570 O   0  0  0  0  0  0  0  0  0  0  0  0
  -30.4770  -15.8680   20.1940 N   0  0  0  0  0  0  0  0  0  0  0  0
  -29.4990  -15.8170   20.4440 H   0  0  0  0  0  0  0  0  0  0  0  0
  -25.7610  -14.0380   20.3530 C   0  0  0  0  0  0  0  0  0  0  0  0
  -24.6570  -13.3230   20.7260 C   0  0  0  0  0  0  0  0  0  0  0  0
  -25.0230  -11.9460   20.6200 C   0  0  0  0  0  0  0  0  0  0  0  0
  -26.7320  -13.1020   20.0420 N   0  0  0  0  0  0  0  0  0  0  0  0
  -26.2980  -11.8350   20.2650 N   0  0  0  0  0  0  0  0  0  0  0  0
  -24.2150  -10.7290   20.7770 C   0  0  0  0  0  0  0  0  0  0  0  0
  -24.5690   -9.7230   21.7020 C   0  0  0  0  0  3  0  0  0  0  0  0
  -23.7650   -8.5710   21.8500 C   0  0  0  0  0  3  0  0  0  0  0  0
  -22.5930   -8.4200   21.0710 C   0  0  0  0  0  0  0  0  0  0  0  0
  -22.2580   -9.4140   20.1350 C   0  0  0  0  0  3  0  0  0  0  0  0
  -23.0620  -10.5570   19.9860 C   0  0  0  0  0  3  0  0  0  0  0  0
  -21.7650   -7.3250   21.1280 O   0  0  0  0  0  0  0  0  0  0  0  0
  -21.5880   -6.6170   22.2890 C   0  0  0  0  0  0  0  0  0  0  0  0
  -21.0740   -7.2190   23.4590 C   0  0  0  0  0  3  0  0  0  0  0  0
  -20.8420   -6.4390   24.6090 C   0  0  0  0  0  3  0  0  0  0  0  0
  -21.1140   -5.0580   24.5910 C   0  0  0  0  0  0  0  0  0  0  0  0
  -21.6210   -4.4550   23.4260 C   0  0  0  0  0  3  0  0  0  0  0  0
  -21.8540   -5.2330   22.2770 C   0  0  0  0  0  0  0  0  0  0  0  0
  -22.3220   -4.6430   21.1510 F   0  0  0  0  0  0  0  0  0  0  0  0
  -20.8850   -4.3060   25.6930 F   0  0  0  0  0  0  0  0  0  0  0  0
  -23.3060  -13.8830   21.0660 C   0  0  0  0  0  0  0  0  0  0  0  0
  -22.5760  -13.2230   21.9580 N   0  0  0  0  0  0  0  0  0  0  0  0
  -22.9100  -14.9400   20.5760 O   0  0  0  0  0  0  0  0  0  0  0  0
  -22.9090  -12.3650   22.3750 H   0  0  0  0  0  0  0  0  0  0  0  0
  -21.6700  -13.5790   22.2280 H   0  0  0  0  0  0  0  0  0  0  0  0
  -26.0120  -15.4010   20.2260 N   0  0  0  0  0  0  0  0  0  0  0  0
  -25.2950  -16.0960   20.3950 H   0  0  0  0  0  0  0  0  0  0  0  0
  -26.8760  -15.7960   19.8810 H   0  0  0  0  0  0  0  0  0  0  0  0
  1  5  1  0
  1  2  2  0
  2  8  1  0
  2 57  1  0
  3  8  1  0
  3  6  1  0
  4  7  2  0
  5  3  2  0
  6  4  1  0
  9  6  1  0
 10  1  1  0
 10 12  1  1
 11 10  1  0
 13 10  1  0
 15 14  1  0
 15  4  1  0
 15 16  1  0
 17 28  2  0
 18 16  1  0
 18 23  1  0
 19 27  1  0
 19 29  1  0
 20 22  1  0
 21 27  1  0
 22 23  2  0
 22 21  1  0
 24 18  2  0
 25 24  1  0
 25 20  2  0
 26 20  1  0
 26 19  1  0
 27 17  1  0
 29 31  2  0
 30 29  1  0
 32 30  1  0
 33 42  2  0
 33 38  1  0
 34 30  1  0
 34 38  1  0
 35 34  1  0
 36 37  1  0
 36 35  1  0
 37 33  1  0
 38 39  2  0
 39 40  1  0
 41 40  2  0
 42 41  1  0
 43 17  1  0
 43 48  1  0
 43 44  1  0
 44 47  1  1
 44 45  1  0
 46 44  1  0
 48 51  1  0
 49 53  1  0
 49 48  1  0
 50 49  2  0
 53 52  1  0
 55 53  1  0
 55 56  1  0
 55 54  1  0
 57 66  1  0
 58 66  1  0
 59 64  1  0
 60 61  1  0
 60 59  1  0
 62 61  1  0
 62 71  1  0
 62 63  1  0
 64 58  1  0
 64 63  1  0
 65 58  2  0
 66 67  1  0
 68 69  2  0
 69 88  1  0
 70 69  1  0
 70 73  1  0
 71 72  1  0
 71 68  1  0
 72 70  2  0
 73 74  1  0
 74 75  2  0
 76 79  1  0
 76 75  1  0
 77 76  2  0
 78 77  1  0
 78 73  2  0
 79 80  1  0
 80 81  1  0
 81 82  2  0
 83 82  1  0
 83 87  1  0
 84 83  2  0
 85 80  2  0
 85 84  1  0
 86 85  1  0
 88 89  1  0
 89 92  1  0
 89 91  1  0
 90 88  2  0
 93 68  1  0
 93 94  1  0
 95 93  1  0
M  ISO  4  15 101  16 101  58 100  66 100
M  END
>  <TORSDO>  (29) 
F 19

>  <SCORE>  (29) 
-13.746

>  <name>  (29) 
29

>  <ligand_id>  (29) 
29

>  <original_smiles>  (29) 
[H]c1c([H])c([H])c2c(c1[H])C([H])([H])C([H])([H])C([H])([H])C2([H])N([H])C(=O)C1([H])N(C(=O)C([H])(N([H])C(=O)C([H])(N([H])C([H])([H])[H])C([H])([H])[H])C(C([H])([H])[H])(C([H])([H])[H])C([H])([H])[H])C([H])([H])c2c([H])c(OC([H])(C(=O)N([H])c3nc(C(F)(F)F)c(C([H])([H])N([H])C(=O)N4C([H])([H])C([H])([H])C([H])([H])C([H])(n5nc(-c6c([H])c([H])c(Oc7c([H])c([H])c(F)c([H])c7F)c([H])c6[H])c(C(=O)N([H])[H])c5N([H])[H])C4([H])[H])s3)C([H])([H])[H])c([H])c([H])c2C1([H])[H]

>  <smiles>  (29) 
[H]c1c([H])c([H])c2c(c1[H])C([H])([H])C([H])([H])C([H])([H])C2([H])N([H])C(=O)C1([H])N(C(=O)C([H])(N([H])C(=O)C([H])(N([H])C([H])([H])[H])C([H])([H])[H])C(C([H])([H])[H])(C([H])([H])[H])C([H])([H])[H])C([H])([H])c2c([H])c(OC([H])(C(=O)N([H])c3nc(C(F)(F)F)c(C([H])([H])N([H])C(=O)N4C([H])([H])C([H])([H])C([H])([H])C([H])(n5nc(-c6c([H])c([H])c(Oc7c([H])c([H])c(F)c([H])c7F)c([H])c6[H])c(C(=O)N([H])[H])c5N([H])[H])C4([H])[H])s3)C([H])([H])[H])c([H])c([H])c2C1([H])[H]

$$$$
30:0:0
     RDKit          3D

 93101  0  0  1  0  0  0  0  0999 V2000
  -28.6430  -22.8860   19.0440 C   0  0  0  0  0  0  0  0  0  0  0  0
  -29.0500  -21.6010   18.7800 N   0  0  0  0  0  0  0  0  0  0  0  0
  -27.8050  -23.3370   18.2630 O   0  0  0  0  0  0  0  0  0  0  0  0
  -28.7060  -21.3660   17.8600 H   0  0  0  0  0  0  0  0  0  0  0  0
  -30.7670  -18.3790   19.2860 C   0  0  0  0  0  3  0  0  0  0  0  0
  -30.5810  -19.7000   18.7350 C   0  0  0  0  0  3  0  0  0  0  0  0
  -29.9910  -18.1270   20.3870 C   0  0  0  0  0  0  0  0  0  0  0  0
  -29.6480  -20.5000   19.3650 C   0  0  0  0  0  0  0  0  0  0  0  0
  -29.0430  -19.5920   20.7570 S   0  0  0  0  0  0  0  0  0  0  0  0
  -29.8210  -16.9190   21.2000 C   0  0  0  0  0  3  0  0  0  0  0  0
  -30.0580  -15.5620   21.2360 C   0  0  0  0  0  3  0  0  0  0  0  0
  -30.6860  -14.6080   20.2900 C   0  0  0  0  0  0  0  0  0  0  0  0
  -30.3980  -12.4440   19.0680 C   0  0  0  0  0  2  0  0  0  0  0  0
  -29.4070  -12.6300   17.8970 C   0  0  0  0  0  2  0  0  0  0  0  0
  -27.9480  -12.4690   18.3700 C   0  0  0  0  0  2  0  0  0  0  0  0
  -27.6490  -13.2870   19.6510 C   0  0  0  0  0  3  0  0  0  0  0  0
  -28.7340  -13.0250   20.7160 C   0  0  0  0  0  2  0  0  0  0  0  0
  -30.0380  -13.4030   20.1350 N   0  0  0  0  0  0  0  0  0  0  0  0
  -31.7440  -14.8360   19.6950 O   0  0  0  0  0  0  0  0  0  0  0  0
  -25.2740  -13.9110   20.4180 C   0  0  0  0  0  0  0  0  0  0  0  0
  -24.2090  -13.1480   20.8130 C   0  0  0  0  0  0  0  0  0  0  0  0
  -24.6580  -11.7920   20.7700 C   0  0  0  0  0  0  0  0  0  0  0  0
  -26.3070  -13.0220   20.1610 N   0  0  0  0  0  0  0  0  0  0  0  0
  -25.9410  -11.7420   20.4300 N   0  0  0  0  0  0  0  0  0  0  0  0
  -23.9250  -10.5360   20.9750 C   0  0  0  0  0  0  0  0  0  0  0  0
  -24.3730   -9.5640   21.8970 C   0  0  0  0  0  3  0  0  0  0  0  0
  -23.6420   -8.3710   22.0920 C   0  0  0  0  0  3  0  0  0  0  0  0
  -22.4510   -8.1430   21.3640 C   0  0  0  0  0  0  0  0  0  0  0  0
  -22.0210   -9.1030   20.4320 C   0  0  0  0  0  3  0  0  0  0  0  0
  -22.7520  -10.2880   20.2350 C   0  0  0  0  0  3  0  0  0  0  0  0
  -21.6890   -7.0040   21.4670 O   0  0  0  0  0  0  0  0  0  0  0  0
  -21.6590   -6.2600   22.6200 C   0  0  0  0  0  0  0  0  0  0  0  0
  -21.2740   -6.8220   23.8580 C   0  0  0  0  0  3  0  0  0  0  0  0
  -21.1920   -6.0070   25.0060 C   0  0  0  0  0  3  0  0  0  0  0  0
  -21.4840   -4.6340   24.9160 C   0  0  0  0  0  0  0  0  0  0  0  0
  -21.8610   -4.0710   23.6840 C   0  0  0  0  0  3  0  0  0  0  0  0
  -21.9470   -4.8830   22.5380 C   0  0  0  0  0  0  0  0  0  0  0  0
  -22.2910   -4.3340   21.3490 F   0  0  0  0  0  0  0  0  0  0  0  0
  -21.3970   -3.8480   26.0150 F   0  0  0  0  0  0  0  0  0  0  0  0
  -22.8230  -13.6360   21.1230 C   0  0  0  0  0  0  0  0  0  0  0  0
  -22.1130  -12.9440   22.0080 N   0  0  0  0  0  0  0  0  0  0  0  0
  -22.3800  -14.6670   20.6190 O   0  0  0  0  0  0  0  0  0  0  0  0
  -22.4820  -12.1080   22.4370 H   0  0  0  0  0  0  0  0  0  0  0  0
  -21.1870  -13.2570   22.2640 H   0  0  0  0  0  0  0  0  0  0  0  0
  -25.4500  -15.2810   20.2400 N   0  0  0  0  0  0  0  0  0  0  0  0
  -24.7040  -15.9530   20.3740 H   0  0  0  0  0  0  0  0  0  0  0  0
  -26.3120  -15.7040   19.9220 H   0  0  0  0  0  0  0  0  0  0  0  0
  -29.1610  -23.8740   20.1580 C   0  0  0  0  0  3  0  0  0  0  0  0
  -27.9410  -25.0980   22.1370 C   0  0  0  0  0  1  0  0  0  0  0  0
  -28.1280  -25.0440   20.6050 C   0  0  0  0  0  3  0  0  0  0  0  0
  -28.3520  -26.4560   20.1750 O   0  0  0  0  0  0  0  0  0  0  0  0
  -24.5990  -31.8550   23.1880 C   0  0  0  0  0  0  0  0  0  0  0  0
  -27.2340  -27.3090   20.1360 C   0  0  0  0  0  0  0  0  0  0  0  0
  -23.4000  -30.4500   21.5480 C   0  0  0  0  0  3  0  0  0  0  0  0
  -24.8580  -28.9040   20.1240 C   0  0  0  0  0  0  0  0  0  0  0  0
  -25.9370  -30.7810   21.3630 C   0  0  0  0  0  2  0  0  0  0  0  0
  -26.0260  -29.4000   20.7210 C   0  0  0  0  0  0  0  0  0  0  0  0
  -27.2160  -28.6150   20.7180 C   0  0  0  0  0  3  0  0  0  0  0  0
  -26.0480  -26.8720   19.5030 C   0  0  0  0  0  3  0  0  0  0  0  0
  -24.8720  -27.6430   19.5090 C   0  0  0  0  0  3  0  0  0  0  0  0
  -23.6190  -29.7740   20.1680 C   0  0  0  0  0  2  0  0  0  0  0  0
  -24.6640  -31.0450   22.0910 N   0  0  0  0  0  0  0  0  0  0  0  0
  -23.5140  -32.1300   23.7210 O   0  0  0  0  0  0  0  0  0  0  0  0
  -22.7420  -29.4320   22.5110 C   0  0  0  0  0  0  0  0  0  0  0  0
  -21.4140  -29.2620   22.3970 N   0  0  0  0  0  0  0  0  0  0  0  0
  -23.4250  -28.8000   23.3210 O   0  0  0  0  0  0  0  0  0  0  0  0
  -20.9220  -29.8230   21.7140 H   0  0  0  0  0  0  0  0  0  0  0  0
  -18.0330  -28.0960   22.9290 C   0  0  0  0  0  0  0  0  0  0  0  0
  -20.5960  -28.3270   23.1710 C   0  0  0  0  0  3  0  0  0  0  0  0
  -20.6780  -26.9010   22.5830 C   0  0  0  0  0  2  0  0  0  0  0  0
  -19.5610  -26.5950   21.5810 C   0  0  0  0  0  2  0  0  0  0  0  0
  -18.1880  -26.7500   22.2410 C   0  0  0  0  0  2  0  0  0  0  0  0
  -19.1640  -28.8450   23.3520 C   0  0  0  0  0  0  0  0  0  0  0  0
  -18.9650  -30.1060   23.9530 C   0  0  0  0  0  3  0  0  0  0  0  0
  -17.6670  -30.6170   24.1420 C   0  0  0  0  0  3  0  0  0  0  0  0
  -16.5510  -29.8660   23.7340 C   0  0  0  0  0  3  0  0  0  0  0  0
  -16.7350  -28.6090   23.1330 C   0  0  0  0  0  3  0  0  0  0  0  0
  -25.8790  -32.4930   23.8120 C   0  0  0  0  0  3  0  0  0  0  0  0
  -25.5610  -33.8860   24.1590 N   0  0  0  0  0  0  0  0  0  0  0  0
  -25.8730  -34.9490   23.4060 C   0  0  0  0  0  0  0  0  0  0  0  0
  -26.5310  -34.8610   22.3650 O   0  0  0  0  0  0  0  0  0  0  0  0
  -24.9830  -34.0290   24.9740 H   0  0  0  0  0  0  0  0  0  0  0  0
  -24.1190  -36.7220   23.0910 C   0  0  0  0  0  1  0  0  0  0  0  0
  -25.3780  -36.3270   23.8820 C   0  0  0  0  0  3  0  0  0  0  0  0
  -27.5140  -37.2260   24.6890 C   0  0  0  0  0  1  0  0  0  0  0  0
  -26.3960  -37.3930   23.7630 N   0  0  0  0  0  0  0  0  0  0  0  0
  -25.9830  -38.3080   23.9250 H   0  0  0  0  0  0  0  0  0  0  0  0
  -26.4080  -31.7120   25.0780 C   0  0  1  0  0  0  0  0  0  0  0  0
  -25.3240  -31.4560   26.1500 C   0  0  0  0  0  1  0  0  0  0  0  0
  -26.9960  -30.3420   24.6670 C   0  0  0  0  0  1  0  0  0  0  0  0
  -27.5550  -32.5080   25.7440 C   0  0  0  0  0  1  0  0  0  0  0  0
  -29.6630  -23.1160   21.2520 O   0  0  0  0  0  0  0  0  0  0  0  0
  -30.2110  -22.4360   20.8740 H   0  0  0  0  0  0  0  0  0  0  0  0
  2  1  1  0
  2  8  1  0
  3  1  2  0
  4  2  1  0
  5  7  2  0
  6  5  1  0
  6  8  2  0
  7  9  1  0
  7 10  1  0
  8  9  1  0
 10 11  2  0
 12 11  1  0
 13 18  1  0
 14 15  1  0
 14 13  1  0
 16 15  1  0
 16 23  1  0
 16 17  1  0
 18 12  1  0
 18 17  1  0
 19 12  2  0
 20 21  2  0
 21 40  1  0
 22 21  1  0
 22 25  1  0
 23 20  1  0
 23 24  1  0
 24 22  2  0
 25 26  1  0
 26 27  2  0
 28 31  1  0
 28 27  1  0
 29 28  2  0
 30 29  1  0
 30 25  2  0
 31 32  1  0
 32 33  1  0
 33 34  2  0
 35 34  1  0
 35 39  1  0
 36 35  2  0
 37 32  2  0
 37 36  1  0
 38 37  1  0
 40 41  1  0
 41 44  1  0
 41 43  1  0
 42 40  2  0
 45 46  1  0
 45 20  1  0
 47 45  1  0
 48  1  1  0
 48 50  1  0
 48 92  1  0
 50 49  1  0
 51 50  1  0
 52 63  2  0
 53 51  1  0
 53 58  1  0
 54 62  1  0
 54 64  1  0
 55 61  1  0
 55 57  1  0
 56 62  1  0
 57 56  1  0
 58 57  2  0
 59 60  1  0
 59 53  2  0
 60 55  2  0
 61 54  1  0
 62 52  1  0
 64 66  2  0
 65 64  1  0
 67 65  1  0
 68 77  2  0
 68 73  1  0
 69 65  1  0
 69 73  1  0
 70 69  1  0
 71 72  1  0
 71 70  1  0
 72 68  1  0
 73 74  2  0
 74 75  1  0
 76 75  2  0
 77 76  1  0
 78 52  1  0
 78 79  1  0
 78 88  1  0
 79 82  1  0
 80 84  1  0
 80 79  1  0
 81 80  2  0
 84 83  1  0
 86 84  1  0
 86 87  1  0
 86 85  1  0
 88 91  1  1
 88 89  1  0
 90 88  1  0
 93 92  1  0
M  ISO  4  11 100  12 100  50 101  51 101
M  END
>  <TORSDO>  (30) 
F 21

>  <SCORE>  (30) 
-13.746

>  <name>  (30) 
30

>  <ligand_id>  (30) 
30

>  <original_smiles>  (30) 
[H]OC([H])(C(=O)N([H])c1sc(C([H])=C([H])C(=O)N2C([H])([H])C([H])([H])C([H])([H])C([H])(n3nc(-c4c([H])c([H])c(Oc5c([H])c([H])c(F)c([H])c5F)c([H])c4[H])c(C(=O)N([H])[H])c3N([H])[H])C2([H])[H])c([H])c1[H])C([H])(Oc1c([H])c([H])c2c(c1[H])C([H])([H])N(C(=O)C([H])(N([H])C(=O)C([H])(N([H])C([H])([H])[H])C([H])([H])[H])C(C([H])([H])[H])(C([H])([H])[H])C([H])([H])[H])C([H])(C(=O)N([H])C1([H])c3c([H])c([H])c([H])c([H])c3C([H])([H])C([H])([H])C1([H])[H])C2([H])[H])C([H])([H])[H]

>  <smiles>  (30) 
[H]OC([H])(C(=O)N([H])c1sc(C([H])=C([H])C(=O)N2C([H])([H])C([H])([H])C([H])([H])C([H])(n3nc(-c4c([H])c([H])c(Oc5c([H])c([H])c(F)c([H])c5F)c([H])c4[H])c(C(=O)N([H])[H])c3N([H])[H])C2([H])[H])c([H])c1[H])C([H])(Oc1c([H])c([H])c2c(c1[H])C([H])([H])N(C(=O)C([H])(N([H])C(=O)C([H])(N([H])C([H])([H])[H])C([H])([H])[H])C(C([H])([H])[H])(C([H])([H])[H])C([H])([H])[H])C([H])(C(=O)N([H])C1([H])c3c([H])c([H])c([H])c([H])c3C([H])([H])C([H])([H])C1([H])[H])C2([H])[H])C([H])([H])[H]

$$$$
31:0:0
     RDKit          3D

 98106  0  0  1  0  0  0  0  0999 V2000
  -29.3180  -21.6600   20.4550 C   0  0  0  0  0  0  0  0  0  0  0  0
  -28.9460  -20.6260   19.6550 N   0  0  0  0  0  0  0  0  0  0  0  0
  -29.8360  -21.4840   21.5600 O   0  0  0  0  0  0  0  0  0  0  0  0
  -28.4200  -20.9580   18.8580 H   0  0  0  0  0  0  0  0  0  0  0  0
  -30.6410  -14.6210   20.3500 C   0  0  0  0  0  0  0  0  0  0  0  0
  -30.3640  -12.3890   19.3450 C   0  0  0  0  0  2  0  0  0  0  0  0
  -29.4330  -12.5440   18.1240 C   0  0  0  0  0  2  0  0  0  0  0  0
  -27.9570  -12.4050   18.5530 C   0  0  0  0  0  2  0  0  0  0  0  0
  -27.6050  -13.2720   19.7910 C   0  0  0  0  0  3  0  0  0  0  0  0
  -28.6660  -13.1360   20.9070 C   0  0  0  0  0  2  0  0  0  0  0  0
  -29.9760  -13.4280   20.3170 N   0  0  0  0  0  0  0  0  0  0  0  0
  -31.8450  -14.6730   20.0860 O   0  0  0  0  0  0  0  0  0  0  0  0
  -31.0130  -18.1590   17.7950 C   0  0  0  0  0  3  0  0  0  0  0  0
  -30.8430  -17.0060   18.5660 C   0  0  0  0  0  3  0  0  0  0  0  0
  -30.3930  -19.3570   18.1740 C   0  0  0  0  0  0  0  0  0  0  0  0
  -30.0830  -17.0290   19.7530 C   0  0  0  0  0  0  0  0  0  0  0  0
  -29.6420  -19.3850   19.3840 C   0  0  0  0  0  0  0  0  0  0  0  0
  -29.4960  -18.2230   20.1290 N   0  0  0  0  0  0  0  0  0  0  0  0
  -29.8870  -15.7620   20.4510 N   0  0  0  0  0  0  0  0  0  0  0  0
  -28.9810  -15.6470   20.8740 H   0  0  0  0  0  0  0  0  0  0  0  0
  -25.2130  -13.8640   20.5180 C   0  0  0  0  0  0  0  0  0  0  0  0
  -24.1490  -13.0890   20.8920 C   0  0  0  0  0  0  0  0  0  0  0  0
  -24.6150  -11.7380   20.8620 C   0  0  0  0  0  0  0  0  0  0  0  0
  -26.2590  -12.9860   20.2830 N   0  0  0  0  0  0  0  0  0  0  0  0
  -25.9050  -11.7040   20.5520 N   0  0  0  0  0  0  0  0  0  0  0  0
  -23.8910  -10.4750   21.0540 C   0  0  0  0  0  0  0  0  0  0  0  0
  -24.3300   -9.5060   21.9830 C   0  0  0  0  0  3  0  0  0  0  0  0
  -23.6060   -8.3060   22.1640 C   0  0  0  0  0  3  0  0  0  0  0  0
  -22.4280   -8.0700   21.4150 C   0  0  0  0  0  0  0  0  0  0  0  0
  -22.0080   -9.0290   20.4770 C   0  0  0  0  0  3  0  0  0  0  0  0
  -22.7320  -10.2180   20.2950 C   0  0  0  0  0  3  0  0  0  0  0  0
  -21.6740   -6.9240   21.5070 O   0  0  0  0  0  0  0  0  0  0  0  0
  -21.6420   -6.1740   22.6550 C   0  0  0  0  0  0  0  0  0  0  0  0
  -21.2330   -6.7200   23.8920 C   0  0  0  0  0  3  0  0  0  0  0  0
  -21.1470   -5.8940   25.0310 C   0  0  0  0  0  3  0  0  0  0  0  0
  -21.4620   -4.5260   24.9350 C   0  0  0  0  0  0  0  0  0  0  0  0
  -21.8640   -3.9800   23.7050 C   0  0  0  0  0  3  0  0  0  0  0  0
  -21.9520   -4.8010   22.5670 C   0  0  0  0  0  0  0  0  0  0  0  0
  -22.3190   -4.2650   21.3780 F   0  0  0  0  0  0  0  0  0  0  0  0
  -21.3720   -3.7310   26.0280 F   0  0  0  0  0  0  0  0  0  0  0  0
  -22.7510  -13.5640   21.1640 C   0  0  0  0  0  0  0  0  0  0  0  0
  -22.0240  -12.8680   22.0320 N   0  0  0  0  0  0  0  0  0  0  0  0
  -22.3110  -14.5880   20.6410 O   0  0  0  0  0  0  0  0  0  0  0  0
  -22.3910  -12.0410   22.4780 H   0  0  0  0  0  0  0  0  0  0  0  0
  -21.0860  -13.1680   22.2540 H   0  0  0  0  0  0  0  0  0  0  0  0
  -25.3720  -15.2350   20.3380 N   0  0  0  0  0  0  0  0  0  0  0  0
  -24.6000  -15.8820   20.4520 H   0  0  0  0  0  0  0  0  0  0  0  0
  -26.2100  -15.6800   19.9850 H   0  0  0  0  0  0  0  0  0  0  0  0
  -30.5910  -20.5640   17.2480 C   0  0  1  0  0  0  0  0  0  0  0  0
  -30.9660  -20.1830   16.0250 F   0  0  0  0  0  0  0  0  0  0  0  0
  -29.4780  -21.2840   17.1050 F   0  0  0  0  0  0  0  0  0  0  0  0
  -31.5520  -21.3350   17.7470 F   0  0  0  0  0  0  0  0  0  0  0  0
  -30.4500  -23.8030   19.7330 C   0  0  0  0  0  1  0  0  0  0  0  0
  -29.0770  -23.1310   19.9390 C   0  0  0  0  0  3  0  0  0  0  0  0
  -28.0830  -24.0440   20.7710 C   0  0  0  0  0  2  0  0  0  0  0  0
  -27.7930  -25.8880   22.5520 C   0  0  0  0  0  1  0  0  0  0  0  0
  -28.4830  -25.5150   21.2210 C   0  0  0  0  0  3  0  0  0  0  0  0
  -28.3990  -26.6070   20.2460 O   0  0  0  0  0  0  0  0  0  0  0  0
  -24.5990  -31.8970   23.2390 C   0  0  0  0  0  0  0  0  0  0  0  0
  -27.2580  -27.3980   20.2200 C   0  0  0  0  0  0  0  0  0  0  0  0
  -23.4080  -30.4850   21.5970 C   0  0  0  0  0  3  0  0  0  0  0  0
  -24.8730  -28.9370   20.1860 C   0  0  0  0  0  0  0  0  0  0  0  0
  -25.9380  -30.8370   21.4150 C   0  0  0  0  0  2  0  0  0  0  0  0
  -26.0300  -29.4590   20.7800 C   0  0  0  0  0  0  0  0  0  0  0  0
  -27.2290  -28.7010   20.7830 C   0  0  0  0  0  3  0  0  0  0  0  0
  -26.0880  -26.9030   19.6120 C   0  0  0  0  0  3  0  0  0  0  0  0
  -24.9000  -27.6610   19.5950 C   0  0  0  0  0  3  0  0  0  0  0  0
  -23.6290  -29.7990   20.2210 C   0  0  0  0  0  2  0  0  0  0  0  0
  -24.6670  -31.0900   22.1410 N   0  0  0  0  0  0  0  0  0  0  0  0
  -23.5140  -32.1700   23.7700 O   0  0  0  0  0  0  0  0  0  0  0  0
  -22.7500  -29.4690   22.5590 C   0  0  0  0  0  0  0  0  0  0  0  0
  -21.4270  -29.2810   22.4210 N   0  0  0  0  0  0  0  0  0  0  0  0
  -23.4280  -28.8550   23.3860 O   0  0  0  0  0  0  0  0  0  0  0  0
  -20.9420  -29.8300   21.7250 H   0  0  0  0  0  0  0  0  0  0  0  0
  -18.0550  -28.0660   22.8890 C   0  0  0  0  0  0  0  0  0  0  0  0
  -20.6070  -28.3440   23.1890 C   0  0  0  0  0  3  0  0  0  0  0  0
  -20.7260  -26.9090   22.6250 C   0  0  0  0  0  2  0  0  0  0  0  0
  -19.6390  -26.5700   21.6020 C   0  0  0  0  0  2  0  0  0  0  0  0
  -18.2490  -26.7120   22.2270 C   0  0  0  0  0  2  0  0  0  0  0  0
  -19.1620  -28.8390   23.3270 C   0  0  0  0  0  0  0  0  0  0  0  0
  -18.9280  -30.1050   23.9050 C   0  0  0  0  0  3  0  0  0  0  0  0
  -17.6170  -30.5990   24.0510 C   0  0  0  0  0  3  0  0  0  0  0  0
  -16.5240  -29.8230   23.6300 C   0  0  0  0  0  3  0  0  0  0  0  0
  -16.7430  -28.5580   23.0540 C   0  0  0  0  0  3  0  0  0  0  0  0
  -25.8790  -32.5340   23.8650 C   0  0  0  0  0  3  0  0  0  0  0  0
  -26.3880  -31.7730   25.1500 C   0  0  1  0  0  0  0  0  0  0  0  0
  -25.2880  -31.5420   26.2130 C   0  0  0  0  0  1  0  0  0  0  0  0
  -26.9740  -30.3920   24.7700 C   0  0  0  0  0  1  0  0  0  0  0  0
  -27.5350  -32.5720   25.8130 C   0  0  0  0  0  1  0  0  0  0  0  0
  -25.5660  -33.9340   24.1830 N   0  0  0  0  0  0  0  0  0  0  0  0
  -25.9040  -34.9820   23.4180 C   0  0  0  0  0  0  0  0  0  0  0  0
  -26.5830  -34.8710   22.3930 O   0  0  0  0  0  0  0  0  0  0  0  0
  -24.9630  -34.0940   24.9750 H   0  0  0  0  0  0  0  0  0  0  0  0
  -24.1790  -36.7700   23.0370 C   0  0  0  0  0  1  0  0  0  0  0  0
  -25.4130  -36.3730   23.8620 C   0  0  0  0  0  3  0  0  0  0  0  0
  -27.5400  -37.2640   24.7050 C   0  0  0  0  0  1  0  0  0  0  0  0
  -26.4470  -37.4250   23.7500 N   0  0  0  0  0  0  0  0  0  0  0  0
  -26.0390  -38.3470   23.8860 H   0  0  0  0  0  0  0  0  0  0  0  0
  1  3  2  0
  2  1  1  0
  4  2  1  0
  5 19  1  0
  6 11  1  0
  7  8  1  0
  7  6  1  0
  9  8  1  0
  9 24  1  0
  9 10  1  0
 11  5  1  0
 11 10  1  0
 12  5  2  0
 13 15  2  0
 13 14  1  0
 14 16  2  0
 15 17  1  0
 16 18  1  0
 16 19  1  0
 17  2  1  0
 17 18  2  0
 19 20  1  0
 21 22  2  0
 22 41  1  0
 23 22  1  0
 23 26  1  0
 24 21  1  0
 24 25  1  0
 25 23  2  0
 26 27  1  0
 27 28  2  0
 29 32  1  0
 29 28  1  0
 30 29  2  0
 31 30  1  0
 31 26  2  0
 32 33  1  0
 33 34  1  0
 34 35  2  0
 36 35  1  0
 36 40  1  0
 37 36  2  0
 38 33  2  0
 38 37  1  0
 39 38  1  0
 41 42  1  0
 42 45  1  0
 42 44  1  0
 43 41  2  0
 46 47  1  0
 46 21  1  0
 48 46  1  0
 49 52  1  1
 49 15  1  0
 50 49  1  0
 51 49  1  0
 54 53  1  0
 54  1  1  0
 54 55  1  0
 55 57  1  0
 57 56  1  0
 58 57  1  0
 59 70  2  0
 60 58  1  0
 60 65  1  0
 61 69  1  0
 61 71  1  0
 62 68  1  0
 62 64  1  0
 63 69  1  0
 64 65  2  0
 64 63  1  0
 66 60  2  0
 67 66  1  0
 67 62  2  0
 68 61  1  0
 69 59  1  0
 71 73  2  0
 72 71  1  0
 74 72  1  0
 75 84  2  0
 75 80  1  0
 76 72  1  0
 76 80  1  0
 77 76  1  0
 78 79  1  0
 78 77  1  0
 79 75  1  0
 80 81  2  0
 81 82  1  0
 83 82  2  0
 84 83  1  0
 85 59  1  0
 85 90  1  0
 85 86  1  0
 86 89  1  1
 86 87  1  0
 88 86  1  0
 90 93  1  0
 91 95  1  0
 91 90  1  0
 92 91  2  0
 95 94  1  0
 97 95  1  0
 97 98  1  0
 97 96  1  0
M  ISO  4   5 100  19 100  57 101  58 101
M  END
>  <TORSDO>  (31) 
F 20

>  <SCORE>  (31) 
-14.209

>  <name>  (31) 
31

>  <ligand_id>  (31) 
31

>  <original_smiles>  (31) 
[H]c1c(N([H])C(=O)N2C([H])([H])C([H])([H])C([H])([H])C([H])(n3nc(-c4c([H])c([H])c(Oc5c([H])c([H])c(F)c([H])c5F)c([H])c4[H])c(C(=O)N([H])[H])c3N([H])[H])C2([H])[H])nc(N([H])C(=O)C([H])(C([H])([H])[H])C([H])([H])C([H])(Oc2c([H])c([H])c3c(c2[H])C([H])([H])N(C(=O)C([H])(N([H])C(=O)C([H])(N([H])C([H])([H])[H])C([H])([H])[H])C(C([H])([H])[H])(C([H])([H])[H])C([H])([H])[H])C([H])(C(=O)N([H])C2([H])c4c([H])c([H])c([H])c([H])c4C([H])([H])C([H])([H])C2([H])[H])C3([H])[H])C([H])([H])[H])c(C(F)(F)F)c1[H]

>  <smiles>  (31) 
[H]c1c(N([H])C(=O)N2C([H])([H])C([H])([H])C([H])([H])C([H])(n3nc(-c4c([H])c([H])c(Oc5c([H])c([H])c(F)c([H])c5F)c([H])c4[H])c(C(=O)N([H])[H])c3N([H])[H])C2([H])[H])nc(N([H])C(=O)C([H])(C([H])([H])[H])C([H])([H])C([H])(Oc2c([H])c([H])c3c(c2[H])C([H])([H])N(C(=O)C([H])(N([H])C(=O)C([H])(N([H])C([H])([H])[H])C([H])([H])[H])C(C([H])([H])[H])(C([H])([H])[H])C([H])([H])[H])C([H])(C(=O)N([H])C2([H])c4c([H])c([H])c([H])c([H])c4C([H])([H])C([H])([H])C2([H])[H])C3([H])[H])C([H])([H])[H])c(C(F)(F)F)c1[H]

$$$$
32:0:0
     RDKit          3D

 93101  0  0  1  0  0  0  0  0999 V2000
  -29.9820  -22.7490   21.9760 C   0  0  0  0  0  1  0  0  0  0  0  0
  -28.9400  -22.7380   20.8510 C   0  0  0  0  0  3  0  0  0  0  0  0
  -29.7480  -17.9260   19.0660 C   0  0  0  0  0  3  0  0  0  0  0  0
  -29.9740  -18.0640   20.4120 C   0  0  0  0  0  0  0  0  0  0  0  0
  -29.4190  -20.2450   19.8550 C   0  0  0  0  0  0  0  0  0  0  0  0
  -29.7600  -19.4010   20.8510 N   0  0  0  0  0  0  0  0  0  0  0  0
  -29.1870  -21.6330   19.9060 N   0  0  0  0  0  0  0  0  0  0  0  0
  -29.2990  -19.4280   18.3010 S   0  0  0  0  0  0  0  0  0  0  0  0
  -28.9330  -21.9990   18.9880 H   0  0  0  0  0  0  0  0  0  0  0  0
  -30.4500  -16.9520   21.3460 C   0  0  0  0  0  2  0  0  0  0  0  0
  -30.6490  -14.5620   20.4770 C   0  0  0  0  0  0  0  0  0  0  0  0
  -30.3570  -12.3880   19.3240 C   0  0  0  0  0  2  0  0  0  0  0  0
  -29.4040  -12.5650   18.1240 C   0  0  0  0  0  2  0  0  0  0  0  0
  -27.9340  -12.4120   18.5630 C   0  0  0  0  0  2  0  0  0  0  0  0
  -27.5970  -13.2550   19.8220 C   0  0  0  0  0  3  0  0  0  0  0  0
  -28.6620  -13.0630   20.9240 C   0  0  0  0  0  2  0  0  0  0  0  0
  -29.9760  -13.3830   20.3420 N   0  0  0  0  0  0  0  0  0  0  0  0
  -31.7780  -14.7320   20.0120 O   0  0  0  0  0  0  0  0  0  0  0  0
  -29.9630  -15.5820   21.0390 N   0  0  0  0  0  0  0  0  0  0  0  0
  -29.0230  -15.3750   21.3370 H   0  0  0  0  0  0  0  0  0  0  0  0
  -25.2080  -13.8570   20.5580 C   0  0  0  0  0  0  0  0  0  0  0  0
  -24.1440  -13.0810   20.9360 C   0  0  0  0  0  0  0  0  0  0  0  0
  -24.6060  -11.7300   20.8980 C   0  0  0  0  0  0  0  0  0  0  0  0
  -26.2500  -12.9760   20.3140 N   0  0  0  0  0  0  0  0  0  0  0  0
  -25.8940  -11.6930   20.5770 N   0  0  0  0  0  0  0  0  0  0  0  0
  -23.8820  -10.4660   21.0910 C   0  0  0  0  0  0  0  0  0  0  0  0
  -24.3400   -9.4840   21.9950 C   0  0  0  0  0  3  0  0  0  0  0  0
  -23.6170   -8.2850   22.1760 C   0  0  0  0  0  3  0  0  0  0  0  0
  -22.4220   -8.0610   21.4540 C   0  0  0  0  0  0  0  0  0  0  0  0
  -21.9820   -9.0320   20.5370 C   0  0  0  0  0  3  0  0  0  0  0  0
  -22.7050  -10.2220   20.3530 C   0  0  0  0  0  3  0  0  0  0  0  0
  -21.6670   -6.9160   21.5460 O   0  0  0  0  0  0  0  0  0  0  0  0
  -21.6710   -6.1410   22.6790 C   0  0  0  0  0  0  0  0  0  0  0  0
  -21.3230   -6.6670   23.9430 C   0  0  0  0  0  3  0  0  0  0  0  0
  -21.2720   -5.8190   25.0680 C   0  0  0  0  0  3  0  0  0  0  0  0
  -21.5580   -4.4480   24.9310 C   0  0  0  0  0  0  0  0  0  0  0  0
  -21.8980   -3.9220   23.6710 C   0  0  0  0  0  3  0  0  0  0  0  0
  -21.9510   -4.7660   22.5490 C   0  0  0  0  0  0  0  0  0  0  0  0
  -22.2590   -4.2510   21.3350 F   0  0  0  0  0  0  0  0  0  0  0  0
  -21.5020   -3.6320   26.0080 F   0  0  0  0  0  0  0  0  0  0  0  0
  -22.7480  -13.5560   21.2220 C   0  0  0  0  0  0  0  0  0  0  0  0
  -22.0290  -12.8570   22.0940 N   0  0  0  0  0  0  0  0  0  0  0  0
  -22.3030  -14.5810   20.7060 O   0  0  0  0  0  0  0  0  0  0  0  0
  -22.3990  -12.0280   22.5330 H   0  0  0  0  0  0  0  0  0  0  0  0
  -21.0920  -13.1580   22.3250 H   0  0  0  0  0  0  0  0  0  0  0  0
  -25.3730  -15.2270   20.3820 N   0  0  0  0  0  0  0  0  0  0  0  0
  -24.6120  -15.8870   20.4930 H   0  0  0  0  0  0  0  0  0  0  0  0
  -26.2230  -15.6620   20.0470 H   0  0  0  0  0  0  0  0  0  0  0  0
  -28.8790  -24.1220   20.0860 C   0  0  0  0  0  3  0  0  0  0  0  0
  -28.1260  -23.8960   18.9070 O   0  0  0  0  0  0  0  0  0  0  0  0
  -28.0430  -24.7410   18.4760 H   0  0  0  0  0  0  0  0  0  0  0  0
  -28.1990  -25.3180   20.8430 C   0  0  0  0  0  2  0  0  0  0  0  0
  -28.3530  -26.6210   20.2040 O   0  0  0  0  0  0  0  0  0  0  0  0
  -24.6050  -31.8990   23.2410 C   0  0  0  0  0  0  0  0  0  0  0  0
  -27.2160  -27.4120   20.1790 C   0  0  0  0  0  0  0  0  0  0  0  0
  -23.3880  -30.4950   21.6100 C   0  0  0  0  0  3  0  0  0  0  0  0
  -24.8330  -28.9530   20.1760 C   0  0  0  0  0  0  0  0  0  0  0  0
  -25.9150  -30.8460   21.3940 C   0  0  0  0  0  2  0  0  0  0  0  0
  -25.9980  -29.4710   20.7560 C   0  0  0  0  0  0  0  0  0  0  0  0
  -27.1970  -28.7120   20.7460 C   0  0  0  0  0  3  0  0  0  0  0  0
  -26.0360  -26.9230   19.5790 C   0  0  0  0  0  3  0  0  0  0  0  0
  -24.8500  -27.6810   19.5780 C   0  0  0  0  0  3  0  0  0  0  0  0
  -23.5900  -29.8150   20.2300 C   0  0  0  0  0  2  0  0  0  0  0  0
  -24.6550  -31.0950   22.1400 N   0  0  0  0  0  0  0  0  0  0  0  0
  -23.5260  -32.1730   23.7870 O   0  0  0  0  0  0  0  0  0  0  0  0
  -22.7410  -29.4770   22.5780 C   0  0  0  0  0  0  0  0  0  0  0  0
  -21.4150  -29.2940   22.4600 N   0  0  0  0  0  0  0  0  0  0  0  0
  -23.4290  -28.8530   23.3910 O   0  0  0  0  0  0  0  0  0  0  0  0
  -20.9200  -29.8510   21.7770 H   0  0  0  0  0  0  0  0  0  0  0  0
  -18.0460  -28.0880   22.9690 C   0  0  0  0  0  0  0  0  0  0  0  0
  -20.6030  -28.3560   23.2340 C   0  0  0  0  0  3  0  0  0  0  0  0
  -20.7090  -26.9220   22.6650 C   0  0  0  0  0  2  0  0  0  0  0  0
  -19.6050  -26.5920   21.6550 C   0  0  0  0  0  2  0  0  0  0  0  0
  -18.2250  -26.7360   22.3000 C   0  0  0  0  0  2  0  0  0  0  0  0
  -19.1620  -28.8550   23.3940 C   0  0  0  0  0  0  0  0  0  0  0  0
  -18.9410  -30.1220   23.9790 C   0  0  0  0  0  3  0  0  0  0  0  0
  -17.6360  -30.6200   24.1420 C   0  0  0  0  0  3  0  0  0  0  0  0
  -16.5340  -29.8510   23.7350 C   0  0  0  0  0  3  0  0  0  0  0  0
  -16.7390  -28.5860   23.1540 C   0  0  0  0  0  3  0  0  0  0  0  0
  -25.8930  -32.5310   23.8510 C   0  0  0  0  0  3  0  0  0  0  0  0
  -25.5850  -33.9280   24.1890 N   0  0  0  0  0  0  0  0  0  0  0  0
  -25.9120  -34.9830   23.4310 C   0  0  0  0  0  0  0  0  0  0  0  0
  -26.5760  -34.8830   22.3950 O   0  0  0  0  0  0  0  0  0  0  0  0
  -24.9940  -34.0780   24.9930 H   0  0  0  0  0  0  0  0  0  0  0  0
  -24.1780  -36.7720   23.0930 C   0  0  0  0  0  1  0  0  0  0  0  0
  -25.4250  -36.3690   23.8950 C   0  0  0  0  0  3  0  0  0  0  0  0
  -27.5680  -37.2530   24.7080 C   0  0  0  0  0  1  0  0  0  0  0  0
  -26.4560  -37.4240   23.7760 N   0  0  0  0  0  0  0  0  0  0  0  0
  -26.0500  -38.3430   23.9320 H   0  0  0  0  0  0  0  0  0  0  0  0
  -26.4250  -31.7560   25.1180 C   0  0  1  0  0  0  0  0  0  0  0  0
  -25.3450  -31.5140   26.1990 C   0  0  0  0  0  1  0  0  0  0  0  0
  -27.0030  -30.3800   24.7130 C   0  0  0  0  0  1  0  0  0  0  0  0
  -27.5820  -32.5480   25.7700 C   0  0  0  0  0  1  0  0  0  0  0  0
  2  1  1  0
  3  4  2  0
  4  6  1  0
  4 10  1  0
  5  7  1  0
  5  6  2  0
  7  2  1  0
  8  3  1  0
  8  5  1  0
  9  7  1  0
 11 19  1  0
 12 17  1  0
 13 14  1  0
 13 12  1  0
 15 14  1  0
 15 24  1  0
 15 16  1  0
 17 11  1  0
 17 16  1  0
 18 11  2  0
 19 20  1  0
 19 10  1  0
 21 22  2  0
 22 41  1  0
 23 22  1  0
 23 26  1  0
 24 21  1  0
 24 25  1  0
 25 23  2  0
 26 27  1  0
 27 28  2  0
 29 32  1  0
 29 28  1  0
 30 29  2  0
 31 30  1  0
 31 26  2  0
 32 33  1  0
 33 34  1  0
 34 35  2  0
 36 35  1  0
 36 40  1  0
 37 36  2  0
 38 33  2  0
 38 37  1  0
 39 38  1  0
 41 42  1  0
 42 45  1  0
 42 44  1  0
 43 41  2  0
 46 47  1  0
 46 21  1  0
 48 46  1  0
 49 52  1  0
 49  2  1  0
 50 49  1  0
 51 50  1  0
 53 52  1  0
 54 65  2  0
 55 53  1  0
 55 60  1  0
 56 64  1  0
 56 66  1  0
 57 63  1  0
 57 59  1  0
 58 64  1  0
 59 58  1  0
 60 59  2  0
 61 55  2  0
 62 61  1  0
 62 57  2  0
 63 56  1  0
 64 54  1  0
 66 68  2  0
 67 66  1  0
 69 67  1  0
 70 79  2  0
 70 75  1  0
 71 67  1  0
 71 75  1  0
 72 71  1  0
 73 74  1  0
 73 72  1  0
 74 70  1  0
 75 76  2  0
 76 77  1  0
 78 77  2  0
 79 78  1  0
 80 54  1  0
 80 81  1  0
 80 90  1  0
 81 84  1  0
 82 86  1  0
 82 81  1  0
 83 82  2  0
 86 85  1  0
 88 86  1  0
 88 89  1  0
 88 87  1  0
 90 93  1  1
 90 91  1  0
 92 90  1  0
M  ISO  4  11 100  19 100  52 101  53 101
M  END
>  <TORSDO>  (32) 
F 21

>  <SCORE>  (32) 
-13.791

>  <name>  (32) 
32

>  <ligand_id>  (32) 
32

>  <original_smiles>  (32) 
[H]OC([H])(C([H])([H])Oc1c([H])c([H])c2c(c1[H])C([H])([H])N(C(=O)C([H])(N([H])C(=O)C([H])(N([H])C([H])([H])[H])C([H])([H])[H])C(C([H])([H])[H])(C([H])([H])[H])C([H])([H])[H])C([H])(C(=O)N([H])C1([H])c3c([H])c([H])c([H])c([H])c3C([H])([H])C([H])([H])C1([H])[H])C2([H])[H])C([H])(N([H])c1nc(C([H])([H])N([H])C(=O)N2C([H])([H])C([H])([H])C([H])([H])C([H])(n3nc(-c4c([H])c([H])c(Oc5c([H])c([H])c(F)c([H])c5F)c([H])c4[H])c(C(=O)N([H])[H])c3N([H])[H])C2([H])[H])c([H])s1)C([H])([H])[H]

>  <smiles>  (32) 
[H]OC([H])(C([H])([H])Oc1c([H])c([H])c2c(c1[H])C([H])([H])N(C(=O)C([H])(N([H])C(=O)C([H])(N([H])C([H])([H])[H])C([H])([H])[H])C(C([H])([H])[H])(C([H])([H])[H])C([H])([H])[H])C([H])(C(=O)N([H])C1([H])c3c([H])c([H])c([H])c([H])c3C([H])([H])C([H])([H])C1([H])[H])C2([H])[H])C([H])(N([H])c1nc(C([H])([H])N([H])C(=O)N2C([H])([H])C([H])([H])C([H])([H])C([H])(n3nc(-c4c([H])c([H])c(Oc5c([H])c([H])c(F)c([H])c5F)c([H])c4[H])c(C(=O)N([H])[H])c3N([H])[H])C2([H])[H])c([H])s1)C([H])([H])[H]

$$$$
33:0:0
     RDKit          3D

 98106  0  0  1  0  0  0  0  0999 V2000
  -29.5720  -21.9700   20.4720 C   0  0  0  0  0  0  0  0  0  0  0  0
  -29.6950  -20.7760   21.1090 N   0  0  0  0  0  0  0  0  0  0  0  0
  -29.6010  -22.0710   19.2440 O   0  0  0  0  0  0  0  0  0  0  0  0
  -29.5520  -20.8310   22.1090 H   0  0  0  0  0  0  0  0  0  0  0  0
  -30.6450  -19.1550   19.4680 C   0  0  0  0  0  3  0  0  0  0  0  0
  -30.8410  -17.7380   19.2930 C   0  0  0  0  0  0  0  0  0  0  0  0
  -30.0190  -19.5310   20.6300 C   0  0  0  0  0  0  0  0  0  0  0  0
  -30.3830  -16.9900   20.3750 C   0  0  0  0  0  0  0  0  0  0  0  0
  -29.6790  -18.0860   21.5600 S   0  0  0  0  0  0  0  0  0  0  0  0
  -31.0570  -14.6000   20.1700 C   0  0  0  0  0  0  0  0  0  0  0  0
  -30.7420  -12.4170   19.0660 C   0  0  0  0  0  2  0  0  0  0  0  0
  -29.7530  -12.6290   17.8990 C   0  0  0  0  0  2  0  0  0  0  0  0
  -28.2940  -12.5030   18.3820 C   0  0  0  0  0  2  0  0  0  0  0  0
  -28.0110  -13.3320   19.6620 C   0  0  0  0  0  3  0  0  0  0  0  0
  -29.1070  -13.0970   20.7270 C   0  0  0  0  0  2  0  0  0  0  0  0
  -30.4100  -13.4020   20.1110 N   0  0  0  0  0  0  0  0  0  0  0  0
  -32.1910  -14.7640   19.7180 O   0  0  0  0  0  0  0  0  0  0  0  0
  -30.3090  -15.6360   20.6250 N   0  0  0  0  0  0  0  0  0  0  0  0
  -29.5020  -15.3450   21.1590 H   0  0  0  0  0  0  0  0  0  0  0  0
  -25.6610  -13.9590   20.4990 C   0  0  0  0  0  0  0  0  0  0  0  0
  -24.5930  -13.1950   20.8870 C   0  0  0  0  0  0  0  0  0  0  0  0
  -25.0240  -11.8360   20.7890 C   0  0  0  0  0  0  0  0  0  0  0  0
  -26.6750  -13.0650   20.1920 N   0  0  0  0  0  0  0  0  0  0  0  0
  -26.2990  -11.7820   20.4240 N   0  0  0  0  0  0  0  0  0  0  0  0
  -24.2790  -10.5820   20.9690 C   0  0  0  0  0  0  0  0  0  0  0  0
  -24.6770   -9.6160   21.9190 C   0  0  0  0  0  3  0  0  0  0  0  0
  -23.9340   -8.4270   22.0840 C   0  0  0  0  0  3  0  0  0  0  0  0
  -22.7800   -8.1960   21.2990 C   0  0  0  0  0  0  0  0  0  0  0  0
  -22.4030   -9.1490   20.3380 C   0  0  0  0  0  3  0  0  0  0  0  0
  -23.1460  -10.3300   20.1700 C   0  0  0  0  0  3  0  0  0  0  0  0
  -22.0130   -7.0590   21.3720 O   0  0  0  0  0  0  0  0  0  0  0  0
  -21.8430   -6.3800   22.5520 C   0  0  0  0  0  0  0  0  0  0  0  0
  -21.2410   -6.9810   23.6790 C   0  0  0  0  0  3  0  0  0  0  0  0
  -21.0230   -6.2250   24.8470 C   0  0  0  0  0  3  0  0  0  0  0  0
  -21.3980   -4.8690   24.8900 C   0  0  0  0  0  0  0  0  0  0  0  0
  -21.9950   -4.2680   23.7680 C   0  0  0  0  0  3  0  0  0  0  0  0
  -22.2140   -5.0210   22.6020 C   0  0  0  0  0  0  0  0  0  0  0  0
  -22.7690   -4.4310   21.5160 F   0  0  0  0  0  0  0  0  0  0  0  0
  -21.1830   -4.1410   26.0110 F   0  0  0  0  0  0  0  0  0  0  0  0
  -23.2190  -13.6890   21.2360 C   0  0  0  0  0  0  0  0  0  0  0  0
  -22.5150  -12.9780   22.1100 N   0  0  0  0  0  0  0  0  0  0  0  0
  -22.7800  -14.7390   20.7700 O   0  0  0  0  0  0  0  0  0  0  0  0
  -22.8830  -12.1280   22.5110 H   0  0  0  0  0  0  0  0  0  0  0  0
  -21.5940  -13.2910   22.3860 H   0  0  0  0  0  0  0  0  0  0  0  0
  -25.8450  -15.3310   20.3620 N   0  0  0  0  0  0  0  0  0  0  0  0
  -25.0940  -15.9920   20.5240 H   0  0  0  0  0  0  0  0  0  0  0  0
  -26.6840  -15.7670   20.0000 H   0  0  0  0  0  0  0  0  0  0  0  0
  -31.4610  -17.2320   18.0060 C   0  0  1  0  0  0  0  0  0  0  0  0
  -32.7730  -17.0460   18.1350 F   0  0  0  0  0  0  0  0  0  0  0  0
  -30.9020  -16.0970   17.5880 F   0  0  0  0  0  0  0  0  0  0  0  0
  -31.3000  -18.1080   17.0110 F   0  0  0  0  0  0  0  0  0  0  0  0
  -29.3820  -22.9340   22.8580 C   0  0  0  0  0  1  0  0  0  0  0  0
  -29.3910  -23.2620   21.3390 C   0  0  0  0  0  3  0  0  0  0  0  0
  -28.1900  -24.2000   20.9070 C   0  0  0  0  0  3  0  0  0  0  0  0
  -27.6810  -24.9340   22.0140 O   0  0  0  0  0  0  0  0  0  0  0  0
  -27.6110  -25.8400   21.7190 H   0  0  0  0  0  0  0  0  0  0  0  0
  -28.4520  -25.2290   19.7480 C   0  0  0  0  0  2  0  0  0  0  0  0
  -28.4240  -26.6410   20.1110 O   0  0  0  0  0  0  0  0  0  0  0  0
  -24.7050  -31.8310   23.2600 C   0  0  0  0  0  0  0  0  0  0  0  0
  -27.2520  -27.3850   20.0730 C   0  0  0  0  0  0  0  0  0  0  0  0
  -23.4550  -30.4580   21.6280 C   0  0  0  0  0  3  0  0  0  0  0  0
  -24.8670  -28.9270   20.1520 C   0  0  0  0  0  0  0  0  0  0  0  0
  -25.9800  -30.7980   21.3780 C   0  0  0  0  0  2  0  0  0  0  0  0
  -26.0420  -29.4330   20.7160 C   0  0  0  0  0  0  0  0  0  0  0  0
  -27.2340  -28.6710   20.6690 C   0  0  0  0  0  3  0  0  0  0  0  0
  -26.0530  -26.9000   19.5000 C   0  0  0  0  0  3  0  0  0  0  0  0
  -24.8690  -27.6610   19.5390 C   0  0  0  0  0  3  0  0  0  0  0  0
  -23.6290  -29.7940   20.2360 C   0  0  0  0  0  2  0  0  0  0  0  0
  -24.7340  -31.0440   22.1470 N   0  0  0  0  0  0  0  0  0  0  0  0
  -23.6370  -32.1030   23.8270 O   0  0  0  0  0  0  0  0  0  0  0  0
  -22.8170  -29.4300   22.5910 C   0  0  0  0  0  0  0  0  0  0  0  0
  -21.4970  -29.2240   22.4590 N   0  0  0  0  0  0  0  0  0  0  0  0
  -23.5090  -28.8200   23.4110 O   0  0  0  0  0  0  0  0  0  0  0  0
  -20.9990  -29.7690   21.7700 H   0  0  0  0  0  0  0  0  0  0  0  0
  -18.1500  -27.9380   22.9180 C   0  0  0  0  0  0  0  0  0  0  0  0
  -20.6940  -28.2740   23.2300 C   0  0  0  0  0  3  0  0  0  0  0  0
  -20.8470  -26.8370   22.6780 C   0  0  0  0  0  2  0  0  0  0  0  0
  -19.7740  -26.4680   21.6490 C   0  0  0  0  0  2  0  0  0  0  0  0
  -18.3770  -26.5840   22.2670 C   0  0  0  0  0  2  0  0  0  0  0  0
  -19.2390  -28.7380   23.3560 C   0  0  0  0  0  0  0  0  0  0  0  0
  -18.9730  -30.0040   23.9220 C   0  0  0  0  0  3  0  0  0  0  0  0
  -17.6530  -30.4700   24.0570 C   0  0  0  0  0  3  0  0  0  0  0  0
  -16.5780  -29.6680   23.6360 C   0  0  0  0  0  3  0  0  0  0  0  0
  -16.8280  -28.4040   23.0720 C   0  0  0  0  0  3  0  0  0  0  0  0
  -26.0060  -32.4480   23.8600 C   0  0  0  0  0  3  0  0  0  0  0  0
  -25.7180  -33.8480   24.2000 N   0  0  0  0  0  0  0  0  0  0  0  0
  -26.0560  -34.9000   23.4430 C   0  0  0  0  0  0  0  0  0  0  0  0
  -26.7140  -34.7940   22.4040 O   0  0  0  0  0  0  0  0  0  0  0  0
  -25.1350  -34.0060   25.0090 H   0  0  0  0  0  0  0  0  0  0  0  0
  -24.3590  -36.7240   23.0970 C   0  0  0  0  0  1  0  0  0  0  0  0
  -25.5890  -36.2910   23.9110 C   0  0  0  0  0  3  0  0  0  0  0  0
  -27.7250  -37.1420   24.7740 C   0  0  0  0  0  1  0  0  0  0  0  0
  -26.6400  -37.3280   23.8150 N   0  0  0  0  0  0  0  0  0  0  0  0
  -26.2450  -38.2550   23.9570 H   0  0  0  0  0  0  0  0  0  0  0  0
  -26.5410  -31.6680   25.1230 C   0  0  1  0  0  0  0  0  0  0  0  0
  -25.4650  -31.4290   26.2080 C   0  0  0  0  0  1  0  0  0  0  0  0
  -27.1140  -30.2910   24.7120 C   0  0  0  0  0  1  0  0  0  0  0  0
  -27.7040  -32.4550   25.7730 C   0  0  0  0  0  1  0  0  0  0  0  0
  1  2  1  0
  1 53  1  0
  2  4  1  0
  3  1  2  0
  5  7  2  0
  6  5  1  0
  6  8  2  0
  7  2  1  0
  7  9  1  0
  8 18  1  0
  8  9  1  0
 10 18  1  0
 11 16  1  0
 12 13  1  0
 12 11  1  0
 14 13  1  0
 14 23  1  0
 14 15  1  0
 16 10  1  0
 16 15  1  0
 17 10  2  0
 18 19  1  0
 20 21  2  0
 21 40  1  0
 22 21  1  0
 22 25  1  0
 23 24  1  0
 23 20  1  0
 24 22  2  0
 25 26  1  0
 26 27  2  0
 28 31  1  0
 28 27  1  0
 29 28  2  0
 30 29  1  0
 30 25  2  0
 31 32  1  0
 32 37  2  0
 32 33  1  0
 33 34  2  0
 34 35  1  0
 35 39  1  0
 36 35  2  0
 37 36  1  0
 38 37  1  0
 40 41  1  0
 41 44  1  0
 41 43  1  0
 42 40  2  0
 45 20  1  0
 45 46  1  0
 47 45  1  0
 48 49  1  1
 48  6  1  0
 50 48  1  0
 51 48  1  0
 53 52  1  0
 54 57  1  0
 54 53  1  0
 54 55  1  0
 56 55  1  0
 57 58  1  0
 59 70  2  0
 60 58  1  0
 60 65  1  0
 61 69  1  0
 61 71  1  0
 62 68  1  0
 62 64  1  0
 63 69  1  0
 64 63  1  0
 65 64  2  0
 66 67  1  0
 66 60  2  0
 67 62  2  0
 68 61  1  0
 69 59  1  0
 71 73  2  0
 72 71  1  0
 74 72  1  0
 75 84  2  0
 75 80  1  0
 76 72  1  0
 76 80  1  0
 77 76  1  0
 78 79  1  0
 78 77  1  0
 79 75  1  0
 80 81  2  0
 81 82  1  0
 83 82  2  0
 84 83  1  0
 85 59  1  0
 85 86  1  0
 85 95  1  0
 86 89  1  0
 87 91  1  0
 87 86  1  0
 88 87  2  0
 91 90  1  0
 93 91  1  0
 93 94  1  0
 93 92  1  0
 95 98  1  1
 95 96  1  0
 97 95  1  0
M  ISO  4  10 100  18 100  57 101  58 101
M  END
>  <TORSDO>  (33) 
F 22

>  <SCORE>  (33) 
-12.561

>  <name>  (33) 
33

>  <ligand_id>  (33) 
33

>  <original_smiles>  (33) 
[H]OC([H])(C([H])([H])Oc1c([H])c([H])c2c(c1[H])C([H])([H])N(C(=O)C([H])(N([H])C(=O)C([H])(N([H])C([H])([H])[H])C([H])([H])[H])C(C([H])([H])[H])(C([H])([H])[H])C([H])([H])[H])C([H])(C(=O)N([H])C1([H])c3c([H])c([H])c([H])c([H])c3C([H])([H])C([H])([H])C1([H])[H])C2([H])[H])C([H])(C(=O)N([H])c1sc(N([H])C(=O)N2C([H])([H])C([H])([H])C([H])([H])C([H])(n3nc(-c4c([H])c([H])c(Oc5c([H])c([H])c(F)c([H])c5F)c([H])c4[H])c(C(=O)N([H])[H])c3N([H])[H])C2([H])[H])c(C(F)(F)F)c1[H])C([H])([H])[H]

>  <smiles>  (33) 
[H]OC([H])(C([H])([H])Oc1c([H])c([H])c2c(c1[H])C([H])([H])N(C(=O)C([H])(N([H])C(=O)C([H])(N([H])C([H])([H])[H])C([H])([H])[H])C(C([H])([H])[H])(C([H])([H])[H])C([H])([H])[H])C([H])(C(=O)N([H])C1([H])c3c([H])c([H])c([H])c([H])c3C([H])([H])C([H])([H])C1([H])[H])C2([H])[H])C([H])(C(=O)N([H])c1sc(N([H])C(=O)N2C([H])([H])C([H])([H])C([H])([H])C([H])(n3nc(-c4c([H])c([H])c(Oc5c([H])c([H])c(F)c([H])c5F)c([H])c4[H])c(C(=O)N([H])[H])c3N([H])[H])C2([H])[H])c(C(F)(F)F)c1[H])C([H])([H])[H]

$$$$
34:0:0
     RDKit          3D

 93101  0  0  1  0  0  0  0  0999 V2000
  -29.4290  -18.6610   21.3540 C   0  0  0  0  0  3  0  0  0  0  0  0
  -29.8430  -18.3300   20.0800 C   0  0  0  0  0  0  0  0  0  0  0  0
  -29.1420  -20.7160   20.3770 C   0  0  0  0  0  0  0  0  0  0  0  0
  -28.6610  -23.0930   21.0740 C   0  0  0  0  0  0  0  0  0  0  0  0
  -29.0320  -20.0090   21.5100 N   0  0  0  0  0  0  0  0  0  0  0  0
  -28.7040  -22.0660   20.1980 N   0  0  0  0  0  0  0  0  0  0  0  0
  -29.1920  -23.0510   22.1880 O   0  0  0  0  0  0  0  0  0  0  0  0
  -29.7530  -19.7520   19.0430 S   0  0  0  0  0  0  0  0  0  0  0  0
  -28.3710  -22.2780   19.2690 H   0  0  0  0  0  0  0  0  0  0  0  0
  -29.9250  -16.7950   18.0580 C   0  0  0  0  0  1  0  0  0  0  0  0
  -30.3990  -17.0260   19.5110 C   0  0  0  0  0  3  0  0  0  0  0  0
  -30.9050  -14.6630   20.1200 C   0  0  0  0  0  0  0  0  0  0  0  0
  -30.5690  -12.4790   19.0480 C   0  0  0  0  0  2  0  0  0  0  0  0
  -29.6060  -12.6800   17.8570 C   0  0  0  0  0  2  0  0  0  0  0  0
  -28.1420  -12.5600   18.3190 C   0  0  0  0  0  2  0  0  0  0  0  0
  -27.8340  -13.4030   19.5860 C   0  0  0  0  0  3  0  0  0  0  0  0
  -28.9170  -13.2100   20.6740 C   0  0  0  0  0  2  0  0  0  0  0  0
  -30.2260  -13.4860   20.0660 N   0  0  0  0  0  0  0  0  0  0  0  0
  -32.0730  -14.7650   19.7390 O   0  0  0  0  0  0  0  0  0  0  0  0
  -30.1410  -15.7740   20.2710 N   0  0  0  0  0  0  0  0  0  0  0  0
  -29.1970  -15.6200   20.5900 H   0  0  0  0  0  0  0  0  0  0  0  0
  -25.4600  -14.0140   20.3650 C   0  0  0  0  0  0  0  0  0  0  0  0
  -24.3980  -13.2440   20.7560 C   0  0  0  0  0  0  0  0  0  0  0  0
  -24.8530  -11.8900   20.7090 C   0  0  0  0  0  0  0  0  0  0  0  0
  -26.4940  -13.1300   20.1020 N   0  0  0  0  0  0  0  0  0  0  0  0
  -26.1360  -11.8480   20.3700 N   0  0  0  0  0  0  0  0  0  0  0  0
  -24.1260  -10.6300   20.9110 C   0  0  0  0  0  0  0  0  0  0  0  0
  -24.5580   -9.6720   21.8540 C   0  0  0  0  0  3  0  0  0  0  0  0
  -23.8320   -8.4750   22.0420 C   0  0  0  0  0  3  0  0  0  0  0  0
  -22.6610   -8.2300   21.2870 C   0  0  0  0  0  0  0  0  0  0  0  0
  -22.2490   -9.1770   20.3330 C   0  0  0  0  0  3  0  0  0  0  0  0
  -22.9760  -10.3640   20.1420 C   0  0  0  0  0  3  0  0  0  0  0  0
  -21.9060   -7.0850   21.3840 O   0  0  0  0  0  0  0  0  0  0  0  0
  -21.8360   -6.3670   22.5510 C   0  0  0  0  0  0  0  0  0  0  0  0
  -21.3240   -6.9270   23.7410 C   0  0  0  0  0  3  0  0  0  0  0  0
  -21.2030   -6.1320   24.8980 C   0  0  0  0  0  3  0  0  0  0  0  0
  -21.5860   -4.7770   24.8660 C   0  0  0  0  0  0  0  0  0  0  0  0
  -22.0930   -4.2170   23.6800 C   0  0  0  0  0  3  0  0  0  0  0  0
  -22.2140   -5.0090   22.5250 C   0  0  0  0  0  0  0  0  0  0  0  0
  -22.6800   -4.4580   21.3790 F   0  0  0  0  0  0  0  0  0  0  0  0
  -21.4640   -4.0110   25.9750 F   0  0  0  0  0  0  0  0  0  0  0  0
  -23.0090  -13.7260   21.0640 C   0  0  0  0  0  0  0  0  0  0  0  0
  -22.2970  -13.0260   21.9400 N   0  0  0  0  0  0  0  0  0  0  0  0
  -22.5660  -14.7580   20.5630 O   0  0  0  0  0  0  0  0  0  0  0  0
  -22.6690  -12.1910   22.3670 H   0  0  0  0  0  0  0  0  0  0  0  0
  -21.3670  -13.3310   22.1880 H   0  0  0  0  0  0  0  0  0  0  0  0
  -25.6250  -15.3840   20.1900 N   0  0  0  0  0  0  0  0  0  0  0  0
  -24.8620  -16.0390   20.3260 H   0  0  0  0  0  0  0  0  0  0  0  0
  -26.4600  -15.8250   19.8250 H   0  0  0  0  0  0  0  0  0  0  0  0
  -26.5030  -24.3120   21.3210 C   0  0  0  0  0  1  0  0  0  0  0  0
  -27.8860  -24.3710   20.6390 C   0  0  0  0  0  3  0  0  0  0  0  0
  -28.6260  -25.7210   20.9510 C   0  0  0  0  0  2  0  0  0  0  0  0
  -28.4920  -26.7850   19.9800 O   0  0  0  0  0  0  0  0  0  0  0  0
  -24.6110  -31.8210   23.2480 C   0  0  0  0  0  0  0  0  0  0  0  0
  -27.3340  -27.5310   20.0250 C   0  0  0  0  0  0  0  0  0  0  0  0
  -23.4400  -30.4740   21.5370 C   0  0  0  0  0  3  0  0  0  0  0  0
  -24.9300  -29.0190   20.0590 C   0  0  0  0  0  0  0  0  0  0  0  0
  -25.9620  -30.8700   21.3820 C   0  0  0  0  0  2  0  0  0  0  0  0
  -26.0730  -29.5260   20.6900 C   0  0  0  0  0  0  0  0  0  0  0  0
  -27.2800  -28.7860   20.6760 C   0  0  0  0  0  3  0  0  0  0  0  0
  -26.1880  -27.0600   19.3560 C   0  0  0  0  0  3  0  0  0  0  0  0
  -24.9820  -27.7850   19.3880 C   0  0  0  0  0  3  0  0  0  0  0  0
  -23.6720  -29.8570   20.1310 C   0  0  0  0  0  2  0  0  0  0  0  0
  -24.6880  -31.0690   22.1140 N   0  0  0  0  0  0  0  0  0  0  0  0
  -23.5200  -32.0570   23.7890 O   0  0  0  0  0  0  0  0  0  0  0  0
  -22.7940  -29.4040   22.4460 C   0  0  0  0  0  0  0  0  0  0  0  0
  -21.4700  -29.2250   22.3140 N   0  0  0  0  0  0  0  0  0  0  0  0
  -23.4830  -28.7400   23.2260 O   0  0  0  0  0  0  0  0  0  0  0  0
  -20.9760  -29.8170   21.6610 H   0  0  0  0  0  0  0  0  0  0  0  0
  -18.0940  -28.0300   22.8000 C   0  0  0  0  0  0  0  0  0  0  0  0
  -20.6580  -28.2460   23.0370 C   0  0  0  0  0  3  0  0  0  0  0  0
  -20.7370  -26.8550   22.3670 C   0  0  0  0  0  2  0  0  0  0  0  0
  -19.6120  -26.6030   21.3600 C   0  0  0  0  0  2  0  0  0  0  0  0
  -18.2450  -26.7220   22.0380 C   0  0  0  0  0  2  0  0  0  0  0  0
  -19.2280  -28.7510   23.2550 C   0  0  0  0  0  0  0  0  0  0  0  0
  -19.0350  -29.9770   23.9290 C   0  0  0  0  0  3  0  0  0  0  0  0
  -17.7400  -30.4790   24.1510 C   0  0  0  0  0  3  0  0  0  0  0  0
  -16.6190  -29.7520   23.7120 C   0  0  0  0  0  3  0  0  0  0  0  0
  -16.7970  -28.5290   23.0420 C   0  0  0  0  0  3  0  0  0  0  0  0
  -25.8830  -32.4420   23.9060 C   0  0  0  0  0  3  0  0  0  0  0  0
  -26.3590  -31.6660   25.1960 C   0  0  1  0  0  0  0  0  0  0  0  0
  -25.2340  -31.4350   26.2310 C   0  0  0  0  0  1  0  0  0  0  0  0
  -26.9430  -30.2850   24.8160 C   0  0  0  0  0  1  0  0  0  0  0  0
  -27.4940  -32.4530   25.8910 C   0  0  0  0  0  1  0  0  0  0  0  0
  -25.5750  -33.8430   24.2250 N   0  0  0  0  0  0  0  0  0  0  0  0
  -25.9280  -34.8900   23.4670 C   0  0  0  0  0  0  0  0  0  0  0  0
  -26.6170  -34.7780   22.4490 O   0  0  0  0  0  0  0  0  0  0  0  0
  -24.9670  -34.0040   25.0140 H   0  0  0  0  0  0  0  0  0  0  0  0
  -24.2180  -36.6900   23.0690 C   0  0  0  0  0  1  0  0  0  0  0  0
  -25.4390  -36.2820   23.9090 C   0  0  0  0  0  3  0  0  0  0  0  0
  -27.5500  -37.1690   24.7950 C   0  0  0  0  0  1  0  0  0  0  0  0
  -26.4800  -37.3290   23.8140 N   0  0  0  0  0  0  0  0  0  0  0  0
  -26.0730  -38.2530   23.9360 H   0  0  0  0  0  0  0  0  0  0  0  0
  1  5  1  0
  2  1  2  0
  3  5  2  0
  4  7  2  0
  6  3  1  0
  6  4  1  0
  8  2  1  0
  8  3  1  0
  9  6  1  0
 11 10  1  0
 11  2  1  0
 11 20  1  0
 12 20  1  0
 13 18  1  0
 14 15  1  0
 14 13  1  0
 16 15  1  0
 16 25  1  0
 16 17  1  0
 18 12  1  0
 18 17  1  0
 19 12  2  0
 20 21  1  0
 22 23  2  0
 23 42  1  0
 24 23  1  0
 24 27  1  0
 25 22  1  0
 25 26  1  0
 26 24  2  0
 27 28  1  0
 28 29  2  0
 30 33  1  0
 30 29  1  0
 31 30  2  0
 32 31  1  0
 32 27  2  0
 33 34  1  0
 34 35  1  0
 35 36  2  0
 37 36  1  0
 37 41  1  0
 38 37  2  0
 39 34  2  0
 39 38  1  0
 40 39  1  0
 42 43  1  0
 43 46  1  0
 43 45  1  0
 44 42  2  0
 47 48  1  0
 47 22  1  0
 49 47  1  0
 51 52  1  0
 51  4  1  0
 51 50  1  0
 53 55  1  0
 53 52  1  0
 54 65  2  0
 55 60  1  0
 56 64  1  0
 56 66  1  0
 57 63  1  0
 57 59  1  0
 58 64  1  0
 59 58  1  0
 60 59  2  0
 61 62  1  0
 61 55  2  0
 62 57  2  0
 63 56  1  0
 64 54  1  0
 66 68  2  0
 67 66  1  0
 69 67  1  0
 70 79  2  0
 70 75  1  0
 71 67  1  0
 71 75  1  0
 72 71  1  0
 73 74  1  0
 73 72  1  0
 74 70  1  0
 75 76  2  0
 76 77  1  0
 78 77  2  0
 79 78  1  0
 80 54  1  0
 80 85  1  0
 80 81  1  0
 81 84  1  1
 81 82  1  0
 83 81  1  0
 85 88  1  0
 86 90  1  0
 86 85  1  0
 87 86  2  0
 90 89  1  0
 92 90  1  0
 92 93  1  0
 92 91  1  0
M  ISO  4  12 100  20 100  52 101  53 101
M  END
>  <TORSDO>  (34) 
F 19

>  <SCORE>  (34) 
-12.996

>  <name>  (34) 
34

>  <ligand_id>  (34) 
34

>  <original_smiles>  (34) 
[H]c1nc(N([H])C(=O)C([H])(C([H])([H])[H])C([H])([H])Oc2c([H])c([H])c3c(c2[H])C([H])([H])N(C(=O)C([H])(N([H])C(=O)C([H])(N([H])C([H])([H])[H])C([H])([H])[H])C(C([H])([H])[H])(C([H])([H])[H])C([H])([H])[H])C([H])(C(=O)N([H])C2([H])c4c([H])c([H])c([H])c([H])c4C([H])([H])C([H])([H])C2([H])[H])C3([H])[H])sc1C([H])(N([H])C(=O)N1C([H])([H])C([H])([H])C([H])([H])C([H])(n2nc(-c3c([H])c([H])c(Oc4c([H])c([H])c(F)c([H])c4F)c([H])c3[H])c(C(=O)N([H])[H])c2N([H])[H])C1([H])[H])C([H])([H])[H]

>  <smiles>  (34) 
[H]c1nc(N([H])C(=O)C([H])(C([H])([H])[H])C([H])([H])Oc2c([H])c([H])c3c(c2[H])C([H])([H])N(C(=O)C([H])(N([H])C(=O)C([H])(N([H])C([H])([H])[H])C([H])([H])[H])C(C([H])([H])[H])(C([H])([H])[H])C([H])([H])[H])C([H])(C(=O)N([H])C2([H])c4c([H])c([H])c([H])c([H])c4C([H])([H])C([H])([H])C2([H])[H])C3([H])[H])sc1C([H])(N([H])C(=O)N1C([H])([H])C([H])([H])C([H])([H])C([H])(n2nc(-c3c([H])c([H])c(Oc4c([H])c([H])c(F)c([H])c4F)c([H])c3[H])c(C(=O)N([H])[H])c2N([H])[H])C1([H])[H])C([H])([H])[H]

$$$$
35:0:0
     RDKit          3D

 90 98  0  0  1  0  0  0  0  0999 V2000
  -28.9180  -23.2560   20.2310 C   0  0  0  0  0  0  0  0  0  0  0  0
  -28.5290  -21.8730   20.3030 N   0  0  0  0  0  0  0  0  0  0  0  0
  -30.1090  -23.5250   20.0540 O   0  0  0  0  0  0  0  0  0  0  0  0
  -27.5290  -21.8150   20.4470 H   0  0  0  0  0  0  0  0  0  0  0  0
  -30.4760  -15.1020   20.1120 C   0  0  0  0  0  0  0  0  0  0  0  0
  -30.3950  -12.7300   19.1650 C   0  0  0  0  0  2  0  0  0  0  0  0
  -29.4250  -12.6570   17.9610 C   0  0  0  0  0  2  0  0  0  0  0  0
  -27.9780  -12.4180   18.4330 C   0  0  0  0  0  2  0  0  0  0  0  0
  -27.5900  -13.3320   19.6230 C   0  0  0  0  0  3  0  0  0  0  0  0
  -28.6770  -13.3590   20.7190 C   0  0  0  0  0  2  0  0  0  0  0  0
  -29.9200  -13.8140   20.0790 N   0  0  0  0  0  0  0  0  0  0  0  0
  -31.6690  -15.1840   19.7930 O   0  0  0  0  0  0  0  0  0  0  0  0
  -30.4370  -20.0770   19.9890 C   0  0  0  0  0  3  0  0  0  0  0  0
  -29.1390  -20.5450   20.2420 C   0  0  0  0  0  0  0  0  0  0  0  0
  -29.6640  -17.8040   20.2490 C   0  0  0  0  0  0  0  0  0  0  0  0
  -30.7060  -18.6380   19.9910 N   0  0  0  0  0  0  0  0  0  0  0  0
  -29.6360  -16.2470   20.3230 N   0  0  0  0  0  0  0  0  0  0  0  0
  -28.2430  -18.9620   20.5020 S   0  0  0  0  0  0  0  0  0  0  0  0
  -28.7110  -15.9260   20.5570 H   0  0  0  0  0  0  0  0  0  0  0  0
  -25.2290  -13.8830   20.4390 C   0  0  0  0  0  0  0  0  0  0  0  0
  -24.1810  -13.0980   20.8320 C   0  0  0  0  0  0  0  0  0  0  0  0
  -24.6540  -11.7500   20.7720 C   0  0  0  0  0  0  0  0  0  0  0  0
  -26.2700  -13.0160   20.1570 N   0  0  0  0  0  0  0  0  0  0  0  0
  -25.9350  -11.7270   20.4240 N   0  0  0  0  0  0  0  0  0  0  0  0
  -23.9390  -10.4810   20.9670 C   0  0  0  0  0  0  0  0  0  0  0  0
  -24.3790   -9.5230   21.9070 C   0  0  0  0  0  3  0  0  0  0  0  0
  -23.6620   -8.3210   22.0900 C   0  0  0  0  0  3  0  0  0  0  0  0
  -22.4930   -8.0670   21.3340 C   0  0  0  0  0  0  0  0  0  0  0  0
  -22.0740   -9.0150   20.3830 C   0  0  0  0  0  3  0  0  0  0  0  0
  -22.7900  -10.2090   20.1980 C   0  0  0  0  0  3  0  0  0  0  0  0
  -21.7490   -6.9160   21.4260 O   0  0  0  0  0  0  0  0  0  0  0  0
  -21.6730   -6.2010   22.5940 C   0  0  0  0  0  0  0  0  0  0  0  0
  -21.1830   -6.7720   23.7880 C   0  0  0  0  0  3  0  0  0  0  0  0
  -21.0570   -5.9810   24.9470 C   0  0  0  0  0  3  0  0  0  0  0  0
  -21.4090   -4.6180   24.9130 C   0  0  0  0  0  0  0  0  0  0  0  0
  -21.8920   -4.0460   23.7230 C   0  0  0  0  0  3  0  0  0  0  0  0
  -22.0200   -4.8340   22.5660 C   0  0  0  0  0  0  0  0  0  0  0  0
  -22.4650   -4.2720   21.4170 F   0  0  0  0  0  0  0  0  0  0  0  0
  -21.2820   -3.8570   26.0250 F   0  0  0  0  0  0  0  0  0  0  0  0
  -22.7890  -13.5630   21.1440 C   0  0  0  0  0  0  0  0  0  0  0  0
  -22.0900  -12.8560   22.0240 N   0  0  0  0  0  0  0  0  0  0  0  0
  -22.3320  -14.5900   20.6430 O   0  0  0  0  0  0  0  0  0  0  0  0
  -22.4720  -12.0260   22.4500 H   0  0  0  0  0  0  0  0  0  0  0  0
  -21.1560  -13.1500   22.2750 H   0  0  0  0  0  0  0  0  0  0  0  0
  -25.3760  -15.2570   20.2680 N   0  0  0  0  0  0  0  0  0  0  0  0
  -24.5940  -15.8930   20.3900 H   0  0  0  0  0  0  0  0  0  0  0  0
  -26.1760  -15.6990   19.8360 H   0  0  0  0  0  0  0  0  0  0  0  0
  -27.1150  -24.4140   21.7150 C   0  0  0  0  0  1  0  0  0  0  0  0
  -27.8460  -24.5580   20.3660 C   0  0  0  0  0  3  0  0  0  0  0  0
  -28.2170  -26.1010   20.2520 O   0  0  0  0  0  0  0  0  0  0  0  0
  -24.6310  -31.8920   23.2400 C   0  0  0  0  0  0  0  0  0  0  0  0
  -27.1930  -27.1410   20.1920 C   0  0  0  0  0  0  0  0  0  0  0  0
  -23.4320  -30.5090   21.5930 C   0  0  0  0  0  3  0  0  0  0  0  0
  -24.8780  -28.9350   20.1610 C   0  0  0  0  0  0  0  0  0  0  0  0
  -25.9910  -30.7530   21.4390 C   0  0  0  0  0  2  0  0  0  0  0  0
  -26.0620  -29.3600   20.7780 C   0  0  0  0  0  0  0  0  0  0  0  0
  -27.2190  -28.4810   20.7740 C   0  0  0  0  0  3  0  0  0  0  0  0
  -25.9850  -26.8420   19.5220 C   0  0  0  0  0  3  0  0  0  0  0  0
  -24.8560  -27.6910   19.5150 C   0  0  0  0  0  3  0  0  0  0  0  0
  -23.6550  -29.8390   20.2120 C   0  0  0  0  0  2  0  0  0  0  0  0
  -24.7060  -31.0740   22.1450 N   0  0  0  0  0  0  0  0  0  0  0  0
  -23.5440  -32.1780   23.7660 O   0  0  0  0  0  0  0  0  0  0  0  0
  -22.7450  -29.5000   22.5490 C   0  0  0  0  0  0  0  0  0  0  0  0
  -21.4160  -29.3370   22.4220 N   0  0  0  0  0  0  0  0  0  0  0  0
  -23.4130  -28.8660   23.3700 O   0  0  0  0  0  0  0  0  0  0  0  0
  -20.9320  -29.8980   21.7350 H   0  0  0  0  0  0  0  0  0  0  0  0
  -18.0270  -28.1520   22.9300 C   0  0  0  0  0  0  0  0  0  0  0  0
  -20.5900  -28.3990   23.1890 C   0  0  0  0  0  3  0  0  0  0  0  0
  -20.6810  -26.9700   22.6030 C   0  0  0  0  0  2  0  0  0  0  0  0
  -19.5730  -26.6620   21.5900 C   0  0  0  0  0  2  0  0  0  0  0  0
  -18.1940  -26.8090   22.2410 C   0  0  0  0  0  2  0  0  0  0  0  0
  -19.1520  -28.9060   23.3610 C   0  0  0  0  0  0  0  0  0  0  0  0
  -18.9400  -30.1630   23.9680 C   0  0  0  0  0  3  0  0  0  0  0  0
  -17.6380  -30.6670   24.1460 C   0  0  0  0  0  3  0  0  0  0  0  0
  -16.5290  -29.9110   23.7290 C   0  0  0  0  0  3  0  0  0  0  0  0
  -16.7250  -28.6560   23.1270 C   0  0  0  0  0  3  0  0  0  0  0  0
  -25.9070  -32.5240   23.8730 C   0  0  0  0  0  3  0  0  0  0  0  0
  -25.5940  -33.9210   24.2160 N   0  0  0  0  0  0  0  0  0  0  0  0
  -25.8970  -34.9820   23.4570 C   0  0  0  0  0  0  0  0  0  0  0  0
  -26.5350  -34.8890   22.4040 O   0  0  0  0  0  0  0  0  0  0  0  0
  -25.0220  -34.0660   25.0350 H   0  0  0  0  0  0  0  0  0  0  0  0
  -24.1340  -36.7600   23.1920 C   0  0  0  0  0  1  0  0  0  0  0  0
  -25.4190  -36.3670   23.9390 C   0  0  0  0  0  3  0  0  0  0  0  0
  -27.5800  -37.2800   24.6670 C   0  0  0  0  0  1  0  0  0  0  0  0
  -26.4340  -37.4310   23.7740 N   0  0  0  0  0  0  0  0  0  0  0  0
  -26.0240  -38.3470   23.9350 H   0  0  0  0  0  0  0  0  0  0  0  0
  -26.4150  -31.7470   25.1500 C   0  0  1  0  0  0  0  0  0  0  0  0
  -25.3150  -31.5080   26.2120 C   0  0  0  0  0  1  0  0  0  0  0  0
  -26.9970  -30.3680   24.7620 C   0  0  0  0  0  1  0  0  0  0  0  0
  -27.5630  -32.5360   25.8210 C   0  0  0  0  0  1  0  0  0  0  0  0
  1  2  1  0
  1 49  1  0
  2  4  1  0
  3  1  2  0
  5 17  1  0
  6 11  1  0
  7  8  1  0
  7  6  1  0
  9  8  1  0
  9 23  1  0
  9 10  1  0
 11  5  1  0
 11 10  1  0
 12  5  2  0
 13 16  1  0
 13 14  2  0
 14  2  1  0
 14 18  1  0
 15 17  1  0
 15 18  1  0
 16 15  2  0
 17 19  1  0
 20 21  2  0
 21 40  1  0
 22 21  1  0
 22 25  1  0
 23 24  1  0
 23 20  1  0
 24 22  2  0
 25 26  1  0
 26 27  2  0
 28 31  1  0
 28 27  1  0
 29 28  2  0
 30 29  1  0
 30 25  2  0
 31 32  1  0
 32 33  1  0
 33 34  2  0
 35 34  1  0
 35 39  1  0
 36 35  2  0
 37 32  2  0
 37 36  1  0
 38 37  1  0
 40 41  1  0
 41 44  1  0
 41 43  1  0
 42 40  2  0
 45 46  1  0
 45 20  1  0
 47 45  1  0
 49 48  1  0
 50 49  1  0
 51 62  2  0
 52 50  1  0
 52 57  1  0
 53 61  1  0
 53 63  1  0
 54 60  1  0
 54 56  1  0
 55 61  1  0
 56 55  1  0
 57 56  2  0
 58 52  2  0
 59 58  1  0
 59 54  2  0
 60 53  1  0
 61 51  1  0
 63 65  2  0
 64 63  1  0
 66 64  1  0
 67 76  2  0
 67 72  1  0
 68 64  1  0
 68 72  1  0
 69 68  1  0
 70 71  1  0
 70 69  1  0
 71 67  1  0
 72 73  2  0
 73 74  1  0
 75 74  2  0
 76 75  1  0
 77 51  1  0
 77 78  1  0
 77 87  1  0
 78 81  1  0
 79 83  1  0
 79 78  1  0
 80 79  2  0
 83 82  1  0
 85 86  1  0
 85 83  1  0
 85 84  1  0
 87 90  1  1
 87 88  1  0
 89 87  1  0
M  ISO  4   5 100  17 100  49 101  50 101
M  END
>  <TORSDO>  (35) 
F 17

>  <SCORE>  (35) 
-14.944

>  <name>  (35) 
35

>  <ligand_id>  (35) 
35

>  <original_smiles>  (35) 
[H]c1nc(N([H])C(=O)N2C([H])([H])C([H])([H])C([H])([H])C([H])(n3nc(-c4c([H])c([H])c(Oc5c([H])c([H])c(F)c([H])c5F)c([H])c4[H])c(C(=O)N([H])[H])c3N([H])[H])C2([H])[H])sc1N([H])C(=O)C([H])(Oc1c([H])c([H])c2c(c1[H])C([H])([H])N(C(=O)C([H])(N([H])C(=O)C([H])(N([H])C([H])([H])[H])C([H])([H])[H])C(C([H])([H])[H])(C([H])([H])[H])C([H])([H])[H])C([H])(C(=O)N([H])C1([H])c3c([H])c([H])c([H])c([H])c3C([H])([H])C([H])([H])C1([H])[H])C2([H])[H])C([H])([H])[H]

>  <smiles>  (35) 
[H]c1nc(N([H])C(=O)N2C([H])([H])C([H])([H])C([H])([H])C([H])(n3nc(-c4c([H])c([H])c(Oc5c([H])c([H])c(F)c([H])c5F)c([H])c4[H])c(C(=O)N([H])[H])c3N([H])[H])C2([H])[H])sc1N([H])C(=O)C([H])(Oc1c([H])c([H])c2c(c1[H])C([H])([H])N(C(=O)C([H])(N([H])C(=O)C([H])(N([H])C([H])([H])[H])C([H])([H])[H])C(C([H])([H])[H])(C([H])([H])[H])C([H])([H])[H])C([H])(C(=O)N([H])C1([H])c3c([H])c([H])c([H])c([H])c3C([H])([H])C([H])([H])C1([H])[H])C2([H])[H])C([H])([H])[H]

$$$$
36:0:0
     RDKit          3D

 95103  0  0  1  0  0  0  0  0999 V2000
  -29.2710  -21.5400   20.4640 C   0  0  0  0  0  3  0  0  0  0  0  0
  -30.6520  -14.5480   20.4140 C   0  0  0  0  0  0  0  0  0  0  0  0
  -30.3440  -12.3410   19.3560 C   0  0  0  0  0  2  0  0  0  0  0  0
  -29.4150  -12.5260   18.1390 C   0  0  0  0  0  2  0  0  0  0  0  0
  -27.9380  -12.4080   18.5610 C   0  0  0  0  0  2  0  0  0  0  0  0
  -27.6010  -13.2520   19.8230 C   0  0  0  0  0  3  0  0  0  0  0  0
  -28.6610  -13.0750   20.9360 C   0  0  0  0  0  2  0  0  0  0  0  0
  -29.9740  -13.3660   20.3490 N   0  0  0  0  0  0  0  0  0  0  0  0
  -31.8310  -14.6230   20.0630 O   0  0  0  0  0  0  0  0  0  0  0  0
  -29.8490  -19.1600   19.7870 C   0  0  0  0  0  0  0  0  0  0  0  0
  -30.2080  -17.0070   20.2310 C   0  0  0  0  0  3  0  0  0  0  0  0
  -29.3940  -18.0620   20.4490 N   0  0  0  0  0  0  0  0  0  0  0  0
  -30.9630  -19.0430   19.0510 N   0  0  0  0  0  2  0  0  0  0  0  0
  -29.0900  -20.3340   19.6130 N   0  0  0  0  0  0  0  0  0  0  0  0
  -29.9240  -15.6640   20.6920 N   0  0  0  0  0  0  0  0  0  0  0  0
  -31.5660  -17.4760   19.2230 S   0  0  0  0  0  0  0  0  0  0  0  0
  -29.3030  -20.6420   18.6710 H   0  0  0  0  0  0  0  0  0  0  0  0
  -29.0050  -15.5110   21.0740 H   0  0  0  0  0  0  0  0  0  0  0  0
  -25.2040  -13.8530   20.5270 C   0  0  0  0  0  0  0  0  0  0  0  0
  -24.1340  -13.0790   20.8900 C   0  0  0  0  0  0  0  0  0  0  0  0
  -24.5980  -11.7290   20.8690 C   0  0  0  0  0  0  0  0  0  0  0  0
  -26.2510  -12.9740   20.3030 N   0  0  0  0  0  0  0  0  0  0  0  0
  -25.8920  -11.6910   20.5710 N   0  0  0  0  0  0  0  0  0  0  0  0
  -23.8740  -10.4670   21.0600 C   0  0  0  0  0  0  0  0  0  0  0  0
  -24.3140   -9.4960   21.9880 C   0  0  0  0  0  3  0  0  0  0  0  0
  -23.5850   -8.3000   22.1690 C   0  0  0  0  0  3  0  0  0  0  0  0
  -22.4060   -8.0670   21.4240 C   0  0  0  0  0  0  0  0  0  0  0  0
  -21.9860   -9.0270   20.4860 C   0  0  0  0  0  3  0  0  0  0  0  0
  -22.7130  -10.2140   20.3030 C   0  0  0  0  0  3  0  0  0  0  0  0
  -21.6490   -6.9220   21.5160 O   0  0  0  0  0  0  0  0  0  0  0  0
  -21.6230   -6.1670   22.6610 C   0  0  0  0  0  0  0  0  0  0  0  0
  -21.2350   -6.7130   23.9060 C   0  0  0  0  0  3  0  0  0  0  0  0
  -21.1570   -5.8820   25.0410 C   0  0  0  0  0  3  0  0  0  0  0  0
  -21.4510   -4.5110   24.9350 C   0  0  0  0  0  0  0  0  0  0  0  0
  -21.8320   -3.9670   23.6960 C   0  0  0  0  0  3  0  0  0  0  0  0
  -21.9140   -4.7920   22.5620 C   0  0  0  0  0  0  0  0  0  0  0  0
  -22.2590   -4.2580   21.3670 F   0  0  0  0  0  0  0  0  0  0  0  0
  -21.3690   -3.7140   26.0250 F   0  0  0  0  0  0  0  0  0  0  0  0
  -22.7360  -13.5580   21.1530 C   0  0  0  0  0  0  0  0  0  0  0  0
  -22.0080  -12.8610   22.0170 N   0  0  0  0  0  0  0  0  0  0  0  0
  -22.3000  -14.5810   20.6280 O   0  0  0  0  0  0  0  0  0  0  0  0
  -22.3760  -12.0310   22.4580 H   0  0  0  0  0  0  0  0  0  0  0  0
  -21.0710  -13.1610   22.2430 H   0  0  0  0  0  0  0  0  0  0  0  0
  -25.3700  -15.2230   20.3460 N   0  0  0  0  0  0  0  0  0  0  0  0
  -24.6070  -15.8810   20.4710 H   0  0  0  0  0  0  0  0  0  0  0  0
  -26.2240  -15.6650   20.0280 H   0  0  0  0  0  0  0  0  0  0  0  0
  -30.7470  -21.7990   20.8590 C   0  0  0  0  0  3  0  0  0  0  0  0
  -31.5270  -21.9260   19.7830 F   0  0  0  0  0  0  0  0  0  0  0  0
  -31.2290  -20.8410   21.6500 F   0  0  0  0  0  0  0  0  0  0  0  0
  -28.6800  -22.7870   19.7000 C   0  0  0  0  0  3  0  0  0  0  0  0
  -27.4220  -22.3520   19.2160 O   0  0  0  0  0  0  0  0  0  0  0  0
  -27.4970  -21.3950   19.1860 H   0  0  0  0  0  0  0  0  0  0  0  0
  -28.4800  -24.1540   20.4550 C   0  0  0  0  0  2  0  0  0  0  0  0
  -28.5760  -25.4150   19.5330 C   0  0  0  0  0  2  0  0  0  0  0  0
  -28.4320  -26.6980   20.1920 O   0  0  0  0  0  0  0  0  0  0  0  0
  -24.6060  -31.8920   23.2410 C   0  0  0  0  0  0  0  0  0  0  0  0
  -27.2380  -27.4070   20.1730 C   0  0  0  0  0  0  0  0  0  0  0  0
  -23.3930  -30.4890   21.6010 C   0  0  0  0  0  3  0  0  0  0  0  0
  -24.8420  -28.9370   20.1870 C   0  0  0  0  0  0  0  0  0  0  0  0
  -25.9220  -30.8380   21.4020 C   0  0  0  0  0  2  0  0  0  0  0  0
  -26.0050  -29.4600   20.7670 C   0  0  0  0  0  0  0  0  0  0  0  0
  -27.2000  -28.6980   20.7590 C   0  0  0  0  0  3  0  0  0  0  0  0
  -26.0460  -26.8970   19.6080 C   0  0  0  0  0  3  0  0  0  0  0  0
  -24.8580  -27.6540   19.6110 C   0  0  0  0  0  3  0  0  0  0  0  0
  -23.5970  -29.7930   20.2280 C   0  0  0  0  0  2  0  0  0  0  0  0
  -24.6590  -31.0900   22.1400 N   0  0  0  0  0  0  0  0  0  0  0  0
  -23.5260  -32.1710   23.7830 O   0  0  0  0  0  0  0  0  0  0  0  0
  -22.7400  -29.4770   22.5700 C   0  0  0  0  0  0  0  0  0  0  0  0
  -21.4140  -29.2950   22.4460 N   0  0  0  0  0  0  0  0  0  0  0  0
  -23.4250  -28.8560   23.3870 O   0  0  0  0  0  0  0  0  0  0  0  0
  -20.9220  -29.8520   21.7600 H   0  0  0  0  0  0  0  0  0  0  0  0
  -18.0460  -28.0930   22.9500 C   0  0  0  0  0  0  0  0  0  0  0  0
  -20.6010  -28.3570   23.2190 C   0  0  0  0  0  3  0  0  0  0  0  0
  -20.7050  -26.9230   22.6480 C   0  0  0  0  0  2  0  0  0  0  0  0
  -19.6050  -26.5930   21.6340 C   0  0  0  0  0  2  0  0  0  0  0  0
  -18.2240  -26.7410   22.2770 C   0  0  0  0  0  2  0  0  0  0  0  0
  -19.1630  -28.8580   23.3770 C   0  0  0  0  0  0  0  0  0  0  0  0
  -18.9420  -30.1230   23.9620 C   0  0  0  0  0  3  0  0  0  0  0  0
  -17.6370  -30.6250   24.1220 C   0  0  0  0  0  3  0  0  0  0  0  0
  -16.5340  -29.8560   23.7130 C   0  0  0  0  0  3  0  0  0  0  0  0
  -16.7390  -28.5920   23.1350 C   0  0  0  0  0  3  0  0  0  0  0  0
  -25.8950  -32.5230   23.8580 C   0  0  0  0  0  3  0  0  0  0  0  0
  -25.5890  -33.9190   24.1940 N   0  0  0  0  0  0  0  0  0  0  0  0
  -25.9160  -34.9740   23.4340 C   0  0  0  0  0  0  0  0  0  0  0  0
  -26.5800  -34.8720   22.3990 O   0  0  0  0  0  0  0  0  0  0  0  0
  -25.0000  -34.0730   24.9990 H   0  0  0  0  0  0  0  0  0  0  0  0
  -24.1850  -36.7640   23.0890 C   0  0  0  0  0  1  0  0  0  0  0  0
  -25.4280  -36.3590   23.8980 C   0  0  0  0  0  3  0  0  0  0  0  0
  -27.5660  -37.2420   24.7230 C   0  0  0  0  0  1  0  0  0  0  0  0
  -26.4580  -37.4140   23.7870 N   0  0  0  0  0  0  0  0  0  0  0  0
  -26.0510  -38.3300   23.9430 H   0  0  0  0  0  0  0  0  0  0  0  0
  -26.4230  -31.7490   25.1280 C   0  0  1  0  0  0  0  0  0  0  0  0
  -25.3360  -31.5070   26.2020 C   0  0  0  0  0  1  0  0  0  0  0  0
  -27.0070  -30.3730   24.7310 C   0  0  0  0  0  1  0  0  0  0  0  0
  -27.5790  -32.5410   25.7860 C   0  0  0  0  0  1  0  0  0  0  0  0
  1 47  1  0
  2 15  1  0
  3  8  1  0
  4  5  1  0
  4  3  1  0
  6  5  1  0
  6 22  1  0
  6  7  1  0
  8  2  1  0
  8  7  1  0
  9  2  2  0
 10 12  2  0
 11 12  1  0
 11 15  1  0
 13 16  1  0
 13 10  1  0
 14 10  1  0
 14  1  1  0
 15 18  1  0
 16 11  1  0
 17 14  1  0
 19 20  2  0
 20 39  1  0
 21 20  1  0
 21 24  1  0
 22 19  1  0
 22 23  1  0
 23 21  2  0
 24 25  1  0
 25 26  2  0
 27 30  1  0
 27 26  1  0
 28 27  2  0
 29 28  1  0
 29 24  2  0
 30 31  1  0
 31 32  1  0
 32 33  2  0
 34 33  1  0
 34 38  1  0
 35 34  2  0
 36 31  2  0
 36 35  1  0
 37 36  1  0
 39 40  1  0
 40 43  1  0
 40 42  1  0
 41 39  2  0
 44 45  1  0
 44 19  1  0
 46 44  1  0
 47 49  1  0
 48 47  1  0
 50 53  1  0
 50  1  1  0
 51 50  1  0
 52 51  1  0
 54 55  1  0
 54 53  1  0
 56 67  2  0
 57 55  1  0
 57 62  1  0
 58 66  1  0
 58 68  1  0
 59 65  1  0
 59 61  1  0
 60 66  1  0
 61 60  1  0
 62 61  2  0
 63 64  1  0
 63 57  2  0
 64 59  2  0
 65 58  1  0
 66 56  1  0
 68 70  2  0
 69 68  1  0
 71 69  1  0
 72 81  2  0
 72 77  1  0
 73 69  1  0
 73 77  1  0
 74 73  1  0
 75 76  1  0
 75 74  1  0
 76 72  1  0
 77 78  2  0
 78 79  1  0
 80 79  2  0
 81 80  1  0
 82 56  1  0
 82 83  1  0
 82 92  1  0
 83 86  1  0
 84 88  1  0
 84 83  1  0
 85 84  2  0
 88 87  1  0
 90 88  1  0
 90 91  1  0
 90 89  1  0
 92 95  1  1
 92 93  1  0
 94 92  1  0
M  ISO  4   2 100  15 100  54 101  55 101
M  END
>  <TORSDO>  (36) 
F 21

>  <SCORE>  (36) 
-13.854

>  <name>  (36) 
36

>  <ligand_id>  (36) 
36

>  <original_smiles>  (36) 
[H]OC([H])(C([H])([H])C([H])([H])Oc1c([H])c([H])c2c(c1[H])C([H])([H])N(C(=O)C([H])(N([H])C(=O)C([H])(N([H])C([H])([H])[H])C([H])([H])[H])C(C([H])([H])[H])(C([H])([H])[H])C([H])([H])[H])C([H])(C(=O)N([H])C1([H])c3c([H])c([H])c([H])c([H])c3C([H])([H])C([H])([H])C1([H])[H])C2([H])[H])C([H])(N([H])c1nsc(N([H])C(=O)N2C([H])([H])C([H])([H])C([H])([H])C([H])(n3nc(-c4c([H])c([H])c(Oc5c([H])c([H])c(F)c([H])c5F)c([H])c4[H])c(C(=O)N([H])[H])c3N([H])[H])C2([H])[H])n1)C([H])(F)F

>  <smiles>  (36) 
[H]OC([H])(C([H])([H])C([H])([H])Oc1c([H])c([H])c2c(c1[H])C([H])([H])N(C(=O)C([H])(N([H])C(=O)C([H])(N([H])C([H])([H])[H])C([H])([H])[H])C(C([H])([H])[H])(C([H])([H])[H])C([H])([H])[H])C([H])(C(=O)N([H])C1([H])c3c([H])c([H])c([H])c([H])c3C([H])([H])C([H])([H])C1([H])[H])C2([H])[H])C([H])(N([H])c1nsc(N([H])C(=O)N2C([H])([H])C([H])([H])C([H])([H])C([H])(n3nc(-c4c([H])c([H])c(Oc5c([H])c([H])c(F)c([H])c5F)c([H])c4[H])c(C(=O)N([H])[H])c3N([H])[H])C2([H])[H])n1)C([H])(F)F

$$$$
37:0:0
     RDKit          3D

 93101  0  0  1  0  0  0  0  0999 V2000
  -28.9860  -22.2650   20.8000 C   0  0  0  0  0  0  0  0  0  0  0  0
  -29.3970  -21.0880   20.1730 N   0  0  0  0  0  0  0  0  0  0  0  0
  -28.5410  -22.2140   21.9480 O   0  0  0  0  0  0  0  0  0  0  0  0
  -29.5520  -21.1710   19.1800 H   0  0  0  0  0  0  0  0  0  0  0  0
  -30.5870  -14.8140   20.3070 C   0  0  0  0  0  0  0  0  0  0  0  0
  -30.3740  -12.5530   19.2380 C   0  0  0  0  0  2  0  0  0  0  0  0
  -29.4210  -12.6360   18.0270 C   0  0  0  0  0  2  0  0  0  0  0  0
  -27.9510  -12.4660   18.4670 C   0  0  0  0  0  2  0  0  0  0  0  0
  -27.5940  -13.3260   19.7100 C   0  0  0  0  0  3  0  0  0  0  0  0
  -28.6680  -13.2150   20.8140 C   0  0  0  0  0  2  0  0  0  0  0  0
  -29.9500  -13.5930   20.2070 N   0  0  0  0  0  0  0  0  0  0  0  0
  -31.7720  -14.9040   19.9680 O   0  0  0  0  0  0  0  0  0  0  0  0
  -31.6520  -18.8170   22.1480 C   0  0  0  0  0  3  0  0  0  0  0  0
  -31.2420  -17.5290   21.7620 C   0  0  0  0  0  3  0  0  0  0  0  0
  -31.0070  -19.9590   21.6330 C   0  0  0  0  0  0  0  0  0  0  0  0
  -30.1910  -17.3550   20.8400 C   0  0  0  0  0  0  0  0  0  0  0  0
  -29.9160  -19.8140   20.7440 C   0  0  0  0  0  0  0  0  0  0  0  0
  -29.5470  -18.5100   20.3680 N   0  0  0  0  0  0  0  0  0  0  0  0
  -29.8140  -15.9480   20.5520 N   0  0  0  0  0  0  0  0  0  0  0  0
  -31.4880  -21.1820   21.9650 F   0  0  0  0  0  0  0  0  0  0  0  0
  -28.8230  -15.7720   20.5830 H   0  0  0  0  0  0  0  0  0  0  0  0
  -25.2140  -13.9010   20.4660 C   0  0  0  0  0  0  0  0  0  0  0  0
  -24.1580  -13.1210   20.8500 C   0  0  0  0  0  0  0  0  0  0  0  0
  -24.6270  -11.7730   20.8130 C   0  0  0  0  0  0  0  0  0  0  0  0
  -26.2590  -13.0280   20.2160 N   0  0  0  0  0  0  0  0  0  0  0  0
  -25.9120  -11.7410   20.4830 N   0  0  0  0  0  0  0  0  0  0  0  0
  -23.9090  -10.5070   21.0100 C   0  0  0  0  0  0  0  0  0  0  0  0
  -24.3490   -9.5440   21.9430 C   0  0  0  0  0  3  0  0  0  0  0  0
  -23.6280   -8.3450   22.1280 C   0  0  0  0  0  3  0  0  0  0  0  0
  -22.4530   -8.0990   21.3810 C   0  0  0  0  0  0  0  0  0  0  0  0
  -22.0310   -9.0510   20.4370 C   0  0  0  0  0  3  0  0  0  0  0  0
  -22.7530  -10.2420   20.2490 C   0  0  0  0  0  3  0  0  0  0  0  0
  -21.7040   -6.9520   21.4760 O   0  0  0  0  0  0  0  0  0  0  0  0
  -21.6620   -6.2130   22.6310 C   0  0  0  0  0  0  0  0  0  0  0  0
  -21.2280   -6.7690   23.8550 C   0  0  0  0  0  3  0  0  0  0  0  0
  -21.1330   -5.9550   25.0020 C   0  0  0  0  0  3  0  0  0  0  0  0
  -21.4630   -4.5890   24.9260 C   0  0  0  0  0  0  0  0  0  0  0  0
  -21.8910   -4.0340   23.7080 C   0  0  0  0  0  3  0  0  0  0  0  0
  -21.9860   -4.8440   22.5630 C   0  0  0  0  0  0  0  0  0  0  0  0
  -22.3790   -4.3000   21.3860 F   0  0  0  0  0  0  0  0  0  0  0  0
  -21.3650   -3.8060   26.0270 F   0  0  0  0  0  0  0  0  0  0  0  0
  -22.7630  -13.5930   21.1400 C   0  0  0  0  0  0  0  0  0  0  0  0
  -22.0470  -12.8880   22.0090 N   0  0  0  0  0  0  0  0  0  0  0  0
  -22.3170  -14.6200   20.6300 O   0  0  0  0  0  0  0  0  0  0  0  0
  -22.4200  -12.0570   22.4430 H   0  0  0  0  0  0  0  0  0  0  0  0
  -21.1090  -13.1820   22.2430 H   0  0  0  0  0  0  0  0  0  0  0  0
  -25.3660  -15.2730   20.2840 N   0  0  0  0  0  0  0  0  0  0  0  0
  -24.5810  -15.9080   20.3740 H   0  0  0  0  0  0  0  0  0  0  0  0
  -26.1820  -15.7140   19.8810 H   0  0  0  0  0  0  0  0  0  0  0  0
  -28.9940  -23.5910   18.5520 C   0  0  0  0  0  1  0  0  0  0  0  0
  -29.0250  -23.7220   20.0880 C   0  0  0  0  0  3  0  0  0  0  0  0
  -28.0500  -24.9310   20.6020 C   0  0  0  0  0  2  0  0  0  0  0  0
  -28.2800  -26.3960   20.2640 O   0  0  0  0  0  0  0  0  0  0  0  0
  -24.5870  -31.9120   23.2600 C   0  0  0  0  0  0  0  0  0  0  0  0
  -27.1840  -27.2950   20.2250 C   0  0  0  0  0  0  0  0  0  0  0  0
  -23.3840  -30.5160   21.6200 C   0  0  0  0  0  3  0  0  0  0  0  0
  -24.8320  -28.9600   20.1890 C   0  0  0  0  0  0  0  0  0  0  0  0
  -25.9250  -30.8140   21.4460 C   0  0  0  0  0  2  0  0  0  0  0  0
  -26.0050  -29.4310   20.7970 C   0  0  0  0  0  0  0  0  0  0  0  0
  -27.1800  -28.6120   20.8060 C   0  0  0  0  0  3  0  0  0  0  0  0
  -26.0000  -26.9050   19.5650 C   0  0  0  0  0  3  0  0  0  0  0  0
  -24.8390  -27.7060   19.5540 C   0  0  0  0  0  3  0  0  0  0  0  0
  -23.6010  -29.8460   20.2370 C   0  0  0  0  0  2  0  0  0  0  0  0
  -24.6490  -31.1020   22.1620 N   0  0  0  0  0  0  0  0  0  0  0  0
  -23.5040  -32.1930   23.7930 O   0  0  0  0  0  0  0  0  0  0  0  0
  -22.7220  -29.4990   22.5830 C   0  0  0  0  0  0  0  0  0  0  0  0
  -21.3960  -29.3210   22.4580 N   0  0  0  0  0  0  0  0  0  0  0  0
  -23.3990  -28.8760   23.4050 O   0  0  0  0  0  0  0  0  0  0  0  0
  -20.9080  -29.8800   21.7710 H   0  0  0  0  0  0  0  0  0  0  0  0
  -18.0210  -28.1080   22.9550 C   0  0  0  0  0  0  0  0  0  0  0  0
  -20.5780  -28.3810   23.2260 C   0  0  0  0  0  3  0  0  0  0  0  0
  -20.6890  -26.9490   22.6550 C   0  0  0  0  0  2  0  0  0  0  0  0
  -19.5900  -26.6180   21.6410 C   0  0  0  0  0  2  0  0  0  0  0  0
  -18.2050  -26.7580   22.2800 C   0  0  0  0  0  2  0  0  0  0  0  0
  -19.1360  -28.8770   23.3840 C   0  0  0  0  0  0  0  0  0  0  0  0
  -18.9110  -30.1380   23.9750 C   0  0  0  0  0  3  0  0  0  0  0  0
  -17.6050  -30.6330   24.1420 C   0  0  0  0  0  3  0  0  0  0  0  0
  -16.5040  -29.8640   23.7270 C   0  0  0  0  0  3  0  0  0  0  0  0
  -16.7130  -28.6050   23.1390 C   0  0  0  0  0  3  0  0  0  0  0  0
  -25.8700  -32.5460   23.8820 C   0  0  0  0  0  3  0  0  0  0  0  0
  -25.5630  -33.9500   24.1950 N   0  0  0  0  0  0  0  0  0  0  0  0
  -25.9050  -34.9960   23.4310 C   0  0  0  0  0  0  0  0  0  0  0  0
  -26.5800  -34.8830   22.4060 O   0  0  0  0  0  0  0  0  0  0  0  0
  -24.9700  -34.1100   24.9940 H   0  0  0  0  0  0  0  0  0  0  0  0
  -24.1930  -36.8000   23.0530 C   0  0  0  0  0  1  0  0  0  0  0  0
  -25.4230  -36.3900   23.8780 C   0  0  0  0  0  3  0  0  0  0  0  0
  -27.5550  -37.2690   24.7240 C   0  0  0  0  0  1  0  0  0  0  0  0
  -26.4630  -37.4370   23.7680 N   0  0  0  0  0  0  0  0  0  0  0  0
  -26.0600  -38.3610   23.9010 H   0  0  0  0  0  0  0  0  0  0  0  0
  -26.3720  -31.7890   25.1720 C   0  0  1  0  0  0  0  0  0  0  0  0
  -25.2680  -31.5760   26.2350 C   0  0  0  0  0  1  0  0  0  0  0  0
  -26.9520  -30.4040   24.8050 C   0  0  0  0  0  1  0  0  0  0  0  0
  -27.5230  -32.5870   25.8310 C   0  0  0  0  0  1  0  0  0  0  0  0
  1  3  2  0
  2 17  1  0
  2  1  1  0
  4  2  1  0
  5 19  1  0
  6 11  1  0
  7  8  1  0
  7  6  1  0
  9  8  1  0
  9 25  1  0
  9 10  1  0
 11  5  1  0
 11 10  1  0
 12  5  2  0
 14 13  1  0
 15 20  1  0
 15 13  2  0
 16 14  2  0
 17 15  1  0
 18 17  2  0
 18 16  1  0
 19 21  1  0
 19 16  1  0
 22 23  2  0
 23 42  1  0
 24 23  1  0
 24 27  1  0
 25 22  1  0
 25 26  1  0
 26 24  2  0
 27 28  1  0
 28 29  2  0
 30 33  1  0
 30 29  1  0
 31 30  2  0
 32 31  1  0
 32 27  2  0
 33 34  1  0
 34 35  1  0
 35 36  2  0
 37 36  1  0
 37 41  1  0
 38 37  2  0
 39 34  2  0
 39 38  1  0
 40 39  1  0
 42 43  1  0
 43 46  1  0
 43 45  1  0
 44 42  2  0
 47 48  1  0
 47 22  1  0
 49 47  1  0
 51 50  1  0
 51 52  1  0
 51  1  1  0
 53 52  1  0
 54 65  2  0
 55 53  1  0
 55 60  1  0
 56 64  1  0
 56 66  1  0
 57 63  1  0
 57 59  1  0
 58 64  1  0
 59 60  2  0
 59 58  1  0
 61 55  2  0
 62 61  1  0
 62 57  2  0
 63 56  1  0
 64 54  1  0
 66 68  2  0
 67 66  1  0
 69 67  1  0
 70 79  2  0
 70 75  1  0
 71 67  1  0
 71 75  1  0
 72 71  1  0
 73 74  1  0
 73 72  1  0
 74 70  1  0
 75 76  2  0
 76 77  1  0
 78 77  2  0
 79 78  1  0
 80 54  1  0
 80 81  1  0
 80 90  1  0
 81 84  1  0
 82 86  1  0
 82 81  1  0
 83 82  2  0
 86 85  1  0
 88 86  1  0
 88 89  1  0
 88 87  1  0
 90 93  1  1
 90 91  1  0
 92 90  1  0
M  ISO  4   5 100  19 100  52 101  53 101
M  END
>  <TORSDO>  (37) 
F 18

>  <SCORE>  (37) 
-14.973

>  <name>  (37) 
37

>  <ligand_id>  (37) 
37

>  <original_smiles>  (37) 
[H]c1c(N([H])C(=O)N2C([H])([H])C([H])([H])C([H])([H])C([H])(n3nc(-c4c([H])c([H])c(Oc5c([H])c([H])c(F)c([H])c5F)c([H])c4[H])c(C(=O)N([H])[H])c3N([H])[H])C2([H])[H])nc(N([H])C(=O)C([H])(C([H])([H])[H])C([H])([H])Oc2c([H])c([H])c3c(c2[H])C([H])([H])N(C(=O)C([H])(N([H])C(=O)C([H])(N([H])C([H])([H])[H])C([H])([H])[H])C(C([H])([H])[H])(C([H])([H])[H])C([H])([H])[H])C([H])(C(=O)N([H])C2([H])c4c([H])c([H])c([H])c([H])c4C([H])([H])C([H])([H])C2([H])[H])C3([H])[H])c(F)c1[H]

>  <smiles>  (37) 
[H]c1c(N([H])C(=O)N2C([H])([H])C([H])([H])C([H])([H])C([H])(n3nc(-c4c([H])c([H])c(Oc5c([H])c([H])c(F)c([H])c5F)c([H])c4[H])c(C(=O)N([H])[H])c3N([H])[H])C2([H])[H])nc(N([H])C(=O)C([H])(C([H])([H])[H])C([H])([H])Oc2c([H])c([H])c3c(c2[H])C([H])([H])N(C(=O)C([H])(N([H])C(=O)C([H])(N([H])C([H])([H])[H])C([H])([H])[H])C(C([H])([H])[H])(C([H])([H])[H])C([H])([H])[H])C([H])(C(=O)N([H])C2([H])c4c([H])c([H])c([H])c([H])c4C([H])([H])C([H])([H])C2([H])[H])C3([H])[H])c(F)c1[H]

$$$$
38:0:0
     RDKit          3D

 95103  0  0  1  0  0  0  0  0999 V2000
  -29.1710  -21.7330   20.7450 C   0  0  0  0  0  3  0  0  0  0  0  0
  -30.9550  -17.3570   19.1030 C   0  0  0  0  0  3  0  0  0  0  0  0
  -30.0710  -16.9830   20.0900 C   0  0  0  0  0  0  0  0  0  0  0  0
  -29.5370  -19.2280   19.8670 C   0  0  0  0  0  0  0  0  0  0  0  0
  -29.2750  -18.0770   20.5310 N   0  0  0  0  0  0  0  0  0  0  0  0
  -28.8860  -20.4730   20.0090 N   0  0  0  0  0  0  0  0  0  0  0  0
  -30.8250  -19.0460   18.6840 S   0  0  0  0  0  0  0  0  0  0  0  0
  -28.6160  -20.7580   19.0770 H   0  0  0  0  0  0  0  0  0  0  0  0
  -30.6340  -14.5180   20.1680 C   0  0  0  0  0  0  0  0  0  0  0  0
  -30.2680  -12.3660   19.0220 C   0  0  0  0  0  2  0  0  0  0  0  0
  -29.2910  -12.6220   17.8540 C   0  0  0  0  0  2  0  0  0  0  0  0
  -27.8340  -12.4800   18.3340 C   0  0  0  0  0  2  0  0  0  0  0  0
  -27.5520  -13.2830   19.6310 C   0  0  0  0  0  3  0  0  0  0  0  0
  -28.6470  -13.0450   20.6970 C   0  0  0  0  0  2  0  0  0  0  0  0
  -29.9490  -13.3410   20.0820 N   0  0  0  0  0  0  0  0  0  0  0  0
  -31.7940  -14.6160   19.7580 O   0  0  0  0  0  0  0  0  0  0  0  0
  -29.9210  -15.6160   20.5530 N   0  0  0  0  0  0  0  0  0  0  0  0
  -29.0690  -15.4150   21.0520 H   0  0  0  0  0  0  0  0  0  0  0  0
  -25.1900  -13.8880   20.4400 C   0  0  0  0  0  0  0  0  0  0  0  0
  -24.1320  -13.1170   20.8360 C   0  0  0  0  0  0  0  0  0  0  0  0
  -24.5840  -11.7620   20.7730 C   0  0  0  0  0  0  0  0  0  0  0  0
  -26.2200  -13.0040   20.1590 N   0  0  0  0  0  0  0  0  0  0  0  0
  -25.8630  -11.7200   20.4190 N   0  0  0  0  0  0  0  0  0  0  0  0
  -23.8570  -10.5020   20.9730 C   0  0  0  0  0  0  0  0  0  0  0  0
  -24.2960   -9.5370   21.9050 C   0  0  0  0  0  3  0  0  0  0  0  0
  -23.5710   -8.3410   22.0920 C   0  0  0  0  0  3  0  0  0  0  0  0
  -22.3920   -8.1020   21.3450 C   0  0  0  0  0  0  0  0  0  0  0  0
  -21.9730   -9.0550   20.4010 C   0  0  0  0  0  3  0  0  0  0  0  0
  -22.6990  -10.2430   20.2140 C   0  0  0  0  0  3  0  0  0  0  0  0
  -21.6380   -6.9570   21.4420 O   0  0  0  0  0  0  0  0  0  0  0  0
  -21.5830   -6.2270   22.6020 C   0  0  0  0  0  0  0  0  0  0  0  0
  -21.1270   -6.7870   23.8150 C   0  0  0  0  0  3  0  0  0  0  0  0
  -21.0220   -5.9810   24.9660 C   0  0  0  0  0  3  0  0  0  0  0  0
  -21.3610   -4.6160   24.9050 C   0  0  0  0  0  0  0  0  0  0  0  0
  -21.8100   -4.0560   23.6960 C   0  0  0  0  0  3  0  0  0  0  0  0
  -21.9180   -4.8590   22.5470 C   0  0  0  0  0  0  0  0  0  0  0  0
  -22.3310   -4.3100   21.3790 F   0  0  0  0  0  0  0  0  0  0  0  0
  -21.2520   -3.8400   26.0080 F   0  0  0  0  0  0  0  0  0  0  0  0
  -22.7480  -13.5970   21.1620 C   0  0  0  0  0  0  0  0  0  0  0  0
  -22.0460  -12.8900   22.0400 N   0  0  0  0  0  0  0  0  0  0  0  0
  -22.3000  -14.6340   20.6730 O   0  0  0  0  0  0  0  0  0  0  0  0
  -22.4240  -12.0540   22.4580 H   0  0  0  0  0  0  0  0  0  0  0  0
  -21.1160  -13.1910   22.2990 H   0  0  0  0  0  0  0  0  0  0  0  0
  -25.3580  -15.2610   20.2750 N   0  0  0  0  0  0  0  0  0  0  0  0
  -24.5940  -15.9160   20.4090 H   0  0  0  0  0  0  0  0  0  0  0  0
  -26.1970  -15.7020   19.9210 H   0  0  0  0  0  0  0  0  0  0  0  0
  -30.3150  -21.5740   21.7740 C   0  0  0  0  0  0  0  0  0  0  0  0
  -31.3830  -21.0090   21.5210 O   0  0  0  0  0  0  0  0  0  0  0  0
  -30.7950  -21.4860   24.2840 C   0  0  0  0  0  1  0  0  0  0  0  0
  -30.0970  -22.2330   23.1360 C   0  0  0  0  0  2  0  0  0  0  0  0
  -29.9640  -22.6200   18.4260 C   0  0  0  0  0  1  0  0  0  0  0  0
  -29.4460  -23.0030   19.8270 C   0  0  0  0  0  3  0  0  0  0  0  0
  -28.3140  -24.0950   19.7310 C   0  0  0  0  0  2  0  0  0  0  0  0
  -28.3310  -25.2670   20.7720 C   0  0  0  0  0  2  0  0  0  0  0  0
  -28.4250  -26.6140   20.2340 O   0  0  0  0  0  0  0  0  0  0  0  0
  -24.5280  -31.8330   23.2100 C   0  0  0  0  0  0  0  0  0  0  0  0
  -27.2640  -27.3680   20.2090 C   0  0  0  0  0  0  0  0  0  0  0  0
  -23.3740  -30.4250   21.5380 C   0  0  0  0  0  3  0  0  0  0  0  0
  -24.8690  -28.8880   20.1520 C   0  0  0  0  0  0  0  0  0  0  0  0
  -25.9040  -30.7870   21.4050 C   0  0  0  0  0  2  0  0  0  0  0  0
  -26.0140  -29.4140   20.7660 C   0  0  0  0  0  0  0  0  0  0  0  0
  -27.2180  -28.6650   20.7810 C   0  0  0  0  0  3  0  0  0  0  0  0
  -26.1030  -26.8610   19.5910 C   0  0  0  0  0  3  0  0  0  0  0  0
  -24.9120  -27.6140   19.5580 C   0  0  0  0  0  3  0  0  0  0  0  0
  -23.6220  -29.7430   20.1660 C   0  0  0  0  0  2  0  0  0  0  0  0
  -24.6190  -31.0310   22.1090 N   0  0  0  0  0  0  0  0  0  0  0  0
  -23.4320  -32.0990   23.7230 O   0  0  0  0  0  0  0  0  0  0  0  0
  -22.6990  -29.4030   22.4820 C   0  0  0  0  0  0  0  0  0  0  0  0
  -21.3790  -29.2120   22.3170 N   0  0  0  0  0  0  0  0  0  0  0  0
  -23.3620  -28.7830   23.3180 O   0  0  0  0  0  0  0  0  0  0  0  0
  -20.9040  -29.7650   21.6180 H   0  0  0  0  0  0  0  0  0  0  0  0
  -18.0010  -27.9980   22.7280 C   0  0  0  0  0  0  0  0  0  0  0  0
  -20.5490  -28.2700   23.0660 C   0  0  0  0  0  3  0  0  0  0  0  0
  -20.6740  -26.8390   22.4920 C   0  0  0  0  0  2  0  0  0  0  0  0
  -19.6010  -26.5120   21.4490 C   0  0  0  0  0  2  0  0  0  0  0  0
  -18.2030  -26.6500   22.0570 C   0  0  0  0  0  2  0  0  0  0  0  0
  -19.1030  -28.7660   23.1880 C   0  0  0  0  0  0  0  0  0  0  0  0
  -18.8620  -30.0280   23.7730 C   0  0  0  0  0  3  0  0  0  0  0  0
  -17.5520  -30.5220   23.9040 C   0  0  0  0  0  3  0  0  0  0  0  0
  -16.4620  -29.7500   23.4620 C   0  0  0  0  0  3  0  0  0  0  0  0
  -16.6880  -28.4910   22.8790 C   0  0  0  0  0  3  0  0  0  0  0  0
  -25.7940  -32.4730   23.8610 C   0  0  0  0  0  3  0  0  0  0  0  0
  -25.4720  -33.8710   24.1780 N   0  0  0  0  0  0  0  0  0  0  0  0
  -25.8170  -34.9200   23.4200 C   0  0  0  0  0  0  0  0  0  0  0  0
  -26.5090  -34.8140   22.4040 O   0  0  0  0  0  0  0  0  0  0  0  0
  -24.8600  -34.0260   24.9650 H   0  0  0  0  0  0  0  0  0  0  0  0
  -24.0890  -36.7040   23.0160 C   0  0  0  0  0  1  0  0  0  0  0  0
  -25.3130  -36.3110   23.8570 C   0  0  0  0  0  3  0  0  0  0  0  0
  -27.4240  -37.2130   24.7320 C   0  0  0  0  0  1  0  0  0  0  0  0
  -26.3450  -37.3670   23.7600 N   0  0  0  0  0  0  0  0  0  0  0  0
  -25.9320  -38.2860   23.8890 H   0  0  0  0  0  0  0  0  0  0  0  0
  -26.2810  -31.7080   25.1530 C   0  0  1  0  0  0  0  0  0  0  0  0
  -25.1630  -31.4630   26.1930 C   0  0  0  0  0  1  0  0  0  0  0  0
  -26.8830  -30.3330   24.7790 C   0  0  0  0  0  1  0  0  0  0  0  0
  -27.4080  -32.5100   25.8440 C   0  0  0  0  0  1  0  0  0  0  0  0
  1 47  1  0
  2  3  2  0
  3  5  1  0
  3 17  1  0
  4  6  1  0
  4  5  2  0
  6  1  1  0
  7  2  1  0
  7  4  1  0
  8  6  1  0
  9 17  1  0
 10 15  1  0
 11 12  1  0
 11 10  1  0
 13 12  1  0
 13 22  1  0
 13 14  1  0
 15  9  1  0
 15 14  1  0
 16  9  2  0
 17 18  1  0
 19 20  2  0
 20 39  1  0
 21 20  1  0
 21 24  1  0
 22 23  1  0
 22 19  1  0
 23 21  2  0
 24 25  1  0
 25 26  2  0
 27 30  1  0
 27 26  1  0
 28 27  2  0
 29 28  1  0
 29 24  2  0
 30 31  1  0
 31 32  1  0
 32 33  2  0
 34 33  1  0
 34 38  1  0
 35 34  2  0
 36 31  2  0
 36 35  1  0
 37 36  1  0
 39 40  1  0
 40 43  1  0
 40 42  1  0
 41 39  2  0
 44 45  1  0
 44 19  1  0
 46 44  1  0
 47 50  1  0
 48 47  2  0
 50 49  1  0
 52 51  1  0
 52  1  1  0
 53 52  1  0
 53 54  1  0
 55 54  1  0
 56 67  2  0
 57 55  1  0
 57 62  1  0
 58 66  1  0
 58 68  1  0
 59 65  1  0
 59 61  1  0
 60 66  1  0
 61 62  2  0
 61 60  1  0
 63 57  2  0
 64 63  1  0
 64 59  2  0
 65 58  1  0
 66 56  1  0
 68 70  2  0
 69 68  1  0
 71 69  1  0
 72 81  2  0
 72 77  1  0
 73 69  1  0
 73 77  1  0
 74 73  1  0
 75 76  1  0
 75 74  1  0
 76 72  1  0
 77 78  2  0
 78 79  1  0
 80 79  2  0
 81 80  1  0
 82 56  1  0
 82 83  1  0
 82 92  1  0
 83 86  1  0
 84 88  1  0
 84 83  1  0
 85 84  2  0
 88 87  1  0
 90 88  1  0
 90 91  1  0
 90 89  1  0
 92 95  1  1
 92 93  1  0
 94 92  1  0
M  ISO  4   9 100  17 100  54 101  55 101
M  END
>  <TORSDO>  (38) 
F 22

>  <SCORE>  (38) 
-13.764

>  <name>  (38) 
38

>  <ligand_id>  (38) 
38

>  <original_smiles>  (38) 
[H]c1sc(N([H])C([H])(C(=O)C([H])([H])C([H])([H])[H])C([H])(C([H])([H])[H])C([H])([H])C([H])([H])Oc2c([H])c([H])c3c(c2[H])C([H])([H])N(C(=O)C([H])(N([H])C(=O)C([H])(N([H])C([H])([H])[H])C([H])([H])[H])C(C([H])([H])[H])(C([H])([H])[H])C([H])([H])[H])C([H])(C(=O)N([H])C2([H])c4c([H])c([H])c([H])c([H])c4C([H])([H])C([H])([H])C2([H])[H])C3([H])[H])nc1N([H])C(=O)N1C([H])([H])C([H])([H])C([H])([H])C([H])(n2nc(-c3c([H])c([H])c(Oc4c([H])c([H])c(F)c([H])c4F)c([H])c3[H])c(C(=O)N([H])[H])c2N([H])[H])C1([H])[H]

>  <smiles>  (38) 
[H]c1sc(N([H])C([H])(C(=O)C([H])([H])C([H])([H])[H])C([H])(C([H])([H])[H])C([H])([H])C([H])([H])Oc2c([H])c([H])c3c(c2[H])C([H])([H])N(C(=O)C([H])(N([H])C(=O)C([H])(N([H])C([H])([H])[H])C([H])([H])[H])C(C([H])([H])[H])(C([H])([H])[H])C([H])([H])[H])C([H])(C(=O)N([H])C2([H])c4c([H])c([H])c([H])c([H])c4C([H])([H])C([H])([H])C2([H])[H])C3([H])[H])nc1N([H])C(=O)N1C([H])([H])C([H])([H])C([H])([H])C([H])(n2nc(-c3c([H])c([H])c(Oc4c([H])c([H])c(F)c([H])c4F)c([H])c3[H])c(C(=O)N([H])[H])c2N([H])[H])C1([H])[H]

$$$$
39:0:0
     RDKit          3D

 93101  0  0  1  0  0  0  0  0999 V2000
  -28.9450  -21.1670   19.9120 C   0  0  0  0  0  0  0  0  0  0  0  0
  -29.1270  -22.3500   20.5010 N   0  0  0  0  0  2  0  0  0  0  0  0
  -28.2830  -20.9810   18.7200 N   0  0  0  0  0  4  0  0  0  0  0  0
  -28.1630  -20.0600   18.3150 H   0  0  0  0  0  0  0  0  0  0  0  0
  -27.7590  -21.6800   18.2140 H   0  0  0  0  0  0  0  0  0  0  0  0
  -31.0710  -17.9480   21.2770 C   0  0  0  0  0  3  0  0  0  0  0  0
  -30.0000  -17.4300   20.5890 C   0  0  0  0  0  0  0  0  0  0  0  0
  -29.5540  -19.8110   20.4220 C   0  0  0  0  0  0  0  0  0  0  0  0
  -29.1570  -18.5170   20.1250 N   0  0  0  0  0  0  0  0  0  0  0  0
  -31.0400  -19.7180   21.3820 S   0  0  0  0  0  0  0  0  0  0  0  0
  -30.5520  -14.8370   20.3640 C   0  0  0  0  0  0  0  0  0  0  0  0
  -30.3830  -12.5410   19.3590 C   0  0  0  0  0  2  0  0  0  0  0  0
  -29.4310  -12.5760   18.1420 C   0  0  0  0  0  2  0  0  0  0  0  0
  -27.9670  -12.3860   18.5900 C   0  0  0  0  0  2  0  0  0  0  0  0
  -27.5890  -13.2870   19.7960 C   0  0  0  0  0  3  0  0  0  0  0  0
  -28.6580  -13.2270   20.9080 C   0  0  0  0  0  2  0  0  0  0  0  0
  -29.9400  -13.6010   20.2950 N   0  0  0  0  0  0  0  0  0  0  0  0
  -31.7540  -14.9290   20.0920 O   0  0  0  0  0  0  0  0  0  0  0  0
  -29.7340  -15.9650   20.4680 N   0  0  0  0  0  0  0  0  0  0  0  0
  -28.7540  -15.7330   20.4440 H   0  0  0  0  0  0  0  0  0  0  0  0
  -25.2110  -13.8750   20.5590 C   0  0  0  0  0  0  0  0  0  0  0  0
  -24.1480  -13.0980   20.9320 C   0  0  0  0  0  0  0  0  0  0  0  0
  -24.6100  -11.7460   20.8840 C   0  0  0  0  0  0  0  0  0  0  0  0
  -26.2510  -12.9950   20.3010 N   0  0  0  0  0  0  0  0  0  0  0  0
  -25.8970  -11.7110   20.5640 N   0  0  0  0  0  0  0  0  0  0  0  0
  -23.8830  -10.4840   21.0690 C   0  0  0  0  0  0  0  0  0  0  0  0
  -24.3180   -9.5100   21.9950 C   0  0  0  0  0  3  0  0  0  0  0  0
  -23.5920   -8.3120   22.1680 C   0  0  0  0  0  3  0  0  0  0  0  0
  -22.4180   -8.0780   21.4130 C   0  0  0  0  0  0  0  0  0  0  0  0
  -22.0020   -9.0400   20.4760 C   0  0  0  0  0  3  0  0  0  0  0  0
  -22.7280  -10.2300   20.3010 C   0  0  0  0  0  3  0  0  0  0  0  0
  -21.6630   -6.9330   21.4960 O   0  0  0  0  0  0  0  0  0  0  0  0
  -21.6110   -6.1870   22.6450 C   0  0  0  0  0  0  0  0  0  0  0  0
  -21.1600   -6.7330   23.8680 C   0  0  0  0  0  3  0  0  0  0  0  0
  -21.0560   -5.9130   25.0090 C   0  0  0  0  0  3  0  0  0  0  0  0
  -21.3890   -4.5480   24.9300 C   0  0  0  0  0  0  0  0  0  0  0  0
  -21.8310   -4.0010   23.7120 C   0  0  0  0  0  3  0  0  0  0  0  0
  -21.9380   -4.8180   22.5730 C   0  0  0  0  0  0  0  0  0  0  0  0
  -22.3450   -4.2810   21.3970 F   0  0  0  0  0  0  0  0  0  0  0  0
  -21.2810   -3.7590   26.0230 F   0  0  0  0  0  0  0  0  0  0  0  0
  -22.7530  -13.5750   21.2180 C   0  0  0  0  0  0  0  0  0  0  0  0
  -22.0260  -12.8680   22.0760 N   0  0  0  0  0  0  0  0  0  0  0  0
  -22.3150  -14.6080   20.7140 O   0  0  0  0  0  0  0  0  0  0  0  0
  -22.3930  -12.0330   22.5080 H   0  0  0  0  0  0  0  0  0  0  0  0
  -21.0900  -13.1710   22.3060 H   0  0  0  0  0  0  0  0  0  0  0  0
  -25.3710  -15.2470   20.3890 N   0  0  0  0  0  0  0  0  0  0  0  0
  -24.5950  -15.8900   20.5060 H   0  0  0  0  0  0  0  0  0  0  0  0
  -26.1970  -15.6930   20.0110 H   0  0  0  0  0  0  0  0  0  0  0  0
  -30.0850  -24.1300   19.0780 C   0  0  0  0  0  1  0  0  0  0  0  0
  -28.8060  -23.7020   19.8170 C   0  0  0  0  0  3  0  0  0  0  0  0
  -28.8710  -24.9980   22.0920 C   0  0  0  0  0  1  0  0  0  0  0  0
  -28.2360  -24.9680   20.6960 C   0  0  0  0  0  3  0  0  0  0  0  0
  -28.3450  -26.4010   20.2100 O   0  0  0  0  0  0  0  0  0  0  0  0
  -24.5930  -31.8960   23.2240 C   0  0  0  0  0  0  0  0  0  0  0  0
  -27.2290  -27.2750   20.2170 C   0  0  0  0  0  0  0  0  0  0  0  0
  -23.4040  -30.4860   21.5840 C   0  0  0  0  0  3  0  0  0  0  0  0
  -24.8670  -28.9200   20.1760 C   0  0  0  0  0  0  0  0  0  0  0  0
  -25.9470  -30.7950   21.4170 C   0  0  0  0  0  2  0  0  0  0  0  0
  -26.0350  -29.4070   20.7780 C   0  0  0  0  0  0  0  0  0  0  0  0
  -27.2200  -28.6000   20.7820 C   0  0  0  0  0  3  0  0  0  0  0  0
  -26.0370  -26.8540   19.5910 C   0  0  0  0  0  3  0  0  0  0  0  0
  -24.8750  -27.6520   19.5690 C   0  0  0  0  0  3  0  0  0  0  0  0
  -23.6290  -29.7980   20.2110 C   0  0  0  0  0  2  0  0  0  0  0  0
  -24.6670  -31.0790   22.1310 N   0  0  0  0  0  0  0  0  0  0  0  0
  -23.5050  -32.1750   23.7490 O   0  0  0  0  0  0  0  0  0  0  0  0
  -22.7350  -29.4770   22.5490 C   0  0  0  0  0  0  0  0  0  0  0  0
  -21.4070  -29.3030   22.4210 N   0  0  0  0  0  0  0  0  0  0  0  0
  -23.4090  -28.8530   23.3720 O   0  0  0  0  0  0  0  0  0  0  0  0
  -20.9230  -29.8570   21.7290 H   0  0  0  0  0  0  0  0  0  0  0  0
  -18.0220  -28.1310   22.9410 C   0  0  0  0  0  0  0  0  0  0  0  0
  -20.5840  -28.3680   23.1920 C   0  0  0  0  0  3  0  0  0  0  0  0
  -20.6710  -26.9400   22.6060 C   0  0  0  0  0  2  0  0  0  0  0  0
  -19.5570  -26.6330   21.5990 C   0  0  0  0  0  2  0  0  0  0  0  0
  -18.1820  -26.7850   22.2540 C   0  0  0  0  0  2  0  0  0  0  0  0
  -19.1500  -28.8810   23.3660 C   0  0  0  0  0  0  0  0  0  0  0  0
  -18.9450  -30.1410   23.9690 C   0  0  0  0  0  3  0  0  0  0  0  0
  -17.6460  -30.6510   24.1500 C   0  0  0  0  0  3  0  0  0  0  0  0
  -16.5320  -29.8970   23.7390 C   0  0  0  0  0  3  0  0  0  0  0  0
  -16.7210  -28.6390   23.1410 C   0  0  0  0  0  3  0  0  0  0  0  0
  -25.8690  -32.5360   23.8530 C   0  0  0  0  0  3  0  0  0  0  0  0
  -26.3740  -31.7760   25.1410 C   0  0  1  0  0  0  0  0  0  0  0  0
  -25.2710  -31.5460   26.2020 C   0  0  0  0  0  1  0  0  0  0  0  0
  -26.9640  -30.3950   24.7680 C   0  0  0  0  0  1  0  0  0  0  0  0
  -27.5170  -32.5780   25.8060 C   0  0  0  0  0  1  0  0  0  0  0  0
  -25.5540  -33.9370   24.1730 N   0  0  0  0  0  0  0  0  0  0  0  0
  -25.8880  -34.9870   23.4110 C   0  0  0  0  0  0  0  0  0  0  0  0
  -26.5630  -34.8800   22.3840 O   0  0  0  0  0  0  0  0  0  0  0  0
  -24.9560  -34.0940   24.9710 H   0  0  0  0  0  0  0  0  0  0  0  0
  -24.1660  -36.7820   23.0330 C   0  0  0  0  0  1  0  0  0  0  0  0
  -25.3980  -36.3790   23.8590 C   0  0  0  0  0  3  0  0  0  0  0  0
  -27.5240  -37.2660   24.7100 C   0  0  0  0  0  1  0  0  0  0  0  0
  -26.4340  -37.4300   23.7530 N   0  0  0  0  0  0  0  0  0  0  0  0
  -26.0270  -38.3520   23.8900 H   0  0  0  0  0  0  0  0  0  0  0  0
  1  8  1  0
  1  2  1  0
  3  1  2  0
  4  3  1  0
  5  3  1  0
  6 10  1  0
  7  6  2  0
  8 10  1  0
  9  8  2  0
  9  7  1  0
 11 19  1  0
 12 17  1  0
 13 14  1  0
 13 12  1  0
 15 14  1  0
 15 24  1  0
 15 16  1  0
 17 11  1  0
 17 16  1  0
 18 11  2  0
 19  7  1  0
 20 19  1  0
 21 22  2  0
 22 41  1  0
 23 22  1  0
 23 26  1  0
 24 21  1  0
 24 25  1  0
 25 23  2  0
 26 27  1  0
 27 28  2  0
 29 32  1  0
 29 28  1  0
 30 29  2  0
 31 30  1  0
 31 26  2  0
 32 33  1  0
 33 34  1  0
 34 35  2  0
 36 35  1  0
 36 40  1  0
 37 36  2  0
 38 33  2  0
 38 37  1  0
 39 38  1  0
 41 42  1  0
 42 45  1  0
 42 44  1  0
 43 41  2  0
 46 47  1  0
 46 21  1  0
 48 46  1  0
 50 49  1  0
 50  2  1  0
 50 52  1  0
 52 51  1  0
 53 55  1  0
 53 52  1  0
 54 65  2  0
 55 60  1  0
 56 64  1  0
 56 66  1  0
 57 63  1  0
 57 59  1  0
 58 64  1  0
 59 60  2  0
 59 58  1  0
 61 55  2  0
 62 61  1  0
 62 57  2  0
 63 56  1  0
 64 54  1  0
 66 68  2  0
 67 66  1  0
 69 67  1  0
 70 79  2  0
 70 75  1  0
 71 67  1  0
 71 75  1  0
 72 71  1  0
 73 74  1  0
 73 72  1  0
 74 70  1  0
 75 76  2  0
 76 77  1  0
 78 77  2  0
 79 78  1  0
 80 54  1  0
 80 85  1  0
 80 81  1  0
 81 84  1  1
 81 82  1  0
 83 81  1  0
 85 88  1  0
 86 90  1  0
 86 85  1  0
 87 86  2  0
 90 89  1  0
 92 90  1  0
 92 93  1  0
 92 91  1  0
M  ISO  4  11 100  19 100  52 101  53 101
M  END
>  <TORSDO>  (39) 
F 19

>  <SCORE>  (39) 
-14.421

>  <name>  (39) 
39

>  <ligand_id>  (39) 
39

>  <original_smiles>  (39) 
[H]c1sc(C(=NC([H])(C([H])([H])[H])C([H])(Oc2c([H])c([H])c3c(c2[H])C([H])([H])N(C(=O)C([H])(N([H])C(=O)C([H])(N([H])C([H])([H])[H])C([H])([H])[H])C(C([H])([H])[H])(C([H])([H])[H])C([H])([H])[H])C([H])(C(=O)N([H])C2([H])c4c([H])c([H])c([H])c([H])c4C([H])([H])C([H])([H])C2([H])[H])C3([H])[H])C([H])([H])[H])N([H])[H])nc1N([H])C(=O)N1C([H])([H])C([H])([H])C([H])([H])C([H])(n2nc(-c3c([H])c([H])c(Oc4c([H])c([H])c(F)c([H])c4F)c([H])c3[H])c(C(=O)N([H])[H])c2N([H])[H])C1([H])[H]

>  <smiles>  (39) 
[H]c1sc(C(=NC([H])(C([H])([H])[H])C([H])(Oc2c([H])c([H])c3c(c2[H])C([H])([H])N(C(=O)C([H])(N([H])C(=O)C([H])(N([H])C([H])([H])[H])C([H])([H])[H])C(C([H])([H])[H])(C([H])([H])[H])C([H])([H])[H])C([H])(C(=O)N([H])C2([H])c4c([H])c([H])c([H])c([H])c4C([H])([H])C([H])([H])C2([H])[H])C3([H])[H])C([H])([H])[H])N([H])[H])nc1N([H])C(=O)N1C([H])([H])C([H])([H])C([H])([H])C([H])(n2nc(-c3c([H])c([H])c(Oc4c([H])c([H])c(F)c([H])c4F)c([H])c3[H])c(C(=O)N([H])[H])c2N([H])[H])C1([H])[H]

$$$$
40:0:0
     RDKit          3D

 91 99  0  0  1  0  0  0  0  0999 V2000
  -28.6560  -19.0640   20.9800 C   0  0  0  0  0  3  0  0  0  0  0  0
  -29.6720  -18.6630   20.1290 C   0  0  0  0  0  0  0  0  0  0  0  0
  -29.0820  -21.2020   20.1350 C   0  0  0  0  0  0  0  0  0  0  0  0
  -28.3460  -20.4620   20.9800 N   0  0  0  0  0  0  0  0  0  0  0  0
  -29.0110  -22.6280   19.9130 N   0  0  0  0  0  0  0  0  0  0  0  0
  -30.2380  -20.1340   19.2790 S   0  0  0  0  0  0  0  0  0  0  0  0
  -29.6510  -22.8700   19.1620 H   0  0  0  0  0  0  0  0  0  0  0  0
  -30.7440  -14.8800   19.9420 C   0  0  0  0  0  0  0  0  0  0  0  0
  -30.4300  -12.6110   18.9680 C   0  0  0  0  0  2  0  0  0  0  0  0
  -29.4380  -12.7030   17.7890 C   0  0  0  0  0  2  0  0  0  0  0  0
  -27.9940  -12.5360   18.2970 C   0  0  0  0  0  2  0  0  0  0  0  0
  -27.6890  -13.4210   19.5360 C   0  0  0  0  0  3  0  0  0  0  0  0
  -28.8070  -13.3500   20.5990 C   0  0  0  0  0  2  0  0  0  0  0  0
  -30.0700  -13.6800   19.9300 N   0  0  0  0  0  0  0  0  0  0  0  0
  -31.9240  -14.8740   19.5810 O   0  0  0  0  0  0  0  0  0  0  0  0
  -30.4830  -17.3660   19.8900 C   0  0  0  0  0  0  0  0  0  0  0  0
  -30.0430  -16.0700   20.1500 N   0  0  0  0  0  0  0  0  0  0  0  0
  -31.6000  -17.5630   19.4000 O   0  0  0  0  0  0  0  0  0  0  0  0
  -29.0940  -15.9780   20.4700 H   0  0  0  0  0  0  0  0  0  0  0  0
  -25.3550  -14.0010   20.4220 C   0  0  0  0  0  0  0  0  0  0  0  0
  -24.3110  -13.2220   20.8360 C   0  0  0  0  0  0  0  0  0  0  0  0
  -24.7640  -11.8700   20.7470 C   0  0  0  0  0  0  0  0  0  0  0  0
  -26.3770  -13.1240   20.1020 N   0  0  0  0  0  0  0  0  0  0  0  0
  -26.0340  -11.8360   20.3610 N   0  0  0  0  0  0  0  0  0  0  0  0
  -24.0430  -10.6060   20.9480 C   0  0  0  0  0  0  0  0  0  0  0  0
  -24.4930   -9.6370   21.8720 C   0  0  0  0  0  3  0  0  0  0  0  0
  -23.7700   -8.4400   22.0630 C   0  0  0  0  0  3  0  0  0  0  0  0
  -22.5830   -8.2020   21.3290 C   0  0  0  0  0  0  0  0  0  0  0  0
  -22.1520   -9.1590   20.3950 C   0  0  0  0  0  3  0  0  0  0  0  0
  -22.8760  -10.3480   20.2020 C   0  0  0  0  0  3  0  0  0  0  0  0
  -21.8310   -7.0560   21.4300 O   0  0  0  0  0  0  0  0  0  0  0  0
  -21.7750   -6.3320   22.5940 C   0  0  0  0  0  0  0  0  0  0  0  0
  -21.2900   -6.8910   23.7970 C   0  0  0  0  0  3  0  0  0  0  0  0
  -21.1830   -6.0910   24.9520 C   0  0  0  0  0  3  0  0  0  0  0  0
  -21.5520   -4.7330   24.9050 C   0  0  0  0  0  0  0  0  0  0  0  0
  -22.0300   -4.1740   23.7070 C   0  0  0  0  0  3  0  0  0  0  0  0
  -22.1390   -4.9710   22.5550 C   0  0  0  0  0  0  0  0  0  0  0  0
  -22.5790   -4.4220   21.3970 F   0  0  0  0  0  0  0  0  0  0  0  0
  -21.4430   -3.9630   26.0120 F   0  0  0  0  0  0  0  0  0  0  0  0
  -22.9340  -13.6980   21.1980 C   0  0  0  0  0  0  0  0  0  0  0  0
  -22.2500  -12.9820   22.0840 N   0  0  0  0  0  0  0  0  0  0  0  0
  -22.4750  -14.7400   20.7300 O   0  0  0  0  0  0  0  0  0  0  0  0
  -22.6350  -12.1380   22.4820 H   0  0  0  0  0  0  0  0  0  0  0  0
  -21.3290  -13.2830   22.3680 H   0  0  0  0  0  0  0  0  0  0  0  0
  -25.5130  -15.3750   20.2650 N   0  0  0  0  0  0  0  0  0  0  0  0
  -24.7490  -16.0220   20.4230 H   0  0  0  0  0  0  0  0  0  0  0  0
  -26.3220  -15.8150   19.8460 H   0  0  0  0  0  0  0  0  0  0  0  0
  -26.9920  -23.6990   20.9480 C   0  0  0  0  0  1  0  0  0  0  0  0
  -28.4540  -23.8960   20.5290 C   0  0  0  0  0  3  0  0  0  0  0  0
  -28.6000  -25.2500   19.6570 C   0  0  0  0  0  2  0  0  0  0  0  0
  -28.4830  -26.6190   20.2500 O   0  0  0  0  0  0  0  0  0  0  0  0
  -24.6410  -31.9340   23.2750 C   0  0  0  0  0  0  0  0  0  0  0  0
  -27.3370  -27.4360   20.1740 C   0  0  0  0  0  0  0  0  0  0  0  0
  -23.4720  -30.5500   21.5970 C   0  0  0  0  0  3  0  0  0  0  0  0
  -24.9550  -29.0370   20.1600 C   0  0  0  0  0  0  0  0  0  0  0  0
  -26.0100  -30.8950   21.4480 C   0  0  0  0  0  2  0  0  0  0  0  0
  -26.1110  -29.5270   20.7790 C   0  0  0  0  0  0  0  0  0  0  0  0
  -27.3010  -28.7380   20.7760 C   0  0  0  0  0  3  0  0  0  0  0  0
  -26.1530  -26.9990   19.5380 C   0  0  0  0  0  3  0  0  0  0  0  0
  -24.9810  -27.7820   19.5320 C   0  0  0  0  0  3  0  0  0  0  0  0
  -23.7100  -29.9000   20.2090 C   0  0  0  0  0  2  0  0  0  0  0  0
  -24.7260  -31.1440   22.1640 N   0  0  0  0  0  0  0  0  0  0  0  0
  -23.5480  -32.1890   23.8030 O   0  0  0  0  0  0  0  0  0  0  0  0
  -22.8110  -29.5100   22.5340 C   0  0  0  0  0  0  0  0  0  0  0  0
  -21.4890  -29.3190   22.3920 N   0  0  0  0  0  0  0  0  0  0  0  0
  -23.4890  -28.8770   23.3490 O   0  0  0  0  0  0  0  0  0  0  0  0
  -21.0020  -29.8820   21.7070 H   0  0  0  0  0  0  0  0  0  0  0  0
  -18.1170  -28.0930   22.8520 C   0  0  0  0  0  0  0  0  0  0  0  0
  -20.6730  -28.3590   23.1370 C   0  0  0  0  0  3  0  0  0  0  0  0
  -20.7850  -26.9430   22.5270 C   0  0  0  0  0  2  0  0  0  0  0  0
  -19.6890  -26.6390   21.5020 C   0  0  0  0  0  2  0  0  0  0  0  0
  -18.3040  -26.7610   22.1440 C   0  0  0  0  0  2  0  0  0  0  0  0
  -19.2300  -28.8510   23.3040 C   0  0  0  0  0  0  0  0  0  0  0  0
  -19.0020  -30.0970   23.9250 C   0  0  0  0  0  3  0  0  0  0  0  0
  -17.6940  -30.5870   24.0990 C   0  0  0  0  0  3  0  0  0  0  0  0
  -16.5960  -29.8260   23.6640 C   0  0  0  0  0  3  0  0  0  0  0  0
  -16.8070  -28.5810   23.0460 C   0  0  0  0  0  3  0  0  0  0  0  0
  -25.9080  -32.5720   23.9230 C   0  0  0  0  0  3  0  0  0  0  0  0
  -25.5940  -33.9760   24.2250 N   0  0  0  0  0  0  0  0  0  0  0  0
  -25.9360  -35.0180   23.4540 C   0  0  0  0  0  0  0  0  0  0  0  0
  -26.6190  -34.8970   22.4330 O   0  0  0  0  0  0  0  0  0  0  0  0
  -24.9900  -34.1440   25.0170 H   0  0  0  0  0  0  0  0  0  0  0  0
  -24.2160  -36.8070   23.0480 C   0  0  0  0  0  1  0  0  0  0  0  0
  -25.4440  -36.4140   23.8830 C   0  0  0  0  0  3  0  0  0  0  0  0
  -27.5600  -37.3180   24.7420 C   0  0  0  0  0  1  0  0  0  0  0  0
  -26.4810  -37.4640   23.7700 N   0  0  0  0  0  0  0  0  0  0  0  0
  -26.0710  -38.3870   23.8860 H   0  0  0  0  0  0  0  0  0  0  0  0
  -26.3860  -31.8190   25.2250 C   0  0  1  0  0  0  0  0  0  0  0  0
  -25.2620  -31.5970   26.2630 C   0  0  0  0  0  1  0  0  0  0  0  0
  -26.9790  -30.4350   24.8710 C   0  0  0  0  0  1  0  0  0  0  0  0
  -27.5180  -32.6220   25.9090 C   0  0  0  0  0  1  0  0  0  0  0  0
  2  1  2  0
  3  4  2  0
  4  1  1  0
  5  3  1  0
  5 49  1  0
  6  2  1  0
  6  3  1  0
  7  5  1  0
  8 17  1  0
  9 14  1  0
 10 11  1  0
 10  9  1  0
 12 11  1  0
 12 23  1  0
 12 13  1  0
 14  8  1  0
 14 13  1  0
 15  8  2  0
 16  2  1  0
 16 17  1  0
 17 19  1  0
 18 16  2  0
 20 21  2  0
 21 40  1  0
 22 21  1  0
 22 25  1  0
 23 24  1  0
 23 20  1  0
 24 22  2  0
 25 26  1  0
 26 27  2  0
 28 31  1  0
 28 27  1  0
 29 28  2  0
 30 29  1  0
 30 25  2  0
 31 32  1  0
 32 33  1  0
 33 34  2  0
 35 34  1  0
 35 39  1  0
 36 35  2  0
 37 32  2  0
 37 36  1  0
 38 37  1  0
 40 41  1  0
 41 44  1  0
 41 43  1  0
 42 40  2  0
 45 20  1  0
 45 46  1  0
 47 45  1  0
 49 48  1  0
 50 51  1  0
 50 49  1  0
 52 63  2  0
 53 51  1  0
 53 58  1  0
 54 62  1  0
 54 64  1  0
 55 61  1  0
 55 57  1  0
 56 62  1  0
 57 56  1  0
 58 57  2  0
 59 53  2  0
 60 59  1  0
 60 55  2  0
 61 54  1  0
 62 52  1  0
 64 66  2  0
 65 64  1  0
 67 65  1  0
 68 77  2  0
 68 73  1  0
 69 65  1  0
 69 73  1  0
 70 69  1  0
 71 72  1  0
 71 70  1  0
 72 68  1  0
 73 74  2  0
 74 75  1  0
 76 75  2  0
 77 76  1  0
 78 52  1  0
 78 79  1  0
 78 88  1  0
 79 82  1  0
 80 84  1  0
 80 79  1  0
 81 80  2  0
 84 83  1  0
 86 84  1  0
 86 87  1  0
 86 85  1  0
 88 91  1  1
 88 89  1  0
 90 88  1  0
M  ISO  4   8 100  17 100  50 101  51 101
M  END
>  <TORSDO>  (40) 
F 18

>  <SCORE>  (40) 
-14.174

>  <name>  (40) 
40

>  <ligand_id>  (40) 
40

>  <original_smiles>  (40) 
[H]c1nc(N([H])C([H])(C([H])([H])[H])C([H])([H])Oc2c([H])c([H])c3c(c2[H])C([H])([H])N(C(=O)C([H])(N([H])C(=O)C([H])(N([H])C([H])([H])[H])C([H])([H])[H])C(C([H])([H])[H])(C([H])([H])[H])C([H])([H])[H])C([H])(C(=O)N([H])C2([H])c4c([H])c([H])c([H])c([H])c4C([H])([H])C([H])([H])C2([H])[H])C3([H])[H])sc1C(=O)N([H])C(=O)N1C([H])([H])C([H])([H])C([H])([H])C([H])(n2nc(-c3c([H])c([H])c(Oc4c([H])c([H])c(F)c([H])c4F)c([H])c3[H])c(C(=O)N([H])[H])c2N([H])[H])C1([H])[H]

>  <smiles>  (40) 
[H]c1nc(N([H])C([H])(C([H])([H])[H])C([H])([H])Oc2c([H])c([H])c3c(c2[H])C([H])([H])N(C(=O)C([H])(N([H])C(=O)C([H])(N([H])C([H])([H])[H])C([H])([H])[H])C(C([H])([H])[H])(C([H])([H])[H])C([H])([H])[H])C([H])(C(=O)N([H])C2([H])c4c([H])c([H])c([H])c([H])c4C([H])([H])C([H])([H])C2([H])[H])C3([H])[H])sc1C(=O)N([H])C(=O)N1C([H])([H])C([H])([H])C([H])([H])C([H])(n2nc(-c3c([H])c([H])c(Oc4c([H])c([H])c(F)c([H])c4F)c([H])c3[H])c(C(=O)N([H])[H])c2N([H])[H])C1([H])[H]

$$$$
41:0:0
     RDKit          3D

 91 99  0  0  1  0  0  0  0  0999 V2000
  -29.6570  -21.8020   20.3180 C   0  0  0  0  0  0  0  0  0  0  0  0
  -29.8740  -20.7230   21.0940 N   0  0  0  0  0  0  0  0  0  0  0  0
  -29.5710  -21.7490   19.0880 O   0  0  0  0  0  0  0  0  0  0  0  0
  -29.9690  -20.9210   22.0800 H   0  0  0  0  0  0  0  0  0  0  0  0
  -29.7190  -18.7610   19.5570 C   0  0  0  0  0  3  0  0  0  0  0  0
  -29.9770  -19.4070   20.7490 C   0  0  0  0  0  0  0  0  0  0  0  0
  -30.2170  -16.9180   20.8250 C   0  0  0  0  0  0  0  0  0  0  0  0
  -29.8300  -17.3610   19.6210 N   0  0  0  0  0  0  0  0  0  0  0  0
  -30.4720  -18.2440   21.9590 S   0  0  0  0  0  0  0  0  0  0  0  0
  -30.2360  -15.4820   21.2960 C   0  0  0  0  0  2  0  0  0  0  0  0
  -30.7610  -14.4500   20.2600 C   0  0  0  0  0  0  0  0  0  0  0  0
  -30.3790  -12.3990   18.9150 C   0  0  0  0  0  2  0  0  0  0  0  0
  -29.3680  -12.6880   17.7870 C   0  0  0  0  0  2  0  0  0  0  0  0
  -27.9150  -12.5470   18.2860 C   0  0  0  0  0  2  0  0  0  0  0  0
  -27.6680  -13.2990   19.6210 C   0  0  0  0  0  3  0  0  0  0  0  0
  -28.7720  -12.9350   20.6390 C   0  0  0  0  0  2  0  0  0  0  0  0
  -30.0670  -13.2950   20.0400 N   0  0  0  0  0  0  0  0  0  0  0  0
  -31.8100  -14.6980   19.6520 O   0  0  0  0  0  0  0  0  0  0  0  0
  -25.3000  -13.9180   20.4240 C   0  0  0  0  0  0  0  0  0  0  0  0
  -24.2420  -13.1490   20.8280 C   0  0  0  0  0  0  0  0  0  0  0  0
  -24.6920  -11.7940   20.7650 C   0  0  0  0  0  0  0  0  0  0  0  0
  -26.3310  -13.0320   20.1470 N   0  0  0  0  0  0  0  0  0  0  0  0
  -25.9680  -11.7490   20.4040 N   0  0  0  0  0  0  0  0  0  0  0  0
  -23.9660  -10.5360   20.9730 C   0  0  0  0  0  0  0  0  0  0  0  0
  -24.4260   -9.5610   21.8870 C   0  0  0  0  0  3  0  0  0  0  0  0
  -23.7000   -8.3660   22.0820 C   0  0  0  0  0  3  0  0  0  0  0  0
  -22.5020   -8.1370   21.3660 C   0  0  0  0  0  0  0  0  0  0  0  0
  -22.0620   -9.0990   20.4410 C   0  0  0  0  0  3  0  0  0  0  0  0
  -22.7880  -10.2860   20.2420 C   0  0  0  0  0  3  0  0  0  0  0  0
  -21.7470   -6.9940   21.4710 O   0  0  0  0  0  0  0  0  0  0  0  0
  -21.7210   -6.2520   22.6250 C   0  0  0  0  0  0  0  0  0  0  0  0
  -21.3250   -6.8100   23.8620 C   0  0  0  0  0  3  0  0  0  0  0  0
  -21.2470   -5.9950   25.0080 C   0  0  0  0  0  3  0  0  0  0  0  0
  -21.5550   -4.6240   24.9210 C   0  0  0  0  0  0  0  0  0  0  0  0
  -21.9430   -4.0650   23.6900 C   0  0  0  0  0  3  0  0  0  0  0  0
  -22.0230   -4.8780   22.5450 C   0  0  0  0  0  0  0  0  0  0  0  0
  -22.3780   -4.3310   21.3570 F   0  0  0  0  0  0  0  0  0  0  0  0
  -21.4710   -3.8390   26.0200 F   0  0  0  0  0  0  0  0  0  0  0  0
  -22.8600  -13.6320   21.1640 C   0  0  0  0  0  0  0  0  0  0  0  0
  -22.1650  -12.9310   22.0520 N   0  0  0  0  0  0  0  0  0  0  0  0
  -22.4070  -14.6650   20.6730 O   0  0  0  0  0  0  0  0  0  0  0  0
  -22.5450  -12.0950   22.4710 H   0  0  0  0  0  0  0  0  0  0  0  0
  -21.2390  -13.2360   22.3190 H   0  0  0  0  0  0  0  0  0  0  0  0
  -25.4680  -15.2890   20.2530 N   0  0  0  0  0  0  0  0  0  0  0  0
  -24.7100  -15.9480   20.3970 H   0  0  0  0  0  0  0  0  0  0  0  0
  -26.3120  -15.7260   19.9040 H   0  0  0  0  0  0  0  0  0  0  0  0
  -30.8260  -23.4780   21.8230 C   0  0  0  0  0  1  0  0  0  0  0  0
  -29.5220  -23.1560   21.0620 C   0  0  0  0  0  3  0  0  0  0  0  0
  -29.0960  -24.3520   20.1570 C   0  0  0  0  0  2  0  0  0  0  0  0
  -28.4560  -25.5290   20.9330 C   0  0  0  0  0  2  0  0  0  0  0  0
  -28.4650  -26.7360   20.1630 O   0  0  0  0  0  0  0  0  0  0  0  0
  -24.5870  -31.8740   23.2290 C   0  0  0  0  0  0  0  0  0  0  0  0
  -27.2940  -27.4560   20.1840 C   0  0  0  0  0  0  0  0  0  0  0  0
  -23.4110  -30.4750   21.5610 C   0  0  0  0  0  3  0  0  0  0  0  0
  -24.8930  -28.9410   20.1600 C   0  0  0  0  0  0  0  0  0  0  0  0
  -25.9360  -30.8440   21.4050 C   0  0  0  0  0  2  0  0  0  0  0  0
  -26.0380  -29.4740   20.7670 C   0  0  0  0  0  0  0  0  0  0  0  0
  -27.2460  -28.7390   20.7720 C   0  0  0  0  0  3  0  0  0  0  0  0
  -26.1340  -26.9300   19.5790 C   0  0  0  0  0  3  0  0  0  0  0  0
  -24.9340  -27.6670   19.5650 C   0  0  0  0  0  3  0  0  0  0  0  0
  -23.6460  -29.7970   20.1850 C   0  0  0  0  0  2  0  0  0  0  0  0
  -24.6630  -31.0790   22.1250 N   0  0  0  0  0  0  0  0  0  0  0  0
  -23.4970  -32.1420   23.7520 O   0  0  0  0  0  0  0  0  0  0  0  0
  -22.7450  -29.4510   22.5080 C   0  0  0  0  0  0  0  0  0  0  0  0
  -21.4210  -29.2750   22.3630 N   0  0  0  0  0  0  0  0  0  0  0  0
  -23.4160  -28.8170   23.3260 O   0  0  0  0  0  0  0  0  0  0  0  0
  -20.9420  -29.8380   21.6740 H   0  0  0  0  0  0  0  0  0  0  0  0
  -18.0340  -28.1060   22.8200 C   0  0  0  0  0  0  0  0  0  0  0  0
  -20.5910  -28.3360   23.1160 C   0  0  0  0  0  3  0  0  0  0  0  0
  -20.6850  -26.9110   22.5220 C   0  0  0  0  0  2  0  0  0  0  0  0
  -19.5880  -26.6110   21.4960 C   0  0  0  0  0  2  0  0  0  0  0  0
  -18.2030  -26.7630   22.1290 C   0  0  0  0  0  2  0  0  0  0  0  0
  -19.1560  -28.8520   23.2680 C   0  0  0  0  0  0  0  0  0  0  0  0
  -18.9450  -30.1110   23.8710 C   0  0  0  0  0  3  0  0  0  0  0  0
  -17.6440  -30.6240   24.0310 C   0  0  0  0  0  3  0  0  0  0  0  0
  -16.5360  -29.8740   23.5990 C   0  0  0  0  0  3  0  0  0  0  0  0
  -16.7320  -28.6180   23.0000 C   0  0  0  0  0  3  0  0  0  0  0  0
  -25.8620  -32.5030   23.8740 C   0  0  0  0  0  3  0  0  0  0  0  0
  -25.5490  -33.9000   24.2010 N   0  0  0  0  0  0  0  0  0  0  0  0
  -25.8950  -34.9530   23.4490 C   0  0  0  0  0  0  0  0  0  0  0  0
  -26.5840  -34.8510   22.4300 O   0  0  0  0  0  0  0  0  0  0  0  0
  -24.9390  -34.0540   24.9910 H   0  0  0  0  0  0  0  0  0  0  0  0
  -24.1730  -36.7450   23.0620 C   0  0  0  0  0  1  0  0  0  0  0  0
  -25.3980  -36.3410   23.8980 C   0  0  0  0  0  3  0  0  0  0  0  0
  -27.5180  -37.2230   24.7710 C   0  0  0  0  0  1  0  0  0  0  0  0
  -26.4330  -37.3950   23.8080 N   0  0  0  0  0  0  0  0  0  0  0  0
  -26.0240  -38.3130   23.9530 H   0  0  0  0  0  0  0  0  0  0  0  0
  -26.3600  -31.7270   25.1540 C   0  0  1  0  0  0  0  0  0  0  0  0
  -25.2510  -31.4820   26.2030 C   0  0  0  0  0  1  0  0  0  0  0  0
  -26.9510  -30.3510   24.7630 C   0  0  0  0  0  1  0  0  0  0  0  0
  -27.4990  -32.5190   25.8380 C   0  0  0  0  0  1  0  0  0  0  0  0
  1 48  1  0
  1  2  1  0
  2  4  1  0
  3  1  2  0
  5  8  1  0
  5  6  2  0
  6  2  1  0
  6  9  1  0
  7 10  1  0
  7  9  1  0
  8  7  2  0
 11 10  1  0
 12 17  1  0
 13 14  1  0
 13 12  1  0
 15 14  1  0
 15 22  1  0
 15 16  1  0
 17 11  1  0
 17 16  1  0
 18 11  2  0
 19 20  2  0
 20 39  1  0
 21 20  1  0
 21 24  1  0
 22 23  1  0
 22 19  1  0
 23 21  2  0
 24 25  1  0
 25 26  2  0
 27 30  1  0
 27 26  1  0
 28 27  2  0
 29 28  1  0
 29 24  2  0
 30 31  1  0
 31 32  1  0
 32 33  2  0
 34 33  1  0
 34 38  1  0
 35 34  2  0
 36 31  2  0
 36 35  1  0
 37 36  1  0
 39 40  1  0
 40 43  1  0
 40 42  1  0
 41 39  2  0
 44 45  1  0
 44 19  1  0
 46 44  1  0
 48 47  1  0
 49 50  1  0
 49 48  1  0
 51 53  1  0
 51 50  1  0
 52 63  2  0
 53 58  1  0
 54 62  1  0
 54 64  1  0
 55 61  1  0
 55 57  1  0
 56 62  1  0
 57 58  2  0
 57 56  1  0
 59 53  2  0
 60 59  1  0
 60 55  2  0
 61 54  1  0
 62 52  1  0
 64 66  2  0
 65 64  1  0
 67 65  1  0
 68 77  2  0
 68 73  1  0
 69 65  1  0
 69 73  1  0
 70 69  1  0
 71 72  1  0
 71 70  1  0
 72 68  1  0
 73 74  2  0
 74 75  1  0
 76 75  2  0
 77 76  1  0
 78 52  1  0
 78 79  1  0
 78 88  1  0
 79 82  1  0
 80 84  1  0
 80 79  1  0
 81 80  2  0
 84 83  1  0
 86 84  1  0
 86 87  1  0
 86 85  1  0
 88 91  1  1
 88 89  1  0
 90 88  1  0
M  ISO  4  10 100  11 100  50 101  51 101
M  END
>  <TORSDO>  (41) 
F 21

>  <SCORE>  (41) 
-13.200

>  <name>  (41) 
41

>  <ligand_id>  (41) 
41

>  <original_smiles>  (41) 
[H]c1nc(C([H])([H])C(=O)N2C([H])([H])C([H])([H])C([H])([H])C([H])(n3nc(-c4c([H])c([H])c(Oc5c([H])c([H])c(F)c([H])c5F)c([H])c4[H])c(C(=O)N([H])[H])c3N([H])[H])C2([H])[H])sc1N([H])C(=O)C([H])(C([H])([H])[H])C([H])([H])C([H])([H])Oc1c([H])c([H])c2c(c1[H])C([H])([H])N(C(=O)C([H])(N([H])C(=O)C([H])(N([H])C([H])([H])[H])C([H])([H])[H])C(C([H])([H])[H])(C([H])([H])[H])C([H])([H])[H])C([H])(C(=O)N([H])C1([H])c3c([H])c([H])c([H])c([H])c3C([H])([H])C([H])([H])C1([H])[H])C2([H])[H]

>  <smiles>  (41) 
[H]c1nc(C([H])([H])C(=O)N2C([H])([H])C([H])([H])C([H])([H])C([H])(n3nc(-c4c([H])c([H])c(Oc5c([H])c([H])c(F)c([H])c5F)c([H])c4[H])c(C(=O)N([H])[H])c3N([H])[H])C2([H])[H])sc1N([H])C(=O)C([H])(C([H])([H])[H])C([H])([H])C([H])([H])Oc1c([H])c([H])c2c(c1[H])C([H])([H])N(C(=O)C([H])(N([H])C(=O)C([H])(N([H])C([H])([H])[H])C([H])([H])[H])C(C([H])([H])[H])(C([H])([H])[H])C([H])([H])[H])C([H])(C(=O)N([H])C1([H])c3c([H])c([H])c([H])c([H])c3C([H])([H])C([H])([H])C1([H])[H])C2([H])[H]

$$$$
42:0:0
     RDKit          3D

 93101  0  0  1  0  0  0  0  0999 V2000
  -30.6260  -14.7980   20.5010 C   0  0  0  0  0  0  0  0  0  0  0  0
  -30.4250  -12.5410   19.4520 C   0  0  0  0  0  2  0  0  0  0  0  0
  -29.5200  -12.6680   18.2050 C   0  0  0  0  0  2  0  0  0  0  0  0
  -28.0360  -12.5160   18.5920 C   0  0  0  0  0  2  0  0  0  0  0  0
  -27.6500  -13.3690   19.8290 C   0  0  0  0  0  3  0  0  0  0  0  0
  -28.6790  -13.2250   20.9730 C   0  0  0  0  0  2  0  0  0  0  0  0
  -29.9960  -13.5730   20.4270 N   0  0  0  0  0  0  0  0  0  0  0  0
  -31.8190  -14.8770   20.1860 O   0  0  0  0  0  0  0  0  0  0  0  0
  -29.8900  -18.5440   18.1190 C   0  0  0  0  0  3  0  0  0  0  0  0
  -30.0050  -17.3080   18.7710 C   0  0  0  0  0  0  0  0  0  0  0  0
  -29.8580  -17.2810   20.1750 C   0  0  0  0  0  0  0  0  0  0  0  0
  -29.4980  -19.6810   20.0720 C   0  0  0  0  0  0  0  0  0  0  0  0
  -29.6330  -19.6990   18.7610 N   0  0  0  0  0  0  0  0  0  0  0  0
  -29.5720  -18.5140   20.7960 N   0  0  0  0  0  0  0  0  0  0  0  0
  -29.8740  -15.9300   20.8080 N   0  0  0  0  0  0  0  0  0  0  0  0
  -29.1870  -20.9640   20.6690 N   0  0  0  0  0  4  0  0  0  0  0  0
  -30.1940  -16.1810   18.0420 F   0  0  0  0  0  0  0  0  0  0  0  0
  -29.0380  -15.7290   21.3310 H   0  0  0  0  0  0  0  0  0  0  0  0
  -28.9710  -20.8700   21.6550 H   0  0  0  0  0  0  0  0  0  0  0  0
  -25.2380  -13.9720   20.4590 C   0  0  0  0  0  0  0  0  0  0  0  0
  -24.1630  -13.2040   20.8120 C   0  0  0  0  0  0  0  0  0  0  0  0
  -24.6290  -11.8530   20.8320 C   0  0  0  0  0  0  0  0  0  0  0  0
  -26.2910  -13.0900   20.2800 N   0  0  0  0  0  0  0  0  0  0  0  0
  -25.9300  -11.8120   20.5690 N   0  0  0  0  0  0  0  0  0  0  0  0
  -23.8990  -10.5940   21.0280 C   0  0  0  0  0  0  0  0  0  0  0  0
  -24.3120   -9.6420   21.9870 C   0  0  0  0  0  3  0  0  0  0  0  0
  -23.5800   -8.4490   22.1700 C   0  0  0  0  0  3  0  0  0  0  0  0
  -22.4230   -8.1990   21.3950 C   0  0  0  0  0  0  0  0  0  0  0  0
  -22.0300   -9.1390   20.4270 C   0  0  0  0  0  3  0  0  0  0  0  0
  -22.7610  -10.3240   20.2420 C   0  0  0  0  0  3  0  0  0  0  0  0
  -21.6650   -7.0560   21.4880 O   0  0  0  0  0  0  0  0  0  0  0  0
  -21.6000   -6.3270   22.6490 C   0  0  0  0  0  0  0  0  0  0  0  0
  -21.1620   -6.8980   23.8630 C   0  0  0  0  0  3  0  0  0  0  0  0
  -21.0430   -6.0960   25.0150 C   0  0  0  0  0  3  0  0  0  0  0  0
  -21.3540   -4.7240   24.9550 C   0  0  0  0  0  0  0  0  0  0  0  0
  -21.7870   -4.1530   23.7450 C   0  0  0  0  0  3  0  0  0  0  0  0
  -21.9060   -4.9520   22.5950 C   0  0  0  0  0  0  0  0  0  0  0  0
  -22.3030   -4.3930   21.4260 F   0  0  0  0  0  0  0  0  0  0  0  0
  -21.2320   -3.9510   26.0600 F   0  0  0  0  0  0  0  0  0  0  0  0
  -22.7560  -13.6830   21.0230 C   0  0  0  0  0  0  0  0  0  0  0  0
  -22.0040  -13.0120   21.8880 N   0  0  0  0  0  0  0  0  0  0  0  0
  -22.3330  -14.6900   20.4550 O   0  0  0  0  0  0  0  0  0  0  0  0
  -22.3600  -12.1980   22.3670 H   0  0  0  0  0  0  0  0  0  0  0  0
  -21.0590  -13.3160   22.0760 H   0  0  0  0  0  0  0  0  0  0  0  0
  -25.4060  -15.3380   20.2470 N   0  0  0  0  0  0  0  0  0  0  0  0
  -24.6270  -15.9850   20.2980 H   0  0  0  0  0  0  0  0  0  0  0  0
  -26.2490  -15.7650   19.8850 H   0  0  0  0  0  0  0  0  0  0  0  0
  -30.3750  -22.5100   18.9740 C   0  0  0  0  0  1  0  0  0  0  0  0
  -29.5970  -22.4080   20.3000 C   0  0  0  0  0  0  0  0  0  0  0  0
  -28.5400  -23.6650   20.4640 C   0  0  0  0  0  2  0  0  0  0  0  0
  -28.6640  -25.2880   18.3540 C   0  0  0  0  0  1  0  0  0  0  0  0
  -28.8730  -25.1690   19.8810 C   0  0  0  0  0  3  0  0  0  0  0  0
  -28.5530  -26.4910   20.5410 O   0  0  0  0  0  0  0  0  0  0  0  0
  -24.6530  -31.9570   23.2750 C   0  0  0  0  0  0  0  0  0  0  0  0
  -27.3990  -27.3030   20.4120 C   0  0  0  0  0  0  0  0  0  0  0  0
  -23.5070  -30.4890   21.6540 C   0  0  0  0  0  3  0  0  0  0  0  0
  -25.0090  -28.9080   20.3060 C   0  0  0  0  0  0  0  0  0  0  0  0
  -26.0470  -30.8290   21.5160 C   0  0  0  0  0  2  0  0  0  0  0  0
  -26.1590  -29.4280   20.9110 C   0  0  0  0  0  0  0  0  0  0  0  0
  -27.3520  -28.6370   20.9510 C   0  0  0  0  0  3  0  0  0  0  0  0
  -26.2140  -26.8360   19.8070 C   0  0  0  0  0  3  0  0  0  0  0  0
  -25.0420  -27.6200   19.7450 C   0  0  0  0  0  3  0  0  0  0  0  0
  -23.7600  -29.7690   20.3020 C   0  0  0  0  0  2  0  0  0  0  0  0
  -24.7540  -31.1120   22.2040 N   0  0  0  0  0  0  0  0  0  0  0  0
  -23.5530  -32.2350   23.7760 O   0  0  0  0  0  0  0  0  0  0  0  0
  -22.8350  -29.4980   22.6340 C   0  0  0  0  0  0  0  0  0  0  0  0
  -21.5130  -29.3050   22.4900 N   0  0  0  0  0  0  0  0  0  0  0  0
  -23.5040  -28.9020   23.4830 O   0  0  0  0  0  0  0  0  0  0  0  0
  -21.0320  -29.8360   21.7790 H   0  0  0  0  0  0  0  0  0  0  0  0
  -18.1330  -28.1140   22.9920 C   0  0  0  0  0  0  0  0  0  0  0  0
  -20.6890  -28.3790   23.2720 C   0  0  0  0  0  3  0  0  0  0  0  0
  -20.7950  -26.9380   22.7220 C   0  0  0  0  0  2  0  0  0  0  0  0
  -19.6990  -26.5980   21.7070 C   0  0  0  0  0  2  0  0  0  0  0  0
  -18.3140  -26.7530   22.3410 C   0  0  0  0  0  2  0  0  0  0  0  0
  -19.2480  -28.8840   23.4160 C   0  0  0  0  0  0  0  0  0  0  0  0
  -19.0240  -30.1560   23.9850 C   0  0  0  0  0  3  0  0  0  0  0  0
  -17.7180  -30.6580   24.1360 C   0  0  0  0  0  3  0  0  0  0  0  0
  -16.6170  -29.8860   23.7290 C   0  0  0  0  0  3  0  0  0  0  0  0
  -16.8250  -28.6150   23.1630 C   0  0  0  0  0  3  0  0  0  0  0  0
  -25.9100  -32.6290   23.9060 C   0  0  0  0  0  3  0  0  0  0  0  0
  -25.5660  -34.0270   24.2060 N   0  0  0  0  0  0  0  0  0  0  0  0
  -25.9010  -35.0750   23.4410 C   0  0  0  0  0  0  0  0  0  0  0  0
  -26.5980  -34.9680   22.4290 O   0  0  0  0  0  0  0  0  0  0  0  0
  -24.9460  -34.1830   24.9870 H   0  0  0  0  0  0  0  0  0  0  0  0
  -24.1570  -36.8370   23.0100 C   0  0  0  0  0  1  0  0  0  0  0  0
  -25.3780  -36.4620   23.8650 C   0  0  0  0  0  3  0  0  0  0  0  0
  -27.4720  -37.3910   24.7490 C   0  0  0  0  0  1  0  0  0  0  0  0
  -26.3970  -37.5290   23.7700 N   0  0  0  0  0  0  0  0  0  0  0  0
  -25.9720  -38.4450   23.8930 H   0  0  0  0  0  0  0  0  0  0  0  0
  -26.4180  -31.8950   25.2090 C   0  0  1  0  0  0  0  0  0  0  0  0
  -25.3060  -31.6350   26.2510 C   0  0  0  0  0  1  0  0  0  0  0  0
  -27.0610  -30.5340   24.8560 C   0  0  0  0  0  1  0  0  0  0  0  0
  -27.5230  -32.7390   25.8900 C   0  0  0  0  0  1  0  0  0  0  0  0
  1 15  1  0
  2  7  1  0
  3  4  1  0
  3  2  1  0
  5  4  1  0
  5 23  1  0
  5  6  1  0
  7  1  1  0
  7  6  1  0
  8  1  2  0
  9 13  1  0
  9 10  2  0
 10 11  1  0
 11 14  2  0
 11 15  1  0
 12 16  1  0
 12 14  1  0
 13 12  2  0
 15 18  1  0
 16 19  1  0
 17 10  1  0
 20 21  2  0
 21 22  1  0
 21 40  1  0
 22 25  1  0
 23 20  1  0
 23 24  1  0
 24 22  2  0
 25 26  1  0
 26 27  2  0
 28 31  1  0
 28 27  1  0
 29 28  2  0
 30 29  1  0
 30 25  2  0
 31 32  1  0
 32 33  1  0
 33 34  2  0
 35 34  1  0
 35 39  1  0
 36 35  2  0
 37 32  2  0
 37 36  1  0
 38 37  1  0
 40 41  1  0
 41 44  1  0
 41 43  1  0
 42 40  2  0
 45 46  1  0
 45 20  1  0
 47 45  1  0
 48 49  1  0
 49 50  1  0
 49 16  2  0
 52 51  1  0
 52 50  1  0
 52 53  1  0
 54 65  2  0
 55 53  1  0
 55 60  1  0
 56 64  1  0
 56 66  1  0
 57 59  1  0
 58 64  1  0
 59 60  2  0
 59 58  1  0
 61 55  2  0
 62 61  1  0
 62 57  2  0
 63 57  1  0
 63 56  1  0
 64 54  1  0
 66 68  2  0
 67 66  1  0
 69 67  1  0
 70 79  2  0
 70 75  1  0
 71 67  1  0
 71 75  1  0
 72 71  1  0
 73 74  1  0
 73 72  1  0
 74 70  1  0
 75 76  2  0
 76 77  1  0
 78 77  2  0
 79 78  1  0
 80 54  1  0
 80 81  1  0
 80 90  1  0
 81 84  1  0
 82 86  1  0
 82 81  1  0
 83 82  2  0
 86 85  1  0
 88 86  1  0
 88 89  1  0
 88 87  1  0
 90 93  1  1
 90 91  1  0
 92 90  1  0
M  ISO  4   1 100  15 100  52 101  53 101
M  END
>  <TORSDO>  (42) 
F 18

>  <SCORE>  (42) 
-14.365

>  <name>  (42) 
42

>  <ligand_id>  (42) 
42

>  <original_smiles>  (42) 
[H]c1nc(N([H])C([H])(C([H])([H])[H])C([H])([H])C([H])(Oc2c([H])c([H])c3c(c2[H])C([H])([H])N(C(=O)C([H])(N([H])C(=O)C([H])(N([H])C([H])([H])[H])C([H])([H])[H])C(C([H])([H])[H])(C([H])([H])[H])C([H])([H])[H])C([H])(C(=O)N([H])C2([H])c4c([H])c([H])c([H])c([H])c4C([H])([H])C([H])([H])C2([H])[H])C3([H])[H])C([H])([H])[H])nc(N([H])C(=O)N2C([H])([H])C([H])([H])C([H])([H])C([H])(n3nc(-c4c([H])c([H])c(Oc5c([H])c([H])c(F)c([H])c5F)c([H])c4[H])c(C(=O)N([H])[H])c3N([H])[H])C2([H])[H])c1F

>  <smiles>  (42) 
[H]c1nc(N([H])C([H])(C([H])([H])[H])C([H])([H])C([H])(Oc2c([H])c([H])c3c(c2[H])C([H])([H])N(C(=O)C([H])(N([H])C(=O)C([H])(N([H])C([H])([H])[H])C([H])([H])[H])C(C([H])([H])[H])(C([H])([H])[H])C([H])([H])[H])C([H])(C(=O)N([H])C2([H])c4c([H])c([H])c([H])c([H])c4C([H])([H])C([H])([H])C2([H])[H])C3([H])[H])C([H])([H])[H])nc(N([H])C(=O)N2C([H])([H])C([H])([H])C([H])([H])C([H])(n3nc(-c4c([H])c([H])c(Oc5c([H])c([H])c(F)c([H])c5F)c([H])c4[H])c(C(=O)N([H])[H])c3N([H])[H])C2([H])[H])c1F

$$$$
43:0:0
     RDKit          3D

 91 99  0  0  1  0  0  0  0  0999 V2000
  -29.8820  -18.5400   19.9170 C   0  0  0  0  0  0  0  0  0  0  0  0
  -30.4370  -19.4430   19.0170 C   0  0  0  0  0  0  0  0  0  0  0  0
  -29.1940  -21.0460   20.1490 C   0  0  0  0  0  0  0  0  0  0  0  0
  -31.4160  -19.1450   17.9190 C   0  0  0  0  0  1  0  0  0  0  0  0
  -30.0580  -20.7980   19.1670 N   0  0  0  0  0  0  0  0  0  0  0  0
  -28.7010  -22.3710   20.4420 N   0  0  0  0  0  0  0  0  0  0  0  0
  -28.7910  -19.4820   20.9860 S   0  0  0  0  0  0  0  0  0  0  0  0
  -28.0490  -22.3590   21.2200 H   0  0  0  0  0  0  0  0  0  0  0  0
  -30.2340  -17.0490   19.9410 C   0  0  0  0  0  3  0  0  0  0  0  0
  -29.8730  -15.9720   20.6120 N   0  0  0  0  0  0  0  0  0  0  0  0
  -30.6280  -14.7680   20.3530 C   0  0  0  0  0  0  0  0  0  0  0  0
  -30.3840  -12.4920   19.3620 C   0  0  0  0  0  2  0  0  0  0  0  0
  -29.4660  -12.5930   18.1250 C   0  0  0  0  0  2  0  0  0  0  0  0
  -27.9920  -12.4290   18.5390 C   0  0  0  0  0  2  0  0  0  0  0  0
  -27.6140  -13.3230   19.7510 C   0  0  0  0  0  3  0  0  0  0  0  0
  -28.6600  -13.2390   20.8800 C   0  0  0  0  0  2  0  0  0  0  0  0
  -29.9720  -13.5580   20.3060 N   0  0  0  0  0  0  0  0  0  0  0  0
  -31.8130  -14.7810   20.0100 O   0  0  0  0  0  0  0  0  0  0  0  0
  -25.2280  -13.9190   20.4740 C   0  0  0  0  0  0  0  0  0  0  0  0
  -24.1600  -13.1470   20.8430 C   0  0  0  0  0  0  0  0  0  0  0  0
  -24.6220  -11.7950   20.8170 C   0  0  0  0  0  0  0  0  0  0  0  0
  -26.2700  -13.0370   20.2400 N   0  0  0  0  0  0  0  0  0  0  0  0
  -25.9120  -11.7550   20.5110 N   0  0  0  0  0  0  0  0  0  0  0  0
  -23.8930  -10.5340   21.0100 C   0  0  0  0  0  0  0  0  0  0  0  0
  -24.3150   -9.5730   21.9550 C   0  0  0  0  0  3  0  0  0  0  0  0
  -23.5870   -8.3770   22.1350 C   0  0  0  0  0  3  0  0  0  0  0  0
  -22.4220   -8.1340   21.3690 C   0  0  0  0  0  0  0  0  0  0  0  0
  -22.0190   -9.0830   20.4120 C   0  0  0  0  0  3  0  0  0  0  0  0
  -22.7470  -10.2710   20.2320 C   0  0  0  0  0  3  0  0  0  0  0  0
  -21.6650   -6.9910   21.4570 O   0  0  0  0  0  0  0  0  0  0  0  0
  -21.5940   -6.2630   22.6170 C   0  0  0  0  0  0  0  0  0  0  0  0
  -21.1250   -6.8280   23.8230 C   0  0  0  0  0  3  0  0  0  0  0  0
  -21.0030   -6.0240   24.9760 C   0  0  0  0  0  3  0  0  0  0  0  0
  -21.3380   -4.6580   24.9210 C   0  0  0  0  0  0  0  0  0  0  0  0
  -21.7970   -4.0930   23.7180 C   0  0  0  0  0  3  0  0  0  0  0  0
  -21.9220   -4.8930   22.5700 C   0  0  0  0  0  0  0  0  0  0  0  0
  -22.3460   -4.3380   21.4070 F   0  0  0  0  0  0  0  0  0  0  0  0
  -21.2130   -3.8850   26.0240 F   0  0  0  0  0  0  0  0  0  0  0  0
  -22.7640  -13.6270   21.1100 C   0  0  0  0  0  0  0  0  0  0  0  0
  -22.0320  -12.9320   21.9720 N   0  0  0  0  0  0  0  0  0  0  0  0
  -22.3300  -14.6540   20.5880 O   0  0  0  0  0  0  0  0  0  0  0  0
  -22.3950  -12.1020   22.4160 H   0  0  0  0  0  0  0  0  0  0  0  0
  -21.0920  -13.2330   22.1930 H   0  0  0  0  0  0  0  0  0  0  0  0
  -25.3990  -15.2880   20.2970 N   0  0  0  0  0  0  0  0  0  0  0  0
  -24.6470  -15.9550   20.4220 H   0  0  0  0  0  0  0  0  0  0  0  0
  -26.2750  -15.7180   20.0260 H   0  0  0  0  0  0  0  0  0  0  0  0
  -28.8830  -23.8170   18.4190 C   0  0  0  0  0  1  0  0  0  0  0  0
  -28.9660  -23.7840   19.9530 C   0  0  0  0  0  3  0  0  0  0  0  0
  -28.0840  -24.9760   22.0810 C   0  0  0  0  0  1  0  0  0  0  0  0
  -28.0530  -24.9850   20.5460 C   0  0  0  0  0  3  0  0  0  0  0  0
  -28.3250  -26.4180   20.1590 O   0  0  0  0  0  0  0  0  0  0  0  0
  -24.6050  -31.8680   23.2110 C   0  0  0  0  0  0  0  0  0  0  0  0
  -27.2410  -27.3220   20.1250 C   0  0  0  0  0  0  0  0  0  0  0  0
  -23.4230  -30.4930   21.5380 C   0  0  0  0  0  3  0  0  0  0  0  0
  -24.8920  -28.9660   20.1000 C   0  0  0  0  0  0  0  0  0  0  0  0
  -25.9670  -30.8060   21.3900 C   0  0  0  0  0  2  0  0  0  0  0  0
  -26.0560  -29.4330   20.7260 C   0  0  0  0  0  0  0  0  0  0  0  0
  -27.2360  -28.6230   20.7290 C   0  0  0  0  0  3  0  0  0  0  0  0
  -26.0640  -26.9340   19.4470 C   0  0  0  0  0  3  0  0  0  0  0  0
  -24.9010  -27.7250   19.4470 C   0  0  0  0  0  3  0  0  0  0  0  0
  -23.6540  -29.8420   20.1500 C   0  0  0  0  0  2  0  0  0  0  0  0
  -24.6830  -31.0730   22.1040 N   0  0  0  0  0  0  0  0  0  0  0  0
  -23.5140  -32.1370   23.7340 O   0  0  0  0  0  0  0  0  0  0  0  0
  -22.7500  -29.4600   22.4750 C   0  0  0  0  0  0  0  0  0  0  0  0
  -21.4240  -29.2900   22.3380 N   0  0  0  0  0  0  0  0  0  0  0  0
  -23.4210  -28.8180   23.2870 O   0  0  0  0  0  0  0  0  0  0  0  0
  -20.9400  -29.8620   21.6600 H   0  0  0  0  0  0  0  0  0  0  0  0
  -18.0350  -28.1260   22.8350 C   0  0  0  0  0  0  0  0  0  0  0  0
  -20.5990  -28.3410   23.0860 C   0  0  0  0  0  3  0  0  0  0  0  0
  -20.6740  -26.9260   22.4660 C   0  0  0  0  0  2  0  0  0  0  0  0
  -19.5570  -26.6510   21.4540 C   0  0  0  0  0  2  0  0  0  0  0  0
  -18.1830  -26.7970   22.1160 C   0  0  0  0  0  2  0  0  0  0  0  0
  -19.1680  -28.8580   23.2770 C   0  0  0  0  0  0  0  0  0  0  0  0
  -18.9740  -30.1060   23.9090 C   0  0  0  0  0  3  0  0  0  0  0  0
  -17.6770  -30.6200   24.1060 C   0  0  0  0  0  3  0  0  0  0  0  0
  -16.5590  -29.8830   23.6780 C   0  0  0  0  0  3  0  0  0  0  0  0
  -16.7370  -28.6390   23.0480 C   0  0  0  0  0  3  0  0  0  0  0  0
  -25.8780  -32.4950   23.8580 C   0  0  0  0  0  3  0  0  0  0  0  0
  -26.3720  -31.7150   25.1380 C   0  0  1  0  0  0  0  0  0  0  0  0
  -25.2620  -31.4680   26.1860 C   0  0  0  0  0  1  0  0  0  0  0  0
  -26.9620  -30.3400   24.7460 C   0  0  0  0  0  1  0  0  0  0  0  0
  -27.5120  -32.5040   25.8250 C   0  0  0  0  0  1  0  0  0  0  0  0
  -25.5650  -33.8930   24.1950 N   0  0  0  0  0  0  0  0  0  0  0  0
  -25.9020  -34.9510   23.4450 C   0  0  0  0  0  0  0  0  0  0  0  0
  -26.5830  -34.8550   22.4210 O   0  0  0  0  0  0  0  0  0  0  0  0
  -24.9730  -34.0440   24.9990 H   0  0  0  0  0  0  0  0  0  0  0  0
  -24.1870  -36.7510   23.0710 C   0  0  0  0  0  1  0  0  0  0  0  0
  -25.4090  -36.3370   23.9060 C   0  0  0  0  0  3  0  0  0  0  0  0
  -27.5250  -37.2100   24.7930 C   0  0  0  0  0  1  0  0  0  0  0  0
  -26.4460  -37.3880   23.8240 N   0  0  0  0  0  0  0  0  0  0  0  0
  -26.0390  -38.3070   23.9710 H   0  0  0  0  0  0  0  0  0  0  0  0
  1  9  1  0
  1  7  1  0
  2  5  1  0
  2  1  2  0
  3  6  1  0
  3  7  1  0
  4  2  1  0
  5  3  2  0
  6  8  1  0
  9 10  2  0
 11 10  1  0
 12 17  1  0
 13 14  1  0
 13 12  1  0
 15 14  1  0
 15 22  1  0
 15 16  1  0
 17 11  1  0
 17 16  1  0
 18 11  2  0
 19 20  2  0
 20 39  1  0
 21 20  1  0
 21 24  1  0
 22 19  1  0
 22 23  1  0
 23 21  2  0
 24 25  1  0
 25 26  2  0
 27 30  1  0
 27 26  1  0
 28 27  2  0
 29 28  1  0
 29 24  2  0
 30 31  1  0
 31 32  1  0
 32 33  2  0
 34 33  1  0
 34 38  1  0
 35 34  2  0
 36 31  2  0
 36 35  1  0
 37 36  1  0
 39 40  1  0
 40 43  1  0
 40 42  1  0
 41 39  2  0
 44 45  1  0
 44 19  1  0
 46 44  1  0
 48 47  1  0
 48  6  1  0
 48 50  1  0
 50 49  1  0
 51 50  1  0
 52 63  2  0
 53 51  1  0
 53 58  1  0
 54 62  1  0
 54 64  1  0
 55 61  1  0
 55 57  1  0
 56 62  1  0
 57 58  2  0
 57 56  1  0
 59 53  2  0
 60 59  1  0
 60 55  2  0
 61 54  1  0
 62 52  1  0
 64 66  2  0
 65 64  1  0
 67 65  1  0
 68 77  2  0
 68 73  1  0
 69 65  1  0
 69 73  1  0
 70 69  1  0
 71 72  1  0
 71 70  1  0
 72 68  1  0
 73 74  2  0
 74 75  1  0
 76 75  2  0
 77 76  1  0
 78 52  1  0
 78 83  1  0
 78 79  1  0
 79 82  1  1
 79 80  1  0
 81 79  1  0
 83 86  1  0
 84 88  1  0
 84 83  1  0
 85 84  2  0
 88 87  1  0
 90 88  1  0
 90 91  1  0
 90 89  1  0
M  ISO  4  10 100  11 100  50 101  51 101
M  END
>  <TORSDO>  (43) 
F 19

>  <SCORE>  (43) 
-13.907

>  <name>  (43) 
43

>  <ligand_id>  (43) 
43

>  <original_smiles>  (43) 
[H]C(=NC(=O)N1C([H])([H])C([H])([H])C([H])([H])C([H])(n2nc(-c3c([H])c([H])c(Oc4c([H])c([H])c(F)c([H])c4F)c([H])c3[H])c(C(=O)N([H])[H])c2N([H])[H])C1([H])[H])c1sc(N([H])C([H])(C([H])([H])[H])C([H])(Oc2c([H])c([H])c3c(c2[H])C([H])([H])N(C(=O)C([H])(N([H])C(=O)C([H])(N([H])C([H])([H])[H])C([H])([H])[H])C(C([H])([H])[H])(C([H])([H])[H])C([H])([H])[H])C([H])(C(=O)N([H])C2([H])c4c([H])c([H])c([H])c([H])c4C([H])([H])C([H])([H])C2([H])[H])C3([H])[H])C([H])([H])[H])nc1C([H])([H])[H]

>  <smiles>  (43) 
[H]C(=NC(=O)N1C([H])([H])C([H])([H])C([H])([H])C([H])(n2nc(-c3c([H])c([H])c(Oc4c([H])c([H])c(F)c([H])c4F)c([H])c3[H])c(C(=O)N([H])[H])c2N([H])[H])C1([H])[H])c1sc(N([H])C([H])(C([H])([H])[H])C([H])(Oc2c([H])c([H])c3c(c2[H])C([H])([H])N(C(=O)C([H])(N([H])C(=O)C([H])(N([H])C([H])([H])[H])C([H])([H])[H])C(C([H])([H])[H])(C([H])([H])[H])C([H])([H])[H])C([H])(C(=O)N([H])C2([H])c4c([H])c([H])c([H])c([H])c4C([H])([H])C([H])([H])C2([H])[H])C3([H])[H])C([H])([H])[H])nc1C([H])([H])[H]

$$$$
44:0:0
     RDKit          3D

 96104  0  0  1  0  0  0  0  0999 V2000
  -29.9610  -21.8080   20.8750 C   0  0  0  0  0  3  0  0  0  0  0  0
  -31.1900  -21.9010   20.0620 N   0  0  0  0  0  4  0  0  0  0  0  0
  -31.0160  -21.7460   19.0860 H   0  0  0  0  0  0  0  0  0  0  0  0
  -31.8600  -21.2180   20.3890 H   0  0  0  0  0  0  0  0  0  0  0  0
  -31.6010  -22.8130   20.1810 H   0  0  0  0  0  0  0  0  0  0  0  0
  -29.2900  -20.3990   20.7590 C   0  0  0  0  0  2  0  0  0  0  0  0
  -30.6100  -14.4980   20.1350 C   0  0  0  0  0  0  0  0  0  0  0  0
  -30.2130  -12.3790   18.9350 C   0  0  0  0  0  2  0  0  0  0  0  0
  -29.2050  -12.6230   17.7950 C   0  0  0  0  0  2  0  0  0  0  0  0
  -27.7570  -12.4850   18.3080 C   0  0  0  0  0  2  0  0  0  0  0  0
  -27.4990  -13.2880   19.6130 C   0  0  0  0  0  3  0  0  0  0  0  0
  -28.6210  -13.0330   20.6470 C   0  0  0  0  0  2  0  0  0  0  0  0
  -29.9080  -13.3410   20.0040 N   0  0  0  0  0  0  0  0  0  0  0  0
  -31.7250  -14.6600   19.6350 O   0  0  0  0  0  0  0  0  0  0  0  0
  -30.1310  -19.1410   20.9280 C   0  0  0  0  0  0  0  0  0  0  0  0
  -31.4740  -18.9940   21.1930 C   0  0  0  0  0  0  0  0  0  0  0  0
  -30.3780  -16.8560   20.8460 C   0  0  0  0  0  0  0  0  0  0  0  0
  -29.5130  -17.8820   20.7650 N   0  0  0  0  0  0  0  0  0  0  0  0
  -29.9200  -15.5250   20.6640 N   0  0  0  0  0  0  0  0  0  0  0  0
  -32.3330  -20.0230   21.3930 F   0  0  0  0  0  0  0  0  0  0  0  0
  -32.0370  -17.3510   21.2010 S   0  0  0  0  0  0  0  0  0  0  0  0
  -28.9500  -15.3500   20.8610 H   0  0  0  0  0  0  0  0  0  0  0  0
  -25.1460  -13.8820   20.4690 C   0  0  0  0  0  0  0  0  0  0  0  0
  -24.0990  -13.1000   20.8790 C   0  0  0  0  0  0  0  0  0  0  0  0
  -24.5560  -11.7500   20.7920 C   0  0  0  0  0  0  0  0  0  0  0  0
  -26.1740  -13.0050   20.1610 N   0  0  0  0  0  0  0  0  0  0  0  0
  -25.8270  -11.7170   20.4150 N   0  0  0  0  0  0  0  0  0  0  0  0
  -23.8400  -10.4830   20.9910 C   0  0  0  0  0  0  0  0  0  0  0  0
  -24.3010   -9.5100   21.9050 C   0  0  0  0  0  3  0  0  0  0  0  0
  -23.5860   -8.3070   22.0920 C   0  0  0  0  0  3  0  0  0  0  0  0
  -22.3950   -8.0690   21.3670 C   0  0  0  0  0  0  0  0  0  0  0  0
  -21.9510   -9.0330   20.4440 C   0  0  0  0  0  3  0  0  0  0  0  0
  -22.6670  -10.2260   20.2540 C   0  0  0  0  0  3  0  0  0  0  0  0
  -21.6480   -6.9210   21.4670 O   0  0  0  0  0  0  0  0  0  0  0  0
  -21.6170   -6.1790   22.6210 C   0  0  0  0  0  0  0  0  0  0  0  0
  -21.1880   -6.7300   23.8480 C   0  0  0  0  0  3  0  0  0  0  0  0
  -21.1050   -5.9150   24.9950 C   0  0  0  0  0  3  0  0  0  0  0  0
  -21.4410   -4.5510   24.9140 C   0  0  0  0  0  0  0  0  0  0  0  0
  -21.8640   -3.9990   23.6930 C   0  0  0  0  0  3  0  0  0  0  0  0
  -21.9490   -4.8110   22.5480 C   0  0  0  0  0  0  0  0  0  0  0  0
  -22.3360   -4.2710   21.3670 F   0  0  0  0  0  0  0  0  0  0  0  0
  -21.3550   -3.7650   26.0140 F   0  0  0  0  0  0  0  0  0  0  0  0
  -22.7180  -13.5700   21.2340 C   0  0  0  0  0  0  0  0  0  0  0  0
  -22.0340  -12.8520   22.1190 N   0  0  0  0  0  0  0  0  0  0  0  0
  -22.2560  -14.6120   20.7680 O   0  0  0  0  0  0  0  0  0  0  0  0
  -22.4210  -12.0090   22.5190 H   0  0  0  0  0  0  0  0  0  0  0  0
  -21.1100  -13.1480   22.3990 H   0  0  0  0  0  0  0  0  0  0  0  0
  -25.3020  -15.2540   20.3090 N   0  0  0  0  0  0  0  0  0  0  0  0
  -24.5410  -15.9040   20.4730 H   0  0  0  0  0  0  0  0  0  0  0  0
  -26.1240  -15.7000   19.9220 H   0  0  0  0  0  0  0  0  0  0  0  0
  -28.9550  -22.9190   20.4390 C   0  0  0  0  0  2  0  0  0  0  0  0
  -29.0540  -24.6090   22.3190 C   0  0  0  0  0  1  0  0  0  0  0  0
  -30.6260  -24.9220   20.3550 C   0  0  0  0  0  1  0  0  0  0  0  0
  -29.2310  -24.4230   20.7960 C   0  0  1  0  0  0  0  0  0  0  0  0
  -28.1640  -25.2940   20.0690 C   0  0  0  0  0  2  0  0  0  0  0  0
  -28.3270  -26.7160   20.2580 O   0  0  0  0  0  0  0  0  0  0  0  0
  -24.5860  -31.9500   23.3050 C   0  0  0  0  0  0  0  0  0  0  0  0
  -27.1760  -27.4800   20.2100 C   0  0  0  0  0  0  0  0  0  0  0  0
  -23.3660  -30.5610   21.6660 C   0  0  0  0  0  3  0  0  0  0  0  0
  -24.8000  -29.0270   20.2260 C   0  0  0  0  0  0  0  0  0  0  0  0
  -25.8960  -30.9000   21.4610 C   0  0  0  0  0  2  0  0  0  0  0  0
  -25.9670  -29.5320   20.8110 C   0  0  0  0  0  0  0  0  0  0  0  0
  -27.1600  -28.7680   20.7950 C   0  0  0  0  0  3  0  0  0  0  0  0
  -25.9890  -27.0070   19.6020 C   0  0  0  0  0  3  0  0  0  0  0  0
  -24.8080  -27.7670   19.6120 C   0  0  0  0  0  3  0  0  0  0  0  0
  -23.5650  -29.8940   20.2800 C   0  0  0  0  0  2  0  0  0  0  0  0
  -24.6350  -31.1490   22.2030 N   0  0  0  0  0  0  0  0  0  0  0  0
  -23.5080  -32.2260   23.8500 O   0  0  0  0  0  0  0  0  0  0  0  0
  -22.7150  -29.5360   22.6250 C   0  0  0  0  0  0  0  0  0  0  0  0
  -21.3930  -29.3410   22.4900 N   0  0  0  0  0  0  0  0  0  0  0  0
  -23.3980  -28.9190   23.4480 O   0  0  0  0  0  0  0  0  0  0  0  0
  -20.9040  -29.8940   21.8020 H   0  0  0  0  0  0  0  0  0  0  0  0
  -18.0230  -28.1220   22.9600 C   0  0  0  0  0  0  0  0  0  0  0  0
  -20.5750  -28.4050   23.2620 C   0  0  0  0  0  3  0  0  0  0  0  0
  -20.6970  -26.9690   22.7050 C   0  0  0  0  0  2  0  0  0  0  0  0
  -19.6130  -26.6240   21.6810 C   0  0  0  0  0  2  0  0  0  0  0  0
  -18.2200  -26.7650   22.3040 C   0  0  0  0  0  2  0  0  0  0  0  0
  -19.1290  -28.8990   23.3960 C   0  0  0  0  0  0  0  0  0  0  0  0
  -18.8920  -30.1670   23.9680 C   0  0  0  0  0  3  0  0  0  0  0  0
  -17.5820  -30.6580   24.1110 C   0  0  0  0  0  3  0  0  0  0  0  0
  -16.4900  -29.8800   23.6910 C   0  0  0  0  0  3  0  0  0  0  0  0
  -16.7110  -28.6140   23.1220 C   0  0  0  0  0  3  0  0  0  0  0  0
  -25.8790  -32.5730   23.9190 C   0  0  0  0  0  3  0  0  0  0  0  0
  -25.5790  -33.9740   24.2440 N   0  0  0  0  0  0  0  0  0  0  0  0
  -25.8970  -35.0190   23.4660 C   0  0  0  0  0  0  0  0  0  0  0  0
  -26.5420  -34.9030   22.4210 O   0  0  0  0  0  0  0  0  0  0  0  0
  -25.0060  -34.1380   25.0590 H   0  0  0  0  0  0  0  0  0  0  0  0
  -24.1550  -36.8020   23.1440 C   0  0  0  0  0  1  0  0  0  0  0  0
  -25.4240  -36.4130   23.9200 C   0  0  0  0  0  3  0  0  0  0  0  0
  -27.5820  -37.3110   24.6650 C   0  0  0  0  0  1  0  0  0  0  0  0
  -26.4490  -37.4650   23.7560 N   0  0  0  0  0  0  0  0  0  0  0  0
  -26.0510  -38.3880   23.9020 H   0  0  0  0  0  0  0  0  0  0  0  0
  -26.3960  -31.8000   25.1920 C   0  0  1  0  0  0  0  0  0  0  0  0
  -25.3040  -31.5680   26.2650 C   0  0  0  0  0  1  0  0  0  0  0  0
  -26.9720  -30.4210   24.7970 C   0  0  0  0  0  1  0  0  0  0  0  0
  -27.5530  -32.5890   25.8470 C   0  0  0  0  0  1  0  0  0  0  0  0
  1 51  1  0
  2  5  1  0
  2  4  1  0
  2  1  1  0
  3  2  1  0
  6  1  1  0
  6 15  1  0
  7 19  1  0
  8 13  1  0
  9 10  1  0
  9  8  1  0
 11 10  1  0
 11 26  1  0
 11 12  1  0
 13  7  1  0
 13 12  1  0
 14  7  2  0
 15 16  2  0
 16 21  1  0
 16 20  1  0
 17 21  1  0
 18 17  2  0
 18 15  1  0
 19 17  1  0
 19 22  1  0
 23 24  2  0
 24 43  1  0
 25 24  1  0
 25 28  1  0
 26 27  1  0
 26 23  1  0
 27 25  2  0
 28 29  1  0
 29 30  2  0
 31 34  1  0
 31 30  1  0
 32 31  2  0
 33 32  1  0
 33 28  2  0
 34 35  1  0
 35 36  1  0
 36 37  2  0
 38 37  1  0
 38 42  1  0
 39 38  2  0
 40 35  2  0
 40 39  1  0
 41 40  1  0
 43 44  1  0
 44 47  1  0
 44 46  1  0
 45 43  2  0
 48 23  1  0
 48 49  1  0
 50 48  1  0
 51 54  1  0
 54 53  1  6
 54 52  1  0
 55 56  1  0
 55 54  1  0
 57 68  2  0
 58 56  1  0
 58 63  1  0
 59 67  1  0
 59 69  1  0
 60 66  1  0
 60 62  1  0
 61 67  1  0
 62 61  1  0
 63 62  2  0
 64 65  1  0
 64 58  2  0
 65 60  2  0
 66 59  1  0
 67 57  1  0
 69 71  2  0
 70 69  1  0
 72 70  1  0
 73 82  2  0
 73 78  1  0
 74 70  1  0
 74 78  1  0
 75 74  1  0
 76 77  1  0
 76 75  1  0
 77 73  1  0
 78 79  2  0
 79 80  1  0
 81 80  2  0
 82 81  1  0
 83 57  1  0
 83 84  1  0
 83 93  1  0
 84 87  1  0
 85 89  1  0
 85 84  1  0
 86 85  2  0
 89 88  1  0
 91 92  1  0
 91 89  1  0
 91 90  1  0
 93 96  1  1
 93 94  1  0
 95 93  1  0
M  ISO  4   7 100  19 100  55 101  56 101
M  END
>  <TORSDO>  (44) 
F 21

>  <SCORE>  (44) 
-13.505

>  <name>  (44) 
44

>  <ligand_id>  (44) 
44

>  <original_smiles>  (44) 
[H]c1c([H])c([H])c2c(c1[H])C([H])([H])C([H])([H])C([H])([H])C2([H])N([H])C(=O)C1([H])N(C(=O)C([H])(N([H])C(=O)C([H])(N([H])C([H])([H])[H])C([H])([H])[H])C(C([H])([H])[H])(C([H])([H])[H])C([H])([H])[H])C([H])([H])c2c([H])c(OC([H])([H])C(C([H])([H])[H])(C([H])([H])[H])C([H])([H])C([H])(C([H])([H])c3nc(N([H])C(=O)N4C([H])([H])C([H])([H])C([H])([H])C([H])(n5nc(-c6c([H])c([H])c(Oc7c([H])c([H])c(F)c([H])c7F)c([H])c6[H])c(C(=O)N([H])[H])c5N([H])[H])C4([H])[H])sc3F)[N+]([H])([H])[H])c([H])c([H])c2C1([H])[H]

>  <smiles>  (44) 
[H]c1c([H])c([H])c2c(c1[H])C([H])([H])C([H])([H])C([H])([H])C2([H])N([H])C(=O)C1([H])N(C(=O)C([H])(N([H])C(=O)C([H])(N([H])C([H])([H])[H])C([H])([H])[H])C(C([H])([H])[H])(C([H])([H])[H])C([H])([H])[H])C([H])([H])c2c([H])c(OC([H])([H])C(C([H])([H])[H])(C([H])([H])[H])C([H])([H])C([H])(C([H])([H])c3nc(N([H])C(=O)N4C([H])([H])C([H])([H])C([H])([H])C([H])(n5nc(-c6c([H])c([H])c(Oc7c([H])c([H])c(F)c([H])c7F)c([H])c6[H])c(C(=O)N([H])[H])c5N([H])[H])C4([H])[H])sc3F)[N+]([H])([H])[H])c([H])c([H])c2C1([H])[H]

$$$$
45:0:0
     RDKit          3D

 95103  0  0  1  0  0  0  0  0999 V2000
  -28.9740  -23.9000   20.6490 C   0  0  0  0  0  3  0  0  0  0  0  0
  -28.7360  -18.8630   18.9570 C   0  0  0  0  0  3  0  0  0  0  0  0
  -29.4910  -18.7570   20.1020 C   0  0  0  0  0  0  0  0  0  0  0  0
  -28.8980  -21.1040   20.1030 C   0  0  0  0  0  0  0  0  0  0  0  0
  -29.5410  -20.0690   20.7380 N   0  0  0  0  0  0  0  0  0  0  0  0
  -28.5660  -22.4250   20.6010 N   0  0  0  0  0  0  0  0  0  0  0  0
  -28.1330  -20.4940   18.6390 S   0  0  0  0  0  0  0  0  0  0  0  0
  -28.3610  -22.2810   21.5920 H   0  0  0  0  0  0  0  0  0  0  0  0
  -30.6420  -14.9950   20.0920 C   0  0  0  0  0  0  0  0  0  0  0  0
  -30.4240  -12.7080   19.0810 C   0  0  0  0  0  2  0  0  0  0  0  0
  -29.4450  -12.7330   17.8890 C   0  0  0  0  0  2  0  0  0  0  0  0
  -27.9920  -12.5410   18.3710 C   0  0  0  0  0  2  0  0  0  0  0  0
  -27.6430  -13.4300   19.5960 C   0  0  0  0  0  3  0  0  0  0  0  0
  -28.7460  -13.3930   20.6730 C   0  0  0  0  0  2  0  0  0  0  0  0
  -29.9970  -13.7760   20.0140 N   0  0  0  0  0  0  0  0  0  0  0  0
  -31.8400  -15.0350   19.7930 O   0  0  0  0  0  0  0  0  0  0  0  0
  -30.3350  -17.4680   20.4700 C   0  0  0  0  0  0  0  0  0  0  0  0
  -29.8890  -16.1670   20.2340 N   0  0  0  0  0  0  0  0  0  0  0  0
  -31.4370  -17.6620   20.9980 O   0  0  0  0  0  0  0  0  0  0  0  0
  -28.8940  -16.0750   20.1110 H   0  0  0  0  0  0  0  0  0  0  0  0
  -25.2930  -13.9820   20.4550 C   0  0  0  0  0  0  0  0  0  0  0  0
  -24.2490  -13.1920   20.8490 C   0  0  0  0  0  0  0  0  0  0  0  0
  -24.7180  -11.8450   20.7640 C   0  0  0  0  0  0  0  0  0  0  0  0
  -26.3280  -13.1160   20.1440 N   0  0  0  0  0  0  0  0  0  0  0  0
  -25.9920  -11.8240   20.3940 N   0  0  0  0  0  0  0  0  0  0  0  0
  -24.0040  -10.5750   20.9500 C   0  0  0  0  0  0  0  0  0  0  0  0
  -24.4450   -9.6110   21.8830 C   0  0  0  0  0  3  0  0  0  0  0  0
  -23.7300   -8.4070   22.0600 C   0  0  0  0  0  3  0  0  0  0  0  0
  -22.5610   -8.1580   21.3040 C   0  0  0  0  0  0  0  0  0  0  0  0
  -22.1410   -9.1090   20.3580 C   0  0  0  0  0  3  0  0  0  0  0  0
  -22.8560  -10.3060   20.1790 C   0  0  0  0  0  3  0  0  0  0  0  0
  -21.8180   -7.0060   21.3900 O   0  0  0  0  0  0  0  0  0  0  0  0
  -21.7260   -6.2930   22.5580 C   0  0  0  0  0  0  0  0  0  0  0  0
  -21.1620   -6.8490   23.7270 C   0  0  0  0  0  3  0  0  0  0  0  0
  -21.0210   -6.0580   24.8850 C   0  0  0  0  0  3  0  0  0  0  0  0
  -21.4390   -4.7140   24.8760 C   0  0  0  0  0  0  0  0  0  0  0  0
  -21.9960   -4.1570   23.7110 C   0  0  0  0  0  3  0  0  0  0  0  0
  -22.1360   -4.9440   22.5550 C   0  0  0  0  0  0  0  0  0  0  0  0
  -22.6560   -4.3960   21.4300 F   0  0  0  0  0  0  0  0  0  0  0  0
  -21.2980   -3.9530   25.9860 F   0  0  0  0  0  0  0  0  0  0  0  0
  -22.8630  -13.6550   21.1920 C   0  0  0  0  0  0  0  0  0  0  0  0
  -22.1790  -12.9430   22.0810 N   0  0  0  0  0  0  0  0  0  0  0  0
  -22.3970  -14.6860   20.7100 O   0  0  0  0  0  0  0  0  0  0  0  0
  -22.5700  -12.1100   22.4970 H   0  0  0  0  0  0  0  0  0  0  0  0
  -21.2500  -13.2360   22.3510 H   0  0  0  0  0  0  0  0  0  0  0  0
  -25.4350  -15.3590   20.3040 N   0  0  0  0  0  0  0  0  0  0  0  0
  -24.6600  -15.9920   20.4680 H   0  0  0  0  0  0  0  0  0  0  0  0
  -26.2370  -15.8210   19.9030 H   0  0  0  0  0  0  0  0  0  0  0  0
  -28.9080  -24.2680   22.1570 C   0  0  0  0  0  0  0  0  0  0  0  0
  -28.8550  -23.3890   23.0270 O   0  0  0  0  0  0  0  0  0  0  0  0
  -28.9530  -25.9810   24.0960 C   0  0  0  0  0  1  0  0  0  0  0  0
  -28.8890  -25.7450   22.5760 C   0  0  0  0  0  2  0  0  0  0  0  0
  -28.3570  -24.7310   18.3070 C   0  0  0  0  0  1  0  0  0  0  0  0
  -28.1090  -25.0010   19.8000 C   0  0  0  0  0  3  0  0  0  0  0  0
  -28.2910  -26.5050   19.9720 O   0  0  0  0  0  0  0  0  0  0  0  0
  -24.5540  -31.8790   23.1550 C   0  0  0  0  0  0  0  0  0  0  0  0
  -27.1810  -27.3940   19.9360 C   0  0  0  0  0  0  0  0  0  0  0  0
  -23.3490  -30.5000   21.5020 C   0  0  0  0  0  3  0  0  0  0  0  0
  -24.8010  -29.0160   20.0040 C   0  0  0  0  0  0  0  0  0  0  0  0
  -25.8850  -30.8570   21.2850 C   0  0  0  0  0  2  0  0  0  0  0  0
  -25.9770  -29.4950   20.5940 C   0  0  0  0  0  0  0  0  0  0  0  0
  -27.1700  -28.6980   20.5460 C   0  0  0  0  0  3  0  0  0  0  0  0
  -25.9770  -26.9960   19.3120 C   0  0  0  0  0  3  0  0  0  0  0  0
  -24.8070  -27.7770   19.3500 C   0  0  0  0  0  3  0  0  0  0  0  0
  -23.5520  -29.8700   20.1000 C   0  0  0  0  0  2  0  0  0  0  0  0
  -24.6160  -31.0970   22.0360 N   0  0  0  0  0  0  0  0  0  0  0  0
  -23.4750  -32.1200   23.7150 O   0  0  0  0  0  0  0  0  0  0  0  0
  -22.7240  -29.4460   22.4490 C   0  0  0  0  0  0  0  0  0  0  0  0
  -21.4020  -29.2280   22.3250 N   0  0  0  0  0  0  0  0  0  0  0  0
  -23.4260  -28.8280   23.2530 O   0  0  0  0  0  0  0  0  0  0  0  0
  -20.8930  -29.7820   21.6510 H   0  0  0  0  0  0  0  0  0  0  0  0
  -18.0720  -27.8950   22.8140 C   0  0  0  0  0  0  0  0  0  0  0  0
  -20.6200  -28.2490   23.0840 C   0  0  0  0  0  3  0  0  0  0  0  0
  -20.7740  -26.8300   22.4910 C   0  0  0  0  0  2  0  0  0  0  0  0
  -19.6840  -26.4780   21.4730 C   0  0  0  0  0  2  0  0  0  0  0  0
  -18.2990  -26.5630   22.1210 C   0  0  0  0  0  2  0  0  0  0  0  0
  -19.1630  -28.6940   23.2530 C   0  0  0  0  0  0  0  0  0  0  0  0
  -18.8960  -29.9390   23.8630 C   0  0  0  0  0  3  0  0  0  0  0  0
  -17.5740  -30.3860   24.0390 C   0  0  0  0  0  3  0  0  0  0  0  0
  -16.4990  -29.5870   23.6150 C   0  0  0  0  0  3  0  0  0  0  0  0
  -16.7480  -28.3430   23.0100 C   0  0  0  0  0  3  0  0  0  0  0  0
  -25.8350  -32.5230   23.7700 C   0  0  0  0  0  3  0  0  0  0  0  0
  -26.3650  -31.7570   25.0430 C   0  0  1  0  0  0  0  0  0  0  0  0
  -25.2780  -31.5030   26.1140 C   0  0  0  0  0  1  0  0  0  0  0  0
  -26.9670  -30.3870   24.6490 C   0  0  0  0  0  1  0  0  0  0  0  0
  -27.5060  -32.5660   25.7020 C   0  0  0  0  0  1  0  0  0  0  0  0
  -25.5120  -33.9190   24.1070 N   0  0  0  0  0  0  0  0  0  0  0  0
  -25.8210  -34.9770   23.3480 C   0  0  0  0  0  0  0  0  0  0  0  0
  -26.4770  -34.8850   22.3070 O   0  0  0  0  0  0  0  0  0  0  0  0
  -24.9330  -34.0640   24.9210 H   0  0  0  0  0  0  0  0  0  0  0  0
  -24.0830  -36.7650   23.0070 C   0  0  0  0  0  1  0  0  0  0  0  0
  -25.3250  -36.3610   23.8180 C   0  0  0  0  0  3  0  0  0  0  0  0
  -27.4440  -37.2610   24.6740 C   0  0  0  0  0  1  0  0  0  0  0  0
  -26.3530  -37.4200   23.7150 N   0  0  0  0  0  0  0  0  0  0  0  0
  -25.9380  -38.3390   23.8550 H   0  0  0  0  0  0  0  0  0  0  0  0
  1 49  1  0
  2  3  2  0
  3 17  1  0
  3  5  1  0
  4  6  1  0
  4  5  2  0
  6  1  1  0
  6  8  1  0
  7  2  1  0
  7  4  1  0
  9 18  1  0
 10 15  1  0
 11 12  1  0
 11 10  1  0
 13 12  1  0
 13 24  1  0
 13 14  1  0
 15  9  1  0
 15 14  1  0
 16  9  2  0
 17 19  2  0
 18 17  1  0
 20 18  1  0
 21 22  2  0
 22 41  1  0
 23 22  1  0
 23 26  1  0
 24 25  1  0
 24 21  1  0
 25 23  2  0
 26 27  1  0
 27 28  2  0
 29 32  1  0
 29 28  1  0
 30 29  2  0
 31 30  1  0
 31 26  2  0
 32 33  1  0
 33 34  1  0
 34 35  2  0
 36 35  1  0
 36 40  1  0
 37 36  2  0
 38 33  2  0
 38 37  1  0
 39 38  1  0
 41 42  1  0
 42 45  1  0
 42 44  1  0
 43 41  2  0
 46 21  1  0
 46 47  1  0
 48 46  1  0
 49 52  1  0
 49 50  2  0
 52 51  1  0
 54 53  1  0
 54 55  1  0
 54  1  1  0
 56 67  2  0
 57 55  1  0
 57 62  1  0
 58 66  1  0
 58 68  1  0
 59 65  1  0
 59 61  1  0
 60 66  1  0
 61 60  1  0
 62 61  2  0
 63 64  1  0
 63 57  2  0
 64 59  2  0
 65 58  1  0
 66 56  1  0
 68 70  2  0
 69 68  1  0
 71 69  1  0
 72 81  2  0
 72 77  1  0
 73 69  1  0
 73 77  1  0
 74 73  1  0
 75 76  1  0
 75 74  1  0
 76 72  1  0
 77 78  2  0
 78 79  1  0
 80 79  2  0
 81 80  1  0
 82 56  1  0
 82 87  1  0
 82 83  1  0
 83 86  1  1
 83 84  1  0
 85 83  1  0
 87 90  1  0
 88 92  1  0
 88 87  1  0
 89 88  2  0
 92 91  1  0
 94 92  1  0
 94 95  1  0
 94 93  1  0
M  ISO  4   9 100  18 100  54 101  55 101
M  END
>  <TORSDO>  (45) 
F 20

>  <SCORE>  (45) 
-13.862

>  <name>  (45) 
45

>  <ligand_id>  (45) 
45

>  <original_smiles>  (45) 
[H]c1sc(N([H])C([H])(C(=O)C([H])([H])C([H])([H])[H])C([H])(Oc2c([H])c([H])c3c(c2[H])C([H])([H])N(C(=O)C([H])(N([H])C(=O)C([H])(N([H])C([H])([H])[H])C([H])([H])[H])C(C([H])([H])[H])(C([H])([H])[H])C([H])([H])[H])C([H])(C(=O)N([H])C2([H])c4c([H])c([H])c([H])c([H])c4C([H])([H])C([H])([H])C2([H])[H])C3([H])[H])C([H])([H])[H])nc1C(=O)N([H])C(=O)N1C([H])([H])C([H])([H])C([H])([H])C([H])(n2nc(-c3c([H])c([H])c(Oc4c([H])c([H])c(F)c([H])c4F)c([H])c3[H])c(C(=O)N([H])[H])c2N([H])[H])C1([H])[H]

>  <smiles>  (45) 
[H]c1sc(N([H])C([H])(C(=O)C([H])([H])C([H])([H])[H])C([H])(Oc2c([H])c([H])c3c(c2[H])C([H])([H])N(C(=O)C([H])(N([H])C(=O)C([H])(N([H])C([H])([H])[H])C([H])([H])[H])C(C([H])([H])[H])(C([H])([H])[H])C([H])([H])[H])C([H])(C(=O)N([H])C2([H])c4c([H])c([H])c([H])c([H])c4C([H])([H])C([H])([H])C2([H])[H])C3([H])[H])C([H])([H])[H])nc1C(=O)N([H])C(=O)N1C([H])([H])C([H])([H])C([H])([H])C([H])(n2nc(-c3c([H])c([H])c(Oc4c([H])c([H])c(F)c([H])c4F)c([H])c3[H])c(C(=O)N([H])[H])c2N([H])[H])C1([H])[H]

$$$$
46:0:0
     RDKit          3D

 93101  0  0  1  0  0  0  0  0999 V2000
  -28.9670  -22.2660   20.7030 C   0  0  0  0  0  0  0  0  0  0  0  0
  -29.5670  -21.1640   20.0970 N   0  0  0  0  0  0  0  0  0  0  0  0
  -28.1470  -22.0850   21.6050 O   0  0  0  0  0  0  0  0  0  0  0  0
  -30.0340  -21.3930   19.2290 H   0  0  0  0  0  0  0  0  0  0  0  0
  -29.5970  -18.5230   19.8020 C   0  0  0  0  0  3  0  0  0  0  0  0
  -29.8050  -19.7660   20.5680 C   0  0  0  0  0  0  0  0  0  0  0  0
  -30.4150  -19.4800   21.7710 C   0  0  0  0  0  0  0  0  0  0  0  0
  -30.0560  -17.3210   20.3890 C   0  0  0  0  0  0  0  0  0  0  0  0
  -30.8100  -20.4090   22.8760 C   0  0  0  0  0  1  0  0  0  0  0  0
  -30.7820  -17.7580   21.9230 S   0  0  0  0  0  0  0  0  0  0  0  0
  -30.7100  -14.8640   19.9750 C   0  0  0  0  0  0  0  0  0  0  0  0
  -30.4750  -12.6030   18.9210 C   0  0  0  0  0  2  0  0  0  0  0  0
  -29.4440  -12.6700   17.7710 C   0  0  0  0  0  2  0  0  0  0  0  0
  -28.0110  -12.4810   18.3090 C   0  0  0  0  0  2  0  0  0  0  0  0
  -27.7150  -13.3650   19.5500 C   0  0  0  0  0  3  0  0  0  0  0  0
  -28.8500  -13.2650   20.5930 C   0  0  0  0  0  2  0  0  0  0  0  0
  -30.0940  -13.6350   19.9070 N   0  0  0  0  0  0  0  0  0  0  0  0
  -31.9030  -14.9760   19.6760 O   0  0  0  0  0  0  0  0  0  0  0  0
  -29.8730  -15.9740   20.0270 N   0  0  0  0  0  0  0  0  0  0  0  0
  -28.9060  -15.7210   19.8960 H   0  0  0  0  0  0  0  0  0  0  0  0
  -25.3890  -13.9680   20.4500 C   0  0  0  0  0  0  0  0  0  0  0  0
  -24.3370  -13.1970   20.8650 C   0  0  0  0  0  0  0  0  0  0  0  0
  -24.7800  -11.8410   20.7700 C   0  0  0  0  0  0  0  0  0  0  0  0
  -26.4040  -13.0820   20.1240 N   0  0  0  0  0  0  0  0  0  0  0  0
  -26.0490  -11.7960   20.3780 N   0  0  0  0  0  0  0  0  0  0  0  0
  -24.0490  -10.5830   20.9700 C   0  0  0  0  0  0  0  0  0  0  0  0
  -24.5020   -9.6050   21.8820 C   0  0  0  0  0  3  0  0  0  0  0  0
  -23.7730   -8.4110   22.0730 C   0  0  0  0  0  3  0  0  0  0  0  0
  -22.5780   -8.1870   21.3500 C   0  0  0  0  0  0  0  0  0  0  0  0
  -22.1420   -9.1540   20.4270 C   0  0  0  0  0  3  0  0  0  0  0  0
  -22.8700  -10.3400   20.2350 C   0  0  0  0  0  3  0  0  0  0  0  0
  -21.8200   -7.0460   21.4490 O   0  0  0  0  0  0  0  0  0  0  0  0
  -21.7710   -6.3130   22.6070 C   0  0  0  0  0  0  0  0  0  0  0  0
  -21.3390   -6.8760   23.8280 C   0  0  0  0  0  3  0  0  0  0  0  0
  -21.2400   -6.0700   24.9800 C   0  0  0  0  0  3  0  0  0  0  0  0
  -21.5620   -4.7010   24.9120 C   0  0  0  0  0  0  0  0  0  0  0  0
  -21.9850   -4.1370   23.6960 C   0  0  0  0  0  3  0  0  0  0  0  0
  -22.0870   -4.9400   22.5450 C   0  0  0  0  0  0  0  0  0  0  0  0
  -22.4770   -4.3880   21.3710 F   0  0  0  0  0  0  0  0  0  0  0  0
  -21.4590   -3.9240   26.0160 F   0  0  0  0  0  0  0  0  0  0  0  0
  -22.9670  -13.6840   21.2370 C   0  0  0  0  0  0  0  0  0  0  0  0
  -22.2860  -12.9760   22.1330 N   0  0  0  0  0  0  0  0  0  0  0  0
  -22.5110  -14.7260   20.7720 O   0  0  0  0  0  0  0  0  0  0  0  0
  -22.6680  -12.1310   22.5310 H   0  0  0  0  0  0  0  0  0  0  0  0
  -21.3720  -13.2880   22.4270 H   0  0  0  0  0  0  0  0  0  0  0  0
  -25.5550  -15.3410   20.3000 N   0  0  0  0  0  0  0  0  0  0  0  0
  -24.7930  -15.9890   20.4740 H   0  0  0  0  0  0  0  0  0  0  0  0
  -26.3740  -15.7930   19.9170 H   0  0  0  0  0  0  0  0  0  0  0  0
  -29.9870  -23.8250   18.9120 C   0  0  0  0  0  1  0  0  0  0  0  0
  -30.3200  -24.2880   21.3520 C   0  0  0  0  0  1  0  0  0  0  0  0
  -29.3020  -23.8050   20.2950 C   0  0  2  0  0  0  0  0  0  0  0  0
  -28.0950  -24.9070   20.2860 C   0  0  0  0  0  2  0  0  0  0  0  0
  -28.3450  -26.4030   20.2970 O   0  0  0  0  0  0  0  0  0  0  0  0
  -24.5790  -31.9210   23.2080 C   0  0  0  0  0  0  0  0  0  0  0  0
  -27.2420  -27.2940   20.2340 C   0  0  0  0  0  0  0  0  0  0  0  0
  -23.4010  -30.4920   21.5820 C   0  0  0  0  0  3  0  0  0  0  0  0
  -24.8700  -28.9320   20.1900 C   0  0  0  0  0  0  0  0  0  0  0  0
  -25.9420  -30.8240   21.4020 C   0  0  0  0  0  2  0  0  0  0  0  0
  -26.0390  -29.4260   20.7840 C   0  0  0  0  0  0  0  0  0  0  0  0
  -27.2270  -28.6220   20.7930 C   0  0  0  0  0  3  0  0  0  0  0  0
  -26.0460  -26.8770   19.6070 C   0  0  0  0  0  3  0  0  0  0  0  0
  -24.8800  -27.6650   19.5950 C   0  0  0  0  0  3  0  0  0  0  0  0
  -23.6320  -29.8060   20.2110 C   0  0  0  0  0  2  0  0  0  0  0  0
  -24.6610  -31.1000   22.1200 N   0  0  0  0  0  0  0  0  0  0  0  0
  -23.4900  -32.1950   23.7330 O   0  0  0  0  0  0  0  0  0  0  0  0
  -22.7440  -29.4790   22.5510 C   0  0  0  0  0  0  0  0  0  0  0  0
  -21.4200  -29.2880   22.4230 N   0  0  0  0  0  0  0  0  0  0  0  0
  -23.4230  -28.8670   23.3780 O   0  0  0  0  0  0  0  0  0  0  0  0
  -20.9320  -29.8300   21.7240 H   0  0  0  0  0  0  0  0  0  0  0  0
  -18.0560  -28.0520   22.9110 C   0  0  0  0  0  0  0  0  0  0  0  0
  -20.6080  -28.3530   23.2030 C   0  0  0  0  0  3  0  0  0  0  0  0
  -20.7390  -26.9120   22.6530 C   0  0  0  0  0  2  0  0  0  0  0  0
  -19.6510  -26.5560   21.6350 C   0  0  0  0  0  2  0  0  0  0  0  0
  -18.2590  -26.6930   22.2620 C   0  0  0  0  0  2  0  0  0  0  0  0
  -19.1590  -28.8370   23.3390 C   0  0  0  0  0  0  0  0  0  0  0  0
  -18.9120  -30.1070   23.9070 C   0  0  0  0  0  3  0  0  0  0  0  0
  -17.5980  -30.5900   24.0530 C   0  0  0  0  0  3  0  0  0  0  0  0
  -16.5110  -29.8010   23.6400 C   0  0  0  0  0  3  0  0  0  0  0  0
  -16.7400  -28.5350   23.0730 C   0  0  0  0  0  3  0  0  0  0  0  0
  -25.8500  -32.5790   23.8290 C   0  0  0  0  0  3  0  0  0  0  0  0
  -26.3760  -31.8210   25.1080 C   0  0  1  0  0  0  0  0  0  0  0  0
  -25.2800  -31.5750   26.1720 C   0  0  0  0  0  1  0  0  0  0  0  0
  -26.9850  -30.4530   24.7230 C   0  0  0  0  0  1  0  0  0  0  0  0
  -27.5190  -32.6320   25.7640 C   0  0  0  0  0  1  0  0  0  0  0  0
  -25.5170  -33.9740   24.1520 N   0  0  0  0  0  0  0  0  0  0  0  0
  -25.8650  -35.0310   23.4040 C   0  0  0  0  0  0  0  0  0  0  0  0
  -26.5640  -34.9310   22.3910 O   0  0  0  0  0  0  0  0  0  0  0  0
  -24.8980  -34.1240   24.9340 H   0  0  0  0  0  0  0  0  0  0  0  0
  -24.1560  -36.8280   22.9850 C   0  0  0  0  0  1  0  0  0  0  0  0
  -25.3570  -36.4140   23.8510 C   0  0  0  0  0  3  0  0  0  0  0  0
  -27.4520  -37.2900   24.7860 C   0  0  0  0  0  1  0  0  0  0  0  0
  -26.3930  -37.4680   23.7960 N   0  0  0  0  0  0  0  0  0  0  0  0
  -25.9820  -38.3860   23.9380 H   0  0  0  0  0  0  0  0  0  0  0  0
  1  3  2  0
  2  6  1  0
  2  1  1  0
  4  2  1  0
  5  8  2  0
  5  6  1  0
  6  7  2  0
  7 10  1  0
  7  9  1  0
  8 10  1  0
 11 19  1  0
 12 17  1  0
 13 14  1  0
 13 12  1  0
 15 14  1  0
 15 24  1  0
 15 16  1  0
 17 11  1  0
 17 16  1  0
 18 11  2  0
 19  8  1  0
 20 19  1  0
 21 22  2  0
 22 41  1  0
 23 22  1  0
 23 26  1  0
 24 25  1  0
 24 21  1  0
 25 23  2  0
 26 27  1  0
 27 28  2  0
 29 32  1  0
 29 28  1  0
 30 29  2  0
 31 30  1  0
 31 26  2  0
 32 33  1  0
 33 34  1  0
 34 35  2  0
 36 35  1  0
 36 40  1  0
 37 36  2  0
 38 33  2  0
 38 37  1  0
 39 38  1  0
 41 42  1  0
 42 45  1  0
 42 44  1  0
 43 41  2  0
 46 21  1  0
 46 47  1  0
 48 46  1  0
 51 49  1  6
 51  1  1  0
 51 50  1  0
 52 51  1  0
 52 53  1  0
 54 65  2  0
 55 53  1  0
 55 60  1  0
 56 64  1  0
 56 66  1  0
 57 63  1  0
 57 59  1  0
 58 64  1  0
 59 60  2  0
 59 58  1  0
 61 55  2  0
 62 61  1  0
 62 57  2  0
 63 56  1  0
 64 54  1  0
 66 68  2  0
 67 66  1  0
 69 67  1  0
 70 79  2  0
 70 75  1  0
 71 67  1  0
 71 75  1  0
 72 71  1  0
 73 74  1  0
 73 72  1  0
 74 70  1  0
 75 76  2  0
 76 77  1  0
 78 77  2  0
 79 78  1  0
 80 54  1  0
 80 85  1  0
 80 81  1  0
 81 84  1  1
 81 82  1  0
 83 81  1  0
 85 88  1  0
 86 90  1  0
 86 85  1  0
 87 86  2  0
 90 89  1  0
 92 90  1  0
 92 93  1  0
 92 91  1  0
M  ISO  4  11 100  19 100  52 101  53 101
M  END
>  <TORSDO>  (46) 
F 19

>  <SCORE>  (46) 
-14.148

>  <name>  (46) 
46

>  <ligand_id>  (46) 
46

>  <original_smiles>  (46) 
[H]c1c([H])c([H])c2c(c1[H])C([H])([H])C([H])([H])C([H])([H])C2([H])N([H])C(=O)C1([H])N(C(=O)C([H])(N([H])C(=O)C([H])(N([H])C([H])([H])[H])C([H])([H])[H])C(C([H])([H])[H])(C([H])([H])[H])C([H])([H])[H])C([H])([H])c2c([H])c(OC([H])([H])C(C(=O)N([H])c3c(C([H])([H])[H])sc(N([H])C(=O)N4C([H])([H])C([H])([H])C([H])([H])C([H])(n5nc(-c6c([H])c([H])c(Oc7c([H])c([H])c(F)c([H])c7F)c([H])c6[H])c(C(=O)N([H])[H])c5N([H])[H])C4([H])[H])c3[H])(C([H])([H])[H])C([H])([H])[H])c([H])c([H])c2C1([H])[H]

>  <smiles>  (46) 
[H]c1c([H])c([H])c2c(c1[H])C([H])([H])C([H])([H])C([H])([H])C2([H])N([H])C(=O)C1([H])N(C(=O)C([H])(N([H])C(=O)C([H])(N([H])C([H])([H])[H])C([H])([H])[H])C(C([H])([H])[H])(C([H])([H])[H])C([H])([H])[H])C([H])([H])c2c([H])c(OC([H])([H])C(C(=O)N([H])c3c(C([H])([H])[H])sc(N([H])C(=O)N4C([H])([H])C([H])([H])C([H])([H])C([H])(n5nc(-c6c([H])c([H])c(Oc7c([H])c([H])c(F)c([H])c7F)c([H])c6[H])c(C(=O)N([H])[H])c5N([H])[H])C4([H])[H])c3[H])(C([H])([H])[H])C([H])([H])[H])c([H])c([H])c2C1([H])[H]

$$$$
47:0:0
     RDKit          3D

 93101  0  0  1  0  0  0  0  0999 V2000
  -30.8230  -18.2310   19.1120 C   0  0  0  0  0  3  0  0  0  0  0  0
  -30.1410  -17.5290   20.0920 C   0  0  0  0  0  0  0  0  0  0  0  0
  -29.6270  -20.0650   19.9170 C   0  0  0  0  0  0  0  0  0  0  0  0
  -29.2320  -22.5970   19.4150 C   0  0  0  0  0  0  0  0  0  0  0  0
  -30.5350  -19.6280   19.0240 N   0  0  0  0  0  0  0  0  0  0  0  0
  -29.2980  -21.4710   20.2030 N   0  0  0  0  0  0  0  0  0  0  0  0
  -29.2770  -22.5170   18.1850 O   0  0  0  0  0  0  0  0  0  0  0  0
  -29.0260  -18.6840   20.8720 S   0  0  0  0  0  0  0  0  0  0  0  0
  -29.0940  -21.6430   21.1760 H   0  0  0  0  0  0  0  0  0  0  0  0
  -30.5220  -24.6580   20.1360 C   0  0  0  0  0  1  0  0  0  0  0  0
  -29.1100  -24.0500   20.0710 C   0  0  0  0  0  3  0  0  0  0  0  0
  -28.1120  -25.1170   19.4050 C   0  0  0  0  0  2  0  0  0  0  0  0
  -28.2380  -26.5710   19.7320 O   0  0  0  0  0  0  0  0  0  0  0  0
  -24.4850  -31.7890   23.0320 C   0  0  0  0  0  0  0  0  0  0  0  0
  -27.1010  -27.4050   19.7180 C   0  0  0  0  0  0  0  0  0  0  0  0
  -23.2640  -30.4360   21.3670 C   0  0  0  0  0  3  0  0  0  0  0  0
  -24.7060  -28.9760   19.8360 C   0  0  0  0  0  0  0  0  0  0  0  0
  -25.7910  -30.8100   21.1310 C   0  0  0  0  0  2  0  0  0  0  0  0
  -25.8810  -29.4600   20.4250 C   0  0  0  0  0  0  0  0  0  0  0  0
  -27.0780  -28.6850   20.3600 C   0  0  0  0  0  3  0  0  0  0  0  0
  -25.9040  -26.9890   19.0900 C   0  0  0  0  0  3  0  0  0  0  0  0
  -24.7210  -27.7470   19.1580 C   0  0  0  0  0  3  0  0  0  0  0  0
  -23.4530  -29.8200   19.9550 C   0  0  0  0  0  2  0  0  0  0  0  0
  -24.5330  -31.0270   21.9000 N   0  0  0  0  0  0  0  0  0  0  0  0
  -23.4110  -32.0230   23.6050 O   0  0  0  0  0  0  0  0  0  0  0  0
  -22.6470  -29.3670   22.3020 C   0  0  0  0  0  0  0  0  0  0  0  0
  -21.3230  -29.1630   22.1960 N   0  0  0  0  0  0  0  0  0  0  0  0
  -23.3580  -28.7270   23.0820 O   0  0  0  0  0  0  0  0  0  0  0  0
  -20.8070  -29.7350   21.5420 H   0  0  0  0  0  0  0  0  0  0  0  0
  -17.9820  -27.8750   22.7260 C   0  0  0  0  0  0  0  0  0  0  0  0
  -20.5420  -28.1780   22.9470 C   0  0  0  0  0  3  0  0  0  0  0  0
  -20.6580  -26.7730   22.3120 C   0  0  0  0  0  2  0  0  0  0  0  0
  -19.5380  -26.4690   21.3120 C   0  0  0  0  0  2  0  0  0  0  0  0
  -18.1690  -26.5590   21.9930 C   0  0  0  0  0  2  0  0  0  0  0  0
  -19.0960  -28.6430   23.1600 C   0  0  0  0  0  0  0  0  0  0  0  0
  -18.8660  -29.8770   23.8060 C   0  0  0  0  0  3  0  0  0  0  0  0
  -17.5540  -30.3420   24.0240 C   0  0  0  0  0  3  0  0  0  0  0  0
  -16.4560  -29.5710   23.6050 C   0  0  0  0  0  3  0  0  0  0  0  0
  -16.6720  -28.3400   22.9610 C   0  0  0  0  0  3  0  0  0  0  0  0
  -25.7720  -32.4220   23.6470 C   0  0  0  0  0  3  0  0  0  0  0  0
  -26.3260  -31.6170   24.8870 C   0  0  1  0  0  0  0  0  0  0  0  0
  -25.2610  -31.3260   25.9680 C   0  0  0  0  0  1  0  0  0  0  0  0
  -26.9220  -30.2620   24.4370 C   0  0  0  0  0  1  0  0  0  0  0  0
  -27.4780  -32.4070   25.5510 C   0  0  0  0  0  1  0  0  0  0  0  0
  -25.4500  -33.8040   24.0290 N   0  0  0  0  0  0  0  0  0  0  0  0
  -25.7700  -34.8880   23.3100 C   0  0  0  0  0  0  0  0  0  0  0  0
  -26.4380  -34.8290   22.2740 O   0  0  0  0  0  0  0  0  0  0  0  0
  -24.8600  -33.9220   24.8390 H   0  0  0  0  0  0  0  0  0  0  0  0
  -24.0260  -36.6790   23.0250 C   0  0  0  0  0  1  0  0  0  0  0  0
  -25.2710  -36.2540   23.8210 C   0  0  0  0  0  3  0  0  0  0  0  0
  -27.3920  -37.1310   24.6940 C   0  0  0  0  0  1  0  0  0  0  0  0
  -26.2940  -37.3190   23.7480 N   0  0  0  0  0  0  0  0  0  0  0  0
  -25.8800  -38.2300   23.9220 H   0  0  0  0  0  0  0  0  0  0  0  0
  -30.2320  -16.0300   20.5870 C   0  0  0  0  0  3  0  0  0  0  0  0
  -30.7380  -14.8490   19.6240 C   0  0  0  0  0  0  0  0  0  0  0  0
  -30.3780  -12.6490   18.4690 C   0  0  0  0  0  2  0  0  0  0  0  0
  -29.2700  -12.7900   17.4000 C   0  0  0  0  0  2  0  0  0  0  0  0
  -27.8700  -12.6040   18.0210 C   0  0  0  0  0  2  0  0  0  0  0  0
  -27.6910  -13.4190   19.3300 C   0  0  0  0  0  3  0  0  0  0  0  0
  -28.8930  -13.2170   20.2770 C   0  0  0  0  0  2  0  0  0  0  0  0
  -30.1020  -13.6270   19.5450 N   0  0  0  0  0  0  0  0  0  0  0  0
  -31.7470  -15.0460   18.9380 O   0  0  0  0  0  0  0  0  0  0  0  0
  -25.4610  -13.9950   20.4690 C   0  0  0  0  0  0  0  0  0  0  0  0
  -24.4300  -13.2130   20.9150 C   0  0  0  0  0  0  0  0  0  0  0  0
  -24.8210  -11.8630   20.6630 C   0  0  0  0  0  0  0  0  0  0  0  0
  -26.4190  -13.1180   19.9810 N   0  0  0  0  0  0  0  0  0  0  0  0
  -26.0450  -11.8240   20.1530 N   0  0  0  0  0  0  0  0  0  0  0  0
  -24.0740  -10.6070   20.8270 C   0  0  0  0  0  0  0  0  0  0  0  0
  -24.5500   -9.5680   21.6580 C   0  0  0  0  0  3  0  0  0  0  0  0
  -23.8060   -8.3780   21.8140 C   0  0  0  0  0  3  0  0  0  0  0  0
  -22.5720   -8.2190   21.1390 C   0  0  0  0  0  0  0  0  0  0  0  0
  -22.1140   -9.2470   20.2970 C   0  0  0  0  0  3  0  0  0  0  0  0
  -22.8580  -10.4290   20.1390 C   0  0  0  0  0  3  0  0  0  0  0  0
  -21.7930   -7.0890   21.2120 O   0  0  0  0  0  0  0  0  0  0  0  0
  -21.7460   -6.3190   22.3470 C   0  0  0  0  0  0  0  0  0  0  0  0
  -21.3190   -6.8440   23.5860 C   0  0  0  0  0  3  0  0  0  0  0  0
  -21.2190   -6.0020   24.7110 C   0  0  0  0  0  3  0  0  0  0  0  0
  -21.5340   -4.6340   24.5970 C   0  0  0  0  0  0  0  0  0  0  0  0
  -21.9530   -4.1070   23.3620 C   0  0  0  0  0  3  0  0  0  0  0  0
  -22.0560   -4.9480   22.2390 C   0  0  0  0  0  0  0  0  0  0  0  0
  -22.4400   -4.4320   21.0470 F   0  0  0  0  0  0  0  0  0  0  0  0
  -21.4310   -3.8210   25.6740 F   0  0  0  0  0  0  0  0  0  0  0  0
  -23.1150  -13.6960   21.4550 C   0  0  0  0  0  0  0  0  0  0  0  0
  -22.5050  -12.9280   22.3530 N   0  0  0  0  0  0  0  0  0  0  0  0
  -22.6420  -14.7800   21.1190 O   0  0  0  0  0  0  0  0  0  0  0  0
  -22.9050  -12.0480   22.6410 H   0  0  0  0  0  0  0  0  0  0  0  0
  -21.6270  -13.2250   22.7560 H   0  0  0  0  0  0  0  0  0  0  0  0
  -25.6600  -15.3710   20.4180 N   0  0  0  0  0  0  0  0  0  0  0  0
  -24.9520  -16.0340   20.7150 H   0  0  0  0  0  0  0  0  0  0  0  0
  -26.4740  -15.8160   20.0130 H   0  0  0  0  0  0  0  0  0  0  0  0
  -30.8370  -16.9740   22.9780 C   0  0  0  0  0  1  0  0  0  0  0  0
  -31.0610  -15.8980   21.9020 C   0  0  0  0  0  3  0  0  0  0  0  0
  -32.3670  -15.8460   21.6340 F   0  0  0  0  0  0  0  0  0  0  0  0
  1  2  2  0
  2 54  1  0
  2  8  1  0
  3  6  1  0
  3  8  1  0
  4 11  1  0
  4  6  1  0
  5  1  1  0
  5  3  2  0
  6  9  1  0
  7  4  2  0
 11 10  1  0
 12 13  1  0
 12 11  1  0
 14 25  2  0
 15 13  1  0
 15 20  1  0
 16 24  1  0
 16 26  1  0
 17 23  1  0
 17 19  1  0
 18 24  1  0
 19 18  1  0
 20 19  2  0
 21 22  1  0
 21 15  2  0
 22 17  2  0
 23 16  1  0
 24 14  1  0
 26 28  2  0
 27 26  1  0
 29 27  1  0
 30 39  2  0
 30 35  1  0
 31 27  1  0
 31 35  1  0
 32 31  1  0
 33 34  1  0
 33 32  1  0
 34 30  1  0
 35 36  2  0
 36 37  1  0
 38 37  2  0
 39 38  1  0
 40 14  1  0
 40 45  1  0
 40 41  1  0
 41 44  1  1
 41 42  1  0
 43 41  1  0
 45 48  1  0
 46 50  1  0
 46 45  1  0
 47 46  2  0
 50 49  1  0
 52 50  1  0
 52 53  1  0
 52 51  1  0
 54 55  1  0
 54 92  1  0
 56 61  1  0
 57 58  1  0
 57 56  1  0
 59 58  1  0
 59 66  1  0
 59 60  1  0
 61 55  1  0
 61 60  1  0
 62 55  2  0
 63 64  2  0
 64 83  1  0
 65 68  1  0
 65 64  1  0
 66 67  1  0
 66 63  1  0
 67 65  2  0
 68 69  1  0
 69 70  2  0
 71 74  1  0
 71 70  1  0
 72 71  2  0
 73 72  1  0
 73 68  2  0
 74 75  1  0
 75 76  1  0
 76 77  2  0
 78 77  1  0
 78 82  1  0
 79 78  2  0
 80 75  2  0
 80 79  1  0
 81 80  1  0
 83 84  1  0
 84 86  1  0
 84 87  1  0
 85 83  2  0
 88 63  1  0
 88 89  1  0
 90 88  1  0
 92 91  1  0
 93 92  1  0
M  ISO  4  12 101  13 101  54 100  55 100
M  END
>  <TORSDO>  (47) 
F 20

>  <SCORE>  (47) 
-11.542

>  <name>  (47) 
47

>  <ligand_id>  (47) 
47

>  <original_smiles>  (47) 
[H]c1nc(N([H])C(=O)C([H])(C([H])([H])[H])C([H])([H])Oc2c([H])c([H])c3c(c2[H])C([H])([H])N(C(=O)C([H])(N([H])C(=O)C([H])(N([H])C([H])([H])[H])C([H])([H])[H])C(C([H])([H])[H])(C([H])([H])[H])C([H])([H])[H])C([H])(C(=O)N([H])C2([H])c4c([H])c([H])c([H])c([H])c4C([H])([H])C([H])([H])C2([H])[H])C3([H])[H])sc1C([H])(C(=O)N1C([H])([H])C([H])([H])C([H])([H])C([H])(n2nc(-c3c([H])c([H])c(Oc4c([H])c([H])c(F)c([H])c4F)c([H])c3[H])c(C(=O)N([H])[H])c2N([H])[H])C1([H])[H])C([H])(F)C([H])([H])[H]

>  <smiles>  (47) 
[H]c1nc(N([H])C(=O)C([H])(C([H])([H])[H])C([H])([H])Oc2c([H])c([H])c3c(c2[H])C([H])([H])N(C(=O)C([H])(N([H])C(=O)C([H])(N([H])C([H])([H])[H])C([H])([H])[H])C(C([H])([H])[H])(C([H])([H])[H])C([H])([H])[H])C([H])(C(=O)N([H])C2([H])c4c([H])c([H])c([H])c([H])c4C([H])([H])C([H])([H])C2([H])[H])C3([H])[H])sc1C([H])(C(=O)N1C([H])([H])C([H])([H])C([H])([H])C([H])(n2nc(-c3c([H])c([H])c(Oc4c([H])c([H])c(F)c([H])c4F)c([H])c3[H])c(C(=O)N([H])[H])c2N([H])[H])C1([H])[H])C([H])(F)C([H])([H])[H]

$$$$
48:0:0
     RDKit          3D

 95103  0  0  1  0  0  0  0  0999 V2000
  -29.5730  -20.4400   20.3970 N   0  0  0  0  0  0  0  0  0  0  0  0
  -30.1840  -20.3740   21.2100 H   0  0  0  0  0  0  0  0  0  0  0  0
  -28.7680  -17.9290   20.4100 C   0  0  0  0  0  0  0  0  0  0  0  0
  -28.6830  -19.3320   20.2140 C   0  0  0  0  0  0  0  0  0  0  0  0
  -26.5700  -18.0830   19.7740 C   0  0  0  0  0  0  0  0  0  0  0  0
  -27.5320  -17.2850   20.1970 N   0  0  0  0  0  0  0  0  0  0  0  0
  -25.2940  -17.6570   19.4740 N   0  0  0  0  0  0  0  0  0  0  0  0
  -27.0640  -19.7450   19.6390 S   0  0  0  0  0  0  0  0  0  0  0  0
  -25.1310  -16.6650   19.3510 H   0  0  0  0  0  0  0  0  0  0  0  0
  -24.7160  -18.2480   18.8860 H   0  0  0  0  0  0  0  0  0  0  0  0
  -29.9430  -17.0170   20.6980 C   0  0  0  0  0  2  0  0  0  0  0  0
  -29.7670  -15.7650   21.0000 N   0  0  0  0  0  2  0  0  0  0  0  0
  -30.6930  -14.7630   20.6500 C   0  0  0  0  0  0  0  0  0  0  0  0
  -30.4600  -12.7090   19.2860 C   0  0  0  0  0  2  0  0  0  0  0  0
  -29.4840  -13.0550   18.1360 C   0  0  0  0  0  2  0  0  0  0  0  0
  -28.0170  -12.8480   18.5700 C   0  0  0  0  0  2  0  0  0  0  0  0
  -27.7020  -13.5060   19.9390 C   0  0  0  0  0  3  0  0  0  0  0  0
  -28.7850  -13.1480   20.9790 C   0  0  0  0  0  2  0  0  0  0  0  0
  -30.0980  -13.5480   20.4420 N   0  0  0  0  0  0  0  0  0  0  0  0
  -31.8630  -14.9550   20.3100 O   0  0  0  0  0  0  0  0  0  0  0  0
  -25.2870  -14.0130   20.6650 C   0  0  0  0  0  0  0  0  0  0  0  0
  -24.2430  -13.1970   21.0130 C   0  0  0  0  0  0  0  0  0  0  0  0
  -24.7510  -11.8640   20.9510 C   0  0  0  0  0  0  0  0  0  0  0  0
  -26.3600  -13.1720   20.4120 N   0  0  0  0  0  0  0  0  0  0  0  0
  -26.0410  -11.8740   20.6440 N   0  0  0  0  0  0  0  0  0  0  0  0
  -24.0670  -10.5750   21.1090 C   0  0  0  0  0  0  0  0  0  0  0  0
  -24.4900   -9.6290   22.0680 C   0  0  0  0  0  3  0  0  0  0  0  0
  -23.8050   -8.4030   22.2150 C   0  0  0  0  0  3  0  0  0  0  0  0
  -22.6840   -8.1150   21.4010 C   0  0  0  0  0  0  0  0  0  0  0  0
  -22.2810   -9.0520   20.4320 C   0  0  0  0  0  3  0  0  0  0  0  0
  -22.9680  -10.2690   20.2840 C   0  0  0  0  0  3  0  0  0  0  0  0
  -21.9740   -6.9400   21.4540 O   0  0  0  0  0  0  0  0  0  0  0  0
  -21.8420   -6.2310   22.6210 C   0  0  0  0  0  0  0  0  0  0  0  0
  -21.2600   -6.7990   23.7750 C   0  0  0  0  0  3  0  0  0  0  0  0
  -21.0800   -6.0140   24.9320 C   0  0  0  0  0  3  0  0  0  0  0  0
  -21.4720   -4.6610   24.9340 C   0  0  0  0  0  0  0  0  0  0  0  0
  -22.0480   -4.0940   23.7830 C   0  0  0  0  0  3  0  0  0  0  0  0
  -22.2300   -4.8760   22.6290 C   0  0  0  0  0  0  0  0  0  0  0  0
  -22.7650   -4.3190   21.5170 F   0  0  0  0  0  0  0  0  0  0  0  0
  -21.2940   -3.9050   26.0410 F   0  0  0  0  0  0  0  0  0  0  0  0
  -22.8300  -13.6220   21.2900 C   0  0  0  0  0  0  0  0  0  0  0  0
  -22.1290  -12.8920   22.1490 N   0  0  0  0  0  0  0  0  0  0  0  0
  -22.3530  -14.6350   20.7790 O   0  0  0  0  0  0  0  0  0  0  0  0
  -22.5260  -12.0720   22.5830 H   0  0  0  0  0  0  0  0  0  0  0  0
  -21.1820  -13.1570   22.3780 H   0  0  0  0  0  0  0  0  0  0  0  0
  -25.4040  -15.3910   20.5260 N   0  0  0  0  0  0  0  0  0  0  0  0
  -24.6060  -16.0110   20.6000 H   0  0  0  0  0  0  0  0  0  0  0  0
  -26.2340  -15.8640   20.1770 H   0  0  0  0  0  0  0  0  0  0  0  0
  -29.1450  -21.8290   20.0110 C   0  0  0  0  0  2  0  0  0  0  0  0
  -29.9730  -22.9860   20.6540 C   0  0  0  0  0  3  0  0  0  0  0  0
  -31.2940  -22.5620   20.3850 O   0  0  0  0  0  0  0  0  0  0  0  0
  -31.1900  -21.6430   20.1350 H   0  0  0  0  0  0  0  0  0  0  0  0
  -29.8210  -24.4680   20.1110 C   0  0  0  0  0  2  0  0  0  0  0  0
  -28.4660  -25.2410   20.2730 C   0  0  0  0  0  2  0  0  0  0  0  0
  -28.5710  -26.6960   20.1200 O   0  0  0  0  0  0  0  0  0  0  0  0
  -24.6810  -31.8990   23.2020 C   0  0  0  0  0  0  0  0  0  0  0  0
  -27.3990  -27.4540   20.1110 C   0  0  0  0  0  0  0  0  0  0  0  0
  -23.5060  -30.4930   21.5450 C   0  0  0  0  0  3  0  0  0  0  0  0
  -24.9870  -28.9780   20.1190 C   0  0  0  0  0  0  0  0  0  0  0  0
  -26.0340  -30.8690   21.3680 C   0  0  0  0  0  2  0  0  0  0  0  0
  -26.1420  -29.5000   20.7150 C   0  0  0  0  0  0  0  0  0  0  0  0
  -27.3500  -28.7510   20.7000 C   0  0  0  0  0  3  0  0  0  0  0  0
  -26.2170  -26.9700   19.5040 C   0  0  0  0  0  3  0  0  0  0  0  0
  -25.0230  -27.7140   19.5090 C   0  0  0  0  0  3  0  0  0  0  0  0
  -23.7350  -29.8270   20.1630 C   0  0  0  0  0  2  0  0  0  0  0  0
  -24.7590  -31.1040   22.0950 N   0  0  0  0  0  0  0  0  0  0  0  0
  -23.5930  -32.1530   23.7360 O   0  0  0  0  0  0  0  0  0  0  0  0
  -22.8610  -29.4570   22.4970 C   0  0  0  0  0  0  0  0  0  0  0  0
  -21.5450  -29.2370   22.3430 N   0  0  0  0  0  0  0  0  0  0  0  0
  -23.5440  -28.8560   23.3290 O   0  0  0  0  0  0  0  0  0  0  0  0
  -21.0520  -29.7780   21.6460 H   0  0  0  0  0  0  0  0  0  0  0  0
  -18.2010  -27.9250   22.7620 C   0  0  0  0  0  0  0  0  0  0  0  0
  -20.7400  -28.2770   23.1000 C   0  0  0  0  0  3  0  0  0  0  0  0
  -20.9080  -26.8460   22.5410 C   0  0  0  0  0  2  0  0  0  0  0  0
  -19.8470  -26.4750   21.5000 C   0  0  0  0  0  2  0  0  0  0  0  0
  -18.4440  -26.5760   22.1040 C   0  0  0  0  0  2  0  0  0  0  0  0
  -19.2800  -28.7290   23.2160 C   0  0  0  0  0  0  0  0  0  0  0  0
  -18.9990  -29.9890   23.7880 C   0  0  0  0  0  3  0  0  0  0  0  0
  -17.6730  -30.4450   23.9140 C   0  0  0  0  0  3  0  0  0  0  0  0
  -16.6090  -29.6370   23.4770 C   0  0  0  0  0  3  0  0  0  0  0  0
  -16.8740  -28.3790   22.9070 C   0  0  0  0  0  3  0  0  0  0  0  0
  -25.9530  -32.5460   23.8330 C   0  0  0  0  0  3  0  0  0  0  0  0
  -25.6200  -33.9370   24.1700 N   0  0  0  0  0  0  0  0  0  0  0  0
  -25.9350  -35.0000   23.4160 C   0  0  0  0  0  0  0  0  0  0  0  0
  -26.6060  -34.9140   22.3840 O   0  0  0  0  0  0  0  0  0  0  0  0
  -25.0230  -34.0780   24.9710 H   0  0  0  0  0  0  0  0  0  0  0  0
  -24.1720  -36.7630   23.0760 C   0  0  0  0  0  1  0  0  0  0  0  0
  -25.4230  -36.3770   23.8810 C   0  0  0  0  0  3  0  0  0  0  0  0
  -27.5430  -37.2990   24.7120 C   0  0  0  0  0  1  0  0  0  0  0  0
  -26.4370  -37.4500   23.7700 N   0  0  0  0  0  0  0  0  0  0  0  0
  -26.0130  -38.3610   23.9210 H   0  0  0  0  0  0  0  0  0  0  0  0
  -26.4750  -31.7760   25.1070 C   0  0  1  0  0  0  0  0  0  0  0  0
  -25.3820  -31.5130   26.1680 C   0  0  0  0  0  1  0  0  0  0  0  0
  -27.0830  -30.4120   24.7090 C   0  0  0  0  0  1  0  0  0  0  0  0
  -27.6080  -32.5850   25.7820 C   0  0  0  0  0  1  0  0  0  0  0  0
  1  2  1  0
  3 11  1  0
  4  1  1  0
  4  3  2  0
  5  6  2  0
  6  3  1  0
  7  5  1  0
  8  5  1  0
  8  4  1  0
  9  7  1  0
 10  7  1  0
 11 12  1  0
 13 12  1  0
 14 19  1  0
 15 16  1  0
 15 14  1  0
 17 16  1  0
 17 24  1  0
 17 18  1  0
 19 13  1  0
 19 18  1  0
 20 13  2  0
 21 22  2  0
 22 41  1  0
 23 22  1  0
 23 26  1  0
 24 25  1  0
 24 21  1  0
 25 23  2  0
 26 27  1  0
 27 28  2  0
 29 32  1  0
 29 28  1  0
 30 29  2  0
 31 30  1  0
 31 26  2  0
 32 33  1  0
 33 38  2  0
 33 34  1  0
 34 35  2  0
 35 36  1  0
 36 40  1  0
 37 36  2  0
 38 37  1  0
 39 38  1  0
 41 42  1  0
 42 45  1  0
 42 44  1  0
 43 41  2  0
 46 47  1  0
 46 21  1  0
 48 46  1  0
 49  1  1  0
 50 49  1  0
 51 50  1  0
 52 51  1  0
 53 54  1  0
 53 50  1  0
 55 54  1  0
 56 67  2  0
 57 55  1  0
 57 62  1  0
 58 66  1  0
 58 68  1  0
 59 65  1  0
 59 61  1  0
 60 66  1  0
 61 60  1  0
 62 61  2  0
 63 64  1  0
 63 57  2  0
 64 59  2  0
 65 58  1  0
 66 56  1  0
 68 70  2  0
 69 68  1  0
 71 69  1  0
 72 81  2  0
 72 77  1  0
 73 69  1  0
 73 77  1  0
 74 73  1  0
 75 76  1  0
 75 74  1  0
 76 72  1  0
 77 78  2  0
 78 79  1  0
 80 79  2  0
 81 80  1  0
 82 56  1  0
 82 83  1  0
 82 92  1  0
 83 86  1  0
 84 88  1  0
 84 83  1  0
 85 84  2  0
 88 87  1  0
 90 88  1  0
 90 91  1  0
 90 89  1  0
 92 95  1  1
 92 93  1  0
 94 92  1  0
M  ISO  4  12 100  13 100  54 101  55 101
M  END
>  <TORSDO>  (48) 
F 23

>  <SCORE>  (48) 
-12.524

>  <name>  (48) 
48

>  <ligand_id>  (48) 
48

>  <original_smiles>  (48) 
[H]OC([H])(C([H])([H])N([H])c1sc(N([H])[H])nc1C([H])=NC(=O)N1C([H])([H])C([H])([H])C([H])([H])C([H])(n2nc(-c3c([H])c([H])c(Oc4c([H])c([H])c(F)c([H])c4F)c([H])c3[H])c(C(=O)N([H])[H])c2N([H])[H])C1([H])[H])C([H])([H])C([H])([H])Oc1c([H])c([H])c2c(c1[H])C([H])([H])N(C(=O)C([H])(N([H])C(=O)C([H])(N([H])C([H])([H])[H])C([H])([H])[H])C(C([H])([H])[H])(C([H])([H])[H])C([H])([H])[H])C([H])(C(=O)N([H])C1([H])c3c([H])c([H])c([H])c([H])c3C([H])([H])C([H])([H])C1([H])[H])C2([H])[H]

>  <smiles>  (48) 
[H]OC([H])(C([H])([H])N([H])c1sc(N([H])[H])nc1C([H])=NC(=O)N1C([H])([H])C([H])([H])C([H])([H])C([H])(n2nc(-c3c([H])c([H])c(Oc4c([H])c([H])c(F)c([H])c4F)c([H])c3[H])c(C(=O)N([H])[H])c2N([H])[H])C1([H])[H])C([H])([H])C([H])([H])Oc1c([H])c([H])c2c(c1[H])C([H])([H])N(C(=O)C([H])(N([H])C(=O)C([H])(N([H])C([H])([H])[H])C([H])([H])[H])C(C([H])([H])[H])(C([H])([H])[H])C([H])([H])[H])C([H])(C(=O)N([H])C1([H])c3c([H])c([H])c([H])c([H])c3C([H])([H])C([H])([H])C1([H])[H])C2([H])[H]

$$$$
49:0:0
     RDKit          3D

 96104  0  0  1  0  0  0  0  0999 V2000
  -29.9860  -22.0720   21.7330 C   0  0  0  0  0  1  0  0  0  0  0  0
  -27.6880  -21.3450   21.0610 C   0  0  0  0  0  1  0  0  0  0  0  0
  -29.1270  -21.5510   20.5360 C   0  0  2  0  0  0  0  0  0  0  0  0
  -30.9710  -18.1710   20.4830 C   0  0  0  0  0  0  0  0  0  0  0  0
  -29.8910  -17.4660   19.9510 C   0  0  0  0  0  0  0  0  0  0  0  0
  -29.6340  -20.0910   20.1320 C   0  0  0  0  0  0  0  0  0  0  0  0
  -30.8250  -19.5910   20.4910 N   0  0  0  0  0  0  0  0  0  0  0  0
  -28.6650  -18.7060   19.5000 S   0  0  0  0  0  0  0  0  0  0  0  0
  -30.4150  -14.9540   19.7150 C   0  0  0  0  0  0  0  0  0  0  0  0
  -30.1340  -12.6840   18.7060 C   0  0  0  0  0  2  0  0  0  0  0  0
  -29.0630  -12.7160   17.5900 C   0  0  0  0  0  2  0  0  0  0  0  0
  -27.6530  -12.5160   18.1760 C   0  0  0  0  0  2  0  0  0  0  0  0
  -27.3870  -13.4140   19.4130 C   0  0  0  0  0  3  0  0  0  0  0  0
  -28.5570  -13.3680   20.4210 C   0  0  0  0  0  2  0  0  0  0  0  0
  -29.7800  -13.7330   19.6930 N   0  0  0  0  0  0  0  0  0  0  0  0
  -31.5870  -15.0550   19.3510 O   0  0  0  0  0  0  0  0  0  0  0  0
  -29.6210  -16.0820   19.8600 N   0  0  0  0  0  0  0  0  0  0  0  0
  -28.6420  -15.8570   19.8490 H   0  0  0  0  0  0  0  0  0  0  0  0
  -25.0670  -13.9800   20.3530 C   0  0  0  0  0  0  0  0  0  0  0  0
  -24.0440  -13.1900   20.8130 C   0  0  0  0  0  0  0  0  0  0  0  0
  -24.5240  -11.8470   20.7460 C   0  0  0  0  0  0  0  0  0  0  0  0
  -26.0980  -13.1140   20.0270 N   0  0  0  0  0  0  0  0  0  0  0  0
  -25.7830  -11.8270   20.3270 N   0  0  0  0  0  0  0  0  0  0  0  0
  -23.8350  -10.5750   20.9940 C   0  0  0  0  0  0  0  0  0  0  0  0
  -24.2940   -9.6660   21.9750 C   0  0  0  0  0  3  0  0  0  0  0  0
  -23.6020   -8.4580   22.2090 C   0  0  0  0  0  3  0  0  0  0  0  0
  -22.4410   -8.1480   21.4650 C   0  0  0  0  0  0  0  0  0  0  0  0
  -22.0010   -9.0480   20.4770 C   0  0  0  0  0  3  0  0  0  0  0  0
  -22.6900  -10.2450   20.2410 C   0  0  0  0  0  3  0  0  0  0  0  0
  -21.7180   -6.9880   21.6100 O   0  0  0  0  0  0  0  0  0  0  0  0
  -21.6320   -6.3400   22.8150 C   0  0  0  0  0  0  0  0  0  0  0  0
  -21.1090   -6.9710   23.9640 C   0  0  0  0  0  3  0  0  0  0  0  0
  -20.9730   -6.2480   25.1660 C   0  0  0  0  0  3  0  0  0  0  0  0
  -21.3480   -4.8930   25.2180 C   0  0  0  0  0  0  0  0  0  0  0  0
  -21.8590   -4.2590   24.0730 C   0  0  0  0  0  3  0  0  0  0  0  0
  -21.9960   -4.9810   22.8730 C   0  0  0  0  0  0  0  0  0  0  0  0
  -22.4720   -4.3600   21.7680 F   0  0  0  0  0  0  0  0  0  0  0  0
  -21.2110   -4.1940   26.3690 F   0  0  0  0  0  0  0  0  0  0  0  0
  -22.6670  -13.6460   21.1990 C   0  0  0  0  0  0  0  0  0  0  0  0
  -22.0350  -12.9560   22.1400 N   0  0  0  0  0  0  0  0  0  0  0  0
  -22.1650  -14.6520   20.6980 O   0  0  0  0  0  0  0  0  0  0  0  0
  -22.4530  -12.1390   22.5620 H   0  0  0  0  0  0  0  0  0  0  0  0
  -21.1140  -13.2460   22.4440 H   0  0  0  0  0  0  0  0  0  0  0  0
  -25.1920  -15.3510   20.1600 N   0  0  0  0  0  0  0  0  0  0  0  0
  -24.4460  -15.9960   20.3960 H   0  0  0  0  0  0  0  0  0  0  0  0
  -25.9730  -15.8120   19.7110 H   0  0  0  0  0  0  0  0  0  0  0  0
  -32.2330  -17.6290   21.1210 C   0  0  1  0  0  0  0  0  0  0  0  0
  -32.0080  -16.4950   21.7870 F   0  0  0  0  0  0  0  0  0  0  0  0
  -33.1830  -17.4040   20.2110 F   0  0  0  0  0  0  0  0  0  0  0  0
  -32.7380  -18.4850   22.0180 F   0  0  0  0  0  0  0  0  0  0  0  0
  -29.1560  -22.7600   19.4620 C   0  0  0  0  0  2  0  0  0  0  0  0
  -28.1710  -24.0630   19.5360 C   0  0  0  0  0  3  0  0  0  0  0  0
  -28.1570  -24.5840   18.2170 O   0  0  0  0  0  0  0  0  0  0  0  0
  -28.9510  -25.1070   18.1100 H   0  0  0  0  0  0  0  0  0  0  0  0
  -28.3930  -25.3540   20.4850 C   0  0  0  0  0  2  0  0  0  0  0  0
  -28.2980  -26.7580   19.9750 O   0  0  0  0  0  0  0  0  0  0  0  0
  -24.5540  -31.9720   23.4090 C   0  0  0  0  0  0  0  0  0  0  0  0
  -27.1380  -27.5440   20.1030 C   0  0  0  0  0  0  0  0  0  0  0  0
  -23.3270  -30.6390   21.7350 C   0  0  0  0  0  3  0  0  0  0  0  0
  -24.7560  -29.1470   20.2240 C   0  0  0  0  0  0  0  0  0  0  0  0
  -25.8640  -30.9740   21.5120 C   0  0  0  0  0  2  0  0  0  0  0  0
  -25.9410  -29.6280   20.7950 C   0  0  0  0  0  0  0  0  0  0  0  0
  -27.1390  -28.8480   20.6990 C   0  0  0  0  0  3  0  0  0  0  0  0
  -25.9190  -27.1020   19.5480 C   0  0  0  0  0  3  0  0  0  0  0  0
  -24.7430  -27.8870   19.5980 C   0  0  0  0  0  3  0  0  0  0  0  0
  -23.5270  -30.0390   20.3220 C   0  0  0  0  0  2  0  0  0  0  0  0
  -24.6050  -31.2050   22.2840 N   0  0  0  0  0  0  0  0  0  0  0  0
  -23.4790  -32.2170   23.9800 O   0  0  0  0  0  0  0  0  0  0  0  0
  -22.6840  -29.5740   22.6570 C   0  0  0  0  0  0  0  0  0  0  0  0
  -21.3660  -29.3580   22.5100 N   0  0  0  0  0  0  0  0  0  0  0  0
  -23.3680  -28.9490   23.4720 O   0  0  0  0  0  0  0  0  0  0  0  0
  -20.8780  -29.9270   21.8330 H   0  0  0  0  0  0  0  0  0  0  0  0
  -18.0200  -28.0230   22.9010 C   0  0  0  0  0  0  0  0  0  0  0  0
  -20.5600  -28.3810   23.2450 C   0  0  0  0  0  3  0  0  0  0  0  0
  -20.7350  -26.9620   22.6520 C   0  0  0  0  0  2  0  0  0  0  0  0
  -19.6720  -26.6090   21.6080 C   0  0  0  0  0  2  0  0  0  0  0  0
  -18.2670  -26.6880   22.2160 C   0  0  0  0  0  2  0  0  0  0  0  0
  -19.0980  -28.8220   23.3650 C   0  0  0  0  0  0  0  0  0  0  0  0
  -18.8120  -30.0640   23.9730 C   0  0  0  0  0  3  0  0  0  0  0  0
  -17.4870  -30.5120   24.1130 C   0  0  0  0  0  3  0  0  0  0  0  0
  -16.4230  -29.7080   23.6640 C   0  0  0  0  0  3  0  0  0  0  0  0
  -16.6900  -28.4660   23.0590 C   0  0  0  0  0  3  0  0  0  0  0  0
  -25.8440  -32.5830   24.0390 C   0  0  0  0  0  3  0  0  0  0  0  0
  -25.5600  -33.9880   24.3540 N   0  0  0  0  0  0  0  0  0  0  0  0
  -25.9040  -35.0300   23.5850 C   0  0  0  0  0  0  0  0  0  0  0  0
  -26.5680  -34.9080   22.5510 O   0  0  0  0  0  0  0  0  0  0  0  0
  -24.9640  -34.1570   25.1510 H   0  0  0  0  0  0  0  0  0  0  0  0
  -24.1920  -36.8480   23.2290 C   0  0  0  0  0  1  0  0  0  0  0  0
  -25.4380  -36.4300   24.0300 C   0  0  0  0  0  3  0  0  0  0  0  0
  -27.5930  -37.2940   24.8290 C   0  0  0  0  0  1  0  0  0  0  0  0
  -26.4860  -37.4700   23.8920 N   0  0  0  0  0  0  0  0  0  0  0  0
  -26.0930  -38.3980   24.0420 H   0  0  0  0  0  0  0  0  0  0  0  0
  -26.3240  -31.8180   25.3310 C   0  0  1  0  0  0  0  0  0  0  0  0
  -25.2080  -31.5760   26.3740 C   0  0  0  0  0  1  0  0  0  0  0  0
  -26.9300  -30.4490   24.9530 C   0  0  0  0  0  1  0  0  0  0  0  0
  -27.4450  -32.6280   26.0260 C   0  0  0  0  0  1  0  0  0  0  0  0
  3  2  1  1
  3  1  1  0
  4  7  1  0
  4 47  1  0
  5  4  2  0
  6  7  2  0
  6  3  1  0
  8  5  1  0
  8  6  1  0
  9 17  1  0
 10 15  1  0
 11 12  1  0
 11 10  1  0
 13 12  1  0
 13 22  1  0
 13 14  1  0
 15  9  1  0
 15 14  1  0
 16  9  2  0
 17  5  1  0
 18 17  1  0
 19 20  2  0
 20 39  1  0
 21 20  1  0
 21 24  1  0
 22 23  1  0
 22 19  1  0
 23 21  2  0
 24 25  1  0
 25 26  2  0
 27 30  1  0
 27 26  1  0
 28 27  2  0
 29 28  1  0
 29 24  2  0
 30 31  1  0
 31 36  2  0
 31 32  1  0
 32 33  2  0
 33 34  1  0
 34 38  1  0
 35 34  2  0
 36 35  1  0
 37 36  1  0
 39 40  1  0
 40 43  1  0
 40 42  1  0
 41 39  2  0
 44 19  1  0
 44 45  1  0
 46 44  1  0
 47 48  1  1
 47 50  1  0
 49 47  1  0
 51  3  1  0
 52 51  1  0
 52 55  1  0
 53 52  1  0
 54 53  1  0
 56 58  1  0
 56 55  1  0
 57 68  2  0
 58 63  1  0
 59 67  1  0
 59 69  1  0
 60 66  1  0
 60 62  1  0
 61 67  1  0
 62 61  1  0
 63 62  2  0
 64 65  1  0
 64 58  2  0
 65 60  2  0
 66 59  1  0
 67 57  1  0
 69 71  2  0
 70 69  1  0
 72 70  1  0
 73 82  2  0
 73 78  1  0
 74 70  1  0
 74 78  1  0
 75 74  1  0
 76 77  1  0
 76 75  1  0
 77 73  1  0
 78 79  2  0
 79 80  1  0
 81 80  2  0
 82 81  1  0
 83 57  1  0
 83 84  1  0
 83 93  1  0
 84 87  1  0
 85 89  1  0
 85 84  1  0
 86 85  2  0
 89 88  1  0
 91 89  1  0
 91 92  1  0
 91 90  1  0
 93 96  1  1
 93 94  1  0
 95 93  1  0
M  ISO  4   9 100  17 100  55 101  56 101
M  END
>  <TORSDO>  (49) 
F 22

>  <SCORE>  (49) 
-11.965

>  <name>  (49) 
49

>  <ligand_id>  (49) 
49

>  <original_smiles>  (49) 
[H]OC([H])(C([H])([H])Oc1c([H])c([H])c2c(c1[H])C([H])([H])N(C(=O)C([H])(N([H])C(=O)C([H])(N([H])C([H])([H])[H])C([H])([H])[H])C(C([H])([H])[H])(C([H])([H])[H])C([H])([H])[H])C([H])(C(=O)N([H])C1([H])c3c([H])c([H])c([H])c([H])c3C([H])([H])C([H])([H])C1([H])[H])C2([H])[H])C([H])([H])C(c1nc(C(F)(F)F)c(N([H])C(=O)N2C([H])([H])C([H])([H])C([H])([H])C([H])(n3nc(-c4c([H])c([H])c(Oc5c([H])c([H])c(F)c([H])c5F)c([H])c4[H])c(C(=O)N([H])[H])c3N([H])[H])C2([H])[H])s1)(C([H])([H])[H])C([H])([H])[H]

>  <smiles>  (49) 
[H]OC([H])(C([H])([H])Oc1c([H])c([H])c2c(c1[H])C([H])([H])N(C(=O)C([H])(N([H])C(=O)C([H])(N([H])C([H])([H])[H])C([H])([H])[H])C(C([H])([H])[H])(C([H])([H])[H])C([H])([H])[H])C([H])(C(=O)N([H])C1([H])c3c([H])c([H])c([H])c([H])c3C([H])([H])C([H])([H])C1([H])[H])C2([H])[H])C([H])([H])C(c1nc(C(F)(F)F)c(N([H])C(=O)N2C([H])([H])C([H])([H])C([H])([H])C([H])(n3nc(-c4c([H])c([H])c(Oc5c([H])c([H])c(F)c([H])c5F)c([H])c4[H])c(C(=O)N([H])[H])c3N([H])[H])C2([H])[H])s1)(C([H])([H])[H])C([H])([H])[H]

$$$$
50:0:0
     RDKit          3D

 93101  0  0  1  0  0  0  0  0999 V2000
  -30.8240  -22.4950   19.9430 C   0  0  0  0  0  1  0  0  0  0  0  0
  -29.4480  -22.2910   20.6040 C   0  0  0  0  0  3  0  0  0  0  0  0
  -30.2250  -17.5770   18.6080 C   0  0  0  0  0  3  0  0  0  0  0  0
  -29.9870  -17.1810   19.9060 C   0  0  0  0  0  0  0  0  0  0  0  0
  -29.4910  -19.5420   20.0310 C   0  0  0  0  0  0  0  0  0  0  0  0
  -29.5240  -18.3280   20.6690 N   0  0  0  0  0  0  0  0  0  0  0  0
  -29.0580  -20.8100   20.5960 N   0  0  0  0  0  0  0  0  0  0  0  0
  -30.0130  -19.3220   18.3610 S   0  0  0  0  0  0  0  0  0  0  0  0
  -28.6900  -20.5820   21.5160 H   0  0  0  0  0  0  0  0  0  0  0  0
  -30.7260  -14.7170   19.6420 C   0  0  0  0  0  0  0  0  0  0  0  0
  -30.2710  -12.5550   18.3740 C   0  0  0  0  0  2  0  0  0  0  0  0
  -29.1750  -12.6880   17.2980 C   0  0  0  0  0  2  0  0  0  0  0  0
  -27.7860  -12.4840   17.9280 C   0  0  0  0  0  2  0  0  0  0  0  0
  -27.6040  -13.3130   19.2200 C   0  0  0  0  0  3  0  0  0  0  0  0
  -28.7920  -13.1620   20.1710 C   0  0  0  0  0  2  0  0  0  0  0  0
  -30.0130  -13.5460   19.4610 N   0  0  0  0  0  0  0  0  0  0  0  0
  -31.8000  -14.8400   19.0320 O   0  0  0  0  0  0  0  0  0  0  0  0
  -30.2010  -15.7800   20.4100 N   0  0  0  0  0  0  0  0  0  0  0  0
  -25.4370  -13.8940   20.4460 C   0  0  0  0  0  0  0  0  0  0  0  0
  -24.4090  -13.1180   20.9110 C   0  0  0  0  0  0  0  0  0  0  0  0
  -24.7840  -11.7650   20.6480 C   0  0  0  0  0  0  0  0  0  0  0  0
  -26.3580  -13.0110   19.9130 N   0  0  0  0  0  0  0  0  0  0  0  0
  -25.9910  -11.7180   20.0990 N   0  0  0  0  0  0  0  0  0  0  0  0
  -24.0340  -10.5140   20.8270 C   0  0  0  0  0  0  0  0  0  0  0  0
  -24.5330   -9.4720   21.6410 C   0  0  0  0  0  3  0  0  0  0  0  0
  -23.7930   -8.2810   21.8150 C   0  0  0  0  0  3  0  0  0  0  0  0
  -22.5410   -8.1230   21.1710 C   0  0  0  0  0  0  0  0  0  0  0  0
  -22.0580   -9.1540   20.3470 C   0  0  0  0  0  3  0  0  0  0  0  0
  -22.7980  -10.3350   20.1730 C   0  0  0  0  0  3  0  0  0  0  0  0
  -21.7620   -6.9930   21.2540 O   0  0  0  0  0  0  0  0  0  0  0  0
  -21.7770   -6.1890   22.3640 C   0  0  0  0  0  0  0  0  0  0  0  0
  -21.4720   -6.6870   23.6500 C   0  0  0  0  0  3  0  0  0  0  0  0
  -21.4400   -5.8120   24.7550 C   0  0  0  0  0  3  0  0  0  0  0  0
  -21.6940   -4.4390   24.5720 C   0  0  0  0  0  0  0  0  0  0  0  0
  -21.9860   -3.9370   23.2910 C   0  0  0  0  0  3  0  0  0  0  0  0
  -22.0260   -4.8120   22.1900 C   0  0  0  0  0  0  0  0  0  0  0  0
  -22.2890   -4.3250   20.9540 F   0  0  0  0  0  0  0  0  0  0  0  0
  -21.6480   -3.5940   25.6290 F   0  0  0  0  0  0  0  0  0  0  0  0
  -23.1110  -13.6030   21.4800 C   0  0  0  0  0  0  0  0  0  0  0  0
  -22.5290  -12.8410   22.4050 N   0  0  0  0  0  0  0  0  0  0  0  0
  -22.6230  -14.6800   21.1420 O   0  0  0  0  0  0  0  0  0  0  0  0
  -22.9380  -11.9620   22.6860 H   0  0  0  0  0  0  0  0  0  0  0  0
  -21.6670  -13.1330   22.8340 H   0  0  0  0  0  0  0  0  0  0  0  0
  -25.6610  -15.2670   20.4060 N   0  0  0  0  0  0  0  0  0  0  0  0
  -25.0300  -15.9520   20.8090 H   0  0  0  0  0  0  0  0  0  0  0  0
  -26.4890  -15.6820   19.9960 H   0  0  0  0  0  0  0  0  0  0  0  0
  -30.2970  -14.5370   22.7420 C   0  0  0  0  0  1  0  0  0  0  0  0
  -30.4870  -15.8020   21.8780 C   0  0  0  0  0  2  0  0  0  0  0  0
  -28.3530  -23.4340   20.1700 C   0  0  0  0  0  3  0  0  0  0  0  0
  -27.1670  -22.7820   20.5730 O   0  0  0  0  0  0  0  0  0  0  0  0
  -27.4010  -21.8520   20.5850 H   0  0  0  0  0  0  0  0  0  0  0  0
  -28.3510  -24.9600   20.8040 C   0  0  0  0  0  2  0  0  0  0  0  0
  -28.2960  -26.2860   20.0750 O   0  0  0  0  0  0  0  0  0  0  0  0
  -24.4250  -31.7260   23.0450 C   0  0  0  0  0  0  0  0  0  0  0  0
  -27.1600  -27.1330   20.0980 C   0  0  0  0  0  0  0  0  0  0  0  0
  -23.2730  -30.2980   21.3960 C   0  0  0  0  0  3  0  0  0  0  0  0
  -24.7750  -28.7410   20.0120 C   0  0  0  0  0  0  0  0  0  0  0  0
  -25.8160  -30.6410   21.2510 C   0  0  0  0  0  2  0  0  0  0  0  0
  -25.9280  -29.2510   20.6230 C   0  0  0  0  0  0  0  0  0  0  0  0
  -27.1260  -28.4640   20.6440 C   0  0  0  0  0  3  0  0  0  0  0  0
  -25.9820  -26.6840   19.4690 C   0  0  0  0  0  3  0  0  0  0  0  0
  -24.8070  -27.4650   19.4220 C   0  0  0  0  0  3  0  0  0  0  0  0
  -23.5230  -29.6060   20.0300 C   0  0  0  0  0  2  0  0  0  0  0  0
  -24.5230  -30.9070   21.9530 N   0  0  0  0  0  0  0  0  0  0  0  0
  -23.3280  -31.9910   23.5580 O   0  0  0  0  0  0  0  0  0  0  0  0
  -22.6030  -29.2820   22.3550 C   0  0  0  0  0  0  0  0  0  0  0  0
  -21.2720  -29.1250   22.2430 N   0  0  0  0  0  0  0  0  0  0  0  0
  -23.2810  -28.6370   23.1580 O   0  0  0  0  0  0  0  0  0  0  0  0
  -20.7820  -29.6950   21.5680 H   0  0  0  0  0  0  0  0  0  0  0  0
  -17.8780  -28.0020   22.8180 C   0  0  0  0  0  0  0  0  0  0  0  0
  -20.4510  -28.1880   23.0140 C   0  0  0  0  0  3  0  0  0  0  0  0
  -20.4950  -26.7690   22.3980 C   0  0  0  0  0  2  0  0  0  0  0  0
  -19.3560  -26.5040   21.4110 C   0  0  0  0  0  2  0  0  0  0  0  0
  -17.9980  -26.6670   22.1000 C   0  0  0  0  0  2  0  0  0  0  0  0
  -19.0300  -28.7220   23.2330 C   0  0  0  0  0  0  0  0  0  0  0  0
  -18.8610  -29.9750   23.8640 C   0  0  0  0  0  3  0  0  0  0  0  0
  -17.5740  -30.5020   24.0850 C   0  0  0  0  0  3  0  0  0  0  0  0
  -16.4380  -29.7760   23.6860 C   0  0  0  0  0  3  0  0  0  0  0  0
  -16.5930  -28.5290   23.0550 C   0  0  0  0  0  3  0  0  0  0  0  0
  -25.6860  -32.3830   23.6850 C   0  0  0  0  0  3  0  0  0  0  0  0
  -25.3380  -33.7670   24.0430 N   0  0  0  0  0  0  0  0  0  0  0  0
  -25.6370  -34.8420   23.3040 C   0  0  0  0  0  0  0  0  0  0  0  0
  -26.3080  -34.7780   22.2710 O   0  0  0  0  0  0  0  0  0  0  0  0
  -24.7410  -33.8890   24.8480 H   0  0  0  0  0  0  0  0  0  0  0  0
  -23.8660  -36.6000   22.9890 C   0  0  0  0  0  1  0  0  0  0  0  0
  -25.1140  -36.2090   23.7940 C   0  0  0  0  0  3  0  0  0  0  0  0
  -27.2200  -37.1310   24.6530 C   0  0  0  0  0  1  0  0  0  0  0  0
  -26.1190  -37.2910   23.7070 N   0  0  0  0  0  0  0  0  0  0  0  0
  -25.6880  -38.1980   23.8710 H   0  0  0  0  0  0  0  0  0  0  0  0
  -26.2140  -31.6050   24.9530 C   0  0  1  0  0  0  0  0  0  0  0  0
  -25.1220  -31.3100   26.0110 C   0  0  0  0  0  1  0  0  0  0  0  0
  -26.8400  -30.2550   24.5380 C   0  0  0  0  0  1  0  0  0  0  0  0
  -27.3470  -32.4170   25.6280 C   0  0  0  0  0  1  0  0  0  0  0  0
  2  1  1  0
  3  4  2  0
  4 18  1  0
  4  6  1  0
  5  7  1  0
  5  6  2  0
  7  2  1  0
  7  9  1  0
  8  3  1  0
  8  5  1  0
 10 18  1  0
 11 16  1  0
 12 13  1  0
 12 11  1  0
 14 13  1  0
 14 22  1  0
 14 15  1  0
 16 10  1  0
 16 15  1  0
 17 10  2  0
 18 48  1  0
 19 20  2  0
 20 39  1  0
 21 24  1  0
 21 20  1  0
 22 23  1  0
 22 19  1  0
 23 21  2  0
 24 25  1  0
 25 26  2  0
 27 30  1  0
 27 26  1  0
 28 27  2  0
 29 28  1  0
 29 24  2  0
 30 31  1  0
 31 32  1  0
 32 33  2  0
 34 33  1  0
 34 38  1  0
 35 34  2  0
 36 31  2  0
 36 35  1  0
 37 36  1  0
 39 40  1  0
 40 42  1  0
 40 43  1  0
 41 39  2  0
 44 19  1  0
 44 45  1  0
 46 44  1  0
 48 47  1  0
 49 50  1  0
 49  2  1  0
 49 52  1  0
 50 51  1  0
 53 55  1  0
 53 52  1  0
 54 65  2  0
 55 60  1  0
 56 64  1  0
 56 66  1  0
 57 63  1  0
 57 59  1  0
 58 64  1  0
 59 60  2  0
 59 58  1  0
 61 55  2  0
 62 61  1  0
 62 57  2  0
 63 56  1  0
 64 54  1  0
 66 68  2  0
 67 66  1  0
 69 67  1  0
 70 79  2  0
 70 75  1  0
 71 67  1  0
 71 75  1  0
 72 71  1  0
 73 74  1  0
 73 72  1  0
 74 70  1  0
 75 76  2  0
 76 77  1  0
 78 77  2  0
 79 78  1  0
 80 54  1  0
 80 81  1  0
 80 90  1  0
 81 84  1  0
 82 86  1  0
 82 81  1  0
 83 82  2  0
 86 85  1  0
 88 86  1  0
 88 89  1  0
 88 87  1  0
 90 93  1  1
 90 91  1  0
 92 90  1  0
M  ISO  4  10 100  18 100  52 101  53 101
M  END
>  <TORSDO>  (50) 
F 21

>  <SCORE>  (50) 
-10.003

>  <name>  (50) 
50

>  <ligand_id>  (50) 
50

>  <original_smiles>  (50) 
[H]OC([H])(C([H])([H])Oc1c([H])c([H])c2c(c1[H])C([H])([H])N(C(=O)C([H])(N([H])C(=O)C([H])(N([H])C([H])([H])[H])C([H])([H])[H])C(C([H])([H])[H])(C([H])([H])[H])C([H])([H])[H])C([H])(C(=O)N([H])C1([H])c3c([H])c([H])c([H])c([H])c3C([H])([H])C([H])([H])C1([H])[H])C2([H])[H])C([H])(N([H])c1nc(N(C(=O)N2C([H])([H])C([H])([H])C([H])([H])C([H])(n3nc(-c4c([H])c([H])c(Oc5c([H])c([H])c(F)c([H])c5F)c([H])c4[H])c(C(=O)N([H])[H])c3N([H])[H])C2([H])[H])C([H])([H])C([H])([H])[H])c([H])s1)C([H])([H])[H]

>  <smiles>  (50) 
[H]OC([H])(C([H])([H])Oc1c([H])c([H])c2c(c1[H])C([H])([H])N(C(=O)C([H])(N([H])C(=O)C([H])(N([H])C([H])([H])[H])C([H])([H])[H])C(C([H])([H])[H])(C([H])([H])[H])C([H])([H])[H])C([H])(C(=O)N([H])C1([H])c3c([H])c([H])c([H])c([H])c3C([H])([H])C([H])([H])C1([H])[H])C2([H])[H])C([H])(N([H])c1nc(N(C(=O)N2C([H])([H])C([H])([H])C([H])([H])C([H])(n3nc(-c4c([H])c([H])c(Oc5c([H])c([H])c(F)c([H])c5F)c([H])c4[H])c(C(=O)N([H])[H])c3N([H])[H])C2([H])[H])C([H])([H])C([H])([H])[H])c([H])s1)C([H])([H])[H]

$$$$
51:0:0
     RDKit          3D

 97105  0  0  1  0  0  0  0  0999 V2000
  -29.5360  -18.9260   19.5750 C   0  0  0  0  0  0  0  0  0  0  0  0
  -28.1690  -18.8360   19.3630 C   0  0  0  0  0  0  0  0  0  0  0  0
  -28.9150  -21.2520   19.2870 C   0  0  0  0  0  0  0  0  0  0  0  0
  -28.2370  -23.8030   19.2730 C   0  0  0  0  0  0  0  0  0  0  0  0
  -29.9190  -20.3260   19.4690 N   0  0  0  0  0  0  0  0  0  0  0  0
  -29.1030  -22.7200   19.1230 N   0  0  0  0  0  0  0  0  0  0  0  0
  -27.1450  -23.6660   19.8340 O   0  0  0  0  0  0  0  0  0  0  0  0
  -27.3780  -20.4070   19.1420 S   0  0  0  0  0  0  0  0  0  0  0  0
  -30.0220  -22.9760   18.7960 H   0  0  0  0  0  0  0  0  0  0  0  0
  -27.3610  -17.7030   19.3740 N   0  0  0  0  0  0  0  0  0  0  0  0
  -27.4710  -17.0230   20.1190 H   0  0  0  0  0  0  0  0  0  0  0  0
  -26.3760  -17.8300   19.1550 H   0  0  0  0  0  0  0  0  0  0  0  0
  -30.1480  -25.3070   18.4620 C   0  0  0  0  0  1  0  0  0  0  0  0
  -28.6390  -25.2830   18.7480 C   0  0  0  0  0  3  0  0  0  0  0  0
  -28.3900  -26.4900   19.6280 O   0  0  0  0  0  0  0  0  0  0  0  0
  -24.4830  -31.6000   22.9960 C   0  0  0  0  0  0  0  0  0  0  0  0
  -27.2520  -27.3400   19.5820 C   0  0  0  0  0  0  0  0  0  0  0  0
  -23.3440  -30.3390   21.2070 C   0  0  0  0  0  3  0  0  0  0  0  0
  -24.8570  -28.9410   19.6810 C   0  0  0  0  0  0  0  0  0  0  0  0
  -25.8860  -30.7040   21.1160 C   0  0  0  0  0  2  0  0  0  0  0  0
  -26.0060  -29.3880   20.3380 C   0  0  0  0  0  0  0  0  0  0  0  0
  -27.2010  -28.6010   20.2770 C   0  0  0  0  0  3  0  0  0  0  0  0
  -26.0670  -26.9590   18.9120 C   0  0  0  0  0  3  0  0  0  0  0  0
  -24.8910  -27.7340   18.9650 C   0  0  0  0  0  3  0  0  0  0  0  0
  -23.6060  -29.7900   19.7780 C   0  0  0  0  0  2  0  0  0  0  0  0
  -24.5890  -30.8960   21.8300 N   0  0  0  0  0  0  0  0  0  0  0  0
  -23.3830  -31.8130   23.5260 O   0  0  0  0  0  0  0  0  0  0  0  0
  -22.6700  -29.2370   22.0560 C   0  0  0  0  0  0  0  0  0  0  0  0
  -21.3330  -29.1210   21.9590 N   0  0  0  0  0  0  0  0  0  0  0  0
  -23.3510  -28.4900   22.7660 O   0  0  0  0  0  0  0  0  0  0  0  0
  -20.8450  -29.7800   21.3690 H   0  0  0  0  0  0  0  0  0  0  0  0
  -17.9250  -28.0470   22.5470 C   0  0  0  0  0  0  0  0  0  0  0  0
  -20.5090  -28.1150   22.6330 C   0  0  0  0  0  3  0  0  0  0  0  0
  -20.4640  -26.7950   21.8280 C   0  0  0  0  0  2  0  0  0  0  0  0
  -19.2700  -26.7110   20.8720 C   0  0  0  0  0  2  0  0  0  0  0  0
  -17.9530  -26.8230   21.6460 C   0  0  0  0  0  2  0  0  0  0  0  0
  -19.1230  -28.6610   22.9960 C   0  0  0  0  0  0  0  0  0  0  0  0
  -19.0380  -29.8140   23.8050 C   0  0  0  0  0  3  0  0  0  0  0  0
  -17.7880  -30.3510   24.1670 C   0  0  0  0  0  3  0  0  0  0  0  0
  -16.6030  -29.7290   23.7290 C   0  0  0  0  0  3  0  0  0  0  0  0
  -16.6750  -28.5790   22.9250 C   0  0  0  0  0  3  0  0  0  0  0  0
  -25.7360  -32.1960   23.7050 C   0  0  0  0  0  3  0  0  0  0  0  0
  -26.1840  -31.3670   24.9720 C   0  0  1  0  0  0  0  0  0  0  0  0
  -25.0350  -31.0920   25.9710 C   0  0  0  0  0  1  0  0  0  0  0  0
  -26.7820  -30.0030   24.5580 C   0  0  0  0  0  1  0  0  0  0  0  0
  -27.3020  -32.1280   25.7210 C   0  0  0  0  0  1  0  0  0  0  0  0
  -25.4180  -33.5820   24.0800 N   0  0  0  0  0  0  0  0  0  0  0  0
  -25.8320  -34.6690   23.4170 C   0  0  0  0  0  0  0  0  0  0  0  0
  -26.5890  -34.6060   22.4440 O   0  0  0  0  0  0  0  0  0  0  0  0
  -24.7540  -33.7030   24.8330 H   0  0  0  0  0  0  0  0  0  0  0  0
  -24.1700  -36.5170   23.0250 C   0  0  0  0  0  1  0  0  0  0  0  0
  -25.3340  -36.0420   23.9100 C   0  0  0  0  0  3  0  0  0  0  0  0
  -27.3990  -36.8480   24.9650 C   0  0  0  0  0  1  0  0  0  0  0  0
  -26.3890  -37.0780   23.9360 N   0  0  0  0  0  0  0  0  0  0  0  0
  -25.9880  -37.9990   24.0890 H   0  0  0  0  0  0  0  0  0  0  0  0
  -30.5520  -17.7730   20.0510 C   0  0  0  0  0  3  0  0  0  0  0  0
  -30.8040  -15.1130   19.9660 C   0  0  0  0  0  0  0  0  0  0  0  0
  -30.6090  -12.7510   19.1320 C   0  0  0  0  0  2  0  0  0  0  0  0
  -29.6520  -12.6990   17.9210 C   0  0  0  0  0  2  0  0  0  0  0  0
  -28.1960  -12.5370   18.3960 C   0  0  0  0  0  2  0  0  0  0  0  0
  -27.8290  -13.4990   19.5580 C   0  0  0  0  0  3  0  0  0  0  0  0
  -28.9120  -13.5390   20.6600 C   0  0  0  0  0  2  0  0  0  0  0  0
  -30.1820  -13.8780   20.0090 N   0  0  0  0  0  0  0  0  0  0  0  0
  -31.9510  -15.1650   19.5120 O   0  0  0  0  0  0  0  0  0  0  0  0
  -30.1120  -16.2950   20.2620 N   0  0  0  0  0  0  0  0  0  0  0  0
  -29.1580  -16.1840   20.5730 H   0  0  0  0  0  0  0  0  0  0  0  0
  -25.4830  -14.0910   20.4000 C   0  0  0  0  0  0  0  0  0  0  0  0
  -24.4220  -13.3190   20.7880 C   0  0  0  0  0  0  0  0  0  0  0  0
  -24.8650  -11.9660   20.7020 C   0  0  0  0  0  0  0  0  0  0  0  0
  -26.5050  -13.2080   20.0980 N   0  0  0  0  0  0  0  0  0  0  0  0
  -26.1430  -11.9210   20.3420 N   0  0  0  0  0  0  0  0  0  0  0  0
  -24.1280  -10.7070   20.8890 C   0  0  0  0  0  0  0  0  0  0  0  0
  -24.5140   -9.7650   21.8670 C   0  0  0  0  0  3  0  0  0  0  0  0
  -23.7790   -8.5720   22.0410 C   0  0  0  0  0  3  0  0  0  0  0  0
  -22.6440   -8.3130   21.2360 C   0  0  0  0  0  0  0  0  0  0  0  0
  -22.2770   -9.2440   20.2490 C   0  0  0  0  0  3  0  0  0  0  0  0
  -23.0120  -10.4300   20.0750 C   0  0  0  0  0  3  0  0  0  0  0  0
  -21.8850   -7.1710   21.3180 O   0  0  0  0  0  0  0  0  0  0  0  0
  -21.7350   -6.4870   22.4970 C   0  0  0  0  0  0  0  0  0  0  0  0
  -21.1570   -7.0860   23.6360 C   0  0  0  0  0  3  0  0  0  0  0  0
  -20.9580   -6.3270   24.8070 C   0  0  0  0  0  3  0  0  0  0  0  0
  -21.3250   -4.9690   24.8370 C   0  0  0  0  0  0  0  0  0  0  0  0
  -21.8980   -4.3690   23.7020 C   0  0  0  0  0  3  0  0  0  0  0  0
  -22.0970   -5.1250   22.5340 C   0  0  0  0  0  0  0  0  0  0  0  0
  -22.6290   -4.5370   21.4350 F   0  0  0  0  0  0  0  0  0  0  0  0
  -21.1270   -4.2380   25.9580 F   0  0  0  0  0  0  0  0  0  0  0  0
  -23.0450  -13.8090   21.1330 C   0  0  0  0  0  0  0  0  0  0  0  0
  -22.3520  -13.1070   22.0250 N   0  0  0  0  0  0  0  0  0  0  0  0
  -22.5950  -14.8460   20.6500 O   0  0  0  0  0  0  0  0  0  0  0  0
  -22.7280  -12.2660   22.4350 H   0  0  0  0  0  0  0  0  0  0  0  0
  -21.4290  -13.4150   22.2960 H   0  0  0  0  0  0  0  0  0  0  0  0
  -25.6590  -15.4630   20.2620 N   0  0  0  0  0  0  0  0  0  0  0  0
  -24.9310  -16.1280   20.4960 H   0  0  0  0  0  0  0  0  0  0  0  0
  -26.5440  -15.9130   20.0580 H   0  0  0  0  0  0  0  0  0  0  0  0
  -31.2580  -17.6250   22.6340 C   0  0  0  0  0  1  0  0  0  0  0  0
  -32.7540  -18.7630   20.9620 C   0  0  0  0  0  1  0  0  0  0  0  0
  -31.2960  -18.3880   21.2970 C   0  0  0  0  0  3  0  0  0  0  0  0
  1 56  1  0
  2 10  1  0
  2  1  2  0
  3  5  2  0
  4  7  2  0
  5  1  1  0
  6  4  1  0
  6  3  1  0
  8  3  1  0
  8  2  1  0
  9  6  1  0
 10 11  1  0
 12 10  1  0
 14 13  1  0
 14  4  1  0
 14 15  1  0
 16 27  2  0
 17 15  1  0
 17 22  1  0
 18 26  1  0
 18 28  1  0
 19 25  1  0
 19 21  1  0
 20 26  1  0
 21 20  1  0
 22 21  2  0
 23 24  1  0
 23 17  2  0
 24 19  2  0
 25 18  1  0
 26 16  1  0
 28 30  2  0
 29 28  1  0
 31 29  1  0
 32 41  2  0
 32 37  1  0
 33 29  1  0
 33 37  1  0
 34 33  1  0
 35 36  1  0
 35 34  1  0
 36 32  1  0
 37 38  2  0
 38 39  1  0
 40 39  2  0
 41 40  1  0
 42 16  1  0
 42 47  1  0
 42 43  1  0
 43 46  1  1
 43 44  1  0
 45 43  1  0
 47 50  1  0
 48 52  1  0
 48 47  1  0
 49 48  2  0
 52 51  1  0
 52 54  1  0
 54 55  1  0
 54 53  1  0
 56 65  1  0
 56 97  1  0
 57 63  1  0
 57 65  1  0
 58 63  1  0
 59 60  1  0
 59 58  1  0
 61 60  1  0
 61 70  1  0
 61 62  1  0
 63 62  1  0
 64 57  2  0
 65 66  1  0
 67 68  2  0
 68 87  1  0
 69 68  1  0
 69 72  1  0
 70 71  1  0
 70 67  1  0
 71 69  2  0
 72 73  1  0
 73 74  2  0
 75 78  1  0
 75 74  1  0
 76 75  2  0
 77 76  1  0
 77 72  2  0
 78 79  1  0
 79 84  2  0
 79 80  1  0
 80 81  2  0
 81 82  1  0
 82 86  1  0
 83 82  2  0
 84 83  1  0
 85 84  1  0
 87 88  1  0
 88 91  1  0
 88 90  1  0
 89 87  2  0
 92 67  1  0
 92 93  1  0
 94 92  1  0
 96 97  1  0
 97 95  1  0
M  ISO  4  14 101  15 101  57 100  65 100
M  END
>  <TORSDO>  (51) 
F 20

>  <SCORE>  (51) 
-13.301

>  <name>  (51) 
51

>  <ligand_id>  (51) 
51

>  <original_smiles>  (51) 
[H]c1c([H])c([H])c2c(c1[H])C([H])([H])C([H])([H])C([H])([H])C2([H])N([H])C(=O)C1([H])N(C(=O)C([H])(N([H])C(=O)C([H])(N([H])C([H])([H])[H])C([H])([H])[H])C(C([H])([H])[H])(C([H])([H])[H])C([H])([H])[H])C([H])([H])c2c([H])c(OC([H])(C(=O)N([H])c3nc(C([H])(N([H])C(=O)N4C([H])([H])C([H])([H])C([H])([H])C([H])(n5nc(-c6c([H])c([H])c(Oc7c([H])c([H])c(F)c([H])c7F)c([H])c6[H])c(C(=O)N([H])[H])c5N([H])[H])C4([H])[H])C([H])(C([H])([H])[H])C([H])([H])[H])c(N([H])[H])s3)C([H])([H])[H])c([H])c([H])c2C1([H])[H]

>  <smiles>  (51) 
[H]c1c([H])c([H])c2c(c1[H])C([H])([H])C([H])([H])C([H])([H])C2([H])N([H])C(=O)C1([H])N(C(=O)C([H])(N([H])C(=O)C([H])(N([H])C([H])([H])[H])C([H])([H])[H])C(C([H])([H])[H])(C([H])([H])[H])C([H])([H])[H])C([H])([H])c2c([H])c(OC([H])(C(=O)N([H])c3nc(C([H])(N([H])C(=O)N4C([H])([H])C([H])([H])C([H])([H])C([H])(n5nc(-c6c([H])c([H])c(Oc7c([H])c([H])c(F)c([H])c7F)c([H])c6[H])c(C(=O)N([H])[H])c5N([H])[H])C4([H])[H])C([H])(C([H])([H])[H])C([H])([H])[H])c(N([H])[H])s3)C([H])([H])[H])c([H])c([H])c2C1([H])[H]

$$$$
52:0:0
     RDKit          3D

 91 99  0  0  1  0  0  0  0  0999 V2000
  -30.5490  -14.8120   20.4440 C   0  0  0  0  0  0  0  0  0  0  0  0
  -30.3830  -12.5090   19.4530 C   0  0  0  0  0  2  0  0  0  0  0  0
  -29.4700  -12.5810   18.2090 C   0  0  0  0  0  2  0  0  0  0  0  0
  -27.9940  -12.4060   18.6200 C   0  0  0  0  0  2  0  0  0  0  0  0
  -27.6010  -13.3000   19.8260 C   0  0  0  0  0  3  0  0  0  0  0  0
  -28.6410  -13.2130   20.9630 C   0  0  0  0  0  2  0  0  0  0  0  0
  -29.9400  -13.5730   20.3860 N   0  0  0  0  0  0  0  0  0  0  0  0
  -31.7470  -14.8970   20.1550 O   0  0  0  0  0  0  0  0  0  0  0  0
  -30.0120  -17.4010   20.5930 C   0  0  0  0  0  0  0  0  0  0  0  0
  -29.5730  -19.6850   20.4990 C   0  0  0  0  0  3  0  0  0  0  0  0
  -29.2340  -22.3000   20.5170 C   0  0  0  0  0  0  0  0  0  0  0  0
  -29.0620  -18.4050   20.4180 N   0  0  0  0  0  0  0  0  0  0  0  0
  -31.2630  -17.8440   20.8130 N   0  0  0  0  0  2  0  0  0  0  0  0
  -29.7310  -15.9360   20.5900 N   0  0  0  0  0  0  0  0  0  0  0  0
  -28.8410  -20.9770   20.2810 N   0  0  0  0  0  0  0  0  0  0  0  0
  -30.2780  -22.5150   21.1350 O   0  0  0  0  0  0  0  0  0  0  0  0
  -31.2920  -19.5530   20.8180 S   0  0  0  0  0  0  0  0  0  0  0  0
  -28.7570  -15.7090   20.7000 H   0  0  0  0  0  0  0  0  0  0  0  0
  -27.9270  -20.8740   19.8650 H   0  0  0  0  0  0  0  0  0  0  0  0
  -25.2030  -13.9070   20.5070 C   0  0  0  0  0  0  0  0  0  0  0  0
  -24.1290  -13.1400   20.8650 C   0  0  0  0  0  0  0  0  0  0  0  0
  -24.5880  -11.7860   20.8540 C   0  0  0  0  0  0  0  0  0  0  0  0
  -26.2490  -13.0210   20.2950 N   0  0  0  0  0  0  0  0  0  0  0  0
  -25.8830  -11.7420   20.5680 N   0  0  0  0  0  0  0  0  0  0  0  0
  -23.8540  -10.5290   21.0410 C   0  0  0  0  0  0  0  0  0  0  0  0
  -24.2730   -9.5630   21.9830 C   0  0  0  0  0  3  0  0  0  0  0  0
  -23.5390   -8.3710   22.1580 C   0  0  0  0  0  3  0  0  0  0  0  0
  -22.3740   -8.1350   21.3920 C   0  0  0  0  0  0  0  0  0  0  0  0
  -21.9730   -9.0890   20.4410 C   0  0  0  0  0  3  0  0  0  0  0  0
  -22.7070  -10.2750   20.2630 C   0  0  0  0  0  3  0  0  0  0  0  0
  -21.6120   -6.9940   21.4770 O   0  0  0  0  0  0  0  0  0  0  0  0
  -21.5510   -6.2530   22.6310 C   0  0  0  0  0  0  0  0  0  0  0  0
  -21.1280   -6.8150   23.8560 C   0  0  0  0  0  3  0  0  0  0  0  0
  -21.0140   -6.0020   25.0000 C   0  0  0  0  0  3  0  0  0  0  0  0
  -21.3130   -4.6280   24.9220 C   0  0  0  0  0  0  0  0  0  0  0  0
  -21.7300   -4.0660   23.7040 C   0  0  0  0  0  3  0  0  0  0  0  0
  -21.8470   -4.8770   22.5600 C   0  0  0  0  0  0  0  0  0  0  0  0
  -22.2290   -4.3260   21.3830 F   0  0  0  0  0  0  0  0  0  0  0  0
  -21.1960   -3.8460   26.0200 F   0  0  0  0  0  0  0  0  0  0  0  0
  -22.7300  -13.6250   21.1030 C   0  0  0  0  0  0  0  0  0  0  0  0
  -21.9790  -12.9430   21.9620 N   0  0  0  0  0  0  0  0  0  0  0  0
  -22.3080  -14.6450   20.5600 O   0  0  0  0  0  0  0  0  0  0  0  0
  -22.3290  -12.1170   22.4240 H   0  0  0  0  0  0  0  0  0  0  0  0
  -21.0380  -13.2560   22.1620 H   0  0  0  0  0  0  0  0  0  0  0  0
  -25.3720  -15.2770   20.3190 N   0  0  0  0  0  0  0  0  0  0  0  0
  -24.5950  -15.9230   20.4040 H   0  0  0  0  0  0  0  0  0  0  0  0
  -26.2060  -15.7140   19.9490 H   0  0  0  0  0  0  0  0  0  0  0  0
  -28.4210  -23.6130   20.0060 C   0  0  0  0  0  2  0  0  0  0  0  0
  -27.5960  -25.0010   22.0810 C   0  0  0  0  0  1  0  0  0  0  0  0
  -28.4680  -25.0420   20.8150 C   0  0  0  0  0  3  0  0  0  0  0  0
  -28.4290  -26.4340   20.2040 O   0  0  0  0  0  0  0  0  0  0  0  0
  -24.6350  -31.8860   23.2380 C   0  0  0  0  0  0  0  0  0  0  0  0
  -27.2990  -27.2860   20.2270 C   0  0  0  0  0  0  0  0  0  0  0  0
  -23.4570  -30.4700   21.5960 C   0  0  0  0  0  3  0  0  0  0  0  0
  -24.9300  -28.9120   20.1860 C   0  0  0  0  0  0  0  0  0  0  0  0
  -25.9950  -30.7970   21.4260 C   0  0  0  0  0  2  0  0  0  0  0  0
  -26.0930  -29.4090   20.7900 C   0  0  0  0  0  0  0  0  0  0  0  0
  -27.2840  -28.6120   20.7840 C   0  0  0  0  0  3  0  0  0  0  0  0
  -26.1120  -26.8470   19.6120 C   0  0  0  0  0  3  0  0  0  0  0  0
  -24.9460  -27.6420   19.5810 C   0  0  0  0  0  3  0  0  0  0  0  0
  -23.6880  -29.7850   20.2220 C   0  0  0  0  0  2  0  0  0  0  0  0
  -24.7160  -31.0690   22.1450 N   0  0  0  0  0  0  0  0  0  0  0  0
  -23.5450  -32.1580   23.7620 O   0  0  0  0  0  0  0  0  0  0  0  0
  -22.7930  -29.4530   22.5520 C   0  0  0  0  0  0  0  0  0  0  0  0
  -21.4670  -29.2830   22.4210 N   0  0  0  0  0  0  0  0  0  0  0  0
  -23.4650  -28.8200   23.3670 O   0  0  0  0  0  0  0  0  0  0  0  0
  -20.9880  -29.8590   21.7440 H   0  0  0  0  0  0  0  0  0  0  0  0
  -18.0780  -28.1070   22.9200 C   0  0  0  0  0  0  0  0  0  0  0  0
  -20.6410  -28.3330   23.1690 C   0  0  0  0  0  3  0  0  0  0  0  0
  -20.7350  -26.9110   22.5620 C   0  0  0  0  0  2  0  0  0  0  0  0
  -19.6110  -26.5840   21.5780 C   0  0  0  0  0  2  0  0  0  0  0  0
  -18.2350  -26.7650   22.2260 C   0  0  0  0  0  2  0  0  0  0  0  0
  -19.2090  -28.8500   23.3510 C   0  0  0  0  0  0  0  0  0  0  0  0
  -19.0130  -30.1080   23.9600 C   0  0  0  0  0  3  0  0  0  0  0  0
  -17.7160  -30.6250   24.1470 C   0  0  0  0  0  3  0  0  0  0  0  0
  -16.5990  -29.8790   23.7360 C   0  0  0  0  0  3  0  0  0  0  0  0
  -16.7800  -28.6230   23.1240 C   0  0  0  0  0  3  0  0  0  0  0  0
  -25.9050  -32.5320   23.8730 C   0  0  0  0  0  3  0  0  0  0  0  0
  -25.5860  -33.9290   24.1970 N   0  0  0  0  0  0  0  0  0  0  0  0
  -25.9160  -34.9830   23.4380 C   0  0  0  0  0  0  0  0  0  0  0  0
  -26.5910  -34.8800   22.4100 O   0  0  0  0  0  0  0  0  0  0  0  0
  -24.9940  -34.0840   25.0000 H   0  0  0  0  0  0  0  0  0  0  0  0
  -24.1800  -36.7650   23.0710 C   0  0  0  0  0  1  0  0  0  0  0  0
  -25.4190  -36.3700   23.8890 C   0  0  0  0  0  3  0  0  0  0  0  0
  -27.5460  -37.2700   24.7230 C   0  0  0  0  0  1  0  0  0  0  0  0
  -26.4460  -37.4290   23.7750 N   0  0  0  0  0  0  0  0  0  0  0  0
  -26.0360  -38.3480   23.9150 H   0  0  0  0  0  0  0  0  0  0  0  0
  -26.4090  -31.7700   25.1610 C   0  0  1  0  0  0  0  0  0  0  0  0
  -25.3030  -31.5310   26.2150 C   0  0  0  0  0  1  0  0  0  0  0  0
  -27.0020  -30.3930   24.7810 C   0  0  0  0  0  1  0  0  0  0  0  0
  -27.5490  -32.5670   25.8350 C   0  0  0  0  0  1  0  0  0  0  0  0
  1 14  1  0
  2  7  1  0
  3  4  1  0
  3  2  1  0
  5  4  1  0
  5 23  1  0
  5  6  1  0
  7  1  1  0
  7  6  1  0
  8  1  2  0
  9 13  1  0
 10 15  1  0
 10 17  1  0
 11 16  2  0
 12 10  1  0
 12  9  2  0
 13 17  1  0
 14  9  1  0
 14 18  1  0
 15 11  1  0
 19 15  1  0
 20 21  2  0
 21 40  1  0
 22 21  1  0
 22 25  1  0
 23 20  1  0
 23 24  1  0
 24 22  2  0
 25 26  1  0
 26 27  2  0
 28 31  1  0
 28 27  1  0
 29 28  2  0
 30 29  1  0
 30 25  2  0
 31 32  1  0
 32 33  1  0
 33 34  2  0
 35 34  1  0
 35 39  1  0
 36 35  2  0
 37 32  2  0
 37 36  1  0
 38 37  1  0
 40 41  1  0
 41 44  1  0
 41 43  1  0
 42 40  2  0
 45 46  1  0
 45 20  1  0
 47 45  1  0
 48 11  1  0
 48 50  1  0
 50 49  1  0
 51 53  1  0
 51 50  1  0
 52 63  2  0
 53 58  1  0
 54 62  1  0
 54 64  1  0
 55 61  1  0
 55 57  1  0
 56 62  1  0
 57 56  1  0
 58 57  2  0
 59 53  2  0
 60 59  1  0
 60 55  2  0
 61 54  1  0
 62 52  1  0
 64 66  2  0
 65 64  1  0
 67 65  1  0
 68 77  2  0
 68 73  1  0
 69 65  1  0
 69 73  1  0
 70 69  1  0
 71 72  1  0
 71 70  1  0
 72 68  1  0
 73 74  2  0
 74 75  1  0
 76 75  2  0
 77 76  1  0
 78 52  1  0
 78 79  1  0
 78 88  1  0
 79 82  1  0
 80 84  1  0
 80 79  1  0
 81 80  2  0
 84 83  1  0
 86 84  1  0
 86 87  1  0
 86 85  1  0
 88 91  1  1
 88 89  1  0
 90 88  1  0
M  ISO  4   1 100  14 100  50 101  51 101
M  END
>  <TORSDO>  (52) 
F 17

>  <SCORE>  (52) 
-15.163

>  <name>  (52) 
52

>  <ligand_id>  (52) 
52

>  <original_smiles>  (52) 
[H]c1c([H])c([H])c2c(c1[H])C([H])([H])C([H])([H])C([H])([H])C2([H])N([H])C(=O)C1([H])N(C(=O)C([H])(N([H])C(=O)C([H])(N([H])C([H])([H])[H])C([H])([H])[H])C(C([H])([H])[H])(C([H])([H])[H])C([H])([H])[H])C([H])([H])c2c([H])c(OC([H])(C([H])([H])[H])C([H])([H])C(=O)N([H])c3nc(N([H])C(=O)N4C([H])([H])C([H])([H])C([H])([H])C([H])(n5nc(-c6c([H])c([H])c(Oc7c([H])c([H])c(F)c([H])c7F)c([H])c6[H])c(C(=O)N([H])[H])c5N([H])[H])C4([H])[H])ns3)c([H])c([H])c2C1([H])[H]

>  <smiles>  (52) 
[H]c1c([H])c([H])c2c(c1[H])C([H])([H])C([H])([H])C([H])([H])C2([H])N([H])C(=O)C1([H])N(C(=O)C([H])(N([H])C(=O)C([H])(N([H])C([H])([H])[H])C([H])([H])[H])C(C([H])([H])[H])(C([H])([H])[H])C([H])([H])[H])C([H])([H])c2c([H])c(OC([H])(C([H])([H])[H])C([H])([H])C(=O)N([H])c3nc(N([H])C(=O)N4C([H])([H])C([H])([H])C([H])([H])C([H])(n5nc(-c6c([H])c([H])c(Oc7c([H])c([H])c(F)c([H])c7F)c([H])c6[H])c(C(=O)N([H])[H])c5N([H])[H])C4([H])[H])ns3)c([H])c([H])c2C1([H])[H]

$$$$
53:0:0
     RDKit          3D

 92100  0  0  1  0  0  0  0  0999 V2000
  -30.4710  -15.0890   20.4150 C   0  0  0  0  0  0  0  0  0  0  0  0
  -30.4110  -12.7110   19.4830 C   0  0  0  0  0  2  0  0  0  0  0  0
  -29.4850  -12.6230   18.2460 C   0  0  0  0  0  2  0  0  0  0  0  0
  -28.0240  -12.3860   18.6710 C   0  0  0  0  0  2  0  0  0  0  0  0
  -27.5930  -13.3120   19.8370 C   0  0  0  0  0  3  0  0  0  0  0  0
  -28.6410  -13.3600   20.9680 C   0  0  0  0  0  2  0  0  0  0  0  0
  -29.9020  -13.8090   20.3610 N   0  0  0  0  0  0  0  0  0  0  0  0
  -31.6820  -15.1460   20.1680 O   0  0  0  0  0  0  0  0  0  0  0  0
  -30.9930  -18.5650   20.6880 C   0  0  0  0  0  0  0  0  0  0  0  0
  -29.7920  -17.8090   20.5050 C   0  0  0  0  0  0  0  0  0  0  0  0
  -30.7080  -19.9310   20.6710 C   0  0  0  0  0  0  0  0  0  0  0  0
  -28.8120  -18.8160   20.3750 N   0  0  0  0  0  0  0  0  0  0  0  0
  -29.3400  -20.1580   20.4640 N   0  0  0  0  0  0  0  0  0  0  0  0
  -29.6390  -16.2590   20.5180 N   0  0  0  0  0  0  0  0  0  0  0  0
  -32.2280  -18.0410   20.8850 F   0  0  0  0  0  0  0  0  0  0  0  0
  -28.6750  -15.9860   20.5950 H   0  0  0  0  0  0  0  0  0  0  0  0
  -25.2060  -13.8650   20.5680 C   0  0  0  0  0  0  0  0  0  0  0  0
  -24.1460  -13.0800   20.9310 C   0  0  0  0  0  0  0  0  0  0  0  0
  -24.6220  -11.7340   20.8990 C   0  0  0  0  0  0  0  0  0  0  0  0
  -26.2570  -12.9970   20.3300 N   0  0  0  0  0  0  0  0  0  0  0  0
  -25.9160  -11.7090   20.5960 N   0  0  0  0  0  0  0  0  0  0  0  0
  -23.9030  -10.4660   21.0790 C   0  0  0  0  0  0  0  0  0  0  0  0
  -24.3380   -9.4960   22.0100 C   0  0  0  0  0  3  0  0  0  0  0  0
  -23.6170   -8.2950   22.1810 C   0  0  0  0  0  3  0  0  0  0  0  0
  -22.4490   -8.0530   21.4200 C   0  0  0  0  0  0  0  0  0  0  0  0
  -22.0330   -9.0120   20.4780 C   0  0  0  0  0  3  0  0  0  0  0  0
  -22.7540  -10.2050   20.3060 C   0  0  0  0  0  3  0  0  0  0  0  0
  -21.7000   -6.9040   21.5000 O   0  0  0  0  0  0  0  0  0  0  0  0
  -21.6490   -6.1570   22.6500 C   0  0  0  0  0  0  0  0  0  0  0  0
  -21.2030   -6.7030   23.8740 C   0  0  0  0  0  3  0  0  0  0  0  0
  -21.1010   -5.8810   25.0150 C   0  0  0  0  0  3  0  0  0  0  0  0
  -21.4340   -4.5150   24.9320 C   0  0  0  0  0  0  0  0  0  0  0  0
  -21.8720   -3.9690   23.7130 C   0  0  0  0  0  3  0  0  0  0  0  0
  -21.9760   -4.7880   22.5740 C   0  0  0  0  0  0  0  0  0  0  0  0
  -22.3790   -4.2520   21.3970 F   0  0  0  0  0  0  0  0  0  0  0  0
  -21.3280   -3.7250   26.0250 F   0  0  0  0  0  0  0  0  0  0  0  0
  -22.7430  -13.5470   21.1890 C   0  0  0  0  0  0  0  0  0  0  0  0
  -22.0140  -12.8490   22.0540 N   0  0  0  0  0  0  0  0  0  0  0  0
  -22.3020  -14.5660   20.6590 O   0  0  0  0  0  0  0  0  0  0  0  0
  -22.3840  -12.0250   22.5030 H   0  0  0  0  0  0  0  0  0  0  0  0
  -21.0730  -13.1440   22.2710 H   0  0  0  0  0  0  0  0  0  0  0  0
  -25.3560  -15.2380   20.3950 N   0  0  0  0  0  0  0  0  0  0  0  0
  -24.5710  -15.8730   20.4980 H   0  0  0  0  0  0  0  0  0  0  0  0
  -26.1800  -15.6910   20.0250 H   0  0  0  0  0  0  0  0  0  0  0  0
  -31.5650  -21.0090   20.8420 N   0  0  0  0  0  0  0  0  0  0  0  0
  -32.5210  -20.8640   21.1440 H   0  0  0  0  0  0  0  0  0  0  0  0
  -31.2170  -21.9420   21.0270 H   0  0  0  0  0  0  0  0  0  0  0  0
  -28.4800  -21.5190   20.3060 C   0  0  0  0  0  2  0  0  0  0  0  0
  -28.9350  -23.1680   20.5040 C   0  0  0  0  0  3  0  0  0  0  0  0
  -29.3950  -23.2610   21.7530 F   0  0  0  0  0  0  0  0  0  0  0  0
  -27.9300  -24.5540   20.2680 C   0  0  0  0  0  2  0  0  0  0  0  0
  -28.2150  -26.1100   20.3940 O   0  0  0  0  0  0  0  0  0  0  0  0
  -24.6210  -31.9360   23.2720 C   0  0  0  0  0  0  0  0  0  0  0  0
  -27.1780  -27.1310   20.3100 C   0  0  0  0  0  0  0  0  0  0  0  0
  -23.4220  -30.5360   21.6390 C   0  0  0  0  0  3  0  0  0  0  0  0
  -24.8680  -28.9290   20.2390 C   0  0  0  0  0  0  0  0  0  0  0  0
  -25.9830  -30.7660   21.4920 C   0  0  0  0  0  2  0  0  0  0  0  0
  -26.0500  -29.3630   20.8540 C   0  0  0  0  0  0  0  0  0  0  0  0
  -27.2040  -28.4820   20.8680 C   0  0  0  0  0  3  0  0  0  0  0  0
  -25.9680  -26.8130   19.6520 C   0  0  0  0  0  3  0  0  0  0  0  0
  -24.8440  -27.6690   19.6220 C   0  0  0  0  0  3  0  0  0  0  0  0
  -23.6490  -29.8410   20.2700 C   0  0  0  0  0  2  0  0  0  0  0  0
  -24.6960  -31.1020   22.1890 N   0  0  0  0  0  0  0  0  0  0  0  0
  -23.5340  -32.2350   23.7900 O   0  0  0  0  0  0  0  0  0  0  0  0
  -22.7260  -29.5450   22.6080 C   0  0  0  0  0  0  0  0  0  0  0  0
  -21.3970  -29.3850   22.4750 N   0  0  0  0  0  0  0  0  0  0  0  0
  -23.3860  -28.9230   23.4440 O   0  0  0  0  0  0  0  0  0  0  0  0
  -20.9210  -29.9390   21.7750 H   0  0  0  0  0  0  0  0  0  0  0  0
  -18.0030  -28.2130   22.9680 C   0  0  0  0  0  0  0  0  0  0  0  0
  -20.5620  -28.4620   23.2490 C   0  0  0  0  0  3  0  0  0  0  0  0
  -20.6560  -27.0230   22.6900 C   0  0  0  0  0  2  0  0  0  0  0  0
  -19.5590  -26.6970   21.6710 C   0  0  0  0  0  2  0  0  0  0  0  0
  -18.1750  -26.8570   22.3040 C   0  0  0  0  0  2  0  0  0  0  0  0
  -19.1240  -28.9730   23.3960 C   0  0  0  0  0  0  0  0  0  0  0  0
  -18.9070  -30.2410   23.9780 C   0  0  0  0  0  3  0  0  0  0  0  0
  -17.6040  -30.7490   24.1340 C   0  0  0  0  0  3  0  0  0  0  0  0
  -16.4980  -29.9880   23.7200 C   0  0  0  0  0  3  0  0  0  0  0  0
  -16.6980  -28.7200   23.1440 C   0  0  0  0  0  3  0  0  0  0  0  0
  -25.8990  -32.5710   23.9040 C   0  0  0  0  0  3  0  0  0  0  0  0
  -26.3970  -31.8080   25.1930 C   0  0  1  0  0  0  0  0  0  0  0  0
  -25.2920  -31.5890   26.2540 C   0  0  0  0  0  1  0  0  0  0  0  0
  -26.9710  -30.4200   24.8260 C   0  0  0  0  0  1  0  0  0  0  0  0
  -27.5490  -32.5980   25.8570 C   0  0  0  0  0  1  0  0  0  0  0  0
  -25.5920  -33.9730   24.2260 N   0  0  0  0  0  0  0  0  0  0  0  0
  -25.9170  -35.0240   23.4610 C   0  0  0  0  0  0  0  0  0  0  0  0
  -26.5720  -34.9140   22.4220 O   0  0  0  0  0  0  0  0  0  0  0  0
  -25.0080  -34.1330   25.0350 H   0  0  0  0  0  0  0  0  0  0  0  0
  -24.1800  -36.8190   23.1380 C   0  0  0  0  0  1  0  0  0  0  0  0
  -25.4420  -36.4180   23.9210 C   0  0  0  0  0  3  0  0  0  0  0  0
  -27.5960  -37.3140   24.6900 C   0  0  0  0  0  1  0  0  0  0  0  0
  -26.4720  -37.4710   23.7710 N   0  0  0  0  0  0  0  0  0  0  0  0
  -26.0690  -38.3930   23.9170 H   0  0  0  0  0  0  0  0  0  0  0  0
  1 14  1  0
  2  7  1  0
  3  4  1  0
  3  2  1  0
  5  4  1  0
  5 20  1  0
  5  6  1  0
  7  1  1  0
  7  6  1  0
  8  1  2  0
  9 15  1  0
 10 14  1  0
 10  9  1  0
 11  9  2  0
 11 45  1  0
 12 13  1  0
 12 10  2  0
 13 11  1  0
 14 16  1  0
 17 18  2  0
 18 37  1  0
 19 18  1  0
 19 22  1  0
 20 17  1  0
 20 21  1  0
 21 19  2  0
 22 23  1  0
 23 24  2  0
 25 28  1  0
 25 24  1  0
 26 25  2  0
 27 26  1  0
 27 22  2  0
 28 29  1  0
 29 30  1  0
 30 31  2  0
 32 31  1  0
 32 36  1  0
 33 32  2  0
 34 29  2  0
 34 33  1  0
 35 34  1  0
 37 38  1  0
 38 41  1  0
 38 40  1  0
 39 37  2  0
 42 43  1  0
 42 17  1  0
 44 42  1  0
 45 47  1  0
 45 46  1  0
 48 13  1  0
 48 49  1  0
 49 50  1  0
 51 52  1  0
 51 49  1  0
 53 64  2  0
 54 52  1  0
 54 59  1  0
 55 63  1  0
 55 65  1  0
 56 62  1  0
 56 58  1  0
 57 63  1  0
 58 59  2  0
 58 57  1  0
 60 54  2  0
 61 60  1  0
 61 56  2  0
 62 55  1  0
 63 53  1  0
 65 67  2  0
 66 65  1  0
 68 66  1  0
 69 78  2  0
 69 74  1  0
 70 66  1  0
 70 74  1  0
 71 70  1  0
 72 73  1  0
 72 71  1  0
 73 69  1  0
 74 75  2  0
 75 76  1  0
 77 76  2  0
 78 77  1  0
 79 53  1  0
 79 84  1  0
 79 80  1  0
 80 83  1  1
 80 81  1  0
 82 80  1  0
 84 87  1  0
 85 89  1  0
 85 84  1  0
 86 85  2  0
 89 88  1  0
 91 92  1  0
 91 89  1  0
 91 90  1  0
M  ISO  4   1 100  14 100  51 101  52 101
M  END
>  <TORSDO>  (53) 
F 19

>  <SCORE>  (53) 
-15.969

>  <name>  (53) 
53

>  <ligand_id>  (53) 
53

>  <original_smiles>  (53) 
[H]c1c([H])c([H])c2c(c1[H])C([H])([H])C([H])([H])C([H])([H])C2([H])N([H])C(=O)C1([H])N(C(=O)C([H])(N([H])C(=O)C([H])(N([H])C([H])([H])[H])C([H])([H])[H])C(C([H])([H])[H])(C([H])([H])[H])C([H])([H])[H])C([H])([H])c2c([H])c(OC([H])([H])C([H])(F)C([H])([H])n3nc(N([H])C(=O)N4C([H])([H])C([H])([H])C([H])([H])C([H])(n5nc(-c6c([H])c([H])c(Oc7c([H])c([H])c(F)c([H])c7F)c([H])c6[H])c(C(=O)N([H])[H])c5N([H])[H])C4([H])[H])c(F)c3N([H])[H])c([H])c([H])c2C1([H])[H]

>  <smiles>  (53) 
[H]c1c([H])c([H])c2c(c1[H])C([H])([H])C([H])([H])C([H])([H])C2([H])N([H])C(=O)C1([H])N(C(=O)C([H])(N([H])C(=O)C([H])(N([H])C([H])([H])[H])C([H])([H])[H])C(C([H])([H])[H])(C([H])([H])[H])C([H])([H])[H])C([H])([H])c2c([H])c(OC([H])([H])C([H])(F)C([H])([H])n3nc(N([H])C(=O)N4C([H])([H])C([H])([H])C([H])([H])C([H])(n5nc(-c6c([H])c([H])c(Oc7c([H])c([H])c(F)c([H])c7F)c([H])c6[H])c(C(=O)N([H])[H])c5N([H])[H])C4([H])[H])c(F)c3N([H])[H])c([H])c([H])c2C1([H])[H]

$$$$
54:0:0
     RDKit          3D

 92100  0  0  1  0  0  0  0  0999 V2000
  -28.4160  -16.6740   20.6850 C   0  0  0  0  0  3  0  0  0  0  0  0
  -29.7840  -16.6840   20.6520 C   0  0  0  0  0  0  0  0  0  0  0  0
  -29.3540  -18.9430   20.3580 C   0  0  0  0  0  0  0  0  0  0  0  0
  -28.8480  -21.4110   20.0900 C   0  0  0  0  0  0  0  0  0  0  0  0
  -30.3120  -17.9960   20.5130 N   0  0  0  0  0  0  0  0  0  0  0  0
  -29.6680  -20.3480   20.3100 N   0  0  0  0  0  0  0  0  0  0  0  0
  -27.7240  -21.2980   19.5890 O   0  0  0  0  0  0  0  0  0  0  0  0
  -27.7270  -18.2550   20.3920 S   0  0  0  0  0  0  0  0  0  0  0  0
  -30.6130  -20.5930   20.5700 H   0  0  0  0  0  0  0  0  0  0  0  0
  -30.9290  -14.5290   20.1410 C   0  0  0  0  0  0  0  0  0  0  0  0
  -30.4910  -12.3550   19.0290 C   0  0  0  0  0  2  0  0  0  0  0  0
  -29.5070  -12.5100   17.8530 C   0  0  0  0  0  2  0  0  0  0  0  0
  -28.0580  -12.3760   18.3540 C   0  0  0  0  0  2  0  0  0  0  0  0
  -27.7690  -13.2710   19.5890 C   0  0  0  0  0  3  0  0  0  0  0  0
  -28.8720  -13.1260   20.6680 C   0  0  0  0  0  2  0  0  0  0  0  0
  -30.1710  -13.3940   20.0330 N   0  0  0  0  0  0  0  0  0  0  0  0
  -31.9940  -14.6500   19.5330 O   0  0  0  0  0  0  0  0  0  0  0  0
  -30.5520  -15.5190   20.9850 N   0  0  0  0  0  0  0  0  0  0  0  0
  -31.4070  -15.8310   21.4190 H   0  0  0  0  0  0  0  0  0  0  0  0
  -25.4160  -13.9180   20.3980 C   0  0  0  0  0  0  0  0  0  0  0  0
  -24.3550  -13.1730   20.8270 C   0  0  0  0  0  0  0  0  0  0  0  0
  -24.7830  -11.8100   20.7670 C   0  0  0  0  0  0  0  0  0  0  0  0
  -26.4350  -13.0190   20.1280 N   0  0  0  0  0  0  0  0  0  0  0  0
  -26.0580  -11.7440   20.4030 N   0  0  0  0  0  0  0  0  0  0  0  0
  -24.0300  -10.5670   20.9750 C   0  0  0  0  0  0  0  0  0  0  0  0
  -24.4690   -9.5840   21.8870 C   0  0  0  0  0  3  0  0  0  0  0  0
  -23.7190   -8.4030   22.0830 C   0  0  0  0  0  3  0  0  0  0  0  0
  -22.5160   -8.1990   21.3650 C   0  0  0  0  0  0  0  0  0  0  0  0
  -22.0960   -9.1730   20.4420 C   0  0  0  0  0  3  0  0  0  0  0  0
  -22.8460  -10.3440   20.2450 C   0  0  0  0  0  3  0  0  0  0  0  0
  -21.7360   -7.0740   21.4750 O   0  0  0  0  0  0  0  0  0  0  0  0
  -21.6990   -6.3320   22.6290 C   0  0  0  0  0  0  0  0  0  0  0  0
  -21.2710   -6.8830   23.8560 C   0  0  0  0  0  3  0  0  0  0  0  0
  -21.1830   -6.0680   25.0010 C   0  0  0  0  0  3  0  0  0  0  0  0
  -21.5120   -4.7010   24.9200 C   0  0  0  0  0  0  0  0  0  0  0  0
  -21.9340   -4.1490   23.6980 C   0  0  0  0  0  3  0  0  0  0  0  0
  -22.0240   -4.9620   22.5550 C   0  0  0  0  0  0  0  0  0  0  0  0
  -22.4110   -4.4210   21.3740 F   0  0  0  0  0  0  0  0  0  0  0  0
  -21.4190   -3.9160   26.0180 F   0  0  0  0  0  0  0  0  0  0  0  0
  -22.9860  -13.6860   21.1670 C   0  0  0  0  0  0  0  0  0  0  0  0
  -22.2850  -13.0080   22.0700 N   0  0  0  0  0  0  0  0  0  0  0  0
  -22.5490  -14.7220   20.6670 O   0  0  0  0  0  0  0  0  0  0  0  0
  -22.6530  -12.1710   22.4970 H   0  0  0  0  0  0  0  0  0  0  0  0
  -21.3660  -13.3340   22.3390 H   0  0  0  0  0  0  0  0  0  0  0  0
  -25.5770  -15.2810   20.1800 N   0  0  0  0  0  0  0  0  0  0  0  0
  -24.7910  -15.9170   20.2670 H   0  0  0  0  0  0  0  0  0  0  0  0
  -26.3370  -15.6800   19.6420 H   0  0  0  0  0  0  0  0  0  0  0  0
  -29.3680  -22.8290   20.4940 C   0  0  0  0  0  3  0  0  0  0  0  0
  -30.7050  -22.8210   20.4840 F   0  0  0  0  0  0  0  0  0  0  0  0
  -28.8510  -24.1030   19.7120 C   0  0  0  0  0  2  0  0  0  0  0  0
  -28.4740  -25.3380   20.6100 C   0  0  0  0  0  2  0  0  0  0  0  0
  -28.5060  -26.6570   19.9940 O   0  0  0  0  0  0  0  0  0  0  0  0
  -24.5590  -31.7500   23.1590 C   0  0  0  0  0  0  0  0  0  0  0  0
  -27.3370  -27.4050   20.0180 C   0  0  0  0  0  0  0  0  0  0  0  0
  -23.4130  -30.3820   21.4460 C   0  0  0  0  0  3  0  0  0  0  0  0
  -24.9270  -28.9040   20.0120 C   0  0  0  0  0  0  0  0  0  0  0  0
  -25.9430  -30.7770   21.3200 C   0  0  0  0  0  2  0  0  0  0  0  0
  -26.0660  -29.4230   20.6400 C   0  0  0  0  0  0  0  0  0  0  0  0
  -27.2770  -28.6830   20.6340 C   0  0  0  0  0  3  0  0  0  0  0  0
  -26.1810  -26.9120   19.3820 C   0  0  0  0  0  3  0  0  0  0  0  0
  -24.9820  -27.6520   19.3750 C   0  0  0  0  0  3  0  0  0  0  0  0
  -23.6670  -29.7470   20.0530 C   0  0  0  0  0  2  0  0  0  0  0  0
  -24.6550  -30.9850   22.0330 N   0  0  0  0  0  0  0  0  0  0  0  0
  -23.4600  -31.9910   23.6800 O   0  0  0  0  0  0  0  0  0  0  0  0
  -22.7540  -29.3260   22.3620 C   0  0  0  0  0  0  0  0  0  0  0  0
  -21.4240  -29.1780   22.2450 N   0  0  0  0  0  0  0  0  0  0  0  0
  -23.4350  -28.6430   23.1300 O   0  0  0  0  0  0  0  0  0  0  0  0
  -20.9340  -29.7830   21.5990 H   0  0  0  0  0  0  0  0  0  0  0  0
  -18.0290  -28.0550   22.7650 C   0  0  0  0  0  0  0  0  0  0  0  0
  -20.6000  -28.2110   22.9720 C   0  0  0  0  0  3  0  0  0  0  0  0
  -20.6390  -26.8250   22.2850 C   0  0  0  0  0  2  0  0  0  0  0  0
  -19.4970  -26.6220   21.2850 C   0  0  0  0  0  2  0  0  0  0  0  0
  -18.1400  -26.7570   21.9820 C   0  0  0  0  0  2  0  0  0  0  0  0
  -19.1850  -28.7470   23.2140 C   0  0  0  0  0  0  0  0  0  0  0  0
  -19.0280  -29.9670   23.9050 C   0  0  0  0  0  3  0  0  0  0  0  0
  -17.7470  -30.4980   24.1480 C   0  0  0  0  0  3  0  0  0  0  0  0
  -16.6050  -29.8000   23.7170 C   0  0  0  0  0  3  0  0  0  0  0  0
  -16.7460  -28.5800   23.0320 C   0  0  0  0  0  3  0  0  0  0  0  0
  -25.8180  -32.3800   23.8310 C   0  0  0  0  0  3  0  0  0  0  0  0
  -26.2850  -31.6080   25.1260 C   0  0  1  0  0  0  0  0  0  0  0  0
  -25.1520  -31.3720   26.1510 C   0  0  0  0  0  1  0  0  0  0  0  0
  -26.8800  -30.2280   24.7550 C   0  0  0  0  0  1  0  0  0  0  0  0
  -27.4120  -32.3980   25.8310 C   0  0  0  0  0  1  0  0  0  0  0  0
  -25.4990  -33.7780   24.1490 N   0  0  0  0  0  0  0  0  0  0  0  0
  -25.8610  -34.8300   23.4020 C   0  0  0  0  0  0  0  0  0  0  0  0
  -26.5670  -34.7240   22.3980 O   0  0  0  0  0  0  0  0  0  0  0  0
  -24.8790  -33.9330   24.9290 H   0  0  0  0  0  0  0  0  0  0  0  0
  -24.1560  -36.6280   22.9760 C   0  0  0  0  0  1  0  0  0  0  0  0
  -25.3570  -36.2180   23.8420 C   0  0  0  0  0  3  0  0  0  0  0  0
  -27.4460  -37.1060   24.7800 C   0  0  0  0  0  1  0  0  0  0  0  0
  -26.3970  -37.2670   23.7770 N   0  0  0  0  0  0  0  0  0  0  0  0
  -25.9860  -38.1900   23.8910 H   0  0  0  0  0  0  0  0  0  0  0  0
  2  1  2  0
  2 18  1  0
  3  8  1  0
  3  5  2  0
  4  6  1  0
  4 48  1  0
  5  2  1  0
  6  3  1  0
  6  9  1  0
  7  4  2  0
  8  1  1  0
 10 18  1  0
 11 16  1  0
 12 13  1  0
 12 11  1  0
 14 13  1  0
 14 23  1  0
 14 15  1  0
 16 10  1  0
 16 15  1  0
 17 10  2  0
 18 19  1  0
 20 21  2  0
 21 40  1  0
 22 21  1  0
 22 25  1  0
 23 20  1  0
 23 24  1  0
 24 22  2  0
 25 26  1  0
 26 27  2  0
 28 31  1  0
 28 27  1  0
 29 28  2  0
 30 29  1  0
 30 25  2  0
 31 32  1  0
 32 33  1  0
 33 34  2  0
 35 34  1  0
 35 39  1  0
 36 35  2  0
 37 32  2  0
 37 36  1  0
 38 37  1  0
 40 41  1  0
 41 44  1  0
 41 43  1  0
 42 40  2  0
 45 46  1  0
 45 20  1  0
 47 45  1  0
 48 49  1  0
 50 48  1  0
 50 51  1  0
 52 54  1  0
 52 51  1  0
 53 64  2  0
 54 59  1  0
 55 63  1  0
 55 65  1  0
 56 62  1  0
 56 58  1  0
 57 63  1  0
 58 57  1  0
 59 58  2  0
 60 54  2  0
 61 60  1  0
 61 56  2  0
 62 55  1  0
 63 53  1  0
 65 67  2  0
 66 65  1  0
 68 66  1  0
 69 78  2  0
 69 74  1  0
 70 66  1  0
 70 74  1  0
 71 70  1  0
 72 73  1  0
 72 71  1  0
 73 69  1  0
 74 75  2  0
 75 76  1  0
 77 76  2  0
 78 77  1  0
 79 53  1  0
 79 84  1  0
 79 80  1  0
 80 83  1  1
 80 81  1  0
 82 80  1  0
 84 87  1  0
 85 89  1  0
 85 84  1  0
 86 85  2  0
 89 88  1  0
 91 89  1  0
 91 92  1  0
 91 90  1  0
M  ISO  4  10 100  18 100  51 101  52 101
M  END
>  <TORSDO>  (54) 
F 19

>  <SCORE>  (54) 
-14.057

>  <name>  (54) 
54

>  <ligand_id>  (54) 
54

>  <original_smiles>  (54) 
[H]c1sc(N([H])C(=O)C([H])(F)C([H])([H])C([H])([H])Oc2c([H])c([H])c3c(c2[H])C([H])([H])N(C(=O)C([H])(N([H])C(=O)C([H])(N([H])C([H])([H])[H])C([H])([H])[H])C(C([H])([H])[H])(C([H])([H])[H])C([H])([H])[H])C([H])(C(=O)N([H])C2([H])c4c([H])c([H])c([H])c([H])c4C([H])([H])C([H])([H])C2([H])[H])C3([H])[H])nc1N([H])C(=O)N1C([H])([H])C([H])([H])C([H])([H])C([H])(n2nc(-c3c([H])c([H])c(Oc4c([H])c([H])c(F)c([H])c4F)c([H])c3[H])c(C(=O)N([H])[H])c2N([H])[H])C1([H])[H]

>  <smiles>  (54) 
[H]c1sc(N([H])C(=O)C([H])(F)C([H])([H])C([H])([H])Oc2c([H])c([H])c3c(c2[H])C([H])([H])N(C(=O)C([H])(N([H])C(=O)C([H])(N([H])C([H])([H])[H])C([H])([H])[H])C(C([H])([H])[H])(C([H])([H])[H])C([H])([H])[H])C([H])(C(=O)N([H])C2([H])c4c([H])c([H])c([H])c([H])c4C([H])([H])C([H])([H])C2([H])[H])C3([H])[H])nc1N([H])C(=O)N1C([H])([H])C([H])([H])C([H])([H])C([H])(n2nc(-c3c([H])c([H])c(Oc4c([H])c([H])c(F)c([H])c4F)c([H])c3[H])c(C(=O)N([H])[H])c2N([H])[H])C1([H])[H]

$$$$
55:0:0
     RDKit          3D

 94102  0  0  1  0  0  0  0  0999 V2000
  -28.9560  -23.1390   20.5840 C   0  0  0  0  0  0  0  0  0  0  0  0
  -29.6870  -22.0540   20.9470 N   0  0  0  0  0  0  0  0  0  0  0  0
  -27.9070  -23.0570   19.9440 O   0  0  0  0  0  0  0  0  0  0  0  0
  -30.5200  -22.2780   21.4810 H   0  0  0  0  0  0  0  0  0  0  0  0
  -30.3870  -19.6620   21.2340 C   0  0  0  0  0  3  0  0  0  0  0  0
  -28.4380  -20.0800   20.0110 C   0  0  0  0  0  3  0  0  0  0  0  0
  -29.4800  -20.6460   20.7110 C   0  0  0  0  0  0  0  0  0  0  0  0
  -30.0250  -18.3650   20.9410 C   0  0  0  0  0  0  0  0  0  0  0  0
  -28.5860  -18.3280   19.9480 S   0  0  0  0  0  0  0  0  0  0  0  0
  -32.2630  -16.9940   21.0990 O   0  0  0  0  0  0  0  0  0  0  0  0
  -30.5980  -16.8830   23.0130 O   0  0  0  0  0  0  0  0  0  0  0  0
  -30.8680  -16.8910   21.5630 S   0  0  1  0  0  0  0  0  0  0  0  0
  -30.7080  -14.4640   20.1080 C   0  0  0  0  0  0  0  0  0  0  0  0
  -30.3250  -12.3290   18.9120 C   0  0  0  0  0  2  0  0  0  0  0  0
  -29.3320  -12.5810   17.7600 C   0  0  0  0  0  2  0  0  0  0  0  0
  -27.8700  -12.4830   18.2470 C   0  0  0  0  0  2  0  0  0  0  0  0
  -27.6170  -13.2690   19.5640 C   0  0  0  0  0  3  0  0  0  0  0  0
  -28.7230  -12.9890   20.6050 C   0  0  0  0  0  2  0  0  0  0  0  0
  -30.0150  -13.2990   19.9750 N   0  0  0  0  0  0  0  0  0  0  0  0
  -31.7710  -14.6590   19.5110 O   0  0  0  0  0  0  0  0  0  0  0  0
  -30.1280  -15.4620   20.9060 N   0  0  0  0  0  0  0  0  0  0  0  0
  -29.2180  -15.3050   21.3300 H   0  0  0  0  0  0  0  0  0  0  0  0
  -25.2710  -13.9010   20.3970 C   0  0  0  0  0  0  0  0  0  0  0  0
  -24.2100  -13.1430   20.8110 C   0  0  0  0  0  0  0  0  0  0  0  0
  -24.6430  -11.7840   20.7360 C   0  0  0  0  0  0  0  0  0  0  0  0
  -26.2860  -13.0070   20.1010 N   0  0  0  0  0  0  0  0  0  0  0  0
  -25.9130  -11.7270   20.3590 N   0  0  0  0  0  0  0  0  0  0  0  0
  -23.9070  -10.5320   20.9450 C   0  0  0  0  0  0  0  0  0  0  0  0
  -24.3560   -9.5540   21.8570 C   0  0  0  0  0  3  0  0  0  0  0  0
  -23.6230   -8.3640   22.0540 C   0  0  0  0  0  3  0  0  0  0  0  0
  -22.4210   -8.1440   21.3390 C   0  0  0  0  0  0  0  0  0  0  0  0
  -21.9900   -9.1120   20.4130 C   0  0  0  0  0  3  0  0  0  0  0  0
  -22.7260  -10.2920   20.2150 C   0  0  0  0  0  3  0  0  0  0  0  0
  -21.6540   -7.0090   21.4470 O   0  0  0  0  0  0  0  0  0  0  0  0
  -21.6170   -6.2750   22.6060 C   0  0  0  0  0  0  0  0  0  0  0  0
  -21.2250   -6.8420   23.8380 C   0  0  0  0  0  3  0  0  0  0  0  0
  -21.1360   -6.0330   24.9890 C   0  0  0  0  0  3  0  0  0  0  0  0
  -21.4230   -4.6590   24.9080 C   0  0  0  0  0  0  0  0  0  0  0  0
  -21.8060   -4.0900   23.6810 C   0  0  0  0  0  3  0  0  0  0  0  0
  -21.8990   -4.8960   22.5330 C   0  0  0  0  0  0  0  0  0  0  0  0
  -22.2490   -4.3390   21.3490 F   0  0  0  0  0  0  0  0  0  0  0  0
  -21.3290   -3.8800   26.0120 F   0  0  0  0  0  0  0  0  0  0  0  0
  -22.8360  -13.6390   21.1600 C   0  0  0  0  0  0  0  0  0  0  0  0
  -22.1390  -12.9430   22.0530 N   0  0  0  0  0  0  0  0  0  0  0  0
  -22.3890  -14.6780   20.6750 O   0  0  0  0  0  0  0  0  0  0  0  0
  -22.5120  -12.1020   22.4690 H   0  0  0  0  0  0  0  0  0  0  0  0
  -21.2150  -13.2520   22.3260 H   0  0  0  0  0  0  0  0  0  0  0  0
  -25.4540  -15.2720   20.2300 N   0  0  0  0  0  0  0  0  0  0  0  0
  -24.7130  -15.9430   20.3920 H   0  0  0  0  0  0  0  0  0  0  0  0
  -26.2770  -15.6840   19.8100 H   0  0  0  0  0  0  0  0  0  0  0  0
  -29.5120  -24.5360   21.0030 C   0  0  0  0  0  2  0  0  0  0  0  0
  -27.2810  -25.3500   22.0700 C   0  0  0  0  0  1  0  0  0  0  0  0
  -28.5500  -25.7520   21.2820 C   0  0  0  0  0  3  0  0  0  0  0  0
  -28.3360  -26.5850   20.1110 O   0  0  0  0  0  0  0  0  0  0  0  0
  -24.6040  -31.8590   23.1950 C   0  0  0  0  0  0  0  0  0  0  0  0
  -27.2260  -27.4020   20.1210 C   0  0  0  0  0  0  0  0  0  0  0  0
  -23.3930  -30.4620   21.5500 C   0  0  0  0  0  3  0  0  0  0  0  0
  -24.8440  -28.9220   20.1240 C   0  0  0  0  0  0  0  0  0  0  0  0
  -25.9170  -30.8130   21.3530 C   0  0  0  0  0  2  0  0  0  0  0  0
  -26.0030  -29.4390   20.7180 C   0  0  0  0  0  0  0  0  0  0  0  0
  -27.2010  -28.6830   20.7200 C   0  0  0  0  0  3  0  0  0  0  0  0
  -26.0580  -26.9100   19.5070 C   0  0  0  0  0  3  0  0  0  0  0  0
  -24.8650  -27.6550   19.5140 C   0  0  0  0  0  3  0  0  0  0  0  0
  -23.6020  -29.7810   20.1700 C   0  0  0  0  0  2  0  0  0  0  0  0
  -24.6560  -31.0600   22.0900 N   0  0  0  0  0  0  0  0  0  0  0  0
  -23.5220  -32.1330   23.7360 O   0  0  0  0  0  0  0  0  0  0  0  0
  -22.7410  -29.4420   22.5140 C   0  0  0  0  0  0  0  0  0  0  0  0
  -21.4140  -29.2710   22.3980 N   0  0  0  0  0  0  0  0  0  0  0  0
  -23.4270  -28.8080   23.3210 O   0  0  0  0  0  0  0  0  0  0  0  0
  -20.9220  -29.8370   21.7220 H   0  0  0  0  0  0  0  0  0  0  0  0
  -18.0320  -28.1090   22.9400 C   0  0  0  0  0  0  0  0  0  0  0  0
  -20.5960  -28.3350   23.1730 C   0  0  0  0  0  3  0  0  0  0  0  0
  -20.6690  -26.9090   22.5780 C   0  0  0  0  0  2  0  0  0  0  0  0
  -19.5470  -26.6110   21.5780 C   0  0  0  0  0  2  0  0  0  0  0  0
  -18.1800  -26.7650   22.2470 C   0  0  0  0  0  2  0  0  0  0  0  0
  -19.1660  -28.8530   23.3590 C   0  0  0  0  0  0  0  0  0  0  0  0
  -18.9720  -30.1130   23.9660 C   0  0  0  0  0  3  0  0  0  0  0  0
  -17.6760  -30.6290   24.1580 C   0  0  0  0  0  3  0  0  0  0  0  0
  -16.5560  -29.8810   23.7510 C   0  0  0  0  0  3  0  0  0  0  0  0
  -16.7350  -28.6230   23.1490 C   0  0  0  0  0  3  0  0  0  0  0  0
  -25.8900  -32.4900   23.8150 C   0  0  0  0  0  3  0  0  0  0  0  0
  -26.4200  -31.7090   25.0790 C   0  0  1  0  0  0  0  0  0  0  0  0
  -25.3380  -31.4590   26.1540 C   0  0  0  0  0  1  0  0  0  0  0  0
  -27.0030  -30.3360   24.6660 C   0  0  0  0  0  1  0  0  0  0  0  0
  -27.5730  -32.5010   25.7420 C   0  0  0  0  0  1  0  0  0  0  0  0
  -25.5810  -33.8850   24.1580 N   0  0  0  0  0  0  0  0  0  0  0  0
  -25.9020  -34.9450   23.4040 C   0  0  0  0  0  0  0  0  0  0  0  0
  -26.5670  -34.8540   22.3680 O   0  0  0  0  0  0  0  0  0  0  0  0
  -25.0040  -34.0320   24.9730 H   0  0  0  0  0  0  0  0  0  0  0  0
  -24.1700  -36.7350   23.0630 C   0  0  0  0  0  1  0  0  0  0  0  0
  -25.4120  -36.3270   23.8730 C   0  0  0  0  0  3  0  0  0  0  0  0
  -27.5450  -37.2060   24.7130 C   0  0  0  0  0  1  0  0  0  0  0  0
  -26.4410  -37.3850   23.7730 N   0  0  0  0  0  0  0  0  0  0  0  0
  -26.0330  -38.3030   23.9330 H   0  0  0  0  0  0  0  0  0  0  0  0
  1  2  1  0
  1 51  1  0
  2  4  1  0
  3  1  2  0
  6  7  2  0
  7  2  1  0
  7  5  1  0
  8  5  2  0
  8 12  1  0
  9  6  1  0
  9  8  1  0
 10 12  2  0
 12 11  2  0
 13 21  1  0
 14 19  1  0
 15 16  1  0
 15 14  1  0
 17 16  1  0
 17 26  1  0
 17 18  1  0
 19 13  1  0
 19 18  1  0
 20 13  2  0
 21 22  1  0
 12 21  1  6
 23 24  2  0
 24 43  1  0
 25 24  1  0
 25 28  1  0
 26 27  1  0
 26 23  1  0
 27 25  2  0
 28 29  1  0
 29 30  2  0
 31 34  1  0
 31 30  1  0
 32 31  2  0
 33 32  1  0
 33 28  2  0
 34 35  1  0
 35 36  1  0
 36 37  2  0
 38 37  1  0
 38 42  1  0
 39 38  2  0
 40 35  2  0
 40 39  1  0
 41 40  1  0
 43 44  1  0
 44 47  1  0
 44 46  1  0
 45 43  2  0
 48 49  1  0
 48 23  1  0
 50 48  1  0
 51 53  1  0
 53 52  1  0
 54 56  1  0
 54 53  1  0
 55 66  2  0
 56 61  1  0
 57 65  1  0
 57 67  1  0
 58 64  1  0
 58 60  1  0
 59 65  1  0
 60 61  2  0
 60 59  1  0
 62 63  1  0
 62 56  2  0
 63 58  2  0
 64 57  1  0
 65 55  1  0
 67 69  2  0
 68 67  1  0
 70 68  1  0
 71 80  2  0
 71 76  1  0
 72 68  1  0
 72 76  1  0
 73 72  1  0
 74 75  1  0
 74 73  1  0
 75 71  1  0
 76 77  2  0
 77 78  1  0
 79 78  2  0
 80 79  1  0
 81 55  1  0
 81 86  1  0
 81 82  1  0
 82 85  1  1
 82 83  1  0
 84 82  1  0
 86 89  1  0
 87 91  1  0
 87 86  1  0
 88 87  2  0
 91 90  1  0
 93 91  1  0
 93 94  1  0
 93 92  1  0
M  ISO  4  13 100  21 100  53 101  54 101
M  END
>  <TORSDO>  (55) 
F 20

>  <SCORE>  (55) 
-14.337

>  <name>  (55) 
55

>  <ligand_id>  (55) 
55

>  <original_smiles>  (55) 
[H]c1sc(S(=O)(=O)N([H])C(=O)N2C([H])([H])C([H])([H])C([H])([H])C([H])(n3nc(-c4c([H])c([H])c(Oc5c([H])c([H])c(F)c([H])c5F)c([H])c4[H])c(C(=O)N([H])[H])c3N([H])[H])C2([H])[H])c([H])c1N([H])C(=O)C([H])([H])C([H])(Oc1c([H])c([H])c2c(c1[H])C([H])([H])N(C(=O)C([H])(N([H])C(=O)C([H])(N([H])C([H])([H])[H])C([H])([H])[H])C(C([H])([H])[H])(C([H])([H])[H])C([H])([H])[H])C([H])(C(=O)N([H])C1([H])c3c([H])c([H])c([H])c([H])c3C([H])([H])C([H])([H])C1([H])[H])C2([H])[H])C([H])([H])[H]

>  <smiles>  (55) 
[H]c1sc(S(=O)(=O)N([H])C(=O)N2C([H])([H])C([H])([H])C([H])([H])C([H])(n3nc(-c4c([H])c([H])c(Oc5c([H])c([H])c(F)c([H])c5F)c([H])c4[H])c(C(=O)N([H])[H])c3N([H])[H])C2([H])[H])c([H])c1N([H])C(=O)C([H])([H])C([H])(Oc1c([H])c([H])c2c(c1[H])C([H])([H])N(C(=O)C([H])(N([H])C(=O)C([H])(N([H])C([H])([H])[H])C([H])([H])[H])C(C([H])([H])[H])(C([H])([H])[H])C([H])([H])[H])C([H])(C(=O)N([H])C1([H])c3c([H])c([H])c([H])c([H])c3C([H])([H])C([H])([H])C1([H])[H])C2([H])[H])C([H])([H])[H]

$$$$
56:0:0
     RDKit          3D

 92100  0  0  1  0  0  0  0  0999 V2000
  -28.9020  -19.1480   20.1380 C   0  0  0  0  0  0  0  0  0  0  0  0
  -30.2250  -18.7700   19.9440 C   0  0  0  0  0  0  0  0  0  0  0  0
  -29.7240  -21.3330   19.9120 C   0  0  0  0  0  0  0  0  0  0  0  0
  -28.9090  -23.8650   20.0240 C   0  0  0  0  0  0  0  0  0  0  0  0
  -27.7610  -18.2150   20.4010 C   0  0  0  0  0  1  0  0  0  0  0  0
  -28.6400  -20.5590   20.1130 N   0  0  0  0  0  0  0  0  0  0  0  0
  -29.7880  -22.8100   19.8380 N   0  0  0  0  0  0  0  0  0  0  0  0
  -27.7440  -23.7000   20.3920 O   0  0  0  0  0  0  0  0  0  0  0  0
  -31.1560  -20.2750   19.7040 S   0  0  0  0  0  0  0  0  0  0  0  0
  -30.7090  -23.1360   19.5840 H   0  0  0  0  0  0  0  0  0  0  0  0
  -29.5940  -25.6660   18.2430 C   0  0  0  0  0  1  0  0  0  0  0  0
  -29.4430  -25.3550   19.7450 C   0  0  0  0  0  3  0  0  0  0  0  0
  -28.9640  -26.5180   20.5680 O   0  0  0  0  0  0  0  0  0  0  0  0
  -24.8050  -31.7700   23.2630 C   0  0  0  0  0  0  0  0  0  0  0  0
  -27.8010  -27.2960   20.3950 C   0  0  0  0  0  0  0  0  0  0  0  0
  -23.7770  -30.3360   21.5350 C   0  0  0  0  0  3  0  0  0  0  0  0
  -25.3830  -28.8380   20.2140 C   0  0  0  0  0  0  0  0  0  0  0  0
  -26.3100  -30.7400   21.5390 C   0  0  0  0  0  2  0  0  0  0  0  0
  -26.4860  -29.3670   20.8940 C   0  0  0  0  0  0  0  0  0  0  0  0
  -27.6930  -28.6060   20.9730 C   0  0  0  0  0  3  0  0  0  0  0  0
  -26.6620  -26.8130   19.7160 C   0  0  0  0  0  3  0  0  0  0  0  0
  -25.4750  -27.5700   19.6170 C   0  0  0  0  0  3  0  0  0  0  0  0
  -24.1160  -29.6720   20.1730 C   0  0  0  0  0  2  0  0  0  0  0  0
  -24.9780  -30.9680   22.1700 N   0  0  0  0  0  0  0  0  0  0  0  0
  -23.6750  -32.0060   23.7160 O   0  0  0  0  0  0  0  0  0  0  0  0
  -23.0810  -29.2940   22.4430 C   0  0  0  0  0  0  0  0  0  0  0  0
  -21.7570  -29.1280   22.2710 N   0  0  0  0  0  0  0  0  0  0  0  0
  -23.7310  -28.6390   23.2610 O   0  0  0  0  0  0  0  0  0  0  0  0
  -21.2920  -29.7090   21.5880 H   0  0  0  0  0  0  0  0  0  0  0  0
  -18.3410  -28.0400   22.7510 C   0  0  0  0  0  0  0  0  0  0  0  0
  -20.9130  -28.1700   22.9860 C   0  0  0  0  0  3  0  0  0  0  0  0
  -20.9420  -26.7830   22.3020 C   0  0  0  0  0  2  0  0  0  0  0  0
  -19.8100  -26.5850   21.2890 C   0  0  0  0  0  2  0  0  0  0  0  0
  -18.4470  -26.7390   21.9710 C   0  0  0  0  0  2  0  0  0  0  0  0
  -19.4990  -28.7190   23.2140 C   0  0  0  0  0  0  0  0  0  0  0  0
  -19.3460  -29.9410   23.9030 C   0  0  0  0  0  3  0  0  0  0  0  0
  -18.0670  -30.4820   24.1350 C   0  0  0  0  0  3  0  0  0  0  0  0
  -16.9240  -29.7980   23.6860 C   0  0  0  0  0  3  0  0  0  0  0  0
  -17.0620  -28.5780   23.0000 C   0  0  0  0  0  3  0  0  0  0  0  0
  -26.0120  -32.4460   23.9810 C   0  0  0  0  0  3  0  0  0  0  0  0
  -25.6390  -33.8390   24.2660 N   0  0  0  0  0  0  0  0  0  0  0  0
  -25.9840  -34.8910   23.5130 C   0  0  0  0  0  0  0  0  0  0  0  0
  -26.7190  -34.7950   22.5260 O   0  0  0  0  0  0  0  0  0  0  0  0
  -24.9930  -33.9860   25.0280 H   0  0  0  0  0  0  0  0  0  0  0  0
  -24.2140  -36.6140   23.0390 C   0  0  0  0  0  1  0  0  0  0  0  0
  -25.4270  -36.2700   23.9180 C   0  0  0  0  0  3  0  0  0  0  0  0
  -27.4760  -37.2580   24.8440 C   0  0  0  0  0  1  0  0  0  0  0  0
  -26.4250  -37.3570   23.8340 N   0  0  0  0  0  0  0  0  0  0  0  0
  -25.9780  -38.2650   23.9300 H   0  0  0  0  0  0  0  0  0  0  0  0
  -26.4410  -31.7060   25.3080 C   0  0  1  0  0  0  0  0  0  0  0  0
  -25.2630  -31.4230   26.2700 C   0  0  0  0  0  1  0  0  0  0  0  0
  -27.1200  -30.3550   24.9840 C   0  0  0  0  0  1  0  0  0  0  0  0
  -27.4860  -32.5550   26.0690 C   0  0  0  0  0  1  0  0  0  0  0  0
  -31.0080  -17.3950   20.0220 C   0  0  0  0  0  2  0  0  0  0  0  0
  -31.1130  -14.8220   20.0410 C   0  0  0  0  0  0  0  0  0  0  0  0
  -30.8220  -12.5360   19.0890 C   0  0  0  0  0  2  0  0  0  0  0  0
  -29.8590  -12.6060   17.8860 C   0  0  0  0  0  2  0  0  0  0  0  0
  -28.3970  -12.4740   18.3560 C   0  0  0  0  0  2  0  0  0  0  0  0
  -28.0720  -13.3930   19.5640 C   0  0  0  0  0  3  0  0  0  0  0  0
  -29.1570  -13.3170   20.6590 C   0  0  0  0  0  2  0  0  0  0  0  0
  -30.4410  -13.6220   20.0200 N   0  0  0  0  0  0  0  0  0  0  0  0
  -32.2970  -14.8620   19.6950 O   0  0  0  0  0  0  0  0  0  0  0  0
  -30.4110  -16.0050   20.2240 N   0  0  0  0  0  0  0  0  0  0  0  0
  -29.4300  -15.9350   20.4470 H   0  0  0  0  0  0  0  0  0  0  0  0
  -25.7310  -14.0410   20.3850 C   0  0  0  0  0  0  0  0  0  0  0  0
  -24.6560  -13.2920   20.7790 C   0  0  0  0  0  0  0  0  0  0  0  0
  -25.0770  -11.9290   20.7080 C   0  0  0  0  0  0  0  0  0  0  0  0
  -26.7380  -13.1360   20.0970 N   0  0  0  0  0  0  0  0  0  0  0  0
  -26.3540  -11.8580   20.3550 N   0  0  0  0  0  0  0  0  0  0  0  0
  -24.3170  -10.6860   20.8980 C   0  0  0  0  0  0  0  0  0  0  0  0
  -24.6940   -9.7320   21.8700 C   0  0  0  0  0  3  0  0  0  0  0  0
  -23.9370   -8.5550   22.0480 C   0  0  0  0  0  3  0  0  0  0  0  0
  -22.7890   -8.3220   21.2530 C   0  0  0  0  0  0  0  0  0  0  0  0
  -22.4320   -9.2630   20.2710 C   0  0  0  0  0  3  0  0  0  0  0  0
  -23.1900  -10.4320   20.0920 C   0  0  0  0  0  3  0  0  0  0  0  0
  -22.0070   -7.1950   21.3370 O   0  0  0  0  0  0  0  0  0  0  0  0
  -21.8320   -6.5270   22.5230 C   0  0  0  0  0  0  0  0  0  0  0  0
  -21.2010   -7.1320   23.6320 C   0  0  0  0  0  3  0  0  0  0  0  0
  -20.9800   -6.3880   24.8090 C   0  0  0  0  0  3  0  0  0  0  0  0
  -21.3790   -5.0400   24.8750 C   0  0  0  0  0  0  0  0  0  0  0  0
  -22.0020   -4.4350   23.7700 C   0  0  0  0  0  3  0  0  0  0  0  0
  -22.2250   -5.1760   22.5960 C   0  0  0  0  0  0  0  0  0  0  0  0
  -22.8070   -4.5820   21.5260 F   0  0  0  0  0  0  0  0  0  0  0  0
  -21.1590   -4.3220   26.0010 F   0  0  0  0  0  0  0  0  0  0  0  0
  -23.2850  -13.8070   21.1040 C   0  0  0  0  0  0  0  0  0  0  0  0
  -22.5780  -13.1380   22.0080 N   0  0  0  0  0  0  0  0  0  0  0  0
  -22.8500  -14.8370   20.5900 O   0  0  0  0  0  0  0  0  0  0  0  0
  -22.9430  -12.3050   22.4450 H   0  0  0  0  0  0  0  0  0  0  0  0
  -21.6590  -13.4650   22.2700 H   0  0  0  0  0  0  0  0  0  0  0  0
  -25.9300  -15.4090   20.2210 N   0  0  0  0  0  0  0  0  0  0  0  0
  -25.1750  -16.0740   20.3430 H   0  0  0  0  0  0  0  0  0  0  0  0
  -26.7520  -15.8170   19.7960 H   0  0  0  0  0  0  0  0  0  0  0  0
  1  5  1  0
  2 54  1  0
  2  1  2  0
  3  6  2  0
  4  8  2  0
  6  1  1  0
  7  3  1  0
  7  4  1  0
  9  3  1  0
  9  2  1  0
 10  7  1  0
 12 11  1  0
 12  4  1  0
 12 13  1  0
 14 25  2  0
 15 13  1  0
 15 20  1  0
 16 24  1  0
 16 26  1  0
 17 19  1  0
 18 24  1  0
 19 20  2  0
 19 18  1  0
 21 15  2  0
 22 21  1  0
 22 17  2  0
 23 17  1  0
 23 16  1  0
 24 14  1  0
 26 28  2  0
 27 26  1  0
 29 27  1  0
 30 39  2  0
 30 35  1  0
 31 27  1  0
 31 35  1  0
 32 31  1  0
 33 34  1  0
 33 32  1  0
 34 30  1  0
 35 36  2  0
 36 37  1  0
 38 37  2  0
 39 38  1  0
 40 14  1  0
 40 41  1  0
 40 50  1  0
 41 44  1  0
 42 46  1  0
 42 41  1  0
 43 42  2  0
 46 45  1  0
 48 46  1  0
 48 49  1  0
 48 47  1  0
 50 53  1  1
 50 51  1  0
 52 50  1  0
 54 63  1  0
 55 63  1  0
 56 61  1  0
 57 58  1  0
 57 56  1  0
 59 58  1  0
 59 68  1  0
 59 60  1  0
 61 55  1  0
 61 60  1  0
 62 55  2  0
 63 64  1  0
 65 66  2  0
 66 85  1  0
 67 66  1  0
 67 70  1  0
 68 69  1  0
 68 65  1  0
 69 67  2  0
 70 71  1  0
 71 72  2  0
 73 76  1  0
 73 72  1  0
 74 73  2  0
 75 74  1  0
 75 70  2  0
 76 77  1  0
 77 82  2  0
 77 78  1  0
 78 79  2  0
 79 80  1  0
 80 84  1  0
 81 80  2  0
 82 81  1  0
 83 82  1  0
 85 86  1  0
 86 89  1  0
 86 88  1  0
 87 85  2  0
 90 91  1  0
 90 65  1  0
 92 90  1  0
M  ISO  4  12 101  13 101  55 100  63 100
M  END
>  <TORSDO>  (56) 
F 18

>  <SCORE>  (56) 
-14.221

>  <name>  (56) 
56

>  <ligand_id>  (56) 
56

>  <original_smiles>  (56) 
[H]c1c([H])c([H])c2c(c1[H])C([H])([H])C([H])([H])C([H])([H])C2([H])N([H])C(=O)C1([H])N(C(=O)C([H])(N([H])C(=O)C([H])(N([H])C([H])([H])[H])C([H])([H])[H])C(C([H])([H])[H])(C([H])([H])[H])C([H])([H])[H])C([H])([H])c2c([H])c(OC([H])(C(=O)N([H])c3nc(C([H])([H])[H])c(C([H])([H])N([H])C(=O)N4C([H])([H])C([H])([H])C([H])([H])C([H])(n5nc(-c6c([H])c([H])c(Oc7c([H])c([H])c(F)c([H])c7F)c([H])c6[H])c(C(=O)N([H])[H])c5N([H])[H])C4([H])[H])s3)C([H])([H])[H])c([H])c([H])c2C1([H])[H]

>  <smiles>  (56) 
[H]c1c([H])c([H])c2c(c1[H])C([H])([H])C([H])([H])C([H])([H])C2([H])N([H])C(=O)C1([H])N(C(=O)C([H])(N([H])C(=O)C([H])(N([H])C([H])([H])[H])C([H])([H])[H])C(C([H])([H])[H])(C([H])([H])[H])C([H])([H])[H])C([H])([H])c2c([H])c(OC([H])(C(=O)N([H])c3nc(C([H])([H])[H])c(C([H])([H])N([H])C(=O)N4C([H])([H])C([H])([H])C([H])([H])C([H])(n5nc(-c6c([H])c([H])c(Oc7c([H])c([H])c(F)c([H])c7F)c([H])c6[H])c(C(=O)N([H])[H])c5N([H])[H])C4([H])[H])s3)C([H])([H])[H])c([H])c([H])c2C1([H])[H]

$$$$
57:0:0
     RDKit          3D

 96104  0  0  1  0  0  0  0  0999 V2000
  -29.1640  -21.0530   20.4560 N   0  0  0  0  0  0  0  0  0  0  0  0
  -28.3350  -20.8880   19.8900 H   0  0  0  0  0  0  0  0  0  0  0  0
  -30.6120  -14.8440   20.0920 C   0  0  0  0  0  0  0  0  0  0  0  0
  -30.3860  -12.5830   19.0410 C   0  0  0  0  0  2  0  0  0  0  0  0
  -29.3860  -12.6770   17.8690 C   0  0  0  0  0  2  0  0  0  0  0  0
  -27.9390  -12.4900   18.3640 C   0  0  0  0  0  2  0  0  0  0  0  0
  -27.6170  -13.3510   19.6140 C   0  0  0  0  0  3  0  0  0  0  0  0
  -28.7320  -13.2460   20.6780 C   0  0  0  0  0  2  0  0  0  0  0  0
  -29.9880  -13.6200   20.0190 N   0  0  0  0  0  0  0  0  0  0  0  0
  -31.8120  -14.9410   19.8240 O   0  0  0  0  0  0  0  0  0  0  0  0
  -30.7040  -19.4120   21.8090 C   0  0  0  0  0  0  0  0  0  0  0  0
  -29.8260  -19.7570   20.7750 C   0  0  0  0  0  0  0  0  0  0  0  0
  -30.1140  -17.3680   20.4960 C   0  0  0  0  0  0  0  0  0  0  0  0
  -29.4550  -18.5170   20.1090 N   0  0  0  0  0  0  0  0  0  0  0  0
  -29.8020  -15.9720   20.1230 N   0  0  0  0  0  0  0  0  0  0  0  0
  -31.3070  -17.7510   21.7020 S   0  0  0  0  0  0  0  0  0  0  0  0
  -28.8260  -15.7850   19.9740 H   0  0  0  0  0  0  0  0  0  0  0  0
  -25.2620  -13.9200   20.4570 C   0  0  0  0  0  0  0  0  0  0  0  0
  -24.2150  -13.1340   20.8530 C   0  0  0  0  0  0  0  0  0  0  0  0
  -24.6840  -11.7870   20.7830 C   0  0  0  0  0  0  0  0  0  0  0  0
  -26.2980  -13.0510   20.1620 N   0  0  0  0  0  0  0  0  0  0  0  0
  -25.9610  -11.7620   20.4220 N   0  0  0  0  0  0  0  0  0  0  0  0
  -23.9720  -10.5180   20.9790 C   0  0  0  0  0  0  0  0  0  0  0  0
  -24.4230   -9.5520   21.9060 C   0  0  0  0  0  3  0  0  0  0  0  0
  -23.7090   -8.3490   22.0910 C   0  0  0  0  0  3  0  0  0  0  0  0
  -22.5300   -8.1020   21.3480 C   0  0  0  0  0  0  0  0  0  0  0  0
  -22.0970   -9.0570   20.4100 C   0  0  0  0  0  3  0  0  0  0  0  0
  -22.8130  -10.2520   20.2240 C   0  0  0  0  0  3  0  0  0  0  0  0
  -21.7860   -6.9510   21.4430 O   0  0  0  0  0  0  0  0  0  0  0  0
  -21.7280   -6.2250   22.6050 C   0  0  0  0  0  0  0  0  0  0  0  0
  -21.2570   -6.7870   23.8130 C   0  0  0  0  0  3  0  0  0  0  0  0
  -21.1490   -5.9860   24.9660 C   0  0  0  0  0  3  0  0  0  0  0  0
  -21.5010   -4.6230   24.9140 C   0  0  0  0  0  0  0  0  0  0  0  0
  -21.9650   -4.0610   23.7120 C   0  0  0  0  0  3  0  0  0  0  0  0
  -22.0750   -4.8600   22.5610 C   0  0  0  0  0  0  0  0  0  0  0  0
  -22.5020   -4.3080   21.3990 F   0  0  0  0  0  0  0  0  0  0  0  0
  -21.3890   -3.8510   26.0200 F   0  0  0  0  0  0  0  0  0  0  0  0
  -22.8280  -13.6000   21.1840 C   0  0  0  0  0  0  0  0  0  0  0  0
  -22.1360  -12.8840   22.0660 N   0  0  0  0  0  0  0  0  0  0  0  0
  -22.3670  -14.6320   20.7010 O   0  0  0  0  0  0  0  0  0  0  0  0
  -22.5230  -12.0460   22.4740 H   0  0  0  0  0  0  0  0  0  0  0  0
  -21.2070  -13.1760   22.3320 H   0  0  0  0  0  0  0  0  0  0  0  0
  -25.4070  -15.2960   20.2990 N   0  0  0  0  0  0  0  0  0  0  0  0
  -24.6380  -15.9340   20.4640 H   0  0  0  0  0  0  0  0  0  0  0  0
  -26.2300  -15.7630   19.9400 H   0  0  0  0  0  0  0  0  0  0  0  0
  -31.1560  -20.1420   23.0400 C   0  0  1  0  0  0  0  0  0  0  0  0
  -32.3360  -20.7350   22.8670 F   0  0  0  0  0  0  0  0  0  0  0  0
  -30.2640  -21.0350   23.4640 F   0  0  0  0  0  0  0  0  0  0  0  0
  -31.3190  -19.2990   24.0620 F   0  0  0  0  0  0  0  0  0  0  0  0
  -30.3840  -22.6590   18.9830 C   0  0  0  0  0  1  0  0  0  0  0  0
  -30.5600  -22.9900   21.3980 C   0  0  0  0  0  1  0  0  0  0  0  0
  -29.5910  -22.5290   20.3020 C   0  0  2  0  0  0  0  0  0  0  0  0
  -28.3610  -23.6230   20.2650 C   0  0  0  0  0  3  0  0  0  0  0  0
  -27.7260  -23.5790   19.0910 F   0  0  0  0  0  0  0  0  0  0  0  0
  -28.3680  -25.1630   20.8550 C   0  0  0  0  0  2  0  0  0  0  0  0
  -28.4100  -26.4900   20.1440 O   0  0  0  0  0  0  0  0  0  0  0  0
  -24.6220  -31.9250   23.2360 C   0  0  0  0  0  0  0  0  0  0  0  0
  -27.2860  -27.3490   20.1820 C   0  0  0  0  0  0  0  0  0  0  0  0
  -23.4360  -30.5150   21.5930 C   0  0  0  0  0  3  0  0  0  0  0  0
  -24.9050  -28.9630   20.1780 C   0  0  0  0  0  0  0  0  0  0  0  0
  -25.9790  -30.8390   21.4240 C   0  0  0  0  0  2  0  0  0  0  0  0
  -26.0740  -29.4590   20.7710 C   0  0  0  0  0  0  0  0  0  0  0  0
  -27.2700  -28.6690   20.7540 C   0  0  0  0  0  3  0  0  0  0  0  0
  -26.0910  -26.9090   19.5790 C   0  0  0  0  0  3  0  0  0  0  0  0
  -24.9180  -27.6960   19.5730 C   0  0  0  0  0  3  0  0  0  0  0  0
  -23.6620  -29.8340   20.2180 C   0  0  0  0  0  2  0  0  0  0  0  0
  -24.6960  -31.1110   22.1410 N   0  0  0  0  0  0  0  0  0  0  0  0
  -23.5330  -32.1970   23.7640 O   0  0  0  0  0  0  0  0  0  0  0  0
  -22.7700  -29.4990   22.5550 C   0  0  0  0  0  0  0  0  0  0  0  0
  -21.4460  -29.3180   22.4270 N   0  0  0  0  0  0  0  0  0  0  0  0
  -23.4480  -28.8750   23.3740 O   0  0  0  0  0  0  0  0  0  0  0  0
  -20.9520  -29.8710   21.7390 H   0  0  0  0  0  0  0  0  0  0  0  0
  -18.0730  -28.1100   22.9440 C   0  0  0  0  0  0  0  0  0  0  0  0
  -20.6330  -28.3750   23.1990 C   0  0  0  0  0  3  0  0  0  0  0  0
  -20.7350  -26.9470   22.6200 C   0  0  0  0  0  2  0  0  0  0  0  0
  -19.6280  -26.6240   21.6110 C   0  0  0  0  0  2  0  0  0  0  0  0
  -18.2490  -26.7640   22.2600 C   0  0  0  0  0  2  0  0  0  0  0  0
  -19.1920  -28.8730   23.3710 C   0  0  0  0  0  0  0  0  0  0  0  0
  -18.9740  -30.1310   23.9720 C   0  0  0  0  0  3  0  0  0  0  0  0
  -17.6700  -30.6300   24.1480 C   0  0  0  0  0  3  0  0  0  0  0  0
  -16.5640  -29.8650   23.7370 C   0  0  0  0  0  3  0  0  0  0  0  0
  -16.7670  -28.6070   23.1410 C   0  0  0  0  0  3  0  0  0  0  0  0
  -25.8960  -32.5710   23.8600 C   0  0  0  0  0  3  0  0  0  0  0  0
  -26.4090  -31.8110   25.1470 C   0  0  1  0  0  0  0  0  0  0  0  0
  -25.3100  -31.5740   26.2080 C   0  0  0  0  0  1  0  0  0  0  0  0
  -27.0050  -30.4340   24.7730 C   0  0  0  0  0  1  0  0  0  0  0  0
  -27.5480  -32.6210   25.8100 C   0  0  0  0  0  1  0  0  0  0  0  0
  -25.5750  -33.9690   24.1830 N   0  0  0  0  0  0  0  0  0  0  0  0
  -25.9060  -35.0230   23.4250 C   0  0  0  0  0  0  0  0  0  0  0  0
  -26.5840  -34.9210   22.3990 O   0  0  0  0  0  0  0  0  0  0  0  0
  -24.9720  -34.1220   24.9780 H   0  0  0  0  0  0  0  0  0  0  0  0
  -24.1770  -36.8090   23.0540 C   0  0  0  0  0  1  0  0  0  0  0  0
  -25.4110  -36.4100   23.8770 C   0  0  0  0  0  3  0  0  0  0  0  0
  -27.5310  -37.3040   24.7340 C   0  0  0  0  0  1  0  0  0  0  0  0
  -26.4410  -37.4670   23.7740 N   0  0  0  0  0  0  0  0  0  0  0  0
  -26.0290  -38.3850   23.9190 H   0  0  0  0  0  0  0  0  0  0  0  0
  1 12  1  0
  2  1  1  0
  3 15  1  0
  4  9  1  0
  5  6  1  0
  5  4  1  0
  7  6  1  0
  7 21  1  0
  7  8  1  0
  9  3  1  0
  9  8  1  0
 10  3  2  0
 11 46  1  0
 12 11  2  0
 13 16  1  0
 14 13  2  0
 14 12  1  0
 15 13  1  0
 16 11  1  0
 17 15  1  0
 18 19  2  0
 19 38  1  0
 20 19  1  0
 20 23  1  0
 21 22  1  0
 21 18  1  0
 22 20  2  0
 23 24  1  0
 24 25  2  0
 26 29  1  0
 26 25  1  0
 27 26  2  0
 28 27  1  0
 28 23  2  0
 29 30  1  0
 30 31  1  0
 31 32  2  0
 33 32  1  0
 33 37  1  0
 34 33  2  0
 35 30  2  0
 35 34  1  0
 36 35  1  0
 38 39  1  0
 39 42  1  0
 39 41  1  0
 40 38  2  0
 43 18  1  0
 43 44  1  0
 45 43  1  0
 46 48  1  1
 46 49  1  0
 47 46  1  0
 52 50  1  6
 52  1  1  0
 52 51  1  0
 53 54  1  0
 53 52  1  0
 53 55  1  0
 56 58  1  0
 56 55  1  0
 57 68  2  0
 58 63  1  0
 59 67  1  0
 59 69  1  0
 60 66  1  0
 60 62  1  0
 61 67  1  0
 62 61  1  0
 63 62  2  0
 64 58  2  0
 65 64  1  0
 65 60  2  0
 66 59  1  0
 67 57  1  0
 69 71  2  0
 70 69  1  0
 72 70  1  0
 73 82  2  0
 73 78  1  0
 74 70  1  0
 74 78  1  0
 75 74  1  0
 76 77  1  0
 76 75  1  0
 77 73  1  0
 78 79  2  0
 79 80  1  0
 81 80  2  0
 82 81  1  0
 83 57  1  0
 83 88  1  0
 83 84  1  0
 84 87  1  1
 84 85  1  0
 86 84  1  0
 88 91  1  0
 89 93  1  0
 89 88  1  0
 90 89  2  0
 93 92  1  0
 95 93  1  0
 95 96  1  0
 95 94  1  0
M  ISO  4   3 100  15 100  55 101  56 101
M  END
>  <TORSDO>  (57) 
F 20

>  <SCORE>  (57) 
-14.419

>  <name>  (57) 
57

>  <ligand_id>  (57) 
57

>  <original_smiles>  (57) 
[H]c1c([H])c([H])c2c(c1[H])C([H])([H])C([H])([H])C([H])([H])C2([H])N([H])C(=O)C1([H])N(C(=O)C([H])(N([H])C(=O)C([H])(N([H])C([H])([H])[H])C([H])([H])[H])C(C([H])([H])[H])(C([H])([H])[H])C([H])([H])[H])C([H])([H])c2c([H])c(OC([H])([H])C([H])(F)C(N([H])c3nc(N([H])C(=O)N4C([H])([H])C([H])([H])C([H])([H])C([H])(n5nc(-c6c([H])c([H])c(Oc7c([H])c([H])c(F)c([H])c7F)c([H])c6[H])c(C(=O)N([H])[H])c5N([H])[H])C4([H])[H])sc3C(F)(F)F)(C([H])([H])[H])C([H])([H])[H])c([H])c([H])c2C1([H])[H]

>  <smiles>  (57) 
[H]c1c([H])c([H])c2c(c1[H])C([H])([H])C([H])([H])C([H])([H])C2([H])N([H])C(=O)C1([H])N(C(=O)C([H])(N([H])C(=O)C([H])(N([H])C([H])([H])[H])C([H])([H])[H])C(C([H])([H])[H])(C([H])([H])[H])C([H])([H])[H])C([H])([H])c2c([H])c(OC([H])([H])C([H])(F)C(N([H])c3nc(N([H])C(=O)N4C([H])([H])C([H])([H])C([H])([H])C([H])(n5nc(-c6c([H])c([H])c(Oc7c([H])c([H])c(F)c([H])c7F)c([H])c6[H])c(C(=O)N([H])[H])c5N([H])[H])C4([H])[H])sc3C(F)(F)F)(C([H])([H])[H])C([H])([H])[H])c([H])c([H])c2C1([H])[H]

$$$$
58:0:0
     RDKit          3D

 97105  0  0  1  0  0  0  0  0999 V2000
  -27.5770  -22.6460   19.8870 C   0  0  0  0  0  3  0  0  0  0  0  0
  -26.1410  -22.8650   19.3230 C   0  0  0  0  0  0  0  0  0  0  0  0
  -25.5120  -21.9400   18.7860 O   0  0  0  0  0  0  0  0  0  0  0  0
  -23.9810  -24.2840   19.1130 C   0  0  0  0  0  1  0  0  0  0  0  0
  -25.4820  -24.2420   19.4550 C   0  0  0  0  0  2  0  0  0  0  0  0
  -27.6920  -21.3580   20.5800 N   0  0  0  0  0  0  0  0  0  0  0  0
  -26.9890  -21.1370   21.2810 H   0  0  0  0  0  0  0  0  0  0  0  0
  -28.4370  -20.0680   18.5750 C   0  0  0  0  0  3  0  0  0  0  0  0
  -28.1490  -20.2060   19.9110 C   0  0  0  0  0  0  0  0  0  0  0  0
  -28.3370  -18.9930   20.6330 C   0  0  0  0  0  0  0  0  0  0  0  0
  -28.7840  -17.9440   19.8790 C   0  0  0  0  0  0  0  0  0  0  0  0
  -28.0800  -18.9070   21.9200 F   0  0  0  0  0  0  0  0  0  0  0  0
  -28.9670  -18.4430   18.2100 S   0  0  0  0  0  0  0  0  0  0  0  0
  -29.0180  -16.5290   20.2860 C   0  0  0  0  0  2  0  0  0  0  0  0
  -30.8880  -14.8990   19.4830 C   0  0  0  0  0  0  0  0  0  0  0  0
  -30.6270  -12.5570   18.7800 C   0  0  0  0  0  2  0  0  0  0  0  0
  -29.6240  -12.4260   17.6180 C   0  0  0  0  0  2  0  0  0  0  0  0
  -28.1910  -12.2740   18.1540 C   0  0  0  0  0  2  0  0  0  0  0  0
  -27.8510  -13.3360   19.2280 C   0  0  0  0  0  3  0  0  0  0  0  0
  -28.9650  -13.4180   20.3050 C   0  0  0  0  0  2  0  0  0  0  0  0
  -30.2200  -13.7160   19.6010 N   0  0  0  0  0  0  0  0  0  0  0  0
  -31.9830  -14.9720   18.9250 O   0  0  0  0  0  0  0  0  0  0  0  0
  -30.3500  -16.0700   19.8840 N   0  0  0  0  0  0  0  0  0  0  0  0
  -30.9680  -16.8370   19.6620 H   0  0  0  0  0  0  0  0  0  0  0  0
  -25.5350  -13.9860   20.1410 C   0  0  0  0  0  0  0  0  0  0  0  0
  -24.4900  -13.2270   20.6050 C   0  0  0  0  0  0  0  0  0  0  0  0
  -24.9300  -11.8710   20.5370 C   0  0  0  0  0  0  0  0  0  0  0  0
  -26.5440  -13.0840   19.8250 N   0  0  0  0  0  0  0  0  0  0  0  0
  -26.1910  -11.8070   20.1220 N   0  0  0  0  0  0  0  0  0  0  0  0
  -24.2070  -10.6180   20.7800 C   0  0  0  0  0  0  0  0  0  0  0  0
  -24.6100   -9.7120   21.7830 C   0  0  0  0  0  3  0  0  0  0  0  0
  -23.8830   -8.5240   22.0030 C   0  0  0  0  0  3  0  0  0  0  0  0
  -22.7400   -8.2360   21.2190 C   0  0  0  0  0  0  0  0  0  0  0  0
  -22.3550   -9.1320   20.2050 C   0  0  0  0  0  3  0  0  0  0  0  0
  -23.0850  -10.3130   19.9840 C   0  0  0  0  0  3  0  0  0  0  0  0
  -21.9830   -7.0990   21.3580 O   0  0  0  0  0  0  0  0  0  0  0  0
  -21.8000   -6.4930   22.5800 C   0  0  0  0  0  0  0  0  0  0  0  0
  -21.2140   -7.1750   23.6680 C   0  0  0  0  0  3  0  0  0  0  0  0
  -20.9820   -6.4960   24.8820 C   0  0  0  0  0  3  0  0  0  0  0  0
  -21.3270   -5.1360   25.0080 C   0  0  0  0  0  0  0  0  0  0  0  0
  -21.9040   -4.4560   23.9220 C   0  0  0  0  0  3  0  0  0  0  0  0
  -22.1360   -5.1310   22.7140 C   0  0  0  0  0  0  0  0  0  0  0  0
  -22.6760   -4.4620   21.6660 F   0  0  0  0  0  0  0  0  0  0  0  0
  -21.0960   -4.4840   26.1720 F   0  0  0  0  0  0  0  0  0  0  0  0
  -23.1290  -13.7250   20.9840 C   0  0  0  0  0  0  0  0  0  0  0  0
  -22.4740  -13.0590   21.9260 N   0  0  0  0  0  0  0  0  0  0  0  0
  -22.6560  -14.7400   20.4840 O   0  0  0  0  0  0  0  0  0  0  0  0
  -22.8620  -12.2350   22.3570 H   0  0  0  0  0  0  0  0  0  0  0  0
  -21.5600  -13.3740   22.2070 H   0  0  0  0  0  0  0  0  0  0  0  0
  -25.7070  -15.3530   19.9490 N   0  0  0  0  0  0  0  0  0  0  0  0
  -24.9390  -16.0050   20.0840 H   0  0  0  0  0  0  0  0  0  0  0  0
  -26.5000  -15.7880   19.5010 H   0  0  0  0  0  0  0  0  0  0  0  0
  -28.1300  -23.7970   20.7840 C   0  0  0  0  0  2  0  0  0  0  0  0
  -29.0210  -24.8320   20.0800 C   0  0  0  0  0  0  0  0  0  0  0  0
  -29.4330  -24.6850   18.9210 O   0  0  0  0  0  0  0  0  0  0  0  0
  -29.3950  -26.0650   20.9130 C   0  0  0  0  0  2  0  0  0  0  0  0
  -29.3470  -27.2750   20.1550 O   0  0  0  0  0  0  0  0  0  0  0  0
  -24.7850  -31.7500   23.2920 C   0  0  0  0  0  0  0  0  0  0  0  0
  -28.1080  -27.8590   20.1460 C   0  0  0  0  0  0  0  0  0  0  0  0
  -23.8590  -30.3360   21.4860 C   0  0  0  0  0  3  0  0  0  0  0  0
  -25.5650  -29.0620   20.0920 C   0  0  0  0  0  0  0  0  0  0  0  0
  -26.3300  -30.9820   21.4980 C   0  0  0  0  0  2  0  0  0  0  0  0
  -26.6120  -29.6740   20.7920 C   0  0  0  0  0  0  0  0  0  0  0  0
  -27.8890  -29.0770   20.8280 C   0  0  0  0  0  3  0  0  0  0  0  0
  -27.0470  -27.2590   19.4300 C   0  0  0  0  0  3  0  0  0  0  0  0
  -25.7710  -27.8490   19.4140 C   0  0  0  0  0  3  0  0  0  0  0  0
  -24.2390  -29.7740   20.0900 C   0  0  0  0  0  2  0  0  0  0  0  0
  -25.0030  -31.0320   22.1550 N   0  0  0  0  0  0  0  0  0  0  0  0
  -23.6450  -31.8680   23.7610 O   0  0  0  0  0  0  0  0  0  0  0  0
  -23.2610  -29.1940   22.3360 C   0  0  0  0  0  0  0  0  0  0  0  0
  -21.9630  -28.9150   22.1220 N   0  0  0  0  0  0  0  0  0  0  0  0
  -23.9550  -28.5610   23.1360 O   0  0  0  0  0  0  0  0  0  0  0  0
  -21.4760  -29.4580   21.4240 H   0  0  0  0  0  0  0  0  0  0  0  0
  -18.6750  -27.4440   22.3830 C   0  0  0  0  0  0  0  0  0  0  0  0
  -21.2000  -27.8500   22.7670 C   0  0  0  0  0  3  0  0  0  0  0  0
  -21.4150  -26.4920   22.0530 C   0  0  0  0  0  2  0  0  0  0  0  0
  -20.3650  -26.2060   20.9740 C   0  0  0  0  0  2  0  0  0  0  0  0
  -18.9690  -26.1830   21.5910 C   0  0  0  0  0  2  0  0  0  0  0  0
  -19.7250  -28.2360   22.9220 C   0  0  0  0  0  0  0  0  0  0  0  0
  -19.3980  -29.4160   23.6250 C   0  0  0  0  0  3  0  0  0  0  0  0
  -18.0570  -29.8070   23.7990 C   0  0  0  0  0  3  0  0  0  0  0  0
  -17.0240  -29.0080   23.2800 C   0  0  0  0  0  3  0  0  0  0  0  0
  -17.3350  -27.8340   22.5720 C   0  0  0  0  0  3  0  0  0  0  0  0
  -25.9460  -32.4730   24.0430 C   0  0  0  0  0  3  0  0  0  0  0  0
  -25.5010  -33.8400   24.3450 N   0  0  0  0  0  0  0  0  0  0  0  0
  -25.8310  -34.9210   23.6260 C   0  0  0  0  0  0  0  0  0  0  0  0
  -26.6060  -34.8790   22.6660 O   0  0  0  0  0  0  0  0  0  0  0  0
  -24.8320  -33.9540   25.0940 H   0  0  0  0  0  0  0  0  0  0  0  0
  -24.0200  -36.5820   23.0980 C   0  0  0  0  0  1  0  0  0  0  0  0
  -25.1960  -36.2620   24.0340 C   0  0  0  0  0  3  0  0  0  0  0  0
  -27.1600  -37.2930   25.0920 C   0  0  0  0  0  1  0  0  0  0  0  0
  -26.1540  -37.3900   24.0370 N   0  0  0  0  0  0  0  0  0  0  0  0
  -25.6650  -38.2740   24.1500 H   0  0  0  0  0  0  0  0  0  0  0  0
  -26.3950  -31.7260   25.3570 C   0  0  1  0  0  0  0  0  0  0  0  0
  -25.2220  -31.3750   26.3040 C   0  0  0  0  0  1  0  0  0  0  0  0
  -27.1280  -30.4090   25.0090 C   0  0  0  0  0  1  0  0  0  0  0  0
  -27.4010  -32.6010   26.1450 C   0  0  0  0  0  1  0  0  0  0  0  0
  1  6  1  0
  1 53  1  0
  2  5  1  0
  2  1  1  0
  3  2  2  0
  4  5  1  0
  6  7  1  0
  8  9  2  0
  9  6  1  0
  9 10  1  0
 10 12  1  0
 11 14  1  0
 11 10  2  0
 13  8  1  0
 13 11  1  0
 15 21  1  0
 15 23  1  0
 16 21  1  0
 17 18  1  0
 17 16  1  0
 19 18  1  0
 19 28  1  0
 19 20  1  0
 21 20  1  0
 22 15  2  0
 23 14  1  0
 24 23  1  0
 25 26  2  0
 26 45  1  0
 27 26  1  0
 27 30  1  0
 28 29  1  0
 28 25  1  0
 29 27  2  0
 30 31  1  0
 31 32  2  0
 33 36  1  0
 33 32  1  0
 34 33  2  0
 35 34  1  0
 35 30  2  0
 36 37  1  0
 37 42  2  0
 37 38  1  0
 38 39  2  0
 39 40  1  0
 40 44  1  0
 41 40  2  0
 42 41  1  0
 43 42  1  0
 45 46  1  0
 46 49  1  0
 46 48  1  0
 47 45  2  0
 50 51  1  0
 50 25  1  0
 52 50  1  0
 54 53  1  0
 54 56  1  0
 55 54  2  0
 57 56  1  0
 58 69  2  0
 59 57  1  0
 59 64  1  0
 60 68  1  0
 60 70  1  0
 61 63  1  0
 62 68  1  0
 63 64  2  0
 63 62  1  0
 65 59  2  0
 66 65  1  0
 66 61  2  0
 67 61  1  0
 67 60  1  0
 68 58  1  0
 70 72  2  0
 71 70  1  0
 73 71  1  0
 74 83  2  0
 74 79  1  0
 75 71  1  0
 75 79  1  0
 76 75  1  0
 77 78  1  0
 77 76  1  0
 78 74  1  0
 79 80  2  0
 80 81  1  0
 82 81  2  0
 83 82  1  0
 84 58  1  0
 84 85  1  0
 84 94  1  0
 85 88  1  0
 86 90  1  0
 86 85  1  0
 87 86  2  0
 90 89  1  0
 90 92  1  0
 92 93  1  0
 92 91  1  0
 94 97  1  1
 94 95  1  0
 96 94  1  0
M  ISO  4  15 100  23 100  56 101  57 101
M  END
>  <TORSDO>  (58) 
F 24

>  <SCORE>  (58) 
-9.957

>  <name>  (58) 
58

>  <ligand_id>  (58) 
58

>  <original_smiles>  (58) 
[H]c1sc(C([H])([H])N([H])C(=O)N2C([H])([H])C([H])([H])C([H])([H])C([H])(n3nc(-c4c([H])c([H])c(Oc5c([H])c([H])c(F)c([H])c5F)c([H])c4[H])c(C(=O)N([H])[H])c3N([H])[H])C2([H])[H])c(F)c1N([H])C([H])(C(=O)C([H])([H])C([H])([H])[H])C([H])([H])C(=O)C([H])([H])Oc1c([H])c([H])c2c(c1[H])C([H])([H])N(C(=O)C([H])(N([H])C(=O)C([H])(N([H])C([H])([H])[H])C([H])([H])[H])C(C([H])([H])[H])(C([H])([H])[H])C([H])([H])[H])C([H])(C(=O)N([H])C1([H])c3c([H])c([H])c([H])c([H])c3C([H])([H])C([H])([H])C1([H])[H])C2([H])[H]

>  <smiles>  (58) 
[H]c1sc(C([H])([H])N([H])C(=O)N2C([H])([H])C([H])([H])C([H])([H])C([H])(n3nc(-c4c([H])c([H])c(Oc5c([H])c([H])c(F)c([H])c5F)c([H])c4[H])c(C(=O)N([H])[H])c3N([H])[H])C2([H])[H])c(F)c1N([H])C([H])(C(=O)C([H])([H])C([H])([H])[H])C([H])([H])C(=O)C([H])([H])Oc1c([H])c([H])c2c(c1[H])C([H])([H])N(C(=O)C([H])(N([H])C(=O)C([H])(N([H])C([H])([H])[H])C([H])([H])[H])C(C([H])([H])[H])(C([H])([H])[H])C([H])([H])[H])C([H])(C(=O)N([H])C1([H])c3c([H])c([H])c([H])c([H])c3C([H])([H])C([H])([H])C1([H])[H])C2([H])[H]

$$$$
59:0:0
     RDKit          3D

 92100  0  0  1  0  0  0  0  0999 V2000
  -28.8950  -21.1100   19.5860 C   0  0  0  0  0  3  0  0  0  0  0  0
  -30.9700  -17.9310   20.2210 C   0  0  0  0  0  3  0  0  0  0  0  0
  -29.8490  -17.1410   20.4050 C   0  0  0  0  0  0  0  0  0  0  0  0
  -29.4380  -19.6970   20.0420 C   0  0  0  0  0  0  0  0  0  0  0  0
  -30.7320  -19.3210   20.0320 N   0  0  0  0  0  0  0  0  0  0  0  0
  -28.4400  -18.2420   20.3890 S   0  0  0  0  0  0  0  0  0  0  0  0
  -30.5610  -14.7060   20.2750 C   0  0  0  0  0  0  0  0  0  0  0  0
  -30.3780  -12.4650   19.2050 C   0  0  0  0  0  2  0  0  0  0  0  0
  -29.4060  -12.5780   18.0080 C   0  0  0  0  0  2  0  0  0  0  0  0
  -27.9410  -12.4100   18.4590 C   0  0  0  0  0  2  0  0  0  0  0  0
  -27.6000  -13.2610   19.7110 C   0  0  0  0  0  3  0  0  0  0  0  0
  -28.6780  -13.1000   20.8050 C   0  0  0  0  0  2  0  0  0  0  0  0
  -29.9700  -13.4690   20.2080 N   0  0  0  0  0  0  0  0  0  0  0  0
  -31.7270  -14.8710   19.8990 O   0  0  0  0  0  0  0  0  0  0  0  0
  -29.7290  -15.7600   20.5880 N   0  0  0  0  0  0  0  0  0  0  0  0
  -28.8110  -15.4550   20.8760 H   0  0  0  0  0  0  0  0  0  0  0  0
  -25.2200  -13.8510   20.4770 C   0  0  0  0  0  0  0  0  0  0  0  0
  -24.1610  -13.0750   20.8630 C   0  0  0  0  0  0  0  0  0  0  0  0
  -24.6270  -11.7250   20.8190 C   0  0  0  0  0  0  0  0  0  0  0  0
  -26.2610  -12.9740   20.2180 N   0  0  0  0  0  0  0  0  0  0  0  0
  -25.9120  -11.6900   20.4860 N   0  0  0  0  0  0  0  0  0  0  0  0
  -23.9080  -10.4590   21.0160 C   0  0  0  0  0  0  0  0  0  0  0  0
  -24.3580   -9.4910   21.9410 C   0  0  0  0  0  3  0  0  0  0  0  0
  -23.6410   -8.2910   22.1280 C   0  0  0  0  0  3  0  0  0  0  0  0
  -22.4580   -8.0490   21.3880 C   0  0  0  0  0  0  0  0  0  0  0  0
  -22.0260   -9.0050   20.4520 C   0  0  0  0  0  3  0  0  0  0  0  0
  -22.7450  -10.1980   20.2650 C   0  0  0  0  0  3  0  0  0  0  0  0
  -21.7110   -6.9010   21.4830 O   0  0  0  0  0  0  0  0  0  0  0  0
  -21.6780   -6.1570   22.6350 C   0  0  0  0  0  0  0  0  0  0  0  0
  -21.2550   -6.7070   23.8640 C   0  0  0  0  0  3  0  0  0  0  0  0
  -21.1700   -5.8890   25.0090 C   0  0  0  0  0  3  0  0  0  0  0  0
  -21.4970   -4.5220   24.9250 C   0  0  0  0  0  0  0  0  0  0  0  0
  -21.9150   -3.9720   23.7000 C   0  0  0  0  0  3  0  0  0  0  0  0
  -22.0020   -4.7880   22.5580 C   0  0  0  0  0  0  0  0  0  0  0  0
  -22.3840   -4.2480   21.3760 F   0  0  0  0  0  0  0  0  0  0  0  0
  -21.4080   -3.7340   26.0220 F   0  0  0  0  0  0  0  0  0  0  0  0
  -22.7680  -13.5470   21.1600 C   0  0  0  0  0  0  0  0  0  0  0  0
  -22.0530  -12.8460   22.0340 N   0  0  0  0  0  0  0  0  0  0  0  0
  -22.3190  -14.5740   20.6530 O   0  0  0  0  0  0  0  0  0  0  0  0
  -22.4280  -12.0160   22.4710 H   0  0  0  0  0  0  0  0  0  0  0  0
  -21.1200  -13.1480   22.2740 H   0  0  0  0  0  0  0  0  0  0  0  0
  -25.3770  -15.2230   20.3000 N   0  0  0  0  0  0  0  0  0  0  0  0
  -24.6060  -15.8710   20.4200 H   0  0  0  0  0  0  0  0  0  0  0  0
  -26.2010  -15.6610   19.9090 H   0  0  0  0  0  0  0  0  0  0  0  0
  -29.3110  -20.8040   17.2380 C   0  0  0  0  0  1  0  0  0  0  0  0
  -29.6560  -21.4920   18.4360 O   0  0  0  0  0  0  0  0  0  0  0  0
  -28.9010  -22.4010   20.5400 C   0  0  0  0  0  3  0  0  0  0  0  0
  -28.1680  -22.0970   21.6120 F   0  0  0  0  0  0  0  0  0  0  0  0
  -28.3620  -23.8090   19.9380 C   0  0  0  0  0  2  0  0  0  0  0  0
  -27.5780  -25.1280   22.0660 C   0  0  0  0  0  1  0  0  0  0  0  0
  -28.4570  -25.1640   20.8030 C   0  0  0  0  0  3  0  0  0  0  0  0
  -28.4000  -26.5140   20.1650 O   0  0  0  0  0  0  0  0  0  0  0  0
  -24.6060  -31.8620   23.2310 C   0  0  0  0  0  0  0  0  0  0  0  0
  -27.2520  -27.3200   20.1840 C   0  0  0  0  0  0  0  0  0  0  0  0
  -23.4130  -30.4620   21.5810 C   0  0  0  0  0  3  0  0  0  0  0  0
  -24.8750  -28.9100   20.1670 C   0  0  0  0  0  0  0  0  0  0  0  0
  -25.9500  -30.7920   21.4090 C   0  0  0  0  0  2  0  0  0  0  0  0
  -26.0400  -29.4140   20.7610 C   0  0  0  0  0  0  0  0  0  0  0  0
  -27.2320  -28.6320   20.7510 C   0  0  0  0  0  3  0  0  0  0  0  0
  -26.0670  -26.8560   19.5770 C   0  0  0  0  0  3  0  0  0  0  0  0
  -24.8900  -27.6380   19.5670 C   0  0  0  0  0  3  0  0  0  0  0  0
  -23.6360  -29.7820   20.2050 C   0  0  0  0  0  2  0  0  0  0  0  0
  -24.6740  -31.0570   22.1310 N   0  0  0  0  0  0  0  0  0  0  0  0
  -23.5210  -32.1350   23.7640 O   0  0  0  0  0  0  0  0  0  0  0  0
  -22.7500  -29.4440   22.5390 C   0  0  0  0  0  0  0  0  0  0  0  0
  -21.4220  -29.2720   22.4160 N   0  0  0  0  0  0  0  0  0  0  0  0
  -23.4290  -28.8110   23.3530 O   0  0  0  0  0  0  0  0  0  0  0  0
  -20.9340  -29.8340   21.7320 H   0  0  0  0  0  0  0  0  0  0  0  0
  -18.0410  -28.0980   22.9300 C   0  0  0  0  0  0  0  0  0  0  0  0
  -20.6030  -28.3330   23.1820 C   0  0  0  0  0  3  0  0  0  0  0  0
  -20.6870  -26.9070   22.5900 C   0  0  0  0  0  2  0  0  0  0  0  0
  -19.5750  -26.6060   21.5800 C   0  0  0  0  0  2  0  0  0  0  0  0
  -18.2000  -26.7550   22.2370 C   0  0  0  0  0  2  0  0  0  0  0  0
  -19.1690  -28.8460   23.3590 C   0  0  0  0  0  0  0  0  0  0  0  0
  -18.9650  -30.1030   23.9680 C   0  0  0  0  0  3  0  0  0  0  0  0
  -17.6660  -30.6130   24.1490 C   0  0  0  0  0  3  0  0  0  0  0  0
  -16.5520  -29.8620   23.7360 C   0  0  0  0  0  3  0  0  0  0  0  0
  -16.7400  -28.6050   23.1330 C   0  0  0  0  0  3  0  0  0  0  0  0
  -25.8860  -32.4970   23.8610 C   0  0  0  0  0  3  0  0  0  0  0  0
  -25.5720  -33.8950   24.1850 N   0  0  0  0  0  0  0  0  0  0  0  0
  -25.9010  -34.9480   23.4240 C   0  0  0  0  0  0  0  0  0  0  0  0
  -26.5710  -34.8440   22.3920 O   0  0  0  0  0  0  0  0  0  0  0  0
  -24.9750  -34.0510   24.9840 H   0  0  0  0  0  0  0  0  0  0  0  0
  -24.1700  -36.7390   23.0690 C   0  0  0  0  0  1  0  0  0  0  0  0
  -25.4120  -36.3360   23.8790 C   0  0  0  0  0  3  0  0  0  0  0  0
  -27.5430  -37.2280   24.7120 C   0  0  0  0  0  1  0  0  0  0  0  0
  -26.4410  -37.3910   23.7660 N   0  0  0  0  0  0  0  0  0  0  0  0
  -26.0330  -38.3100   23.9110 H   0  0  0  0  0  0  0  0  0  0  0  0
  -26.3940  -31.7320   25.1440 C   0  0  1  0  0  0  0  0  0  0  0  0
  -25.2960  -31.4970   26.2070 C   0  0  0  0  0  1  0  0  0  0  0  0
  -26.9810  -30.3510   24.7620 C   0  0  0  0  0  1  0  0  0  0  0  0
  -27.5380  -32.5310   25.8120 C   0  0  0  0  0  1  0  0  0  0  0  0
  1 46  1  0
  1  4  1  0
  1 47  1  0
  2  3  2  0
  3 15  1  0
  4  6  1  0
  5  4  2  0
  5  2  1  0
  6  3  1  0
  7 15  1  0
  8 13  1  0
  9 10  1  0
  9  8  1  0
 11 10  1  0
 11 20  1  0
 11 12  1  0
 13  7  1  0
 13 12  1  0
 14  7  2  0
 15 16  1  0
 17 18  2  0
 18 37  1  0
 19 18  1  0
 19 22  1  0
 20 17  1  0
 20 21  1  0
 21 19  2  0
 22 23  1  0
 23 24  2  0
 25 28  1  0
 25 24  1  0
 26 25  2  0
 27 26  1  0
 27 22  2  0
 28 29  1  0
 29 30  1  0
 30 31  2  0
 32 31  1  0
 32 36  1  0
 33 32  2  0
 34 29  2  0
 34 33  1  0
 35 34  1  0
 37 38  1  0
 38 41  1  0
 38 40  1  0
 39 37  2  0
 42 43  1  0
 42 17  1  0
 44 42  1  0
 45 46  1  0
 47 48  1  0
 49 47  1  0
 49 51  1  0
 51 50  1  0
 52 54  1  0
 52 51  1  0
 53 64  2  0
 54 59  1  0
 55 63  1  0
 55 65  1  0
 56 62  1  0
 56 58  1  0
 57 63  1  0
 58 57  1  0
 59 58  2  0
 60 54  2  0
 61 60  1  0
 61 56  2  0
 62 55  1  0
 63 53  1  0
 65 67  2  0
 66 65  1  0
 68 66  1  0
 69 78  2  0
 69 74  1  0
 70 66  1  0
 70 74  1  0
 71 70  1  0
 72 73  1  0
 72 71  1  0
 73 69  1  0
 74 75  2  0
 75 76  1  0
 77 76  2  0
 78 77  1  0
 79 53  1  0
 79 80  1  0
 79 89  1  0
 80 83  1  0
 81 85  1  0
 81 80  1  0
 82 81  2  0
 85 84  1  0
 87 85  1  0
 87 88  1  0
 87 86  1  0
 89 92  1  1
 89 90  1  0
 91 89  1  0
M  ISO  4   7 100  15 100  51 101  52 101
M  END
>  <TORSDO>  (59) 
F 21

>  <SCORE>  (59) 
-13.694

>  <name>  (59) 
59

>  <ligand_id>  (59) 
59

>  <original_smiles>  (59) 
[H]c1nc(C([H])(OC([H])([H])[H])C([H])(F)C([H])([H])C([H])(Oc2c([H])c([H])c3c(c2[H])C([H])([H])N(C(=O)C([H])(N([H])C(=O)C([H])(N([H])C([H])([H])[H])C([H])([H])[H])C(C([H])([H])[H])(C([H])([H])[H])C([H])([H])[H])C([H])(C(=O)N([H])C2([H])c4c([H])c([H])c([H])c([H])c4C([H])([H])C([H])([H])C2([H])[H])C3([H])[H])C([H])([H])[H])sc1N([H])C(=O)N1C([H])([H])C([H])([H])C([H])([H])C([H])(n2nc(-c3c([H])c([H])c(Oc4c([H])c([H])c(F)c([H])c4F)c([H])c3[H])c(C(=O)N([H])[H])c2N([H])[H])C1([H])[H]

>  <smiles>  (59) 
[H]c1nc(C([H])(OC([H])([H])[H])C([H])(F)C([H])([H])C([H])(Oc2c([H])c([H])c3c(c2[H])C([H])([H])N(C(=O)C([H])(N([H])C(=O)C([H])(N([H])C([H])([H])[H])C([H])([H])[H])C(C([H])([H])[H])(C([H])([H])[H])C([H])([H])[H])C([H])(C(=O)N([H])C2([H])c4c([H])c([H])c([H])c([H])c4C([H])([H])C([H])([H])C2([H])[H])C3([H])[H])C([H])([H])[H])sc1N([H])C(=O)N1C([H])([H])C([H])([H])C([H])([H])C([H])(n2nc(-c3c([H])c([H])c(Oc4c([H])c([H])c(F)c([H])c4F)c([H])c3[H])c(C(=O)N([H])[H])c2N([H])[H])C1([H])[H]

$$$$
60:0:0
     RDKit          3D

 95103  0  0  1  0  0  0  0  0999 V2000
  -29.6660  -22.4480   20.5250 C   0  0  0  0  0  0  0  0  0  0  0  0
  -30.2440  -17.5510   18.9070 C   0  0  0  0  0  3  0  0  0  0  0  0
  -29.8800  -17.2600   20.1990 C   0  0  0  0  0  0  0  0  0  0  0  0
  -29.5230  -19.6340   20.1450 C   0  0  0  0  0  0  0  0  0  0  0  0
  -29.4370  -18.4670   20.8720 N   0  0  0  0  0  0  0  0  0  0  0  0
  -29.1830  -20.9840   20.5760 N   0  0  0  0  0  4  0  0  0  0  0  0
  -30.0430  -19.2490   18.4980 S   0  0  0  0  0  0  0  0  0  0  0  0
  -28.6510  -20.8800   21.4340 H   0  0  0  0  0  0  0  0  0  0  0  0
  -30.5800  -14.7550   20.3100 C   0  0  0  0  0  0  0  0  0  0  0  0
  -30.3580  -12.4780   19.3020 C   0  0  0  0  0  2  0  0  0  0  0  0
  -29.4240  -12.6200   18.0800 C   0  0  0  0  0  2  0  0  0  0  0  0
  -27.9490  -12.4620   18.5060 C   0  0  0  0  0  2  0  0  0  0  0  0
  -27.6000  -13.2970   19.7700 C   0  0  0  0  0  3  0  0  0  0  0  0
  -28.6720  -13.1640   20.8750 C   0  0  0  0  0  2  0  0  0  0  0  0
  -29.9660  -13.5180   20.2840 N   0  0  0  0  0  0  0  0  0  0  0  0
  -31.7300  -14.8700   19.8750 O   0  0  0  0  0  0  0  0  0  0  0  0
  -29.8470  -15.8660   20.7060 N   0  0  0  0  0  0  0  0  0  0  0  0
  -29.0610  -15.6500   21.2990 H   0  0  0  0  0  0  0  0  0  0  0  0
  -25.2150  -13.8650   20.5210 C   0  0  0  0  0  0  0  0  0  0  0  0
  -24.1570  -13.0810   20.8960 C   0  0  0  0  0  0  0  0  0  0  0  0
  -24.6260  -11.7330   20.8490 C   0  0  0  0  0  0  0  0  0  0  0  0
  -26.2610  -12.9940   20.2670 N   0  0  0  0  0  0  0  0  0  0  0  0
  -25.9140  -11.7060   20.5230 N   0  0  0  0  0  0  0  0  0  0  0  0
  -23.9040  -10.4660   21.0370 C   0  0  0  0  0  0  0  0  0  0  0  0
  -24.3350   -9.5030   21.9740 C   0  0  0  0  0  3  0  0  0  0  0  0
  -23.6130   -8.3030   22.1530 C   0  0  0  0  0  3  0  0  0  0  0  0
  -22.4440   -8.0570   21.3920 C   0  0  0  0  0  0  0  0  0  0  0  0
  -22.0320   -9.0100   20.4440 C   0  0  0  0  0  3  0  0  0  0  0  0
  -22.7550  -10.2010   20.2630 C   0  0  0  0  0  3  0  0  0  0  0  0
  -21.6930   -6.9110   21.4780 O   0  0  0  0  0  0  0  0  0  0  0  0
  -21.6250   -6.1810   22.6370 C   0  0  0  0  0  0  0  0  0  0  0  0
  -21.1410   -6.7370   23.8420 C   0  0  0  0  0  3  0  0  0  0  0  0
  -21.0220   -5.9320   24.9910 C   0  0  0  0  0  3  0  0  0  0  0  0
  -21.3770   -4.5710   24.9390 C   0  0  0  0  0  0  0  0  0  0  0  0
  -21.8560   -4.0130   23.7400 C   0  0  0  0  0  3  0  0  0  0  0  0
  -21.9760   -4.8160   22.5920 C   0  0  0  0  0  0  0  0  0  0  0  0
  -22.4170   -4.2690   21.4340 F   0  0  0  0  0  0  0  0  0  0  0  0
  -21.2550   -3.7950   26.0420 F   0  0  0  0  0  0  0  0  0  0  0  0
  -22.7630  -13.5510   21.1900 C   0  0  0  0  0  0  0  0  0  0  0  0
  -22.0440  -12.8420   22.0530 N   0  0  0  0  0  0  0  0  0  0  0  0
  -22.3180  -14.5830   20.6880 O   0  0  0  0  0  0  0  0  0  0  0  0
  -22.4160  -12.0040   22.4760 H   0  0  0  0  0  0  0  0  0  0  0  0
  -21.1090  -13.1410   22.2930 H   0  0  0  0  0  0  0  0  0  0  0  0
  -25.3670  -15.2390   20.3580 N   0  0  0  0  0  0  0  0  0  0  0  0
  -24.5880  -15.8780   20.4710 H   0  0  0  0  0  0  0  0  0  0  0  0
  -26.2050  -15.6920   20.0160 H   0  0  0  0  0  0  0  0  0  0  0  0
  -32.1170  -21.6250   20.4610 C   0  0  0  0  0  1  0  0  0  0  0  0
  -31.7510  -24.0140   20.2480 C   0  0  0  0  0  1  0  0  0  0  0  0
  -31.0990  -22.5750   18.3370 C   0  0  0  0  0  1  0  0  0  0  0  0
  -31.1120  -22.6500   19.8800 C   0  0  2  0  0  0  0  0  0  0  0  0
  -28.5270  -23.6550   20.3480 C   0  0  0  0  0  3  0  0  0  0  0  0
  -28.1360  -22.8740   19.2340 O   0  0  0  0  0  0  0  0  0  0  0  0
  -28.4720  -21.9990   19.4700 H   0  0  0  0  0  0  0  0  0  0  0  0
  -28.4480  -25.0970   19.5470 C   0  0  0  0  0  2  0  0  0  0  0  0
  -28.3330  -26.4450   20.2020 O   0  0  0  0  0  0  0  0  0  0  0  0
  -24.5870  -31.8840   23.1870 C   0  0  0  0  0  0  0  0  0  0  0  0
  -27.2000  -27.2900   20.1250 C   0  0  0  0  0  0  0  0  0  0  0  0
  -23.3850  -30.4820   21.5500 C   0  0  0  0  0  3  0  0  0  0  0  0
  -24.8350  -28.9300   20.1210 C   0  0  0  0  0  0  0  0  0  0  0  0
  -25.9260  -30.7940   21.3650 C   0  0  0  0  0  2  0  0  0  0  0  0
  -26.0050  -29.4130   20.7140 C   0  0  0  0  0  0  0  0  0  0  0  0
  -27.1860  -28.6040   20.7070 C   0  0  0  0  0  3  0  0  0  0  0  0
  -25.9920  -26.8650   19.5220 C   0  0  0  0  0  3  0  0  0  0  0  0
  -24.8320  -27.6630   19.5170 C   0  0  0  0  0  3  0  0  0  0  0  0
  -23.5980  -29.8040   20.1700 C   0  0  0  0  0  2  0  0  0  0  0  0
  -24.6520  -31.0730   22.0900 N   0  0  0  0  0  0  0  0  0  0  0  0
  -23.5030  -32.1620   23.7210 O   0  0  0  0  0  0  0  0  0  0  0  0
  -22.7230  -29.4670   22.5140 C   0  0  0  0  0  0  0  0  0  0  0  0
  -21.3950  -29.2910   22.3930 N   0  0  0  0  0  0  0  0  0  0  0  0
  -23.4040  -28.8400   23.3280 O   0  0  0  0  0  0  0  0  0  0  0  0
  -20.9030  -29.8490   21.7090 H   0  0  0  0  0  0  0  0  0  0  0  0
  -18.0190  -28.1010   22.9210 C   0  0  0  0  0  0  0  0  0  0  0  0
  -20.5800  -28.3520   23.1680 C   0  0  0  0  0  3  0  0  0  0  0  0
  -20.6710  -26.9220   22.5840 C   0  0  0  0  0  2  0  0  0  0  0  0
  -19.5600  -26.6090   21.5780 C   0  0  0  0  0  2  0  0  0  0  0  0
  -18.1840  -26.7550   22.2350 C   0  0  0  0  0  2  0  0  0  0  0  0
  -19.1430  -28.8590   23.3440 C   0  0  0  0  0  0  0  0  0  0  0  0
  -18.9320  -30.1180   23.9430 C   0  0  0  0  0  3  0  0  0  0  0  0
  -17.6310  -30.6230   24.1210 C   0  0  0  0  0  3  0  0  0  0  0  0
  -16.5200  -29.8630   23.7130 C   0  0  0  0  0  3  0  0  0  0  0  0
  -16.7150  -28.6030   23.1200 C   0  0  0  0  0  3  0  0  0  0  0  0
  -25.8680  -32.5210   23.8070 C   0  0  0  0  0  3  0  0  0  0  0  0
  -25.5530  -33.9170   24.1490 N   0  0  0  0  0  0  0  0  0  0  0  0
  -25.8820  -34.9770   23.3980 C   0  0  0  0  0  0  0  0  0  0  0  0
  -26.5500  -34.8830   22.3650 O   0  0  0  0  0  0  0  0  0  0  0  0
  -24.9630  -34.0660   24.9540 H   0  0  0  0  0  0  0  0  0  0  0  0
  -24.1620  -36.7780   23.0460 C   0  0  0  0  0  1  0  0  0  0  0  0
  -25.3910  -36.3600   23.8680 C   0  0  0  0  0  3  0  0  0  0  0  0
  -27.5130  -37.2350   24.7400 C   0  0  0  0  0  1  0  0  0  0  0  0
  -26.4260  -37.4130   23.7820 N   0  0  0  0  0  0  0  0  0  0  0  0
  -26.0180  -38.3320   23.9320 H   0  0  0  0  0  0  0  0  0  0  0  0
  -26.3930  -31.7480   25.0800 C   0  0  1  0  0  0  0  0  0  0  0  0
  -25.3040  -31.4980   26.1500 C   0  0  0  0  0  1  0  0  0  0  0  0
  -26.9850  -30.3750   24.6810 C   0  0  0  0  0  1  0  0  0  0  0  0
  -27.5370  -32.5480   25.7450 C   0  0  0  0  0  1  0  0  0  0  0  0
  1  6  2  0
  2  3  2  0
  3 17  1  0
  3  5  1  0
  4  6  1  0
  4  5  2  0
  6  8  1  0
  7  2  1  0
  7  4  1  0
  9 17  1  0
 10 15  1  0
 11 12  1  0
 11 10  1  0
 13 12  1  0
 13 22  1  0
 13 14  1  0
 15  9  1  0
 15 14  1  0
 16  9  2  0
 17 18  1  0
 19 20  2  0
 20 39  1  0
 21 20  1  0
 21 24  1  0
 22 19  1  0
 22 23  1  0
 23 21  2  0
 24 25  1  0
 25 26  2  0
 27 30  1  0
 27 26  1  0
 28 27  2  0
 29 28  1  0
 29 24  2  0
 30 31  1  0
 31 32  1  0
 32 33  2  0
 34 33  1  0
 34 38  1  0
 35 34  2  0
 36 31  2  0
 36 35  1  0
 37 36  1  0
 39 40  1  0
 40 43  1  0
 40 42  1  0
 41 39  2  0
 44 45  1  0
 44 19  1  0
 46 44  1  0
 50 49  1  6
 50 48  1  0
 50 47  1  0
 50  1  1  0
 51 54  1  0
 51  1  1  0
 52 53  1  0
 52 51  1  0
 54 55  1  0
 56 67  2  0
 57 55  1  0
 57 62  1  0
 58 66  1  0
 58 68  1  0
 59 65  1  0
 59 61  1  0
 60 66  1  0
 61 60  1  0
 62 61  2  0
 63 57  2  0
 64 63  1  0
 64 59  2  0
 65 58  1  0
 66 56  1  0
 68 70  2  0
 69 68  1  0
 71 69  1  0
 72 81  2  0
 72 77  1  0
 73 69  1  0
 73 77  1  0
 74 73  1  0
 75 76  1  0
 75 74  1  0
 76 72  1  0
 77 78  2  0
 78 79  1  0
 80 79  2  0
 81 80  1  0
 82 56  1  0
 82 83  1  0
 82 92  1  0
 83 86  1  0
 84 88  1  0
 84 83  1  0
 85 84  2  0
 88 87  1  0
 90 88  1  0
 90 91  1  0
 90 89  1  0
 92 95  1  1
 92 93  1  0
 94 92  1  0
M  ISO  4   9 100  17 100  54 101  55 101
M  END
>  <TORSDO>  (60) 
F 21

>  <SCORE>  (60) 
-13.783

>  <name>  (60) 
60

>  <ligand_id>  (60) 
60

>  <original_smiles>  (60) 
[H]OC([H])(C([H])([H])Oc1c([H])c([H])c2c(c1[H])C([H])([H])N(C(=O)C([H])(N([H])C(=O)C([H])(N([H])C([H])([H])[H])C([H])([H])[H])C(C([H])([H])[H])(C([H])([H])[H])C([H])([H])[H])C([H])(C(=O)N([H])C1([H])c3c([H])c([H])c([H])c([H])c3C([H])([H])C([H])([H])C1([H])[H])C2([H])[H])C([H])(N([H])c1nc(N([H])C(=O)N2C([H])([H])C([H])([H])C([H])([H])C([H])(n3nc(-c4c([H])c([H])c(Oc5c([H])c([H])c(F)c([H])c5F)c([H])c4[H])c(C(=O)N([H])[H])c3N([H])[H])C2([H])[H])c([H])s1)C(C([H])([H])[H])(C([H])([H])[H])C([H])([H])[H]

>  <smiles>  (60) 
[H]OC([H])(C([H])([H])Oc1c([H])c([H])c2c(c1[H])C([H])([H])N(C(=O)C([H])(N([H])C(=O)C([H])(N([H])C([H])([H])[H])C([H])([H])[H])C(C([H])([H])[H])(C([H])([H])[H])C([H])([H])[H])C([H])(C(=O)N([H])C1([H])c3c([H])c([H])c([H])c([H])c3C([H])([H])C([H])([H])C1([H])[H])C2([H])[H])C([H])(N([H])c1nc(N([H])C(=O)N2C([H])([H])C([H])([H])C([H])([H])C([H])(n3nc(-c4c([H])c([H])c(Oc5c([H])c([H])c(F)c([H])c5F)c([H])c4[H])c(C(=O)N([H])[H])c3N([H])[H])C2([H])[H])c([H])s1)C(C([H])([H])[H])(C([H])([H])[H])C([H])([H])[H]

$$$$
61:0:0
     RDKit          3D

 92100  0  0  1  0  0  0  0  0999 V2000
  -28.7430  -22.3270   19.8930 C   0  0  0  0  0  2  0  0  0  0  0  0
  -29.3060  -21.0770   20.7640 C   0  0  0  0  0  3  0  0  0  0  0  0
  -28.6320  -21.0670   21.9160 F   0  0  0  0  0  0  0  0  0  0  0  0
  -29.3540  -19.5160   20.2580 C   0  0  0  0  0  2  0  0  0  0  0  0
  -31.4630  -17.9480   22.8760 C   0  0  0  0  0  3  0  0  0  0  0  0
  -31.1450  -16.7540   22.1960 C   0  0  0  0  0  3  0  0  0  0  0  0
  -30.8260  -18.9670   22.2360 C   0  0  0  0  0  3  0  0  0  0  0  0
  -30.3170  -17.0600   21.1460 C   0  0  0  0  0  0  0  0  0  0  0  0
  -30.0980  -18.5030   21.1360 N   0  0  0  0  0  0  0  0  0  0  0  0
  -30.4920  -14.8300   20.0510 C   0  0  0  0  0  0  0  0  0  0  0  0
  -30.1940  -12.6090   18.9350 C   0  0  0  0  0  2  0  0  0  0  0  0
  -29.1810  -12.7070   17.7780 C   0  0  0  0  0  2  0  0  0  0  0  0
  -27.7480  -12.4960   18.3020 C   0  0  0  0  0  2  0  0  0  0  0  0
  -27.4410  -13.3450   19.5640 C   0  0  0  0  0  3  0  0  0  0  0  0
  -28.5730  -13.2550   20.6120 C   0  0  0  0  0  2  0  0  0  0  0  0
  -29.8170  -13.6360   19.9340 N   0  0  0  0  0  0  0  0  0  0  0  0
  -31.6550  -14.9060   19.6460 O   0  0  0  0  0  0  0  0  0  0  0  0
  -29.8080  -15.9930   20.3950 N   0  0  0  0  0  0  0  0  0  0  0  0
  -28.8030  -15.9360   20.3540 H   0  0  0  0  0  0  0  0  0  0  0  0
  -25.0970  -13.8740   20.4600 C   0  0  0  0  0  0  0  0  0  0  0  0
  -24.0690  -13.0710   20.8700 C   0  0  0  0  0  0  0  0  0  0  0  0
  -24.5500  -11.7290   20.7730 C   0  0  0  0  0  0  0  0  0  0  0  0
  -26.1380  -13.0190   20.1340 N   0  0  0  0  0  0  0  0  0  0  0  0
  -25.8200  -11.7230   20.3840 N   0  0  0  0  0  0  0  0  0  0  0  0
  -23.8550  -10.4490   20.9680 C   0  0  0  0  0  0  0  0  0  0  0  0
  -24.3180   -9.4920   21.8960 C   0  0  0  0  0  3  0  0  0  0  0  0
  -23.6220   -8.2780   22.0810 C   0  0  0  0  0  3  0  0  0  0  0  0
  -22.4470   -8.0140   21.3360 C   0  0  0  0  0  0  0  0  0  0  0  0
  -22.0030   -8.9610   20.3970 C   0  0  0  0  0  3  0  0  0  0  0  0
  -22.7010  -10.1660   20.2110 C   0  0  0  0  0  3  0  0  0  0  0  0
  -21.7190   -6.8520   21.4310 O   0  0  0  0  0  0  0  0  0  0  0  0
  -21.6640   -6.1300   22.5960 C   0  0  0  0  0  0  0  0  0  0  0  0
  -21.1740   -6.6890   23.7970 C   0  0  0  0  0  3  0  0  0  0  0  0
  -21.0700   -5.8920   24.9540 C   0  0  0  0  0  3  0  0  0  0  0  0
  -21.4450   -4.5350   24.9110 C   0  0  0  0  0  0  0  0  0  0  0  0
  -21.9280   -3.9760   23.7150 C   0  0  0  0  0  3  0  0  0  0  0  0
  -22.0340   -4.7710   22.5590 C   0  0  0  0  0  0  0  0  0  0  0  0
  -22.4800   -4.2210   21.4040 F   0  0  0  0  0  0  0  0  0  0  0  0
  -21.3390   -3.7660   26.0190 F   0  0  0  0  0  0  0  0  0  0  0  0
  -22.6830  -13.5170   21.2370 C   0  0  0  0  0  0  0  0  0  0  0  0
  -22.0210  -12.7870   22.1270 N   0  0  0  0  0  0  0  0  0  0  0  0
  -22.1990  -14.5470   20.7700 O   0  0  0  0  0  0  0  0  0  0  0  0
  -22.4270  -11.9520   22.5240 H   0  0  0  0  0  0  0  0  0  0  0  0
  -21.0950  -13.0670   22.4190 H   0  0  0  0  0  0  0  0  0  0  0  0
  -25.2290  -15.2510   20.3100 N   0  0  0  0  0  0  0  0  0  0  0  0
  -24.4580  -15.8880   20.4830 H   0  0  0  0  0  0  0  0  0  0  0  0
  -26.0420  -15.7130   19.9260 H   0  0  0  0  0  0  0  0  0  0  0  0
  -28.5630  -23.8100   20.5570 C   0  0  0  0  0  3  0  0  0  0  0  0
  -27.3960  -23.7450   21.3620 O   0  0  0  0  0  0  0  0  0  0  0  0
  -26.6500  -23.6180   20.7830 H   0  0  0  0  0  0  0  0  0  0  0  0
  -28.3580  -25.1180   19.6210 C   0  0  0  0  0  2  0  0  0  0  0  0
  -28.3110  -26.5190   20.1760 O   0  0  0  0  0  0  0  0  0  0  0  0
  -24.5560  -31.9520   23.1890 C   0  0  0  0  0  0  0  0  0  0  0  0
  -27.1770  -27.3650   20.1170 C   0  0  0  0  0  0  0  0  0  0  0  0
  -23.3560  -30.5450   21.5560 C   0  0  0  0  0  3  0  0  0  0  0  0
  -24.8070  -29.0020   20.1210 C   0  0  0  0  0  0  0  0  0  0  0  0
  -25.8970  -30.8660   21.3650 C   0  0  0  0  0  2  0  0  0  0  0  0
  -25.9790  -29.4850   20.7150 C   0  0  0  0  0  0  0  0  0  0  0  0
  -27.1630  -28.6780   20.7030 C   0  0  0  0  0  3  0  0  0  0  0  0
  -25.9720  -26.9470   19.5050 C   0  0  0  0  0  3  0  0  0  0  0  0
  -24.8090  -27.7410   19.5070 C   0  0  0  0  0  3  0  0  0  0  0  0
  -23.5690  -29.8740   20.1740 C   0  0  0  0  0  2  0  0  0  0  0  0
  -24.6230  -31.1400   22.0920 N   0  0  0  0  0  0  0  0  0  0  0  0
  -23.4720  -32.2230   23.7250 O   0  0  0  0  0  0  0  0  0  0  0  0
  -22.7010  -29.5250   22.5180 C   0  0  0  0  0  0  0  0  0  0  0  0
  -21.3770  -29.3330   22.3910 N   0  0  0  0  0  0  0  0  0  0  0  0
  -23.3840  -28.9100   23.3410 O   0  0  0  0  0  0  0  0  0  0  0  0
  -20.8830  -29.8810   21.7010 H   0  0  0  0  0  0  0  0  0  0  0  0
  -18.0120  -28.1050   22.9010 C   0  0  0  0  0  0  0  0  0  0  0  0
  -20.5680  -28.3890   23.1660 C   0  0  0  0  0  3  0  0  0  0  0  0
  -20.6830  -26.9570   22.5930 C   0  0  0  0  0  2  0  0  0  0  0  0
  -19.5820  -26.6230   21.5820 C   0  0  0  0  0  2  0  0  0  0  0  0
  -18.2000  -26.7570   22.2280 C   0  0  0  0  0  2  0  0  0  0  0  0
  -19.1240  -28.8780   23.3270 C   0  0  0  0  0  0  0  0  0  0  0  0
  -18.8940  -30.1400   23.9180 C   0  0  0  0  0  3  0  0  0  0  0  0
  -17.5850  -30.6290   24.0860 C   0  0  0  0  0  3  0  0  0  0  0  0
  -16.4870  -29.8530   23.6760 C   0  0  0  0  0  3  0  0  0  0  0  0
  -16.7010  -28.5940   23.0890 C   0  0  0  0  0  3  0  0  0  0  0  0
  -25.8350  -32.5960   23.8050 C   0  0  0  0  0  3  0  0  0  0  0  0
  -25.5110  -33.9900   24.1450 N   0  0  0  0  0  0  0  0  0  0  0  0
  -25.8280  -35.0510   23.3920 C   0  0  0  0  0  0  0  0  0  0  0  0
  -26.4930  -34.9620   22.3560 O   0  0  0  0  0  0  0  0  0  0  0  0
  -24.9200  -34.1320   24.9510 H   0  0  0  0  0  0  0  0  0  0  0  0
  -24.0870  -36.8350   23.0550 C   0  0  0  0  0  1  0  0  0  0  0  0
  -25.3320  -36.4320   23.8630 C   0  0  0  0  0  3  0  0  0  0  0  0
  -27.4570  -37.3300   24.7050 C   0  0  0  0  0  1  0  0  0  0  0  0
  -26.3570  -37.4940   23.7580 N   0  0  0  0  0  0  0  0  0  0  0  0
  -25.9430  -38.4100   23.9080 H   0  0  0  0  0  0  0  0  0  0  0  0
  -26.3670  -31.8250   25.0750 C   0  0  1  0  0  0  0  0  0  0  0  0
  -25.2810  -31.5680   26.1470 C   0  0  0  0  0  1  0  0  0  0  0  0
  -26.9650  -30.4570   24.6760 C   0  0  0  0  0  1  0  0  0  0  0  0
  -27.5100  -32.6300   25.7370 C   0  0  0  0  0  1  0  0  0  0  0  0
  1 48  1  0
  1  2  1  0
  2  3  1  0
  4  2  1  0
  4  9  1  0
  6  5  1  0
  7  5  2  0
  8  6  2  0
  9  8  1  0
  9  7  1  0
 10 18  1  0
 11 16  1  0
 12 13  1  0
 12 11  1  0
 14 13  1  0
 14 23  1  0
 14 15  1  0
 16 10  1  0
 16 15  1  0
 17 10  2  0
 18  8  1  0
 19 18  1  0
 20 21  2  0
 21 40  1  0
 22 21  1  0
 22 25  1  0
 23 24  1  0
 23 20  1  0
 24 22  2  0
 25 26  1  0
 26 27  2  0
 28 31  1  0
 28 27  1  0
 29 28  2  0
 30 29  1  0
 30 25  2  0
 31 32  1  0
 32 33  1  0
 33 34  2  0
 35 34  1  0
 35 39  1  0
 36 35  2  0
 37 32  2  0
 37 36  1  0
 38 37  1  0
 40 41  1  0
 41 44  1  0
 41 43  1  0
 42 40  2  0
 45 20  1  0
 45 46  1  0
 47 45  1  0
 48 51  1  0
 48 49  1  0
 50 49  1  0
 51 52  1  0
 53 64  2  0
 54 52  1  0
 54 59  1  0
 55 63  1  0
 55 65  1  0
 56 62  1  0
 56 58  1  0
 57 63  1  0
 58 57  1  0
 59 58  2  0
 60 61  1  0
 60 54  2  0
 61 56  2  0
 62 55  1  0
 63 53  1  0
 65 67  2  0
 66 65  1  0
 68 66  1  0
 69 78  2  0
 69 74  1  0
 70 66  1  0
 70 74  1  0
 71 70  1  0
 72 73  1  0
 72 71  1  0
 73 69  1  0
 74 75  2  0
 75 76  1  0
 77 76  2  0
 78 77  1  0
 79 53  1  0
 79 80  1  0
 79 89  1  0
 80 83  1  0
 81 85  1  0
 81 80  1  0
 82 81  2  0
 85 84  1  0
 87 85  1  0
 87 88  1  0
 87 86  1  0
 89 92  1  1
 89 90  1  0
 91 89  1  0
M  ISO  4  10 100  18 100  51 101  52 101
M  END
>  <TORSDO>  (61) 
F 22

>  <SCORE>  (61) 
-12.630

>  <name>  (61) 
61

>  <ligand_id>  (61) 
61

>  <original_smiles>  (61) 
[H]OC([H])(C([H])([H])Oc1c([H])c([H])c2c(c1[H])C([H])([H])N(C(=O)C([H])(N([H])C(=O)C([H])(N([H])C([H])([H])[H])C([H])([H])[H])C(C([H])([H])[H])(C([H])([H])[H])C([H])([H])[H])C([H])(C(=O)N([H])C1([H])c3c([H])c([H])c([H])c([H])c3C([H])([H])C([H])([H])C1([H])[H])C2([H])[H])C([H])([H])C([H])(F)C([H])([H])n1c([H])c([H])c([H])c1N([H])C(=O)N1C([H])([H])C([H])([H])C([H])([H])C([H])(n2nc(-c3c([H])c([H])c(Oc4c([H])c([H])c(F)c([H])c4F)c([H])c3[H])c(C(=O)N([H])[H])c2N([H])[H])C1([H])[H]

>  <smiles>  (61) 
[H]OC([H])(C([H])([H])Oc1c([H])c([H])c2c(c1[H])C([H])([H])N(C(=O)C([H])(N([H])C(=O)C([H])(N([H])C([H])([H])[H])C([H])([H])[H])C(C([H])([H])[H])(C([H])([H])[H])C([H])([H])[H])C([H])(C(=O)N([H])C1([H])c3c([H])c([H])c([H])c([H])c3C([H])([H])C([H])([H])C1([H])[H])C2([H])[H])C([H])([H])C([H])(F)C([H])([H])n1c([H])c([H])c([H])c1N([H])C(=O)N1C([H])([H])C([H])([H])C([H])([H])C([H])(n2nc(-c3c([H])c([H])c(Oc4c([H])c([H])c(F)c([H])c4F)c([H])c3[H])c(C(=O)N([H])[H])c2N([H])[H])C1([H])[H]

$$$$
62:0:0
     RDKit          3D

 97100  0  0  1  0  0  0  0  0999 V2000
  -29.9340  -16.8870   18.3990 C   0  0  0  0  0  0  0  0  0  0  0  0
  -30.2300  -17.9970   19.0900 N   0  0  0  0  0  0  0  0  0  0  0  0
  -30.6580  -16.5520   17.4550 O   0  0  0  0  0  0  0  0  0  0  0  0
  -29.5570  -18.2610   19.7970 H   0  0  0  0  0  0  0  0  0  0  0  0
  -27.7770  -16.5650   17.4700 C   0  0  0  0  0  1  0  0  0  0  0  0
  -28.6390  -13.0370   19.4590 C   0  0  0  0  0  2  0  0  0  0  0  0
  -28.5730  -16.0850   18.7980 C   0  0  0  0  0  2  0  0  0  0  0  0
  -27.8930  -18.2180   19.4730 C   0  0  0  0  0 15  0  0  0  0  0  0
  -28.0050  -20.5390   19.3400 C   0  0  0  0  0  1  0  0  0  0  0  0
  -28.0110  -20.6120   18.0100 F   0  0  0  0  0  0  0  0  0  0  0  0
  -27.3620  -22.7360   19.7660 C   0  0  0  0  0 15  0  0  0  0  0  0
  -27.5820  -24.8040   19.8610 O   0  0  0  0  0  1  0  0  0  0  0  0
  -24.6530  -31.9780   23.1130 C   0  0  0  0  0  0  0  0  0  0  0  0
  -26.8050  -26.3410   19.9770 C   0  0  0  0  0  0  0  0  0  0  0  0
  -23.3990  -30.5950   21.5370 C   0  0  0  0  0  3  0  0  0  0  0  0
  -24.7310  -28.8270   20.0690 C   0  0  0  0  0  0  0  0  0  0  0  0
  -25.9920  -30.5010   21.3700 C   0  0  0  0  0  2  0  0  0  0  0  0
  -25.9720  -29.0130   20.6840 C   0  0  0  0  0  0  0  0  0  0  0  0
  -26.9740  -27.8180   20.5930 C   0  0  0  0  0  3  0  0  0  0  0  0
  -25.5500  -26.5310   19.3160 C   0  0  0  0  0  3  0  0  0  0  0  0
  -24.5970  -27.6210   19.3560 C   0  0  0  0  0  3  0  0  0  0  0  0
  -23.5880  -29.8800   20.1630 C   0  0  0  0  0  2  0  0  0  0  0  0
  -24.7200  -31.0720   22.0560 N   0  0  0  0  0  0  0  0  0  0  0  0
  -23.5720  -32.3130   23.6370 O   0  0  0  0  0  0  0  0  0  0  0  0
  -22.6700  -29.6600   22.5430 C   0  0  0  0  0  0  0  0  0  0  0  0
  -21.3340  -29.5050   22.4430 N   0  0  0  0  0  0  0  0  0  0  0  0
  -23.3290  -29.0660   23.4000 O   0  0  0  0  0  0  0  0  0  0  0  0
  -20.8410  -30.0340   21.7350 H   0  0  0  0  0  0  0  0  0  0  0  0
  -17.9770  -28.2020   23.0020 C   0  0  0  0  0  0  0  0  0  0  0  0
  -20.5280  -28.5720   23.2470 C   0  0  0  0  0  3  0  0  0  0  0  0
  -20.6760  -27.1240   22.7240 C   0  0  0  0  0  2  0  0  0  0  0  0
  -19.5880  -26.7330   21.7200 C   0  0  0  0  0  2  0  0  0  0  0  0
  -18.2020  -26.8440   22.3590 C   0  0  0  0  0  2  0  0  0  0  0  0
  -19.0680  -29.0210   23.4040 C   0  0  0  0  0  0  0  0  0  0  0  0
  -18.7980  -30.2840   23.9740 C   0  0  0  0  0  3  0  0  0  0  0  0
  -17.4730  -30.7310   24.1430 C   0  0  0  0  0  3  0  0  0  0  0  0
  -16.3990  -29.9130   23.7520 C   0  0  0  0  0  3  0  0  0  0  0  0
  -16.6520  -28.6500   23.1870 C   0  0  0  0  0  3  0  0  0  0  0  0
  -25.9200  -32.6500   23.7280 C   0  0  0  0  0  3  0  0  0  0  0  0
  -25.5930  -34.0530   24.0860 N   0  0  0  0  0  0  0  0  0  0  0  0
  -25.9320  -35.1440   23.3830 C   0  0  0  0  0  0  0  0  0  0  0  0
  -26.5950  -35.0780   22.3460 O   0  0  0  0  0  0  0  0  0  0  0  0
  -25.0000  -34.1770   24.8930 H   0  0  0  0  0  0  0  0  0  0  0  0
  -24.2210  -36.9860   23.1380 C   0  0  0  0  0  1  0  0  0  0  0  0
  -25.4720  -36.5270   23.9050 C   0  0  0  0  0  3  0  0  0  0  0  0
  -27.6310  -37.3720   24.7260 C   0  0  0  0  0  1  0  0  0  0  0  0
  -26.5130  -37.5760   23.8090 N   0  0  0  0  0  0  0  0  0  0  0  0
  -26.1180  -38.4950   23.9910 H   0  0  0  0  0  0  0  0  0  0  0  0
  -26.4450  -31.9020   25.0180 C   0  0  1  0  0  0  0  0  0  0  0  0
  -25.3640  -31.6910   26.1060 C   0  0  0  0  0  1  0  0  0  0  0  0
  -27.0120  -30.5110   24.6640 C   0  0  0  0  0  1  0  0  0  0  0  0
  -27.6120  -32.6970   25.6480 C   0  0  0  0  0  1  0  0  0  0  0  0
  -31.4670  -20.0050   18.3160 C   0  0  0  0  0  1  0  0  0  0  0  0
  -31.4700  -18.7610   19.2150 C   0  0  0  0  0  3  0  0  0  0  0  0
  -30.7090  -16.1810   21.9180 C   0  0  0  0  0  0  0  0  0  0  0  0
  -30.9240  -14.4490   20.1340 C   0  0  0  0  0  2  0  0  0  0  0  0
  -30.1330  -13.4370   18.8360 C   0  0  0  0  0  2  0  0  0  0  0  0
  -28.3030  -13.1870   18.7810 C   0  0  0  0  0  2  0  0  0  0  0  0
  -27.2540  -14.2120   19.9500 C   0  0  0  0  0  2  0  0  0  0  0  0
  -28.1340  -15.3750   21.2830 C   0  0  0  0  0  1  0  0  0  0  0  0
  -29.9200  -15.4450   21.1990 N   0  0  0  0  0  0  0  0  0  0  0  0
  -31.9150  -16.0950   21.7240 O   0  0  0  0  0  0  0  0  0  0  0  0
  -32.6710  -19.3000   21.4600 C   0  0  0  0  0  2  0  0  0  0  0  0
  -31.5630  -19.1210   20.6750 C   0  0  0  0  0  3  0  0  0  0  0  0
  -30.6830  -18.4430   22.5700 C   0  0  0  0  0  3  0  0  0  0  0  0
  -30.3880  -19.0780   21.4430 N   0  0  0  0  0  2  0  0  0  0  0  0
  -30.1510  -17.1360   22.6780 N   0  0  0  0  0  0  0  0  0  0  0  0
  -32.3010  -18.8850   23.1230 S   0  0  0  0  0  0  0  0  0  0  0  0
  -29.1480  -17.0770   22.7620 H   0  0  0  0  0  0  0  0  0  0  0  0
  -25.0460  -14.0370   20.8300 C   0  0  0  0  0  0  0  0  0  0  0  0
  -24.1170  -13.1050   21.0740 C   0  0  0  0  0  0  0  0  0  0  0  0
  -24.7230  -11.8180   20.9490 C   0  0  0  0  0  0  0  0  0  0  0  0
  -26.1610  -13.3810   20.4750 N   0  0  0  0  0  0  0  0  0  0  0  0
  -26.0100  -11.9930   20.5810 N   0  0  0  0  0  0  0  0  0  0  0  0
  -24.0580  -10.4950   21.1020 C   0  0  0  0  0  0  0  0  0  0  0  0
  -24.4610   -9.5260   22.0530 C   0  0  0  0  0  3  0  0  0  0  0  0
  -23.7210   -8.3310   22.2330 C   0  0  0  0  0  3  0  0  0  0  0  0
  -22.5540   -8.0870   21.4680 C   0  0  0  0  0  0  0  0  0  0  0  0
  -22.1620   -9.0430   20.5130 C   0  0  0  0  0  3  0  0  0  0  0  0
  -22.9050  -10.2240   20.3320 C   0  0  0  0  0  3  0  0  0  0  0  0
  -21.7860   -6.9470   21.5490 O   0  0  0  0  0  0  0  0  0  0  0  0
  -21.7290   -6.1830   22.6890 C   0  0  0  0  0  0  0  0  0  0  0  0
  -21.3190   -6.7240   23.9270 C   0  0  0  0  0  3  0  0  0  0  0  0
  -21.2090   -5.8900   25.0580 C   0  0  0  0  0  3  0  0  0  0  0  0
  -21.4960   -4.5160   24.9530 C   0  0  0  0  0  0  0  0  0  0  0  0
  -21.8950   -3.9740   23.7200 C   0  0  0  0  0  3  0  0  0  0  0  0
  -22.0070   -4.8040   22.5900 C   0  0  0  0  0  0  0  0  0  0  0  0
  -22.3700   -4.2700   21.3990 F   0  0  0  0  0  0  0  0  0  0  0  0
  -21.3870   -3.7140   26.0390 F   0  0  0  0  0  0  0  0  0  0  0  0
  -22.7050  -13.4840   21.3180 C   0  0  0  0  0  0  0  0  0  0  0  0
  -22.0290  -12.7740   22.2030 N   0  0  0  0  0  0  0  0  0  0  0  0
  -22.2340  -14.4840   20.7740 O   0  0  0  0  0  0  0  0  0  0  0  0
  -22.4490  -11.9810   22.6650 H   0  0  0  0  0  0  0  0  0  0  0  0
  -21.0780  -13.0290   22.4280 H   0  0  0  0  0  0  0  0  0  0  0  0
  -24.9870  -15.4280   20.8480 N   0  0  0  0  0  0  0  0  0  0  0  0
  -24.1190  -15.9190   21.0340 H   0  0  0  0  0  0  0  0  0  0  0  0
  -25.7550  -16.0510   20.6330 H   0  0  0  0  0  0  0  0  0  0  0  0
  1  7  1  0
  1  2  1  0
  2 54  1  0
  2  4  1  0
  3  1  2  0
  5  7  1  0
 10  9  1  0
 12 14  1  0
 13 24  2  0
 14 19  1  0
 15 23  1  0
 15 25  1  0
 16 22  1  0
 16 18  1  0
 17 23  1  0
 18 17  1  0
 19 18  2  0
 20 21  1  0
 20 14  2  0
 21 16  2  0
 22 15  1  0
 23 13  1  0
 25 27  2  0
 26 25  1  0
 28 26  1  0
 29 38  2  0
 29 34  1  0
 30 26  1  0
 30 34  1  0
 31 30  1  0
 32 33  1  0
 32 31  1  0
 33 29  1  0
 34 35  2  0
 35 36  1  0
 37 36  2  0
 38 37  1  0
 39 13  1  0
 39 40  1  0
 39 49  1  0
 40 43  1  0
 41 45  1  0
 41 40  1  0
 42 41  2  0
 45 44  1  0
 47 45  1  0
 47 48  1  0
 47 46  1  0
 49 52  1  1
 49 50  1  0
 51 49  1  0
 54 53  1  0
 55 67  1  0
 56 61  1  0
 57  6  1  0
 57 56  1  0
 58  6  1  0
 58 59  1  0
 59 73  1  0
 61 60  1  0
 61 55  1  0
 62 55  2  0
 63 68  1  0
 64 54  1  0
 64 66  1  0
 64 63  1  0
 65 67  1  0
 65 68  1  0
 66 65  1  0
 67 69  1  0
 70 95  1  0
 70 71  2  0
 71 90  1  0
 72 71  1  0
 72 75  1  0
 73 74  1  0
 73 70  1  0
 74 72  2  0
 75 76  1  0
 76 77  2  0
 78 81  1  0
 78 77  1  0
 79 78  2  0
 80 79  1  0
 80 75  2  0
 81 82  1  0
 82 83  1  0
 83 84  2  0
 85 84  1  0
 85 89  1  0
 86 85  2  0
 87 82  2  0
 87 86  1  0
 88 87  1  0
 90 91  1  0
 91 94  1  0
 91 93  1  0
 92 90  2  0
 95 96  1  0
 97 95  1  0
M  ISO  4  11 101  12 101  55 100  67 100
M  END
>  <TORSDO>  (62) 
F 21

>  <SCORE>  (62) 
-9.647

>  <name>  (62) 
62

>  <ligand_id>  (62) 
62

>  <original_smiles>  (62) 
[H]c1sc(N([H])C(=O)N2C([H])([H])C([H])([H])C([H])([H])C([H])(n3nc(-c4c([H])c([H])c(Oc5c([H])c([H])c(F)c([H])c5F)c([H])c4[H])c(C(=O)N([H])[H])c3N([H])[H])C2([H])[H])nc1C([H])(N([H])C(=O)C(C([H])([H])[H])(C([H])([H])[H])C([H])([H])C([H])(F)C([H])([H])Oc1c([H])c([H])c2c(c1[H])C([H])([H])N(C(=O)C([H])(N([H])C(=O)C([H])(N([H])C([H])([H])[H])C([H])([H])[H])C(C([H])([H])[H])(C([H])([H])[H])C([H])([H])[H])C([H])(C(=O)N([H])C1([H])c3c([H])c([H])c([H])c([H])c3C([H])([H])C([H])([H])C1([H])[H])C2([H])[H])C([H])([H])[H]

>  <smiles>  (62) 
[H]c1sc(N([H])C(=O)N2C([H])([H])C([H])([H])C([H])([H])C([H])(n3nc(-c4c([H])c([H])c(Oc5c([H])c([H])c(F)c([H])c5F)c([H])c4[H])c(C(=O)N([H])[H])c3N([H])[H])C2([H])[H])nc1C([H])(N([H])C(=O)C(C([H])([H])[H])(C([H])([H])[H])C([H])([H])C([H])(F)C([H])([H])Oc1c([H])c([H])c2c(c1[H])C([H])([H])N(C(=O)C([H])(N([H])C(=O)C([H])(N([H])C([H])([H])[H])C([H])([H])[H])C(C([H])([H])[H])(C([H])([H])[H])C([H])([H])[H])C([H])(C(=O)N([H])C1([H])c3c([H])c([H])c([H])c([H])c3C([H])([H])C([H])([H])C1([H])[H])C2([H])[H])C([H])([H])[H]

$$$$
63:0:0
     RDKit          3D

 97105  0  0  1  0  0  0  0  0999 V2000
  -29.1420  -21.7920   20.2660 C   0  0  0  0  0  0  0  0  0  0  0  0
  -29.0190  -21.7760   21.4950 O   0  0  0  0  0  0  0  0  0  0  0  0
  -30.0180  -20.7460   19.5120 C   0  0  0  0  0  2  0  0  0  0  0  0
  -31.1320  -19.2450   21.2480 C   0  0  0  0  0  3  0  0  0  0  0  0
  -30.2090  -19.3980   20.2410 C   0  0  0  0  0  0  0  0  0  0  0  0
  -29.5960  -18.1190   19.9000 C   0  0  0  0  0  0  0  0  0  0  0  0
  -30.1120  -17.0350   20.6150 C   0  0  0  0  0  0  0  0  0  0  0  0
  -31.3050  -17.5930   21.7630 S   0  0  0  0  0  0  0  0  0  0  0  0
  -30.5600  -14.6370   20.2550 C   0  0  0  0  0  0  0  0  0  0  0  0
  -30.2610  -12.4810   19.0890 C   0  0  0  0  0  2  0  0  0  0  0  0
  -29.2800  -12.6990   17.9170 C   0  0  0  0  0  2  0  0  0  0  0  0
  -27.8190  -12.5390   18.3870 C   0  0  0  0  0  2  0  0  0  0  0  0
  -27.5120  -13.3380   19.6830 C   0  0  0  0  0  3  0  0  0  0  0  0
  -28.6070  -13.1170   20.7510 C   0  0  0  0  0  2  0  0  0  0  0  0
  -29.9030  -13.4480   20.1390 N   0  0  0  0  0  0  0  0  0  0  0  0
  -31.7240  -14.7860   19.8750 O   0  0  0  0  0  0  0  0  0  0  0  0
  -29.7700  -15.7020   20.5510 N   0  0  0  0  0  0  0  0  0  0  0  0
  -28.7910  -15.4830   20.6490 H   0  0  0  0  0  0  0  0  0  0  0  0
  -25.1290  -13.9140   20.4540 C   0  0  0  0  0  0  0  0  0  0  0  0
  -24.0790  -13.1290   20.8460 C   0  0  0  0  0  0  0  0  0  0  0  0
  -24.5550  -11.7830   20.8020 C   0  0  0  0  0  0  0  0  0  0  0  0
  -26.1780  -13.0450   20.1960 N   0  0  0  0  0  0  0  0  0  0  0  0
  -25.8390  -11.7590   20.4650 N   0  0  0  0  0  0  0  0  0  0  0  0
  -23.8480  -10.5130   21.0040 C   0  0  0  0  0  0  0  0  0  0  0  0
  -24.2990   -9.5560   21.9400 C   0  0  0  0  0  3  0  0  0  0  0  0
  -23.5920   -8.3500   22.1300 C   0  0  0  0  0  3  0  0  0  0  0  0
  -22.4190   -8.0910   21.3820 C   0  0  0  0  0  0  0  0  0  0  0  0
  -21.9870   -9.0360   20.4330 C   0  0  0  0  0  3  0  0  0  0  0  0
  -22.6960  -10.2340   20.2430 C   0  0  0  0  0  3  0  0  0  0  0  0
  -21.6810   -6.9360   21.4800 O   0  0  0  0  0  0  0  0  0  0  0  0
  -21.6450   -6.2020   22.6380 C   0  0  0  0  0  0  0  0  0  0  0  0
  -21.1980   -6.7550   23.8580 C   0  0  0  0  0  3  0  0  0  0  0  0
  -21.1120   -5.9460   25.0080 C   0  0  0  0  0  3  0  0  0  0  0  0
  -21.4610   -4.5840   24.9390 C   0  0  0  0  0  0  0  0  0  0  0  0
  -21.9020   -4.0300   23.7240 C   0  0  0  0  0  3  0  0  0  0  0  0
  -21.9900   -4.8370   22.5770 C   0  0  0  0  0  0  0  0  0  0  0  0
  -22.3940   -4.2920   21.4030 F   0  0  0  0  0  0  0  0  0  0  0  0
  -21.3710   -3.8050   26.0430 F   0  0  0  0  0  0  0  0  0  0  0  0
  -22.6820  -13.5900   21.1480 C   0  0  0  0  0  0  0  0  0  0  0  0
  -21.9760  -12.8760   22.0180 N   0  0  0  0  0  0  0  0  0  0  0  0
  -22.2250  -14.6180   20.6500 O   0  0  0  0  0  0  0  0  0  0  0  0
  -22.3590  -12.0430   22.4410 H   0  0  0  0  0  0  0  0  0  0  0  0
  -21.0400  -13.1670   22.2640 H   0  0  0  0  0  0  0  0  0  0  0  0
  -25.2710  -15.2870   20.2730 N   0  0  0  0  0  0  0  0  0  0  0  0
  -24.4870  -15.9200   20.3850 H   0  0  0  0  0  0  0  0  0  0  0  0
  -26.0820  -15.7370   19.8670 H   0  0  0  0  0  0  0  0  0  0  0  0
  -28.5550  -17.9820   18.8050 C   0  0  1  0  0  0  0  0  0  0  0  0
  -27.7230  -19.0220   18.7750 F   0  0  0  0  0  0  0  0  0  0  0  0
  -29.1350  -17.8960   17.6080 F   0  0  0  0  0  0  0  0  0  0  0  0
  -27.7980  -16.8950   18.9660 F   0  0  0  0  0  0  0  0  0  0  0  0
  -28.4160  -22.8770   19.4030 C   0  0  0  0  0  3  0  0  0  0  0  0
  -28.8250  -24.9990   18.0520 C   0  0  0  0  0  1  0  0  0  0  0  0
  -28.9590  -24.3630   19.4490 C   0  0  0  0  0  3  0  0  0  0  0  0
  -28.3370  -25.2990   20.5480 C   0  0  0  0  0  2  0  0  0  0  0  0
  -28.4670  -26.7320   20.3130 O   0  0  0  0  0  0  0  0  0  0  0  0
  -24.5800  -31.9410   23.3020 C   0  0  0  0  0  0  0  0  0  0  0  0
  -27.2990  -27.4850   20.2760 C   0  0  0  0  0  0  0  0  0  0  0  0
  -23.4100  -30.5270   21.6470 C   0  0  0  0  0  3  0  0  0  0  0  0
  -24.8940  -29.0000   20.2400 C   0  0  0  0  0  0  0  0  0  0  0  0
  -25.9360  -30.9020   21.4810 C   0  0  0  0  0  2  0  0  0  0  0  0
  -26.0450  -29.5290   20.8390 C   0  0  0  0  0  0  0  0  0  0  0  0
  -27.2510  -28.7840   20.8450 C   0  0  0  0  0  3  0  0  0  0  0  0
  -26.1290  -26.9830   19.6640 C   0  0  0  0  0  3  0  0  0  0  0  0
  -24.9340  -27.7280   19.6440 C   0  0  0  0  0  3  0  0  0  0  0  0
  -23.6420  -29.8470   20.2720 C   0  0  0  0  0  2  0  0  0  0  0  0
  -24.6600  -31.1390   22.2020 N   0  0  0  0  0  0  0  0  0  0  0  0
  -23.4900  -32.2040   23.8270 O   0  0  0  0  0  0  0  0  0  0  0  0
  -22.7520  -29.5050   22.6010 C   0  0  0  0  0  0  0  0  0  0  0  0
  -21.4310  -29.3060   22.4480 N   0  0  0  0  0  0  0  0  0  0  0  0
  -23.4260  -28.8930   23.4330 O   0  0  0  0  0  0  0  0  0  0  0  0
  -20.9480  -29.8520   21.7490 H   0  0  0  0  0  0  0  0  0  0  0  0
  -18.0610  -28.0760   22.8970 C   0  0  0  0  0  0  0  0  0  0  0  0
  -20.6110  -28.3620   23.2070 C   0  0  0  0  0  3  0  0  0  0  0  0
  -20.7370  -26.9320   22.6330 C   0  0  0  0  0  2  0  0  0  0  0  0
  -19.6540  -26.5950   21.6040 C   0  0  0  0  0  2  0  0  0  0  0  0
  -18.2600  -26.7280   22.2260 C   0  0  0  0  0  2  0  0  0  0  0  0
  -19.1650  -28.8510   23.3420 C   0  0  0  0  0  0  0  0  0  0  0  0
  -18.9240  -30.1120   23.9280 C   0  0  0  0  0  3  0  0  0  0  0  0
  -17.6110  -30.6000   24.0730 C   0  0  0  0  0  3  0  0  0  0  0  0
  -16.5210  -29.8220   23.6440 C   0  0  0  0  0  3  0  0  0  0  0  0
  -16.7480  -28.5630   23.0610 C   0  0  0  0  0  3  0  0  0  0  0  0
  -25.8510  -32.5870   23.9390 C   0  0  0  0  0  3  0  0  0  0  0  0
  -26.3340  -31.8470   25.2470 C   0  0  1  0  0  0  0  0  0  0  0  0
  -25.2140  -31.6250   26.2910 C   0  0  0  0  0  1  0  0  0  0  0  0
  -26.9330  -30.4650   24.8980 C   0  0  0  0  0  1  0  0  0  0  0  0
  -27.4660  -32.6590   25.9200 C   0  0  0  0  0  1  0  0  0  0  0  0
  -25.5390  -33.9930   24.2260 N   0  0  0  0  0  0  0  0  0  0  0  0
  -25.8880  -35.0250   23.4470 C   0  0  0  0  0  0  0  0  0  0  0  0
  -26.5790  -34.8940   22.4330 O   0  0  0  0  0  0  0  0  0  0  0  0
  -24.9360  -34.1720   25.0170 H   0  0  0  0  0  0  0  0  0  0  0  0
  -24.1690  -36.8070   23.0120 C   0  0  0  0  0  1  0  0  0  0  0  0
  -25.3940  -36.4250   23.8580 C   0  0  0  0  0  3  0  0  0  0  0  0
  -27.5110  -37.3300   24.7090 C   0  0  0  0  0  1  0  0  0  0  0  0
  -26.4300  -37.4750   23.7370 N   0  0  0  0  0  0  0  0  0  0  0  0
  -26.0220  -38.3980   23.8550 H   0  0  0  0  0  0  0  0  0  0  0  0
  -26.2520  -21.8190   19.2150 C   0  0  0  0  0  1  0  0  0  0  0  0
  -27.0130  -22.9230   19.6870 O   0  0  0  0  0  0  0  0  0  0  0  0
  1  2  2  0
  3  5  1  0
  3  1  1  0
  4  8  1  0
  5  4  2  0
  6  5  1  0
  6  7  2  0
  7  8  1  0
  9 17  1  0
 10 15  1  0
 11 12  1  0
 11 10  1  0
 13 12  1  0
 13 22  1  0
 13 14  1  0
 15  9  1  0
 15 14  1  0
 16  9  2  0
 17  7  1  0
 17 18  1  0
 19 20  2  0
 20 39  1  0
 21 20  1  0
 21 24  1  0
 22 19  1  0
 22 23  1  0
 23 21  2  0
 24 25  1  0
 25 26  2  0
 27 30  1  0
 27 26  1  0
 28 27  2  0
 29 28  1  0
 29 24  2  0
 30 31  1  0
 31 32  1  0
 32 33  2  0
 34 33  1  0
 34 38  1  0
 35 34  2  0
 36 31  2  0
 36 35  1  0
 37 36  1  0
 39 40  1  0
 40 43  1  0
 40 42  1  0
 41 39  2  0
 44 45  1  0
 44 19  1  0
 46 44  1  0
 47 50  1  1
 47  6  1  0
 48 47  1  0
 49 47  1  0
 51 53  1  0
 51 97  1  0
 51  1  1  0
 53 52  1  0
 53 54  1  0
 55 54  1  0
 56 67  2  0
 57 55  1  0
 57 62  1  0
 58 66  1  0
 58 68  1  0
 59 65  1  0
 59 61  1  0
 60 66  1  0
 61 62  2  0
 61 60  1  0
 63 57  2  0
 64 63  1  0
 64 59  2  0
 65 58  1  0
 66 56  1  0
 68 70  2  0
 69 68  1  0
 71 69  1  0
 72 81  2  0
 72 77  1  0
 73 69  1  0
 73 77  1  0
 74 73  1  0
 75 76  1  0
 75 74  1  0
 76 72  1  0
 77 78  2  0
 78 79  1  0
 80 79  2  0
 81 80  1  0
 82 56  1  0
 82 87  1  0
 82 83  1  0
 83 86  1  1
 83 84  1  0
 85 83  1  0
 87 90  1  0
 88 92  1  0
 88 87  1  0
 89 88  2  0
 92 91  1  0
 94 95  1  0
 94 92  1  0
 94 93  1  0
 96 97  1  0
M  ISO  4   9 100  17 100  54 101  55 101
M  END
>  <TORSDO>  (63) 
F 23

>  <SCORE>  (63) 
-13.152

>  <name>  (63) 
63

>  <ligand_id>  (63) 
63

>  <original_smiles>  (63) 
[H]c1sc(N([H])C(=O)N2C([H])([H])C([H])([H])C([H])([H])C([H])(n3nc(-c4c([H])c([H])c(Oc5c([H])c([H])c(F)c([H])c5F)c([H])c4[H])c(C(=O)N([H])[H])c3N([H])[H])C2([H])[H])c(C(F)(F)F)c1C([H])([H])C(=O)C([H])(OC([H])([H])[H])C([H])(C([H])([H])[H])C([H])([H])Oc1c([H])c([H])c2c(c1[H])C([H])([H])N(C(=O)C([H])(N([H])C(=O)C([H])(N([H])C([H])([H])[H])C([H])([H])[H])C(C([H])([H])[H])(C([H])([H])[H])C([H])([H])[H])C([H])(C(=O)N([H])C1([H])c3c([H])c([H])c([H])c([H])c3C([H])([H])C([H])([H])C1([H])[H])C2([H])[H]

>  <smiles>  (63) 
[H]c1sc(N([H])C(=O)N2C([H])([H])C([H])([H])C([H])([H])C([H])(n3nc(-c4c([H])c([H])c(Oc5c([H])c([H])c(F)c([H])c5F)c([H])c4[H])c(C(=O)N([H])[H])c3N([H])[H])C2([H])[H])c(C(F)(F)F)c1C([H])([H])C(=O)C([H])(OC([H])([H])[H])C([H])(C([H])([H])[H])C([H])([H])Oc1c([H])c([H])c2c(c1[H])C([H])([H])N(C(=O)C([H])(N([H])C(=O)C([H])(N([H])C([H])([H])[H])C([H])([H])[H])C(C([H])([H])[H])(C([H])([H])[H])C([H])([H])[H])C([H])(C(=O)N([H])C1([H])c3c([H])c([H])c([H])c([H])c3C([H])([H])C([H])([H])C1([H])[H])C2([H])[H]

$$$$
64:0:0
     RDKit          3D

 93101  0  0  1  0  0  0  0  0999 V2000
  -28.5570  -22.1820   20.0620 C   0  0  0  0  0  3  0  0  0  0  0  0
  -28.4570  -22.0640   18.7400 F   0  0  0  0  0  0  0  0  0  0  0  0
  -30.0480  -17.3410   20.5520 C   0  0  0  0  0  0  0  0  0  0  0  0
  -31.1550  -17.6690   21.3060 C   0  0  0  0  0  0  0  0  0  0  0  0
  -29.8810  -19.7310   20.6450 C   0  0  0  0  0  0  0  0  0  0  0  0
  -29.3090  -18.5530   20.2040 N   0  0  0  0  0  0  0  0  0  0  0  0
  -29.5280  -21.1350   20.5500 N   0  0  0  0  0  0  0  0  0  0  0  0
  -31.3700  -19.3900   21.5290 S   0  0  0  0  0  0  0  0  0  0  0  0
  -32.2960  -16.6610   22.1140 Cl  0  0  0  0  0  0  0  0  0  0  0  0
  -30.1670  -21.6550   21.1460 H   0  0  0  0  0  0  0  0  0  0  0  0
  -30.4160  -14.7980   20.0160 C   0  0  0  0  0  0  0  0  0  0  0  0
  -30.1440  -12.5590   18.9270 C   0  0  0  0  0  2  0  0  0  0  0  0
  -29.1250  -12.6650   17.7730 C   0  0  0  0  0  2  0  0  0  0  0  0
  -27.6880  -12.4670   18.2960 C   0  0  0  0  0  2  0  0  0  0  0  0
  -27.3930  -13.3110   19.5660 C   0  0  0  0  0  3  0  0  0  0  0  0
  -28.5280  -13.1960   20.6070 C   0  0  0  0  0  2  0  0  0  0  0  0
  -29.7750  -13.5800   19.9360 N   0  0  0  0  0  0  0  0  0  0  0  0
  -31.5750  -14.8950   19.6000 O   0  0  0  0  0  0  0  0  0  0  0  0
  -29.6570  -15.9260   20.3040 N   0  0  0  0  0  0  0  0  0  0  0  0
  -28.6690  -15.7480   20.3730 H   0  0  0  0  0  0  0  0  0  0  0  0
  -25.0540  -13.8580   20.4650 C   0  0  0  0  0  0  0  0  0  0  0  0
  -24.0230  -13.0650   20.8830 C   0  0  0  0  0  0  0  0  0  0  0  0
  -24.4950  -11.7190   20.7880 C   0  0  0  0  0  0  0  0  0  0  0  0
  -26.0880  -12.9960   20.1370 N   0  0  0  0  0  0  0  0  0  0  0  0
  -25.7630  -11.7030   20.3950 N   0  0  0  0  0  0  0  0  0  0  0  0
  -23.7930  -10.4450   20.9890 C   0  0  0  0  0  0  0  0  0  0  0  0
  -24.2700   -9.4750   21.8980 C   0  0  0  0  0  3  0  0  0  0  0  0
  -23.5660   -8.2660   22.0890 C   0  0  0  0  0  3  0  0  0  0  0  0
  -22.3720   -8.0190   21.3720 C   0  0  0  0  0  0  0  0  0  0  0  0
  -21.9130   -8.9780   20.4520 C   0  0  0  0  0  3  0  0  0  0  0  0
  -22.6180  -10.1780   20.2580 C   0  0  0  0  0  3  0  0  0  0  0  0
  -21.6350   -6.8640   21.4750 O   0  0  0  0  0  0  0  0  0  0  0  0
  -21.6180   -6.1220   22.6290 C   0  0  0  0  0  0  0  0  0  0  0  0
  -21.2010   -6.6710   23.8610 C   0  0  0  0  0  3  0  0  0  0  0  0
  -21.1310   -5.8550   25.0070 C   0  0  0  0  0  3  0  0  0  0  0  0
  -21.4670   -4.4900   24.9230 C   0  0  0  0  0  0  0  0  0  0  0  0
  -21.8760   -3.9400   23.6950 C   0  0  0  0  0  3  0  0  0  0  0  0
  -21.9470   -4.7530   22.5510 C   0  0  0  0  0  0  0  0  0  0  0  0
  -22.3210   -4.2140   21.3660 F   0  0  0  0  0  0  0  0  0  0  0  0
  -21.3920   -3.7040   26.0230 F   0  0  0  0  0  0  0  0  0  0  0  0
  -22.6420  -13.5200   21.2550 C   0  0  0  0  0  0  0  0  0  0  0  0
  -21.9760  -12.7970   22.1490 N   0  0  0  0  0  0  0  0  0  0  0  0
  -22.1630  -14.5530   20.7880 O   0  0  0  0  0  0  0  0  0  0  0  0
  -22.3770  -11.9620   22.5480 H   0  0  0  0  0  0  0  0  0  0  0  0
  -21.0530  -13.0840   22.4390 H   0  0  0  0  0  0  0  0  0  0  0  0
  -25.1910  -15.2350   20.3100 N   0  0  0  0  0  0  0  0  0  0  0  0
  -24.4200  -15.8700   20.4810 H   0  0  0  0  0  0  0  0  0  0  0  0
  -25.9930  -15.6950   19.8980 H   0  0  0  0  0  0  0  0  0  0  0  0
  -28.9260  -23.7330   20.4190 C   0  0  0  0  0  3  0  0  0  0  0  0
  -29.1420  -23.7310   21.8210 O   0  0  0  0  0  0  0  0  0  0  0  0
  -29.3550  -24.6260   22.0690 H   0  0  0  0  0  0  0  0  0  0  0  0
  -27.8720  -24.9290   20.1020 C   0  0  0  0  0  2  0  0  0  0  0  0
  -28.1730  -26.3980   20.2950 O   0  0  0  0  0  0  0  0  0  0  0  0
  -24.5860  -31.9640   23.3060 C   0  0  0  0  0  0  0  0  0  0  0  0
  -27.0970  -27.3230   20.2340 C   0  0  0  0  0  0  0  0  0  0  0  0
  -23.3540  -30.5900   21.6690 C   0  0  0  0  0  3  0  0  0  0  0  0
  -24.7720  -29.0190   20.2300 C   0  0  0  0  0  0  0  0  0  0  0  0
  -25.9030  -30.8520   21.4810 C   0  0  0  0  0  2  0  0  0  0  0  0
  -25.9560  -29.4720   20.8270 C   0  0  0  0  0  0  0  0  0  0  0  0
  -27.1220  -28.6370   20.8170 C   0  0  0  0  0  3  0  0  0  0  0  0
  -25.8890  -26.9470   19.6030 C   0  0  0  0  0  3  0  0  0  0  0  0
  -24.7450  -27.7650   19.6060 C   0  0  0  0  0  3  0  0  0  0  0  0
  -23.5530  -29.9180   20.2860 C   0  0  0  0  0  2  0  0  0  0  0  0
  -24.6330  -31.1540   22.2080 N   0  0  0  0  0  0  0  0  0  0  0  0
  -23.5070  -32.2600   23.8440 O   0  0  0  0  0  0  0  0  0  0  0  0
  -22.6760  -29.5820   22.6290 C   0  0  0  0  0  0  0  0  0  0  0  0
  -21.3510  -29.4090   22.4900 N   0  0  0  0  0  0  0  0  0  0  0  0
  -23.3430  -28.9600   23.4600 O   0  0  0  0  0  0  0  0  0  0  0  0
  -20.8710  -29.9620   21.7920 H   0  0  0  0  0  0  0  0  0  0  0  0
  -17.9660  -28.2110   22.9530 C   0  0  0  0  0  0  0  0  0  0  0  0
  -20.5200  -28.4800   23.2590 C   0  0  0  0  0  3  0  0  0  0  0  0
  -20.6330  -27.0410   22.7050 C   0  0  0  0  0  2  0  0  0  0  0  0
  -19.5480  -26.7030   21.6770 C   0  0  0  0  0  2  0  0  0  0  0  0
  -18.1560  -26.8540   22.2980 C   0  0  0  0  0  2  0  0  0  0  0  0
  -19.0770  -28.9810   23.3910 C   0  0  0  0  0  0  0  0  0  0  0  0
  -18.8460  -30.2520   23.9620 C   0  0  0  0  0  3  0  0  0  0  0  0
  -17.5360  -30.7510   24.1030 C   0  0  0  0  0  3  0  0  0  0  0  0
  -16.4410  -29.9780   23.6810 C   0  0  0  0  0  3  0  0  0  0  0  0
  -16.6560  -28.7100   23.1120 C   0  0  0  0  0  3  0  0  0  0  0  0
  -25.8790  -32.5760   23.9250 C   0  0  0  0  0  3  0  0  0  0  0  0
  -26.3800  -31.8010   25.2060 C   0  0  1  0  0  0  0  0  0  0  0  0
  -25.2820  -31.5880   26.2730 C   0  0  0  0  0  1  0  0  0  0  0  0
  -26.9400  -30.4120   24.8230 C   0  0  0  0  0  1  0  0  0  0  0  0
  -27.5430  -32.5780   25.8650 C   0  0  0  0  0  1  0  0  0  0  0  0
  -25.5930  -33.9810   24.2520 N   0  0  0  0  0  0  0  0  0  0  0  0
  -25.9200  -35.0260   23.4790 C   0  0  0  0  0  0  0  0  0  0  0  0
  -26.5630  -34.9070   22.4320 O   0  0  0  0  0  0  0  0  0  0  0  0
  -25.0190  -34.1480   25.0650 H   0  0  0  0  0  0  0  0  0  0  0  0
  -24.1940  -36.8310   23.1720 C   0  0  0  0  0  1  0  0  0  0  0  0
  -25.4620  -36.4240   23.9390 C   0  0  0  0  0  3  0  0  0  0  0  0
  -27.6330  -37.3010   24.6800 C   0  0  0  0  0  1  0  0  0  0  0  0
  -26.4990  -37.4660   23.7760 N   0  0  0  0  0  0  0  0  0  0  0  0
  -26.1060  -38.3920   23.9260 H   0  0  0  0  0  0  0  0  0  0  0  0
  1  2  1  0
  1 49  1  0
  1  7  1  0
  3  4  2  0
  4  8  1  0
  4  9  1  0
  5  8  1  0
  6  3  1  0
  6  5  2  0
  7  5  1  0
  7 10  1  0
 11 19  1  0
 12 17  1  0
 13 14  1  0
 13 12  1  0
 15 14  1  0
 15 24  1  0
 15 16  1  0
 17 11  1  0
 17 16  1  0
 18 11  2  0
 19 20  1  0
 19  3  1  0
 21 22  2  0
 22 41  1  0
 23 22  1  0
 23 26  1  0
 24 25  1  0
 24 21  1  0
 25 23  2  0
 26 27  1  0
 27 28  2  0
 29 32  1  0
 29 28  1  0
 30 29  2  0
 31 30  1  0
 31 26  2  0
 32 33  1  0
 33 34  1  0
 34 35  2  0
 36 35  1  0
 36 40  1  0
 37 36  2  0
 38 33  2  0
 38 37  1  0
 39 38  1  0
 41 42  1  0
 42 45  1  0
 42 44  1  0
 43 41  2  0
 46 21  1  0
 46 47  1  0
 48 46  1  0
 49 52  1  0
 49 50  1  0
 50 51  1  0
 52 53  1  0
 54 65  2  0
 55 53  1  0
 55 60  1  0
 56 64  1  0
 56 66  1  0
 57 63  1  0
 57 59  1  0
 58 64  1  0
 59 58  1  0
 60 59  2  0
 61 62  1  0
 61 55  2  0
 62 57  2  0
 63 56  1  0
 64 54  1  0
 66 68  2  0
 67 66  1  0
 69 67  1  0
 70 79  2  0
 70 75  1  0
 71 67  1  0
 71 75  1  0
 72 71  1  0
 73 74  1  0
 73 72  1  0
 74 70  1  0
 75 76  2  0
 76 77  1  0
 78 77  2  0
 79 78  1  0
 80 54  1  0
 80 85  1  0
 80 81  1  0
 81 84  1  1
 81 82  1  0
 83 81  1  0
 85 88  1  0
 86 90  1  0
 86 85  1  0
 87 86  2  0
 90 89  1  0
 92 93  1  0
 92 90  1  0
 92 91  1  0
M  ISO  4  11 100  19 100  52 101  53 101
M  END
>  <TORSDO>  (64) 
F 20

>  <SCORE>  (64) 
-12.279

>  <name>  (64) 
64

>  <ligand_id>  (64) 
64

>  <original_smiles>  (64) 
[H]OC([H])(C([H])([H])Oc1c([H])c([H])c2c(c1[H])C([H])([H])N(C(=O)C([H])(N([H])C(=O)C([H])(N([H])C([H])([H])[H])C([H])([H])[H])C(C([H])([H])[H])(C([H])([H])[H])C([H])([H])[H])C([H])(C(=O)N([H])C1([H])c3c([H])c([H])c([H])c([H])c3C([H])([H])C([H])([H])C1([H])[H])C2([H])[H])C([H])(F)N([H])c1nc(N([H])C(=O)N2C([H])([H])C([H])([H])C([H])([H])C([H])(n3nc(-c4c([H])c([H])c(Oc5c([H])c([H])c(F)c([H])c5F)c([H])c4[H])c(C(=O)N([H])[H])c3N([H])[H])C2([H])[H])c(Cl)s1

>  <smiles>  (64) 
[H]OC([H])(C([H])([H])Oc1c([H])c([H])c2c(c1[H])C([H])([H])N(C(=O)C([H])(N([H])C(=O)C([H])(N([H])C([H])([H])[H])C([H])([H])[H])C(C([H])([H])[H])(C([H])([H])[H])C([H])([H])[H])C([H])(C(=O)N([H])C1([H])c3c([H])c([H])c([H])c([H])c3C([H])([H])C([H])([H])C1([H])[H])C2([H])[H])C([H])(F)N([H])c1nc(N([H])C(=O)N2C([H])([H])C([H])([H])C([H])([H])C([H])(n3nc(-c4c([H])c([H])c(Oc5c([H])c([H])c(F)c([H])c5F)c([H])c4[H])c(C(=O)N([H])[H])c3N([H])[H])C2([H])[H])c(Cl)s1

$$$$
65:0:0
     RDKit          3D

 93100  0  0  1  0  0  0  0  0999 V2000
  -29.6810  -20.0300   20.6160 C   0  0  0  0  0  0  0  0  0  0  0  0
  -28.8970  -21.1210   20.3020 N   0  0  0  0  0  0  0  0  0  0  0  0
  -30.7140  -20.2110   21.2600 O   0  0  0  0  0  0  0  0  0  0  0  0
  -28.0880  -20.9640   19.7150 H   0  0  0  0  0  0  0  0  0  0  0  0
  -29.3020  -18.5280   20.2050 C   0  0  0  0  0  2  0  0  0  0  0  0
  -30.3580  -17.3200   20.4860 C   0  0  0  0  0  3  0  0  0  0  0  0
  -30.6550  -14.7710   19.9880 C   0  0  0  0  0  0  0  0  0  0  0  0
  -30.4050  -12.5130   18.9650 C   0  0  0  0  0  2  0  0  0  0  0  0
  -29.4050  -12.5950   17.7910 C   0  0  0  0  0  2  0  0  0  0  0  0
  -27.9580  -12.4240   18.2940 C   0  0  0  0  0  2  0  0  0  0  0  0
  -27.6450  -13.3090   19.5310 C   0  0  0  0  0  3  0  0  0  0  0  0
  -28.7570  -13.2090   20.5970 C   0  0  0  0  0  2  0  0  0  0  0  0
  -30.0220  -13.5560   19.9400 N   0  0  0  0  0  0  0  0  0  0  0  0
  -31.8310  -14.8830   19.6350 O   0  0  0  0  0  0  0  0  0  0  0  0
  -29.8890  -15.8910   20.2390 N   0  0  0  0  0  0  0  0  0  0  0  0
  -28.9240  -15.7060   20.4630 H   0  0  0  0  0  0  0  0  0  0  0  0
  -25.3030  -13.9000   20.3970 C   0  0  0  0  0  0  0  0  0  0  0  0
  -24.2540  -13.1230   20.8070 C   0  0  0  0  0  0  0  0  0  0  0  0
  -24.7070  -11.7700   20.7240 C   0  0  0  0  0  0  0  0  0  0  0  0
  -26.3280  -13.0200   20.0860 N   0  0  0  0  0  0  0  0  0  0  0  0
  -25.9790  -11.7340   20.3460 N   0  0  0  0  0  0  0  0  0  0  0  0
  -23.9850  -10.5070   20.9240 C   0  0  0  0  0  0  0  0  0  0  0  0
  -24.4360   -9.5350   21.8440 C   0  0  0  0  0  3  0  0  0  0  0  0
  -23.7130   -8.3380   22.0320 C   0  0  0  0  0  3  0  0  0  0  0  0
  -22.5250   -8.1040   21.3000 C   0  0  0  0  0  0  0  0  0  0  0  0
  -22.0920   -9.0640   20.3690 C   0  0  0  0  0  3  0  0  0  0  0  0
  -22.8160  -10.2530   20.1790 C   0  0  0  0  0  3  0  0  0  0  0  0
  -21.7710   -6.9590   21.3990 O   0  0  0  0  0  0  0  0  0  0  0  0
  -21.7180   -6.2300   22.5600 C   0  0  0  0  0  0  0  0  0  0  0  0
  -21.2710   -6.7940   23.7760 C   0  0  0  0  0  3  0  0  0  0  0  0
  -21.1670   -5.9900   24.9280 C   0  0  0  0  0  3  0  0  0  0  0  0
  -21.5000   -4.6240   24.8670 C   0  0  0  0  0  0  0  0  0  0  0  0
  -21.9400   -4.0600   23.6570 C   0  0  0  0  0  3  0  0  0  0  0  0
  -22.0460   -4.8610   22.5060 C   0  0  0  0  0  0  0  0  0  0  0  0
  -22.4500   -4.3070   21.3370 F   0  0  0  0  0  0  0  0  0  0  0  0
  -21.3930   -3.8500   25.9720 F   0  0  0  0  0  0  0  0  0  0  0  0
  -22.8750  -13.6000   21.1600 C   0  0  0  0  0  0  0  0  0  0  0  0
  -22.1870  -12.8870   22.0440 N   0  0  0  0  0  0  0  0  0  0  0  0
  -22.4180  -14.6400   20.6860 O   0  0  0  0  0  0  0  0  0  0  0  0
  -22.5710  -12.0460   22.4490 H   0  0  0  0  0  0  0  0  0  0  0  0
  -21.2630  -13.1880   22.3230 H   0  0  0  0  0  0  0  0  0  0  0  0
  -25.4640  -15.2730   20.2370 N   0  0  0  0  0  0  0  0  0  0  0  0
  -24.7000  -15.9230   20.3940 H   0  0  0  0  0  0  0  0  0  0  0  0
  -26.2780  -15.7150   19.8320 H   0  0  0  0  0  0  0  0  0  0  0  0
  -30.7260  -17.3580   21.9770 C   0  0  0  0  0  0  0  0  0  0  0  0
  -32.1980  -17.4820   22.3350 C   0  0  0  0  0  1  0  0  0  0  0  0
  -29.8870  -17.2350   22.8720 O   0  0  0  0  0  0  0  0  0  0  0  0
  -29.0110  -22.5230   20.8880 C   0  0  0  0  0  2  0  0  0  0  0  0
  -28.5040  -23.8050   20.0570 C   0  0  0  0  0  3  0  0  0  0  0  0
  -27.3040  -23.4110   19.4070 O   0  0  0  0  0  0  0  0  0  0  0  0
  -26.6490  -23.2580   20.0820 H   0  0  0  0  0  0  0  0  0  0  0  0
  -28.2280  -25.1660   20.8810 C   0  0  0  0  0  2  0  0  0  0  0  0
  -28.3700  -26.5280   20.2950 O   0  0  0  0  0  0  0  0  0  0  0  0
  -24.6190  -31.9540   23.2910 C   0  0  0  0  0  0  0  0  0  0  0  0
  -27.2510  -27.3720   20.2900 C   0  0  0  0  0  0  0  0  0  0  0  0
  -23.4250  -30.5400   21.6570 C   0  0  0  0  0  3  0  0  0  0  0  0
  -24.8830  -28.9750   20.2530 C   0  0  0  0  0  0  0  0  0  0  0  0
  -25.9630  -30.8630   21.4780 C   0  0  0  0  0  2  0  0  0  0  0  0
  -26.0490  -29.4770   20.8460 C   0  0  0  0  0  0  0  0  0  0  0  0
  -27.2400  -28.6900   20.8490 C   0  0  0  0  0  3  0  0  0  0  0  0
  -26.0650  -26.9160   19.6810 C   0  0  0  0  0  3  0  0  0  0  0  0
  -24.8930  -27.7010   19.6600 C   0  0  0  0  0  3  0  0  0  0  0  0
  -23.6450  -29.8480   20.2850 C   0  0  0  0  0  2  0  0  0  0  0  0
  -24.6880  -31.1370   22.1990 N   0  0  0  0  0  0  0  0  0  0  0  0
  -23.5340  -32.2340   23.8200 O   0  0  0  0  0  0  0  0  0  0  0  0
  -22.7590  -29.5320   22.6240 C   0  0  0  0  0  0  0  0  0  0  0  0
  -21.4360  -29.3420   22.4830 N   0  0  0  0  0  0  0  0  0  0  0  0
  -23.4320  -28.9230   23.4600 O   0  0  0  0  0  0  0  0  0  0  0  0
  -20.9510  -29.8840   21.7810 H   0  0  0  0  0  0  0  0  0  0  0  0
  -18.0670  -28.1080   22.9430 C   0  0  0  0  0  0  0  0  0  0  0  0
  -20.6150  -28.4080   23.2570 C   0  0  0  0  0  3  0  0  0  0  0  0
  -20.7490  -26.9670   22.7100 C   0  0  0  0  0  2  0  0  0  0  0  0
  -19.6710  -26.6110   21.6810 C   0  0  0  0  0  2  0  0  0  0  0  0
  -18.2750  -26.7490   22.2970 C   0  0  0  0  0  2  0  0  0  0  0  0
  -19.1670  -28.8940   23.3790 C   0  0  0  0  0  0  0  0  0  0  0  0
  -18.9190  -30.1640   23.9440 C   0  0  0  0  0  3  0  0  0  0  0  0
  -17.6050  -30.6500   24.0770 C   0  0  0  0  0  3  0  0  0  0  0  0
  -16.5190  -29.8610   23.6570 C   0  0  0  0  0  3  0  0  0  0  0  0
  -16.7520  -28.5930   23.0960 C   0  0  0  0  0  3  0  0  0  0  0  0
  -25.8990  -32.5930   23.9140 C   0  0  0  0  0  3  0  0  0  0  0  0
  -25.5840  -33.9930   24.2400 N   0  0  0  0  0  0  0  0  0  0  0  0
  -25.9100  -35.0450   23.4770 C   0  0  0  0  0  0  0  0  0  0  0  0
  -26.5770  -34.9400   22.4440 O   0  0  0  0  0  0  0  0  0  0  0  0
  -24.9910  -34.1460   25.0420 H   0  0  0  0  0  0  0  0  0  0  0  0
  -24.1710  -36.8280   23.1270 C   0  0  0  0  0  1  0  0  0  0  0  0
  -25.4200  -36.4330   23.9320 C   0  0  0  0  0  3  0  0  0  0  0  0
  -27.5550  -37.3330   24.7460 C   0  0  0  0  0  1  0  0  0  0  0  0
  -26.4480  -37.4900   23.8080 N   0  0  0  0  0  0  0  0  0  0  0  0
  -26.0380  -38.4090   23.9510 H   0  0  0  0  0  0  0  0  0  0  0  0
  -26.4150  -31.8290   25.1950 C   0  0  1  0  0  0  0  0  0  0  0  0
  -25.3170  -31.5790   26.2550 C   0  0  0  0  0  1  0  0  0  0  0  0
  -27.0160  -30.4570   24.8080 C   0  0  0  0  0  1  0  0  0  0  0  0
  -27.5520  -32.6360   25.8640 C   0  0  0  0  0  1  0  0  0  0  0  0
  1  3  2  0
  2  1  1  0
  2 48  1  0
  4  2  1  0
  5  1  1  0
  6  5  1  0
  6 45  1  0
  7 15  1  0
  8 13  1  0
  9 10  1  0
  9  8  1  0
 11 10  1  0
 11 20  1  0
 11 12  1  0
 13  7  1  0
 13 12  1  0
 14  7  2  0
 15 16  1  0
 15  6  1  0
 17 18  2  0
 18 37  1  0
 19 18  1  0
 19 22  1  0
 20 21  1  0
 20 17  1  0
 21 19  2  0
 22 23  1  0
 23 24  2  0
 25 28  1  0
 25 24  1  0
 26 25  2  0
 27 26  1  0
 27 22  2  0
 28 29  1  0
 29 30  1  0
 30 31  2  0
 32 31  1  0
 32 36  1  0
 33 32  2  0
 34 29  2  0
 34 33  1  0
 35 34  1  0
 37 38  1  0
 38 41  1  0
 38 40  1  0
 39 37  2  0
 42 43  1  0
 42 17  1  0
 44 42  1  0
 45 46  1  0
 45 47  2  0
 49 52  1  0
 49 48  1  0
 50 49  1  0
 50 51  1  0
 53 52  1  0
 54 65  2  0
 55 53  1  0
 55 60  1  0
 56 64  1  0
 56 66  1  0
 57 63  1  0
 57 59  1  0
 58 64  1  0
 59 60  2  0
 59 58  1  0
 61 55  2  0
 62 61  1  0
 62 57  2  0
 63 56  1  0
 64 54  1  0
 66 68  2  0
 67 66  1  0
 69 67  1  0
 70 79  2  0
 70 75  1  0
 71 67  1  0
 71 75  1  0
 72 71  1  0
 73 74  1  0
 73 72  1  0
 74 70  1  0
 75 76  2  0
 76 77  1  0
 78 77  2  0
 79 78  1  0
 80 54  1  0
 80 81  1  0
 80 90  1  0
 81 84  1  0
 82 86  1  0
 82 81  1  0
 83 82  2  0
 86 85  1  0
 88 86  1  0
 88 89  1  0
 88 87  1  0
 90 93  1  1
 90 91  1  0
 92 90  1  0
M  ISO  4   7 100  15 100  52 101  53 101
M  END
>  <TORSDO>  (65) 
F 23

>  <SCORE>  (65) 
-11.432

>  <name>  (65) 
65

>  <ligand_id>  (65) 
65

>  <original_smiles>  (65) 
[H]OC([H])(C([H])([H])Oc1c([H])c([H])c2c(c1[H])C([H])([H])N(C(=O)C([H])(N([H])C(=O)C([H])(N([H])C([H])([H])[H])C([H])([H])[H])C(C([H])([H])[H])(C([H])([H])[H])C([H])([H])[H])C([H])(C(=O)N([H])C1([H])c3c([H])c([H])c([H])c([H])c3C([H])([H])C([H])([H])C1([H])[H])C2([H])[H])C([H])([H])N([H])C(=O)C([H])([H])C([H])(C(=O)C([H])([H])[H])N([H])C(=O)N1C([H])([H])C([H])([H])C([H])([H])C([H])(n2nc(-c3c([H])c([H])c(Oc4c([H])c([H])c(F)c([H])c4F)c([H])c3[H])c(C(=O)N([H])[H])c2N([H])[H])C1([H])[H]

>  <smiles>  (65) 
[H]OC([H])(C([H])([H])Oc1c([H])c([H])c2c(c1[H])C([H])([H])N(C(=O)C([H])(N([H])C(=O)C([H])(N([H])C([H])([H])[H])C([H])([H])[H])C(C([H])([H])[H])(C([H])([H])[H])C([H])([H])[H])C([H])(C(=O)N([H])C1([H])c3c([H])c([H])c([H])c([H])c3C([H])([H])C([H])([H])C1([H])[H])C2([H])[H])C([H])([H])N([H])C(=O)C([H])([H])C([H])(C(=O)C([H])([H])[H])N([H])C(=O)N1C([H])([H])C([H])([H])C([H])([H])C([H])(n2nc(-c3c([H])c([H])c(Oc4c([H])c([H])c(F)c([H])c4F)c([H])c3[H])c(C(=O)N([H])[H])c2N([H])[H])C1([H])[H]

$$$$
66:0:0
     RDKit          3D

 94102  0  0  1  0  0  0  0  0999 V2000
  -28.5690  -22.1590   20.0780 C   0  0  0  0  0  0  0  0  0  0  0  0
  -29.3490  -21.0700   20.4670 N   0  0  0  0  0  0  0  0  0  0  0  0
  -27.5320  -21.9650   19.4440 O   0  0  0  0  0  0  0  0  0  0  0  0
  -30.1090  -21.3190   21.0860 H   0  0  0  0  0  0  0  0  0  0  0  0
  -30.5840  -14.8330   20.0140 C   0  0  0  0  0  0  0  0  0  0  0  0
  -30.2760  -12.5870   18.9330 C   0  0  0  0  0  2  0  0  0  0  0  0
  -29.2640  -12.6900   17.7730 C   0  0  0  0  0  2  0  0  0  0  0  0
  -27.8290  -12.4960   18.2950 C   0  0  0  0  0  2  0  0  0  0  0  0
  -27.5370  -13.3550   19.5540 C   0  0  0  0  0  3  0  0  0  0  0  0
  -28.6640  -13.2470   20.6030 C   0  0  0  0  0  2  0  0  0  0  0  0
  -29.9220  -13.6190   19.9410 N   0  0  0  0  0  0  0  0  0  0  0  0
  -31.6900  -14.9400   19.4710 O   0  0  0  0  0  0  0  0  0  0  0  0
  -29.8660  -18.5680   20.7750 C   0  0  0  0  0  3  0  0  0  0  0  0
  -29.6170  -17.2510   20.1380 C   0  0  0  0  0  0  0  0  0  0  0  0
  -29.2800  -19.6910   20.1580 C   0  0  0  0  0  0  0  0  0  0  0  0
  -30.3370  -15.9400   22.1240 C   0  0  0  0  0  1  0  0  0  0  0  0
  -28.8700  -17.3530   19.0550 N   0  0  0  0  0  0  0  0  0  0  0  0
  -30.0260  -15.9230   20.6920 N   0  0  0  0  0  0  0  0  0  0  0  0
  -28.4340  -18.9850   18.7970 S   0  0  0  0  0  0  0  0  0  0  0  0
  -25.2130  -13.9270   20.4700 C   0  0  0  0  0  0  0  0  0  0  0  0
  -24.1710  -13.1460   20.8860 C   0  0  0  0  0  0  0  0  0  0  0  0
  -24.6200  -11.7940   20.7750 C   0  0  0  0  0  0  0  0  0  0  0  0
  -26.2310  -13.0520   20.1270 N   0  0  0  0  0  0  0  0  0  0  0  0
  -25.8860  -11.7610   20.3730 N   0  0  0  0  0  0  0  0  0  0  0  0
  -23.8990  -10.5300   20.9730 C   0  0  0  0  0  0  0  0  0  0  0  0
  -24.3570   -9.5520   21.8820 C   0  0  0  0  0  3  0  0  0  0  0  0
  -23.6360   -8.3540   22.0690 C   0  0  0  0  0  3  0  0  0  0  0  0
  -22.4410   -8.1250   21.3470 C   0  0  0  0  0  0  0  0  0  0  0  0
  -22.0010   -9.0920   20.4240 C   0  0  0  0  0  3  0  0  0  0  0  0
  -22.7230  -10.2820   20.2370 C   0  0  0  0  0  3  0  0  0  0  0  0
  -21.6880   -6.9800   21.4450 O   0  0  0  0  0  0  0  0  0  0  0  0
  -21.6290   -6.2520   22.6060 C   0  0  0  0  0  0  0  0  0  0  0  0
  -21.1830   -6.8220   23.8200 C   0  0  0  0  0  3  0  0  0  0  0  0
  -21.0720   -6.0210   24.9730 C   0  0  0  0  0  3  0  0  0  0  0  0
  -21.3960   -4.6530   24.9170 C   0  0  0  0  0  0  0  0  0  0  0  0
  -21.8340   -4.0820   23.7080 C   0  0  0  0  0  3  0  0  0  0  0  0
  -21.9470   -4.8790   22.5550 C   0  0  0  0  0  0  0  0  0  0  0  0
  -22.3500   -4.3210   21.3890 F   0  0  0  0  0  0  0  0  0  0  0  0
  -21.2810   -3.8810   26.0230 F   0  0  0  0  0  0  0  0  0  0  0  0
  -22.8000  -13.6200   21.2710 C   0  0  0  0  0  0  0  0  0  0  0  0
  -22.1320  -12.9010   22.1660 N   0  0  0  0  0  0  0  0  0  0  0  0
  -22.3310  -14.6610   20.8140 O   0  0  0  0  0  0  0  0  0  0  0  0
  -22.5250  -12.0580   22.5580 H   0  0  0  0  0  0  0  0  0  0  0  0
  -21.2140  -13.1980   22.4640 H   0  0  0  0  0  0  0  0  0  0  0  0
  -25.3730  -15.3040   20.3300 N   0  0  0  0  0  0  0  0  0  0  0  0
  -24.6170  -15.9520   20.5190 H   0  0  0  0  0  0  0  0  0  0  0  0
  -26.1990  -15.7540   19.9570 H   0  0  0  0  0  0  0  0  0  0  0  0
  -28.9130  -23.6850   20.4950 C   0  0  0  0  0  2  0  0  0  0  0  0
  -28.3560  -24.9820   19.6540 C   0  0  0  0  0  3  0  0  0  0  0  0
  -28.6690  -24.1150   17.1890 C   0  0  0  0  0  1  0  0  0  0  0  0
  -30.5940  -25.2230   18.3880 C   0  0  0  0  0  1  0  0  0  0  0  0
  -29.0640  -25.1440   18.2620 C   0  0  2  0  0  0  0  0  0  0  0  0
  -28.6740  -26.3050   17.7330 F   0  0  0  0  0  0  0  0  0  0  0  0
  -28.3650  -26.3860   20.2640 O   0  0  0  0  0  0  0  0  0  0  0  0
  -24.6140  -31.9050   23.2270 C   0  0  0  0  0  0  0  0  0  0  0  0
  -27.2650  -27.2910   20.1770 C   0  0  0  0  0  0  0  0  0  0  0  0
  -23.4320  -30.4910   21.5900 C   0  0  0  0  0  3  0  0  0  0  0  0
  -24.8990  -28.9500   20.1650 C   0  0  0  0  0  0  0  0  0  0  0  0
  -25.9780  -30.8020   21.4320 C   0  0  0  0  0  2  0  0  0  0  0  0
  -26.0670  -29.4210   20.7780 C   0  0  0  0  0  0  0  0  0  0  0  0
  -27.2460  -28.6010   20.7800 C   0  0  0  0  0  3  0  0  0  0  0  0
  -26.0730  -26.9150   19.5130 C   0  0  0  0  0  3  0  0  0  0  0  0
  -24.9100  -27.7080   19.5210 C   0  0  0  0  0  3  0  0  0  0  0  0
  -23.6600  -29.8230   20.2100 C   0  0  0  0  0  2  0  0  0  0  0  0
  -24.6930  -31.0860   22.1360 N   0  0  0  0  0  0  0  0  0  0  0  0
  -23.5250  -32.1770   23.7530 O   0  0  0  0  0  0  0  0  0  0  0  0
  -22.7720  -29.4690   22.5490 C   0  0  0  0  0  0  0  0  0  0  0  0
  -21.4450  -29.2880   22.4250 N   0  0  0  0  0  0  0  0  0  0  0  0
  -23.4530  -28.8470   23.3670 O   0  0  0  0  0  0  0  0  0  0  0  0
  -20.9520  -29.8400   21.7380 H   0  0  0  0  0  0  0  0  0  0  0  0
  -18.0760  -28.0740   22.9480 C   0  0  0  0  0  0  0  0  0  0  0  0
  -20.6350  -28.3460   23.2000 C   0  0  0  0  0  3  0  0  0  0  0  0
  -20.7390  -26.9160   22.6220 C   0  0  0  0  0  2  0  0  0  0  0  0
  -19.6310  -26.5900   21.6140 C   0  0  0  0  0  2  0  0  0  0  0  0
  -18.2530  -26.7280   22.2670 C   0  0  0  0  0  2  0  0  0  0  0  0
  -19.1940  -28.8410   23.3730 C   0  0  0  0  0  0  0  0  0  0  0  0
  -18.9720  -30.1000   23.9710 C   0  0  0  0  0  3  0  0  0  0  0  0
  -17.6660  -30.5950   24.1450 C   0  0  0  0  0  3  0  0  0  0  0  0
  -16.5620  -29.8270   23.7350 C   0  0  0  0  0  3  0  0  0  0  0  0
  -16.7680  -28.5680   23.1430 C   0  0  0  0  0  3  0  0  0  0  0  0
  -25.8870  -32.5530   23.8510 C   0  0  0  0  0  3  0  0  0  0  0  0
  -26.4070  -31.7950   25.1360 C   0  0  1  0  0  0  0  0  0  0  0  0
  -25.3100  -31.5510   26.1970 C   0  0  0  0  0  1  0  0  0  0  0  0
  -27.0110  -30.4210   24.7630 C   0  0  0  0  0  1  0  0  0  0  0  0
  -27.5450  -32.6100   25.7970 C   0  0  0  0  0  1  0  0  0  0  0  0
  -25.5590  -33.9500   24.1740 N   0  0  0  0  0  0  0  0  0  0  0  0
  -25.8790  -35.0050   23.4140 C   0  0  0  0  0  0  0  0  0  0  0  0
  -26.5460  -34.9060   22.3820 O   0  0  0  0  0  0  0  0  0  0  0  0
  -24.9630  -34.1010   24.9750 H   0  0  0  0  0  0  0  0  0  0  0  0
  -24.1270  -36.7770   23.0610 C   0  0  0  0  0  1  0  0  0  0  0  0
  -25.3760  -36.3890   23.8700 C   0  0  0  0  0  3  0  0  0  0  0  0
  -27.5000  -37.3020   24.6940 C   0  0  0  0  0  1  0  0  0  0  0  0
  -26.3950  -37.4550   23.7520 N   0  0  0  0  0  0  0  0  0  0  0  0
  -25.9780  -38.3710   23.8960 H   0  0  0  0  0  0  0  0  0  0  0  0
  1  2  1  0
  1 48  1  0
  2  4  1  0
  3  1  2  0
  5 18  1  0
  6 11  1  0
  7  8  1  0
  7  6  1  0
  9  8  1  0
  9 23  1  0
  9 10  1  0
 11  5  1  0
 11 10  1  0
 12  5  2  0
 14 18  1  0
 14 13  1  0
 15  2  1  0
 15 13  2  0
 17 14  2  0
 18 16  1  0
 19 17  1  0
 19 15  1  0
 20 21  2  0
 21 40  1  0
 22 21  1  0
 22 25  1  0
 23 24  1  0
 23 20  1  0
 24 22  2  0
 25 26  1  0
 26 27  2  0
 28 31  1  0
 28 27  1  0
 29 28  2  0
 30 29  1  0
 30 25  2  0
 31 32  1  0
 32 33  1  0
 33 34  2  0
 35 34  1  0
 35 39  1  0
 36 35  2  0
 37 32  2  0
 37 36  1  0
 38 37  1  0
 40 41  1  0
 41 44  1  0
 41 43  1  0
 42 40  2  0
 45 20  1  0
 45 46  1  0
 47 45  1  0
 49 54  1  0
 49 48  1  0
 52 50  1  6
 52 51  1  0
 52 49  1  0
 53 52  1  0
 55 66  2  0
 56 54  1  0
 56 61  1  0
 57 65  1  0
 57 67  1  0
 58 64  1  0
 58 60  1  0
 59 65  1  0
 60 61  2  0
 60 59  1  0
 62 63  1  0
 62 56  2  0
 63 58  2  0
 64 57  1  0
 65 55  1  0
 67 69  2  0
 68 67  1  0
 70 68  1  0
 71 80  2  0
 71 76  1  0
 72 68  1  0
 72 76  1  0
 73 72  1  0
 74 75  1  0
 74 73  1  0
 75 71  1  0
 76 77  2  0
 77 78  1  0
 79 78  2  0
 80 79  1  0
 81 55  1  0
 81 86  1  0
 81 82  1  0
 82 85  1  1
 82 83  1  0
 84 82  1  0
 86 89  1  0
 87 91  1  0
 87 86  1  0
 88 87  2  0
 91 90  1  0
 93 91  1  0
 93 94  1  0
 93 92  1  0
M  ISO  4   5 100  18 100  49 101  54 101
M  END
>  <TORSDO>  (66) 
F 19

>  <SCORE>  (66) 
-14.135

>  <name>  (66) 
66

>  <ligand_id>  (66) 
66

>  <original_smiles>  (66) 
[H]c1c(N(C(=O)N2C([H])([H])C([H])([H])C([H])([H])C([H])(n3nc(-c4c([H])c([H])c(Oc5c([H])c([H])c(F)c([H])c5F)c([H])c4[H])c(C(=O)N([H])[H])c3N([H])[H])C2([H])[H])C([H])([H])[H])nsc1N([H])C(=O)C([H])([H])C([H])(Oc1c([H])c([H])c2c(c1[H])C([H])([H])N(C(=O)C([H])(N([H])C(=O)C([H])(N([H])C([H])([H])[H])C([H])([H])[H])C(C([H])([H])[H])(C([H])([H])[H])C([H])([H])[H])C([H])(C(=O)N([H])C1([H])c3c([H])c([H])c([H])c([H])c3C([H])([H])C([H])([H])C1([H])[H])C2([H])[H])C(F)(C([H])([H])[H])C([H])([H])[H]

>  <smiles>  (66) 
[H]c1c(N(C(=O)N2C([H])([H])C([H])([H])C([H])([H])C([H])(n3nc(-c4c([H])c([H])c(Oc5c([H])c([H])c(F)c([H])c5F)c([H])c4[H])c(C(=O)N([H])[H])c3N([H])[H])C2([H])[H])C([H])([H])[H])nsc1N([H])C(=O)C([H])([H])C([H])(Oc1c([H])c([H])c2c(c1[H])C([H])([H])N(C(=O)C([H])(N([H])C(=O)C([H])(N([H])C([H])([H])[H])C([H])([H])[H])C(C([H])([H])[H])(C([H])([H])[H])C([H])([H])[H])C([H])(C(=O)N([H])C1([H])c3c([H])c([H])c([H])c([H])c3C([H])([H])C([H])([H])C1([H])[H])C2([H])[H])C(F)(C([H])([H])[H])C([H])([H])[H]

$$$$
67:0:0
     RDKit          3D

 93101  0  0  1  0  0  0  0  0999 V2000
  -30.0300  -20.9230   20.8590 C   0  0  0  0  0  0  0  0  0  0  0  0
  -29.3710  -21.7890   20.0590 N   0  0  0  0  0  0  0  0  0  0  0  0
  -30.8330  -21.2980   21.7180 O   0  0  0  0  0  0  0  0  0  0  0  0
  -28.7090  -21.3640   19.4220 H   0  0  0  0  0  0  0  0  0  0  0  0
  -29.0800  -17.4970   19.6100 C   0  0  0  0  0  0  0  0  0  0  0  0
  -29.7820  -16.9220   20.6530 C   0  0  0  0  0  0  0  0  0  0  0  0
  -29.7800  -19.4450   20.6080 C   0  0  0  0  0  0  0  0  0  0  0  0
  -28.2930  -16.7950   18.5470 C   0  0  0  0  0  1  0  0  0  0  0  0
  -29.0850  -18.9030   19.6000 N   0  0  0  0  0  0  0  0  0  0  0  0
  -30.5090  -18.1910   21.6360 S   0  0  0  0  0  0  0  0  0  0  0  0
  -30.5830  -14.6230   20.4450 C   0  0  0  0  0  0  0  0  0  0  0  0
  -30.3590  -12.4510   19.2860 C   0  0  0  0  0  2  0  0  0  0  0  0
  -29.3910  -12.6380   18.0960 C   0  0  0  0  0  2  0  0  0  0  0  0
  -27.9230  -12.4770   18.5430 C   0  0  0  0  0  2  0  0  0  0  0  0
  -27.5900  -13.2800   19.8300 C   0  0  0  0  0  3  0  0  0  0  0  0
  -28.6660  -13.0520   20.9150 C   0  0  0  0  0  2  0  0  0  0  0  0
  -29.9730  -13.4080   20.3360 N   0  0  0  0  0  0  0  0  0  0  0  0
  -31.6990  -14.8550   19.9680 O   0  0  0  0  0  0  0  0  0  0  0  0
  -29.8260  -15.5960   21.0020 N   0  0  0  0  0  0  0  0  0  0  0  0
  -28.9860  -15.2440   21.4380 H   0  0  0  0  0  0  0  0  0  0  0  0
  -25.1900  -13.8460   20.5720 C   0  0  0  0  0  0  0  0  0  0  0  0
  -24.1390  -13.0520   20.9420 C   0  0  0  0  0  0  0  0  0  0  0  0
  -24.6200  -11.7080   20.8880 C   0  0  0  0  0  0  0  0  0  0  0  0
  -26.2470  -12.9820   20.3190 N   0  0  0  0  0  0  0  0  0  0  0  0
  -25.9070  -11.6920   20.5660 N   0  0  0  0  0  0  0  0  0  0  0  0
  -23.9160  -10.4330   21.0720 C   0  0  0  0  0  0  0  0  0  0  0  0
  -24.3610   -9.4720   22.0050 C   0  0  0  0  0  3  0  0  0  0  0  0
  -23.6580   -8.2600   22.1750 C   0  0  0  0  0  3  0  0  0  0  0  0
  -22.4950   -8.0010   21.4110 C   0  0  0  0  0  0  0  0  0  0  0  0
  -22.0690   -8.9530   20.4660 C   0  0  0  0  0  3  0  0  0  0  0  0
  -22.7740  -10.1560   20.2950 C   0  0  0  0  0  3  0  0  0  0  0  0
  -21.7610   -6.8420   21.4900 O   0  0  0  0  0  0  0  0  0  0  0  0
  -21.7030   -6.1060   22.6460 C   0  0  0  0  0  0  0  0  0  0  0  0
  -21.1990   -6.6460   23.8490 C   0  0  0  0  0  3  0  0  0  0  0  0
  -21.0920   -5.8330   24.9960 C   0  0  0  0  0  3  0  0  0  0  0  0
  -21.4780   -4.4810   24.9390 C   0  0  0  0  0  0  0  0  0  0  0  0
  -21.9760   -3.9390   23.7410 C   0  0  0  0  0  3  0  0  0  0  0  0
  -22.0850   -4.7500   22.5970 C   0  0  0  0  0  0  0  0  0  0  0  0
  -22.5450   -4.2190   21.4380 F   0  0  0  0  0  0  0  0  0  0  0  0
  -21.3690   -3.6980   26.0380 F   0  0  0  0  0  0  0  0  0  0  0  0
  -22.7370  -13.5040   21.2390 C   0  0  0  0  0  0  0  0  0  0  0  0
  -22.0290  -12.7810   22.0970 N   0  0  0  0  0  0  0  0  0  0  0  0
  -22.2800  -14.5340   20.7450 O   0  0  0  0  0  0  0  0  0  0  0  0
  -22.4130  -11.9480   22.5190 H   0  0  0  0  0  0  0  0  0  0  0  0
  -21.0900  -13.0640   22.3370 H   0  0  0  0  0  0  0  0  0  0  0  0
  -25.3310  -15.2210   20.4140 N   0  0  0  0  0  0  0  0  0  0  0  0
  -24.5570  -15.8600   20.5560 H   0  0  0  0  0  0  0  0  0  0  0  0
  -26.1750  -15.6870   20.1080 H   0  0  0  0  0  0  0  0  0  0  0  0
  -29.7390  -23.2070   19.8050 C   0  0  0  0  0  2  0  0  0  0  0  0
  -28.7200  -24.2840   20.2640 C   0  0  0  0  0  0  0  0  0  0  0  0
  -27.9380  -24.0710   21.1960 O   0  0  0  0  0  0  0  0  0  0  0  0
  -28.7240  -25.6350   19.4900 C   0  0  0  0  0  2  0  0  0  0  0  0
  -28.4870  -26.7990   20.3210 O   0  0  0  0  0  0  0  0  0  0  0  0
  -24.5920  -31.9730   23.3050 C   0  0  0  0  0  0  0  0  0  0  0  0
  -27.2930  -27.5040   20.2670 C   0  0  0  0  0  0  0  0  0  0  0  0
  -23.4050  -30.5470   21.6700 C   0  0  0  0  0  3  0  0  0  0  0  0
  -24.8790  -29.0070   20.2620 C   0  0  0  0  0  0  0  0  0  0  0  0
  -25.9310  -30.9190   21.4820 C   0  0  0  0  0  2  0  0  0  0  0  0
  -26.0310  -29.5410   20.8520 C   0  0  0  0  0  0  0  0  0  0  0  0
  -27.2330  -28.7950   20.8550 C   0  0  0  0  0  3  0  0  0  0  0  0
  -26.1140  -26.9870   19.6790 C   0  0  0  0  0  3  0  0  0  0  0  0
  -24.9170  -27.7300   19.6760 C   0  0  0  0  0  3  0  0  0  0  0  0
  -23.6280  -29.8570   20.2970 C   0  0  0  0  0  2  0  0  0  0  0  0
  -24.6610  -31.1630   22.2110 N   0  0  0  0  0  0  0  0  0  0  0  0
  -23.5060  -32.2410   23.8390 O   0  0  0  0  0  0  0  0  0  0  0  0
  -22.7590  -29.5290   22.6380 C   0  0  0  0  0  0  0  0  0  0  0  0
  -21.4390  -29.3190   22.4950 N   0  0  0  0  0  0  0  0  0  0  0  0
  -23.4410  -28.9300   23.4730 O   0  0  0  0  0  0  0  0  0  0  0  0
  -20.9490  -29.8560   21.7930 H   0  0  0  0  0  0  0  0  0  0  0  0
  -18.0820  -28.0650   22.9570 C   0  0  0  0  0  0  0  0  0  0  0  0
  -20.6300  -28.3780   23.2670 C   0  0  0  0  0  3  0  0  0  0  0  0
  -20.7690  -26.9400   22.7140 C   0  0  0  0  0  2  0  0  0  0  0  0
  -19.6910  -26.5810   21.6870 C   0  0  0  0  0  2  0  0  0  0  0  0
  -18.2960  -26.7090   22.3070 C   0  0  0  0  0  2  0  0  0  0  0  0
  -19.1780  -28.8550   23.3940 C   0  0  0  0  0  0  0  0  0  0  0  0
  -18.9250  -30.1240   23.9600 C   0  0  0  0  0  3  0  0  0  0  0  0
  -17.6080  -30.6020   24.0960 C   0  0  0  0  0  3  0  0  0  0  0  0
  -16.5260  -29.8090   23.6770 C   0  0  0  0  0  3  0  0  0  0  0  0
  -16.7640  -28.5430   23.1140 C   0  0  0  0  0  3  0  0  0  0  0  0
  -25.8690  -32.6220   23.9250 C   0  0  0  0  0  3  0  0  0  0  0  0
  -26.3710  -31.8850   25.2270 C   0  0  1  0  0  0  0  0  0  0  0  0
  -25.2660  -31.6700   26.2860 C   0  0  0  0  0  1  0  0  0  0  0  0
  -26.9640  -30.5010   24.8760 C   0  0  0  0  0  1  0  0  0  0  0  0
  -27.5110  -32.7000   25.8840 C   0  0  0  0  0  1  0  0  0  0  0  0
  -25.5570  -34.0280   24.2130 N   0  0  0  0  0  0  0  0  0  0  0  0
  -25.9000  -35.0590   23.4290 C   0  0  0  0  0  0  0  0  0  0  0  0
  -26.5850  -34.9270   22.4100 O   0  0  0  0  0  0  0  0  0  0  0  0
  -24.9520  -34.2050   25.0010 H   0  0  0  0  0  0  0  0  0  0  0  0
  -24.1850  -36.8460   22.9920 C   0  0  0  0  0  1  0  0  0  0  0  0
  -25.4070  -36.4600   23.8400 C   0  0  0  0  0  3  0  0  0  0  0  0
  -27.5220  -37.3640   24.7010 C   0  0  0  0  0  1  0  0  0  0  0  0
  -26.4460  -37.5070   23.7250 N   0  0  0  0  0  0  0  0  0  0  0  0
  -26.0390  -38.4330   23.8340 H   0  0  0  0  0  0  0  0  0  0  0  0
  1  3  2  0
  2  1  1  0
  4  2  1  0
  5  6  2  0
  6 19  1  0
  6 10  1  0
  7  1  1  0
  7 10  1  0
  8  5  1  0
  9  5  1  0
  9  7  2  0
 11 19  1  0
 12 17  1  0
 13 14  1  0
 13 12  1  0
 15 14  1  0
 15 24  1  0
 15 16  1  0
 17 11  1  0
 17 16  1  0
 18 11  2  0
 19 20  1  0
 21 22  2  0
 22 41  1  0
 23 22  1  0
 23 26  1  0
 24 25  1  0
 24 21  1  0
 25 23  2  0
 26 27  1  0
 27 28  2  0
 29 32  1  0
 29 28  1  0
 30 29  2  0
 31 30  1  0
 31 26  2  0
 32 33  1  0
 33 34  1  0
 34 35  2  0
 36 35  1  0
 36 40  1  0
 37 36  2  0
 38 33  2  0
 38 37  1  0
 39 38  1  0
 41 42  1  0
 42 45  1  0
 42 44  1  0
 43 41  2  0
 46 47  1  0
 46 21  1  0
 48 46  1  0
 49  2  1  0
 49 50  1  0
 50 51  2  0
 52 50  1  0
 52 53  1  0
 54 65  2  0
 55 53  1  0
 55 60  1  0
 56 64  1  0
 56 66  1  0
 57 63  1  0
 57 59  1  0
 58 64  1  0
 59 60  2  0
 59 58  1  0
 61 55  2  0
 62 61  1  0
 62 57  2  0
 63 56  1  0
 64 54  1  0
 66 68  2  0
 67 66  1  0
 69 67  1  0
 70 79  2  0
 70 75  1  0
 71 67  1  0
 71 75  1  0
 72 71  1  0
 73 74  1  0
 73 72  1  0
 74 70  1  0
 75 76  2  0
 76 77  1  0
 78 77  2  0
 79 78  1  0
 80 54  1  0
 80 85  1  0
 80 81  1  0
 81 84  1  1
 81 82  1  0
 83 81  1  0
 85 88  1  0
 86 90  1  0
 86 85  1  0
 87 86  2  0
 90 89  1  0
 92 93  1  0
 92 90  1  0
 92 91  1  0
M  ISO  4  11 100  19 100  52 101  53 101
M  END
>  <TORSDO>  (67) 
F 20

>  <SCORE>  (67) 
-13.902

>  <name>  (67) 
67

>  <ligand_id>  (67) 
67

>  <original_smiles>  (67) 
[H]c1c([H])c([H])c2c(c1[H])C([H])([H])C([H])([H])C([H])([H])C2([H])N([H])C(=O)C1([H])N(C(=O)C([H])(N([H])C(=O)C([H])(N([H])C([H])([H])[H])C([H])([H])[H])C(C([H])([H])[H])(C([H])([H])[H])C([H])([H])[H])C([H])([H])c2c([H])c(OC([H])([H])C(=O)C([H])([H])N([H])C(=O)c3nc(C([H])([H])[H])c(N([H])C(=O)N4C([H])([H])C([H])([H])C([H])([H])C([H])(n5nc(-c6c([H])c([H])c(Oc7c([H])c([H])c(F)c([H])c7F)c([H])c6[H])c(C(=O)N([H])[H])c5N([H])[H])C4([H])[H])s3)c([H])c([H])c2C1([H])[H]

>  <smiles>  (67) 
[H]c1c([H])c([H])c2c(c1[H])C([H])([H])C([H])([H])C([H])([H])C2([H])N([H])C(=O)C1([H])N(C(=O)C([H])(N([H])C(=O)C([H])(N([H])C([H])([H])[H])C([H])([H])[H])C(C([H])([H])[H])(C([H])([H])[H])C([H])([H])[H])C([H])([H])c2c([H])c(OC([H])([H])C(=O)C([H])([H])N([H])C(=O)c3nc(C([H])([H])[H])c(N([H])C(=O)N4C([H])([H])C([H])([H])C([H])([H])C([H])(n5nc(-c6c([H])c([H])c(Oc7c([H])c([H])c(F)c([H])c7F)c([H])c6[H])c(C(=O)N([H])[H])c5N([H])[H])C4([H])[H])s3)c([H])c([H])c2C1([H])[H]

$$$$
68:0:0
     RDKit          3D

 98106  0  0  1  0  0  0  0  0999 V2000
  -28.8260  -22.4040   20.6040 C   0  0  0  0  0  3  0  0  0  0  0  0
  -30.8390  -15.1200   19.9950 C   0  0  0  0  0  0  0  0  0  0  0  0
  -30.6210  -12.8350   18.9630 C   0  0  0  0  0  2  0  0  0  0  0  0
  -29.6200  -12.8800   17.7860 C   0  0  0  0  0  2  0  0  0  0  0  0
  -28.1740  -12.6900   18.2890 C   0  0  0  0  0  2  0  0  0  0  0  0
  -27.8510  -13.5710   19.5250 C   0  0  0  0  0  3  0  0  0  0  0  0
  -28.9670  -13.5010   20.5900 C   0  0  0  0  0  2  0  0  0  0  0  0
  -30.2150  -13.8890   19.9230 N   0  0  0  0  0  0  0  0  0  0  0  0
  -32.0300  -15.1960   19.6680 O   0  0  0  0  0  0  0  0  0  0  0  0
  -31.0710  -19.0190   22.0690 C   0  0  0  0  0  0  0  0  0  0  0  0
  -30.2700  -17.6300   20.5180 C   0  0  0  0  0  0  0  0  0  0  0  0
  -29.8230  -19.9300   20.4860 C   0  0  0  0  0  0  0  0  0  0  0  0
  -31.0040  -17.7780   21.6190 N   0  0  0  0  0  4  0  0  0  0  0  0
  -30.5370  -20.1240   21.5830 N   0  0  0  0  0  0  0  0  0  0  0  0
  -29.6380  -18.6980   19.9080 N   0  0  0  0  0  2  0  0  0  0  0  0
  -31.8250  -19.1830   23.1890 N   0  0  0  0  0  0  0  0  0  0  0  0
  -30.0390  -16.2620   20.1200 N   0  0  0  0  0  0  0  0  0  0  0  0
  -29.3150  -21.1420   19.8910 N   0  0  0  0  0  0  0  0  0  0  0  0
  -32.0220  -18.3550   23.7320 H   0  0  0  0  0  0  0  0  0  0  0  0
  -31.6670  -20.0280   23.7220 H   0  0  0  0  0  0  0  0  0  0  0  0
  -29.0610  -16.0490   20.0290 H   0  0  0  0  0  0  0  0  0  0  0  0
  -28.7970  -20.9620   19.0400 H   0  0  0  0  0  0  0  0  0  0  0  0
  -25.5220  -14.1500   20.4230 C   0  0  0  0  0  0  0  0  0  0  0  0
  -24.4700  -13.3700   20.8190 C   0  0  0  0  0  0  0  0  0  0  0  0
  -24.9130  -12.0170   20.6990 C   0  0  0  0  0  0  0  0  0  0  0  0
  -26.5370  -13.2730   20.0820 N   0  0  0  0  0  0  0  0  0  0  0  0
  -26.1820  -11.9810   20.3110 N   0  0  0  0  0  0  0  0  0  0  0  0
  -24.1820  -10.7550   20.8740 C   0  0  0  0  0  0  0  0  0  0  0  0
  -24.5960   -9.7860   21.8140 C   0  0  0  0  0  3  0  0  0  0  0  0
  -23.8640   -8.5900   21.9770 C   0  0  0  0  0  3  0  0  0  0  0  0
  -22.7080   -8.3530   21.1970 C   0  0  0  0  0  0  0  0  0  0  0  0
  -22.3140   -9.3110   20.2460 C   0  0  0  0  0  3  0  0  0  0  0  0
  -23.0460  -10.4990   20.0830 C   0  0  0  0  0  3  0  0  0  0  0  0
  -21.9490   -7.2090   21.2690 O   0  0  0  0  0  0  0  0  0  0  0  0
  -21.7990   -6.5170   22.4440 C   0  0  0  0  0  0  0  0  0  0  0  0
  -21.2250   -7.1100   23.5900 C   0  0  0  0  0  3  0  0  0  0  0  0
  -21.0260   -6.3420   24.7550 C   0  0  0  0  0  3  0  0  0  0  0  0
  -21.3920   -4.9820   24.7730 C   0  0  0  0  0  0  0  0  0  0  0  0
  -21.9600   -4.3900   23.6320 C   0  0  0  0  0  3  0  0  0  0  0  0
  -22.1610   -5.1550   22.4710 C   0  0  0  0  0  0  0  0  0  0  0  0
  -22.6880   -4.5740   21.3660 F   0  0  0  0  0  0  0  0  0  0  0  0
  -21.1960   -4.2420   25.8890 F   0  0  0  0  0  0  0  0  0  0  0  0
  -23.0960  -13.8480   21.1890 C   0  0  0  0  0  0  0  0  0  0  0  0
  -22.4110  -13.1280   22.0700 N   0  0  0  0  0  0  0  0  0  0  0  0
  -22.6420  -14.8960   20.7320 O   0  0  0  0  0  0  0  0  0  0  0  0
  -22.7910  -12.2810   22.4640 H   0  0  0  0  0  0  0  0  0  0  0  0
  -21.4910  -13.4330   22.3560 H   0  0  0  0  0  0  0  0  0  0  0  0
  -25.6900  -15.5260   20.3000 N   0  0  0  0  0  0  0  0  0  0  0  0
  -24.9330  -16.1740   20.4910 H   0  0  0  0  0  0  0  0  0  0  0  0
  -26.4870  -15.9760   19.8720 H   0  0  0  0  0  0  0  0  0  0  0  0
  -27.3270  -22.2220   20.9120 C   0  0  0  0  0  3  0  0  0  0  0  0
  -26.6080  -22.2970   19.7910 F   0  0  0  0  0  0  0  0  0  0  0  0
  -27.1030  -21.0430   21.4960 F   0  0  0  0  0  0  0  0  0  0  0  0
  -29.0890  -23.8750   19.9140 C   0  0  0  0  0  3  0  0  0  0  0  0
  -30.5030  -23.9510   19.9260 O   0  0  0  0  0  0  0  0  0  0  0  0
  -30.8100  -23.0680   19.7330 H   0  0  0  0  0  0  0  0  0  0  0  0
  -28.4930  -25.2590   20.5860 C   0  0  0  0  0  2  0  0  0  0  0  0
  -28.5870  -26.6510   19.9850 O   0  0  0  0  0  0  0  0  0  0  0  0
  -24.7320  -31.9630   23.1800 C   0  0  0  0  0  0  0  0  0  0  0  0
  -27.4640  -27.5160   20.0100 C   0  0  0  0  0  0  0  0  0  0  0  0
  -23.5660  -30.5750   21.5060 C   0  0  0  0  0  3  0  0  0  0  0  0
  -25.0590  -29.0960   20.0340 C   0  0  0  0  0  0  0  0  0  0  0  0
  -26.0970  -30.9610   21.3230 C   0  0  0  0  0  2  0  0  0  0  0  0
  -26.2190  -29.5970   20.6410 C   0  0  0  0  0  0  0  0  0  0  0  0
  -27.4280  -28.8240   20.6080 C   0  0  0  0  0  3  0  0  0  0  0  0
  -26.2790  -27.0840   19.3790 C   0  0  0  0  0  3  0  0  0  0  0  0
  -25.0950  -27.8500   19.3890 C   0  0  0  0  0  3  0  0  0  0  0  0
  -23.7980  -29.9390   20.1080 C   0  0  0  0  0  2  0  0  0  0  0  0
  -24.8170  -31.1850   22.0600 N   0  0  0  0  0  0  0  0  0  0  0  0
  -23.6410  -32.1920   23.7260 O   0  0  0  0  0  0  0  0  0  0  0  0
  -22.9380  -29.5140   22.4440 C   0  0  0  0  0  0  0  0  0  0  0  0
  -21.6160  -29.3020   22.3240 N   0  0  0  0  0  0  0  0  0  0  0  0
  -23.6410  -28.8850   23.2390 O   0  0  0  0  0  0  0  0  0  0  0  0
  -21.1040  -29.8680   21.6620 H   0  0  0  0  0  0  0  0  0  0  0  0
  -18.2740  -28.0130   22.8470 C   0  0  0  0  0  0  0  0  0  0  0  0
  -20.8320  -28.3180   23.0740 C   0  0  0  0  0  3  0  0  0  0  0  0
  -20.9500  -26.9120   22.4390 C   0  0  0  0  0  2  0  0  0  0  0  0
  -19.8330  -26.6040   21.4370 C   0  0  0  0  0  2  0  0  0  0  0  0
  -18.4640  -26.6940   22.1160 C   0  0  0  0  0  2  0  0  0  0  0  0
  -19.3860  -28.7810   23.2840 C   0  0  0  0  0  0  0  0  0  0  0  0
  -19.1530  -30.0150   23.9320 C   0  0  0  0  0  3  0  0  0  0  0  0
  -17.8410  -30.4790   24.1460 C   0  0  0  0  0  3  0  0  0  0  0  0
  -16.7450  -29.7080   23.7220 C   0  0  0  0  0  3  0  0  0  0  0  0
  -16.9620  -28.4760   23.0790 C   0  0  0  0  0  3  0  0  0  0  0  0
  -25.9950  -32.6220   23.8160 C   0  0  0  0  0  3  0  0  0  0  0  0
  -26.5200  -31.8540   25.0900 C   0  0  1  0  0  0  0  0  0  0  0  0
  -25.4260  -31.5770   26.1460 C   0  0  0  0  0  1  0  0  0  0  0  0
  -27.1440  -30.4960   24.6930 C   0  0  0  0  0  1  0  0  0  0  0  0
  -27.6420  -32.6740   25.7690 C   0  0  0  0  0  1  0  0  0  0  0  0
  -25.6500  -34.0110   24.1580 N   0  0  0  0  0  0  0  0  0  0  0  0
  -25.9550  -35.0790   23.4100 C   0  0  0  0  0  0  0  0  0  0  0  0
  -26.6260  -35.0010   22.3770 O   0  0  0  0  0  0  0  0  0  0  0  0
  -25.0550  -34.1410   24.9630 H   0  0  0  0  0  0  0  0  0  0  0  0
  -24.1850  -36.8360   23.0760 C   0  0  0  0  0  1  0  0  0  0  0  0
  -25.4380  -36.4520   23.8820 C   0  0  0  0  0  3  0  0  0  0  0  0
  -27.5470  -37.3840   24.7250 C   0  0  0  0  0  1  0  0  0  0  0  0
  -26.4450  -37.5300   23.7780 N   0  0  0  0  0  0  0  0  0  0  0  0
  -26.0160  -38.4390   23.9270 H   0  0  0  0  0  0  0  0  0  0  0  0
  1 51  1  0
  2 17  1  0
  3  8  1  0
  4  5  1  0
  4  3  1  0
  6  5  1  0
  6 26  1  0
  6  7  1  0
  8  2  1  0
  8  7  1  0
  9  2  2  0
 10 16  1  0
 11 13  2  0
 12 14  2  0
 13 10  2  0
 14 10  1  0
 15 12  1  0
 15 11  1  0
 16 20  1  0
 16 19  1  0
 17 11  1  0
 18 12  1  0
 18  1  1  0
 21 17  1  0
 22 18  1  0
 23 24  2  0
 24 43  1  0
 25 24  1  0
 25 28  1  0
 26 27  1  0
 26 23  1  0
 27 25  2  0
 28 29  1  0
 29 30  2  0
 31 34  1  0
 31 30  1  0
 32 31  2  0
 33 32  1  0
 33 28  2  0
 34 35  1  0
 35 40  2  0
 35 36  1  0
 36 37  2  0
 37 38  1  0
 38 42  1  0
 39 38  2  0
 40 39  1  0
 41 40  1  0
 43 44  1  0
 44 47  1  0
 44 46  1  0
 45 43  2  0
 48 23  1  0
 48 49  1  0
 50 48  1  0
 51 53  1  0
 52 51  1  0
 54 55  1  0
 54 57  1  0
 54  1  1  0
 56 55  1  0
 58 60  1  0
 58 57  1  0
 59 70  2  0
 60 65  1  0
 61 69  1  0
 61 71  1  0
 62 68  1  0
 62 64  1  0
 63 69  1  0
 64 63  1  0
 65 64  2  0
 66 67  1  0
 66 60  2  0
 67 62  2  0
 68 61  1  0
 69 59  1  0
 71 73  2  0
 72 71  1  0
 74 72  1  0
 75 84  2  0
 75 80  1  0
 76 72  1  0
 76 80  1  0
 77 76  1  0
 78 79  1  0
 78 77  1  0
 79 75  1  0
 80 81  2  0
 81 82  1  0
 83 82  2  0
 84 83  1  0
 85 59  1  0
 85 90  1  0
 85 86  1  0
 86 89  1  1
 86 87  1  0
 88 86  1  0
 90 93  1  0
 91 95  1  0
 91 90  1  0
 92 91  2  0
 95 94  1  0
 97 95  1  0
 97 98  1  0
 97 96  1  0
M  ISO  4   2 100  17 100  57 101  58 101
M  END
>  <TORSDO>  (68) 
F 20

>  <SCORE>  (68) 
-12.947

>  <name>  (68) 
68

>  <ligand_id>  (68) 
68

>  <original_smiles>  (68) 
[H]OC([H])(C([H])([H])Oc1c([H])c([H])c2c(c1[H])C([H])([H])N(C(=O)C([H])(N([H])C(=O)C([H])(N([H])C([H])([H])[H])C([H])([H])[H])C(C([H])([H])[H])(C([H])([H])[H])C([H])([H])[H])C([H])(C(=O)N([H])C1([H])c3c([H])c([H])c([H])c([H])c3C([H])([H])C([H])([H])C1([H])[H])C2([H])[H])C([H])(N([H])c1nc(N([H])[H])nc(N([H])C(=O)N2C([H])([H])C([H])([H])C([H])([H])C([H])(n3nc(-c4c([H])c([H])c(Oc5c([H])c([H])c(F)c([H])c5F)c([H])c4[H])c(C(=O)N([H])[H])c3N([H])[H])C2([H])[H])n1)C([H])(F)F

>  <smiles>  (68) 
[H]OC([H])(C([H])([H])Oc1c([H])c([H])c2c(c1[H])C([H])([H])N(C(=O)C([H])(N([H])C(=O)C([H])(N([H])C([H])([H])[H])C([H])([H])[H])C(C([H])([H])[H])(C([H])([H])[H])C([H])([H])[H])C([H])(C(=O)N([H])C1([H])c3c([H])c([H])c([H])c([H])c3C([H])([H])C([H])([H])C1([H])[H])C2([H])[H])C([H])(N([H])c1nc(N([H])[H])nc(N([H])C(=O)N2C([H])([H])C([H])([H])C([H])([H])C([H])(n3nc(-c4c([H])c([H])c(Oc5c([H])c([H])c(F)c([H])c5F)c([H])c4[H])c(C(=O)N([H])[H])c3N([H])[H])C2([H])[H])n1)C([H])(F)F

$$$$
69:0:0
     RDKit          3D

 95103  0  0  1  0  0  0  0  0999 V2000
  -30.5990  -14.8270   20.3970 C   0  0  0  0  0  0  0  0  0  0  0  0
  -30.3860  -12.5350   19.4330 C   0  0  0  0  0  2  0  0  0  0  0  0
  -29.4720  -12.5930   18.1930 C   0  0  0  0  0  2  0  0  0  0  0  0
  -27.9970  -12.4210   18.5970 C   0  0  0  0  0  2  0  0  0  0  0  0
  -27.6010  -13.3130   19.8060 C   0  0  0  0  0  3  0  0  0  0  0  0
  -28.6450  -13.2650   20.9410 C   0  0  0  0  0  2  0  0  0  0  0  0
  -29.9450  -13.6100   20.3520 N   0  0  0  0  0  0  0  0  0  0  0  0
  -31.8170  -14.8250   20.1880 O   0  0  0  0  0  0  0  0  0  0  0  0
  -31.5740  -18.9220   19.3380 C   0  0  0  0  0  0  0  0  0  0  0  0
  -30.1590  -17.4100   20.1890 C   0  0  0  0  0  0  0  0  0  0  0  0
  -29.6780  -19.7060   20.1540 C   0  0  0  0  0  0  0  0  0  0  0  0
  -31.3320  -17.6560   19.6060 N   0  0  0  0  0  4  0  0  0  0  0  0
  -30.8310  -19.9840   19.5730 N   0  0  0  0  0  0  0  0  0  0  0  0
  -29.2660  -18.4310   20.4650 N   0  0  0  0  0  2  0  0  0  0  0  0
  -32.7650  -19.1610   18.7250 N   0  0  0  0  0  0  0  0  0  0  0  0
  -29.8500  -16.0160   20.4580 N   0  0  0  0  0  0  0  0  0  0  0  0
  -28.8280  -20.8540   20.3590 N   0  0  0  0  0  4  0  0  0  0  0  0
  -33.2640  -18.3670   18.3430 H   0  0  0  0  0  0  0  0  0  0  0  0
  -32.8930  -20.0430   18.2460 H   0  0  0  0  0  0  0  0  0  0  0  0
  -28.8780  -15.8510   20.6420 H   0  0  0  0  0  0  0  0  0  0  0  0
  -27.9010  -20.5700   20.6590 H   0  0  0  0  0  0  0  0  0  0  0  0
  -25.2090  -13.8980   20.5180 C   0  0  0  0  0  0  0  0  0  0  0  0
  -24.1410  -13.1220   20.8790 C   0  0  0  0  0  0  0  0  0  0  0  0
  -24.6100  -11.7720   20.8610 C   0  0  0  0  0  0  0  0  0  0  0  0
  -26.2570  -13.0190   20.2910 N   0  0  0  0  0  0  0  0  0  0  0  0
  -25.9040  -11.7370   20.5650 N   0  0  0  0  0  0  0  0  0  0  0  0
  -23.8820  -10.5100   21.0460 C   0  0  0  0  0  0  0  0  0  0  0  0
  -24.3080   -9.5430   21.9800 C   0  0  0  0  0  3  0  0  0  0  0  0
  -23.5830   -8.3450   22.1550 C   0  0  0  0  0  3  0  0  0  0  0  0
  -22.4150   -8.1080   21.3930 C   0  0  0  0  0  0  0  0  0  0  0  0
  -22.0050   -9.0640   20.4440 C   0  0  0  0  0  3  0  0  0  0  0  0
  -22.7340  -10.2520   20.2700 C   0  0  0  0  0  3  0  0  0  0  0  0
  -21.6540   -6.9660   21.4790 O   0  0  0  0  0  0  0  0  0  0  0  0
  -21.5980   -6.2200   22.6290 C   0  0  0  0  0  0  0  0  0  0  0  0
  -21.1770   -6.7760   23.8560 C   0  0  0  0  0  3  0  0  0  0  0  0
  -21.0680   -5.9580   24.9980 C   0  0  0  0  0  3  0  0  0  0  0  0
  -21.3700   -4.5850   24.9140 C   0  0  0  0  0  0  0  0  0  0  0  0
  -21.7850   -4.0290   23.6910 C   0  0  0  0  0  3  0  0  0  0  0  0
  -21.8950   -4.8450   22.5520 C   0  0  0  0  0  0  0  0  0  0  0  0
  -22.2750   -4.2990   21.3710 F   0  0  0  0  0  0  0  0  0  0  0  0
  -21.2570   -3.7980   26.0090 F   0  0  0  0  0  0  0  0  0  0  0  0
  -22.7400  -13.5980   21.1270 C   0  0  0  0  0  0  0  0  0  0  0  0
  -21.9970  -12.9080   21.9860 N   0  0  0  0  0  0  0  0  0  0  0  0
  -22.3100  -14.6220   20.5950 O   0  0  0  0  0  0  0  0  0  0  0  0
  -22.3550  -12.0830   22.4460 H   0  0  0  0  0  0  0  0  0  0  0  0
  -21.0540  -13.2090   22.1850 H   0  0  0  0  0  0  0  0  0  0  0  0
  -25.3740  -15.2680   20.3370 N   0  0  0  0  0  0  0  0  0  0  0  0
  -24.6070  -15.9230   20.4470 H   0  0  0  0  0  0  0  0  0  0  0  0
  -26.2170  -15.7110   19.9970 H   0  0  0  0  0  0  0  0  0  0  0  0
  -30.5430  -22.5270   21.3080 C   0  0  0  0  0  1  0  0  0  0  0  0
  -29.0960  -22.2970   20.8290 C   0  0  0  0  0  0  0  0  0  0  0  0
  -28.5750  -23.6100   19.9940 C   0  0  0  0  0  3  0  0  0  0  0  0
  -27.4440  -23.2630   19.3730 F   0  0  0  0  0  0  0  0  0  0  0  0
  -28.2660  -25.0020   20.8090 C   0  0  0  0  0  2  0  0  0  0  0  0
  -28.4180  -26.4230   20.3090 O   0  0  0  0  0  0  0  0  0  0  0  0
  -24.6340  -31.9290   23.2710 C   0  0  0  0  0  0  0  0  0  0  0  0
  -27.3100  -27.2970   20.3130 C   0  0  0  0  0  0  0  0  0  0  0  0
  -23.4670  -30.4970   21.6350 C   0  0  0  0  0  3  0  0  0  0  0  0
  -24.9490  -28.9260   20.2540 C   0  0  0  0  0  0  0  0  0  0  0  0
  -26.0120  -30.8150   21.4880 C   0  0  0  0  0  2  0  0  0  0  0  0
  -26.1100  -29.4210   20.8630 C   0  0  0  0  0  0  0  0  0  0  0  0
  -27.2980  -28.6210   20.8770 C   0  0  0  0  0  3  0  0  0  0  0  0
  -26.1270  -26.8610   19.6880 C   0  0  0  0  0  3  0  0  0  0  0  0
  -24.9630  -27.6570   19.6520 C   0  0  0  0  0  3  0  0  0  0  0  0
  -23.7110  -29.8040   20.2670 C   0  0  0  0  0  2  0  0  0  0  0  0
  -24.7230  -31.1000   22.1880 N   0  0  0  0  0  0  0  0  0  0  0  0
  -23.5410  -32.2080   23.7840 O   0  0  0  0  0  0  0  0  0  0  0  0
  -22.7920  -29.4930   22.6010 C   0  0  0  0  0  0  0  0  0  0  0  0
  -21.4650  -29.3190   22.4680 N   0  0  0  0  0  0  0  0  0  0  0  0
  -23.4620  -28.8750   23.4330 O   0  0  0  0  0  0  0  0  0  0  0  0
  -20.9810  -29.8750   21.7770 H   0  0  0  0  0  0  0  0  0  0  0  0
  -18.0790  -28.1360   22.9640 C   0  0  0  0  0  0  0  0  0  0  0  0
  -20.6390  -28.3890   23.2410 C   0  0  0  0  0  3  0  0  0  0  0  0
  -20.7350  -26.9530   22.6730 C   0  0  0  0  0  2  0  0  0  0  0  0
  -19.6360  -26.6280   21.6570 C   0  0  0  0  0  2  0  0  0  0  0  0
  -18.2520  -26.7820   22.2960 C   0  0  0  0  0  2  0  0  0  0  0  0
  -19.2000  -28.8970   23.3940 C   0  0  0  0  0  0  0  0  0  0  0  0
  -18.9830  -30.1620   23.9790 C   0  0  0  0  0  3  0  0  0  0  0  0
  -17.6800  -30.6700   24.1370 C   0  0  0  0  0  3  0  0  0  0  0  0
  -16.5740  -29.9070   23.7240 C   0  0  0  0  0  3  0  0  0  0  0  0
  -16.7750  -28.6420   23.1440 C   0  0  0  0  0  3  0  0  0  0  0  0
  -25.9030  -32.5810   23.9070 C   0  0  0  0  0  3  0  0  0  0  0  0
  -25.5800  -33.9830   24.2130 N   0  0  0  0  0  0  0  0  0  0  0  0
  -25.9150  -35.0270   23.4460 C   0  0  0  0  0  0  0  0  0  0  0  0
  -26.5970  -34.9130   22.4240 O   0  0  0  0  0  0  0  0  0  0  0  0
  -24.9810  -34.1450   25.0100 H   0  0  0  0  0  0  0  0  0  0  0  0
  -24.1840  -36.8080   23.0450 C   0  0  0  0  0  1  0  0  0  0  0  0
  -25.4160  -36.4200   23.8770 C   0  0  0  0  0  3  0  0  0  0  0  0
  -27.5370  -37.3270   24.7210 C   0  0  0  0  0  1  0  0  0  0  0  0
  -26.4460  -37.4770   23.7630 N   0  0  0  0  0  0  0  0  0  0  0  0
  -26.0330  -38.3970   23.8920 H   0  0  0  0  0  0  0  0  0  0  0  0
  -26.4010  -31.8310   25.2030 C   0  0  1  0  0  0  0  0  0  0  0  0
  -25.2900  -31.6030   26.2570 C   0  0  0  0  0  1  0  0  0  0  0  0
  -26.9950  -30.4510   24.8400 C   0  0  0  0  0  1  0  0  0  0  0  0
  -27.5380  -32.6400   25.8700 C   0  0  0  0  0  1  0  0  0  0  0  0
  1 16  1  0
  2  7  1  0
  3  4  1  0
  3  2  1  0
  5  4  1  0
  5 25  1  0
  5  6  1  0
  7  1  1  0
  7  6  1  0
  8  1  2  0
  9 13  1  0
  9 12  2  0
 10 16  1  0
 10 14  1  0
 11 17  1  0
 11 14  1  0
 12 10  2  0
 13 11  2  0
 15  9  1  0
 16 20  1  0
 17 21  1  0
 17 51  2  0
 18 15  1  0
 19 15  1  0
 22 23  2  0
 23 42  1  0
 24 23  1  0
 24 27  1  0
 25 22  1  0
 25 26  1  0
 26 24  2  0
 27 28  1  0
 28 29  2  0
 30 33  1  0
 30 29  1  0
 31 30  2  0
 32 31  1  0
 32 27  2  0
 33 34  1  0
 34 35  1  0
 35 36  2  0
 37 36  1  0
 37 41  1  0
 38 37  2  0
 39 34  2  0
 39 38  1  0
 40 39  1  0
 42 43  1  0
 43 46  1  0
 43 45  1  0
 44 42  2  0
 47 48  1  0
 47 22  1  0
 49 47  1  0
 51 50  1  0
 52 53  1  0
 52 54  1  0
 52 51  1  0
 55 57  1  0
 55 54  1  0
 56 67  2  0
 57 62  1  0
 58 66  1  0
 58 68  1  0
 59 65  1  0
 59 61  1  0
 60 66  1  0
 61 62  2  0
 61 60  1  0
 63 57  2  0
 64 63  1  0
 64 59  2  0
 65 58  1  0
 66 56  1  0
 68 70  2  0
 69 68  1  0
 71 69  1  0
 72 81  2  0
 72 77  1  0
 73 69  1  0
 73 77  1  0
 74 73  1  0
 75 76  1  0
 75 74  1  0
 76 72  1  0
 77 78  2  0
 78 79  1  0
 80 79  2  0
 81 80  1  0
 82 56  1  0
 82 83  1  0
 82 92  1  0
 83 86  1  0
 84 88  1  0
 84 83  1  0
 85 84  2  0
 88 87  1  0
 90 88  1  0
 90 91  1  0
 90 89  1  0
 92 95  1  1
 92 93  1  0
 94 92  1  0
M  ISO  4   1 100  16 100  54 101  55 101
M  END
>  <TORSDO>  (69) 
F 18

>  <SCORE>  (69) 
-14.816

>  <name>  (69) 
69

>  <ligand_id>  (69) 
69

>  <original_smiles>  (69) 
[H]c1c([H])c([H])c2c(c1[H])C([H])([H])C([H])([H])C([H])([H])C2([H])N([H])C(=O)C1([H])N(C(=O)C([H])(N([H])C(=O)C([H])(N([H])C([H])([H])[H])C([H])([H])[H])C(C([H])([H])[H])(C([H])([H])[H])C([H])([H])[H])C([H])([H])c2c([H])c(OC([H])([H])C([H])(F)C([H])(N([H])c3nc(N([H])[H])nc(N([H])C(=O)N4C([H])([H])C([H])([H])C([H])([H])C([H])(n5nc(-c6c([H])c([H])c(Oc7c([H])c([H])c(F)c([H])c7F)c([H])c6[H])c(C(=O)N([H])[H])c5N([H])[H])C4([H])[H])n3)C([H])([H])[H])c([H])c([H])c2C1([H])[H]

>  <smiles>  (69) 
[H]c1c([H])c([H])c2c(c1[H])C([H])([H])C([H])([H])C([H])([H])C2([H])N([H])C(=O)C1([H])N(C(=O)C([H])(N([H])C(=O)C([H])(N([H])C([H])([H])[H])C([H])([H])[H])C(C([H])([H])[H])(C([H])([H])[H])C([H])([H])[H])C([H])([H])c2c([H])c(OC([H])([H])C([H])(F)C([H])(N([H])c3nc(N([H])[H])nc(N([H])C(=O)N4C([H])([H])C([H])([H])C([H])([H])C([H])(n5nc(-c6c([H])c([H])c(Oc7c([H])c([H])c(F)c([H])c7F)c([H])c6[H])c(C(=O)N([H])[H])c5N([H])[H])C4([H])[H])n3)C([H])([H])[H])c([H])c([H])c2C1([H])[H]

$$$$
70:0:0
     RDKit          3D

 91 99  0  0  1  0  0  0  0  0999 V2000
  -28.5930  -18.7840   19.2720 C   0  0  0  0  0  3  0  0  0  0  0  0
  -29.5050  -18.7250   20.2990 C   0  0  0  0  0  0  0  0  0  0  0  0
  -28.9910  -21.0920   20.2130 C   0  0  0  0  0  0  0  0  0  0  0  0
  -28.4960  -23.6880   20.0510 C   0  0  0  0  0  0  0  0  0  0  0  0
  -29.6900  -20.0690   20.8240 N   0  0  0  0  0  0  0  0  0  0  0  0
  -29.0000  -22.5210   20.6330 N   0  0  0  0  0  0  0  0  0  0  0  0
  -28.1090  -23.7020   18.8800 O   0  0  0  0  0  0  0  0  0  0  0  0
  -28.0040  -20.4170   18.9150 S   0  0  0  0  0  0  0  0  0  0  0  0
  -29.3980  -22.6700   21.5490 H   0  0  0  0  0  0  0  0  0  0  0  0
  -27.3220  -24.9480   21.9730 C   0  0  0  0  0  1  0  0  0  0  0  0
  -28.4100  -25.0680   20.8910 C   0  0  0  0  0  3  0  0  0  0  0  0
  -28.3830  -26.4100   20.1780 O   0  0  0  0  0  0  0  0  0  0  0  0
  -24.6130  -31.8620   23.2270 C   0  0  0  0  0  0  0  0  0  0  0  0
  -27.2640  -27.2780   20.1910 C   0  0  0  0  0  0  0  0  0  0  0  0
  -23.4280  -30.4640   21.5740 C   0  0  0  0  0  3  0  0  0  0  0  0
  -24.8960  -28.9120   20.1570 C   0  0  0  0  0  0  0  0  0  0  0  0
  -25.9690  -30.7840   21.4080 C   0  0  0  0  0  2  0  0  0  0  0  0
  -26.0620  -29.3990   20.7610 C   0  0  0  0  0  0  0  0  0  0  0  0
  -27.2500  -28.5990   20.7590 C   0  0  0  0  0  3  0  0  0  0  0  0
  -26.0760  -26.8520   19.5630 C   0  0  0  0  0  3  0  0  0  0  0  0
  -24.9070  -27.6450   19.5480 C   0  0  0  0  0  3  0  0  0  0  0  0
  -23.6590  -29.7900   20.1940 C   0  0  0  0  0  2  0  0  0  0  0  0
  -24.6880  -31.0570   22.1260 N   0  0  0  0  0  0  0  0  0  0  0  0
  -23.5240  -32.1310   23.7560 O   0  0  0  0  0  0  0  0  0  0  0  0
  -22.7610  -29.4440   22.5280 C   0  0  0  0  0  0  0  0  0  0  0  0
  -21.4340  -29.2690   22.4020 N   0  0  0  0  0  0  0  0  0  0  0  0
  -23.4390  -28.8100   23.3430 O   0  0  0  0  0  0  0  0  0  0  0  0
  -20.9450  -29.8310   21.7180 H   0  0  0  0  0  0  0  0  0  0  0  0
  -18.0500  -28.0850   22.9130 C   0  0  0  0  0  0  0  0  0  0  0  0
  -20.6130  -28.3270   23.1650 C   0  0  0  0  0  3  0  0  0  0  0  0
  -20.7010  -26.9030   22.5670 C   0  0  0  0  0  2  0  0  0  0  0  0
  -19.5890  -26.6020   21.5580 C   0  0  0  0  0  2  0  0  0  0  0  0
  -18.2130  -26.7460   22.2150 C   0  0  0  0  0  2  0  0  0  0  0  0
  -19.1780  -28.8350   23.3450 C   0  0  0  0  0  0  0  0  0  0  0  0
  -18.9700  -30.0900   23.9560 C   0  0  0  0  0  3  0  0  0  0  0  0
  -17.6700  -30.5940   24.1450 C   0  0  0  0  0  3  0  0  0  0  0  0
  -16.5590  -29.8410   23.7280 C   0  0  0  0  0  3  0  0  0  0  0  0
  -16.7490  -28.5890   23.1180 C   0  0  0  0  0  3  0  0  0  0  0  0
  -25.8870  -32.5020   23.8620 C   0  0  0  0  0  3  0  0  0  0  0  0
  -25.5720  -33.9020   24.1810 N   0  0  0  0  0  0  0  0  0  0  0  0
  -25.9020  -34.9520   23.4160 C   0  0  0  0  0  0  0  0  0  0  0  0
  -26.5730  -34.8410   22.3860 O   0  0  0  0  0  0  0  0  0  0  0  0
  -24.9880  -34.0620   24.9880 H   0  0  0  0  0  0  0  0  0  0  0  0
  -24.1720  -36.7400   23.0440 C   0  0  0  0  0  1  0  0  0  0  0  0
  -25.4110  -36.3440   23.8620 C   0  0  0  0  0  3  0  0  0  0  0  0
  -27.5400  -37.2380   24.6930 C   0  0  0  0  0  1  0  0  0  0  0  0
  -26.4420  -37.3990   23.7450 N   0  0  0  0  0  0  0  0  0  0  0  0
  -26.0340  -38.3190   23.8870 H   0  0  0  0  0  0  0  0  0  0  0  0
  -26.3840  -31.7410   25.1530 C   0  0  1  0  0  0  0  0  0  0  0  0
  -25.2760  -31.5160   26.2080 C   0  0  0  0  0  1  0  0  0  0  0  0
  -26.9730  -30.3590   24.7840 C   0  0  0  0  0  1  0  0  0  0  0  0
  -27.5270  -32.5410   25.8220 C   0  0  0  0  0  1  0  0  0  0  0  0
  -30.3080  -17.4340   20.7880 C   0  0  0  0  0  2  0  0  0  0  0  0
  -30.5740  -14.8250   20.4030 C   0  0  0  0  0  0  0  0  0  0  0  0
  -30.3790  -12.5400   19.3850 C   0  0  0  0  0  2  0  0  0  0  0  0
  -29.4510  -12.5890   18.1520 C   0  0  0  0  0  2  0  0  0  0  0  0
  -27.9810  -12.4100   18.5710 C   0  0  0  0  0  2  0  0  0  0  0  0
  -27.5930  -13.3010   19.7810 C   0  0  0  0  0  3  0  0  0  0  0  0
  -28.6430  -13.2390   20.9110 C   0  0  0  0  0  2  0  0  0  0  0  0
  -29.9350  -13.6040   20.3180 N   0  0  0  0  0  0  0  0  0  0  0  0
  -31.7740  -14.8950   20.1240 O   0  0  0  0  0  0  0  0  0  0  0  0
  -29.8270  -15.9840   20.6080 N   0  0  0  0  0  0  0  0  0  0  0  0
  -28.8370  -15.8450   20.7460 H   0  0  0  0  0  0  0  0  0  0  0  0
  -25.1990  -13.8820   20.4870 C   0  0  0  0  0  0  0  0  0  0  0  0
  -24.1330  -13.1060   20.8490 C   0  0  0  0  0  0  0  0  0  0  0  0
  -24.6010  -11.7560   20.8290 C   0  0  0  0  0  0  0  0  0  0  0  0
  -26.2490  -13.0060   20.2650 N   0  0  0  0  0  0  0  0  0  0  0  0
  -25.8960  -11.7230   20.5350 N   0  0  0  0  0  0  0  0  0  0  0  0
  -23.8750  -10.4930   21.0170 C   0  0  0  0  0  0  0  0  0  0  0  0
  -24.2940   -9.5340   21.9650 C   0  0  0  0  0  3  0  0  0  0  0  0
  -23.5680   -8.3360   22.1420 C   0  0  0  0  0  3  0  0  0  0  0  0
  -22.4090   -8.0890   21.3680 C   0  0  0  0  0  0  0  0  0  0  0  0
  -22.0090   -9.0360   20.4090 C   0  0  0  0  0  3  0  0  0  0  0  0
  -22.7360  -10.2250   20.2300 C   0  0  0  0  0  3  0  0  0  0  0  0
  -21.6560   -6.9420   21.4520 O   0  0  0  0  0  0  0  0  0  0  0  0
  -21.5790   -6.2160   22.6130 C   0  0  0  0  0  0  0  0  0  0  0  0
  -21.1070   -6.7820   23.8170 C   0  0  0  0  0  3  0  0  0  0  0  0
  -20.9790   -5.9820   24.9700 C   0  0  0  0  0  3  0  0  0  0  0  0
  -21.3110   -4.6140   24.9190 C   0  0  0  0  0  0  0  0  0  0  0  0
  -21.7750   -4.0470   23.7190 C   0  0  0  0  0  3  0  0  0  0  0  0
  -21.9050   -4.8450   22.5690 C   0  0  0  0  0  0  0  0  0  0  0  0
  -22.3330   -4.2890   21.4100 F   0  0  0  0  0  0  0  0  0  0  0  0
  -21.1810   -3.8430   26.0230 F   0  0  0  0  0  0  0  0  0  0  0  0
  -22.7310  -13.5800   21.0990 C   0  0  0  0  0  0  0  0  0  0  0  0
  -21.9940  -12.8840   21.9580 N   0  0  0  0  0  0  0  0  0  0  0  0
  -22.2970  -14.6020   20.5700 O   0  0  0  0  0  0  0  0  0  0  0  0
  -22.3600  -12.0600   22.4110 H   0  0  0  0  0  0  0  0  0  0  0  0
  -21.0510  -13.1800   22.1670 H   0  0  0  0  0  0  0  0  0  0  0  0
  -25.3550  -15.2540   20.3020 N   0  0  0  0  0  0  0  0  0  0  0  0
  -24.5730  -15.8940   20.3820 H   0  0  0  0  0  0  0  0  0  0  0  0
  -26.1960  -15.7000   19.9660 H   0  0  0  0  0  0  0  0  0  0  0  0
  1  2  2  0
  2 53  1  0
  2  5  1  0
  3  6  1  0
  3  5  2  0
  4  6  1  0
  4 11  1  0
  6  9  1  0
  7  4  2  0
  8  1  1  0
  8  3  1  0
 11 10  1  0
 12 14  1  0
 12 11  1  0
 13 24  2  0
 14 19  1  0
 15 23  1  0
 15 25  1  0
 16 22  1  0
 16 18  1  0
 17 23  1  0
 18 17  1  0
 19 18  2  0
 20 14  2  0
 21 20  1  0
 21 16  2  0
 22 15  1  0
 23 13  1  0
 25 27  2  0
 26 25  1  0
 28 26  1  0
 29 38  2  0
 29 34  1  0
 30 26  1  0
 30 34  1  0
 31 30  1  0
 32 33  1  0
 32 31  1  0
 33 29  1  0
 34 35  2  0
 35 36  1  0
 37 36  2  0
 38 37  1  0
 39 13  1  0
 39 40  1  0
 39 49  1  0
 40 43  1  0
 41 45  1  0
 41 40  1  0
 42 41  2  0
 45 44  1  0
 47 45  1  0
 47 48  1  0
 47 46  1  0
 49 52  1  1
 49 50  1  0
 51 49  1  0
 54 62  1  0
 55 60  1  0
 56 57  1  0
 56 55  1  0
 58 57  1  0
 58 67  1  0
 58 59  1  0
 60 54  1  0
 60 59  1  0
 61 54  2  0
 62 63  1  0
 62 53  1  0
 64 65  2  0
 65 84  1  0
 66 65  1  0
 66 69  1  0
 67 64  1  0
 67 68  1  0
 68 66  2  0
 69 70  1  0
 70 71  2  0
 72 75  1  0
 72 71  1  0
 73 72  2  0
 74 73  1  0
 74 69  2  0
 75 76  1  0
 76 77  1  0
 77 78  2  0
 79 78  1  0
 79 83  1  0
 80 79  2  0
 81 76  2  0
 81 80  1  0
 82 81  1  0
 84 85  1  0
 85 88  1  0
 85 87  1  0
 86 84  2  0
 89 90  1  0
 89 64  1  0
 91 89  1  0
M  ISO  4  11 101  12 101  54 100  62 100
M  END
>  <TORSDO>  (70) 
F 18

>  <SCORE>  (70) 
-14.679

>  <name>  (70) 
70

>  <ligand_id>  (70) 
70

>  <original_smiles>  (70) 
[H]c1sc(N([H])C(=O)C([H])(Oc2c([H])c([H])c3c(c2[H])C([H])([H])N(C(=O)C([H])(N([H])C(=O)C([H])(N([H])C([H])([H])[H])C([H])([H])[H])C(C([H])([H])[H])(C([H])([H])[H])C([H])([H])[H])C([H])(C(=O)N([H])C2([H])c4c([H])c([H])c([H])c([H])c4C([H])([H])C([H])([H])C2([H])[H])C3([H])[H])C([H])([H])[H])nc1C([H])([H])N([H])C(=O)N1C([H])([H])C([H])([H])C([H])([H])C([H])(n2nc(-c3c([H])c([H])c(Oc4c([H])c([H])c(F)c([H])c4F)c([H])c3[H])c(C(=O)N([H])[H])c2N([H])[H])C1([H])[H]

>  <smiles>  (70) 
[H]c1sc(N([H])C(=O)C([H])(Oc2c([H])c([H])c3c(c2[H])C([H])([H])N(C(=O)C([H])(N([H])C(=O)C([H])(N([H])C([H])([H])[H])C([H])([H])[H])C(C([H])([H])[H])(C([H])([H])[H])C([H])([H])[H])C([H])(C(=O)N([H])C2([H])c4c([H])c([H])c([H])c([H])c4C([H])([H])C([H])([H])C2([H])[H])C3([H])[H])C([H])([H])[H])nc1C([H])([H])N([H])C(=O)N1C([H])([H])C([H])([H])C([H])([H])C([H])(n2nc(-c3c([H])c([H])c(Oc4c([H])c([H])c(F)c([H])c4F)c([H])c3[H])c(C(=O)N([H])[H])c2N([H])[H])C1([H])[H]

$$$$
71:0:0
     RDKit          3D

 96104  0  0  1  0  0  0  0  0999 V2000
  -30.0740  -19.3650   20.1320 C   0  0  0  0  0  3  0  0  0  0  0  0
  -27.9420  -20.3330   19.4740 C   0  0  0  0  0  3  0  0  0  0  0  0
  -29.5710  -18.0440   19.9360 C   0  0  0  0  0  0  0  0  0  0  0  0
  -28.1960  -17.8960   19.5750 C   0  0  0  0  0  0  0  0  0  0  0  0
  -29.2700  -20.5190   19.9180 C   0  0  0  0  0  0  0  0  0  0  0  0
  -27.4110  -19.0440   19.3030 C   0  0  0  0  0  0  0  0  0  0  0  0
  -27.5080  -16.5310   19.5270 C   0  0  0  0  0  1  0  0  0  0  0  0
  -29.3000  -23.0240   19.7490 C   0  0  0  0  0  0  0  0  0  0  0  0
  -29.7460  -21.8390   20.2360 N   0  0  0  0  0  0  0  0  0  0  0  0
  -28.7470  -23.1160   18.6490 O   0  0  0  0  0  0  0  0  0  0  0  0
  -30.3710  -21.9190   21.0300 H   0  0  0  0  0  0  0  0  0  0  0  0
  -29.4960  -24.2950   20.6210 C   0  0  0  0  0  3  0  0  0  0  0  0
  -30.4720  -24.0790   21.5120 F   0  0  0  0  0  0  0  0  0  0  0  0
  -29.7560  -25.6330   19.8660 C   0  0  0  0  0  2  0  0  0  0  0  0
  -29.3820  -26.8050   20.6400 O   0  0  0  0  0  0  0  0  0  0  0  0
  -24.8780  -31.6390   23.3530 C   0  0  0  0  0  0  0  0  0  0  0  0
  -28.1440  -27.4220   20.5100 C   0  0  0  0  0  0  0  0  0  0  0  0
  -23.9610  -30.2070   21.5600 C   0  0  0  0  0  3  0  0  0  0  0  0
  -25.6640  -28.7990   20.2870 C   0  0  0  0  0  0  0  0  0  0  0  0
  -26.4680  -30.7200   21.6650 C   0  0  0  0  0  2  0  0  0  0  0  0
  -26.7140  -29.3710   21.0110 C   0  0  0  0  0  0  0  0  0  0  0  0
  -27.9520  -28.6910   21.1200 C   0  0  0  0  0  3  0  0  0  0  0  0
  -27.0590  -26.8680   19.7880 C   0  0  0  0  0  3  0  0  0  0  0  0
  -25.8330  -27.5470   19.6750 C   0  0  0  0  0  3  0  0  0  0  0  0
  -24.3710  -29.5790   20.2030 C   0  0  0  0  0  2  0  0  0  0  0  0
  -25.1130  -30.8700   22.2520 N   0  0  0  0  0  0  0  0  0  0  0  0
  -23.7250  -31.8270   23.7680 O   0  0  0  0  0  0  0  0  0  0  0  0
  -23.2740  -29.1210   22.4200 C   0  0  0  0  0  0  0  0  0  0  0  0
  -21.9640  -28.9220   22.2020 N   0  0  0  0  0  0  0  0  0  0  0  0
  -23.9200  -28.4640   23.2410 O   0  0  0  0  0  0  0  0  0  0  0  0
  -21.5030  -29.5080   21.5200 H   0  0  0  0  0  0  0  0  0  0  0  0
  -18.5700  -27.7300   22.5320 C   0  0  0  0  0  0  0  0  0  0  0  0
  -21.1250  -27.9260   22.8690 C   0  0  0  0  0  3  0  0  0  0  0  0
  -21.2200  -26.5530   22.1640 C   0  0  0  0  0  2  0  0  0  0  0  0
  -20.1340  -26.3460   21.1030 C   0  0  0  0  0  2  0  0  0  0  0  0
  -18.7420  -26.4490   21.7330 C   0  0  0  0  0  2  0  0  0  0  0  0
  -19.6900  -28.4320   23.0520 C   0  0  0  0  0  0  0  0  0  0  0  0
  -19.4780  -29.6370   23.7550 C   0  0  0  0  0  3  0  0  0  0  0  0
  -18.1780  -30.1410   23.9440 C   0  0  0  0  0  3  0  0  0  0  0  0
  -17.0700  -29.4340   23.4420 C   0  0  0  0  0  3  0  0  0  0  0  0
  -17.2670  -28.2290   22.7440 C   0  0  0  0  0  3  0  0  0  0  0  0
  -26.0400  -32.3390   24.1260 C   0  0  0  0  0  3  0  0  0  0  0  0
  -25.6490  -33.7390   24.3420 N   0  0  0  0  0  0  0  0  0  0  0  0
  -26.0490  -34.7650   23.5770 C   0  0  0  0  0  0  0  0  0  0  0  0
  -26.8540  -34.6350   22.6510 O   0  0  0  0  0  0  0  0  0  0  0  0
  -24.9530  -33.9110   25.0510 H   0  0  0  0  0  0  0  0  0  0  0  0
  -24.3290  -36.4700   22.9060 C   0  0  0  0  0  1  0  0  0  0  0  0
  -25.4650  -36.1550   23.8910 C   0  0  0  0  0  3  0  0  0  0  0  0
  -27.4490  -37.1570   24.9350 C   0  0  0  0  0  1  0  0  0  0  0  0
  -26.4710  -37.2380   23.8530 N   0  0  0  0  0  0  0  0  0  0  0  0
  -26.0230  -38.1490   23.8980 H   0  0  0  0  0  0  0  0  0  0  0  0
  -26.3810  -31.6380   25.4990 C   0  0  1  0  0  0  0  0  0  0  0  0
  -25.1460  -31.4000   26.3980 C   0  0  0  0  0  1  0  0  0  0  0  0
  -27.0630  -30.2720   25.2620 C   0  0  0  0  0  1  0  0  0  0  0  0
  -27.3900  -32.5020   26.2910 C   0  0  0  0  0  1  0  0  0  0  0  0
  -26.0870  -18.9190   18.8730 N   0  0  0  0  0  0  0  0  0  0  0  0
  -25.6740  -19.7020   18.3770 H   0  0  0  0  0  0  0  0  0  0  0  0
  -25.8130  -18.0270   18.4760 H   0  0  0  0  0  0  0  0  0  0  0  0
  -30.5110  -16.8810   20.0580 C   0  0  0  0  0  3  0  0  0  0  0  0
  -30.1900  -15.5850   19.8130 C   0  0  0  0  0  3  0  0  0  0  0  0
  -31.1120  -14.4420   19.9360 C   0  0  0  0  0  0  0  0  0  0  0  0
  -31.0180  -11.9750   19.7670 C   0  0  0  0  0  2  0  0  0  0  0  0
  -30.1570  -11.6160   18.5360 C   0  0  0  0  0  2  0  0  0  0  0  0
  -28.6590  -11.5600   18.9050 C   0  0  0  0  0  2  0  0  0  0  0  0
  -28.1970  -12.8040   19.7070 C   0  0  0  0  0  3  0  0  0  0  0  0
  -29.1780  -13.0980   20.8660 C   0  0  0  0  0  2  0  0  0  0  0  0
  -30.5230  -13.2590   20.2870 N   0  0  0  0  0  0  0  0  0  0  0  0
  -32.2930  -14.4930   19.5760 O   0  0  0  0  0  0  0  0  0  0  0  0
  -25.8670  -13.6570   20.3890 C   0  0  0  0  0  0  0  0  0  0  0  0
  -24.7270  -12.9980   20.7630 C   0  0  0  0  0  0  0  0  0  0  0  0
  -25.0560  -11.6070   20.7560 C   0  0  0  0  0  0  0  0  0  0  0  0
  -26.8220  -12.6730   20.1800 N   0  0  0  0  0  0  0  0  0  0  0  0
  -26.3380  -11.4370   20.4590 N   0  0  0  0  0  0  0  0  0  0  0  0
  -24.2110  -10.4240   20.9580 C   0  0  0  0  0  0  0  0  0  0  0  0
  -24.5590   -9.4190   21.8860 C   0  0  0  0  0  3  0  0  0  0  0  0
  -23.7230   -8.2990   22.0760 C   0  0  0  0  0  3  0  0  0  0  0  0
  -22.5230   -8.1750   21.3350 C   0  0  0  0  0  0  0  0  0  0  0  0
  -22.1920   -9.1670   20.3950 C   0  0  0  0  0  3  0  0  0  0  0  0
  -23.0290  -10.2800   20.2040 C   0  0  0  0  0  3  0  0  0  0  0  0
  -21.6630   -7.1080   21.4340 O   0  0  0  0  0  0  0  0  0  0  0  0
  -21.5360   -6.3910   22.5950 C   0  0  0  0  0  0  0  0  0  0  0  0
  -21.1730   -7.0030   23.8150 C   0  0  0  0  0  3  0  0  0  0  0  0
  -20.9860   -6.2170   24.9700 C   0  0  0  0  0  3  0  0  0  0  0  0
  -21.1530   -4.8200   24.9060 C   0  0  0  0  0  0  0  0  0  0  0  0
  -21.5100   -4.2080   23.6920 C   0  0  0  0  0  3  0  0  0  0  0  0
  -21.6990   -4.9910   22.5390 C   0  0  0  0  0  0  0  0  0  0  0  0
  -22.0210   -4.3940   21.3660 F   0  0  0  0  0  0  0  0  0  0  0  0
  -20.9680   -4.0630   26.0120 F   0  0  0  0  0  0  0  0  0  0  0  0
  -23.3800  -13.6100   21.0150 C   0  0  0  0  0  0  0  0  0  0  0  0
  -22.5920  -13.0140   21.9040 N   0  0  0  0  0  0  0  0  0  0  0  0
  -23.0370  -14.6530   20.4600 O   0  0  0  0  0  0  0  0  0  0  0  0
  -22.8800  -12.1700   22.3750 H   0  0  0  0  0  0  0  0  0  0  0  0
  -21.6880  -13.4120   22.1160 H   0  0  0  0  0  0  0  0  0  0  0  0
  -26.1620  -15.0020   20.1870 N   0  0  0  0  0  0  0  0  0  0  0  0
  -25.4550  -15.7250   20.2670 H   0  0  0  0  0  0  0  0  0  0  0  0
  -27.0430  -15.3530   19.8340 H   0  0  0  0  0  0  0  0  0  0  0  0
  2  5  1  0
  3 59  1  0
  3  1  1  0
  4  3  2  0
  5  1  2  0
  5  9  1  0
  6  2  2  0
  6  4  1  0
  7  4  1  0
  8  9  1  0
  8 12  1  0
  9 11  1  0
 10  8  2  0
 12 13  1  0
 14 12  1  0
 14 15  1  0
 16 27  2  0
 17 15  1  0
 17 22  1  0
 18 26  1  0
 18 28  1  0
 19 21  1  0
 20 26  1  0
 21 22  2  0
 21 20  1  0
 23 17  2  0
 24 23  1  0
 24 19  2  0
 25 19  1  0
 25 18  1  0
 26 16  1  0
 28 30  2  0
 29 28  1  0
 31 29  1  0
 32 41  2  0
 32 37  1  0
 33 29  1  0
 33 37  1  0
 34 33  1  0
 35 36  1  0
 35 34  1  0
 36 32  1  0
 37 38  2  0
 38 39  1  0
 40 39  2  0
 41 40  1  0
 42 16  1  0
 42 43  1  0
 42 52  1  0
 43 46  1  0
 44 48  1  0
 44 43  1  0
 45 44  2  0
 48 47  1  0
 50 48  1  0
 50 51  1  0
 50 49  1  0
 52 55  1  1
 52 53  1  0
 54 52  1  0
 56  6  1  0
 57 56  1  0
 58 56  1  0
 60 61  1  0
 60 59  2  0
 61 67  1  0
 62 67  1  0
 63 64  1  0
 63 62  1  0
 65 64  1  0
 65 72  1  0
 65 66  1  0
 67 66  1  0
 68 61  2  0
 69 70  2  0
 70 89  1  0
 71 70  1  0
 71 74  1  0
 72 69  1  0
 72 73  1  0
 73 71  2  0
 74 75  1  0
 75 76  2  0
 77 80  1  0
 77 76  1  0
 78 77  2  0
 79 78  1  0
 79 74  2  0
 80 81  1  0
 81 82  1  0
 82 83  2  0
 84 83  1  0
 84 88  1  0
 85 84  2  0
 86 81  2  0
 86 85  1  0
 87 86  1  0
 89 90  1  0
 90 93  1  0
 90 92  1  0
 91 89  2  0
 94 95  1  0
 94 69  1  0
 96 94  1  0
M  ISO  4  14 101  15 101  60 100  61 100
M  END
>  <TORSDO>  (71) 
F 21

>  <SCORE>  (71) 
-12.815

>  <name>  (71) 
71

>  <ligand_id>  (71) 
71

>  <original_smiles>  (71) 
[H]C(C(=O)N1C([H])([H])C([H])([H])C([H])([H])C([H])(n2nc(-c3c([H])c([H])c(Oc4c([H])c([H])c(F)c([H])c4F)c([H])c3[H])c(C(=O)N([H])[H])c2N([H])[H])C1([H])[H])=C([H])c1c([H])c(N([H])C(=O)C([H])(F)C([H])([H])Oc2c([H])c([H])c3c(c2[H])C([H])([H])N(C(=O)C([H])(N([H])C(=O)C([H])(N([H])C([H])([H])[H])C([H])([H])[H])C(C([H])([H])[H])(C([H])([H])[H])C([H])([H])[H])C([H])(C(=O)N([H])C2([H])c4c([H])c([H])c([H])c([H])c4C([H])([H])C([H])([H])C2([H])[H])C3([H])[H])c([H])c(N([H])[H])c1C([H])([H])[H]

>  <smiles>  (71) 
[H]C(C(=O)N1C([H])([H])C([H])([H])C([H])([H])C([H])(n2nc(-c3c([H])c([H])c(Oc4c([H])c([H])c(F)c([H])c4F)c([H])c3[H])c(C(=O)N([H])[H])c2N([H])[H])C1([H])[H])=C([H])c1c([H])c(N([H])C(=O)C([H])(F)C([H])([H])Oc2c([H])c([H])c3c(c2[H])C([H])([H])N(C(=O)C([H])(N([H])C(=O)C([H])(N([H])C([H])([H])[H])C([H])([H])[H])C(C([H])([H])[H])(C([H])([H])[H])C([H])([H])[H])C([H])(C(=O)N([H])C2([H])c4c([H])c([H])c([H])c([H])c4C([H])([H])C([H])([H])C2([H])[H])C3([H])[H])c([H])c(N([H])[H])c1C([H])([H])[H]

$$$$
72:0:0
     RDKit          3D

 95103  0  0  1  0  0  0  0  0999 V2000
  -29.3480  -22.0760   20.1370 C   0  0  0  0  0  0  0  0  0  0  0  0
  -30.0140  -21.0170   19.6330 N   0  0  0  0  0  0  0  0  0  0  0  0
  -28.5160  -21.9880   21.0440 O   0  0  0  0  0  0  0  0  0  0  0  0
  -30.6950  -21.2610   18.9240 H   0  0  0  0  0  0  0  0  0  0  0  0
  -28.9120  -18.9800   20.6590 C   0  0  0  0  0  3  0  0  0  0  0  0
  -31.0560  -18.8220   19.5860 C   0  0  0  0  0  3  0  0  0  0  0  0
  -29.9720  -19.6270   19.9830 C   0  0  0  0  0  0  0  0  0  0  0  0
  -28.9900  -17.5860   20.8930 C   0  0  0  0  0  0  0  0  0  0  0  0
  -30.1230  -16.8630   20.4580 C   0  0  0  0  0  0  0  0  0  0  0  0
  -31.1390  -17.4930   19.8160 N   0  0  0  0  0  0  0  0  0  0  0  0
  -27.9700  -16.9410   21.5100 F   0  0  0  0  0  0  0  0  0  0  0  0
  -30.7670  -14.4690   20.1050 C   0  0  0  0  0  0  0  0  0  0  0  0
  -30.4050  -12.3430   18.9170 C   0  0  0  0  0  2  0  0  0  0  0  0
  -29.4020  -12.6090   17.7730 C   0  0  0  0  0  2  0  0  0  0  0  0
  -27.9490  -12.4750   18.2730 C   0  0  0  0  0  2  0  0  0  0  0  0
  -27.6900  -13.2560   19.5910 C   0  0  0  0  0  3  0  0  0  0  0  0
  -28.8020  -12.9740   20.6260 C   0  0  0  0  0  2  0  0  0  0  0  0
  -30.0980  -13.2860   20.0010 N   0  0  0  0  0  0  0  0  0  0  0  0
  -31.8800  -14.6400   19.5940 O   0  0  0  0  0  0  0  0  0  0  0  0
  -30.0760  -15.4570   20.7020 N   0  0  0  0  0  0  0  0  0  0  0  0
  -29.2500  -15.1660   21.2000 H   0  0  0  0  0  0  0  0  0  0  0  0
  -25.3300  -13.8490   20.4270 C   0  0  0  0  0  0  0  0  0  0  0  0
  -24.2810  -13.0690   20.8360 C   0  0  0  0  0  0  0  0  0  0  0  0
  -24.7410  -11.7200   20.7620 C   0  0  0  0  0  0  0  0  0  0  0  0
  -26.3630  -12.9730   20.1310 N   0  0  0  0  0  0  0  0  0  0  0  0
  -26.0140  -11.6860   20.3890 N   0  0  0  0  0  0  0  0  0  0  0  0
  -24.0250  -10.4540   20.9680 C   0  0  0  0  0  0  0  0  0  0  0  0
  -24.4720   -9.4990   21.9080 C   0  0  0  0  0  3  0  0  0  0  0  0
  -23.7590   -8.2970   22.1010 C   0  0  0  0  0  3  0  0  0  0  0  0
  -22.5820   -8.0410   21.3560 C   0  0  0  0  0  0  0  0  0  0  0  0
  -22.1550   -8.9850   20.4060 C   0  0  0  0  0  3  0  0  0  0  0  0
  -22.8700  -10.1780   20.2100 C   0  0  0  0  0  3  0  0  0  0  0  0
  -21.8390   -6.8900   21.4580 O   0  0  0  0  0  0  0  0  0  0  0  0
  -21.7610   -6.1850   22.6330 C   0  0  0  0  0  0  0  0  0  0  0  0
  -21.2960   -6.7770   23.8280 C   0  0  0  0  0  3  0  0  0  0  0  0
  -21.1660   -5.9970   24.9950 C   0  0  0  0  0  3  0  0  0  0  0  0
  -21.4890   -4.6270   24.9660 C   0  0  0  0  0  0  0  0  0  0  0  0
  -21.9470   -4.0360   23.7770 C   0  0  0  0  0  3  0  0  0  0  0  0
  -22.0810   -4.8130   22.6130 C   0  0  0  0  0  0  0  0  0  0  0  0
  -22.5010   -4.2330   21.4620 F   0  0  0  0  0  0  0  0  0  0  0  0
  -21.3570   -3.8770   26.0860 F   0  0  0  0  0  0  0  0  0  0  0  0
  -22.9000  -13.5410   21.1870 C   0  0  0  0  0  0  0  0  0  0  0  0
  -22.2210  -12.8400   22.0900 N   0  0  0  0  0  0  0  0  0  0  0  0
  -22.4300  -14.5660   20.6950 O   0  0  0  0  0  0  0  0  0  0  0  0
  -22.6110  -12.0110   22.5120 H   0  0  0  0  0  0  0  0  0  0  0  0
  -21.2950  -13.1390   22.3620 H   0  0  0  0  0  0  0  0  0  0  0  0
  -25.4850  -15.2230   20.2640 N   0  0  0  0  0  0  0  0  0  0  0  0
  -24.7300  -15.8750   20.4440 H   0  0  0  0  0  0  0  0  0  0  0  0
  -26.3380  -15.6830   19.9740 H   0  0  0  0  0  0  0  0  0  0  0  0
  -29.6970  -23.4490   19.5150 C   0  0  0  0  0  3  0  0  0  0  0  0
  -28.8780  -23.6990   18.4880 F   0  0  0  0  0  0  0  0  0  0  0  0
  -29.7540  -24.6510   20.4960 C   0  0  0  0  0  2  0  0  0  0  0  0
  -28.2100  -25.5840   22.3010 C   0  0  0  0  0  1  0  0  0  0  0  0
  -28.4240  -25.3950   20.7850 C   0  0  0  0  0  3  0  0  0  0  0  0
  -28.4800  -26.6880   20.1520 O   0  0  0  0  0  0  0  0  0  0  0  0
  -24.6190  -31.8300   23.1750 C   0  0  0  0  0  0  0  0  0  0  0  0
  -27.3090  -27.4110   20.1280 C   0  0  0  0  0  0  0  0  0  0  0  0
  -23.4310  -30.4210   21.5240 C   0  0  0  0  0  3  0  0  0  0  0  0
  -24.9050  -28.8950   20.1080 C   0  0  0  0  0  0  0  0  0  0  0  0
  -25.9530  -30.8050   21.3360 C   0  0  0  0  0  2  0  0  0  0  0  0
  -26.0550  -29.4340   20.6990 C   0  0  0  0  0  0  0  0  0  0  0  0
  -27.2610  -28.7010   20.7010 C   0  0  0  0  0  3  0  0  0  0  0  0
  -26.1440  -26.8830   19.5270 C   0  0  0  0  0  3  0  0  0  0  0  0
  -24.9440  -27.6190   19.5170 C   0  0  0  0  0  3  0  0  0  0  0  0
  -23.6530  -29.7410   20.1460 C   0  0  0  0  0  2  0  0  0  0  0  0
  -24.6870  -31.0320   22.0720 N   0  0  0  0  0  0  0  0  0  0  0  0
  -23.5330  -32.0970   23.7080 O   0  0  0  0  0  0  0  0  0  0  0  0
  -22.7800  -29.3970   22.4810 C   0  0  0  0  0  0  0  0  0  0  0  0
  -21.4620  -29.1910   22.3290 N   0  0  0  0  0  0  0  0  0  0  0  0
  -23.4590  -28.7880   23.3130 O   0  0  0  0  0  0  0  0  0  0  0  0
  -20.9780  -29.7330   21.6280 H   0  0  0  0  0  0  0  0  0  0  0  0
  -18.1000  -27.9420   22.7570 C   0  0  0  0  0  0  0  0  0  0  0  0
  -20.6450  -28.2470   23.0890 C   0  0  0  0  0  3  0  0  0  0  0  0
  -20.7870  -26.8130   22.5280 C   0  0  0  0  0  2  0  0  0  0  0  0
  -19.7160  -26.4610   21.4920 C   0  0  0  0  0  2  0  0  0  0  0  0
  -18.3170  -26.5890   22.1010 C   0  0  0  0  0  2  0  0  0  0  0  0
  -19.1940  -28.7280   23.2070 C   0  0  0  0  0  0  0  0  0  0  0  0
  -18.9410  -29.9920   23.7780 C   0  0  0  0  0  3  0  0  0  0  0  0
  -17.6240  -30.4720   23.9080 C   0  0  0  0  0  3  0  0  0  0  0  0
  -16.5430  -29.6840   23.4760 C   0  0  0  0  0  3  0  0  0  0  0  0
  -16.7820  -28.4210   22.9060 C   0  0  0  0  0  3  0  0  0  0  0  0
  -25.8970  -32.4680   23.8040 C   0  0  0  0  0  3  0  0  0  0  0  0
  -26.4180  -31.6880   25.0740 C   0  0  1  0  0  0  0  0  0  0  0  0
  -25.3240  -31.4270   26.1350 C   0  0  0  0  0  1  0  0  0  0  0  0
  -27.0180  -30.3210   24.6650 C   0  0  0  0  0  1  0  0  0  0  0  0
  -27.5580  -32.4860   25.7480 C   0  0  0  0  0  1  0  0  0  0  0  0
  -25.5740  -33.8590   24.1460 N   0  0  0  0  0  0  0  0  0  0  0  0
  -25.9090  -34.9210   23.4000 C   0  0  0  0  0  0  0  0  0  0  0  0
  -26.5930  -34.8310   22.3760 O   0  0  0  0  0  0  0  0  0  0  0  0
  -24.9680  -34.0030   24.9410 H   0  0  0  0  0  0  0  0  0  0  0  0
  -24.1810  -36.7110   23.0300 C   0  0  0  0  0  1  0  0  0  0  0  0
  -25.4070  -36.3010   23.8630 C   0  0  0  0  0  3  0  0  0  0  0  0
  -27.5200  -37.1840   24.7480 C   0  0  0  0  0  1  0  0  0  0  0  0
  -26.4370  -37.3610   23.7850 N   0  0  0  0  0  0  0  0  0  0  0  0
  -26.0240  -38.2770   23.9340 H   0  0  0  0  0  0  0  0  0  0  0  0
  1  3  2  0
  2  7  1  0
  2  1  1  0
  4  2  1  0
  5  8  1  0
  6 10  2  0
  6  7  1  0
  7  5  2  0
  8 11  1  0
  9 20  1  0
  9  8  2  0
 10  9  1  0
 12 20  1  0
 13 18  1  0
 14 15  1  0
 14 13  1  0
 16 15  1  0
 16 25  1  0
 16 17  1  0
 18 12  1  0
 18 17  1  0
 19 12  2  0
 20 21  1  0
 22 23  2  0
 23 42  1  0
 24 23  1  0
 24 27  1  0
 25 26  1  0
 25 22  1  0
 26 24  2  0
 27 28  1  0
 28 29  2  0
 30 33  1  0
 30 29  1  0
 31 30  2  0
 32 31  1  0
 32 27  2  0
 33 34  1  0
 34 35  1  0
 35 36  2  0
 37 36  1  0
 37 41  1  0
 38 37  2  0
 39 34  2  0
 39 38  1  0
 40 39  1  0
 42 43  1  0
 43 46  1  0
 43 45  1  0
 44 42  2  0
 47 22  1  0
 47 48  1  0
 49 47  1  0
 50 51  1  0
 50  1  1  0
 50 52  1  0
 52 54  1  0
 54 53  1  0
 55 54  1  0
 56 67  2  0
 57 55  1  0
 57 62  1  0
 58 66  1  0
 58 68  1  0
 59 65  1  0
 59 61  1  0
 60 66  1  0
 61 62  2  0
 61 60  1  0
 63 57  2  0
 64 63  1  0
 64 59  2  0
 65 58  1  0
 66 56  1  0
 68 70  2  0
 69 68  1  0
 71 69  1  0
 72 81  2  0
 72 77  1  0
 73 69  1  0
 73 77  1  0
 74 73  1  0
 75 76  1  0
 75 74  1  0
 76 72  1  0
 77 78  2  0
 78 79  1  0
 80 79  2  0
 81 80  1  0
 82 56  1  0
 82 87  1  0
 82 83  1  0
 83 86  1  1
 83 84  1  0
 85 83  1  0
 87 90  1  0
 88 92  1  0
 88 87  1  0
 89 88  2  0
 92 91  1  0
 94 92  1  0
 94 95  1  0
 94 93  1  0
M  ISO  4  12 100  20 100  54 101  55 101
M  END
>  <TORSDO>  (72) 
F 20

>  <SCORE>  (72) 
-13.278

>  <name>  (72) 
72

>  <ligand_id>  (72) 
72

>  <original_smiles>  (72) 
[H]c1nc(N([H])C(=O)N2C([H])([H])C([H])([H])C([H])([H])C([H])(n3nc(-c4c([H])c([H])c(Oc5c([H])c([H])c(F)c([H])c5F)c([H])c4[H])c(C(=O)N([H])[H])c3N([H])[H])C2([H])[H])c(F)c([H])c1N([H])C(=O)C([H])(F)C([H])([H])C([H])(Oc1c([H])c([H])c2c(c1[H])C([H])([H])N(C(=O)C([H])(N([H])C(=O)C([H])(N([H])C([H])([H])[H])C([H])([H])[H])C(C([H])([H])[H])(C([H])([H])[H])C([H])([H])[H])C([H])(C(=O)N([H])C1([H])c3c([H])c([H])c([H])c([H])c3C([H])([H])C([H])([H])C1([H])[H])C2([H])[H])C([H])([H])[H]

>  <smiles>  (72) 
[H]c1nc(N([H])C(=O)N2C([H])([H])C([H])([H])C([H])([H])C([H])(n3nc(-c4c([H])c([H])c(Oc5c([H])c([H])c(F)c([H])c5F)c([H])c4[H])c(C(=O)N([H])[H])c3N([H])[H])C2([H])[H])c(F)c([H])c1N([H])C(=O)C([H])(F)C([H])([H])C([H])(Oc1c([H])c([H])c2c(c1[H])C([H])([H])N(C(=O)C([H])(N([H])C(=O)C([H])(N([H])C([H])([H])[H])C([H])([H])[H])C(C([H])([H])[H])(C([H])([H])[H])C([H])([H])[H])C([H])(C(=O)N([H])C1([H])c3c([H])c([H])c([H])c([H])c3C([H])([H])C([H])([H])C1([H])[H])C2([H])[H])C([H])([H])[H]

$$$$
73:0:0
     RDKit          3D

 97105  0  0  1  0  0  0  0  0999 V2000
  -29.5940  -23.0890   21.1140 C   0  0  0  0  0  0  0  0  0  0  0  0
  -29.6190  -23.0300   22.4870 C   0  0  0  0  0  0  0  0  0  0  0  0
  -31.4340  -17.6480   19.8680 C   0  0  0  0  0  3  0  0  0  0  0  0
  -30.4490  -16.9190   20.5050 C   0  0  0  0  0  0  0  0  0  0  0  0
  -30.1150  -19.3980   20.5100 C   0  0  0  0  0  0  0  0  0  0  0  0
  -30.1690  -21.9410   20.3520 C   0  0  0  0  0  0  0  0  0  0  0  0
  -31.2430  -19.0430   19.8830 N   0  0  0  0  0  0  0  0  0  0  0  0
  -29.6840  -20.7390   20.7510 N   0  0  0  0  0  0  0  0  0  0  0  0
  -30.9380  -22.0550   19.3920 O   0  0  0  0  0  0  0  0  0  0  0  0
  -29.2350  -18.0090   21.1510 S   0  0  0  0  0  0  0  0  0  0  0  0
  -28.9270  -20.8020   21.4210 H   0  0  0  0  0  0  0  0  0  0  0  0
  -30.9820  -14.5710   20.0740 C   0  0  0  0  0  0  0  0  0  0  0  0
  -30.6400  -12.3830   18.9750 C   0  0  0  0  0  2  0  0  0  0  0  0
  -29.6580  -12.5890   17.8020 C   0  0  0  0  0  2  0  0  0  0  0  0
  -28.1980  -12.4840   18.2900 C   0  0  0  0  0  2  0  0  0  0  0  0
  -27.9200  -13.3330   19.5630 C   0  0  0  0  0  3  0  0  0  0  0  0
  -29.0150  -13.0890   20.6230 C   0  0  0  0  0  2  0  0  0  0  0  0
  -30.3170  -13.3850   20.0040 N   0  0  0  0  0  0  0  0  0  0  0  0
  -32.0770  -14.7560   19.5330 O   0  0  0  0  0  0  0  0  0  0  0  0
  -30.3010  -15.5660   20.6750 N   0  0  0  0  0  0  0  0  0  0  0  0
  -29.4520  -15.2670   21.1300 H   0  0  0  0  0  0  0  0  0  0  0  0
  -25.5680  -13.9720   20.4040 C   0  0  0  0  0  0  0  0  0  0  0  0
  -24.5030  -13.2120   20.8100 C   0  0  0  0  0  0  0  0  0  0  0  0
  -24.9360  -11.8530   20.7260 C   0  0  0  0  0  0  0  0  0  0  0  0
  -26.5830  -13.0780   20.1010 N   0  0  0  0  0  0  0  0  0  0  0  0
  -26.2080  -11.7980   20.3510 N   0  0  0  0  0  0  0  0  0  0  0  0
  -24.1950  -10.6010   20.9270 C   0  0  0  0  0  0  0  0  0  0  0  0
  -24.6130   -9.6360   21.8700 C   0  0  0  0  0  3  0  0  0  0  0  0
  -23.8710   -8.4510   22.0540 C   0  0  0  0  0  3  0  0  0  0  0  0
  -22.6990   -8.2210   21.2950 C   0  0  0  0  0  0  0  0  0  0  0  0
  -22.3020   -9.1730   20.3390 C   0  0  0  0  0  3  0  0  0  0  0  0
  -23.0460  -10.3500   20.1520 C   0  0  0  0  0  3  0  0  0  0  0  0
  -21.9310   -7.0870   21.3890 O   0  0  0  0  0  0  0  0  0  0  0  0
  -21.8230   -6.3840   22.5630 C   0  0  0  0  0  0  0  0  0  0  0  0
  -21.3040   -6.9710   23.7380 C   0  0  0  0  0  3  0  0  0  0  0  0
  -21.1480   -6.1940   24.9020 C   0  0  0  0  0  3  0  0  0  0  0  0
  -21.5040   -4.8320   24.8930 C   0  0  0  0  0  0  0  0  0  0  0  0
  -22.0130   -4.2440   23.7210 C   0  0  0  0  0  3  0  0  0  0  0  0
  -22.1710   -5.0180   22.5580 C   0  0  0  0  0  0  0  0  0  0  0  0
  -22.6490   -4.4440   21.4280 F   0  0  0  0  0  0  0  0  0  0  0  0
  -21.3400   -4.0820   26.0060 F   0  0  0  0  0  0  0  0  0  0  0  0
  -23.1330  -13.7140   21.1610 C   0  0  0  0  0  0  0  0  0  0  0  0
  -22.4320  -13.0190   22.0490 N   0  0  0  0  0  0  0  0  0  0  0  0
  -22.6940  -14.7590   20.6790 O   0  0  0  0  0  0  0  0  0  0  0  0
  -22.8020  -12.1790   22.4660 H   0  0  0  0  0  0  0  0  0  0  0  0
  -21.5120  -13.3390   22.3190 H   0  0  0  0  0  0  0  0  0  0  0  0
  -25.7530  -15.3430   20.2560 N   0  0  0  0  0  0  0  0  0  0  0  0
  -24.9960  -15.9990   20.4120 H   0  0  0  0  0  0  0  0  0  0  0  0
  -26.5860  -15.7780   19.8810 H   0  0  0  0  0  0  0  0  0  0  0  0
  -29.8020  -24.6140   24.5280 C   0  0  0  0  0  1  0  0  0  0  0  0
  -28.8920  -23.8880   23.5190 C   0  0  0  0  0  2  0  0  0  0  0  0
  -30.3170  -22.1220   23.2010 O   0  0  0  0  0  0  0  0  0  0  0  0
  -30.9140  -21.6640   22.6210 H   0  0  0  0  0  0  0  0  0  0  0  0
  -28.9900  -24.2240   20.2180 C   0  0  0  0  0  2  0  0  0  0  0  0
  -29.5780  -26.3480   21.6560 C   0  0  0  0  0  1  0  0  0  0  0  0
  -28.5630  -25.6420   20.7440 C   0  0  0  0  0  3  0  0  0  0  0  0
  -28.4290  -26.5980   19.6610 O   0  0  0  0  0  0  0  0  0  0  0  0
  -24.7440  -31.6830   23.0780 C   0  0  0  0  0  0  0  0  0  0  0  0
  -27.3020  -27.3860   19.7280 C   0  0  0  0  0  0  0  0  0  0  0  0
  -23.4970  -30.3270   21.4340 C   0  0  0  0  0  3  0  0  0  0  0  0
  -24.9120  -28.8830   19.8800 C   0  0  0  0  0  0  0  0  0  0  0  0
  -26.0110  -30.7310   21.1510 C   0  0  0  0  0  2  0  0  0  0  0  0
  -26.0890  -29.3940   20.4440 C   0  0  0  0  0  0  0  0  0  0  0  0
  -27.2930  -28.6540   20.3620 C   0  0  0  0  0  3  0  0  0  0  0  0
  -26.1120  -26.8980   19.1500 C   0  0  0  0  0  3  0  0  0  0  0  0
  -24.9220  -27.6420   19.2220 C   0  0  0  0  0  3  0  0  0  0  0  0
  -23.6600  -29.7200   20.0170 C   0  0  0  0  0  2  0  0  0  0  0  0
  -24.7720  -30.9260   21.9460 N   0  0  0  0  0  0  0  0  0  0  0  0
  -23.6820  -31.9130   23.6730 O   0  0  0  0  0  0  0  0  0  0  0  0
  -22.9100  -29.2500   22.3710 C   0  0  0  0  0  0  0  0  0  0  0  0
  -21.5950  -29.0040   22.2540 N   0  0  0  0  0  0  0  0  0  0  0  0
  -23.6310  -28.6410   23.1640 O   0  0  0  0  0  0  0  0  0  0  0  0
  -21.0690  -29.5530   21.5920 H   0  0  0  0  0  0  0  0  0  0  0  0
  -18.2980  -27.5970   22.7090 C   0  0  0  0  0  0  0  0  0  0  0  0
  -20.8330  -28.0090   23.0070 C   0  0  0  0  0  3  0  0  0  0  0  0
  -21.0300  -26.5930   22.4180 C   0  0  0  0  0  2  0  0  0  0  0  0
  -19.9610  -26.2130   21.3880 C   0  0  0  0  0  2  0  0  0  0  0  0
  -18.5680  -26.2660   22.0230 C   0  0  0  0  0  2  0  0  0  0  0  0
  -19.3640  -28.4210   23.1570 C   0  0  0  0  0  0  0  0  0  0  0  0
  -19.0610  -29.6630   23.7550 C   0  0  0  0  0  3  0  0  0  0  0  0
  -17.7270  -30.0800   23.9210 C   0  0  0  0  0  3  0  0  0  0  0  0
  -16.6760  -29.2500   23.4920 C   0  0  0  0  0  3  0  0  0  0  0  0
  -16.9610  -28.0130   22.8870 C   0  0  0  0  0  3  0  0  0  0  0  0
  -26.0440  -32.3160   23.6650 C   0  0  0  0  0  3  0  0  0  0  0  0
  -25.7250  -33.6970   24.0530 N   0  0  0  0  0  0  0  0  0  0  0  0
  -26.0270  -34.7810   23.3270 C   0  0  0  0  0  0  0  0  0  0  0  0
  -26.6780  -34.7250   22.2800 O   0  0  0  0  0  0  0  0  0  0  0  0
  -25.1440  -33.8130   24.8680 H   0  0  0  0  0  0  0  0  0  0  0  0
  -24.2750  -36.5690   23.0660 C   0  0  0  0  0  1  0  0  0  0  0  0
  -25.5270  -36.1410   23.8480 C   0  0  0  0  0  3  0  0  0  0  0  0
  -27.6530  -37.0270   24.6990 C   0  0  0  0  0  1  0  0  0  0  0  0
  -26.5420  -37.2120   23.7690 N   0  0  0  0  0  0  0  0  0  0  0  0
  -26.1230  -38.1190   23.9560 H   0  0  0  0  0  0  0  0  0  0  0  0
  -26.6230  -31.5130   24.8940 C   0  0  1  0  0  0  0  0  0  0  0  0
  -25.5790  -31.2270   25.9960 C   0  0  0  0  0  1  0  0  0  0  0  0
  -27.2110  -30.1560   24.4330 C   0  0  0  0  0  1  0  0  0  0  0  0
  -27.7810  -32.3070   25.5440 C   0  0  0  0  0  1  0  0  0  0  0  0
  1  2  2  0
  2 52  1  0
  2 51  1  0
  3  7  1  0
  3  4  2  0
  4 20  1  0
  4 10  1  0
  5  8  1  0
  5 10  1  0
  6  8  1  0
  6  1  1  0
  7  5  2  0
  8 11  1  0
  9  6  2  0
 12 20  1  0
 13 18  1  0
 14 15  1  0
 14 13  1  0
 16 15  1  0
 16 25  1  0
 16 17  1  0
 18 12  1  0
 18 17  1  0
 19 12  2  0
 20 21  1  0
 22 23  2  0
 23 42  1  0
 24 23  1  0
 24 27  1  0
 25 26  1  0
 25 22  1  0
 26 24  2  0
 27 28  1  0
 28 29  2  0
 30 33  1  0
 30 29  1  0
 31 30  2  0
 32 31  1  0
 32 27  2  0
 33 34  1  0
 34 35  1  0
 35 36  2  0
 37 36  1  0
 37 41  1  0
 38 37  2  0
 39 34  2  0
 39 38  1  0
 40 39  1  0
 42 43  1  0
 43 46  1  0
 43 45  1  0
 44 42  2  0
 47 22  1  0
 47 48  1  0
 49 47  1  0
 51 50  1  0
 53 52  1  0
 54 56  1  0
 54  1  1  0
 56 55  1  0
 57 59  1  0
 57 56  1  0
 58 69  2  0
 59 64  1  0
 60 68  1  0
 60 70  1  0
 61 67  1  0
 61 63  1  0
 62 68  1  0
 63 62  1  0
 64 63  2  0
 65 66  1  0
 65 59  2  0
 66 61  2  0
 67 60  1  0
 68 58  1  0
 70 72  2  0
 71 70  1  0
 73 71  1  0
 74 83  2  0
 74 79  1  0
 75 71  1  0
 75 79  1  0
 76 75  1  0
 77 78  1  0
 77 76  1  0
 78 74  1  0
 79 80  2  0
 80 81  1  0
 82 81  2  0
 83 82  1  0
 84 58  1  0
 84 85  1  0
 84 94  1  0
 85 88  1  0
 86 90  1  0
 86 85  1  0
 87 86  2  0
 90 89  1  0
 92 90  1  0
 92 93  1  0
 92 91  1  0
 94 97  1  1
 94 95  1  0
 96 94  1  0
M  ISO  4  12 100  20 100  56 101  57 101
M  END
>  <TORSDO>  (73) 
F 21

>  <SCORE>  (73) 
-11.404

>  <name>  (73) 
73

>  <ligand_id>  (73) 
73

>  <original_smiles>  (73) 
[H]OC(=C(C(=O)N([H])c1nc([H])c(N([H])C(=O)N2C([H])([H])C([H])([H])C([H])([H])C([H])(n3nc(-c4c([H])c([H])c(Oc5c([H])c([H])c(F)c([H])c5F)c([H])c4[H])c(C(=O)N([H])[H])c3N([H])[H])C2([H])[H])s1)C([H])([H])C([H])(Oc1c([H])c([H])c2c(c1[H])C([H])([H])N(C(=O)C([H])(N([H])C(=O)C([H])(N([H])C([H])([H])[H])C([H])([H])[H])C(C([H])([H])[H])(C([H])([H])[H])C([H])([H])[H])C([H])(C(=O)N([H])C1([H])c3c([H])c([H])c([H])c([H])c3C([H])([H])C([H])([H])C1([H])[H])C2([H])[H])C([H])([H])[H])C([H])([H])C([H])([H])[H]

>  <smiles>  (73) 
[H]OC(=C(C(=O)N([H])c1nc([H])c(N([H])C(=O)N2C([H])([H])C([H])([H])C([H])([H])C([H])(n3nc(-c4c([H])c([H])c(Oc5c([H])c([H])c(F)c([H])c5F)c([H])c4[H])c(C(=O)N([H])[H])c3N([H])[H])C2([H])[H])s1)C([H])([H])C([H])(Oc1c([H])c([H])c2c(c1[H])C([H])([H])N(C(=O)C([H])(N([H])C(=O)C([H])(N([H])C([H])([H])[H])C([H])([H])[H])C(C([H])([H])[H])(C([H])([H])[H])C([H])([H])[H])C([H])(C(=O)N([H])C1([H])c3c([H])c([H])c([H])c([H])c3C([H])([H])C([H])([H])C1([H])[H])C2([H])[H])C([H])([H])[H])C([H])([H])C([H])([H])[H]

$$$$
74:0:0
     RDKit          3D

 93101  0  0  1  0  0  0  0  0999 V2000
  -29.9450  -20.4670   20.0150 C   0  0  0  0  0  0  0  0  0  0  0  0
  -29.6300  -21.5350   20.7790 N   0  0  0  0  0  0  0  0  0  0  0  0
  -29.9940  -20.5440   18.7850 O   0  0  0  0  0  0  0  0  0  0  0  0
  -29.7290  -21.4160   21.7770 H   0  0  0  0  0  0  0  0  0  0  0  0
  -30.7520  -14.4270   20.1810 C   0  0  0  0  0  0  0  0  0  0  0  0
  -30.3490  -12.3400   18.9150 C   0  0  0  0  0  2  0  0  0  0  0  0
  -29.3380  -12.6200   17.7840 C   0  0  0  0  0  2  0  0  0  0  0  0
  -27.8920  -12.4730   18.2930 C   0  0  0  0  0  2  0  0  0  0  0  0
  -27.6440  -13.2450   19.6150 C   0  0  0  0  0  3  0  0  0  0  0  0
  -28.7580  -12.9440   20.6450 C   0  0  0  0  0  2  0  0  0  0  0  0
  -30.0610  -13.2620   20.0270 N   0  0  0  0  0  0  0  0  0  0  0  0
  -31.7730  -14.6870   19.5360 O   0  0  0  0  0  0  0  0  0  0  0  0
  -29.9050  -18.7550   21.9920 C   0  0  0  0  0  3  0  0  0  0  0  0
  -30.1270  -19.1480   20.6920 C   0  0  0  0  0  0  0  0  0  0  0  0
  -30.2900  -16.6960   21.0850 C   0  0  0  0  0  0  0  0  0  0  0  0
  -29.9840  -17.3670   22.2010 N   0  0  0  0  0  0  0  0  0  0  0  0
  -30.2560  -15.2760   21.0980 N   0  0  0  0  0  0  0  0  0  0  0  0
  -30.5330  -17.7560   19.6890 S   0  0  0  0  0  0  0  0  0  0  0  0
  -29.5860  -14.8700   21.7320 H   0  0  0  0  0  0  0  0  0  0  0  0
  -25.2920  -13.8500   20.4720 C   0  0  0  0  0  0  0  0  0  0  0  0
  -24.2370  -13.0750   20.8750 C   0  0  0  0  0  0  0  0  0  0  0  0
  -24.6800  -11.7220   20.7740 C   0  0  0  0  0  0  0  0  0  0  0  0
  -26.3130  -12.9670   20.1550 N   0  0  0  0  0  0  0  0  0  0  0  0
  -25.9510  -11.6810   20.3910 N   0  0  0  0  0  0  0  0  0  0  0  0
  -23.9530  -10.4610   20.9660 C   0  0  0  0  0  0  0  0  0  0  0  0
  -24.3930   -9.4870   21.8900 C   0  0  0  0  0  3  0  0  0  0  0  0
  -23.6670   -8.2910   22.0710 C   0  0  0  0  0  3  0  0  0  0  0  0
  -22.4850   -8.0580   21.3280 C   0  0  0  0  0  0  0  0  0  0  0  0
  -22.0630   -9.0200   20.3940 C   0  0  0  0  0  3  0  0  0  0  0  0
  -22.7900  -10.2090   20.2110 C   0  0  0  0  0  3  0  0  0  0  0  0
  -21.7310   -6.9130   21.4170 O   0  0  0  0  0  0  0  0  0  0  0  0
  -21.6440   -6.1980   22.5850 C   0  0  0  0  0  0  0  0  0  0  0  0
  -21.1770   -6.7820   23.7830 C   0  0  0  0  0  3  0  0  0  0  0  0
  -21.0360   -5.9930   24.9420 C   0  0  0  0  0  3  0  0  0  0  0  0
  -21.3520   -4.6220   24.9040 C   0  0  0  0  0  0  0  0  0  0  0  0
  -21.8120   -4.0380   23.7110 C   0  0  0  0  0  3  0  0  0  0  0  0
  -21.9550   -4.8240   22.5540 C   0  0  0  0  0  0  0  0  0  0  0  0
  -22.3780   -4.2520   21.4010 F   0  0  0  0  0  0  0  0  0  0  0  0
  -21.2090   -3.8620   26.0150 F   0  0  0  0  0  0  0  0  0  0  0  0
  -22.8630  -13.5570   21.2430 C   0  0  0  0  0  0  0  0  0  0  0  0
  -22.1820  -12.8440   22.1320 N   0  0  0  0  0  0  0  0  0  0  0  0
  -22.4030  -14.6000   20.7780 O   0  0  0  0  0  0  0  0  0  0  0  0
  -22.5670  -12.0000   22.5300 H   0  0  0  0  0  0  0  0  0  0  0  0
  -21.2650  -13.1500   22.4220 H   0  0  0  0  0  0  0  0  0  0  0  0
  -25.4620  -15.2240   20.3320 N   0  0  0  0  0  0  0  0  0  0  0  0
  -24.7100  -15.8800   20.5080 H   0  0  0  0  0  0  0  0  0  0  0  0
  -26.3030  -15.6680   19.9860 H   0  0  0  0  0  0  0  0  0  0  0  0
  -27.3310  -22.2750   20.9170 C   0  0  0  0  0  1  0  0  0  0  0  0
  -28.7250  -22.6230   20.3490 C   0  0  0  0  0  3  0  0  0  0  0  0
  -29.5690  -24.2780   22.1640 C   0  0  0  0  0  1  0  0  0  0  0  0
  -29.2020  -24.0910   20.6820 C   0  0  0  0  0  3  0  0  0  0  0  0
  -28.1370  -25.1330   20.2160 C   0  0  0  0  0  2  0  0  0  0  0  0
  -28.3940  -26.5570   20.3220 O   0  0  0  0  0  0  0  0  0  0  0  0
  -24.6200  -31.8620   23.2720 C   0  0  0  0  0  0  0  0  0  0  0  0
  -27.2560  -27.3570   20.2440 C   0  0  0  0  0  0  0  0  0  0  0  0
  -23.4190  -30.4570   21.6330 C   0  0  0  0  0  3  0  0  0  0  0  0
  -24.8750  -28.9110   20.2210 C   0  0  0  0  0  0  0  0  0  0  0  0
  -25.9530  -30.7940   21.4540 C   0  0  0  0  0  2  0  0  0  0  0  0
  -26.0370  -29.4180   20.8170 C   0  0  0  0  0  0  0  0  0  0  0  0
  -27.2310  -28.6510   20.8240 C   0  0  0  0  0  3  0  0  0  0  0  0
  -26.0710  -26.8910   19.6180 C   0  0  0  0  0  3  0  0  0  0  0  0
  -24.8900  -27.6480   19.6160 C   0  0  0  0  0  3  0  0  0  0  0  0
  -23.6350  -29.7750   20.2580 C   0  0  0  0  0  2  0  0  0  0  0  0
  -24.6820  -31.0530   22.1770 N   0  0  0  0  0  0  0  0  0  0  0  0
  -23.5370  -32.1440   23.8020 O   0  0  0  0  0  0  0  0  0  0  0  0
  -22.7560  -29.4420   22.5940 C   0  0  0  0  0  0  0  0  0  0  0  0
  -21.4310  -29.2630   22.4580 N   0  0  0  0  0  0  0  0  0  0  0  0
  -23.4300  -28.8190   23.4180 O   0  0  0  0  0  0  0  0  0  0  0  0
  -20.9480  -29.8220   21.7680 H   0  0  0  0  0  0  0  0  0  0  0  0
  -18.0480  -28.0830   22.9430 C   0  0  0  0  0  0  0  0  0  0  0  0
  -20.6050  -28.3340   23.2280 C   0  0  0  0  0  3  0  0  0  0  0  0
  -20.7050  -26.8970   22.6650 C   0  0  0  0  0  2  0  0  0  0  0  0
  -19.6070  -26.5670   21.6490 C   0  0  0  0  0  2  0  0  0  0  0  0
  -18.2220  -26.7250   22.2840 C   0  0  0  0  0  2  0  0  0  0  0  0
  -19.1670  -28.8440   23.3730 C   0  0  0  0  0  0  0  0  0  0  0  0
  -18.9510  -30.1150   23.9490 C   0  0  0  0  0  3  0  0  0  0  0  0
  -17.6480  -30.6230   24.1030 C   0  0  0  0  0  3  0  0  0  0  0  0
  -16.5430  -29.8580   23.6920 C   0  0  0  0  0  3  0  0  0  0  0  0
  -16.7420  -28.5890   23.1150 C   0  0  0  0  0  3  0  0  0  0  0  0
  -25.9060  -32.4910   23.8940 C   0  0  0  0  0  3  0  0  0  0  0  0
  -26.4170  -31.7220   25.1730 C   0  0  1  0  0  0  0  0  0  0  0  0
  -25.3190  -31.4870   26.2360 C   0  0  0  0  0  1  0  0  0  0  0  0
  -27.0000  -30.3440   24.7850 C   0  0  0  0  0  1  0  0  0  0  0  0
  -27.5660  -32.5180   25.8370 C   0  0  0  0  0  1  0  0  0  0  0  0
  -25.6000  -33.8910   24.2150 N   0  0  0  0  0  0  0  0  0  0  0  0
  -25.9240  -34.9360   23.4420 C   0  0  0  0  0  0  0  0  0  0  0  0
  -26.5830  -34.8220   22.4050 O   0  0  0  0  0  0  0  0  0  0  0  0
  -25.0150  -34.0540   25.0220 H   0  0  0  0  0  0  0  0  0  0  0  0
  -24.1820  -36.7160   23.0990 C   0  0  0  0  0  1  0  0  0  0  0  0
  -25.4410  -36.3280   23.8920 C   0  0  0  0  0  3  0  0  0  0  0  0
  -27.5850  -37.2320   24.6720 C   0  0  0  0  0  1  0  0  0  0  0  0
  -26.4660  -37.3830   23.7460 N   0  0  0  0  0  0  0  0  0  0  0  0
  -26.0600  -38.3040   23.8880 H   0  0  0  0  0  0  0  0  0  0  0  0
  1 14  1  0
  1  2  1  0
  2  4  1  0
  3  1  2  0
  5 17  1  0
  6 11  1  0
  7  8  1  0
  7  6  1  0
  9  8  1  0
  9 23  1  0
  9 10  1  0
 11  5  1  0
 11 10  1  0
 12  5  2  0
 13 16  1  0
 14 13  2  0
 15 17  1  0
 15 16  2  0
 17 19  1  0
 18 14  1  0
 18 15  1  0
 20 21  2  0
 21 40  1  0
 22 21  1  0
 22 25  1  0
 23 24  1  0
 23 20  1  0
 24 22  2  0
 25 26  1  0
 26 27  2  0
 28 31  1  0
 28 27  1  0
 29 28  2  0
 30 29  1  0
 30 25  2  0
 31 32  1  0
 32 33  1  0
 33 34  2  0
 35 34  1  0
 35 39  1  0
 36 35  2  0
 37 32  2  0
 37 36  1  0
 38 37  1  0
 40 41  1  0
 41 44  1  0
 41 43  1  0
 42 40  2  0
 45 20  1  0
 45 46  1  0
 47 45  1  0
 49 51  1  0
 49  2  1  0
 49 48  1  0
 51 50  1  0
 52 53  1  0
 52 51  1  0
 54 65  2  0
 55 53  1  0
 55 60  1  0
 56 64  1  0
 56 66  1  0
 57 63  1  0
 57 59  1  0
 58 64  1  0
 59 60  2  0
 59 58  1  0
 61 55  2  0
 62 61  1  0
 62 57  2  0
 63 56  1  0
 64 54  1  0
 66 68  2  0
 67 66  1  0
 69 67  1  0
 70 79  2  0
 70 75  1  0
 71 67  1  0
 71 75  1  0
 72 71  1  0
 73 74  1  0
 73 72  1  0
 74 70  1  0
 75 76  2  0
 76 77  1  0
 78 77  2  0
 79 78  1  0
 80 54  1  0
 80 85  1  0
 80 81  1  0
 81 84  1  1
 81 82  1  0
 83 81  1  0
 85 88  1  0
 86 90  1  0
 86 85  1  0
 87 86  2  0
 90 89  1  0
 92 93  1  0
 92 90  1  0
 92 91  1  0
M  ISO  4   5 100  17 100  52 101  53 101
M  END
>  <TORSDO>  (74) 
F 19

>  <SCORE>  (74) 
-13.591

>  <name>  (74) 
74

>  <ligand_id>  (74) 
74

>  <original_smiles>  (74) 
[H]c1nc(N([H])C(=O)N2C([H])([H])C([H])([H])C([H])([H])C([H])(n3nc(-c4c([H])c([H])c(Oc5c([H])c([H])c(F)c([H])c5F)c([H])c4[H])c(C(=O)N([H])[H])c3N([H])[H])C2([H])[H])sc1C(=O)N([H])C([H])(C([H])([H])[H])C([H])(C([H])([H])[H])C([H])([H])Oc1c([H])c([H])c2c(c1[H])C([H])([H])N(C(=O)C([H])(N([H])C(=O)C([H])(N([H])C([H])([H])[H])C([H])([H])[H])C(C([H])([H])[H])(C([H])([H])[H])C([H])([H])[H])C([H])(C(=O)N([H])C1([H])c3c([H])c([H])c([H])c([H])c3C([H])([H])C([H])([H])C1([H])[H])C2([H])[H]

>  <smiles>  (74) 
[H]c1nc(N([H])C(=O)N2C([H])([H])C([H])([H])C([H])([H])C([H])(n3nc(-c4c([H])c([H])c(Oc5c([H])c([H])c(F)c([H])c5F)c([H])c4[H])c(C(=O)N([H])[H])c3N([H])[H])C2([H])[H])sc1C(=O)N([H])C([H])(C([H])([H])[H])C([H])(C([H])([H])[H])C([H])([H])Oc1c([H])c([H])c2c(c1[H])C([H])([H])N(C(=O)C([H])(N([H])C(=O)C([H])(N([H])C([H])([H])[H])C([H])([H])[H])C(C([H])([H])[H])(C([H])([H])[H])C([H])([H])[H])C([H])(C(=O)N([H])C1([H])c3c([H])c([H])c([H])c([H])c3C([H])([H])C([H])([H])C1([H])[H])C2([H])[H]

$$$$
75:0:0
     RDKit          3D

 92100  0  0  1  0  0  0  0  0999 V2000
  -28.3090  -23.7820   19.9090 C   0  0  0  0  0  0  0  0  0  0  0  0
  -28.8940  -22.5750   20.2960 N   0  0  0  0  0  0  0  0  0  0  0  0
  -27.6880  -23.8580   18.8470 O   0  0  0  0  0  0  0  0  0  0  0  0
  -29.3700  -22.5830   21.1870 H   0  0  0  0  0  0  0  0  0  0  0  0
  -29.5730  -21.3880   18.1930 C   0  0  0  0  0  1  0  0  0  0  0  0
  -28.8650  -21.2340   19.5540 C   0  0  0  0  0  3  0  0  0  0  0  0
  -30.5450  -14.7690   20.4750 C   0  0  0  0  0  0  0  0  0  0  0  0
  -30.4190  -12.4810   19.4700 C   0  0  0  0  0  2  0  0  0  0  0  0
  -29.4990  -12.5420   18.2290 C   0  0  0  0  0  2  0  0  0  0  0  0
  -28.0200  -12.3660   18.6310 C   0  0  0  0  0  2  0  0  0  0  0  0
  -27.6180  -13.2560   19.8360 C   0  0  0  0  0  3  0  0  0  0  0  0
  -28.6550  -13.1570   20.9770 C   0  0  0  0  0  2  0  0  0  0  0  0
  -29.9630  -13.5230   20.4160 N   0  0  0  0  0  0  0  0  0  0  0  0
  -31.7360  -14.9110   20.1720 O   0  0  0  0  0  0  0  0  0  0  0  0
  -30.5670  -19.4890   20.7350 C   0  0  0  0  0  3  0  0  0  0  0  0
  -29.3530  -19.8610   20.1760 C   0  0  0  0  0  0  0  0  0  0  0  0
  -29.7680  -17.3020   20.5230 C   0  0  0  0  0  0  0  0  0  0  0  0
  -30.7890  -18.0840   20.9190 N   0  0  0  0  0  0  0  0  0  0  0  0
  -29.6800  -15.8320   20.6690 N   0  0  0  0  0  0  0  0  0  0  0  0
  -28.4300  -18.3490   19.9310 S   0  0  0  0  0  0  0  0  0  0  0  0
  -28.7350  -15.5110   20.7980 H   0  0  0  0  0  0  0  0  0  0  0  0
  -25.2120  -13.8550   20.5000 C   0  0  0  0  0  0  0  0  0  0  0  0
  -24.1420  -13.0830   20.8590 C   0  0  0  0  0  0  0  0  0  0  0  0
  -24.6090  -11.7320   20.8560 C   0  0  0  0  0  0  0  0  0  0  0  0
  -26.2640  -12.9740   20.2980 N   0  0  0  0  0  0  0  0  0  0  0  0
  -25.9050  -11.6950   20.5760 N   0  0  0  0  0  0  0  0  0  0  0  0
  -23.8820  -10.4710   21.0460 C   0  0  0  0  0  0  0  0  0  0  0  0
  -24.3070   -9.5080   21.9880 C   0  0  0  0  0  3  0  0  0  0  0  0
  -23.5810   -8.3110   22.1660 C   0  0  0  0  0  3  0  0  0  0  0  0
  -22.4160   -8.0680   21.4010 C   0  0  0  0  0  0  0  0  0  0  0  0
  -22.0100   -9.0190   20.4480 C   0  0  0  0  0  3  0  0  0  0  0  0
  -22.7370  -10.2080   20.2690 C   0  0  0  0  0  3  0  0  0  0  0  0
  -21.6620   -6.9230   21.4880 O   0  0  0  0  0  0  0  0  0  0  0  0
  -21.6150   -6.1770   22.6380 C   0  0  0  0  0  0  0  0  0  0  0  0
  -21.1960   -6.7310   23.8680 C   0  0  0  0  0  3  0  0  0  0  0  0
  -21.0960   -5.9120   25.0100 C   0  0  0  0  0  3  0  0  0  0  0  0
  -21.4050   -4.5420   24.9250 C   0  0  0  0  0  0  0  0  0  0  0  0
  -21.8170   -3.9880   23.7000 C   0  0  0  0  0  3  0  0  0  0  0  0
  -21.9180   -4.8030   22.5590 C   0  0  0  0  0  0  0  0  0  0  0  0
  -22.2960   -4.2600   21.3770 F   0  0  0  0  0  0  0  0  0  0  0  0
  -21.3010   -3.7530   26.0200 F   0  0  0  0  0  0  0  0  0  0  0  0
  -22.7370  -13.5600   21.0920 C   0  0  0  0  0  0  0  0  0  0  0  0
  -21.9910  -12.8720   21.9490 N   0  0  0  0  0  0  0  0  0  0  0  0
  -22.3080  -14.5760   20.5480 O   0  0  0  0  0  0  0  0  0  0  0  0
  -22.3490  -12.0490   22.4110 H   0  0  0  0  0  0  0  0  0  0  0  0
  -21.0470  -13.1730   22.1480 H   0  0  0  0  0  0  0  0  0  0  0  0
  -25.3740  -15.2230   20.3040 N   0  0  0  0  0  0  0  0  0  0  0  0
  -24.5900  -15.8640   20.3730 H   0  0  0  0  0  0  0  0  0  0  0  0
  -26.2000  -15.6560   19.9110 H   0  0  0  0  0  0  0  0  0  0  0  0
  -27.3600  -25.0130   21.9720 C   0  0  0  0  0  1  0  0  0  0  0  0
  -28.3700  -25.1040   20.8120 C   0  0  0  0  0  3  0  0  0  0  0  0
  -28.3370  -26.4520   20.1350 O   0  0  0  0  0  0  0  0  0  0  0  0
  -24.6140  -31.8740   23.2260 C   0  0  0  0  0  0  0  0  0  0  0  0
  -27.2090  -27.2970   20.1580 C   0  0  0  0  0  0  0  0  0  0  0  0
  -23.4030  -30.4780   21.5880 C   0  0  0  0  0  3  0  0  0  0  0  0
  -24.8450  -28.9210   20.1550 C   0  0  0  0  0  0  0  0  0  0  0  0
  -25.9410  -30.7930   21.3910 C   0  0  0  0  0  2  0  0  0  0  0  0
  -26.0180  -29.4110   20.7450 C   0  0  0  0  0  0  0  0  0  0  0  0
  -27.2040  -28.6120   20.7300 C   0  0  0  0  0  3  0  0  0  0  0  0
  -26.0160  -26.8640   19.5470 C   0  0  0  0  0  3  0  0  0  0  0  0
  -24.8470  -27.6550   19.5460 C   0  0  0  0  0  3  0  0  0  0  0  0
  -23.6100  -29.8000   20.2080 C   0  0  0  0  0  2  0  0  0  0  0  0
  -24.6720  -31.0670   22.1260 N   0  0  0  0  0  0  0  0  0  0  0  0
  -23.5340  -32.1500   23.7670 O   0  0  0  0  0  0  0  0  0  0  0  0
  -22.7430  -29.4620   22.5520 C   0  0  0  0  0  0  0  0  0  0  0  0
  -21.4160  -29.2860   22.4330 N   0  0  0  0  0  0  0  0  0  0  0  0
  -23.4250  -28.8350   23.3670 O   0  0  0  0  0  0  0  0  0  0  0  0
  -20.9250  -29.8440   21.7490 H   0  0  0  0  0  0  0  0  0  0  0  0
  -18.0440  -28.0790   22.9390 C   0  0  0  0  0  0  0  0  0  0  0  0
  -20.6010  -28.3460   23.2060 C   0  0  0  0  0  3  0  0  0  0  0  0
  -20.7070  -26.9150   22.6300 C   0  0  0  0  0  2  0  0  0  0  0  0
  -19.6040  -26.5880   21.6180 C   0  0  0  0  0  2  0  0  0  0  0  0
  -18.2230  -26.7290   22.2650 C   0  0  0  0  0  2  0  0  0  0  0  0
  -19.1600  -28.8450   23.3670 C   0  0  0  0  0  0  0  0  0  0  0  0
  -18.9380  -30.1070   23.9590 C   0  0  0  0  0  3  0  0  0  0  0  0
  -17.6320  -30.6040   24.1270 C   0  0  0  0  0  3  0  0  0  0  0  0
  -16.5300  -29.8350   23.7160 C   0  0  0  0  0  3  0  0  0  0  0  0
  -16.7360  -28.5740   23.1280 C   0  0  0  0  0  3  0  0  0  0  0  0
  -25.9000  -32.5060   23.8440 C   0  0  0  0  0  3  0  0  0  0  0  0
  -25.5920  -33.9030   24.1810 N   0  0  0  0  0  0  0  0  0  0  0  0
  -25.9200  -34.9610   23.4250 C   0  0  0  0  0  0  0  0  0  0  0  0
  -26.5840  -34.8610   22.3900 O   0  0  0  0  0  0  0  0  0  0  0  0
  -25.0010  -34.0550   24.9850 H   0  0  0  0  0  0  0  0  0  0  0  0
  -24.1920  -36.7570   23.0900 C   0  0  0  0  0  1  0  0  0  0  0  0
  -25.4380  -36.3480   23.8920 C   0  0  0  0  0  3  0  0  0  0  0  0
  -27.5790  -37.2270   24.7140 C   0  0  0  0  0  1  0  0  0  0  0  0
  -26.4710  -37.4010   23.7770 N   0  0  0  0  0  0  0  0  0  0  0  0
  -26.0670  -38.3200   23.9320 H   0  0  0  0  0  0  0  0  0  0  0  0
  -26.4220  -31.7320   25.1170 C   0  0  1  0  0  0  0  0  0  0  0  0
  -25.3350  -31.4960   26.1910 C   0  0  0  0  0  1  0  0  0  0  0  0
  -27.0000  -30.3540   24.7200 C   0  0  0  0  0  1  0  0  0  0  0  0
  -27.5770  -32.5240   25.7730 C   0  0  0  0  0  1  0  0  0  0  0  0
  1  2  1  0
  1 51  1  0
  2  4  1  0
  3  1  2  0
  6  5  1  0
  6 16  1  0
  6  2  1  0
  7 19  1  0
  8 13  1  0
  9 10  1  0
  9  8  1  0
 11 10  1  0
 11 25  1  0
 11 12  1  0
 13  7  1  0
 13 12  1  0
 14  7  2  0
 15 18  1  0
 16 15  2  0
 17 19  1  0
 17 18  2  0
 19 21  1  0
 20 16  1  0
 20 17  1  0
 22 23  2  0
 23 42  1  0
 24 23  1  0
 24 27  1  0
 25 22  1  0
 25 26  1  0
 26 24  2  0
 27 28  1  0
 28 29  2  0
 30 33  1  0
 30 29  1  0
 31 30  2  0
 32 31  1  0
 32 27  2  0
 33 34  1  0
 34 35  1  0
 35 36  2  0
 37 36  1  0
 37 41  1  0
 38 37  2  0
 39 34  2  0
 39 38  1  0
 40 39  1  0
 42 43  1  0
 43 46  1  0
 43 45  1  0
 44 42  2  0
 47 48  1  0
 47 22  1  0
 49 47  1  0
 51 50  1  0
 52 54  1  0
 52 51  1  0
 53 64  2  0
 54 59  1  0
 55 63  1  0
 55 65  1  0
 56 62  1  0
 56 58  1  0
 57 63  1  0
 58 57  1  0
 59 58  2  0
 60 54  2  0
 61 60  1  0
 61 56  2  0
 62 55  1  0
 63 53  1  0
 65 67  2  0
 66 65  1  0
 68 66  1  0
 69 78  2  0
 69 74  1  0
 70 66  1  0
 70 74  1  0
 71 70  1  0
 72 73  1  0
 72 71  1  0
 73 69  1  0
 74 75  2  0
 75 76  1  0
 77 76  2  0
 78 77  1  0
 79 53  1  0
 79 80  1  0
 79 89  1  0
 80 83  1  0
 81 85  1  0
 81 80  1  0
 82 81  2  0
 85 84  1  0
 87 85  1  0
 87 88  1  0
 87 86  1  0
 89 92  1  1
 89 90  1  0
 91 89  1  0
M  ISO  4   7 100  19 100  51 101  52 101
M  END
>  <TORSDO>  (75) 
F 18

>  <SCORE>  (75) 
-14.749

>  <name>  (75) 
75

>  <ligand_id>  (75) 
75

>  <original_smiles>  (75) 
[H]c1nc(N([H])C(=O)N2C([H])([H])C([H])([H])C([H])([H])C([H])(n3nc(-c4c([H])c([H])c(Oc5c([H])c([H])c(F)c([H])c5F)c([H])c4[H])c(C(=O)N([H])[H])c3N([H])[H])C2([H])[H])sc1C([H])(N([H])C(=O)C([H])(Oc1c([H])c([H])c2c(c1[H])C([H])([H])N(C(=O)C([H])(N([H])C(=O)C([H])(N([H])C([H])([H])[H])C([H])([H])[H])C(C([H])([H])[H])(C([H])([H])[H])C([H])([H])[H])C([H])(C(=O)N([H])C1([H])c3c([H])c([H])c([H])c([H])c3C([H])([H])C([H])([H])C1([H])[H])C2([H])[H])C([H])([H])[H])C([H])([H])[H]

>  <smiles>  (75) 
[H]c1nc(N([H])C(=O)N2C([H])([H])C([H])([H])C([H])([H])C([H])(n3nc(-c4c([H])c([H])c(Oc5c([H])c([H])c(F)c([H])c5F)c([H])c4[H])c(C(=O)N([H])[H])c3N([H])[H])C2([H])[H])sc1C([H])(N([H])C(=O)C([H])(Oc1c([H])c([H])c2c(c1[H])C([H])([H])N(C(=O)C([H])(N([H])C(=O)C([H])(N([H])C([H])([H])[H])C([H])([H])[H])C(C([H])([H])[H])(C([H])([H])[H])C([H])([H])[H])C([H])(C(=O)N([H])C1([H])c3c([H])c([H])c([H])c([H])c3C([H])([H])C([H])([H])C1([H])[H])C2([H])[H])C([H])([H])[H])C([H])([H])[H]

$$$$
76:0:0
     RDKit          3D

 98106  0  0  1  0  0  0  0  0999 V2000
  -28.3450  -19.7540   20.9820 C   0  0  0  0  0  3  0  0  0  0  0  0
  -30.5360  -19.0830   20.3990 C   0  0  0  0  0  0  0  0  0  0  0  0
  -29.6690  -20.1240   20.8940 C   0  0  0  0  0  0  0  0  0  0  0  0
  -29.8040  -17.9480   20.1040 C   0  0  0  0  0  0  0  0  0  0  0  0
  -28.0900  -18.1480   20.3850 S   0  0  0  0  0  0  0  0  0  0  0  0
  -29.5200  -22.5980   21.0850 C   0  0  0  0  0  0  0  0  0  0  0  0
  -30.1400  -21.4160   21.2700 N   0  0  0  0  0  0  0  0  0  0  0  0
  -28.3250  -22.7260   20.7940 O   0  0  0  0  0  0  0  0  0  0  0  0
  -31.0960  -21.4820   21.6050 H   0  0  0  0  0  0  0  0  0  0  0  0
  -30.3900  -23.8400   21.2860 C   0  0  0  0  0  2  0  0  0  0  0  0
  -29.9200  -25.0370   20.4390 C   0  0  0  0  0  2  0  0  0  0  0  0
  -29.7160  -26.8170   22.1900 C   0  0  0  0  0  1  0  0  0  0  0  0
  -28.9410  -26.0010   21.1450 C   0  0  0  0  0  3  0  0  0  0  0  0
  -28.4940  -26.8790   20.1290 O   0  0  0  0  0  0  0  0  0  0  0  0
  -24.5710  -31.9760   23.2920 C   0  0  0  0  0  0  0  0  0  0  0  0
  -27.3010  -27.5280   20.3100 C   0  0  0  0  0  0  0  0  0  0  0  0
  -23.3970  -30.5490   21.6350 C   0  0  0  0  0  3  0  0  0  0  0  0
  -24.8900  -28.9850   20.2770 C   0  0  0  0  0  0  0  0  0  0  0  0
  -25.9150  -30.9320   21.4650 C   0  0  0  0  0  2  0  0  0  0  0  0
  -26.0280  -29.5400   20.8730 C   0  0  0  0  0  0  0  0  0  0  0  0
  -27.2390  -28.8150   20.8940 C   0  0  0  0  0  3  0  0  0  0  0  0
  -26.1430  -26.9680   19.7350 C   0  0  0  0  0  3  0  0  0  0  0  0
  -24.9370  -27.6930   19.7190 C   0  0  0  0  0  3  0  0  0  0  0  0
  -23.6420  -29.8350   20.2730 C   0  0  0  0  0  2  0  0  0  0  0  0
  -24.6440  -31.1740   22.1880 N   0  0  0  0  0  0  0  0  0  0  0  0
  -23.4810  -32.2400   23.8190 O   0  0  0  0  0  0  0  0  0  0  0  0
  -22.7410  -29.5380   22.6040 C   0  0  0  0  0  0  0  0  0  0  0  0
  -21.4160  -29.3530   22.4800 N   0  0  0  0  0  0  0  0  0  0  0  0
  -23.4270  -28.9190   23.4240 O   0  0  0  0  0  0  0  0  0  0  0  0
  -20.9220  -29.9340   21.8150 H   0  0  0  0  0  0  0  0  0  0  0  0
  -18.0470  -28.1350   22.9460 C   0  0  0  0  0  0  0  0  0  0  0  0
  -20.6010  -28.4090   23.2470 C   0  0  0  0  0  3  0  0  0  0  0  0
  -20.7110  -26.9690   22.6880 C   0  0  0  0  0  2  0  0  0  0  0  0
  -19.6240  -26.6330   21.6630 C   0  0  0  0  0  2  0  0  0  0  0  0
  -18.2350  -26.7780   22.2930 C   0  0  0  0  0  2  0  0  0  0  0  0
  -19.1580  -28.9060   23.3830 C   0  0  0  0  0  0  0  0  0  0  0  0
  -18.9270  -30.1740   23.9560 C   0  0  0  0  0  3  0  0  0  0  0  0
  -17.6190  -30.6740   24.0960 C   0  0  0  0  0  3  0  0  0  0  0  0
  -16.5240  -29.9040   23.6690 C   0  0  0  0  0  3  0  0  0  0  0  0
  -16.7390  -28.6370   23.0970 C   0  0  0  0  0  3  0  0  0  0  0  0
  -25.8450  -32.6170   23.9290 C   0  0  0  0  0  3  0  0  0  0  0  0
  -25.5320  -34.0190   24.2320 N   0  0  0  0  0  0  0  0  0  0  0  0
  -25.8760  -35.0600   23.4620 C   0  0  0  0  0  0  0  0  0  0  0  0
  -26.5640  -34.9490   22.4440 O   0  0  0  0  0  0  0  0  0  0  0  0
  -24.9150  -34.1820   25.0120 H   0  0  0  0  0  0  0  0  0  0  0  0
  -24.1520  -36.8500   23.0420 C   0  0  0  0  0  1  0  0  0  0  0  0
  -25.3700  -36.4510   23.8880 C   0  0  0  0  0  3  0  0  0  0  0  0
  -27.4840  -37.3580   24.7520 C   0  0  0  0  0  1  0  0  0  0  0  0
  -26.4010  -37.5040   23.7850 N   0  0  0  0  0  0  0  0  0  0  0  0
  -25.9880  -38.4240   23.9150 H   0  0  0  0  0  0  0  0  0  0  0  0
  -26.3510  -31.8720   25.2270 C   0  0  1  0  0  0  0  0  0  0  0  0
  -25.2470  -31.6500   26.2890 C   0  0  0  0  0  1  0  0  0  0  0  0
  -26.9490  -30.4940   24.8560 C   0  0  0  0  0  1  0  0  0  0  0  0
  -27.4850  -32.6850   25.8990 C   0  0  0  0  0  1  0  0  0  0  0  0
  -32.0330  -19.1600   20.1270 C   0  0  1  0  0  0  0  0  0  0  0  0
  -32.5560  -20.3610   20.3830 F   0  0  0  0  0  0  0  0  0  0  0  0
  -32.7200  -18.2730   20.8540 F   0  0  0  0  0  0  0  0  0  0  0  0
  -32.2790  -18.9020   18.8410 F   0  0  0  0  0  0  0  0  0  0  0  0
  -29.7520  -16.3810   18.1390 C   0  0  0  0  0  1  0  0  0  0  0  0
  -30.3180  -16.6620   19.5480 C   0  0  0  0  0  3  0  0  0  0  0  0
  -30.8410  -14.5060   20.6070 C   0  0  0  0  0  0  0  0  0  0  0  0
  -30.5780  -12.3220   19.5990 C   0  0  0  0  0  2  0  0  0  0  0  0
  -29.6980  -12.4920   18.3420 C   0  0  0  0  0  2  0  0  0  0  0  0
  -28.2000  -12.4240   18.6950 C   0  0  0  0  0  2  0  0  0  0  0  0
  -27.8110  -13.3190   19.9030 C   0  0  0  0  0  3  0  0  0  0  0  0
  -28.8000  -13.1410   21.0800 C   0  0  0  0  0  2  0  0  0  0  0  0
  -30.1670  -13.3380   20.5730 N   0  0  0  0  0  0  0  0  0  0  0  0
  -32.0460  -14.6110   20.3750 O   0  0  0  0  0  0  0  0  0  0  0  0
  -30.0300  -15.5620   20.4650 N   0  0  0  0  0  0  0  0  0  0  0  0
  -29.0630  -15.4320   20.7210 H   0  0  0  0  0  0  0  0  0  0  0  0
  -25.3910  -13.9820   20.4860 C   0  0  0  0  0  0  0  0  0  0  0  0
  -24.3000  -13.2350   20.8190 C   0  0  0  0  0  0  0  0  0  0  0  0
  -24.7450  -11.8740   20.8560 C   0  0  0  0  0  0  0  0  0  0  0  0
  -26.4350  -13.0810   20.3280 N   0  0  0  0  0  0  0  0  0  0  0  0
  -26.0460  -11.8140   20.6160 N   0  0  0  0  0  0  0  0  0  0  0  0
  -24.0020  -10.6240   21.0400 C   0  0  0  0  0  0  0  0  0  0  0  0
  -24.3850   -9.6700   22.0090 C   0  0  0  0  0  3  0  0  0  0  0  0
  -23.6400   -8.4850   22.1770 C   0  0  0  0  0  3  0  0  0  0  0  0
  -22.5000   -8.2430   21.3750 C   0  0  0  0  0  0  0  0  0  0  0  0
  -22.1390   -9.1840   20.3950 C   0  0  0  0  0  3  0  0  0  0  0  0
  -22.8830  -10.3610   20.2230 C   0  0  0  0  0  3  0  0  0  0  0  0
  -21.7290   -7.1080   21.4530 O   0  0  0  0  0  0  0  0  0  0  0  0
  -21.6290   -6.3840   22.6140 C   0  0  0  0  0  0  0  0  0  0  0  0
  -21.1710   -6.9640   23.8180 C   0  0  0  0  0  3  0  0  0  0  0  0
  -21.0170   -6.1670   24.9710 C   0  0  0  0  0  3  0  0  0  0  0  0
  -21.3120   -4.7920   24.9200 C   0  0  0  0  0  0  0  0  0  0  0  0
  -21.7640   -4.2120   23.7230 C   0  0  0  0  0  3  0  0  0  0  0  0
  -21.9190   -5.0050   22.5720 C   0  0  0  0  0  0  0  0  0  0  0  0
  -22.3340   -4.4350   21.4150 F   0  0  0  0  0  0  0  0  0  0  0  0
  -21.1590   -4.0240   26.0260 F   0  0  0  0  0  0  0  0  0  0  0  0
  -22.8910  -13.7260   21.0040 C   0  0  0  0  0  0  0  0  0  0  0  0
  -22.1170  -13.0640   21.8510 N   0  0  0  0  0  0  0  0  0  0  0  0
  -22.4900  -14.7390   20.4280 O   0  0  0  0  0  0  0  0  0  0  0  0
  -22.4520  -12.2480   22.3400 H   0  0  0  0  0  0  0  0  0  0  0  0
  -21.1680  -13.3740   22.0130 H   0  0  0  0  0  0  0  0  0  0  0  0
  -25.5870  -15.3510   20.2750 N   0  0  0  0  0  0  0  0  0  0  0  0
  -24.8260  -16.0180   20.3080 H   0  0  0  0  0  0  0  0  0  0  0  0
  -26.4600  -15.7640   19.9810 H   0  0  0  0  0  0  0  0  0  0  0  0
  2  3  1  0
  3  1  2  0
  3  7  1  0
  4  5  1  0
  4  2  2  0
  5  1  1  0
  6  7  1  0
  6 10  1  0
  7  9  1  0
  8  6  2  0
 11 13  1  0
 11 10  1  0
 13 12  1  0
 14 16  1  0
 14 13  1  0
 15 26  2  0
 16 21  1  0
 17 25  1  0
 17 27  1  0
 18 20  1  0
 19 25  1  0
 20 21  2  0
 20 19  1  0
 22 16  2  0
 23 22  1  0
 23 18  2  0
 24 18  1  0
 24 17  1  0
 25 15  1  0
 27 29  2  0
 28 27  1  0
 30 28  1  0
 31 40  2  0
 31 36  1  0
 32 28  1  0
 32 36  1  0
 33 32  1  0
 34 35  1  0
 34 33  1  0
 35 31  1  0
 36 37  2  0
 37 38  1  0
 39 38  2  0
 40 39  1  0
 41 15  1  0
 41 42  1  0
 41 51  1  0
 42 45  1  0
 43 47  1  0
 43 42  1  0
 44 43  2  0
 47 46  1  0
 49 47  1  0
 49 50  1  0
 49 48  1  0
 51 54  1  1
 51 52  1  0
 53 51  1  0
 55 56  1  1
 55  2  1  0
 55 57  1  0
 58 55  1  0
 60 59  1  0
 60  4  1  0
 60 69  1  0
 62 67  1  0
 63 64  1  0
 63 62  1  0
 65 64  1  0
 65 74  1  0
 65 66  1  0
 67 61  1  0
 67 66  1  0
 68 61  2  0
 69 61  1  0
 69 70  1  0
 71 72  2  0
 72 73  1  0
 72 91  1  0
 73 76  1  0
 74 71  1  0
 74 75  1  0
 75 73  2  0
 76 77  1  0
 77 78  2  0
 79 82  1  0
 79 78  1  0
 80 79  2  0
 81 80  1  0
 81 76  2  0
 82 83  1  0
 83 84  1  0
 84 85  2  0
 86 85  1  0
 86 90  1  0
 87 86  2  0
 88 83  2  0
 88 87  1  0
 89 88  1  0
 91 92  1  0
 92 95  1  0
 92 94  1  0
 93 91  2  0
 96 97  1  0
 96 71  1  0
 98 96  1  0
M  ISO  4  13 101  14 101  61 100  69 100
M  END
>  <TORSDO>  (76) 
F 22

>  <SCORE>  (76) 
-12.633

>  <name>  (76) 
76

>  <ligand_id>  (76) 
76

>  <original_smiles>  (76) 
[H]c1sc(C([H])(N([H])C(=O)N2C([H])([H])C([H])([H])C([H])([H])C([H])(n3nc(-c4c([H])c([H])c(Oc5c([H])c([H])c(F)c([H])c5F)c([H])c4[H])c(C(=O)N([H])[H])c3N([H])[H])C2([H])[H])C([H])([H])[H])c(C(F)(F)F)c1N([H])C(=O)C([H])([H])C([H])([H])C([H])(Oc1c([H])c([H])c2c(c1[H])C([H])([H])N(C(=O)C([H])(N([H])C(=O)C([H])(N([H])C([H])([H])[H])C([H])([H])[H])C(C([H])([H])[H])(C([H])([H])[H])C([H])([H])[H])C([H])(C(=O)N([H])C1([H])c3c([H])c([H])c([H])c([H])c3C([H])([H])C([H])([H])C1([H])[H])C2([H])[H])C([H])([H])[H]

>  <smiles>  (76) 
[H]c1sc(C([H])(N([H])C(=O)N2C([H])([H])C([H])([H])C([H])([H])C([H])(n3nc(-c4c([H])c([H])c(Oc5c([H])c([H])c(F)c([H])c5F)c([H])c4[H])c(C(=O)N([H])[H])c3N([H])[H])C2([H])[H])C([H])([H])[H])c(C(F)(F)F)c1N([H])C(=O)C([H])([H])C([H])([H])C([H])(Oc1c([H])c([H])c2c(c1[H])C([H])([H])N(C(=O)C([H])(N([H])C(=O)C([H])(N([H])C([H])([H])[H])C([H])([H])[H])C(C([H])([H])[H])(C([H])([H])[H])C([H])([H])[H])C([H])(C(=O)N([H])C1([H])c3c([H])c([H])c([H])c([H])c3C([H])([H])C([H])([H])C1([H])[H])C2([H])[H])C([H])([H])[H]

$$$$
77:0:0
     RDKit          3D

 95103  0  0  1  0  0  0  0  0999 V2000
  -29.8780  -21.1400   22.6280 C   0  0  0  0  0  1  0  0  0  0  0  0
  -29.4970  -21.7320   21.2570 C   0  0  0  0  0  3  0  0  0  0  0  0
  -28.8320  -20.7290   20.4000 N   0  0  0  0  0  0  0  0  0  0  0  0
  -28.7020  -21.1280   19.4720 H   0  0  0  0  0  0  0  0  0  0  0  0
  -30.3510  -19.1000   19.2950 C   0  0  0  0  0  3  0  0  0  0  0  0
  -30.6870  -17.7050   19.3010 C   0  0  0  0  0  0  0  0  0  0  0  0
  -29.4210  -19.4640   20.2260 C   0  0  0  0  0  0  0  0  0  0  0  0
  -30.0130  -16.9760   20.2760 C   0  0  0  0  0  0  0  0  0  0  0  0
  -31.6520  -17.1870   18.2770 C   0  0  0  0  0  1  0  0  0  0  0  0
  -28.9460  -18.0640   21.1630 S   0  0  0  0  0  0  0  0  0  0  0  0
  -30.7200  -14.5980   20.1320 C   0  0  0  0  0  0  0  0  0  0  0  0
  -30.3840  -12.4440   18.9890 C   0  0  0  0  0  2  0  0  0  0  0  0
  -29.3960  -12.6790   17.8270 C   0  0  0  0  0  2  0  0  0  0  0  0
  -27.9400  -12.5390   18.3120 C   0  0  0  0  0  2  0  0  0  0  0  0
  -27.6580  -13.3460   19.6090 C   0  0  0  0  0  3  0  0  0  0  0  0
  -28.7570  -13.1010   20.6660 C   0  0  0  0  0  2  0  0  0  0  0  0
  -30.0570  -13.4110   20.0490 N   0  0  0  0  0  0  0  0  0  0  0  0
  -31.8690  -14.7320   19.7080 O   0  0  0  0  0  0  0  0  0  0  0  0
  -29.9840  -15.6370   20.5900 N   0  0  0  0  0  0  0  0  0  0  0  0
  -29.1660  -15.3470   21.1060 H   0  0  0  0  0  0  0  0  0  0  0  0
  -25.2900  -13.9430   20.4180 C   0  0  0  0  0  0  0  0  0  0  0  0
  -24.2380  -13.1660   20.8210 C   0  0  0  0  0  0  0  0  0  0  0  0
  -24.6960  -11.8150   20.7560 C   0  0  0  0  0  0  0  0  0  0  0  0
  -26.3250  -13.0650   20.1360 N   0  0  0  0  0  0  0  0  0  0  0  0
  -25.9740  -11.7790   20.3980 N   0  0  0  0  0  0  0  0  0  0  0  0
  -23.9780  -10.5500   20.9610 C   0  0  0  0  0  0  0  0  0  0  0  0
  -24.4330   -9.5840   21.8860 C   0  0  0  0  0  3  0  0  0  0  0  0
  -23.7160   -8.3840   22.0760 C   0  0  0  0  0  3  0  0  0  0  0  0
  -22.5300   -8.1420   21.3430 C   0  0  0  0  0  0  0  0  0  0  0  0
  -22.0950   -9.0960   20.4070 C   0  0  0  0  0  3  0  0  0  0  0  0
  -22.8130  -10.2880   20.2150 C   0  0  0  0  0  3  0  0  0  0  0  0
  -21.7820   -6.9930   21.4450 O   0  0  0  0  0  0  0  0  0  0  0  0
  -21.7350   -6.2650   22.6060 C   0  0  0  0  0  0  0  0  0  0  0  0
  -21.3040   -6.8320   23.8250 C   0  0  0  0  0  3  0  0  0  0  0  0
  -21.2040   -6.0310   24.9790 C   0  0  0  0  0  3  0  0  0  0  0  0
  -21.5250   -4.6620   24.9160 C   0  0  0  0  0  0  0  0  0  0  0  0
  -21.9500   -4.0930   23.7020 C   0  0  0  0  0  3  0  0  0  0  0  0
  -22.0510   -4.8920   22.5500 C   0  0  0  0  0  0  0  0  0  0  0  0
  -22.4400   -4.3350   21.3780 F   0  0  0  0  0  0  0  0  0  0  0  0
  -21.4230   -3.8890   26.0230 F   0  0  0  0  0  0  0  0  0  0  0  0
  -22.8510  -13.6390   21.1530 C   0  0  0  0  0  0  0  0  0  0  0  0
  -22.1590  -12.9330   22.0390 N   0  0  0  0  0  0  0  0  0  0  0  0
  -22.3930  -14.6710   20.6630 O   0  0  0  0  0  0  0  0  0  0  0  0
  -22.5440  -12.0980   22.4570 H   0  0  0  0  0  0  0  0  0  0  0  0
  -21.2310  -13.2300   22.3040 H   0  0  0  0  0  0  0  0  0  0  0  0
  -25.4470  -15.3160   20.2490 N   0  0  0  0  0  0  0  0  0  0  0  0
  -24.6820  -15.9660   20.3940 H   0  0  0  0  0  0  0  0  0  0  0  0
  -26.2780  -15.7580   19.8760 H   0  0  0  0  0  0  0  0  0  0  0  0
  -28.6130  -23.0130   21.4620 C   0  0  0  0  0  3  0  0  0  0  0  0
  -27.2940  -22.5940   21.1850 O   0  0  0  0  0  0  0  0  0  0  0  0
  -27.4410  -21.6800   20.9180 H   0  0  0  0  0  0  0  0  0  0  0  0
  -28.9840  -24.2820   20.6320 C   0  0  0  0  0  2  0  0  0  0  0  0
  -28.9930  -26.0920   22.4750 C   0  0  0  0  0  1  0  0  0  0  0  0
  -28.3470  -25.6060   21.1650 C   0  0  0  0  0  3  0  0  0  0  0  0
  -28.4470  -26.7050   20.2300 O   0  0  0  0  0  0  0  0  0  0  0  0
  -24.6170  -31.9040   23.2450 C   0  0  0  0  0  0  0  0  0  0  0  0
  -27.3120  -27.4870   20.1830 C   0  0  0  0  0  0  0  0  0  0  0  0
  -23.4320  -30.4930   21.5950 C   0  0  0  0  0  3  0  0  0  0  0  0
  -24.9100  -28.9750   20.1700 C   0  0  0  0  0  0  0  0  0  0  0  0
  -25.9540  -30.8800   21.4060 C   0  0  0  0  0  2  0  0  0  0  0  0
  -26.0610  -29.5110   20.7660 C   0  0  0  0  0  0  0  0  0  0  0  0
  -27.2690  -28.7740   20.7670 C   0  0  0  0  0  3  0  0  0  0  0  0
  -26.1530  -26.9720   19.5700 C   0  0  0  0  0  3  0  0  0  0  0  0
  -24.9510  -27.7080   19.5630 C   0  0  0  0  0  3  0  0  0  0  0  0
  -23.6570  -29.8210   20.2130 C   0  0  0  0  0  2  0  0  0  0  0  0
  -24.6860  -31.1090   22.1410 N   0  0  0  0  0  0  0  0  0  0  0  0
  -23.5310  -32.1630   23.7830 O   0  0  0  0  0  0  0  0  0  0  0  0
  -22.7880  -29.4620   22.5510 C   0  0  0  0  0  0  0  0  0  0  0  0
  -21.4620  -29.2820   22.4320 N   0  0  0  0  0  0  0  0  0  0  0  0
  -23.4760  -28.8290   23.3550 O   0  0  0  0  0  0  0  0  0  0  0  0
  -20.9650  -29.8480   21.7580 H   0  0  0  0  0  0  0  0  0  0  0  0
  -18.0870  -28.0970   22.9530 C   0  0  0  0  0  0  0  0  0  0  0  0
  -20.6500  -28.3380   23.1990 C   0  0  0  0  0  3  0  0  0  0  0  0
  -20.7380  -26.9140   22.6040 C   0  0  0  0  0  2  0  0  0  0  0  0
  -19.6240  -26.6100   21.5960 C   0  0  0  0  0  2  0  0  0  0  0  0
  -18.2500  -26.7540   22.2590 C   0  0  0  0  0  2  0  0  0  0  0  0
  -19.2150  -28.8460   23.3800 C   0  0  0  0  0  0  0  0  0  0  0  0
  -19.0100  -30.1040   23.9890 C   0  0  0  0  0  3  0  0  0  0  0  0
  -17.7110  -30.6110   24.1730 C   0  0  0  0  0  3  0  0  0  0  0  0
  -16.5980  -29.8570   23.7630 C   0  0  0  0  0  3  0  0  0  0  0  0
  -16.7870  -28.6020   23.1580 C   0  0  0  0  0  3  0  0  0  0  0  0
  -25.8950  -32.5480   23.8700 C   0  0  0  0  0  3  0  0  0  0  0  0
  -25.5770  -33.9470   24.1880 N   0  0  0  0  0  0  0  0  0  0  0  0
  -25.9160  -34.9940   23.4240 C   0  0  0  0  0  0  0  0  0  0  0  0
  -26.6000  -34.8860   22.4030 O   0  0  0  0  0  0  0  0  0  0  0  0
  -24.9710  -34.1060   24.9790 H   0  0  0  0  0  0  0  0  0  0  0  0
  -24.1900  -36.7790   23.0270 C   0  0  0  0  0  1  0  0  0  0  0  0
  -25.4160  -36.3830   23.8650 C   0  0  0  0  0  3  0  0  0  0  0  0
  -27.5320  -37.2760   24.7340 C   0  0  0  0  0  1  0  0  0  0  0  0
  -26.4470  -37.4380   23.7680 N   0  0  0  0  0  0  0  0  0  0  0  0
  -26.0350  -38.3570   23.9090 H   0  0  0  0  0  0  0  0  0  0  0  0
  -26.4110  -31.7860   25.1510 C   0  0  1  0  0  0  0  0  0  0  0  0
  -25.3150  -31.5470   26.2160 C   0  0  0  0  0  1  0  0  0  0  0  0
  -27.0030  -30.4110   24.7650 C   0  0  0  0  0  1  0  0  0  0  0  0
  -27.5520  -32.5920   25.8170 C   0  0  0  0  0  1  0  0  0  0  0  0
  2 49  1  0
  2  1  1  0
  3  2  1  0
  4  3  1  0
  5  6  1  0
  5  7  2  0
  6  8  2  0
  7  3  1  0
  7 10  1  0
  8 19  1  0
  8 10  1  0
  9  6  1  0
 11 19  1  0
 12 17  1  0
 13 14  1  0
 13 12  1  0
 15 14  1  0
 15 24  1  0
 15 16  1  0
 17 11  1  0
 17 16  1  0
 18 11  2  0
 19 20  1  0
 21 22  2  0
 22 41  1  0
 23 22  1  0
 23 26  1  0
 24 25  1  0
 24 21  1  0
 25 23  2  0
 26 27  1  0
 27 28  2  0
 29 32  1  0
 29 28  1  0
 30 29  2  0
 31 30  1  0
 31 26  2  0
 32 33  1  0
 33 34  1  0
 34 35  2  0
 36 35  1  0
 36 40  1  0
 37 36  2  0
 38 33  2  0
 38 37  1  0
 39 38  1  0
 41 42  1  0
 42 45  1  0
 42 44  1  0
 43 41  2  0
 46 47  1  0
 46 21  1  0
 48 46  1  0
 49 52  1  0
 50 49  1  0
 51 50  1  0
 52 54  1  0
 54 53  1  0
 55 54  1  0
 56 67  2  0
 57 55  1  0
 57 62  1  0
 58 66  1  0
 58 68  1  0
 59 65  1  0
 59 61  1  0
 60 66  1  0
 61 62  2  0
 61 60  1  0
 63 57  2  0
 64 63  1  0
 64 59  2  0
 65 58  1  0
 66 56  1  0
 68 70  2  0
 69 68  1  0
 71 69  1  0
 72 81  2  0
 72 77  1  0
 73 69  1  0
 73 77  1  0
 74 73  1  0
 75 76  1  0
 75 74  1  0
 76 72  1  0
 77 78  2  0
 78 79  1  0
 80 79  2  0
 81 80  1  0
 82 56  1  0
 82 83  1  0
 82 92  1  0
 83 86  1  0
 84 88  1  0
 84 83  1  0
 85 84  2  0
 88 87  1  0
 90 88  1  0
 90 91  1  0
 90 89  1  0
 92 95  1  1
 92 93  1  0
 94 92  1  0
M  ISO  4  11 100  19 100  54 101  55 101
M  END
>  <TORSDO>  (77) 
F 22

>  <SCORE>  (77) 
-13.164

>  <name>  (77) 
77

>  <ligand_id>  (77) 
77

>  <original_smiles>  (77) 
[H]OC([H])(C([H])([H])C([H])(Oc1c([H])c([H])c2c(c1[H])C([H])([H])N(C(=O)C([H])(N([H])C(=O)C([H])(N([H])C([H])([H])[H])C([H])([H])[H])C(C([H])([H])[H])(C([H])([H])[H])C([H])([H])[H])C([H])(C(=O)N([H])C1([H])c3c([H])c([H])c([H])c([H])c3C([H])([H])C([H])([H])C1([H])[H])C2([H])[H])C([H])([H])[H])C([H])(N([H])c1sc(N([H])C(=O)N2C([H])([H])C([H])([H])C([H])([H])C([H])(n3nc(-c4c([H])c([H])c(Oc5c([H])c([H])c(F)c([H])c5F)c([H])c4[H])c(C(=O)N([H])[H])c3N([H])[H])C2([H])[H])c(C([H])([H])[H])c1[H])C([H])([H])[H]

>  <smiles>  (77) 
[H]OC([H])(C([H])([H])C([H])(Oc1c([H])c([H])c2c(c1[H])C([H])([H])N(C(=O)C([H])(N([H])C(=O)C([H])(N([H])C([H])([H])[H])C([H])([H])[H])C(C([H])([H])[H])(C([H])([H])[H])C([H])([H])[H])C([H])(C(=O)N([H])C1([H])c3c([H])c([H])c([H])c([H])c3C([H])([H])C([H])([H])C1([H])[H])C2([H])[H])C([H])([H])[H])C([H])(N([H])c1sc(N([H])C(=O)N2C([H])([H])C([H])([H])C([H])([H])C([H])(n3nc(-c4c([H])c([H])c(Oc5c([H])c([H])c(F)c([H])c5F)c([H])c4[H])c(C(=O)N([H])[H])c3N([H])[H])C2([H])[H])c(C([H])([H])[H])c1[H])C([H])([H])[H]

$$$$
78:0:0
     RDKit          3D

 95103  0  0  1  0  0  0  0  0999 V2000
  -29.0880  -21.1190   21.2940 C   0  0  0  0  0  0  0  0  0  0  0  0
  -30.2930  -20.5520   21.5110 N   0  0  0  0  0  0  0  0  0  0  0  0
  -28.2510  -20.6530   20.5120 O   0  0  0  0  0  0  0  0  0  0  0  0
  -31.0440  -20.9850   22.0290 H   0  0  0  0  0  0  0  0  0  0  0  0
  -29.7080  -18.0610   21.0870 C   0  0  0  0  0  3  0  0  0  0  0  0
  -30.5570  -16.9980   20.8800 C   0  0  0  0  0  0  0  0  0  0  0  0
  -31.8040  -18.8160   21.1030 C   0  0  0  0  0  3  0  0  0  0  0  0
  -33.0170  -19.6930   21.1870 C   0  0  0  0  0  1  0  0  0  0  0  0
  -30.5090  -19.1850   21.2290 N   0  0  0  0  0  0  0  0  0  0  0  0
  -31.8300  -17.4950   20.8720 N   0  0  0  0  0  0  0  0  0  0  0  0
  -32.6700  -16.9490   20.7240 H   0  0  0  0  0  0  0  0  0  0  0  0
  -30.8900  -14.6100   20.2110 C   0  0  0  0  0  0  0  0  0  0  0  0
  -30.5820  -12.4330   19.0880 C   0  0  0  0  0  2  0  0  0  0  0  0
  -29.5950  -12.6010   17.9150 C   0  0  0  0  0  2  0  0  0  0  0  0
  -28.1370  -12.4590   18.3950 C   0  0  0  0  0  2  0  0  0  0  0  0
  -27.8340  -13.3170   19.6530 C   0  0  0  0  0  3  0  0  0  0  0  0
  -28.9250  -13.1170   20.7290 C   0  0  0  0  0  2  0  0  0  0  0  0
  -30.2270  -13.4260   20.1120 N   0  0  0  0  0  0  0  0  0  0  0  0
  -32.0050  -14.7990   19.7140 O   0  0  0  0  0  0  0  0  0  0  0  0
  -30.1750  -15.6240   20.7410 N   0  0  0  0  0  0  0  0  0  0  0  0
  -29.2380  -15.3820   21.0210 H   0  0  0  0  0  0  0  0  0  0  0  0
  -25.4750  -13.9350   20.4760 C   0  0  0  0  0  0  0  0  0  0  0  0
  -24.4130  -13.1660   20.8710 C   0  0  0  0  0  0  0  0  0  0  0  0
  -24.8550  -11.8090   20.7840 C   0  0  0  0  0  0  0  0  0  0  0  0
  -26.4980  -13.0470   20.1790 N   0  0  0  0  0  0  0  0  0  0  0  0
  -26.1310  -11.7630   20.4210 N   0  0  0  0  0  0  0  0  0  0  0  0
  -24.1210  -10.5510   20.9700 C   0  0  0  0  0  0  0  0  0  0  0  0
  -24.5300   -9.5920   21.9230 C   0  0  0  0  0  3  0  0  0  0  0  0
  -23.7970   -8.3970   22.0960 C   0  0  0  0  0  3  0  0  0  0  0  0
  -22.6410   -8.1560   21.3150 C   0  0  0  0  0  0  0  0  0  0  0  0
  -22.2520   -9.1030   20.3520 C   0  0  0  0  0  3  0  0  0  0  0  0
  -22.9860  -10.2890   20.1780 C   0  0  0  0  0  3  0  0  0  0  0  0
  -21.8830   -7.0130   21.3960 O   0  0  0  0  0  0  0  0  0  0  0  0
  -21.7500   -6.3190   22.5720 C   0  0  0  0  0  0  0  0  0  0  0  0
  -21.1870   -6.9080   23.7260 C   0  0  0  0  0  3  0  0  0  0  0  0
  -21.0050   -6.1380   24.8910 C   0  0  0  0  0  3  0  0  0  0  0  0
  -21.3750   -4.7810   24.9040 C   0  0  0  0  0  0  0  0  0  0  0  0
  -21.9310   -4.1910   23.7560 C   0  0  0  0  0  3  0  0  0  0  0  0
  -22.1150   -4.9570   22.5920 C   0  0  0  0  0  0  0  0  0  0  0  0
  -22.6300   -4.3790   21.4810 F   0  0  0  0  0  0  0  0  0  0  0  0
  -21.1940   -4.0390   26.0230 F   0  0  0  0  0  0  0  0  0  0  0  0
  -23.0350  -13.6510   21.2140 C   0  0  0  0  0  0  0  0  0  0  0  0
  -22.3320  -12.9350   22.0840 N   0  0  0  0  0  0  0  0  0  0  0  0
  -22.5910  -14.7000   20.7460 O   0  0  0  0  0  0  0  0  0  0  0  0
  -22.7040  -12.0850   22.4820 H   0  0  0  0  0  0  0  0  0  0  0  0
  -21.4070  -13.2390   22.3560 H   0  0  0  0  0  0  0  0  0  0  0  0
  -25.6490  -15.3070   20.3240 N   0  0  0  0  0  0  0  0  0  0  0  0
  -24.8820  -15.9580   20.4530 H   0  0  0  0  0  0  0  0  0  0  0  0
  -26.4650  -15.7390   19.9110 H   0  0  0  0  0  0  0  0  0  0  0  0
  -28.7400  -22.3650   22.1480 C   0  0  0  0  0  3  0  0  0  0  0  0
  -27.4140  -22.5250   22.1930 F   0  0  0  0  0  0  0  0  0  0  0  0
  -29.4120  -23.7260   21.8100 C   0  0  0  0  0  2  0  0  0  0  0  0
  -28.7640  -24.6270   20.7220 C   0  0  0  0  0  2  0  0  0  0  0  0
  -29.0790  -26.1330   20.9380 C   0  0  0  0  0  2  0  0  0  0  0  0
  -28.7100  -26.9490   19.8240 O   0  0  0  0  0  0  0  0  0  0  0  0
  -24.5510  -31.7620   23.1040 C   0  0  0  0  0  0  0  0  0  0  0  0
  -27.5080  -27.6100   19.9120 C   0  0  0  0  0  0  0  0  0  0  0  0
  -23.4620  -30.3710   21.3720 C   0  0  0  0  0  3  0  0  0  0  0  0
  -25.0330  -28.9730   19.9250 C   0  0  0  0  0  0  0  0  0  0  0  0
  -25.9670  -30.8730   21.2550 C   0  0  0  0  0  2  0  0  0  0  0  0
  -26.1440  -29.5340   20.5690 C   0  0  0  0  0  0  0  0  0  0  0  0
  -27.3850  -28.8560   20.5670 C   0  0  0  0  0  3  0  0  0  0  0  0
  -26.3860  -27.0610   19.2620 C   0  0  0  0  0  3  0  0  0  0  0  0
  -25.1480  -27.7320   19.2720 C   0  0  0  0  0  3  0  0  0  0  0  0
  -23.7420  -29.7600   19.9710 C   0  0  0  0  0  2  0  0  0  0  0  0
  -24.6760  -31.0160   21.9690 N   0  0  0  0  0  0  0  0  0  0  0  0
  -23.4440  -31.9510   23.6280 O   0  0  0  0  0  0  0  0  0  0  0  0
  -22.8450  -29.2760   22.2720 C   0  0  0  0  0  0  0  0  0  0  0  0
  -21.5260  -29.0620   22.1360 N   0  0  0  0  0  0  0  0  0  0  0  0
  -23.5510  -28.6250   23.0470 O   0  0  0  0  0  0  0  0  0  0  0  0
  -21.0170  -29.6430   21.4850 H   0  0  0  0  0  0  0  0  0  0  0  0
  -18.1820  -27.7840   22.6180 C   0  0  0  0  0  0  0  0  0  0  0  0
  -20.7420  -28.0540   22.8500 C   0  0  0  0  0  3  0  0  0  0  0  0
  -20.8490  -26.6750   22.1590 C   0  0  0  0  0  2  0  0  0  0  0  0
  -19.7250  -26.4170   21.1510 C   0  0  0  0  0  2  0  0  0  0  0  0
  -18.3570  -26.4940   21.8350 C   0  0  0  0  0  2  0  0  0  0  0  0
  -19.3010  -28.5240   23.0820 C   0  0  0  0  0  0  0  0  0  0  0  0
  -19.0830  -29.7350   23.7730 C   0  0  0  0  0  3  0  0  0  0  0  0
  -17.7770  -30.2050   24.0080 C   0  0  0  0  0  3  0  0  0  0  0  0
  -16.6710  -29.4600   23.5630 C   0  0  0  0  0  3  0  0  0  0  0  0
  -16.8750  -28.2510   22.8730 C   0  0  0  0  0  3  0  0  0  0  0  0
  -25.7870  -32.4320   23.7830 C   0  0  0  0  0  3  0  0  0  0  0  0
  -25.4100  -33.8100   24.1260 N   0  0  0  0  0  0  0  0  0  0  0  0
  -25.7140  -34.8860   23.3880 C   0  0  0  0  0  0  0  0  0  0  0  0
  -26.4130  -34.8270   22.3730 O   0  0  0  0  0  0  0  0  0  0  0  0
  -24.7910  -33.9270   24.9140 H   0  0  0  0  0  0  0  0  0  0  0  0
  -23.9170  -36.6040   23.0160 C   0  0  0  0  0  1  0  0  0  0  0  0
  -25.1540  -36.2440   23.8520 C   0  0  0  0  0  3  0  0  0  0  0  0
  -27.2220  -37.2170   24.7540 C   0  0  0  0  0  1  0  0  0  0  0  0
  -26.1410  -37.3440   23.7780 N   0  0  0  0  0  0  0  0  0  0  0  0
  -25.6890  -38.2420   23.9210 H   0  0  0  0  0  0  0  0  0  0  0  0
  -26.2910  -31.6570   25.0610 C   0  0  1  0  0  0  0  0  0  0  0  0
  -25.1730  -31.3480   26.0840 C   0  0  0  0  0  1  0  0  0  0  0  0
  -26.9490  -30.3170   24.6610 C   0  0  0  0  0  1  0  0  0  0  0  0
  -27.3800  -32.4870   25.7810 C   0  0  0  0  0  1  0  0  0  0  0  0
  1  2  1  0
  1 50  1  0
  2  4  1  0
  3  1  2  0
  5  9  1  0
  6  5  2  0
  7  8  1  0
  7  9  1  0
  9  2  1  0
 10  6  1  0
 10  7  1  0
 11 10  1  0
 12 20  1  0
 13 18  1  0
 14 15  1  0
 14 13  1  0
 16 15  1  0
 16 25  1  0
 16 17  1  0
 18 12  1  0
 18 17  1  0
 19 12  2  0
 20  6  1  0
 20 21  1  0
 22 23  2  0
 23 42  1  0
 24 23  1  0
 24 27  1  0
 25 26  1  0
 25 22  1  0
 26 24  2  0
 27 28  1  0
 28 29  2  0
 30 33  1  0
 30 29  1  0
 31 30  2  0
 32 31  1  0
 32 27  2  0
 33 34  1  0
 34 39  2  0
 34 35  1  0
 35 36  2  0
 36 37  1  0
 37 41  1  0
 38 37  2  0
 39 38  1  0
 40 39  1  0
 42 43  1  0
 43 46  1  0
 43 45  1  0
 44 42  2  0
 47 48  1  0
 47 22  1  0
 49 47  1  0
 50 51  1  0
 52 50  1  0
 53 54  1  0
 53 52  1  0
 55 57  1  0
 55 54  1  0
 56 67  2  0
 57 62  1  0
 58 66  1  0
 58 68  1  0
 59 65  1  0
 59 61  1  0
 60 66  1  0
 61 60  1  0
 62 61  2  0
 63 64  1  0
 63 57  2  0
 64 59  2  0
 65 58  1  0
 66 56  1  0
 68 70  2  0
 69 68  1  0
 71 69  1  0
 72 81  2  0
 72 77  1  0
 73 69  1  0
 73 77  1  0
 74 73  1  0
 75 76  1  0
 75 74  1  0
 76 72  1  0
 77 78  2  0
 78 79  1  0
 80 79  2  0
 81 80  1  0
 82 56  1  0
 82 83  1  0
 82 92  1  0
 83 86  1  0
 84 88  1  0
 84 83  1  0
 85 84  2  0
 88 87  1  0
 90 88  1  0
 90 91  1  0
 90 89  1  0
 92 95  1  1
 92 93  1  0
 94 92  1  0
M  ISO  4  12 100  20 100  54 101  55 101
M  END
>  <TORSDO>  (78) 
F 21

>  <SCORE>  (78) 
-13.485

>  <name>  (78) 
78

>  <ligand_id>  (78) 
78

>  <original_smiles>  (78) 
[H]c1c([H])c([H])c2c(c1[H])C([H])([H])C([H])([H])C([H])([H])C2([H])N([H])C(=O)C1([H])N(C(=O)C([H])(N([H])C(=O)C([H])(N([H])C([H])([H])[H])C([H])([H])[H])C(C([H])([H])[H])(C([H])([H])[H])C([H])([H])[H])C([H])([H])c2c([H])c(OC([H])([H])C([H])([H])C([H])([H])C([H])(F)C(=O)N([H])n3c([H])c(N([H])C(=O)N4C([H])([H])C([H])([H])C([H])([H])C([H])(n5nc(-c6c([H])c([H])c(Oc7c([H])c([H])c(F)c([H])c7F)c([H])c6[H])c(C(=O)N([H])[H])c5N([H])[H])C4([H])[H])[n+]([H])c3C([H])([H])[H])c([H])c([H])c2C1([H])[H]

>  <smiles>  (78) 
[H]c1c([H])c([H])c2c(c1[H])C([H])([H])C([H])([H])C([H])([H])C2([H])N([H])C(=O)C1([H])N(C(=O)C([H])(N([H])C(=O)C([H])(N([H])C([H])([H])[H])C([H])([H])[H])C(C([H])([H])[H])(C([H])([H])[H])C([H])([H])[H])C([H])([H])c2c([H])c(OC([H])([H])C([H])([H])C([H])([H])C([H])(F)C(=O)N([H])n3c([H])c(N([H])C(=O)N4C([H])([H])C([H])([H])C([H])([H])C([H])(n5nc(-c6c([H])c([H])c(Oc7c([H])c([H])c(F)c([H])c7F)c([H])c6[H])c(C(=O)N([H])[H])c5N([H])[H])C4([H])[H])[n+]([H])c3C([H])([H])[H])c([H])c([H])c2C1([H])[H]

$$$$
79:0:0
     RDKit          3D

 95103  0  0  1  0  0  0  0  0999 V2000
  -28.3630  -20.1570   20.0720 C   0  0  0  0  0  3  0  0  0  0  0  0
  -30.0160  -18.6360   20.7390 C   0  0  0  0  0  0  0  0  0  0  0  0
  -29.1440  -21.3070   20.4220 C   0  0  0  0  0  0  0  0  0  0  0  0
  -30.7930  -19.7850   21.1120 C   0  0  0  0  0  0  0  0  0  0  0  0
  -28.7770  -18.8480   20.2150 N   0  0  0  0  0  0  0  0  0  0  0  0
  -30.3710  -21.0710   20.9610 N   0  0  0  0  0  0  0  0  0  0  0  0
  -32.0710  -19.6820   21.6490 N   0  0  0  0  0  0  0  0  0  0  0  0
  -32.5730  -18.8020   21.6550 H   0  0  0  0  0  0  0  0  0  0  0  0
  -32.6510  -20.5080   21.7280 H   0  0  0  0  0  0  0  0  0  0  0  0
  -29.0330  -23.9190   20.3810 C   0  0  0  0  0  0  0  0  0  0  0  0
  -28.5940  -22.6370   20.1470 N   0  0  0  0  0  0  0  0  0  0  0  0
  -30.0180  -24.1860   21.0750 O   0  0  0  0  0  0  0  0  0  0  0  0
  -27.7310  -22.6140   19.6240 H   0  0  0  0  0  0  0  0  0  0  0  0
  -28.5020  -25.1290   18.2040 C   0  0  0  0  0  1  0  0  0  0  0  0
  -28.1980  -25.0870   19.7170 C   0  0  0  0  0  3  0  0  0  0  0  0
  -28.3480  -26.4690   20.2630 O   0  0  0  0  0  0  0  0  0  0  0  0
  -24.6210  -31.9140   23.2390 C   0  0  0  0  0  0  0  0  0  0  0  0
  -27.2390  -27.3400   20.1990 C   0  0  0  0  0  0  0  0  0  0  0  0
  -23.4260  -30.5150   21.6010 C   0  0  0  0  0  3  0  0  0  0  0  0
  -24.8770  -28.9690   20.1870 C   0  0  0  0  0  0  0  0  0  0  0  0
  -25.9690  -30.8290   21.4280 C   0  0  0  0  0  2  0  0  0  0  0  0
  -26.0480  -29.4490   20.7890 C   0  0  0  0  0  0  0  0  0  0  0  0
  -27.2310  -28.6430   20.7920 C   0  0  0  0  0  3  0  0  0  0  0  0
  -26.0370  -26.9340   19.5660 C   0  0  0  0  0  3  0  0  0  0  0  0
  -24.8750  -27.7140   19.5710 C   0  0  0  0  0  3  0  0  0  0  0  0
  -23.6440  -29.8440   20.2230 C   0  0  0  0  0  2  0  0  0  0  0  0
  -24.6910  -31.1020   22.1470 N   0  0  0  0  0  0  0  0  0  0  0  0
  -23.5350  -32.1940   23.7670 O   0  0  0  0  0  0  0  0  0  0  0  0
  -22.7570  -29.4960   22.5550 C   0  0  0  0  0  0  0  0  0  0  0  0
  -21.4320  -29.3190   22.4240 N   0  0  0  0  0  0  0  0  0  0  0  0
  -23.4310  -28.8690   23.3750 O   0  0  0  0  0  0  0  0  0  0  0  0
  -20.9440  -29.8790   21.7390 H   0  0  0  0  0  0  0  0  0  0  0  0
  -18.0460  -28.1550   22.9390 C   0  0  0  0  0  0  0  0  0  0  0  0
  -20.6090  -28.3860   23.1960 C   0  0  0  0  0  3  0  0  0  0  0  0
  -20.6910  -26.9560   22.6130 C   0  0  0  0  0  2  0  0  0  0  0  0
  -19.5800  -26.6490   21.6050 C   0  0  0  0  0  2  0  0  0  0  0  0
  -18.2030  -26.8060   22.2570 C   0  0  0  0  0  2  0  0  0  0  0  0
  -19.1750  -28.9030   23.3670 C   0  0  0  0  0  0  0  0  0  0  0  0
  -18.9720  -30.1650   23.9660 C   0  0  0  0  0  3  0  0  0  0  0  0
  -17.6740  -30.6800   24.1400 C   0  0  0  0  0  3  0  0  0  0  0  0
  -16.5590  -29.9290   23.7290 C   0  0  0  0  0  3  0  0  0  0  0  0
  -16.7470  -28.6680   23.1340 C   0  0  0  0  0  3  0  0  0  0  0  0
  -25.9000  -32.5500   23.8630 C   0  0  0  0  0  3  0  0  0  0  0  0
  -26.4060  -31.7850   25.1470 C   0  0  1  0  0  0  0  0  0  0  0  0
  -25.3060  -31.5500   26.2090 C   0  0  0  0  0  1  0  0  0  0  0  0
  -26.9950  -30.4070   24.7660 C   0  0  0  0  0  1  0  0  0  0  0  0
  -27.5490  -32.5840   25.8170 C   0  0  0  0  0  1  0  0  0  0  0  0
  -25.5890  -33.9490   24.1860 N   0  0  0  0  0  0  0  0  0  0  0  0
  -25.9170  -34.9990   23.4200 C   0  0  0  0  0  0  0  0  0  0  0  0
  -26.5880  -34.8900   22.3890 O   0  0  0  0  0  0  0  0  0  0  0  0
  -24.9960  -34.1080   24.9870 H   0  0  0  0  0  0  0  0  0  0  0  0
  -24.1980  -36.7960   23.0430 C   0  0  0  0  0  1  0  0  0  0  0  0
  -25.4290  -36.3890   23.8690 C   0  0  0  0  0  3  0  0  0  0  0  0
  -27.5510  -37.2780   24.7260 C   0  0  0  0  0  1  0  0  0  0  0  0
  -26.4640  -37.4400   23.7630 N   0  0  0  0  0  0  0  0  0  0  0  0
  -26.0560  -38.3620   23.9000 H   0  0  0  0  0  0  0  0  0  0  0  0
  -30.6530  -17.1900   20.8090 C   0  0  0  0  0  2  0  0  0  0  0  0
  -30.6080  -14.6920   20.4440 C   0  0  0  0  0  0  0  0  0  0  0  0
  -30.3270  -12.4770   19.3570 C   0  0  0  0  0  2  0  0  0  0  0  0
  -29.3850  -12.6020   18.1420 C   0  0  0  0  0  2  0  0  0  0  0  0
  -27.9180  -12.4350   18.5790 C   0  0  0  0  0  2  0  0  0  0  0  0
  -27.5610  -13.2990   19.8190 C   0  0  0  0  0  3  0  0  0  0  0  0
  -28.6250  -13.1800   20.9310 C   0  0  0  0  0  2  0  0  0  0  0  0
  -29.9220  -13.5110   20.3330 N   0  0  0  0  0  0  0  0  0  0  0  0
  -31.7960  -14.7450   20.1180 O   0  0  0  0  0  0  0  0  0  0  0  0
  -29.9360  -15.8610   20.7190 N   0  0  0  0  0  0  0  0  0  0  0  0
  -28.9420  -15.8410   20.8920 H   0  0  0  0  0  0  0  0  0  0  0  0
  -25.1740  -13.8800   20.5600 C   0  0  0  0  0  0  0  0  0  0  0  0
  -24.1120  -13.1000   20.9250 C   0  0  0  0  0  0  0  0  0  0  0  0
  -24.5770  -11.7490   20.8800 C   0  0  0  0  0  0  0  0  0  0  0  0
  -26.2200  -13.0040   20.3140 N   0  0  0  0  0  0  0  0  0  0  0  0
  -25.8690  -11.7180   20.5710 N   0  0  0  0  0  0  0  0  0  0  0  0
  -23.8550  -10.4830   21.0590 C   0  0  0  0  0  0  0  0  0  0  0  0
  -24.2830   -9.5130   21.9910 C   0  0  0  0  0  3  0  0  0  0  0  0
  -23.5580   -8.3130   22.1590 C   0  0  0  0  0  3  0  0  0  0  0  0
  -22.3920   -8.0740   21.3920 C   0  0  0  0  0  0  0  0  0  0  0  0
  -21.9830   -9.0340   20.4490 C   0  0  0  0  0  3  0  0  0  0  0  0
  -22.7090  -10.2260   20.2810 C   0  0  0  0  0  3  0  0  0  0  0  0
  -21.6400   -6.9280   21.4680 O   0  0  0  0  0  0  0  0  0  0  0  0
  -21.5680   -6.1900   22.6220 C   0  0  0  0  0  0  0  0  0  0  0  0
  -21.0820   -6.7390   23.8290 C   0  0  0  0  0  3  0  0  0  0  0  0
  -20.9590   -5.9260   24.9730 C   0  0  0  0  0  3  0  0  0  0  0  0
  -21.3100   -4.5650   24.9120 C   0  0  0  0  0  0  0  0  0  0  0  0
  -21.7890   -4.0150   23.7100 C   0  0  0  0  0  3  0  0  0  0  0  0
  -21.9140   -4.8250   22.5680 C   0  0  0  0  0  0  0  0  0  0  0  0
  -22.3550   -4.2850   21.4060 F   0  0  0  0  0  0  0  0  0  0  0  0
  -21.1840   -3.7820   26.0090 F   0  0  0  0  0  0  0  0  0  0  0  0
  -22.7140  -13.5700   21.2010 C   0  0  0  0  0  0  0  0  0  0  0  0
  -21.9870  -12.8600   22.0550 N   0  0  0  0  0  0  0  0  0  0  0  0
  -22.2750  -14.6030   20.6950 O   0  0  0  0  0  0  0  0  0  0  0  0
  -22.3560  -12.0250   22.4850 H   0  0  0  0  0  0  0  0  0  0  0  0
  -21.0490  -13.1590   22.2840 H   0  0  0  0  0  0  0  0  0  0  0  0
  -25.3350  -15.2540   20.3940 N   0  0  0  0  0  0  0  0  0  0  0  0
  -24.5650  -15.9030   20.5130 H   0  0  0  0  0  0  0  0  0  0  0  0
  -26.1780  -15.7010   20.0580 H   0  0  0  0  0  0  0  0  0  0  0  0
  1  5  2  0
  1  3  1  0
  2 57  1  0
  2  4  2  0
  3  6  2  0
  4  7  1  0
  5  2  1  0
  6  4  1  0
  7  8  1  0
  7  9  1  0
 10 12  2  0
 11 10  1  0
 11  3  1  0
 13 11  1  0
 15 14  1  0
 15 16  1  0
 15 10  1  0
 17 28  2  0
 18 16  1  0
 18 23  1  0
 19 27  1  0
 19 29  1  0
 20 26  1  0
 20 22  1  0
 21 27  1  0
 22 23  2  0
 22 21  1  0
 24 25  1  0
 24 18  2  0
 25 20  2  0
 26 19  1  0
 27 17  1  0
 29 31  2  0
 30 29  1  0
 32 30  1  0
 33 42  2  0
 33 38  1  0
 34 30  1  0
 34 38  1  0
 35 34  1  0
 36 37  1  0
 36 35  1  0
 37 33  1  0
 38 39  2  0
 39 40  1  0
 41 40  2  0
 42 41  1  0
 43 17  1  0
 43 48  1  0
 43 44  1  0
 44 47  1  1
 44 45  1  0
 46 44  1  0
 48 51  1  0
 49 53  1  0
 49 48  1  0
 50 49  2  0
 53 52  1  0
 55 53  1  0
 55 56  1  0
 55 54  1  0
 58 66  1  0
 59 64  1  0
 60 61  1  0
 60 59  1  0
 62 61  1  0
 62 71  1  0
 62 63  1  0
 64 58  1  0
 64 63  1  0
 65 58  2  0
 66 57  1  0
 66 67  1  0
 68 69  2  0
 69 88  1  0
 70 69  1  0
 70 73  1  0
 71 68  1  0
 71 72  1  0
 72 70  2  0
 73 74  1  0
 74 75  2  0
 76 79  1  0
 76 75  1  0
 77 76  2  0
 78 77  1  0
 78 73  2  0
 79 80  1  0
 80 81  1  0
 81 82  2  0
 83 82  1  0
 83 87  1  0
 84 83  2  0
 85 80  2  0
 85 84  1  0
 86 85  1  0
 88 89  1  0
 89 92  1  0
 89 91  1  0
 90 88  2  0
 93 94  1  0
 93 68  1  0
 95 93  1  0
M  ISO  4  15 101  16 101  58 100  66 100
M  END
>  <TORSDO>  (79) 
F 19

>  <SCORE>  (79) 
-14.517

>  <name>  (79) 
79

>  <ligand_id>  (79) 
79

>  <original_smiles>  (79) 
[H]c1nc(C([H])([H])N([H])C(=O)N2C([H])([H])C([H])([H])C([H])([H])C([H])(n3nc(-c4c([H])c([H])c(Oc5c([H])c([H])c(F)c([H])c5F)c([H])c4[H])c(C(=O)N([H])[H])c3N([H])[H])C2([H])[H])c(N([H])[H])nc1N([H])C(=O)C([H])(Oc1c([H])c([H])c2c(c1[H])C([H])([H])N(C(=O)C([H])(N([H])C(=O)C([H])(N([H])C([H])([H])[H])C([H])([H])[H])C(C([H])([H])[H])(C([H])([H])[H])C([H])([H])[H])C([H])(C(=O)N([H])C1([H])c3c([H])c([H])c([H])c([H])c3C([H])([H])C([H])([H])C1([H])[H])C2([H])[H])C([H])([H])[H]

>  <smiles>  (79) 
[H]c1nc(C([H])([H])N([H])C(=O)N2C([H])([H])C([H])([H])C([H])([H])C([H])(n3nc(-c4c([H])c([H])c(Oc5c([H])c([H])c(F)c([H])c5F)c([H])c4[H])c(C(=O)N([H])[H])c3N([H])[H])C2([H])[H])c(N([H])[H])nc1N([H])C(=O)C([H])(Oc1c([H])c([H])c2c(c1[H])C([H])([H])N(C(=O)C([H])(N([H])C(=O)C([H])(N([H])C([H])([H])[H])C([H])([H])[H])C(C([H])([H])[H])(C([H])([H])[H])C([H])([H])[H])C([H])(C(=O)N([H])C1([H])c3c([H])c([H])c([H])c([H])c3C([H])([H])C([H])([H])C1([H])[H])C2([H])[H])C([H])([H])[H]

$$$$
80:0:0
     RDKit          3D

 85 92  0  0  1  0  0  0  0  0999 V2000
  -30.2020  -23.2000   19.4770 C   0  0  0  0  0  1  0  0  0  0  0  0
  -28.7890  -22.8350   19.9490 C   0  0  0  0  0  3  0  0  0  0  0  0
  -28.0760  -24.3540   20.5590 C   0  0  0  0  0  2  0  0  0  0  0  0
  -28.2560  -25.9430   20.2220 O   0  0  0  0  0  0  0  0  0  0  0  0
  -24.6600  -31.8690   23.1810 C   0  0  0  0  0  0  0  0  0  0  0  0
  -27.2160  -26.9960   20.2190 C   0  0  0  0  0  0  0  0  0  0  0  0
  -23.4640  -30.4580   21.5560 C   0  0  0  0  0  3  0  0  0  0  0  0
  -24.9110  -28.8430   20.1540 C   0  0  0  0  0  0  0  0  0  0  0  0
  -26.0270  -30.6800   21.4020 C   0  0  0  0  0  2  0  0  0  0  0  0
  -26.0990  -29.2670   20.7640 C   0  0  0  0  0  0  0  0  0  0  0  0
  -27.2510  -28.3660   20.7660 C   0  0  0  0  0  3  0  0  0  0  0  0
  -25.9970  -26.7070   19.5700 C   0  0  0  0  0  3  0  0  0  0  0  0
  -24.8810  -27.5810   19.5370 C   0  0  0  0  0  3  0  0  0  0  0  0
  -23.6920  -29.7620   20.1870 C   0  0  0  0  0  2  0  0  0  0  0  0
  -24.7380  -31.0300   22.1000 N   0  0  0  0  0  0  0  0  0  0  0  0
  -23.5710  -32.1640   23.7000 O   0  0  0  0  0  0  0  0  0  0  0  0
  -22.7720  -29.4700   22.5300 C   0  0  0  0  0  0  0  0  0  0  0  0
  -21.4410  -29.3140   22.4130 N   0  0  0  0  0  0  0  0  0  0  0  0
  -23.4390  -28.8470   23.3590 O   0  0  0  0  0  0  0  0  0  0  0  0
  -20.9560  -29.8690   21.7220 H   0  0  0  0  0  0  0  0  0  0  0  0
  -18.0540  -28.1290   22.9460 C   0  0  0  0  0  0  0  0  0  0  0  0
  -20.6160  -28.3860   23.1940 C   0  0  0  0  0  3  0  0  0  0  0  0
  -20.7080  -26.9500   22.6300 C   0  0  0  0  0  2  0  0  0  0  0  0
  -19.6000  -26.6240   21.6230 C   0  0  0  0  0  2  0  0  0  0  0  0
  -18.2210  -26.7770   22.2740 C   0  0  0  0  0  2  0  0  0  0  0  0
  -19.1780  -28.8910   23.3640 C   0  0  0  0  0  0  0  0  0  0  0  0
  -18.9640  -30.1550   23.9560 C   0  0  0  0  0  3  0  0  0  0  0  0
  -17.6620  -30.6590   24.1300 C   0  0  0  0  0  3  0  0  0  0  0  0
  -16.5530  -29.8950   23.7260 C   0  0  0  0  0  3  0  0  0  0  0  0
  -16.7500  -28.6320   23.1400 C   0  0  0  0  0  3  0  0  0  0  0  0
  -25.9330  -32.5160   23.8070 C   0  0  0  0  0  3  0  0  0  0  0  0
  -25.6110  -33.9140   24.1420 N   0  0  0  0  0  0  0  0  0  0  0  0
  -25.9370  -34.9780   23.3950 C   0  0  0  0  0  0  0  0  0  0  0  0
  -26.6000  -34.8840   22.3600 O   0  0  0  0  0  0  0  0  0  0  0  0
  -25.0190  -34.0580   24.9470 H   0  0  0  0  0  0  0  0  0  0  0  0
  -24.1970  -36.7710   23.0760 C   0  0  0  0  0  1  0  0  0  0  0  0
  -25.4500  -36.3620   23.8680 C   0  0  0  0  0  3  0  0  0  0  0  0
  -27.5910  -37.2520   24.6790 C   0  0  0  0  0  1  0  0  0  0  0  0
  -26.4770  -37.4200   23.7500 N   0  0  0  0  0  0  0  0  0  0  0  0
  -26.0700  -38.3380   23.9080 H   0  0  0  0  0  0  0  0  0  0  0  0
  -26.4470  -31.7530   25.0900 C   0  0  1  0  0  0  0  0  0  0  0  0
  -25.3530  -31.5220   26.1590 C   0  0  0  0  0  1  0  0  0  0  0  0
  -27.0320  -30.3720   24.7160 C   0  0  0  0  0  1  0  0  0  0  0  0
  -27.5970  -32.5520   25.7480 C   0  0  0  0  0  1  0  0  0  0  0  0
  -28.9240  -21.2030   20.6600 C   0  0  0  0  0  2  0  0  0  0  0  0
  -29.0380  -19.6900   20.0720 O   0  0  0  0  0  0  0  0  0  0  0  0
  -29.8120  -18.3350   20.5930 C   0  0  0  0  0  0  0  0  0  0  0  0
  -30.7010  -18.4790   21.4330 O   0  0  0  0  0  0  0  0  0  0  0  0
  -29.4600  -16.7020   20.1430 C   0  0  0  0  0  2  0  0  0  0  0  0
  -30.3740  -15.2190   20.2020 C   0  0  0  0  0  0  0  0  0  0  0  0
  -30.3760  -12.7810   19.3420 C   0  0  0  0  0  2  0  0  0  0  0  0
  -29.4340  -12.6210   18.1200 C   0  0  0  0  0  2  0  0  0  0  0  0
  -27.9860  -12.3570   18.5690 C   0  0  0  0  0  2  0  0  0  0  0  0
  -27.5530  -13.3060   19.7150 C   0  0  0  0  0  3  0  0  0  0  0  0
  -28.6150  -13.4150   20.8270 C   0  0  0  0  0  2  0  0  0  0  0  0
  -29.8560  -13.8980   20.2030 N   0  0  0  0  0  0  0  0  0  0  0  0
  -31.5960  -15.2450   19.9890 O   0  0  0  0  0  0  0  0  0  0  0  0
  -25.1870  -13.8520   20.5030 C   0  0  0  0  0  0  0  0  0  0  0  0
  -24.1350  -13.0690   20.8830 C   0  0  0  0  0  0  0  0  0  0  0  0
  -24.6090  -11.7220   20.8440 C   0  0  0  0  0  0  0  0  0  0  0  0
  -26.2320  -12.9840   20.2400 N   0  0  0  0  0  0  0  0  0  0  0  0
  -25.8960  -11.6960   20.5150 N   0  0  0  0  0  0  0  0  0  0  0  0
  -23.8920  -10.4540   21.0410 C   0  0  0  0  0  0  0  0  0  0  0  0
  -24.3440   -9.4820   21.9610 C   0  0  0  0  0  3  0  0  0  0  0  0
  -23.6230   -8.2830   22.1470 C   0  0  0  0  0  3  0  0  0  0  0  0
  -22.4370   -8.0450   21.4140 C   0  0  0  0  0  0  0  0  0  0  0  0
  -22.0030   -9.0050   20.4830 C   0  0  0  0  0  3  0  0  0  0  0  0
  -22.7240  -10.1970   20.2940 C   0  0  0  0  0  3  0  0  0  0  0  0
  -21.6880   -6.8980   21.5090 O   0  0  0  0  0  0  0  0  0  0  0  0
  -21.6710   -6.1420   22.6540 C   0  0  0  0  0  0  0  0  0  0  0  0
  -21.2830   -6.6840   23.8990 C   0  0  0  0  0  3  0  0  0  0  0  0
  -21.2130   -5.8550   25.0360 C   0  0  0  0  0  3  0  0  0  0  0  0
  -21.5210   -4.4850   24.9300 C   0  0  0  0  0  0  0  0  0  0  0  0
  -21.9020   -3.9430   23.6900 C   0  0  0  0  0  3  0  0  0  0  0  0
  -21.9730   -4.7690   22.5550 C   0  0  0  0  0  0  0  0  0  0  0  0
  -22.3200   -4.2360   21.3590 F   0  0  0  0  0  0  0  0  0  0  0  0
  -21.4460   -3.6870   26.0210 F   0  0  0  0  0  0  0  0  0  0  0  0
  -22.7380  -13.5380   21.1690 C   0  0  0  0  0  0  0  0  0  0  0  0
  -22.0230  -12.8380   22.0430 N   0  0  0  0  0  0  0  0  0  0  0  0
  -22.2900  -14.5600   20.6520 O   0  0  0  0  0  0  0  0  0  0  0  0
  -22.3990  -12.0100   22.4820 H   0  0  0  0  0  0  0  0  0  0  0  0
  -21.0870  -13.1360   22.2770 H   0  0  0  0  0  0  0  0  0  0  0  0
  -25.3390  -15.2250   20.3270 N   0  0  0  0  0  0  0  0  0  0  0  0
  -24.5690  -15.8720   20.4520 H   0  0  0  0  0  0  0  0  0  0  0  0
  -26.1770  -15.6710   19.9760 H   0  0  0  0  0  0  0  0  0  0  0  0
  2  1  1  0
  2  3  1  0
  2 45  1  0
  4  3  1  0
  5 16  2  0
  6  4  1  0
  6 11  1  0
  7 15  1  0
  7 17  1  0
  8 14  1  0
  8 10  1  0
  9 15  1  0
 10 11  2  0
 10  9  1  0
 12  6  2  0
 13 12  1  0
 13  8  2  0
 14  7  1  0
 15  5  1  0
 17 19  2  0
 18 17  1  0
 20 18  1  0
 21 30  2  0
 21 26  1  0
 22 18  1  0
 22 26  1  0
 23 22  1  0
 24 25  1  0
 24 23  1  0
 25 21  1  0
 26 27  2  0
 27 28  1  0
 29 28  2  0
 30 29  1  0
 31  5  1  0
 31 32  1  0
 31 41  1  0
 32 35  1  0
 33 37  1  0
 33 32  1  0
 34 33  2  0
 37 36  1  0
 39 37  1  0
 39 40  1  0
 39 38  1  0
 41 44  1  1
 41 42  1  0
 43 41  1  0
 46 47  1  0
 46 45  1  0
 47 48  2  0
 49 50  1  0
 49 47  1  0
 50 56  1  0
 51 56  1  0
 52 53  1  0
 52 51  1  0
 54 53  1  0
 54 61  1  0
 54 55  1  0
 56 55  1  0
 57 50  2  0
 58 59  2  0
 59 78  1  0
 60 59  1  0
 60 63  1  0
 61 58  1  0
 61 62  1  0
 62 60  2  0
 63 64  1  0
 64 65  2  0
 66 69  1  0
 66 65  1  0
 67 66  2  0
 68 67  1  0
 68 63  2  0
 69 70  1  0
 70 71  1  0
 71 72  2  0
 73 72  1  0
 73 77  1  0
 74 73  2  0
 75 70  2  0
 75 74  1  0
 76 75  1  0
 78 79  1  0
 79 82  1  0
 79 81  1  0
 80 78  2  0
 83 84  1  0
 83 58  1  0
 85 83  1  0
M  ISO  4   3 101   4 101  49 100  50 100
M  END
>  <TORSDO>  (80) 
F 21

>  <SCORE>  (80) 
-15.294

>  <name>  (80) 
80

>  <ligand_id>  (80) 
80

>  <original_smiles>  (80) 
[H]c1c([H])c([H])c2c(c1[H])C([H])([H])C([H])([H])C([H])([H])C2([H])N([H])C(=O)C1([H])N(C(=O)C([H])(N([H])C(=O)C([H])(N([H])C([H])([H])[H])C([H])([H])[H])C(C([H])([H])[H])(C([H])([H])[H])C([H])([H])[H])C([H])([H])c2c([H])c(OC([H])([H])C([H])(C([H])([H])[H])C([H])([H])OC(=O)C([H])([H])C(=O)N3C([H])([H])C([H])([H])C([H])([H])C([H])(n4nc(-c5c([H])c([H])c(Oc6c([H])c([H])c(F)c([H])c6F)c([H])c5[H])c(C(=O)N([H])[H])c4N([H])[H])C3([H])[H])c([H])c([H])c2C1([H])[H]

>  <smiles>  (80) 
[H]c1c([H])c([H])c2c(c1[H])C([H])([H])C([H])([H])C([H])([H])C2([H])N([H])C(=O)C1([H])N(C(=O)C([H])(N([H])C(=O)C([H])(N([H])C([H])([H])[H])C([H])([H])[H])C(C([H])([H])[H])(C([H])([H])[H])C([H])([H])[H])C([H])([H])c2c([H])c(OC([H])([H])C([H])(C([H])([H])[H])C([H])([H])OC(=O)C([H])([H])C(=O)N3C([H])([H])C([H])([H])C([H])([H])C([H])(n4nc(-c5c([H])c([H])c(Oc6c([H])c([H])c(F)c([H])c6F)c([H])c5[H])c(C(=O)N([H])[H])c4N([H])[H])C3([H])[H])c([H])c([H])c2C1([H])[H]

$$$$
81:0:0
     RDKit          3D

 94102  0  0  1  0  0  0  0  0999 V2000
  -29.4310  -21.9950   20.7910 C   0  0  0  0  0  2  0  0  0  0  0  0
  -30.7450  -20.7850   22.5150 C   0  0  0  0  0  1  0  0  0  0  0  0
  -30.6840  -21.2550   21.1100 N   0  0  1  0  0  4  0  0  0  0  0  0
  -31.3700  -21.9980   21.0460 H   0  0  0  0  0  0  0  0  0  0  0  0
  -31.1400  -20.2480   20.1010 C   0  0  0  0  0  2  0  0  0  0  0  0
  -28.6260  -17.1940   20.3050 C   0  0  0  0  0  3  0  0  0  0  0  0
  -29.8620  -16.7780   20.7220 C   0  0  0  0  0  0  0  0  0  0  0  0
  -30.3340  -18.9750   20.2650 C   0  0  0  0  0  0  0  0  0  0  0  0
  -30.8280  -17.8040   20.7190 N   0  0  0  0  0  0  0  0  0  0  0  0
  -28.6330  -18.8610   19.8070 S   0  0  0  0  0  0  0  0  0  0  0  0
  -30.7200  -14.4900   20.5020 C   0  0  0  0  0  0  0  0  0  0  0  0
  -30.4190  -12.3360   19.3280 C   0  0  0  0  0  2  0  0  0  0  0  0
  -29.4810  -12.5600   18.1240 C   0  0  0  0  0  2  0  0  0  0  0  0
  -28.0040  -12.4170   18.5460 C   0  0  0  0  0  2  0  0  0  0  0  0
  -27.6630  -13.2410   19.8140 C   0  0  0  0  0  3  0  0  0  0  0  0
  -28.7160  -13.0030   20.9240 C   0  0  0  0  0  2  0  0  0  0  0  0
  -30.0530  -13.3070   20.3730 N   0  0  0  0  0  0  0  0  0  0  0  0
  -31.8170  -14.7050   19.9810 O   0  0  0  0  0  0  0  0  0  0  0  0
  -30.0530  -15.4440   21.1770 N   0  0  0  0  0  0  0  0  0  0  0  0
  -29.2570  -15.0570   21.6570 H   0  0  0  0  0  0  0  0  0  0  0  0
  -25.2540  -13.8430   20.5070 C   0  0  0  0  0  0  0  0  0  0  0  0
  -24.1910  -13.0700   20.8870 C   0  0  0  0  0  0  0  0  0  0  0  0
  -24.6550  -11.7190   20.8600 C   0  0  0  0  0  0  0  0  0  0  0  0
  -26.3050  -12.9660   20.2840 N   0  0  0  0  0  0  0  0  0  0  0  0
  -25.9470  -11.6830   20.5520 N   0  0  0  0  0  0  0  0  0  0  0  0
  -23.9320  -10.4560   21.0510 C   0  0  0  0  0  0  0  0  0  0  0  0
  -24.3700   -9.4860   21.9780 C   0  0  0  0  0  3  0  0  0  0  0  0
  -23.6460   -8.2870   22.1570 C   0  0  0  0  0  3  0  0  0  0  0  0
  -22.4700   -8.0500   21.4080 C   0  0  0  0  0  0  0  0  0  0  0  0
  -22.0530   -9.0070   20.4660 C   0  0  0  0  0  3  0  0  0  0  0  0
  -22.7770  -10.1970   20.2850 C   0  0  0  0  0  3  0  0  0  0  0  0
  -21.7190   -6.9040   21.4950 O   0  0  0  0  0  0  0  0  0  0  0  0
  -21.6840   -6.1520   22.6430 C   0  0  0  0  0  0  0  0  0  0  0  0
  -21.2770   -6.6980   23.8790 C   0  0  0  0  0  3  0  0  0  0  0  0
  -21.1890   -5.8730   25.0200 C   0  0  0  0  0  3  0  0  0  0  0  0
  -21.5010   -4.5040   24.9230 C   0  0  0  0  0  0  0  0  0  0  0  0
  -21.9010   -3.9570   23.6910 C   0  0  0  0  0  3  0  0  0  0  0  0
  -21.9890   -4.7790   22.5540 C   0  0  0  0  0  0  0  0  0  0  0  0
  -22.3550   -4.2440   21.3650 F   0  0  0  0  0  0  0  0  0  0  0  0
  -21.4090   -3.7090   26.0150 F   0  0  0  0  0  0  0  0  0  0  0  0
  -22.7900  -13.5430   21.1510 C   0  0  0  0  0  0  0  0  0  0  0  0
  -22.0590  -12.8490   22.0140 N   0  0  0  0  0  0  0  0  0  0  0  0
  -22.3520  -14.5640   20.6210 O   0  0  0  0  0  0  0  0  0  0  0  0
  -22.4240  -12.0230   22.4630 H   0  0  0  0  0  0  0  0  0  0  0  0
  -21.1190  -13.1510   22.2300 H   0  0  0  0  0  0  0  0  0  0  0  0
  -25.4080  -15.2120   20.3060 N   0  0  0  0  0  0  0  0  0  0  0  0
  -24.5890  -15.8100   20.3360 H   0  0  0  0  0  0  0  0  0  0  0  0
  -26.1020  -15.5480   19.6510 H   0  0  0  0  0  0  0  0  0  0  0  0
  -29.6810  -23.5120   20.9250 C   0  0  0  0  0  0  0  0  0  0  0  0
  -30.8250  -23.9580   20.7910 O   0  0  0  0  0  0  0  0  0  0  0  0
  -27.1850  -24.0220   20.5610 C   0  0  0  0  0  1  0  0  0  0  0  0
  -28.4790  -24.4240   21.2930 C   0  0  0  0  0  3  0  0  0  0  0  0
  -28.7280  -25.9720   21.2960 C   0  0  0  0  0  2  0  0  0  0  0  0
  -28.3700  -26.6660   20.0860 O   0  0  0  0  0  0  0  0  0  0  0  0
  -24.6030  -31.8840   23.2460 C   0  0  0  0  0  0  0  0  0  0  0  0
  -27.2220  -27.4320   20.1450 C   0  0  0  0  0  0  0  0  0  0  0  0
  -23.3870  -30.4930   21.6000 C   0  0  0  0  0  3  0  0  0  0  0  0
  -24.8310  -28.9490   20.1720 C   0  0  0  0  0  0  0  0  0  0  0  0
  -25.9140  -30.8330   21.4050 C   0  0  0  0  0  2  0  0  0  0  0  0
  -25.9910  -29.4580   20.7710 C   0  0  0  0  0  0  0  0  0  0  0  0
  -27.1870  -28.7010   20.7720 C   0  0  0  0  0  3  0  0  0  0  0  0
  -26.0550  -26.9550   19.5160 C   0  0  0  0  0  3  0  0  0  0  0  0
  -24.8540  -27.6900   19.5480 C   0  0  0  0  0  3  0  0  0  0  0  0
  -23.5920  -29.8130   20.2180 C   0  0  0  0  0  2  0  0  0  0  0  0
  -24.6530  -31.0860   22.1420 N   0  0  0  0  0  0  0  0  0  0  0  0
  -23.5250  -32.1610   23.7900 O   0  0  0  0  0  0  0  0  0  0  0  0
  -22.7310  -29.4750   22.5620 C   0  0  0  0  0  0  0  0  0  0  0  0
  -21.4070  -29.2990   22.4400 N   0  0  0  0  0  0  0  0  0  0  0  0
  -23.4150  -28.8450   23.3750 O   0  0  0  0  0  0  0  0  0  0  0  0
  -20.9160  -29.8620   21.7590 H   0  0  0  0  0  0  0  0  0  0  0  0
  -18.0280  -28.1230   22.9460 C   0  0  0  0  0  0  0  0  0  0  0  0
  -20.5870  -28.3630   23.2110 C   0  0  0  0  0  3  0  0  0  0  0  0
  -20.6780  -26.9340   22.6290 C   0  0  0  0  0  2  0  0  0  0  0  0
  -19.5700  -26.6220   21.6170 C   0  0  0  0  0  2  0  0  0  0  0  0
  -18.1910  -26.7740   22.2660 C   0  0  0  0  0  2  0  0  0  0  0  0
  -19.1530  -28.8770   23.3750 C   0  0  0  0  0  0  0  0  0  0  0  0
  -18.9450  -30.1410   23.9680 C   0  0  0  0  0  3  0  0  0  0  0  0
  -17.6440  -30.6510   24.1400 C   0  0  0  0  0  3  0  0  0  0  0  0
  -16.5330  -29.8970   23.7250 C   0  0  0  0  0  3  0  0  0  0  0  0
  -16.7250  -28.6350   23.1350 C   0  0  0  0  0  3  0  0  0  0  0  0
  -25.8970  -32.5070   23.8620 C   0  0  0  0  0  3  0  0  0  0  0  0
  -25.6020  -33.9060   24.1930 N   0  0  0  0  0  0  0  0  0  0  0  0
  -25.9390  -34.9570   23.4340 C   0  0  0  0  0  0  0  0  0  0  0  0
  -26.6030  -34.8480   22.4000 O   0  0  0  0  0  0  0  0  0  0  0  0
  -25.0140  -34.0640   24.9980 H   0  0  0  0  0  0  0  0  0  0  0  0
  -24.2230  -36.7600   23.0770 C   0  0  0  0  0  1  0  0  0  0  0  0
  -25.4600  -36.3470   23.8920 C   0  0  0  0  0  3  0  0  0  0  0  0
  -27.6000  -37.2150   24.7240 C   0  0  0  0  0  1  0  0  0  0  0  0
  -26.4980  -37.3960   23.7820 N   0  0  0  0  0  0  0  0  0  0  0  0
  -26.0980  -38.3180   23.9290 H   0  0  0  0  0  0  0  0  0  0  0  0
  -26.4140  -31.7290   25.1350 C   0  0  1  0  0  0  0  0  0  0  0  0
  -25.3270  -31.5020   26.2120 C   0  0  0  0  0  1  0  0  0  0  0  0
  -26.9800  -30.3460   24.7340 C   0  0  0  0  0  1  0  0  0  0  0  0
  -27.5740  -32.5130   25.7920 C   0  0  0  0  0  1  0  0  0  0  0  0
  1 49  1  0
  1  3  1  0
  3  2  1  0
  3  4  1  1
  5  8  1  0
  5  3  1  0
  6  7  2  0
  7 19  1  0
  8  9  2  0
  9  7  1  0
 10  8  1  0
 10  6  1  0
 11 19  1  0
 12 17  1  0
 13 14  1  0
 13 12  1  0
 15 14  1  0
 15 24  1  0
 15 16  1  0
 17 11  1  0
 17 16  1  0
 18 11  2  0
 19 20  1  0
 21 22  2  0
 22 41  1  0
 23 22  1  0
 23 26  1  0
 24 21  1  0
 24 25  1  0
 25 23  2  0
 26 27  1  0
 27 28  2  0
 29 32  1  0
 29 28  1  0
 30 29  2  0
 31 30  1  0
 31 26  2  0
 32 33  1  0
 33 34  1  0
 34 35  2  0
 36 35  1  0
 36 40  1  0
 37 36  2  0
 38 33  2  0
 38 37  1  0
 39 38  1  0
 41 42  1  0
 42 45  1  0
 42 44  1  0
 43 41  2  0
 46 47  1  0
 46 21  1  0
 48 46  1  0
 49 52  1  0
 50 49  2  0
 52 51  1  0
 52 53  1  0
 54 56  1  0
 54 53  1  0
 55 66  2  0
 56 61  1  0
 57 65  1  0
 57 67  1  0
 58 64  1  0
 58 60  1  0
 59 65  1  0
 60 61  2  0
 60 59  1  0
 62 63  1  0
 62 56  2  0
 63 58  2  0
 64 57  1  0
 65 55  1  0
 67 69  2  0
 68 67  1  0
 70 68  1  0
 71 80  2  0
 71 76  1  0
 72 68  1  0
 72 76  1  0
 73 72  1  0
 74 75  1  0
 74 73  1  0
 75 71  1  0
 76 77  2  0
 77 78  1  0
 79 78  2  0
 80 79  1  0
 81 55  1  0
 81 82  1  0
 81 91  1  0
 82 85  1  0
 83 87  1  0
 83 82  1  0
 84 83  2  0
 87 86  1  0
 89 87  1  0
 89 90  1  0
 89 88  1  0
 91 94  1  1
 91 92  1  0
 93 91  1  0
M  ISO  4  11 100  19 100  53 101  54 101
M  END
>  <TORSDO>  (81) 
F 22

>  <SCORE>  (81) 
-13.496

>  <name>  (81) 
81

>  <ligand_id>  (81) 
81

>  <original_smiles>  (81) 
[H]c1sc(C([H])([H])[N+]([H])(C([H])([H])[H])C([H])([H])C(=O)C([H])(C([H])([H])[H])C([H])([H])Oc2c([H])c([H])c3c(c2[H])C([H])([H])N(C(=O)C([H])(N([H])C(=O)C([H])(N([H])C([H])([H])[H])C([H])([H])[H])C(C([H])([H])[H])(C([H])([H])[H])C([H])([H])[H])C([H])(C(=O)N([H])C2([H])c4c([H])c([H])c([H])c([H])c4C([H])([H])C([H])([H])C2([H])[H])C3([H])[H])nc1N([H])C(=O)N1C([H])([H])C([H])([H])C([H])([H])C([H])(n2nc(-c3c([H])c([H])c(Oc4c([H])c([H])c(F)c([H])c4F)c([H])c3[H])c(C(=O)N([H])[H])c2N([H])[H])C1([H])[H]

>  <smiles>  (81) 
[H]c1sc(C([H])([H])[N+]([H])(C([H])([H])[H])C([H])([H])C(=O)C([H])(C([H])([H])[H])C([H])([H])Oc2c([H])c([H])c3c(c2[H])C([H])([H])N(C(=O)C([H])(N([H])C(=O)C([H])(N([H])C([H])([H])[H])C([H])([H])[H])C(C([H])([H])[H])(C([H])([H])[H])C([H])([H])[H])C([H])(C(=O)N([H])C2([H])c4c([H])c([H])c([H])c([H])c4C([H])([H])C([H])([H])C2([H])[H])C3([H])[H])nc1N([H])C(=O)N1C([H])([H])C([H])([H])C([H])([H])C([H])(n2nc(-c3c([H])c([H])c(Oc4c([H])c([H])c(F)c([H])c4F)c([H])c3[H])c(C(=O)N([H])[H])c2N([H])[H])C1([H])[H]

$$$$
82:0:0
     RDKit          3D

 95103  0  0  1  0  0  0  0  0999 V2000
  -28.7850  -18.3470   19.7280 C   0  0  0  0  0  0  0  0  0  0  0  0
  -30.0900  -18.5360   20.2210 C   0  0  0  0  0  0  0  0  0  0  0  0
  -27.9950  -19.4980   19.5540 C   0  0  0  0  0  0  0  0  0  0  0  0
  -29.6440  -20.9020   20.2710 C   0  0  0  0  0  0  0  0  0  0  0  0
  -30.4890  -19.8470   20.5090 N   0  0  0  0  0  0  0  0  0  0  0  0
  -28.4190  -20.7540   19.7890 N   0  0  0  0  0  0  0  0  0  0  0  0
  -26.6700  -19.3690   19.1730 N   0  0  0  0  0  0  0  0  0  0  0  0
  -29.9880  -22.2410   20.6460 N   0  0  0  0  0  0  0  0  0  0  0  0
  -28.2920  -17.1140   19.4580 F   0  0  0  0  0  0  0  0  0  0  0  0
  -26.3280  -18.4280   19.3210 H   0  0  0  0  0  0  0  0  0  0  0  0
  -26.0560  -20.0680   19.5710 H   0  0  0  0  0  0  0  0  0  0  0  0
  -30.8690  -22.2700   21.1460 H   0  0  0  0  0  0  0  0  0  0  0  0
  -31.0510  -17.2760   20.4790 C   0  0  0  0  0  2  0  0  0  0  0  0
  -31.2740  -14.6400   20.4410 C   0  0  0  0  0  0  0  0  0  0  0  0
  -31.0380  -12.3600   19.4280 C   0  0  0  0  0  2  0  0  0  0  0  0
  -30.1430  -12.4500   18.1690 C   0  0  0  0  0  2  0  0  0  0  0  0
  -28.6550  -12.3270   18.5510 C   0  0  0  0  0  2  0  0  0  0  0  0
  -28.2690  -13.2200   19.7610 C   0  0  0  0  0  3  0  0  0  0  0  0
  -29.2870  -13.1080   20.9140 C   0  0  0  0  0  2  0  0  0  0  0  0
  -30.6060  -13.4330   20.3570 N   0  0  0  0  0  0  0  0  0  0  0  0
  -32.4760  -14.6800   20.1640 O   0  0  0  0  0  0  0  0  0  0  0  0
  -30.5570  -15.8220   20.6160 N   0  0  0  0  0  0  0  0  0  0  0  0
  -29.5650  -15.7390   20.7910 H   0  0  0  0  0  0  0  0  0  0  0  0
  -25.8710  -13.8700   20.3810 C   0  0  0  0  0  0  0  0  0  0  0  0
  -24.7760  -13.1270   20.7260 C   0  0  0  0  0  0  0  0  0  0  0  0
  -25.2140  -11.7690   20.7530 C   0  0  0  0  0  0  0  0  0  0  0  0
  -26.9050  -12.9660   20.2100 N   0  0  0  0  0  0  0  0  0  0  0  0
  -26.5150  -11.6960   20.4980 N   0  0  0  0  0  0  0  0  0  0  0  0
  -24.4530  -10.5270   20.9530 C   0  0  0  0  0  0  0  0  0  0  0  0
  -24.8080   -9.5930   21.9520 C   0  0  0  0  0  3  0  0  0  0  0  0
  -24.0470   -8.4180   22.1350 C   0  0  0  0  0  3  0  0  0  0  0  0
  -22.9180   -8.1700   21.3180 C   0  0  0  0  0  0  0  0  0  0  0  0
  -22.5820   -9.0910   20.3100 C   0  0  0  0  0  3  0  0  0  0  0  0
  -23.3440  -10.2570   20.1270 C   0  0  0  0  0  3  0  0  0  0  0  0
  -22.1340   -7.0440   21.4060 O   0  0  0  0  0  0  0  0  0  0  0  0
  -21.9760   -6.3690   22.5890 C   0  0  0  0  0  0  0  0  0  0  0  0
  -21.4070   -6.9840   23.7250 C   0  0  0  0  0  3  0  0  0  0  0  0
  -21.1980   -6.2330   24.9010 C   0  0  0  0  0  3  0  0  0  0  0  0
  -21.5470   -4.8700   24.9370 C   0  0  0  0  0  0  0  0  0  0  0  0
  -22.1120   -4.2560   23.8050 C   0  0  0  0  0  3  0  0  0  0  0  0
  -22.3210   -5.0030   22.6330 C   0  0  0  0  0  0  0  0  0  0  0  0
  -22.8430   -4.4030   21.5370 F   0  0  0  0  0  0  0  0  0  0  0  0
  -21.3420   -4.1470   26.0640 F   0  0  0  0  0  0  0  0  0  0  0  0
  -23.3800  -13.6420   20.9270 C   0  0  0  0  0  0  0  0  0  0  0  0
  -22.6150  -13.0080   21.8080 N   0  0  0  0  0  0  0  0  0  0  0  0
  -22.9760  -14.6430   20.3370 O   0  0  0  0  0  0  0  0  0  0  0  0
  -22.9530  -12.2000   22.3070 H   0  0  0  0  0  0  0  0  0  0  0  0
  -21.6750  -13.3350   21.9820 H   0  0  0  0  0  0  0  0  0  0  0  0
  -26.0620  -15.2330   20.1830 N   0  0  0  0  0  0  0  0  0  0  0  0
  -25.3050  -15.8960   20.3060 H   0  0  0  0  0  0  0  0  0  0  0  0
  -26.9560  -15.6920   20.0450 H   0  0  0  0  0  0  0  0  0  0  0  0
  -29.6490  -23.5830   19.9870 C   0  0  0  0  0  2  0  0  0  0  0  0
  -29.4390  -24.9000   22.2290 C   0  0  0  0  0  1  0  0  0  0  0  0
  -28.9120  -24.8050   20.7910 C   0  0  0  0  0  3  0  0  0  0  0  0
  -28.9790  -26.2390   20.3240 O   0  0  0  0  0  0  0  0  0  0  0  0
  -24.9360  -31.5430   23.2860 C   0  0  0  0  0  0  0  0  0  0  0  0
  -27.8400  -27.0790   20.3090 C   0  0  0  0  0  0  0  0  0  0  0  0
  -23.8850  -30.1800   21.5160 C   0  0  0  0  0  3  0  0  0  0  0  0
  -25.4610  -28.6880   20.1580 C   0  0  0  0  0  0  0  0  0  0  0  0
  -26.4240  -30.5340   21.5310 C   0  0  0  0  0  2  0  0  0  0  0  0
  -26.5770  -29.1700   20.8560 C   0  0  0  0  0  0  0  0  0  0  0  0
  -27.7710  -28.3800   20.9130 C   0  0  0  0  0  3  0  0  0  0  0  0
  -26.7000  -26.6520   19.5980 C   0  0  0  0  0  3  0  0  0  0  0  0
  -25.5290  -27.4380   19.5200 C   0  0  0  0  0  3  0  0  0  0  0  0
  -24.2120  -29.5480   20.1370 C   0  0  0  0  0  2  0  0  0  0  0  0
  -25.0970  -30.7710   22.1700 N   0  0  0  0  0  0  0  0  0  0  0  0
  -23.8100  -31.7850   23.7450 O   0  0  0  0  0  0  0  0  0  0  0  0
  -23.1630  -29.1300   22.3950 C   0  0  0  0  0  0  0  0  0  0  0  0
  -21.8420  -28.9800   22.2040 N   0  0  0  0  0  0  0  0  0  0  0  0
  -23.7980  -28.4510   23.2070 O   0  0  0  0  0  0  0  0  0  0  0  0
  -21.3930  -29.5690   21.5160 H   0  0  0  0  0  0  0  0  0  0  0  0
  -18.4160  -27.8800   22.5980 C   0  0  0  0  0  0  0  0  0  0  0  0
  -20.9830  -28.0120   22.8900 C   0  0  0  0  0  3  0  0  0  0  0  0
  -21.0280  -26.6350   22.1850 C   0  0  0  0  0  2  0  0  0  0  0  0
  -19.9160  -26.4490   21.1530 C   0  0  0  0  0  2  0  0  0  0  0  0
  -18.5420  -26.5840   21.8160 C   0  0  0  0  0  2  0  0  0  0  0  0
  -19.5640  -28.5570   23.0920 C   0  0  0  0  0  0  0  0  0  0  0  0
  -19.3940  -29.7700   23.7950 C   0  0  0  0  0  3  0  0  0  0  0  0
  -18.1110  -30.3090   24.0020 C   0  0  0  0  0  3  0  0  0  0  0  0
  -16.9790  -29.6270   23.5230 C   0  0  0  0  0  3  0  0  0  0  0  0
  -17.1310  -28.4140   22.8290 C   0  0  0  0  0  3  0  0  0  0  0  0
  -26.1560  -32.1780   24.0230 C   0  0  0  0  0  3  0  0  0  0  0  0
  -26.5500  -31.4090   25.3430 C   0  0  1  0  0  0  0  0  0  0  0  0
  -25.3670  -31.1960   26.3160 C   0  0  0  0  0  1  0  0  0  0  0  0
  -27.1420  -30.0190   25.0140 C   0  0  0  0  0  1  0  0  0  0  0  0
  -27.6530  -32.1900   26.0950 C   0  0  0  0  0  1  0  0  0  0  0  0
  -25.8150  -33.5780   24.3210 N   0  0  0  0  0  0  0  0  0  0  0  0
  -26.2160  -34.6320   23.5980 C   0  0  0  0  0  0  0  0  0  0  0  0
  -26.9770  -34.5280   22.6320 O   0  0  0  0  0  0  0  0  0  0  0  0
  -25.1490  -33.7300   25.0630 H   0  0  0  0  0  0  0  0  0  0  0  0
  -24.5110  -36.4190   23.1110 C   0  0  0  0  0  1  0  0  0  0  0  0
  -25.6930  -36.0200   24.0120 C   0  0  0  0  0  3  0  0  0  0  0  0
  -27.7430  -36.9360   25.0040 C   0  0  0  0  0  1  0  0  0  0  0  0
  -26.7270  -37.0780   23.9660 N   0  0  0  0  0  0  0  0  0  0  0  0
  -26.3050  -37.9980   24.0600 H   0  0  0  0  0  0  0  0  0  0  0  0
  1  2  2  0
  2 13  1  0
  2  5  1  0
  3  1  1  0
  3  6  2  0
  4  5  2  0
  4  8  1  0
  6  4  1  0
  7 10  1  0
  7  3  1  0
  7 11  1  0
  8 12  1  0
  9  1  1  0
 13 22  1  0
 14 22  1  0
 15 20  1  0
 16 17  1  0
 16 15  1  0
 18 17  1  0
 18 27  1  0
 18 19  1  0
 20 14  1  0
 20 19  1  0
 21 14  2  0
 22 23  1  0
 24 25  2  0
 25 26  1  0
 25 44  1  0
 26 29  1  0
 27 24  1  0
 27 28  1  0
 28 26  2  0
 29 30  1  0
 30 31  2  0
 32 35  1  0
 32 31  1  0
 33 32  2  0
 34 33  1  0
 34 29  2  0
 35 36  1  0
 36 41  2  0
 36 37  1  0
 37 38  2  0
 38 39  1  0
 39 43  1  0
 40 39  2  0
 41 40  1  0
 42 41  1  0
 44 45  1  0
 45 48  1  0
 45 47  1  0
 46 44  2  0
 49 50  1  0
 49 24  1  0
 51 49  1  0
 52  8  1  0
 52 54  1  0
 54 53  1  0
 55 54  1  0
 56 67  2  0
 57 55  1  0
 57 62  1  0
 58 66  1  0
 58 68  1  0
 59 61  1  0
 60 66  1  0
 61 62  2  0
 61 60  1  0
 63 57  2  0
 64 63  1  0
 64 59  2  0
 65 59  1  0
 65 58  1  0
 66 56  1  0
 68 70  2  0
 69 68  1  0
 71 69  1  0
 72 81  2  0
 72 77  1  0
 73 69  1  0
 73 77  1  0
 74 73  1  0
 75 76  1  0
 75 74  1  0
 76 72  1  0
 77 78  2  0
 78 79  1  0
 80 79  2  0
 81 80  1  0
 82 56  1  0
 82 87  1  0
 82 83  1  0
 83 86  1  1
 83 84  1  0
 85 83  1  0
 87 90  1  0
 88 92  1  0
 88 87  1  0
 89 88  2  0
 92 91  1  0
 94 92  1  0
 94 95  1  0
 94 93  1  0
M  ISO  4  14 100  22 100  54 101  55 101
M  END
>  <TORSDO>  (82) 
F 19

>  <SCORE>  (82) 
-13.418

>  <name>  (82) 
82

>  <ligand_id>  (82) 
82

>  <original_smiles>  (82) 
[H]c1c([H])c([H])c2c(c1[H])C([H])([H])C([H])([H])C([H])([H])C2([H])N([H])C(=O)C1([H])N(C(=O)C([H])(N([H])C(=O)C([H])(N([H])C([H])([H])[H])C([H])([H])[H])C(C([H])([H])[H])(C([H])([H])[H])C([H])([H])[H])C([H])([H])c2c([H])c(OC([H])(C([H])([H])[H])C([H])([H])N([H])c3nc(N([H])[H])c(F)c(C([H])([H])N([H])C(=O)N4C([H])([H])C([H])([H])C([H])([H])C([H])(n5nc(-c6c([H])c([H])c(Oc7c([H])c([H])c(F)c([H])c7F)c([H])c6[H])c(C(=O)N([H])[H])c5N([H])[H])C4([H])[H])n3)c([H])c([H])c2C1([H])[H]

>  <smiles>  (82) 
[H]c1c([H])c([H])c2c(c1[H])C([H])([H])C([H])([H])C([H])([H])C2([H])N([H])C(=O)C1([H])N(C(=O)C([H])(N([H])C(=O)C([H])(N([H])C([H])([H])[H])C([H])([H])[H])C(C([H])([H])[H])(C([H])([H])[H])C([H])([H])[H])C([H])([H])c2c([H])c(OC([H])(C([H])([H])[H])C([H])([H])N([H])c3nc(N([H])[H])c(F)c(C([H])([H])N([H])C(=O)N4C([H])([H])C([H])([H])C([H])([H])C([H])(n5nc(-c6c([H])c([H])c(Oc7c([H])c([H])c(F)c([H])c7F)c([H])c6[H])c(C(=O)N([H])[H])c5N([H])[H])C4([H])[H])n3)c([H])c([H])c2C1([H])[H]

$$$$
83:0:0
     RDKit          3D

 99107  0  0  1  0  0  0  0  0999 V2000
  -30.7390  -20.9080   21.5150 C   0  0  0  0  0  0  0  0  0  0  0  0
  -31.7520  -21.1950   22.3470 N   0  0  0  0  0  4  0  0  0  0  0  0
  -29.7870  -21.8520   21.2090 N   0  0  0  0  0  0  0  0  0  0  0  0
  -32.4250  -20.4810   22.5890 H   0  0  0  0  0  0  0  0  0  0  0  0
  -31.8260  -22.0850   22.8140 H   0  0  0  0  0  0  0  0  0  0  0  0
  -29.1230  -21.5350   20.5180 H   0  0  0  0  0  0  0  0  0  0  0  0
  -30.8430  -14.5440   20.3930 C   0  0  0  0  0  0  0  0  0  0  0  0
  -30.5780  -12.3130   19.3550 C   0  0  0  0  0  2  0  0  0  0  0  0
  -29.6540  -12.4450   18.1280 C   0  0  0  0  0  2  0  0  0  0  0  0
  -28.1790  -12.2860   18.5440 C   0  0  0  0  0  2  0  0  0  0  0  0
  -27.8020  -13.1710   19.7640 C   0  0  0  0  0  3  0  0  0  0  0  0
  -28.8510  -13.0560   20.8950 C   0  0  0  0  0  2  0  0  0  0  0  0
  -30.1750  -13.3530   20.3220 N   0  0  0  0  0  0  0  0  0  0  0  0
  -31.9990  -14.6470   19.9760 O   0  0  0  0  0  0  0  0  0  0  0  0
  -30.7430  -19.5300   20.9910 C   0  0  0  0  0  0  0  0  0  0  0  0
  -31.7360  -18.8950   20.2670 C   0  0  0  0  0  0  0  0  0  0  0  0
  -30.4680  -17.0330   20.7360 C   0  0  0  0  0  0  0  0  0  0  0  0
  -31.5630  -17.5110   20.1260 N   0  0  0  0  0  0  0  0  0  0  0  0
  -30.1260  -15.6260   20.7990 N   0  0  0  0  0  0  0  0  0  0  0  0
  -29.4970  -18.3560   21.4340 S   0  0  0  0  0  0  0  0  0  0  0  0
  -29.2050  -15.4150   21.1490 H   0  0  0  0  0  0  0  0  0  0  0  0
  -25.3920  -13.7510   20.4620 C   0  0  0  0  0  0  0  0  0  0  0  0
  -24.3310  -12.9700   20.8250 C   0  0  0  0  0  0  0  0  0  0  0  0
  -24.8060  -11.6220   20.8020 C   0  0  0  0  0  0  0  0  0  0  0  0
  -26.4490  -12.8820   20.2380 N   0  0  0  0  0  0  0  0  0  0  0  0
  -26.0990  -11.5960   20.5050 N   0  0  0  0  0  0  0  0  0  0  0  0
  -24.0890  -10.3540   20.9910 C   0  0  0  0  0  0  0  0  0  0  0  0
  -24.5090   -9.4040   21.9480 C   0  0  0  0  0  3  0  0  0  0  0  0
  -23.7920   -8.2000   22.1240 C   0  0  0  0  0  3  0  0  0  0  0  0
  -22.6430   -7.9370   21.3410 C   0  0  0  0  0  0  0  0  0  0  0  0
  -22.2420   -8.8760   20.3740 C   0  0  0  0  0  3  0  0  0  0  0  0
  -22.9590  -10.0710   20.1970 C   0  0  0  0  0  3  0  0  0  0  0  0
  -21.8990   -6.7850   21.4260 O   0  0  0  0  0  0  0  0  0  0  0  0
  -21.8050   -6.0720   22.5940 C   0  0  0  0  0  0  0  0  0  0  0  0
  -21.2630   -6.6370   23.7700 C   0  0  0  0  0  3  0  0  0  0  0  0
  -21.1210   -5.8490   24.9290 C   0  0  0  0  0  3  0  0  0  0  0  0
  -21.5110   -4.4960   24.9140 C   0  0  0  0  0  0  0  0  0  0  0  0
  -22.0430   -3.9300   23.7420 C   0  0  0  0  0  3  0  0  0  0  0  0
  -22.1880   -4.7150   22.5850 C   0  0  0  0  0  0  0  0  0  0  0  0
  -22.6830   -4.1600   21.4530 F   0  0  0  0  0  0  0  0  0  0  0  0
  -21.3660   -3.7350   26.0240 F   0  0  0  0  0  0  0  0  0  0  0  0
  -22.9250  -13.4330   21.0820 C   0  0  0  0  0  0  0  0  0  0  0  0
  -22.2010  -12.7460   21.9570 N   0  0  0  0  0  0  0  0  0  0  0  0
  -22.4760  -14.4440   20.5410 O   0  0  0  0  0  0  0  0  0  0  0  0
  -22.5740  -11.9290   22.4190 H   0  0  0  0  0  0  0  0  0  0  0  0
  -21.2590  -13.0390   22.1710 H   0  0  0  0  0  0  0  0  0  0  0  0
  -25.5430  -15.1250   20.2780 N   0  0  0  0  0  0  0  0  0  0  0  0
  -24.7630  -15.7650   20.3800 H   0  0  0  0  0  0  0  0  0  0  0  0
  -26.3760  -15.5700   19.9170 H   0  0  0  0  0  0  0  0  0  0  0  0
  -32.8850  -19.4860   19.7320 N   0  0  0  0  0  0  0  0  0  0  0  0
  -33.5930  -18.9480   19.2420 H   0  0  0  0  0  0  0  0  0  0  0  0
  -33.0710  -20.4790   19.8140 H   0  0  0  0  0  0  0  0  0  0  0  0
  -27.9690  -23.1130   22.2570 C   0  0  0  0  0  1  0  0  0  0  0  0
  -30.2530  -23.5290   23.0530 C   0  0  0  0  0  1  0  0  0  0  0  0
  -29.4340  -23.2220   21.7770 C   0  0  1  0  0  0  0  0  0  0  0  0
  -29.6470  -24.4720   20.7950 C   0  0  0  0  0  2  0  0  0  0  0  0
  -28.1530  -24.2910   18.7530 C   0  0  0  0  0  1  0  0  0  0  0  0
  -28.4220  -25.1200   20.0340 C   0  0  0  0  0  3  0  0  0  0  0  0
  -28.5630  -26.5750   19.7970 O   0  0  0  0  0  0  0  0  0  0  0  0
  -24.6190  -31.6170   23.0820 C   0  0  0  0  0  0  0  0  0  0  0  0
  -27.4080  -27.3660   19.7890 C   0  0  0  0  0  0  0  0  0  0  0  0
  -23.4750  -30.3050   21.3290 C   0  0  0  0  0  3  0  0  0  0  0  0
  -24.9910  -28.8870   19.8350 C   0  0  0  0  0  0  0  0  0  0  0  0
  -26.0040  -30.6940   21.2190 C   0  0  0  0  0  2  0  0  0  0  0  0
  -26.1300  -29.3660   20.4920 C   0  0  0  0  0  0  0  0  0  0  0  0
  -27.3380  -28.6160   20.4680 C   0  0  0  0  0  3  0  0  0  0  0  0
  -26.2580  -26.9560   19.0770 C   0  0  0  0  0  3  0  0  0  0  0  0
  -25.0550  -27.6830   19.1180 C   0  0  0  0  0  3  0  0  0  0  0  0
  -23.7290  -29.7190   19.9130 C   0  0  0  0  0  2  0  0  0  0  0  0
  -24.7160  -30.8880   21.9330 N   0  0  0  0  0  0  0  0  0  0  0  0
  -23.5220  -31.8330   23.6170 O   0  0  0  0  0  0  0  0  0  0  0  0
  -22.8270  -29.2100   22.2080 C   0  0  0  0  0  0  0  0  0  0  0  0
  -21.5020  -29.0350   22.0750 N   0  0  0  0  0  0  0  0  0  0  0  0
  -23.5150  -28.5210   22.9660 O   0  0  0  0  0  0  0  0  0  0  0  0
  -21.0050  -29.6390   21.4360 H   0  0  0  0  0  0  0  0  0  0  0  0
  -18.1300  -27.8450   22.5750 C   0  0  0  0  0  0  0  0  0  0  0  0
  -20.6980  -28.0340   22.7750 C   0  0  0  0  0  3  0  0  0  0  0  0
  -20.7530  -26.6710   22.0490 C   0  0  0  0  0  2  0  0  0  0  0  0
  -19.6120  -26.4720   21.0480 C   0  0  0  0  0  2  0  0  0  0  0  0
  -18.2570  -26.5710   21.7560 C   0  0  0  0  0  2  0  0  0  0  0  0
  -19.2770  -28.5410   23.0400 C   0  0  0  0  0  0  0  0  0  0  0  0
  -19.1070  -29.7380   23.7680 C   0  0  0  0  0  3  0  0  0  0  0  0
  -17.8210  -30.2410   24.0360 C   0  0  0  0  0  3  0  0  0  0  0  0
  -16.6870  -29.5430   23.5850 C   0  0  0  0  0  3  0  0  0  0  0  0
  -16.8420  -28.3450   22.8630 C   0  0  0  0  0  3  0  0  0  0  0  0
  -25.8800  -32.2370   23.7630 C   0  0  0  0  0  3  0  0  0  0  0  0
  -26.3530  -31.4380   25.0390 C   0  0  1  0  0  0  0  0  0  0  0  0
  -25.2210  -31.1760   26.0600 C   0  0  0  0  0  1  0  0  0  0  0  0
  -26.9550  -30.0700   24.6380 C   0  0  0  0  0  1  0  0  0  0  0  0
  -27.4730  -32.2210   25.7650 C   0  0  0  0  0  1  0  0  0  0  0  0
  -25.5580  -33.6270   24.1120 N   0  0  0  0  0  0  0  0  0  0  0  0
  -25.8900  -34.6960   23.3750 C   0  0  0  0  0  0  0  0  0  0  0  0
  -26.5750  -34.6170   22.3510 O   0  0  0  0  0  0  0  0  0  0  0  0
  -24.9630  -33.7640   24.9160 H   0  0  0  0  0  0  0  0  0  0  0  0
  -24.1450  -36.4750   23.0370 C   0  0  0  0  0  1  0  0  0  0  0  0
  -25.3830  -36.0710   23.8510 C   0  0  0  0  0  3  0  0  0  0  0  0
  -27.4890  -36.9740   24.7290 C   0  0  0  0  0  1  0  0  0  0  0  0
  -26.4030  -37.1390   23.7670 N   0  0  0  0  0  0  0  0  0  0  0  0
  -25.9810  -38.0520   23.9210 H   0  0  0  0  0  0  0  0  0  0  0  0
  1  2  2  0
  2  4  1  0
  2  5  1  0
  3  1  1  0
  3 55  1  0
  6  3  1  0
  7 19  1  0
  8 13  1  0
  9 10  1  0
  9  8  1  0
 11 10  1  0
 11 25  1  0
 11 12  1  0
 13  7  1  0
 13 12  1  0
 14  7  2  0
 15 20  1  0
 15  1  1  0
 16 15  2  0
 17 19  1  0
 17 20  1  0
 18 16  1  0
 18 17  2  0
 19 21  1  0
 22 23  2  0
 23 42  1  0
 24 23  1  0
 24 27  1  0
 25 22  1  0
 25 26  1  0
 26 24  2  0
 27 28  1  0
 28 29  2  0
 30 33  1  0
 30 29  1  0
 31 30  2  0
 32 31  1  0
 32 27  2  0
 33 34  1  0
 34 35  1  0
 35 36  2  0
 37 36  1  0
 37 41  1  0
 38 37  2  0
 39 34  2  0
 39 38  1  0
 40 39  1  0
 42 43  1  0
 43 46  1  0
 43 45  1  0
 44 42  2  0
 47 48  1  0
 47 22  1  0
 49 47  1  0
 50 52  1  0
 50 16  1  0
 51 50  1  0
 55 53  1  1
 55 54  1  0
 56 55  1  0
 58 57  1  0
 58 56  1  0
 59 58  1  0
 60 71  2  0
 61 59  1  0
 61 66  1  0
 62 70  1  0
 62 72  1  0
 63 69  1  0
 63 65  1  0
 64 70  1  0
 65 64  1  0
 66 65  2  0
 67 68  1  0
 67 61  2  0
 68 63  2  0
 69 62  1  0
 70 60  1  0
 72 74  2  0
 73 72  1  0
 75 73  1  0
 76 85  2  0
 76 81  1  0
 77 73  1  0
 77 81  1  0
 78 77  1  0
 79 80  1  0
 79 78  1  0
 80 76  1  0
 81 82  2  0
 82 83  1  0
 84 83  2  0
 85 84  1  0
 86 60  1  0
 86 91  1  0
 86 87  1  0
 87 90  1  1
 87 88  1  0
 89 87  1  0
 91 94  1  0
 92 96  1  0
 92 91  1  0
 93 92  2  0
 96 95  1  0
 98 96  1  0
 98 99  1  0
 98 97  1  0
M  ISO  4   7 100  19 100  58 101  59 101
M  END
>  <TORSDO>  (83) 
F 20

>  <SCORE>  (83) 
-12.873

>  <name>  (83) 
83

>  <ligand_id>  (83) 
83

>  <original_smiles>  (83) 
[H]c1c([H])c([H])c2c(c1[H])C([H])([H])C([H])([H])C([H])([H])C2([H])N([H])C(=O)C1([H])N(C(=O)C([H])(N([H])C(=O)C([H])(N([H])C([H])([H])[H])C([H])([H])[H])C(C([H])([H])[H])(C([H])([H])[H])C([H])([H])[H])C([H])([H])c2c([H])c(OC([H])(C([H])([H])[H])C([H])([H])C([N+]([H])=C(c3sc(N([H])C(=O)N4C([H])([H])C([H])([H])C([H])([H])C([H])(n5nc(-c6c([H])c([H])c(Oc7c([H])c([H])c(F)c([H])c7F)c([H])c6[H])c(C(=O)N([H])[H])c5N([H])[H])C4([H])[H])nc3N([H])[H])N([H])[H])(C([H])([H])[H])C([H])([H])[H])c([H])c([H])c2C1([H])[H]

>  <smiles>  (83) 
[H]c1c([H])c([H])c2c(c1[H])C([H])([H])C([H])([H])C([H])([H])C2([H])N([H])C(=O)C1([H])N(C(=O)C([H])(N([H])C(=O)C([H])(N([H])C([H])([H])[H])C([H])([H])[H])C(C([H])([H])[H])(C([H])([H])[H])C([H])([H])[H])C([H])([H])c2c([H])c(OC([H])(C([H])([H])[H])C([H])([H])C([N+]([H])=C(c3sc(N([H])C(=O)N4C([H])([H])C([H])([H])C([H])([H])C([H])(n5nc(-c6c([H])c([H])c(Oc7c([H])c([H])c(F)c([H])c7F)c([H])c6[H])c(C(=O)N([H])[H])c5N([H])[H])C4([H])[H])nc3N([H])[H])N([H])[H])(C([H])([H])[H])C([H])([H])[H])c([H])c([H])c2C1([H])[H]

$$$$
84:0:0
     RDKit          3D

 97105  0  0  1  0  0  0  0  0999 V2000
  -28.9910  -21.7490   21.2870 C   0  0  0  0  0  0  0  0  0  0  0  0
  -30.1450  -20.9170   23.4160 C   0  0  0  0  0  1  0  0  0  0  0  0
  -30.3980  -23.2860   22.8350 C   0  0  0  0  0  1  0  0  0  0  0  0
  -31.5850  -21.5960   21.4780 C   0  0  0  0  0  1  0  0  0  0  0  0
  -30.2620  -21.8820   22.2160 C   0  0  2  0  0  0  0  0  0  0  0  0
  -28.8860  -22.7520   20.0630 C   0  0  0  0  0  3  0  0  0  0  0  0
  -28.1240  -22.2070   19.1100 F   0  0  0  0  0  0  0  0  0  0  0  0
  -28.2450  -24.1640   20.3810 C   0  0  0  0  0  2  0  0  0  0  0  0
  -28.5120  -25.3570   18.0380 C   0  0  0  0  0  1  0  0  0  0  0  0
  -28.7450  -25.4090   19.5630 C   0  0  0  0  0  3  0  0  0  0  0  0
  -28.4870  -26.7190   20.1600 O   0  0  0  0  0  0  0  0  0  0  0  0
  -24.5970  -31.8920   23.2200 C   0  0  0  0  0  0  0  0  0  0  0  0
  -27.2800  -27.4140   20.1470 C   0  0  0  0  0  0  0  0  0  0  0  0
  -23.4030  -30.4780   21.5780 C   0  0  0  0  0  3  0  0  0  0  0  0
  -24.8760  -28.9460   20.1500 C   0  0  0  0  0  0  0  0  0  0  0  0
  -25.9360  -30.8380   21.3940 C   0  0  0  0  0  2  0  0  0  0  0  0
  -26.0310  -29.4660   20.7450 C   0  0  0  0  0  0  0  0  0  0  0  0
  -27.2320  -28.7100   20.7330 C   0  0  0  0  0  3  0  0  0  0  0  0
  -26.0890  -26.9040   19.5840 C   0  0  0  0  0  3  0  0  0  0  0  0
  -24.9070  -27.6710   19.5610 C   0  0  0  0  0  3  0  0  0  0  0  0
  -23.6200  -29.7900   20.2000 C   0  0  0  0  0  2  0  0  0  0  0  0
  -24.6630  -31.0860   22.1200 N   0  0  0  0  0  0  0  0  0  0  0  0
  -23.5120  -32.1690   23.7490 O   0  0  0  0  0  0  0  0  0  0  0  0
  -22.7440  -29.4650   22.5420 C   0  0  0  0  0  0  0  0  0  0  0  0
  -21.4180  -29.2870   22.4170 N   0  0  0  0  0  0  0  0  0  0  0  0
  -23.4240  -28.8380   23.3580 O   0  0  0  0  0  0  0  0  0  0  0  0
  -20.9230  -29.8540   21.7430 H   0  0  0  0  0  0  0  0  0  0  0  0
  -18.0370  -28.1170   22.9360 C   0  0  0  0  0  0  0  0  0  0  0  0
  -20.6000  -28.3460   23.1840 C   0  0  0  0  0  3  0  0  0  0  0  0
  -20.6800  -26.9210   22.5860 C   0  0  0  0  0  2  0  0  0  0  0  0
  -19.5650  -26.6260   21.5780 C   0  0  0  0  0  2  0  0  0  0  0  0
  -18.1920  -26.7760   22.2410 C   0  0  0  0  0  2  0  0  0  0  0  0
  -19.1670  -28.8640   23.3630 C   0  0  0  0  0  0  0  0  0  0  0  0
  -18.9660  -30.1250   23.9670 C   0  0  0  0  0  3  0  0  0  0  0  0
  -17.6670  -30.6370   24.1480 C   0  0  0  0  0  3  0  0  0  0  0  0
  -16.5530  -29.8840   23.7390 C   0  0  0  0  0  3  0  0  0  0  0  0
  -16.7380  -28.6260   23.1410 C   0  0  0  0  0  3  0  0  0  0  0  0
  -25.8780  -32.5270   23.8470 C   0  0  0  0  0  3  0  0  0  0  0  0
  -25.5640  -33.9260   24.1770 N   0  0  0  0  0  0  0  0  0  0  0  0
  -25.9060  -34.9800   23.4250 C   0  0  0  0  0  0  0  0  0  0  0  0
  -26.5860  -34.8810   22.3990 O   0  0  0  0  0  0  0  0  0  0  0  0
  -24.9560  -34.0790   24.9690 H   0  0  0  0  0  0  0  0  0  0  0  0
  -24.1920  -36.7800   23.0510 C   0  0  0  0  0  1  0  0  0  0  0  0
  -25.4150  -36.3670   23.8830 C   0  0  0  0  0  3  0  0  0  0  0  0
  -27.5350  -37.2380   24.7640 C   0  0  0  0  0  1  0  0  0  0  0  0
  -26.4540  -37.4150   23.7970 N   0  0  0  0  0  0  0  0  0  0  0  0
  -26.0490  -38.3370   23.9380 H   0  0  0  0  0  0  0  0  0  0  0  0
  -26.3980  -31.7550   25.1210 C   0  0  1  0  0  0  0  0  0  0  0  0
  -25.3040  -31.5090   26.1850 C   0  0  0  0  0  1  0  0  0  0  0  0
  -26.9860  -30.3780   24.7260 C   0  0  0  0  0  1  0  0  0  0  0  0
  -27.5440  -32.5550   25.7840 C   0  0  0  0  0  1  0  0  0  0  0  0
  -28.6040  -20.3340   21.0190 N   0  0  0  0  0  4  0  0  0  0  0  0
  -27.8780  -20.0190   21.6480 H   0  0  0  0  0  0  0  0  0  0  0  0
  -30.6370  -14.5750   20.3090 C   0  0  0  0  0  0  0  0  0  0  0  0
  -30.3590  -12.3840   19.1960 C   0  0  0  0  0  2  0  0  0  0  0  0
  -29.3900  -12.5880   18.0120 C   0  0  0  0  0  2  0  0  0  0  0  0
  -27.9220  -12.4610   18.4670 C   0  0  0  0  0  2  0  0  0  0  0  0
  -27.6090  -13.2760   19.7460 C   0  0  0  0  0  3  0  0  0  0  0  0
  -28.6930  -13.0490   20.8300 C   0  0  0  0  0  2  0  0  0  0  0  0
  -30.0010  -13.3690   20.2350 N   0  0  0  0  0  0  0  0  0  0  0  0
  -31.7620  -14.7440   19.8280 O   0  0  0  0  0  0  0  0  0  0  0  0
  -29.3510  -19.2390   20.4900 C   0  0  0  0  0  0  0  0  0  0  0  0
  -30.1800  -19.2100   19.3930 C   0  0  0  0  0  0  0  0  0  0  0  0
  -29.9810  -16.9940   20.4330 C   0  0  0  0  0  0  0  0  0  0  0  0
  -29.2390  -17.9420   21.0570 N   0  0  0  0  0  0  0  0  0  0  0  0
  -29.9200  -15.6040   20.8240 N   0  0  0  0  0  0  0  0  0  0  0  0
  -30.4480  -20.2850   18.6110 F   0  0  0  0  0  0  0  0  0  0  0  0
  -30.8850  -17.6470   19.0590 S   0  0  0  0  0  0  0  0  0  0  0  0
  -29.1070  -15.3360   21.3540 H   0  0  0  0  0  0  0  0  0  0  0  0
  -25.2140  -13.8590   20.4840 C   0  0  0  0  0  0  0  0  0  0  0  0
  -24.1570  -13.0810   20.8640 C   0  0  0  0  0  0  0  0  0  0  0  0
  -24.6210  -11.7290   20.8150 C   0  0  0  0  0  0  0  0  0  0  0  0
  -26.2640  -12.9850   20.2410 N   0  0  0  0  0  0  0  0  0  0  0  0
  -25.9070  -11.6980   20.4920 N   0  0  0  0  0  0  0  0  0  0  0  0
  -23.8980  -10.4630   21.0010 C   0  0  0  0  0  0  0  0  0  0  0  0
  -24.3220   -9.5030   21.9450 C   0  0  0  0  0  3  0  0  0  0  0  0
  -23.6030   -8.3020   22.1190 C   0  0  0  0  0  3  0  0  0  0  0  0
  -22.4420   -8.0500   21.3490 C   0  0  0  0  0  0  0  0  0  0  0  0
  -22.0370   -8.9990   20.3940 C   0  0  0  0  0  3  0  0  0  0  0  0
  -22.7580  -10.1910   20.2180 C   0  0  0  0  0  3  0  0  0  0  0  0
  -21.6950   -6.8980   21.4330 O   0  0  0  0  0  0  0  0  0  0  0  0
  -21.6060   -6.1820   22.6000 C   0  0  0  0  0  0  0  0  0  0  0  0
  -21.0950   -6.7530   23.7880 C   0  0  0  0  0  3  0  0  0  0  0  0
  -20.9570   -5.9610   24.9450 C   0  0  0  0  0  3  0  0  0  0  0  0
  -21.3150   -4.6000   24.9180 C   0  0  0  0  0  0  0  0  0  0  0  0
  -21.8160   -4.0290   23.7340 C   0  0  0  0  0  3  0  0  0  0  0  0
  -21.9570   -4.8180   22.5790 C   0  0  0  0  0  0  0  0  0  0  0  0
  -22.4220   -4.2570   21.4360 F   0  0  0  0  0  0  0  0  0  0  0  0
  -21.1740   -3.8390   26.0270 F   0  0  0  0  0  0  0  0  0  0  0  0
  -22.7630  -13.5470   21.1710 C   0  0  0  0  0  0  0  0  0  0  0  0
  -22.0560  -12.8340   22.0380 N   0  0  0  0  0  0  0  0  0  0  0  0
  -22.3140  -14.5810   20.6760 O   0  0  0  0  0  0  0  0  0  0  0  0
  -22.4300  -11.9940   22.4560 H   0  0  0  0  0  0  0  0  0  0  0  0
  -21.1260  -13.1340   22.2930 H   0  0  0  0  0  0  0  0  0  0  0  0
  -25.3780  -15.2330   20.3090 N   0  0  0  0  0  0  0  0  0  0  0  0
  -24.6220  -15.8960   20.4340 H   0  0  0  0  0  0  0  0  0  0  0  0
  -26.2280  -15.6640   19.9700 H   0  0  0  0  0  0  0  0  0  0  0  0
  1  5  1  0
  5  4  1  6
  5  3  1  0
  5  2  1  0
  6  7  1  0
  6  8  1  0
  6  1  1  0
 10  9  1  0
 10 11  1  0
 10  8  1  0
 12 23  2  0
 13 11  1  0
 13 18  1  0
 14 22  1  0
 14 24  1  0
 15 21  1  0
 15 17  1  0
 16 22  1  0
 17 16  1  0
 18 17  2  0
 19 13  2  0
 20 19  1  0
 20 15  2  0
 21 14  1  0
 22 12  1  0
 24 26  2  0
 25 24  1  0
 27 25  1  0
 28 37  2  0
 28 33  1  0
 29 25  1  0
 29 33  1  0
 30 29  1  0
 31 32  1  0
 31 30  1  0
 32 28  1  0
 33 34  2  0
 34 35  1  0
 36 35  2  0
 37 36  1  0
 38 12  1  0
 38 39  1  0
 38 48  1  0
 39 42  1  0
 40 44  1  0
 40 39  1  0
 41 40  2  0
 44 43  1  0
 46 44  1  0
 46 47  1  0
 46 45  1  0
 48 51  1  1
 48 49  1  0
 50 48  1  0
 52  1  2  3
 52 53  1  0
 54 66  1  0
 55 60  1  0
 56 57  1  0
 56 55  1  0
 58 57  1  0
 58 73  1  0
 58 59  1  0
 60 54  1  0
 60 59  1  0
 61 54  2  0
 62 52  1  0
 62 65  1  0
 63 62  2  0
 64 66  1  0
 64 65  2  0
 66 69  1  0
 67 63  1  0
 68 63  1  0
 68 64  1  0
 70 71  2  0
 71 90  1  0
 72 71  1  0
 72 75  1  0
 73 70  1  0
 73 74  1  0
 74 72  2  0
 75 76  1  0
 76 77  2  0
 78 81  1  0
 78 77  1  0
 79 78  2  0
 80 79  1  0
 80 75  2  0
 81 82  1  0
 82 83  1  0
 83 84  2  0
 85 84  1  0
 85 89  1  0
 86 85  2  0
 87 82  2  0
 87 86  1  0
 88 87  1  0
 90 91  1  0
 91 94  1  0
 91 93  1  0
 92 90  2  0
 95 96  1  0
 95 70  1  0
 97 95  1  0
M  ISO  4  10 101  11 101  54 100  66 100
M  END
>  <TORSDO>  (84) 
F 21

>  <SCORE>  (84) 
-13.735

>  <name>  (84) 
84

>  <ligand_id>  (84) 
84

>  <original_smiles>  (84) 
[H]c1c([H])c([H])c2c(c1[H])C([H])([H])C([H])([H])C([H])([H])C2([H])N([H])C(=O)C1([H])N(C(=O)C([H])(N([H])C(=O)C([H])(N([H])C([H])([H])[H])C([H])([H])[H])C(C([H])([H])[H])(C([H])([H])[H])C([H])([H])[H])C([H])([H])c2c([H])c(OC([H])(C([H])([H])[H])C([H])([H])C([H])(F)C([H])(N([H])c3nc(N([H])C(=O)N4C([H])([H])C([H])([H])C([H])([H])C([H])(n5nc(-c6c([H])c([H])c(Oc7c([H])c([H])c(F)c([H])c7F)c([H])c6[H])c(C(=O)N([H])[H])c5N([H])[H])C4([H])[H])sc3F)C(C([H])([H])[H])(C([H])([H])[H])C([H])([H])[H])c([H])c([H])c2C1([H])[H]

>  <smiles>  (84) 
[H]c1c([H])c([H])c2c(c1[H])C([H])([H])C([H])([H])C([H])([H])C2([H])N([H])C(=O)C1([H])N(C(=O)C([H])(N([H])C(=O)C([H])(N([H])C([H])([H])[H])C([H])([H])[H])C(C([H])([H])[H])(C([H])([H])[H])C([H])([H])[H])C([H])([H])c2c([H])c(OC([H])(C([H])([H])[H])C([H])([H])C([H])(F)C([H])(N([H])c3nc(N([H])C(=O)N4C([H])([H])C([H])([H])C([H])([H])C([H])(n5nc(-c6c([H])c([H])c(Oc7c([H])c([H])c(F)c([H])c7F)c([H])c6[H])c(C(=O)N([H])[H])c5N([H])[H])C4([H])[H])sc3F)C(C([H])([H])[H])(C([H])([H])[H])C([H])([H])[H])c([H])c([H])c2C1([H])[H]

$$$$
85:0:0
     RDKit          3D

 93101  0  0  1  0  0  0  0  0999 V2000
  -28.7130  -22.9770   20.5780 C   0  0  0  0  0  0  0  0  0  0  0  0
  -28.7250  -21.8210   19.8670 N   0  0  0  0  0  0  0  0  0  0  0  0
  -29.3670  -23.1140   21.6150 O   0  0  0  0  0  0  0  0  0  0  0  0
  -28.3190  -21.8630   18.9420 H   0  0  0  0  0  0  0  0  0  0  0  0
  -29.9420  -18.4780   21.4460 C   0  0  0  0  0  3  0  0  0  0  0  0
  -29.9460  -18.3040   20.0850 C   0  0  0  0  0  0  0  0  0  0  0  0
  -29.5050  -19.5160   19.4200 C   0  0  0  0  0  0  0  0  0  0  0  0
  -29.2080  -20.5890   20.2410 C   0  0  0  0  0  0  0  0  0  0  0  0
  -29.4550  -20.0960   21.9080 S   0  0  0  0  0  0  0  0  0  0  0  0
  -29.4020  -19.5600   17.7210 Cl  0  0  0  0  0  0  0  0  0  0  0  0
  -30.4270  -17.0350   19.3780 C   0  0  0  0  0  2  0  0  0  0  0  0
  -30.8980  -14.6120   19.7200 C   0  0  0  0  0  0  0  0  0  0  0  0
  -30.5420  -12.3930   18.7120 C   0  0  0  0  0  2  0  0  0  0  0  0
  -29.5140  -12.5520   17.5720 C   0  0  0  0  0  2  0  0  0  0  0  0
  -28.0790  -12.4130   18.1170 C   0  0  0  0  0  2  0  0  0  0  0  0
  -27.8280  -13.2860   19.3760 C   0  0  0  0  0  3  0  0  0  0  0  0
  -28.9700  -13.1330   20.4090 C   0  0  0  0  0  2  0  0  0  0  0  0
  -30.2370  -13.4210   19.7240 N   0  0  0  0  0  0  0  0  0  0  0  0
  -32.0250  -14.7310   19.2320 O   0  0  0  0  0  0  0  0  0  0  0  0
  -30.1610  -15.7140   20.0070 N   0  0  0  0  0  0  0  0  0  0  0  0
  -29.2410  -15.5650   20.3930 H   0  0  0  0  0  0  0  0  0  0  0  0
  -25.5120  -13.8980   20.3040 C   0  0  0  0  0  0  0  0  0  0  0  0
  -24.4710  -13.1280   20.7500 C   0  0  0  0  0  0  0  0  0  0  0  0
  -24.9140  -11.7730   20.6560 C   0  0  0  0  0  0  0  0  0  0  0  0
  -26.5220  -13.0110   19.9670 N   0  0  0  0  0  0  0  0  0  0  0  0
  -26.1720  -11.7280   20.2380 N   0  0  0  0  0  0  0  0  0  0  0  0
  -24.1920  -10.5140   20.8840 C   0  0  0  0  0  0  0  0  0  0  0  0
  -24.6130   -9.5890   21.8650 C   0  0  0  0  0  3  0  0  0  0  0  0
  -23.8920   -8.3940   22.0780 C   0  0  0  0  0  3  0  0  0  0  0  0
  -22.7360   -8.1170   21.3110 C   0  0  0  0  0  0  0  0  0  0  0  0
  -22.3350   -9.0300   20.3200 C   0  0  0  0  0  3  0  0  0  0  0  0
  -23.0570  -10.2160   20.1050 C   0  0  0  0  0  3  0  0  0  0  0  0
  -21.9880   -6.9710   21.4300 O   0  0  0  0  0  0  0  0  0  0  0  0
  -21.8120   -6.3490   22.6410 C   0  0  0  0  0  0  0  0  0  0  0  0
  -21.2310   -7.0130   23.7420 C   0  0  0  0  0  3  0  0  0  0  0  0
  -21.0070   -6.3150   24.9460 C   0  0  0  0  0  3  0  0  0  0  0  0
  -21.3520   -4.9550   25.0480 C   0  0  0  0  0  0  0  0  0  0  0  0
  -21.9260   -4.2910   23.9500 C   0  0  0  0  0  3  0  0  0  0  0  0
  -22.1530   -4.9860   22.7480 C   0  0  0  0  0  0  0  0  0  0  0  0
  -22.6860   -4.3350   21.6860 F   0  0  0  0  0  0  0  0  0  0  0  0
  -21.1300   -4.2820   26.2010 F   0  0  0  0  0  0  0  0  0  0  0  0
  -23.1070  -13.6130   21.1500 C   0  0  0  0  0  0  0  0  0  0  0  0
  -22.4550  -12.9160   22.0730 N   0  0  0  0  0  0  0  0  0  0  0  0
  -22.6330  -14.6460   20.6780 O   0  0  0  0  0  0  0  0  0  0  0  0
  -22.8530  -12.0800   22.4750 H   0  0  0  0  0  0  0  0  0  0  0  0
  -21.5440  -13.2230   22.3830 H   0  0  0  0  0  0  0  0  0  0  0  0
  -25.6740  -15.2690   20.1370 N   0  0  0  0  0  0  0  0  0  0  0  0
  -24.9250  -15.9270   20.3210 H   0  0  0  0  0  0  0  0  0  0  0  0
  -26.4920  -15.7080   19.7330 H   0  0  0  0  0  0  0  0  0  0  0  0
  -27.8440  -24.1730   20.0840 C   0  0  0  0  0  2  0  0  0  0  0  0
  -28.5040  -25.4390   17.9050 C   0  0  0  0  0  1  0  0  0  0  0  0
  -28.5950  -25.3930   19.4400 C   0  0  0  0  0  3  0  0  0  0  0  0
  -28.4000  -26.7180   20.0070 O   0  0  0  0  0  0  0  0  0  0  0  0
  -24.6090  -31.8430   23.1760 C   0  0  0  0  0  0  0  0  0  0  0  0
  -27.2090  -27.4290   19.9750 C   0  0  0  0  0  0  0  0  0  0  0  0
  -23.3770  -30.4640   21.5330 C   0  0  0  0  0  3  0  0  0  0  0  0
  -24.8080  -28.9510   20.0530 C   0  0  0  0  0  0  0  0  0  0  0  0
  -25.9000  -30.8270   21.2950 C   0  0  0  0  0  2  0  0  0  0  0  0
  -25.9750  -29.4640   20.6290 C   0  0  0  0  0  0  0  0  0  0  0  0
  -27.1730  -28.7110   20.5860 C   0  0  0  0  0  3  0  0  0  0  0  0
  -26.0180  -26.9380   19.3950 C   0  0  0  0  0  3  0  0  0  0  0  0
  -24.8260  -27.6900   19.4320 C   0  0  0  0  0  3  0  0  0  0  0  0
  -23.5630  -29.8070   20.1380 C   0  0  0  0  0  2  0  0  0  0  0  0
  -24.6480  -31.0600   22.0600 N   0  0  0  0  0  0  0  0  0  0  0  0
  -23.5370  -32.1030   23.7400 O   0  0  0  0  0  0  0  0  0  0  0  0
  -22.7470  -29.4260   22.4890 C   0  0  0  0  0  0  0  0  0  0  0  0
  -21.4300  -29.2010   22.3460 N   0  0  0  0  0  0  0  0  0  0  0  0
  -23.4390  -28.8250   23.3160 O   0  0  0  0  0  0  0  0  0  0  0  0
  -20.9310  -29.7400   21.6530 H   0  0  0  0  0  0  0  0  0  0  0  0
  -18.1030  -27.8510   22.7580 C   0  0  0  0  0  0  0  0  0  0  0  0
  -20.6350  -28.2390   23.1090 C   0  0  0  0  0  3  0  0  0  0  0  0
  -20.8260  -26.8040   22.5650 C   0  0  0  0  0  2  0  0  0  0  0  0
  -19.7760  -26.4110   21.5220 C   0  0  0  0  0  2  0  0  0  0  0  0
  -18.3680  -26.5000   22.1160 C   0  0  0  0  0  2  0  0  0  0  0  0
  -19.1690  -28.6740   23.2100 C   0  0  0  0  0  0  0  0  0  0  0  0
  -18.8700  -29.9360   23.7680 C   0  0  0  0  0  3  0  0  0  0  0  0
  -17.5370  -30.3770   23.8810 C   0  0  0  0  0  3  0  0  0  0  0  0
  -16.4860  -29.5520   23.4460 C   0  0  0  0  0  3  0  0  0  0  0  0
  -16.7690  -28.2910   22.8910 C   0  0  0  0  0  3  0  0  0  0  0  0
  -25.9030  -32.4690   23.7830 C   0  0  0  0  0  3  0  0  0  0  0  0
  -26.4450  -31.6810   25.0390 C   0  0  1  0  0  0  0  0  0  0  0  0
  -25.3710  -31.4220   26.1200 C   0  0  0  0  0  1  0  0  0  0  0  0
  -27.0290  -30.3130   24.6170 C   0  0  0  0  0  1  0  0  0  0  0  0
  -27.6030  -32.4730   25.6950 C   0  0  0  0  0  1  0  0  0  0  0  0
  -25.5990  -33.8620   24.1360 N   0  0  0  0  0  0  0  0  0  0  0  0
  -25.9380  -34.9250   23.3960 C   0  0  0  0  0  0  0  0  0  0  0  0
  -26.6110  -34.8370   22.3660 O   0  0  0  0  0  0  0  0  0  0  0  0
  -25.0010  -34.0070   24.9360 H   0  0  0  0  0  0  0  0  0  0  0  0
  -24.2280  -36.7380   23.0520 C   0  0  0  0  0  1  0  0  0  0  0  0
  -25.4530  -36.3080   23.8750 C   0  0  0  0  0  3  0  0  0  0  0  0
  -27.5770  -37.1590   24.7650 C   0  0  0  0  0  1  0  0  0  0  0  0
  -26.4950  -37.3550   23.8040 N   0  0  0  0  0  0  0  0  0  0  0  0
  -26.0920  -38.2740   23.9630 H   0  0  0  0  0  0  0  0  0  0  0  0
  1  3  2  0
  2  8  1  0
  2  1  1  0
  4  2  1  0
  5  9  1  0
  6  5  2  0
  7  6  1  0
  7  8  2  0
  8  9  1  0
 10  7  1  0
 11 20  1  0
 11  6  1  0
 12 18  1  0
 12 20  1  0
 13 18  1  0
 14 15  1  0
 14 13  1  0
 16 15  1  0
 16 25  1  0
 16 17  1  0
 18 17  1  0
 19 12  2  0
 20 21  1  0
 22 23  2  0
 23 42  1  0
 24 23  1  0
 24 27  1  0
 25 26  1  0
 25 22  1  0
 26 24  2  0
 27 28  1  0
 28 29  2  0
 30 33  1  0
 30 29  1  0
 31 30  2  0
 32 31  1  0
 32 27  2  0
 33 34  1  0
 34 39  2  0
 34 35  1  0
 35 36  2  0
 36 37  1  0
 37 41  1  0
 38 37  2  0
 39 38  1  0
 40 39  1  0
 42 43  1  0
 43 46  1  0
 43 45  1  0
 44 42  2  0
 47 22  1  0
 47 48  1  0
 49 47  1  0
 50  1  1  0
 52 51  1  0
 52 53  1  0
 52 50  1  0
 54 65  2  0
 55 53  1  0
 55 60  1  0
 56 64  1  0
 56 66  1  0
 57 63  1  0
 57 59  1  0
 58 64  1  0
 59 58  1  0
 60 59  2  0
 61 62  1  0
 61 55  2  0
 62 57  2  0
 63 56  1  0
 64 54  1  0
 66 68  2  0
 67 66  1  0
 69 67  1  0
 70 79  2  0
 70 75  1  0
 71 67  1  0
 71 75  1  0
 72 71  1  0
 73 74  1  0
 73 72  1  0
 74 70  1  0
 75 76  2  0
 76 77  1  0
 78 77  2  0
 79 78  1  0
 80 54  1  0
 80 85  1  0
 80 81  1  0
 81 84  1  1
 81 82  1  0
 83 81  1  0
 85 88  1  0
 86 90  1  0
 86 85  1  0
 87 86  2  0
 90 89  1  0
 92 90  1  0
 92 93  1  0
 92 91  1  0
M  ISO  4  12 100  20 100  52 101  53 101
M  END
>  <TORSDO>  (85) 
F 20

>  <SCORE>  (85) 
-12.363

>  <name>  (85) 
85

>  <ligand_id>  (85) 
85

>  <original_smiles>  (85) 
[H]c1sc(N([H])C(=O)C([H])([H])C([H])(Oc2c([H])c([H])c3c(c2[H])C([H])([H])N(C(=O)C([H])(N([H])C(=O)C([H])(N([H])C([H])([H])[H])C([H])([H])[H])C(C([H])([H])[H])(C([H])([H])[H])C([H])([H])[H])C([H])(C(=O)N([H])C2([H])c4c([H])c([H])c([H])c([H])c4C([H])([H])C([H])([H])C2([H])[H])C3([H])[H])C([H])([H])[H])c(Cl)c1C([H])([H])N([H])C(=O)N1C([H])([H])C([H])([H])C([H])([H])C([H])(n2nc(-c3c([H])c([H])c(Oc4c([H])c([H])c(F)c([H])c4F)c([H])c3[H])c(C(=O)N([H])[H])c2N([H])[H])C1([H])[H]

>  <smiles>  (85) 
[H]c1sc(N([H])C(=O)C([H])([H])C([H])(Oc2c([H])c([H])c3c(c2[H])C([H])([H])N(C(=O)C([H])(N([H])C(=O)C([H])(N([H])C([H])([H])[H])C([H])([H])[H])C(C([H])([H])[H])(C([H])([H])[H])C([H])([H])[H])C([H])(C(=O)N([H])C2([H])c4c([H])c([H])c([H])c([H])c4C([H])([H])C([H])([H])C2([H])[H])C3([H])[H])C([H])([H])[H])c(Cl)c1C([H])([H])N([H])C(=O)N1C([H])([H])C([H])([H])C([H])([H])C([H])(n2nc(-c3c([H])c([H])c(Oc4c([H])c([H])c(F)c([H])c4F)c([H])c3[H])c(C(=O)N([H])[H])c2N([H])[H])C1([H])[H]

$$$$
86:0:0
     RDKit          3D

 90 98  0  0  1  0  0  0  0  0999 V2000
  -28.4190  -21.7850   20.1050 C   0  0  0  0  0  3  0  0  0  0  0  0
  -27.7420  -21.8040   18.9540 F   0  0  0  0  0  0  0  0  0  0  0  0
  -30.5110  -15.0110   20.2890 C   0  0  0  0  0  0  0  0  0  0  0  0
  -30.4150  -12.6580   19.3440 C   0  0  0  0  0  2  0  0  0  0  0  0
  -29.4690  -12.6270   18.1200 C   0  0  0  0  0  2  0  0  0  0  0  0
  -28.0070  -12.4130   18.5610 C   0  0  0  0  0  2  0  0  0  0  0  0
  -27.6100  -13.3280   19.7490 C   0  0  0  0  0  3  0  0  0  0  0  0
  -28.6740  -13.3180   20.8680 C   0  0  0  0  0  2  0  0  0  0  0  0
  -29.9460  -13.7370   20.2590 N   0  0  0  0  0  0  0  0  0  0  0  0
  -31.7020  -15.1100   19.9670 O   0  0  0  0  0  0  0  0  0  0  0  0
  -30.4680  -19.8810   19.9520 C   0  0  0  0  0  3  0  0  0  0  0  0
  -29.1770  -20.3280   20.2380 C   0  0  0  0  0  0  0  0  0  0  0  0
  -29.7060  -17.6560   20.3840 C   0  0  0  0  0  0  0  0  0  0  0  0
  -30.7430  -18.4550   20.0330 N   0  0  0  0  0  0  0  0  0  0  0  0
  -29.6700  -16.1300   20.5120 N   0  0  0  0  0  0  0  0  0  0  0  0
  -28.2970  -18.7940   20.6640 S   0  0  0  0  0  0  0  0  0  0  0  0
  -28.7540  -15.8120   20.7800 H   0  0  0  0  0  0  0  0  0  0  0  0
  -25.2330  -13.9020   20.5080 C   0  0  0  0  0  0  0  0  0  0  0  0
  -24.1720  -13.1250   20.8830 C   0  0  0  0  0  0  0  0  0  0  0  0
  -24.6370  -11.7740   20.8360 C   0  0  0  0  0  0  0  0  0  0  0  0
  -26.2750  -13.0260   20.2520 N   0  0  0  0  0  0  0  0  0  0  0  0
  -25.9250  -11.7410   20.5150 N   0  0  0  0  0  0  0  0  0  0  0  0
  -23.9120  -10.5100   21.0210 C   0  0  0  0  0  0  0  0  0  0  0  0
  -24.3350   -9.5460   21.9630 C   0  0  0  0  0  3  0  0  0  0  0  0
  -23.6090   -8.3470   22.1360 C   0  0  0  0  0  3  0  0  0  0  0  0
  -22.4460   -8.1050   21.3680 C   0  0  0  0  0  0  0  0  0  0  0  0
  -22.0420   -9.0580   20.4160 C   0  0  0  0  0  3  0  0  0  0  0  0
  -22.7690  -10.2470   20.2410 C   0  0  0  0  0  3  0  0  0  0  0  0
  -21.6920   -6.9590   21.4500 O   0  0  0  0  0  0  0  0  0  0  0  0
  -21.6080   -6.2350   22.6120 C   0  0  0  0  0  0  0  0  0  0  0  0
  -21.1020   -6.7960   23.8040 C   0  0  0  0  0  3  0  0  0  0  0  0
  -20.9680   -5.9970   24.9570 C   0  0  0  0  0  3  0  0  0  0  0  0
  -21.3290   -4.6370   24.9180 C   0  0  0  0  0  0  0  0  0  0  0  0
  -21.8280   -4.0750   23.7290 C   0  0  0  0  0  3  0  0  0  0  0  0
  -21.9640   -4.8710   22.5790 C   0  0  0  0  0  0  0  0  0  0  0  0
  -22.4250   -4.3190   21.4310 F   0  0  0  0  0  0  0  0  0  0  0  0
  -21.1940   -3.8670   26.0220 F   0  0  0  0  0  0  0  0  0  0  0  0
  -22.7770  -13.5990   21.1670 C   0  0  0  0  0  0  0  0  0  0  0  0
  -22.0590  -12.9020   22.0390 N   0  0  0  0  0  0  0  0  0  0  0  0
  -22.3330  -14.6240   20.6500 O   0  0  0  0  0  0  0  0  0  0  0  0
  -22.4310  -12.0730   22.4790 H   0  0  0  0  0  0  0  0  0  0  0  0
  -21.1220  -13.2020   22.2720 H   0  0  0  0  0  0  0  0  0  0  0  0
  -25.3920  -15.2750   20.3380 N   0  0  0  0  0  0  0  0  0  0  0  0
  -24.6140  -15.9170   20.4490 H   0  0  0  0  0  0  0  0  0  0  0  0
  -26.2090  -15.7140   19.9350 H   0  0  0  0  0  0  0  0  0  0  0  0
  -28.9810  -23.3680   20.2800 C   0  0  0  0  0  3  0  0  0  0  0  0
  -30.0830  -23.4900   19.3910 O   0  0  0  0  0  0  0  0  0  0  0  0
  -30.4320  -24.3710   19.4970 H   0  0  0  0  0  0  0  0  0  0  0  0
  -28.0020  -24.7170   19.9800 C   0  0  0  0  0  2  0  0  0  0  0  0
  -28.2640  -26.2310   20.2500 O   0  0  0  0  0  0  0  0  0  0  0  0
  -24.6500  -31.9140   23.2480 C   0  0  0  0  0  0  0  0  0  0  0  0
  -27.2070  -27.2140   20.1820 C   0  0  0  0  0  0  0  0  0  0  0  0
  -23.4400  -30.5290   21.6060 C   0  0  0  0  0  3  0  0  0  0  0  0
  -24.8800  -28.9610   20.1670 C   0  0  0  0  0  0  0  0  0  0  0  0
  -25.9940  -30.7910   21.4330 C   0  0  0  0  0  2  0  0  0  0  0  0
  -26.0630  -29.4020   20.7730 C   0  0  0  0  0  0  0  0  0  0  0  0
  -27.2270  -28.5450   20.7640 C   0  0  0  0  0  3  0  0  0  0  0  0
  -25.9960  -26.8740   19.5370 C   0  0  0  0  0  3  0  0  0  0  0  0
  -24.8600  -27.7090   19.5340 C   0  0  0  0  0  3  0  0  0  0  0  0
  -23.6550  -29.8590   20.2240 C   0  0  0  0  0  2  0  0  0  0  0  0
  -24.7160  -31.0990   22.1510 N   0  0  0  0  0  0  0  0  0  0  0  0
  -23.5670  -32.1990   23.7810 O   0  0  0  0  0  0  0  0  0  0  0  0
  -22.7630  -29.5200   22.5660 C   0  0  0  0  0  0  0  0  0  0  0  0
  -21.4350  -29.3490   22.4390 N   0  0  0  0  0  0  0  0  0  0  0  0
  -23.4350  -28.8920   23.3890 O   0  0  0  0  0  0  0  0  0  0  0  0
  -20.9490  -29.9060   21.7500 H   0  0  0  0  0  0  0  0  0  0  0  0
  -18.0520  -28.1560   22.9470 C   0  0  0  0  0  0  0  0  0  0  0  0
  -20.6130  -28.4110   23.2090 C   0  0  0  0  0  3  0  0  0  0  0  0
  -20.7100  -26.9800   22.6280 C   0  0  0  0  0  2  0  0  0  0  0  0
  -19.6040  -26.6640   21.6160 C   0  0  0  0  0  2  0  0  0  0  0  0
  -18.2240  -26.8090   22.2630 C   0  0  0  0  0  2  0  0  0  0  0  0
  -19.1730  -28.9150   23.3760 C   0  0  0  0  0  0  0  0  0  0  0  0
  -18.9570  -30.1730   23.9770 C   0  0  0  0  0  3  0  0  0  0  0  0
  -17.6530  -30.6740   24.1500 C   0  0  0  0  0  3  0  0  0  0  0  0
  -16.5470  -29.9130   23.7360 C   0  0  0  0  0  3  0  0  0  0  0  0
  -16.7470  -28.6550   23.1400 C   0  0  0  0  0  3  0  0  0  0  0  0
  -25.9330  -32.5430   23.8730 C   0  0  0  0  0  3  0  0  0  0  0  0
  -26.4460  -31.7660   25.1480 C   0  0  1  0  0  0  0  0  0  0  0  0
  -25.3520  -31.5270   26.2140 C   0  0  0  0  0  1  0  0  0  0  0  0
  -27.0280  -30.3880   24.7560 C   0  0  0  0  0  1  0  0  0  0  0  0
  -27.5980  -32.5560   25.8130 C   0  0  0  0  0  1  0  0  0  0  0  0
  -25.6260  -33.9410   24.2140 N   0  0  0  0  0  0  0  0  0  0  0  0
  -25.9310  -35.0000   23.4520 C   0  0  0  0  0  0  0  0  0  0  0  0
  -26.5700  -34.9020   22.4010 O   0  0  0  0  0  0  0  0  0  0  0  0
  -25.0550  -34.0900   25.0340 H   0  0  0  0  0  0  0  0  0  0  0  0
  -24.1800  -36.7850   23.1740 C   0  0  0  0  0  1  0  0  0  0  0  0
  -25.4560  -36.3860   23.9320 C   0  0  0  0  0  3  0  0  0  0  0  0
  -27.6150  -37.2900   24.6780 C   0  0  0  0  0  1  0  0  0  0  0  0
  -26.4780  -37.4450   23.7750 N   0  0  0  0  0  0  0  0  0  0  0  0
  -26.0710  -38.3630   23.9320 H   0  0  0  0  0  0  0  0  0  0  0  0
  1  2  1  0
  1 12  1  0
  1 46  1  0
  3 15  1  0
  4  9  1  0
  5  6  1  0
  5  4  1  0
  7  6  1  0
  7 21  1  0
  7  8  1  0
  9  3  1  0
  9  8  1  0
 10  3  2  0
 11 14  1  0
 11 12  2  0
 12 16  1  0
 13 15  1  0
 13 16  1  0
 14 13  2  0
 15 17  1  0
 18 19  2  0
 19 38  1  0
 20 19  1  0
 20 23  1  0
 21 18  1  0
 21 22  1  0
 22 20  2  0
 23 24  1  0
 24 25  2  0
 26 29  1  0
 26 25  1  0
 27 26  2  0
 28 27  1  0
 28 23  2  0
 29 30  1  0
 30 31  1  0
 31 32  2  0
 33 32  1  0
 33 37  1  0
 34 33  2  0
 35 30  2  0
 35 34  1  0
 36 35  1  0
 38 39  1  0
 39 42  1  0
 39 41  1  0
 40 38  2  0
 43 44  1  0
 43 18  1  0
 45 43  1  0
 46 49  1  0
 47 48  1  0
 47 46  1  0
 49 50  1  0
 51 62  2  0
 52 50  1  0
 52 57  1  0
 53 61  1  0
 53 63  1  0
 54 60  1  0
 54 56  1  0
 55 61  1  0
 56 55  1  0
 57 56  2  0
 58 52  2  0
 59 58  1  0
 59 54  2  0
 60 53  1  0
 61 51  1  0
 63 65  2  0
 64 63  1  0
 66 64  1  0
 67 76  2  0
 67 72  1  0
 68 64  1  0
 68 72  1  0
 69 68  1  0
 70 71  1  0
 70 69  1  0
 71 67  1  0
 72 73  2  0
 73 74  1  0
 75 74  2  0
 76 75  1  0
 77 51  1  0
 77 82  1  0
 77 78  1  0
 78 81  1  1
 78 79  1  0
 80 78  1  0
 82 85  1  0
 83 87  1  0
 83 82  1  0
 84 83  2  0
 87 86  1  0
 89 87  1  0
 89 90  1  0
 89 88  1  0
M  ISO  4   3 100  15 100  49 101  50 101
M  END
>  <TORSDO>  (86) 
F 19

>  <SCORE>  (86) 
-14.175

>  <name>  (86) 
86

>  <ligand_id>  (86) 
86

>  <original_smiles>  (86) 
[H]OC([H])(C([H])([H])Oc1c([H])c([H])c2c(c1[H])C([H])([H])N(C(=O)C([H])(N([H])C(=O)C([H])(N([H])C([H])([H])[H])C([H])([H])[H])C(C([H])([H])[H])(C([H])([H])[H])C([H])([H])[H])C([H])(C(=O)N([H])C1([H])c3c([H])c([H])c([H])c([H])c3C([H])([H])C([H])([H])C1([H])[H])C2([H])[H])C([H])(F)c1sc(N([H])C(=O)N2C([H])([H])C([H])([H])C([H])([H])C([H])(n3nc(-c4c([H])c([H])c(Oc5c([H])c([H])c(F)c([H])c5F)c([H])c4[H])c(C(=O)N([H])[H])c3N([H])[H])C2([H])[H])nc1[H]

>  <smiles>  (86) 
[H]OC([H])(C([H])([H])Oc1c([H])c([H])c2c(c1[H])C([H])([H])N(C(=O)C([H])(N([H])C(=O)C([H])(N([H])C([H])([H])[H])C([H])([H])[H])C(C([H])([H])[H])(C([H])([H])[H])C([H])([H])[H])C([H])(C(=O)N([H])C1([H])c3c([H])c([H])c([H])c([H])c3C([H])([H])C([H])([H])C1([H])[H])C2([H])[H])C([H])(F)c1sc(N([H])C(=O)N2C([H])([H])C([H])([H])C([H])([H])C([H])(n3nc(-c4c([H])c([H])c(Oc5c([H])c([H])c(F)c([H])c5F)c([H])c4[H])c(C(=O)N([H])[H])c3N([H])[H])C2([H])[H])nc1[H]

$$$$
87:0:0
     RDKit          3D

 89 97  0  0  1  0  0  0  0  0999 V2000
  -29.6990  -23.3270   21.7660 C   0  0  0  0  0  1  0  0  0  0  0  0
  -28.9900  -23.2060   20.4100 C   0  0  1  0  0  0  0  0  0  0  0  0
  -29.9390  -23.3810   19.4890 F   0  0  0  0  0  0  0  0  0  0  0  0
  -28.4890  -21.5740   20.2020 C   0  0  0  0  0  2  0  0  0  0  0  0
  -30.8890  -18.6250   20.1480 C   0  0  0  0  0  3  0  0  0  0  0  0
  -28.7760  -18.7970   20.5420 C   0  0  0  0  0  3  0  0  0  0  0  0
  -29.7610  -17.7780   20.4110 C   0  0  0  0  0  0  0  0  0  0  0  0
  -30.5950  -19.9610   20.0960 N   0  0  0  0  0  0  0  0  0  0  0  0
  -29.2610  -20.1600   20.3520 N   0  0  0  0  0  0  0  0  0  0  0  0
  -30.4770  -15.0780   20.2700 C   0  0  0  0  0  0  0  0  0  0  0  0
  -30.4000  -12.7100   19.3160 C   0  0  0  0  0  2  0  0  0  0  0  0
  -29.4480  -12.6430   18.0970 C   0  0  0  0  0  2  0  0  0  0  0  0
  -27.9920  -12.4120   18.5450 C   0  0  0  0  0  2  0  0  0  0  0  0
  -27.5920  -13.3250   19.7320 C   0  0  0  0  0  3  0  0  0  0  0  0
  -28.6610  -13.3460   20.8460 C   0  0  0  0  0  2  0  0  0  0  0  0
  -29.9170  -13.7930   20.2260 N   0  0  0  0  0  0  0  0  0  0  0  0
  -31.6660  -15.1760   19.9420 O   0  0  0  0  0  0  0  0  0  0  0  0
  -29.6510  -16.2270   20.5050 N   0  0  0  0  0  0  0  0  0  0  0  0
  -28.7220  -15.9240   20.7580 H   0  0  0  0  0  0  0  0  0  0  0  0
  -25.2170  -13.8840   20.5070 C   0  0  0  0  0  0  0  0  0  0  0  0
  -24.1630  -13.1020   20.8910 C   0  0  0  0  0  0  0  0  0  0  0  0
  -24.6350  -11.7540   20.8430 C   0  0  0  0  0  0  0  0  0  0  0  0
  -26.2610  -13.0140   20.2450 N   0  0  0  0  0  0  0  0  0  0  0  0
  -25.9220  -11.7260   20.5120 N   0  0  0  0  0  0  0  0  0  0  0  0
  -23.9170  -10.4850   21.0340 C   0  0  0  0  0  0  0  0  0  0  0  0
  -24.3590   -9.5170   21.9640 C   0  0  0  0  0  3  0  0  0  0  0  0
  -23.6400   -8.3170   22.1440 C   0  0  0  0  0  3  0  0  0  0  0  0
  -22.4640   -8.0760   21.3950 C   0  0  0  0  0  0  0  0  0  0  0  0
  -22.0400   -9.0310   20.4560 C   0  0  0  0  0  3  0  0  0  0  0  0
  -22.7610  -10.2250   20.2740 C   0  0  0  0  0  3  0  0  0  0  0  0
  -21.7160   -6.9250   21.4840 O   0  0  0  0  0  0  0  0  0  0  0  0
  -21.6690   -6.1850   22.6380 C   0  0  0  0  0  0  0  0  0  0  0  0
  -21.2310   -6.7390   23.8610 C   0  0  0  0  0  3  0  0  0  0  0  0
  -21.1310   -5.9250   25.0070 C   0  0  0  0  0  3  0  0  0  0  0  0
  -21.4600   -4.5590   24.9320 C   0  0  0  0  0  0  0  0  0  0  0  0
  -21.8910   -4.0040   23.7140 C   0  0  0  0  0  3  0  0  0  0  0  0
  -21.9920   -4.8150   22.5700 C   0  0  0  0  0  0  0  0  0  0  0  0
  -22.3880   -4.2700   21.3940 F   0  0  0  0  0  0  0  0  0  0  0  0
  -21.3570   -3.7740   26.0300 F   0  0  0  0  0  0  0  0  0  0  0  0
  -22.7680  -13.5730   21.1820 C   0  0  0  0  0  0  0  0  0  0  0  0
  -22.0520  -12.8700   22.0530 N   0  0  0  0  0  0  0  0  0  0  0  0
  -22.3210  -14.6000   20.6730 O   0  0  0  0  0  0  0  0  0  0  0  0
  -22.4250  -12.0400   22.4910 H   0  0  0  0  0  0  0  0  0  0  0  0
  -21.1170  -13.1700   22.2890 H   0  0  0  0  0  0  0  0  0  0  0  0
  -25.3690  -15.2560   20.3270 N   0  0  0  0  0  0  0  0  0  0  0  0
  -24.5850  -15.8930   20.4170 H   0  0  0  0  0  0  0  0  0  0  0  0
  -26.1680  -15.6810   19.8760 H   0  0  0  0  0  0  0  0  0  0  0  0
  -27.9640  -24.5780   20.1980 C   0  0  0  0  0  2  0  0  0  0  0  0
  -28.2350  -26.1350   20.3210 O   0  0  0  0  0  0  0  0  0  0  0  0
  -24.6460  -31.9130   23.2610 C   0  0  0  0  0  0  0  0  0  0  0  0
  -27.1900  -27.1460   20.2430 C   0  0  0  0  0  0  0  0  0  0  0  0
  -23.4340  -30.5220   21.6260 C   0  0  0  0  0  3  0  0  0  0  0  0
  -24.8720  -28.9330   20.1960 C   0  0  0  0  0  0  0  0  0  0  0  0
  -25.9870  -30.7690   21.4500 C   0  0  0  0  0  2  0  0  0  0  0  0
  -26.0550  -29.3680   20.8050 C   0  0  0  0  0  0  0  0  0  0  0  0
  -27.2120  -28.4930   20.8070 C   0  0  0  0  0  3  0  0  0  0  0  0
  -25.9770  -26.8250   19.5900 C   0  0  0  0  0  3  0  0  0  0  0  0
  -24.8510  -27.6780   19.5690 C   0  0  0  0  0  3  0  0  0  0  0  0
  -23.6490  -29.8390   20.2460 C   0  0  0  0  0  2  0  0  0  0  0  0
  -24.7100  -31.0900   22.1690 N   0  0  0  0  0  0  0  0  0  0  0  0
  -23.5630  -32.2040   23.7920 O   0  0  0  0  0  0  0  0  0  0  0  0
  -22.7500  -29.5210   22.5920 C   0  0  0  0  0  0  0  0  0  0  0  0
  -21.4210  -29.3520   22.4660 N   0  0  0  0  0  0  0  0  0  0  0  0
  -23.4190  -28.8990   23.4220 O   0  0  0  0  0  0  0  0  0  0  0  0
  -20.9370  -29.9100   21.7750 H   0  0  0  0  0  0  0  0  0  0  0  0
  -18.0420  -28.1400   22.9510 C   0  0  0  0  0  0  0  0  0  0  0  0
  -20.5980  -28.4180   23.2390 C   0  0  0  0  0  3  0  0  0  0  0  0
  -20.7090  -26.9790   22.6810 C   0  0  0  0  0  2  0  0  0  0  0  0
  -19.6210  -26.6440   21.6560 C   0  0  0  0  0  2  0  0  0  0  0  0
  -18.2310  -26.7890   22.2810 C   0  0  0  0  0  2  0  0  0  0  0  0
  -19.1530  -28.9120   23.3850 C   0  0  0  0  0  0  0  0  0  0  0  0
  -18.9210  -30.1750   23.9710 C   0  0  0  0  0  3  0  0  0  0  0  0
  -17.6120  -30.6680   24.1250 C   0  0  0  0  0  3  0  0  0  0  0  0
  -16.5160  -29.8960   23.7050 C   0  0  0  0  0  3  0  0  0  0  0  0
  -16.7320  -28.6330   23.1260 C   0  0  0  0  0  3  0  0  0  0  0  0
  -25.9290  -32.5420   23.8850 C   0  0  0  0  0  3  0  0  0  0  0  0
  -26.4390  -31.7670   25.1630 C   0  0  1  0  0  0  0  0  0  0  0  0
  -25.3430  -31.5420   26.2310 C   0  0  0  0  0  1  0  0  0  0  0  0
  -27.0100  -30.3850   24.7750 C   0  0  0  0  0  1  0  0  0  0  0  0
  -27.5950  -32.5520   25.8240 C   0  0  0  0  0  1  0  0  0  0  0  0
  -25.6250  -33.9410   24.2240 N   0  0  0  0  0  0  0  0  0  0  0  0
  -25.9340  -34.9980   23.4600 C   0  0  0  0  0  0  0  0  0  0  0  0
  -26.5730  -34.8950   22.4080 O   0  0  0  0  0  0  0  0  0  0  0  0
  -25.0540  -34.0920   25.0420 H   0  0  0  0  0  0  0  0  0  0  0  0
  -24.1830  -36.7850   23.1790 C   0  0  0  0  0  1  0  0  0  0  0  0
  -25.4620  -36.3860   23.9330 C   0  0  0  0  0  3  0  0  0  0  0  0
  -27.6280  -37.2880   24.6630 C   0  0  0  0  0  1  0  0  0  0  0  0
  -26.4840  -37.4440   23.7690 N   0  0  0  0  0  0  0  0  0  0  0  0
  -26.0790  -38.3630   23.9290 H   0  0  0  0  0  0  0  0  0  0  0  0
  2  1  1  1
  3  2  1  0
  4  9  1  0
  4  2  1  0
  5  7  1  0
  7 18  1  0
  7  6  2  0
  8  5  2  0
  8  9  1  0
  9  6  1  0
 10 18  1  0
 11 16  1  0
 12 13  1  0
 12 11  1  0
 14 13  1  0
 14 23  1  0
 14 15  1  0
 16 10  1  0
 16 15  1  0
 17 10  2  0
 18 19  1  0
 20 21  2  0
 21 40  1  0
 22 21  1  0
 22 25  1  0
 23 20  1  0
 23 24  1  0
 24 22  2  0
 25 26  1  0
 26 27  2  0
 28 31  1  0
 28 27  1  0
 29 28  2  0
 30 29  1  0
 30 25  2  0
 31 32  1  0
 32 33  1  0
 33 34  2  0
 35 34  1  0
 35 39  1  0
 36 35  2  0
 37 32  2  0
 37 36  1  0
 38 37  1  0
 40 41  1  0
 41 44  1  0
 41 43  1  0
 42 40  2  0
 45 46  1  0
 45 20  1  0
 47 45  1  0
 48 49  1  0
 48  2  1  0
 50 61  2  0
 51 49  1  0
 51 56  1  0
 52 60  1  0
 52 62  1  0
 53 59  1  0
 53 55  1  0
 54 60  1  0
 55 56  2  0
 55 54  1  0
 57 51  2  0
 58 57  1  0
 58 53  2  0
 59 52  1  0
 60 50  1  0
 62 64  2  0
 63 62  1  0
 65 63  1  0
 66 75  2  0
 66 71  1  0
 67 63  1  0
 67 71  1  0
 68 67  1  0
 69 70  1  0
 69 68  1  0
 70 66  1  0
 71 72  2  0
 72 73  1  0
 74 73  2  0
 75 74  1  0
 76 50  1  0
 76 81  1  0
 76 77  1  0
 77 80  1  1
 77 78  1  0
 79 77  1  0
 81 84  1  0
 82 86  1  0
 82 81  1  0
 83 82  2  0
 86 85  1  0
 88 89  1  0
 88 86  1  0
 88 87  1  0
M  ISO  4  10 100  18 100  48 101  49 101
M  END
>  <TORSDO>  (87) 
F 19

>  <SCORE>  (87) 
-15.549

>  <name>  (87) 
87

>  <ligand_id>  (87) 
87

>  <original_smiles>  (87) 
[H]c1nn(C([H])([H])C(F)(C([H])([H])[H])C([H])([H])Oc2c([H])c([H])c3c(c2[H])C([H])([H])N(C(=O)C([H])(N([H])C(=O)C([H])(N([H])C([H])([H])[H])C([H])([H])[H])C(C([H])([H])[H])(C([H])([H])[H])C([H])([H])[H])C([H])(C(=O)N([H])C2([H])c4c([H])c([H])c([H])c([H])c4C([H])([H])C([H])([H])C2([H])[H])C3([H])[H])c([H])c1N([H])C(=O)N1C([H])([H])C([H])([H])C([H])([H])C([H])(n2nc(-c3c([H])c([H])c(Oc4c([H])c([H])c(F)c([H])c4F)c([H])c3[H])c(C(=O)N([H])[H])c2N([H])[H])C1([H])[H]

>  <smiles>  (87) 
[H]c1nn(C([H])([H])C(F)(C([H])([H])[H])C([H])([H])Oc2c([H])c([H])c3c(c2[H])C([H])([H])N(C(=O)C([H])(N([H])C(=O)C([H])(N([H])C([H])([H])[H])C([H])([H])[H])C(C([H])([H])[H])(C([H])([H])[H])C([H])([H])[H])C([H])(C(=O)N([H])C2([H])c4c([H])c([H])c([H])c([H])c4C([H])([H])C([H])([H])C2([H])[H])C3([H])[H])c([H])c1N([H])C(=O)N1C([H])([H])C([H])([H])C([H])([H])C([H])(n2nc(-c3c([H])c([H])c(Oc4c([H])c([H])c(F)c([H])c4F)c([H])c3[H])c(C(=O)N([H])[H])c2N([H])[H])C1([H])[H]

$$$$
88:0:0
     RDKit          3D

 93101  0  0  1  0  0  0  0  0999 V2000
  -29.1260  -22.4040   20.5890 C   0  0  0  0  0  0  0  0  0  0  0  0
  -29.0560  -21.2090   19.8950 N   0  0  0  0  0  0  0  0  0  0  0  0
  -29.4870  -22.4110   21.7680 O   0  0  0  0  0  0  0  0  0  0  0  0
  -28.6100  -21.2910   18.9910 H   0  0  0  0  0  0  0  0  0  0  0  0
  -30.5610  -14.7730   20.3570 C   0  0  0  0  0  0  0  0  0  0  0  0
  -30.3860  -12.4950   19.3440 C   0  0  0  0  0  2  0  0  0  0  0  0
  -29.4440  -12.5750   18.1200 C   0  0  0  0  0  2  0  0  0  0  0  0
  -27.9730  -12.4000   18.5460 C   0  0  0  0  0  2  0  0  0  0  0  0
  -27.5980  -13.2850   19.7650 C   0  0  0  0  0  3  0  0  0  0  0  0
  -28.6570  -13.1800   20.8880 C   0  0  0  0  0  2  0  0  0  0  0  0
  -29.9580  -13.5360   20.3020 N   0  0  0  0  0  0  0  0  0  0  0  0
  -31.7510  -14.8930   20.0440 O   0  0  0  0  0  0  0  0  0  0  0  0
  -30.8010  -19.4600   20.4450 C   0  0  0  0  0  0  0  0  0  0  0  0
  -29.5070  -19.9130   20.2050 C   0  0  0  0  0  0  0  0  0  0  0  0
  -29.8470  -17.3240   20.4240 C   0  0  0  0  0  0  0  0  0  0  0  0
  -32.0220  -20.3280   20.5180 C   0  0  0  0  0  1  0  0  0  0  0  0
  -30.9740  -18.0450   20.5680 N   0  0  0  0  0  0  0  0  0  0  0  0
  -29.7180  -15.8550   20.5450 N   0  0  0  0  0  0  0  0  0  0  0  0
  -28.4740  -18.4550   20.1300 S   0  0  0  0  0  0  0  0  0  0  0  0
  -28.7690  -15.5570   20.6910 H   0  0  0  0  0  0  0  0  0  0  0  0
  -25.2070  -13.8840   20.4780 C   0  0  0  0  0  0  0  0  0  0  0  0
  -24.1400  -13.1110   20.8480 C   0  0  0  0  0  0  0  0  0  0  0  0
  -24.6020  -11.7600   20.8240 C   0  0  0  0  0  0  0  0  0  0  0  0
  -26.2520  -13.0010   20.2500 N   0  0  0  0  0  0  0  0  0  0  0  0
  -25.8940  -11.7200   20.5220 N   0  0  0  0  0  0  0  0  0  0  0  0
  -23.8740  -10.4990   21.0130 C   0  0  0  0  0  0  0  0  0  0  0  0
  -24.2920   -9.5390   21.9620 C   0  0  0  0  0  3  0  0  0  0  0  0
  -23.5640   -8.3430   22.1380 C   0  0  0  0  0  3  0  0  0  0  0  0
  -22.4040   -8.0980   21.3660 C   0  0  0  0  0  0  0  0  0  0  0  0
  -22.0060   -9.0450   20.4060 C   0  0  0  0  0  3  0  0  0  0  0  0
  -22.7350  -10.2330   20.2280 C   0  0  0  0  0  3  0  0  0  0  0  0
  -21.6490   -6.9520   21.4520 O   0  0  0  0  0  0  0  0  0  0  0  0
  -21.5740   -6.2250   22.6120 C   0  0  0  0  0  0  0  0  0  0  0  0
  -21.0990   -6.7910   23.8160 C   0  0  0  0  0  3  0  0  0  0  0  0
  -20.9730   -5.9900   24.9680 C   0  0  0  0  0  3  0  0  0  0  0  0
  -21.3090   -4.6230   24.9180 C   0  0  0  0  0  0  0  0  0  0  0  0
  -21.7760   -4.0570   23.7180 C   0  0  0  0  0  3  0  0  0  0  0  0
  -21.9050   -4.8560   22.5680 C   0  0  0  0  0  0  0  0  0  0  0  0
  -22.3350   -4.3000   21.4100 F   0  0  0  0  0  0  0  0  0  0  0  0
  -21.1800   -3.8520   26.0220 F   0  0  0  0  0  0  0  0  0  0  0  0
  -22.7410  -13.5900   21.1090 C   0  0  0  0  0  0  0  0  0  0  0  0
  -22.0040  -12.8890   21.9630 N   0  0  0  0  0  0  0  0  0  0  0  0
  -22.3110  -14.6200   20.5920 O   0  0  0  0  0  0  0  0  0  0  0  0
  -22.3650  -12.0560   22.4030 H   0  0  0  0  0  0  0  0  0  0  0  0
  -21.0640  -13.1900   22.1810 H   0  0  0  0  0  0  0  0  0  0  0  0
  -25.3720  -15.2520   20.2880 N   0  0  0  0  0  0  0  0  0  0  0  0
  -24.5920  -15.8970   20.3650 H   0  0  0  0  0  0  0  0  0  0  0  0
  -26.1900  -15.6760   19.8720 H   0  0  0  0  0  0  0  0  0  0  0  0
  -28.8160  -23.8140   19.8700 C   0  0  0  0  0  3  0  0  0  0  0  0
  -30.0400  -24.2390   19.2860 O   0  0  0  0  0  0  0  0  0  0  0  0
  -30.3240  -23.5450   18.7000 H   0  0  0  0  0  0  0  0  0  0  0  0
  -28.2900  -25.0820   20.7350 C   0  0  0  0  0  2  0  0  0  0  0  0
  -28.3630  -26.4830   20.2010 O   0  0  0  0  0  0  0  0  0  0  0  0
  -24.5760  -31.8810   23.2400 C   0  0  0  0  0  0  0  0  0  0  0  0
  -27.2290  -27.3170   20.2130 C   0  0  0  0  0  0  0  0  0  0  0  0
  -23.3910  -30.4790   21.5890 C   0  0  0  0  0  3  0  0  0  0  0  0
  -24.8590  -28.9270   20.1770 C   0  0  0  0  0  0  0  0  0  0  0  0
  -25.9290  -30.8060   21.4220 C   0  0  0  0  0  2  0  0  0  0  0  0
  -26.0220  -29.4240   20.7790 C   0  0  0  0  0  0  0  0  0  0  0  0
  -27.2130  -28.6330   20.7800 C   0  0  0  0  0  3  0  0  0  0  0  0
  -26.0430  -26.8710   19.5940 C   0  0  0  0  0  3  0  0  0  0  0  0
  -24.8720  -27.6580   19.5740 C   0  0  0  0  0  3  0  0  0  0  0  0
  -23.6180  -29.8000   20.2110 C   0  0  0  0  0  2  0  0  0  0  0  0
  -24.6510  -31.0740   22.1400 N   0  0  0  0  0  0  0  0  0  0  0  0
  -23.4870  -32.1550   23.7670 O   0  0  0  0  0  0  0  0  0  0  0  0
  -22.7220  -29.4610   22.5440 C   0  0  0  0  0  0  0  0  0  0  0  0
  -21.3970  -29.2830   22.4080 N   0  0  0  0  0  0  0  0  0  0  0  0
  -23.3960  -28.8350   23.3660 O   0  0  0  0  0  0  0  0  0  0  0  0
  -20.9150  -29.8390   21.7160 H   0  0  0  0  0  0  0  0  0  0  0  0
  -18.0160  -28.0940   22.8940 C   0  0  0  0  0  0  0  0  0  0  0  0
  -20.5750  -28.3420   23.1700 C   0  0  0  0  0  3  0  0  0  0  0  0
  -20.6710  -26.9160   22.5810 C   0  0  0  0  0  2  0  0  0  0  0  0
  -19.5690  -26.6050   21.5640 C   0  0  0  0  0  2  0  0  0  0  0  0
  -18.1860  -26.7500   22.2070 C   0  0  0  0  0  2  0  0  0  0  0  0
  -19.1360  -28.8490   23.3310 C   0  0  0  0  0  0  0  0  0  0  0  0
  -18.9210  -30.1070   23.9350 C   0  0  0  0  0  3  0  0  0  0  0  0
  -17.6180  -30.6110   24.1060 C   0  0  0  0  0  3  0  0  0  0  0  0
  -16.5110  -29.8530   23.6840 C   0  0  0  0  0  3  0  0  0  0  0  0
  -16.7110  -28.5970   23.0840 C   0  0  0  0  0  3  0  0  0  0  0  0
  -25.8520  -32.5160   23.8750 C   0  0  0  0  0  3  0  0  0  0  0  0
  -26.3450  -31.7580   25.1680 C   0  0  1  0  0  0  0  0  0  0  0  0
  -25.2330  -31.5370   26.2210 C   0  0  0  0  0  1  0  0  0  0  0  0
  -26.9300  -30.3750   24.7990 C   0  0  0  0  0  1  0  0  0  0  0  0
  -27.4880  -32.5560   25.8400 C   0  0  0  0  0  1  0  0  0  0  0  0
  -25.5430  -33.9190   24.1880 N   0  0  0  0  0  0  0  0  0  0  0  0
  -25.8920  -34.9650   23.4270 C   0  0  0  0  0  0  0  0  0  0  0  0
  -26.5780  -34.8500   22.4080 O   0  0  0  0  0  0  0  0  0  0  0  0
  -24.9360  -34.0830   24.9790 H   0  0  0  0  0  0  0  0  0  0  0  0
  -24.1860  -36.7680   23.0210 C   0  0  0  0  0  1  0  0  0  0  0  0
  -25.4040  -36.3590   23.8650 C   0  0  0  0  0  3  0  0  0  0  0  0
  -27.5220  -37.2350   24.7440 C   0  0  0  0  0  1  0  0  0  0  0  0
  -26.4470  -37.4050   23.7710 N   0  0  0  0  0  0  0  0  0  0  0  0
  -26.0440  -38.3290   23.9040 H   0  0  0  0  0  0  0  0  0  0  0  0
  1  3  2  0
  2 14  1  0
  2  1  1  0
  4  2  1  0
  5 18  1  0
  6 11  1  0
  7  8  1  0
  7  6  1  0
  9  8  1  0
  9 24  1  0
  9 10  1  0
 11  5  1  0
 11 10  1  0
 12  5  2  0
 13 16  1  0
 13 17  1  0
 14 13  2  0
 15 18  1  0
 15 17  2  0
 18 20  1  0
 19 14  1  0
 19 15  1  0
 21 22  2  0
 22 41  1  0
 23 22  1  0
 23 26  1  0
 24 21  1  0
 24 25  1  0
 25 23  2  0
 26 27  1  0
 27 28  2  0
 29 32  1  0
 29 28  1  0
 30 29  2  0
 31 30  1  0
 31 26  2  0
 32 33  1  0
 33 34  1  0
 34 35  2  0
 36 35  1  0
 36 40  1  0
 37 36  2  0
 38 33  2  0
 38 37  1  0
 39 38  1  0
 41 42  1  0
 42 45  1  0
 42 44  1  0
 43 41  2  0
 46 47  1  0
 46 21  1  0
 48 46  1  0
 49  1  1  0
 49 52  1  0
 50 49  1  0
 51 50  1  0
 53 55  1  0
 53 52  1  0
 54 65  2  0
 55 60  1  0
 56 64  1  0
 56 66  1  0
 57 63  1  0
 57 59  1  0
 58 64  1  0
 59 60  2  0
 59 58  1  0
 61 55  2  0
 62 61  1  0
 62 57  2  0
 63 56  1  0
 64 54  1  0
 66 68  2  0
 67 66  1  0
 69 67  1  0
 70 79  2  0
 70 75  1  0
 71 67  1  0
 71 75  1  0
 72 71  1  0
 73 74  1  0
 73 72  1  0
 74 70  1  0
 75 76  2  0
 76 77  1  0
 78 77  2  0
 79 78  1  0
 80 54  1  0
 80 85  1  0
 80 81  1  0
 81 84  1  1
 81 82  1  0
 83 81  1  0
 85 88  1  0
 86 90  1  0
 86 85  1  0
 87 86  2  0
 90 89  1  0
 92 90  1  0
 92 93  1  0
 92 91  1  0
M  ISO  4   5 100  18 100  52 101  53 101
M  END
>  <TORSDO>  (88) 
F 19

>  <SCORE>  (88) 
-14.570

>  <name>  (88) 
88

>  <ligand_id>  (88) 
88

>  <original_smiles>  (88) 
[H]OC([H])(C(=O)N([H])c1sc(N([H])C(=O)N2C([H])([H])C([H])([H])C([H])([H])C([H])(n3nc(-c4c([H])c([H])c(Oc5c([H])c([H])c(F)c([H])c5F)c([H])c4[H])c(C(=O)N([H])[H])c3N([H])[H])C2([H])[H])nc1C([H])([H])[H])C([H])([H])Oc1c([H])c([H])c2c(c1[H])C([H])([H])N(C(=O)C([H])(N([H])C(=O)C([H])(N([H])C([H])([H])[H])C([H])([H])[H])C(C([H])([H])[H])(C([H])([H])[H])C([H])([H])[H])C([H])(C(=O)N([H])C1([H])c3c([H])c([H])c([H])c([H])c3C([H])([H])C([H])([H])C1([H])[H])C2([H])[H]

>  <smiles>  (88) 
[H]OC([H])(C(=O)N([H])c1sc(N([H])C(=O)N2C([H])([H])C([H])([H])C([H])([H])C([H])(n3nc(-c4c([H])c([H])c(Oc5c([H])c([H])c(F)c([H])c5F)c([H])c4[H])c(C(=O)N([H])[H])c3N([H])[H])C2([H])[H])nc1C([H])([H])[H])C([H])([H])Oc1c([H])c([H])c2c(c1[H])C([H])([H])N(C(=O)C([H])(N([H])C(=O)C([H])(N([H])C([H])([H])[H])C([H])([H])[H])C(C([H])([H])[H])(C([H])([H])[H])C([H])([H])[H])C([H])(C(=O)N([H])C1([H])c3c([H])c([H])c([H])c([H])c3C([H])([H])C([H])([H])C1([H])[H])C2([H])[H]

$$$$
89:0:0
     RDKit          3D

 95103  0  0  1  0  0  0  0  0999 V2000
  -29.8570  -20.0800   22.0500 C   0  0  0  0  0  3  0  0  0  0  0  0
  -30.2560  -18.7730   21.6820 C   0  0  0  0  0  0  0  0  0  0  0  0
  -30.0550  -18.4130   20.3310 C   0  0  0  0  0  0  0  0  0  0  0  0
  -29.1730  -20.5520   19.9310 C   0  0  0  0  0  0  0  0  0  0  0  0
  -28.2030  -22.6840   18.8150 C   0  0  0  0  0  0  0  0  0  0  0  0
  -29.3300  -20.9660   21.1780 N   0  0  0  0  0  0  0  0  0  0  0  0
  -29.4960  -19.3230   19.4870 N   0  0  0  0  0  0  0  0  0  0  0  0
  -28.5970  -21.3840   18.9840 N   0  0  0  0  0  0  0  0  0  0  0  0
  -27.6100  -22.9310   17.7620 O   0  0  0  0  0  0  0  0  0  0  0  0
  -28.3840  -20.8560   18.1550 H   0  0  0  0  0  0  0  0  0  0  0  0
  -30.8580  -17.9170   22.6130 N   0  0  0  0  0  0  0  0  0  0  0  0
  -31.1840  -18.2700   23.5110 H   0  0  0  0  0  0  0  0  0  0  0  0
  -31.3000  -17.0500   22.3170 H   0  0  0  0  0  0  0  0  0  0  0  0
  -30.6050  -17.0970   19.7030 C   0  0  0  0  0  2  0  0  0  0  0  0
  -30.9420  -14.6250   19.9770 C   0  0  0  0  0  0  0  0  0  0  0  0
  -30.5870  -12.4190   18.9310 C   0  0  0  0  0  2  0  0  0  0  0  0
  -29.5860  -12.5970   17.7710 C   0  0  0  0  0  2  0  0  0  0  0  0
  -28.1410  -12.4600   18.2870 C   0  0  0  0  0  2  0  0  0  0  0  0
  -27.8670  -13.3190   19.5500 C   0  0  0  0  0  3  0  0  0  0  0  0
  -28.9840  -13.1490   20.6050 C   0  0  0  0  0  2  0  0  0  0  0  0
  -30.2660  -13.4380   19.9490 N   0  0  0  0  0  0  0  0  0  0  0  0
  -32.0900  -14.7180   19.5360 O   0  0  0  0  0  0  0  0  0  0  0  0
  -30.2250  -15.7520   20.2380 N   0  0  0  0  0  0  0  0  0  0  0  0
  -29.2950  -15.6600   20.6140 H   0  0  0  0  0  0  0  0  0  0  0  0
  -25.5410  -13.9400   20.4490 C   0  0  0  0  0  0  0  0  0  0  0  0
  -24.4830  -13.1750   20.8570 C   0  0  0  0  0  0  0  0  0  0  0  0
  -24.9110  -11.8160   20.7460 C   0  0  0  0  0  0  0  0  0  0  0  0
  -26.5460  -13.0470   20.1110 N   0  0  0  0  0  0  0  0  0  0  0  0
  -26.1770  -11.7630   20.3520 N   0  0  0  0  0  0  0  0  0  0  0  0
  -24.1710  -10.5620   20.9330 C   0  0  0  0  0  0  0  0  0  0  0  0
  -24.5640   -9.6080   21.8980 C   0  0  0  0  0  3  0  0  0  0  0  0
  -23.8250   -8.4180   22.0730 C   0  0  0  0  0  3  0  0  0  0  0  0
  -22.6760   -8.1740   21.2820 C   0  0  0  0  0  0  0  0  0  0  0  0
  -22.3030   -9.1160   20.3070 C   0  0  0  0  0  3  0  0  0  0  0  0
  -23.0440  -10.2970   20.1300 C   0  0  0  0  0  3  0  0  0  0  0  0
  -21.9110   -7.0350   21.3640 O   0  0  0  0  0  0  0  0  0  0  0  0
  -21.7150   -6.3850   22.5570 C   0  0  0  0  0  0  0  0  0  0  0  0
  -21.0630   -7.0050   23.6470 C   0  0  0  0  0  3  0  0  0  0  0  0
  -20.8200   -6.2770   24.8280 C   0  0  0  0  0  3  0  0  0  0  0  0
  -21.2180   -4.9290   24.9200 C   0  0  0  0  0  0  0  0  0  0  0  0
  -21.8610   -4.3080   23.8350 C   0  0  0  0  0  3  0  0  0  0  0  0
  -22.1060   -5.0350   22.6560 C   0  0  0  0  0  0  0  0  0  0  0  0
  -22.7070   -4.4270   21.6050 F   0  0  0  0  0  0  0  0  0  0  0  0
  -20.9780   -4.2260   26.0520 F   0  0  0  0  0  0  0  0  0  0  0  0
  -23.1160  -13.6680   21.2360 C   0  0  0  0  0  0  0  0  0  0  0  0
  -22.4330  -12.9610   22.1300 N   0  0  0  0  0  0  0  0  0  0  0  0
  -22.6630  -14.7140   20.7730 O   0  0  0  0  0  0  0  0  0  0  0  0
  -22.8140  -12.1170   22.5320 H   0  0  0  0  0  0  0  0  0  0  0  0
  -21.5170  -13.2720   22.4210 H   0  0  0  0  0  0  0  0  0  0  0  0
  -25.7270  -15.3120   20.3120 N   0  0  0  0  0  0  0  0  0  0  0  0
  -24.9830  -15.9770   20.4950 H   0  0  0  0  0  0  0  0  0  0  0  0
  -26.5570  -15.7460   19.9290 H   0  0  0  0  0  0  0  0  0  0  0  0
  -28.4100  -23.8940   19.7960 C   0  0  0  0  0  2  0  0  0  0  0  0
  -28.4580  -25.3080   19.0580 C   0  0  0  0  0  2  0  0  0  0  0  0
  -28.3390  -26.5540   19.8160 O   0  0  0  0  0  0  0  0  0  0  0  0
  -24.5520  -31.7190   23.0480 C   0  0  0  0  0  0  0  0  0  0  0  0
  -27.1650  -27.3090   19.8150 C   0  0  0  0  0  0  0  0  0  0  0  0
  -23.3270  -30.3370   21.4080 C   0  0  0  0  0  3  0  0  0  0  0  0
  -24.7630  -28.8420   19.9160 C   0  0  0  0  0  0  0  0  0  0  0  0
  -25.8500  -30.7130   21.1640 C   0  0  0  0  0  2  0  0  0  0  0  0
  -25.9350  -29.3510   20.4880 C   0  0  0  0  0  0  0  0  0  0  0  0
  -27.1350  -28.5920   20.4350 C   0  0  0  0  0  3  0  0  0  0  0  0
  -25.9620  -26.8280   19.2480 C   0  0  0  0  0  3  0  0  0  0  0  0
  -24.7750  -27.5840   19.2950 C   0  0  0  0  0  3  0  0  0  0  0  0
  -23.5150  -29.6920   20.0090 C   0  0  0  0  0  2  0  0  0  0  0  0
  -24.5960  -30.9390   21.9310 N   0  0  0  0  0  0  0  0  0  0  0  0
  -23.4790  -31.9700   23.6160 O   0  0  0  0  0  0  0  0  0  0  0  0
  -22.7080  -29.2880   22.3600 C   0  0  0  0  0  0  0  0  0  0  0  0
  -21.3870  -29.0740   22.2420 N   0  0  0  0  0  0  0  0  0  0  0  0
  -23.4140  -28.6720   23.1620 O   0  0  0  0  0  0  0  0  0  0  0  0
  -20.8760  -29.6260   21.5680 H   0  0  0  0  0  0  0  0  0  0  0  0
  -18.0540  -27.7720   22.7500 C   0  0  0  0  0  0  0  0  0  0  0  0
  -20.6040  -28.1030   23.0090 C   0  0  0  0  0  3  0  0  0  0  0  0
  -20.7450  -26.6820   22.4180 C   0  0  0  0  0  2  0  0  0  0  0  0
  -19.6470  -26.3360   21.4080 C   0  0  0  0  0  2  0  0  0  0  0  0
  -18.2650  -26.4340   22.0610 C   0  0  0  0  0  2  0  0  0  0  0  0
  -19.1520  -28.5630   23.1810 C   0  0  0  0  0  0  0  0  0  0  0  0
  -18.9000  -29.8130   23.7860 C   0  0  0  0  0  3  0  0  0  0  0  0
  -17.5830  -30.2770   23.9630 C   0  0  0  0  0  3  0  0  0  0  0  0
  -16.4990  -29.4830   23.5480 C   0  0  0  0  0  3  0  0  0  0  0  0
  -16.7340  -28.2330   22.9480 C   0  0  0  0  0  3  0  0  0  0  0  0
  -25.8430  -32.3580   23.6500 C   0  0  0  0  0  3  0  0  0  0  0  0
  -26.4230  -31.5490   24.8750 C   0  0  1  0  0  0  0  0  0  0  0  0
  -25.3710  -31.2340   25.9650 C   0  0  0  0  0  1  0  0  0  0  0  0
  -27.0320  -30.2060   24.4040 C   0  0  0  0  0  1  0  0  0  0  0  0
  -27.5720  -32.3490   25.5350 C   0  0  0  0  0  1  0  0  0  0  0  0
  -25.5160  -33.7340   24.0450 N   0  0  0  0  0  0  0  0  0  0  0  0
  -25.8090  -34.8230   23.3220 C   0  0  0  0  0  0  0  0  0  0  0  0
  -26.4560  -34.7770   22.2710 O   0  0  0  0  0  0  0  0  0  0  0  0
  -24.9400  -33.8460   24.8670 H   0  0  0  0  0  0  0  0  0  0  0  0
  -24.0530  -36.6040   23.0640 C   0  0  0  0  0  1  0  0  0  0  0  0
  -25.3060  -36.1810   23.8480 C   0  0  0  0  0  3  0  0  0  0  0  0
  -27.4220  -37.0660   24.7230 C   0  0  0  0  0  1  0  0  0  0  0  0
  -26.3230  -37.2530   23.7800 N   0  0  0  0  0  0  0  0  0  0  0  0
  -25.9020  -38.1600   23.9620 H   0  0  0  0  0  0  0  0  0  0  0  0
  2  1  2  0
  2 11  1  0
  3  2  1  0
  4  6  2  0
  5  8  1  0
  5 53  1  0
  6  1  1  0
  7  4  1  0
  7  3  2  0
  8  4  1  0
  9  5  2  0
 10  8  1  0
 11 12  1  0
 13 11  1  0
 14 23  1  0
 14  3  1  0
 15 23  1  0
 16 21  1  0
 17 18  1  0
 17 16  1  0
 19 18  1  0
 19 28  1  0
 19 20  1  0
 21 15  1  0
 21 20  1  0
 22 15  2  0
 23 24  1  0
 25 26  2  0
 26 45  1  0
 27 26  1  0
 27 30  1  0
 28 29  1  0
 28 25  1  0
 29 27  2  0
 30 31  1  0
 31 32  2  0
 33 36  1  0
 33 32  1  0
 34 33  2  0
 35 34  1  0
 35 30  2  0
 36 37  1  0
 37 42  2  0
 37 38  1  0
 38 39  2  0
 39 40  1  0
 40 44  1  0
 41 40  2  0
 42 41  1  0
 43 42  1  0
 45 46  1  0
 46 49  1  0
 46 48  1  0
 47 45  2  0
 50 25  1  0
 50 51  1  0
 52 50  1  0
 54 53  1  0
 54 55  1  0
 56 67  2  0
 57 55  1  0
 57 62  1  0
 58 66  1  0
 58 68  1  0
 59 65  1  0
 59 61  1  0
 60 66  1  0
 61 60  1  0
 62 61  2  0
 63 64  1  0
 63 57  2  0
 64 59  2  0
 65 58  1  0
 66 56  1  0
 68 70  2  0
 69 68  1  0
 71 69  1  0
 72 81  2  0
 72 77  1  0
 73 69  1  0
 73 77  1  0
 74 73  1  0
 75 76  1  0
 75 74  1  0
 76 72  1  0
 77 78  2  0
 78 79  1  0
 80 79  2  0
 81 80  1  0
 82 56  1  0
 82 87  1  0
 82 83  1  0
 83 86  1  1
 83 84  1  0
 85 83  1  0
 87 90  1  0
 88 92  1  0
 88 87  1  0
 89 88  2  0
 92 91  1  0
 94 92  1  0
 94 95  1  0
 94 93  1  0
M  ISO  4  15 100  23 100  54 101  55 101
M  END
>  <TORSDO>  (89) 
F 20

>  <SCORE>  (89) 
-13.185

>  <name>  (89) 
89

>  <ligand_id>  (89) 
89

>  <original_smiles>  (89) 
[H]c1nc(N([H])C(=O)C([H])([H])C([H])([H])Oc2c([H])c([H])c3c(c2[H])C([H])([H])N(C(=O)C([H])(N([H])C(=O)C([H])(N([H])C([H])([H])[H])C([H])([H])[H])C(C([H])([H])[H])(C([H])([H])[H])C([H])([H])[H])C([H])(C(=O)N([H])C2([H])c4c([H])c([H])c([H])c([H])c4C([H])([H])C([H])([H])C2([H])[H])C3([H])[H])nc(C([H])([H])N([H])C(=O)N2C([H])([H])C([H])([H])C([H])([H])C([H])(n3nc(-c4c([H])c([H])c(Oc5c([H])c([H])c(F)c([H])c5F)c([H])c4[H])c(C(=O)N([H])[H])c3N([H])[H])C2([H])[H])c1N([H])[H]

>  <smiles>  (89) 
[H]c1nc(N([H])C(=O)C([H])([H])C([H])([H])Oc2c([H])c([H])c3c(c2[H])C([H])([H])N(C(=O)C([H])(N([H])C(=O)C([H])(N([H])C([H])([H])[H])C([H])([H])[H])C(C([H])([H])[H])(C([H])([H])[H])C([H])([H])[H])C([H])(C(=O)N([H])C2([H])c4c([H])c([H])c([H])c([H])c4C([H])([H])C([H])([H])C2([H])[H])C3([H])[H])nc(C([H])([H])N([H])C(=O)N2C([H])([H])C([H])([H])C([H])([H])C([H])(n3nc(-c4c([H])c([H])c(Oc5c([H])c([H])c(F)c([H])c5F)c([H])c4[H])c(C(=O)N([H])[H])c3N([H])[H])C2([H])[H])c1N([H])[H]

$$$$
90:0:0
     RDKit          3D

 93101  0  0  1  0  0  0  0  0999 V2000
  -28.2450  -17.7860   20.3650 C   0  0  0  0  0  3  0  0  0  0  0  0
  -29.5850  -18.0670   20.2180 C   0  0  0  0  0  0  0  0  0  0  0  0
  -28.6640  -20.1610   19.8130 C   0  0  0  0  0  0  0  0  0  0  0  0
  -29.8010  -19.4510   19.9450 N   0  0  0  0  0  0  0  0  0  0  0  0
  -28.5090  -21.5310   19.5180 N   0  0  0  0  0  0  0  0  0  0  0  0
  -27.2310  -19.1780   20.0790 S   0  0  0  0  0  0  0  0  0  0  0  0
  -27.5250  -21.7100   19.3420 H   0  0  0  0  0  0  0  0  0  0  0  0
  -31.0940  -14.6240   20.4390 C   0  0  0  0  0  0  0  0  0  0  0  0
  -30.8820  -12.2790   19.6760 C   0  0  0  0  0  2  0  0  0  0  0  0
  -30.0120  -12.2450   18.4010 C   0  0  0  0  0  2  0  0  0  0  0  0
  -28.5240  -12.1240   18.7770 C   0  0  0  0  0  2  0  0  0  0  0  0
  -28.0930  -13.1540   19.8550 C   0  0  0  0  0  3  0  0  0  0  0  0
  -29.0900  -13.1860   21.0350 C   0  0  0  0  0  2  0  0  0  0  0  0
  -30.4320  -13.4280   20.4860 N   0  0  0  0  0  0  0  0  0  0  0  0
  -32.2830  -14.6660   20.1150 O   0  0  0  0  0  0  0  0  0  0  0  0
  -30.7000  -17.0410   20.3420 C   0  0  0  0  0  0  0  0  0  0  0  0
  -30.3280  -15.7440   20.5480 N   0  0  0  0  0  0  0  0  0  0  0  0
  -31.8750  -17.4140   20.2110 O   0  0  0  0  0  0  0  0  0  0  0  0
  -29.3500  -15.6010   20.7170 H   0  0  0  0  0  0  0  0  0  0  0  0
  -25.6980  -13.8290   20.4960 C   0  0  0  0  0  0  0  0  0  0  0  0
  -24.5990  -13.0900   20.8420 C   0  0  0  0  0  0  0  0  0  0  0  0
  -25.0270  -11.7280   20.8460 C   0  0  0  0  0  0  0  0  0  0  0  0
  -26.7230  -12.9180   20.3030 N   0  0  0  0  0  0  0  0  0  0  0  0
  -26.3240  -11.6490   20.5770 N   0  0  0  0  0  0  0  0  0  0  0  0
  -24.2660  -10.4850   21.0320 C   0  0  0  0  0  0  0  0  0  0  0  0
  -24.6490   -9.5220   21.9910 C   0  0  0  0  0  3  0  0  0  0  0  0
  -23.8890   -8.3450   22.1670 C   0  0  0  0  0  3  0  0  0  0  0  0
  -22.7350   -8.1210   21.3790 C   0  0  0  0  0  0  0  0  0  0  0  0
  -22.3690   -9.0730   20.4120 C   0  0  0  0  0  3  0  0  0  0  0  0
  -23.1290  -10.2430   20.2350 C   0  0  0  0  0  3  0  0  0  0  0  0
  -21.9510   -6.9950   21.4590 O   0  0  0  0  0  0  0  0  0  0  0  0
  -21.8540   -6.2690   22.6180 C   0  0  0  0  0  0  0  0  0  0  0  0
  -21.3420   -6.8300   23.8070 C   0  0  0  0  0  3  0  0  0  0  0  0
  -21.1940   -6.0280   24.9570 C   0  0  0  0  0  3  0  0  0  0  0  0
  -21.5460   -4.6660   24.9170 C   0  0  0  0  0  0  0  0  0  0  0  0
  -22.0540   -4.1060   23.7310 C   0  0  0  0  0  3  0  0  0  0  0  0
  -22.2030   -4.9040   22.5840 C   0  0  0  0  0  0  0  0  0  0  0  0
  -22.6710   -4.3530   21.4370 F   0  0  0  0  0  0  0  0  0  0  0  0
  -21.3990   -3.8930   26.0170 F   0  0  0  0  0  0  0  0  0  0  0  0
  -23.2060  -13.6050   21.0610 C   0  0  0  0  0  0  0  0  0  0  0  0
  -22.4340  -12.9370   21.9110 N   0  0  0  0  0  0  0  0  0  0  0  0
  -22.8090  -14.6320   20.5100 O   0  0  0  0  0  0  0  0  0  0  0  0
  -22.7710  -12.1080   22.3750 H   0  0  0  0  0  0  0  0  0  0  0  0
  -21.4940  -13.2580   22.1020 H   0  0  0  0  0  0  0  0  0  0  0  0
  -25.9120  -15.1910   20.3080 N   0  0  0  0  0  0  0  0  0  0  0  0
  -25.1820  -15.8800   20.4430 H   0  0  0  0  0  0  0  0  0  0  0  0
  -26.7470  -15.5790   19.8930 H   0  0  0  0  0  0  0  0  0  0  0  0
  -30.5350  -22.8260   18.8930 C   0  0  0  0  0  1  0  0  0  0  0  0
  -29.2320  -22.8050   19.7030 C   0  0  0  0  0  3  0  0  0  0  0  0
  -28.3570  -24.0830   19.3800 C   0  0  0  0  0  2  0  0  0  0  0  0
  -27.7530  -25.2430   21.5940 C   0  0  0  0  0  1  0  0  0  0  0  0
  -28.5940  -25.3290   20.3030 C   0  0  0  0  0  3  0  0  0  0  0  0
  -28.5240  -26.6470   19.6740 O   0  0  0  0  0  0  0  0  0  0  0  0
  -24.6060  -31.5880   23.0300 C   0  0  0  0  0  0  0  0  0  0  0  0
  -27.3450  -27.3720   19.7060 C   0  0  0  0  0  0  0  0  0  0  0  0
  -23.4370  -30.2810   21.2830 C   0  0  0  0  0  3  0  0  0  0  0  0
  -24.9300  -28.8610   19.7740 C   0  0  0  0  0  0  0  0  0  0  0  0
  -25.9580  -30.6890   21.1340 C   0  0  0  0  0  2  0  0  0  0  0  0
  -26.0740  -29.3620   20.4070 C   0  0  0  0  0  0  0  0  0  0  0  0
  -27.2860  -28.6290   20.3620 C   0  0  0  0  0  3  0  0  0  0  0  0
  -26.1850  -26.8920   19.0640 C   0  0  0  0  0  3  0  0  0  0  0  0
  -24.9840  -27.6290   19.0970 C   0  0  0  0  0  3  0  0  0  0  0  0
  -23.6700  -29.6960   19.8640 C   0  0  0  0  0  2  0  0  0  0  0  0
  -24.6850  -30.8650   21.8750 N   0  0  0  0  0  0  0  0  0  0  0  0
  -23.5150  -31.8010   23.5790 O   0  0  0  0  0  0  0  0  0  0  0  0
  -22.7960  -29.1880   22.1680 C   0  0  0  0  0  0  0  0  0  0  0  0
  -21.4640  -29.0370   22.0690 N   0  0  0  0  0  0  0  0  0  0  0  0
  -23.4910  -28.4780   22.9000 O   0  0  0  0  0  0  0  0  0  0  0  0
  -20.9620  -29.6680   21.4600 H   0  0  0  0  0  0  0  0  0  0  0  0
  -18.0810  -27.8950   22.6130 C   0  0  0  0  0  0  0  0  0  0  0  0
  -20.6560  -28.0410   22.7730 C   0  0  0  0  0  3  0  0  0  0  0  0
  -20.6770  -26.6820   22.0340 C   0  0  0  0  0  2  0  0  0  0  0  0
  -19.5160  -26.5120   21.0500 C   0  0  0  0  0  2  0  0  0  0  0  0
  -18.1740  -26.6260   21.7810 C   0  0  0  0  0  2  0  0  0  0  0  0
  -19.2480  -28.5680   23.0650 C   0  0  0  0  0  0  0  0  0  0  0  0
  -19.1050  -29.7620   23.8030 C   0  0  0  0  0  3  0  0  0  0  0  0
  -17.8300  -30.2840   24.0940 C   0  0  0  0  0  3  0  0  0  0  0  0
  -16.6790  -29.6040   23.6590 C   0  0  0  0  0  3  0  0  0  0  0  0
  -16.8050  -28.4110   22.9260 C   0  0  0  0  0  3  0  0  0  0  0  0
  -25.8740  -32.1990   23.7040 C   0  0  0  0  0  3  0  0  0  0  0  0
  -26.3640  -31.3830   24.9630 C   0  0  1  0  0  0  0  0  0  0  0  0
  -25.2540  -31.1190   26.0080 C   0  0  0  0  0  1  0  0  0  0  0  0
  -26.9400  -30.0130   24.5330 C   0  0  0  0  0  1  0  0  0  0  0  0
  -27.5080  -32.1460   25.6700 C   0  0  0  0  0  1  0  0  0  0  0  0
  -25.5570  -33.5840   24.0770 N   0  0  0  0  0  0  0  0  0  0  0  0
  -25.9040  -34.6640   23.3640 C   0  0  0  0  0  0  0  0  0  0  0  0
  -26.5960  -34.5970   22.3440 O   0  0  0  0  0  0  0  0  0  0  0  0
  -24.9490  -33.7100   24.8740 H   0  0  0  0  0  0  0  0  0  0  0  0
  -24.1800  -36.4680   23.0330 C   0  0  0  0  0  1  0  0  0  0  0  0
  -25.4020  -36.0350   23.8590 C   0  0  0  0  0  3  0  0  0  0  0  0
  -27.5040  -36.9020   24.7880 C   0  0  0  0  0  1  0  0  0  0  0  0
  -26.4330  -37.0950   23.8130 N   0  0  0  0  0  0  0  0  0  0  0  0
  -26.0170  -38.0070   23.9760 H   0  0  0  0  0  0  0  0  0  0  0  0
  2 16  1  0
  2  1  2  0
  3  4  2  0
  3  6  1  0
  4  2  1  0
  5 49  1  0
  5  3  1  0
  6  1  1  0
  7  5  1  0
  8 14  1  0
  8 17  1  0
  9 14  1  0
 10 11  1  0
 10  9  1  0
 12 11  1  0
 12 23  1  0
 12 13  1  0
 14 13  1  0
 15  8  2  0
 16 17  1  0
 17 19  1  0
 18 16  2  0
 20 21  2  0
 21 22  1  0
 21 40  1  0
 22 25  1  0
 23 20  1  0
 23 24  1  0
 24 22  2  0
 25 26  1  0
 26 27  2  0
 28 31  1  0
 28 27  1  0
 29 28  2  0
 30 29  1  0
 30 25  2  0
 31 32  1  0
 32 33  1  0
 33 34  2  0
 35 34  1  0
 35 39  1  0
 36 35  2  0
 37 32  2  0
 37 36  1  0
 38 37  1  0
 40 41  1  0
 41 44  1  0
 41 43  1  0
 42 40  2  0
 45 46  1  0
 45 20  1  0
 47 45  1  0
 49 48  1  0
 50 49  1  0
 50 52  1  0
 52 51  1  0
 53 55  1  0
 53 52  1  0
 54 65  2  0
 55 60  1  0
 56 64  1  0
 56 66  1  0
 57 63  1  0
 57 59  1  0
 58 64  1  0
 59 58  1  0
 60 59  2  0
 61 62  1  0
 61 55  2  0
 62 57  2  0
 63 56  1  0
 64 54  1  0
 66 68  2  0
 67 66  1  0
 69 67  1  0
 70 79  2  0
 70 75  1  0
 71 67  1  0
 71 75  1  0
 72 71  1  0
 73 74  1  0
 73 72  1  0
 74 70  1  0
 75 76  2  0
 76 77  1  0
 78 77  2  0
 79 78  1  0
 80 54  1  0
 80 85  1  0
 80 81  1  0
 81 84  1  1
 81 82  1  0
 83 81  1  0
 85 88  1  0
 86 90  1  0
 86 85  1  0
 87 86  2  0
 90 89  1  0
 92 90  1  0
 92 93  1  0
 92 91  1  0
M  ISO  4   8 100  17 100  52 101  53 101
M  END
>  <TORSDO>  (90) 
F 19

>  <SCORE>  (90) 
-13.237

>  <name>  (90) 
90

>  <ligand_id>  (90) 
90

>  <original_smiles>  (90) 
[H]c1sc(N([H])C([H])(C([H])([H])[H])C([H])([H])C([H])(Oc2c([H])c([H])c3c(c2[H])C([H])([H])N(C(=O)C([H])(N([H])C(=O)C([H])(N([H])C([H])([H])[H])C([H])([H])[H])C(C([H])([H])[H])(C([H])([H])[H])C([H])([H])[H])C([H])(C(=O)N([H])C2([H])c4c([H])c([H])c([H])c([H])c4C([H])([H])C([H])([H])C2([H])[H])C3([H])[H])C([H])([H])[H])nc1C(=O)N([H])C(=O)N1C([H])([H])C([H])([H])C([H])([H])C([H])(n2nc(-c3c([H])c([H])c(Oc4c([H])c([H])c(F)c([H])c4F)c([H])c3[H])c(C(=O)N([H])[H])c2N([H])[H])C1([H])[H]

>  <smiles>  (90) 
[H]c1sc(N([H])C([H])(C([H])([H])[H])C([H])([H])C([H])(Oc2c([H])c([H])c3c(c2[H])C([H])([H])N(C(=O)C([H])(N([H])C(=O)C([H])(N([H])C([H])([H])[H])C([H])([H])[H])C(C([H])([H])[H])(C([H])([H])[H])C([H])([H])[H])C([H])(C(=O)N([H])C2([H])c4c([H])c([H])c([H])c([H])c4C([H])([H])C([H])([H])C2([H])[H])C3([H])[H])C([H])([H])[H])nc1C(=O)N([H])C(=O)N1C([H])([H])C([H])([H])C([H])([H])C([H])(n2nc(-c3c([H])c([H])c(Oc4c([H])c([H])c(F)c([H])c4F)c([H])c3[H])c(C(=O)N([H])[H])c2N([H])[H])C1([H])[H]

$$$$
91:0:0
     RDKit          3D

 96104  0  0  1  0  0  0  0  0999 V2000
  -29.6120  -21.7720   20.5710 C   0  0  0  0  0  0  0  0  0  0  0  0
  -29.5280  -20.6540   21.3230 N   0  0  0  0  0  0  0  0  0  0  0  0
  -30.2700  -21.8330   19.5270 O   0  0  0  0  0  0  0  0  0  0  0  0
  -28.8970  -20.7440   22.1100 H   0  0  0  0  0  0  0  0  0  0  0  0
  -30.7780  -14.5640   20.1410 C   0  0  0  0  0  0  0  0  0  0  0  0
  -30.4430  -12.4330   18.9300 C   0  0  0  0  0  2  0  0  0  0  0  0
  -29.4340  -12.6590   17.7850 C   0  0  0  0  0  2  0  0  0  0  0  0
  -27.9850  -12.4960   18.2890 C   0  0  0  0  0  2  0  0  0  0  0  0
  -27.7130  -13.2970   19.5910 C   0  0  0  0  0  3  0  0  0  0  0  0
  -28.8250  -13.0400   20.6330 C   0  0  0  0  0  2  0  0  0  0  0  0
  -30.1190  -13.3770   20.0100 N   0  0  0  0  0  0  0  0  0  0  0  0
  -31.8660  -14.7770   19.5920 O   0  0  0  0  0  0  0  0  0  0  0  0
  -31.3010  -18.9720   20.8060 C   0  0  0  0  0  0  0  0  0  0  0  0
  -30.0100  -19.4020   21.0700 C   0  0  0  0  0  0  0  0  0  0  0  0
  -30.2600  -16.9290   20.8460 C   0  0  0  0  0  0  0  0  0  0  0  0
  -31.4170  -17.5740   20.6650 N   0  0  0  0  0  0  0  0  0  0  0  0
  -30.0920  -15.5110   20.8110 N   0  0  0  0  0  0  0  0  0  0  0  0
  -28.9350  -18.0220   21.2220 S   0  0  0  0  0  0  0  0  0  0  0  0
  -29.2150  -15.1810   21.1860 H   0  0  0  0  0  0  0  0  0  0  0  0
  -25.3530  -13.8770   20.4420 C   0  0  0  0  0  0  0  0  0  0  0  0
  -24.3080  -13.0910   20.8480 C   0  0  0  0  0  0  0  0  0  0  0  0
  -24.7700  -11.7430   20.7550 C   0  0  0  0  0  0  0  0  0  0  0  0
  -26.3870  -13.0060   20.1320 N   0  0  0  0  0  0  0  0  0  0  0  0
  -26.0410  -11.7170   20.3750 N   0  0  0  0  0  0  0  0  0  0  0  0
  -24.0580  -10.4730   20.9490 C   0  0  0  0  0  0  0  0  0  0  0  0
  -24.5050   -9.5120   21.8810 C   0  0  0  0  0  3  0  0  0  0  0  0
  -23.7960   -8.3050   22.0610 C   0  0  0  0  0  3  0  0  0  0  0  0
  -22.6230   -8.0530   21.3100 C   0  0  0  0  0  0  0  0  0  0  0  0
  -22.1950   -9.0050   20.3660 C   0  0  0  0  0  3  0  0  0  0  0  0
  -22.9060  -10.2020   20.1850 C   0  0  0  0  0  3  0  0  0  0  0  0
  -21.8820   -6.9000   21.4010 O   0  0  0  0  0  0  0  0  0  0  0  0
  -21.7910   -6.1930   22.5730 C   0  0  0  0  0  0  0  0  0  0  0  0
  -21.2810   -6.7720   23.7550 C   0  0  0  0  0  3  0  0  0  0  0  0
  -21.1400   -5.9900   24.9190 C   0  0  0  0  0  3  0  0  0  0  0  0
  -21.4990   -4.6290   24.9000 C   0  0  0  0  0  0  0  0  0  0  0  0
  -22.0020   -4.0490   23.7230 C   0  0  0  0  0  3  0  0  0  0  0  0
  -22.1450   -4.8290   22.5620 C   0  0  0  0  0  0  0  0  0  0  0  0
  -22.6100   -4.2600   21.4240 F   0  0  0  0  0  0  0  0  0  0  0  0
  -21.3560   -3.8760   26.0150 F   0  0  0  0  0  0  0  0  0  0  0  0
  -22.9260  -13.5550   21.2090 C   0  0  0  0  0  0  0  0  0  0  0  0
  -22.2470  -12.8320   22.0920 N   0  0  0  0  0  0  0  0  0  0  0  0
  -22.4580  -14.5950   20.7450 O   0  0  0  0  0  0  0  0  0  0  0  0
  -22.6390  -11.9930   22.4920 H   0  0  0  0  0  0  0  0  0  0  0  0
  -21.3200  -13.1210   22.3720 H   0  0  0  0  0  0  0  0  0  0  0  0
  -25.5040  -15.2530   20.2930 N   0  0  0  0  0  0  0  0  0  0  0  0
  -24.7350  -15.8960   20.4470 H   0  0  0  0  0  0  0  0  0  0  0  0
  -26.3220  -15.7030   19.9030 H   0  0  0  0  0  0  0  0  0  0  0  0
  -33.3320  -19.5910   19.4360 C   0  0  0  0  0  1  0  0  0  0  0  0
  -33.4490  -19.5550   21.9790 C   0  0  0  0  0  1  0  0  0  0  0  0
  -32.5610  -19.8020   20.7480 C   0  0  0  0  0  3  0  0  0  0  0  0
  -28.8120  -22.9970   21.0830 C   0  0  0  0  0  3  0  0  0  0  0  0
  -28.8040  -22.9580   22.4190 F   0  0  0  0  0  0  0  0  0  0  0  0
  -29.2780  -24.4030   20.5840 C   0  0  0  0  0  2  0  0  0  0  0  0
  -28.7110  -26.0610   22.4830 C   0  0  0  0  0  1  0  0  0  0  0  0
  -28.3740  -25.5830   21.0570 C   0  0  0  0  0  3  0  0  0  0  0  0
  -28.4840  -26.7450   20.2070 O   0  0  0  0  0  0  0  0  0  0  0  0
  -24.6100  -31.9270   23.1990 C   0  0  0  0  0  0  0  0  0  0  0  0
  -27.3360  -27.5100   20.1630 C   0  0  0  0  0  0  0  0  0  0  0  0
  -23.4380  -30.5150   21.5390 C   0  0  0  0  0  3  0  0  0  0  0  0
  -24.9290  -28.9920   20.1320 C   0  0  0  0  0  0  0  0  0  0  0  0
  -25.9630  -30.8990   21.3740 C   0  0  0  0  0  2  0  0  0  0  0  0
  -26.0740  -29.5300   20.7340 C   0  0  0  0  0  0  0  0  0  0  0  0
  -27.2860  -28.8000   20.7420 C   0  0  0  0  0  3  0  0  0  0  0  0
  -26.1790  -26.9900   19.5470 C   0  0  0  0  0  3  0  0  0  0  0  0
  -24.9770  -27.7190   19.5350 C   0  0  0  0  0  3  0  0  0  0  0  0
  -23.6730  -29.8340   20.1630 C   0  0  0  0  0  2  0  0  0  0  0  0
  -24.6880  -31.1280   22.0960 N   0  0  0  0  0  0  0  0  0  0  0  0
  -23.5180  -32.1880   23.7240 O   0  0  0  0  0  0  0  0  0  0  0  0
  -22.7850  -29.4880   22.4920 C   0  0  0  0  0  0  0  0  0  0  0  0
  -21.4630  -29.2930   22.3490 N   0  0  0  0  0  0  0  0  0  0  0  0
  -23.4630  -28.8680   23.3150 O   0  0  0  0  0  0  0  0  0  0  0  0
  -20.9760  -29.8460   21.6560 H   0  0  0  0  0  0  0  0  0  0  0  0
  -18.0920  -28.0760   22.8040 C   0  0  0  0  0  0  0  0  0  0  0  0
  -20.6440  -28.3480   23.1050 C   0  0  0  0  0  3  0  0  0  0  0  0
  -20.7620  -26.9190   22.5240 C   0  0  0  0  0  2  0  0  0  0  0  0
  -19.6730  -26.5940   21.4960 C   0  0  0  0  0  2  0  0  0  0  0  0
  -18.2830  -26.7310   22.1260 C   0  0  0  0  0  2  0  0  0  0  0  0
  -19.2010  -28.8440   23.2500 C   0  0  0  0  0  0  0  0  0  0  0  0
  -18.9680  -30.1050   23.8400 C   0  0  0  0  0  3  0  0  0  0  0  0
  -17.6580  -30.5990   23.9910 C   0  0  0  0  0  3  0  0  0  0  0  0
  -16.5630  -29.8280   23.5620 C   0  0  0  0  0  3  0  0  0  0  0  0
  -16.7810  -28.5690   22.9750 C   0  0  0  0  0  3  0  0  0  0  0  0
  -25.8800  -32.5700   23.8380 C   0  0  0  0  0  3  0  0  0  0  0  0
  -26.3880  -31.8020   25.1200 C   0  0  1  0  0  0  0  0  0  0  0  0
  -25.2840  -31.5500   26.1730 C   0  0  0  0  0  1  0  0  0  0  0  0
  -26.9910  -30.4330   24.7290 C   0  0  0  0  0  1  0  0  0  0  0  0
  -27.5220  -32.6070   25.7970 C   0  0  0  0  0  1  0  0  0  0  0  0
  -25.5540  -33.9650   24.1600 N   0  0  0  0  0  0  0  0  0  0  0  0
  -25.8960  -35.0180   23.4070 C   0  0  0  0  0  0  0  0  0  0  0  0
  -26.5880  -34.9190   22.3900 O   0  0  0  0  0  0  0  0  0  0  0  0
  -24.9480  -34.1180   24.9520 H   0  0  0  0  0  0  0  0  0  0  0  0
  -24.1720  -36.8030   23.0050 C   0  0  0  0  0  1  0  0  0  0  0  0
  -25.3920  -36.4040   23.8530 C   0  0  0  0  0  3  0  0  0  0  0  0
  -27.4970  -37.2970   24.7490 C   0  0  0  0  0  1  0  0  0  0  0  0
  -26.4230  -37.4610   23.7710 N   0  0  0  0  0  0  0  0  0  0  0  0
  -26.0090  -38.3800   23.9060 H   0  0  0  0  0  0  0  0  0  0  0  0
  1 51  1  0
  1  2  1  0
  2  4  1  0
  3  1  2  0
  5 17  1  0
  6 11  1  0
  7  8  1  0
  7  6  1  0
  9  8  1  0
  9 23  1  0
  9 10  1  0
 11  5  1  0
 11 10  1  0
 12  5  2  0
 13 14  2  0
 14 18  1  0
 14  2  1  0
 15 18  1  0
 16 13  1  0
 16 15  2  0
 17 15  1  0
 17 19  1  0
 20 21  2  0
 21 40  1  0
 22 21  1  0
 22 25  1  0
 23 24  1  0
 23 20  1  0
 24 22  2  0
 25 26  1  0
 26 27  2  0
 28 31  1  0
 28 27  1  0
 29 28  2  0
 30 29  1  0
 30 25  2  0
 31 32  1  0
 32 33  1  0
 33 34  2  0
 35 34  1  0
 35 39  1  0
 36 35  2  0
 37 32  2  0
 37 36  1  0
 38 37  1  0
 40 41  1  0
 41 44  1  0
 41 43  1  0
 42 40  2  0
 45 20  1  0
 45 46  1  0
 47 45  1  0
 48 50  1  0
 50 13  1  0
 50 49  1  0
 51 52  1  0
 53 55  1  0
 53 51  1  0
 55 54  1  0
 56 55  1  0
 57 68  2  0
 58 56  1  0
 58 63  1  0
 59 67  1  0
 59 69  1  0
 60 66  1  0
 60 62  1  0
 61 67  1  0
 62 63  2  0
 62 61  1  0
 64 58  2  0
 65 64  1  0
 65 60  2  0
 66 59  1  0
 67 57  1  0
 69 71  2  0
 70 69  1  0
 72 70  1  0
 73 82  2  0
 73 78  1  0
 74 70  1  0
 74 78  1  0
 75 74  1  0
 76 77  1  0
 76 75  1  0
 77 73  1  0
 78 79  2  0
 79 80  1  0
 81 80  2  0
 82 81  1  0
 83 57  1  0
 83 88  1  0
 83 84  1  0
 84 87  1  1
 84 85  1  0
 86 84  1  0
 88 91  1  0
 89 93  1  0
 89 88  1  0
 90 89  2  0
 93 92  1  0
 95 93  1  0
 95 96  1  0
 95 94  1  0
M  ISO  4   5 100  17 100  55 101  56 101
M  END
>  <TORSDO>  (91) 
F 20

>  <SCORE>  (91) 
-13.551

>  <name>  (91) 
91

>  <ligand_id>  (91) 
91

>  <original_smiles>  (91) 
[H]c1c([H])c([H])c2c(c1[H])C([H])([H])C([H])([H])C([H])([H])C2([H])N([H])C(=O)C1([H])N(C(=O)C([H])(N([H])C(=O)C([H])(N([H])C([H])([H])[H])C([H])([H])[H])C(C([H])([H])[H])(C([H])([H])[H])C([H])([H])[H])C([H])([H])c2c([H])c(OC([H])(C([H])([H])[H])C([H])([H])C([H])(F)C(=O)N([H])c3sc(N([H])C(=O)N4C([H])([H])C([H])([H])C([H])([H])C([H])(n5nc(-c6c([H])c([H])c(Oc7c([H])c([H])c(F)c([H])c7F)c([H])c6[H])c(C(=O)N([H])[H])c5N([H])[H])C4([H])[H])nc3C([H])(C([H])([H])[H])C([H])([H])[H])c([H])c([H])c2C1([H])[H]

>  <smiles>  (91) 
[H]c1c([H])c([H])c2c(c1[H])C([H])([H])C([H])([H])C([H])([H])C2([H])N([H])C(=O)C1([H])N(C(=O)C([H])(N([H])C(=O)C([H])(N([H])C([H])([H])[H])C([H])([H])[H])C(C([H])([H])[H])(C([H])([H])[H])C([H])([H])[H])C([H])([H])c2c([H])c(OC([H])(C([H])([H])[H])C([H])([H])C([H])(F)C(=O)N([H])c3sc(N([H])C(=O)N4C([H])([H])C([H])([H])C([H])([H])C([H])(n5nc(-c6c([H])c([H])c(Oc7c([H])c([H])c(F)c([H])c7F)c([H])c6[H])c(C(=O)N([H])[H])c5N([H])[H])C4([H])[H])nc3C([H])(C([H])([H])[H])C([H])([H])[H])c([H])c([H])c2C1([H])[H]

$$$$
92:0:0
     RDKit          3D

 96104  0  0  1  0  0  0  0  0999 V2000
  -29.3390  -21.0780   21.2920 N   0  0  0  0  0  0  0  0  0  0  0  0
  -29.8780  -21.5810   21.9890 H   0  0  0  0  0  0  0  0  0  0  0  0
  -30.5900  -14.8460   20.3040 C   0  0  0  0  0  0  0  0  0  0  0  0
  -30.4010  -12.5850   19.2380 C   0  0  0  0  0  2  0  0  0  0  0  0
  -29.4430  -12.6350   18.0260 C   0  0  0  0  0  2  0  0  0  0  0  0
  -27.9820  -12.4430   18.4770 C   0  0  0  0  0  2  0  0  0  0  0  0
  -27.6140  -13.3240   19.7000 C   0  0  0  0  0  3  0  0  0  0  0  0
  -28.6860  -13.2410   20.8070 C   0  0  0  0  0  2  0  0  0  0  0  0
  -29.9670  -13.6220   20.2030 N   0  0  0  0  0  0  0  0  0  0  0  0
  -31.7680  -14.9440   19.9400 O   0  0  0  0  0  0  0  0  0  0  0  0
  -31.3390  -19.5830   21.1640 C   0  0  0  0  0  0  0  0  0  0  0  0
  -29.9740  -19.7720   21.0270 C   0  0  0  0  0  0  0  0  0  0  0  0
  -30.1900  -17.3980   20.7250 C   0  0  0  0  0  0  0  0  0  0  0  0
  -29.3410  -18.4910   20.7690 N   0  0  0  0  0  0  0  0  0  0  0  0
  -29.8140  -15.9670   20.5920 N   0  0  0  0  0  0  0  0  0  0  0  0
  -31.8490  -17.9120   20.9530 S   0  0  0  0  0  0  0  0  0  0  0  0
  -28.8390  -15.7680   20.7480 H   0  0  0  0  0  0  0  0  0  0  0  0
  -25.2330  -13.8950   20.4610 C   0  0  0  0  0  0  0  0  0  0  0  0
  -24.1780  -13.1120   20.8450 C   0  0  0  0  0  0  0  0  0  0  0  0
  -24.6520  -11.7650   20.8040 C   0  0  0  0  0  0  0  0  0  0  0  0
  -26.2790  -13.0230   20.2070 N   0  0  0  0  0  0  0  0  0  0  0  0
  -25.9390  -11.7370   20.4770 N   0  0  0  0  0  0  0  0  0  0  0  0
  -23.9360  -10.4970   20.9990 C   0  0  0  0  0  0  0  0  0  0  0  0
  -24.3760   -9.5380   21.9370 C   0  0  0  0  0  3  0  0  0  0  0  0
  -23.6600   -8.3340   22.1200 C   0  0  0  0  0  3  0  0  0  0  0  0
  -22.4900   -8.0830   21.3640 C   0  0  0  0  0  0  0  0  0  0  0  0
  -22.0690   -9.0310   20.4150 C   0  0  0  0  0  3  0  0  0  0  0  0
  -22.7870  -10.2260   20.2310 C   0  0  0  0  0  3  0  0  0  0  0  0
  -21.7460   -6.9320   21.4540 O   0  0  0  0  0  0  0  0  0  0  0  0
  -21.6870   -6.2020   22.6150 C   0  0  0  0  0  0  0  0  0  0  0  0
  -21.2090   -6.7570   23.8210 C   0  0  0  0  0  3  0  0  0  0  0  0
  -21.1020   -5.9520   24.9730 C   0  0  0  0  0  3  0  0  0  0  0  0
  -21.4610   -4.5920   24.9190 C   0  0  0  0  0  0  0  0  0  0  0  0
  -21.9380   -4.0380   23.7170 C   0  0  0  0  0  3  0  0  0  0  0  0
  -22.0470   -4.8400   22.5690 C   0  0  0  0  0  0  0  0  0  0  0  0
  -22.4820   -4.2940   21.4080 F   0  0  0  0  0  0  0  0  0  0  0  0
  -21.3550   -3.8180   26.0240 F   0  0  0  0  0  0  0  0  0  0  0  0
  -22.7820  -13.5800   21.1330 C   0  0  0  0  0  0  0  0  0  0  0  0
  -22.0660  -12.8710   22.0000 N   0  0  0  0  0  0  0  0  0  0  0  0
  -22.3340  -14.6070   20.6290 O   0  0  0  0  0  0  0  0  0  0  0  0
  -22.4420  -12.0380   22.4320 H   0  0  0  0  0  0  0  0  0  0  0  0
  -21.1300  -13.1660   22.2360 H   0  0  0  0  0  0  0  0  0  0  0  0
  -25.3810  -15.2680   20.2830 N   0  0  0  0  0  0  0  0  0  0  0  0
  -24.5960  -15.9030   20.3850 H   0  0  0  0  0  0  0  0  0  0  0  0
  -26.1980  -15.7130   19.8830 H   0  0  0  0  0  0  0  0  0  0  0  0
  -32.3970  -20.5990   21.4670 C   0  0  1  0  0  0  0  0  0  0  0  0
  -32.7030  -21.3100   20.3820 F   0  0  0  0  0  0  0  0  0  0  0  0
  -32.0080  -21.4480   22.4180 F   0  0  0  0  0  0  0  0  0  0  0  0
  -33.5250  -20.0360   21.9050 F   0  0  0  0  0  0  0  0  0  0  0  0
  -28.8430  -21.8320   18.9620 C   0  0  0  0  0  1  0  0  0  0  0  0
  -28.6360  -22.1280   20.4550 C   0  0  0  0  0  3  0  0  0  0  0  0
  -28.5790  -23.8300   22.3710 C   0  0  0  0  0  1  0  0  0  0  0  0
  -30.3940  -24.0320   20.6770 C   0  0  0  0  0  1  0  0  0  0  0  0
  -28.9040  -23.7080   20.8680 C   0  0  1  0  0  0  0  0  0  0  0  0
  -28.0630  -24.8920   20.1070 C   0  0  0  0  0  2  0  0  0  0  0  0
  -28.2820  -26.3810   20.3210 O   0  0  0  0  0  0  0  0  0  0  0  0
  -24.6590  -31.9500   23.2190 C   0  0  0  0  0  0  0  0  0  0  0  0
  -27.2120  -27.3100   20.1920 C   0  0  0  0  0  0  0  0  0  0  0  0
  -23.4440  -30.5660   21.5770 C   0  0  0  0  0  3  0  0  0  0  0  0
  -24.8830  -29.0060   20.1360 C   0  0  0  0  0  0  0  0  0  0  0  0
  -25.9880  -30.8500   21.3930 C   0  0  0  0  0  2  0  0  0  0  0  0
  -26.0570  -29.4650   20.7480 C   0  0  0  0  0  0  0  0  0  0  0  0
  -27.2210  -28.6280   20.7690 C   0  0  0  0  0  3  0  0  0  0  0  0
  -26.0240  -26.9360   19.5230 C   0  0  0  0  0  3  0  0  0  0  0  0
  -24.8740  -27.7520   19.5090 C   0  0  0  0  0  3  0  0  0  0  0  0
  -23.6530  -29.8950   20.1920 C   0  0  0  0  0  2  0  0  0  0  0  0
  -24.7170  -31.1410   22.1200 N   0  0  0  0  0  0  0  0  0  0  0  0
  -23.5780  -32.2360   23.7550 O   0  0  0  0  0  0  0  0  0  0  0  0
  -22.7740  -29.5510   22.5350 C   0  0  0  0  0  0  0  0  0  0  0  0
  -21.4480  -29.3800   22.4070 N   0  0  0  0  0  0  0  0  0  0  0  0
  -23.4490  -28.9210   23.3530 O   0  0  0  0  0  0  0  0  0  0  0  0
  -20.9570  -29.9460   21.7290 H   0  0  0  0  0  0  0  0  0  0  0  0
  -18.0660  -28.2010   22.9240 C   0  0  0  0  0  0  0  0  0  0  0  0
  -20.6280  -28.4450   23.1810 C   0  0  0  0  0  3  0  0  0  0  0  0
  -20.7150  -27.0130   22.6000 C   0  0  0  0  0  2  0  0  0  0  0  0
  -19.6060  -26.7040   21.5890 C   0  0  0  0  0  2  0  0  0  0  0  0
  -18.2290  -26.8540   22.2410 C   0  0  0  0  0  2  0  0  0  0  0  0
  -19.1910  -28.9540   23.3510 C   0  0  0  0  0  0  0  0  0  0  0  0
  -18.9820  -30.2160   23.9510 C   0  0  0  0  0  3  0  0  0  0  0  0
  -17.6820  -30.7220   24.1300 C   0  0  0  0  0  3  0  0  0  0  0  0
  -16.5700  -29.9680   23.7150 C   0  0  0  0  0  3  0  0  0  0  0  0
  -16.7640  -28.7100   23.1180 C   0  0  0  0  0  3  0  0  0  0  0  0
  -25.9470  -32.5740   23.8430 C   0  0  0  0  0  3  0  0  0  0  0  0
  -26.4620  -31.7960   25.1150 C   0  0  1  0  0  0  0  0  0  0  0  0
  -25.3670  -31.5590   26.1820 C   0  0  0  0  0  1  0  0  0  0  0  0
  -27.0430  -30.4160   24.7220 C   0  0  0  0  0  1  0  0  0  0  0  0
  -27.6190  -32.5810   25.7760 C   0  0  0  0  0  1  0  0  0  0  0  0
  -25.6450  -33.9720   24.1810 N   0  0  0  0  0  0  0  0  0  0  0  0
  -25.9710  -35.0270   23.4200 C   0  0  0  0  0  0  0  0  0  0  0  0
  -26.6240  -34.9230   22.3770 O   0  0  0  0  0  0  0  0  0  0  0  0
  -25.0590  -34.1270   24.9900 H   0  0  0  0  0  0  0  0  0  0  0  0
  -24.2460  -36.8310   23.0950 C   0  0  0  0  0  1  0  0  0  0  0  0
  -25.4940  -36.4150   23.8900 C   0  0  0  0  0  3  0  0  0  0  0  0
  -27.6390  -37.2910   24.7050 C   0  0  0  0  0  1  0  0  0  0  0  0
  -26.5330  -37.4620   23.7680 N   0  0  0  0  0  0  0  0  0  0  0  0
  -26.1320  -38.3850   23.9190 H   0  0  0  0  0  0  0  0  0  0  0  0
  1  2  1  0
  3 15  1  0
  4  9  1  0
  5  6  1  0
  5  4  1  0
  7  6  1  0
  7 21  1  0
  7  8  1  0
  9  3  1  0
  9  8  1  0
 10  3  2  0
 11 46  1  0
 12 11  2  0
 12  1  1  0
 13 14  2  0
 13 16  1  0
 14 12  1  0
 15 13  1  0
 15 17  1  0
 16 11  1  0
 18 19  2  0
 19 38  1  0
 20 19  1  0
 20 23  1  0
 21 18  1  0
 21 22  1  0
 22 20  2  0
 23 24  1  0
 24 25  2  0
 26 29  1  0
 26 25  1  0
 27 26  2  0
 28 27  1  0
 28 23  2  0
 29 30  1  0
 30 31  1  0
 31 32  2  0
 33 32  1  0
 33 37  1  0
 34 33  2  0
 35 30  2  0
 35 34  1  0
 36 35  1  0
 38 39  1  0
 39 42  1  0
 39 41  1  0
 40 38  2  0
 43 44  1  0
 43 18  1  0
 45 43  1  0
 46 49  1  1
 46 48  1  0
 47 46  1  0
 51 50  1  0
 51 54  1  0
 51  1  1  0
 54 53  1  1
 54 52  1  0
 55 56  1  0
 55 54  1  0
 57 68  2  0
 58 56  1  0
 58 63  1  0
 59 67  1  0
 59 69  1  0
 60 66  1  0
 60 62  1  0
 61 67  1  0
 62 63  2  0
 62 61  1  0
 64 58  2  0
 65 64  1  0
 65 60  2  0
 66 59  1  0
 67 57  1  0
 69 71  2  0
 70 69  1  0
 72 70  1  0
 73 82  2  0
 73 78  1  0
 74 70  1  0
 74 78  1  0
 75 74  1  0
 76 77  1  0
 76 75  1  0
 77 73  1  0
 78 79  2  0
 79 80  1  0
 81 80  2  0
 82 81  1  0
 83 57  1  0
 83 88  1  0
 83 84  1  0
 84 87  1  1
 84 85  1  0
 86 84  1  0
 88 91  1  0
 89 93  1  0
 89 88  1  0
 90 89  2  0
 93 92  1  0
 95 93  1  0
 95 96  1  0
 95 94  1  0
M  ISO  4   3 100  15 100  55 101  56 101
M  END
>  <TORSDO>  (92) 
F 20

>  <SCORE>  (92) 
-14.272

>  <name>  (92) 
92

>  <ligand_id>  (92) 
92

>  <original_smiles>  (92) 
[H]c1c([H])c([H])c2c(c1[H])C([H])([H])C([H])([H])C([H])([H])C2([H])N([H])C(=O)C1([H])N(C(=O)C([H])(N([H])C(=O)C([H])(N([H])C([H])([H])[H])C([H])([H])[H])C(C([H])([H])[H])(C([H])([H])[H])C([H])([H])[H])C([H])([H])c2c([H])c(OC([H])([H])C(C([H])([H])[H])(C([H])([H])[H])C([H])(N([H])c3nc(N([H])C(=O)N4C([H])([H])C([H])([H])C([H])([H])C([H])(n5nc(-c6c([H])c([H])c(Oc7c([H])c([H])c(F)c([H])c7F)c([H])c6[H])c(C(=O)N([H])[H])c5N([H])[H])C4([H])[H])sc3C(F)(F)F)C([H])([H])[H])c([H])c([H])c2C1([H])[H]

>  <smiles>  (92) 
[H]c1c([H])c([H])c2c(c1[H])C([H])([H])C([H])([H])C([H])([H])C2([H])N([H])C(=O)C1([H])N(C(=O)C([H])(N([H])C(=O)C([H])(N([H])C([H])([H])[H])C([H])([H])[H])C(C([H])([H])[H])(C([H])([H])[H])C([H])([H])[H])C([H])([H])c2c([H])c(OC([H])([H])C(C([H])([H])[H])(C([H])([H])[H])C([H])(N([H])c3nc(N([H])C(=O)N4C([H])([H])C([H])([H])C([H])([H])C([H])(n5nc(-c6c([H])c([H])c(Oc7c([H])c([H])c(F)c([H])c7F)c([H])c6[H])c(C(=O)N([H])[H])c5N([H])[H])C4([H])[H])sc3C(F)(F)F)C([H])([H])[H])c([H])c([H])c2C1([H])[H]

$$$$
93:0:0
     RDKit          3D

 99107  0  0  1  0  0  0  0  0999 V2000
  -28.7500  -22.3760   20.4950 C   0  0  0  0  0  0  0  0  0  0  0  0
  -29.3690  -21.2490   19.9520 N   0  0  0  0  0  0  0  0  0  0  0  0
  -27.9660  -22.2420   21.4380 O   0  0  0  0  0  0  0  0  0  0  0  0
  -29.8120  -21.3840   19.0590 H   0  0  0  0  0  0  0  0  0  0  0  0
  -30.5720  -14.9600   20.1440 C   0  0  0  0  0  0  0  0  0  0  0  0
  -30.4150  -12.6730   19.1490 C   0  0  0  0  0  2  0  0  0  0  0  0
  -29.4350  -12.6730   17.9530 C   0  0  0  0  0  2  0  0  0  0  0  0
  -27.9890  -12.4500   18.4400 C   0  0  0  0  0  2  0  0  0  0  0  0
  -27.6160  -13.3600   19.6420 C   0  0  0  0  0  3  0  0  0  0  0  0
  -28.7090  -13.3420   20.7320 C   0  0  0  0  0  2  0  0  0  0  0  0
  -29.9650  -13.7290   20.0790 N   0  0  0  0  0  0  0  0  0  0  0  0
  -31.7730  -15.0630   19.8710 O   0  0  0  0  0  0  0  0  0  0  0  0
  -30.8210  -17.6040   21.7820 C   0  0  0  0  0  3  0  0  0  0  0  0
  -30.5950  -20.0380   21.7240 C   0  0  0  0  0  0  0  0  0  0  0  0
  -31.0970  -18.8610   22.3290 C   0  0  0  0  0  0  0  0  0  0  0  0
  -30.0400  -17.4850   20.6230 C   0  0  0  0  0  0  0  0  0  0  0  0
  -29.7540  -19.9450   20.5790 C   0  0  0  0  0  0  0  0  0  0  0  0
  -29.5140  -18.6610   20.0620 N   0  0  0  0  0  0  0  0  0  0  0  0
  -29.7590  -16.0900   20.2030 N   0  0  0  0  0  0  0  0  0  0  0  0
  -32.1000  -18.9510   23.7380 Cl  0  0  0  0  0  0  0  0  0  0  0  0
  -28.7870  -15.9090   20.0180 H   0  0  0  0  0  0  0  0  0  0  0  0
  -25.2430  -13.9020   20.4520 C   0  0  0  0  0  0  0  0  0  0  0  0
  -24.2010  -13.1040   20.8400 C   0  0  0  0  0  0  0  0  0  0  0  0
  -24.6890  -11.7630   20.7810 C   0  0  0  0  0  0  0  0  0  0  0  0
  -26.2950  -13.0440   20.1750 N   0  0  0  0  0  0  0  0  0  0  0  0
  -25.9720  -11.7530   20.4380 N   0  0  0  0  0  0  0  0  0  0  0  0
  -23.9910  -10.4840   20.9760 C   0  0  0  0  0  0  0  0  0  0  0  0
  -24.4330   -9.5430   21.9300 C   0  0  0  0  0  3  0  0  0  0  0  0
  -23.7370   -8.3290   22.1110 C   0  0  0  0  0  3  0  0  0  0  0  0
  -22.5850   -8.0490   21.3400 C   0  0  0  0  0  0  0  0  0  0  0  0
  -22.1640   -8.9800   20.3750 C   0  0  0  0  0  3  0  0  0  0  0  0
  -22.8590  -10.1860   20.1920 C   0  0  0  0  0  3  0  0  0  0  0  0
  -21.8600   -6.8850   21.4300 O   0  0  0  0  0  0  0  0  0  0  0  0
  -21.7820   -6.1760   22.6010 C   0  0  0  0  0  0  0  0  0  0  0  0
  -21.2500   -6.7400   23.7820 C   0  0  0  0  0  3  0  0  0  0  0  0
  -21.1250   -5.9540   24.9440 C   0  0  0  0  0  3  0  0  0  0  0  0
  -21.5210   -4.6020   24.9260 C   0  0  0  0  0  0  0  0  0  0  0  0
  -22.0440   -4.0370   23.7500 C   0  0  0  0  0  3  0  0  0  0  0  0
  -22.1720   -4.8220   22.5910 C   0  0  0  0  0  0  0  0  0  0  0  0
  -22.6580   -4.2660   21.4550 F   0  0  0  0  0  0  0  0  0  0  0  0
  -21.3920   -3.8440   26.0400 F   0  0  0  0  0  0  0  0  0  0  0  0
  -22.8040  -13.5530   21.1520 C   0  0  0  0  0  0  0  0  0  0  0  0
  -22.1090  -12.8240   22.0170 N   0  0  0  0  0  0  0  0  0  0  0  0
  -22.3390  -14.5820   20.6620 O   0  0  0  0  0  0  0  0  0  0  0  0
  -22.4980  -11.9910   22.4310 H   0  0  0  0  0  0  0  0  0  0  0  0
  -21.1720  -13.1050   22.2710 H   0  0  0  0  0  0  0  0  0  0  0  0
  -25.3750  -15.2770   20.2890 N   0  0  0  0  0  0  0  0  0  0  0  0
  -24.5950  -15.9080   20.4370 H   0  0  0  0  0  0  0  0  0  0  0  0
  -26.1960  -15.7470   19.9320 H   0  0  0  0  0  0  0  0  0  0  0  0
  -31.0080  -21.2730   22.2460 N   0  0  0  0  0  0  0  0  0  0  0  0
  -31.7530  -21.2150   22.9360 H   0  0  0  0  0  0  0  0  0  0  0  0
  -31.1790  -22.0060   21.5670 H   0  0  0  0  0  0  0  0  0  0  0  0
  -28.9500  -23.8820   19.9230 C   0  0  0  0  0  3  0  0  0  0  0  0
  -29.1900  -23.8880   18.4660 N   0  0  0  0  0  4  0  0  0  0  0  0
  -28.4220  -23.4840   17.9590 H   0  0  0  0  0  0  0  0  0  0  0  0
  -30.0370  -23.4010   18.2330 H   0  0  0  0  0  0  0  0  0  0  0  0
  -29.3000  -24.8380   18.1600 H   0  0  0  0  0  0  0  0  0  0  0  0
  -27.8890  -25.0520   20.3120 C   0  0  0  0  0  2  0  0  0  0  0  0
  -28.1430  -26.5190   20.0250 O   0  0  0  0  0  0  0  0  0  0  0  0
  -24.5820  -32.0080   23.2250 C   0  0  0  0  0  0  0  0  0  0  0  0
  -27.0560  -27.4280   20.0330 C   0  0  0  0  0  0  0  0  0  0  0  0
  -23.3220  -30.6470   21.5990 C   0  0  0  0  0  3  0  0  0  0  0  0
  -24.7180  -29.1050   20.1040 C   0  0  0  0  0  0  0  0  0  0  0  0
  -25.8610  -30.9340   21.3510 C   0  0  0  0  0  2  0  0  0  0  0  0
  -25.9110  -29.5620   20.6800 C   0  0  0  0  0  0  0  0  0  0  0  0
  -27.0840  -28.7360   20.6300 C   0  0  0  0  0  3  0  0  0  0  0  0
  -25.8420  -27.0550   19.4100 C   0  0  0  0  0  3  0  0  0  0  0  0
  -24.6900  -27.8610   19.4590 C   0  0  0  0  0  3  0  0  0  0  0  0
  -23.4930  -29.9960   20.2000 C   0  0  0  0  0  2  0  0  0  0  0  0
  -24.6100  -31.2130   22.1150 N   0  0  0  0  0  0  0  0  0  0  0  0
  -23.5160  -32.2860   23.7970 O   0  0  0  0  0  0  0  0  0  0  0  0
  -22.6790  -29.6190   22.5600 C   0  0  0  0  0  0  0  0  0  0  0  0
  -21.3550  -29.4220   22.4420 N   0  0  0  0  0  0  0  0  0  0  0  0
  -23.3710  -29.0010   23.3740 O   0  0  0  0  0  0  0  0  0  0  0  0
  -20.8550  -29.9750   21.7590 H   0  0  0  0  0  0  0  0  0  0  0  0
  -18.0010  -28.1470   22.9340 C   0  0  0  0  0  0  0  0  0  0  0  0
  -20.5520  -28.4690   23.2140 C   0  0  0  0  0  3  0  0  0  0  0  0
  -20.6900  -27.0350   22.6530 C   0  0  0  0  0  2  0  0  0  0  0  0
  -19.6010  -26.6790   21.6350 C   0  0  0  0  0  2  0  0  0  0  0  0
  -18.2140  -26.7960   22.2710 C   0  0  0  0  0  2  0  0  0  0  0  0
  -19.1000  -28.9390   23.3630 C   0  0  0  0  0  0  0  0  0  0  0  0
  -18.8490  -30.2020   23.9420 C   0  0  0  0  0  3  0  0  0  0  0  0
  -17.5310  -30.6720   24.1010 C   0  0  0  0  0  3  0  0  0  0  0  0
  -16.4470  -29.8780   23.6870 C   0  0  0  0  0  3  0  0  0  0  0  0
  -16.6830  -28.6180   23.1110 C   0  0  0  0  0  3  0  0  0  0  0  0
  -25.8870  -32.6220   23.8160 C   0  0  0  0  0  3  0  0  0  0  0  0
  -26.4220  -31.8430   25.0810 C   0  0  1  0  0  0  0  0  0  0  0  0
  -25.3480  -31.6170   26.1700 C   0  0  0  0  0  1  0  0  0  0  0  0
  -26.9810  -30.4590   24.6790 C   0  0  0  0  0  1  0  0  0  0  0  0
  -27.5910  -32.6250   25.7200 C   0  0  0  0  0  1  0  0  0  0  0  0
  -25.6030  -34.0240   24.1590 N   0  0  0  0  0  0  0  0  0  0  0  0
  -25.9410  -35.0760   23.4020 C   0  0  0  0  0  0  0  0  0  0  0  0
  -26.5950  -34.9690   22.3620 O   0  0  0  0  0  0  0  0  0  0  0  0
  -25.0220  -34.1830   24.9690 H   0  0  0  0  0  0  0  0  0  0  0  0
  -24.2500  -36.9120   23.0680 C   0  0  0  0  0  1  0  0  0  0  0  0
  -25.4830  -36.4710   23.8740 C   0  0  0  0  0  3  0  0  0  0  0  0
  -27.6320  -37.3080   24.7200 C   0  0  0  0  0  1  0  0  0  0  0  0
  -26.5380  -37.5030   23.7730 N   0  0  0  0  0  0  0  0  0  0  0  0
  -26.1460  -38.4290   23.9270 H   0  0  0  0  0  0  0  0  0  0  0  0
  1  3  2  0
  2  1  1  0
  2 17  1  0
  4  2  1  0
  5 19  1  0
  6 11  1  0
  7  8  1  0
  7  6  1  0
  9  8  1  0
  9 25  1  0
  9 10  1  0
 11  5  1  0
 11 10  1  0
 12  5  2  0
 13 15  1  0
 14 50  1  0
 14 15  2  0
 15 20  1  0
 16 13  2  0
 17 14  1  0
 18 17  2  0
 18 16  1  0
 19 16  1  0
 21 19  1  0
 22 23  2  0
 23 42  1  0
 24 23  1  0
 24 27  1  0
 25 26  1  0
 25 22  1  0
 26 24  2  0
 27 28  1  0
 28 29  2  0
 30 33  1  0
 30 29  1  0
 31 30  2  0
 32 31  1  0
 32 27  2  0
 33 34  1  0
 34 35  1  0
 35 36  2  0
 37 36  1  0
 37 41  1  0
 38 37  2  0
 39 34  2  0
 39 38  1  0
 40 39  1  0
 42 43  1  0
 43 46  1  0
 43 45  1  0
 44 42  2  0
 47 48  1  0
 47 22  1  0
 49 47  1  0
 50 51  1  0
 52 50  1  0
 53 58  1  0
 53  1  1  0
 54 53  1  0
 55 54  1  0
 56 54  1  0
 57 54  1  0
 59 61  1  0
 59 58  1  0
 60 71  2  0
 61 66  1  0
 62 70  1  0
 62 72  1  0
 63 69  1  0
 63 65  1  0
 64 70  1  0
 65 64  1  0
 66 65  2  0
 67 68  1  0
 67 61  2  0
 68 63  2  0
 69 62  1  0
 70 60  1  0
 72 74  2  0
 73 72  1  0
 75 73  1  0
 76 85  2  0
 76 81  1  0
 77 73  1  0
 77 81  1  0
 78 77  1  0
 79 80  1  0
 79 78  1  0
 80 76  1  0
 81 82  2  0
 82 83  1  0
 84 83  2  0
 85 84  1  0
 86 60  1  0
 86 91  1  0
 86 87  1  0
 87 90  1  1
 87 88  1  0
 89 87  1  0
 91 94  1  0
 92 96  1  0
 92 91  1  0
 93 92  2  0
 96 95  1  0
 98 96  1  0
 98 99  1  0
 98 97  1  0
M  ISO  4   5 100  19 100  58 101  59 101
M  END
>  <TORSDO>  (93) 
F 20

>  <SCORE>  (93) 
-13.494

>  <name>  (93) 
93

>  <ligand_id>  (93) 
93

>  <original_smiles>  (93) 
[H]c1c([H])c([H])c2c(c1[H])C([H])([H])C([H])([H])C([H])([H])C2([H])N([H])C(=O)C1([H])N(C(=O)C([H])(N([H])C(=O)C([H])(N([H])C([H])([H])[H])C([H])([H])[H])C(C([H])([H])[H])(C([H])([H])[H])C([H])([H])[H])C([H])([H])c2c([H])c(OC([H])([H])C([H])(C(=O)N([H])c3nc(N([H])C(=O)N4C([H])([H])C([H])([H])C([H])([H])C([H])(n5nc(-c6c([H])c([H])c(Oc7c([H])c([H])c(F)c([H])c7F)c([H])c6[H])c(C(=O)N([H])[H])c5N([H])[H])C4([H])[H])c([H])c(Cl)c3N([H])[H])[N+]([H])([H])[H])c([H])c([H])c2C1([H])[H]

>  <smiles>  (93) 
[H]c1c([H])c([H])c2c(c1[H])C([H])([H])C([H])([H])C([H])([H])C2([H])N([H])C(=O)C1([H])N(C(=O)C([H])(N([H])C(=O)C([H])(N([H])C([H])([H])[H])C([H])([H])[H])C(C([H])([H])[H])(C([H])([H])[H])C([H])([H])[H])C([H])([H])c2c([H])c(OC([H])([H])C([H])(C(=O)N([H])c3nc(N([H])C(=O)N4C([H])([H])C([H])([H])C([H])([H])C([H])(n5nc(-c6c([H])c([H])c(Oc7c([H])c([H])c(F)c([H])c7F)c([H])c6[H])c(C(=O)N([H])[H])c5N([H])[H])C4([H])[H])c([H])c(Cl)c3N([H])[H])[N+]([H])([H])[H])c([H])c([H])c2C1([H])[H]

$$$$
94:0:0
     RDKit          3D

102111  0  0  1  0  0  0  0  0999 V2000
  -28.9710  -23.4090   20.9970 C   0  0  0  0  0  3  0  0  0  0  0  0
  -30.5510  -18.9450   20.4860 C   0  0  0  0  0  3  0  0  0  0  0  0
  -30.2090  -21.2170   20.5650 C   0  0  0  0  0  0  0  0  0  0  0  0
  -30.0390  -20.0510   19.8580 N   0  0  0  0  0  0  0  0  0  0  0  0
  -30.8800  -21.1150   21.7220 N   0  0  0  0  0  2  0  0  0  0  0  0
  -29.8080  -22.5210   20.1130 N   0  0  0  0  0  0  0  0  0  0  0  0
  -31.3250  -19.4890   21.9650 S   0  0  0  0  0  0  0  0  0  0  0  0
  -29.4180  -22.4860   19.1790 H   0  0  0  0  0  0  0  0  0  0  0  0
  -30.3060  -17.4320   20.1040 C   0  0  0  0  0  3  0  0  0  0  0  0
  -31.7710  -15.2170   20.0370 C   0  0  0  0  0  0  0  0  0  0  0  0
  -31.4780  -12.8080   19.4350 C   0  0  0  0  0  2  0  0  0  0  0  0
  -30.5820  -12.6120   18.1940 C   0  0  0  0  0  2  0  0  0  0  0  0
  -29.0980  -12.5560   18.5960 C   0  0  0  0  0  2  0  0  0  0  0  0
  -28.7050  -13.6870   19.5820 C   0  0  0  0  0  3  0  0  0  0  0  0
  -29.7210  -13.8340   20.7340 C   0  0  0  0  0  2  0  0  0  0  0  0
  -31.0490  -14.0440   20.1440 N   0  0  0  0  0  0  0  0  0  0  0  0
  -32.9070  -15.1810   19.5630 O   0  0  0  0  0  0  0  0  0  0  0  0
  -31.3410  -16.4210   20.5420 N   0  0  0  0  0  0  0  0  0  0  0  0
  -32.1520  -16.9300   20.8580 H   0  0  0  0  0  0  0  0  0  0  0  0
  -26.3860  -14.4820   20.3470 C   0  0  0  0  0  0  0  0  0  0  0  0
  -25.2540  -13.8130   20.7180 C   0  0  0  0  0  0  0  0  0  0  0  0
  -25.5780  -12.4230   20.6320 C   0  0  0  0  0  0  0  0  0  0  0  0
  -27.3400  -13.5160   20.0770 N   0  0  0  0  0  0  0  0  0  0  0  0
  -26.8580  -12.2670   20.3080 N   0  0  0  0  0  0  0  0  0  0  0  0
  -24.7250  -11.2360   20.7850 C   0  0  0  0  0  0  0  0  0  0  0  0
  -25.0350  -10.2150   21.7120 C   0  0  0  0  0  3  0  0  0  0  0  0
  -24.1870   -9.0950   21.8510 C   0  0  0  0  0  3  0  0  0  0  0  0
  -23.0150   -8.9880   21.0640 C   0  0  0  0  0  0  0  0  0  0  0  0
  -22.7260   -9.9950   20.1270 C   0  0  0  0  0  3  0  0  0  0  0  0
  -23.5740  -11.1050   19.9840 C   0  0  0  0  0  3  0  0  0  0  0  0
  -22.1470   -7.9260   21.1170 O   0  0  0  0  0  0  0  0  0  0  0  0
  -21.9420   -7.2190   22.2740 C   0  0  0  0  0  0  0  0  0  0  0  0
  -21.4920   -7.8440   23.4570 C   0  0  0  0  0  3  0  0  0  0  0  0
  -21.2270   -7.0690   24.6060 C   0  0  0  0  0  3  0  0  0  0  0  0
  -21.4070   -5.6730   24.5710 C   0  0  0  0  0  0  0  0  0  0  0  0
  -21.8480   -5.0490   23.3920 C   0  0  0  0  0  3  0  0  0  0  0  0
  -22.1140   -5.8200   22.2460 C   0  0  0  0  0  0  0  0  0  0  0  0
  -22.5220   -5.2140   21.1060 F   0  0  0  0  0  0  0  0  0  0  0  0
  -21.1450   -4.9270   25.6700 F   0  0  0  0  0  0  0  0  0  0  0  0
  -23.9170  -14.4210   21.0220 C   0  0  0  0  0  0  0  0  0  0  0  0
  -23.1400  -13.7950   21.8990 N   0  0  0  0  0  0  0  0  0  0  0  0
  -23.5760  -15.4910   20.5190 O   0  0  0  0  0  0  0  0  0  0  0  0
  -23.4280  -12.9250   22.3250 H   0  0  0  0  0  0  0  0  0  0  0  0
  -22.2390  -14.1820   22.1390 H   0  0  0  0  0  0  0  0  0  0  0  0
  -26.6690  -15.8320   20.1840 N   0  0  0  0  0  0  0  0  0  0  0  0
  -25.9620  -16.5470   20.3100 H   0  0  0  0  0  0  0  0  0  0  0  0
  -27.5460  -16.1970   19.8420 H   0  0  0  0  0  0  0  0  0  0  0  0
  -29.0250  -17.1350   20.9240 C   0  0  0  0  0  0  0  0  0  0  0  0
  -27.8800  -17.6800   20.5340 N   0  0  0  0  0  0  0  0  0  0  0  0
  -29.0570  -16.4360   21.9390 O   0  0  0  0  0  0  0  0  0  0  0  0
  -27.8470  -18.2870   19.7260 H   0  0  0  0  0  0  0  0  0  0  0  0
  -27.0310  -17.4880   21.0430 H   0  0  0  0  0  0  0  0  0  0  0  0
  -25.3120  -22.8300   21.0320 C   0  0  0  0  0  3  0  0  0  0  0  0
  -25.1850  -23.6380   19.9300 C   0  0  0  0  0  3  0  0  0  0  0  0
  -27.5070  -23.3460   20.6740 C   0  0  0  0  0  0  0  0  0  0  0  0
  -26.6420  -22.6610   21.4320 N   0  0  0  0  0  0  0  0  0  0  0  0
  -26.7340  -24.2130   19.3570 S   0  0  0  0  0  0  0  0  0  0  0  0
  -29.4210  -24.8250   21.6820 C   0  0  0  0  0  3  0  0  0  0  0  0
  -28.7760  -24.7810   23.9990 C   0  0  0  0  0  1  0  0  0  0  0  0
  -28.4710  -25.2040   22.6780 O   0  0  0  0  0  0  0  0  0  0  0  0
  -29.9300  -26.2370   21.1220 C   0  0  0  0  0  2  0  0  0  0  0  0
  -29.2460  -27.1890   20.2490 O   0  0  0  0  0  0  0  0  0  0  0  0
  -24.9050  -32.0530   23.6510 C   0  0  0  0  0  0  0  0  0  0  0  0
  -28.1050  -27.9690   20.4720 C   0  0  0  0  0  0  0  0  0  0  0  0
  -23.9630  -30.7320   21.8000 C   0  0  0  0  0  3  0  0  0  0  0  0
  -25.6470  -29.4200   20.3910 C   0  0  0  0  0  0  0  0  0  0  0  0
  -26.4770  -31.2370   21.8780 C   0  0  0  0  0  2  0  0  0  0  0  0
  -26.7220  -29.9220   21.1380 C   0  0  0  0  0  0  0  0  0  0  0  0
  -27.9640  -29.2030   21.1860 C   0  0  0  0  0  3  0  0  0  0  0  0
  -27.0080  -27.5280   19.7100 C   0  0  0  0  0  3  0  0  0  0  0  0
  -25.7910  -28.2270   19.6700 C   0  0  0  0  0  3  0  0  0  0  0  0
  -24.3520  -30.2030   20.3940 C   0  0  0  0  0  2  0  0  0  0  0  0
  -25.1300  -31.3520   22.5060 N   0  0  0  0  0  0  0  0  0  0  0  0
  -23.7650  -32.2050   24.1080 O   0  0  0  0  0  0  0  0  0  0  0  0
  -23.3060  -29.5830   22.6040 C   0  0  0  0  0  0  0  0  0  0  0  0
  -22.0070  -29.3400   22.3560 N   0  0  0  0  0  0  0  0  0  0  0  0
  -23.9660  -28.9220   23.4080 O   0  0  0  0  0  0  0  0  0  0  0  0
  -21.5340  -29.9310   21.6880 H   0  0  0  0  0  0  0  0  0  0  0  0
  -18.6740  -27.9280   22.4910 C   0  0  0  0  0  0  0  0  0  0  0  0
  -21.1950  -28.2820   22.9600 C   0  0  0  0  0  3  0  0  0  0  0  0
  -21.4050  -26.9300   22.2360 C   0  0  0  0  0  2  0  0  0  0  0  0
  -20.3840  -26.6710   21.1220 C   0  0  0  0  0  2  0  0  0  0  0  0
  -18.9640  -26.6720   21.6920 C   0  0  0  0  0  2  0  0  0  0  0  0
  -19.7210  -28.6890   23.0800 C   0  0  0  0  0  0  0  0  0  0  0  0
  -19.3970  -29.8630   23.8000 C   0  0  0  0  0  3  0  0  0  0  0  0
  -18.0570  -30.2760   23.9360 C   0  0  0  0  0  3  0  0  0  0  0  0
  -17.0250  -29.5120   23.3610 C   0  0  0  0  0  3  0  0  0  0  0  0
  -17.3350  -28.3420   22.6430 C   0  0  0  0  0  3  0  0  0  0  0  0
  -26.0750  -32.7080   24.4500 C   0  0  0  0  0  3  0  0  0  0  0  0
  -25.6940  -34.0960   24.7460 N   0  0  0  0  0  0  0  0  0  0  0  0
  -26.0880  -35.1570   24.0320 C   0  0  0  0  0  0  0  0  0  0  0  0
  -26.8730  -35.0760   23.0860 O   0  0  0  0  0  0  0  0  0  0  0  0
  -25.0090  -34.2380   25.4760 H   0  0  0  0  0  0  0  0  0  0  0  0
  -24.3830  -36.9180   23.4620 C   0  0  0  0  0  1  0  0  0  0  0  0
  -25.5140  -36.5280   24.4270 C   0  0  0  0  0  3  0  0  0  0  0  0
  -27.5220  -37.4560   25.5040 C   0  0  0  0  0  1  0  0  0  0  0  0
  -26.5270  -37.6050   24.4450 N   0  0  0  0  0  0  0  0  0  0  0  0
  -26.0790  -38.5100   24.5580 H   0  0  0  0  0  0  0  0  0  0  0  0
  -26.4300  -31.9380   25.7810 C   0  0  1  0  0  0  0  0  0  0  0  0
  -25.2080  -31.6210   26.6740 C   0  0  0  0  0  1  0  0  0  0  0  0
  -27.1420  -30.6020   25.4630 C   0  0  0  0  0  1  0  0  0  0  0  0
  -27.4180  -32.7800   26.6200 C   0  0  0  0  0  1  0  0  0  0  0  0
  1  6  1  0
  1 58  1  0
  2  9  1  0
  2  7  1  0
  3  5  1  0
  4  2  1  0
  4  3  2  0
  5  7  1  0
  6  3  1  0
  8  6  1  0
  9 18  1  0
  9 48  1  0
 10 16  1  0
 10 18  1  0
 11 16  1  0
 12 13  1  0
 12 11  1  0
 14 13  1  0
 14 23  1  0
 14 15  1  0
 16 15  1  0
 17 10  2  0
 18 19  1  0
 20 21  2  0
 21 40  1  0
 22 21  1  0
 22 25  1  0
 23 24  1  0
 23 20  1  0
 24 22  2  0
 25 26  1  0
 26 27  2  0
 28 31  1  0
 28 27  1  0
 29 28  2  0
 30 29  1  0
 30 25  2  0
 31 32  1  0
 32 33  1  0
 33 34  2  0
 35 34  1  0
 35 39  1  0
 36 35  2  0
 37 32  2  0
 37 36  1  0
 38 37  1  0
 40 41  1  0
 41 44  1  0
 41 43  1  0
 42 40  2  0
 45 46  1  0
 45 20  1  0
 47 45  1  0
 48 50  2  0
 49 48  1  0
 49 52  1  0
 51 49  1  0
 53 56  1  0
 54 53  2  0
 55  1  1  0
 55 56  2  0
 57 54  1  0
 57 55  1  0
 58 61  1  0
 58 60  1  0
 60 59  1  0
 62 64  1  0
 62 61  1  0
 63 74  2  0
 64 69  1  0
 65 73  1  0
 65 75  1  0
 66 72  1  0
 66 68  1  0
 67 73  1  0
 68 69  2  0
 68 67  1  0
 70 64  2  0
 71 70  1  0
 71 66  2  0
 72 65  1  0
 73 63  1  0
 75 77  2  0
 76 75  1  0
 78 76  1  0
 79 88  2  0
 79 84  1  0
 80 76  1  0
 80 84  1  0
 81 80  1  0
 82 83  1  0
 82 81  1  0
 83 79  1  0
 84 85  2  0
 85 86  1  0
 87 86  2  0
 88 87  1  0
 89 63  1  0
 89 90  1  0
 89 99  1  0
 90 93  1  0
 91 95  1  0
 91 90  1  0
 92 91  2  0
 95 94  1  0
 95 97  1  0
 97 98  1  0
 97 96  1  0
 99102  1  1
 99100  1  0
101 99  1  0
M  ISO  4  10 100  18 100  61 101  62 101
M  END
>  <TORSDO>  (94) 
F 23

>  <SCORE>  (94) 
-9.977

>  <name>  (94) 
94

>  <ligand_id>  (94) 
94

>  <original_smiles>  (94) 
[H]c1nc(C([H])(N([H])c2nsc(C([H])(C(=O)N([H])[H])N([H])C(=O)N3C([H])([H])C([H])([H])C([H])([H])C([H])(n4nc(-c5c([H])c([H])c(Oc6c([H])c([H])c(F)c([H])c6F)c([H])c5[H])c(C(=O)N([H])[H])c4N([H])[H])C3([H])[H])n2)C([H])(OC([H])([H])[H])C([H])([H])Oc2c([H])c([H])c3c(c2[H])C([H])([H])N(C(=O)C([H])(N([H])C(=O)C([H])(N([H])C([H])([H])[H])C([H])([H])[H])C(C([H])([H])[H])(C([H])([H])[H])C([H])([H])[H])C([H])(C(=O)N([H])C2([H])c4c([H])c([H])c([H])c([H])c4C([H])([H])C([H])([H])C2([H])[H])C3([H])[H])sc1[H]

>  <smiles>  (94) 
[H]c1nc(C([H])(N([H])c2nsc(C([H])(C(=O)N([H])[H])N([H])C(=O)N3C([H])([H])C([H])([H])C([H])([H])C([H])(n4nc(-c5c([H])c([H])c(Oc6c([H])c([H])c(F)c([H])c6F)c([H])c5[H])c(C(=O)N([H])[H])c4N([H])[H])C3([H])[H])n2)C([H])(OC([H])([H])[H])C([H])([H])Oc2c([H])c([H])c3c(c2[H])C([H])([H])N(C(=O)C([H])(N([H])C(=O)C([H])(N([H])C([H])([H])[H])C([H])([H])[H])C(C([H])([H])[H])(C([H])([H])[H])C([H])([H])[H])C([H])(C(=O)N([H])C2([H])c4c([H])c([H])c([H])c([H])c4C([H])([H])C([H])([H])C2([H])[H])C3([H])[H])sc1[H]

$$$$
95:0:0
     RDKit          3D

 93 96  0  0  1  0  0  0  0  0999 V2000
  -26.0940  -23.8840   20.2370 C   0  0  0  0  0  2  0  0  0  0  0  0
  -26.8120  -22.7590   19.0680 C   0  0  0  0  0  1  0  0  0  0  0  0
  -25.6190  -26.4670   17.7660 C   0  0  0  0  0  2  0  0  0  0  0  0
  -26.7230  -28.0820   16.3430 C   0  0  0  0  0  0  0  0  0  0  0  0
  -26.0020  -23.4110   21.6560 C   0  0  0  0  0  1  0  0  0  0  0  0
  -25.3000  -25.7360   20.1550 N   0  0  0  0  0  1  0  0  0  0  0  0
  -25.6160  -27.6280   16.9380 N   0  0  0  0  0  0  0  0  0  0  0  0
  -26.7170  -29.1980   15.8120 O   0  0  0  0  0  0  0  0  0  0  0  0
  -26.8080  -24.1160   17.1340 S   0  0  0  0  0 15  0  0  0  0  0  0
  -24.8310  -28.2510   17.0220 H   0  0  0  0  0  0  0  0  0  0  0  0
  -28.0110  -27.2120   16.3100 C   0  0  0  0  0  3  0  0  0  0  0  0
  -28.5260  -27.3080   15.0820 F   0  0  0  0  0  0  0  0  0  0  0  0
  -29.1920  -27.5550   17.2820 C   0  0  0  0  0  2  0  0  0  0  0  0
  -29.1790  -27.0300   18.6430 O   0  0  0  0  0  0  0  0  0  0  0  0
  -27.1760  -32.0690   24.3660 C   0  0  0  0  0  0  0  0  0  0  0  0
  -28.0730  -27.1400   19.4190 C   0  0  0  0  0  2  0  0  0  0  0  0
  -25.2960  -31.4470   22.8440 C   0  0  0  0  0  3  0  0  0  0  0  0
  -25.6200  -29.6690   20.7330 C   0  0  0  0  0  0  0  0  0  0  0  0
  -27.6530  -30.9960   21.9940 C   0  0  0  0  0  2  0  0  0  0  0  0
  -27.2190  -29.6870   21.0890 C   0  0  0  0  0  0  0  0  0  0  0  0
  -28.3800  -28.5780   20.5250 C   0  0  0  0  0  2  0  0  0  0  0  0
  -25.4530  -27.0990   18.9080 C   0  0  0  0  0  3  0  0  0  0  0  0
  -24.7330  -28.5490   19.7710 C   0  0  0  0  0  2  0  0  0  0  0  0
  -24.9540  -30.9790   21.3530 C   0  0  0  0  0  2  0  0  0  0  0  0
  -26.7690  -31.5350   23.1290 N   0  0  0  0  0  0  0  0  0  0  0  0
  -26.3560  -32.4360   25.2310 O   0  0  0  0  0  0  0  0  0  0  0  0
  -24.5850  -30.4930   23.8230 C   0  0  0  0  0  0  0  0  0  0  0  0
  -23.3100  -30.1490   23.5650 N   0  0  0  0  0  0  0  0  0  0  0  0
  -25.2150  -30.0290   24.7730 O   0  0  0  0  0  0  0  0  0  0  0  0
  -22.8410  -30.5890   22.7880 H   0  0  0  0  0  0  0  0  0  0  0  0
  -20.5030  -27.8510   23.3400 C   0  0  0  0  0  0  0  0  0  0  0  0
  -22.5790  -29.0830   24.2620 C   0  0  0  0  0  3  0  0  0  0  0  0
  -23.3140  -27.7310   24.1080 C   0  0  0  0  0  2  0  0  0  0  0  0
  -22.8110  -26.9050   22.9200 C   0  0  0  0  0  2  0  0  0  0  0  0
  -21.3200  -26.5980   23.0810 C   0  0  0  0  0  2  0  0  0  0  0  0
  -21.0970  -29.0250   23.8740 C   0  0  0  0  0  0  0  0  0  0  0  0
  -20.2950  -30.1700   24.0680 C   0  0  0  0  0  3  0  0  0  0  0  0
  -18.9270  -30.1550   23.7350 C   0  0  0  0  0  3  0  0  0  0  0  0
  -18.3420  -28.9860   23.2180 C   0  0  0  0  0  3  0  0  0  0  0  0
  -19.1280  -27.8370   23.0260 C   0  0  0  0  0  3  0  0  0  0  0  0
  -28.6790  -32.2470   24.7950 C   0  0  0  0  0  3  0  0  0  0  0  0
  -29.3380  -30.9120   25.3340 C   0  0  1  0  0  0  0  0  0  0  0  0
  -28.5410  -30.2320   26.4770 C   0  0  0  0  0  1  0  0  0  0  0  0
  -29.4820  -29.8890   24.1890 C   0  0  0  0  0  1  0  0  0  0  0  0
  -30.7690  -31.1930   25.8570 C   0  0  0  0  0  1  0  0  0  0  0  0
  -28.7800  -33.2790   25.8610 N   0  0  0  0  0  0  0  0  0  0  0  0
  -29.0120  -34.5890   25.6780 C   0  0  0  0  0  0  0  0  0  0  0  0
  -29.1830  -35.0720   24.5570 O   0  0  0  0  0  0  0  0  0  0  0  0
  -28.5910  -32.9610   26.8000 H   0  0  0  0  0  0  0  0  0  0  0  0
  -27.6720  -36.1140   27.1860 C   0  0  0  0  0  1  0  0  0  0  0  0
  -29.0630  -35.5150   26.9200 C   0  0  0  0  0  3  0  0  0  0  0  0
  -31.4360  -36.1740   26.8830 C   0  0  0  0  0  1  0  0  0  0  0  0
  -30.0480  -36.6190   26.8060 N   0  0  0  0  0  0  0  0  0  0  0  0
  -29.8970  -37.3150   27.5310 H   0  0  0  0  0  0  0  0  0  0  0  0
  -27.8730  -20.5890   19.2180 C   0  0  0  0  0 15  0  0  0  0  0  0
  -29.1210  -16.7160   19.1760 C   0  0  0  0  0  0  0  0  0  0  0  0
  -29.7820  -13.8780   18.5200 C   0  0  0  0  0  2  0  0  0  0  0  0
  -29.0760  -12.7680   17.6070 C   0  0  0  0  0  2  0  0  0  0  0  0
  -27.9050  -12.0750   18.2990 C   0  0  0  0  0  2  0  0  0  0  0  0
  -27.2300  -13.1240   19.1900 C   0  0  0  0  0  3  0  0  0  0  0  0
  -28.1710  -14.0580   20.0540 C   0  0  0  0  0  2  0  0  0  0  0  0
  -28.8960  -15.0950   19.1640 N   0  0  0  0  0  0  0  0  0  0  0  0
  -30.3910  -16.5380   19.0570 O   0  0  0  0  0  0  0  0  0  0  0  0
  -28.2040  -18.3620   19.1650 N   0  0  0  0  0  2  0  0  0  0  0  0
  -27.2530  -18.0140   19.1580 H   0  0  0  0  0  0  0  0  0  0  0  0
  -25.0040  -13.4620   20.2740 C   0  0  0  0  0  0  0  0  0  0  0  0
  -24.0380  -12.6330   20.7530 C   0  0  0  0  0  0  0  0  0  0  0  0
  -24.5500  -11.3030   20.6240 C   0  0  0  0  0  0  0  0  0  0  0  0
  -26.0450  -12.6510   19.8860 N   0  0  0  0  0  0  0  0  0  0  0  0
  -25.7960  -11.3340   20.1420 N   0  0  0  0  0  0  0  0  0  0  0  0
  -23.8800  -10.0170   20.8800 C   0  0  0  0  0  0  0  0  0  0  0  0
  -24.4540   -9.0310   21.7140 C   0  0  0  0  0  3  0  0  0  0  0  0
  -23.7710   -7.8210   21.9750 C   0  0  0  0  0  3  0  0  0  0  0  0
  -22.4980   -7.5850   21.4030 C   0  0  0  0  0  0  0  0  0  0  0  0
  -21.9400   -8.5570   20.5540 C   0  0  0  0  0  3  0  0  0  0  0  0
  -22.6240   -9.7580   20.2930 C   0  0  0  0  0  3  0  0  0  0  0  0
  -21.7750   -6.4280   21.5760 O   0  0  0  0  0  0  0  0  0  0  0  0
  -21.7390   -5.7720   22.7800 C   0  0  0  0  0  0  0  0  0  0  0  0
  -21.1470   -6.3490   23.9250 C   0  0  0  0  0  3  0  0  0  0  0  0
  -21.0710   -5.6140   25.1240 C   0  0  0  0  0  3  0  0  0  0  0  0
  -21.5750   -4.3010   25.1800 C   0  0  0  0  0  0  0  0  0  0  0  0
  -22.1610   -3.7230   24.0400 C   0  0  0  0  0  3  0  0  0  0  0  0
  -22.2390   -4.4550   22.8430 C   0  0  0  0  0  0  0  0  0  0  0  0
  -22.7840   -3.8850   21.7420 F   0  0  0  0  0  0  0  0  0  0  0  0
  -21.4960   -3.5910   26.3300 F   0  0  0  0  0  0  0  0  0  0  0  0
  -22.6740  -13.0610   21.2010 C   0  0  0  0  0  0  0  0  0  0  0  0
  -22.1050  -12.3630   22.1740 N   0  0  0  0  0  0  0  0  0  0  0  0
  -22.1320  -14.0570   20.7230 O   0  0  0  0  0  0  0  0  0  0  0  0
  -22.5660  -11.5590   22.5760 H   0  0  0  0  0  0  0  0  0  0  0  0
  -21.1960  -12.6340   22.5270 H   0  0  0  0  0  0  0  0  0  0  0  0
  -25.0770  -14.8420   20.0970 N   0  0  0  0  0  0  0  0  0  0  0  0
  -24.2930  -15.4520   20.3000 H   0  0  0  0  0  0  0  0  0  0  0  0
  -25.8490  -15.3170   19.6480 H   0  0  0  0  0  0  0  0  0  0  0  0
  1  5  1  0
  2  1  1  0
  3 22  1  0
  4  7  1  0
  7 10  1  0
  7  3  1  0
  8  4  2  0
 11 12  1  0
 11  4  1  0
 11 13  1  0
 13 14  1  0
 14 16  1  0
 15 26  2  0
 16 21  1  0
 17 25  1  0
 17 27  1  0
 18 20  2  0
 18 24  1  0
 19 25  1  0
 20 19  1  0
 21 20  1  0
 22 23  1  0
 22  6  1  0
 23 18  1  0
 24 17  1  0
 25 15  1  0
 27 29  2  0
 28 27  1  0
 30 28  1  0
 31 36  1  0
 32 28  1  0
 33 32  1  0
 34 35  1  0
 34 33  1  0
 35 31  1  0
 36 37  2  0
 36 32  1  0
 38 37  1  0
 39 38  2  0
 40 39  1  0
 40 31  2  0
 41 15  1  0
 41 42  1  0
 41 46  1  0
 42 45  1  1
 42 43  1  0
 44 42  1  0
 46 49  1  0
 47 46  1  0
 47 51  1  0
 48 47  2  0
 51 50  1  0
 53 52  1  0
 53 51  1  0
 53 54  1  0
 57 62  1  0
 58 59  1  0
 58 57  1  0
 60 59  1  0
 60 69  1  0
 60 61  1  0
 62 56  1  0
 62 61  1  0
 63 56  2  0
 64 56  1  0
 65 64  1  0
 66 67  2  0
 67 86  1  0
 68 67  1  0
 68 71  1  0
 69 70  1  0
 69 66  1  0
 70 68  2  0
 71 72  1  0
 72 73  2  0
 74 77  1  0
 74 73  1  0
 75 74  2  0
 76 75  1  0
 76 71  2  0
 77 78  1  0
 78 83  2  0
 78 79  1  0
 79 80  2  0
 80 81  1  0
 81 85  1  0
 82 81  2  0
 83 82  1  0
 84 83  1  0
 86 87  1  0
 87 90  1  0
 87 89  1  0
 88 86  2  0
 91 66  1  0
 91 92  1  0
 93 91  1  0
M  ISO  4  13 101  14 101  56 100  64 100
M  END
>  <TORSDO>  (95) 
F 19

>  <SCORE>  (95) 
-9.041

>  <name>  (95) 
95

>  <ligand_id>  (95) 
95

>  <original_smiles>  (95) 
[H]c1c([H])c([H])c2c(c1[H])C([H])([H])C([H])([H])C([H])([H])C2([H])N([H])C(=O)C1([H])N(C(=O)C([H])(N([H])C(=O)C([H])(N([H])C([H])([H])[H])C([H])([H])[H])C(C([H])([H])[H])(C([H])([H])[H])C([H])([H])[H])C([H])([H])c2c([H])c(OC([H])([H])C([H])(F)C(=O)N([H])c3nc(C([H])([H])[H])c(C([H])([H])N([H])C(=O)N4C([H])([H])C([H])([H])C([H])([H])C([H])(n5nc(-c6c([H])c([H])c(Oc7c([H])c([H])c(F)c([H])c7F)c([H])c6[H])c(C(=O)N([H])[H])c5N([H])[H])C4([H])[H])s3)c([H])c([H])c2C1([H])[H]

>  <smiles>  (95) 
[H]c1c([H])c([H])c2c(c1[H])C([H])([H])C([H])([H])C([H])([H])C2([H])N([H])C(=O)C1([H])N(C(=O)C([H])(N([H])C(=O)C([H])(N([H])C([H])([H])[H])C([H])([H])[H])C(C([H])([H])[H])(C([H])([H])[H])C([H])([H])[H])C([H])([H])c2c([H])c(OC([H])([H])C([H])(F)C(=O)N([H])c3nc(C([H])([H])[H])c(C([H])([H])N([H])C(=O)N4C([H])([H])C([H])([H])C([H])([H])C([H])(n5nc(-c6c([H])c([H])c(Oc7c([H])c([H])c(F)c([H])c7F)c([H])c6[H])c(C(=O)N([H])[H])c5N([H])[H])C4([H])[H])s3)c([H])c([H])c2C1([H])[H]

$$$$
96:0:0
     RDKit          3D

 98106  0  0  1  0  0  0  0  0999 V2000
  -29.1260  -20.6830   20.8020 C   0  0  0  0  0  0  0  0  0  0  0  0
  -29.3810  -21.7800   20.0530 N   0  0  0  0  0  0  0  0  0  0  0  0
  -28.6570  -20.7570   21.9420 O   0  0  0  0  0  0  0  0  0  0  0  0
  -29.7100  -21.5130   19.1240 H   0  0  0  0  0  0  0  0  0  0  0  0
  -30.6820  -14.6700   20.1340 C   0  0  0  0  0  0  0  0  0  0  0  0
  -30.3690  -12.4420   19.1010 C   0  0  0  0  0  2  0  0  0  0  0  0
  -29.4120  -12.6240   17.9050 C   0  0  0  0  0  2  0  0  0  0  0  0
  -27.9500  -12.4700   18.3720 C   0  0  0  0  0  2  0  0  0  0  0  0
  -27.6310  -13.3240   19.6300 C   0  0  0  0  0  3  0  0  0  0  0  0
  -28.7240  -13.1720   20.7160 C   0  0  0  0  0  2  0  0  0  0  0  0
  -30.0290  -13.4680   20.1060 N   0  0  0  0  0  0  0  0  0  0  0  0
  -31.7670  -14.8270   19.5730 O   0  0  0  0  0  0  0  0  0  0  0  0
  -29.5200  -19.3400   20.1670 C   0  0  0  0  0  0  0  0  0  0  0  0
  -29.8230  -19.1250   18.8260 C   0  0  0  0  0  0  0  0  0  0  0  0
  -29.9700  -17.0510   20.1900 C   0  0  0  0  0  0  0  0  0  0  0  0
  -29.5830  -18.1240   20.9120 N   0  0  0  0  0  0  0  0  0  0  0  0
  -30.0480  -15.7160   20.7290 N   0  0  0  0  0  0  0  0  0  0  0  0
  -30.2550  -17.4580   18.5020 S   0  0  0  0  0  0  0  0  0  0  0  0
  -29.3940  -15.4910   21.4590 H   0  0  0  0  0  0  0  0  0  0  0  0
  -25.2570  -13.8930   20.4460 C   0  0  0  0  0  0  0  0  0  0  0  0
  -24.2150  -13.1040   20.8530 C   0  0  0  0  0  0  0  0  0  0  0  0
  -24.6880  -11.7590   20.7860 C   0  0  0  0  0  0  0  0  0  0  0  0
  -26.3000  -13.0260   20.1570 N   0  0  0  0  0  0  0  0  0  0  0  0
  -25.9650  -11.7360   20.4230 N   0  0  0  0  0  0  0  0  0  0  0  0
  -23.9780  -10.4890   20.9930 C   0  0  0  0  0  0  0  0  0  0  0  0
  -24.4340   -9.5360   21.9310 C   0  0  0  0  0  3  0  0  0  0  0  0
  -23.7300   -8.3260   22.1230 C   0  0  0  0  0  3  0  0  0  0  0  0
  -22.5520   -8.0640   21.3810 C   0  0  0  0  0  0  0  0  0  0  0  0
  -22.1170   -9.0080   20.4320 C   0  0  0  0  0  3  0  0  0  0  0  0
  -22.8200  -10.2080   20.2380 C   0  0  0  0  0  3  0  0  0  0  0  0
  -21.8130   -6.9110   21.4870 O   0  0  0  0  0  0  0  0  0  0  0  0
  -21.7570   -6.1940   22.6590 C   0  0  0  0  0  0  0  0  0  0  0  0
  -21.2400   -6.7500   23.8500 C   0  0  0  0  0  3  0  0  0  0  0  0
  -21.1360   -5.9570   25.0100 C   0  0  0  0  0  3  0  0  0  0  0  0
  -21.5400   -4.6090   24.9800 C   0  0  0  0  0  0  0  0  0  0  0  0
  -22.0480   -4.0510   23.7930 C   0  0  0  0  0  3  0  0  0  0  0  0
  -22.1560   -4.8430   22.6360 C   0  0  0  0  0  0  0  0  0  0  0  0
  -22.6250   -4.2930   21.4880 F   0  0  0  0  0  0  0  0  0  0  0  0
  -21.4360   -3.8450   26.0910 F   0  0  0  0  0  0  0  0  0  0  0  0
  -22.8280  -13.5630   21.2000 C   0  0  0  0  0  0  0  0  0  0  0  0
  -22.1400  -12.8430   22.0780 N   0  0  0  0  0  0  0  0  0  0  0  0
  -22.3610  -14.5950   20.7200 O   0  0  0  0  0  0  0  0  0  0  0  0
  -22.5260  -12.0090   22.4920 H   0  0  0  0  0  0  0  0  0  0  0  0
  -21.2070  -13.1290   22.3400 H   0  0  0  0  0  0  0  0  0  0  0  0
  -25.4060  -15.2670   20.2690 N   0  0  0  0  0  0  0  0  0  0  0  0
  -24.6370  -15.9180   20.3970 H   0  0  0  0  0  0  0  0  0  0  0  0
  -26.2370  -15.7070   19.8930 H   0  0  0  0  0  0  0  0  0  0  0  0
  -29.8460  -20.0070   17.7350 N   0  0  0  0  0  0  0  0  0  0  0  0
  -30.7870  -20.2700   17.4430 H   0  0  0  0  0  0  0  0  0  0  0  0
  -29.4480  -19.5650   16.9100 H   0  0  0  0  0  0  0  0  0  0  0  0
  -29.3670  -23.2500   20.3340 C   0  0  0  0  0  3  0  0  0  0  0  0
  -30.9880  -22.9960   22.3620 C   0  0  0  0  0  1  0  0  0  0  0  0
  -29.7280  -23.6590   21.7840 C   0  0  0  0  0  2  0  0  0  0  0  0
  -28.1280  -24.0370   19.7550 C   0  0  0  0  0  3  0  0  0  0  0  0
  -27.0270  -24.0500   20.6510 O   0  0  0  0  0  0  0  0  0  0  0  0
  -26.7930  -23.1440   20.8370 H   0  0  0  0  0  0  0  0  0  0  0  0
  -28.3860  -25.4930   19.1730 C   0  0  0  0  0  2  0  0  0  0  0  0
  -28.2840  -26.6870   20.0080 O   0  0  0  0  0  0  0  0  0  0  0  0
  -24.5300  -31.8840   23.2290 C   0  0  0  0  0  0  0  0  0  0  0  0
  -27.1190  -27.4590   20.0030 C   0  0  0  0  0  0  0  0  0  0  0  0
  -23.3080  -30.5280   21.5640 C   0  0  0  0  0  3  0  0  0  0  0  0
  -24.7440  -29.0300   20.0710 C   0  0  0  0  0  0  0  0  0  0  0  0
  -25.8410  -30.8650   21.3650 C   0  0  0  0  0  2  0  0  0  0  0  0
  -25.9110  -29.5100   20.6770 C   0  0  0  0  0  0  0  0  0  0  0  0
  -27.0970  -28.7300   20.6470 C   0  0  0  0  0  3  0  0  0  0  0  0
  -25.9220  -27.0070   19.4030 C   0  0  0  0  0  3  0  0  0  0  0  0
  -24.7470  -27.7800   19.4310 C   0  0  0  0  0  3  0  0  0  0  0  0
  -23.4990  -29.8850   20.1630 C   0  0  0  0  0  2  0  0  0  0  0  0
  -24.5800  -31.1100   22.1070 N   0  0  0  0  0  0  0  0  0  0  0  0
  -23.4540  -32.1520   23.7810 O   0  0  0  0  0  0  0  0  0  0  0  0
  -22.6650  -29.4840   22.5030 C   0  0  0  0  0  0  0  0  0  0  0  0
  -21.3390  -29.3060   22.3780 N   0  0  0  0  0  0  0  0  0  0  0  0
  -23.3550  -28.8370   23.2960 O   0  0  0  0  0  0  0  0  0  0  0  0
  -20.8460  -29.8770   21.7050 H   0  0  0  0  0  0  0  0  0  0  0  0
  -17.9640  -28.1180   22.8860 C   0  0  0  0  0  0  0  0  0  0  0  0
  -20.5260  -28.3470   23.1270 C   0  0  0  0  0  3  0  0  0  0  0  0
  -20.6110  -26.9410   22.4930 C   0  0  0  0  0  2  0  0  0  0  0  0
  -19.4910  -26.6630   21.4860 C   0  0  0  0  0  2  0  0  0  0  0  0
  -18.1200  -26.7940   22.1580 C   0  0  0  0  0  2  0  0  0  0  0  0
  -19.0950  -28.8560   23.3260 C   0  0  0  0  0  0  0  0  0  0  0  0
  -18.8960  -30.1000   23.9640 C   0  0  0  0  0  3  0  0  0  0  0  0
  -17.5990  -30.6040   24.1640 C   0  0  0  0  0  3  0  0  0  0  0  0
  -16.4810  -29.8620   23.7430 C   0  0  0  0  0  3  0  0  0  0  0  0
  -16.6670  -28.6190   23.1100 C   0  0  0  0  0  3  0  0  0  0  0  0
  -25.8230  -32.4950   23.8550 C   0  0  0  0  0  3  0  0  0  0  0  0
  -25.5410  -33.9020   24.1760 N   0  0  0  0  0  0  0  0  0  0  0  0
  -25.9090  -34.9430   23.4150 C   0  0  0  0  0  0  0  0  0  0  0  0
  -26.5890  -34.8180   22.3950 O   0  0  0  0  0  0  0  0  0  0  0  0
  -24.9320  -34.0770   24.9610 H   0  0  0  0  0  0  0  0  0  0  0  0
  -24.2330  -36.7720   23.0210 C   0  0  0  0  0  1  0  0  0  0  0  0
  -25.4450  -36.3410   23.8610 C   0  0  0  0  0  3  0  0  0  0  0  0
  -27.5680  -37.1810   24.7610 C   0  0  0  0  0  1  0  0  0  0  0  0
  -26.5050  -37.3690   23.7760 N   0  0  0  0  0  0  0  0  0  0  0  0
  -26.1160  -38.2990   23.9020 H   0  0  0  0  0  0  0  0  0  0  0  0
  -26.3140  -31.7230   25.1400 C   0  0  1  0  0  0  0  0  0  0  0  0
  -25.2000  -31.5060   26.1910 C   0  0  0  0  0  1  0  0  0  0  0  0
  -26.8780  -30.3360   24.7600 C   0  0  0  0  0  1  0  0  0  0  0  0
  -27.4750  -32.5010   25.8060 C   0  0  0  0  0  1  0  0  0  0  0  0
  1  3  2  0
  2 51  1  0
  2  1  1  0
  4  2  1  0
  5 17  1  0
  6 11  1  0
  7  8  1  0
  7  6  1  0
  9  8  1  0
  9 23  1  0
  9 10  1  0
 11  5  1  0
 11 10  1  0
 12  5  2  0
 13  1  1  0
 13 16  1  0
 14 13  2  0
 15 17  1  0
 15 16  2  0
 17 19  1  0
 18 14  1  0
 18 15  1  0
 20 21  2  0
 21 40  1  0
 22 21  1  0
 22 25  1  0
 23 24  1  0
 23 20  1  0
 24 22  2  0
 25 26  1  0
 26 27  2  0
 28 31  1  0
 28 27  1  0
 29 28  2  0
 30 29  1  0
 30 25  2  0
 31 32  1  0
 32 33  1  0
 33 34  2  0
 35 34  1  0
 35 39  1  0
 36 35  2  0
 37 32  2  0
 37 36  1  0
 38 37  1  0
 40 41  1  0
 41 44  1  0
 41 43  1  0
 42 40  2  0
 45 46  1  0
 45 20  1  0
 47 45  1  0
 48 14  1  0
 49 48  1  0
 50 48  1  0
 51 53  1  0
 53 52  1  0
 54 57  1  0
 54 51  1  0
 54 55  1  0
 55 56  1  0
 57 58  1  0
 59 70  2  0
 60 58  1  0
 60 65  1  0
 61 69  1  0
 61 71  1  0
 62 68  1  0
 62 64  1  0
 63 69  1  0
 64 63  1  0
 65 64  2  0
 66 67  1  0
 66 60  2  0
 67 62  2  0
 68 61  1  0
 69 59  1  0
 71 73  2  0
 72 71  1  0
 74 72  1  0
 75 84  2  0
 75 80  1  0
 76 72  1  0
 76 80  1  0
 77 76  1  0
 78 79  1  0
 78 77  1  0
 79 75  1  0
 80 81  2  0
 81 82  1  0
 83 82  2  0
 84 83  1  0
 85 59  1  0
 85 86  1  0
 85 95  1  0
 86 89  1  0
 87 91  1  0
 87 86  1  0
 88 87  2  0
 91 90  1  0
 93 91  1  0
 93 94  1  0
 93 92  1  0
 95 98  1  1
 95 96  1  0
 97 95  1  0
M  ISO  4   5 100  17 100  57 101  58 101
M  END
>  <TORSDO>  (96) 
F 22

>  <SCORE>  (96) 
-12.899

>  <name>  (96) 
96

>  <ligand_id>  (96) 
96

>  <original_smiles>  (96) 
[H]OC([H])(C([H])([H])Oc1c([H])c([H])c2c(c1[H])C([H])([H])N(C(=O)C([H])(N([H])C(=O)C([H])(N([H])C([H])([H])[H])C([H])([H])[H])C(C([H])([H])[H])(C([H])([H])[H])C([H])([H])[H])C([H])(C(=O)N([H])C1([H])c3c([H])c([H])c([H])c([H])c3C([H])([H])C([H])([H])C1([H])[H])C2([H])[H])C([H])(N([H])C(=O)c1nc(N([H])C(=O)N2C([H])([H])C([H])([H])C([H])([H])C([H])(n3nc(-c4c([H])c([H])c(Oc5c([H])c([H])c(F)c([H])c5F)c([H])c4[H])c(C(=O)N([H])[H])c3N([H])[H])C2([H])[H])sc1N([H])[H])C([H])([H])C([H])([H])[H]

>  <smiles>  (96) 
[H]OC([H])(C([H])([H])Oc1c([H])c([H])c2c(c1[H])C([H])([H])N(C(=O)C([H])(N([H])C(=O)C([H])(N([H])C([H])([H])[H])C([H])([H])[H])C(C([H])([H])[H])(C([H])([H])[H])C([H])([H])[H])C([H])(C(=O)N([H])C1([H])c3c([H])c([H])c([H])c([H])c3C([H])([H])C([H])([H])C1([H])[H])C2([H])[H])C([H])(N([H])C(=O)c1nc(N([H])C(=O)N2C([H])([H])C([H])([H])C([H])([H])C([H])(n3nc(-c4c([H])c([H])c(Oc5c([H])c([H])c(F)c([H])c5F)c([H])c4[H])c(C(=O)N([H])[H])c3N([H])[H])C2([H])[H])sc1N([H])[H])C([H])([H])C([H])([H])[H]

$$$$
97:0:0
     RDKit          3D

 94102  0  0  1  0  0  0  0  0999 V2000
  -28.6290  -21.6540   20.2510 N   0  0  0  0  0  0  0  0  0  0  0  0
  -27.6400  -21.4340   20.2310 H   0  0  0  0  0  0  0  0  0  0  0  0
  -30.4910  -15.1570   20.2840 C   0  0  0  0  0  0  0  0  0  0  0  0
  -30.3870  -12.7800   19.3570 C   0  0  0  0  0  2  0  0  0  0  0  0
  -29.4390  -12.6760   18.1390 C   0  0  0  0  0  2  0  0  0  0  0  0
  -27.9890  -12.4350   18.6000 C   0  0  0  0  0  2  0  0  0  0  0  0
  -27.5800  -13.3770   19.7600 C   0  0  0  0  0  3  0  0  0  0  0  0
  -28.6490  -13.4350   20.8730 C   0  0  0  0  0  2  0  0  0  0  0  0
  -29.8950  -13.8860   20.2420 N   0  0  0  0  0  0  0  0  0  0  0  0
  -31.6770  -15.1590   19.9340 O   0  0  0  0  0  0  0  0  0  0  0  0
  -31.8250  -19.6010   20.3870 C   0  0  0  0  0  3  0  0  0  0  0  0
  -31.4040  -18.2730   20.5890 C   0  0  0  0  0  0  0  0  0  0  0  0
  -30.9260  -20.6650   20.1960 C   0  0  0  0  0  0  0  0  0  0  0  0
  -30.0390  -17.9110   20.4570 C   0  0  0  0  0  0  0  0  0  0  0  0
  -29.5330  -20.4450   20.2770 C   0  0  0  0  0  0  0  0  0  0  0  0
  -29.1410  -19.0530   20.3560 N   0  0  0  0  0  0  0  0  0  0  0  0
  -29.7360  -16.3740   20.4990 N   0  0  0  0  0  0  0  0  0  0  0  0
  -32.3520  -17.3740   20.9390 F   0  0  0  0  0  0  0  0  0  0  0  0
  -31.4390  -21.8960   19.9450 F   0  0  0  0  0  0  0  0  0  0  0  0
  -28.7680  -16.1790   20.6940 H   0  0  0  0  0  0  0  0  0  0  0  0
  -25.2140  -13.9280   20.5560 C   0  0  0  0  0  0  0  0  0  0  0  0
  -24.1620  -13.1420   20.9350 C   0  0  0  0  0  0  0  0  0  0  0  0
  -24.6340  -11.7940   20.8770 C   0  0  0  0  0  0  0  0  0  0  0  0
  -26.2560  -13.0600   20.2830 N   0  0  0  0  0  0  0  0  0  0  0  0
  -25.9180  -11.7710   20.5430 N   0  0  0  0  0  0  0  0  0  0  0  0
  -23.9160  -10.5250   21.0580 C   0  0  0  0  0  0  0  0  0  0  0  0
  -24.3550   -9.5540   21.9850 C   0  0  0  0  0  3  0  0  0  0  0  0
  -23.6380   -8.3500   22.1560 C   0  0  0  0  0  3  0  0  0  0  0  0
  -22.4640   -8.1100   21.4030 C   0  0  0  0  0  0  0  0  0  0  0  0
  -22.0460   -9.0680   20.4620 C   0  0  0  0  0  3  0  0  0  0  0  0
  -22.7640  -10.2640   20.2880 C   0  0  0  0  0  3  0  0  0  0  0  0
  -21.7160   -6.9610   21.4850 O   0  0  0  0  0  0  0  0  0  0  0  0
  -21.6540   -6.2250   22.6410 C   0  0  0  0  0  0  0  0  0  0  0  0
  -21.1570   -6.7690   23.8460 C   0  0  0  0  0  3  0  0  0  0  0  0
  -21.0460   -5.9560   24.9910 C   0  0  0  0  0  3  0  0  0  0  0  0
  -21.4210   -4.6020   24.9340 C   0  0  0  0  0  0  0  0  0  0  0  0
  -21.9080   -4.0560   23.7330 C   0  0  0  0  0  3  0  0  0  0  0  0
  -22.0220   -4.8660   22.5900 C   0  0  0  0  0  0  0  0  0  0  0  0
  -22.4740   -4.3310   21.4310 F   0  0  0  0  0  0  0  0  0  0  0  0
  -21.3060   -3.8180   26.0310 F   0  0  0  0  0  0  0  0  0  0  0  0
  -22.7670  -13.6090   21.2360 C   0  0  0  0  0  0  0  0  0  0  0  0
  -22.0570  -12.8970   22.1050 N   0  0  0  0  0  0  0  0  0  0  0  0
  -22.3170  -14.6390   20.7370 O   0  0  0  0  0  0  0  0  0  0  0  0
  -22.4340  -12.0610   22.5270 H   0  0  0  0  0  0  0  0  0  0  0  0
  -21.1240  -13.1910   22.3520 H   0  0  0  0  0  0  0  0  0  0  0  0
  -25.3700  -15.3000   20.3910 N   0  0  0  0  0  0  0  0  0  0  0  0
  -24.6020  -15.9540   20.5160 H   0  0  0  0  0  0  0  0  0  0  0  0
  -26.2010  -15.7360   20.0120 H   0  0  0  0  0  0  0  0  0  0  0  0
  -29.5230  -23.3830   21.8660 C   0  0  0  0  0  1  0  0  0  0  0  0
  -28.9390  -23.2110   20.4520 C   0  0  0  0  0  3  0  0  0  0  0  0
  -27.8380  -24.5270   20.1850 C   0  0  0  0  0  3  0  0  0  0  0  0
  -26.5440  -24.9420   22.4250 C   0  0  0  0  0  1  0  0  0  0  0  0
  -26.5760  -24.2470   21.0490 C   0  0  0  0  0  2  0  0  0  0  0  0
  -28.1340  -26.1070   20.2470 O   0  0  0  0  0  0  0  0  0  0  0  0
  -24.6140  -31.9330   23.2470 C   0  0  0  0  0  0  0  0  0  0  0  0
  -27.1300  -27.1680   20.1580 C   0  0  0  0  0  0  0  0  0  0  0  0
  -23.4000  -30.5590   21.6000 C   0  0  0  0  0  3  0  0  0  0  0  0
  -24.8330  -28.9850   20.1450 C   0  0  0  0  0  0  0  0  0  0  0  0
  -25.9560  -30.7910   21.4300 C   0  0  0  0  0  2  0  0  0  0  0  0
  -26.0170  -29.3940   20.7720 C   0  0  0  0  0  0  0  0  0  0  0  0
  -27.1620  -28.4990   20.7670 C   0  0  0  0  0  3  0  0  0  0  0  0
  -25.9420  -26.9070   19.4440 C   0  0  0  0  0  3  0  0  0  0  0  0
  -24.8160  -27.7610   19.4580 C   0  0  0  0  0  3  0  0  0  0  0  0
  -23.6130  -29.8930   20.2120 C   0  0  0  0  0  2  0  0  0  0  0  0
  -24.6780  -31.1200   22.1460 N   0  0  0  0  0  0  0  0  0  0  0  0
  -23.5320  -32.2170   23.7820 O   0  0  0  0  0  0  0  0  0  0  0  0
  -22.7170  -29.5500   22.5590 C   0  0  0  0  0  0  0  0  0  0  0  0
  -21.3880  -29.3790   22.4330 N   0  0  0  0  0  0  0  0  0  0  0  0
  -23.3860  -28.9240   23.3840 O   0  0  0  0  0  0  0  0  0  0  0  0
  -20.9010  -29.9450   21.7510 H   0  0  0  0  0  0  0  0  0  0  0  0
  -18.0070  -28.1670   22.9320 C   0  0  0  0  0  0  0  0  0  0  0  0
  -20.5670  -28.4350   23.1970 C   0  0  0  0  0  3  0  0  0  0  0  0
  -20.6690  -27.0070   22.6110 C   0  0  0  0  0  2  0  0  0  0  0  0
  -19.5660  -26.6910   21.5950 C   0  0  0  0  0  2  0  0  0  0  0  0
  -18.1850  -26.8250   22.2420 C   0  0  0  0  0  2  0  0  0  0  0  0
  -19.1250  -28.9300   23.3670 C   0  0  0  0  0  0  0  0  0  0  0  0
  -18.9010  -30.1860   23.9730 C   0  0  0  0  0  3  0  0  0  0  0  0
  -17.5940  -30.6800   24.1450 C   0  0  0  0  0  3  0  0  0  0  0  0
  -16.4910  -29.9160   23.7220 C   0  0  0  0  0  3  0  0  0  0  0  0
  -16.7000  -28.6600   23.1260 C   0  0  0  0  0  3  0  0  0  0  0  0
  -25.8950  -32.5600   23.8750 C   0  0  0  0  0  3  0  0  0  0  0  0
  -26.3870  -31.7960   25.1650 C   0  0  1  0  0  0  0  0  0  0  0  0
  -25.2840  -31.5830   26.2300 C   0  0  0  0  0  1  0  0  0  0  0  0
  -26.9510  -30.4070   24.7910 C   0  0  0  0  0  1  0  0  0  0  0  0
  -27.5440  -32.5780   25.8330 C   0  0  0  0  0  1  0  0  0  0  0  0
  -25.6000  -33.9660   24.1960 N   0  0  0  0  0  0  0  0  0  0  0  0
  -25.9200  -35.0130   23.4230 C   0  0  0  0  0  0  0  0  0  0  0  0
  -26.5590  -34.8930   22.3740 O   0  0  0  0  0  0  0  0  0  0  0  0
  -25.0390  -34.1310   25.0200 H   0  0  0  0  0  0  0  0  0  0  0  0
  -24.1870  -36.8120   23.1150 C   0  0  0  0  0  1  0  0  0  0  0  0
  -25.4590  -36.4120   23.8800 C   0  0  0  0  0  3  0  0  0  0  0  0
  -27.6280  -37.3070   24.6150 C   0  0  0  0  0  1  0  0  0  0  0  0
  -26.4920  -37.4590   23.7080 N   0  0  0  0  0  0  0  0  0  0  0  0
  -26.0950  -38.3850   23.8460 H   0  0  0  0  0  0  0  0  0  0  0  0
  1 15  1  0
  1 50  1  0
  2  1  1  0
  3 17  1  0
  4  9  1  0
  5  6  1  0
  5  4  1  0
  7  6  1  0
  7 24  1  0
  7  8  1  0
  9  3  1  0
  9  8  1  0
 10  3  2  0
 11 12  1  0
 12 18  1  0
 13 15  1  0
 13 11  2  0
 14 17  1  0
 14 12  2  0
 15 16  2  0
 16 14  1  0
 17 20  1  0
 19 13  1  0
 21 22  2  0
 22 41  1  0
 23 22  1  0
 23 26  1  0
 24 25  1  0
 24 21  1  0
 25 23  2  0
 26 27  1  0
 27 28  2  0
 29 32  1  0
 29 28  1  0
 30 29  2  0
 31 30  1  0
 31 26  2  0
 32 33  1  0
 33 34  1  0
 34 35  2  0
 36 35  1  0
 36 40  1  0
 37 36  2  0
 38 33  2  0
 38 37  1  0
 39 38  1  0
 41 42  1  0
 42 45  1  0
 42 44  1  0
 43 41  2  0
 46 47  1  0
 46 21  1  0
 48 46  1  0
 50 49  1  0
 51 54  1  0
 51 50  1  0
 51 53  1  0
 53 52  1  0
 55 66  2  0
 56 54  1  0
 56 61  1  0
 57 65  1  0
 57 67  1  0
 58 64  1  0
 58 60  1  0
 59 65  1  0
 60 59  1  0
 61 60  2  0
 62 63  1  0
 62 56  2  0
 63 58  2  0
 64 57  1  0
 65 55  1  0
 67 69  2  0
 68 67  1  0
 70 68  1  0
 71 80  2  0
 71 76  1  0
 72 68  1  0
 72 76  1  0
 73 72  1  0
 74 75  1  0
 74 73  1  0
 75 71  1  0
 76 77  2  0
 77 78  1  0
 79 78  2  0
 80 79  1  0
 81 55  1  0
 81 86  1  0
 81 82  1  0
 82 85  1  1
 82 83  1  0
 84 82  1  0
 86 89  1  0
 87 91  1  0
 87 86  1  0
 88 87  2  0
 91 90  1  0
 93 94  1  0
 93 91  1  0
 93 92  1  0
M  ISO  4   3 100  17 100  51 101  54 101
M  END
>  <TORSDO>  (97) 
F 19

>  <SCORE>  (97) 
-14.939

>  <name>  (97) 
97

>  <ligand_id>  (97) 
97

>  <original_smiles>  (97) 
[H]c1c([H])c([H])c2c(c1[H])C([H])([H])C([H])([H])C([H])([H])C2([H])N([H])C(=O)C1([H])N(C(=O)C([H])(N([H])C(=O)C([H])(N([H])C([H])([H])[H])C([H])([H])[H])C(C([H])([H])[H])(C([H])([H])[H])C([H])([H])[H])C([H])([H])c2c([H])c(OC([H])(C([H])([H])C([H])([H])[H])C([H])(N([H])c3nc(N([H])C(=O)N4C([H])([H])C([H])([H])C([H])([H])C([H])(n5nc(-c6c([H])c([H])c(Oc7c([H])c([H])c(F)c([H])c7F)c([H])c6[H])c(C(=O)N([H])[H])c5N([H])[H])C4([H])[H])c(F)c([H])c3F)C([H])([H])[H])c([H])c([H])c2C1([H])[H]

>  <smiles>  (97) 
[H]c1c([H])c([H])c2c(c1[H])C([H])([H])C([H])([H])C([H])([H])C2([H])N([H])C(=O)C1([H])N(C(=O)C([H])(N([H])C(=O)C([H])(N([H])C([H])([H])[H])C([H])([H])[H])C(C([H])([H])[H])(C([H])([H])[H])C([H])([H])[H])C([H])([H])c2c([H])c(OC([H])(C([H])([H])C([H])([H])[H])C([H])(N([H])c3nc(N([H])C(=O)N4C([H])([H])C([H])([H])C([H])([H])C([H])(n5nc(-c6c([H])c([H])c(Oc7c([H])c([H])c(F)c([H])c7F)c([H])c6[H])c(C(=O)N([H])[H])c5N([H])[H])C4([H])[H])c(F)c([H])c3F)C([H])([H])[H])c([H])c([H])c2C1([H])[H]

$$$$
