0:0:0
     RDKit          3D

 96104  0  0  1  0  0  0  0  0999 V2000
  -28.9160  -18.9290   18.3580 C   0  0  0  0  0  3  0  0  0  0  0  0
  -29.3990  -17.8090   19.0630 C   0  0  0  0  0  0  0  0  0  0  0  0
  -29.9030  -18.0640   20.3660 C   0  0  0  0  0  0  0  0  0  0  0  0
  -29.4740  -20.3210   20.0640 C   0  0  0  0  0  0  0  0  0  0  0  0
  -28.9600  -20.1730   18.8580 N   0  0  0  0  0  0  0  0  0  0  0  0
  -29.9310  -19.3410   20.8400 N   0  0  0  0  0  0  0  0  0  0  0  0
  -29.5690  -21.6260   20.5300 N   0  0  0  0  0  0  0  0  0  0  0  0
  -29.8790  -21.7480   21.4880 H   0  0  0  0  0  0  0  0  0  0  0  0
  -29.3930  -16.5590   18.4310 N   0  0  0  0  0  0  0  0  0  0  0  0
  -29.2240  -16.5440   17.4280 H   0  0  0  0  0  0  0  0  0  0  0  0
  -30.1180  -15.9010   18.7000 H   0  0  0  0  0  0  0  0  0  0  0  0
  -30.4920  -16.9870   21.3100 C   0  0  0  0  0  2  0  0  0  0  0  0
  -30.6930  -14.5590   20.6750 C   0  0  0  0  0  0  0  0  0  0  0  0
  -30.4290  -12.3830   19.5320 C   0  0  0  0  0  2  0  0  0  0  0  0
  -29.5250  -12.5630   18.2960 C   0  0  0  0  0  2  0  0  0  0  0  0
  -28.0420  -12.4100   18.6840 C   0  0  0  0  0  2  0  0  0  0  0  0
  -27.6600  -13.2620   19.9240 C   0  0  0  0  0  3  0  0  0  0  0  0
  -28.6820  -13.0760   21.0680 C   0  0  0  0  0  2  0  0  0  0  0  0
  -30.0190  -13.3820   20.5330 N   0  0  0  0  0  0  0  0  0  0  0  0
  -31.8290  -14.7250   20.2280 O   0  0  0  0  0  0  0  0  0  0  0  0
  -30.0030  -15.5930   21.1930 N   0  0  0  0  0  0  0  0  0  0  0  0
  -29.0470  -15.4280   21.4630 H   0  0  0  0  0  0  0  0  0  0  0  0
  -25.2370  -13.8560   20.5550 C   0  0  0  0  0  0  0  0  0  0  0  0
  -24.1640  -13.0780   20.9000 C   0  0  0  0  0  0  0  0  0  0  0  0
  -24.6350  -11.7300   20.8970 C   0  0  0  0  0  0  0  0  0  0  0  0
  -26.2950  -12.9800   20.3650 N   0  0  0  0  0  0  0  0  0  0  0  0
  -25.9340  -11.6970   20.6280 N   0  0  0  0  0  0  0  0  0  0  0  0
  -23.9120  -10.4640   21.0780 C   0  0  0  0  0  0  0  0  0  0  0  0
  -24.3250   -9.5070   22.0300 C   0  0  0  0  0  3  0  0  0  0  0  0
  -23.6020   -8.3050   22.1980 C   0  0  0  0  0  3  0  0  0  0  0  0
  -22.4520   -8.0540   21.4120 C   0  0  0  0  0  0  0  0  0  0  0  0
  -22.0590   -9.0000   20.4500 C   0  0  0  0  0  3  0  0  0  0  0  0
  -22.7820  -10.1920   20.2810 C   0  0  0  0  0  3  0  0  0  0  0  0
  -21.7030   -6.9050   21.4880 O   0  0  0  0  0  0  0  0  0  0  0  0
  -21.6270   -6.1700   22.6440 C   0  0  0  0  0  0  0  0  0  0  0  0
  -21.1480   -6.7280   23.8500 C   0  0  0  0  0  3  0  0  0  0  0  0
  -21.0200   -5.9190   24.9980 C   0  0  0  0  0  3  0  0  0  0  0  0
  -21.3600   -4.5550   24.9390 C   0  0  0  0  0  0  0  0  0  0  0  0
  -21.8310   -3.9960   23.7390 C   0  0  0  0  0  3  0  0  0  0  0  0
  -21.9600   -4.8020   22.5940 C   0  0  0  0  0  0  0  0  0  0  0  0
  -22.3950   -4.2540   21.4330 F   0  0  0  0  0  0  0  0  0  0  0  0
  -21.2300   -3.7760   26.0380 F   0  0  0  0  0  0  0  0  0  0  0  0
  -22.7550  -13.5490   21.1250 C   0  0  0  0  0  0  0  0  0  0  0  0
  -22.0050  -12.8520   21.9720 N   0  0  0  0  0  0  0  0  0  0  0  0
  -22.3270  -14.5670   20.5840 O   0  0  0  0  0  0  0  0  0  0  0  0
  -22.3630  -12.0270   22.4300 H   0  0  0  0  0  0  0  0  0  0  0  0
  -21.0600  -13.1490   22.1670 H   0  0  0  0  0  0  0  0  0  0  0  0
  -25.3990  -15.2260   20.3670 N   0  0  0  0  0  0  0  0  0  0  0  0
  -24.6240  -15.8760   20.4290 H   0  0  0  0  0  0  0  0  0  0  0  0
  -26.2530  -15.6540   20.0280 H   0  0  0  0  0  0  0  0  0  0  0  0
  -28.8150  -22.7460   19.9380 C   0  0  0  0  0  2  0  0  0  0  0  0
  -29.1650  -24.1700   20.4780 C   0  0  0  0  0  3  0  0  0  0  0  0
  -29.1020  -24.0950   21.8940 O   0  0  0  0  0  0  0  0  0  0  0  0
  -29.2530  -24.9760   22.2230 H   0  0  0  0  0  0  0  0  0  0  0  0
  -28.1050  -25.2070   19.9850 C   0  0  0  0  0  2  0  0  0  0  0  0
  -28.3270  -26.6270   20.2180 O   0  0  0  0  0  0  0  0  0  0  0  0
  -24.5720  -31.9150   23.2580 C   0  0  0  0  0  0  0  0  0  0  0  0
  -27.1890  -27.4310   20.1640 C   0  0  0  0  0  0  0  0  0  0  0  0
  -23.3610  -30.5190   21.6210 C   0  0  0  0  0  3  0  0  0  0  0  0
  -24.8070  -28.9910   20.1810 C   0  0  0  0  0  0  0  0  0  0  0  0
  -25.8940  -30.8610   21.4220 C   0  0  0  0  0  2  0  0  0  0  0  0
  -25.9740  -29.4910   20.7730 C   0  0  0  0  0  0  0  0  0  0  0  0
  -27.1670  -28.7190   20.7630 C   0  0  0  0  0  3  0  0  0  0  0  0
  -26.0000  -26.9800   19.5370 C   0  0  0  0  0  3  0  0  0  0  0  0
  -24.8180  -27.7370   19.5570 C   0  0  0  0  0  3  0  0  0  0  0  0
  -23.5670  -29.8520   20.2370 C   0  0  0  0  0  2  0  0  0  0  0  0
  -24.6280  -31.1140   22.1580 N   0  0  0  0  0  0  0  0  0  0  0  0
  -23.4930  -32.1880   23.8000 O   0  0  0  0  0  0  0  0  0  0  0  0
  -22.7120  -29.4930   22.5790 C   0  0  0  0  0  0  0  0  0  0  0  0
  -21.3870  -29.3080   22.4530 N   0  0  0  0  0  0  0  0  0  0  0  0
  -23.3960  -28.8680   23.3930 O   0  0  0  0  0  0  0  0  0  0  0  0
  -20.8950  -29.8620   21.7660 H   0  0  0  0  0  0  0  0  0  0  0  0
  -18.0140  -28.1070   22.9530 C   0  0  0  0  0  0  0  0  0  0  0  0
  -20.5720  -28.3690   23.2230 C   0  0  0  0  0  3  0  0  0  0  0  0
  -20.6760  -26.9380   22.6470 C   0  0  0  0  0  2  0  0  0  0  0  0
  -19.5730  -26.6150   21.6340 C   0  0  0  0  0  2  0  0  0  0  0  0
  -18.1920  -26.7580   22.2780 C   0  0  0  0  0  2  0  0  0  0  0  0
  -19.1320  -28.8710   23.3830 C   0  0  0  0  0  0  0  0  0  0  0  0
  -18.9110  -30.1350   23.9720 C   0  0  0  0  0  3  0  0  0  0  0  0
  -17.6060  -30.6350   24.1380 C   0  0  0  0  0  3  0  0  0  0  0  0
  -16.5020  -29.8680   23.7260 C   0  0  0  0  0  3  0  0  0  0  0  0
  -16.7080  -28.6070   23.1390 C   0  0  0  0  0  3  0  0  0  0  0  0
  -25.8600  -32.5450   23.8740 C   0  0  0  0  0  3  0  0  0  0  0  0
  -25.5570  -33.9460   24.1940 N   0  0  0  0  0  0  0  0  0  0  0  0
  -25.8990  -34.9920   23.4310 C   0  0  0  0  0  0  0  0  0  0  0  0
  -26.5760  -34.8790   22.4040 O   0  0  0  0  0  0  0  0  0  0  0  0
  -24.9600  -34.1090   24.9920 H   0  0  0  0  0  0  0  0  0  0  0  0
  -24.1930  -36.7980   23.0400 C   0  0  0  0  0  1  0  0  0  0  0  0
  -25.4160  -36.3850   23.8760 C   0  0  0  0  0  3  0  0  0  0  0  0
  -27.5390  -37.2550   24.7470 C   0  0  0  0  0  1  0  0  0  0  0  0
  -26.4590  -37.4290   23.7810 N   0  0  0  0  0  0  0  0  0  0  0  0
  -26.0580  -38.3530   23.9170 H   0  0  0  0  0  0  0  0  0  0  0  0
  -26.3760  -31.7790   25.1530 C   0  0  1  0  0  0  0  0  0  0  0  0
  -25.2820  -31.5490   26.2220 C   0  0  0  0  0  1  0  0  0  0  0  0
  -26.9550  -30.3980   24.7670 C   0  0  0  0  0  1  0  0  0  0  0  0
  -27.5280  -32.5730   25.8110 C   0  0  0  0  0  1  0  0  0  0  0  0
  1  5  1  0
  1  2  2  0
  2  3  1  0
  3  6  2  0
  3 12  1  0
  4  7  1  0
  4  6  1  0
  5  4  2  0
  7  8  1  0
  9 11  1  0
  9  2  1  0
 10  9  1  0
 13 21  1  0
 14 19  1  0
 15 16  1  0
 15 14  1  0
 17 16  1  0
 17 26  1  0
 17 18  1  0
 19 13  1  0
 19 18  1  0
 20 13  2  0
 21 12  1  0
 21 22  1  0
 23 24  2  0
 24 43  1  0
 25 24  1  0
 25 28  1  0
 26 23  1  0
 26 27  1  0
 27 25  2  0
 28 29  1  0
 29 30  2  0
 31 34  1  0
 31 30  1  0
 32 31  2  0
 33 32  1  0
 33 28  2  0
 34 35  1  0
 35 36  1  0
 36 37  2  0
 38 37  1  0
 38 42  1  0
 39 38  2  0
 40 35  2  0
 40 39  1  0
 41 40  1  0
 43 44  1  0
 44 47  1  0
 44 46  1  0
 45 43  2  0
 48 49  1  0
 48 23  1  0
 50 48  1  0
 51  7  1  0
 52 51  1  0
 52 53  1  0
 53 54  1  0
 55 56  1  0
 55 52  1  0
 57 68  2  0
 58 56  1  0
 58 63  1  0
 59 67  1  0
 59 69  1  0
 60 66  1  0
 60 62  1  0
 61 67  1  0
 62 61  1  0
 63 62  2  0
 64 65  1  0
 64 58  2  0
 65 60  2  0
 66 59  1  0
 67 57  1  0
 69 71  2  0
 70 69  1  0
 72 70  1  0
 73 82  2  0
 73 78  1  0
 74 70  1  0
 74 78  1  0
 75 74  1  0
 76 77  1  0
 76 75  1  0
 77 73  1  0
 78 79  2  0
 79 80  1  0
 81 80  2  0
 82 81  1  0
 83 57  1  0
 83 84  1  0
 83 93  1  0
 84 87  1  0
 85 89  1  0
 85 84  1  0
 86 85  2  0
 89 88  1  0
 91 89  1  0
 91 92  1  0
 91 90  1  0
 93 96  1  1
 93 94  1  0
 95 93  1  0
M  ISO  4  13 100  21 100  55 101  56 101
M  END
>  <TORSDO>  (1) 
F 22

>  <SCORE>  (1) 
-13.657

>  <name>  (1) 
0

>  <ligand_id>  (1) 
0

>  <original_smiles>  (1) 
[H]OC([H])(C([H])([H])Oc1c([H])c([H])c2c(c1[H])C([H])([H])N(C(=O)C([H])(N([H])C(=O)C([H])(N([H])C([H])([H])[H])C([H])([H])[H])C(C([H])([H])[H])(C([H])([H])[H])C([H])([H])[H])C([H])(C(=O)N([H])C1([H])c3c([H])c([H])c([H])c([H])c3C([H])([H])C([H])([H])C1([H])[H])C2([H])[H])C([H])([H])N([H])c1nc([H])c(N([H])[H])c(C([H])([H])N([H])C(=O)N2C([H])([H])C([H])([H])C([H])([H])C([H])(n3nc(-c4c([H])c([H])c(Oc5c([H])c([H])c(F)c([H])c5F)c([H])c4[H])c(C(=O)N([H])[H])c3N([H])[H])C2([H])[H])n1

>  <smiles>  (1) 
[H]OC([H])(C([H])([H])Oc1c([H])c([H])c2c(c1[H])C([H])([H])N(C(=O)C([H])(N([H])C(=O)C([H])(N([H])C([H])([H])[H])C([H])([H])[H])C(C([H])([H])[H])(C([H])([H])[H])C([H])([H])[H])C([H])(C(=O)N([H])C1([H])c3c([H])c([H])c([H])c([H])c3C([H])([H])C([H])([H])C1([H])[H])C2([H])[H])C([H])([H])N([H])c1nc([H])c(N([H])[H])c(C([H])([H])N([H])C(=O)N2C([H])([H])C([H])([H])C([H])([H])C([H])(n3nc(-c4c([H])c([H])c(Oc5c([H])c([H])c(F)c([H])c5F)c([H])c4[H])c(C(=O)N([H])[H])c3N([H])[H])C2([H])[H])n1

$$$$
1:0:0
     RDKit          3D

 99107  0  0  1  0  0  0  0  0999 V2000
  -30.6020  -14.7940   20.4920 C   0  0  0  0  0  0  0  0  0  0  0  0
  -30.3980  -12.5210   19.4780 C   0  0  0  0  0  2  0  0  0  0  0  0
  -29.4890  -12.6290   18.2330 C   0  0  0  0  0  2  0  0  0  0  0  0
  -28.0060  -12.4830   18.6250 C   0  0  0  0  0  2  0  0  0  0  0  0
  -27.6210  -13.3510   19.8520 C   0  0  0  0  0  3  0  0  0  0  0  0
  -28.6560  -13.2260   20.9930 C   0  0  0  0  0  2  0  0  0  0  0  0
  -29.9750  -13.5650   20.4410 N   0  0  0  0  0  0  0  0  0  0  0  0
  -31.7850  -14.8840   20.1360 O   0  0  0  0  0  0  0  0  0  0  0  0
  -29.3980  -17.1840   18.8000 C   0  0  0  0  0  0  0  0  0  0  0  0
  -29.1040  -18.3940   18.1490 C   0  0  0  0  0  0  0  0  0  0  0  0
  -29.7310  -17.2310   20.1730 C   0  0  0  0  0  0  0  0  0  0  0  0
  -29.4400  -19.6290   20.0460 C   0  0  0  0  0  0  0  0  0  0  0  0
  -29.1030  -19.5840   18.7640 N   0  0  0  0  0  0  0  0  0  0  0  0
  -29.7310  -18.5010   20.7740 N   0  0  0  0  0  0  0  0  0  0  0  0
  -29.8610  -15.9120   20.8480 N   0  0  0  0  0  0  0  0  0  0  0  0
  -29.4600  -20.9460   20.6330 N   0  0  0  0  0  0  0  0  0  0  0  0
  -29.3090  -16.0110   18.1250 F   0  0  0  0  0  0  0  0  0  0  0  0
  -29.0270  -15.6650   21.3530 H   0  0  0  0  0  0  0  0  0  0  0  0
  -29.7100  -20.9720   21.6120 H   0  0  0  0  0  0  0  0  0  0  0  0
  -25.2200  -13.9590   20.5240 C   0  0  0  0  0  0  0  0  0  0  0  0
  -24.1420  -13.1940   20.8810 C   0  0  0  0  0  0  0  0  0  0  0  0
  -24.6010  -11.8420   20.8750 C   0  0  0  0  0  0  0  0  0  0  0  0
  -26.2650  -13.0730   20.3160 N   0  0  0  0  0  0  0  0  0  0  0  0
  -25.8970  -11.7950   20.5920 N   0  0  0  0  0  0  0  0  0  0  0  0
  -23.8640  -10.5850   21.0630 C   0  0  0  0  0  0  0  0  0  0  0  0
  -24.2830   -9.6170   22.0020 C   0  0  0  0  0  3  0  0  0  0  0  0
  -23.5470   -8.4260   22.1800 C   0  0  0  0  0  3  0  0  0  0  0  0
  -22.3770   -8.1930   21.4190 C   0  0  0  0  0  0  0  0  0  0  0  0
  -21.9780   -9.1490   20.4690 C   0  0  0  0  0  3  0  0  0  0  0  0
  -22.7140  -10.3310   20.2890 C   0  0  0  0  0  3  0  0  0  0  0  0
  -21.6150   -7.0530   21.5030 O   0  0  0  0  0  0  0  0  0  0  0  0
  -21.5640   -6.3040   22.6510 C   0  0  0  0  0  0  0  0  0  0  0  0
  -21.1640   -6.8610   23.8860 C   0  0  0  0  0  3  0  0  0  0  0  0
  -21.0610   -6.0390   25.0270 C   0  0  0  0  0  3  0  0  0  0  0  0
  -21.3440   -4.6630   24.9330 C   0  0  0  0  0  0  0  0  0  0  0  0
  -21.7350   -4.1070   23.7040 C   0  0  0  0  0  3  0  0  0  0  0  0
  -21.8430   -4.9250   22.5660 C   0  0  0  0  0  0  0  0  0  0  0  0
  -22.1990   -4.3790   21.3780 F   0  0  0  0  0  0  0  0  0  0  0  0
  -21.2370   -3.8740   26.0270 F   0  0  0  0  0  0  0  0  0  0  0  0
  -22.7410  -13.6800   21.1150 C   0  0  0  0  0  0  0  0  0  0  0  0
  -21.9880  -13.0010   21.9750 N   0  0  0  0  0  0  0  0  0  0  0  0
  -22.3200  -14.6990   20.5700 O   0  0  0  0  0  0  0  0  0  0  0  0
  -22.3380  -12.1790   22.4430 H   0  0  0  0  0  0  0  0  0  0  0  0
  -21.0460  -13.3100   22.1660 H   0  0  0  0  0  0  0  0  0  0  0  0
  -25.3950  -15.3270   20.3300 N   0  0  0  0  0  0  0  0  0  0  0  0
  -24.6290  -15.9870   20.4040 H   0  0  0  0  0  0  0  0  0  0  0  0
  -26.2360  -15.7430   19.9560 H   0  0  0  0  0  0  0  0  0  0  0  0
  -28.7770  -18.4060   16.8000 N   0  0  0  0  0  0  0  0  0  0  0  0
  -28.5490  -17.5180   16.3720 H   0  0  0  0  0  0  0  0  0  0  0  0
  -28.3050  -19.2120   16.4100 H   0  0  0  0  0  0  0  0  0  0  0  0
  -29.0960  -22.2860   19.9770 C   0  0  0  0  0  3  0  0  0  0  0  0
  -29.9710  -22.5420   18.7310 C   0  0  0  0  0  0  0  0  0  0  0  0
  -31.1760  -22.2660   18.7030 O   0  0  0  0  0  0  0  0  0  0  0  0
  -30.1440  -23.1630   16.2440 C   0  0  0  0  0  1  0  0  0  0  0  0
  -29.3040  -23.2170   17.5320 C   0  0  0  0  0  2  0  0  0  0  0  0
  -29.1340  -23.6830   20.8330 C   0  0  0  0  0  2  0  0  0  0  0  0
  -26.9120  -24.5120   21.6170 C   0  0  0  0  0  1  0  0  0  0  0  0
  -28.0110  -24.8350   20.5740 C   0  0  0  0  0  3  0  0  0  0  0  0
  -28.3070  -26.3300   20.6060 O   0  0  0  0  0  0  0  0  0  0  0  0
  -24.5740  -31.9650   23.2690 C   0  0  0  0  0  0  0  0  0  0  0  0
  -27.2520  -27.2690   20.4240 C   0  0  0  0  0  0  0  0  0  0  0  0
  -23.4210  -30.5190   21.6380 C   0  0  0  0  0  3  0  0  0  0  0  0
  -24.9120  -28.9370   20.2870 C   0  0  0  0  0  0  0  0  0  0  0  0
  -25.9700  -30.8220   21.5240 C   0  0  0  0  0  2  0  0  0  0  0  0
  -26.0680  -29.4240   20.9080 C   0  0  0  0  0  0  0  0  0  0  0  0
  -27.2430  -28.6010   20.9680 C   0  0  0  0  0  3  0  0  0  0  0  0
  -26.0870  -26.8800   19.7230 C   0  0  0  0  0  3  0  0  0  0  0  0
  -24.9280  -27.6750   19.6800 C   0  0  0  0  0  3  0  0  0  0  0  0
  -23.6750  -29.8130   20.2830 C   0  0  0  0  0  2  0  0  0  0  0  0
  -24.6720  -31.1220   22.1990 N   0  0  0  0  0  0  0  0  0  0  0  0
  -23.4750  -32.2580   23.7630 O   0  0  0  0  0  0  0  0  0  0  0  0
  -22.7300  -29.5290   22.6090 C   0  0  0  0  0  0  0  0  0  0  0  0
  -21.4040  -29.3600   22.4650 N   0  0  0  0  0  0  0  0  0  0  0  0
  -23.3890  -28.9160   23.4540 O   0  0  0  0  0  0  0  0  0  0  0  0
  -20.9310  -29.9070   21.7590 H   0  0  0  0  0  0  0  0  0  0  0  0
  -18.0040  -28.2180   22.9600 C   0  0  0  0  0  0  0  0  0  0  0  0
  -20.5630  -28.4460   23.2440 C   0  0  0  0  0  3  0  0  0  0  0  0
  -20.6480  -27.0030   22.6920 C   0  0  0  0  0  2  0  0  0  0  0  0
  -19.5490  -26.6800   21.6750 C   0  0  0  0  0  2  0  0  0  0  0  0
  -18.1660  -26.8570   22.3060 C   0  0  0  0  0  2  0  0  0  0  0  0
  -19.1300  -28.9710   23.3860 C   0  0  0  0  0  0  0  0  0  0  0  0
  -18.9250  -30.2440   23.9590 C   0  0  0  0  0  3  0  0  0  0  0  0
  -17.6260  -30.7670   24.1080 C   0  0  0  0  0  3  0  0  0  0  0  0
  -16.5140  -30.0110   23.6970 C   0  0  0  0  0  3  0  0  0  0  0  0
  -16.7030  -28.7390   23.1290 C   0  0  0  0  0  3  0  0  0  0  0  0
  -25.8380  -32.6190   23.9080 C   0  0  0  0  0  3  0  0  0  0  0  0
  -25.5090  -34.0200   24.2110 N   0  0  0  0  0  0  0  0  0  0  0  0
  -25.8540  -35.0660   23.4480 C   0  0  0  0  0  0  0  0  0  0  0  0
  -26.5480  -34.9530   22.4340 O   0  0  0  0  0  0  0  0  0  0  0  0
  -24.8900  -34.1810   24.9930 H   0  0  0  0  0  0  0  0  0  0  0  0
  -24.1250  -36.8440   23.0260 C   0  0  0  0  0  1  0  0  0  0  0  0
  -25.3460  -36.4570   23.8750 C   0  0  0  0  0  3  0  0  0  0  0  0
  -27.4560  -37.3620   24.7470 C   0  0  0  0  0  1  0  0  0  0  0  0
  -26.3760  -37.5150   23.7760 N   0  0  0  0  0  0  0  0  0  0  0  0
  -25.9610  -38.4340   23.9060 H   0  0  0  0  0  0  0  0  0  0  0  0
  -26.3330  -31.8730   25.2080 C   0  0  1  0  0  0  0  0  0  0  0  0
  -25.2170  -31.6360   26.2510 C   0  0  0  0  0  1  0  0  0  0  0  0
  -26.9480  -30.4980   24.8530 C   0  0  0  0  0  1  0  0  0  0  0  0
  -27.4560  -32.6950   25.8850 C   0  0  0  0  0  1  0  0  0  0  0  0
  1 15  1  0
  2  7  1  0
  3  4  1  0
  3  2  1  0
  5  4  1  0
  5 23  1  0
  5  6  1  0
  7  1  1  0
  7  6  1  0
  8  1  2  0
  9 11  1  0
 10 13  1  0
 10  9  2  0
 11 14  2  0
 11 15  1  0
 12 16  1  0
 12 14  1  0
 13 12  2  0
 15 18  1  0
 16 19  1  0
 17  9  1  0
 20 21  2  0
 21 40  1  0
 22 21  1  0
 22 25  1  0
 23 20  1  0
 23 24  1  0
 24 22  2  0
 25 26  1  0
 26 27  2  0
 28 31  1  0
 28 27  1  0
 29 28  2  0
 30 29  1  0
 30 25  2  0
 31 32  1  0
 32 33  1  0
 33 34  2  0
 35 34  1  0
 35 39  1  0
 36 35  2  0
 37 32  2  0
 37 36  1  0
 38 37  1  0
 40 41  1  0
 41 44  1  0
 41 43  1  0
 42 40  2  0
 45 46  1  0
 45 20  1  0
 47 45  1  0
 48 10  1  0
 49 48  1  0
 50 48  1  0
 51 16  1  0
 51 56  1  0
 52 51  1  0
 53 52  2  0
 54 55  1  0
 55 52  1  0
 58 59  1  0
 58 56  1  0
 58 57  1  0
 60 71  2  0
 61 59  1  0
 61 66  1  0
 62 70  1  0
 62 72  1  0
 63 65  1  0
 64 70  1  0
 65 66  2  0
 65 64  1  0
 67 61  2  0
 68 67  1  0
 68 63  2  0
 69 63  1  0
 69 62  1  0
 70 60  1  0
 72 74  2  0
 73 72  1  0
 75 73  1  0
 76 85  2  0
 76 81  1  0
 77 73  1  0
 77 81  1  0
 78 77  1  0
 79 80  1  0
 79 78  1  0
 80 76  1  0
 81 82  2  0
 82 83  1  0
 84 83  2  0
 85 84  1  0
 86 60  1  0
 86 87  1  0
 86 96  1  0
 87 90  1  0
 88 92  1  0
 88 87  1  0
 89 88  2  0
 92 91  1  0
 94 92  1  0
 94 95  1  0
 94 93  1  0
 96 99  1  1
 96 97  1  0
 98 96  1  0
M  ISO  4   1 100  15 100  58 101  59 101
M  END
>  <TORSDO>  (2) 
F 21

>  <SCORE>  (2) 
-13.605

>  <name>  (2) 
1

>  <ligand_id>  (2) 
1

>  <original_smiles>  (2) 
[H]c1c([H])c([H])c2c(c1[H])C([H])([H])C([H])([H])C([H])([H])C2([H])N([H])C(=O)C1([H])N(C(=O)C([H])(N([H])C(=O)C([H])(N([H])C([H])([H])[H])C([H])([H])[H])C(C([H])([H])[H])(C([H])([H])[H])C([H])([H])[H])C([H])([H])c2c([H])c(OC([H])(C([H])([H])[H])C([H])([H])C([H])(C(=O)C([H])([H])C([H])([H])[H])N([H])c3nc(N([H])[H])c(F)c(N([H])C(=O)N4C([H])([H])C([H])([H])C([H])([H])C([H])(n5nc(-c6c([H])c([H])c(Oc7c([H])c([H])c(F)c([H])c7F)c([H])c6[H])c(C(=O)N([H])[H])c5N([H])[H])C4([H])[H])n3)c([H])c([H])c2C1([H])[H]

>  <smiles>  (2) 
[H]c1c([H])c([H])c2c(c1[H])C([H])([H])C([H])([H])C([H])([H])C2([H])N([H])C(=O)C1([H])N(C(=O)C([H])(N([H])C(=O)C([H])(N([H])C([H])([H])[H])C([H])([H])[H])C(C([H])([H])[H])(C([H])([H])[H])C([H])([H])[H])C([H])([H])c2c([H])c(OC([H])(C([H])([H])[H])C([H])([H])C([H])(C(=O)C([H])([H])C([H])([H])[H])N([H])c3nc(N([H])[H])c(F)c(N([H])C(=O)N4C([H])([H])C([H])([H])C([H])([H])C([H])(n5nc(-c6c([H])c([H])c(Oc7c([H])c([H])c(F)c([H])c7F)c([H])c6[H])c(C(=O)N([H])[H])c5N([H])[H])C4([H])[H])n3)c([H])c([H])c2C1([H])[H]

$$$$
2:0:0
     RDKit          3D

 92100  0  0  1  0  0  0  0  0999 V2000
  -29.4820  -20.8890   20.0620 N   0  0  0  0  0  0  0  0  0  0  0  0
  -30.5000  -20.9020   20.0370 H   0  0  0  0  0  0  0  0  0  0  0  0
  -26.8460  -18.1090   19.4920 C   0  0  0  0  0  3  0  0  0  0  0  0
  -29.1170  -18.1760   19.8860 C   0  0  0  0  0  0  0  0  0  0  0  0
  -28.8090  -19.5960   19.9070 C   0  0  0  0  0  0  0  0  0  0  0  0
  -27.9600  -17.4070   19.6440 N   0  0  0  0  0  0  0  0  0  0  0  0
  -27.0860  -19.8160   19.5870 S   0  0  0  0  0  0  0  0  0  0  0  0
  -30.9550  -14.8250   20.5840 C   0  0  0  0  0  0  0  0  0  0  0  0
  -30.9060  -12.3550   20.1620 C   0  0  0  0  0  2  0  0  0  0  0  0
  -30.1310  -12.0930   18.8530 C   0  0  0  0  0  2  0  0  0  0  0  0
  -28.6170  -11.9770   19.1240 C   0  0  0  0  0  2  0  0  0  0  0  0
  -28.0850  -13.1050   20.0500 C   0  0  0  0  0  3  0  0  0  0  0  0
  -29.0020  -13.3390   21.2710 C   0  0  0  0  0  2  0  0  0  0  0  0
  -30.3550  -13.5940   20.7630 N   0  0  0  0  0  0  0  0  0  0  0  0
  -32.1710  -14.8660   20.3780 O   0  0  0  0  0  0  0  0  0  0  0  0
  -30.3820  -17.2580   20.0670 C   0  0  0  0  0  0  0  0  0  0  0  0
  -30.1340  -15.9350   20.4390 N   0  0  0  0  0  0  0  0  0  0  0  0
  -31.5210  -17.7050   19.8810 O   0  0  0  0  0  0  0  0  0  0  0  0
  -29.1470  -15.7800   20.5770 H   0  0  0  0  0  0  0  0  0  0  0  0
  -25.6690  -13.7990   20.5540 C   0  0  0  0  0  0  0  0  0  0  0  0
  -24.5480  -13.0810   20.8650 C   0  0  0  0  0  0  0  0  0  0  0  0
  -24.9620  -11.7150   20.9220 C   0  0  0  0  0  0  0  0  0  0  0  0
  -26.6970  -12.8790   20.4410 N   0  0  0  0  0  0  0  0  0  0  0  0
  -26.2710  -11.6210   20.7250 N   0  0  0  0  0  0  0  0  0  0  0  0
  -24.1710  -10.4900   21.0990 C   0  0  0  0  0  0  0  0  0  0  0  0
  -24.5320   -9.5100   22.0500 C   0  0  0  0  0  3  0  0  0  0  0  0
  -23.7450   -8.3510   22.2140 C   0  0  0  0  0  3  0  0  0  0  0  0
  -22.5840   -8.1610   21.4290 C   0  0  0  0  0  0  0  0  0  0  0  0
  -22.2410   -9.1300   20.4680 C   0  0  0  0  0  3  0  0  0  0  0  0
  -23.0280  -10.2810   20.3010 C   0  0  0  0  0  3  0  0  0  0  0  0
  -21.7750   -7.0540   21.5020 O   0  0  0  0  0  0  0  0  0  0  0  0
  -21.7010   -6.2880   22.6370 C   0  0  0  0  0  0  0  0  0  0  0  0
  -21.2980   -6.8310   23.8760 C   0  0  0  0  0  3  0  0  0  0  0  0
  -21.1710   -5.9950   25.0040 C   0  0  0  0  0  3  0  0  0  0  0  0
  -21.4340   -4.6170   24.8920 C   0  0  0  0  0  0  0  0  0  0  0  0
  -21.8290   -4.0740   23.6570 C   0  0  0  0  0  3  0  0  0  0  0  0
  -21.9580   -4.9070   22.5330 C   0  0  0  0  0  0  0  0  0  0  0  0
  -22.3180   -4.3760   21.3410 F   0  0  0  0  0  0  0  0  0  0  0  0
  -21.3030   -3.8110   25.9720 F   0  0  0  0  0  0  0  0  0  0  0  0
  -23.1560  -13.6220   21.0060 C   0  0  0  0  0  0  0  0  0  0  0  0
  -22.3450  -13.0080   21.8620 N   0  0  0  0  0  0  0  0  0  0  0  0
  -22.7940  -14.6250   20.3920 O   0  0  0  0  0  0  0  0  0  0  0  0
  -22.6470  -12.1960   22.3800 H   0  0  0  0  0  0  0  0  0  0  0  0
  -21.4080  -13.3560   22.0030 H   0  0  0  0  0  0  0  0  0  0  0  0
  -25.8880  -15.1530   20.3360 N   0  0  0  0  0  0  0  0  0  0  0  0
  -25.1190  -15.8110   20.3330 H   0  0  0  0  0  0  0  0  0  0  0  0
  -26.7850  -15.5840   20.1460 H   0  0  0  0  0  0  0  0  0  0  0  0
  -29.0660  -22.0700   22.1950 C   0  0  0  0  0  1  0  0  0  0  0  0
  -28.8250  -22.1340   20.6770 C   0  0  0  0  0  3  0  0  0  0  0  0
  -29.1520  -23.6350   20.1310 C   0  0  0  0  0  3  0  0  0  0  0  0
  -28.2170  -24.8790   20.6340 C   0  0  0  0  0  3  0  0  0  0  0  0
  -28.4790  -26.3420   20.3690 O   0  0  0  0  0  0  0  0  0  0  0  0
  -24.6650  -31.8290   23.2760 C   0  0  0  0  0  0  0  0  0  0  0  0
  -27.3780  -27.2320   20.3190 C   0  0  0  0  0  0  0  0  0  0  0  0
  -23.5170  -30.4270   21.5980 C   0  0  0  0  0  3  0  0  0  0  0  0
  -25.0170  -28.8720   20.2200 C   0  0  0  0  0  0  0  0  0  0  0  0
  -26.0610  -30.7400   21.4960 C   0  0  0  0  0  2  0  0  0  0  0  0
  -26.1670  -29.3540   20.8590 C   0  0  0  0  0  0  0  0  0  0  0  0
  -27.3520  -28.5480   20.8930 C   0  0  0  0  0  3  0  0  0  0  0  0
  -26.2100  -26.8200   19.6430 C   0  0  0  0  0  3  0  0  0  0  0  0
  -25.0450  -27.6130   19.6000 C   0  0  0  0  0  3  0  0  0  0  0  0
  -23.7780  -29.7480   20.2260 C   0  0  0  0  0  2  0  0  0  0  0  0
  -24.7650  -31.0180   22.1800 N   0  0  0  0  0  0  0  0  0  0  0  0
  -23.5660  -32.1070   23.7750 O   0  0  0  0  0  0  0  0  0  0  0  0
  -22.8230  -29.4130   22.5380 C   0  0  0  0  0  0  0  0  0  0  0  0
  -21.4950  -29.2610   22.3940 N   0  0  0  0  0  0  0  0  0  0  0  0
  -23.4780  -28.7670   23.3610 O   0  0  0  0  0  0  0  0  0  0  0  0
  -21.0270  -29.8330   21.7050 H   0  0  0  0  0  0  0  0  0  0  0  0
  -18.0830  -28.1550   22.8780 C   0  0  0  0  0  0  0  0  0  0  0  0
  -20.6500  -28.3280   23.1420 C   0  0  0  0  0  3  0  0  0  0  0  0
  -20.7050  -26.9110   22.5260 C   0  0  0  0  0  2  0  0  0  0  0  0
  -19.5890  -26.6510   21.5100 C   0  0  0  0  0  2  0  0  0  0  0  0
  -18.2150  -26.8200   22.1630 C   0  0  0  0  0  2  0  0  0  0  0  0
  -19.2270  -28.8690   23.3250 C   0  0  0  0  0  0  0  0  0  0  0  0
  -19.0490  -30.1200   23.9530 C   0  0  0  0  0  3  0  0  0  0  0  0
  -17.7610  -30.6570   24.1390 C   0  0  0  0  0  3  0  0  0  0  0  0
  -16.6320  -29.9380   23.7080 C   0  0  0  0  0  3  0  0  0  0  0  0
  -16.7940  -28.6890   23.0840 C   0  0  0  0  0  3  0  0  0  0  0  0
  -25.9260  -32.4620   23.9410 C   0  0  0  0  0  3  0  0  0  0  0  0
  -26.3740  -31.7130   25.2560 C   0  0  1  0  0  0  0  0  0  0  0  0
  -25.2290  -31.5030   26.2730 C   0  0  0  0  0  1  0  0  0  0  0  0
  -26.9660  -30.3240   24.9200 C   0  0  0  0  0  1  0  0  0  0  0  0
  -27.5000  -32.5110   25.9550 C   0  0  0  0  0  1  0  0  0  0  0  0
  -25.6220  -33.8710   24.2270 N   0  0  0  0  0  0  0  0  0  0  0  0
  -25.9850  -34.9010   23.4520 C   0  0  0  0  0  0  0  0  0  0  0  0
  -26.6820  -34.7650   22.4430 O   0  0  0  0  0  0  0  0  0  0  0  0
  -25.0060  -34.0500   25.0070 H   0  0  0  0  0  0  0  0  0  0  0  0
  -24.2740  -36.6930   23.0110 C   0  0  0  0  0  1  0  0  0  0  0  0
  -25.4980  -36.3050   23.8570 C   0  0  0  0  0  3  0  0  0  0  0  0
  -27.6180  -37.2070   24.7060 C   0  0  0  0  0  1  0  0  0  0  0  0
  -26.5390  -37.3500   23.7320 N   0  0  0  0  0  0  0  0  0  0  0  0
  -26.1350  -38.2760   23.8390 H   0  0  0  0  0  0  0  0  0  0  0  0
  1 49  1  0
  2  1  1  0
  3  7  1  0
  3  6  2  0
  4  5  2  0
  4 16  1  0
  5  1  1  0
  6  4  1  0
  7  5  1  0
  8 14  1  0
  9 14  1  0
 10 11  1  0
 10  9  1  0
 12 11  1  0
 12 23  1  0
 12 13  1  0
 14 13  1  0
 15  8  2  0
 16 17  1  0
 17 19  1  0
 17  8  1  0
 18 16  2  0
 20 21  2  0
 21 22  1  0
 21 40  1  0
 22 25  1  0
 23 20  1  0
 23 24  1  0
 24 22  2  0
 25 26  1  0
 26 27  2  0
 28 31  1  0
 28 27  1  0
 29 28  2  0
 30 29  1  0
 30 25  2  0
 31 32  1  0
 32 33  1  0
 33 34  2  0
 35 34  1  0
 35 39  1  0
 36 35  2  0
 37 32  2  0
 37 36  1  0
 38 37  1  0
 40 41  1  0
 41 44  1  0
 41 43  1  0
 42 40  2  0
 45 20  1  0
 46 45  1  0
 47 45  1  0
 49 48  1  0
 50 51  2  0
 50 49  1  0
 52 51  1  0
 53 64  2  0
 54 52  1  0
 54 59  1  0
 55 63  1  0
 55 65  1  0
 56 62  1  0
 56 58  1  0
 57 63  1  0
 58 59  2  0
 58 57  1  0
 60 54  2  0
 61 60  1  0
 61 56  2  0
 62 55  1  0
 63 53  1  0
 65 67  2  0
 66 65  1  0
 68 66  1  0
 69 78  2  0
 69 74  1  0
 70 66  1  0
 70 74  1  0
 71 70  1  0
 72 73  1  0
 72 71  1  0
 73 69  1  0
 74 75  2  0
 75 76  1  0
 77 76  2  0
 78 77  1  0
 79 53  1  0
 79 84  1  0
 79 80  1  0
 80 83  1  1
 80 81  1  0
 82 80  1  0
 84 87  1  0
 85 89  1  0
 85 84  1  0
 86 85  2  0
 89 88  1  0
 91 92  1  0
 91 89  1  0
 91 90  1  0
M  ISO  4   8 100  17 100  51 101  52 101
M  END
>  <TORSDO>  (3) 
F 20

>  <SCORE>  (3) 
-13.211

>  <name>  (3) 
2

>  <ligand_id>  (3) 
2

>  <original_smiles>  (3) 
[H]c1nc(C(=O)N([H])C(=O)N2C([H])([H])C([H])([H])C([H])([H])C([H])(n3nc(-c4c([H])c([H])c(Oc5c([H])c([H])c(F)c([H])c5F)c([H])c4[H])c(C(=O)N([H])[H])c3N([H])[H])C2([H])[H])c(N([H])C([H])(C([H])([H])[H])C([H])([H])C([H])([H])Oc2c([H])c([H])c3c(c2[H])C([H])([H])N(C(=O)C([H])(N([H])C(=O)C([H])(N([H])C([H])([H])[H])C([H])([H])[H])C(C([H])([H])[H])(C([H])([H])[H])C([H])([H])[H])C([H])(C(=O)N([H])C2([H])c4c([H])c([H])c([H])c([H])c4C([H])([H])C([H])([H])C2([H])[H])C3([H])[H])s1

>  <smiles>  (3) 
[H]c1nc(C(=O)N([H])C(=O)N2C([H])([H])C([H])([H])C([H])([H])C([H])(n3nc(-c4c([H])c([H])c(Oc5c([H])c([H])c(F)c([H])c5F)c([H])c4[H])c(C(=O)N([H])[H])c3N([H])[H])C2([H])[H])c(N([H])C([H])(C([H])([H])[H])C([H])([H])C([H])([H])Oc2c([H])c([H])c3c(c2[H])C([H])([H])N(C(=O)C([H])(N([H])C(=O)C([H])(N([H])C([H])([H])[H])C([H])([H])[H])C(C([H])([H])[H])(C([H])([H])[H])C([H])([H])[H])C([H])(C(=O)N([H])C2([H])c4c([H])c([H])c([H])c([H])c4C([H])([H])C([H])([H])C2([H])[H])C3([H])[H])s1

$$$$
3:0:0
     RDKit          3D

 97105  0  0  1  0  0  0  0  0999 V2000
  -29.6080  -23.0870   21.0370 C   0  0  0  0  0  3  0  0  0  0  0  0
  -28.8980  -21.8990   20.4360 N   0  0  0  0  0  4  0  0  0  0  0  0
  -27.9130  -22.1020   20.4970 H   0  0  0  0  0  0  0  0  0  0  0  0
  -29.1270  -21.8000   19.4620 H   0  0  0  0  0  0  0  0  0  0  0  0
  -29.0320  -20.5410   21.0780 C   0  0  0  0  0  2  0  0  0  0  0  0
  -31.0050  -14.6100   19.8830 C   0  0  0  0  0  0  0  0  0  0  0  0
  -30.6390  -12.3690   18.9020 C   0  0  0  0  0  2  0  0  0  0  0  0
  -29.6330  -12.5010   17.7390 C   0  0  0  0  0  2  0  0  0  0  0  0
  -28.1910  -12.3770   18.2640 C   0  0  0  0  0  2  0  0  0  0  0  0
  -27.9190  -13.2840   19.4920 C   0  0  0  0  0  3  0  0  0  0  0  0
  -29.0410  -13.1600   20.5490 C   0  0  0  0  0  2  0  0  0  0  0  0
  -30.3230  -13.4270   19.8810 N   0  0  0  0  0  0  0  0  0  0  0  0
  -32.1450  -14.6800   19.4100 O   0  0  0  0  0  0  0  0  0  0  0  0
  -31.0180  -19.8590   19.5900 C   0  0  0  0  0  3  0  0  0  0  0  0
  -29.7190  -18.0890   20.6050 C   0  0  0  0  0  3  0  0  0  0  0  0
  -31.8240  -18.8500   19.0430 C   0  0  0  0  0  3  0  0  0  0  0  0
  -29.9280  -19.4860   20.3960 C   0  0  0  0  0  0  0  0  0  0  0  0
  -30.5820  -17.1130   20.0290 C   0  0  0  0  0  0  0  0  0  0  0  0
  -31.6110  -17.5330   19.2530 N   0  0  0  0  0  0  0  0  0  0  0  0
  -30.3120  -15.7140   20.2810 N   0  0  0  0  0  0  0  0  0  0  0  0
  -29.4220  -15.5170   20.7050 H   0  0  0  0  0  0  0  0  0  0  0  0
  -25.6080  -13.9300   20.4080 C   0  0  0  0  0  0  0  0  0  0  0  0
  -24.5460  -13.1760   20.8310 C   0  0  0  0  0  0  0  0  0  0  0  0
  -24.9600  -11.8130   20.7170 C   0  0  0  0  0  0  0  0  0  0  0  0
  -26.6020  -13.0280   20.0670 N   0  0  0  0  0  0  0  0  0  0  0  0
  -26.2230  -11.7470   20.3120 N   0  0  0  0  0  0  0  0  0  0  0  0
  -24.2090  -10.5650   20.9130 C   0  0  0  0  0  0  0  0  0  0  0  0
  -24.6210   -9.5930   21.8520 C   0  0  0  0  0  3  0  0  0  0  0  0
  -23.8690   -8.4120   22.0340 C   0  0  0  0  0  3  0  0  0  0  0  0
  -22.6920   -8.1970   21.2780 C   0  0  0  0  0  0  0  0  0  0  0  0
  -22.3000   -9.1580   20.3300 C   0  0  0  0  0  3  0  0  0  0  0  0
  -23.0530  -10.3290   20.1440 C   0  0  0  0  0  3  0  0  0  0  0  0
  -21.9110   -7.0700   21.3720 O   0  0  0  0  0  0  0  0  0  0  0  0
  -21.7740   -6.3850   22.5530 C   0  0  0  0  0  0  0  0  0  0  0  0
  -21.2360   -6.9930   23.7090 C   0  0  0  0  0  3  0  0  0  0  0  0
  -21.0490   -6.2340   24.8810 C   0  0  0  0  0  3  0  0  0  0  0  0
  -21.3880   -4.8670   24.8960 C   0  0  0  0  0  0  0  0  0  0  0  0
  -21.9180   -4.2590   23.7460 C   0  0  0  0  0  3  0  0  0  0  0  0
  -22.1070   -5.0160   22.5760 C   0  0  0  0  0  0  0  0  0  0  0  0
  -22.5990   -4.4190   21.4630 F   0  0  0  0  0  0  0  0  0  0  0  0
  -21.2000   -4.1350   26.0200 F   0  0  0  0  0  0  0  0  0  0  0  0
  -23.1890  -13.6840   21.2230 C   0  0  0  0  0  0  0  0  0  0  0  0
  -22.5050  -12.9780   22.1170 N   0  0  0  0  0  0  0  0  0  0  0  0
  -22.7470  -14.7390   20.7720 O   0  0  0  0  0  0  0  0  0  0  0  0
  -22.8750  -12.1200   22.4990 H   0  0  0  0  0  0  0  0  0  0  0  0
  -21.5970  -13.2990   22.4210 H   0  0  0  0  0  0  0  0  0  0  0  0
  -25.8030  -15.3010   20.2650 N   0  0  0  0  0  0  0  0  0  0  0  0
  -25.0580  -15.9690   20.4340 H   0  0  0  0  0  0  0  0  0  0  0  0
  -26.6210  -15.7220   19.8440 H   0  0  0  0  0  0  0  0  0  0  0  0
  -29.1560  -23.2960   22.5140 C   0  0  0  0  0  0  0  0  0  0  0  0
  -28.3480  -22.5490   23.0740 O   0  0  0  0  0  0  0  0  0  0  0  0
  -28.6670  -25.2300   24.1460 C   0  0  0  0  0  1  0  0  0  0  0  0
  -29.7190  -24.4970   23.2900 C   0  0  0  0  0  2  0  0  0  0  0  0
  -29.5310  -24.4370   20.1840 C   0  0  0  0  0  2  0  0  0  0  0  0
  -27.2240  -25.2440   21.1490 C   0  0  0  0  0  1  0  0  0  0  0  0
  -28.1960  -25.2450   19.9430 C   0  0  0  0  0  3  0  0  0  0  0  0
  -28.4590  -26.6390   19.5550 O   0  0  0  0  0  0  0  0  0  0  0  0
  -24.6830  -31.5910   23.0420 C   0  0  0  0  0  0  0  0  0  0  0  0
  -27.3460  -27.4710   19.5160 C   0  0  0  0  0  0  0  0  0  0  0  0
  -23.4800  -30.3120   21.3030 C   0  0  0  0  0  3  0  0  0  0  0  0
  -24.9370  -28.9520   19.7060 C   0  0  0  0  0  0  0  0  0  0  0  0
  -26.0020  -30.7250   21.1080 C   0  0  0  0  0  2  0  0  0  0  0  0
  -26.1000  -29.4280   20.3280 C   0  0  0  0  0  0  0  0  0  0  0  0
  -27.3110  -28.6950   20.2310 C   0  0  0  0  0  3  0  0  0  0  0  0
  -26.1760  -27.0480   18.8460 C   0  0  0  0  0  3  0  0  0  0  0  0
  -24.9720  -27.7640   18.9610 C   0  0  0  0  0  3  0  0  0  0  0  0
  -23.6780  -29.7710   19.8630 C   0  0  0  0  0  2  0  0  0  0  0  0
  -24.7400  -30.8880   21.8740 N   0  0  0  0  0  0  0  0  0  0  0  0
  -23.6060  -31.7920   23.6190 O   0  0  0  0  0  0  0  0  0  0  0  0
  -22.8650  -29.1950   22.1790 C   0  0  0  0  0  0  0  0  0  0  0  0
  -21.5390  -29.0060   22.0680 N   0  0  0  0  0  0  0  0  0  0  0  0
  -23.5750  -28.5080   22.9170 O   0  0  0  0  0  0  0  0  0  0  0  0
  -21.0270  -29.6190   21.4500 H   0  0  0  0  0  0  0  0  0  0  0  0
  -18.1890  -27.7450   22.5730 C   0  0  0  0  0  0  0  0  0  0  0  0
  -20.7540  -27.9880   22.7680 C   0  0  0  0  0  3  0  0  0  0  0  0
  -20.8360  -26.6250   22.0430 C   0  0  0  0  0  2  0  0  0  0  0  0
  -19.6970  -26.4040   21.0440 C   0  0  0  0  0  2  0  0  0  0  0  0
  -18.3400  -26.4730   21.7530 C   0  0  0  0  0  2  0  0  0  0  0  0
  -19.3220  -28.4640   23.0340 C   0  0  0  0  0  0  0  0  0  0  0  0
  -19.1280  -29.6560   23.7630 C   0  0  0  0  0  3  0  0  0  0  0  0
  -17.8310  -30.1340   24.0310 C   0  0  0  0  0  3  0  0  0  0  0  0
  -16.7110  -29.4100   23.5880 C   0  0  0  0  0  3  0  0  0  0  0  0
  -16.8900  -28.2170   22.8650 C   0  0  0  0  0  3  0  0  0  0  0  0
  -25.9640  -32.1970   23.6930 C   0  0  0  0  0  3  0  0  0  0  0  0
  -26.4930  -31.3590   24.9220 C   0  0  1  0  0  0  0  0  0  0  0  0
  -25.4080  -31.0510   25.9820 C   0  0  0  0  0  1  0  0  0  0  0  0
  -27.0850  -30.0100   24.4510 C   0  0  0  0  0  1  0  0  0  0  0  0
  -27.6400  -32.1250   25.6210 C   0  0  0  0  0  1  0  0  0  0  0  0
  -25.6470  -33.5720   24.0990 N   0  0  0  0  0  0  0  0  0  0  0  0
  -25.9810  -34.6690   23.4040 C   0  0  0  0  0  0  0  0  0  0  0  0
  -26.6560  -34.6270   22.3730 O   0  0  0  0  0  0  0  0  0  0  0  0
  -25.0460  -33.6780   24.9020 H   0  0  0  0  0  0  0  0  0  0  0  0
  -24.2420  -36.4700   23.1490 C   0  0  0  0  0  1  0  0  0  0  0  0
  -25.4830  -36.0250   23.9400 C   0  0  0  0  0  3  0  0  0  0  0  0
  -27.6030  -36.8780   24.8320 C   0  0  0  0  0  1  0  0  0  0  0  0
  -26.5080  -37.0890   23.8900 N   0  0  0  0  0  0  0  0  0  0  0  0
  -26.0940  -37.9970   24.0820 H   0  0  0  0  0  0  0  0  0  0  0  0
  1 54  1  0
  1 50  1  0
  2  3  1  0
  2  1  1  0
  2  5  1  0
  4  2  1  0
  6 20  1  0
  7 12  1  0
  8  9  1  0
  8  7  1  0
 10  9  1  0
 10 25  1  0
 10 11  1  0
 12  6  1  0
 12 11  1  0
 13  6  2  0
 14 17  1  0
 16 19  1  0
 16 14  2  0
 17 15  2  0
 17  5  1  0
 18 20  1  0
 18 15  1  0
 19 18  2  0
 20 21  1  0
 22 23  2  0
 23 42  1  0
 24 23  1  0
 24 27  1  0
 25 26  1  0
 25 22  1  0
 26 24  2  0
 27 28  1  0
 28 29  2  0
 30 33  1  0
 30 29  1  0
 31 30  2  0
 32 31  1  0
 32 27  2  0
 33 34  1  0
 34 39  2  0
 34 35  1  0
 35 36  2  0
 36 37  1  0
 37 41  1  0
 38 37  2  0
 39 38  1  0
 40 39  1  0
 42 43  1  0
 43 46  1  0
 43 45  1  0
 44 42  2  0
 47 22  1  0
 47 48  1  0
 49 47  1  0
 50 51  2  0
 50 53  1  0
 53 52  1  0
 56 54  1  0
 56 55  1  0
 57 56  1  0
 58 69  2  0
 59 57  1  0
 59 64  1  0
 60 68  1  0
 60 70  1  0
 61 67  1  0
 61 63  1  0
 62 68  1  0
 63 62  1  0
 64 63  2  0
 65 66  1  0
 65 59  2  0
 66 61  2  0
 67 60  1  0
 68 58  1  0
 70 72  2  0
 71 70  1  0
 73 71  1  0
 74 83  2  0
 74 79  1  0
 75 71  1  0
 75 79  1  0
 76 75  1  0
 77 78  1  0
 77 76  1  0
 78 74  1  0
 79 80  2  0
 80 81  1  0
 82 81  2  0
 83 82  1  0
 84 58  1  0
 84 89  1  0
 84 85  1  0
 85 88  1  1
 85 86  1  0
 87 85  1  0
 89 92  1  0
 90 94  1  0
 90 89  1  0
 91 90  2  0
 94 93  1  0
 96 94  1  0
 96 97  1  0
 96 95  1  0
M  ISO  4   6 100  20 100  56 101  57 101
M  END
>  <TORSDO>  (4) 
F 22

>  <SCORE>  (4) 
-11.397

>  <name>  (4) 
3

>  <ligand_id>  (4) 
3

>  <original_smiles>  (4) 
[H]c1nc(N([H])C(=O)N2C([H])([H])C([H])([H])C([H])([H])C([H])(n3nc(-c4c([H])c([H])c(Oc5c([H])c([H])c(F)c([H])c5F)c([H])c4[H])c(C(=O)N([H])[H])c3N([H])[H])C2([H])[H])c([H])c(C([H])([H])[N+]([H])([H])C([H])(C(=O)C([H])([H])C([H])([H])[H])C([H])([H])C([H])(Oc2c([H])c([H])c3c(c2[H])C([H])([H])N(C(=O)C([H])(N([H])C(=O)C([H])(N([H])C([H])([H])[H])C([H])([H])[H])C(C([H])([H])[H])(C([H])([H])[H])C([H])([H])[H])C([H])(C(=O)N([H])C2([H])c4c([H])c([H])c([H])c([H])c4C([H])([H])C([H])([H])C2([H])[H])C3([H])[H])C([H])([H])[H])c1[H]

>  <smiles>  (4) 
[H]c1nc(N([H])C(=O)N2C([H])([H])C([H])([H])C([H])([H])C([H])(n3nc(-c4c([H])c([H])c(Oc5c([H])c([H])c(F)c([H])c5F)c([H])c4[H])c(C(=O)N([H])[H])c3N([H])[H])C2([H])[H])c([H])c(C([H])([H])[N+]([H])([H])C([H])(C(=O)C([H])([H])C([H])([H])[H])C([H])([H])C([H])(Oc2c([H])c([H])c3c(c2[H])C([H])([H])N(C(=O)C([H])(N([H])C(=O)C([H])(N([H])C([H])([H])[H])C([H])([H])[H])C(C([H])([H])[H])(C([H])([H])[H])C([H])([H])[H])C([H])(C(=O)N([H])C2([H])c4c([H])c([H])c([H])c([H])c4C([H])([H])C([H])([H])C2([H])[H])C3([H])[H])C([H])([H])[H])c1[H]

$$$$
4:0:0
     RDKit          3D

 92100  0  0  1  0  0  0  0  0999 V2000
  -28.8860  -23.1220   20.8290 C   0  0  0  0  0  2  0  0  0  0  0  0
  -28.2350  -18.2670   20.4850 C   0  0  0  0  0  3  0  0  0  0  0  0
  -29.5430  -18.2720   20.0580 C   0  0  0  0  0  0  0  0  0  0  0  0
  -29.1300  -20.5560   20.1580 C   0  0  0  0  0  0  0  0  0  0  0  0
  -30.0140  -19.5930   19.8500 N   0  0  0  0  0  0  0  0  0  0  0  0
  -29.3950  -21.9380   20.0850 N   0  0  0  0  0  0  0  0  0  0  0  0
  -27.5980  -19.8880   20.7100 S   0  0  0  0  0  0  0  0  0  0  0  0
  -30.3380  -22.0980   19.7420 H   0  0  0  0  0  0  0  0  0  0  0  0
  -30.4910  -17.0900   19.8450 C   0  0  0  0  0  2  0  0  0  0  0  0
  -30.7280  -14.6150   19.8160 C   0  0  0  0  0  0  0  0  0  0  0  0
  -30.3650  -12.3940   18.8010 C   0  0  0  0  0  2  0  0  0  0  0  0
  -29.3490  -12.5520   17.6500 C   0  0  0  0  0  2  0  0  0  0  0  0
  -27.9080  -12.4280   18.1820 C   0  0  0  0  0  2  0  0  0  0  0  0
  -27.6520  -13.3160   19.4310 C   0  0  0  0  0  3  0  0  0  0  0  0
  -28.7800  -13.1510   20.4750 C   0  0  0  0  0  2  0  0  0  0  0  0
  -30.0550  -13.4310   19.8020 N   0  0  0  0  0  0  0  0  0  0  0  0
  -31.8570  -14.7280   19.3310 O   0  0  0  0  0  0  0  0  0  0  0  0
  -30.0260  -15.7180   20.1680 N   0  0  0  0  0  0  0  0  0  0  0  0
  -29.0860  -15.6010   20.5150 H   0  0  0  0  0  0  0  0  0  0  0  0
  -25.3390  -13.9630   20.3460 C   0  0  0  0  0  0  0  0  0  0  0  0
  -24.2820  -13.2070   20.7780 C   0  0  0  0  0  0  0  0  0  0  0  0
  -24.7010  -11.8470   20.6750 C   0  0  0  0  0  0  0  0  0  0  0  0
  -26.3350  -13.0610   20.0100 N   0  0  0  0  0  0  0  0  0  0  0  0
  -25.9610  -11.7810   20.2670 N   0  0  0  0  0  0  0  0  0  0  0  0
  -23.9570  -10.5970   20.8860 C   0  0  0  0  0  0  0  0  0  0  0  0
  -24.4010   -9.6180   21.8040 C   0  0  0  0  0  3  0  0  0  0  0  0
  -23.6580   -8.4360   22.0030 C   0  0  0  0  0  3  0  0  0  0  0  0
  -22.4570   -8.2220   21.2870 C   0  0  0  0  0  0  0  0  0  0  0  0
  -22.0310   -9.1880   20.3580 C   0  0  0  0  0  3  0  0  0  0  0  0
  -22.7750  -10.3630   20.1560 C   0  0  0  0  0  3  0  0  0  0  0  0
  -21.6840   -7.0910   21.3970 O   0  0  0  0  0  0  0  0  0  0  0  0
  -21.6140   -6.3780   22.5670 C   0  0  0  0  0  0  0  0  0  0  0  0
  -21.1900   -6.9710   23.7760 C   0  0  0  0  0  3  0  0  0  0  0  0
  -21.0650   -6.1860   24.9400 C   0  0  0  0  0  3  0  0  0  0  0  0
  -21.3550   -4.8090   24.8950 C   0  0  0  0  0  0  0  0  0  0  0  0
  -21.7740   -4.2160   23.6920 C   0  0  0  0  0  3  0  0  0  0  0  0
  -21.9000   -4.9990   22.5300 C   0  0  0  0  0  0  0  0  0  0  0  0
  -22.2810   -4.4180   21.3670 F   0  0  0  0  0  0  0  0  0  0  0  0
  -21.2290   -4.0530   26.0110 F   0  0  0  0  0  0  0  0  0  0  0  0
  -22.9240  -13.7120   21.1710 C   0  0  0  0  0  0  0  0  0  0  0  0
  -22.2530  -13.0160   22.0840 N   0  0  0  0  0  0  0  0  0  0  0  0
  -22.4690  -14.7570   20.7060 O   0  0  0  0  0  0  0  0  0  0  0  0
  -22.6330  -12.1690   22.4790 H   0  0  0  0  0  0  0  0  0  0  0  0
  -21.3460  -13.3340   22.3940 H   0  0  0  0  0  0  0  0  0  0  0  0
  -25.5280  -15.3340   20.1910 N   0  0  0  0  0  0  0  0  0  0  0  0
  -24.7810  -16.0010   20.3570 H   0  0  0  0  0  0  0  0  0  0  0  0
  -26.3490  -15.7570   19.7800 H   0  0  0  0  0  0  0  0  0  0  0  0
  -28.0450  -24.1640   20.0040 C   0  0  0  0  0  3  0  0  0  0  0  0
  -27.5610  -23.3890   18.9290 O   0  0  0  0  0  0  0  0  0  0  0  0
  -28.1170  -22.6050   18.9820 H   0  0  0  0  0  0  0  0  0  0  0  0
  -28.7540  -25.4650   19.4640 C   0  0  0  0  0  2  0  0  0  0  0  0
  -28.5530  -26.7180   20.1720 O   0  0  0  0  0  0  0  0  0  0  0  0
  -24.5250  -31.7520   23.2430 C   0  0  0  0  0  0  0  0  0  0  0  0
  -27.3500  -27.4140   20.1150 C   0  0  0  0  0  0  0  0  0  0  0  0
  -23.3820  -30.3300   21.5730 C   0  0  0  0  0  3  0  0  0  0  0  0
  -24.9020  -28.8660   20.1270 C   0  0  0  0  0  0  0  0  0  0  0  0
  -25.8990  -30.7720   21.4020 C   0  0  0  0  0  2  0  0  0  0  0  0
  -26.0380  -29.4130   20.7370 C   0  0  0  0  0  0  0  0  0  0  0  0
  -27.2600  -28.6920   20.7270 C   0  0  0  0  0  3  0  0  0  0  0  0
  -26.1900  -26.8930   19.4950 C   0  0  0  0  0  3  0  0  0  0  0  0
  -24.9770  -27.6110   19.5000 C   0  0  0  0  0  3  0  0  0  0  0  0
  -23.6250  -29.6790   20.1840 C   0  0  0  0  0  2  0  0  0  0  0  0
  -24.6190  -30.9680   22.1300 N   0  0  0  0  0  0  0  0  0  0  0  0
  -23.4310  -31.9760   23.7810 O   0  0  0  0  0  0  0  0  0  0  0  0
  -22.7640  -29.2720   22.5150 C   0  0  0  0  0  0  0  0  0  0  0  0
  -21.4450  -29.0490   22.3840 N   0  0  0  0  0  0  0  0  0  0  0  0
  -23.4670  -28.6580   23.3210 O   0  0  0  0  0  0  0  0  0  0  0  0
  -20.9370  -29.5970   21.7050 H   0  0  0  0  0  0  0  0  0  0  0  0
  -18.1130  -27.7450   22.8820 C   0  0  0  0  0  0  0  0  0  0  0  0
  -20.6640  -28.0720   23.1410 C   0  0  0  0  0  3  0  0  0  0  0  0
  -20.8030  -26.6570   22.5340 C   0  0  0  0  0  2  0  0  0  0  0  0
  -19.7030  -26.3230   21.5220 C   0  0  0  0  0  2  0  0  0  0  0  0
  -18.3220  -26.4160   22.1760 C   0  0  0  0  0  2  0  0  0  0  0  0
  -19.2110  -28.5300   23.3200 C   0  0  0  0  0  0  0  0  0  0  0  0
  -18.9610  -29.7720   23.9420 C   0  0  0  0  0  3  0  0  0  0  0  0
  -17.6440  -30.2310   24.1290 C   0  0  0  0  0  3  0  0  0  0  0  0
  -16.5600  -29.4440   23.7060 C   0  0  0  0  0  3  0  0  0  0  0  0
  -16.7950  -28.2020   23.0890 C   0  0  0  0  0  3  0  0  0  0  0  0
  -25.7830  -32.4220   23.8790 C   0  0  0  0  0  3  0  0  0  0  0  0
  -25.4260  -33.8090   24.2090 N   0  0  0  0  0  0  0  0  0  0  0  0
  -25.7330  -34.8740   23.4560 C   0  0  0  0  0  0  0  0  0  0  0  0
  -26.4160  -34.7950   22.4310 O   0  0  0  0  0  0  0  0  0  0  0  0
  -24.8160  -33.9420   25.0030 H   0  0  0  0  0  0  0  0  0  0  0  0
  -23.9480  -36.6090   23.0900 C   0  0  0  0  0  1  0  0  0  0  0  0
  -25.1950  -36.2450   23.9100 C   0  0  0  0  0  3  0  0  0  0  0  0
  -27.2910  -37.2010   24.7600 C   0  0  0  0  0  1  0  0  0  0  0  0
  -26.1940  -37.3320   23.8060 N   0  0  0  0  0  0  0  0  0  0  0  0
  -25.7570  -38.2380   23.9490 H   0  0  0  0  0  0  0  0  0  0  0  0
  -26.3140  -31.6660   25.1580 C   0  0  1  0  0  0  0  0  0  0  0  0
  -25.2190  -31.3850   26.2130 C   0  0  0  0  0  1  0  0  0  0  0  0
  -26.9500  -30.3120   24.7690 C   0  0  0  0  0  1  0  0  0  0  0  0
  -27.4290  -32.4980   25.8340 C   0  0  0  0  0  1  0  0  0  0  0  0
  2  7  1  0
  3  2  2  0
  4  7  1  0
  5  3  1  0
  5  4  2  0
  6  4  1  0
  6  1  1  0
  8  6  1  0
  9  3  1  0
  9 18  1  0
 10 18  1  0
 11 16  1  0
 12 13  1  0
 12 11  1  0
 14 13  1  0
 14 23  1  0
 14 15  1  0
 16 10  1  0
 16 15  1  0
 17 10  2  0
 18 19  1  0
 20 21  2  0
 21 40  1  0
 22 21  1  0
 22 25  1  0
 23 24  1  0
 23 20  1  0
 24 22  2  0
 25 26  1  0
 26 27  2  0
 28 31  1  0
 28 27  1  0
 29 28  2  0
 30 29  1  0
 30 25  2  0
 31 32  1  0
 32 33  1  0
 33 34  2  0
 35 34  1  0
 35 39  1  0
 36 35  2  0
 37 32  2  0
 37 36  1  0
 38 37  1  0
 40 41  1  0
 41 44  1  0
 41 43  1  0
 42 40  2  0
 45 20  1  0
 45 46  1  0
 47 45  1  0
 48 51  1  0
 48  1  1  0
 49 50  1  0
 49 48  1  0
 51 52  1  0
 53 64  2  0
 54 52  1  0
 54 59  1  0
 55 63  1  0
 55 65  1  0
 56 62  1  0
 56 58  1  0
 57 63  1  0
 58 57  1  0
 59 58  2  0
 60 61  1  0
 60 54  2  0
 61 56  2  0
 62 55  1  0
 63 53  1  0
 65 67  2  0
 66 65  1  0
 68 66  1  0
 69 78  2  0
 69 74  1  0
 70 66  1  0
 70 74  1  0
 71 70  1  0
 72 73  1  0
 72 71  1  0
 73 69  1  0
 74 75  2  0
 75 76  1  0
 77 76  2  0
 78 77  1  0
 79 53  1  0
 79 80  1  0
 79 89  1  0
 80 83  1  0
 81 85  1  0
 81 80  1  0
 82 81  2  0
 85 84  1  0
 87 85  1  0
 87 88  1  0
 87 86  1  0
 89 92  1  1
 89 90  1  0
 91 89  1  0
M  ISO  4  10 100  18 100  51 101  52 101
M  END
>  <TORSDO>  (5) 
F 21

>  <SCORE>  (5) 
-12.364

>  <name>  (5) 
4

>  <ligand_id>  (5) 
4

>  <original_smiles>  (5) 
[H]OC([H])(C([H])([H])Oc1c([H])c([H])c2c(c1[H])C([H])([H])N(C(=O)C([H])(N([H])C(=O)C([H])(N([H])C([H])([H])[H])C([H])([H])[H])C(C([H])([H])[H])(C([H])([H])[H])C([H])([H])[H])C([H])(C(=O)N([H])C1([H])c3c([H])c([H])c([H])c([H])c3C([H])([H])C([H])([H])C1([H])[H])C2([H])[H])C([H])([H])N([H])c1nc(C([H])([H])N([H])C(=O)N2C([H])([H])C([H])([H])C([H])([H])C([H])(n3nc(-c4c([H])c([H])c(Oc5c([H])c([H])c(F)c([H])c5F)c([H])c4[H])c(C(=O)N([H])[H])c3N([H])[H])C2([H])[H])c([H])s1

>  <smiles>  (5) 
[H]OC([H])(C([H])([H])Oc1c([H])c([H])c2c(c1[H])C([H])([H])N(C(=O)C([H])(N([H])C(=O)C([H])(N([H])C([H])([H])[H])C([H])([H])[H])C(C([H])([H])[H])(C([H])([H])[H])C([H])([H])[H])C([H])(C(=O)N([H])C1([H])c3c([H])c([H])c([H])c([H])c3C([H])([H])C([H])([H])C1([H])[H])C2([H])[H])C([H])([H])N([H])c1nc(C([H])([H])N([H])C(=O)N2C([H])([H])C([H])([H])C([H])([H])C([H])(n3nc(-c4c([H])c([H])c(Oc5c([H])c([H])c(F)c([H])c5F)c([H])c4[H])c(C(=O)N([H])[H])c3N([H])[H])C2([H])[H])c([H])s1

$$$$
5:0:0
     RDKit          3D

 92100  0  0  1  0  0  0  0  0999 V2000
  -30.6080  -14.6280   20.4800 C   0  0  0  0  0  0  0  0  0  0  0  0
  -30.3080  -12.4250   19.3890 C   0  0  0  0  0  2  0  0  0  0  0  0
  -29.3800  -12.5720   18.1660 C   0  0  0  0  0  2  0  0  0  0  0  0
  -27.9040  -12.4340   18.5870 C   0  0  0  0  0  2  0  0  0  0  0  0
  -27.5450  -13.3080   19.8190 C   0  0  0  0  0  3  0  0  0  0  0  0
  -28.5950  -13.1590   20.9440 C   0  0  0  0  0  2  0  0  0  0  0  0
  -29.9150  -13.4560   20.3680 N   0  0  0  0  0  0  0  0  0  0  0  0
  -31.7500  -14.7400   20.0210 O   0  0  0  0  0  0  0  0  0  0  0  0
  -31.9210  -18.3000   22.2960 C   0  0  0  0  0  3  0  0  0  0  0  0
  -31.3180  -19.4690   21.8100 C   0  0  0  0  0  0  0  0  0  0  0  0
  -30.1820  -19.2930   20.9960 C   0  0  0  0  0  0  0  0  0  0  0  0
  -30.3950  -16.9830   21.2050 C   0  0  0  0  0  0  0  0  0  0  0  0
  -31.4560  -17.0690   22.0050 N   0  0  0  0  0  0  0  0  0  0  0  0
  -29.7220  -18.0430   20.7160 N   0  0  0  0  0  0  0  0  0  0  0  0
  -29.4640  -20.3750   20.4240 N   0  0  0  0  0  0  0  0  0  0  0  0
  -29.9220  -15.7080   20.9330 N   0  0  0  0  0  0  0  0  0  0  0  0
  -31.8310  -20.6850   22.1280 F   0  0  0  0  0  0  0  0  0  0  0  0
  -28.6780  -20.1530   19.8260 H   0  0  0  0  0  0  0  0  0  0  0  0
  -28.9370  -15.5720   21.0830 H   0  0  0  0  0  0  0  0  0  0  0  0
  -25.1420  -13.9150   20.5110 C   0  0  0  0  0  0  0  0  0  0  0  0
  -24.0720  -13.1440   20.8750 C   0  0  0  0  0  0  0  0  0  0  0  0
  -24.5320  -11.7920   20.8520 C   0  0  0  0  0  0  0  0  0  0  0  0
  -26.1900  -13.0320   20.2910 N   0  0  0  0  0  0  0  0  0  0  0  0
  -25.8250  -11.7510   20.5540 N   0  0  0  0  0  0  0  0  0  0  0  0
  -23.8020  -10.5300   21.0400 C   0  0  0  0  0  0  0  0  0  0  0  0
  -24.2270   -9.5650   21.9780 C   0  0  0  0  0  3  0  0  0  0  0  0
  -23.4980   -8.3680   22.1560 C   0  0  0  0  0  3  0  0  0  0  0  0
  -22.3300   -8.1300   21.3940 C   0  0  0  0  0  0  0  0  0  0  0  0
  -21.9240   -9.0850   20.4450 C   0  0  0  0  0  3  0  0  0  0  0  0
  -22.6530  -10.2720   20.2660 C   0  0  0  0  0  3  0  0  0  0  0  0
  -21.5740   -6.9860   21.4790 O   0  0  0  0  0  0  0  0  0  0  0  0
  -21.5130   -6.2470   22.6330 C   0  0  0  0  0  0  0  0  0  0  0  0
  -21.0590   -6.8030   23.8500 C   0  0  0  0  0  3  0  0  0  0  0  0
  -20.9470   -5.9900   24.9950 C   0  0  0  0  0  3  0  0  0  0  0  0
  -21.2780   -4.6250   24.9260 C   0  0  0  0  0  0  0  0  0  0  0  0
  -21.7260   -4.0690   23.7150 C   0  0  0  0  0  3  0  0  0  0  0  0
  -21.8400   -4.8780   22.5710 C   0  0  0  0  0  0  0  0  0  0  0  0
  -22.2520   -4.3340   21.4010 F   0  0  0  0  0  0  0  0  0  0  0  0
  -21.1640   -3.8420   26.0250 F   0  0  0  0  0  0  0  0  0  0  0  0
  -22.6720  -13.6230   21.1340 C   0  0  0  0  0  0  0  0  0  0  0  0
  -21.9380  -12.9330   21.9990 N   0  0  0  0  0  0  0  0  0  0  0  0
  -22.2390  -14.6460   20.6040 O   0  0  0  0  0  0  0  0  0  0  0  0
  -22.3010  -12.1060   22.4500 H   0  0  0  0  0  0  0  0  0  0  0  0
  -20.9980  -13.2370   22.2140 H   0  0  0  0  0  0  0  0  0  0  0  0
  -25.3090  -15.2850   20.3280 N   0  0  0  0  0  0  0  0  0  0  0  0
  -24.5390  -15.9370   20.4320 H   0  0  0  0  0  0  0  0  0  0  0  0
  -26.1490  -15.7200   19.9690 H   0  0  0  0  0  0  0  0  0  0  0  0
  -29.7960  -21.7920   20.6780 C   0  0  0  0  0  2  0  0  0  0  0  0
  -28.8130  -22.8070   20.0190 C   0  0  0  0  0  2  0  0  0  0  0  0
  -29.1200  -24.3240   20.2600 C   0  0  0  0  0  2  0  0  0  0  0  0
  -27.9930  -25.2650   19.7390 C   0  0  0  0  0  2  0  0  0  0  0  0
  -28.1680  -26.6930   19.9420 O   0  0  0  0  0  0  0  0  0  0  0  0
  -24.4930  -31.9410   23.1250 C   0  0  0  0  0  0  0  0  0  0  0  0
  -27.0180  -27.4810   19.9280 C   0  0  0  0  0  0  0  0  0  0  0  0
  -23.2350  -30.5620   21.5080 C   0  0  0  0  0  3  0  0  0  0  0  0
  -24.6380  -29.0390   20.0190 C   0  0  0  0  0  0  0  0  0  0  0  0
  -25.7600  -30.9010   21.2430 C   0  0  0  0  0  2  0  0  0  0  0  0
  -25.8190  -29.5350   20.5840 C   0  0  0  0  0  0  0  0  0  0  0  0
  -27.0110  -28.7640   20.5350 C   0  0  0  0  0  3  0  0  0  0  0  0
  -25.8140  -27.0260   19.3350 C   0  0  0  0  0  3  0  0  0  0  0  0
  -24.6330  -27.7860   19.3890 C   0  0  0  0  0  3  0  0  0  0  0  0
  -23.4020  -29.9040   20.1140 C   0  0  0  0  0  2  0  0  0  0  0  0
  -24.5160  -31.1490   22.0170 N   0  0  0  0  0  0  0  0  0  0  0  0
  -23.4290  -32.2120   23.7000 O   0  0  0  0  0  0  0  0  0  0  0  0
  -22.6060  -29.5320   22.4740 C   0  0  0  0  0  0  0  0  0  0  0  0
  -21.2770  -29.3570   22.3850 N   0  0  0  0  0  0  0  0  0  0  0  0
  -23.3100  -28.8950   23.2620 O   0  0  0  0  0  0  0  0  0  0  0  0
  -20.7690  -29.9260   21.7230 H   0  0  0  0  0  0  0  0  0  0  0  0
  -17.9170  -28.1490   22.9490 C   0  0  0  0  0  0  0  0  0  0  0  0
  -20.4790  -28.4140   23.1680 C   0  0  0  0  0  3  0  0  0  0  0  0
  -20.5730  -26.9850   22.5870 C   0  0  0  0  0  2  0  0  0  0  0  0
  -19.4520  -26.6630   21.5940 C   0  0  0  0  0  2  0  0  0  0  0  0
  -18.0830  -26.8020   22.2670 C   0  0  0  0  0  2  0  0  0  0  0  0
  -19.0410  -28.9120   23.3590 C   0  0  0  0  0  0  0  0  0  0  0  0
  -18.8310  -30.1740   23.9580 C   0  0  0  0  0  3  0  0  0  0  0  0
  -17.5300  -30.6720   24.1500 C   0  0  0  0  0  3  0  0  0  0  0  0
  -16.4180  -29.9040   23.7560 C   0  0  0  0  0  3  0  0  0  0  0  0
  -16.6140  -28.6450   23.1610 C   0  0  0  0  0  3  0  0  0  0  0  0
  -25.7980  -32.5620   23.7140 C   0  0  0  0  0  3  0  0  0  0  0  0
  -26.3620  -31.7630   24.9540 C   0  0  1  0  0  0  0  0  0  0  0  0
  -25.3110  -31.5030   26.0570 C   0  0  0  0  0  1  0  0  0  0  0  0
  -26.9290  -30.3950   24.5080 C   0  0  0  0  0  1  0  0  0  0  0  0
  -27.5370  -32.5440   25.5900 C   0  0  0  0  0  1  0  0  0  0  0  0
  -25.4990  -33.9510   24.0860 N   0  0  0  0  0  0  0  0  0  0  0  0
  -25.8280  -35.0220   23.3510 C   0  0  0  0  0  0  0  0  0  0  0  0
  -26.4850  -34.9430   22.3090 O   0  0  0  0  0  0  0  0  0  0  0  0
  -24.9140  -34.0870   24.8970 H   0  0  0  0  0  0  0  0  0  0  0  0
  -24.1200  -36.8440   23.0420 C   0  0  0  0  0  1  0  0  0  0  0  0
  -25.3500  -36.3990   23.8500 C   0  0  0  0  0  3  0  0  0  0  0  0
  -27.4850  -37.2350   24.7290 C   0  0  0  0  0  1  0  0  0  0  0  0
  -26.3950  -37.4440   23.7810 N   0  0  0  0  0  0  0  0  0  0  0  0
  -25.9980  -38.3640   23.9530 H   0  0  0  0  0  0  0  0  0  0  0  0
  1 16  1  0
  2  7  1  0
  3  4  1  0
  3  2  1  0
  5  4  1  0
  5 23  1  0
  5  6  1  0
  7  1  1  0
  7  6  1  0
  8  1  2  0
 10 17  1  0
 10  9  2  0
 11 10  1  0
 12 13  2  0
 13  9  1  0
 14 11  2  0
 14 12  1  0
 15 48  1  0
 15 11  1  0
 16 19  1  0
 16 12  1  0
 18 15  1  0
 20 21  2  0
 21 40  1  0
 22 21  1  0
 22 25  1  0
 23 20  1  0
 23 24  1  0
 24 22  2  0
 25 26  1  0
 26 27  2  0
 28 31  1  0
 28 27  1  0
 29 28  2  0
 30 29  1  0
 30 25  2  0
 31 32  1  0
 32 33  1  0
 33 34  2  0
 35 34  1  0
 35 39  1  0
 36 35  2  0
 37 32  2  0
 37 36  1  0
 38 37  1  0
 40 41  1  0
 41 44  1  0
 41 43  1  0
 42 40  2  0
 45 46  1  0
 45 20  1  0
 47 45  1  0
 49 50  1  0
 49 48  1  0
 51 52  1  0
 51 50  1  0
 53 64  2  0
 54 52  1  0
 54 59  1  0
 55 63  1  0
 55 65  1  0
 56 62  1  0
 56 58  1  0
 57 63  1  0
 58 57  1  0
 59 58  2  0
 60 61  1  0
 60 54  2  0
 61 56  2  0
 62 55  1  0
 63 53  1  0
 65 67  2  0
 66 65  1  0
 68 66  1  0
 69 78  2  0
 69 74  1  0
 70 66  1  0
 70 74  1  0
 71 70  1  0
 72 73  1  0
 72 71  1  0
 73 69  1  0
 74 75  2  0
 75 76  1  0
 77 76  2  0
 78 77  1  0
 79 53  1  0
 79 84  1  0
 79 80  1  0
 80 83  1  1
 80 81  1  0
 82 80  1  0
 84 87  1  0
 85 89  1  0
 85 84  1  0
 86 85  2  0
 89 88  1  0
 91 89  1  0
 91 92  1  0
 91 90  1  0
M  ISO  4   1 100  16 100  51 101  52 101
M  END
>  <TORSDO>  (6) 
F 19

>  <SCORE>  (6) 
-13.671

>  <name>  (6) 
5

>  <ligand_id>  (6) 
5

>  <original_smiles>  (6) 
[H]c1nc(N([H])C(=O)N2C([H])([H])C([H])([H])C([H])([H])C([H])(n3nc(-c4c([H])c([H])c(Oc5c([H])c([H])c(F)c([H])c5F)c([H])c4[H])c(C(=O)N([H])[H])c3N([H])[H])C2([H])[H])nc(N([H])C([H])([H])C([H])([H])C([H])([H])C([H])([H])Oc2c([H])c([H])c3c(c2[H])C([H])([H])N(C(=O)C([H])(N([H])C(=O)C([H])(N([H])C([H])([H])[H])C([H])([H])[H])C(C([H])([H])[H])(C([H])([H])[H])C([H])([H])[H])C([H])(C(=O)N([H])C2([H])c4c([H])c([H])c([H])c([H])c4C([H])([H])C([H])([H])C2([H])[H])C3([H])[H])c1F

>  <smiles>  (6) 
[H]c1nc(N([H])C(=O)N2C([H])([H])C([H])([H])C([H])([H])C([H])(n3nc(-c4c([H])c([H])c(Oc5c([H])c([H])c(F)c([H])c5F)c([H])c4[H])c(C(=O)N([H])[H])c3N([H])[H])C2([H])[H])nc(N([H])C([H])([H])C([H])([H])C([H])([H])C([H])([H])Oc2c([H])c([H])c3c(c2[H])C([H])([H])N(C(=O)C([H])(N([H])C(=O)C([H])(N([H])C([H])([H])[H])C([H])([H])[H])C(C([H])([H])[H])(C([H])([H])[H])C([H])([H])[H])C([H])(C(=O)N([H])C2([H])c4c([H])c([H])c([H])c([H])c4C([H])([H])C([H])([H])C2([H])[H])C3([H])[H])c1F

$$$$
6:0:0
     RDKit          3D

 94102  0  0  1  0  0  0  0  0999 V2000
  -27.8420  -20.3960   20.2440 C   0  0  0  0  0  3  0  0  0  0  0  0
  -27.5700  -19.0400   20.0090 C   0  0  0  0  0  0  0  0  0  0  0  0
  -29.1800  -20.7950   20.3750 C   0  0  0  0  0  0  0  0  0  0  0  0
  -29.7730  -18.4760   20.1130 C   0  0  0  0  0  0  0  0  0  0  0  0
  -28.5140  -18.0980   19.9230 N   0  0  0  0  0  0  0  0  0  0  0  0
  -30.1390  -19.7880   20.3370 N   0  0  0  0  0  0  0  0  0  0  0  0
  -29.5210  -22.1870   20.6520 N   0  0  0  0  0  0  0  0  0  0  0  0
  -30.4880  -22.2800   20.9470 H   0  0  0  0  0  0  0  0  0  0  0  0
  -26.2790  -18.5690   19.8600 N   0  0  0  0  0  0  0  0  0  0  0  0
  -25.4660  -19.1450   20.0300 H   0  0  0  0  0  0  0  0  0  0  0  0
  -26.1030  -17.5880   19.6840 H   0  0  0  0  0  0  0  0  0  0  0  0
  -27.7230  -23.3510   19.2070 C   0  0  0  0  0  1  0  0  0  0  0  0
  -28.9840  -23.5180   20.0920 C   0  0  0  0  0  3  0  0  0  0  0  0
  -28.8450  -24.8200   21.1010 C   0  0  0  0  0  2  0  0  0  0  0  0
  -28.9340  -26.2960   20.7430 O   0  0  0  0  0  0  0  0  0  0  0  0
  -24.8020  -31.7410   23.3750 C   0  0  0  0  0  0  0  0  0  0  0  0
  -27.8070  -27.1530   20.6600 C   0  0  0  0  0  0  0  0  0  0  0  0
  -23.8090  -30.3020   21.6350 C   0  0  0  0  0  3  0  0  0  0  0  0
  -25.4370  -28.7680   20.3820 C   0  0  0  0  0  0  0  0  0  0  0  0
  -26.3520  -30.6560   21.7210 C   0  0  0  0  0  2  0  0  0  0  0  0
  -26.5280  -29.2680   21.1030 C   0  0  0  0  0  0  0  0  0  0  0  0
  -27.7210  -28.4760   21.2250 C   0  0  0  0  0  3  0  0  0  0  0  0
  -26.7010  -26.7330   19.8970 C   0  0  0  0  0  3  0  0  0  0  0  0
  -25.5350  -27.5130   19.7610 C   0  0  0  0  0  3  0  0  0  0  0  0
  -24.1850  -29.6240   20.2920 C   0  0  0  0  0  2  0  0  0  0  0  0
  -25.0000  -30.9210   22.3010 N   0  0  0  0  0  0  0  0  0  0  0  0
  -23.6630  -31.9950   23.7900 O   0  0  0  0  0  0  0  0  0  0  0  0
  -23.0690  -29.2790   22.5300 C   0  0  0  0  0  0  0  0  0  0  0  0
  -21.7550  -29.1110   22.3040 N   0  0  0  0  0  0  0  0  0  0  0  0
  -23.6830  -28.6400   23.3880 O   0  0  0  0  0  0  0  0  0  0  0  0
  -21.3150  -29.6810   21.5930 H   0  0  0  0  0  0  0  0  0  0  0  0
  -18.3270  -27.9840   22.6390 C   0  0  0  0  0  0  0  0  0  0  0  0
  -20.8830  -28.1550   22.9930 C   0  0  0  0  0  3  0  0  0  0  0  0
  -20.9670  -26.7570   22.3340 C   0  0  0  0  0  2  0  0  0  0  0  0
  -19.8700  -26.5100   21.2900 C   0  0  0  0  0  2  0  0  0  0  0  0
  -18.4840  -26.6560   21.9230 C   0  0  0  0  0  2  0  0  0  0  0  0
  -19.4540  -28.6950   23.1340 C   0  0  0  0  0  0  0  0  0  0  0  0
  -19.2510  -29.9350   23.7750 C   0  0  0  0  0  3  0  0  0  0  0  0
  -17.9580  -30.4690   23.9200 C   0  0  0  0  0  3  0  0  0  0  0  0
  -16.8460  -29.7550   23.4390 C   0  0  0  0  0  3  0  0  0  0  0  0
  -17.0300  -28.5130   22.8060 C   0  0  0  0  0  3  0  0  0  0  0  0
  -25.9960  -32.4150   24.1200 C   0  0  0  0  0  3  0  0  0  0  0  0
  -26.3620  -31.6950   25.4760 C   0  0  1  0  0  0  0  0  0  0  0  0
  -25.1480  -31.4500   26.4020 C   0  0  0  0  0  1  0  0  0  0  0  0
  -27.0290  -30.3260   25.2080 C   0  0  0  0  0  1  0  0  0  0  0  0
  -27.3930  -32.5440   26.2550 C   0  0  0  0  0  1  0  0  0  0  0  0
  -25.6360  -33.8190   24.3600 N   0  0  0  0  0  0  0  0  0  0  0  0
  -26.0030  -34.8440   23.5820 C   0  0  0  0  0  0  0  0  0  0  0  0
  -26.7470  -34.7110   22.6070 O   0  0  0  0  0  0  0  0  0  0  0  0
  -24.9850  -33.9960   25.1100 H   0  0  0  0  0  0  0  0  0  0  0  0
  -24.2610  -36.5790   23.0370 C   0  0  0  0  0  1  0  0  0  0  0  0
  -25.4600  -36.2420   23.9400 C   0  0  0  0  0  3  0  0  0  0  0  0
  -27.5130  -37.2280   24.8600 C   0  0  0  0  0  1  0  0  0  0  0  0
  -26.4740  -37.3130   23.8380 N   0  0  0  0  0  0  0  0  0  0  0  0
  -26.0390  -38.2320   23.9040 H   0  0  0  0  0  0  0  0  0  0  0  0
  -30.8020  -17.2640   20.0870 C   0  0  0  0  0  2  0  0  0  0  0  0
  -31.0020  -14.6570   20.0570 C   0  0  0  0  0  0  0  0  0  0  0  0
  -30.6780  -12.4140   19.0120 C   0  0  0  0  0  2  0  0  0  0  0  0
  -29.6840  -12.5110   17.8340 C   0  0  0  0  0  2  0  0  0  0  0  0
  -28.2260  -12.4020   18.3270 C   0  0  0  0  0  2  0  0  0  0  0  0
  -27.9390  -13.2700   19.5830 C   0  0  0  0  0  3  0  0  0  0  0  0
  -29.0480  -13.1260   20.6490 C   0  0  0  0  0  2  0  0  0  0  0  0
  -30.3210  -13.4590   19.9990 N   0  0  0  0  0  0  0  0  0  0  0  0
  -32.1750  -14.7090   19.6860 O   0  0  0  0  0  0  0  0  0  0  0  0
  -30.3110  -15.8290   20.3000 N   0  0  0  0  0  0  0  0  0  0  0  0
  -29.3420  -15.7670   20.5750 H   0  0  0  0  0  0  0  0  0  0  0  0
  -25.6130  -13.9110   20.4540 C   0  0  0  0  0  0  0  0  0  0  0  0
  -24.5300  -13.1590   20.8270 C   0  0  0  0  0  0  0  0  0  0  0  0
  -24.9370  -11.7970   20.7100 C   0  0  0  0  0  0  0  0  0  0  0  0
  -26.6080  -13.0060   20.1260 N   0  0  0  0  0  0  0  0  0  0  0  0
  -26.2110  -11.7250   20.3430 N   0  0  0  0  0  0  0  0  0  0  0  0
  -24.1660  -10.5560   20.8780 C   0  0  0  0  0  0  0  0  0  0  0  0
  -24.5540   -9.5660   21.8070 C   0  0  0  0  0  3  0  0  0  0  0  0
  -23.7860   -8.3910   21.9630 C   0  0  0  0  0  3  0  0  0  0  0  0
  -22.6190   -8.1970   21.1850 C   0  0  0  0  0  0  0  0  0  0  0  0
  -22.2510   -9.1750   20.2460 C   0  0  0  0  0  3  0  0  0  0  0  0
  -23.0180  -10.3410   20.0890 C   0  0  0  0  0  3  0  0  0  0  0  0
  -21.8280   -7.0730   21.2470 O   0  0  0  0  0  0  0  0  0  0  0  0
  -21.6550   -6.3800   22.4190 C   0  0  0  0  0  0  0  0  0  0  0  0
  -21.1010   -6.9850   23.5680 C   0  0  0  0  0  3  0  0  0  0  0  0
  -20.8770   -6.2150   24.7280 C   0  0  0  0  0  3  0  0  0  0  0  0
  -21.1960   -4.8440   24.7380 C   0  0  0  0  0  0  0  0  0  0  0  0
  -21.7450   -4.2410   23.5920 C   0  0  0  0  0  3  0  0  0  0  0  0
  -21.9690   -5.0060   22.4350 C   0  0  0  0  0  0  0  0  0  0  0  0
  -22.4760   -4.4150   21.3260 F   0  0  0  0  0  0  0  0  0  0  0  0
  -20.9740   -4.1020   25.8490 F   0  0  0  0  0  0  0  0  0  0  0  0
  -23.1680  -13.6790   21.1780 C   0  0  0  0  0  0  0  0  0  0  0  0
  -22.4530  -12.9790   22.0530 N   0  0  0  0  0  0  0  0  0  0  0  0
  -22.7440  -14.7380   20.7170 O   0  0  0  0  0  0  0  0  0  0  0  0
  -22.8080  -12.1200   22.4470 H   0  0  0  0  0  0  0  0  0  0  0  0
  -21.5350  -13.3060   22.3280 H   0  0  0  0  0  0  0  0  0  0  0  0
  -25.8230  -15.2810   20.3490 N   0  0  0  0  0  0  0  0  0  0  0  0
  -25.0920  -15.9480   20.5800 H   0  0  0  0  0  0  0  0  0  0  0  0
  -26.6790  -15.7220   20.0330 H   0  0  0  0  0  0  0  0  0  0  0  0
  1  3  1  0
  2  1  2  0
  3  7  1  0
  4  6  1  0
  5  2  1  0
  5  4  2  0
  6  3  2  0
  7  8  1  0
  9  2  1  0
  9 10  1  0
 11  9  1  0
 13 12  1  0
 13  7  1  0
 13 14  1  0
 15 14  1  0
 16 27  2  0
 17 15  1  0
 17 22  1  0
 18 26  1  0
 18 28  1  0
 19 21  1  0
 20 26  1  0
 21 22  2  0
 21 20  1  0
 23 17  2  0
 24 23  1  0
 24 19  2  0
 25 19  1  0
 25 18  1  0
 26 16  1  0
 28 30  2  0
 29 28  1  0
 31 29  1  0
 32 41  2  0
 32 37  1  0
 33 29  1  0
 33 37  1  0
 34 33  1  0
 35 36  1  0
 35 34  1  0
 36 32  1  0
 37 38  2  0
 38 39  1  0
 40 39  2  0
 41 40  1  0
 42 16  1  0
 42 47  1  0
 42 43  1  0
 43 46  1  1
 43 44  1  0
 45 43  1  0
 47 50  1  0
 48 52  1  0
 48 47  1  0
 49 48  2  0
 52 51  1  0
 54 55  1  0
 54 52  1  0
 54 53  1  0
 56  4  1  0
 56 65  1  0
 57 65  1  0
 58 63  1  0
 59 60  1  0
 59 58  1  0
 61 60  1  0
 61 70  1  0
 61 62  1  0
 63 57  1  0
 63 62  1  0
 64 57  2  0
 65 66  1  0
 67 68  2  0
 68 87  1  0
 69 68  1  0
 69 72  1  0
 70 71  1  0
 70 67  1  0
 71 69  2  0
 72 73  1  0
 73 74  2  0
 75 78  1  0
 75 74  1  0
 76 75  2  0
 77 76  1  0
 77 72  2  0
 78 79  1  0
 79 84  2  0
 79 80  1  0
 80 81  2  0
 81 82  1  0
 82 86  1  0
 83 82  2  0
 84 83  1  0
 85 84  1  0
 87 88  1  0
 88 91  1  0
 88 90  1  0
 89 87  2  0
 92 67  1  0
 92 93  1  0
 94 92  1  0
M  ISO  4  14 101  15 101  57 100  65 100
M  END
>  <TORSDO>  (7) 
F 20

>  <SCORE>  (7) 
-13.363

>  <name>  (7) 
6

>  <ligand_id>  (7) 
6

>  <original_smiles>  (7) 
[H]c1c(N([H])[H])nc(C([H])([H])N([H])C(=O)N2C([H])([H])C([H])([H])C([H])([H])C([H])(n3nc(-c4c([H])c([H])c(Oc5c([H])c([H])c(F)c([H])c5F)c([H])c4[H])c(C(=O)N([H])[H])c3N([H])[H])C2([H])[H])nc1N([H])C([H])(C([H])([H])[H])C([H])([H])Oc1c([H])c([H])c2c(c1[H])C([H])([H])N(C(=O)C([H])(N([H])C(=O)C([H])(N([H])C([H])([H])[H])C([H])([H])[H])C(C([H])([H])[H])(C([H])([H])[H])C([H])([H])[H])C([H])(C(=O)N([H])C1([H])c3c([H])c([H])c([H])c([H])c3C([H])([H])C([H])([H])C1([H])[H])C2([H])[H]

>  <smiles>  (7) 
[H]c1c(N([H])[H])nc(C([H])([H])N([H])C(=O)N2C([H])([H])C([H])([H])C([H])([H])C([H])(n3nc(-c4c([H])c([H])c(Oc5c([H])c([H])c(F)c([H])c5F)c([H])c4[H])c(C(=O)N([H])[H])c3N([H])[H])C2([H])[H])nc1N([H])C([H])(C([H])([H])[H])C([H])([H])Oc1c([H])c([H])c2c(c1[H])C([H])([H])N(C(=O)C([H])(N([H])C(=O)C([H])(N([H])C([H])([H])[H])C([H])([H])[H])C(C([H])([H])[H])(C([H])([H])[H])C([H])([H])[H])C([H])(C(=O)N([H])C1([H])c3c([H])c([H])c([H])c([H])c3C([H])([H])C([H])([H])C1([H])[H])C2([H])[H]

$$$$
7:0:0
     RDKit          3D

 97105  0  0  1  0  0  0  0  0999 V2000
  -28.9030  -21.4530   19.8900 C   0  0  0  0  0  0  0  0  0  0  0  0
  -27.9040  -21.7350   19.0380 N   0  0  0  0  0  4  0  0  0  0  0  0
  -29.4590  -22.5210   20.5700 N   0  0  0  0  0  0  0  0  0  0  0  0
  -27.4230  -21.0040   18.5330 H   0  0  0  0  0  0  0  0  0  0  0  0
  -27.5580  -22.6700   18.8990 H   0  0  0  0  0  0  0  0  0  0  0  0
  -30.2120  -22.2230   21.1750 H   0  0  0  0  0  0  0  0  0  0  0  0
  -30.6280  -14.7350   19.9970 C   0  0  0  0  0  0  0  0  0  0  0  0
  -30.3770  -12.4930   18.9300 C   0  0  0  0  0  2  0  0  0  0  0  0
  -29.3560  -12.6180   17.7740 C   0  0  0  0  0  2  0  0  0  0  0  0
  -27.9140  -12.4440   18.2930 C   0  0  0  0  0  2  0  0  0  0  0  0
  -27.6290  -13.2920   19.5610 C   0  0  0  0  0  3  0  0  0  0  0  0
  -28.7550  -13.1310   20.6080 C   0  0  0  0  0  2  0  0  0  0  0  0
  -30.0240  -13.4990   19.9570 N   0  0  0  0  0  0  0  0  0  0  0  0
  -31.7580  -14.8840   19.5110 O   0  0  0  0  0  0  0  0  0  0  0  0
  -29.2050  -19.2580   21.2660 C   0  0  0  0  0  3  0  0  0  0  0  0
  -29.3320  -19.9770   20.0500 C   0  0  0  0  0  0  0  0  0  0  0  0
  -29.8050  -19.1200   19.0150 C   0  0  0  0  0  0  0  0  0  0  0  0
  -29.8600  -17.1950   20.3510 C   0  0  0  0  0  0  0  0  0  0  0  0
  -29.4340  -17.9100   21.4010 N   0  0  0  0  0  0  0  0  0  0  0  0
  -30.0580  -17.7830   19.1600 N   0  0  0  0  0  0  0  0  0  0  0  0
  -30.0120  -19.5880   17.7240 N   0  0  0  0  0  0  0  0  0  0  0  0
  -29.8850  -15.7790   20.5060 N   0  0  0  0  0  0  0  0  0  0  0  0
  -30.0820  -20.5830   17.5530 H   0  0  0  0  0  0  0  0  0  0  0  0
  -30.5360  -19.0140   17.0760 H   0  0  0  0  0  0  0  0  0  0  0  0
  -29.1150  -15.4470   21.0610 H   0  0  0  0  0  0  0  0  0  0  0  0
  -25.2900  -13.8790   20.4470 C   0  0  0  0  0  0  0  0  0  0  0  0
  -24.2450  -13.1010   20.8640 C   0  0  0  0  0  0  0  0  0  0  0  0
  -24.6960  -11.7490   20.7680 C   0  0  0  0  0  0  0  0  0  0  0  0
  -26.3130  -13.0010   20.1220 N   0  0  0  0  0  0  0  0  0  0  0  0
  -25.9640  -11.7130   20.3750 N   0  0  0  0  0  0  0  0  0  0  0  0
  -23.9750  -10.4840   20.9700 C   0  0  0  0  0  0  0  0  0  0  0  0
  -24.4360   -9.5070   21.8790 C   0  0  0  0  0  3  0  0  0  0  0  0
  -23.7150   -8.3090   22.0700 C   0  0  0  0  0  3  0  0  0  0  0  0
  -22.5190   -8.0770   21.3500 C   0  0  0  0  0  0  0  0  0  0  0  0
  -22.0760   -9.0430   20.4280 C   0  0  0  0  0  3  0  0  0  0  0  0
  -22.7990  -10.2330   20.2360 C   0  0  0  0  0  3  0  0  0  0  0  0
  -21.7680   -6.9310   21.4490 O   0  0  0  0  0  0  0  0  0  0  0  0
  -21.7180   -6.2030   22.6100 C   0  0  0  0  0  0  0  0  0  0  0  0
  -21.2670   -6.7650   23.8240 C   0  0  0  0  0  3  0  0  0  0  0  0
  -21.1650   -5.9620   24.9770 C   0  0  0  0  0  3  0  0  0  0  0  0
  -21.5040   -4.5970   24.9190 C   0  0  0  0  0  0  0  0  0  0  0  0
  -21.9490   -4.0340   23.7100 C   0  0  0  0  0  3  0  0  0  0  0  0
  -22.0520   -4.8350   22.5580 C   0  0  0  0  0  0  0  0  0  0  0  0
  -22.4600   -4.2810   21.3900 F   0  0  0  0  0  0  0  0  0  0  0  0
  -21.4000   -3.8230   26.0240 F   0  0  0  0  0  0  0  0  0  0  0  0
  -22.8700  -13.5760   21.2350 C   0  0  0  0  0  0  0  0  0  0  0  0
  -22.1940  -12.8650   22.1300 N   0  0  0  0  0  0  0  0  0  0  0  0
  -22.4060  -14.6150   20.7660 O   0  0  0  0  0  0  0  0  0  0  0  0
  -22.5850  -12.0270   22.5330 H   0  0  0  0  0  0  0  0  0  0  0  0
  -21.2740  -13.1650   22.4180 H   0  0  0  0  0  0  0  0  0  0  0  0
  -25.4510  -15.2530   20.2960 N   0  0  0  0  0  0  0  0  0  0  0  0
  -24.6920  -15.9030   20.4720 H   0  0  0  0  0  0  0  0  0  0  0  0
  -26.2590  -15.6930   19.8760 H   0  0  0  0  0  0  0  0  0  0  0  0
  -29.3670  -24.0610   20.6780 C   0  0  0  0  0  2  0  0  0  0  0  0
  -28.7890  -25.0510   18.3630 C   0  0  0  0  0  1  0  0  0  0  0  0
  -28.3930  -25.0290   19.8490 C   0  0  0  0  0  3  0  0  0  0  0  0
  -28.4180  -26.4670   20.2800 O   0  0  0  0  0  0  0  0  0  0  0  0
  -24.6390  -31.8750   23.2350 C   0  0  0  0  0  0  0  0  0  0  0  0
  -27.2880  -27.3110   20.1970 C   0  0  0  0  0  0  0  0  0  0  0  0
  -23.4540  -30.4810   21.5790 C   0  0  0  0  0  3  0  0  0  0  0  0
  -24.9220  -28.9360   20.1620 C   0  0  0  0  0  0  0  0  0  0  0  0
  -25.9950  -30.7990   21.4230 C   0  0  0  0  0  2  0  0  0  0  0  0
  -26.0830  -29.4210   20.7740 C   0  0  0  0  0  0  0  0  0  0  0  0
  -27.2650  -28.6180   20.7820 C   0  0  0  0  0  3  0  0  0  0  0  0
  -26.1000  -26.8860   19.5560 C   0  0  0  0  0  3  0  0  0  0  0  0
  -24.9340  -27.6750   19.5460 C   0  0  0  0  0  3  0  0  0  0  0  0
  -23.6840  -29.8100   20.1990 C   0  0  0  0  0  2  0  0  0  0  0  0
  -24.7140  -31.0710   22.1360 N   0  0  0  0  0  0  0  0  0  0  0  0
  -23.5510  -32.1480   23.7620 O   0  0  0  0  0  0  0  0  0  0  0  0
  -22.7830  -29.4620   22.5300 C   0  0  0  0  0  0  0  0  0  0  0  0
  -21.4580  -29.2850   22.3930 N   0  0  0  0  0  0  0  0  0  0  0  0
  -23.4550  -28.8320   23.3520 O   0  0  0  0  0  0  0  0  0  0  0  0
  -20.9750  -29.8460   21.7060 H   0  0  0  0  0  0  0  0  0  0  0  0
  -18.0760  -28.0920   22.8680 C   0  0  0  0  0  0  0  0  0  0  0  0
  -20.6330  -28.3450   23.1530 C   0  0  0  0  0  3  0  0  0  0  0  0
  -20.7350  -26.9160   22.5710 C   0  0  0  0  0  2  0  0  0  0  0  0
  -19.6380  -26.6030   21.5480 C   0  0  0  0  0  2  0  0  0  0  0  0
  -18.2530  -26.7470   22.1840 C   0  0  0  0  0  2  0  0  0  0  0  0
  -19.1930  -28.8490   23.3080 C   0  0  0  0  0  0  0  0  0  0  0  0
  -18.9740  -30.1090   23.9070 C   0  0  0  0  0  3  0  0  0  0  0  0
  -17.6710  -30.6120   24.0680 C   0  0  0  0  0  3  0  0  0  0  0  0
  -16.5660  -29.8530   23.6420 C   0  0  0  0  0  3  0  0  0  0  0  0
  -16.7700  -28.5940   23.0490 C   0  0  0  0  0  3  0  0  0  0  0  0
  -25.9140  -32.5100   23.8710 C   0  0  0  0  0  3  0  0  0  0  0  0
  -25.5980  -33.9060   24.2030 N   0  0  0  0  0  0  0  0  0  0  0  0
  -25.9190  -34.9620   23.4430 C   0  0  0  0  0  0  0  0  0  0  0  0
  -26.5820  -34.8630   22.4080 O   0  0  0  0  0  0  0  0  0  0  0  0
  -25.0070  -34.0540   25.0080 H   0  0  0  0  0  0  0  0  0  0  0  0
  -24.1710  -36.7420   23.1120 C   0  0  0  0  0  1  0  0  0  0  0  0
  -25.4270  -36.3490   23.9050 C   0  0  0  0  0  3  0  0  0  0  0  0
  -27.5650  -37.2560   24.7030 C   0  0  0  0  0  1  0  0  0  0  0  0
  -26.4490  -37.4100   23.7720 N   0  0  0  0  0  0  0  0  0  0  0  0
  -26.0380  -38.3270   23.9200 H   0  0  0  0  0  0  0  0  0  0  0  0
  -26.4190  -31.7370   25.1540 C   0  0  1  0  0  0  0  0  0  0  0  0
  -25.3150  -31.4950   26.2100 C   0  0  0  0  0  1  0  0  0  0  0  0
  -27.0110  -30.3630   24.7660 C   0  0  0  0  0  1  0  0  0  0  0  0
  -27.5580  -32.5340   25.8310 C   0  0  0  0  0  1  0  0  0  0  0  0
  1 16  1  0
  1  3  1  0
  2  1  2  0
  3 54  1  0
  3  6  1  0
  4  2  1  0
  5  2  1  0
  7 22  1  0
  8 13  1  0
  9 10  1  0
  9  8  1  0
 11 10  1  0
 11 29  1  0
 11 12  1  0
 13  7  1  0
 13 12  1  0
 14  7  2  0
 15 19  1  0
 16 15  2  0
 17 20  2  0
 17 16  1  0
 18 22  1  0
 18 19  2  0
 20 18  1  0
 21 17  1  0
 22 25  1  0
 23 21  1  0
 24 21  1  0
 26 27  2  0
 27 46  1  0
 28 27  1  0
 28 31  1  0
 29 30  1  0
 29 26  1  0
 30 28  2  0
 31 32  1  0
 32 33  2  0
 34 37  1  0
 34 33  1  0
 35 34  2  0
 36 35  1  0
 36 31  2  0
 37 38  1  0
 38 39  1  0
 39 40  2  0
 41 40  1  0
 41 45  1  0
 42 41  2  0
 43 38  2  0
 43 42  1  0
 44 43  1  0
 46 47  1  0
 47 50  1  0
 47 49  1  0
 48 46  2  0
 51 26  1  0
 51 52  1  0
 53 51  1  0
 56 55  1  0
 56 57  1  0
 56 54  1  0
 58 69  2  0
 59 57  1  0
 59 64  1  0
 60 68  1  0
 60 70  1  0
 61 67  1  0
 61 63  1  0
 62 68  1  0
 63 64  2  0
 63 62  1  0
 65 59  2  0
 66 65  1  0
 66 61  2  0
 67 60  1  0
 68 58  1  0
 70 72  2  0
 71 70  1  0
 73 71  1  0
 74 83  2  0
 74 79  1  0
 75 71  1  0
 75 79  1  0
 76 75  1  0
 77 78  1  0
 77 76  1  0
 78 74  1  0
 79 80  2  0
 80 81  1  0
 82 81  2  0
 83 82  1  0
 84 58  1  0
 84 85  1  0
 84 94  1  0
 85 88  1  0
 86 90  1  0
 86 85  1  0
 87 86  2  0
 90 89  1  0
 92 90  1  0
 92 93  1  0
 92 91  1  0
 94 97  1  1
 94 95  1  0
 96 94  1  0
M  ISO  4   7 100  22 100  56 101  57 101
M  END
>  <TORSDO>  (8) 
F 18

>  <SCORE>  (8) 
-14.103

>  <name>  (8) 
7

>  <ligand_id>  (8) 
7

>  <original_smiles>  (8) 
[H]c1nc(N([H])C(=O)N2C([H])([H])C([H])([H])C([H])([H])C([H])(n3nc(-c4c([H])c([H])c(Oc5c([H])c([H])c(F)c([H])c5F)c([H])c4[H])c(C(=O)N([H])[H])c3N([H])[H])C2([H])[H])nc(N([H])[H])c1C(N([H])[H])=[N+]([H])C([H])([H])C([H])(Oc1c([H])c([H])c2c(c1[H])C([H])([H])N(C(=O)C([H])(N([H])C(=O)C([H])(N([H])C([H])([H])[H])C([H])([H])[H])C(C([H])([H])[H])(C([H])([H])[H])C([H])([H])[H])C([H])(C(=O)N([H])C1([H])c3c([H])c([H])c([H])c([H])c3C([H])([H])C([H])([H])C1([H])[H])C2([H])[H])C([H])([H])[H]

>  <smiles>  (8) 
[H]c1nc(N([H])C(=O)N2C([H])([H])C([H])([H])C([H])([H])C([H])(n3nc(-c4c([H])c([H])c(Oc5c([H])c([H])c(F)c([H])c5F)c([H])c4[H])c(C(=O)N([H])[H])c3N([H])[H])C2([H])[H])nc(N([H])[H])c1C(N([H])[H])=[N+]([H])C([H])([H])C([H])(Oc1c([H])c([H])c2c(c1[H])C([H])([H])N(C(=O)C([H])(N([H])C(=O)C([H])(N([H])C([H])([H])[H])C([H])([H])[H])C(C([H])([H])[H])(C([H])([H])[H])C([H])([H])[H])C([H])(C(=O)N([H])C1([H])c3c([H])c([H])c([H])c([H])c3C([H])([H])C([H])([H])C1([H])[H])C2([H])[H])C([H])([H])[H]

$$$$
8:0:0
     RDKit          3D

100108  0  0  1  0  0  0  0  0999 V2000
  -29.8070  -21.0900   19.5200 C   0  0  0  0  0  0  0  0  0  0  0  0
  -31.1020  -21.1680   19.1760 N   0  0  0  0  0  4  0  0  0  0  0  0
  -29.1040  -22.2960   19.6950 N   0  0  0  0  0  0  0  0  0  0  0  0
  -31.5710  -22.0320   18.9640 H   0  0  0  0  0  0  0  0  0  0  0  0
  -31.6180  -20.3030   19.0830 H   0  0  0  0  0  0  0  0  0  0  0  0
  -28.1310  -22.1120   19.9390 H   0  0  0  0  0  0  0  0  0  0  0  0
  -27.9730  -17.2420   19.9950 C   0  0  0  0  0  3  0  0  0  0  0  0
  -29.2070  -19.6630   19.6800 C   0  0  0  0  0  0  0  0  0  0  0  0
  -29.3880  -17.2610   20.1020 C   0  0  0  0  0  0  0  0  0  0  0  0
  -27.8000  -19.4860   19.5240 C   0  0  0  0  0  0  0  0  0  0  0  0
  -27.1940  -18.3050   19.7130 N   0  0  0  0  0  0  0  0  0  0  0  0
  -30.0130  -18.5230   19.9600 N   0  0  0  0  0  0  0  0  0  0  0  0
  -26.9150  -20.4980   19.1540 N   0  0  0  0  0  0  0  0  0  0  0  0
  -27.0730  -20.8270   18.2070 H   0  0  0  0  0  0  0  0  0  0  0  0
  -25.9520  -20.1790   19.1840 H   0  0  0  0  0  0  0  0  0  0  0  0
  -30.7320  -14.8410   20.0260 C   0  0  0  0  0  0  0  0  0  0  0  0
  -30.7410  -12.4100   19.3540 C   0  0  0  0  0  2  0  0  0  0  0  0
  -29.7990  -12.2390   18.1350 C   0  0  0  0  0  2  0  0  0  0  0  0
  -28.3280  -12.0750   18.5770 C   0  0  0  0  0  2  0  0  0  0  0  0
  -27.9080  -13.1220   19.6410 C   0  0  0  0  0  3  0  0  0  0  0  0
  -28.9550  -13.1880   20.7760 C   0  0  0  0  0  2  0  0  0  0  0  0
  -30.2440  -13.5520   20.1580 N   0  0  0  0  0  0  0  0  0  0  0  0
  -31.8810  -15.0310   19.6060 O   0  0  0  0  0  0  0  0  0  0  0  0
  -29.8020  -15.8330   20.3100 N   0  0  0  0  0  0  0  0  0  0  0  0
  -29.0380  -15.3470   20.7550 H   0  0  0  0  0  0  0  0  0  0  0  0
  -25.5540  -13.8030   20.4130 C   0  0  0  0  0  0  0  0  0  0  0  0
  -24.4670  -13.0710   20.8040 C   0  0  0  0  0  0  0  0  0  0  0  0
  -24.8760  -11.7030   20.7440 C   0  0  0  0  0  0  0  0  0  0  0  0
  -26.5590  -12.8860   20.1470 N   0  0  0  0  0  0  0  0  0  0  0  0
  -26.1570  -11.6170   20.4060 N   0  0  0  0  0  0  0  0  0  0  0  0
  -24.1050  -10.4670   20.9350 C   0  0  0  0  0  0  0  0  0  0  0  0
  -24.4810   -9.5040   21.8970 C   0  0  0  0  0  3  0  0  0  0  0  0
  -23.7140   -8.3330   22.0760 C   0  0  0  0  0  3  0  0  0  0  0  0
  -22.5570   -8.1160   21.2900 C   0  0  0  0  0  0  0  0  0  0  0  0
  -22.1990   -9.0660   20.3180 C   0  0  0  0  0  3  0  0  0  0  0  0
  -22.9650  -10.2300   20.1390 C   0  0  0  0  0  3  0  0  0  0  0  0
  -21.7670   -6.9950   21.3750 O   0  0  0  0  0  0  0  0  0  0  0  0
  -21.6070   -6.3160   22.5540 C   0  0  0  0  0  0  0  0  0  0  0  0
  -21.0880   -6.9410   23.7090 C   0  0  0  0  0  3  0  0  0  0  0  0
  -20.8750   -6.1900   24.8810 C   0  0  0  0  0  3  0  0  0  0  0  0
  -21.1720   -4.8130   24.9000 C   0  0  0  0  0  0  0  0  0  0  0  0
  -21.6850   -4.1880   23.7500 C   0  0  0  0  0  3  0  0  0  0  0  0
  -21.9000   -4.9370   22.5800 C   0  0  0  0  0  0  0  0  0  0  0  0
  -22.3740   -4.3260   21.4680 F   0  0  0  0  0  0  0  0  0  0  0  0
  -20.9600   -4.0890   26.0240 F   0  0  0  0  0  0  0  0  0  0  0  0
  -23.0960  -13.6000   21.1110 C   0  0  0  0  0  0  0  0  0  0  0  0
  -22.3650  -12.9290   21.9960 N   0  0  0  0  0  0  0  0  0  0  0  0
  -22.6840  -14.6410   20.6030 O   0  0  0  0  0  0  0  0  0  0  0  0
  -22.7090  -12.0830   22.4230 H   0  0  0  0  0  0  0  0  0  0  0  0
  -21.4470  -13.2710   22.2500 H   0  0  0  0  0  0  0  0  0  0  0  0
  -25.7630  -15.1670   20.2290 N   0  0  0  0  0  0  0  0  0  0  0  0
  -24.9810  -15.8100   20.2930 H   0  0  0  0  0  0  0  0  0  0  0  0
  -26.5180  -15.5260   19.6620 H   0  0  0  0  0  0  0  0  0  0  0  0
  -29.4370  -23.8050   19.5200 C   0  0  0  0  0  2  0  0  0  0  0  0
  -28.5580  -24.9600   20.2930 C   0  0  0  0  0  3  0  0  0  0  0  0
  -30.3420  -25.7890   21.9790 C   0  0  0  0  0  1  0  0  0  0  0  0
  -28.9730  -25.0960   21.7950 C   0  0  0  0  0  3  0  0  0  0  0  0
  -30.1810  -23.0480   22.9110 C   0  0  0  0  0  1  0  0  0  0  0  0
  -28.8570  -23.8020   22.6490 C   0  0  0  0  0  2  0  0  0  0  0  0
  -28.5660  -26.4040   19.8180 O   0  0  0  0  0  0  0  0  0  0  0  0
  -24.5690  -31.6330   23.0030 C   0  0  0  0  0  0  0  0  0  0  0  0
  -27.4060  -27.2220   19.8620 C   0  0  0  0  0  0  0  0  0  0  0  0
  -23.4490  -30.2470   21.2950 C   0  0  0  0  0  3  0  0  0  0  0  0
  -24.9820  -28.7810   19.8540 C   0  0  0  0  0  0  0  0  0  0  0  0
  -25.9810  -30.6510   21.1680 C   0  0  0  0  0  2  0  0  0  0  0  0
  -26.1260  -29.2900   20.4830 C   0  0  0  0  0  0  0  0  0  0  0  0
  -27.3410  -28.5260   20.4680 C   0  0  0  0  0  3  0  0  0  0  0  0
  -26.2340  -26.7780   19.2170 C   0  0  0  0  0  3  0  0  0  0  0  0
  -25.0410  -27.5350   19.2080 C   0  0  0  0  0  3  0  0  0  0  0  0
  -23.7130  -29.6150   19.9040 C   0  0  0  0  0  2  0  0  0  0  0  0
  -24.6840  -30.8630   21.8800 N   0  0  0  0  0  0  0  0  0  0  0  0
  -23.4670  -31.8520   23.5270 O   0  0  0  0  0  0  0  0  0  0  0  0
  -22.8040  -29.1820   22.2140 C   0  0  0  0  0  0  0  0  0  0  0  0
  -21.4790  -29.0000   22.0920 N   0  0  0  0  0  0  0  0  0  0  0  0
  -23.4950  -28.5200   22.9920 O   0  0  0  0  0  0  0  0  0  0  0  0
  -20.9800  -29.5770   21.4310 H   0  0  0  0  0  0  0  0  0  0  0  0
  -18.1070  -27.7990   22.6360 C   0  0  0  0  0  0  0  0  0  0  0  0
  -20.6780  -28.0160   22.8240 C   0  0  0  0  0  3  0  0  0  0  0  0
  -20.7440  -26.6310   22.1410 C   0  0  0  0  0  2  0  0  0  0  0  0
  -19.6000  -26.3940   21.1500 C   0  0  0  0  0  2  0  0  0  0  0  0
  -18.2450  -26.5030   21.8540 C   0  0  0  0  0  2  0  0  0  0  0  0
  -19.2500  -28.5170   23.0780 C   0  0  0  0  0  0  0  0  0  0  0  0
  -19.0690  -29.7330   23.7710 C   0  0  0  0  0  3  0  0  0  0  0  0
  -17.7780  -30.2310   24.0270 C   0  0  0  0  0  3  0  0  0  0  0  0
  -16.6500  -29.5090   23.6000 C   0  0  0  0  0  3  0  0  0  0  0  0
  -16.8150  -28.2950   22.9100 C   0  0  0  0  0  3  0  0  0  0  0  0
  -25.8120  -32.2930   23.6720 C   0  0  0  0  0  3  0  0  0  0  0  0
  -25.4440  -33.6660   24.0450 N   0  0  0  0  0  0  0  0  0  0  0  0
  -25.7550  -34.7590   23.3340 C   0  0  0  0  0  0  0  0  0  0  0  0
  -26.4500  -34.7160   22.3150 O   0  0  0  0  0  0  0  0  0  0  0  0
  -24.8280  -33.7710   24.8370 H   0  0  0  0  0  0  0  0  0  0  0  0
  -23.9700  -36.4990   23.0150 C   0  0  0  0  0  1  0  0  0  0  0  0
  -25.2130  -36.1130   23.8330 C   0  0  0  0  0  3  0  0  0  0  0  0
  -27.2990  -37.0450   24.7290 C   0  0  0  0  0  1  0  0  0  0  0  0
  -26.2100  -37.2060   23.7710 N   0  0  0  0  0  0  0  0  0  0  0  0
  -25.7700  -38.1060   23.9400 H   0  0  0  0  0  0  0  0  0  0  0  0
  -26.3320  -31.5000   24.9340 C   0  0  1  0  0  0  0  0  0  0  0  0
  -25.2290  -31.1870   25.9730 C   0  0  0  0  0  1  0  0  0  0  0  0
  -26.9700  -30.1600   24.5050 C   0  0  0  0  0  1  0  0  0  0  0  0
  -27.4430  -32.3110   25.6400 C   0  0  0  0  0  1  0  0  0  0  0  0
  1  8  1  0
  1  3  1  0
  2  1  2  0
  3  6  1  0
  4  2  1  0
  5  2  1  0
  7  9  1  0
  8 12  1  0
  9 24  1  0
 10  8  2  0
 10 11  1  0
 11  7  2  0
 12  9  2  0
 13 15  1  0
 13 10  1  0
 14 13  1  0
 16 22  1  0
 16 24  1  0
 17 22  1  0
 18 19  1  0
 18 17  1  0
 20 19  1  0
 20 29  1  0
 20 21  1  0
 22 21  1  0
 23 16  2  0
 24 25  1  0
 26 27  2  0
 27 46  1  0
 28 27  1  0
 28 31  1  0
 29 30  1  0
 29 26  1  0
 30 28  2  0
 31 32  1  0
 32 33  2  0
 34 37  1  0
 34 33  1  0
 35 34  2  0
 36 35  1  0
 36 31  2  0
 37 38  1  0
 38 43  2  0
 38 39  1  0
 39 40  2  0
 40 41  1  0
 41 45  1  0
 42 41  2  0
 43 42  1  0
 44 43  1  0
 46 47  1  0
 47 50  1  0
 47 49  1  0
 48 46  2  0
 51 52  1  0
 51 26  1  0
 53 51  1  0
 54  3  1  0
 55 54  1  0
 55 57  1  0
 57 56  1  0
 57 59  1  0
 59 58  1  0
 60 62  1  0
 60 55  1  0
 61 72  2  0
 62 67  1  0
 63 71  1  0
 63 73  1  0
 64 70  1  0
 64 66  1  0
 65 71  1  0
 66 65  1  0
 67 66  2  0
 68 62  2  0
 69 68  1  0
 69 64  2  0
 70 63  1  0
 71 61  1  0
 73 75  2  0
 74 73  1  0
 76 74  1  0
 77 86  2  0
 77 82  1  0
 78 74  1  0
 78 82  1  0
 79 78  1  0
 80 81  1  0
 80 79  1  0
 81 77  1  0
 82 83  2  0
 83 84  1  0
 85 84  2  0
 86 85  1  0
 87 61  1  0
 87 88  1  0
 87 97  1  0
 88 91  1  0
 89 93  1  0
 89 88  1  0
 90 89  2  0
 93 92  1  0
 95 93  1  0
 95 96  1  0
 95 94  1  0
 97100  1  1
 97 98  1  0
 99 97  1  0
M  ISO  4  16 100  24 100  55 101  60 101
M  END
>  <TORSDO>  (9) 
F 21

>  <SCORE>  (9) 
-13.211

>  <name>  (9) 
8

>  <ligand_id>  (9) 
8

>  <original_smiles>  (9) 
[H]c1nc(N([H])[H])c(C(N([H])[H])=[N+]([H])C([H])([H])C([H])(Oc2c([H])c([H])c3c(c2[H])C([H])([H])N(C(=O)C([H])(N([H])C(=O)C([H])(N([H])C([H])([H])[H])C([H])([H])[H])C(C([H])([H])[H])(C([H])([H])[H])C([H])([H])[H])C([H])(C(=O)N([H])C2([H])c4c([H])c([H])c([H])c([H])c4C([H])([H])C([H])([H])C2([H])[H])C3([H])[H])C([H])(C([H])([H])[H])C([H])([H])C([H])([H])[H])nc1N([H])C(=O)N1C([H])([H])C([H])([H])C([H])([H])C([H])(n2nc(-c3c([H])c([H])c(Oc4c([H])c([H])c(F)c([H])c4F)c([H])c3[H])c(C(=O)N([H])[H])c2N([H])[H])C1([H])[H]

>  <smiles>  (9) 
[H]c1nc(N([H])[H])c(C(N([H])[H])=[N+]([H])C([H])([H])C([H])(Oc2c([H])c([H])c3c(c2[H])C([H])([H])N(C(=O)C([H])(N([H])C(=O)C([H])(N([H])C([H])([H])[H])C([H])([H])[H])C(C([H])([H])[H])(C([H])([H])[H])C([H])([H])[H])C([H])(C(=O)N([H])C2([H])c4c([H])c([H])c([H])c([H])c4C([H])([H])C([H])([H])C2([H])[H])C3([H])[H])C([H])(C([H])([H])[H])C([H])([H])C([H])([H])[H])nc1N([H])C(=O)N1C([H])([H])C([H])([H])C([H])([H])C([H])(n2nc(-c3c([H])c([H])c(Oc4c([H])c([H])c(F)c([H])c4F)c([H])c3[H])c(C(=O)N([H])[H])c2N([H])[H])C1([H])[H]

$$$$
9:0:0
     RDKit          3D

 99107  0  0  1  0  0  0  0  0999 V2000
  -30.9590  -22.3720   21.1030 C   0  0  0  0  0  3  0  0  0  0  0  0
  -30.7540  -21.0060   21.6470 N   0  0  0  0  0  4  0  0  0  0  0  0
  -31.6610  -20.5800   21.7170 H   0  0  0  0  0  0  0  0  0  0  0  0
  -30.3730  -21.0610   22.5760 H   0  0  0  0  0  0  0  0  0  0  0  0
  -29.9020  -20.1150   20.8290 C   0  0  0  0  0  2  0  0  0  0  0  0
  -30.6800  -13.8740   20.4200 C   0  0  0  0  0  0  0  0  0  0  0  0
  -30.3090  -11.7070   19.3140 C   0  0  0  0  0  2  0  0  0  0  0  0
  -29.3190  -11.8890   18.1460 C   0  0  0  0  0  2  0  0  0  0  0  0
  -27.8670  -11.7490   18.6440 C   0  0  0  0  0  2  0  0  0  0  0  0
  -27.5790  -12.6180   19.8970 C   0  0  0  0  0  3  0  0  0  0  0  0
  -28.6800  -12.4300   20.9650 C   0  0  0  0  0  2  0  0  0  0  0  0
  -29.9850  -12.7110   20.3390 N   0  0  0  0  0  0  0  0  0  0  0  0
  -31.7360  -14.0540   19.8040 O   0  0  0  0  0  0  0  0  0  0  0  0
  -31.5250  -18.1290   20.6660 C   0  0  0  0  0  3  0  0  0  0  0  0
  -30.2970  -18.6770   20.9450 C   0  0  0  0  0  0  0  0  0  0  0  0
  -30.3680  -16.2230   21.0990 C   0  0  0  0  0  0  0  0  0  0  0  0
  -31.5630  -16.7390   20.7880 N   0  0  0  0  0  0  0  0  0  0  0  0
  -30.1040  -14.8340   21.1590 N   0  0  0  0  0  0  0  0  0  0  0  0
  -29.1370  -17.4440   21.3900 S   0  0  0  0  0  0  0  0  0  0  0  0
  -29.2390  -14.5680   21.6020 H   0  0  0  0  0  0  0  0  0  0  0  0
  -25.2200  -13.2230   20.7330 C   0  0  0  0  0  0  0  0  0  0  0  0
  -24.1690  -12.4480   21.1430 C   0  0  0  0  0  0  0  0  0  0  0  0
  -24.6210  -11.0950   21.0640 C   0  0  0  0  0  0  0  0  0  0  0  0
  -26.2490  -12.3420   20.4370 N   0  0  0  0  0  0  0  0  0  0  0  0
  -25.8940  -11.0560   20.6900 N   0  0  0  0  0  0  0  0  0  0  0  0
  -23.9010   -9.8320   21.2680 C   0  0  0  0  0  0  0  0  0  0  0  0
  -24.3450   -8.8720   22.2030 C   0  0  0  0  0  3  0  0  0  0  0  0
  -23.6250   -7.6720   22.3940 C   0  0  0  0  0  3  0  0  0  0  0  0
  -22.4470   -7.4250   21.6500 C   0  0  0  0  0  0  0  0  0  0  0  0
  -22.0230   -8.3740   20.7050 C   0  0  0  0  0  3  0  0  0  0  0  0
  -22.7420   -9.5650   20.5110 C   0  0  0  0  0  3  0  0  0  0  0  0
  -21.6980   -6.2770   21.7510 O   0  0  0  0  0  0  0  0  0  0  0  0
  -21.6430   -5.5530   22.9150 C   0  0  0  0  0  0  0  0  0  0  0  0
  -21.1580   -6.1120   24.1170 C   0  0  0  0  0  3  0  0  0  0  0  0
  -21.0540   -5.3120   25.2740 C   0  0  0  0  0  3  0  0  0  0  0  0
  -21.4240   -3.9550   25.2270 C   0  0  0  0  0  0  0  0  0  0  0  0
  -21.9030   -3.3960   24.0280 C   0  0  0  0  0  3  0  0  0  0  0  0
  -22.0090   -4.1930   22.8750 C   0  0  0  0  0  0  0  0  0  0  0  0
  -22.4500   -3.6450   21.7170 F   0  0  0  0  0  0  0  0  0  0  0  0
  -21.3180   -3.1840   26.3340 F   0  0  0  0  0  0  0  0  0  0  0  0
  -22.7890  -12.9240   21.4980 C   0  0  0  0  0  0  0  0  0  0  0  0
  -22.1060  -12.2120   22.3870 N   0  0  0  0  0  0  0  0  0  0  0  0
  -22.3290  -13.9610   21.0210 O   0  0  0  0  0  0  0  0  0  0  0  0
  -22.4930  -11.3730   22.7920 H   0  0  0  0  0  0  0  0  0  0  0  0
  -21.1830  -12.5110   22.6680 H   0  0  0  0  0  0  0  0  0  0  0  0
  -25.3820  -14.5960   20.5720 N   0  0  0  0  0  0  0  0  0  0  0  0
  -24.6210  -15.2490   20.7230 H   0  0  0  0  0  0  0  0  0  0  0  0
  -26.2120  -15.0350   20.1940 H   0  0  0  0  0  0  0  0  0  0  0  0
  -32.4600  -22.7620   21.1230 C   0  0  0  0  0  2  0  0  0  0  0  0
  -34.8000  -22.0890   20.4040 C   0  0  0  0  0  1  0  0  0  0  0  0
  -33.1620  -22.8710   18.6600 C   0  0  0  0  0  1  0  0  0  0  0  0
  -33.3170  -22.1270   20.0020 C   0  0  0  0  0  3  0  0  0  0  0  0
  -30.0430  -23.4110   21.8070 C   0  0  0  0  0  3  0  0  0  0  0  0
  -30.4410  -23.6200   23.1950 N   0  0  0  0  0  0  0  0  0  0  0  0
  -31.4330  -23.8140   23.2680 H   0  0  0  0  0  0  0  0  0  0  0  0
  -30.2710  -22.8150   23.7860 H   0  0  0  0  0  0  0  0  0  0  0  0
  -30.0350  -24.7720   21.0780 C   0  0  0  0  0  2  0  0  0  0  0  0
  -28.6220  -25.2640   20.7570 C   0  0  0  0  0  2  0  0  0  0  0  0
  -28.7160  -26.6090   20.3030 O   0  0  0  0  0  0  0  0  0  0  0  0
  -24.7900  -31.6650   23.3370 C   0  0  0  0  0  0  0  0  0  0  0  0
  -27.5310  -27.2970   20.2740 C   0  0  0  0  0  0  0  0  0  0  0  0
  -23.6260  -30.2660   21.6580 C   0  0  0  0  0  3  0  0  0  0  0  0
  -25.1190  -28.7550   20.2500 C   0  0  0  0  0  0  0  0  0  0  0  0
  -26.1480  -30.6570   21.5100 C   0  0  0  0  0  2  0  0  0  0  0  0
  -26.2590  -29.2950   20.8610 C   0  0  0  0  0  0  0  0  0  0  0  0
  -27.4700  -28.5730   20.8680 C   0  0  0  0  0  3  0  0  0  0  0  0
  -26.3770  -26.7610   19.6600 C   0  0  0  0  0  3  0  0  0  0  0  0
  -25.1710  -27.4850   19.6480 C   0  0  0  0  0  3  0  0  0  0  0  0
  -23.8660  -29.5980   20.2780 C   0  0  0  0  0  2  0  0  0  0  0  0
  -24.8720  -30.8750   22.2280 N   0  0  0  0  0  0  0  0  0  0  0  0
  -23.6970  -31.9250   23.8570 O   0  0  0  0  0  0  0  0  0  0  0  0
  -22.9660  -29.2310   22.5980 C   0  0  0  0  0  0  0  0  0  0  0  0
  -21.6630  -28.9870   22.3920 N   0  0  0  0  0  0  0  0  0  0  0  0
  -23.6270  -28.6500   23.4640 O   0  0  0  0  0  0  0  0  0  0  0  0
  -21.1950  -29.5080   21.6640 H   0  0  0  0  0  0  0  0  0  0  0  0
  -18.3250  -27.6390   22.6790 C   0  0  0  0  0  0  0  0  0  0  0  0
  -20.8400  -28.0270   23.1250 C   0  0  0  0  0  3  0  0  0  0  0  0
  -21.0530  -26.5920   22.5920 C   0  0  0  0  0  2  0  0  0  0  0  0
  -20.0430  -26.1940   21.5110 C   0  0  0  0  0  2  0  0  0  0  0  0
  -18.6140  -26.2850   22.0520 C   0  0  0  0  0  2  0  0  0  0  0  0
  -19.3720  -28.4630   23.1680 C   0  0  0  0  0  0  0  0  0  0  0  0
  -19.0540  -29.7290   23.7080 C   0  0  0  0  0  3  0  0  0  0  0  0
  -17.7200  -30.1720   23.7670 C   0  0  0  0  0  3  0  0  0  0  0  0
  -16.6850  -29.3440   23.2970 C   0  0  0  0  0  3  0  0  0  0  0  0
  -16.9870  -28.0800   22.7590 C   0  0  0  0  0  3  0  0  0  0  0  0
  -26.0610  -32.2960   23.9880 C   0  0  0  0  0  3  0  0  0  0  0  0
  -25.7280  -33.6790   24.3560 N   0  0  0  0  0  0  0  0  0  0  0  0
  -26.0480  -34.7570   23.6270 C   0  0  0  0  0  0  0  0  0  0  0  0
  -26.7280  -34.6930   22.6010 O   0  0  0  0  0  0  0  0  0  0  0  0
  -25.1280  -33.8010   25.1590 H   0  0  0  0  0  0  0  0  0  0  0  0
  -24.2880  -36.5220   23.3090 C   0  0  0  0  0  1  0  0  0  0  0  0
  -25.5320  -36.1230   24.1170 C   0  0  0  0  0  3  0  0  0  0  0  0
  -27.6390  -37.0310   24.9940 C   0  0  0  0  0  1  0  0  0  0  0  0
  -26.5460  -37.1970   24.0380 N   0  0  0  0  0  0  0  0  0  0  0  0
  -26.1210  -38.1050   24.2000 H   0  0  0  0  0  0  0  0  0  0  0  0
  -26.5820  -31.4930   25.2430 C   0  0  1  0  0  0  0  0  0  0  0  0
  -25.4820  -31.1920   26.2890 C   0  0  0  0  0  1  0  0  0  0  0  0
  -27.2020  -30.1470   24.8040 C   0  0  0  0  0  1  0  0  0  0  0  0
  -27.7050  -32.2910   25.9470 C   0  0  0  0  0  1  0  0  0  0  0  0
  1 49  1  0
  1  2  1  0
  1 53  1  0
  2  3  1  0
  2  4  1  0
  5 15  1  0
  5  2  1  0
  6 18  1  0
  7 12  1  0
  8  9  1  0
  8  7  1  0
 10  9  1  0
 10 24  1  0
 10 11  1  0
 12  6  1  0
 12 11  1  0
 13  6  2  0
 14 17  1  0
 14 15  2  0
 15 19  1  0
 16 18  1  0
 16 19  1  0
 17 16  2  0
 18 20  1  0
 21 22  2  0
 22 41  1  0
 23 22  1  0
 23 26  1  0
 24 25  1  0
 24 21  1  0
 25 23  2  0
 26 27  1  0
 27 28  2  0
 29 32  1  0
 29 28  1  0
 30 29  2  0
 31 30  1  0
 31 26  2  0
 32 33  1  0
 33 34  1  0
 34 35  2  0
 36 35  1  0
 36 40  1  0
 37 36  2  0
 38 33  2  0
 38 37  1  0
 39 38  1  0
 41 42  1  0
 42 45  1  0
 42 44  1  0
 43 41  2  0
 46 47  1  0
 46 21  1  0
 48 46  1  0
 51 52  1  0
 52 50  1  0
 52 49  1  0
 53 57  1  0
 53 54  1  0
 54 55  1  0
 54 56  1  0
 58 57  1  0
 59 58  1  0
 60 71  2  0
 61 59  1  0
 61 66  1  0
 62 70  1  0
 62 72  1  0
 63 69  1  0
 63 65  1  0
 64 70  1  0
 65 66  2  0
 65 64  1  0
 67 61  2  0
 68 67  1  0
 68 63  2  0
 69 62  1  0
 70 60  1  0
 72 74  2  0
 73 72  1  0
 75 73  1  0
 76 85  2  0
 76 81  1  0
 77 73  1  0
 77 81  1  0
 78 77  1  0
 79 80  1  0
 79 78  1  0
 80 76  1  0
 81 82  2  0
 82 83  1  0
 84 83  2  0
 85 84  1  0
 86 60  1  0
 86 87  1  0
 86 96  1  0
 87 90  1  0
 88 92  1  0
 88 87  1  0
 89 88  2  0
 92 91  1  0
 94 92  1  0
 94 95  1  0
 94 93  1  0
 96 99  1  1
 96 97  1  0
 98 96  1  0
M  ISO  4   6 100  18 100  58 101  59 101
M  END
>  <TORSDO>  (10) 
F 24

>  <SCORE>  (10) 
-10.674

>  <name>  (10) 
9

>  <ligand_id>  (10) 
9

>  <original_smiles>  (10) 
[H]c1nc(N([H])C(=O)N2C([H])([H])C([H])([H])C([H])([H])C([H])(n3nc(-c4c([H])c([H])c(Oc5c([H])c([H])c(F)c([H])c5F)c([H])c4[H])c(C(=O)N([H])[H])c3N([H])[H])C2([H])[H])sc1C([H])([H])[N+]([H])([H])C([H])(C([H])([H])C([H])(C([H])([H])[H])C([H])([H])[H])C([H])(N([H])[H])C([H])([H])C([H])([H])Oc1c([H])c([H])c2c(c1[H])C([H])([H])N(C(=O)C([H])(N([H])C(=O)C([H])(N([H])C([H])([H])[H])C([H])([H])[H])C(C([H])([H])[H])(C([H])([H])[H])C([H])([H])[H])C([H])(C(=O)N([H])C1([H])c3c([H])c([H])c([H])c([H])c3C([H])([H])C([H])([H])C1([H])[H])C2([H])[H]

>  <smiles>  (10) 
[H]c1nc(N([H])C(=O)N2C([H])([H])C([H])([H])C([H])([H])C([H])(n3nc(-c4c([H])c([H])c(Oc5c([H])c([H])c(F)c([H])c5F)c([H])c4[H])c(C(=O)N([H])[H])c3N([H])[H])C2([H])[H])sc1C([H])([H])[N+]([H])([H])C([H])(C([H])([H])C([H])(C([H])([H])[H])C([H])([H])[H])C([H])(N([H])[H])C([H])([H])C([H])([H])Oc1c([H])c([H])c2c(c1[H])C([H])([H])N(C(=O)C([H])(N([H])C(=O)C([H])(N([H])C([H])([H])[H])C([H])([H])[H])C(C([H])([H])[H])(C([H])([H])[H])C([H])([H])[H])C([H])(C(=O)N([H])C1([H])c3c([H])c([H])c([H])c([H])c3C([H])([H])C([H])([H])C1([H])[H])C2([H])[H]

$$$$
10:0:0
     RDKit          3D

 98 98  0  0  1  0  0  0  0  0999 V2000
  -19.0220  -29.6770   22.3330 C   0  0  0  0  0  2  0  0  0  0  0  0
  -20.6250  -29.2290   23.2350 C   0  0  0  0  0  0  0  0  0  0  0  0
  -21.6510  -27.7900   23.7990 C   0  0  0  0  0  1  0  0  0  0  0  0
  -19.4180  -27.1150   21.3950 C   0  0  0  0  0  2  0  0  0  0  0  0
  -18.2610  -28.4040   21.2450 N   0  0  0  0  0  2  0  0  0  0  0  0
  -20.7030  -28.0930   22.5740 N   0  0  0  0  0  2  0  0  0  0  0  0
  -19.5760  -25.6700   20.7020 N   0  0  0  0  0  0  0  0  0  0  0  0
  -18.6960  -25.3480   20.3170 H   0  0  0  0  0  0  0  0  0  0  0  0
  -21.0360  -30.3950   23.9350 N   0  0  0  0  0  4  0  0  0  0  0  0
  -20.6590  -31.2820   23.6230 H   0  0  0  0  0  0  0  0  0  0  0  0
  -22.0360  -30.4840   24.0780 H   0  0  0  0  0  0  0  0  0  0  0  0
  -23.3660  -25.5830   23.6720 C   0  0  0  0  0 15  0  0  0  0  0  0
  -24.5790  -23.1180   22.9470 C   0  0  0  0  0 15  0  0  0  0  0  0
  -26.3180  -21.0020   22.1920 C   0  0  0  0  0 15  0  0  0  0  0  0
  -28.5600  -17.2010   21.1520 C   0  0  0  0  0  2  0  0  0  0  0  0
  -29.8300  -14.5370   19.9460 C   0  0  0  0  0  2  0  0  0  0  0  0
  -29.4950  -13.4160   18.7780 C   0  0  0  0  0  2  0  0  0  0  0  0
  -28.2730  -12.5510   19.0680 C   0  0  0  0  0  2  0  0  0  0  0  0
  -27.4380  -13.4690   19.9530 C   0  0  0  0  0  3  0  0  0  0  0  0
  -28.0940  -14.2080   21.1830 C   0  0  0  0  0  2  0  0  0  0  0  0
  -28.6900  -15.5480   20.7300 N   0  0  0  0  0  0  0  0  0  0  0  0
  -29.8610  -17.1270   20.9320 O   0  0  0  0  0  1  0  0  0  0  0  0
  -27.3580  -18.7980   21.6340 N   0  0  0  0  0  1  0  0  0  0  0  0
  -28.2430  -19.3000   21.6180 H   0  0  0  0  0  0  0  0  0  0  0  0
  -25.1100  -13.8360   20.5660 C   0  0  0  0  0  0  0  0  0  0  0  0
  -24.0900  -13.0250   20.9260 C   0  0  0  0  0  0  0  0  0  0  0  0
  -24.6000  -11.6890   20.8730 C   0  0  0  0  0  0  0  0  0  0  0  0
  -26.1630  -12.9910   20.3310 N   0  0  0  0  0  0  0  0  0  0  0  0
  -25.8940  -11.6850   20.5620 N   0  0  0  0  0  0  0  0  0  0  0  0
  -23.8920  -10.4210   21.0370 C   0  0  0  0  0  0  0  0  0  0  0  0
  -24.3540   -9.4200   21.9190 C   0  0  0  0  0  3  0  0  0  0  0  0
  -23.6280   -8.2200   22.0750 C   0  0  0  0  0  3  0  0  0  0  0  0
  -22.4250   -8.0210   21.3550 C   0  0  0  0  0  0  0  0  0  0  0  0
  -21.9840   -9.0130   20.4620 C   0  0  0  0  0  3  0  0  0  0  0  0
  -22.7100  -10.2030   20.3020 C   0  0  0  0  0  3  0  0  0  0  0  0
  -21.6630   -6.8800   21.4230 O   0  0  0  0  0  0  0  0  0  0  0  0
  -21.6850   -6.0690   22.5270 C   0  0  0  0  0  0  0  0  0  0  0  0
  -21.4030   -6.5620   23.8190 C   0  0  0  0  0  3  0  0  0  0  0  0
  -21.3650   -5.6790   24.9170 C   0  0  0  0  0  3  0  0  0  0  0  0
  -21.6030   -4.3040   24.7240 C   0  0  0  0  0  0  0  0  0  0  0  0
  -21.8830   -3.8120   23.4370 C   0  0  0  0  0  3  0  0  0  0  0  0
  -21.9200   -4.6920   22.3410 C   0  0  0  0  0  0  0  0  0  0  0  0
  -22.1670   -4.2110   21.1000 F   0  0  0  0  0  0  0  0  0  0  0  0
  -21.5610   -3.4530   25.7760 F   0  0  0  0  0  0  0  0  0  0  0  0
  -22.7010  -13.4930   21.2000 C   0  0  0  0  0  0  0  0  0  0  0  0
  -21.9840  -12.7920   22.0650 N   0  0  0  0  0  0  0  0  0  0  0  0
  -22.2700  -14.5260   20.6870 O   0  0  0  0  0  0  0  0  0  0  0  0
  -22.3510  -11.9610   22.5030 H   0  0  0  0  0  0  0  0  0  0  0  0
  -21.0500  -13.0980   22.2970 H   0  0  0  0  0  0  0  0  0  0  0  0
  -25.2390  -15.2190   20.4180 N   0  0  0  0  0  0  0  0  0  0  0  0
  -24.4490  -15.8440   20.5370 H   0  0  0  0  0  0  0  0  0  0  0  0
  -26.0670  -15.6760   20.0600 H   0  0  0  0  0  0  0  0  0  0  0  0
  -20.8640  -24.6790   20.1410 C   0  0  0  0  0  2  0  0  0  0  0  0
  -22.7530  -24.4470   20.4810 C   0  0  0  0  0  3  0  0  0  0  0  0
  -22.8630  -23.1830   19.8460 O   0  0  0  0  0  0  0  0  0  0  0  0
  -22.6130  -22.5160   20.4790 H   0  0  0  0  0  0  0  0  0  0  0  0
  -24.4110  -25.2080   20.0290 C   0  0  0  0  0  2  0  0  0  0  0  0
  -25.9220  -25.8230   20.5990 O   0  0  0  0  0  0  0  0  0  0  0  0
  -24.6040  -31.7660   23.1570 C   0  0  0  0  0  0  0  0  0  0  0  0
  -26.5500  -27.0110   20.1260 C   0  0  0  0  0  3  0  0  0  0  0  0
  -23.5320  -30.0440   21.5710 C   0  0  0  0  0  3  0  0  0  0  0  0
  -24.9390  -29.1310   19.8070 C   0  0  0  0  0  0  0  0  0  0  0  0
  -26.0100  -30.6360   21.4550 C   0  0  0  0  0  2  0  0  0  0  0  0
  -26.0330  -29.3410   20.6510 C   0  0  0  0  0  0  0  0  0  0  0  0
  -26.8610  -28.2060   20.8850 C   0  0  0  0  0  3  0  0  0  0  0  0
  -26.0090  -27.1860   18.8890 C   0  0  0  0  0  2  0  0  0  0  0  0
  -24.9320  -28.0680   18.9040 C   0  0  0  0  0  3  0  0  0  0  0  0
  -23.7360  -29.9820   20.0440 C   0  0  0  0  0  2  0  0  0  0  0  0
  -24.6960  -30.8820   22.1090 N   0  0  0  0  0  0  0  0  0  0  0  0
  -23.5150  -32.0540   23.6660 O   0  0  0  0  0  0  0  0  0  0  0  0
  -23.5160  -28.5570   22.2500 C   0  0  0  0  0  0  0  0  0  0  0  0
  -22.8790  -27.2210   21.8960 N   0  0  0  0  0  0  0  0  0  0  0  0
  -24.0270  -28.6160   23.3670 O   0  0  0  0  0  0  0  0  0  0  0  0
  -22.9580  -27.1810   20.8880 H   0  0  0  0  0  0  0  0  0  0  0  0
  -18.5820  -27.6840   23.3060 C   0  0  0  0  0  3  0  0  0  0  0  0
  -21.3770  -26.0470   22.3670 C   0  0  0  0  0 15  0  0  0  0  0  0
  -21.7840  -26.9670   20.6660 C   0  0  0  0  0  2  0  0  0  0  0  0
  -20.8750  -27.8630   19.6970 C   0  0  0  0  0  2  0  0  0  0  0  0
  -20.2610  -28.9810   20.6240 C   0  0  0  0  0  1  0  0  0  0  0  0
  -19.4800  -26.6750   23.8540 C   0  0  0  0  0  2  0  0  0  0  0  0
  -19.2040  -27.9240   24.9210 C   0  0  0  0  0  3  0  0  0  0  0  0
  -18.2560  -29.1820   25.0780 C   0  0  0  0  0  2  0  0  0  0  0  0
  -17.0710  -29.2260   24.2950 C   0  0  0  0  0  2  0  0  0  0  0  0
  -17.1250  -28.0490   23.5400 C   0  0  0  0  0  2  0  0  0  0  0  0
  -25.8810  -32.4360   23.7890 C   0  0  0  0  0  3  0  0  0  0  0  0
  -25.5490  -33.8220   24.1740 N   0  0  0  0  0  0  0  0  0  0  0  0
  -25.9000  -34.9230   23.4960 C   0  0  0  0  0  0  0  0  0  0  0  0
  -26.5880  -34.8790   22.4760 O   0  0  0  0  0  0  0  0  0  0  0  0
  -24.9090  -33.9290   24.9470 H   0  0  0  0  0  0  0  0  0  0  0  0
  -24.1460  -36.7150   23.2670 C   0  0  0  0  0  1  0  0  0  0  0  0
  -25.4120  -36.2890   24.0270 C   0  0  0  0  0  3  0  0  0  0  0  0
  -27.5550  -37.1670   24.8470 C   0  0  0  0  0  1  0  0  0  0  0  0
  -26.4290  -37.3640   23.9370 N   0  0  0  0  0  0  0  0  0  0  0  0
  -26.0140  -38.2720   24.1340 H   0  0  0  0  0  0  0  0  0  0  0  0
  -26.4370  -31.6550   25.0520 C   0  0  1  0  0  0  0  0  0  0  0  0
  -25.3600  -31.3750   26.1240 C   0  0  0  0  0  1  0  0  0  0  0  0
  -27.0470  -30.2950   24.6500 C   0  0  0  0  0  1  0  0  0  0  0  0
  -27.5790  -32.4600   25.7140 C   0  0  0  0  0  1  0  0  0  0  0  0
  1  2  1  0
  2  9  2  0
  5  4  1  0
  5  1  1  0
  6  2  1  0
  6  3  1  0
  7  4  1  0
  8  7  1  0
  9 11  1  0
 10  9  1  0
 16 21  1  0
 17 18  1  0
 17 16  1  0
 19 18  1  0
 19 28  1  0
 19 20  1  0
 21 15  1  0
 21 20  1  0
 22 15  1  0
 24 23  1  0
 25 26  2  0
 26 45  1  0
 27 26  1  0
 27 30  1  0
 28 29  1  0
 28 25  1  0
 29 27  2  0
 30 31  1  0
 31 32  2  0
 33 36  1  0
 33 32  1  0
 34 33  2  0
 35 34  1  0
 35 30  2  0
 36 37  1  0
 37 38  1  0
 38 39  2  0
 40 39  1  0
 40 44  1  0
 41 40  2  0
 42 37  2  0
 42 41  1  0
 43 42  1  0
 45 46  1  0
 46 49  1  0
 46 48  1  0
 47 45  2  0
 50 51  1  0
 50 25  1  0
 52 50  1  0
 53 54  1  0
 53  7  1  0
 54 57  1  0
 55 56  1  0
 55 54  1  0
 57 58  1  0
 59 70  2  0
 60 58  1  0
 60 65  1  0
 61 69  1  0
 61 71  1  0
 62 68  1  0
 62 64  1  0
 63 69  1  0
 64 65  2  0
 64 63  1  0
 66 67  1  0
 66 60  1  0
 67 62  2  0
 68 61  1  0
 69 59  1  0
 71 73  2  0
 72 71  1  0
 74 72  1  0
 75 84  1  0
 75 80  1  0
 75 81  1  0
 77 72  1  0
 78 79  1  0
 78 77  1  0
 81 80  1  0
 81 82  1  0
 83 82  1  0
 84 83  1  0
 85 59  1  0
 85 86  1  0
 85 95  1  0
 86 89  1  0
 87 91  1  0
 87 86  1  0
 88 87  2  0
 91 90  1  0
 93 91  1  0
 93 94  1  0
 93 92  1  0
 95 98  1  1
 95 96  1  0
 97 95  1  0
M  ISO  4  15 100  23 100  57 101  58 101
M  END
>  <TORSDO>  (11) 
F 24

>  <SCORE>  (11) 
7.207

>  <name>  (11) 
10

>  <ligand_id>  (11) 
10

>  <original_smiles>  (11) 
[H]OC([H])(C([H])([H])Oc1c([H])c([H])c2c(c1[H])C([H])([H])N(C(=O)C([H])(N([H])C(=O)C([H])(N([H])C([H])([H])[H])C([H])([H])[H])C(C([H])([H])[H])(C([H])([H])[H])C([H])([H])[H])C([H])(C(=O)N([H])C1([H])c3c([H])c([H])c([H])c([H])c3C([H])([H])C([H])([H])C1([H])[H])C2([H])[H])C([H])([H])N([H])c1nc([H])c(N([H])[H])c(C([H])([H])C([H])([H])C([H])([H])N([H])C(=O)N2C([H])([H])C([H])([H])C([H])([H])C([H])(n3nc(-c4c([H])c([H])c(Oc5c([H])c([H])c(F)c([H])c5F)c([H])c4[H])c(C(=O)N([H])[H])c3N([H])[H])C2([H])[H])n1

>  <smiles>  (11) 
[H]OC([H])(C([H])([H])Oc1c([H])c([H])c2c(c1[H])C([H])([H])N(C(=O)C([H])(N([H])C(=O)C([H])(N([H])C([H])([H])[H])C([H])([H])[H])C(C([H])([H])[H])(C([H])([H])[H])C([H])([H])[H])C([H])(C(=O)N([H])C1([H])c3c([H])c([H])c([H])c([H])c3C([H])([H])C([H])([H])C1([H])[H])C2([H])[H])C([H])([H])N([H])c1nc([H])c(N([H])[H])c(C([H])([H])C([H])([H])C([H])([H])N([H])C(=O)N2C([H])([H])C([H])([H])C([H])([H])C([H])(n3nc(-c4c([H])c([H])c(Oc5c([H])c([H])c(F)c([H])c5F)c([H])c4[H])c(C(=O)N([H])[H])c3N([H])[H])C2([H])[H])n1

$$$$
11:0:0
     RDKit          3D

 90 98  0  0  1  0  0  0  0  0999 V2000
  -28.2260  -22.2510   18.3700 C   0  0  0  0  0  1  0  0  0  0  0  0
  -29.1240  -22.5610   19.5780 C   0  0  0  0  0  3  0  0  0  0  0  0
  -29.9870  -17.9070   20.7070 C   0  0  0  0  0  0  0  0  0  0  0  0
  -29.6080  -19.9780   20.3720 C   0  0  0  0  0  0  0  0  0  0  0  0
  -29.5990  -19.0700   21.3500 N   0  0  0  0  0  0  0  0  0  0  0  0
  -30.2460  -18.0650   19.4060 N   0  0  0  0  0  0  0  0  0  0  0  0
  -29.2430  -21.3530   20.4480 N   0  0  0  0  0  0  0  0  0  0  0  0
  -29.9970  -19.4510   19.1770 O   0  0  0  0  0  0  0  0  0  0  0  0
  -29.0100  -21.5690   21.4100 H   0  0  0  0  0  0  0  0  0  0  0  0
  -29.9960  -16.6050   21.5110 C   0  0  0  0  0  3  0  0  0  0  0  0
  -30.2260  -15.3240   21.4200 N   0  0  0  0  0  0  0  0  0  0  0  0
  -30.7570  -14.5680   20.3700 C   0  0  0  0  0  0  0  0  0  0  0  0
  -30.4460  -12.4440   19.0740 C   0  0  0  0  0  2  0  0  0  0  0  0
  -29.4570  -12.6440   17.9070 C   0  0  0  0  0  2  0  0  0  0  0  0
  -27.9970  -12.4850   18.3770 C   0  0  0  0  0  2  0  0  0  0  0  0
  -27.7030  -13.2910   19.6700 C   0  0  0  0  0  3  0  0  0  0  0  0
  -28.7860  -13.0130   20.7350 C   0  0  0  0  0  2  0  0  0  0  0  0
  -30.0870  -13.3900   20.1480 N   0  0  0  0  0  0  0  0  0  0  0  0
  -31.7610  -14.8590   19.7210 O   0  0  0  0  0  0  0  0  0  0  0  0
  -25.3280  -13.9300   20.4240 C   0  0  0  0  0  0  0  0  0  0  0  0
  -24.2560  -13.1730   20.8120 C   0  0  0  0  0  0  0  0  0  0  0  0
  -24.6970  -11.8150   20.7700 C   0  0  0  0  0  0  0  0  0  0  0  0
  -26.3560  -13.0340   20.1720 N   0  0  0  0  0  0  0  0  0  0  0  0
  -25.9790  -11.7560   20.4360 N   0  0  0  0  0  0  0  0  0  0  0  0
  -23.9550  -10.5640   20.9750 C   0  0  0  0  0  0  0  0  0  0  0  0
  -24.3950   -9.5880   21.8960 C   0  0  0  0  0  3  0  0  0  0  0  0
  -23.6570   -8.4010   22.0880 C   0  0  0  0  0  3  0  0  0  0  0  0
  -22.4650   -8.1800   21.3570 C   0  0  0  0  0  0  0  0  0  0  0  0
  -22.0440   -9.1450   20.4250 C   0  0  0  0  0  3  0  0  0  0  0  0
  -22.7830  -10.3240   20.2320 C   0  0  0  0  0  3  0  0  0  0  0  0
  -21.6960   -7.0460   21.4590 O   0  0  0  0  0  0  0  0  0  0  0  0
  -21.6590   -6.3030   22.6120 C   0  0  0  0  0  0  0  0  0  0  0  0
  -21.2790   -6.8660   23.8490 C   0  0  0  0  0  3  0  0  0  0  0  0
  -21.1880   -6.0500   24.9960 C   0  0  0  0  0  3  0  0  0  0  0  0
  -21.4660   -4.6740   24.9040 C   0  0  0  0  0  0  0  0  0  0  0  0
  -21.8400   -4.1100   23.6720 C   0  0  0  0  0  3  0  0  0  0  0  0
  -21.9330   -4.9230   22.5290 C   0  0  0  0  0  0  0  0  0  0  0  0
  -22.2730   -4.3720   21.3380 F   0  0  0  0  0  0  0  0  0  0  0  0
  -21.3710   -3.8880   26.0020 F   0  0  0  0  0  0  0  0  0  0  0  0
  -22.8710  -13.6710   21.1150 C   0  0  0  0  0  0  0  0  0  0  0  0
  -22.1540  -12.9850   21.9990 N   0  0  0  0  0  0  0  0  0  0  0  0
  -22.4360  -14.7020   20.6060 O   0  0  0  0  0  0  0  0  0  0  0  0
  -22.5200  -12.1480   22.4300 H   0  0  0  0  0  0  0  0  0  0  0  0
  -21.2270  -13.2990   22.2470 H   0  0  0  0  0  0  0  0  0  0  0  0
  -25.5090  -15.2990   20.2430 N   0  0  0  0  0  0  0  0  0  0  0  0
  -24.7540  -15.9660   20.3620 H   0  0  0  0  0  0  0  0  0  0  0  0
  -26.3630  -15.7190   19.8970 H   0  0  0  0  0  0  0  0  0  0  0  0
  -28.6480  -23.8990   20.3220 C   0  0  0  0  0  3  0  0  0  0  0  0
  -28.5950  -25.2540   19.4860 C   0  0  0  0  0  3  0  0  0  0  0  0
  -28.4220  -26.5430   20.1840 O   0  0  0  0  0  0  0  0  0  0  0  0
  -24.6240  -31.8540   23.2000 C   0  0  0  0  0  0  0  0  0  0  0  0
  -27.2520  -27.3130   20.1320 C   0  0  0  0  0  0  0  0  0  0  0  0
  -23.4160  -30.4480   21.5660 C   0  0  0  0  0  3  0  0  0  0  0  0
  -24.8650  -28.8920   20.1420 C   0  0  0  0  0  0  0  0  0  0  0  0
  -25.9510  -30.7750   21.3740 C   0  0  0  0  0  2  0  0  0  0  0  0
  -26.0310  -29.3960   20.7300 C   0  0  0  0  0  0  0  0  0  0  0  0
  -27.2210  -28.6140   20.7190 C   0  0  0  0  0  3  0  0  0  0  0  0
  -26.0530  -26.8450   19.5430 C   0  0  0  0  0  3  0  0  0  0  0  0
  -24.8770  -27.6210   19.5440 C   0  0  0  0  0  3  0  0  0  0  0  0
  -23.6240  -29.7610   20.1900 C   0  0  0  0  0  2  0  0  0  0  0  0
  -24.6830  -31.0430   22.1030 N   0  0  0  0  0  0  0  0  0  0  0  0
  -23.5440  -32.1320   23.7360 O   0  0  0  0  0  0  0  0  0  0  0  0
  -22.7590  -29.4360   22.5330 C   0  0  0  0  0  0  0  0  0  0  0  0
  -21.4300  -29.2690   22.4190 N   0  0  0  0  0  0  0  0  0  0  0  0
  -23.4410  -28.8040   23.3440 O   0  0  0  0  0  0  0  0  0  0  0  0
  -20.9410  -29.8280   21.7350 H   0  0  0  0  0  0  0  0  0  0  0  0
  -18.0490  -28.1030   22.9480 C   0  0  0  0  0  0  0  0  0  0  0  0
  -20.6120  -28.3370   23.1950 C   0  0  0  0  0  3  0  0  0  0  0  0
  -20.6950  -26.9070   22.6130 C   0  0  0  0  0  2  0  0  0  0  0  0
  -19.5810  -26.5980   21.6090 C   0  0  0  0  0  2  0  0  0  0  0  0
  -18.2070  -26.7540   22.2670 C   0  0  0  0  0  2  0  0  0  0  0  0
  -19.1790  -28.8530   23.3690 C   0  0  0  0  0  0  0  0  0  0  0  0
  -18.9780  -30.1170   23.9670 C   0  0  0  0  0  3  0  0  0  0  0  0
  -17.6790  -30.6290   24.1480 C   0  0  0  0  0  3  0  0  0  0  0  0
  -16.5640  -29.8750   23.7430 C   0  0  0  0  0  3  0  0  0  0  0  0
  -16.7500  -28.6140   23.1490 C   0  0  0  0  0  3  0  0  0  0  0  0
  -25.9100  -32.4860   23.8170 C   0  0  0  0  0  3  0  0  0  0  0  0
  -26.4440  -31.7030   25.0790 C   0  0  1  0  0  0  0  0  0  0  0  0
  -25.3630  -31.4460   26.1550 C   0  0  0  0  0  1  0  0  0  0  0  0
  -27.0310  -30.3330   24.6650 C   0  0  0  0  0  1  0  0  0  0  0  0
  -27.5980  -32.4940   25.7380 C   0  0  0  0  0  1  0  0  0  0  0  0
  -25.5930  -33.8790   24.1690 N   0  0  0  0  0  0  0  0  0  0  0  0
  -25.9080  -34.9430   23.4190 C   0  0  0  0  0  0  0  0  0  0  0  0
  -26.5640  -34.8590   22.3780 O   0  0  0  0  0  0  0  0  0  0  0  0
  -25.0050  -34.0180   24.9760 H   0  0  0  0  0  0  0  0  0  0  0  0
  -24.1560  -36.7240   23.1190 C   0  0  0  0  0  1  0  0  0  0  0  0
  -25.4180  -36.3230   23.9010 C   0  0  0  0  0  3  0  0  0  0  0  0
  -27.5610  -37.2200   24.6960 C   0  0  0  0  0  1  0  0  0  0  0  0
  -26.4370  -37.3870   23.7770 N   0  0  0  0  0  0  0  0  0  0  0  0
  -26.0260  -38.3020   23.9420 H   0  0  0  0  0  0  0  0  0  0  0  0
  2  1  1  0
  2 48  1  0
  2  7  1  0
  3  5  1  0
  3 10  1  0
  4  7  1  0
  4  5  2  0
  6  3  2  0
  7  9  1  0
  8  6  1  0
  8  4  1  0
 11 10  2  0
 12 11  1  0
 13 18  1  0
 14 15  1  0
 14 13  1  0
 16 15  1  0
 16 23  1  0
 16 17  1  0
 18 12  1  0
 18 17  1  0
 19 12  2  0
 20 21  2  0
 21 40  1  0
 22 21  1  0
 22 25  1  0
 23 20  1  0
 23 24  1  0
 24 22  2  0
 25 26  1  0
 26 27  2  0
 28 31  1  0
 28 27  1  0
 29 28  2  0
 30 29  1  0
 30 25  2  0
 31 32  1  0
 32 33  1  0
 33 34  2  0
 35 34  1  0
 35 39  1  0
 36 35  2  0
 37 32  2  0
 37 36  1  0
 38 37  1  0
 40 41  1  0
 41 44  1  0
 41 43  1  0
 42 40  2  0
 45 46  1  0
 45 20  1  0
 47 45  1  0
 49 50  1  0
 49 48  2  0
 51 62  2  0
 52 50  1  0
 52 57  1  0
 53 61  1  0
 53 63  1  0
 54 60  1  0
 54 56  1  0
 55 61  1  0
 56 55  1  0
 57 56  2  0
 58 59  1  0
 58 52  2  0
 59 54  2  0
 60 53  1  0
 61 51  1  0
 63 65  2  0
 64 63  1  0
 66 64  1  0
 67 76  2  0
 67 72  1  0
 68 64  1  0
 68 72  1  0
 69 68  1  0
 70 71  1  0
 70 69  1  0
 71 67  1  0
 72 73  2  0
 73 74  1  0
 75 74  2  0
 76 75  1  0
 77 51  1  0
 77 82  1  0
 77 78  1  0
 78 81  1  1
 78 79  1  0
 80 78  1  0
 82 85  1  0
 83 87  1  0
 83 82  1  0
 84 83  2  0
 87 86  1  0
 89 87  1  0
 89 90  1  0
 89 88  1  0
M  ISO  4  11 100  12 100  49 101  50 101
M  END
>  <TORSDO>  (12) 
F 20

>  <SCORE>  (12) 
-13.823

>  <name>  (12) 
11

>  <ligand_id>  (12) 
11

>  <original_smiles>  (12) 
[H]C(=NC(=O)N1C([H])([H])C([H])([H])C([H])([H])C([H])(n2nc(-c3c([H])c([H])c(Oc4c([H])c([H])c(F)c([H])c4F)c([H])c3[H])c(C(=O)N([H])[H])c2N([H])[H])C1([H])[H])c1noc(N([H])C([H])(C([H])([H])[H])C([H])([H])C([H])([H])Oc2c([H])c([H])c3c(c2[H])C([H])([H])N(C(=O)C([H])(N([H])C(=O)C([H])(N([H])C([H])([H])[H])C([H])([H])[H])C(C([H])([H])[H])(C([H])([H])[H])C([H])([H])[H])C([H])(C(=O)N([H])C2([H])c4c([H])c([H])c([H])c([H])c4C([H])([H])C([H])([H])C2([H])[H])C3([H])[H])n1

>  <smiles>  (12) 
[H]C(=NC(=O)N1C([H])([H])C([H])([H])C([H])([H])C([H])(n2nc(-c3c([H])c([H])c(Oc4c([H])c([H])c(F)c([H])c4F)c([H])c3[H])c(C(=O)N([H])[H])c2N([H])[H])C1([H])[H])c1noc(N([H])C([H])(C([H])([H])[H])C([H])([H])C([H])([H])Oc2c([H])c([H])c3c(c2[H])C([H])([H])N(C(=O)C([H])(N([H])C(=O)C([H])(N([H])C([H])([H])[H])C([H])([H])[H])C(C([H])([H])[H])(C([H])([H])[H])C([H])([H])[H])C([H])(C(=O)N([H])C2([H])c4c([H])c([H])c([H])c([H])c4C([H])([H])C([H])([H])C2([H])[H])C3([H])[H])n1

$$$$
12:0:0
     RDKit          3D

 94102  0  0  1  0  0  0  0  0999 V2000
  -30.6710  -14.8650   20.5640 C   0  0  0  0  0  0  0  0  0  0  0  0
  -30.4980  -12.5690   19.5930 C   0  0  0  0  0  2  0  0  0  0  0  0
  -29.6120  -12.6220   18.3270 C   0  0  0  0  0  2  0  0  0  0  0  0
  -28.1220  -12.4850   18.6940 C   0  0  0  0  0  2  0  0  0  0  0  0
  -27.7080  -13.3900   19.8840 C   0  0  0  0  0  3  0  0  0  0  0  0
  -28.7170  -13.3040   21.0510 C   0  0  0  0  0  2  0  0  0  0  0  0
  -30.0420  -13.6370   20.5140 N   0  0  0  0  0  0  0  0  0  0  0  0
  -31.8750  -14.9370   20.2920 O   0  0  0  0  0  0  0  0  0  0  0  0
  -29.8680  -18.6540   18.0980 C   0  0  0  0  0  3  0  0  0  0  0  0
  -29.9430  -17.3930   18.7230 C   0  0  0  0  0  0  0  0  0  0  0  0
  -29.9100  -17.3460   20.1430 C   0  0  0  0  0  0  0  0  0  0  0  0
  -29.6250  -19.7440   20.0780 C   0  0  0  0  0  0  0  0  0  0  0  0
  -29.7050  -19.8040   18.7670 N   0  0  0  0  0  0  0  0  0  0  0  0
  -29.7230  -18.5760   20.7870 N   0  0  0  0  0  0  0  0  0  0  0  0
  -29.8920  -15.9990   20.7810 N   0  0  0  0  0  0  0  0  0  0  0  0
  -29.4330  -21.0280   20.6960 N   0  0  0  0  0  0  0  0  0  0  0  0
  -29.0170  -15.7910   21.2310 H   0  0  0  0  0  0  0  0  0  0  0  0
  -29.4020  -20.9930   21.7090 H   0  0  0  0  0  0  0  0  0  0  0  0
  -25.2950  -14.0080   20.4970 C   0  0  0  0  0  0  0  0  0  0  0  0
  -24.2100  -13.2450   20.8330 C   0  0  0  0  0  0  0  0  0  0  0  0
  -24.6660  -11.8910   20.8430 C   0  0  0  0  0  0  0  0  0  0  0  0
  -26.3420  -13.1180   20.3190 N   0  0  0  0  0  0  0  0  0  0  0  0
  -25.9690  -11.8420   20.5930 N   0  0  0  0  0  0  0  0  0  0  0  0
  -23.9230  -10.6370   21.0180 C   0  0  0  0  0  0  0  0  0  0  0  0
  -24.3160   -9.6720   21.9710 C   0  0  0  0  0  3  0  0  0  0  0  0
  -23.5740   -8.4830   22.1330 C   0  0  0  0  0  3  0  0  0  0  0  0
  -22.4260   -8.2490   21.3400 C   0  0  0  0  0  0  0  0  0  0  0  0
  -22.0540   -9.2010   20.3740 C   0  0  0  0  0  3  0  0  0  0  0  0
  -22.7960  -10.3830   20.2120 C   0  0  0  0  0  3  0  0  0  0  0  0
  -21.6580   -7.1120   21.4120 O   0  0  0  0  0  0  0  0  0  0  0  0
  -21.5740   -6.3720   22.5640 C   0  0  0  0  0  0  0  0  0  0  0  0
  -21.1010   -6.9270   23.7730 C   0  0  0  0  0  3  0  0  0  0  0  0
  -20.9630   -6.1120   24.9150 C   0  0  0  0  0  3  0  0  0  0  0  0
  -21.2880   -4.7440   24.8490 C   0  0  0  0  0  0  0  0  0  0  0  0
  -21.7530   -4.1880   23.6440 C   0  0  0  0  0  3  0  0  0  0  0  0
  -21.8930   -5.0000   22.5040 C   0  0  0  0  0  0  0  0  0  0  0  0
  -22.3210   -4.4550   21.3400 F   0  0  0  0  0  0  0  0  0  0  0  0
  -21.1500   -3.9590   25.9430 F   0  0  0  0  0  0  0  0  0  0  0  0
  -22.8050  -13.7340   21.0350 C   0  0  0  0  0  0  0  0  0  0  0  0
  -22.0380  -13.0590   21.8830 N   0  0  0  0  0  0  0  0  0  0  0  0
  -22.3960  -14.7500   20.4740 O   0  0  0  0  0  0  0  0  0  0  0  0
  -22.3840  -12.2380   22.3580 H   0  0  0  0  0  0  0  0  0  0  0  0
  -21.0940  -13.3680   22.0630 H   0  0  0  0  0  0  0  0  0  0  0  0
  -25.4730  -15.3740   20.3040 N   0  0  0  0  0  0  0  0  0  0  0  0
  -24.6960  -16.0220   20.3580 H   0  0  0  0  0  0  0  0  0  0  0  0
  -26.3140  -15.7970   19.9340 H   0  0  0  0  0  0  0  0  0  0  0  0
  -29.9720  -16.2550   17.9070 N   0  0  0  0  0  0  0  0  0  0  0  0
  -29.6430  -15.3720   18.2760 H   0  0  0  0  0  0  0  0  0  0  0  0
  -29.7540  -16.3710   16.9200 H   0  0  0  0  0  0  0  0  0  0  0  0
  -27.3020  -22.0500   19.9100 C   0  0  0  0  0  1  0  0  0  0  0  0
  -28.8170  -22.2720   20.0580 C   0  0  0  0  0  3  0  0  0  0  0  0
  -29.1170  -23.7590   20.6650 C   0  0  0  0  0  3  0  0  0  0  0  0
  -28.2080  -25.0150   20.1690 C   0  0  0  0  0  3  0  0  0  0  0  0
  -28.4280  -26.4710   20.4950 O   0  0  0  0  0  0  0  0  0  0  0  0
  -24.6520  -31.9990   23.3240 C   0  0  0  0  0  0  0  0  0  0  0  0
  -27.3330  -27.3680   20.3840 C   0  0  0  0  0  0  0  0  0  0  0  0
  -23.4860  -30.5750   21.6830 C   0  0  0  0  0  3  0  0  0  0  0  0
  -24.9690  -29.0100   20.3040 C   0  0  0  0  0  0  0  0  0  0  0  0
  -26.0310  -30.8910   21.5440 C   0  0  0  0  0  2  0  0  0  0  0  0
  -26.1300  -29.5010   20.9160 C   0  0  0  0  0  0  0  0  0  0  0  0
  -27.3140  -28.6930   20.9430 C   0  0  0  0  0  3  0  0  0  0  0  0
  -26.1450  -26.9550   19.7350 C   0  0  0  0  0  3  0  0  0  0  0  0
  -24.9820  -27.7440   19.7050 C   0  0  0  0  0  3  0  0  0  0  0  0
  -23.7300  -29.8830   20.3170 C   0  0  0  0  0  2  0  0  0  0  0  0
  -24.7420  -31.1740   22.2400 N   0  0  0  0  0  0  0  0  0  0  0  0
  -23.5570  -32.2810   23.8340 O   0  0  0  0  0  0  0  0  0  0  0  0
  -22.8070  -29.5690   22.6450 C   0  0  0  0  0  0  0  0  0  0  0  0
  -21.4850  -29.3780   22.4890 N   0  0  0  0  0  0  0  0  0  0  0  0
  -23.4690  -28.9640   23.4900 O   0  0  0  0  0  0  0  0  0  0  0  0
  -21.0080  -29.9210   21.7830 H   0  0  0  0  0  0  0  0  0  0  0  0
  -18.0980  -28.1850   22.9550 C   0  0  0  0  0  0  0  0  0  0  0  0
  -20.6550  -28.4450   23.2520 C   0  0  0  0  0  3  0  0  0  0  0  0
  -20.7630  -27.0110   22.6830 C   0  0  0  0  0  2  0  0  0  0  0  0
  -19.6730  -26.6860   21.6580 C   0  0  0  0  0  2  0  0  0  0  0  0
  -18.2840  -26.8320   22.2880 C   0  0  0  0  0  2  0  0  0  0  0  0
  -19.2130  -28.9480   23.3930 C   0  0  0  0  0  0  0  0  0  0  0  0
  -18.9890  -30.2150   23.9730 C   0  0  0  0  0  3  0  0  0  0  0  0
  -17.6820  -30.7180   24.1210 C   0  0  0  0  0  3  0  0  0  0  0  0
  -16.5820  -29.9510   23.7000 C   0  0  0  0  0  3  0  0  0  0  0  0
  -16.7910  -28.6860   23.1230 C   0  0  0  0  0  3  0  0  0  0  0  0
  -25.9180  -32.6480   23.9630 C   0  0  0  0  0  3  0  0  0  0  0  0
  -26.4090  -31.9010   25.2640 C   0  0  1  0  0  0  0  0  0  0  0  0
  -25.2910  -31.6630   26.3050 C   0  0  0  0  0  1  0  0  0  0  0  0
  -27.0190  -30.5250   24.9070 C   0  0  0  0  0  1  0  0  0  0  0  0
  -27.5320  -32.7160   25.9460 C   0  0  0  0  0  1  0  0  0  0  0  0
  -25.5970  -34.0510   24.2660 N   0  0  0  0  0  0  0  0  0  0  0  0
  -25.9200  -35.0910   23.4870 C   0  0  0  0  0  0  0  0  0  0  0  0
  -26.5900  -34.9740   22.4590 O   0  0  0  0  0  0  0  0  0  0  0  0
  -25.0000  -34.2150   25.0620 H   0  0  0  0  0  0  0  0  0  0  0  0
  -24.1700  -36.8590   23.1120 C   0  0  0  0  0  1  0  0  0  0  0  0
  -25.4230  -36.4850   23.9200 C   0  0  0  0  0  3  0  0  0  0  0  0
  -27.5490  -37.4160   24.7200 C   0  0  0  0  0  1  0  0  0  0  0  0
  -26.4440  -37.5450   23.7750 N   0  0  0  0  0  0  0  0  0  0  0  0
  -26.0280  -38.4660   23.8980 H   0  0  0  0  0  0  0  0  0  0  0  0
  1 15  1  0
  2  7  1  0
  3  4  1  0
  3  2  1  0
  5  4  1  0
  5 22  1  0
  5  6  1  0
  7  1  1  0
  7  6  1  0
  8  1  2  0
  9 10  2  0
  9 13  1  0
 10 11  1  0
 11 15  1  0
 11 14  2  0
 12 16  1  0
 12 14  1  0
 13 12  2  0
 15 17  1  0
 16 18  1  0
 19 20  2  0
 20 21  1  0
 20 39  1  0
 21 24  1  0
 22 19  1  0
 22 23  1  0
 23 21  2  0
 24 25  1  0
 25 26  2  0
 27 30  1  0
 27 26  1  0
 28 27  2  0
 29 28  1  0
 29 24  2  0
 30 31  1  0
 31 32  1  0
 32 33  2  0
 34 33  1  0
 34 38  1  0
 35 34  2  0
 36 31  2  0
 36 35  1  0
 37 36  1  0
 39 40  1  0
 40 43  1  0
 40 42  1  0
 41 39  2  0
 44 45  1  0
 44 19  1  0
 46 44  1  0
 47 48  1  0
 47 10  1  0
 49 47  1  0
 51 50  1  0
 51 52  1  0
 51 16  1  0
 53 54  1  0
 53 52  2  0
 55 66  2  0
 56 54  1  0
 56 61  1  0
 57 65  1  0
 57 67  1  0
 58 64  1  0
 58 60  1  0
 59 65  1  0
 60 61  2  0
 60 59  1  0
 62 56  2  0
 63 62  1  0
 63 58  2  0
 64 57  1  0
 65 55  1  0
 67 69  2  0
 68 67  1  0
 70 68  1  0
 71 80  2  0
 71 76  1  0
 72 68  1  0
 72 76  1  0
 73 72  1  0
 74 75  1  0
 74 73  1  0
 75 71  1  0
 76 77  2  0
 77 78  1  0
 79 78  2  0
 80 79  1  0
 81 55  1  0
 81 86  1  0
 81 82  1  0
 82 85  1  1
 82 83  1  0
 84 82  1  0
 86 89  1  0
 87 91  1  0
 87 86  1  0
 88 87  2  0
 91 90  1  0
 93 94  1  0
 93 91  1  0
 93 92  1  0
M  ISO  4   1 100  15 100  53 101  54 101
M  END
>  <TORSDO>  (13) 
F 19

>  <SCORE>  (13) 
-13.850

>  <name>  (13) 
12

>  <ligand_id>  (13) 
12

>  <original_smiles>  (13) 
[H]c1nc(N([H])C([H])(C([H])([H])[H])C([H])([H])C([H])([H])Oc2c([H])c([H])c3c(c2[H])C([H])([H])N(C(=O)C([H])(N([H])C(=O)C([H])(N([H])C([H])([H])[H])C([H])([H])[H])C(C([H])([H])[H])(C([H])([H])[H])C([H])([H])[H])C([H])(C(=O)N([H])C2([H])c4c([H])c([H])c([H])c([H])c4C([H])([H])C([H])([H])C2([H])[H])C3([H])[H])nc(N([H])C(=O)N2C([H])([H])C([H])([H])C([H])([H])C([H])(n3nc(-c4c([H])c([H])c(Oc5c([H])c([H])c(F)c([H])c5F)c([H])c4[H])c(C(=O)N([H])[H])c3N([H])[H])C2([H])[H])c1N([H])[H]

>  <smiles>  (13) 
[H]c1nc(N([H])C([H])(C([H])([H])[H])C([H])([H])C([H])([H])Oc2c([H])c([H])c3c(c2[H])C([H])([H])N(C(=O)C([H])(N([H])C(=O)C([H])(N([H])C([H])([H])[H])C([H])([H])[H])C(C([H])([H])[H])(C([H])([H])[H])C([H])([H])[H])C([H])(C(=O)N([H])C2([H])c4c([H])c([H])c([H])c([H])c4C([H])([H])C([H])([H])C2([H])[H])C3([H])[H])nc(N([H])C(=O)N2C([H])([H])C([H])([H])C([H])([H])C([H])(n3nc(-c4c([H])c([H])c(Oc5c([H])c([H])c(F)c([H])c5F)c([H])c4[H])c(C(=O)N([H])[H])c3N([H])[H])C2([H])[H])c1N([H])[H]

$$$$
13:0:0
     RDKit          3D

 92100  0  0  1  0  0  0  0  0999 V2000
  -29.7080  -21.6770   19.9950 N   0  0  0  0  0  0  0  0  0  0  0  0
  -29.9720  -22.0150   19.0740 H   0  0  0  0  0  0  0  0  0  0  0  0
  -27.6170  -18.7420   19.0780 C   0  0  0  0  0  3  0  0  0  0  0  0
  -28.3920  -17.7200   19.6580 C   0  0  0  0  0  3  0  0  0  0  0  0
  -28.0390  -20.0780   19.2080 C   0  0  0  0  0  3  0  0  0  0  0  0
  -29.5560  -18.0670   20.3690 C   0  0  0  0  0  0  0  0  0  0  0  0
  -29.2200  -20.3570   19.9110 C   0  0  0  0  0  0  0  0  0  0  0  0
  -29.9560  -19.3670   20.4870 N   0  0  0  0  0  0  0  0  0  0  0  0
  -30.4220  -16.9940   21.0610 C   0  0  0  0  0  2  0  0  0  0  0  0
  -30.6560  -14.5380   20.4840 C   0  0  0  0  0  0  0  0  0  0  0  0
  -30.3640  -12.3590   19.3510 C   0  0  0  0  0  2  0  0  0  0  0  0
  -29.4260  -12.5410   18.1420 C   0  0  0  0  0  2  0  0  0  0  0  0
  -27.9470  -12.4080   18.5640 C   0  0  0  0  0  2  0  0  0  0  0  0
  -27.6030  -13.2420   19.8260 C   0  0  0  0  0  3  0  0  0  0  0  0
  -28.6620  -13.0470   20.9350 C   0  0  0  0  0  2  0  0  0  0  0  0
  -29.9820  -13.3590   20.3620 N   0  0  0  0  0  0  0  0  0  0  0  0
  -31.8000  -14.6870   20.0460 O   0  0  0  0  0  0  0  0  0  0  0  0
  -29.9570  -15.5870   20.9680 N   0  0  0  0  0  0  0  0  0  0  0  0
  -29.0140  -15.4060   21.2760 H   0  0  0  0  0  0  0  0  0  0  0  0
  -25.2040  -13.8340   20.5310 C   0  0  0  0  0  0  0  0  0  0  0  0
  -24.1360  -13.0600   20.8990 C   0  0  0  0  0  0  0  0  0  0  0  0
  -24.6020  -11.7110   20.8740 C   0  0  0  0  0  0  0  0  0  0  0  0
  -26.2520  -12.9560   20.3060 N   0  0  0  0  0  0  0  0  0  0  0  0
  -25.8940  -11.6730   20.5730 N   0  0  0  0  0  0  0  0  0  0  0  0
  -23.8750  -10.4470   21.0660 C   0  0  0  0  0  0  0  0  0  0  0  0
  -24.3160   -9.4770   21.9930 C   0  0  0  0  0  3  0  0  0  0  0  0
  -23.5950   -8.2780   22.1730 C   0  0  0  0  0  3  0  0  0  0  0  0
  -22.4150   -8.0420   21.4260 C   0  0  0  0  0  0  0  0  0  0  0  0
  -21.9920   -9.0010   20.4900 C   0  0  0  0  0  3  0  0  0  0  0  0
  -22.7160  -10.1910   20.3080 C   0  0  0  0  0  3  0  0  0  0  0  0
  -21.6620   -6.8970   21.5180 O   0  0  0  0  0  0  0  0  0  0  0  0
  -21.6360   -6.1410   22.6630 C   0  0  0  0  0  0  0  0  0  0  0  0
  -21.2440   -6.6850   23.9050 C   0  0  0  0  0  3  0  0  0  0  0  0
  -21.1640   -5.8560   25.0420 C   0  0  0  0  0  3  0  0  0  0  0  0
  -21.4660   -4.4850   24.9370 C   0  0  0  0  0  0  0  0  0  0  0  0
  -21.8480   -3.9410   23.6990 C   0  0  0  0  0  3  0  0  0  0  0  0
  -21.9300   -4.7670   22.5630 C   0  0  0  0  0  0  0  0  0  0  0  0
  -22.2800   -4.2320   21.3690 F   0  0  0  0  0  0  0  0  0  0  0  0
  -21.3810   -3.6860   26.0270 F   0  0  0  0  0  0  0  0  0  0  0  0
  -22.7370  -13.5360   21.1640 C   0  0  0  0  0  0  0  0  0  0  0  0
  -22.0030  -12.8450   22.0290 N   0  0  0  0  0  0  0  0  0  0  0  0
  -22.2980  -14.5570   20.6350 O   0  0  0  0  0  0  0  0  0  0  0  0
  -22.3650  -12.0200   22.4840 H   0  0  0  0  0  0  0  0  0  0  0  0
  -21.0630  -13.1490   22.2400 H   0  0  0  0  0  0  0  0  0  0  0  0
  -25.3640  -15.2060   20.3500 N   0  0  0  0  0  0  0  0  0  0  0  0
  -24.5950  -15.8570   20.4710 H   0  0  0  0  0  0  0  0  0  0  0  0
  -26.2200  -15.6550   20.0540 H   0  0  0  0  0  0  0  0  0  0  0  0
  -29.1350  -22.5780   22.2040 C   0  0  0  0  0  1  0  0  0  0  0  0
  -28.8840  -22.6880   20.6890 C   0  0  0  0  0  3  0  0  0  0  0  0
  -29.1090  -24.1490   20.1350 C   0  0  0  0  0  3  0  0  0  0  0  0
  -28.2630  -25.2950   20.7900 C   0  0  0  0  0  3  0  0  0  0  0  0
  -28.3920  -26.6090   20.1790 O   0  0  0  0  0  0  0  0  0  0  0  0
  -24.6150  -31.8800   23.2290 C   0  0  0  0  0  0  0  0  0  0  0  0
  -27.2440  -27.3900   20.1760 C   0  0  0  0  0  0  0  0  0  0  0  0
  -23.4070  -30.4760   21.5930 C   0  0  0  0  0  3  0  0  0  0  0  0
  -24.8580  -28.9280   20.1700 C   0  0  0  0  0  0  0  0  0  0  0  0
  -25.9320  -30.8260   21.3860 C   0  0  0  0  0  2  0  0  0  0  0  0
  -26.0180  -29.4450   20.7580 C   0  0  0  0  0  0  0  0  0  0  0  0
  -27.2180  -28.6860   20.7540 C   0  0  0  0  0  3  0  0  0  0  0  0
  -26.0660  -26.9040   19.5690 C   0  0  0  0  0  3  0  0  0  0  0  0
  -24.8780  -27.6610   19.5640 C   0  0  0  0  0  3  0  0  0  0  0  0
  -23.6160  -29.7940   20.2140 C   0  0  0  0  0  2  0  0  0  0  0  0
  -24.6710  -31.0760   22.1290 N   0  0  0  0  0  0  0  0  0  0  0  0
  -23.5350  -32.1520   23.7710 O   0  0  0  0  0  0  0  0  0  0  0  0
  -22.7530  -29.4590   22.5590 C   0  0  0  0  0  0  0  0  0  0  0  0
  -21.4270  -29.2790   22.4370 N   0  0  0  0  0  0  0  0  0  0  0  0
  -23.4370  -28.8340   23.3730 O   0  0  0  0  0  0  0  0  0  0  0  0
  -20.9320  -29.8350   21.7540 H   0  0  0  0  0  0  0  0  0  0  0  0
  -18.0550  -28.0810   22.9520 C   0  0  0  0  0  0  0  0  0  0  0  0
  -20.6140  -28.3440   23.2160 C   0  0  0  0  0  3  0  0  0  0  0  0
  -20.7180  -26.9100   22.6480 C   0  0  0  0  0  2  0  0  0  0  0  0
  -19.6140  -26.5800   21.6380 C   0  0  0  0  0  2  0  0  0  0  0  0
  -18.2330  -26.7270   22.2830 C   0  0  0  0  0  2  0  0  0  0  0  0
  -19.1740  -28.8450   23.3780 C   0  0  0  0  0  0  0  0  0  0  0  0
  -18.9540  -30.1110   23.9640 C   0  0  0  0  0  3  0  0  0  0  0  0
  -17.6490  -30.6120   24.1300 C   0  0  0  0  0  3  0  0  0  0  0  0
  -16.5450  -29.8450   23.7190 C   0  0  0  0  0  3  0  0  0  0  0  0
  -16.7490  -28.5810   23.1370 C   0  0  0  0  0  3  0  0  0  0  0  0
  -25.9020  -32.5160   23.8430 C   0  0  0  0  0  3  0  0  0  0  0  0
  -25.5900  -33.9120   24.1790 N   0  0  0  0  0  0  0  0  0  0  0  0
  -25.9140  -34.9670   23.4180 C   0  0  0  0  0  0  0  0  0  0  0  0
  -26.5770  -34.8670   22.3830 O   0  0  0  0  0  0  0  0  0  0  0  0
  -25.0050  -34.0630   24.9880 H   0  0  0  0  0  0  0  0  0  0  0  0
  -24.1800  -36.7550   23.0720 C   0  0  0  0  0  1  0  0  0  0  0  0
  -25.4250  -36.3540   23.8790 C   0  0  0  0  0  3  0  0  0  0  0  0
  -27.5630  -37.2400   24.6990 C   0  0  0  0  0  1  0  0  0  0  0  0
  -26.4540  -37.4090   23.7630 N   0  0  0  0  0  0  0  0  0  0  0  0
  -26.0470  -38.3280   23.9170 H   0  0  0  0  0  0  0  0  0  0  0  0
  -26.4310  -31.7420   25.1130 C   0  0  1  0  0  0  0  0  0  0  0  0
  -25.3470  -31.5010   26.1890 C   0  0  0  0  0  1  0  0  0  0  0  0
  -27.0140  -30.3680   24.7080 C   0  0  0  0  0  1  0  0  0  0  0  0
  -27.5870  -32.5350   25.7670 C   0  0  0  0  0  1  0  0  0  0  0  0
  1 49  1  0
  2  1  1  0
  3  5  2  0
  3  4  1  0
  4  6  2  0
  5  7  1  0
  6  8  1  0
  6  9  1  0
  7  1  1  0
  7  8  2  0
 10 18  1  0
 11 16  1  0
 12 13  1  0
 12 11  1  0
 14 13  1  0
 14 23  1  0
 14 15  1  0
 16 10  1  0
 16 15  1  0
 17 10  2  0
 18  9  1  0
 18 19  1  0
 20 21  2  0
 21 40  1  0
 22 21  1  0
 22 25  1  0
 23 20  1  0
 23 24  1  0
 24 22  2  0
 25 26  1  0
 26 27  2  0
 28 31  1  0
 28 27  1  0
 29 28  2  0
 30 29  1  0
 30 25  2  0
 31 32  1  0
 32 33  1  0
 33 34  2  0
 35 34  1  0
 35 39  1  0
 36 35  2  0
 37 32  2  0
 37 36  1  0
 38 37  1  0
 40 41  1  0
 41 44  1  0
 41 43  1  0
 42 40  2  0
 45 46  1  0
 45 20  1  0
 47 45  1  0
 49 48  1  0
 50 49  1  0
 50 51  2  0
 52 51  1  0
 53 64  2  0
 54 52  1  0
 54 59  1  0
 55 63  1  0
 55 65  1  0
 56 62  1  0
 56 58  1  0
 57 63  1  0
 58 57  1  0
 59 58  2  0
 60 54  2  0
 61 60  1  0
 61 56  2  0
 62 55  1  0
 63 53  1  0
 65 67  2  0
 66 65  1  0
 68 66  1  0
 69 78  2  0
 69 74  1  0
 70 66  1  0
 70 74  1  0
 71 70  1  0
 72 73  1  0
 72 71  1  0
 73 69  1  0
 74 75  2  0
 75 76  1  0
 77 76  2  0
 78 77  1  0
 79 53  1  0
 79 80  1  0
 79 89  1  0
 80 83  1  0
 81 85  1  0
 81 80  1  0
 82 81  2  0
 85 84  1  0
 87 85  1  0
 87 88  1  0
 87 86  1  0
 89 92  1  1
 89 90  1  0
 91 89  1  0
M  ISO  4  10 100  18 100  51 101  52 101
M  END
>  <TORSDO>  (14) 
F 21

>  <SCORE>  (14) 
-13.777

>  <name>  (14) 
13

>  <ligand_id>  (14) 
13

>  <original_smiles>  (14) 
[H]c1c(N([H])C([H])(C([H])([H])[H])C([H])([H])C([H])([H])Oc2c([H])c([H])c3c(c2[H])C([H])([H])N(C(=O)C([H])(N([H])C(=O)C([H])(N([H])C([H])([H])[H])C([H])([H])[H])C(C([H])([H])[H])(C([H])([H])[H])C([H])([H])[H])C([H])(C(=O)N([H])C2([H])c4c([H])c([H])c([H])c([H])c4C([H])([H])C([H])([H])C2([H])[H])C3([H])[H])nc(C([H])([H])N([H])C(=O)N2C([H])([H])C([H])([H])C([H])([H])C([H])(n3nc(-c4c([H])c([H])c(Oc5c([H])c([H])c(F)c([H])c5F)c([H])c4[H])c(C(=O)N([H])[H])c3N([H])[H])C2([H])[H])c([H])c1[H]

>  <smiles>  (14) 
[H]c1c(N([H])C([H])(C([H])([H])[H])C([H])([H])C([H])([H])Oc2c([H])c([H])c3c(c2[H])C([H])([H])N(C(=O)C([H])(N([H])C(=O)C([H])(N([H])C([H])([H])[H])C([H])([H])[H])C(C([H])([H])[H])(C([H])([H])[H])C([H])([H])[H])C([H])(C(=O)N([H])C2([H])c4c([H])c([H])c([H])c([H])c4C([H])([H])C([H])([H])C2([H])[H])C3([H])[H])nc(C([H])([H])N([H])C(=O)N2C([H])([H])C([H])([H])C([H])([H])C([H])(n3nc(-c4c([H])c([H])c(Oc5c([H])c([H])c(F)c([H])c5F)c([H])c4[H])c(C(=O)N([H])[H])c3N([H])[H])C2([H])[H])c([H])c1[H]

$$$$
14:0:0
     RDKit          3D

 92100  0  0  1  0  0  0  0  0999 V2000
  -29.4840  -20.1840   19.1220 C   0  0  0  0  0  3  0  0  0  0  0  0
  -30.4480  -19.6360   21.5620 C   0  0  0  0  0  0  0  0  0  0  0  0
  -30.3950  -18.5850   20.5820 C   0  0  0  0  0  0  0  0  0  0  0  0
  -29.5980  -21.2440   20.0720 C   0  0  0  0  0  0  0  0  0  0  0  0
  -30.9480  -19.4040   22.9750 C   0  0  0  0  0  1  0  0  0  0  0  0
  -29.8790  -18.8900   19.3600 N   0  0  0  0  0  0  0  0  0  0  0  0
  -30.0690  -20.9330   21.3060 N   0  0  0  0  0  0  0  0  0  0  0  0
  -29.1730  -22.5750   19.7330 N   0  0  0  0  0  0  0  0  0  0  0  0
  -28.9580  -22.6730   18.7440 H   0  0  0  0  0  0  0  0  0  0  0  0
  -28.9030  -23.8580   21.8840 C   0  0  0  0  0  1  0  0  0  0  0  0
  -29.3740  -23.8980   20.4220 C   0  0  0  0  0  3  0  0  0  0  0  0
  -28.6370  -25.1060   19.6720 C   0  0  0  0  0  2  0  0  0  0  0  0
  -28.6610  -26.5010   20.1990 O   0  0  0  0  0  0  0  0  0  0  0  0
  -24.7510  -31.7560   23.2770 C   0  0  0  0  0  0  0  0  0  0  0  0
  -27.5270  -27.3380   20.1250 C   0  0  0  0  0  0  0  0  0  0  0  0
  -23.6170  -30.3890   21.5660 C   0  0  0  0  0  3  0  0  0  0  0  0
  -25.1320  -28.9210   20.1210 C   0  0  0  0  0  0  0  0  0  0  0  0
  -26.1560  -30.7540   21.4590 C   0  0  0  0  0  2  0  0  0  0  0  0
  -26.2770  -29.3980   20.7710 C   0  0  0  0  0  0  0  0  0  0  0  0
  -27.4710  -28.6130   20.7770 C   0  0  0  0  0  3  0  0  0  0  0  0
  -26.3630  -26.9440   19.4220 C   0  0  0  0  0  3  0  0  0  0  0  0
  -25.1800  -27.7000   19.4390 C   0  0  0  0  0  3  0  0  0  0  0  0
  -23.8780  -29.7680   20.1690 C   0  0  0  0  0  2  0  0  0  0  0  0
  -24.8590  -30.9820   22.1580 N   0  0  0  0  0  0  0  0  0  0  0  0
  -23.6470  -31.9960   23.7910 O   0  0  0  0  0  0  0  0  0  0  0  0
  -22.9530  -29.3250   22.4730 C   0  0  0  0  0  0  0  0  0  0  0  0
  -21.6360  -29.1230   22.3010 N   0  0  0  0  0  0  0  0  0  0  0  0
  -23.6230  -28.6890   23.2910 O   0  0  0  0  0  0  0  0  0  0  0  0
  -21.1560  -29.6890   21.6160 H   0  0  0  0  0  0  0  0  0  0  0  0
  -18.2770  -27.8320   22.6760 C   0  0  0  0  0  0  0  0  0  0  0  0
  -20.8190  -28.1460   23.0230 C   0  0  0  0  0  3  0  0  0  0  0  0
  -20.9710  -26.7320   22.4200 C   0  0  0  0  0  2  0  0  0  0  0  0
  -19.9050  -26.4020   21.3700 C   0  0  0  0  0  2  0  0  0  0  0  0
  -18.5050  -26.5020   21.9800 C   0  0  0  0  0  2  0  0  0  0  0  0
  -19.3630  -28.6100   23.1550 C   0  0  0  0  0  0  0  0  0  0  0  0
  -19.0980  -29.8510   23.7730 C   0  0  0  0  0  3  0  0  0  0  0  0
  -17.7760  -30.3180   23.9120 C   0  0  0  0  0  3  0  0  0  0  0  0
  -16.7040  -29.5370   23.4480 C   0  0  0  0  0  3  0  0  0  0  0  0
  -16.9540  -28.2940   22.8370 C   0  0  0  0  0  3  0  0  0  0  0  0
  -26.0020  -32.3960   23.9510 C   0  0  0  0  0  3  0  0  0  0  0  0
  -26.4810  -31.6150   25.2380 C   0  0  1  0  0  0  0  0  0  0  0  0
  -25.3520  -31.3560   26.2630 C   0  0  0  0  0  1  0  0  0  0  0  0
  -27.0910  -30.2480   24.8500 C   0  0  0  0  0  1  0  0  0  0  0  0
  -27.6020  -32.4130   25.9450 C   0  0  0  0  0  1  0  0  0  0  0  0
  -25.6650  -33.7870   24.2860 N   0  0  0  0  0  0  0  0  0  0  0  0
  -25.9890  -34.8490   23.5370 C   0  0  0  0  0  0  0  0  0  0  0  0
  -26.6710  -34.7630   22.5130 O   0  0  0  0  0  0  0  0  0  0  0  0
  -25.0590  -33.9250   25.0810 H   0  0  0  0  0  0  0  0  0  0  0  0
  -24.2210  -36.6040   23.1900 C   0  0  0  0  0  1  0  0  0  0  0  0
  -25.4750  -36.2270   23.9960 C   0  0  0  0  0  3  0  0  0  0  0  0
  -27.5920  -37.1600   24.8190 C   0  0  0  0  0  1  0  0  0  0  0  0
  -26.4840  -37.3020   23.8770 N   0  0  0  0  0  0  0  0  0  0  0  0
  -26.0590  -38.2150   24.0210 H   0  0  0  0  0  0  0  0  0  0  0  0
  -31.1540  -17.2020   20.7250 C   0  0  0  0  0  2  0  0  0  0  0  0
  -31.2140  -14.7170   20.0850 C   0  0  0  0  0  0  0  0  0  0  0  0
  -30.8990  -12.4550   19.0870 C   0  0  0  0  0  2  0  0  0  0  0  0
  -29.9500  -12.5590   17.8750 C   0  0  0  0  0  2  0  0  0  0  0  0
  -28.4770  -12.4630   18.3240 C   0  0  0  0  0  2  0  0  0  0  0  0
  -28.1570  -13.3810   19.5350 C   0  0  0  0  0  3  0  0  0  0  0  0
  -29.2250  -13.2450   20.6420 C   0  0  0  0  0  2  0  0  0  0  0  0
  -30.5270  -13.5310   20.0280 N   0  0  0  0  0  0  0  0  0  0  0  0
  -32.3820  -14.7800   19.6890 O   0  0  0  0  0  0  0  0  0  0  0  0
  -30.5330  -15.8550   20.4440 N   0  0  0  0  0  0  0  0  0  0  0  0
  -29.5570  -15.7450   20.6800 H   0  0  0  0  0  0  0  0  0  0  0  0
  -25.8180  -14.0810   20.3290 C   0  0  0  0  0  0  0  0  0  0  0  0
  -24.7210  -13.3570   20.7070 C   0  0  0  0  0  0  0  0  0  0  0  0
  -25.1080  -11.9830   20.6250 C   0  0  0  0  0  0  0  0  0  0  0  0
  -26.8090  -13.1540   20.0440 N   0  0  0  0  0  0  0  0  0  0  0  0
  -26.3870  -11.8850   20.2800 N   0  0  0  0  0  0  0  0  0  0  0  0
  -24.3170  -10.7560   20.7940 C   0  0  0  0  0  0  0  0  0  0  0  0
  -24.7040   -9.7490   21.7050 C   0  0  0  0  0  3  0  0  0  0  0  0
  -23.9180   -8.5860   21.8630 C   0  0  0  0  0  3  0  0  0  0  0  0
  -22.7320   -8.4240   21.1090 C   0  0  0  0  0  0  0  0  0  0  0  0
  -22.3650   -9.4180   20.1850 C   0  0  0  0  0  3  0  0  0  0  0  0
  -23.1510  -10.5720   20.0250 C   0  0  0  0  0  3  0  0  0  0  0  0
  -21.9210   -7.3180   21.1780 O   0  0  0  0  0  0  0  0  0  0  0  0
  -21.8000   -6.5850   22.3310 C   0  0  0  0  0  0  0  0  0  0  0  0
  -21.3550   -7.1640   23.5400 C   0  0  0  0  0  3  0  0  0  0  0  0
  -21.1780   -6.3580   24.6830 C   0  0  0  0  0  3  0  0  0  0  0  0
  -21.4370   -4.9770   24.6190 C   0  0  0  0  0  0  0  0  0  0  0  0
  -21.8750   -4.3970   23.4150 C   0  0  0  0  0  3  0  0  0  0  0  0
  -22.0540   -5.1990   22.2730 C   0  0  0  0  0  0  0  0  0  0  0  0
  -22.4560   -4.6320   21.1120 F   0  0  0  0  0  0  0  0  0  0  0  0
  -21.2600   -4.2020   25.7150 F   0  0  0  0  0  0  0  0  0  0  0  0
  -23.3590  -13.9000   21.0300 C   0  0  0  0  0  0  0  0  0  0  0  0
  -22.6160  -13.2210   21.9000 N   0  0  0  0  0  0  0  0  0  0  0  0
  -22.9640  -14.9600   20.5480 O   0  0  0  0  0  0  0  0  0  0  0  0
  -22.9490  -12.3640   22.3130 H   0  0  0  0  0  0  0  0  0  0  0  0
  -21.7040  -13.5680   22.1580 H   0  0  0  0  0  0  0  0  0  0  0  0
  -26.0540  -15.4440   20.1810 N   0  0  0  0  0  0  0  0  0  0  0  0
  -25.3160  -16.1330   20.2940 H   0  0  0  0  0  0  0  0  0  0  0  0
  -26.8920  -15.8280   19.7580 H   0  0  0  0  0  0  0  0  0  0  0  0
  1  6  2  0
  1  4  1  0
  2  5  1  0
  3 54  1  0
  3  2  2  0
  4  7  2  0
  6  3  1  0
  7  2  1  0
  8  4  1  0
  8 11  1  0
  9  8  1  0
 11 10  1  0
 12 13  1  0
 12 11  1  0
 14 25  2  0
 15 13  1  0
 15 20  1  0
 16 24  1  0
 16 26  1  0
 17 23  1  0
 17 19  1  0
 18 24  1  0
 19 20  2  0
 19 18  1  0
 21 22  1  0
 21 15  2  0
 22 17  2  0
 23 16  1  0
 24 14  1  0
 26 28  2  0
 27 26  1  0
 29 27  1  0
 30 39  2  0
 30 35  1  0
 31 27  1  0
 31 35  1  0
 32 31  1  0
 33 34  1  0
 33 32  1  0
 34 30  1  0
 35 36  2  0
 36 37  1  0
 38 37  2  0
 39 38  1  0
 40 14  1  0
 40 45  1  0
 40 41  1  0
 41 44  1  1
 41 42  1  0
 43 41  1  0
 45 48  1  0
 46 50  1  0
 46 45  1  0
 47 46  2  0
 50 49  1  0
 52 50  1  0
 52 53  1  0
 52 51  1  0
 55 63  1  0
 56 61  1  0
 57 58  1  0
 57 56  1  0
 59 58  1  0
 59 68  1  0
 59 60  1  0
 61 55  1  0
 61 60  1  0
 62 55  2  0
 63 64  1  0
 63 54  1  0
 65 66  2  0
 66 85  1  0
 67 66  1  0
 67 70  1  0
 68 69  1  0
 68 65  1  0
 69 67  2  0
 70 71  1  0
 71 72  2  0
 73 76  1  0
 73 72  1  0
 74 73  2  0
 75 74  1  0
 75 70  2  0
 76 77  1  0
 77 78  1  0
 78 79  2  0
 80 79  1  0
 80 84  1  0
 81 80  2  0
 82 77  2  0
 82 81  1  0
 83 82  1  0
 85 86  1  0
 86 89  1  0
 86 88  1  0
 87 85  2  0
 90 91  1  0
 90 65  1  0
 92 90  1  0
M  ISO  4  12 101  13 101  55 100  63 100
M  END
>  <TORSDO>  (15) 
F 20

>  <SCORE>  (15) 
-13.218

>  <name>  (15) 
14

>  <ligand_id>  (15) 
14

>  <original_smiles>  (15) 
[H]c1nc(C([H])([H])N([H])C(=O)N2C([H])([H])C([H])([H])C([H])([H])C([H])(n3nc(-c4c([H])c([H])c(Oc5c([H])c([H])c(F)c([H])c5F)c([H])c4[H])c(C(=O)N([H])[H])c3N([H])[H])C2([H])[H])c(C([H])([H])[H])nc1N([H])C([H])(C([H])([H])[H])C([H])([H])Oc1c([H])c([H])c2c(c1[H])C([H])([H])N(C(=O)C([H])(N([H])C(=O)C([H])(N([H])C([H])([H])[H])C([H])([H])[H])C(C([H])([H])[H])(C([H])([H])[H])C([H])([H])[H])C([H])(C(=O)N([H])C1([H])c3c([H])c([H])c([H])c([H])c3C([H])([H])C([H])([H])C1([H])[H])C2([H])[H]

>  <smiles>  (15) 
[H]c1nc(C([H])([H])N([H])C(=O)N2C([H])([H])C([H])([H])C([H])([H])C([H])(n3nc(-c4c([H])c([H])c(Oc5c([H])c([H])c(F)c([H])c5F)c([H])c4[H])c(C(=O)N([H])[H])c3N([H])[H])C2([H])[H])c(C([H])([H])[H])nc1N([H])C([H])(C([H])([H])[H])C([H])([H])Oc1c([H])c([H])c2c(c1[H])C([H])([H])N(C(=O)C([H])(N([H])C(=O)C([H])(N([H])C([H])([H])[H])C([H])([H])[H])C(C([H])([H])[H])(C([H])([H])[H])C([H])([H])[H])C([H])(C(=O)N([H])C1([H])c3c([H])c([H])c([H])c([H])c3C([H])([H])C([H])([H])C1([H])[H])C2([H])[H]

$$$$
15:0:0
     RDKit          3D

 98106  0  0  1  0  0  0  0  0999 V2000
  -30.5730  -22.0460   22.1650 C   0  0  0  0  0  1  0  0  0  0  0  0
  -30.3160  -22.5460   20.7190 C   0  0  0  0  0  3  0  0  0  0  0  0
  -29.9050  -21.4130   19.8330 N   0  0  0  0  0  4  0  0  0  0  0  0
  -29.1810  -20.8540   20.2560 H   0  0  0  0  0  0  0  0  0  0  0  0
  -29.5260  -21.8090   18.9880 H   0  0  0  0  0  0  0  0  0  0  0  0
  -30.9200  -20.1800   17.9000 C   0  0  0  0  0  1  0  0  0  0  0  0
  -30.9980  -20.5060   19.3990 C   0  0  0  0  0  3  0  0  0  0  0  0
  -30.9150  -14.7450   20.4500 C   0  0  0  0  0  0  0  0  0  0  0  0
  -30.5830  -12.5580   19.3710 C   0  0  0  0  0  2  0  0  0  0  0  0
  -29.6850  -12.7360   18.1310 C   0  0  0  0  0  2  0  0  0  0  0  0
  -28.2000  -12.6190   18.5240 C   0  0  0  0  0  2  0  0  0  0  0  0
  -27.8320  -13.5020   19.7460 C   0  0  0  0  0  3  0  0  0  0  0  0
  -28.8580  -13.3440   20.8920 C   0  0  0  0  0  2  0  0  0  0  0  0
  -30.1980  -13.5950   20.3420 N   0  0  0  0  0  0  0  0  0  0  0  0
  -32.0700  -14.8360   20.0240 O   0  0  0  0  0  0  0  0  0  0  0  0
  -31.1100  -19.2310   20.2390 C   0  0  0  0  0  3  0  0  0  0  0  0
  -30.8130  -17.1380   20.9140 C   0  0  0  0  0  0  0  0  0  0  0  0
  -30.2840  -18.1710   20.2210 N   0  0  0  0  0  0  0  0  0  0  0  0
  -31.9290  -17.3580   21.6310 N   0  0  0  0  0  2  0  0  0  0  0  0
  -30.2450  -15.8400   20.8580 N   0  0  0  0  0  0  0  0  0  0  0  0
  -32.4690  -18.9170   21.2930 S   0  0  0  0  0  0  0  0  0  0  0  0
  -29.2550  -15.7570   21.0130 H   0  0  0  0  0  0  0  0  0  0  0  0
  -25.4360  -14.1400   20.4230 C   0  0  0  0  0  0  0  0  0  0  0  0
  -24.3480  -13.3800   20.7630 C   0  0  0  0  0  0  0  0  0  0  0  0
  -24.7870  -12.0210   20.7220 C   0  0  0  0  0  0  0  0  0  0  0  0
  -26.4680  -13.2430   20.1990 N   0  0  0  0  0  0  0  0  0  0  0  0
  -26.0810  -11.9640   20.4380 N   0  0  0  0  0  0  0  0  0  0  0  0
  -24.0360  -10.7690   20.8780 C   0  0  0  0  0  0  0  0  0  0  0  0
  -24.4210   -9.7880   21.8190 C   0  0  0  0  0  3  0  0  0  0  0  0
  -23.6700   -8.6020   21.9640 C   0  0  0  0  0  3  0  0  0  0  0  0
  -22.5200   -8.3880   21.1660 C   0  0  0  0  0  0  0  0  0  0  0  0
  -22.1560   -9.3560   20.2150 C   0  0  0  0  0  3  0  0  0  0  0  0
  -22.9060  -10.5340   20.0680 C   0  0  0  0  0  3  0  0  0  0  0  0
  -21.7460   -7.2530   21.2200 O   0  0  0  0  0  0  0  0  0  0  0  0
  -21.6250   -6.5180   22.3720 C   0  0  0  0  0  0  0  0  0  0  0  0
  -21.1540   -7.0880   23.5740 C   0  0  0  0  0  3  0  0  0  0  0  0
  -20.9790   -6.2810   24.7150 C   0  0  0  0  0  3  0  0  0  0  0  0
  -21.2650   -4.9040   24.6550 C   0  0  0  0  0  0  0  0  0  0  0  0
  -21.7300   -4.3330   23.4570 C   0  0  0  0  0  3  0  0  0  0  0  0
  -21.9060   -5.1380   22.3180 C   0  0  0  0  0  0  0  0  0  0  0  0
  -22.3330   -4.5780   21.1600 F   0  0  0  0  0  0  0  0  0  0  0  0
  -21.0920   -4.1270   25.7490 F   0  0  0  0  0  0  0  0  0  0  0  0
  -22.9550  -13.8780   21.0160 C   0  0  0  0  0  0  0  0  0  0  0  0
  -22.2010  -13.1870   21.8630 N   0  0  0  0  0  0  0  0  0  0  0  0
  -22.5420  -14.9140   20.4960 O   0  0  0  0  0  0  0  0  0  0  0  0
  -22.5490  -12.3480   22.3030 H   0  0  0  0  0  0  0  0  0  0  0  0
  -21.2640  -13.5000   22.0740 H   0  0  0  0  0  0  0  0  0  0  0  0
  -25.6280  -15.5090   20.2660 N   0  0  0  0  0  0  0  0  0  0  0  0
  -24.8670  -16.1740   20.3590 H   0  0  0  0  0  0  0  0  0  0  0  0
  -26.4850  -15.9340   19.9360 H   0  0  0  0  0  0  0  0  0  0  0  0
  -29.3560  -23.7870   20.6350 C   0  0  0  0  0  3  0  0  0  0  0  0
  -29.9810  -25.0230   21.3700 C   0  0  0  0  0  2  0  0  0  0  0  0
  -29.1670  -26.3400   21.4760 C   0  0  0  0  0  2  0  0  0  0  0  0
  -29.0390  -27.0730   20.2540 O   0  0  0  0  0  0  0  0  0  0  0  0
  -24.7200  -31.8480   23.3210 C   0  0  0  0  0  0  0  0  0  0  0  0
  -27.8610  -27.7820   20.2030 C   0  0  0  0  0  0  0  0  0  0  0  0
  -23.7150  -30.4410   21.5500 C   0  0  0  0  0  3  0  0  0  0  0  0
  -25.3620  -29.0940   20.1400 C   0  0  0  0  0  0  0  0  0  0  0  0
  -26.2080  -31.0040   21.5120 C   0  0  0  0  0  2  0  0  0  0  0  0
  -26.4400  -29.6760   20.8220 C   0  0  0  0  0  0  0  0  0  0  0  0
  -27.6940  -29.0230   20.8610 C   0  0  0  0  0  3  0  0  0  0  0  0
  -26.7750  -27.2210   19.5050 C   0  0  0  0  0  3  0  0  0  0  0  0
  -25.5230  -27.8620   19.4800 C   0  0  0  0  0  3  0  0  0  0  0  0
  -24.0520  -29.8490   20.1550 C   0  0  0  0  0  2  0  0  0  0  0  0
  -24.8940  -31.1100   22.1890 N   0  0  0  0  0  0  0  0  0  0  0  0
  -23.5930  -32.0120   23.8100 O   0  0  0  0  0  0  0  0  0  0  0  0
  -23.0930  -29.3280   22.4250 C   0  0  0  0  0  0  0  0  0  0  0  0
  -21.7820  -29.0910   22.2470 N   0  0  0  0  0  0  0  0  0  0  0  0
  -23.7850  -28.6830   23.2170 O   0  0  0  0  0  0  0  0  0  0  0  0
  -21.2870  -29.6640   21.5800 H   0  0  0  0  0  0  0  0  0  0  0  0
  -18.4470  -27.7530   22.6140 C   0  0  0  0  0  0  0  0  0  0  0  0
  -20.9920  -28.0680   22.9310 C   0  0  0  0  0  3  0  0  0  0  0  0
  -21.1470  -26.6950   22.2370 C   0  0  0  0  0  2  0  0  0  0  0  0
  -20.0620  -26.4240   21.1900 C   0  0  0  0  0  2  0  0  0  0  0  0
  -18.6710  -26.4700   21.8310 C   0  0  0  0  0  2  0  0  0  0  0  0
  -19.5370  -28.5110   23.1160 C   0  0  0  0  0  0  0  0  0  0  0  0
  -19.2750  -29.7140   23.8070 C   0  0  0  0  0  3  0  0  0  0  0  0
  -17.9540  -30.1610   24.0000 C   0  0  0  0  0  3  0  0  0  0  0  0
  -16.8780  -29.3980   23.5150 C   0  0  0  0  0  3  0  0  0  0  0  0
  -17.1250  -28.1940   22.8320 C   0  0  0  0  0  3  0  0  0  0  0  0
  -25.9200  -32.5400   24.0420 C   0  0  0  0  0  3  0  0  0  0  0  0
  -25.5180  -33.9180   24.3510 N   0  0  0  0  0  0  0  0  0  0  0  0
  -25.8430  -34.9870   23.6130 C   0  0  0  0  0  0  0  0  0  0  0  0
  -26.5830  -34.9200   22.6270 O   0  0  0  0  0  0  0  0  0  0  0  0
  -24.8670  -34.0390   25.1130 H   0  0  0  0  0  0  0  0  0  0  0  0
  -24.0390  -36.6740   23.1450 C   0  0  0  0  0  1  0  0  0  0  0  0
  -25.2520  -36.3470   24.0310 C   0  0  0  0  0  3  0  0  0  0  0  0
  -27.2830  -37.3450   24.9790 C   0  0  0  0  0  1  0  0  0  0  0  0
  -26.2300  -37.4560   23.9730 N   0  0  0  0  0  0  0  0  0  0  0  0
  -25.7660  -38.3510   24.1010 H   0  0  0  0  0  0  0  0  0  0  0  0
  -26.3780  -31.7850   25.3490 C   0  0  1  0  0  0  0  0  0  0  0  0
  -25.2170  -31.4760   26.3230 C   0  0  0  0  0  1  0  0  0  0  0  0
  -27.0660  -30.4470   24.9910 C   0  0  0  0  0  1  0  0  0  0  0  0
  -27.4310  -32.6310   26.1060 C   0  0  0  0  0  1  0  0  0  0  0  0
  -27.9180  -23.4460   21.1270 C   0  0  0  0  0  2  0  0  0  0  0  0
  -26.6360  -24.5310   19.2110 C   0  0  0  0  0  1  0  0  0  0  0  0
  -25.5560  -22.7030   20.5710 C   0  0  0  0  0  1  0  0  0  0  0  0
  -26.8770  -23.2390   20.0050 C   0  0  0  0  0  3  0  0  0  0  0  0
  2  1  1  0
  3  4  1  0
  3  2  1  0
  5  3  1  0
  7  6  1  0
  7  3  1  0
  8 20  1  0
  9 14  1  0
 10 11  1  0
 10  9  1  0
 12 11  1  0
 12 26  1  0
 12 13  1  0
 14  8  1  0
 14 13  1  0
 15  8  2  0
 16  7  1  0
 16 21  1  0
 17 19  1  0
 18 16  1  0
 18 17  2  0
 20 17  1  0
 20 22  1  0
 21 19  1  0
 23 24  2  0
 24 43  1  0
 25 24  1  0
 25 28  1  0
 26 23  1  0
 26 27  1  0
 27 25  2  0
 28 29  1  0
 29 30  2  0
 31 34  1  0
 31 30  1  0
 32 31  2  0
 33 32  1  0
 33 28  2  0
 34 35  1  0
 35 36  1  0
 36 37  2  0
 38 37  1  0
 38 42  1  0
 39 38  2  0
 40 35  2  0
 40 39  1  0
 41 40  1  0
 43 44  1  0
 44 47  1  0
 44 46  1  0
 45 43  2  0
 48 49  1  0
 48 23  1  0
 50 48  1  0
 51  2  1  0
 51 95  1  0
 51 52  1  0
 52 53  1  0
 54 53  1  0
 55 66  2  0
 56 54  1  0
 56 61  1  0
 57 65  1  0
 57 67  1  0
 58 64  1  0
 58 60  1  0
 59 65  1  0
 60 61  2  0
 60 59  1  0
 62 56  2  0
 63 62  1  0
 63 58  2  0
 64 57  1  0
 65 55  1  0
 67 69  2  0
 68 67  1  0
 70 68  1  0
 71 80  2  0
 71 76  1  0
 72 68  1  0
 72 76  1  0
 73 72  1  0
 74 75  1  0
 74 73  1  0
 75 71  1  0
 76 77  2  0
 77 78  1  0
 79 78  2  0
 80 79  1  0
 81 55  1  0
 81 82  1  0
 81 91  1  0
 82 85  1  0
 83 87  1  0
 83 82  1  0
 84 83  2  0
 87 86  1  0
 89 87  1  0
 89 90  1  0
 89 88  1  0
 91 94  1  1
 91 92  1  0
 93 91  1  0
 96 98  1  0
 98 97  1  0
 98 95  1  0
M  ISO  4   8 100  20 100  53 101  54 101
M  END
>  <TORSDO>  (16) 
F 23

>  <SCORE>  (16) 
-12.042

>  <name>  (16) 
15

>  <ligand_id>  (16) 
15

>  <original_smiles>  (16) 
[H]c1c([H])c([H])c2c(c1[H])C([H])([H])C([H])([H])C([H])([H])C2([H])N([H])C(=O)C1([H])N(C(=O)C([H])(N([H])C(=O)C([H])(N([H])C([H])([H])[H])C([H])([H])[H])C(C([H])([H])[H])(C([H])([H])[H])C([H])([H])[H])C([H])([H])c2c([H])c(OC([H])([H])C([H])([H])C([H])(C([H])([H])C([H])(C([H])([H])[H])C([H])([H])[H])C([H])(C([H])([H])[H])[N+]([H])([H])C([H])(c3nc(N([H])C(=O)N4C([H])([H])C([H])([H])C([H])([H])C([H])(n5nc(-c6c([H])c([H])c(Oc7c([H])c([H])c(F)c([H])c7F)c([H])c6[H])c(C(=O)N([H])[H])c5N([H])[H])C4([H])[H])ns3)C([H])([H])[H])c([H])c([H])c2C1([H])[H]

>  <smiles>  (16) 
[H]c1c([H])c([H])c2c(c1[H])C([H])([H])C([H])([H])C([H])([H])C2([H])N([H])C(=O)C1([H])N(C(=O)C([H])(N([H])C(=O)C([H])(N([H])C([H])([H])[H])C([H])([H])[H])C(C([H])([H])[H])(C([H])([H])[H])C([H])([H])[H])C([H])([H])c2c([H])c(OC([H])([H])C([H])([H])C([H])(C([H])([H])C([H])(C([H])([H])[H])C([H])([H])[H])C([H])(C([H])([H])[H])[N+]([H])([H])C([H])(c3nc(N([H])C(=O)N4C([H])([H])C([H])([H])C([H])([H])C([H])(n5nc(-c6c([H])c([H])c(Oc7c([H])c([H])c(F)c([H])c7F)c([H])c6[H])c(C(=O)N([H])[H])c5N([H])[H])C4([H])[H])ns3)C([H])([H])[H])c([H])c([H])c2C1([H])[H]

$$$$
16:0:0
     RDKit          3D

 93101  0  0  1  0  0  0  0  0999 V2000
  -27.3870  -21.1430   18.8850 C   0  0  0  0  0  1  0  0  0  0  0  0
  -28.8330  -21.4210   19.3320 C   0  0  0  0  0  3  0  0  0  0  0  0
  -28.2510  -16.6260   20.5710 C   0  0  0  0  0  3  0  0  0  0  0  0
  -29.5930  -16.5420   20.2880 C   0  0  0  0  0  0  0  0  0  0  0  0
  -29.2520  -18.8170   19.9790 C   0  0  0  0  0  0  0  0  0  0  0  0
  -30.1540  -17.8090   19.9660 N   0  0  0  0  0  0  0  0  0  0  0  0
  -29.5480  -20.1760   19.7250 N   0  0  0  0  0  0  0  0  0  0  0  0
  -27.6320  -18.2490   20.3800 S   0  0  0  0  0  0  0  0  0  0  0  0
  -30.5530  -20.3010   19.6420 H   0  0  0  0  0  0  0  0  0  0  0  0
  -30.6660  -14.4070   19.5870 C   0  0  0  0  0  0  0  0  0  0  0  0
  -30.1530  -12.2760   18.4160 C   0  0  0  0  0  2  0  0  0  0  0  0
  -29.0780  -12.4840   17.3320 C   0  0  0  0  0  2  0  0  0  0  0  0
  -27.6690  -12.3500   17.9370 C   0  0  0  0  0  2  0  0  0  0  0  0
  -27.4940  -13.1950   19.2280 C   0  0  0  0  0  3  0  0  0  0  0  0
  -28.6690  -12.9680   20.2040 C   0  0  0  0  0  2  0  0  0  0  0  0
  -29.9210  -13.2630   19.4890 N   0  0  0  0  0  0  0  0  0  0  0  0
  -31.6650  -14.5920   18.8820 O   0  0  0  0  0  0  0  0  0  0  0  0
  -30.3140  -15.3130   20.5470 N   0  0  0  0  0  0  0  0  0  0  0  0
  -25.2210  -13.8410   20.2410 C   0  0  0  0  0  0  0  0  0  0  0  0
  -24.1860  -13.0880   20.7240 C   0  0  0  0  0  0  0  0  0  0  0  0
  -24.5970  -11.7260   20.5980 C   0  0  0  0  0  0  0  0  0  0  0  0
  -26.2040  -12.9390   19.8620 N   0  0  0  0  0  0  0  0  0  0  0  0
  -25.8390  -11.6600   20.1320 N   0  0  0  0  0  0  0  0  0  0  0  0
  -23.8580  -10.4800   20.8400 C   0  0  0  0  0  0  0  0  0  0  0  0
  -24.3390   -9.4960   21.7320 C   0  0  0  0  0  3  0  0  0  0  0  0
  -23.6000   -8.3160   21.9620 C   0  0  0  0  0  3  0  0  0  0  0  0
  -22.3650   -8.1120   21.3000 C   0  0  0  0  0  0  0  0  0  0  0  0
  -21.9020   -9.0830   20.3960 C   0  0  0  0  0  3  0  0  0  0  0  0
  -22.6410  -10.2550   20.1640 C   0  0  0  0  0  3  0  0  0  0  0  0
  -21.5910   -6.9860   21.4420 O   0  0  0  0  0  0  0  0  0  0  0  0
  -21.5730   -6.2680   22.6100 C   0  0  0  0  0  0  0  0  0  0  0  0
  -21.2230   -6.8580   23.8440 C   0  0  0  0  0  3  0  0  0  0  0  0
  -21.1510   -6.0670   25.0080 C   0  0  0  0  0  3  0  0  0  0  0  0
  -21.4200   -4.6870   24.9390 C   0  0  0  0  0  0  0  0  0  0  0  0
  -21.7630   -4.0960   23.7110 C   0  0  0  0  0  3  0  0  0  0  0  0
  -21.8370   -4.8850   22.5490 C   0  0  0  0  0  0  0  0  0  0  0  0
  -22.1480   -4.3070   21.3640 F   0  0  0  0  0  0  0  0  0  0  0  0
  -21.3430   -3.9250   26.0550 F   0  0  0  0  0  0  0  0  0  0  0  0
  -22.8490  -13.5970   21.1780 C   0  0  0  0  0  0  0  0  0  0  0  0
  -22.2160  -12.9070   22.1220 N   0  0  0  0  0  0  0  0  0  0  0  0
  -22.3780  -14.6400   20.7300 O   0  0  0  0  0  0  0  0  0  0  0  0
  -22.6110  -12.0610   22.5080 H   0  0  0  0  0  0  0  0  0  0  0  0
  -21.3230  -13.2320   22.4650 H   0  0  0  0  0  0  0  0  0  0  0  0
  -25.3980  -15.2100   20.0740 N   0  0  0  0  0  0  0  0  0  0  0  0
  -24.6500  -15.8670   20.2740 H   0  0  0  0  0  0  0  0  0  0  0  0
  -26.1820  -15.6380   19.6000 H   0  0  0  0  0  0  0  0  0  0  0  0
  -31.2710  -16.4380   22.6280 C   0  0  0  0  0  1  0  0  0  0  0  0
  -30.9720  -15.1370   21.8580 C   0  0  0  0  0  2  0  0  0  0  0  0
  -28.2100  -22.3460   21.6470 C   0  0  0  0  0  1  0  0  0  0  0  0
  -28.9570  -22.6370   20.3330 C   0  0  0  0  0  3  0  0  0  0  0  0
  -28.5410  -24.0360   19.7140 C   0  0  0  0  0  3  0  0  0  0  0  0
  -28.5220  -25.2810   20.6720 C   0  0  0  0  0  3  0  0  0  0  0  0
  -28.5580  -26.5990   20.0530 O   0  0  0  0  0  0  0  0  0  0  0  0
  -24.5780  -31.7190   23.1030 C   0  0  0  0  0  0  0  0  0  0  0  0
  -27.3840  -27.3370   20.0500 C   0  0  0  0  0  0  0  0  0  0  0  0
  -23.4380  -30.2970   21.4300 C   0  0  0  0  0  3  0  0  0  0  0  0
  -24.9570  -28.8090   20.0140 C   0  0  0  0  0  0  0  0  0  0  0  0
  -25.9590  -30.7210   21.2760 C   0  0  0  0  0  2  0  0  0  0  0  0
  -26.0940  -29.3540   20.6260 C   0  0  0  0  0  0  0  0  0  0  0  0
  -27.3140  -28.6290   20.6320 C   0  0  0  0  0  3  0  0  0  0  0  0
  -26.2300  -26.8130   19.4320 C   0  0  0  0  0  3  0  0  0  0  0  0
  -25.0250  -27.5420   19.4070 C   0  0  0  0  0  3  0  0  0  0  0  0
  -23.6900  -29.6370   20.0480 C   0  0  0  0  0  2  0  0  0  0  0  0
  -24.6760  -30.9280   21.9960 N   0  0  0  0  0  0  0  0  0  0  0  0
  -23.4810  -31.9540   23.6280 O   0  0  0  0  0  0  0  0  0  0  0  0
  -22.8000  -29.2500   22.3730 C   0  0  0  0  0  0  0  0  0  0  0  0
  -21.4780  -29.0490   22.2410 N   0  0  0  0  0  0  0  0  0  0  0  0
  -23.4910  -28.6220   23.1790 O   0  0  0  0  0  0  0  0  0  0  0  0
  -20.9810  -29.6080   21.5620 H   0  0  0  0  0  0  0  0  0  0  0  0
  -18.1220  -27.8000   22.7220 C   0  0  0  0  0  0  0  0  0  0  0  0
  -20.6760  -28.0850   22.9940 C   0  0  0  0  0  3  0  0  0  0  0  0
  -20.7960  -26.6670   22.3850 C   0  0  0  0  0  2  0  0  0  0  0  0
  -19.6960  -26.3540   21.3670 C   0  0  0  0  0  2  0  0  0  0  0  0
  -18.3140  -26.4680   22.0160 C   0  0  0  0  0  2  0  0  0  0  0  0
  -19.2320  -28.5660   23.1670 C   0  0  0  0  0  0  0  0  0  0  0  0
  -18.9970  -29.8140   23.7840 C   0  0  0  0  0  3  0  0  0  0  0  0
  -17.6870  -30.2950   23.9630 C   0  0  0  0  0  3  0  0  0  0  0  0
  -16.5910  -29.5240   23.5350 C   0  0  0  0  0  3  0  0  0  0  0  0
  -16.8090  -28.2790   22.9200 C   0  0  0  0  0  3  0  0  0  0  0  0
  -25.8350  -32.3800   23.7490 C   0  0  0  0  0  3  0  0  0  0  0  0
  -25.4770  -33.7620   24.0990 N   0  0  0  0  0  0  0  0  0  0  0  0
  -25.7770  -34.8360   23.3570 C   0  0  0  0  0  0  0  0  0  0  0  0
  -26.4530  -34.7720   22.3270 O   0  0  0  0  0  0  0  0  0  0  0  0
  -24.8750  -33.8850   24.9000 H   0  0  0  0  0  0  0  0  0  0  0  0
  -23.9860  -36.5710   23.0240 C   0  0  0  0  0  1  0  0  0  0  0  0
  -25.2390  -36.2000   23.8320 C   0  0  0  0  0  3  0  0  0  0  0  0
  -27.3410  -37.1450   24.6800 C   0  0  0  0  0  1  0  0  0  0  0  0
  -26.2350  -37.2900   23.7380 N   0  0  0  0  0  0  0  0  0  0  0  0
  -25.7960  -38.1920   23.9000 H   0  0  0  0  0  0  0  0  0  0  0  0
  -26.3660  -31.6030   25.0160 C   0  0  1  0  0  0  0  0  0  0  0  0
  -25.2740  -31.3150   26.0710 C   0  0  0  0  0  1  0  0  0  0  0  0
  -26.9920  -30.2500   24.6040 C   0  0  0  0  0  1  0  0  0  0  0  0
  -27.4900  -32.4190   25.6990 C   0  0  0  0  0  1  0  0  0  0  0  0
  2  1  1  0
  2  7  1  0
  2 50  1  0
  4 18  1  0
  4  3  2  0
  5  8  1  0
  6  5  2  0
  6  4  1  0
  7  5  1  0
  8  3  1  0
  9  7  1  0
 10 18  1  0
 11 16  1  0
 12 13  1  0
 12 11  1  0
 14 13  1  0
 14 22  1  0
 14 15  1  0
 16 10  1  0
 16 15  1  0
 17 10  2  0
 18 48  1  0
 19 20  2  0
 20 39  1  0
 21 20  1  0
 21 24  1  0
 22 23  1  0
 22 19  1  0
 23 21  2  0
 24 25  1  0
 25 26  2  0
 27 30  1  0
 27 26  1  0
 28 27  2  0
 29 28  1  0
 29 24  2  0
 30 31  1  0
 31 32  1  0
 32 33  2  0
 34 33  1  0
 34 38  1  0
 35 34  2  0
 36 31  2  0
 36 35  1  0
 37 36  1  0
 39 40  1  0
 40 43  1  0
 40 42  1  0
 41 39  2  0
 44 19  1  0
 44 45  1  0
 46 44  1  0
 48 47  1  0
 50 49  1  0
 51 50  1  0
 51 52  2  0
 53 52  1  0
 54 65  2  0
 55 53  1  0
 55 60  1  0
 56 64  1  0
 56 66  1  0
 57 63  1  0
 57 59  1  0
 58 64  1  0
 59 60  2  0
 59 58  1  0
 61 55  2  0
 62 61  1  0
 62 57  2  0
 63 56  1  0
 64 54  1  0
 66 68  2  0
 67 66  1  0
 69 67  1  0
 70 79  2  0
 70 75  1  0
 71 67  1  0
 71 75  1  0
 72 71  1  0
 73 74  1  0
 73 72  1  0
 74 70  1  0
 75 76  2  0
 76 77  1  0
 78 77  2  0
 79 78  1  0
 80 54  1  0
 80 81  1  0
 80 90  1  0
 81 84  1  0
 82 86  1  0
 82 81  1  0
 83 82  2  0
 86 85  1  0
 88 86  1  0
 88 89  1  0
 88 87  1  0
 90 93  1  1
 90 91  1  0
 92 90  1  0
M  ISO  4  10 100  18 100  52 101  53 101
M  END
>  <TORSDO>  (17) 
F 21

>  <SCORE>  (17) 
-11.913

>  <name>  (17) 
16

>  <ligand_id>  (17) 
16

>  <original_smiles>  (17) 
[H]c1sc(N([H])C([H])(C([H])([H])[H])C([H])(C([H])([H])[H])C([H])([H])C([H])([H])Oc2c([H])c([H])c3c(c2[H])C([H])([H])N(C(=O)C([H])(N([H])C(=O)C([H])(N([H])C([H])([H])[H])C([H])([H])[H])C(C([H])([H])[H])(C([H])([H])[H])C([H])([H])[H])C([H])(C(=O)N([H])C2([H])c4c([H])c([H])c([H])c([H])c4C([H])([H])C([H])([H])C2([H])[H])C3([H])[H])nc1N(C(=O)N1C([H])([H])C([H])([H])C([H])([H])C([H])(n2nc(-c3c([H])c([H])c(Oc4c([H])c([H])c(F)c([H])c4F)c([H])c3[H])c(C(=O)N([H])[H])c2N([H])[H])C1([H])[H])C([H])([H])C([H])([H])[H]

>  <smiles>  (17) 
[H]c1sc(N([H])C([H])(C([H])([H])[H])C([H])(C([H])([H])[H])C([H])([H])C([H])([H])Oc2c([H])c([H])c3c(c2[H])C([H])([H])N(C(=O)C([H])(N([H])C(=O)C([H])(N([H])C([H])([H])[H])C([H])([H])[H])C(C([H])([H])[H])(C([H])([H])[H])C([H])([H])[H])C([H])(C(=O)N([H])C2([H])c4c([H])c([H])c([H])c([H])c4C([H])([H])C([H])([H])C2([H])[H])C3([H])[H])nc1N(C(=O)N1C([H])([H])C([H])([H])C([H])([H])C([H])(n2nc(-c3c([H])c([H])c(Oc4c([H])c([H])c(F)c([H])c4F)c([H])c3[H])c(C(=O)N([H])[H])c2N([H])[H])C1([H])[H])C([H])([H])C([H])([H])[H]

$$$$
17:0:0
     RDKit          3D

 94102  0  0  1  0  0  0  0  0999 V2000
  -29.8550  -22.9690   20.0210 C   0  0  0  0  0  3  0  0  0  0  0  0
  -32.3800  -23.3990   20.4960 C   0  0  0  0  0  1  0  0  0  0  0  0
  -31.3260  -22.8430   19.5150 C   0  0  0  0  0  3  0  0  0  0  0  0
  -30.9190  -22.5940   16.9790 C   0  0  0  0  0  1  0  0  0  0  0  0
  -31.5380  -23.4380   18.1060 C   0  0  0  0  0  2  0  0  0  0  0  0
  -29.3250  -21.6070   20.6500 C   0  0  0  0  0  2  0  0  0  0  0  0
  -30.2680  -20.6210   21.4330 C   0  0  0  0  0  2  0  0  0  0  0  0
  -29.8420  -18.0430   21.3370 C   0  0  0  0  0  3  0  0  0  0  0  0
  -31.2340  -18.8740   19.8890 C   0  0  0  0  0  3  0  0  0  0  0  0
  -30.3980  -17.0080   20.5920 C   0  0  0  0  0  0  0  0  0  0  0  0
  -31.2730  -17.5620   19.6540 N   0  0  0  0  0  0  0  0  0  0  0  0
  -30.4160  -19.2490   20.8870 N   0  0  0  0  0  0  0  0  0  0  0  0
  -30.7520  -14.5410   20.1930 C   0  0  0  0  0  0  0  0  0  0  0  0
  -30.3990  -12.3740   19.0550 C   0  0  0  0  0  2  0  0  0  0  0  0
  -29.4250  -12.5790   17.8760 C   0  0  0  0  0  2  0  0  0  0  0  0
  -27.9670  -12.4330   18.3500 C   0  0  0  0  0  2  0  0  0  0  0  0
  -27.6660  -13.2630   19.6260 C   0  0  0  0  0  3  0  0  0  0  0  0
  -28.7570  -13.0590   20.7020 C   0  0  0  0  0  2  0  0  0  0  0  0
  -30.0610  -13.3670   20.0940 N   0  0  0  0  0  0  0  0  0  0  0  0
  -31.8790  -14.6570   19.7030 O   0  0  0  0  0  0  0  0  0  0  0  0
  -30.1030  -15.6020   20.7480 N   0  0  0  0  0  0  0  0  0  0  0  0
  -29.2500  -15.3760   21.2370 H   0  0  0  0  0  0  0  0  0  0  0  0
  -25.2900  -13.8580   20.4060 C   0  0  0  0  0  0  0  0  0  0  0  0
  -24.2350  -13.0830   20.8060 C   0  0  0  0  0  0  0  0  0  0  0  0
  -24.6990  -11.7320   20.7600 C   0  0  0  0  0  0  0  0  0  0  0  0
  -26.3300  -12.9810   20.1440 N   0  0  0  0  0  0  0  0  0  0  0  0
  -25.9790  -11.6970   20.4140 N   0  0  0  0  0  0  0  0  0  0  0  0
  -23.9800  -10.4680   20.9670 C   0  0  0  0  0  0  0  0  0  0  0  0
  -24.4230   -9.5130   21.9090 C   0  0  0  0  0  3  0  0  0  0  0  0
  -23.7050   -8.3130   22.1050 C   0  0  0  0  0  3  0  0  0  0  0  0
  -22.5300   -8.0600   21.3580 C   0  0  0  0  0  0  0  0  0  0  0  0
  -22.1070   -9.0030   20.4050 C   0  0  0  0  0  3  0  0  0  0  0  0
  -22.8250  -10.1940   20.2080 C   0  0  0  0  0  3  0  0  0  0  0  0
  -21.7830   -6.9120   21.4630 O   0  0  0  0  0  0  0  0  0  0  0  0
  -21.7250   -6.1940   22.6290 C   0  0  0  0  0  0  0  0  0  0  0  0
  -21.2590   -6.7660   23.8340 C   0  0  0  0  0  3  0  0  0  0  0  0
  -21.1510   -5.9730   24.9940 C   0  0  0  0  0  3  0  0  0  0  0  0
  -21.4990   -4.6100   24.9510 C   0  0  0  0  0  0  0  0  0  0  0  0
  -21.9570   -4.0370   23.7510 C   0  0  0  0  0  3  0  0  0  0  0  0
  -22.0670   -4.8270   22.5930 C   0  0  0  0  0  0  0  0  0  0  0  0
  -22.4900   -4.2660   21.4350 F   0  0  0  0  0  0  0  0  0  0  0  0
  -21.3870   -3.8460   26.0630 F   0  0  0  0  0  0  0  0  0  0  0  0
  -22.8460  -13.5560   21.1200 C   0  0  0  0  0  0  0  0  0  0  0  0
  -22.1450  -12.8550   22.0050 N   0  0  0  0  0  0  0  0  0  0  0  0
  -22.3910  -14.5820   20.6170 O   0  0  0  0  0  0  0  0  0  0  0  0
  -22.5250  -12.0260   22.4350 H   0  0  0  0  0  0  0  0  0  0  0  0
  -21.2130  -13.1540   22.2580 H   0  0  0  0  0  0  0  0  0  0  0  0
  -25.4480  -15.2290   20.2270 N   0  0  0  0  0  0  0  0  0  0  0  0
  -24.6830  -15.8840   20.3450 H   0  0  0  0  0  0  0  0  0  0  0  0
  -26.2880  -15.6660   19.8670 H   0  0  0  0  0  0  0  0  0  0  0  0
  -29.5690  -24.3500   20.7610 C   0  0  0  0  0  2  0  0  0  0  0  0
  -27.1360  -24.2560   19.8940 C   0  0  0  0  0  1  0  0  0  0  0  0
  -28.1930  -25.1190   20.6220 C   0  0  0  0  0  3  0  0  0  0  0  0
  -28.3510  -26.5140   20.1420 O   0  0  0  0  0  0  0  0  0  0  0  0
  -24.6230  -31.8600   23.2340 C   0  0  0  0  0  0  0  0  0  0  0  0
  -27.2360  -27.3580   20.1270 C   0  0  0  0  0  0  0  0  0  0  0  0
  -23.4220  -30.4770   21.5810 C   0  0  0  0  0  3  0  0  0  0  0  0
  -24.8740  -28.9590   20.1380 C   0  0  0  0  0  0  0  0  0  0  0  0
  -25.9610  -30.8000   21.4110 C   0  0  0  0  0  2  0  0  0  0  0  0
  -26.0400  -29.4300   20.7560 C   0  0  0  0  0  0  0  0  0  0  0  0
  -27.2240  -28.6360   20.7590 C   0  0  0  0  0  3  0  0  0  0  0  0
  -26.0750  -26.9830   19.4190 C   0  0  0  0  0  3  0  0  0  0  0  0
  -24.8910  -27.7340   19.4630 C   0  0  0  0  0  3  0  0  0  0  0  0
  -23.6360  -29.8260   20.1930 C   0  0  0  0  0  2  0  0  0  0  0  0
  -24.6870  -31.0630   22.1300 N   0  0  0  0  0  0  0  0  0  0  0  0
  -23.5410  -32.1360   23.7670 O   0  0  0  0  0  0  0  0  0  0  0  0
  -22.7620  -29.4450   22.5250 C   0  0  0  0  0  0  0  0  0  0  0  0
  -21.4380  -29.2640   22.3870 N   0  0  0  0  0  0  0  0  0  0  0  0
  -23.4390  -28.8110   23.3390 O   0  0  0  0  0  0  0  0  0  0  0  0
  -20.9550  -29.8280   21.7020 H   0  0  0  0  0  0  0  0  0  0  0  0
  -18.0550  -28.0740   22.8620 C   0  0  0  0  0  0  0  0  0  0  0  0
  -20.6130  -28.3220   23.1450 C   0  0  0  0  0  3  0  0  0  0  0  0
  -20.7130  -26.8960   22.5560 C   0  0  0  0  0  2  0  0  0  0  0  0
  -19.6140  -26.5850   21.5360 C   0  0  0  0  0  2  0  0  0  0  0  0
  -18.2300  -26.7290   22.1770 C   0  0  0  0  0  2  0  0  0  0  0  0
  -19.1750  -28.8290   23.3010 C   0  0  0  0  0  0  0  0  0  0  0  0
  -18.9570  -30.0890   23.9010 C   0  0  0  0  0  3  0  0  0  0  0  0
  -17.6530  -30.5910   24.0670 C   0  0  0  0  0  3  0  0  0  0  0  0
  -16.5480  -29.8330   23.6440 C   0  0  0  0  0  3  0  0  0  0  0  0
  -16.7500  -28.5760   23.0460 C   0  0  0  0  0  3  0  0  0  0  0  0
  -25.9080  -32.4850   23.8620 C   0  0  0  0  0  3  0  0  0  0  0  0
  -25.6010  -33.8840   24.1870 N   0  0  0  0  0  0  0  0  0  0  0  0
  -25.9370  -34.9330   23.4260 C   0  0  0  0  0  0  0  0  0  0  0  0
  -26.6060  -34.8250   22.3940 O   0  0  0  0  0  0  0  0  0  0  0  0
  -25.0020  -34.0440   24.9840 H   0  0  0  0  0  0  0  0  0  0  0  0
  -24.2140  -36.7320   23.0660 C   0  0  0  0  0  1  0  0  0  0  0  0
  -25.4520  -36.3240   23.8790 C   0  0  0  0  0  3  0  0  0  0  0  0
  -27.5910  -37.1990   24.7110 C   0  0  0  0  0  1  0  0  0  0  0  0
  -26.4870  -37.3750   23.7700 N   0  0  0  0  0  0  0  0  0  0  0  0
  -26.0830  -38.2930   23.9230 H   0  0  0  0  0  0  0  0  0  0  0  0
  -26.4110  -31.7100   25.1400 C   0  0  1  0  0  0  0  0  0  0  0  0
  -25.3100  -31.4710   26.2010 C   0  0  0  0  0  1  0  0  0  0  0  0
  -26.9920  -30.3300   24.7520 C   0  0  0  0  0  1  0  0  0  0  0  0
  -27.5630  -32.5000   25.8070 C   0  0  0  0  0  1  0  0  0  0  0  0
  1  6  1  0
  1 51  1  0
  3  1  1  0
  3  2  1  0
  4  5  1  0
  5  3  1  0
  6  7  1  0
  9 12  1  0
 10 21  1  0
 10  8  2  0
 11  9  2  0
 11 10  1  0
 12  8  1  0
 12  7  1  0
 13 21  1  0
 14 19  1  0
 15 16  1  0
 15 14  1  0
 17 16  1  0
 17 26  1  0
 17 18  1  0
 19 13  1  0
 19 18  1  0
 20 13  2  0
 21 22  1  0
 23 24  2  0
 24 43  1  0
 25 24  1  0
 25 28  1  0
 26 23  1  0
 26 27  1  0
 27 25  2  0
 28 29  1  0
 29 30  2  0
 31 34  1  0
 31 30  1  0
 32 31  2  0
 33 32  1  0
 33 28  2  0
 34 35  1  0
 35 36  1  0
 36 37  2  0
 38 37  1  0
 38 42  1  0
 39 38  2  0
 40 35  2  0
 40 39  1  0
 41 40  1  0
 43 44  1  0
 44 47  1  0
 44 46  1  0
 45 43  2  0
 48 49  1  0
 48 23  1  0
 50 48  1  0
 53 52  1  0
 53 51  1  0
 54 53  1  0
 55 66  2  0
 56 54  1  0
 56 61  1  0
 57 65  1  0
 57 67  1  0
 58 64  1  0
 58 60  1  0
 59 65  1  0
 60 61  2  0
 60 59  1  0
 62 63  1  0
 62 56  2  0
 63 58  2  0
 64 57  1  0
 65 55  1  0
 67 69  2  0
 68 67  1  0
 70 68  1  0
 71 80  2  0
 71 76  1  0
 72 68  1  0
 72 76  1  0
 73 72  1  0
 74 75  1  0
 74 73  1  0
 75 71  1  0
 76 77  2  0
 77 78  1  0
 79 78  2  0
 80 79  1  0
 81 55  1  0
 81 82  1  0
 81 91  1  0
 82 85  1  0
 83 87  1  0
 83 82  1  0
 84 83  2  0
 87 86  1  0
 89 87  1  0
 89 90  1  0
 89 88  1  0
 91 94  1  1
 91 92  1  0
 93 91  1  0
M  ISO  4  13 100  21 100  53 101  54 101
M  END
>  <TORSDO>  (18) 
F 23

>  <SCORE>  (18) 
-12.577

>  <name>  (18) 
17

>  <ligand_id>  (18) 
17

>  <original_smiles>  (18) 
[H]c1c([H])c([H])c2c(c1[H])C([H])([H])C([H])([H])C([H])([H])C2([H])N([H])C(=O)C1([H])N(C(=O)C([H])(N([H])C(=O)C([H])(N([H])C([H])([H])[H])C([H])([H])[H])C(C([H])([H])[H])(C([H])([H])[H])C([H])([H])[H])C([H])([H])c2c([H])c(OC([H])(C([H])([H])[H])C([H])([H])C([H])(C([H])([H])C([H])([H])n3c([H])nc(N([H])C(=O)N4C([H])([H])C([H])([H])C([H])([H])C([H])(n5nc(-c6c([H])c([H])c(Oc7c([H])c([H])c(F)c([H])c7F)c([H])c6[H])c(C(=O)N([H])[H])c5N([H])[H])C4([H])[H])c3[H])C([H])(C([H])([H])[H])C([H])([H])C([H])([H])[H])c([H])c([H])c2C1([H])[H]

>  <smiles>  (18) 
[H]c1c([H])c([H])c2c(c1[H])C([H])([H])C([H])([H])C([H])([H])C2([H])N([H])C(=O)C1([H])N(C(=O)C([H])(N([H])C(=O)C([H])(N([H])C([H])([H])[H])C([H])([H])[H])C(C([H])([H])[H])(C([H])([H])[H])C([H])([H])[H])C([H])([H])c2c([H])c(OC([H])(C([H])([H])[H])C([H])([H])C([H])(C([H])([H])C([H])([H])n3c([H])nc(N([H])C(=O)N4C([H])([H])C([H])([H])C([H])([H])C([H])(n5nc(-c6c([H])c([H])c(Oc7c([H])c([H])c(F)c([H])c7F)c([H])c6[H])c(C(=O)N([H])[H])c5N([H])[H])C4([H])[H])c3[H])C([H])(C([H])([H])[H])C([H])([H])C([H])([H])[H])c([H])c([H])c2C1([H])[H]

$$$$
18:0:0
     RDKit          3D

 94102  0  0  1  0  0  0  0  0999 V2000
  -28.9420  -21.5100   20.6040 C   0  0  0  0  0  2  0  0  0  0  0  0
  -29.2700  -23.0550   20.4750 C   0  0  0  0  0  2  0  0  0  0  0  0
  -28.1090  -24.1140   20.6120 C   0  0  0  0  0  3  0  0  0  0  0  0
  -27.1540  -23.6290   21.5420 O   0  0  0  0  0  0  0  0  0  0  0  0
  -26.7860  -22.8270   21.1880 H   0  0  0  0  0  0  0  0  0  0  0  0
  -28.5400  -25.5630   21.0820 C   0  0  0  0  0  2  0  0  0  0  0  0
  -28.4000  -26.6760   20.1630 O   0  0  0  0  0  0  0  0  0  0  0  0
  -24.5740  -31.9090   23.2590 C   0  0  0  0  0  0  0  0  0  0  0  0
  -27.2390  -27.4270   20.2220 C   0  0  0  0  0  0  0  0  0  0  0  0
  -23.3800  -30.4990   21.6130 C   0  0  0  0  0  3  0  0  0  0  0  0
  -24.8460  -28.9510   20.2060 C   0  0  0  0  0  0  0  0  0  0  0  0
  -25.9090  -30.8530   21.4310 C   0  0  0  0  0  2  0  0  0  0  0  0
  -26.0020  -29.4750   20.8010 C   0  0  0  0  0  0  0  0  0  0  0  0
  -27.2020  -28.7200   20.8050 C   0  0  0  0  0  3  0  0  0  0  0  0
  -26.0680  -26.9250   19.6200 C   0  0  0  0  0  3  0  0  0  0  0  0
  -24.8760  -27.6770   19.6110 C   0  0  0  0  0  3  0  0  0  0  0  0
  -23.6020  -29.8140   20.2380 C   0  0  0  0  0  2  0  0  0  0  0  0
  -24.6380  -31.1040   22.1590 N   0  0  0  0  0  0  0  0  0  0  0  0
  -23.4890  -32.1810   23.7920 O   0  0  0  0  0  0  0  0  0  0  0  0
  -22.7260  -29.4800   22.5750 C   0  0  0  0  0  0  0  0  0  0  0  0
  -21.4030  -29.2900   22.4390 N   0  0  0  0  0  0  0  0  0  0  0  0
  -23.4060  -28.8630   23.3990 O   0  0  0  0  0  0  0  0  0  0  0  0
  -20.9150  -29.8390   21.7440 H   0  0  0  0  0  0  0  0  0  0  0  0
  -18.0350  -28.0660   22.9080 C   0  0  0  0  0  0  0  0  0  0  0  0
  -20.5870  -28.3490   23.2060 C   0  0  0  0  0  3  0  0  0  0  0  0
  -20.7090  -26.9170   22.6400 C   0  0  0  0  0  2  0  0  0  0  0  0
  -19.6190  -26.5780   21.6160 C   0  0  0  0  0  2  0  0  0  0  0  0
  -18.2300  -26.7150   22.2440 C   0  0  0  0  0  2  0  0  0  0  0  0
  -19.1420  -28.8410   23.3470 C   0  0  0  0  0  0  0  0  0  0  0  0
  -18.9050  -30.1060   23.9260 C   0  0  0  0  0  3  0  0  0  0  0  0
  -17.5950  -30.5970   24.0760 C   0  0  0  0  0  3  0  0  0  0  0  0
  -16.5010  -29.8200   23.6540 C   0  0  0  0  0  3  0  0  0  0  0  0
  -16.7220  -28.5570   23.0760 C   0  0  0  0  0  3  0  0  0  0  0  0
  -25.8540  -32.5450   23.8830 C   0  0  0  0  0  3  0  0  0  0  0  0
  -25.5410  -33.9440   24.2090 N   0  0  0  0  0  0  0  0  0  0  0  0
  -25.8730  -34.9940   23.4460 C   0  0  0  0  0  0  0  0  0  0  0  0
  -26.5470  -34.8870   22.4180 O   0  0  0  0  0  0  0  0  0  0  0  0
  -24.9430  -34.1000   25.0070 H   0  0  0  0  0  0  0  0  0  0  0  0
  -24.1390  -36.7790   23.0790 C   0  0  0  0  0  1  0  0  0  0  0  0
  -25.3800  -36.3820   23.8950 C   0  0  0  0  0  3  0  0  0  0  0  0
  -27.5110  -37.2760   24.7260 C   0  0  0  0  0  1  0  0  0  0  0  0
  -26.4100  -37.4380   23.7810 N   0  0  0  0  0  0  0  0  0  0  0  0
  -26.0010  -38.3580   23.9250 H   0  0  0  0  0  0  0  0  0  0  0  0
  -26.3680  -31.7790   25.1640 C   0  0  1  0  0  0  0  0  0  0  0  0
  -25.2730  -31.5430   26.2290 C   0  0  0  0  0  1  0  0  0  0  0  0
  -26.9570  -30.4010   24.7770 C   0  0  0  0  0  1  0  0  0  0  0  0
  -27.5160  -32.5760   25.8260 C   0  0  0  0  0  1  0  0  0  0  0  0
  -29.9310  -20.4860   19.9190 C   0  0  0  0  0  3  0  0  0  0  0  0
  -31.2660  -17.6710   23.1690 C   0  0  0  0  0  3  0  0  0  0  0  0
  -30.9040  -16.5170   22.5230 C   0  0  0  0  0  3  0  0  0  0  0  0
  -30.2850  -18.2450   21.3230 C   0  0  0  0  0  0  0  0  0  0  0  0
  -30.8680  -18.7580   22.4010 N   0  0  0  0  0  0  0  0  0  0  0  0
  -30.2840  -16.8740   21.3240 N   0  0  0  0  0  0  0  0  0  0  0  0
  -29.7540  -19.0590   20.3050 N   0  0  0  0  0  0  0  0  0  0  0  0
  -29.3100  -18.5220   19.5680 H   0  0  0  0  0  0  0  0  0  0  0  0
  -29.6880  -15.9010   20.3880 C   0  0  0  0  0  2  0  0  0  0  0  0
  -30.5270  -14.6160   20.0460 C   0  0  0  0  0  0  0  0  0  0  0  0
  -30.2700  -12.4130   18.9470 C   0  0  0  0  0  2  0  0  0  0  0  0
  -29.2640  -12.5860   17.7860 C   0  0  0  0  0  2  0  0  0  0  0  0
  -27.8110  -12.4290   18.2830 C   0  0  0  0  0  2  0  0  0  0  0  0
  -27.5230  -13.2610   19.5610 C   0  0  0  0  0  3  0  0  0  0  0  0
  -28.6340  -13.0510   20.6140 C   0  0  0  0  0  2  0  0  0  0  0  0
  -29.9190  -13.3940   19.9880 N   0  0  0  0  0  0  0  0  0  0  0  0
  -31.6760  -14.7760   19.6180 O   0  0  0  0  0  0  0  0  0  0  0  0
  -25.1640  -13.8550   20.3970 C   0  0  0  0  0  0  0  0  0  0  0  0
  -24.1180  -13.0770   20.8120 C   0  0  0  0  0  0  0  0  0  0  0  0
  -24.5800  -11.7270   20.7480 C   0  0  0  0  0  0  0  0  0  0  0  0
  -26.1970  -12.9780   20.1060 N   0  0  0  0  0  0  0  0  0  0  0  0
  -25.8530  -11.6930   20.3750 N   0  0  0  0  0  0  0  0  0  0  0  0
  -23.8690  -10.4620   20.9660 C   0  0  0  0  0  0  0  0  0  0  0  0
  -24.3400   -9.4990   21.8850 C   0  0  0  0  0  3  0  0  0  0  0  0
  -23.6300   -8.2960   22.0890 C   0  0  0  0  0  3  0  0  0  0  0  0
  -22.4330   -8.0490   21.3760 C   0  0  0  0  0  0  0  0  0  0  0  0
  -21.9790   -9.0010   20.4460 C   0  0  0  0  0  3  0  0  0  0  0  0
  -22.6910  -10.1950   20.2400 C   0  0  0  0  0  3  0  0  0  0  0  0
  -21.6900   -6.8980   21.4920 O   0  0  0  0  0  0  0  0  0  0  0  0
  -21.6810   -6.1600   22.6480 C   0  0  0  0  0  0  0  0  0  0  0  0
  -21.2950   -6.7200   23.8860 C   0  0  0  0  0  3  0  0  0  0  0  0
  -21.2310   -5.9080   25.0370 C   0  0  0  0  0  3  0  0  0  0  0  0
  -21.5440   -4.5390   24.9510 C   0  0  0  0  0  0  0  0  0  0  0  0
  -21.9250   -3.9790   23.7190 C   0  0  0  0  0  3  0  0  0  0  0  0
  -21.9890   -4.7870   22.5710 C   0  0  0  0  0  0  0  0  0  0  0  0
  -22.3350   -4.2370   21.3810 F   0  0  0  0  0  0  0  0  0  0  0  0
  -21.4770   -3.7580   26.0550 F   0  0  0  0  0  0  0  0  0  0  0  0
  -22.7340  -13.5480   21.1550 C   0  0  0  0  0  0  0  0  0  0  0  0
  -22.0510  -12.8400   22.0480 N   0  0  0  0  0  0  0  0  0  0  0  0
  -22.2680  -14.5770   20.6670 O   0  0  0  0  0  0  0  0  0  0  0  0
  -22.4420  -12.0080   22.4660 H   0  0  0  0  0  0  0  0  0  0  0  0
  -21.1250  -13.1350   22.3190 H   0  0  0  0  0  0  0  0  0  0  0  0
  -25.3170  -15.2280   20.2200 N   0  0  0  0  0  0  0  0  0  0  0  0
  -24.5530  -15.8790   20.3710 H   0  0  0  0  0  0  0  0  0  0  0  0
  -26.1440  -15.6710   19.8440 H   0  0  0  0  0  0  0  0  0  0  0  0
  -32.3250  -20.0320   19.0790 C   0  0  0  0  0  1  0  0  0  0  0  0
  -31.4230  -20.8920   19.9810 C   0  0  0  0  0  2  0  0  0  0  0  0
  2  1  1  0
  3  2  1  0
  3  6  1  0
  3  4  1  0
  5  4  1  0
  7  9  1  0
  7  6  1  0
  8 19  2  0
  9 14  1  0
 10 18  1  0
 10 20  1  0
 11 17  1  0
 11 13  1  0
 12 18  1  0
 13 14  2  0
 13 12  1  0
 15  9  2  0
 16 15  1  0
 16 11  2  0
 17 10  1  0
 18  8  1  0
 20 22  2  0
 21 20  1  0
 23 21  1  0
 24 33  2  0
 24 29  1  0
 25 21  1  0
 25 29  1  0
 26 25  1  0
 27 28  1  0
 27 26  1  0
 28 24  1  0
 29 30  2  0
 30 31  1  0
 32 31  2  0
 33 32  1  0
 34  8  1  0
 34 35  1  0
 34 44  1  0
 35 38  1  0
 36 40  1  0
 36 35  1  0
 37 36  2  0
 40 39  1  0
 42 40  1  0
 42 43  1  0
 42 41  1  0
 44 47  1  1
 44 45  1  0
 46 44  1  0
 48 94  1  0
 48 54  1  0
 48  1  1  0
 50 49  2  0
 51 53  1  0
 51 52  2  0
 52 49  1  0
 53 50  1  0
 54 51  1  0
 55 54  1  0
 56 53  1  0
 57 56  1  0
 58 63  1  0
 59 60  1  0
 59 58  1  0
 61 60  1  0
 61 68  1  0
 61 62  1  0
 63 57  1  0
 63 62  1  0
 64 57  2  0
 65 66  2  0
 66 85  1  0
 67 66  1  0
 67 70  1  0
 68 69  1  0
 68 65  1  0
 69 67  2  0
 70 71  1  0
 71 72  2  0
 73 76  1  0
 73 72  1  0
 74 73  2  0
 75 74  1  0
 75 70  2  0
 76 77  1  0
 77 78  1  0
 78 79  2  0
 80 79  1  0
 80 84  1  0
 81 80  2  0
 82 77  2  0
 82 81  1  0
 83 82  1  0
 85 86  1  0
 86 89  1  0
 86 88  1  0
 87 85  2  0
 90 91  1  0
 90 65  1  0
 92 90  1  0
 93 94  1  0
M  ISO  4   6 101   7 101  56 100  57 100
M  END
>  <TORSDO>  (19) 
F 24

>  <SCORE>  (19) 
-12.045

>  <name>  (19) 
18

>  <ligand_id>  (19) 
18

>  <original_smiles>  (19) 
[H]OC([H])(C([H])([H])Oc1c([H])c([H])c2c(c1[H])C([H])([H])N(C(=O)C([H])(N([H])C(=O)C([H])(N([H])C([H])([H])[H])C([H])([H])[H])C(C([H])([H])[H])(C([H])([H])[H])C([H])([H])[H])C([H])(C(=O)N([H])C1([H])c3c([H])c([H])c([H])c([H])c3C([H])([H])C([H])([H])C1([H])[H])C2([H])[H])C([H])([H])C([H])([H])C([H])(N([H])c1nc([H])c([H])n1C([H])([H])C(=O)N1C([H])([H])C([H])([H])C([H])([H])C([H])(n2nc(-c3c([H])c([H])c(Oc4c([H])c([H])c(F)c([H])c4F)c([H])c3[H])c(C(=O)N([H])[H])c2N([H])[H])C1([H])[H])C([H])([H])C([H])([H])[H]

>  <smiles>  (19) 
[H]OC([H])(C([H])([H])Oc1c([H])c([H])c2c(c1[H])C([H])([H])N(C(=O)C([H])(N([H])C(=O)C([H])(N([H])C([H])([H])[H])C([H])([H])[H])C(C([H])([H])[H])(C([H])([H])[H])C([H])([H])[H])C([H])(C(=O)N([H])C1([H])c3c([H])c([H])c([H])c([H])c3C([H])([H])C([H])([H])C1([H])[H])C2([H])[H])C([H])([H])C([H])([H])C([H])(N([H])c1nc([H])c([H])n1C([H])([H])C(=O)N1C([H])([H])C([H])([H])C([H])([H])C([H])(n2nc(-c3c([H])c([H])c(Oc4c([H])c([H])c(F)c([H])c4F)c([H])c3[H])c(C(=O)N([H])[H])c2N([H])[H])C1([H])[H])C([H])([H])C([H])([H])[H]

$$$$
19:0:0
     RDKit          3D

 91 99  0  0  1  0  0  0  0  0999 V2000
  -28.8140  -21.7010   20.9270 N   0  0  0  0  0  0  0  0  0  0  0  0
  -29.2490  -21.8820   21.8270 H   0  0  0  0  0  0  0  0  0  0  0  0
  -28.2800  -19.7780   19.4280 C   0  0  0  0  0  3  0  0  0  0  0  0
  -28.9030  -20.3400   20.5110 C   0  0  0  0  0  0  0  0  0  0  0  0
  -29.6390  -18.1330   20.6910 C   0  0  0  0  0  0  0  0  0  0  0  0
  -29.6550  -19.3800   21.2210 N   0  0  0  0  0  0  0  0  0  0  0  0
  -28.6300  -18.0680   19.2480 S   0  0  0  0  0  0  0  0  0  0  0  0
  -30.4610  -16.9640   21.2340 C   0  0  0  0  0  2  0  0  0  0  0  0
  -30.6400  -14.5650   20.4050 C   0  0  0  0  0  0  0  0  0  0  0  0
  -30.3490  -12.3820   19.2680 C   0  0  0  0  0  2  0  0  0  0  0  0
  -29.4080  -12.5690   18.0630 C   0  0  0  0  0  2  0  0  0  0  0  0
  -27.9360  -12.4190   18.4950 C   0  0  0  0  0  2  0  0  0  0  0  0
  -27.5960  -13.2600   19.7540 C   0  0  0  0  0  3  0  0  0  0  0  0
  -28.6560  -13.0730   20.8600 C   0  0  0  0  0  2  0  0  0  0  0  0
  -29.9700  -13.3840   20.2790 N   0  0  0  0  0  0  0  0  0  0  0  0
  -31.7800  -14.7180   19.9600 O   0  0  0  0  0  0  0  0  0  0  0  0
  -29.9410  -15.6040   20.9250 N   0  0  0  0  0  0  0  0  0  0  0  0
  -28.9920  -15.4130   21.2070 H   0  0  0  0  0  0  0  0  0  0  0  0
  -25.2110  -13.8670   20.4900 C   0  0  0  0  0  0  0  0  0  0  0  0
  -24.1440  -13.0980   20.8700 C   0  0  0  0  0  0  0  0  0  0  0  0
  -24.6020  -11.7440   20.8360 C   0  0  0  0  0  0  0  0  0  0  0  0
  -26.2490  -12.9830   20.2460 N   0  0  0  0  0  0  0  0  0  0  0  0
  -25.8890  -11.7010   20.5130 N   0  0  0  0  0  0  0  0  0  0  0  0
  -23.8730  -10.4850   21.0370 C   0  0  0  0  0  0  0  0  0  0  0  0
  -24.3200   -9.5120   21.9580 C   0  0  0  0  0  3  0  0  0  0  0  0
  -23.5930   -8.3170   22.1460 C   0  0  0  0  0  3  0  0  0  0  0  0
  -22.4050   -8.0870   21.4130 C   0  0  0  0  0  0  0  0  0  0  0  0
  -21.9780   -9.0480   20.4810 C   0  0  0  0  0  3  0  0  0  0  0  0
  -22.7040  -10.2340   20.2910 C   0  0  0  0  0  3  0  0  0  0  0  0
  -21.6480   -6.9440   21.5100 O   0  0  0  0  0  0  0  0  0  0  0  0
  -21.6270   -6.1890   22.6540 C   0  0  0  0  0  0  0  0  0  0  0  0
  -21.2450   -6.7330   23.8990 C   0  0  0  0  0  3  0  0  0  0  0  0
  -21.1690   -5.9060   25.0360 C   0  0  0  0  0  3  0  0  0  0  0  0
  -21.4660   -4.5340   24.9310 C   0  0  0  0  0  0  0  0  0  0  0  0
  -21.8420   -3.9880   23.6910 C   0  0  0  0  0  3  0  0  0  0  0  0
  -21.9180   -4.8130   22.5540 C   0  0  0  0  0  0  0  0  0  0  0  0
  -22.2600   -4.2780   21.3580 F   0  0  0  0  0  0  0  0  0  0  0  0
  -21.3870   -3.7360   26.0220 F   0  0  0  0  0  0  0  0  0  0  0  0
  -22.7520  -13.5790   21.1540 C   0  0  0  0  0  0  0  0  0  0  0  0
  -22.0310  -12.8880   22.0290 N   0  0  0  0  0  0  0  0  0  0  0  0
  -22.3110  -14.6030   20.6330 O   0  0  0  0  0  0  0  0  0  0  0  0
  -22.4010  -12.0560   22.4650 H   0  0  0  0  0  0  0  0  0  0  0  0
  -21.0970  -13.1930   22.2640 H   0  0  0  0  0  0  0  0  0  0  0  0
  -25.3830  -15.2380   20.3130 N   0  0  0  0  0  0  0  0  0  0  0  0
  -24.6210  -15.8990   20.4150 H   0  0  0  0  0  0  0  0  0  0  0  0
  -26.2300  -15.6640   19.9610 H   0  0  0  0  0  0  0  0  0  0  0  0
  -28.9110  -22.8320   19.9690 C   0  0  0  0  0  2  0  0  0  0  0  0
  -26.4570  -23.4640   20.4470 C   0  0  0  0  0  1  0  0  0  0  0  0
  -27.8510  -24.0020   20.0680 C   0  0  0  0  0  3  0  0  0  0  0  0
  -28.2580  -25.2950   20.8800 C   0  0  0  0  0  2  0  0  0  0  0  0
  -28.3310  -26.5830   20.1850 O   0  0  0  0  0  0  0  0  0  0  0  0
  -24.6090  -31.8960   23.2450 C   0  0  0  0  0  0  0  0  0  0  0  0
  -27.1980  -27.3820   20.1840 C   0  0  0  0  0  0  0  0  0  0  0  0
  -23.3900  -30.4970   21.6140 C   0  0  0  0  0  3  0  0  0  0  0  0
  -24.8290  -28.9490   20.1810 C   0  0  0  0  0  0  0  0  0  0  0  0
  -25.9210  -30.8350   21.4020 C   0  0  0  0  0  2  0  0  0  0  0  0
  -25.9970  -29.4590   20.7620 C   0  0  0  0  0  0  0  0  0  0  0  0
  -27.1890  -28.6850   20.7520 C   0  0  0  0  0  3  0  0  0  0  0  0
  -26.0170  -26.9110   19.5790 C   0  0  0  0  0  3  0  0  0  0  0  0
  -24.8370  -27.6780   19.5800 C   0  0  0  0  0  3  0  0  0  0  0  0
  -23.5900  -29.8170   20.2340 C   0  0  0  0  0  2  0  0  0  0  0  0
  -24.6600  -31.0920   22.1440 N   0  0  0  0  0  0  0  0  0  0  0  0
  -23.5300  -32.1710   23.7890 O   0  0  0  0  0  0  0  0  0  0  0  0
  -22.7390  -29.4800   22.5800 C   0  0  0  0  0  0  0  0  0  0  0  0
  -21.4120  -29.3050   22.4640 N   0  0  0  0  0  0  0  0  0  0  0  0
  -23.4250  -28.8500   23.3890 O   0  0  0  0  0  0  0  0  0  0  0  0
  -20.9150  -29.8800   21.7980 H   0  0  0  0  0  0  0  0  0  0  0  0
  -18.0420  -28.0900   22.9580 C   0  0  0  0  0  0  0  0  0  0  0  0
  -20.6000  -28.3590   23.2290 C   0  0  0  0  0  3  0  0  0  0  0  0
  -20.7110  -26.9320   22.6430 C   0  0  0  0  0  2  0  0  0  0  0  0
  -19.6060  -26.6050   21.6340 C   0  0  0  0  0  2  0  0  0  0  0  0
  -18.2220  -26.7440   22.2750 C   0  0  0  0  0  2  0  0  0  0  0  0
  -19.1580  -28.8560   23.3870 C   0  0  0  0  0  0  0  0  0  0  0  0
  -18.9370  -30.1210   23.9750 C   0  0  0  0  0  3  0  0  0  0  0  0
  -17.6310  -30.6200   24.1370 C   0  0  0  0  0  3  0  0  0  0  0  0
  -16.5290  -29.8510   23.7240 C   0  0  0  0  0  3  0  0  0  0  0  0
  -16.7350  -28.5880   23.1420 C   0  0  0  0  0  3  0  0  0  0  0  0
  -25.8980  -32.5250   23.8560 C   0  0  0  0  0  3  0  0  0  0  0  0
  -25.5910  -33.9230   24.1890 N   0  0  0  0  0  0  0  0  0  0  0  0
  -25.9160  -34.9760   23.4270 C   0  0  0  0  0  0  0  0  0  0  0  0
  -26.5780  -34.8730   22.3900 O   0  0  0  0  0  0  0  0  0  0  0  0
  -24.9990  -34.0780   24.9920 H   0  0  0  0  0  0  0  0  0  0  0  0
  -24.1850  -36.7700   23.0910 C   0  0  0  0  0  1  0  0  0  0  0  0
  -25.4340  -36.3650   23.8900 C   0  0  0  0  0  3  0  0  0  0  0  0
  -27.5770  -37.2510   24.6970 C   0  0  0  0  0  1  0  0  0  0  0  0
  -26.4650  -37.4190   23.7640 N   0  0  0  0  0  0  0  0  0  0  0  0
  -26.0600  -38.3380   23.9140 H   0  0  0  0  0  0  0  0  0  0  0  0
  -26.4250  -31.7530   25.1270 C   0  0  1  0  0  0  0  0  0  0  0  0
  -25.3420  -31.5170   26.2040 C   0  0  0  0  0  1  0  0  0  0  0  0
  -27.0020  -30.3740   24.7270 C   0  0  0  0  0  1  0  0  0  0  0  0
  -27.5810  -32.5460   25.7790 C   0  0  0  0  0  1  0  0  0  0  0  0
  1  2  1  0
  3  4  2  0
  4  1  1  0
  4  6  1  0
  5  6  2  0
  5  8  1  0
  7  3  1  0
  7  5  1  0
  9 17  1  0
 10 15  1  0
 11 12  1  0
 11 10  1  0
 13 12  1  0
 13 22  1  0
 13 14  1  0
 15  9  1  0
 15 14  1  0
 16  9  2  0
 17 18  1  0
 17  8  1  0
 19 20  2  0
 20 39  1  0
 21 20  1  0
 21 24  1  0
 22 19  1  0
 22 23  1  0
 23 21  2  0
 24 25  1  0
 25 26  2  0
 27 30  1  0
 27 26  1  0
 28 27  2  0
 29 28  1  0
 29 24  2  0
 30 31  1  0
 31 32  1  0
 32 33  2  0
 34 33  1  0
 34 38  1  0
 35 34  2  0
 36 31  2  0
 36 35  1  0
 37 36  1  0
 39 40  1  0
 40 43  1  0
 40 42  1  0
 41 39  2  0
 44 45  1  0
 44 19  1  0
 46 44  1  0
 47 49  1  0
 47  1  1  0
 49 48  1  0
 49 50  1  0
 51 50  1  0
 52 63  2  0
 53 51  1  0
 53 58  1  0
 54 62  1  0
 54 64  1  0
 55 61  1  0
 55 57  1  0
 56 62  1  0
 57 56  1  0
 58 57  2  0
 59 60  1  0
 59 53  2  0
 60 55  2  0
 61 54  1  0
 62 52  1  0
 64 66  2  0
 65 64  1  0
 67 65  1  0
 68 77  2  0
 68 73  1  0
 69 65  1  0
 69 73  1  0
 70 69  1  0
 71 72  1  0
 71 70  1  0
 72 68  1  0
 73 74  2  0
 74 75  1  0
 76 75  2  0
 77 76  1  0
 78 52  1  0
 78 79  1  0
 78 88  1  0
 79 82  1  0
 80 84  1  0
 80 79  1  0
 81 80  2  0
 84 83  1  0
 86 84  1  0
 86 87  1  0
 86 85  1  0
 88 91  1  1
 88 89  1  0
 90 88  1  0
M  ISO  4   9 100  17 100  50 101  51 101
M  END
>  <TORSDO>  (20) 
F 21

>  <SCORE>  (20) 
-13.554

>  <name>  (20) 
19

>  <ligand_id>  (20) 
19

>  <original_smiles>  (20) 
[H]c1sc(C([H])([H])N([H])C(=O)N2C([H])([H])C([H])([H])C([H])([H])C([H])(n3nc(-c4c([H])c([H])c(Oc5c([H])c([H])c(F)c([H])c5F)c([H])c4[H])c(C(=O)N([H])[H])c3N([H])[H])C2([H])[H])nc1N([H])C([H])([H])C([H])(C([H])([H])[H])C([H])([H])Oc1c([H])c([H])c2c(c1[H])C([H])([H])N(C(=O)C([H])(N([H])C(=O)C([H])(N([H])C([H])([H])[H])C([H])([H])[H])C(C([H])([H])[H])(C([H])([H])[H])C([H])([H])[H])C([H])(C(=O)N([H])C1([H])c3c([H])c([H])c([H])c([H])c3C([H])([H])C([H])([H])C1([H])[H])C2([H])[H]

>  <smiles>  (20) 
[H]c1sc(C([H])([H])N([H])C(=O)N2C([H])([H])C([H])([H])C([H])([H])C([H])(n3nc(-c4c([H])c([H])c(Oc5c([H])c([H])c(F)c([H])c5F)c([H])c4[H])c(C(=O)N([H])[H])c3N([H])[H])C2([H])[H])nc1N([H])C([H])([H])C([H])(C([H])([H])[H])C([H])([H])Oc1c([H])c([H])c2c(c1[H])C([H])([H])N(C(=O)C([H])(N([H])C(=O)C([H])(N([H])C([H])([H])[H])C([H])([H])[H])C(C([H])([H])[H])(C([H])([H])[H])C([H])([H])[H])C([H])(C(=O)N([H])C1([H])c3c([H])c([H])c([H])c([H])c3C([H])([H])C([H])([H])C1([H])[H])C2([H])[H]

$$$$
20:0:0
     RDKit          3D

 92100  0  0  1  0  0  0  0  0999 V2000
  -27.1320  -22.3120   21.3060 C   0  0  0  0  0  1  0  0  0  0  0  0
  -28.5160  -22.8210   20.8470 C   0  0  0  0  0  3  0  0  0  0  0  0
  -29.2520  -21.8050   20.0600 N   0  0  0  0  0  0  0  0  0  0  0  0
  -30.2380  -22.0470   20.0030 H   0  0  0  0  0  0  0  0  0  0  0  0
  -30.0590  -19.5170   20.7330 C   0  0  0  0  0  3  0  0  0  0  0  0
  -27.9980  -19.6840   19.6780 C   0  0  0  0  0  3  0  0  0  0  0  0
  -29.0690  -20.3920   20.1590 C   0  0  0  0  0  0  0  0  0  0  0  0
  -29.7240  -18.1740   20.7050 C   0  0  0  0  0  0  0  0  0  0  0  0
  -28.1710  -17.9620   19.9370 S   0  0  0  0  0  0  0  0  0  0  0  0
  -30.5400  -17.0170   21.2640 C   0  0  0  0  0  2  0  0  0  0  0  0
  -30.7200  -14.6060   20.5360 C   0  0  0  0  0  0  0  0  0  0  0  0
  -30.4350  -12.4460   19.3770 C   0  0  0  0  0  2  0  0  0  0  0  0
  -29.5060  -12.6520   18.1620 C   0  0  0  0  0  2  0  0  0  0  0  0
  -28.0290  -12.5060   18.5770 C   0  0  0  0  0  2  0  0  0  0  0  0
  -27.6750  -13.3360   19.8410 C   0  0  0  0  0  3  0  0  0  0  0  0
  -28.7210  -13.1210   20.9580 C   0  0  0  0  0  2  0  0  0  0  0  0
  -30.0460  -13.4310   20.3980 N   0  0  0  0  0  0  0  0  0  0  0  0
  -31.8630  -14.7620   20.1010 O   0  0  0  0  0  0  0  0  0  0  0  0
  -30.0240  -15.6470   21.0460 N   0  0  0  0  0  0  0  0  0  0  0  0
  -29.0790  -15.4570   21.3480 H   0  0  0  0  0  0  0  0  0  0  0  0
  -25.2640  -13.9280   20.5110 C   0  0  0  0  0  0  0  0  0  0  0  0
  -24.1960  -13.1510   20.8690 C   0  0  0  0  0  0  0  0  0  0  0  0
  -24.6650  -11.8020   20.8530 C   0  0  0  0  0  0  0  0  0  0  0  0
  -26.3180  -13.0530   20.3020 N   0  0  0  0  0  0  0  0  0  0  0  0
  -25.9600  -11.7690   20.5660 N   0  0  0  0  0  0  0  0  0  0  0  0
  -23.9430  -10.5380   21.0380 C   0  0  0  0  0  0  0  0  0  0  0  0
  -24.3630   -9.5800   21.9870 C   0  0  0  0  0  3  0  0  0  0  0  0
  -23.6420   -8.3790   22.1610 C   0  0  0  0  0  3  0  0  0  0  0  0
  -22.4850   -8.1280   21.3850 C   0  0  0  0  0  0  0  0  0  0  0  0
  -22.0840   -9.0760   20.4260 C   0  0  0  0  0  3  0  0  0  0  0  0
  -22.8060  -10.2670   20.2500 C   0  0  0  0  0  3  0  0  0  0  0  0
  -21.7360   -6.9800   21.4670 O   0  0  0  0  0  0  0  0  0  0  0  0
  -21.6680   -6.2450   22.6230 C   0  0  0  0  0  0  0  0  0  0  0  0
  -21.1960   -6.8000   23.8330 C   0  0  0  0  0  3  0  0  0  0  0  0
  -21.0780   -5.9910   24.9810 C   0  0  0  0  0  3  0  0  0  0  0  0
  -21.4220   -4.6270   24.9190 C   0  0  0  0  0  0  0  0  0  0  0  0
  -21.8870   -4.0710   23.7150 C   0  0  0  0  0  3  0  0  0  0  0  0
  -22.0060   -4.8780   22.5690 C   0  0  0  0  0  0  0  0  0  0  0  0
  -22.4350   -4.3320   21.4050 F   0  0  0  0  0  0  0  0  0  0  0  0
  -21.3010   -3.8480   26.0190 F   0  0  0  0  0  0  0  0  0  0  0  0
  -22.7920  -13.6220   21.1150 C   0  0  0  0  0  0  0  0  0  0  0  0
  -22.0520  -12.9250   21.9710 N   0  0  0  0  0  0  0  0  0  0  0  0
  -22.3580  -14.6440   20.5850 O   0  0  0  0  0  0  0  0  0  0  0  0
  -22.4140  -12.0960   22.4190 H   0  0  0  0  0  0  0  0  0  0  0  0
  -21.1110  -13.2250   22.1810 H   0  0  0  0  0  0  0  0  0  0  0  0
  -25.4210  -15.2980   20.3250 N   0  0  0  0  0  0  0  0  0  0  0  0
  -24.6430  -15.9450   20.4100 H   0  0  0  0  0  0  0  0  0  0  0  0
  -26.2650  -15.7420   19.9880 H   0  0  0  0  0  0  0  0  0  0  0  0
  -28.3990  -24.2090   20.1090 C   0  0  0  0  0  2  0  0  0  0  0  0
  -27.6170  -25.5360   22.2440 C   0  0  0  0  0  1  0  0  0  0  0  0
  -28.5180  -25.5030   20.9910 C   0  0  0  0  0  3  0  0  0  0  0  0
  -28.4830  -26.7520   20.2430 O   0  0  0  0  0  0  0  0  0  0  0  0
  -24.5890  -31.9160   23.2570 C   0  0  0  0  0  0  0  0  0  0  0  0
  -27.3130  -27.4900   20.2140 C   0  0  0  0  0  0  0  0  0  0  0  0
  -23.4210  -30.5130   21.5880 C   0  0  0  0  0  3  0  0  0  0  0  0
  -24.9120  -28.9890   20.1790 C   0  0  0  0  0  0  0  0  0  0  0  0
  -25.9460  -30.8900   21.4310 C   0  0  0  0  0  2  0  0  0  0  0  0
  -26.0560  -29.5210   20.7870 C   0  0  0  0  0  0  0  0  0  0  0  0
  -27.2620  -28.7810   20.7940 C   0  0  0  0  0  3  0  0  0  0  0  0
  -26.1560  -26.9760   19.5950 C   0  0  0  0  0  3  0  0  0  0  0  0
  -24.9580  -27.7190   19.5780 C   0  0  0  0  0  3  0  0  0  0  0  0
  -23.6590  -29.8390   20.2090 C   0  0  0  0  0  2  0  0  0  0  0  0
  -24.6690  -31.1210   22.1510 N   0  0  0  0  0  0  0  0  0  0  0  0
  -23.4970  -32.1770   23.7800 O   0  0  0  0  0  0  0  0  0  0  0  0
  -22.7610  -29.4830   22.5330 C   0  0  0  0  0  0  0  0  0  0  0  0
  -21.4400  -29.2910   22.3830 N   0  0  0  0  0  0  0  0  0  0  0  0
  -23.4350  -28.8590   23.3560 O   0  0  0  0  0  0  0  0  0  0  0  0
  -20.9580  -29.8490   21.6930 H   0  0  0  0  0  0  0  0  0  0  0  0
  -18.0640  -28.0790   22.8250 C   0  0  0  0  0  0  0  0  0  0  0  0
  -20.6180  -28.3440   23.1350 C   0  0  0  0  0  3  0  0  0  0  0  0
  -20.7330  -26.9180   22.5480 C   0  0  0  0  0  2  0  0  0  0  0  0
  -19.6470  -26.6000   21.5150 C   0  0  0  0  0  2  0  0  0  0  0  0
  -18.2560  -26.7360   22.1410 C   0  0  0  0  0  2  0  0  0  0  0  0
  -19.1750  -28.8400   23.2780 C   0  0  0  0  0  0  0  0  0  0  0  0
  -18.9430  -30.0990   23.8740 C   0  0  0  0  0  3  0  0  0  0  0  0
  -17.6340  -30.5950   24.0230 C   0  0  0  0  0  3  0  0  0  0  0  0
  -16.5390  -29.8290   23.5890 C   0  0  0  0  0  3  0  0  0  0  0  0
  -16.7540  -28.5740   22.9950 C   0  0  0  0  0  3  0  0  0  0  0  0
  -25.8600  -32.5530   23.9020 C   0  0  0  0  0  3  0  0  0  0  0  0
  -25.5460  -33.9560   24.2050 N   0  0  0  0  0  0  0  0  0  0  0  0
  -25.9030  -34.9970   23.4410 C   0  0  0  0  0  0  0  0  0  0  0  0
  -26.6010  -34.8770   22.4310 O   0  0  0  0  0  0  0  0  0  0  0  0
  -24.9330  -34.1240   24.9890 H   0  0  0  0  0  0  0  0  0  0  0  0
  -24.1920  -36.7890   23.0080 C   0  0  0  0  0  1  0  0  0  0  0  0
  -25.4050  -36.3930   23.8650 C   0  0  0  0  0  3  0  0  0  0  0  0
  -27.5130  -37.2820   24.7570 C   0  0  0  0  0  1  0  0  0  0  0  0
  -26.4450  -37.4410   23.7730 N   0  0  0  0  0  0  0  0  0  0  0  0
  -26.0380  -38.3650   23.8940 H   0  0  0  0  0  0  0  0  0  0  0  0
  -26.3450  -31.7970   25.2000 C   0  0  1  0  0  0  0  0  0  0  0  0
  -25.2240  -31.5730   26.2420 C   0  0  0  0  0  1  0  0  0  0  0  0
  -26.9370  -30.4160   24.8360 C   0  0  0  0  0  1  0  0  0  0  0  0
  -27.4800  -32.5990   25.8810 C   0  0  0  0  0  1  0  0  0  0  0  0
  2  1  1  0
  3  7  1  0
  3  2  1  0
  4  3  1  0
  6  9  1  0
  6  7  2  0
  7  5  1  0
  8  5  2  0
  8 10  1  0
  9  8  1  0
 11 19  1  0
 12 17  1  0
 13 14  1  0
 13 12  1  0
 15 14  1  0
 15 24  1  0
 15 16  1  0
 17 11  1  0
 17 16  1  0
 18 11  2  0
 19 10  1  0
 19 20  1  0
 21 22  2  0
 22 41  1  0
 23 22  1  0
 23 26  1  0
 24 21  1  0
 24 25  1  0
 25 23  2  0
 26 27  1  0
 27 28  2  0
 29 32  1  0
 29 28  1  0
 30 29  2  0
 31 30  1  0
 31 26  2  0
 32 33  1  0
 33 34  1  0
 34 35  2  0
 36 35  1  0
 36 40  1  0
 37 36  2  0
 38 33  2  0
 38 37  1  0
 39 38  1  0
 41 42  1  0
 42 45  1  0
 42 44  1  0
 43 41  2  0
 46 47  1  0
 46 21  1  0
 48 46  1  0
 49  2  1  0
 49 51  1  0
 51 50  1  0
 52 51  1  0
 53 64  2  0
 54 52  1  0
 54 59  1  0
 55 63  1  0
 55 65  1  0
 56 62  1  0
 56 58  1  0
 57 63  1  0
 58 59  2  0
 58 57  1  0
 60 54  2  0
 61 60  1  0
 61 56  2  0
 62 55  1  0
 63 53  1  0
 65 67  2  0
 66 65  1  0
 68 66  1  0
 69 78  2  0
 69 74  1  0
 70 66  1  0
 70 74  1  0
 71 70  1  0
 72 73  1  0
 72 71  1  0
 73 69  1  0
 74 75  2  0
 75 76  1  0
 77 76  2  0
 78 77  1  0
 79 53  1  0
 79 80  1  0
 79 89  1  0
 80 83  1  0
 81 85  1  0
 81 80  1  0
 82 81  2  0
 85 84  1  0
 87 85  1  0
 87 88  1  0
 87 86  1  0
 89 92  1  1
 89 90  1  0
 91 89  1  0
M  ISO  4  11 100  19 100  51 101  52 101
M  END
>  <TORSDO>  (21) 
F 21

>  <SCORE>  (21) 
-13.654

>  <name>  (21) 
20

>  <ligand_id>  (21) 
20

>  <original_smiles>  (21) 
[H]c1sc(C([H])([H])N([H])C(=O)N2C([H])([H])C([H])([H])C([H])([H])C([H])(n3nc(-c4c([H])c([H])c(Oc5c([H])c([H])c(F)c([H])c5F)c([H])c4[H])c(C(=O)N([H])[H])c3N([H])[H])C2([H])[H])c([H])c1N([H])C([H])(C([H])([H])[H])C([H])([H])C([H])(Oc1c([H])c([H])c2c(c1[H])C([H])([H])N(C(=O)C([H])(N([H])C(=O)C([H])(N([H])C([H])([H])[H])C([H])([H])[H])C(C([H])([H])[H])(C([H])([H])[H])C([H])([H])[H])C([H])(C(=O)N([H])C1([H])c3c([H])c([H])c([H])c([H])c3C([H])([H])C([H])([H])C1([H])[H])C2([H])[H])C([H])([H])[H]

>  <smiles>  (21) 
[H]c1sc(C([H])([H])N([H])C(=O)N2C([H])([H])C([H])([H])C([H])([H])C([H])(n3nc(-c4c([H])c([H])c(Oc5c([H])c([H])c(F)c([H])c5F)c([H])c4[H])c(C(=O)N([H])[H])c3N([H])[H])C2([H])[H])c([H])c1N([H])C([H])(C([H])([H])[H])C([H])([H])C([H])(Oc1c([H])c([H])c2c(c1[H])C([H])([H])N(C(=O)C([H])(N([H])C(=O)C([H])(N([H])C([H])([H])[H])C([H])([H])[H])C(C([H])([H])[H])(C([H])([H])[H])C([H])([H])[H])C([H])(C(=O)N([H])C1([H])c3c([H])c([H])c([H])c([H])c3C([H])([H])C([H])([H])C1([H])[H])C2([H])[H])C([H])([H])[H]

$$$$
21:0:0
     RDKit          3D

 84 91  0  0  1  0  0  0  0  0999 V2000
  -28.9630  -22.2410   20.2970 C   0  0  0  0  0  3  0  0  0  0  0  0
  -28.7320  -20.3300   20.2530 C   0  0  0  0  0  2  0  0  0  0  0  0
  -30.7870  -18.9710   21.4170 C   0  0  0  0  0  1  0  0  0  0  0  0
  -29.7920  -18.7280   20.2760 C   0  0  0  0  0  0  0  0  0  0  0  0
  -30.3110  -15.6260   20.1850 C   0  0  0  0  0  0  0  0  0  0  0  0
  -30.3880  -13.1080   19.3380 C   0  0  0  0  0  2  0  0  0  0  0  0
  -29.4810  -12.7380   18.1310 C   0  0  0  0  0  2  0  0  0  0  0  0
  -28.0600  -12.3890   18.5980 C   0  0  0  0  0  2  0  0  0  0  0  0
  -27.5650  -13.3740   19.6830 C   0  0  0  0  0  3  0  0  0  0  0  0
  -28.6090  -13.6620   20.7850 C   0  0  0  0  0  2  0  0  0  0  0  0
  -29.7790  -14.2730   20.1170 N   0  0  0  0  0  0  0  0  0  0  0  0
  -31.5410  -15.5740   20.0010 O   0  0  0  0  0  0  0  0  0  0  0  0
  -29.5580  -16.9780   20.2680 N   0  0  0  0  0  4  0  0  0  0  0  0
  -28.5700  -16.7720   20.3430 H   0  0  0  0  0  0  0  0  0  0  0  0
  -25.2030  -13.8800   20.4720 C   0  0  0  0  0  0  0  0  0  0  0  0
  -24.1580  -13.0850   20.8480 C   0  0  0  0  0  0  0  0  0  0  0  0
  -24.6470  -11.7430   20.8110 C   0  0  0  0  0  0  0  0  0  0  0  0
  -26.2560  -13.0220   20.2160 N   0  0  0  0  0  0  0  0  0  0  0  0
  -25.9370  -11.7300   20.4870 N   0  0  0  0  0  0  0  0  0  0  0  0
  -23.9370  -10.4700   21.0030 C   0  0  0  0  0  0  0  0  0  0  0  0
  -24.3790   -9.5100   21.9410 C   0  0  0  0  0  3  0  0  0  0  0  0
  -23.6650   -8.3060   22.1240 C   0  0  0  0  0  3  0  0  0  0  0  0
  -22.4950   -8.0520   21.3690 C   0  0  0  0  0  0  0  0  0  0  0  0
  -22.0730   -9.0010   20.4210 C   0  0  0  0  0  3  0  0  0  0  0  0
  -22.7870  -10.1960   20.2360 C   0  0  0  0  0  3  0  0  0  0  0  0
  -21.7520   -6.9010   21.4620 O   0  0  0  0  0  0  0  0  0  0  0  0
  -21.7000   -6.1680   22.6210 C   0  0  0  0  0  0  0  0  0  0  0  0
  -21.2460   -6.7270   23.8350 C   0  0  0  0  0  3  0  0  0  0  0  0
  -21.1420   -5.9200   24.9860 C   0  0  0  0  0  3  0  0  0  0  0  0
  -21.4830   -4.5570   24.9230 C   0  0  0  0  0  0  0  0  0  0  0  0
  -21.9310   -3.9970   23.7140 C   0  0  0  0  0  3  0  0  0  0  0  0
  -22.0360   -4.8010   22.5650 C   0  0  0  0  0  0  0  0  0  0  0  0
  -22.4470   -4.2510   21.3970 F   0  0  0  0  0  0  0  0  0  0  0  0
  -21.3770   -3.7800   26.0280 F   0  0  0  0  0  0  0  0  0  0  0  0
  -22.7570  -13.5430   21.1230 C   0  0  0  0  0  0  0  0  0  0  0  0
  -22.0450  -12.8450   22.0000 N   0  0  0  0  0  0  0  0  0  0  0  0
  -22.3010  -14.5570   20.5960 O   0  0  0  0  0  0  0  0  0  0  0  0
  -22.4280  -12.0240   22.4480 H   0  0  0  0  0  0  0  0  0  0  0  0
  -21.1040  -13.1330   22.2280 H   0  0  0  0  0  0  0  0  0  0  0  0
  -25.3410  -15.2530   20.2930 N   0  0  0  0  0  0  0  0  0  0  0  0
  -24.5600  -15.8910   20.4070 H   0  0  0  0  0  0  0  0  0  0  0  0
  -26.1690  -15.7030   19.9260 H   0  0  0  0  0  0  0  0  0  0  0  0
  -27.9640  -23.8850   20.2090 C   0  0  0  0  0  3  0  0  0  0  0  0
  -28.1630  -25.6150   20.3100 O   0  0  0  0  0  0  0  0  0  0  0  0
  -24.6740  -31.8780   23.2110 C   0  0  0  0  0  0  0  0  0  0  0  0
  -27.1850  -26.8070   20.2510 C   0  0  0  0  0  0  0  0  0  0  0  0
  -23.4790  -30.4780   21.5820 C   0  0  0  0  0  3  0  0  0  0  0  0
  -24.9200  -28.8210   20.1790 C   0  0  0  0  0  0  0  0  0  0  0  0
  -26.0570  -30.6190   21.4560 C   0  0  0  0  0  2  0  0  0  0  0  0
  -26.1150  -29.1860   20.8090 C   0  0  0  0  0  0  0  0  0  0  0  0
  -27.2350  -28.2060   20.8110 C   0  0  0  0  0  3  0  0  0  0  0  0
  -25.9550  -26.6400   19.5680 C   0  0  0  0  0  3  0  0  0  0  0  0
  -24.8750  -27.5720   19.5350 C   0  0  0  0  0  3  0  0  0  0  0  0
  -23.7160  -29.7730   20.2150 C   0  0  0  0  0  2  0  0  0  0  0  0
  -24.7610  -31.0240   22.1350 N   0  0  0  0  0  0  0  0  0  0  0  0
  -23.5830  -32.1840   23.7210 O   0  0  0  0  0  0  0  0  0  0  0  0
  -22.7610  -29.5060   22.5560 C   0  0  0  0  0  0  0  0  0  0  0  0
  -21.4270  -29.3610   22.4340 N   0  0  0  0  0  0  0  0  0  0  0  0
  -23.4140  -28.8810   23.3950 O   0  0  0  0  0  0  0  0  0  0  0  0
  -20.9510  -29.9160   21.7370 H   0  0  0  0  0  0  0  0  0  0  0  0
  -18.0320  -28.1790   22.9550 C   0  0  0  0  0  0  0  0  0  0  0  0
  -20.5940  -28.4350   23.2120 C   0  0  0  0  0  3  0  0  0  0  0  0
  -20.6850  -26.9980   22.6460 C   0  0  0  0  0  2  0  0  0  0  0  0
  -19.5810  -26.6760   21.6340 C   0  0  0  0  0  2  0  0  0  0  0  0
  -18.2010  -26.8280   22.2800 C   0  0  0  0  0  2  0  0  0  0  0  0
  -19.1540  -28.9400   23.3780 C   0  0  0  0  0  0  0  0  0  0  0  0
  -18.9390  -30.2020   23.9750 C   0  0  0  0  0  3  0  0  0  0  0  0
  -17.6350  -30.7020   24.1490 C   0  0  0  0  0  3  0  0  0  0  0  0
  -16.5270  -29.9390   23.7390 C   0  0  0  0  0  3  0  0  0  0  0  0
  -16.7270  -28.6800   23.1480 C   0  0  0  0  0  3  0  0  0  0  0  0
  -25.9410  -32.5240   23.8500 C   0  0  0  0  0  3  0  0  0  0  0  0
  -26.4430  -31.7590   25.1370 C   0  0  1  0  0  0  0  0  0  0  0  0
  -25.3400  -31.5350   26.2010 C   0  0  0  0  0  1  0  0  0  0  0  0
  -27.0220  -30.3750   24.7720 C   0  0  0  0  0  1  0  0  0  0  0  0
  -27.5920  -32.5520   25.8030 C   0  0  0  0  0  1  0  0  0  0  0  0
  -25.6210  -33.9230   24.1920 N   0  0  0  0  0  0  0  0  0  0  0  0
  -25.9270  -34.9900   23.4420 C   0  0  0  0  0  0  0  0  0  0  0  0
  -26.5660  -34.9020   22.3900 O   0  0  0  0  0  0  0  0  0  0  0  0
  -25.0470  -34.0640   25.0100 H   0  0  0  0  0  0  0  0  0  0  0  0
  -24.1680  -36.7780   23.1890 C   0  0  0  0  0  1  0  0  0  0  0  0
  -25.4520  -36.3760   23.9310 C   0  0  0  0  0  3  0  0  0  0  0  0
  -27.6160  -37.2850   24.6580 C   0  0  0  0  0  1  0  0  0  0  0  0
  -26.4680  -37.4400   23.7700 N   0  0  0  0  0  0  0  0  0  0  0  0
  -26.0600  -38.3560   23.9350 H   0  0  0  0  0  0  0  0  0  0  0  0
  2  4  1  0
  2  1  1  0
  4  3  1  0
  5 13  1  0
  6 11  1  0
  7  8  1  0
  7  6  1  0
  9  8  1  0
  9 18  1  0
  9 10  1  0
 11  5  1  0
 11 10  1  0
 12  5  2  0
 13  4  2  0
 13 14  1  0
 15 16  2  0
 16 35  1  0
 17 16  1  0
 17 20  1  0
 18 15  1  0
 18 19  1  0
 19 17  2  0
 20 21  1  0
 21 22  2  0
 23 26  1  0
 23 22  1  0
 24 23  2  0
 25 24  1  0
 25 20  2  0
 26 27  1  0
 27 28  1  0
 28 29  2  0
 30 29  1  0
 30 34  1  0
 31 30  2  0
 32 27  2  0
 32 31  1  0
 33 32  1  0
 35 36  1  0
 36 39  1  0
 36 38  1  0
 37 35  2  0
 40 41  1  0
 40 15  1  0
 42 40  1  0
 43  1  2  0
 43 44  1  0
 45 56  2  0
 46 44  1  0
 46 51  1  0
 47 55  1  0
 47 57  1  0
 48 54  1  0
 48 50  1  0
 49 55  1  0
 50 51  2  0
 50 49  1  0
 52 46  2  0
 53 52  1  0
 53 48  2  0
 54 47  1  0
 55 45  1  0
 57 59  2  0
 58 57  1  0
 60 58  1  0
 61 70  2  0
 61 66  1  0
 62 58  1  0
 62 66  1  0
 63 62  1  0
 64 65  1  0
 64 63  1  0
 65 61  1  0
 66 67  2  0
 67 68  1  0
 69 68  2  0
 70 69  1  0
 71 45  1  0
 71 76  1  0
 71 72  1  0
 72 75  1  1
 72 73  1  0
 74 72  1  0
 76 79  1  0
 77 81  1  0
 77 76  1  0
 78 77  2  0
 81 80  1  0
 83 81  1  0
 83 84  1  0
 83 82  1  0
M  ISO  4   5 100  13 100  43 101  44 101
M  END
>  <TORSDO>  (22) 
F 19

>  <SCORE>  (22) 
-16.387

>  <name>  (22) 
21

>  <ligand_id>  (22) 
21

>  <original_smiles>  (22) 
[H]c1c([H])c([H])c2c(c1[H])C([H])([H])C([H])([H])C([H])([H])C2([H])N([H])C(=O)C1([H])N(C(=O)C([H])(N([H])C(=O)C([H])(N([H])C([H])([H])[H])C([H])([H])[H])C(C([H])([H])[H])(C([H])([H])[H])C([H])([H])[H])C([H])([H])c2c([H])c(OC([H])([H])C([H])([H])C([H])([H])C([H])(N([H])C(=O)N3C([H])([H])C([H])([H])C([H])([H])C([H])(n4nc(-c5c([H])c([H])c(Oc6c([H])c([H])c(F)c([H])c6F)c([H])c5[H])c(C(=O)N([H])[H])c4N([H])[H])C3([H])[H])C([H])([H])[H])c([H])c([H])c2C1([H])[H]

>  <smiles>  (22) 
[H]c1c([H])c([H])c2c(c1[H])C([H])([H])C([H])([H])C([H])([H])C2([H])N([H])C(=O)C1([H])N(C(=O)C([H])(N([H])C(=O)C([H])(N([H])C([H])([H])[H])C([H])([H])[H])C(C([H])([H])[H])(C([H])([H])[H])C([H])([H])[H])C([H])([H])c2c([H])c(OC([H])([H])C([H])([H])C([H])([H])C([H])(N([H])C(=O)N3C([H])([H])C([H])([H])C([H])([H])C([H])(n4nc(-c5c([H])c([H])c(Oc6c([H])c([H])c(F)c([H])c6F)c([H])c5[H])c(C(=O)N([H])[H])c4N([H])[H])C3([H])[H])C([H])([H])[H])c([H])c([H])c2C1([H])[H]

$$$$
22:0:0
     RDKit          3D

100101  0  0  1  0  0  0  0  0999 V2000
  -28.4390  -17.6480   19.2460 N   0  0  0  0  0  4  0  0  0  0  0  0
  -28.1670  -17.9190   18.3000 H   0  0  0  0  0  0  0  0  0  0  0  0
  -29.9880  -13.6780   21.7460 C   0  0  0  0  0  0  0  0  0  0  0  0
  -31.4360  -12.4910   19.3800 C   0  0  0  0  0 15  0  0  0  0  0  0
  -30.5790  -11.6560   17.3570 C   0  0  0  0  0 15  0  0  0  0  0  0
  -28.2600  -11.7440   17.1240 C   0  0  0  0  0  1  0  0  0  0  0  0
  -27.2610  -11.7800   19.1290 C   0  0  0  0  0  1  0  0  0  0  0  0
  -28.4210  -11.8660   20.8670 C   0  0  0  0  0  1  0  0  0  0  0  0
  -30.1310  -12.5810   20.9490 N   0  0  0  0  0  2  0  0  0  0  0  0
  -31.0780  -14.3080   21.6350 O   0  0  0  0  0  0  0  0  0  0  0  0
  -28.4170  -15.6730   21.1300 C   0  0  0  0  0  2  0  0  0  0  0  0
  -28.1700  -16.1470   19.5300 C   0  0  0  0  0  3  0  0  0  0  0  0
  -26.7980  -15.3890   18.9010 C   0  0  0  0  0  2  0  0  0  0  0  0
  -27.2440  -14.9850   22.1370 C   0  0  0  0  0  2  0  0  0  0  0  0
  -24.9820  -15.4470   19.7500 N   0  0  0  0  0  1  0  0  0  0  0  0
  -25.2520  -15.1300   21.8360 N   0  0  0  0  0 15  0  0  0  0  0  0
  -28.5890  -14.0020   22.4000 N   0  0  0  0  0  0  0  0  0  0  0  0
  -28.2580  -13.1210   22.7630 H   0  0  0  0  0  0  0  0  0  0  0  0
  -26.0340  -13.8110   20.2570 C   0  0  0  0  0  2  0  0  0  0  0  0
  -24.7180  -12.9460   20.5620 C   0  0  1  0  0  0  0  0  0  0  0  0
  -24.8940  -11.5340   20.6950 C   0  0  0  0  0  3  0  0  0  0  0  0
  -26.3420  -12.4960   19.8020 N   0  0  1  0  0  4  0  0  0  0  0  0
  -26.1110  -11.5590   20.7690 N   0  0  0  0  0  2  0  0  0  0  0  0
  -24.1500  -10.2410   20.9120 C   0  0  0  0  0  0  0  0  0  0  0  0
  -24.6390   -9.2700   21.8210 C   0  0  0  0  0  3  0  0  0  0  0  0
  -23.9400   -8.0640   22.0730 C   0  0  0  0  0  3  0  0  0  0  0  0
  -22.7260   -7.7880   21.4050 C   0  0  0  0  0  0  0  0  0  0  0  0
  -22.2550   -8.7280   20.4680 C   0  0  0  0  0  3  0  0  0  0  0  0
  -22.9590   -9.9300   20.2170 C   0  0  0  0  0  3  0  0  0  0  0  0
  -21.9910   -6.6330   21.5800 O   0  0  0  0  0  0  0  0  0  0  0  0
  -21.9210   -5.9890   22.7950 C   0  0  0  0  0  0  0  0  0  0  0  0
  -21.3190   -6.5810   23.9280 C   0  0  0  0  0  3  0  0  0  0  0  0
  -21.2160   -5.8570   25.1340 C   0  0  0  0  0  3  0  0  0  0  0  0
  -21.7070   -4.5390   25.2100 C   0  0  0  0  0  0  0  0  0  0  0  0
  -22.3030   -3.9460   24.0830 C   0  0  0  0  0  3  0  0  0  0  0  0
  -22.4060   -4.6660   22.8800 C   0  0  0  0  0  0  0  0  0  0  0  0
  -22.9560   -4.0730   21.7930 F   0  0  0  0  0  0  0  0  0  0  0  0
  -21.6060   -3.8440   26.3660 F   0  0  0  0  0  0  0  0  0  0  0  0
  -23.1650  -13.2440   20.7030 C   0  0  0  0  0  0  0  0  0  0  0  0
  -22.5330  -12.8990   21.8330 N   0  0  0  0  0  0  0  0  0  0  0  0
  -22.4280  -13.6960   19.8180 O   0  0  0  0  0  0  0  0  0  0  0  0
  -23.0400  -12.5110   22.6170 H   0  0  0  0  0  0  0  0  0  0  0  0
  -21.5380  -13.0600   21.9270 H   0  0  0  0  0  0  0  0  0  0  0  0
  -25.9710  -16.7200   20.1550 N   0  0  0  0  0  0  0  0  0  0  0  0
  -24.9950  -16.9890   20.2480 H   0  0  0  0  0  0  0  0  0  0  0  0
  -26.4620  -17.2190   19.4060 H   0  0  0  0  0  0  0  0  0  0  0  0
  -28.2670  -14.1580   19.1250 C   0  0  0  0  0  2  0  0  0  0  0  0
  -29.0350  -10.4480   18.2680 C   0  0  0  0  0  3  0  0  0  0  0  0
  -30.2240  -14.0950   18.0970 C   0  0  0  0  0  1  0  0  0  0  0  0
  -29.8210  -10.4780   19.3220 C   0  0  0  0  0  2  0  0  0  0  0  0
  -29.2800  -12.6910   18.8200 C   0  0  0  0  0  2  0  0  0  0  0  0
  -30.2380  -18.8850   20.6450 C   0  0  0  0  0  1  0  0  0  0  0  0
  -28.7980  -18.9340   20.1610 C   0  0  0  0  0  0  0  0  0  0  0  0
  -28.2090  -20.6130   20.1750 C   0  0  0  0  0  2  0  0  0  0  0  0
  -28.7550  -22.6380   18.6390 C   0  0  0  0  0  1  0  0  0  0  0  0
  -28.8630  -22.2670   20.1360 C   0  0  2  0  0  0  0  0  0  0  0  0
  -30.7390  -22.3130   21.9640 C   0  0  0  0  0  1  0  0  0  0  0  0
  -30.3760  -22.2380   20.4670 C   0  0  0  0  0  2  0  0  0  0  0  0
  -28.1930  -23.7080   20.8880 C   0  0  0  0  0  2  0  0  0  0  0  0
  -28.6090  -25.2730   20.9280 O   0  0  0  0  0  0  0  0  0  0  0  0
  -24.6250  -31.3570   22.8650 C   0  0  0  0  0  0  0  0  0  0  0  0
  -27.6650  -26.3600   20.6950 C   0  0  0  0  0  0  0  0  0  0  0  0
  -23.7510  -29.7940   21.1830 C   0  0  0  0  0  3  0  0  0  0  0  0
  -25.4310  -28.1480   20.1540 C   0  0  0  0  0  0  0  0  0  0  0  0
  -26.3020  -30.0760   21.4580 C   0  0  0  0  0  2  0  0  0  0  0  0
  -26.4920  -28.6300   20.9330 C   0  0  0  0  0  0  0  0  0  0  0  0
  -27.6230  -27.7450   21.1900 C   0  0  0  0  0  3  0  0  0  0  0  0
  -26.6000  -26.0230   19.8500 C   0  0  0  0  0  3  0  0  0  0  0  0
  -25.5050  -26.8670   19.6000 C   0  0  0  0  0  3  0  0  0  0  0  0
  -24.2190  -29.0310   19.9200 C   0  0  0  0  0  2  0  0  0  0  0  0
  -24.9040  -30.4410   21.8880 N   0  0  0  0  0  0  0  0  0  0  0  0
  -23.4570  -31.6520   23.1640 O   0  0  0  0  0  0  0  0  0  0  0  0
  -22.9350  -28.8440   22.0970 C   0  0  0  0  0  0  0  0  0  0  0  0
  -21.6000  -28.8220   21.9290 N   0  0  0  0  0  0  0  0  0  0  0  0
  -23.5080  -28.1330   22.9270 O   0  0  0  0  0  0  0  0  0  0  0  0
  -21.1990  -29.4420   21.2390 H   0  0  0  0  0  0  0  0  0  0  0  0
  -18.0850  -28.2560   22.6280 C   0  0  0  0  0  0  0  0  0  0  0  0
  -20.6570  -27.9660   22.6550 C   0  0  0  0  0  3  0  0  0  0  0  0
  -20.4080  -26.6410   21.8980 C   0  0  0  0  0  2  0  0  0  0  0  0
  -19.1900  -26.6950   20.9710 C   0  0  0  0  0  2  0  0  0  0  0  0
  -17.9220  -27.0130   21.7690 C   0  0  0  0  0  2  0  0  0  0  0  0
  -19.3700  -28.7110   23.0310 C   0  0  0  0  0  0  0  0  0  0  0  0
  -19.4650  -29.8890   23.8040 C   0  0  0  0  0  3  0  0  0  0  0  0
  -18.3110  -30.6050   24.1730 C   0  0  0  0  0  3  0  0  0  0  0  0
  -17.0430  -30.1440   23.7820 C   0  0  0  0  0  3  0  0  0  0  0  0
  -16.9300  -28.9690   23.0170 C   0  0  0  0  0  3  0  0  0  0  0  0
  -25.7580  -32.0940   23.6420 C   0  0  0  0  0  3  0  0  0  0  0  0
  -25.2720  -33.4480   23.9630 N   0  0  0  0  0  0  0  0  0  0  0  0
  -25.5720  -34.5550   23.2720 C   0  0  0  0  0  0  0  0  0  0  0  0
  -26.3490  -34.5520   22.3140 O   0  0  0  0  0  0  0  0  0  0  0  0
  -24.5880  -33.5170   24.7030 H   0  0  0  0  0  0  0  0  0  0  0  0
  -23.7230  -36.1960   22.7860 C   0  0  0  0  0  1  0  0  0  0  0  0
  -24.9080  -35.8760   23.7120 C   0  0  0  0  0  3  0  0  0  0  0  0
  -26.8100  -36.9570   24.8270 C   0  0  0  0  0  1  0  0  0  0  0  0
  -25.8380  -37.0260   23.7390 N   0  0  0  0  0  0  0  0  0  0  0  0
  -25.3270  -37.9000   23.8260 H   0  0  0  0  0  0  0  0  0  0  0  0
  -26.1920  -31.3440   24.9620 C   0  0  1  0  0  0  0  0  0  0  0  0
  -25.0130  -30.9920   25.8990 C   0  0  0  0  0  1  0  0  0  0  0  0
  -26.9370  -30.0300   24.6350 C   0  0  0  0  0  1  0  0  0  0  0  0
  -27.1850  -32.2240   25.7580 C   0  0  0  0  0  1  0  0  0  0  0  0
  1 12  1  0
  1 53  2  0
  2  1  1  0
  3 17  1  0
  6 48  1  0
  8  9  1  0
  9  3  1  0
 10  3  2  0
 11 14  1  0
 12 13  1  0
 12 11  1  0
 13 47  1  0
 14 17  1  0
 15 44  1  0
 17 18  1  0
 19 20  1  0
 20 21  1  0
 20 39  1  1
 21 23  1  0
 21 24  1  0
 22  7  1  6
 22 19  1  0
 22 20  1  0
 22 23  1  0
 24 25  1  0
 25 26  2  0
 27 30  1  0
 27 26  1  0
 28 27  2  0
 29 28  1  0
 29 24  2  0
 30 31  1  0
 31 36  2  0
 31 32  1  0
 32 33  2  0
 33 34  1  0
 34 38  1  0
 35 34  2  0
 36 35  1  0
 37 36  1  0
 39 40  1  0
 40 43  1  0
 40 42  1  0
 41 39  2  0
 44 45  1  0
 46 44  1  0
 48 50  2  0
 49 51  1  0
 51 47  1  0
 53 54  1  0
 53 52  1  0
 56 55  1  6
 56 54  1  0
 56 58  1  0
 56 59  1  0
 58 57  1  0
 59 60  1  0
 61 72  2  0
 62 60  1  0
 62 67  1  0
 63 71  1  0
 63 73  1  0
 64 66  1  0
 65 71  1  0
 66 67  2  0
 66 65  1  0
 68 62  2  0
 69 68  1  0
 69 64  2  0
 70 64  1  0
 70 63  1  0
 71 61  1  0
 73 75  2  0
 74 73  1  0
 76 74  1  0
 77 86  2  0
 77 82  1  0
 78 74  1  0
 78 82  1  0
 79 78  1  0
 80 81  1  0
 80 79  1  0
 81 77  1  0
 82 83  2  0
 83 84  1  0
 85 84  2  0
 86 85  1  0
 87 61  1  0
 87 88  1  0
 87 97  1  0
 88 91  1  0
 89 93  1  0
 89 88  1  0
 90 89  2  0
 93 92  1  0
 93 95  1  0
 95 96  1  0
 95 94  1  0
 97100  1  1
 97 98  1  0
 99 97  1  0
M  ISO  4   3 100  17 100  59 101  60 101
M  END
>  <TORSDO>  (23) 
F 23

>  <SCORE>  (23) 
-5.676

>  <name>  (23) 
22

>  <ligand_id>  (23) 
22

>  <original_smiles>  (23) 
[H]c1c([H])c([H])c2c(c1[H])C([H])([H])C([H])([H])C([H])([H])C2([H])N([H])C(=O)C1([H])N(C(=O)C([H])(N([H])C(=O)C([H])(N([H])C([H])([H])[H])C([H])([H])[H])C(C([H])([H])[H])(C([H])([H])[H])C([H])([H])[H])C([H])([H])c2c([H])c(OC([H])([H])C(C([H])([H])[H])(C([H])([H])C([H])([H])[H])C([H])([H])C([H])(N([H])c3c(C([H])([H])C(C([H])([H])[H])(C([H])([H])[H])C([H])([H])[H])nnc(N([H])C(=O)N4C([H])([H])C([H])([H])C([H])([H])C([H])(n5nc(-c6c([H])c([H])c(Oc7c([H])c([H])c(F)c([H])c7F)c([H])c6[H])c(C(=O)N([H])[H])c5N([H])[H])C4([H])[H])c3[H])C([H])([H])[H])c([H])c([H])c2C1([H])[H]

>  <smiles>  (23) 
[H]c1c([H])c([H])c2c(c1[H])C([H])([H])C([H])([H])C([H])([H])C2([H])N([H])C(=O)C1([H])N(C(=O)C([H])(N([H])C(=O)C([H])(N([H])C([H])([H])[H])C([H])([H])[H])C(C([H])([H])[H])(C([H])([H])[H])C([H])([H])[H])C([H])([H])c2c([H])c(OC([H])([H])C(C([H])([H])[H])(C([H])([H])C([H])([H])[H])C([H])([H])C([H])(N([H])c3c(C([H])([H])C(C([H])([H])[H])(C([H])([H])[H])C([H])([H])[H])nnc(N([H])C(=O)N4C([H])([H])C([H])([H])C([H])([H])C([H])(n5nc(-c6c([H])c([H])c(Oc7c([H])c([H])c(F)c([H])c7F)c([H])c6[H])c(C(=O)N([H])[H])c5N([H])[H])C4([H])[H])c3[H])C([H])([H])[H])c([H])c([H])c2C1([H])[H]

$$$$
23:0:0
     RDKit          3D

 97100  0  0  1  0  0  0  0  0999 V2000
  -23.0040  -12.0710   20.9160 C   0  0  0  0  0  2  0  0  0  0  0  0
  -23.5170  -10.7610   19.6430 C   0  0  0  0  0  3  0  0  0  0  0  0
  -25.4590  -10.2840   19.9730 C   0  0  0  0  0  0  0  0  0  0  0  0
  -25.9430  -13.2250   21.7610 C   0  0  0  0  0  2  0  0  0  0  0  0
  -24.2920  -12.8610   21.9870 N   0  0  0  0  0  2  0  0  0  0  0  0
  -26.1500  -11.4940   21.3950 N   0  0  0  0  0  1  0  0  0  0  0  0
  -26.8260  -15.1760   21.1180 N   0  0  0  0  0  1  0  0  0  0  0  0
  -26.0490  -15.7910   21.3330 H   0  0  0  0  0  0  0  0  0  0  0  0
  -29.3960  -16.1300   20.3290 C   0  0  0  0  0  1  0  0  0  0  0  0
  -28.0710  -16.8160   20.0190 C   0  0  0  0  0  1  0  0  0  0  0  0
  -29.0510  -19.3160   19.2180 C   0  0  0  0  0 15  0  0  0  0  0  0
  -30.2190  -21.1640   18.0910 O   0  0  0  0  0 15  0  0  0  0  0  0
  -32.3040  -29.6050   18.8200 C   0  0  0  0  0  0  0  0  0  0  0  0
  -30.5310  -22.9730   17.5450 C   0  0  0  0  0  2  0  0  0  0  0  0
  -30.1810  -28.6950   18.0040 C   0  0  0  0  0  3  0  0  0  0  0  0
  -30.1260  -26.2730   16.8410 C   0  0  0  0  0  0  0  0  0  0  0  0
  -32.2690  -27.3210   17.3990 C   0  0  0  0  0  2  0  0  0  0  0  0
  -31.3910  -25.8910   17.2690 C   0  0  0  0  0  0  0  0  0  0  0  0
  -31.5680  -24.3120   17.5570 C   0  0  0  0  0  2  0  0  0  0  0  0
  -29.5800  -23.7260   16.7100 C   0  0  0  0  0  3  0  0  0  0  0  0
  -29.3380  -25.1590   16.4600 C   0  0  0  0  0  3  0  0  0  0  0  0
  -29.6340  -27.7630   16.8580 C   0  0  0  0  0  2  0  0  0  0  0  0
  -31.6690  -28.6000   18.0770 N   0  0  0  0  0  0  0  0  0  0  0  0
  -31.6620  -30.4460   19.4770 O   0  0  0  0  0  0  0  0  0  0  0  0
  -29.5480  -28.3180   19.3690 C   0  0  0  0  0  0  0  0  0  0  0  0
  -28.3240  -28.7860   19.6860 N   0  0  0  0  0  0  0  0  0  0  0  0
  -30.1770  -27.5810   20.1330 O   0  0  0  0  0  0  0  0  0  0  0  0
  -27.8600  -29.4040   19.0350 H   0  0  0  0  0  0  0  0  0  0  0  0
  -25.1770  -29.1830   21.4840 C   0  0  0  0  0  0  0  0  0  0  0  0
  -27.5630  -28.3790   20.8790 C   0  0  0  0  0  3  0  0  0  0  0  0
  -26.9180  -26.9860   20.6650 C   0  0  0  0  0  2  0  0  0  0  0  0
  -25.4850  -27.0680   20.1310 C   0  0  0  0  0  2  0  0  0  0  0  0
  -24.5920  -27.8320   21.1130 C   0  0  0  0  0  2  0  0  0  0  0  0
  -26.5690  -29.4470   21.3600 C   0  0  0  0  0  0  0  0  0  0  0  0
  -27.0560  -30.7280   21.6970 C   0  0  0  0  0  3  0  0  0  0  0  0
  -26.1820  -31.7330   22.1490 C   0  0  0  0  0  3  0  0  0  0  0  0
  -24.8080  -31.4630   22.2800 C   0  0  0  0  0  3  0  0  0  0  0  0
  -24.3100  -30.1900   21.9540 C   0  0  0  0  0  3  0  0  0  0  0  0
  -33.8570  -29.7860   18.9030 C   0  0  0  0  0  3  0  0  0  0  0  0
  -34.1880  -31.2290   19.0820 N   0  0  0  0  0  0  0  0  0  0  0  0
  -34.6090  -32.0820   18.1320 C   0  0  0  0  0  0  0  0  0  0  0  0
  -34.7780  -31.7280   16.9640 O   0  0  0  0  0  0  0  0  0  0  0  0
  -34.0140  -31.6040   20.0040 H   0  0  0  0  0  0  0  0  0  0  0  0
  -33.6800  -34.4360   18.1810 C   0  0  0  0  0  1  0  0  0  0  0  0
  -34.8920  -33.5550   18.5290 C   0  0  0  0  0  3  0  0  0  0  0  0
  -37.3480  -33.5420   18.3670 C   0  0  0  0  0  1  0  0  0  0  0  0
  -36.0990  -34.1290   17.8900 N   0  0  0  0  0  0  0  0  0  0  0  0
  -36.1450  -35.1330   18.0430 H   0  0  0  0  0  0  0  0  0  0  0  0
  -34.5080  -28.9820   20.0960 C   0  0  1  0  0  0  0  0  0  0  0  0
  -33.8720  -29.2800   21.4760 C   0  0  0  0  0  1  0  0  0  0  0  0
  -34.4120  -27.4610   19.8800 C   0  0  0  0  0  1  0  0  0  0  0  0
  -36.0220  -29.2970   20.1820 C   0  0  0  0  0  1  0  0  0  0  0  0
  -22.4800  -10.3570   18.7230 N   0  0  0  0  0  0  0  0  0  0  0  0
  -22.6740   -9.7700   17.9000 H   0  0  0  0  0  0  0  0  0  0  0  0
  -19.9060   -9.8090   18.7190 C   0  0  0  0  0  1  0  0  0  0  0  0
  -21.0690  -10.7730   19.1030 C   0  0  0  0  0  3  0  0  0  0  0  0
  -19.7120  -12.9610   19.6460 C   0  0  0  0  0  1  0  0  0  0  0  0
  -20.7390  -12.2430   18.7230 C   0  0  0  0  0  2  0  0  0  0  0  0
  -26.5650   -9.8800   18.4870 C   0  0  0  0  0  3  0  0  0  0  0  0
  -29.5610  -11.0130   18.0560 C   0  0  0  0  0  0  0  0  0  0  0  0
  -30.2760   -9.5330   19.5350 C   0  0  0  0  0  2  0  0  0  0  0  0
  -28.9270   -8.9800   19.6410 C   0  0  0  0  0  2  0  0  0  0  0  0
  -28.0880  -10.1050   20.4150 C   0  0  0  0  0  2  0  0  0  0  0  0
  -28.0270  -11.8040   19.9950 C   0  0  0  0  0  3  0  0  0  0  0  0
  -29.4900  -12.0140   20.0650 C   0  0  0  0  0  2  0  0  0  0  0  0
  -30.0050  -10.9290   19.2560 N   0  0  0  0  0  0  0  0  0  0  0  0
  -30.6030  -11.3920   17.4570 O   0  0  0  0  0  0  0  0  0  0  0  0
  -28.0910  -10.5730   17.7490 N   0  0  0  0  0  0  0  0  0  0  0  0
  -27.9440  -10.6730   16.7520 H   0  0  0  0  0  0  0  0  0  0  0  0
  -25.7890  -13.6620   19.0570 C   0  0  2  0  0  0  0  0  0  0  0  0
  -24.4380  -13.4160   19.4040 C   0  0  0  0  0  3  0  0  0  0  0  0
  -24.8290  -12.1760   19.5610 C   0  0  0  0  0  3  0  0  0  0  0  0
  -26.8230  -12.6120   19.1110 N   0  0  0  0  0  0  0  0  0  0  0  0
  -25.7080  -12.1680   18.5670 N   0  0  0  0  0  0  0  0  0  0  0  0
  -24.1850   -9.8910   21.3710 C   0  0  0  0  0  0  0  0  0  0  0  0
  -23.6670   -9.5030   22.6740 C   0  0  0  0  0  2  0  0  0  0  0  0
  -22.6990   -8.4210   23.0000 C   0  0  0  0  0  3  0  0  0  0  0  0
  -21.8630   -7.8360   21.9910 C   0  0  0  0  0  0  0  0  0  0  0  0
  -22.2710   -8.1720   20.7390 C   0  0  0  0  0  2  0  0  0  0  0  0
  -23.6320   -8.5790   20.7770 C   0  0  0  0  0  2  0  0  0  0  0  0
  -20.8240   -6.9210   22.0470 O   0  0  0  0  0  0  0  0  0  0  0  0
  -20.6260   -6.1660   23.1580 C   0  0  0  0  0  0  0  0  0  0  0  0
  -20.4020   -6.8260   24.3770 C   0  0  0  0  0  3  0  0  0  0  0  0
  -20.2180   -6.1020   25.5590 C   0  0  0  0  0  3  0  0  0  0  0  0
  -20.2260   -4.6930   25.5250 C   0  0  0  0  0  0  0  0  0  0  0  0
  -20.3920   -4.0160   24.3030 C   0  0  0  0  0  3  0  0  0  0  0  0
  -20.5780   -4.7510   23.1110 C   0  0  0  0  0  0  0  0  0  0  0  0
  -20.7060   -4.0800   21.9400 F   0  0  0  0  0  0  0  0  0  0  0  0
  -20.0690   -3.9930   26.6750 F   0  0  0  0  0  0  0  0  0  0  0  0
  -23.1200  -14.1280   19.8380 C   0  0  0  0  0  0  0  0  0  0  0  0
  -22.4530  -14.0120   21.0120 N   0  0  0  0  0  0  0  0  0  0  0  0
  -22.5140  -14.7180   19.0120 O   0  0  0  0  0  0  0  0  0  0  0  0
  -22.9610  -13.3110   21.6030 H   0  0  0  0  0  0  0  0  0  0  0  0
  -21.6440  -14.5230   21.3390 H   0  0  0  0  0  0  0  0  0  0  0  0
  -26.1870  -14.7920   18.4860 N   0  0  0  0  0  0  0  0  0  0  0  0
  -25.6640  -15.6500   18.3080 H   0  0  0  0  0  0  0  0  0  0  0  0
  -27.1830  -14.9390   18.4710 H   0  0  0  0  0  0  0  0  0  0  0  0
  1  5  1  0
  2  1  1  0
  3 75  2  0
  4  5  1  0
  6  4  1  0
  7  8  1  0
 10  9  1  0
 13 24  2  0
 14 19  1  0
 15 23  1  0
 15 25  1  0
 16 22  1  0
 16 18  2  0
 17 23  1  0
 18 17  1  0
 18 19  1  0
 20 14  1  0
 21 20  2  0
 21 16  1  0
 22 15  1  0
 23 13  1  0
 25 26  1  0
 25 27  2  0
 28 26  1  0
 29 38  1  0
 30 26  1  0
 30 34  1  0
 31 30  1  0
 32 31  1  0
 32 33  1  0
 33 29  1  0
 34 29  2  0
 34 35  1  0
 35 36  2  0
 36 37  1  0
 38 37  2  0
 39 13  1  0
 39 40  1  0
 39 49  1  0
 40 43  1  0
 41 45  1  0
 41 40  1  0
 42 41  2  0
 45 44  1  0
 47 48  1  0
 47 46  1  0
 47 45  1  0
 49 52  1  1
 49 50  1  0
 51 49  1  0
 53 56  1  0
 53  2  1  0
 54 53  1  0
 56 55  1  0
 58 56  1  0
 58 57  1  0
 59  3  2  0
 60 66  1  0
 61 62  1  0
 62 63  1  0
 64 65  1  0
 64 63  1  0
 66 61  1  0
 66 65  1  0
 67 60  2  0
 68 60  1  0
 68 59  1  0
 69 68  1  0
 70 95  1  1
 70 73  1  0
 70 71  1  0
 71 72  1  0
 71 90  1  0
 72  2  1  0
 73 64  1  0
 74 70  1  0
 74 73  1  0
 74 72  1  0
 75 76  1  0
 76 77  1  0
 78 81  1  0
 78 77  2  0
 79 80  1  0
 79 78  1  0
 80 75  1  0
 81 82  1  0
 82 83  1  0
 83 84  2  0
 85 84  1  0
 85 89  1  0
 86 85  2  0
 87 82  2  0
 87 86  1  0
 88 87  1  0
 90 91  1  0
 91 94  1  0
 91 93  1  0
 92 90  2  0
 96 95  1  0
 97 95  1  0
M  ISO  4  11 101  12 101  60 100  68 100
M  END
>  <TORSDO>  (24) 
F 22

>  <SCORE>  (24) 
29.513

>  <name>  (24) 
23

>  <ligand_id>  (24) 
23

>  <original_smiles>  (24) 
[H]c1nc(N([H])C([H])(C([H])([H])[H])C([H])([H])Oc2c([H])c([H])c3c(c2[H])C([H])([H])N(C(=O)C([H])(N([H])C(=O)C([H])(N([H])C([H])([H])[H])C([H])([H])[H])C(C([H])([H])[H])(C([H])([H])[H])C([H])([H])[H])C([H])(C(=O)N([H])C2([H])c4c([H])c([H])c([H])c([H])c4C([H])([H])C([H])([H])C2([H])[H])C3([H])[H])nc(C([H])([H])N([H])C(=O)N2C([H])([H])C([H])([H])C([H])([H])C([H])(n3nc(-c4c([H])c([H])c(Oc5c([H])c([H])c(F)c([H])c5F)c([H])c4[H])c(C(=O)N([H])[H])c3N([H])[H])C2([H])[H])c1N([H])C([H])(C([H])([H])[H])C([H])([H])C([H])([H])[H]

>  <smiles>  (24) 
[H]c1nc(N([H])C([H])(C([H])([H])[H])C([H])([H])Oc2c([H])c([H])c3c(c2[H])C([H])([H])N(C(=O)C([H])(N([H])C(=O)C([H])(N([H])C([H])([H])[H])C([H])([H])[H])C(C([H])([H])[H])(C([H])([H])[H])C([H])([H])[H])C([H])(C(=O)N([H])C2([H])c4c([H])c([H])c([H])c([H])c4C([H])([H])C([H])([H])C2([H])[H])C3([H])[H])nc(C([H])([H])N([H])C(=O)N2C([H])([H])C([H])([H])C([H])([H])C([H])(n3nc(-c4c([H])c([H])c(Oc5c([H])c([H])c(F)c([H])c5F)c([H])c4[H])c(C(=O)N([H])[H])c3N([H])[H])C2([H])[H])c1N([H])C([H])(C([H])([H])[H])C([H])([H])C([H])([H])[H]

$$$$
24:0:0
     RDKit          3D

 95103  0  0  1  0  0  0  0  0999 V2000
  -28.1780  -23.9940   22.0650 C   0  0  0  0  0  1  0  0  0  0  0  0
  -27.7340  -24.3770   20.6250 C   0  0  1  0  0  0  0  0  0  0  0  0
  -28.6310  -25.6680   20.3160 C   0  0  0  0  0  2  0  0  0  0  0  0
  -28.4070  -26.6330   19.2550 O   0  0  0  0  0  0  0  0  0  0  0  0
  -24.9350  -31.8550   23.6390 C   0  0  0  0  0  0  0  0  0  0  0  0
  -27.4030  -27.5110   19.4390 C   0  0  0  0  0  0  0  0  0  0  0  0
  -23.5290  -30.8150   21.8820 C   0  0  0  0  0  3  0  0  0  0  0  0
  -24.6370  -29.2790   20.1920 C   0  0  0  0  0  0  0  0  0  0  0  0
  -26.0870  -30.9520   21.6470 C   0  0  0  0  0  2  0  0  0  0  0  0
  -26.0540  -29.6130   20.9570 C   0  0  0  0  0  0  0  0  0  0  0  0
  -27.4540  -28.7540   20.6080 C   0  0  0  0  0  3  0  0  0  0  0  0
  -25.9320  -27.1800   18.6290 C   0  0  0  0  0  0  0  0  0  0  0  0
  -24.5400  -28.0670   19.0400 C   0  0  0  0  0  3  0  0  0  0  0  0
  -23.5670  -30.3110   20.4140 C   0  0  0  0  0  2  0  0  0  0  0  0
  -24.8670  -31.2250   22.4310 N   0  0  0  0  0  0  0  0  0  0  0  0
  -23.9110  -32.1160   24.2810 O   0  0  0  0  0  0  0  0  0  0  0  0
  -22.8640  -29.6980   22.7110 C   0  0  0  0  0  0  0  0  0  0  0  0
  -21.5630  -29.4710   22.4720 N   0  0  0  0  0  0  0  0  0  0  0  0
  -23.5210  -29.0300   23.5110 O   0  0  0  0  0  0  0  0  0  0  0  0
  -21.0820  -30.0610   21.8100 H   0  0  0  0  0  0  0  0  0  0  0  0
  -18.2510  -28.0570   22.5580 C   0  0  0  0  0  0  0  0  0  0  0  0
  -20.7500  -28.4310   23.0980 C   0  0  0  0  0  3  0  0  0  0  0  0
  -20.9970  -27.0590   22.4350 C   0  0  0  0  0  2  0  0  0  0  0  0
  -20.0180  -26.7530   21.2970 C   0  0  0  0  0  2  0  0  0  0  0  0
  -18.5750  -26.7730   21.8090 C   0  0  0  0  0  2  0  0  0  0  0  0
  -19.2770  -28.8420   23.1500 C   0  0  0  0  0  0  0  0  0  0  0  0
  -18.9310  -30.0490   23.7940 C   0  0  0  0  0  3  0  0  0  0  0  0
  -17.5910  -30.4720   23.8590 C   0  0  0  0  0  3  0  0  0  0  0  0
  -16.5780  -29.6810   23.2910 C   0  0  0  0  0  3  0  0  0  0  0  0
  -16.9080  -28.4770   22.6450 C   0  0  0  0  0  3  0  0  0  0  0  0
  -26.3010  -32.2850   24.2530 C   0  0  0  0  0  3  0  0  0  0  0  0
  -26.1880  -33.7000   24.6350 N   0  0  0  0  0  0  0  0  0  0  0  0
  -26.6510  -34.7200   23.9040 C   0  0  0  0  0  0  0  0  0  0  0  0
  -27.2950  -34.5650   22.8630 O   0  0  0  0  0  0  0  0  0  0  0  0
  -25.6210  -33.9070   25.4440 H   0  0  0  0  0  0  0  0  0  0  0  0
  -25.1890  -36.7400   23.6030 C   0  0  0  0  0  1  0  0  0  0  0  0
  -26.3540  -36.1420   24.4070 C   0  0  0  0  0  3  0  0  0  0  0  0
  -28.5650  -36.7230   25.3000 C   0  0  0  0  0  1  0  0  0  0  0  0
  -27.5190  -37.0500   24.3350 N   0  0  0  0  0  0  0  0  0  0  0  0
  -27.2340  -38.0160   24.4790 H   0  0  0  0  0  0  0  0  0  0  0  0
  -26.7310  -31.3990   25.4870 C   0  0  1  0  0  0  0  0  0  0  0  0
  -25.6010  -31.1940   26.5190 C   0  0  0  0  0  1  0  0  0  0  0  0
  -27.2150  -29.9980   25.0450 C   0  0  0  0  0  1  0  0  0  0  0  0
  -27.9270  -32.0600   26.2040 C   0  0  0  0  0  1  0  0  0  0  0  0
  -28.2690  -22.9470   19.8100 C   0  0  0  0  0  2  0  0  0  0  0  0
  -29.4940  -22.0810   20.2230 O   0  0  0  0  0  0  0  0  0  0  0  0
  -31.7850  -15.5650   19.7370 C   0  0  0  0  0  0  0  0  0  0  0  0
  -31.8340  -13.1250   19.0100 C   0  0  0  0  0  2  0  0  0  0  0  0
  -30.8250  -12.9050   17.8520 C   0  0  0  0  0  2  0  0  0  0  0  0
  -29.3900  -12.7000   18.3760 C   0  0  0  0  0  2  0  0  0  0  0  0
  -29.0230  -13.7070   19.4950 C   0  0  0  0  0  3  0  0  0  0  0  0
  -30.1310  -13.8180   20.5590 C   0  0  0  0  0  2  0  0  0  0  0  0
  -31.3420  -14.2500   19.8600 N   0  0  0  0  0  0  0  0  0  0  0  0
  -32.9240  -15.7230   19.2710 O   0  0  0  0  0  0  0  0  0  0  0  0
  -30.5130  -20.2260   18.6470 C   0  0  0  0  0  3  0  0  0  0  0  0
  -29.8760  -20.7650   19.7650 C   0  0  0  0  0  0  0  0  0  0  0  0
  -30.6800  -18.1410   19.8140 C   0  0  0  0  0  0  0  0  0  0  0  0
  -30.9280  -18.8320   18.6750 N   0  0  0  0  0  0  0  0  0  0  0  0
  -30.8810  -16.6270   20.0540 N   0  0  0  0  0  0  0  0  0  0  0  0
  -29.8090  -19.3470   20.9120 S   0  0  0  0  0  0  0  0  0  0  0  0
  -30.1020  -16.2530   20.5680 H   0  0  0  0  0  0  0  0  0  0  0  0
  -26.7420  -14.3250   20.4600 C   0  0  0  0  0  0  0  0  0  0  0  0
  -25.6970  -13.5650   20.9100 C   0  0  0  0  0  0  0  0  0  0  0  0
  -26.1190  -12.2010   20.7950 C   0  0  0  0  0  0  0  0  0  0  0  0
  -27.7280  -13.4250   20.0960 N   0  0  0  0  0  0  0  0  0  0  0  0
  -27.3730  -12.1440   20.3670 N   0  0  0  0  0  0  0  0  0  0  0  0
  -25.3840  -10.9500   21.0130 C   0  0  0  0  0  0  0  0  0  0  0  0
  -25.5630  -10.1720   22.1780 C   0  0  0  0  0  3  0  0  0  0  0  0
  -24.8250   -8.9830   22.3640 C   0  0  0  0  0  3  0  0  0  0  0  0
  -23.8930   -8.5660   21.3830 C   0  0  0  0  0  0  0  0  0  0  0  0
  -23.7400   -9.3310   20.2140 C   0  0  0  0  0  3  0  0  0  0  0  0
  -24.4810  -10.5090   20.0280 C   0  0  0  0  0  3  0  0  0  0  0  0
  -23.1470   -7.4140   21.4730 O   0  0  0  0  0  0  0  0  0  0  0  0
  -22.4130   -7.1180   22.5940 C   0  0  0  0  0  0  0  0  0  0  0  0
  -21.3420   -7.9350   23.0220 C   0  0  0  0  0  3  0  0  0  0  0  0
  -20.5680   -7.5540   24.1360 C   0  0  0  0  0  3  0  0  0  0  0  0
  -20.8580   -6.3580   24.8200 C   0  0  0  0  0  0  0  0  0  0  0  0
  -21.9170   -5.5390   24.3890 C   0  0  0  0  0  3  0  0  0  0  0  0
  -22.6890   -5.9160   23.2780 C   0  0  0  0  0  0  0  0  0  0  0  0
  -23.6980   -5.1150   22.8570 F   0  0  0  0  0  0  0  0  0  0  0  0
  -20.1100   -5.9860   25.8860 F   0  0  0  0  0  0  0  0  0  0  0  0
  -24.3420  -14.0650   21.3170 C   0  0  0  0  0  0  0  0  0  0  0  0
  -23.6740  -13.3610   22.2230 N   0  0  0  0  0  0  0  0  0  0  0  0
  -23.8820  -15.1100   20.8590 O   0  0  0  0  0  0  0  0  0  0  0  0
  -24.0560  -12.5140   22.6140 H   0  0  0  0  0  0  0  0  0  0  0  0
  -22.7680  -13.6750   22.5360 H   0  0  0  0  0  0  0  0  0  0  0  0
  -26.9340  -15.6960   20.3040 N   0  0  0  0  0  0  0  0  0  0  0  0
  -26.2140  -16.3830   20.5040 H   0  0  0  0  0  0  0  0  0  0  0  0
  -27.7320  -16.0950   19.8290 H   0  0  0  0  0  0  0  0  0  0  0  0
  -26.0920  -24.8360   20.7900 C   0  0  0  0  0  3  0  0  0  0  0  0
  -24.0030  -25.2770   16.8470 C   0  0  0  0  0 15  0  0  0  0  0  0
  -25.1410  -25.9230   19.7940 C   0  0  0  0  0  2  0  0  0  0  0  0
  -25.2990  -23.6260   21.3930 C   0  0  0  0  0  2  0  0  0  0  0  0
  -23.0240  -22.5960   22.0300 C   0  0  0  0  0  1  0  0  0  0  0  0
  -23.8960  -23.8630   22.0020 C   0  0  0  0  0  2  0  0  0  0  0  0
  2 90  1  0
  2  1  1  1
  3  2  1  0
  4  6  1  0
  4  3  1  0
  5 16  2  0
  6 11  1  0
  7 15  1  0
  7 17  1  0
  8 14  1  0
  8 10  1  0
  9 15  1  0
 10  9  1  0
 11 10  2  0
 12 13  1  0
 12  6  2  3
 12 92  1  0
 13  8  2  0
 14  7  1  0
 15  5  1  0
 17 19  2  0
 18 17  1  0
 20 18  1  0
 21 30  2  0
 21 26  1  0
 22 18  1  0
 22 26  1  0
 23 22  1  0
 24 25  1  0
 24 23  1  0
 25 21  1  0
 26 27  2  0
 27 28  1  0
 29 28  2  0
 30 29  1  0
 31  5  1  0
 31 32  1  0
 31 41  1  0
 32 35  1  0
 33 37  1  0
 33 32  1  0
 34 33  2  0
 37 36  1  0
 39 37  1  0
 39 40  1  0
 39 38  1  0
 41 44  1  1
 41 42  1  0
 43 41  1  0
 45 46  1  0
 45  2  1  0
 47 53  1  0
 47 59  1  0
 48 53  1  0
 49 50  1  0
 49 48  1  0
 51 50  1  0
 51 65  1  0
 51 52  1  0
 53 52  1  0
 54 47  2  0
 55 58  1  0
 55 56  2  0
 56 46  1  0
 56 60  1  0
 57 59  1  0
 57 60  1  0
 58 57  2  0
 59 61  1  0
 62 63  2  0
 63 82  1  0
 64 63  1  0
 64 67  1  0
 65 66  1  0
 65 62  1  0
 66 64  2  0
 67 68  1  0
 68 69  2  0
 70 73  1  0
 70 69  1  0
 71 70  2  0
 72 71  1  0
 72 67  2  0
 73 74  1  0
 74 75  2  0
 74 79  1  0
 75 76  1  0
 76 77  2  0
 77 81  1  0
 78 77  1  0
 79 78  2  0
 80 79  1  0
 82 83  1  0
 83 86  1  0
 83 85  1  0
 84 82  2  0
 87 62  1  0
 87 88  1  0
 89 87  1  0
 90 93  1  0
 92 90  1  0
 93 95  1  0
 95 94  1  0
M  ISO  4   3 101   4 101  47 100  59 100
M  END
>  <TORSDO>  (25) 
F 23

>  <SCORE>  (25) 
-7.323

>  <name>  (25) 
24

>  <ligand_id>  (25) 
24

>  <original_smiles>  (25) 
[H]c1nc(N([H])C(=O)N2C([H])([H])C([H])([H])C([H])([H])C([H])(n3nc(-c4c([H])c([H])c(Oc5c([H])c([H])c(F)c([H])c5F)c([H])c4[H])c(C(=O)N([H])[H])c3N([H])[H])C2([H])[H])sc1OC([H])([H])C(C([H])([H])[H])(C([H])([H])Oc1c([H])c([H])c2c(c1[H])C([H])([H])N(C(=O)C([H])(N([H])C(=O)C([H])(N([H])C([H])([H])[H])C([H])([H])[H])C(C([H])([H])[H])(C([H])([H])[H])C([H])([H])[H])C([H])(C(=O)N([H])C1([H])c3c([H])c([H])c([H])c([H])c3C([H])([H])C([H])([H])C1([H])[H])C2([H])[H])C([H])(C([H])([H])C([H])([H])[H])C([H])([H])C([H])([H])C([H])([H])[H]

>  <smiles>  (25) 
[H]c1nc(N([H])C(=O)N2C([H])([H])C([H])([H])C([H])([H])C([H])(n3nc(-c4c([H])c([H])c(Oc5c([H])c([H])c(F)c([H])c5F)c([H])c4[H])c(C(=O)N([H])[H])c3N([H])[H])C2([H])[H])sc1OC([H])([H])C(C([H])([H])[H])(C([H])([H])Oc1c([H])c([H])c2c(c1[H])C([H])([H])N(C(=O)C([H])(N([H])C(=O)C([H])(N([H])C([H])([H])[H])C([H])([H])[H])C(C([H])([H])[H])(C([H])([H])[H])C([H])([H])[H])C([H])(C(=O)N([H])C1([H])c3c([H])c([H])c([H])c([H])c3C([H])([H])C([H])([H])C1([H])[H])C2([H])[H])C([H])(C([H])([H])C([H])([H])[H])C([H])([H])C([H])([H])C([H])([H])[H]

$$$$
25:0:0
     RDKit          3D

 94102  0  0  1  0  0  0  0  0999 V2000
  -30.6490  -14.6250   20.4810 C   0  0  0  0  0  0  0  0  0  0  0  0
  -30.4130  -12.3960   19.4040 C   0  0  0  0  0  2  0  0  0  0  0  0
  -29.4970  -12.5550   18.1680 C   0  0  0  0  0  2  0  0  0  0  0  0
  -28.0070  -12.4420   18.5570 C   0  0  0  0  0  2  0  0  0  0  0  0
  -27.6430  -13.2900   19.8060 C   0  0  0  0  0  3  0  0  0  0  0  0
  -28.6800  -13.0970   20.9380 C   0  0  0  0  0  2  0  0  0  0  0  0
  -30.0080  -13.4170   20.3880 N   0  0  0  0  0  0  0  0  0  0  0  0
  -31.8200  -14.7580   20.1110 O   0  0  0  0  0  0  0  0  0  0  0  0
  -31.1040  -19.1610   20.3200 C   0  0  0  0  0  3  0  0  0  0  0  0
  -29.8840  -19.8990   20.3170 C   0  0  0  0  0  0  0  0  0  0  0  0
  -30.0070  -17.1180   20.6950 C   0  0  0  0  0  0  0  0  0  0  0  0
  -28.7990  -17.8790   20.7580 C   0  0  0  0  0  0  0  0  0  0  0  0
  -31.1680  -17.8010   20.4910 N   0  0  0  0  0  0  0  0  0  0  0  0
  -28.7220  -19.2250   20.5360 N   0  0  0  0  0  0  0  0  0  0  0  0
  -27.5870  -17.2630   21.0430 N   0  0  0  0  0  0  0  0  0  0  0  0
  -29.8640  -15.6790   20.8430 N   0  0  0  0  0  0  0  0  0  0  0  0
  -27.6210  -16.5330   21.7430 H   0  0  0  0  0  0  0  0  0  0  0  0
  -26.8320  -17.9080   21.2370 H   0  0  0  0  0  0  0  0  0  0  0  0
  -28.9160  -15.4130   21.0530 H   0  0  0  0  0  0  0  0  0  0  0  0
  -25.2280  -13.9120   20.4390 C   0  0  0  0  0  0  0  0  0  0  0  0
  -24.1490  -13.1540   20.7980 C   0  0  0  0  0  0  0  0  0  0  0  0
  -24.6060  -11.8010   20.8100 C   0  0  0  0  0  0  0  0  0  0  0  0
  -26.2790  -13.0250   20.2600 N   0  0  0  0  0  0  0  0  0  0  0  0
  -25.9040  -11.7500   20.5400 N   0  0  0  0  0  0  0  0  0  0  0  0
  -23.8650  -10.5490   21.0080 C   0  0  0  0  0  0  0  0  0  0  0  0
  -24.2850   -9.5820   21.9470 C   0  0  0  0  0  3  0  0  0  0  0  0
  -23.5440   -8.3950   22.1330 C   0  0  0  0  0  3  0  0  0  0  0  0
  -22.3680   -8.1680   21.3800 C   0  0  0  0  0  0  0  0  0  0  0  0
  -21.9670   -9.1230   20.4300 C   0  0  0  0  0  3  0  0  0  0  0  0
  -22.7070  -10.3010   20.2420 C   0  0  0  0  0  3  0  0  0  0  0  0
  -21.6010   -7.0330   21.4730 O   0  0  0  0  0  0  0  0  0  0  0  0
  -21.5630   -6.2820   22.6200 C   0  0  0  0  0  0  0  0  0  0  0  0
  -21.1900   -6.8400   23.8630 C   0  0  0  0  0  3  0  0  0  0  0  0
  -21.0950   -6.0180   25.0040 C   0  0  0  0  0  3  0  0  0  0  0  0
  -21.3630   -4.6400   24.9040 C   0  0  0  0  0  0  0  0  0  0  0  0
  -21.7280   -4.0820   23.6660 C   0  0  0  0  0  3  0  0  0  0  0  0
  -21.8250   -4.9010   22.5280 C   0  0  0  0  0  0  0  0  0  0  0  0
  -22.1560   -4.3530   21.3330 F   0  0  0  0  0  0  0  0  0  0  0  0
  -21.2650   -3.8490   25.9990 F   0  0  0  0  0  0  0  0  0  0  0  0
  -22.7490  -13.6480   21.0240 C   0  0  0  0  0  0  0  0  0  0  0  0
  -21.9970  -12.9840   21.8960 N   0  0  0  0  0  0  0  0  0  0  0  0
  -22.3290  -14.6620   20.4680 O   0  0  0  0  0  0  0  0  0  0  0  0
  -22.3500  -12.1690   22.3750 H   0  0  0  0  0  0  0  0  0  0  0  0
  -21.0560  -13.2990   22.0890 H   0  0  0  0  0  0  0  0  0  0  0  0
  -25.3860  -15.2780   20.2340 N   0  0  0  0  0  0  0  0  0  0  0  0
  -24.6070  -15.9180   20.3340 H   0  0  0  0  0  0  0  0  0  0  0  0
  -26.2560  -15.7660   20.0370 H   0  0  0  0  0  0  0  0  0  0  0  0
  -29.8350  -21.3930   19.8330 C   0  0  0  0  0  2  0  0  0  0  0  0
  -29.1850  -22.5630   20.6930 C   0  0  0  0  0  3  0  0  0  0  0  0
  -29.9120  -22.7050   21.9070 O   0  0  0  0  0  0  0  0  0  0  0  0
  -30.7940  -22.9990   21.6980 H   0  0  0  0  0  0  0  0  0  0  0  0
  -29.1530  -23.9960   19.9850 C   0  0  0  0  0  3  0  0  0  0  0  0
  -28.2940  -25.1620   20.6350 C   0  0  0  0  0  3  0  0  0  0  0  0
  -28.4370  -26.5240   20.0810 O   0  0  0  0  0  0  0  0  0  0  0  0
  -24.6820  -31.8470   23.1690 C   0  0  0  0  0  0  0  0  0  0  0  0
  -27.3030  -27.3410   20.0830 C   0  0  0  0  0  0  0  0  0  0  0  0
  -23.4710  -30.4410   21.5390 C   0  0  0  0  0  3  0  0  0  0  0  0
  -24.9200  -28.9070   20.0970 C   0  0  0  0  0  0  0  0  0  0  0  0
  -26.0030  -30.7910   21.3260 C   0  0  0  0  0  2  0  0  0  0  0  0
  -26.0890  -29.4160   20.6780 C   0  0  0  0  0  0  0  0  0  0  0  0
  -27.2860  -28.6440   20.6590 C   0  0  0  0  0  3  0  0  0  0  0  0
  -26.1140  -26.8770   19.4790 C   0  0  0  0  0  3  0  0  0  0  0  0
  -24.9320  -27.6410   19.4900 C   0  0  0  0  0  3  0  0  0  0  0  0
  -23.6770  -29.7700   20.1560 C   0  0  0  0  0  2  0  0  0  0  0  0
  -24.7370  -31.0430   22.0670 N   0  0  0  0  0  0  0  0  0  0  0  0
  -23.6020  -32.1130   23.7180 O   0  0  0  0  0  0  0  0  0  0  0  0
  -22.8300  -29.4150   22.5050 C   0  0  0  0  0  0  0  0  0  0  0  0
  -21.5040  -29.2290   22.3950 N   0  0  0  0  0  0  0  0  0  0  0  0
  -23.5250  -28.7910   23.3100 O   0  0  0  0  0  0  0  0  0  0  0  0
  -21.0010  -29.7840   21.7160 H   0  0  0  0  0  0  0  0  0  0  0  0
  -18.1420  -28.0120   22.9380 C   0  0  0  0  0  0  0  0  0  0  0  0
  -20.7020  -28.2880   23.1780 C   0  0  0  0  0  3  0  0  0  0  0  0
  -20.8070  -26.8560   22.6020 C   0  0  0  0  0  2  0  0  0  0  0  0
  -19.6950  -26.5270   21.6010 C   0  0  0  0  0  2  0  0  0  0  0  0
  -18.3200  -26.6630   22.2610 C   0  0  0  0  0  2  0  0  0  0  0  0
  -19.2610  -28.7810   23.3550 C   0  0  0  0  0  0  0  0  0  0  0  0
  -19.0400  -30.0420   23.9510 C   0  0  0  0  0  3  0  0  0  0  0  0
  -17.7340  -30.5350   24.1310 C   0  0  0  0  0  3  0  0  0  0  0  0
  -16.6300  -29.7630   23.7290 C   0  0  0  0  0  3  0  0  0  0  0  0
  -16.8350  -28.5030   23.1400 C   0  0  0  0  0  3  0  0  0  0  0  0
  -25.9670  -32.4900   23.7760 C   0  0  0  0  0  3  0  0  0  0  0  0
  -26.5240  -31.7050   25.0270 C   0  0  1  0  0  0  0  0  0  0  0  0
  -25.4580  -31.4320   26.1140 C   0  0  0  0  0  1  0  0  0  0  0  0
  -27.1180  -30.3440   24.5970 C   0  0  0  0  0  1  0  0  0  0  0  0
  -27.6780  -32.5040   25.6760 C   0  0  0  0  0  1  0  0  0  0  0  0
  -25.6380  -33.8760   24.1400 N   0  0  0  0  0  0  0  0  0  0  0  0
  -25.9390  -34.9490   23.3960 C   0  0  0  0  0  0  0  0  0  0  0  0
  -26.5880  -34.8780   22.3500 O   0  0  0  0  0  0  0  0  0  0  0  0
  -25.0540  -34.0040   24.9530 H   0  0  0  0  0  0  0  0  0  0  0  0
  -24.1710  -36.7170   23.1180 C   0  0  0  0  0  1  0  0  0  0  0  0
  -25.4370  -36.3200   23.8910 C   0  0  0  0  0  3  0  0  0  0  0  0
  -27.5790  -37.2230   24.6830 C   0  0  0  0  0  1  0  0  0  0  0  0
  -26.4480  -37.3940   23.7740 N   0  0  0  0  0  0  0  0  0  0  0  0
  -26.0300  -38.3030   23.9570 H   0  0  0  0  0  0  0  0  0  0  0  0
  1 16  1  0
  2  7  1  0
  3  4  1  0
  3  2  1  0
  5  4  1  0
  5 23  1  0
  5  6  1  0
  7  1  1  0
  7  6  1  0
  8  1  2  0
  9 13  1  0
 10  9  2  0
 10 14  1  0
 11 12  1  0
 11 16  1  0
 12 15  1  0
 13 11  2  0
 14 12  2  0
 15 18  1  0
 15 17  1  0
 16 19  1  0
 20 21  2  0
 21 22  1  0
 21 40  1  0
 22 25  1  0
 23 20  1  0
 23 24  1  0
 24 22  2  0
 25 26  1  0
 26 27  2  0
 28 31  1  0
 28 27  1  0
 29 28  2  0
 30 29  1  0
 30 25  2  0
 31 32  1  0
 32 33  1  0
 33 34  2  0
 35 34  1  0
 35 39  1  0
 36 35  2  0
 37 32  2  0
 37 36  1  0
 38 37  1  0
 40 41  1  0
 41 44  1  0
 41 43  1  0
 42 40  2  0
 45 46  1  0
 45 20  1  0
 47 45  1  0
 48 10  1  0
 49 48  1  0
 49 50  1  0
 51 50  1  0
 52 53  2  0
 52 49  1  0
 54 56  1  0
 54 53  1  0
 55 66  2  0
 56 61  1  0
 57 65  1  0
 57 67  1  0
 58 64  1  0
 58 60  1  0
 59 65  1  0
 60 59  1  0
 61 60  2  0
 62 63  1  0
 62 56  2  0
 63 58  2  0
 64 57  1  0
 65 55  1  0
 67 69  2  0
 68 67  1  0
 70 68  1  0
 71 80  2  0
 71 76  1  0
 72 68  1  0
 72 76  1  0
 73 72  1  0
 74 75  1  0
 74 73  1  0
 75 71  1  0
 76 77  2  0
 77 78  1  0
 79 78  2  0
 80 79  1  0
 81 55  1  0
 81 86  1  0
 81 82  1  0
 82 85  1  1
 82 83  1  0
 84 82  1  0
 86 89  1  0
 87 91  1  0
 87 86  1  0
 88 87  2  0
 91 90  1  0
 93 91  1  0
 93 94  1  0
 93 92  1  0
M  ISO  4   1 100  16 100  53 101  54 101
M  END
>  <TORSDO>  (26) 
F 20

>  <SCORE>  (26) 
-13.472

>  <name>  (26) 
25

>  <ligand_id>  (26) 
25

>  <original_smiles>  (26) 
[H]OC([H])(C([H])([H])c1nc(N([H])[H])c(N([H])C(=O)N2C([H])([H])C([H])([H])C([H])([H])C([H])(n3nc(-c4c([H])c([H])c(Oc5c([H])c([H])c(F)c([H])c5F)c([H])c4[H])c(C(=O)N([H])[H])c3N([H])[H])C2([H])[H])nc1[H])C([H])([H])C([H])([H])Oc1c([H])c([H])c2c(c1[H])C([H])([H])N(C(=O)C([H])(N([H])C(=O)C([H])(N([H])C([H])([H])[H])C([H])([H])[H])C(C([H])([H])[H])(C([H])([H])[H])C([H])([H])[H])C([H])(C(=O)N([H])C1([H])c3c([H])c([H])c([H])c([H])c3C([H])([H])C([H])([H])C1([H])[H])C2([H])[H]

>  <smiles>  (26) 
[H]OC([H])(C([H])([H])c1nc(N([H])[H])c(N([H])C(=O)N2C([H])([H])C([H])([H])C([H])([H])C([H])(n3nc(-c4c([H])c([H])c(Oc5c([H])c([H])c(F)c([H])c5F)c([H])c4[H])c(C(=O)N([H])[H])c3N([H])[H])C2([H])[H])nc1[H])C([H])([H])C([H])([H])Oc1c([H])c([H])c2c(c1[H])C([H])([H])N(C(=O)C([H])(N([H])C(=O)C([H])(N([H])C([H])([H])[H])C([H])([H])[H])C(C([H])([H])[H])(C([H])([H])[H])C([H])([H])[H])C([H])(C(=O)N([H])C1([H])c3c([H])c([H])c([H])c([H])c3C([H])([H])C([H])([H])C1([H])[H])C2([H])[H]

$$$$
26:0:0
     RDKit          3D

 96104  0  0  1  0  0  0  0  0999 V2000
  -31.1140  -20.7370   19.1340 C   0  0  0  0  0  1  0  0  0  0  0  0
  -30.2400  -20.6430   20.3950 C   0  0  0  0  0  3  0  0  0  0  0  0
  -30.6630  -14.5350   20.1020 C   0  0  0  0  0  0  0  0  0  0  0  0
  -30.3420  -12.3840   18.9190 C   0  0  0  0  0  2  0  0  0  0  0  0
  -29.3320  -12.6240   17.7760 C   0  0  0  0  0  2  0  0  0  0  0  0
  -27.8790  -12.4730   18.2770 C   0  0  0  0  0  2  0  0  0  0  0  0
  -27.6180  -13.2610   19.5910 C   0  0  0  0  0  3  0  0  0  0  0  0
  -28.7360  -12.9980   20.6250 C   0  0  0  0  0  2  0  0  0  0  0  0
  -30.0150  -13.3400   19.9870 N   0  0  0  0  0  0  0  0  0  0  0  0
  -31.8210  -14.7000   19.7030 O   0  0  0  0  0  0  0  0  0  0  0  0
  -30.2580  -19.2060   20.9790 C   0  0  0  0  0  0  0  0  0  0  0  0
  -30.6250  -18.8770   22.2730 C   0  0  0  0  0  0  0  0  0  0  0  0
  -30.1980  -16.8830   20.8830 C   0  0  0  0  0  0  0  0  0  0  0  0
  -29.9480  -18.0400   20.2200 N   0  0  0  0  0  0  0  0  0  0  0  0
  -29.8490  -15.5820   20.3960 N   0  0  0  0  0  0  0  0  0  0  0  0
  -30.7160  -17.1480   22.5370 S   0  0  0  0  0  0  0  0  0  0  0  0
  -28.8850  -15.3270   20.5380 H   0  0  0  0  0  0  0  0  0  0  0  0
  -25.2680  -13.8690   20.4410 C   0  0  0  0  0  0  0  0  0  0  0  0
  -24.2160  -13.0950   20.8540 C   0  0  0  0  0  0  0  0  0  0  0  0
  -24.6690  -11.7410   20.7810 C   0  0  0  0  0  0  0  0  0  0  0  0
  -26.2940  -12.9840   20.1400 N   0  0  0  0  0  0  0  0  0  0  0  0
  -25.9410  -11.7000   20.4030 N   0  0  0  0  0  0  0  0  0  0  0  0
  -23.9450  -10.4800   20.9880 C   0  0  0  0  0  0  0  0  0  0  0  0
  -24.4030   -9.5130   21.9100 C   0  0  0  0  0  3  0  0  0  0  0  0
  -23.6840   -8.3150   22.1080 C   0  0  0  0  0  3  0  0  0  0  0  0
  -22.4900   -8.0770   21.3850 C   0  0  0  0  0  0  0  0  0  0  0  0
  -22.0510   -9.0320   20.4500 C   0  0  0  0  0  3  0  0  0  0  0  0
  -22.7710  -10.2210   20.2510 C   0  0  0  0  0  3  0  0  0  0  0  0
  -21.7400   -6.9310   21.4920 O   0  0  0  0  0  0  0  0  0  0  0  0
  -21.6930   -6.2070   22.6560 C   0  0  0  0  0  0  0  0  0  0  0  0
  -21.2670   -6.7800   23.8750 C   0  0  0  0  0  3  0  0  0  0  0  0
  -21.1710   -5.9820   25.0330 C   0  0  0  0  0  3  0  0  0  0  0  0
  -21.4880   -4.6110   24.9710 C   0  0  0  0  0  0  0  0  0  0  0  0
  -21.9080   -4.0380   23.7570 C   0  0  0  0  0  3  0  0  0  0  0  0
  -22.0070   -4.8340   22.6020 C   0  0  0  0  0  0  0  0  0  0  0  0
  -22.3910   -4.2740   21.4310 F   0  0  0  0  0  0  0  0  0  0  0  0
  -21.3880   -3.8410   26.0790 F   0  0  0  0  0  0  0  0  0  0  0  0
  -22.8370  -13.5740   21.2000 C   0  0  0  0  0  0  0  0  0  0  0  0
  -22.1530  -12.8770   22.1000 N   0  0  0  0  0  0  0  0  0  0  0  0
  -22.3770  -14.6030   20.7070 O   0  0  0  0  0  0  0  0  0  0  0  0
  -22.5360  -12.0440   22.5210 H   0  0  0  0  0  0  0  0  0  0  0  0
  -21.2280  -13.1820   22.3700 H   0  0  0  0  0  0  0  0  0  0  0  0
  -25.4240  -15.2410   20.2720 N   0  0  0  0  0  0  0  0  0  0  0  0
  -24.6460  -15.8760   20.4090 H   0  0  0  0  0  0  0  0  0  0  0  0
  -26.2240  -15.6850   19.8400 H   0  0  0  0  0  0  0  0  0  0  0  0
  -30.9300  -19.7110   23.3470 N   0  0  0  0  0  0  0  0  0  0  0  0
  -30.7200  -20.7030   23.3920 H   0  0  0  0  0  0  0  0  0  0  0  0
  -31.1880  -19.3450   24.2610 H   0  0  0  0  0  0  0  0  0  0  0  0
  -28.8860  -21.2310   20.1380 N   0  0  0  0  0  4  0  0  0  0  0  0
  -28.2330  -20.5190   20.4210 H   0  0  0  0  0  0  0  0  0  0  0  0
  -28.7680  -21.3080   19.1410 H   0  0  0  0  0  0  0  0  0  0  0  0
  -28.5950  -22.4560   22.3410 C   0  0  0  0  0  1  0  0  0  0  0  0
  -28.4530  -22.5240   20.8060 C   0  0  0  0  0  3  0  0  0  0  0  0
  -28.9630  -23.8970   20.1890 C   0  0  0  0  0  2  0  0  0  0  0  0
  -28.1880  -25.1640   20.7300 C   0  0  0  0  0  2  0  0  0  0  0  0
  -28.4530  -26.5000   20.1850 O   0  0  0  0  0  0  0  0  0  0  0  0
  -24.5930  -31.7940   23.1730 C   0  0  0  0  0  0  0  0  0  0  0  0
  -27.3350  -27.3320   20.1360 C   0  0  0  0  0  0  0  0  0  0  0  0
  -23.4450  -30.3810   21.5070 C   0  0  0  0  0  3  0  0  0  0  0  0
  -24.9470  -28.8710   20.0980 C   0  0  0  0  0  0  0  0  0  0  0  0
  -25.9810  -30.7480   21.3780 C   0  0  0  0  0  2  0  0  0  0  0  0
  -26.0920  -29.3810   20.7250 C   0  0  0  0  0  0  0  0  0  0  0  0
  -27.2940  -28.6190   20.7410 C   0  0  0  0  0  3  0  0  0  0  0  0
  -26.1790  -26.8760   19.4670 C   0  0  0  0  0  3  0  0  0  0  0  0
  -24.9880  -27.6230   19.4590 C   0  0  0  0  0  3  0  0  0  0  0  0
  -23.6940  -29.7190   20.1260 C   0  0  0  0  0  2  0  0  0  0  0  0
  -24.6900  -30.9890   22.0760 N   0  0  0  0  0  0  0  0  0  0  0  0
  -23.4930  -32.0520   23.6840 O   0  0  0  0  0  0  0  0  0  0  0  0
  -22.7820  -29.3480   22.4470 C   0  0  0  0  0  0  0  0  0  0  0  0
  -21.4600  -29.1560   22.2970 N   0  0  0  0  0  0  0  0  0  0  0  0
  -23.4540  -28.7250   23.2730 O   0  0  0  0  0  0  0  0  0  0  0  0
  -20.9740  -29.7160   21.6090 H   0  0  0  0  0  0  0  0  0  0  0  0
  -18.0910  -27.9270   22.7360 C   0  0  0  0  0  0  0  0  0  0  0  0
  -20.6410  -28.2070   23.0490 C   0  0  0  0  0  3  0  0  0  0  0  0
  -20.7680  -26.7790   22.4670 C   0  0  0  0  0  2  0  0  0  0  0  0
  -19.6840  -26.4520   21.4350 C   0  0  0  0  0  2  0  0  0  0  0  0
  -18.2890  -26.5830   22.0550 C   0  0  0  0  0  2  0  0  0  0  0  0
  -19.1950  -28.6950   23.1880 C   0  0  0  0  0  0  0  0  0  0  0  0
  -18.9570  -29.9550   23.7800 C   0  0  0  0  0  3  0  0  0  0  0  0
  -17.6450  -30.4430   23.9280 C   0  0  0  0  0  3  0  0  0  0  0  0
  -16.5530  -29.6710   23.4910 C   0  0  0  0  0  3  0  0  0  0  0  0
  -16.7770  -28.4150   22.9000 C   0  0  0  0  0  3  0  0  0  0  0  0
  -25.8520  -32.4430   23.8230 C   0  0  0  0  0  3  0  0  0  0  0  0
  -25.5080  -33.8330   24.1590 N   0  0  0  0  0  0  0  0  0  0  0  0
  -25.8390  -34.8970   23.4140 C   0  0  0  0  0  0  0  0  0  0  0  0
  -26.5310  -34.8140   22.3950 O   0  0  0  0  0  0  0  0  0  0  0  0
  -24.8900  -33.9740   24.9440 H   0  0  0  0  0  0  0  0  0  0  0  0
  -24.0850  -36.6600   23.0390 C   0  0  0  0  0  1  0  0  0  0  0  0
  -25.3180  -36.2730   23.8710 C   0  0  0  0  0  3  0  0  0  0  0  0
  -27.4230  -37.1880   24.7460 C   0  0  0  0  0  1  0  0  0  0  0  0
  -26.3350  -37.3450   23.7840 N   0  0  0  0  0  0  0  0  0  0  0  0
  -25.9100  -38.2560   23.9320 H   0  0  0  0  0  0  0  0  0  0  0  0
  -26.3590  -31.6700   25.1020 C   0  0  1  0  0  0  0  0  0  0  0  0
  -25.2510  -31.4070   26.1470 C   0  0  0  0  0  1  0  0  0  0  0  0
  -26.9730  -30.3050   24.7120 C   0  0  0  0  0  1  0  0  0  0  0  0
  -27.4860  -32.4780   25.7890 C   0  0  0  0  0  1  0  0  0  0  0  0
  2  1  1  0
  2 11  1  0
  3 15  1  0
  4  9  1  0
  5  6  1  0
  5  4  1  0
  7  6  1  0
  7 21  1  0
  7  8  1  0
  9  3  1  0
  9  8  1  0
 10  3  2  0
 11 12  2  0
 12 16  1  0
 12 46  1  0
 13 16  1  0
 14 13  2  0
 14 11  1  0
 15 17  1  0
 15 13  1  0
 18 19  2  0
 19 38  1  0
 20 19  1  0
 20 23  1  0
 21 22  1  0
 21 18  1  0
 22 20  2  0
 23 24  1  0
 24 25  2  0
 26 29  1  0
 26 25  1  0
 27 26  2  0
 28 27  1  0
 28 23  2  0
 29 30  1  0
 30 31  1  0
 31 32  2  0
 33 32  1  0
 33 37  1  0
 34 33  2  0
 35 30  2  0
 35 34  1  0
 36 35  1  0
 38 39  1  0
 39 42  1  0
 39 41  1  0
 40 38  2  0
 43 44  1  0
 43 18  1  0
 45 43  1  0
 46 47  1  0
 46 48  1  0
 49  2  1  0
 49 50  1  0
 49 53  1  0
 51 49  1  0
 53 52  1  0
 54 55  1  0
 54 53  1  0
 56 55  1  0
 57 68  2  0
 58 56  1  0
 58 63  1  0
 59 67  1  0
 59 69  1  0
 60 66  1  0
 60 62  1  0
 61 67  1  0
 62 63  2  0
 62 61  1  0
 64 58  2  0
 65 64  1  0
 65 60  2  0
 66 59  1  0
 67 57  1  0
 69 71  2  0
 70 69  1  0
 72 70  1  0
 73 82  2  0
 73 78  1  0
 74 70  1  0
 74 78  1  0
 75 74  1  0
 76 77  1  0
 76 75  1  0
 77 73  1  0
 78 79  2  0
 79 80  1  0
 81 80  2  0
 82 81  1  0
 83 57  1  0
 83 84  1  0
 83 93  1  0
 84 87  1  0
 85 89  1  0
 85 84  1  0
 86 85  2  0
 89 88  1  0
 91 89  1  0
 91 92  1  0
 91 90  1  0
 93 96  1  1
 93 94  1  0
 95 93  1  0
M  ISO  4   3 100  15 100  55 101  56 101
M  END
>  <TORSDO>  (27) 
F 21

>  <SCORE>  (27) 
-13.413

>  <name>  (27) 
26

>  <ligand_id>  (27) 
26

>  <original_smiles>  (27) 
[H]c1c([H])c([H])c2c(c1[H])C([H])([H])C([H])([H])C([H])([H])C2([H])N([H])C(=O)C1([H])N(C(=O)C([H])(N([H])C(=O)C([H])(N([H])C([H])([H])[H])C([H])([H])[H])C(C([H])([H])[H])(C([H])([H])[H])C([H])([H])[H])C([H])([H])c2c([H])c(OC([H])([H])C([H])([H])C([H])(C([H])([H])[H])[N+]([H])([H])C([H])(c3nc(N([H])C(=O)N4C([H])([H])C([H])([H])C([H])([H])C([H])(n5nc(-c6c([H])c([H])c(Oc7c([H])c([H])c(F)c([H])c7F)c([H])c6[H])c(C(=O)N([H])[H])c5N([H])[H])C4([H])[H])sc3N([H])[H])C([H])([H])[H])c([H])c([H])c2C1([H])[H]

>  <smiles>  (27) 
[H]c1c([H])c([H])c2c(c1[H])C([H])([H])C([H])([H])C([H])([H])C2([H])N([H])C(=O)C1([H])N(C(=O)C([H])(N([H])C(=O)C([H])(N([H])C([H])([H])[H])C([H])([H])[H])C(C([H])([H])[H])(C([H])([H])[H])C([H])([H])[H])C([H])([H])c2c([H])c(OC([H])([H])C([H])([H])C([H])(C([H])([H])[H])[N+]([H])([H])C([H])(c3nc(N([H])C(=O)N4C([H])([H])C([H])([H])C([H])([H])C([H])(n5nc(-c6c([H])c([H])c(Oc7c([H])c([H])c(F)c([H])c7F)c([H])c6[H])c(C(=O)N([H])[H])c5N([H])[H])C4([H])[H])sc3N([H])[H])C([H])([H])[H])c([H])c([H])c2C1([H])[H]

$$$$
27:0:0
     RDKit          3D

 92100  0  0  1  0  0  0  0  0999 V2000
  -29.4900  -22.6280   21.4630 C   0  0  0  0  0  3  0  0  0  0  0  0
  -28.3780  -20.3200   20.5790 C   0  0  0  0  0  3  0  0  0  0  0  0
  -29.4270  -21.1390   20.9580 C   0  0  0  0  0  0  0  0  0  0  0  0
  -30.0020  -18.6370   20.5600 C   0  0  0  0  0  0  0  0  0  0  0  0
  -28.7080  -18.9470   20.3510 N   0  0  0  0  0  0  0  0  0  0  0  0
  -30.8810  -20.1220   21.0310 S   0  0  0  0  0  0  0  0  0  0  0  0
  -30.7530  -17.3080   20.2260 C   0  0  0  0  0  2  0  0  0  0  0  0
  -30.7970  -14.7770   20.1220 C   0  0  0  0  0  0  0  0  0  0  0  0
  -30.4840  -12.5410   19.0830 C   0  0  0  0  0  2  0  0  0  0  0  0
  -29.5100  -12.6460   17.8930 C   0  0  0  0  0  2  0  0  0  0  0  0
  -28.0560  -12.4940   18.3690 C   0  0  0  0  0  2  0  0  0  0  0  0
  -27.7390  -13.3730   19.6100 C   0  0  0  0  0  3  0  0  0  0  0  0
  -28.8300  -13.2720   20.6960 C   0  0  0  0  0  2  0  0  0  0  0  0
  -30.1110  -13.5910   20.0570 N   0  0  0  0  0  0  0  0  0  0  0  0
  -31.9670  -14.8340   19.7310 O   0  0  0  0  0  0  0  0  0  0  0  0
  -30.1260  -15.9440   20.4150 N   0  0  0  0  0  0  0  0  0  0  0  0
  -29.1570  -15.9010   20.6880 H   0  0  0  0  0  0  0  0  0  0  0  0
  -25.3850  -13.9750   20.4240 C   0  0  0  0  0  0  0  0  0  0  0  0
  -24.3290  -13.2060   20.8270 C   0  0  0  0  0  0  0  0  0  0  0  0
  -24.7780  -11.8500   20.7710 C   0  0  0  0  0  0  0  0  0  0  0  0
  -26.4130  -13.0900   20.1450 N   0  0  0  0  0  0  0  0  0  0  0  0
  -26.0570  -11.8060   20.4150 N   0  0  0  0  0  0  0  0  0  0  0  0
  -24.0470  -10.5940   20.9760 C   0  0  0  0  0  0  0  0  0  0  0  0
  -24.4880   -9.6260   21.9040 C   0  0  0  0  0  3  0  0  0  0  0  0
  -23.7570   -8.4350   22.0950 C   0  0  0  0  0  3  0  0  0  0  0  0
  -22.5720   -8.2030   21.3590 C   0  0  0  0  0  0  0  0  0  0  0  0
  -22.1510   -9.1600   20.4200 C   0  0  0  0  0  3  0  0  0  0  0  0
  -22.8830  -10.3420   20.2260 C   0  0  0  0  0  3  0  0  0  0  0  0
  -21.8090   -7.0650   21.4640 O   0  0  0  0  0  0  0  0  0  0  0  0
  -21.7610   -6.3340   22.6240 C   0  0  0  0  0  0  0  0  0  0  0  0
  -21.3270   -6.9000   23.8420 C   0  0  0  0  0  3  0  0  0  0  0  0
  -21.2220   -6.0960   24.9950 C   0  0  0  0  0  3  0  0  0  0  0  0
  -21.5440   -4.7280   24.9320 C   0  0  0  0  0  0  0  0  0  0  0  0
  -21.9680   -4.1600   23.7180 C   0  0  0  0  0  3  0  0  0  0  0  0
  -22.0730   -4.9620   22.5660 C   0  0  0  0  0  0  0  0  0  0  0  0
  -22.4640   -4.4040   21.3960 F   0  0  0  0  0  0  0  0  0  0  0  0
  -21.4360   -3.9530   26.0370 F   0  0  0  0  0  0  0  0  0  0  0  0
  -22.9460  -13.6940   21.1500 C   0  0  0  0  0  0  0  0  0  0  0  0
  -22.2450  -13.0010   22.0400 N   0  0  0  0  0  0  0  0  0  0  0  0
  -22.4970  -14.7250   20.6490 O   0  0  0  0  0  0  0  0  0  0  0  0
  -22.6210  -12.1690   22.4710 H   0  0  0  0  0  0  0  0  0  0  0  0
  -21.3180  -13.3080   22.2980 H   0  0  0  0  0  0  0  0  0  0  0  0
  -25.5500  -15.3470   20.2490 N   0  0  0  0  0  0  0  0  0  0  0  0
  -24.7800  -15.9950   20.3770 H   0  0  0  0  0  0  0  0  0  0  0  0
  -26.3780  -15.7900   19.8710 H   0  0  0  0  0  0  0  0  0  0  0  0
  -29.8150  -23.7830   23.8040 C   0  0  0  0  0  1  0  0  0  0  0  0
  -29.1340  -22.6650   22.9900 C   0  0  0  0  0  3  0  0  0  0  0  0
  -29.5450  -21.5380   23.5710 F   0  0  0  0  0  0  0  0  0  0  0  0
  -28.8570  -23.8800   20.5950 C   0  0  0  0  0  2  0  0  0  0  0  0
  -26.9560  -25.3000   21.8460 C   0  0  0  0  0  1  0  0  0  0  0  0
  -28.3200  -25.3580   21.0910 C   0  0  0  0  0  3  0  0  0  0  0  0
  -28.4220  -26.5120   20.1400 O   0  0  0  0  0  0  0  0  0  0  0  0
  -24.6440  -31.7860   23.2410 C   0  0  0  0  0  0  0  0  0  0  0  0
  -27.3440  -27.4020   20.0600 C   0  0  0  0  0  0  0  0  0  0  0  0
  -23.4680  -30.4110   21.5610 C   0  0  0  0  0  3  0  0  0  0  0  0
  -24.9530  -28.9520   20.0750 C   0  0  0  0  0  0  0  0  0  0  0  0
  -25.9950  -30.8010   21.3840 C   0  0  0  0  0  2  0  0  0  0  0  0
  -26.1090  -29.4510   20.6920 C   0  0  0  0  0  0  0  0  0  0  0  0
  -27.3120  -28.6860   20.6770 C   0  0  0  0  0  3  0  0  0  0  0  0
  -26.1860  -26.9720   19.3810 C   0  0  0  0  0  3  0  0  0  0  0  0
  -24.9940  -27.7190   19.4060 C   0  0  0  0  0  3  0  0  0  0  0  0
  -23.6910  -29.7860   20.1600 C   0  0  0  0  0  2  0  0  0  0  0  0
  -24.7200  -31.0160   22.1180 N   0  0  0  0  0  0  0  0  0  0  0  0
  -23.5560  -32.0180   23.7880 O   0  0  0  0  0  0  0  0  0  0  0  0
  -22.8400  -29.3450   22.4920 C   0  0  0  0  0  0  0  0  0  0  0  0
  -21.5270  -29.1080   22.3350 N   0  0  0  0  0  0  0  0  0  0  0  0
  -23.5310  -28.7370   23.3150 O   0  0  0  0  0  0  0  0  0  0  0  0
  -21.0310  -29.6500   21.6420 H   0  0  0  0  0  0  0  0  0  0  0  0
  -18.2090  -27.7140   22.7060 C   0  0  0  0  0  0  0  0  0  0  0  0
  -20.7360  -28.1210   23.0730 C   0  0  0  0  0  3  0  0  0  0  0  0
  -20.9450  -26.7000   22.5000 C   0  0  0  0  0  2  0  0  0  0  0  0
  -19.9010  -26.3170   21.4460 C   0  0  0  0  0  2  0  0  0  0  0  0
  -18.4890  -26.3790   22.0380 C   0  0  0  0  0  2  0  0  0  0  0  0
  -19.2640  -28.5390   23.1780 C   0  0  0  0  0  0  0  0  0  0  0  0
  -18.9490  -29.7880   23.7610 C   0  0  0  0  0  3  0  0  0  0  0  0
  -17.6120  -30.2100   23.8800 C   0  0  0  0  0  3  0  0  0  0  0  0
  -16.5700  -29.3840   23.4220 C   0  0  0  0  0  3  0  0  0  0  0  0
  -16.8700  -28.1380   22.8410 C   0  0  0  0  0  3  0  0  0  0  0  0
  -25.9120  -32.4300   23.8780 C   0  0  0  0  0  3  0  0  0  0  0  0
  -25.5840  -33.8260   24.1980 N   0  0  0  0  0  0  0  0  0  0  0  0
  -25.9200  -34.8820   23.4450 C   0  0  0  0  0  0  0  0  0  0  0  0
  -26.6080  -34.7810   22.4250 O   0  0  0  0  0  0  0  0  0  0  0  0
  -24.9750  -33.9730   24.9910 H   0  0  0  0  0  0  0  0  0  0  0  0
  -24.1810  -36.6600   23.0650 C   0  0  0  0  0  1  0  0  0  0  0  0
  -25.4140  -36.2670   23.8930 C   0  0  0  0  0  3  0  0  0  0  0  0
  -27.5270  -37.1780   24.7500 C   0  0  0  0  0  1  0  0  0  0  0  0
  -26.4390  -37.3290   23.7890 N   0  0  0  0  0  0  0  0  0  0  0  0
  -26.0220  -38.2470   23.9230 H   0  0  0  0  0  0  0  0  0  0  0  0
  -26.4180  -31.6680   25.1640 C   0  0  1  0  0  0  0  0  0  0  0  0
  -25.3110  -31.4240   26.2150 C   0  0  0  0  0  1  0  0  0  0  0  0
  -27.0190  -30.2930   24.7860 C   0  0  0  0  0  1  0  0  0  0  0  0
  -27.5500  -32.4760   25.8400 C   0  0  0  0  0  1  0  0  0  0  0  0
  1 49  1  0
  1 47  1  0
  2  3  2  0
  3  6  1  0
  3  1  1  0
  4  6  1  0
  5  4  2  0
  5  2  1  0
  7 16  1  0
  7  4  1  0
  8 16  1  0
  9 14  1  0
 10 11  1  0
 10  9  1  0
 12 11  1  0
 12 21  1  0
 12 13  1  0
 14  8  1  0
 14 13  1  0
 15  8  2  0
 16 17  1  0
 18 19  2  0
 19 38  1  0
 20 19  1  0
 20 23  1  0
 21 22  1  0
 21 18  1  0
 22 20  2  0
 23 24  1  0
 24 25  2  0
 26 29  1  0
 26 25  1  0
 27 26  2  0
 28 27  1  0
 28 23  2  0
 29 30  1  0
 30 31  1  0
 31 32  2  0
 33 32  1  0
 33 37  1  0
 34 33  2  0
 35 30  2  0
 35 34  1  0
 36 35  1  0
 38 39  1  0
 39 42  1  0
 39 41  1  0
 40 38  2  0
 43 44  1  0
 43 18  1  0
 45 43  1  0
 47 48  1  0
 47 46  1  0
 49 51  1  0
 51 50  1  0
 52 51  1  0
 53 64  2  0
 54 52  1  0
 54 59  1  0
 55 63  1  0
 55 65  1  0
 56 62  1  0
 56 58  1  0
 57 63  1  0
 58 57  1  0
 59 58  2  0
 60 61  1  0
 60 54  2  0
 61 56  2  0
 62 55  1  0
 63 53  1  0
 65 67  2  0
 66 65  1  0
 68 66  1  0
 69 78  2  0
 69 74  1  0
 70 66  1  0
 70 74  1  0
 71 70  1  0
 72 73  1  0
 72 71  1  0
 73 69  1  0
 74 75  2  0
 75 76  1  0
 77 76  2  0
 78 77  1  0
 79 53  1  0
 79 80  1  0
 79 89  1  0
 80 83  1  0
 81 85  1  0
 81 80  1  0
 82 81  2  0
 85 84  1  0
 87 85  1  0
 87 88  1  0
 87 86  1  0
 89 92  1  1
 89 90  1  0
 91 89  1  0
M  ISO  4   8 100  16 100  51 101  52 101
M  END
>  <TORSDO>  (28) 
F 21

>  <SCORE>  (28) 
-13.263

>  <name>  (28) 
27

>  <ligand_id>  (28) 
27

>  <original_smiles>  (28) 
[H]c1nc(C([H])([H])N([H])C(=O)N2C([H])([H])C([H])([H])C([H])([H])C([H])(n3nc(-c4c([H])c([H])c(Oc5c([H])c([H])c(F)c([H])c5F)c([H])c4[H])c(C(=O)N([H])[H])c3N([H])[H])C2([H])[H])sc1C([H])(C([H])([H])C([H])(Oc1c([H])c([H])c2c(c1[H])C([H])([H])N(C(=O)C([H])(N([H])C(=O)C([H])(N([H])C([H])([H])[H])C([H])([H])[H])C(C([H])([H])[H])(C([H])([H])[H])C([H])([H])[H])C([H])(C(=O)N([H])C1([H])c3c([H])c([H])c([H])c([H])c3C([H])([H])C([H])([H])C1([H])[H])C2([H])[H])C([H])([H])[H])C([H])(F)C([H])([H])[H]

>  <smiles>  (28) 
[H]c1nc(C([H])([H])N([H])C(=O)N2C([H])([H])C([H])([H])C([H])([H])C([H])(n3nc(-c4c([H])c([H])c(Oc5c([H])c([H])c(F)c([H])c5F)c([H])c4[H])c(C(=O)N([H])[H])c3N([H])[H])C2([H])[H])sc1C([H])(C([H])([H])C([H])(Oc1c([H])c([H])c2c(c1[H])C([H])([H])N(C(=O)C([H])(N([H])C(=O)C([H])(N([H])C([H])([H])[H])C([H])([H])[H])C(C([H])([H])[H])(C([H])([H])[H])C([H])([H])[H])C([H])(C(=O)N([H])C1([H])c3c([H])c([H])c([H])c([H])c3C([H])([H])C([H])([H])C1([H])[H])C2([H])[H])C([H])([H])[H])C([H])(F)C([H])([H])[H]

$$$$
28:0:0
     RDKit          3D

 92100  0  0  1  0  0  0  0  0999 V2000
  -31.2960  -17.7200   21.4560 C   0  0  0  0  0  3  0  0  0  0  0  0
  -30.1310  -17.4110   20.7380 C   0  0  0  0  0  0  0  0  0  0  0  0
  -31.5900  -19.0570   21.7500 C   0  0  0  0  0  0  0  0  0  0  0  0
  -29.7200  -19.7960   20.6770 C   0  0  0  0  0  0  0  0  0  0  0  0
  -29.3520  -18.5130   20.3570 N   0  0  0  0  0  0  0  0  0  0  0  0
  -30.8020  -20.0810   21.3710 N   0  0  0  0  0  0  0  0  0  0  0  0
  -28.9740  -20.9470   20.2430 N   0  0  0  0  0  0  0  0  0  0  0  0
  -32.7100  -19.3440   22.4530 F   0  0  0  0  0  0  0  0  0  0  0  0
  -28.1850  -20.7080   19.6530 H   0  0  0  0  0  0  0  0  0  0  0  0
  -30.5770  -14.8200   20.3980 C   0  0  0  0  0  0  0  0  0  0  0  0
  -30.3680  -12.5390   19.3730 C   0  0  0  0  0  2  0  0  0  0  0  0
  -29.4320  -12.6130   18.1480 C   0  0  0  0  0  2  0  0  0  0  0  0
  -27.9630  -12.4330   18.5780 C   0  0  0  0  0  2  0  0  0  0  0  0
  -27.5870  -13.3150   19.7990 C   0  0  0  0  0  3  0  0  0  0  0  0
  -28.6490  -13.2380   20.9170 C   0  0  0  0  0  2  0  0  0  0  0  0
  -29.9380  -13.6000   20.3140 N   0  0  0  0  0  0  0  0  0  0  0  0
  -31.7780  -14.8830   20.1140 O   0  0  0  0  0  0  0  0  0  0  0  0
  -29.7950  -15.9720   20.5320 N   0  0  0  0  0  0  0  0  0  0  0  0
  -28.8080  -15.7860   20.4920 H   0  0  0  0  0  0  0  0  0  0  0  0
  -25.2010  -13.8980   20.5320 C   0  0  0  0  0  0  0  0  0  0  0  0
  -24.1370  -13.1220   20.9030 C   0  0  0  0  0  0  0  0  0  0  0  0
  -24.6040  -11.7730   20.8740 C   0  0  0  0  0  0  0  0  0  0  0  0
  -26.2460  -13.0220   20.2940 N   0  0  0  0  0  0  0  0  0  0  0  0
  -25.8950  -11.7380   20.5640 N   0  0  0  0  0  0  0  0  0  0  0  0
  -23.8790  -10.5080   21.0620 C   0  0  0  0  0  0  0  0  0  0  0  0
  -24.3190   -9.5370   21.9880 C   0  0  0  0  0  3  0  0  0  0  0  0
  -23.5950   -8.3390   22.1660 C   0  0  0  0  0  3  0  0  0  0  0  0
  -22.4170   -8.1020   21.4180 C   0  0  0  0  0  0  0  0  0  0  0  0
  -21.9960   -9.0620   20.4810 C   0  0  0  0  0  3  0  0  0  0  0  0
  -22.7200  -10.2530   20.3010 C   0  0  0  0  0  3  0  0  0  0  0  0
  -21.6640   -6.9570   21.5050 O   0  0  0  0  0  0  0  0  0  0  0  0
  -21.6290   -6.2040   22.6510 C   0  0  0  0  0  0  0  0  0  0  0  0
  -21.2280   -6.7510   23.8900 C   0  0  0  0  0  3  0  0  0  0  0  0
  -21.1400   -5.9250   25.0280 C   0  0  0  0  0  3  0  0  0  0  0  0
  -21.4430   -4.5540   24.9300 C   0  0  0  0  0  0  0  0  0  0  0  0
  -21.8370   -4.0070   23.6960 C   0  0  0  0  0  3  0  0  0  0  0  0
  -21.9280   -4.8300   22.5600 C   0  0  0  0  0  0  0  0  0  0  0  0
  -22.2870   -4.2930   21.3700 F   0  0  0  0  0  0  0  0  0  0  0  0
  -21.3510   -3.7590   26.0210 F   0  0  0  0  0  0  0  0  0  0  0  0
  -22.7380  -13.5960   21.1710 C   0  0  0  0  0  0  0  0  0  0  0  0
  -22.0100  -12.8960   22.0340 N   0  0  0  0  0  0  0  0  0  0  0  0
  -22.3010  -14.6210   20.6490 O   0  0  0  0  0  0  0  0  0  0  0  0
  -22.3770  -12.0670   22.4750 H   0  0  0  0  0  0  0  0  0  0  0  0
  -21.0720  -13.1970   22.2570 H   0  0  0  0  0  0  0  0  0  0  0  0
  -25.3570  -15.2700   20.3540 N   0  0  0  0  0  0  0  0  0  0  0  0
  -24.5760  -15.9090   20.4540 H   0  0  0  0  0  0  0  0  0  0  0  0
  -26.1790  -15.7180   19.9720 H   0  0  0  0  0  0  0  0  0  0  0  0
  -28.8520  -22.3050   20.9340 C   0  0  0  0  0  3  0  0  0  0  0  0
  -28.7210  -23.7090   20.1030 C   0  0  0  0  0  3  0  0  0  0  0  0
  -29.0170  -25.2450   22.1760 C   0  0  0  0  0  1  0  0  0  0  0  0
  -28.2470  -25.0790   20.8600 C   0  0  0  0  0  3  0  0  0  0  0  0
  -28.3620  -26.4460   20.2390 O   0  0  0  0  0  0  0  0  0  0  0  0
  -24.6220  -31.9370   23.2490 C   0  0  0  0  0  0  0  0  0  0  0  0
  -27.2540  -27.3220   20.2540 C   0  0  0  0  0  0  0  0  0  0  0  0
  -23.4300  -30.5220   21.6140 C   0  0  0  0  0  3  0  0  0  0  0  0
  -24.8910  -28.9530   20.2130 C   0  0  0  0  0  0  0  0  0  0  0  0
  -25.9720  -30.8380   21.4400 C   0  0  0  0  0  2  0  0  0  0  0  0
  -26.0600  -29.4460   20.8100 C   0  0  0  0  0  0  0  0  0  0  0  0
  -27.2470  -28.6450   20.8120 C   0  0  0  0  0  3  0  0  0  0  0  0
  -26.0620  -26.8890   19.6400 C   0  0  0  0  0  3  0  0  0  0  0  0
  -24.8970  -27.6820   19.6170 C   0  0  0  0  0  3  0  0  0  0  0  0
  -23.6540  -29.8320   20.2440 C   0  0  0  0  0  2  0  0  0  0  0  0
  -24.6930  -31.1180   22.1580 N   0  0  0  0  0  0  0  0  0  0  0  0
  -23.5350  -32.2170   23.7750 O   0  0  0  0  0  0  0  0  0  0  0  0
  -22.7620  -29.5170   22.5820 C   0  0  0  0  0  0  0  0  0  0  0  0
  -21.4360  -29.3390   22.4520 N   0  0  0  0  0  0  0  0  0  0  0  0
  -23.4360  -28.8970   23.4080 O   0  0  0  0  0  0  0  0  0  0  0  0
  -20.9500  -29.8870   21.7540 H   0  0  0  0  0  0  0  0  0  0  0  0
  -18.0560  -28.1460   22.9490 C   0  0  0  0  0  0  0  0  0  0  0  0
  -20.6140  -28.4070   23.2250 C   0  0  0  0  0  3  0  0  0  0  0  0
  -20.7180  -26.9720   22.6590 C   0  0  0  0  0  2  0  0  0  0  0  0
  -19.6190  -26.6440   21.6430 C   0  0  0  0  0  2  0  0  0  0  0  0
  -18.2350  -26.7920   22.2820 C   0  0  0  0  0  2  0  0  0  0  0  0
  -19.1730  -28.9100   23.3780 C   0  0  0  0  0  0  0  0  0  0  0  0
  -18.9520  -30.1750   23.9630 C   0  0  0  0  0  3  0  0  0  0  0  0
  -17.6470  -30.6780   24.1220 C   0  0  0  0  0  3  0  0  0  0  0  0
  -16.5450  -29.9110   23.7090 C   0  0  0  0  0  3  0  0  0  0  0  0
  -16.7500  -28.6460   23.1290 C   0  0  0  0  0  3  0  0  0  0  0  0
  -25.8990  -32.5790   23.8740 C   0  0  0  0  0  3  0  0  0  0  0  0
  -26.4110  -31.8150   25.1570 C   0  0  1  0  0  0  0  0  0  0  0  0
  -25.3130  -31.5810   26.2220 C   0  0  0  0  0  1  0  0  0  0  0  0
  -26.9960  -30.4350   24.7750 C   0  0  0  0  0  1  0  0  0  0  0  0
  -27.5570  -32.6140   25.8190 C   0  0  0  0  0  1  0  0  0  0  0  0
  -25.5820  -33.9770   24.1980 N   0  0  0  0  0  0  0  0  0  0  0  0
  -25.9160  -35.0290   23.4390 C   0  0  0  0  0  0  0  0  0  0  0  0
  -26.5910  -34.9250   22.4120 O   0  0  0  0  0  0  0  0  0  0  0  0
  -24.9790  -34.1300   24.9920 H   0  0  0  0  0  0  0  0  0  0  0  0
  -24.1840  -36.8190   23.0740 C   0  0  0  0  0  1  0  0  0  0  0  0
  -25.4230  -36.4180   23.8910 C   0  0  0  0  0  3  0  0  0  0  0  0
  -27.5540  -37.3080   24.7260 C   0  0  0  0  0  1  0  0  0  0  0  0
  -26.4530  -37.4740   23.7810 N   0  0  0  0  0  0  0  0  0  0  0  0
  -26.0430  -38.3920   23.9320 H   0  0  0  0  0  0  0  0  0  0  0  0
  1  3  1  0
  2  1  2  0
  3  8  1  0
  4  6  1  0
  5  4  2  0
  5  2  1  0
  6  3  2  0
  7  4  1  0
  7 48  1  0
  9  7  1  0
 10 18  1  0
 11 16  1  0
 12 13  1  0
 12 11  1  0
 14 13  1  0
 14 23  1  0
 14 15  1  0
 16 10  1  0
 16 15  1  0
 17 10  2  0
 18  2  1  0
 19 18  1  0
 20 21  2  0
 21 40  1  0
 22 21  1  0
 22 25  1  0
 23 20  1  0
 23 24  1  0
 24 22  2  0
 25 26  1  0
 26 27  2  0
 28 31  1  0
 28 27  1  0
 29 28  2  0
 30 29  1  0
 30 25  2  0
 31 32  1  0
 32 33  1  0
 33 34  2  0
 35 34  1  0
 35 39  1  0
 36 35  2  0
 37 32  2  0
 37 36  1  0
 38 37  1  0
 40 41  1  0
 41 44  1  0
 41 43  1  0
 42 40  2  0
 45 46  1  0
 45 20  1  0
 47 45  1  0
 49 51  1  0
 49 48  2  0
 51 50  1  0
 52 54  1  0
 52 51  1  0
 53 64  2  0
 54 59  1  0
 55 63  1  0
 55 65  1  0
 56 62  1  0
 56 58  1  0
 57 63  1  0
 58 59  2  0
 58 57  1  0
 60 54  2  0
 61 60  1  0
 61 56  2  0
 62 55  1  0
 63 53  1  0
 65 67  2  0
 66 65  1  0
 68 66  1  0
 69 78  2  0
 69 74  1  0
 70 66  1  0
 70 74  1  0
 71 70  1  0
 72 73  1  0
 72 71  1  0
 73 69  1  0
 74 75  2  0
 75 76  1  0
 77 76  2  0
 78 77  1  0
 79 53  1  0
 79 84  1  0
 79 80  1  0
 80 83  1  1
 80 81  1  0
 82 80  1  0
 84 87  1  0
 85 89  1  0
 85 84  1  0
 86 85  2  0
 89 88  1  0
 91 89  1  0
 91 92  1  0
 91 90  1  0
M  ISO  4  10 100  18 100  51 101  52 101
M  END
>  <TORSDO>  (29) 
F 19

>  <SCORE>  (29) 
-14.554

>  <name>  (29) 
28

>  <ligand_id>  (29) 
28

>  <original_smiles>  (29) 
[H]c1c(F)nc(N([H])C([H])([H])C([H])([H])C([H])(Oc2c([H])c([H])c3c(c2[H])C([H])([H])N(C(=O)C([H])(N([H])C(=O)C([H])(N([H])C([H])([H])[H])C([H])([H])[H])C(C([H])([H])[H])(C([H])([H])[H])C([H])([H])[H])C([H])(C(=O)N([H])C2([H])c4c([H])c([H])c([H])c([H])c4C([H])([H])C([H])([H])C2([H])[H])C3([H])[H])C([H])([H])[H])nc1N([H])C(=O)N1C([H])([H])C([H])([H])C([H])([H])C([H])(n2nc(-c3c([H])c([H])c(Oc4c([H])c([H])c(F)c([H])c4F)c([H])c3[H])c(C(=O)N([H])[H])c2N([H])[H])C1([H])[H]

>  <smiles>  (29) 
[H]c1c(F)nc(N([H])C([H])([H])C([H])([H])C([H])(Oc2c([H])c([H])c3c(c2[H])C([H])([H])N(C(=O)C([H])(N([H])C(=O)C([H])(N([H])C([H])([H])[H])C([H])([H])[H])C(C([H])([H])[H])(C([H])([H])[H])C([H])([H])[H])C([H])(C(=O)N([H])C2([H])c4c([H])c([H])c([H])c([H])c4C([H])([H])C([H])([H])C2([H])[H])C3([H])[H])C([H])([H])[H])nc1N([H])C(=O)N1C([H])([H])C([H])([H])C([H])([H])C([H])(n2nc(-c3c([H])c([H])c(Oc4c([H])c([H])c(F)c([H])c4F)c([H])c3[H])c(C(=O)N([H])[H])c2N([H])[H])C1([H])[H]

$$$$
29:0:0
     RDKit          3D

 94102  0  0  1  0  0  0  0  0999 V2000
  -30.5690  -14.8330   20.4190 C   0  0  0  0  0  0  0  0  0  0  0  0
  -30.3680  -12.5350   19.4450 C   0  0  0  0  0  2  0  0  0  0  0  0
  -29.4520  -12.5910   18.2060 C   0  0  0  0  0  2  0  0  0  0  0  0
  -27.9750  -12.4240   18.6120 C   0  0  0  0  0  2  0  0  0  0  0  0
  -27.5890  -13.3120   19.8250 C   0  0  0  0  0  3  0  0  0  0  0  0
  -28.6340  -13.2430   20.9550 C   0  0  0  0  0  2  0  0  0  0  0  0
  -29.9270  -13.6100   20.3700 N   0  0  0  0  0  0  0  0  0  0  0  0
  -31.7800  -14.8430   20.1590 O   0  0  0  0  0  0  0  0  0  0  0  0
  -31.4030  -18.9700   19.3640 C   0  0  0  0  0  0  0  0  0  0  0  0
  -30.0790  -17.4230   20.2960 C   0  0  0  0  0  0  0  0  0  0  0  0
  -29.5650  -19.7110   20.3230 C   0  0  0  0  0  0  0  0  0  0  0  0
  -31.1970  -17.6920   19.6240 N   0  0  0  0  0  4  0  0  0  0  0  0
  -30.6770  -20.0160   19.6860 N   0  0  0  0  0  0  0  0  0  0  0  0
  -29.1900  -18.4270   20.6410 N   0  0  0  0  0  2  0  0  0  0  0  0
  -32.5190  -19.2450   18.6420 N   0  0  0  0  0  0  0  0  0  0  0  0
  -29.8180  -16.0170   20.5680 N   0  0  0  0  0  0  0  0  0  0  0  0
  -28.7040  -20.8480   20.5640 N   0  0  0  0  0  0  0  0  0  0  0  0
  -32.8330  -18.4940   18.0420 H   0  0  0  0  0  0  0  0  0  0  0  0
  -32.5380  -20.1620   18.2160 H   0  0  0  0  0  0  0  0  0  0  0  0
  -28.8740  -15.8460   20.8620 H   0  0  0  0  0  0  0  0  0  0  0  0
  -27.7800  -20.5450   20.8510 H   0  0  0  0  0  0  0  0  0  0  0  0
  -25.1980  -13.8990   20.5310 C   0  0  0  0  0  0  0  0  0  0  0  0
  -24.1320  -13.1220   20.8970 C   0  0  0  0  0  0  0  0  0  0  0  0
  -24.5970  -11.7730   20.8720 C   0  0  0  0  0  0  0  0  0  0  0  0
  -26.2450  -13.0200   20.3100 N   0  0  0  0  0  0  0  0  0  0  0  0
  -25.8930  -11.7360   20.5820 N   0  0  0  0  0  0  0  0  0  0  0  0
  -23.8680  -10.5110   21.0580 C   0  0  0  0  0  0  0  0  0  0  0  0
  -24.2950   -9.5430   21.9930 C   0  0  0  0  0  3  0  0  0  0  0  0
  -23.5680   -8.3460   22.1650 C   0  0  0  0  0  3  0  0  0  0  0  0
  -22.3990   -8.1080   21.4010 C   0  0  0  0  0  0  0  0  0  0  0  0
  -21.9920   -9.0650   20.4560 C   0  0  0  0  0  3  0  0  0  0  0  0
  -22.7190  -10.2550   20.2810 C   0  0  0  0  0  3  0  0  0  0  0  0
  -21.6410   -6.9660   21.4860 O   0  0  0  0  0  0  0  0  0  0  0  0
  -21.5830   -6.2220   22.6370 C   0  0  0  0  0  0  0  0  0  0  0  0
  -21.1600   -6.7800   23.8640 C   0  0  0  0  0  3  0  0  0  0  0  0
  -21.0470   -5.9620   25.0060 C   0  0  0  0  0  3  0  0  0  0  0  0
  -21.3490   -4.5900   24.9240 C   0  0  0  0  0  0  0  0  0  0  0  0
  -21.7630   -4.0340   23.7030 C   0  0  0  0  0  3  0  0  0  0  0  0
  -21.8790   -4.8460   22.5630 C   0  0  0  0  0  0  0  0  0  0  0  0
  -22.2590   -4.2980   21.3840 F   0  0  0  0  0  0  0  0  0  0  0  0
  -21.2330   -3.8050   26.0220 F   0  0  0  0  0  0  0  0  0  0  0  0
  -22.7310  -13.5990   21.1490 C   0  0  0  0  0  0  0  0  0  0  0  0
  -21.9940  -12.9090   22.0120 N   0  0  0  0  0  0  0  0  0  0  0  0
  -22.3000  -14.6220   20.6180 O   0  0  0  0  0  0  0  0  0  0  0  0
  -22.3580  -12.0840   22.4640 H   0  0  0  0  0  0  0  0  0  0  0  0
  -21.0540  -13.2090   22.2240 H   0  0  0  0  0  0  0  0  0  0  0  0
  -25.3630  -15.2680   20.3420 N   0  0  0  0  0  0  0  0  0  0  0  0
  -24.5840  -15.9140   20.4090 H   0  0  0  0  0  0  0  0  0  0  0  0
  -26.1910  -15.6900   19.9410 H   0  0  0  0  0  0  0  0  0  0  0  0
  -30.4220  -22.5030   21.5350 C   0  0  0  0  0  1  0  0  0  0  0  0
  -28.9760  -22.2850   21.0460 C   0  0  0  0  0  3  0  0  0  0  0  0
  -28.4810  -23.5970   20.1950 C   0  0  0  0  0  2  0  0  0  0  0  0
  -28.2470  -25.0330   20.9530 C   0  0  0  0  0  2  0  0  0  0  0  0
  -28.4010  -26.4070   20.3550 O   0  0  0  0  0  0  0  0  0  0  0  0
  -24.6330  -31.9230   23.2890 C   0  0  0  0  0  0  0  0  0  0  0  0
  -27.3020  -27.2910   20.3410 C   0  0  0  0  0  0  0  0  0  0  0  0
  -23.4680  -30.4990   21.6470 C   0  0  0  0  0  3  0  0  0  0  0  0
  -24.9460  -28.9280   20.2660 C   0  0  0  0  0  0  0  0  0  0  0  0
  -26.0140  -30.8120   21.5060 C   0  0  0  0  0  2  0  0  0  0  0  0
  -26.1090  -29.4220   20.8740 C   0  0  0  0  0  0  0  0  0  0  0  0
  -27.2950  -28.6190   20.8900 C   0  0  0  0  0  3  0  0  0  0  0  0
  -26.1170  -26.8570   19.7150 C   0  0  0  0  0  3  0  0  0  0  0  0
  -24.9550  -27.6550   19.6740 C   0  0  0  0  0  3  0  0  0  0  0  0
  -23.7110  -29.8070   20.2810 C   0  0  0  0  0  2  0  0  0  0  0  0
  -24.7230  -31.0980   22.2030 N   0  0  0  0  0  0  0  0  0  0  0  0
  -23.5370  -32.2010   23.8010 O   0  0  0  0  0  0  0  0  0  0  0  0
  -22.7890  -29.4910   22.6080 C   0  0  0  0  0  0  0  0  0  0  0  0
  -21.4630  -29.3160   22.4680 N   0  0  0  0  0  0  0  0  0  0  0  0
  -23.4560  -28.8710   23.4400 O   0  0  0  0  0  0  0  0  0  0  0  0
  -20.9830  -29.8690   21.7720 H   0  0  0  0  0  0  0  0  0  0  0  0
  -18.0760  -28.1330   22.9470 C   0  0  0  0  0  0  0  0  0  0  0  0
  -20.6330  -28.3860   23.2380 C   0  0  0  0  0  3  0  0  0  0  0  0
  -20.7350  -26.9500   22.6700 C   0  0  0  0  0  2  0  0  0  0  0  0
  -19.6410  -26.6260   21.6490 C   0  0  0  0  0  2  0  0  0  0  0  0
  -18.2550  -26.7800   22.2800 C   0  0  0  0  0  2  0  0  0  0  0  0
  -19.1950  -28.8940   23.3830 C   0  0  0  0  0  0  0  0  0  0  0  0
  -18.9730  -30.1600   23.9670 C   0  0  0  0  0  3  0  0  0  0  0  0
  -17.6690  -30.6660   24.1200 C   0  0  0  0  0  3  0  0  0  0  0  0
  -16.5660  -29.9020   23.7010 C   0  0  0  0  0  3  0  0  0  0  0  0
  -16.7700  -28.6370   23.1200 C   0  0  0  0  0  3  0  0  0  0  0  0
  -25.9010  -32.5700   23.9270 C   0  0  0  0  0  3  0  0  0  0  0  0
  -25.5780  -33.9730   24.2300 N   0  0  0  0  0  0  0  0  0  0  0  0
  -25.9160  -35.0170   23.4620 C   0  0  0  0  0  0  0  0  0  0  0  0
  -26.6010  -34.9000   22.4420 O   0  0  0  0  0  0  0  0  0  0  0  0
  -24.9730  -34.1370   25.0220 H   0  0  0  0  0  0  0  0  0  0  0  0
  -24.1840  -36.7960   23.0620 C   0  0  0  0  0  1  0  0  0  0  0  0
  -25.4190  -36.4110   23.8920 C   0  0  0  0  0  3  0  0  0  0  0  0
  -27.5410  -37.3190   24.7270 C   0  0  0  0  0  1  0  0  0  0  0  0
  -26.4470  -37.4670   23.7720 N   0  0  0  0  0  0  0  0  0  0  0  0
  -26.0360  -38.3870   23.9010 H   0  0  0  0  0  0  0  0  0  0  0  0
  -26.3910  -31.8240   25.2280 C   0  0  1  0  0  0  0  0  0  0  0  0
  -25.2770  -31.6030   26.2770 C   0  0  0  0  0  1  0  0  0  0  0  0
  -26.9840  -30.4400   24.8740 C   0  0  0  0  0  1  0  0  0  0  0  0
  -27.5260  -32.6320   25.9000 C   0  0  0  0  0  1  0  0  0  0  0  0
  1 16  1  0
  2  7  1  0
  3  4  1  0
  3  2  1  0
  5  4  1  0
  5 25  1  0
  5  6  1  0
  7  1  1  0
  7  6  1  0
  8  1  2  0
  9 12  2  0
  9 13  1  0
 10 16  1  0
 10 14  1  0
 11 17  1  0
 11 14  1  0
 12 10  2  0
 13 11  2  0
 15  9  1  0
 16 20  1  0
 17 21  1  0
 17 51  1  0
 18 15  1  0
 19 15  1  0
 22 23  2  0
 23 42  1  0
 24 23  1  0
 24 27  1  0
 25 22  1  0
 25 26  1  0
 26 24  2  0
 27 28  1  0
 28 29  2  0
 30 33  1  0
 30 29  1  0
 31 30  2  0
 32 31  1  0
 32 27  2  0
 33 34  1  0
 34 35  1  0
 35 36  2  0
 37 36  1  0
 37 41  1  0
 38 37  2  0
 39 34  2  0
 39 38  1  0
 40 39  1  0
 42 43  1  0
 43 46  1  0
 43 45  1  0
 44 42  2  0
 47 48  1  0
 47 22  1  0
 49 47  1  0
 51 50  1  0
 52 53  1  0
 52 51  1  0
 54 53  1  0
 55 66  2  0
 56 54  1  0
 56 61  1  0
 57 65  1  0
 57 67  1  0
 58 64  1  0
 58 60  1  0
 59 65  1  0
 60 61  2  0
 60 59  1  0
 62 56  2  0
 63 62  1  0
 63 58  2  0
 64 57  1  0
 65 55  1  0
 67 69  2  0
 68 67  1  0
 70 68  1  0
 71 80  2  0
 71 76  1  0
 72 68  1  0
 72 76  1  0
 73 72  1  0
 74 75  1  0
 74 73  1  0
 75 71  1  0
 76 77  2  0
 77 78  1  0
 79 78  2  0
 80 79  1  0
 81 55  1  0
 81 82  1  0
 81 91  1  0
 82 85  1  0
 83 87  1  0
 83 82  1  0
 84 83  2  0
 87 86  1  0
 89 87  1  0
 89 90  1  0
 89 88  1  0
 91 94  1  1
 91 92  1  0
 93 91  1  0
M  ISO  4   1 100  16 100  53 101  54 101
M  END
>  <TORSDO>  (30) 
F 18

>  <SCORE>  (30) 
-14.822

>  <name>  (30) 
29

>  <ligand_id>  (30) 
29

>  <original_smiles>  (30) 
[H]c1c([H])c([H])c2c(c1[H])C([H])([H])C([H])([H])C([H])([H])C2([H])N([H])C(=O)C1([H])N(C(=O)C([H])(N([H])C(=O)C([H])(N([H])C([H])([H])[H])C([H])([H])[H])C(C([H])([H])[H])(C([H])([H])[H])C([H])([H])[H])C([H])([H])c2c([H])c(OC([H])([H])C([H])([H])C([H])(N([H])c3nc(N([H])[H])nc(N([H])C(=O)N4C([H])([H])C([H])([H])C([H])([H])C([H])(n5nc(-c6c([H])c([H])c(Oc7c([H])c([H])c(F)c([H])c7F)c([H])c6[H])c(C(=O)N([H])[H])c5N([H])[H])C4([H])[H])n3)C([H])([H])[H])c([H])c([H])c2C1([H])[H]

>  <smiles>  (30) 
[H]c1c([H])c([H])c2c(c1[H])C([H])([H])C([H])([H])C([H])([H])C2([H])N([H])C(=O)C1([H])N(C(=O)C([H])(N([H])C(=O)C([H])(N([H])C([H])([H])[H])C([H])([H])[H])C(C([H])([H])[H])(C([H])([H])[H])C([H])([H])[H])C([H])([H])c2c([H])c(OC([H])([H])C([H])([H])C([H])(N([H])c3nc(N([H])[H])nc(N([H])C(=O)N4C([H])([H])C([H])([H])C([H])([H])C([H])(n5nc(-c6c([H])c([H])c(Oc7c([H])c([H])c(F)c([H])c7F)c([H])c6[H])c(C(=O)N([H])[H])c5N([H])[H])C4([H])[H])n3)C([H])([H])[H])c([H])c([H])c2C1([H])[H]

$$$$
30:0:0
     RDKit          3D

 95103  0  0  1  0  0  0  0  0999 V2000
  -29.4900  -18.6450   18.8130 C   0  0  0  0  0  3  0  0  0  0  0  0
  -29.7040  -18.6730   20.1980 C   0  0  0  0  0  0  0  0  0  0  0  0
  -29.1590  -19.8500   18.1820 C   0  0  0  0  0  0  0  0  0  0  0  0
  -29.2190  -21.0350   20.1390 C   0  0  0  0  0  0  0  0  0  0  0  0
  -29.5430  -19.9030   20.8430 N   0  0  0  0  0  0  0  0  0  0  0  0
  -29.0280  -21.0230   18.8270 N   0  0  0  0  0  0  0  0  0  0  0  0
  -28.9380  -19.8900   16.8140 N   0  0  0  0  0  0  0  0  0  0  0  0
  -28.9950  -22.2890   20.8130 N   0  0  0  0  0  4  0  0  0  0  0  0
  -29.1770  -19.1060   16.2210 H   0  0  0  0  0  0  0  0  0  0  0  0
  -28.8310  -20.7790   16.3410 H   0  0  0  0  0  0  0  0  0  0  0  0
  -28.9800  -22.1550   21.8170 H   0  0  0  0  0  0  0  0  0  0  0  0
  -30.2350  -17.3620   20.9470 C   0  0  0  0  0  2  0  0  0  0  0  0
  -30.5900  -14.7850   20.3780 C   0  0  0  0  0  0  0  0  0  0  0  0
  -30.4030  -12.4980   19.3570 C   0  0  0  0  0  2  0  0  0  0  0  0
  -29.4660  -12.5380   18.1320 C   0  0  0  0  0  2  0  0  0  0  0  0
  -27.9940  -12.3680   18.5570 C   0  0  0  0  0  2  0  0  0  0  0  0
  -27.6120  -13.2650   19.7630 C   0  0  0  0  0  3  0  0  0  0  0  0
  -28.6680  -13.1950   20.8870 C   0  0  0  0  0  2  0  0  0  0  0  0
  -29.9580  -13.5600   20.2880 N   0  0  0  0  0  0  0  0  0  0  0  0
  -31.7910  -14.8660   20.1080 O   0  0  0  0  0  0  0  0  0  0  0  0
  -29.8240  -15.9260   20.5880 N   0  0  0  0  0  0  0  0  0  0  0  0
  -28.8330  -15.7610   20.6570 H   0  0  0  0  0  0  0  0  0  0  0  0
  -25.2270  -13.8600   20.4940 C   0  0  0  0  0  0  0  0  0  0  0  0
  -24.1590  -13.0890   20.8650 C   0  0  0  0  0  0  0  0  0  0  0  0
  -24.6200  -11.7370   20.8380 C   0  0  0  0  0  0  0  0  0  0  0  0
  -26.2680  -12.9780   20.2550 N   0  0  0  0  0  0  0  0  0  0  0  0
  -25.9110  -11.6970   20.5290 N   0  0  0  0  0  0  0  0  0  0  0  0
  -23.8910  -10.4770   21.0250 C   0  0  0  0  0  0  0  0  0  0  0  0
  -24.3170   -9.5090   21.9610 C   0  0  0  0  0  3  0  0  0  0  0  0
  -23.5870   -8.3130   22.1380 C   0  0  0  0  0  3  0  0  0  0  0  0
  -22.4160   -8.0760   21.3790 C   0  0  0  0  0  0  0  0  0  0  0  0
  -22.0100   -9.0320   20.4310 C   0  0  0  0  0  3  0  0  0  0  0  0
  -22.7400  -10.2180   20.2510 C   0  0  0  0  0  3  0  0  0  0  0  0
  -21.6600   -6.9320   21.4650 O   0  0  0  0  0  0  0  0  0  0  0  0
  -21.6000   -6.1930   22.6200 C   0  0  0  0  0  0  0  0  0  0  0  0
  -21.1570   -6.7510   23.8390 C   0  0  0  0  0  3  0  0  0  0  0  0
  -21.0460   -5.9380   24.9850 C   0  0  0  0  0  3  0  0  0  0  0  0
  -21.3660   -4.5690   24.9110 C   0  0  0  0  0  0  0  0  0  0  0  0
  -21.8010   -4.0110   23.6960 C   0  0  0  0  0  3  0  0  0  0  0  0
  -21.9140   -4.8210   22.5530 C   0  0  0  0  0  0  0  0  0  0  0  0
  -22.3150   -4.2740   21.3790 F   0  0  0  0  0  0  0  0  0  0  0  0
  -21.2500   -3.7870   26.0090 F   0  0  0  0  0  0  0  0  0  0  0  0
  -22.7610  -13.5690   21.1260 C   0  0  0  0  0  0  0  0  0  0  0  0
  -22.0250  -12.8750   21.9870 N   0  0  0  0  0  0  0  0  0  0  0  0
  -22.3280  -14.5920   20.5980 O   0  0  0  0  0  0  0  0  0  0  0  0
  -22.3860  -12.0480   22.4370 H   0  0  0  0  0  0  0  0  0  0  0  0
  -21.0830  -13.1750   22.1960 H   0  0  0  0  0  0  0  0  0  0  0  0
  -25.3920  -15.2320   20.3160 N   0  0  0  0  0  0  0  0  0  0  0  0
  -24.6240  -15.8820   20.4310 H   0  0  0  0  0  0  0  0  0  0  0  0
  -26.2250  -15.6690   19.9440 H   0  0  0  0  0  0  0  0  0  0  0  0
  -29.2750  -23.7640   20.4820 C   0  0  0  0  0  0  0  0  0  0  0  0
  -31.7690  -23.4290   19.9020 C   0  0  0  0  0  1  0  0  0  0  0  0
  -30.4030  -23.9740   19.4530 C   0  0  0  0  0  2  0  0  0  0  0  0
  -28.0710  -24.8300   20.2210 C   0  0  0  0  0  2  0  0  0  0  0  0
  -28.3090  -26.3290   20.3030 O   0  0  0  0  0  0  0  0  0  0  0  0
  -24.6030  -31.8660   23.2400 C   0  0  0  0  0  0  0  0  0  0  0  0
  -27.2140  -27.2290   20.2350 C   0  0  0  0  0  0  0  0  0  0  0  0
  -23.4080  -30.4610   21.6030 C   0  0  0  0  0  3  0  0  0  0  0  0
  -24.8650  -28.8960   20.1910 C   0  0  0  0  0  0  0  0  0  0  0  0
  -25.9540  -30.7590   21.4330 C   0  0  0  0  0  2  0  0  0  0  0  0
  -26.0350  -29.3720   20.7930 C   0  0  0  0  0  0  0  0  0  0  0  0
  -27.2140  -28.5540   20.7990 C   0  0  0  0  0  3  0  0  0  0  0  0
  -26.0160  -26.8260   19.6030 C   0  0  0  0  0  3  0  0  0  0  0  0
  -24.8620  -27.6320   19.5830 C   0  0  0  0  0  3  0  0  0  0  0  0
  -23.6300  -29.7780   20.2280 C   0  0  0  0  0  2  0  0  0  0  0  0
  -24.6740  -31.0490   22.1490 N   0  0  0  0  0  0  0  0  0  0  0  0
  -23.5150  -32.1480   23.7660 O   0  0  0  0  0  0  0  0  0  0  0  0
  -22.7360  -29.4520   22.5660 C   0  0  0  0  0  0  0  0  0  0  0  0
  -21.4090  -29.2800   22.4360 N   0  0  0  0  0  0  0  0  0  0  0  0
  -23.4080  -28.8260   23.3890 O   0  0  0  0  0  0  0  0  0  0  0  0
  -20.9230  -29.8360   21.7460 H   0  0  0  0  0  0  0  0  0  0  0  0
  -18.0230  -28.1080   22.9470 C   0  0  0  0  0  0  0  0  0  0  0  0
  -20.5830  -28.3490   23.2090 C   0  0  0  0  0  3  0  0  0  0  0  0
  -20.6740  -26.9160   22.6340 C   0  0  0  0  0  2  0  0  0  0  0  0
  -19.5670  -26.6020   21.6220 C   0  0  0  0  0  2  0  0  0  0  0  0
  -18.1880  -26.7570   22.2690 C   0  0  0  0  0  2  0  0  0  0  0  0
  -19.1480  -28.8610   23.3740 C   0  0  0  0  0  0  0  0  0  0  0  0
  -18.9400  -30.1250   23.9680 C   0  0  0  0  0  3  0  0  0  0  0  0
  -17.6380  -30.6340   24.1400 C   0  0  0  0  0  3  0  0  0  0  0  0
  -16.5280  -29.8770   23.7270 C   0  0  0  0  0  3  0  0  0  0  0  0
  -16.7200  -28.6160   23.1360 C   0  0  0  0  0  3  0  0  0  0  0  0
  -25.8810  -32.5030   23.8660 C   0  0  0  0  0  3  0  0  0  0  0  0
  -26.3890  -31.7400   25.1510 C   0  0  1  0  0  0  0  0  0  0  0  0
  -25.2880  -31.5120   26.2140 C   0  0  0  0  0  1  0  0  0  0  0  0
  -26.9730  -30.3580   24.7750 C   0  0  0  0  0  1  0  0  0  0  0  0
  -27.5340  -32.5380   25.8170 C   0  0  0  0  0  1  0  0  0  0  0  0
  -25.5670  -33.9030   24.1890 N   0  0  0  0  0  0  0  0  0  0  0  0
  -25.9020  -34.9560   23.4290 C   0  0  0  0  0  0  0  0  0  0  0  0
  -26.5740  -34.8480   22.3990 O   0  0  0  0  0  0  0  0  0  0  0  0
  -24.9680  -34.0600   24.9860 H   0  0  0  0  0  0  0  0  0  0  0  0
  -24.1770  -36.7510   23.0640 C   0  0  0  0  0  1  0  0  0  0  0  0
  -25.4140  -36.3440   23.8800 C   0  0  0  0  0  3  0  0  0  0  0  0
  -27.5450  -37.2320   24.7210 C   0  0  0  0  0  1  0  0  0  0  0  0
  -26.4480  -37.3970   23.7700 N   0  0  0  0  0  0  0  0  0  0  0  0
  -26.0400  -38.3180   23.9130 H   0  0  0  0  0  0  0  0  0  0  0  0
  1  2  2  0
  2  5  1  0
  2 12  1  0
  3  1  1  0
  3  6  2  0
  4  8  1  0
  4  5  2  0
  6  4  1  0
  7  3  1  0
  8 11  1  0
  9  7  1  0
 10  7  1  0
 13 21  1  0
 14 19  1  0
 15 16  1  0
 15 14  1  0
 17 16  1  0
 17 26  1  0
 17 18  1  0
 19 13  1  0
 19 18  1  0
 20 13  2  0
 21 22  1  0
 21 12  1  0
 23 24  2  0
 24 43  1  0
 25 24  1  0
 25 28  1  0
 26 23  1  0
 26 27  1  0
 27 25  2  0
 28 29  1  0
 29 30  2  0
 31 34  1  0
 31 30  1  0
 32 31  2  0
 33 32  1  0
 33 28  2  0
 34 35  1  0
 35 36  1  0
 36 37  2  0
 38 37  1  0
 38 42  1  0
 39 38  2  0
 40 35  2  0
 40 39  1  0
 41 40  1  0
 43 44  1  0
 44 47  1  0
 44 46  1  0
 45 43  2  0
 48 49  1  0
 48 23  1  0
 50 48  1  0
 51  8  2  3
 53 52  1  0
 53 51  1  0
 54 55  1  0
 54 51  1  0
 56 67  2  0
 57 55  1  0
 57 62  1  0
 58 66  1  0
 58 68  1  0
 59 65  1  0
 59 61  1  0
 60 66  1  0
 61 62  2  0
 61 60  1  0
 63 57  2  0
 64 63  1  0
 64 59  2  0
 65 58  1  0
 66 56  1  0
 68 70  2  0
 69 68  1  0
 71 69  1  0
 72 81  2  0
 72 77  1  0
 73 69  1  0
 73 77  1  0
 74 73  1  0
 75 76  1  0
 75 74  1  0
 76 72  1  0
 77 78  2  0
 78 79  1  0
 80 79  2  0
 81 80  1  0
 82 56  1  0
 82 87  1  0
 82 83  1  0
 83 86  1  1
 83 84  1  0
 85 83  1  0
 87 90  1  0
 88 92  1  0
 88 87  1  0
 89 88  2  0
 92 91  1  0
 94 92  1  0
 94 95  1  0
 94 93  1  0
M  ISO  4  13 100  21 100  54 101  55 101
M  END
>  <TORSDO>  (31) 
F 20

>  <SCORE>  (31) 
-13.981

>  <name>  (31) 
30

>  <ligand_id>  (31) 
30

>  <original_smiles>  (31) 
[H]c1c(N([H])[H])nc(N([H])C([H])(C([H])([H])Oc2c([H])c([H])c3c(c2[H])C([H])([H])N(C(=O)C([H])(N([H])C(=O)C([H])(N([H])C([H])([H])[H])C([H])([H])[H])C(C([H])([H])[H])(C([H])([H])[H])C([H])([H])[H])C([H])(C(=O)N([H])C2([H])c4c([H])c([H])c([H])c([H])c4C([H])([H])C([H])([H])C2([H])[H])C3([H])[H])C([H])([H])C([H])([H])[H])nc1C([H])([H])N([H])C(=O)N1C([H])([H])C([H])([H])C([H])([H])C([H])(n2nc(-c3c([H])c([H])c(Oc4c([H])c([H])c(F)c([H])c4F)c([H])c3[H])c(C(=O)N([H])[H])c2N([H])[H])C1([H])[H]

>  <smiles>  (31) 
[H]c1c(N([H])[H])nc(N([H])C([H])(C([H])([H])Oc2c([H])c([H])c3c(c2[H])C([H])([H])N(C(=O)C([H])(N([H])C(=O)C([H])(N([H])C([H])([H])[H])C([H])([H])[H])C(C([H])([H])[H])(C([H])([H])[H])C([H])([H])[H])C([H])(C(=O)N([H])C2([H])c4c([H])c([H])c([H])c([H])c4C([H])([H])C([H])([H])C2([H])[H])C3([H])[H])C([H])([H])C([H])([H])[H])nc1C([H])([H])N([H])C(=O)N1C([H])([H])C([H])([H])C([H])([H])C([H])(n2nc(-c3c([H])c([H])c(Oc4c([H])c([H])c(F)c([H])c4F)c([H])c3[H])c(C(=O)N([H])[H])c2N([H])[H])C1([H])[H]

$$$$
31:0:0
     RDKit          3D

 95103  0  0  1  0  0  0  0  0999 V2000
  -31.0520  -18.2400   20.5800 C   0  0  0  0  0  0  0  0  0  0  0  0
  -30.3650  -18.3830   21.7730 C   0  0  0  0  0  0  0  0  0  0  0  0
  -30.3400  -20.4500   20.4040 C   0  0  0  0  0  0  0  0  0  0  0  0
  -31.0420  -19.4490   19.8370 N   0  0  0  0  0  0  0  0  0  0  0  0
  -30.2340  -21.7460   19.8720 N   0  0  0  0  0  0  0  0  0  0  0  0
  -29.6450  -19.9730   21.9400 S   0  0  0  0  0  0  0  0  0  0  0  0
  -30.9520  -21.8630   19.1670 H   0  0  0  0  0  0  0  0  0  0  0  0
  -30.1970  -17.4810   22.8180 N   0  0  0  0  0  0  0  0  0  0  0  0
  -30.4080  -16.4930   22.7890 H   0  0  0  0  0  0  0  0  0  0  0  0
  -29.5300  -17.7110   23.5530 H   0  0  0  0  0  0  0  0  0  0  0  0
  -31.8360  -17.0310   20.0600 C   0  0  0  0  0  2  0  0  0  0  0  0
  -31.7250  -14.5760   19.6100 C   0  0  0  0  0  0  0  0  0  0  0  0
  -31.2290  -12.3090   18.7420 C   0  0  0  0  0  2  0  0  0  0  0  0
  -30.2210  -12.4690   17.5970 C   0  0  0  0  0  2  0  0  0  0  0  0
  -28.7900  -12.4030   18.1630 C   0  0  0  0  0  2  0  0  0  0  0  0
  -28.5850  -13.3530   19.3760 C   0  0  0  0  0  3  0  0  0  0  0  0
  -29.7350  -13.2250   20.4060 C   0  0  0  0  0  2  0  0  0  0  0  0
  -30.9920  -13.4260   19.6790 N   0  0  0  0  0  0  0  0  0  0  0  0
  -32.7760  -14.6300   18.9760 O   0  0  0  0  0  0  0  0  0  0  0  0
  -31.2060  -15.6930   20.1770 N   0  0  0  0  0  0  0  0  0  0  0  0
  -30.3540  -15.6290   20.7130 H   0  0  0  0  0  0  0  0  0  0  0  0
  -26.3670  -14.1130   20.4330 C   0  0  0  0  0  0  0  0  0  0  0  0
  -25.2690  -13.4160   20.8570 C   0  0  0  0  0  0  0  0  0  0  0  0
  -25.5630  -12.0360   20.6300 C   0  0  0  0  0  0  0  0  0  0  0  0
  -27.2690  -13.1610   19.9820 N   0  0  0  0  0  0  0  0  0  0  0  0
  -26.7970  -11.8990   20.1590 N   0  0  0  0  0  0  0  0  0  0  0  0
  -24.7210  -10.8400   20.7800 C   0  0  0  0  0  0  0  0  0  0  0  0
  -25.0600   -9.8010   21.6760 C   0  0  0  0  0  3  0  0  0  0  0  0
  -24.2210   -8.6760   21.8210 C   0  0  0  0  0  3  0  0  0  0  0  0
  -23.0270   -8.5800   21.0680 C   0  0  0  0  0  0  0  0  0  0  0  0
  -22.7050   -9.6040   20.1610 C   0  0  0  0  0  3  0  0  0  0  0  0
  -23.5430  -10.7210   20.0120 C   0  0  0  0  0  3  0  0  0  0  0  0
  -22.1650   -7.5120   21.1270 O   0  0  0  0  0  0  0  0  0  0  0  0
  -21.9380   -6.8320   22.2960 C   0  0  0  0  0  0  0  0  0  0  0  0
  -21.3950   -7.4690   23.4340 C   0  0  0  0  0  3  0  0  0  0  0  0
  -21.1080   -6.7200   24.5910 C   0  0  0  0  0  3  0  0  0  0  0  0
  -21.3570   -5.3340   24.6150 C   0  0  0  0  0  0  0  0  0  0  0  0
  -21.8930   -4.6960   23.4810 C   0  0  0  0  0  3  0  0  0  0  0  0
  -22.1780   -5.4440   22.3250 C   0  0  0  0  0  0  0  0  0  0  0  0
  -22.6740   -4.8180   21.2290 F   0  0  0  0  0  0  0  0  0  0  0  0
  -21.0770   -4.6120   25.7260 F   0  0  0  0  0  0  0  0  0  0  0  0
  -23.9780  -13.9950   21.3610 C   0  0  0  0  0  0  0  0  0  0  0  0
  -23.3000  -13.2840   22.2540 N   0  0  0  0  0  0  0  0  0  0  0  0
  -23.5930  -15.1040   21.0000 O   0  0  0  0  0  0  0  0  0  0  0  0
  -23.6260  -12.3770   22.5500 H   0  0  0  0  0  0  0  0  0  0  0  0
  -22.4440  -13.6490   22.6440 H   0  0  0  0  0  0  0  0  0  0  0  0
  -26.6710  -15.4710   20.3750 N   0  0  0  0  0  0  0  0  0  0  0  0
  -26.0130  -16.1920   20.6500 H   0  0  0  0  0  0  0  0  0  0  0  0
  -27.5210  -15.8550   19.9800 H   0  0  0  0  0  0  0  0  0  0  0  0
  -29.8100  -23.0690   20.3980 C   0  0  0  0  0  2  0  0  0  0  0  0
  -29.6010  -24.1950   19.3130 C   0  0  0  0  0  3  0  0  0  0  0  0
  -30.7780  -24.1790   18.5200 O   0  0  0  0  0  0  0  0  0  0  0  0
  -30.6970  -23.4290   17.9430 H   0  0  0  0  0  0  0  0  0  0  0  0
  -29.4010  -25.6250   19.9310 C   0  0  0  0  0  2  0  0  0  0  0  0
  -29.0750  -26.7000   19.0120 O   0  0  0  0  0  0  0  0  0  0  0  0
  -24.7810  -30.9140   22.9060 C   0  0  0  0  0  0  0  0  0  0  0  0
  -27.8370  -27.2900   19.1810 C   0  0  0  0  0  0  0  0  0  0  0  0
  -23.6940  -29.5710   21.1420 C   0  0  0  0  0  3  0  0  0  0  0  0
  -25.2630  -28.4470   19.4710 C   0  0  0  0  0  0  0  0  0  0  0  0
  -26.1320  -30.3080   20.8960 C   0  0  0  0  0  2  0  0  0  0  0  0
  -26.3720  -29.0550   20.0760 C   0  0  0  0  0  0  0  0  0  0  0  0
  -27.6640  -28.4900   19.9200 C   0  0  0  0  0  3  0  0  0  0  0  0
  -26.7070  -26.7060   18.5700 C   0  0  0  0  0  3  0  0  0  0  0  0
  -25.4270  -27.2760   18.7100 C   0  0  0  0  0  3  0  0  0  0  0  0
  -23.9170  -29.1080   19.6760 C   0  0  0  0  0  2  0  0  0  0  0  0
  -24.8920  -30.2740   21.7070 N   0  0  0  0  0  0  0  0  0  0  0  0
  -23.7000  -30.9600   23.5140 O   0  0  0  0  0  0  0  0  0  0  0  0
  -23.2510  -28.3490   21.9790 C   0  0  0  0  0  0  0  0  0  0  0  0
  -21.9800  -27.9510   21.8150 N   0  0  0  0  0  0  0  0  0  0  0  0
  -24.0390  -27.7710   22.7340 O   0  0  0  0  0  0  0  0  0  0  0  0
  -21.3840  -28.5300   21.2330 H   0  0  0  0  0  0  0  0  0  0  0  0
  -18.9340  -26.0110   21.9710 C   0  0  0  0  0  0  0  0  0  0  0  0
  -21.3510  -26.7920   22.4500 C   0  0  0  0  0  3  0  0  0  0  0  0
  -21.8060  -25.4710   21.7830 C   0  0  0  0  0  2  0  0  0  0  0  0
  -20.8550  -24.9990   20.6790 C   0  0  0  0  0  2  0  0  0  0  0  0
  -19.4350  -24.7930   21.2220 C   0  0  0  0  0  2  0  0  0  0  0  0
  -19.8330  -26.9530   22.5410 C   0  0  0  0  0  0  0  0  0  0  0  0
  -19.3110  -28.0720   23.2190 C   0  0  0  0  0  3  0  0  0  0  0  0
  -17.9220  -28.2720   23.3200 C   0  0  0  0  0  3  0  0  0  0  0  0
  -17.0370  -27.3420   22.7480 C   0  0  0  0  0  3  0  0  0  0  0  0
  -17.5430  -26.2060   22.0890 C   0  0  0  0  0  3  0  0  0  0  0  0
  -25.9980  -31.6420   23.5520 C   0  0  0  0  0  3  0  0  0  0  0  0
  -25.5420  -32.9680   23.9820 N   0  0  0  0  0  0  0  0  0  0  0  0
  -25.7760  -34.1060   23.3160 C   0  0  0  0  0  0  0  0  0  0  0  0
  -26.4750  -34.1520   22.2980 O   0  0  0  0  0  0  0  0  0  0  0  0
  -24.9200  -32.9960   24.7770 H   0  0  0  0  0  0  0  0  0  0  0  0
  -23.8840  -35.7400   23.0520 C   0  0  0  0  0  1  0  0  0  0  0  0
  -25.1400  -35.3940   23.8690 C   0  0  0  0  0  3  0  0  0  0  0  0
  -27.1440  -36.4220   24.8460 C   0  0  0  0  0  1  0  0  0  0  0  0
  -26.0610  -36.5530   23.8770 N   0  0  0  0  0  0  0  0  0  0  0  0
  -25.5550  -37.4100   24.0850 H   0  0  0  0  0  0  0  0  0  0  0  0
  -26.6260  -30.8430   24.7610 C   0  0  1  0  0  0  0  0  0  0  0  0
  -25.5880  -30.4150   25.8250 C   0  0  0  0  0  1  0  0  0  0  0  0
  -27.3460  -29.5690   24.2590 C   0  0  0  0  0  1  0  0  0  0  0  0
  -27.6980  -31.7080   25.4620 C   0  0  0  0  0  1  0  0  0  0  0  0
  1  2  2  0
  2  6  1  0
  2  8  1  0
  3  6  1  0
  4  3  2  0
  4  1  1  0
  5 50  1  0
  5  3  1  0
  7  5  1  0
  8 10  1  0
  9  8  1  0
 11 20  1  0
 11  1  1  0
 12 18  1  0
 12 20  1  0
 13 18  1  0
 14 15  1  0
 14 13  1  0
 16 15  1  0
 16 25  1  0
 16 17  1  0
 18 17  1  0
 19 12  2  0
 20 21  1  0
 22 23  2  0
 23 42  1  0
 24 27  1  0
 24 23  1  0
 25 26  1  0
 25 22  1  0
 26 24  2  0
 27 28  1  0
 28 29  2  0
 30 33  1  0
 30 29  1  0
 31 30  2  0
 32 31  1  0
 32 27  2  0
 33 34  1  0
 34 39  2  0
 34 35  1  0
 35 36  2  0
 36 37  1  0
 37 41  1  0
 38 37  2  0
 39 38  1  0
 40 39  1  0
 42 43  1  0
 43 45  1  0
 43 46  1  0
 44 42  2  0
 47 22  1  0
 47 48  1  0
 49 47  1  0
 51 54  1  0
 51 50  1  0
 52 51  1  0
 53 52  1  0
 55 57  1  0
 55 54  1  0
 56 67  2  0
 57 62  1  0
 58 66  1  0
 58 68  1  0
 59 65  1  0
 59 61  1  0
 60 66  1  0
 61 60  1  0
 62 61  2  0
 63 64  1  0
 63 57  2  0
 64 59  2  0
 65 58  1  0
 66 56  1  0
 68 70  2  0
 69 68  1  0
 71 69  1  0
 72 81  2  0
 72 77  1  0
 73 69  1  0
 73 77  1  0
 74 73  1  0
 75 76  1  0
 75 74  1  0
 76 72  1  0
 77 78  2  0
 78 79  1  0
 80 79  2  0
 81 80  1  0
 82 56  1  0
 82 83  1  0
 82 92  1  0
 83 86  1  0
 84 88  1  0
 84 83  1  0
 85 84  2  0
 88 87  1  0
 88 90  1  0
 90 91  1  0
 90 89  1  0
 92 95  1  1
 92 93  1  0
 94 92  1  0
M  ISO  4  12 100  20 100  54 101  55 101
M  END
>  <TORSDO>  (32) 
F 22

>  <SCORE>  (32) 
-8.854

>  <name>  (32) 
31

>  <ligand_id>  (32) 
31

>  <original_smiles>  (32) 
[H]OC([H])(C([H])([H])Oc1c([H])c([H])c2c(c1[H])C([H])([H])N(C(=O)C([H])(N([H])C(=O)C([H])(N([H])C([H])([H])[H])C([H])([H])[H])C(C([H])([H])[H])(C([H])([H])[H])C([H])([H])[H])C([H])(C(=O)N([H])C1([H])c3c([H])c([H])c([H])c([H])c3C([H])([H])C([H])([H])C1([H])[H])C2([H])[H])C([H])([H])N([H])c1nc(C([H])([H])N([H])C(=O)N2C([H])([H])C([H])([H])C([H])([H])C([H])(n3nc(-c4c([H])c([H])c(Oc5c([H])c([H])c(F)c([H])c5F)c([H])c4[H])c(C(=O)N([H])[H])c3N([H])[H])C2([H])[H])c(N([H])[H])s1

>  <smiles>  (32) 
[H]OC([H])(C([H])([H])Oc1c([H])c([H])c2c(c1[H])C([H])([H])N(C(=O)C([H])(N([H])C(=O)C([H])(N([H])C([H])([H])[H])C([H])([H])[H])C(C([H])([H])[H])(C([H])([H])[H])C([H])([H])[H])C([H])(C(=O)N([H])C1([H])c3c([H])c([H])c([H])c([H])c3C([H])([H])C([H])([H])C1([H])[H])C2([H])[H])C([H])([H])N([H])c1nc(C([H])([H])N([H])C(=O)N2C([H])([H])C([H])([H])C([H])([H])C([H])(n3nc(-c4c([H])c([H])c(Oc5c([H])c([H])c(F)c([H])c5F)c([H])c4[H])c(C(=O)N([H])[H])c3N([H])[H])C2([H])[H])c(N([H])[H])s1

$$$$
32:0:0
     RDKit          3D

 95 88  0  0  1  0  0  0  0  0999 V2000
  -26.1230  -12.4650   19.4950 C   0  0  0  0  0  1  0  0  0  0  0  0
  -25.1580  -13.5880   22.9600 C   0  0  0  0  0  1  0  0  0  0  0  0
  -24.7950  -16.1440   20.2400 C   0  0  0  0  0 15  0  0  0  0  0  0
  -26.0000  -12.0900   21.7010 N   0  0  0  0  0 15  0  0  0  0  0  0
  -25.5320  -14.5730   18.8290 N   0  0  0  0  0 15  0  0  0  0  0  0
  -24.4800  -15.5190   22.2830 N   0  0  0  0  0 15  0  0  0  0  0  0
  -24.9980  -13.2640   24.2790 N   0  0  0  0  0  0  0  0  0  0  0  0
  -25.2380  -18.0180   20.0170 N   0  0  0  0  0  1  0  0  0  0  0  0
  -25.3230  -12.3750   24.6320 H   0  0  0  0  0  0  0  0  0  0  0  0
  -24.4740  -13.8630   24.8990 H   0  0  0  0  0  0  0  0  0  0  0  0
  -25.4670  -18.0740   19.0290 H   0  0  0  0  0  0  0  0  0  0  0  0
  -24.3700  -20.2520   21.4130 C   0  0  0  0  0  1  0  0  0  0  0  0
  -25.5990  -19.9570   20.5430 C   0  0  0  0  0  1  0  0  0  0  0  0
  -26.1720  -22.2140   20.0460 C   0  0  0  0  0 15  0  0  0  0  0  0
  -26.8200  -24.2090   20.4060 O   0  0  0  0  0  1  0  0  0  0  0  0
  -24.7340  -31.7260   23.1190 C   0  0  0  0  0  0  0  0  0  0  0  0
  -26.5050  -25.8960   20.2770 C   0  0  0  0  0  0  0  0  0  0  0  0
  -23.5450  -30.3580   21.4880 C   0  0  0  0  0  3  0  0  0  0  0  0
  -24.8740  -28.5890   20.0670 C   0  0  0  0  0  0  0  0  0  0  0  0
  -26.1190  -30.1480   21.5100 C   0  0  0  0  0  2  0  0  0  0  0  0
  -26.0290  -28.6610   20.8390 C   0  0  0  0  0  0  0  0  0  0  0  0
  -26.8410  -27.3380   20.9140 C   0  0  0  0  0  3  0  0  0  0  0  0
  -25.5350  -26.2660   19.3260 C   0  0  0  0  0  3  0  0  0  0  0  0
  -24.7340  -27.4490   19.2660 C   0  0  0  0  0  3  0  0  0  0  0  0
  -23.7950  -29.6880   20.1040 C   0  0  0  0  0  2  0  0  0  0  0  0
  -24.8410  -30.8040   22.0830 N   0  0  0  0  0  0  0  0  0  0  0  0
  -23.6300  -32.0810   23.5750 O   0  0  0  0  0  0  0  0  0  0  0  0
  -22.7810  -29.4020   22.4480 C   0  0  0  0  0  0  0  0  0  0  0  0
  -21.4430  -29.2960   22.3270 N   0  0  0  0  0  0  0  0  0  0  0  0
  -23.4080  -28.7620   23.2960 O   0  0  0  0  0  0  0  0  0  0  0  0
  -20.9780  -29.8660   21.6330 H   0  0  0  0  0  0  0  0  0  0  0  0
  -18.0320  -28.1430   22.8420 C   0  0  0  0  0  0  0  0  0  0  0  0
  -20.5960  -28.3800   23.1030 C   0  0  0  0  0  3  0  0  0  0  0  0
  -20.6760  -26.9420   22.5380 C   0  0  0  0  0  2  0  0  0  0  0  0
  -19.5750  -26.6340   21.5190 C   0  0  0  0  0  2  0  0  0  0  0  0
  -18.1940  -26.7950   22.1590 C   0  0  0  0  0  2  0  0  0  0  0  0
  -19.1600  -28.8950   23.2710 C   0  0  0  0  0  0  0  0  0  0  0  0
  -18.9530  -30.1510   23.8790 C   0  0  0  0  0  3  0  0  0  0  0  0
  -17.6520  -30.6610   24.0540 C   0  0  0  0  0  3  0  0  0  0  0  0
  -16.5400  -29.9100   23.6350 C   0  0  0  0  0  3  0  0  0  0  0  0
  -16.7310  -28.6510   23.0380 C   0  0  0  0  0  3  0  0  0  0  0  0
  -25.9710  -32.4040   23.7870 C   0  0  0  0  0  3  0  0  0  0  0  0
  -26.4720  -31.6470   25.0810 C   0  0  1  0  0  0  0  0  0  0  0  0
  -25.3640  -31.4000   26.1330 C   0  0  0  0  0  1  0  0  0  0  0  0
  -27.0840  -30.2760   24.7330 C   0  0  0  0  0  1  0  0  0  0  0  0
  -27.6010  -32.4580   25.7600 C   0  0  0  0  0  1  0  0  0  0  0  0
  -25.6070  -33.7960   24.1610 N   0  0  0  0  0  0  0  0  0  0  0  0
  -25.9210  -34.9080   23.4790 C   0  0  0  0  0  0  0  0  0  0  0  0
  -26.5940  -34.8780   22.4480 O   0  0  0  0  0  0  0  0  0  0  0  0
  -25.0080  -33.8940   24.9680 H   0  0  0  0  0  0  0  0  0  0  0  0
  -24.1480  -36.6950   23.2660 C   0  0  0  0  0  1  0  0  0  0  0  0
  -25.4170  -36.2670   24.0230 C   0  0  0  0  0  3  0  0  0  0  0  0
  -27.5540  -37.1620   24.8450 C   0  0  0  0  0  1  0  0  0  0  0  0
  -26.4210  -37.3530   23.9430 N   0  0  0  0  0  0  0  0  0  0  0  0
  -25.9970  -38.2520   24.1580 H   0  0  0  0  0  0  0  0  0  0  0  0
  -27.2290  -11.4980   19.0500 C   0  0  0  0  0  2  0  0  0  0  0  0
  -28.7260  -11.7920   19.7060 C   0  0  0  0  0  1  0  0  0  0  0  0
  -30.9590  -13.9280   20.4590 C   0  0  0  0  0  3  0  0  0  0  0  0
  -31.0210  -11.7470   18.9950 C   0  0  0  0  0 15  0  0  0  0  0  0
  -29.7550  -12.3750   17.6010 C   0  0  0  0  0  1  0  0  0  0  0  0
  -28.2840  -13.5730   18.1040 C   0  0  0  0  0  1  0  0  0  0  0  0
  -27.9400  -14.1010   20.0140 C   0  0  0  0  0  2  0  0  0  0  0  0
  -29.0330  -13.4100   21.4300 C   0  0  0  0  0  2  0  0  0  0  0  0
  -30.5720  -12.7260   20.6110 N   0  0  0  0  0  0  0  0  0  0  0  0
  -31.9340  -14.5380   20.0290 O   0  0  0  0  0  1  0  0  0  0  0  0
  -30.1080  -13.5560   19.5800 N   0  0  0  0  0  0  0  0  0  0  0  0
  -30.1180  -14.0530   18.7030 H   0  0  0  0  0  0  0  0  0  0  0  0
  -25.9200  -14.4130   21.0350 C   0  0  0  0  0  0  0  0  0  0  0  0
  -24.1390  -13.7380   20.7740 C   0  0  0  0  0  0  0  0  0  0  0  0
  -23.9530  -12.4240   20.4580 C   0  0  0  0  0  2  0  0  0  0  0  0
  -26.7460  -14.0410   20.8900 N   0  0  0  0  0  2  0  0  0  0  0  0
  -24.8300  -13.6820   20.7360 N   0  0  0  0  0  2  0  0  0  0  0  0
  -23.6790  -10.8680   20.9110 C   0  0  0  0  0  3  0  0  0  0  0  0
  -24.2190   -9.8570   21.8300 C   0  0  0  0  0  3  0  0  0  0  0  0
  -23.6440   -8.5460   22.0300 C   0  0  0  0  0  3  0  0  0  0  0  0
  -22.4710   -8.1580   21.3370 C   0  0  0  0  0  0  0  0  0  0  0  0
  -21.9760   -9.0850   20.4070 C   0  0  0  0  0  3  0  0  0  0  0  0
  -22.5690  -10.3540   20.2020 C   0  0  0  0  0  3  0  0  0  0  0  0
  -21.7930   -6.9470   21.4130 O   0  0  0  0  0  0  0  0  0  0  0  0
  -21.7620   -6.1250   22.5220 C   0  0  0  0  0  0  0  0  0  0  0  0
  -21.4570   -6.6010   23.8160 C   0  0  0  0  0  3  0  0  0  0  0  0
  -21.3820   -5.7060   24.9050 C   0  0  0  0  0  3  0  0  0  0  0  0
  -21.6000   -4.3290   24.7090 C   0  0  0  0  0  0  0  0  0  0  0  0
  -21.8770   -3.8430   23.4200 C   0  0  0  0  0  3  0  0  0  0  0  0
  -21.9450   -4.7340   22.3320 C   0  0  0  0  0  0  0  0  0  0  0  0
  -22.1800   -4.2450   21.0910 F   0  0  0  0  0  0  0  0  0  0  0  0
  -21.5460   -3.4710   25.7560 F   0  0  0  0  0  0  0  0  0  0  0  0
  -22.5310  -14.0240   21.1480 C   0  0  0  0  0  0  0  0  0  0  0  0
  -21.9010  -13.1760   21.9870 N   0  0  0  0  0  0  0  0  0  0  0  0
  -21.9690  -14.9400   20.5870 O   0  0  0  0  0  0  0  0  0  0  0  0
  -22.3720  -12.3880   22.4020 H   0  0  0  0  0  0  0  0  0  0  0  0
  -20.9190  -13.3150   22.1840 H   0  0  0  0  0  0  0  0  0  0  0  0
  -26.7460  -15.5000   21.5990 N   0  0  0  0  0  4  0  0  0  0  0  0
  -25.9080  -15.8440   22.1230 H   0  0  0  0  0  0  0  0  0  0  0  0
  -27.1010  -16.2150   20.9770 H   0  0  0  0  0  0  0  0  0  0  0  0
  2  7  1  0
  7  9  1  0
  7 10  1  0
 11  8  1  0
 13 12  1  0
 16 27  2  0
 17 15  1  0
 17 22  1  0
 18 26  1  0
 18 28  1  0
 19 25  1  0
 19 21  1  0
 20 26  1  0
 21 22  2  0
 21 20  1  0
 23 17  2  0
 24 23  1  0
 24 19  2  0
 25 18  1  0
 26 16  1  0
 28 30  2  0
 29 28  1  0
 31 29  1  0
 32 41  2  0
 32 37  1  0
 33 29  1  0
 33 37  1  0
 34 33  1  0
 35 36  1  0
 35 34  1  0
 36 32  1  0
 37 38  2  0
 38 39  1  0
 40 39  2  0
 41 40  1  0
 42 16  1  0
 42 47  1  0
 42 43  1  0
 43 46  1  1
 43 44  1  0
 45 43  1  0
 47 50  1  0
 48 52  1  0
 48 47  1  0
 49 48  2  0
 52 51  1  0
 54 52  1  0
 54 55  1  0
 54 53  1  0
 56  1  1  0
 56 57  1  0
 58 65  1  0
 58 64  1  0
 60 61  1  0
 62 71  1  0
 62 63  1  0
 64 63  1  0
 66 58  1  0
 66 64  1  0
 67 66  1  0
 68 93  2  0
 69 88  1  0
 70 69  2  0
 71 68  1  0
 72 69  1  0
 72 68  1  0
 73 74  1  0
 74 75  2  0
 76 79  1  0
 76 75  1  0
 77 76  2  0
 78 77  1  0
 78 73  2  0
 79 80  1  0
 80 81  1  0
 81 82  2  0
 83 82  1  0
 83 87  1  0
 84 83  2  0
 85 80  2  0
 85 84  1  0
 86 85  1  0
 88 89  1  0
 89 92  1  0
 89 91  1  0
 90 88  2  0
 93 94  1  0
 95 93  1  0
M  ISO  4  14 101  15 101  58 100  66 100
M  END
>  <TORSDO>  (33) 
F 20

>  <SCORE>  (33) 
15.224

>  <name>  (33) 
32

>  <ligand_id>  (33) 
32

>  <original_smiles>  (33) 
[H]c1c([H])c([H])c2c(c1[H])C([H])([H])C([H])([H])C([H])([H])C2([H])N([H])C(=O)C1([H])N(C(=O)C([H])(N([H])C(=O)C([H])(N([H])C([H])([H])[H])C([H])([H])[H])C(C([H])([H])[H])(C([H])([H])[H])C([H])([H])[H])C([H])([H])c2c([H])c(OC([H])([H])C([H])(N([H])c3nc(N([H])[H])nc(C([H])([H])C([H])([H])N([H])C(=O)N4C([H])([H])C([H])([H])C([H])([H])C([H])(n5nc(-c6c([H])c([H])c(Oc7c([H])c([H])c(F)c([H])c7F)c([H])c6[H])c(C(=O)N([H])[H])c5N([H])[H])C4([H])[H])n3)C([H])([H])[H])c([H])c([H])c2C1([H])[H]

>  <smiles>  (33) 
[H]c1c([H])c([H])c2c(c1[H])C([H])([H])C([H])([H])C([H])([H])C2([H])N([H])C(=O)C1([H])N(C(=O)C([H])(N([H])C(=O)C([H])(N([H])C([H])([H])[H])C([H])([H])[H])C(C([H])([H])[H])(C([H])([H])[H])C([H])([H])[H])C([H])([H])c2c([H])c(OC([H])([H])C([H])(N([H])c3nc(N([H])[H])nc(C([H])([H])C([H])([H])N([H])C(=O)N4C([H])([H])C([H])([H])C([H])([H])C([H])(n5nc(-c6c([H])c([H])c(Oc7c([H])c([H])c(F)c([H])c7F)c([H])c6[H])c(C(=O)N([H])[H])c5N([H])[H])C4([H])[H])n3)C([H])([H])[H])c([H])c([H])c2C1([H])[H]

$$$$
33:0:0
     RDKit          3D

 94102  0  0  1  0  0  0  0  0999 V2000
  -28.3540  -21.5690   20.4880 C   0  0  0  0  0  2  0  0  0  0  0  0
  -30.8410  -17.7020   21.1290 C   0  0  0  0  0  3  0  0  0  0  0  0
  -28.6310  -18.5620   19.8400 C   0  0  0  0  0  0  0  0  0  0  0  0
  -29.8230  -16.7860   20.7570 C   0  0  0  0  0  0  0  0  0  0  0  0
  -29.6360  -19.4830   20.2610 C   0  0  0  0  0  0  0  0  0  0  0  0
  -27.4190  -18.9760   19.0240 C   0  0  0  0  0  1  0  0  0  0  0  0
  -30.7470  -19.0370   20.8920 N   0  0  0  0  0  0  0  0  0  0  0  0
  -28.7170  -17.2350   20.1130 N   0  0  0  0  0  0  0  0  0  0  0  0
  -29.5790  -20.8750   20.0720 N   0  0  0  0  0  0  0  0  0  0  0  0
  -30.4000  -21.3740   20.4040 H   0  0  0  0  0  0  0  0  0  0  0  0
  -30.6540  -14.4870   20.5410 C   0  0  0  0  0  0  0  0  0  0  0  0
  -30.4080  -12.3400   19.3490 C   0  0  0  0  0  2  0  0  0  0  0  0
  -29.4650  -12.5570   18.1450 C   0  0  0  0  0  2  0  0  0  0  0  0
  -27.9850  -12.4190   18.5590 C   0  0  0  0  0  2  0  0  0  0  0  0
  -27.6440  -13.2360   19.8330 C   0  0  0  0  0  3  0  0  0  0  0  0
  -28.6850  -12.9660   20.9420 C   0  0  0  0  0  2  0  0  0  0  0  0
  -30.0200  -13.2900   20.4010 N   0  0  0  0  0  0  0  0  0  0  0  0
  -31.7730  -14.7210   20.0720 O   0  0  0  0  0  0  0  0  0  0  0  0
  -29.9120  -15.4280   21.1490 N   0  0  0  0  0  0  0  0  0  0  0  0
  -29.0520  -15.0480   21.5070 H   0  0  0  0  0  0  0  0  0  0  0  0
  -25.2350  -13.8570   20.5010 C   0  0  0  0  0  0  0  0  0  0  0  0
  -24.1610  -13.0880   20.8590 C   0  0  0  0  0  0  0  0  0  0  0  0
  -24.6200  -11.7350   20.8460 C   0  0  0  0  0  0  0  0  0  0  0  0
  -26.2820  -12.9720   20.2920 N   0  0  0  0  0  0  0  0  0  0  0  0
  -25.9140  -11.6920   20.5540 N   0  0  0  0  0  0  0  0  0  0  0  0
  -23.8920  -10.4750   21.0360 C   0  0  0  0  0  0  0  0  0  0  0  0
  -24.3160   -9.5130   21.9780 C   0  0  0  0  0  3  0  0  0  0  0  0
  -23.5900   -8.3150   22.1550 C   0  0  0  0  0  3  0  0  0  0  0  0
  -22.4260   -8.0720   21.3890 C   0  0  0  0  0  0  0  0  0  0  0  0
  -22.0200   -9.0240   20.4350 C   0  0  0  0  0  3  0  0  0  0  0  0
  -22.7480  -10.2130   20.2570 C   0  0  0  0  0  3  0  0  0  0  0  0
  -21.6710   -6.9280   21.4730 O   0  0  0  0  0  0  0  0  0  0  0  0
  -21.6150   -6.1870   22.6270 C   0  0  0  0  0  0  0  0  0  0  0  0
  -21.1760   -6.7420   23.8490 C   0  0  0  0  0  3  0  0  0  0  0  0
  -21.0670   -5.9280   24.9940 C   0  0  0  0  0  3  0  0  0  0  0  0
  -21.3870   -4.5590   24.9170 C   0  0  0  0  0  0  0  0  0  0  0  0
  -21.8190   -4.0030   23.7000 C   0  0  0  0  0  3  0  0  0  0  0  0
  -21.9300   -4.8150   22.5570 C   0  0  0  0  0  0  0  0  0  0  0  0
  -22.3260   -4.2700   21.3820 F   0  0  0  0  0  0  0  0  0  0  0  0
  -21.2760   -3.7740   26.0140 F   0  0  0  0  0  0  0  0  0  0  0  0
  -22.7600  -13.5680   21.1120 C   0  0  0  0  0  0  0  0  0  0  0  0
  -22.0210  -12.8760   21.9720 N   0  0  0  0  0  0  0  0  0  0  0  0
  -22.3280  -14.5910   20.5820 O   0  0  0  0  0  0  0  0  0  0  0  0
  -22.3820  -12.0480   22.4230 H   0  0  0  0  0  0  0  0  0  0  0  0
  -21.0810  -13.1800   22.1830 H   0  0  0  0  0  0  0  0  0  0  0  0
  -25.4060  -15.2270   20.3190 N   0  0  0  0  0  0  0  0  0  0  0  0
  -24.6410  -15.8830   20.4240 H   0  0  0  0  0  0  0  0  0  0  0  0
  -26.2720  -15.6700   20.0340 H   0  0  0  0  0  0  0  0  0  0  0  0
  -28.6220  -22.9450   21.1600 C   0  0  0  0  0  3  0  0  0  0  0  0
  -29.8610  -22.8680   21.8500 O   0  0  0  0  0  0  0  0  0  0  0  0
  -29.8140  -22.1140   22.4310 H   0  0  0  0  0  0  0  0  0  0  0  0
  -28.5850  -24.1920   20.2300 C   0  0  0  0  0  2  0  0  0  0  0  0
  -28.3950  -25.5240   21.0070 C   0  0  0  0  0  2  0  0  0  0  0  0
  -28.4040  -26.7080   20.1880 O   0  0  0  0  0  0  0  0  0  0  0  0
  -24.5810  -31.9020   23.2520 C   0  0  0  0  0  0  0  0  0  0  0  0
  -27.2400  -27.4450   20.2050 C   0  0  0  0  0  0  0  0  0  0  0  0
  -23.3820  -30.4910   21.6110 C   0  0  0  0  0  3  0  0  0  0  0  0
  -24.8420  -28.9440   20.2010 C   0  0  0  0  0  0  0  0  0  0  0  0
  -25.9080  -30.8510   21.4200 C   0  0  0  0  0  2  0  0  0  0  0  0
  -25.9980  -29.4750   20.7890 C   0  0  0  0  0  0  0  0  0  0  0  0
  -27.2020  -28.7330   20.7870 C   0  0  0  0  0  3  0  0  0  0  0  0
  -26.0710  -26.9240   19.6150 C   0  0  0  0  0  3  0  0  0  0  0  0
  -24.8730  -27.6660   19.6130 C   0  0  0  0  0  3  0  0  0  0  0  0
  -23.5980  -29.8030   20.2360 C   0  0  0  0  0  2  0  0  0  0  0  0
  -24.6420  -31.0970   22.1530 N   0  0  0  0  0  0  0  0  0  0  0  0
  -23.4980  -32.1750   23.7870 O   0  0  0  0  0  0  0  0  0  0  0  0
  -22.7260  -29.4760   22.5730 C   0  0  0  0  0  0  0  0  0  0  0  0
  -21.4020  -29.2950   22.4440 N   0  0  0  0  0  0  0  0  0  0  0  0
  -23.4070  -28.8510   23.3910 O   0  0  0  0  0  0  0  0  0  0  0  0
  -20.9130  -29.8510   21.7560 H   0  0  0  0  0  0  0  0  0  0  0  0
  -18.0240  -28.1110   22.9430 C   0  0  0  0  0  0  0  0  0  0  0  0
  -20.5820  -28.3590   23.2140 C   0  0  0  0  0  3  0  0  0  0  0  0
  -20.6790  -26.9280   22.6380 C   0  0  0  0  0  2  0  0  0  0  0  0
  -19.5750  -26.6100   21.6240 C   0  0  0  0  0  2  0  0  0  0  0  0
  -18.1950  -26.7610   22.2680 C   0  0  0  0  0  2  0  0  0  0  0  0
  -19.1460  -28.8680   23.3730 C   0  0  0  0  0  0  0  0  0  0  0  0
  -18.9340  -30.1340   23.9630 C   0  0  0  0  0  3  0  0  0  0  0  0
  -17.6310  -30.6410   24.1280 C   0  0  0  0  0  3  0  0  0  0  0  0
  -16.5230  -29.8820   23.7150 C   0  0  0  0  0  3  0  0  0  0  0  0
  -16.7200  -28.6180   23.1290 C   0  0  0  0  0  3  0  0  0  0  0  0
  -25.8640  -32.5350   23.8740 C   0  0  0  0  0  3  0  0  0  0  0  0
  -25.5570  -33.9360   24.1910 N   0  0  0  0  0  0  0  0  0  0  0  0
  -25.9010  -34.9820   23.4280 C   0  0  0  0  0  0  0  0  0  0  0  0
  -26.5820  -34.8680   22.4050 O   0  0  0  0  0  0  0  0  0  0  0  0
  -24.9580  -34.0990   24.9870 H   0  0  0  0  0  0  0  0  0  0  0  0
  -24.1880  -36.7800   23.0330 C   0  0  0  0  0  1  0  0  0  0  0  0
  -25.4120  -36.3750   23.8690 C   0  0  0  0  0  3  0  0  0  0  0  0
  -27.5360  -37.2530   24.7350 C   0  0  0  0  0  1  0  0  0  0  0  0
  -26.4520  -37.4220   23.7700 N   0  0  0  0  0  0  0  0  0  0  0  0
  -26.0470  -38.3450   23.9040 H   0  0  0  0  0  0  0  0  0  0  0  0
  -26.3760  -31.7720   25.1570 C   0  0  1  0  0  0  0  0  0  0  0  0
  -25.2800  -31.5440   26.2240 C   0  0  0  0  0  1  0  0  0  0  0  0
  -26.9610  -30.3930   24.7740 C   0  0  0  0  0  1  0  0  0  0  0  0
  -27.5250  -32.5710   25.8190 C   0  0  0  0  0  1  0  0  0  0  0  0
  1 49  1  0
  3  8  2  0
  3  5  1  0
  4  2  2  0
  4 19  1  0
  5  7  2  0
  6  3  1  0
  7  2  1  0
  8  4  1  0
  9  5  1  0
  9 10  1  0
  9  1  1  0
 11 19  1  0
 12 17  1  0
 13 14  1  0
 13 12  1  0
 15 14  1  0
 15 24  1  0
 15 16  1  0
 17 11  1  0
 17 16  1  0
 18 11  2  0
 19 20  1  0
 21 22  2  0
 22 41  1  0
 23 22  1  0
 23 26  1  0
 24 21  1  0
 24 25  1  0
 25 23  2  0
 26 27  1  0
 27 28  2  0
 29 32  1  0
 29 28  1  0
 30 29  2  0
 31 30  1  0
 31 26  2  0
 32 33  1  0
 33 34  1  0
 34 35  2  0
 36 35  1  0
 36 40  1  0
 37 36  2  0
 38 33  2  0
 38 37  1  0
 39 38  1  0
 41 42  1  0
 42 45  1  0
 42 44  1  0
 43 41  2  0
 46 47  1  0
 46 21  1  0
 48 46  1  0
 49 52  1  0
 49 50  1  0
 50 51  1  0
 52 53  1  0
 54 56  1  0
 54 53  1  0
 55 66  2  0
 56 61  1  0
 57 65  1  0
 57 67  1  0
 58 64  1  0
 58 60  1  0
 59 65  1  0
 60 59  1  0
 61 60  2  0
 62 56  2  0
 63 62  1  0
 63 58  2  0
 64 57  1  0
 65 55  1  0
 67 69  2  0
 68 67  1  0
 70 68  1  0
 71 80  2  0
 71 76  1  0
 72 68  1  0
 72 76  1  0
 73 72  1  0
 74 75  1  0
 74 73  1  0
 75 71  1  0
 76 77  2  0
 77 78  1  0
 79 78  2  0
 80 79  1  0
 81 55  1  0
 81 82  1  0
 81 91  1  0
 82 85  1  0
 83 87  1  0
 83 82  1  0
 84 83  2  0
 87 86  1  0
 89 87  1  0
 89 90  1  0
 89 88  1  0
 91 94  1  1
 91 92  1  0
 93 91  1  0
M  ISO  4  11 100  19 100  53 101  54 101
M  END
>  <TORSDO>  (34) 
F 21

>  <SCORE>  (34) 
-14.093

>  <name>  (34) 
33

>  <ligand_id>  (34) 
33

>  <original_smiles>  (34) 
[H]OC([H])(C([H])([H])N([H])c1nc([H])c(N([H])C(=O)N2C([H])([H])C([H])([H])C([H])([H])C([H])(n3nc(-c4c([H])c([H])c(Oc5c([H])c([H])c(F)c([H])c5F)c([H])c4[H])c(C(=O)N([H])[H])c3N([H])[H])C2([H])[H])nc1C([H])([H])[H])C([H])([H])C([H])([H])Oc1c([H])c([H])c2c(c1[H])C([H])([H])N(C(=O)C([H])(N([H])C(=O)C([H])(N([H])C([H])([H])[H])C([H])([H])[H])C(C([H])([H])[H])(C([H])([H])[H])C([H])([H])[H])C([H])(C(=O)N([H])C1([H])c3c([H])c([H])c([H])c([H])c3C([H])([H])C([H])([H])C1([H])[H])C2([H])[H]

>  <smiles>  (34) 
[H]OC([H])(C([H])([H])N([H])c1nc([H])c(N([H])C(=O)N2C([H])([H])C([H])([H])C([H])([H])C([H])(n3nc(-c4c([H])c([H])c(Oc5c([H])c([H])c(F)c([H])c5F)c([H])c4[H])c(C(=O)N([H])[H])c3N([H])[H])C2([H])[H])nc1C([H])([H])[H])C([H])([H])C([H])([H])Oc1c([H])c([H])c2c(c1[H])C([H])([H])N(C(=O)C([H])(N([H])C(=O)C([H])(N([H])C([H])([H])[H])C([H])([H])[H])C(C([H])([H])[H])(C([H])([H])[H])C([H])([H])[H])C([H])(C(=O)N([H])C1([H])c3c([H])c([H])c([H])c([H])c3C([H])([H])C([H])([H])C1([H])[H])C2([H])[H]

$$$$
34:0:0
     RDKit          3D

103111  0  0  1  0  0  0  0  0999 V2000
  -35.3700  -20.6460   11.0790 C   0  0  0  0  0  0  0  0  0  0  0  0
  -34.7950  -20.0020    8.7310 C   0  0  0  0  0  2  0  0  0  0  0  0
  -34.5690  -18.4730    8.6790 C   0  0  0  0  0  2  0  0  0  0  0  0
  -35.9010  -17.7160    8.4980 C   0  0  0  0  0  2  0  0  0  0  0  0
  -37.0030  -18.2160    9.4680 C   0  0  0  0  0  3  0  0  0  0  0  0
  -37.0900  -19.7580    9.4440 C   0  0  0  0  0  2  0  0  0  0  0  0
  -35.7650  -20.2930    9.8100 N   0  0  0  0  0  0  0  0  0  0  0  0
  -34.2070  -21.0010   11.3100 O   0  0  0  0  0  0  0  0  0  0  0  0
  -38.7920  -19.0860   14.2300 C   0  0  0  0  0  3  0  0  0  0  0  0
  -38.1210  -19.7250   13.1830 C   0  0  0  0  0  3  0  0  0  0  0  0
  -38.0820  -18.6750   15.3720 C   0  0  0  0  0  0  0  0  0  0  0  0
  -36.7360  -19.9550   13.2260 C   0  0  0  0  0  0  0  0  0  0  0  0
  -36.6900  -18.9370   15.4150 C   0  0  0  0  0  0  0  0  0  0  0  0
  -36.0260  -19.5580   14.3580 N   0  0  0  0  0  0  0  0  0  0  0  0
  -36.3650  -20.6900   12.0150 N   0  0  0  0  0  0  0  0  0  0  0  0
  -37.2050  -20.8870   11.5000 H   0  0  0  0  0  0  0  0  0  0  0  0
  -39.5460  -17.9100    9.6880 C   0  0  0  0  0  0  0  0  0  0  0  0
  -40.4050  -16.9780    9.1700 C   0  0  0  0  0  0  0  0  0  0  0  0
  -39.6070  -16.1110    8.3640 C   0  0  0  0  0  0  0  0  0  0  0  0
  -38.2940  -17.5900    9.1880 N   0  0  0  0  0  0  0  0  0  0  0  0
  -38.3470  -16.5300    8.3420 N   0  0  0  0  0  0  0  0  0  0  0  0
  -39.9590  -14.8720    7.6590 C   0  0  0  0  0  0  0  0  0  0  0  0
  -41.1190  -14.1390    7.9890 C   0  0  0  0  0  3  0  0  0  0  0  0
  -41.4270  -12.9410    7.3080 C   0  0  0  0  0  3  0  0  0  0  0  0
  -40.5690  -12.4630    6.2890 C   0  0  0  0  0  0  0  0  0  0  0  0
  -39.4290  -13.2110    5.9460 C   0  0  0  0  0  3  0  0  0  0  0  0
  -39.1280  -14.4070    6.6210 C   0  0  0  0  0  3  0  0  0  0  0  0
  -40.8010  -11.3240    5.5580 O   0  0  0  0  0  0  0  0  0  0  0  0
  -39.9210  -10.8900    4.5990 C   0  0  0  0  0  0  0  0  0  0  0  0
  -39.6520  -11.6470    3.4380 C   0  0  0  0  0  3  0  0  0  0  0  0
  -38.7960  -11.1330    2.4440 C   0  0  0  0  0  3  0  0  0  0  0  0
  -38.2140   -9.8610    2.6050 C   0  0  0  0  0  0  0  0  0  0  0  0
  -38.4830   -9.1040    3.7590 C   0  0  0  0  0  3  0  0  0  0  0  0
  -39.3370   -9.6160    4.7510 C   0  0  0  0  0  0  0  0  0  0  0  0
  -39.6110   -8.8720    5.8510 F   0  0  0  0  0  0  0  0  0  0  0  0
  -37.3960   -9.3630    1.6480 F   0  0  0  0  0  0  0  0  0  0  0  0
  -41.8680  -16.8410    9.4800 C   0  0  0  0  0  0  0  0  0  0  0  0
  -42.6760  -16.5000    8.4830 N   0  0  0  0  0  0  0  0  0  0  0  0
  -42.3120  -17.0850   10.6020 O   0  0  0  0  0  0  0  0  0  0  0  0
  -42.3110  -16.3180    7.5590 H   0  0  0  0  0  0  0  0  0  0  0  0
  -43.6700  -16.4240    8.6440 H   0  0  0  0  0  0  0  0  0  0  0  0
  -39.7190  -18.9840   10.5550 N   0  0  0  0  0  0  0  0  0  0  0  0
  -40.6130  -19.2030   10.9800 H   0  0  0  0  0  0  0  0  0  0  0  0
  -38.9710  -19.5820   10.8790 H   0  0  0  0  0  0  0  0  0  0  0  0
  -38.7110  -18.0040   16.4430 N   0  0  0  0  0  0  0  0  0  0  0  0
  -38.9420  -17.0260   16.3220 H   0  0  0  0  0  0  0  0  0  0  0  0
  -38.6900  -18.4990   17.8260 C   0  0  0  0  0  3  0  0  0  0  0  0
  -39.5180  -20.3750   19.3680 C   0  0  0  0  0  1  0  0  0  0  0  0
  -38.4330  -20.9540   17.2170 C   0  0  0  0  0  1  0  0  0  0  0  0
  -40.7310  -19.9580   17.2150 C   0  0  0  0  0  1  0  0  0  0  0  0
  -39.3510  -19.9190   17.9050 C   0  0  2  0  0  0  0  0  0  0  0  0
  -39.2810  -15.9950   18.3900 C   0  0  0  0  0  1  0  0  0  0  0  0
  -39.2610  -17.4650   18.8650 C   0  0  0  0  0  3  0  0  0  0  0  0
  -39.4090  -17.1110   21.4280 C   0  0  0  0  0  1  0  0  0  0  0  0
  -38.5700  -17.6130   20.2430 C   0  0  0  0  0  2  0  0  0  0  0  0
  -36.0150  -18.3210   16.5180 N   0  0  0  0  0  0  0  0  0  0  0  0
  -35.0430  -18.5700   16.3580 H   0  0  0  0  0  0  0  0  0  0  0  0
  -35.6900  -15.9670   15.7710 C   0  0  0  0  0  1  0  0  0  0  0  0
  -36.0630  -16.8860   16.9460 C   0  0  0  0  0  3  0  0  0  0  0  0
  -35.2740  -16.4450   18.2760 C   0  0  0  0  0  2  0  0  0  0  0  0
  -34.4210  -17.4300   19.2060 C   0  0  0  0  0  2  0  0  0  0  0  0
  -34.5360  -19.0200   19.1300 C   0  0  0  0  0  2  0  0  0  0  0  0
  -33.5460  -19.8700   18.4320 O   0  0  0  0  0  0  0  0  0  0  0  0
  -30.1590  -26.2110   18.5830 C   0  0  0  0  0  0  0  0  0  0  0  0
  -33.6690  -21.2600   18.2830 C   0  0  0  0  0  0  0  0  0  0  0  0
  -32.3750  -26.1860   17.4860 C   0  0  0  0  0  3  0  0  0  0  0  0
  -33.7930  -24.0880   17.8750 C   0  0  0  0  0  0  0  0  0  0  0  0
  -31.8450  -24.5340   19.3730 C   0  0  0  0  0  2  0  0  0  0  0  0
  -32.8170  -23.5550   18.7230 C   0  0  0  0  0  0  0  0  0  0  0  0
  -32.7580  -22.1470   18.9330 C   0  0  0  0  0  3  0  0  0  0  0  0
  -34.6560  -21.8380   17.4560 C   0  0  0  0  0  3  0  0  0  0  0  0
  -34.7170  -23.2320   17.2470 C   0  0  0  0  0  3  0  0  0  0  0  0
  -33.7990  -25.5900   17.6710 C   0  0  0  0  0  2  0  0  0  0  0  0
  -31.3970  -25.6400   18.4830 N   0  0  0  0  0  0  0  0  0  0  0  0
  -29.8430  -27.1870   17.8900 O   0  0  0  0  0  0  0  0  0  0  0  0
  -31.9330  -25.9780   16.0180 C   0  0  0  0  0  0  0  0  0  0  0  0
  -32.3880  -26.8650   15.1170 N   0  0  0  0  0  0  0  0  0  0  0  0
  -31.2200  -25.0210   15.7070 O   0  0  0  0  0  0  0  0  0  0  0  0
  -32.9580  -27.6300   15.4510 H   0  0  0  0  0  0  0  0  0  0  0  0
  -31.4510  -28.8930   12.2720 C   0  0  0  0  0  0  0  0  0  0  0  0
  -32.1340  -26.8320   13.6760 C   0  0  0  0  0  3  0  0  0  0  0  0
  -33.4570  -26.8530   12.8740 C   0  0  0  0  0  2  0  0  0  0  0  0
  -33.8950  -28.2650   12.4720 C   0  0  0  0  0  2  0  0  0  0  0  0
  -32.8200  -28.9370   11.6140 C   0  0  0  0  0  2  0  0  0  0  0  0
  -31.1340  -27.9140   13.2520 C   0  0  0  0  0  0  0  0  0  0  0  0
  -29.8590  -27.9380   13.8590 C   0  0  0  0  0  3  0  0  0  0  0  0
  -28.9110  -28.9150   13.5020 C   0  0  0  0  0  3  0  0  0  0  0  0
  -29.2250  -29.8720   12.5200 C   0  0  0  0  0  3  0  0  0  0  0  0
  -30.4880  -29.8570   11.9050 C   0  0  0  0  0  3  0  0  0  0  0  0
  -29.0920  -25.6770   19.5890 C   0  0  0  0  0  3  0  0  0  0  0  0
  -27.6310  -25.6570   18.9940 C   0  0  1  0  0  0  0  0  0  0  0  0
  -27.1890  -27.0040   18.3770 C   0  0  0  0  0  1  0  0  0  0  0  0
  -27.5020  -24.5740   17.8980 C   0  0  0  0  0  1  0  0  0  0  0  0
  -26.6180  -25.2830   20.1020 C   0  0  0  0  0  1  0  0  0  0  0  0
  -29.1480  -26.5260   20.7900 N   0  0  0  0  0  0  0  0  0  0  0  0
  -29.7360  -26.1770   21.9430 C   0  0  0  0  0  0  0  0  0  0  0  0
  -30.2330  -25.0640   22.1290 O   0  0  0  0  0  0  0  0  0  0  0  0
  -28.8050  -27.4700   20.6910 H   0  0  0  0  0  0  0  0  0  0  0  0
  -31.1970  -27.8100   23.1770 C   0  0  0  0  0  1  0  0  0  0  0  0
  -29.7780  -27.2310   23.0670 C   0  0  0  0  0  3  0  0  0  0  0  0
  -27.9160  -26.4580   24.4690 C   0  0  0  0  0  1  0  0  0  0  0  0
  -29.3530  -26.7050   24.3830 N   0  0  0  0  0  0  0  0  0  0  0  0
  -29.6080  -27.3490   25.1270 H   0  0  0  0  0  0  0  0  0  0  0  0
  1  8  2  0
  1 15  1  0
  2  7  1  0
  3  2  1  0
  4  3  1  0
  5  4  1  0
  6  5  1  0
  6  7  1  0
  7  1  1  0
  9 11  1  0
 10 12  1  0
 10  9  2  0
 11 13  2  0
 11 45  1  0
 12 14  2  0
 13 56  1  0
 14 13  1  0
 15 12  1  0
 16 15  1  0
 17 42  1  0
 18 37  1  0
 18 17  2  0
 19 18  1  0
 20  5  1  0
 20 17  1  0
 21 19  2  0
 21 20  1  0
 22 23  1  0
 22 19  1  0
 24 23  2  0
 25 24  1  0
 26 25  2  0
 26 27  1  0
 27 22  2  0
 28 25  1  0
 29 34  1  0
 29 28  1  0
 30 29  2  0
 31 32  2  0
 31 30  1  0
 32 33  1  0
 33 34  2  0
 34 35  1  0
 36 32  1  0
 37 39  2  0
 38 41  1  0
 38 37  1  0
 40 38  1  0
 42 44  1  0
 42 43  1  0
 46 45  1  0
 47 45  1  0
 47 51  1  0
 47 53  1  0
 51 49  1  6
 50 51  1  0
 51 48  1  0
 53 52  1  0
 53 55  1  0
 55 54  1  0
 56 59  1  0
 57 56  1  0
 59 58  1  0
 59 60  1  0
 60 61  1  0
 62 61  1  0
 63 62  1  0
 65 63  1  0
 65 70  1  0
 66 76  1  0
 66 73  1  0
 66 74  1  0
 67 69  1  0
 69 70  2  0
 69 68  1  0
 71 65  2  0
 72 71  1  0
 72 67  2  0
 73 67  1  0
 74 64  1  0
 74 68  1  0
 75 64  2  0
 77 79  1  0
 77 76  1  0
 78 76  2  0
 80 85  1  0
 81 77  1  0
 82 81  1  0
 83 82  1  0
 84 80  1  0
 84 83  1  0
 85 81  1  0
 85 86  2  0
 87 86  1  0
 88 87  2  0
 89 80  2  0
 89 88  1  0
 90 64  1  0
 90 95  1  0
 91 90  1  0
 91 94  1  1
 92 91  1  0
 93 91  1  0
 95 96  1  0
 96 97  2  0
 96100  1  0
 98 95  1  0
100 99  1  0
100102  1  0
102101  1  0
102103  1  0
M  ISO  4   1 100  15 100  62 101  63 101
M  END
>  <TORSDO>  (35) 
F 25

>  <SCORE>  (35) 
-1.643

>  <name>  (35) 
34

>  <ligand_id>  (35) 
34

>  <original_smiles>  (35) 
[H]c1c(N([H])C(=O)N2C([H])([H])C([H])([H])C([H])([H])C([H])(n3nc(-c4c([H])c([H])c(Oc5c([H])c([H])c(F)c([H])c5F)c([H])c4[H])c(C(=O)N([H])[H])c3N([H])[H])C2([H])[H])nc(N([H])C([H])(C([H])([H])[H])C([H])([H])C([H])([H])C([H])([H])Oc2c([H])c([H])c3c(c2[H])C([H])([H])N(C(=O)C([H])(N([H])C(=O)C([H])(N([H])C([H])([H])[H])C([H])([H])[H])C(C([H])([H])[H])(C([H])([H])[H])C([H])([H])[H])C([H])(C(=O)N([H])C2([H])c4c([H])c([H])c([H])c([H])c4C([H])([H])C([H])([H])C2([H])[H])C3([H])[H])c(N([H])C([H])(C([H])(C([H])([H])[H])C([H])([H])C([H])([H])[H])C(C([H])([H])[H])(C([H])([H])[H])C([H])([H])[H])c1[H]

>  <smiles>  (35) 
[H]c1c(N([H])C(=O)N2C([H])([H])C([H])([H])C([H])([H])C([H])(n3nc(-c4c([H])c([H])c(Oc5c([H])c([H])c(F)c([H])c5F)c([H])c4[H])c(C(=O)N([H])[H])c3N([H])[H])C2([H])[H])nc(N([H])C([H])(C([H])([H])[H])C([H])([H])C([H])([H])C([H])([H])Oc2c([H])c([H])c3c(c2[H])C([H])([H])N(C(=O)C([H])(N([H])C(=O)C([H])(N([H])C([H])([H])[H])C([H])([H])[H])C(C([H])([H])[H])(C([H])([H])[H])C([H])([H])[H])C([H])(C(=O)N([H])C2([H])c4c([H])c([H])c([H])c([H])c4C([H])([H])C([H])([H])C2([H])[H])C3([H])[H])c(N([H])C([H])(C([H])(C([H])([H])[H])C([H])([H])C([H])([H])[H])C(C([H])([H])[H])(C([H])([H])[H])C([H])([H])[H])c1[H]

$$$$
35:0:0
     RDKit          3D

 96104  0  0  1  0  0  0  0  0999 V2000
  -30.6690  -14.5770   20.5360 C   0  0  0  0  0  0  0  0  0  0  0  0
  -30.3770  -12.4060   19.4080 C   0  0  0  0  0  2  0  0  0  0  0  0
  -29.4790  -12.6510   18.1760 C   0  0  0  0  0  2  0  0  0  0  0  0
  -27.9880  -12.5450   18.5570 C   0  0  0  0  0  2  0  0  0  0  0  0
  -27.6330  -13.3630   19.8300 C   0  0  0  0  0  3  0  0  0  0  0  0
  -28.6570  -13.1110   20.9610 C   0  0  0  0  0  2  0  0  0  0  0  0
  -30.0020  -13.3930   20.4330 N   0  0  0  0  0  0  0  0  0  0  0  0
  -31.8270  -14.7180   20.1240 O   0  0  0  0  0  0  0  0  0  0  0  0
  -29.6020  -16.8490   18.8570 C   0  0  0  0  0  3  0  0  0  0  0  0
  -29.3090  -18.0470   18.2070 C   0  0  0  0  0  0  0  0  0  0  0  0
  -29.7600  -16.8760   20.2610 C   0  0  0  0  0  0  0  0  0  0  0  0
  -29.3510  -19.1660   20.1800 C   0  0  0  0  0  0  0  0  0  0  0  0
  -29.1810  -19.1990   18.8660 N   0  0  0  0  0  0  0  0  0  0  0  0
  -29.6140  -18.0720   20.9060 N   0  0  0  0  0  0  0  0  0  0  0  0
  -29.9370  -15.6340   20.9600 N   0  0  0  0  0  0  0  0  0  0  0  0
  -29.2200  -20.3780   20.8400 N   0  0  0  0  0  0  0  0  0  0  0  0
  -29.1680  -15.3910   21.5630 H   0  0  0  0  0  0  0  0  0  0  0  0
  -29.5290  -20.4140   21.8030 H   0  0  0  0  0  0  0  0  0  0  0  0
  -25.2210  -13.9910   20.4630 C   0  0  0  0  0  0  0  0  0  0  0  0
  -24.1410  -13.2270   20.8170 C   0  0  0  0  0  0  0  0  0  0  0  0
  -24.5980  -11.8750   20.8230 C   0  0  0  0  0  0  0  0  0  0  0  0
  -26.2680  -13.1000   20.2740 N   0  0  0  0  0  0  0  0  0  0  0  0
  -25.8960  -11.8250   20.5490 N   0  0  0  0  0  0  0  0  0  0  0  0
  -23.8610  -10.6180   21.0140 C   0  0  0  0  0  0  0  0  0  0  0  0
  -24.2760   -9.6560   21.9610 C   0  0  0  0  0  3  0  0  0  0  0  0
  -23.5400   -8.4640   22.1400 C   0  0  0  0  0  3  0  0  0  0  0  0
  -22.3760   -8.2290   21.3730 C   0  0  0  0  0  0  0  0  0  0  0  0
  -21.9800   -9.1790   20.4140 C   0  0  0  0  0  3  0  0  0  0  0  0
  -22.7160  -10.3610   20.2330 C   0  0  0  0  0  3  0  0  0  0  0  0
  -21.6100   -7.0910   21.4630 O   0  0  0  0  0  0  0  0  0  0  0  0
  -21.5540   -6.3500   22.6170 C   0  0  0  0  0  0  0  0  0  0  0  0
  -21.1520   -6.9150   23.8470 C   0  0  0  0  0  3  0  0  0  0  0  0
  -21.0410   -6.1020   24.9930 C   0  0  0  0  0  3  0  0  0  0  0  0
  -21.3180   -4.7230   24.9080 C   0  0  0  0  0  0  0  0  0  0  0  0
  -21.7120   -4.1570   23.6820 C   0  0  0  0  0  3  0  0  0  0  0  0
  -21.8250   -4.9690   22.5400 C   0  0  0  0  0  0  0  0  0  0  0  0
  -22.1830   -4.4140   21.3560 F   0  0  0  0  0  0  0  0  0  0  0  0
  -21.2040   -3.9410   26.0070 F   0  0  0  0  0  0  0  0  0  0  0  0
  -22.7370  -13.7140   21.0420 C   0  0  0  0  0  0  0  0  0  0  0  0
  -21.9860  -13.0420   21.9080 N   0  0  0  0  0  0  0  0  0  0  0  0
  -22.3170  -14.7280   20.4890 O   0  0  0  0  0  0  0  0  0  0  0  0
  -22.3360  -12.2210   22.3800 H   0  0  0  0  0  0  0  0  0  0  0  0
  -21.0430  -13.3490   22.0980 H   0  0  0  0  0  0  0  0  0  0  0  0
  -25.3990  -15.3580   20.2710 N   0  0  0  0  0  0  0  0  0  0  0  0
  -24.6350  -16.0210   20.3560 H   0  0  0  0  0  0  0  0  0  0  0  0
  -26.2650  -15.7860   19.9690 H   0  0  0  0  0  0  0  0  0  0  0  0
  -29.0900  -18.1000   16.8390 N   0  0  0  0  0  0  0  0  0  0  0  0
  -29.3870  -17.3310   16.2530 H   0  0  0  0  0  0  0  0  0  0  0  0
  -29.0880  -19.0040   16.3810 H   0  0  0  0  0  0  0  0  0  0  0  0
  -29.1090  -21.6750   20.1520 C   0  0  0  0  0  2  0  0  0  0  0  0
  -28.8580  -22.8740   21.1100 C   0  0  0  0  0  3  0  0  0  0  0  0
  -29.9000  -22.8370   22.0750 O   0  0  0  0  0  0  0  0  0  0  0  0
  -29.7020  -23.4700   22.7580 H   0  0  0  0  0  0  0  0  0  0  0  0
  -28.8640  -24.2600   20.3850 C   0  0  0  0  0  2  0  0  0  0  0  0
  -28.4300  -25.4810   21.2470 C   0  0  0  0  0  2  0  0  0  0  0  0
  -28.5610  -26.7560   20.5820 O   0  0  0  0  0  0  0  0  0  0  0  0
  -24.5350  -31.9620   23.3230 C   0  0  0  0  0  0  0  0  0  0  0  0
  -27.3980  -27.4930   20.4960 C   0  0  0  0  0  0  0  0  0  0  0  0
  -23.4320  -30.4890   21.6690 C   0  0  0  0  0  3  0  0  0  0  0  0
  -24.9780  -28.9440   20.3550 C   0  0  0  0  0  0  0  0  0  0  0  0
  -25.9560  -30.9030   21.5670 C   0  0  0  0  0  2  0  0  0  0  0  0
  -26.1010  -29.5170   20.9680 C   0  0  0  0  0  0  0  0  0  0  0  0
  -27.3200  -28.8030   21.0240 C   0  0  0  0  0  3  0  0  0  0  0  0
  -26.2600  -26.9340   19.8810 C   0  0  0  0  0  3  0  0  0  0  0  0
  -25.0510  -27.6500   19.8100 C   0  0  0  0  0  3  0  0  0  0  0  0
  -23.7160  -29.7740   20.3220 C   0  0  0  0  0  2  0  0  0  0  0  0
  -24.6580  -31.1350   22.2470 N   0  0  0  0  0  0  0  0  0  0  0  0
  -23.4240  -32.2240   23.8090 O   0  0  0  0  0  0  0  0  0  0  0  0
  -22.7580  -29.4830   22.6300 C   0  0  0  0  0  0  0  0  0  0  0  0
  -21.4420  -29.2800   22.4570 N   0  0  0  0  0  0  0  0  0  0  0  0
  -23.4170  -28.8890   23.4860 O   0  0  0  0  0  0  0  0  0  0  0  0
  -20.9740  -29.8100   21.7360 H   0  0  0  0  0  0  0  0  0  0  0  0
  -18.0680  -28.0460   22.8510 C   0  0  0  0  0  0  0  0  0  0  0  0
  -20.6090  -28.3480   23.2180 C   0  0  0  0  0  3  0  0  0  0  0  0
  -20.7550  -26.9070   22.6790 C   0  0  0  0  0  2  0  0  0  0  0  0
  -19.6980  -26.5430   21.6310 C   0  0  0  0  0  2  0  0  0  0  0  0
  -18.2910  -26.6820   22.2170 C   0  0  0  0  0  2  0  0  0  0  0  0
  -19.1580  -28.8330   23.3070 C   0  0  0  0  0  0  0  0  0  0  0  0
  -18.9010  -30.1060   23.8590 C   0  0  0  0  0  3  0  0  0  0  0  0
  -17.5840  -30.5920   23.9650 C   0  0  0  0  0  3  0  0  0  0  0  0
  -16.5070  -29.8040   23.5250 C   0  0  0  0  0  3  0  0  0  0  0  0
  -16.7490  -28.5340   22.9730 C   0  0  0  0  0  3  0  0  0  0  0  0
  -25.7790  -32.6350   23.9820 C   0  0  0  0  0  3  0  0  0  0  0  0
  -25.4270  -34.0340   24.2560 N   0  0  0  0  0  0  0  0  0  0  0  0
  -25.7740  -35.0730   23.4840 C   0  0  0  0  0  0  0  0  0  0  0  0
  -26.4930  -34.9560   22.4860 O   0  0  0  0  0  0  0  0  0  0  0  0
  -24.7840  -34.1970   25.0170 H   0  0  0  0  0  0  0  0  0  0  0  0
  -24.0200  -36.8150   23.0150 C   0  0  0  0  0  1  0  0  0  0  0  0
  -25.2410  -36.4630   23.8800 C   0  0  0  0  0  3  0  0  0  0  0  0
  -27.3290  -37.4180   24.7530 C   0  0  0  0  0  1  0  0  0  0  0  0
  -26.2540  -37.5370   23.7710 N   0  0  0  0  0  0  0  0  0  0  0  0
  -25.8220  -38.4500   23.8830 H   0  0  0  0  0  0  0  0  0  0  0  0
  -26.2520  -31.9110   25.3020 C   0  0  1  0  0  0  0  0  0  0  0  0
  -25.1180  -31.6840   26.3280 C   0  0  0  0  0  1  0  0  0  0  0  0
  -26.8780  -30.5350   24.9760 C   0  0  0  0  0  1  0  0  0  0  0  0
  -27.3520  -32.7510   25.9920 C   0  0  0  0  0  1  0  0  0  0  0  0
  1 15  1  0
  2  7  1  0
  3  4  1  0
  3  2  1  0
  5  4  1  0
  5 22  1  0
  5  6  1  0
  7  1  1  0
  7  6  1  0
  8  1  2  0
  9 11  1  0
 10  9  2  0
 10 13  1  0
 11 14  2  0
 11 15  1  0
 12 16  1  0
 12 14  1  0
 13 12  2  0
 15 17  1  0
 16 18  1  0
 19 20  2  0
 20 21  1  0
 20 39  1  0
 21 24  1  0
 22 19  1  0
 22 23  1  0
 23 21  2  0
 24 25  1  0
 25 26  2  0
 27 30  1  0
 27 26  1  0
 28 27  2  0
 29 28  1  0
 29 24  2  0
 30 31  1  0
 31 32  1  0
 32 33  2  0
 34 33  1  0
 34 38  1  0
 35 34  2  0
 36 31  2  0
 36 35  1  0
 37 36  1  0
 39 40  1  0
 40 43  1  0
 40 42  1  0
 41 39  2  0
 44 45  1  0
 44 19  1  0
 46 44  1  0
 47 10  1  0
 48 47  1  0
 49 47  1  0
 50 16  1  0
 51 50  1  0
 51 52  1  0
 52 53  1  0
 54 51  1  0
 54 55  1  0
 56 55  1  0
 57 68  2  0
 58 56  1  0
 58 63  1  0
 59 67  1  0
 59 69  1  0
 60 62  1  0
 61 67  1  0
 62 63  2  0
 62 61  1  0
 64 58  2  0
 65 64  1  0
 65 60  2  0
 66 60  1  0
 66 59  1  0
 67 57  1  0
 69 71  2  0
 70 69  1  0
 72 70  1  0
 73 82  2  0
 73 78  1  0
 74 70  1  0
 74 78  1  0
 75 74  1  0
 76 77  1  0
 76 75  1  0
 77 73  1  0
 78 79  2  0
 79 80  1  0
 81 80  2  0
 82 81  1  0
 83 57  1  0
 83 84  1  0
 83 93  1  0
 84 87  1  0
 85 89  1  0
 85 84  1  0
 86 85  2  0
 89 88  1  0
 91 89  1  0
 91 92  1  0
 91 90  1  0
 93 96  1  1
 93 94  1  0
 95 93  1  0
M  ISO  4   1 100  15 100  55 101  56 101
M  END
>  <TORSDO>  (36) 
F 21

>  <SCORE>  (36) 
-13.962

>  <name>  (36) 
35

>  <ligand_id>  (36) 
35

>  <original_smiles>  (36) 
[H]OC([H])(C([H])([H])N([H])c1nc(N([H])[H])c([H])c(N([H])C(=O)N2C([H])([H])C([H])([H])C([H])([H])C([H])(n3nc(-c4c([H])c([H])c(Oc5c([H])c([H])c(F)c([H])c5F)c([H])c4[H])c(C(=O)N([H])[H])c3N([H])[H])C2([H])[H])n1)C([H])([H])C([H])([H])Oc1c([H])c([H])c2c(c1[H])C([H])([H])N(C(=O)C([H])(N([H])C(=O)C([H])(N([H])C([H])([H])[H])C([H])([H])[H])C(C([H])([H])[H])(C([H])([H])[H])C([H])([H])[H])C([H])(C(=O)N([H])C1([H])c3c([H])c([H])c([H])c([H])c3C([H])([H])C([H])([H])C1([H])[H])C2([H])[H]

>  <smiles>  (36) 
[H]OC([H])(C([H])([H])N([H])c1nc(N([H])[H])c([H])c(N([H])C(=O)N2C([H])([H])C([H])([H])C([H])([H])C([H])(n3nc(-c4c([H])c([H])c(Oc5c([H])c([H])c(F)c([H])c5F)c([H])c4[H])c(C(=O)N([H])[H])c3N([H])[H])C2([H])[H])n1)C([H])([H])C([H])([H])Oc1c([H])c([H])c2c(c1[H])C([H])([H])N(C(=O)C([H])(N([H])C(=O)C([H])(N([H])C([H])([H])[H])C([H])([H])[H])C(C([H])([H])[H])(C([H])([H])[H])C([H])([H])[H])C([H])(C(=O)N([H])C1([H])c3c([H])c([H])c([H])c([H])c3C([H])([H])C([H])([H])C1([H])[H])C2([H])[H]

$$$$
36:0:0
     RDKit          3D

 97105  0  0  1  0  0  0  0  0999 V2000
  -31.0090  -20.7210   21.5780 C   0  0  0  0  0  1  0  0  0  0  0  0
  -30.2780  -20.4960   20.2420 C   0  0  0  0  0  3  0  0  0  0  0  0
  -28.1880  -18.9980   20.1600 C   0  0  0  0  0  3  0  0  0  0  0  0
  -28.3330  -16.6070   20.5090 C   0  0  0  0  0  3  0  0  0  0  0  0
  -27.5550  -17.7550   20.2850 C   0  0  0  0  0  0  0  0  0  0  0  0
  -29.5910  -19.0950   20.2710 C   0  0  0  0  0  3  0  0  0  0  0  0
  -29.7450  -16.6750   20.5840 C   0  0  0  0  0  0  0  0  0  0  0  0
  -30.3120  -17.9320   20.4620 N   0  0  0  0  0  0  0  0  0  0  0  0
  -31.3280  -18.0180   20.5690 H   0  0  0  0  0  0  0  0  0  0  0  0
  -30.9540  -14.4660   20.1430 C   0  0  0  0  0  0  0  0  0  0  0  0
  -30.6790  -12.1580   19.2320 C   0  0  0  0  0  2  0  0  0  0  0  0
  -29.7390  -12.1980   18.0040 C   0  0  0  0  0  2  0  0  0  0  0  0
  -28.2600  -12.1180   18.4310 C   0  0  0  0  0  2  0  0  0  0  0  0
  -27.9220  -13.1080   19.5770 C   0  0  0  0  0  3  0  0  0  0  0  0
  -28.9650  -12.9990   20.7160 C   0  0  0  0  0  2  0  0  0  0  0  0
  -30.3030  -13.2560   20.1460 N   0  0  0  0  0  0  0  0  0  0  0  0
  -32.0040  -14.6330   19.5010 O   0  0  0  0  0  0  0  0  0  0  0  0
  -30.4100  -15.4290   20.9320 N   0  0  0  0  0  0  0  0  0  0  0  0
  -29.9160  -14.9520   21.6650 H   0  0  0  0  0  0  0  0  0  0  0  0
  -25.5640  -13.8660   20.2790 C   0  0  0  0  0  0  0  0  0  0  0  0
  -24.4610  -13.1680   20.6880 C   0  0  0  0  0  0  0  0  0  0  0  0
  -24.8420  -11.7910   20.6830 C   0  0  0  0  0  0  0  0  0  0  0  0
  -26.5570  -12.9210   20.0660 N   0  0  0  0  0  0  0  0  0  0  0  0
  -26.1240  -11.6690   20.3620 N   0  0  0  0  0  0  0  0  0  0  0  0
  -24.0430  -10.5800   20.9080 C   0  0  0  0  0  0  0  0  0  0  0  0
  -24.4380   -9.5970   21.8420 C   0  0  0  0  0  3  0  0  0  0  0  0
  -23.6440   -8.4490   22.0520 C   0  0  0  0  0  3  0  0  0  0  0  0
  -22.4410   -8.2750   21.3300 C   0  0  0  0  0  0  0  0  0  0  0  0
  -22.0620   -9.2450   20.3860 C   0  0  0  0  0  3  0  0  0  0  0  0
  -22.8550  -10.3840   20.1730 C   0  0  0  0  0  3  0  0  0  0  0  0
  -21.6210   -7.1790   21.4500 O   0  0  0  0  0  0  0  0  0  0  0  0
  -21.5580   -6.4500   22.6110 C   0  0  0  0  0  0  0  0  0  0  0  0
  -21.2230   -7.0470   23.8470 C   0  0  0  0  0  3  0  0  0  0  0  0
  -21.1030   -6.2500   25.0030 C   0  0  0  0  0  3  0  0  0  0  0  0
  -21.3070   -4.8600   24.9260 C   0  0  0  0  0  0  0  0  0  0  0  0
  -21.6370   -4.2640   23.6950 C   0  0  0  0  0  3  0  0  0  0  0  0
  -21.7590   -5.0580   22.5410 C   0  0  0  0  0  0  0  0  0  0  0  0
  -22.0560   -4.4760   21.3540 F   0  0  0  0  0  0  0  0  0  0  0  0
  -21.1830   -4.0930   26.0340 F   0  0  0  0  0  0  0  0  0  0  0  0
  -23.1000  -13.7360   20.9660 C   0  0  0  0  0  0  0  0  0  0  0  0
  -22.3490  -13.1170   21.8700 N   0  0  0  0  0  0  0  0  0  0  0  0
  -22.7140  -14.7670   20.4160 O   0  0  0  0  0  0  0  0  0  0  0  0
  -22.6730  -12.2820   22.3340 H   0  0  0  0  0  0  0  0  0  0  0  0
  -21.4360  -13.4840   22.1000 H   0  0  0  0  0  0  0  0  0  0  0  0
  -25.7950  -15.2160   20.0440 N   0  0  0  0  0  0  0  0  0  0  0  0
  -24.9620  -15.7830   19.9270 H   0  0  0  0  0  0  0  0  0  0  0  0
  -26.5060  -15.4610   19.3680 H   0  0  0  0  0  0  0  0  0  0  0  0
  -26.1660  -17.6570   20.2110 N   0  0  0  0  0  0  0  0  0  0  0  0
  -25.6900  -18.4260   19.7570 H   0  0  0  0  0  0  0  0  0  0  0  0
  -25.8360  -16.7630   19.8560 H   0  0  0  0  0  0  0  0  0  0  0  0
  -29.3490  -21.6330   19.9470 N   0  0  0  0  0  0  0  0  0  0  0  0
  -28.4750  -21.4670   20.4320 H   0  0  0  0  0  0  0  0  0  0  0  0
  -30.9430  -23.4000   19.2130 C   0  0  0  0  0  1  0  0  0  0  0  0
  -29.7640  -23.0510   20.1380 C   0  0  0  0  0  3  0  0  0  0  0  0
  -28.5990  -24.0950   19.9010 C   0  0  0  0  0  2  0  0  0  0  0  0
  -28.7080  -25.4640   20.6740 C   0  0  0  0  0  2  0  0  0  0  0  0
  -28.5690  -26.7000   19.9260 O   0  0  0  0  0  0  0  0  0  0  0  0
  -24.5550  -31.7310   23.1290 C   0  0  0  0  0  0  0  0  0  0  0  0
  -27.3750  -27.3990   20.0050 C   0  0  0  0  0  0  0  0  0  0  0  0
  -23.4180  -30.3360   21.4330 C   0  0  0  0  0  3  0  0  0  0  0  0
  -24.9390  -28.8600   20.0070 C   0  0  0  0  0  0  0  0  0  0  0  0
  -25.9400  -30.7590   21.2900 C   0  0  0  0  0  2  0  0  0  0  0  0
  -26.0750  -29.3990   20.6260 C   0  0  0  0  0  0  0  0  0  0  0  0
  -27.2970  -28.6780   20.6170 C   0  0  0  0  0  3  0  0  0  0  0  0
  -26.2210  -26.8780   19.3870 C   0  0  0  0  0  3  0  0  0  0  0  0
  -25.0090  -27.5990   19.3850 C   0  0  0  0  0  3  0  0  0  0  0  0
  -23.6730  -29.6890   20.0450 C   0  0  0  0  0  2  0  0  0  0  0  0
  -24.6540  -30.9570   22.0090 N   0  0  0  0  0  0  0  0  0  0  0  0
  -23.4580  -31.9620   23.6550 O   0  0  0  0  0  0  0  0  0  0  0  0
  -22.7730  -29.2790   22.3590 C   0  0  0  0  0  0  0  0  0  0  0  0
  -21.4520  -29.0830   22.2210 N   0  0  0  0  0  0  0  0  0  0  0  0
  -23.4620  -28.6370   23.1570 O   0  0  0  0  0  0  0  0  0  0  0  0
  -20.9560  -29.6540   21.5520 H   0  0  0  0  0  0  0  0  0  0  0  0
  -18.0940  -27.8300   22.6760 C   0  0  0  0  0  0  0  0  0  0  0  0
  -20.6480  -28.1080   22.9570 C   0  0  0  0  0  3  0  0  0  0  0  0
  -20.7670  -26.7010   22.3300 C   0  0  0  0  0  2  0  0  0  0  0  0
  -19.6690  -26.4030   21.3040 C   0  0  0  0  0  2  0  0  0  0  0  0
  -18.2850  -26.5080   21.9520 C   0  0  0  0  0  2  0  0  0  0  0  0
  -19.2020  -28.5880   23.1350 C   0  0  0  0  0  0  0  0  0  0  0  0
  -18.9690  -29.8270   23.7720 C   0  0  0  0  0  3  0  0  0  0  0  0
  -17.6600  -30.3070   23.9540 C   0  0  0  0  0  3  0  0  0  0  0  0
  -16.5640  -29.5450   23.5120 C   0  0  0  0  0  3  0  0  0  0  0  0
  -16.7820  -28.3080   22.8800 C   0  0  0  0  0  3  0  0  0  0  0  0
  -25.8110  -32.3830   23.7880 C   0  0  0  0  0  3  0  0  0  0  0  0
  -25.4620  -33.7670   24.1360 N   0  0  0  0  0  0  0  0  0  0  0  0
  -25.7810  -34.8400   23.4000 C   0  0  0  0  0  0  0  0  0  0  0  0
  -26.4700  -34.7710   22.3790 O   0  0  0  0  0  0  0  0  0  0  0  0
  -24.8520  -33.8940   24.9300 H   0  0  0  0  0  0  0  0  0  0  0  0
  -24.0080  -36.5890   23.0540 C   0  0  0  0  0  1  0  0  0  0  0  0
  -25.2520  -36.2080   23.8730 C   0  0  0  0  0  3  0  0  0  0  0  0
  -27.3560  -37.1350   24.7340 C   0  0  0  0  0  1  0  0  0  0  0  0
  -26.2560  -37.2900   23.7840 N   0  0  0  0  0  0  0  0  0  0  0  0
  -25.8250  -38.1960   23.9440 H   0  0  0  0  0  0  0  0  0  0  0  0
  -26.3250  -31.6000   25.0590 C   0  0  1  0  0  0  0  0  0  0  0  0
  -25.2200  -31.3210   26.1050 C   0  0  0  0  0  1  0  0  0  0  0  0
  -26.9430  -30.2430   24.6500 C   0  0  0  0  0  1  0  0  0  0  0  0
  -27.4480  -32.4070   25.7530 C   0  0  0  0  0  1  0  0  0  0  0  0
  2  1  1  0
  3  6  1  0
  3  5  2  0
  4  7  2  0
  5  4  1  0
  6  2  1  0
  6  8  1  0
  7 18  1  0
  8  9  1  0
  8  7  1  0
 10 16  1  0
 10 18  1  0
 11 16  1  0
 12 13  1  0
 12 11  1  0
 14 13  1  0
 14 23  1  0
 14 15  1  0
 16 15  1  0
 17 10  2  0
 18 19  1  0
 20 21  2  0
 21 40  1  0
 22 21  1  0
 22 25  1  0
 23 20  1  0
 23 24  1  0
 24 22  2  0
 25 26  1  0
 26 27  2  0
 28 31  1  0
 28 27  1  0
 29 28  2  0
 30 29  1  0
 30 25  2  0
 31 32  1  0
 32 33  1  0
 33 34  2  0
 35 34  1  0
 35 39  1  0
 36 35  2  0
 37 32  2  0
 37 36  1  0
 38 37  1  0
 40 41  1  0
 41 44  1  0
 41 43  1  0
 42 40  2  0
 45 20  1  0
 46 45  1  0
 47 45  1  0
 48  5  1  0
 49 48  1  0
 50 48  1  0
 51 54  1  0
 51  2  1  0
 51 52  1  0
 54 53  1  0
 55 54  1  0
 55 56  1  0
 57 59  1  0
 57 56  1  0
 58 69  2  0
 59 64  1  0
 60 68  1  0
 60 70  1  0
 61 67  1  0
 61 63  1  0
 62 68  1  0
 63 62  1  0
 64 63  2  0
 65 59  2  0
 66 65  1  0
 66 61  2  0
 67 60  1  0
 68 58  1  0
 70 72  2  0
 71 70  1  0
 73 71  1  0
 74 83  2  0
 74 79  1  0
 75 71  1  0
 75 79  1  0
 76 75  1  0
 77 78  1  0
 77 76  1  0
 78 74  1  0
 79 80  2  0
 80 81  1  0
 82 81  2  0
 83 82  1  0
 84 58  1  0
 84 85  1  0
 84 94  1  0
 85 88  1  0
 86 90  1  0
 86 85  1  0
 87 86  2  0
 90 89  1  0
 92 90  1  0
 92 93  1  0
 92 91  1  0
 94 97  1  1
 94 95  1  0
 96 94  1  0
M  ISO  4  10 100  18 100  56 101  57 101
M  END
>  <TORSDO>  (37) 
F 22

>  <SCORE>  (37) 
-13.518

>  <name>  (37) 
36

>  <ligand_id>  (37) 
36

>  <original_smiles>  (37) 
[H]c1c([H])c([H])c2c(c1[H])C([H])([H])C([H])([H])C([H])([H])C2([H])N([H])C(=O)C1([H])N(C(=O)C([H])(N([H])C(=O)C([H])(N([H])C([H])([H])[H])C([H])([H])[H])C(C([H])([H])[H])(C([H])([H])[H])C([H])([H])[H])C([H])([H])c2c([H])c(OC([H])([H])C([H])([H])C([H])(N([H])C([H])(c3c([H])c(N([H])[H])c([H])c(N([H])C(=O)N4C([H])([H])C([H])([H])C([H])([H])C([H])(n5nc(-c6c([H])c([H])c(Oc7c([H])c([H])c(F)c([H])c7F)c([H])c6[H])c(C(=O)N([H])[H])c5N([H])[H])C4([H])[H])[n+]3[H])C([H])([H])[H])C([H])([H])[H])c([H])c([H])c2C1([H])[H]

>  <smiles>  (37) 
[H]c1c([H])c([H])c2c(c1[H])C([H])([H])C([H])([H])C([H])([H])C2([H])N([H])C(=O)C1([H])N(C(=O)C([H])(N([H])C(=O)C([H])(N([H])C([H])([H])[H])C([H])([H])[H])C(C([H])([H])[H])(C([H])([H])[H])C([H])([H])[H])C([H])([H])c2c([H])c(OC([H])([H])C([H])([H])C([H])(N([H])C([H])(c3c([H])c(N([H])[H])c([H])c(N([H])C(=O)N4C([H])([H])C([H])([H])C([H])([H])C([H])(n5nc(-c6c([H])c([H])c(Oc7c([H])c([H])c(F)c([H])c7F)c([H])c6[H])c(C(=O)N([H])[H])c5N([H])[H])C4([H])[H])[n+]3[H])C([H])([H])[H])C([H])([H])[H])c([H])c([H])c2C1([H])[H]

$$$$
37:0:0
     RDKit          3D

 99107  0  0  1  0  0  0  0  0999 V2000
  -30.7190  -21.1370   20.6430 C   0  0  0  0  0  0  0  0  0  0  0  0
  -31.9430  -21.6100   20.9350 N   0  0  0  0  0  4  0  0  0  0  0  0
  -29.7290  -22.0200   20.3760 N   0  0  0  0  0  0  0  0  0  0  0  0
  -32.6810  -20.9260   21.0170 H   0  0  0  0  0  0  0  0  0  0  0  0
  -32.1950  -22.5830   20.8870 H   0  0  0  0  0  0  0  0  0  0  0  0
  -28.8220  -21.6600   20.0990 H   0  0  0  0  0  0  0  0  0  0  0  0
  -31.5950  -17.6060   20.7990 C   0  0  0  0  0  3  0  0  0  0  0  0
  -30.5230  -19.6600   20.6450 C   0  0  0  0  0  0  0  0  0  0  0  0
  -30.3470  -16.9170   20.8230 C   0  0  0  0  0  0  0  0  0  0  0  0
  -29.2690  -18.9790   20.6710 C   0  0  0  0  0  0  0  0  0  0  0  0
  -31.6860  -18.9560   20.7030 N   0  0  0  0  0  0  0  0  0  0  0  0
  -29.1960  -17.6320   20.7430 N   0  0  0  0  0  0  0  0  0  0  0  0
  -28.0240  -19.6010   20.6470 N   0  0  0  0  0  0  0  0  0  0  0  0
  -27.9380  -20.5190   21.0610 H   0  0  0  0  0  0  0  0  0  0  0  0
  -27.2340  -19.0070   20.8760 H   0  0  0  0  0  0  0  0  0  0  0  0
  -30.9230  -14.5140   20.3720 C   0  0  0  0  0  0  0  0  0  0  0  0
  -30.5940  -12.3460   19.2570 C   0  0  0  0  0  2  0  0  0  0  0  0
  -29.6490  -12.5690   18.0580 C   0  0  0  0  0  2  0  0  0  0  0  0
  -28.1750  -12.4410   18.4940 C   0  0  0  0  0  2  0  0  0  0  0  0
  -27.8500  -13.2800   19.7600 C   0  0  0  0  0  3  0  0  0  0  0  0
  -28.9160  -13.0610   20.8590 C   0  0  0  0  0  2  0  0  0  0  0  0
  -30.2450  -13.3370   20.2830 N   0  0  0  0  0  0  0  0  0  0  0  0
  -32.0390  -14.6770   19.8720 O   0  0  0  0  0  0  0  0  0  0  0  0
  -30.2300  -15.5040   20.9570 N   0  0  0  0  0  0  0  0  0  0  0  0
  -29.3620  -15.1960   21.3600 H   0  0  0  0  0  0  0  0  0  0  0  0
  -25.4680  -13.9060   20.5050 C   0  0  0  0  0  0  0  0  0  0  0  0
  -24.3950  -13.1430   20.8790 C   0  0  0  0  0  0  0  0  0  0  0  0
  -24.8390  -11.7860   20.8300 C   0  0  0  0  0  0  0  0  0  0  0  0
  -26.5010  -13.0180   20.2530 N   0  0  0  0  0  0  0  0  0  0  0  0
  -26.1250  -11.7360   20.5030 N   0  0  0  0  0  0  0  0  0  0  0  0
  -24.0990  -10.5310   21.0160 C   0  0  0  0  0  0  0  0  0  0  0  0
  -24.5120   -9.5630   21.9580 C   0  0  0  0  0  3  0  0  0  0  0  0
  -23.7730   -8.3740   22.1340 C   0  0  0  0  0  3  0  0  0  0  0  0
  -22.6080   -8.1430   21.3650 C   0  0  0  0  0  0  0  0  0  0  0  0
  -22.2130   -9.0980   20.4120 C   0  0  0  0  0  3  0  0  0  0  0  0
  -22.9530  -10.2790   20.2350 C   0  0  0  0  0  3  0  0  0  0  0  0
  -21.8430   -7.0040   21.4480 O   0  0  0  0  0  0  0  0  0  0  0  0
  -21.7500   -6.2800   22.6100 C   0  0  0  0  0  0  0  0  0  0  0  0
  -21.2630   -6.8510   23.8060 C   0  0  0  0  0  3  0  0  0  0  0  0
  -21.1180   -6.0540   24.9590 C   0  0  0  0  0  3  0  0  0  0  0  0
  -21.4500   -4.6850   24.9160 C   0  0  0  0  0  0  0  0  0  0  0  0
  -21.9320   -4.1150   23.7240 C   0  0  0  0  0  3  0  0  0  0  0  0
  -22.0770   -4.9100   22.5740 C   0  0  0  0  0  0  0  0  0  0  0  0
  -22.5200   -4.3490   21.4230 F   0  0  0  0  0  0  0  0  0  0  0  0
  -21.3050   -3.9170   26.0200 F   0  0  0  0  0  0  0  0  0  0  0  0
  -23.0060  -13.6340   21.1750 C   0  0  0  0  0  0  0  0  0  0  0  0
  -22.2810  -12.9490   22.0530 N   0  0  0  0  0  0  0  0  0  0  0  0
  -22.5710  -14.6660   20.6640 O   0  0  0  0  0  0  0  0  0  0  0  0
  -22.6400  -12.1120   22.4890 H   0  0  0  0  0  0  0  0  0  0  0  0
  -21.3520  -13.2680   22.2920 H   0  0  0  0  0  0  0  0  0  0  0  0
  -25.6420  -15.2780   20.3440 N   0  0  0  0  0  0  0  0  0  0  0  0
  -24.8780  -15.9330   20.4650 H   0  0  0  0  0  0  0  0  0  0  0  0
  -26.5040  -15.7270   20.0620 H   0  0  0  0  0  0  0  0  0  0  0  0
  -29.7810  -23.4880   20.5760 C   0  0  0  0  0  2  0  0  0  0  0  0
  -28.4160  -24.1720   20.3160 C   0  0  0  0  0  3  0  0  0  0  0  0
  -27.3970  -23.3760   20.9200 O   0  0  0  0  0  0  0  0  0  0  0  0
  -27.5000  -23.4320   21.8660 H   0  0  0  0  0  0  0  0  0  0  0  0
  -28.3370  -25.6340   20.8580 C   0  0  0  0  0  2  0  0  0  0  0  0
  -28.3340  -26.6650   19.8550 O   0  0  0  0  0  0  0  0  0  0  0  0
  -24.5780  -31.7550   23.1190 C   0  0  0  0  0  0  0  0  0  0  0  0
  -27.1940  -27.4310   19.8690 C   0  0  0  0  0  0  0  0  0  0  0  0
  -23.3540  -30.4040   21.4440 C   0  0  0  0  0  3  0  0  0  0  0  0
  -24.7970  -28.9210   19.9490 C   0  0  0  0  0  0  0  0  0  0  0  0
  -25.8750  -30.7790   21.2290 C   0  0  0  0  0  2  0  0  0  0  0  0
  -25.9580  -29.4320   20.5440 C   0  0  0  0  0  0  0  0  0  0  0  0
  -27.1630  -28.6930   20.5040 C   0  0  0  0  0  3  0  0  0  0  0  0
  -26.0230  -26.9300   19.2670 C   0  0  0  0  0  3  0  0  0  0  0  0
  -24.8240  -27.6700   19.3050 C   0  0  0  0  0  3  0  0  0  0  0  0
  -23.5490  -29.7720   20.0390 C   0  0  0  0  0  2  0  0  0  0  0  0
  -24.6190  -30.9910   21.9900 N   0  0  0  0  0  0  0  0  0  0  0  0
  -23.5030  -32.0050   23.6810 O   0  0  0  0  0  0  0  0  0  0  0  0
  -22.7190  -29.3490   22.3780 C   0  0  0  0  0  0  0  0  0  0  0  0
  -21.3930  -29.1720   22.2670 N   0  0  0  0  0  0  0  0  0  0  0  0
  -23.4160  -28.6940   23.1580 O   0  0  0  0  0  0  0  0  0  0  0  0
  -20.8900  -29.7590   21.6160 H   0  0  0  0  0  0  0  0  0  0  0  0
  -18.0240  -27.9730   22.7850 C   0  0  0  0  0  0  0  0  0  0  0  0
  -20.5880  -28.2070   23.0150 C   0  0  0  0  0  3  0  0  0  0  0  0
  -20.6710  -26.8000   22.3800 C   0  0  0  0  0  2  0  0  0  0  0  0
  -19.5470  -26.5230   21.3770 C   0  0  0  0  0  2  0  0  0  0  0  0
  -18.1800  -26.6510   22.0540 C   0  0  0  0  0  2  0  0  0  0  0  0
  -19.1550  -28.7110   23.2230 C   0  0  0  0  0  0  0  0  0  0  0  0
  -18.9580  -29.9520   23.8680 C   0  0  0  0  0  3  0  0  0  0  0  0
  -17.6600  -30.4540   24.0800 C   0  0  0  0  0  3  0  0  0  0  0  0
  -16.5420  -29.7110   23.6570 C   0  0  0  0  0  3  0  0  0  0  0  0
  -16.7250  -28.4730   23.0150 C   0  0  0  0  0  3  0  0  0  0  0  0
  -25.8720  -32.3680   23.7420 C   0  0  0  0  0  3  0  0  0  0  0  0
  -25.5700  -33.7570   24.1090 N   0  0  0  0  0  0  0  0  0  0  0  0
  -25.9000  -34.8270   23.3740 C   0  0  0  0  0  0  0  0  0  0  0  0
  -26.5660  -34.7480   22.3380 O   0  0  0  0  0  0  0  0  0  0  0  0
  -24.9830  -33.8930   24.9190 H   0  0  0  0  0  0  0  0  0  0  0  0
  -24.1750  -36.6330   23.0670 C   0  0  0  0  0  1  0  0  0  0  0  0
  -25.4150  -36.2040   23.8660 C   0  0  0  0  0  3  0  0  0  0  0  0
  -27.5460  -37.0710   24.7270 C   0  0  0  0  0  1  0  0  0  0  0  0
  -26.4500  -37.2570   23.7800 N   0  0  0  0  0  0  0  0  0  0  0  0
  -26.0440  -38.1760   23.9400 H   0  0  0  0  0  0  0  0  0  0  0  0
  -26.4030  -31.5620   24.9910 C   0  0  1  0  0  0  0  0  0  0  0  0
  -25.3210  -31.2940   26.0620 C   0  0  0  0  0  1  0  0  0  0  0  0
  -26.9860  -30.1970   24.5540 C   0  0  0  0  0  1  0  0  0  0  0  0
  -27.5550  -32.3410   25.6670 C   0  0  0  0  0  1  0  0  0  0  0  0
  1  8  1  0
  1  2  2  0
  2  4  1  0
  3 54  1  0
  3  1  1  0
  5  2  1  0
  6  3  1  0
  7  9  1  0
  8 10  2  0
  8 11  1  0
  9 24  1  0
 10 12  1  0
 11  7  2  0
 12  9  2  0
 13 10  1  0
 13 15  1  0
 13 14  1  0
 16 24  1  0
 17 22  1  0
 18 19  1  0
 18 17  1  0
 20 19  1  0
 20 29  1  0
 20 21  1  0
 22 16  1  0
 22 21  1  0
 23 16  2  0
 24 25  1  0
 26 27  2  0
 27 46  1  0
 28 27  1  0
 28 31  1  0
 29 30  1  0
 29 26  1  0
 30 28  2  0
 31 32  1  0
 32 33  2  0
 34 37  1  0
 34 33  1  0
 35 34  2  0
 36 35  1  0
 36 31  2  0
 37 38  1  0
 38 39  1  0
 39 40  2  0
 41 40  1  0
 41 45  1  0
 42 41  2  0
 43 38  2  0
 43 42  1  0
 44 43  1  0
 46 47  1  0
 47 50  1  0
 47 49  1  0
 48 46  2  0
 51 52  1  0
 51 26  1  0
 53 51  1  0
 55 54  1  0
 55 58  1  0
 55 56  1  0
 56 57  1  0
 59 61  1  0
 59 58  1  0
 60 71  2  0
 61 66  1  0
 62 70  1  0
 62 72  1  0
 63 69  1  0
 63 65  1  0
 64 70  1  0
 65 64  1  0
 66 65  2  0
 67 68  1  0
 67 61  2  0
 68 63  2  0
 69 62  1  0
 70 60  1  0
 72 74  2  0
 73 72  1  0
 75 73  1  0
 76 85  2  0
 76 81  1  0
 77 73  1  0
 77 81  1  0
 78 77  1  0
 79 80  1  0
 79 78  1  0
 80 76  1  0
 81 82  2  0
 82 83  1  0
 84 83  2  0
 85 84  1  0
 86 60  1  0
 86 87  1  0
 86 96  1  0
 87 90  1  0
 88 92  1  0
 88 87  1  0
 89 88  2  0
 92 91  1  0
 94 92  1  0
 94 95  1  0
 94 93  1  0
 96 99  1  1
 96 97  1  0
 98 96  1  0
M  ISO  4  16 100  24 100  58 101  59 101
M  END
>  <TORSDO>  (38) 
F 21

>  <SCORE>  (38) 
-13.968

>  <name>  (38) 
37

>  <ligand_id>  (38) 
37

>  <original_smiles>  (38) 
[H]OC([H])(C([H])([H])Oc1c([H])c([H])c2c(c1[H])C([H])([H])N(C(=O)C([H])(N([H])C(=O)C([H])(N([H])C([H])([H])[H])C([H])([H])[H])C(C([H])([H])[H])(C([H])([H])[H])C([H])([H])[H])C([H])(C(=O)N([H])C1([H])c3c([H])c([H])c([H])c([H])c3C([H])([H])C([H])([H])C1([H])[H])C2([H])[H])C([H])([H])[N+]([H])=C(c1nc([H])c(N([H])C(=O)N2C([H])([H])C([H])([H])C([H])([H])C([H])(n3nc(-c4c([H])c([H])c(Oc5c([H])c([H])c(F)c([H])c5F)c([H])c4[H])c(C(=O)N([H])[H])c3N([H])[H])C2([H])[H])nc1N([H])[H])N([H])[H]

>  <smiles>  (38) 
[H]OC([H])(C([H])([H])Oc1c([H])c([H])c2c(c1[H])C([H])([H])N(C(=O)C([H])(N([H])C(=O)C([H])(N([H])C([H])([H])[H])C([H])([H])[H])C(C([H])([H])[H])(C([H])([H])[H])C([H])([H])[H])C([H])(C(=O)N([H])C1([H])c3c([H])c([H])c([H])c([H])c3C([H])([H])C([H])([H])C1([H])[H])C2([H])[H])C([H])([H])[N+]([H])=C(c1nc([H])c(N([H])C(=O)N2C([H])([H])C([H])([H])C([H])([H])C([H])(n3nc(-c4c([H])c([H])c(Oc5c([H])c([H])c(F)c([H])c5F)c([H])c4[H])c(C(=O)N([H])[H])c3N([H])[H])C2([H])[H])nc1N([H])[H])N([H])[H]

$$$$
38:0:0
     RDKit          3D

 95103  0  0  1  0  0  0  0  0999 V2000
  -28.1230  -21.9110   22.3910 C   0  0  0  0  0  1  0  0  0  0  0  0
  -28.8680  -21.7790   21.0510 C   0  0  0  0  0  3  0  0  0  0  0  0
  -30.8870  -14.7450   20.1200 C   0  0  0  0  0  0  0  0  0  0  0  0
  -30.5700  -12.5350   19.0720 C   0  0  0  0  0  2  0  0  0  0  0  0
  -29.5990  -12.6970   17.8840 C   0  0  0  0  0  2  0  0  0  0  0  0
  -28.1410  -12.5480   18.3590 C   0  0  0  0  0  2  0  0  0  0  0  0
  -27.8240  -13.4100   19.6120 C   0  0  0  0  0  3  0  0  0  0  0  0
  -28.9160  -13.2580   20.6950 C   0  0  0  0  0  2  0  0  0  0  0  0
  -30.2130  -13.5580   20.0720 N   0  0  0  0  0  0  0  0  0  0  0  0
  -32.0440  -14.8180   19.6990 O   0  0  0  0  0  0  0  0  0  0  0  0
  -31.6630  -17.7340   19.8070 C   0  0  0  0  0  3  0  0  0  0  0  0
  -31.8380  -19.1110   19.6180 C   0  0  0  0  0  0  0  0  0  0  0  0
  -30.4190  -17.2540   20.2720 C   0  0  0  0  0  0  0  0  0  0  0  0
  -29.7130  -19.4860   20.3190 C   0  0  0  0  0  0  0  0  0  0  0  0
  -33.1400  -19.6710   19.0890 C   0  0  0  0  0  1  0  0  0  0  0  0
  -30.8560  -19.9850   19.8850 N   0  0  0  0  0  0  0  0  0  0  0  0
  -29.4490  -18.1860   20.5160 N   0  0  0  0  0  0  0  0  0  0  0  0
  -30.1630  -15.8420   20.4790 N   0  0  0  0  0  0  0  0  0  0  0  0
  -28.6910  -20.3960   20.5510 N   0  0  0  0  0  0  0  0  0  0  0  0
  -29.2420  -15.6290   20.8230 H   0  0  0  0  0  0  0  0  0  0  0  0
  -27.8270  -19.9490   20.8290 H   0  0  0  0  0  0  0  0  0  0  0  0
  -25.4560  -13.9910   20.4260 C   0  0  0  0  0  0  0  0  0  0  0  0
  -24.4050  -13.2070   20.8180 C   0  0  0  0  0  0  0  0  0  0  0  0
  -24.8680  -11.8580   20.7450 C   0  0  0  0  0  0  0  0  0  0  0  0
  -26.4940  -13.1190   20.1390 N   0  0  0  0  0  0  0  0  0  0  0  0
  -26.1470  -11.8290   20.3900 N   0  0  0  0  0  0  0  0  0  0  0  0
  -24.1520  -10.5900   20.9360 C   0  0  0  0  0  0  0  0  0  0  0  0
  -24.5660   -9.6450   21.9010 C   0  0  0  0  0  3  0  0  0  0  0  0
  -23.8510   -8.4420   22.0770 C   0  0  0  0  0  3  0  0  0  0  0  0
  -22.7060   -8.1740   21.2890 C   0  0  0  0  0  0  0  0  0  0  0  0
  -22.3110   -9.1090   20.3150 C   0  0  0  0  0  3  0  0  0  0  0  0
  -23.0280  -10.3030   20.1360 C   0  0  0  0  0  3  0  0  0  0  0  0
  -21.9610   -7.0220   21.3750 O   0  0  0  0  0  0  0  0  0  0  0  0
  -21.8250   -6.3400   22.5560 C   0  0  0  0  0  0  0  0  0  0  0  0
  -21.2160   -6.9250   23.6890 C   0  0  0  0  0  3  0  0  0  0  0  0
  -21.0330   -6.1640   24.8610 C   0  0  0  0  0  3  0  0  0  0  0  0
  -21.4470   -4.8200   24.9010 C   0  0  0  0  0  0  0  0  0  0  0  0
  -22.0490   -4.2340   23.7740 C   0  0  0  0  0  3  0  0  0  0  0  0
  -22.2340   -4.9920   22.6030 C   0  0  0  0  0  0  0  0  0  0  0  0
  -22.7950   -4.4160   21.5120 F   0  0  0  0  0  0  0  0  0  0  0  0
  -21.2640   -4.0870   26.0240 F   0  0  0  0  0  0  0  0  0  0  0  0
  -23.0170  -13.6740   21.1500 C   0  0  0  0  0  0  0  0  0  0  0  0
  -22.3150  -12.9490   22.0130 N   0  0  0  0  0  0  0  0  0  0  0  0
  -22.5650  -14.7180   20.6790 O   0  0  0  0  0  0  0  0  0  0  0  0
  -22.6930  -12.1050   22.4160 H   0  0  0  0  0  0  0  0  0  0  0  0
  -21.3850  -13.2440   22.2750 H   0  0  0  0  0  0  0  0  0  0  0  0
  -25.6110  -15.3650   20.2690 N   0  0  0  0  0  0  0  0  0  0  0  0
  -24.8480  -16.0130   20.4240 H   0  0  0  0  0  0  0  0  0  0  0  0
  -26.4440  -15.8180   19.9130 H   0  0  0  0  0  0  0  0  0  0  0  0
  -28.4670  -22.8880   20.0060 C   0  0  0  0  0  2  0  0  0  0  0  0
  -28.2770  -24.3690   20.5150 C   0  0  0  0  0  3  0  0  0  0  0  0
  -26.9560  -24.4650   21.0280 O   0  0  0  0  0  0  0  0  0  0  0  0
  -26.8860  -23.8730   21.7670 H   0  0  0  0  0  0  0  0  0  0  0  0
  -28.4340  -25.4710   19.4140 C   0  0  0  0  0  2  0  0  0  0  0  0
  -28.4010  -26.8470   19.8880 O   0  0  0  0  0  0  0  0  0  0  0  0
  -24.6020  -31.9140   23.2050 C   0  0  0  0  0  0  0  0  0  0  0  0
  -27.2140  -27.5710   19.9130 C   0  0  0  0  0  0  0  0  0  0  0  0
  -23.3780  -30.5680   21.5320 C   0  0  0  0  0  3  0  0  0  0  0  0
  -24.8150  -29.0960   20.0260 C   0  0  0  0  0  0  0  0  0  0  0  0
  -25.9030  -30.9400   21.3090 C   0  0  0  0  0  2  0  0  0  0  0  0
  -25.9840  -29.5940   20.6120 C   0  0  0  0  0  0  0  0  0  0  0  0
  -27.1840  -28.8400   20.5510 C   0  0  0  0  0  3  0  0  0  0  0  0
  -26.0150  -27.0990   19.3300 C   0  0  0  0  0  3  0  0  0  0  0  0
  -24.8270  -27.8490   19.3820 C   0  0  0  0  0  3  0  0  0  0  0  0
  -23.5690  -29.9470   20.1240 C   0  0  0  0  0  2  0  0  0  0  0  0
  -24.6480  -31.1550   22.0730 N   0  0  0  0  0  0  0  0  0  0  0  0
  -23.5280  -32.1560   23.7730 O   0  0  0  0  0  0  0  0  0  0  0  0
  -22.7490  -29.5060   22.4630 C   0  0  0  0  0  0  0  0  0  0  0  0
  -21.4260  -29.3060   22.3390 N   0  0  0  0  0  0  0  0  0  0  0  0
  -23.4470  -28.8650   23.2520 O   0  0  0  0  0  0  0  0  0  0  0  0
  -20.9210  -29.8770   21.6740 H   0  0  0  0  0  0  0  0  0  0  0  0
  -18.0710  -28.0640   22.8420 C   0  0  0  0  0  0  0  0  0  0  0  0
  -20.6300  -28.3310   23.0830 C   0  0  0  0  0  3  0  0  0  0  0  0
  -20.7330  -26.9250   22.4480 C   0  0  0  0  0  2  0  0  0  0  0  0
  -19.6170  -26.6350   21.4390 C   0  0  0  0  0  2  0  0  0  0  0  0
  -18.2450  -26.7440   22.1110 C   0  0  0  0  0  2  0  0  0  0  0  0
  -19.1910  -28.8160   23.2860 C   0  0  0  0  0  0  0  0  0  0  0  0
  -18.9730  -30.0530   23.9300 C   0  0  0  0  0  3  0  0  0  0  0  0
  -17.6680  -30.5380   24.1360 C   0  0  0  0  0  3  0  0  0  0  0  0
  -16.5620  -29.7820   23.7100 C   0  0  0  0  0  3  0  0  0  0  0  0
  -16.7650  -28.5480   23.0690 C   0  0  0  0  0  3  0  0  0  0  0  0
  -25.8930  -32.5300   23.8290 C   0  0  0  0  0  3  0  0  0  0  0  0
  -26.4140  -31.7390   25.0910 C   0  0  1  0  0  0  0  0  0  0  0  0
  -25.3240  -31.4840   26.1580 C   0  0  0  0  0  1  0  0  0  0  0  0
  -26.9970  -30.3680   24.6750 C   0  0  0  0  0  1  0  0  0  0  0  0
  -27.5660  -32.5230   25.7640 C   0  0  0  0  0  1  0  0  0  0  0  0
  -25.5930  -33.9250   24.1780 N   0  0  0  0  0  0  0  0  0  0  0  0
  -25.9360  -34.9870   23.4360 C   0  0  0  0  0  0  0  0  0  0  0  0
  -26.6110  -34.8930   22.4060 O   0  0  0  0  0  0  0  0  0  0  0  0
  -24.9950  -34.0720   24.9780 H   0  0  0  0  0  0  0  0  0  0  0  0
  -24.2400  -36.8080   23.0770 C   0  0  0  0  0  1  0  0  0  0  0  0
  -25.4560  -36.3710   23.9100 C   0  0  0  0  0  3  0  0  0  0  0  0
  -27.5710  -37.2180   24.8250 C   0  0  0  0  0  1  0  0  0  0  0  0
  -26.5040  -37.4120   23.8460 N   0  0  0  0  0  0  0  0  0  0  0  0
  -26.1050  -38.3350   23.9910 H   0  0  0  0  0  0  0  0  0  0  0  0
  2  1  1  0
  3 18  1  0
  4  9  1  0
  5  6  1  0
  5  4  1  0
  7  6  1  0
  7 25  1  0
  7  8  1  0
  9  3  1  0
  9  8  1  0
 10  3  2  0
 11 13  1  0
 12 11  2  0
 12 16  1  0
 13 18  1  0
 13 17  2  0
 14 17  1  0
 14 19  1  0
 15 12  1  0
 16 14  2  0
 18 20  1  0
 19 21  1  0
 19  2  1  0
 22 23  2  0
 23 42  1  0
 24 23  1  0
 24 27  1  0
 25 26  1  0
 25 22  1  0
 26 24  2  0
 27 28  1  0
 28 29  2  0
 30 33  1  0
 30 29  1  0
 31 30  2  0
 32 31  1  0
 32 27  2  0
 33 34  1  0
 34 39  2  0
 34 35  1  0
 35 36  2  0
 36 37  1  0
 37 41  1  0
 38 37  2  0
 39 38  1  0
 40 39  1  0
 42 43  1  0
 43 46  1  0
 43 45  1  0
 44 42  2  0
 47 48  1  0
 47 22  1  0
 49 47  1  0
 50 51  1  0
 50  2  1  0
 51 54  1  0
 51 52  1  0
 52 53  1  0
 54 55  1  0
 55 57  1  0
 56 67  2  0
 57 62  1  0
 58 66  1  0
 58 68  1  0
 59 65  1  0
 59 61  1  0
 60 66  1  0
 61 60  1  0
 62 61  2  0
 63 64  1  0
 63 57  2  0
 64 59  2  0
 65 58  1  0
 66 56  1  0
 68 70  2  0
 69 68  1  0
 71 69  1  0
 72 81  2  0
 72 77  1  0
 73 69  1  0
 73 77  1  0
 74 73  1  0
 75 76  1  0
 75 74  1  0
 76 72  1  0
 77 78  2  0
 78 79  1  0
 80 79  2  0
 81 80  1  0
 82 56  1  0
 82 87  1  0
 82 83  1  0
 83 86  1  1
 83 84  1  0
 85 83  1  0
 87 90  1  0
 88 92  1  0
 88 87  1  0
 89 88  2  0
 92 91  1  0
 94 92  1  0
 94 95  1  0
 94 93  1  0
M  ISO  4   3 100  18 100  54 101  55 101
M  END
>  <TORSDO>  (39) 
F 20

>  <SCORE>  (39) 
-13.559

>  <name>  (39) 
38

>  <ligand_id>  (39) 
38

>  <original_smiles>  (39) 
[H]OC([H])(C([H])([H])Oc1c([H])c([H])c2c(c1[H])C([H])([H])N(C(=O)C([H])(N([H])C(=O)C([H])(N([H])C([H])([H])[H])C([H])([H])[H])C(C([H])([H])[H])(C([H])([H])[H])C([H])([H])[H])C([H])(C(=O)N([H])C1([H])c3c([H])c([H])c([H])c([H])c3C([H])([H])C([H])([H])C1([H])[H])C2([H])[H])C([H])([H])C([H])(N([H])c1nc(N([H])C(=O)N2C([H])([H])C([H])([H])C([H])([H])C([H])(n3nc(-c4c([H])c([H])c(Oc5c([H])c([H])c(F)c([H])c5F)c([H])c4[H])c(C(=O)N([H])[H])c3N([H])[H])C2([H])[H])c([H])c(C([H])([H])[H])n1)C([H])([H])[H]

>  <smiles>  (39) 
[H]OC([H])(C([H])([H])Oc1c([H])c([H])c2c(c1[H])C([H])([H])N(C(=O)C([H])(N([H])C(=O)C([H])(N([H])C([H])([H])[H])C([H])([H])[H])C(C([H])([H])[H])(C([H])([H])[H])C([H])([H])[H])C([H])(C(=O)N([H])C1([H])c3c([H])c([H])c([H])c([H])c3C([H])([H])C([H])([H])C1([H])[H])C2([H])[H])C([H])([H])C([H])(N([H])c1nc(N([H])C(=O)N2C([H])([H])C([H])([H])C([H])([H])C([H])(n3nc(-c4c([H])c([H])c(Oc5c([H])c([H])c(F)c([H])c5F)c([H])c4[H])c(C(=O)N([H])[H])c3N([H])[H])C2([H])[H])c([H])c(C([H])([H])[H])n1)C([H])([H])[H]

$$$$
39:0:0
     RDKit          3D

 97105  0  0  1  0  0  0  0  0999 V2000
  -29.0060  -21.1780   21.2920 N   0  0  0  0  0  0  0  0  0  0  0  0
  -29.4300  -21.2210   22.2140 H   0  0  0  0  0  0  0  0  0  0  0  0
  -28.9920  -19.8890   19.1700 C   0  0  0  0  0  3  0  0  0  0  0  0
  -30.2260  -17.9060   20.5510 C   0  0  0  0  0  0  0  0  0  0  0  0
  -29.2820  -20.0220   20.5540 C   0  0  0  0  0  0  0  0  0  0  0  0
  -29.9830  -17.8260   19.1460 C   0  0  0  0  0  0  0  0  0  0  0  0
  -29.3510  -18.7970   18.4660 N   0  0  0  0  0  0  0  0  0  0  0  0
  -29.8730  -19.0210   21.2450 N   0  0  0  0  0  0  0  0  0  0  0  0
  -30.3740  -16.7670   18.3460 N   0  0  0  0  0  0  0  0  0  0  0  0
  -31.0720  -16.1270   18.7050 H   0  0  0  0  0  0  0  0  0  0  0  0
  -30.4630  -16.9570   17.3540 H   0  0  0  0  0  0  0  0  0  0  0  0
  -30.9260  -16.8160   21.3660 C   0  0  0  0  0  2  0  0  0  0  0  0
  -30.8730  -14.4650   20.5560 C   0  0  0  0  0  0  0  0  0  0  0  0
  -30.4850  -12.3410   19.3710 C   0  0  0  0  0  2  0  0  0  0  0  0
  -29.5850  -12.5950   18.1480 C   0  0  0  0  0  2  0  0  0  0  0  0
  -28.1010  -12.4890   18.5450 C   0  0  0  0  0  2  0  0  0  0  0  0
  -27.7510  -13.3050   19.8210 C   0  0  0  0  0  3  0  0  0  0  0  0
  -28.7880  -13.0860   20.9480 C   0  0  0  0  0  2  0  0  0  0  0  0
  -30.1330  -13.3350   20.4010 N   0  0  0  0  0  0  0  0  0  0  0  0
  -31.9590  -14.6320   19.9940 O   0  0  0  0  0  0  0  0  0  0  0  0
  -30.3280  -15.4690   21.2580 N   0  0  0  0  0  0  0  0  0  0  0  0
  -29.4200  -15.3250   21.6700 H   0  0  0  0  0  0  0  0  0  0  0  0
  -25.3340  -13.8940   20.4770 C   0  0  0  0  0  0  0  0  0  0  0  0
  -24.2640  -13.1170   20.8370 C   0  0  0  0  0  0  0  0  0  0  0  0
  -24.7330  -11.7690   20.8240 C   0  0  0  0  0  0  0  0  0  0  0  0
  -26.3900  -13.0190   20.2760 N   0  0  0  0  0  0  0  0  0  0  0  0
  -26.0280  -11.7340   20.5420 N   0  0  0  0  0  0  0  0  0  0  0  0
  -24.0050  -10.5040   21.0110 C   0  0  0  0  0  0  0  0  0  0  0  0
  -24.4190   -9.5460   21.9630 C   0  0  0  0  0  3  0  0  0  0  0  0
  -23.6910   -8.3490   22.1380 C   0  0  0  0  0  3  0  0  0  0  0  0
  -22.5330   -8.1030   21.3610 C   0  0  0  0  0  0  0  0  0  0  0  0
  -22.1400   -9.0490   20.3990 C   0  0  0  0  0  3  0  0  0  0  0  0
  -22.8680  -10.2360   20.2220 C   0  0  0  0  0  3  0  0  0  0  0  0
  -21.7770   -6.9590   21.4480 O   0  0  0  0  0  0  0  0  0  0  0  0
  -21.6970   -6.2310   22.6100 C   0  0  0  0  0  0  0  0  0  0  0  0
  -21.2310   -6.7980   23.8160 C   0  0  0  0  0  3  0  0  0  0  0  0
  -21.1040   -5.9980   24.9680 C   0  0  0  0  0  3  0  0  0  0  0  0
  -21.4290   -4.6300   24.9160 C   0  0  0  0  0  0  0  0  0  0  0  0
  -21.8830   -4.0590   23.7130 C   0  0  0  0  0  3  0  0  0  0  0  0
  -22.0150   -4.8590   22.5620 C   0  0  0  0  0  0  0  0  0  0  0  0
  -22.4350   -4.3000   21.4030 F   0  0  0  0  0  0  0  0  0  0  0  0
  -21.2990   -3.8560   26.0200 F   0  0  0  0  0  0  0  0  0  0  0  0
  -22.8590  -13.5900   21.0810 C   0  0  0  0  0  0  0  0  0  0  0  0
  -22.1150  -12.8940   21.9350 N   0  0  0  0  0  0  0  0  0  0  0  0
  -22.4280  -14.6110   20.5500 O   0  0  0  0  0  0  0  0  0  0  0  0
  -22.4680  -12.0680   22.3940 H   0  0  0  0  0  0  0  0  0  0  0  0
  -21.1730  -13.1960   22.1350 H   0  0  0  0  0  0  0  0  0  0  0  0
  -25.4850  -15.2640   20.2870 N   0  0  0  0  0  0  0  0  0  0  0  0
  -24.7090  -15.9110   20.3790 H   0  0  0  0  0  0  0  0  0  0  0  0
  -26.3400  -15.7090   19.9720 H   0  0  0  0  0  0  0  0  0  0  0  0
  -28.9450  -22.4580   20.5860 C   0  0  0  0  0  2  0  0  0  0  0  0
  -30.0100  -23.4380   21.0980 C   0  0  0  0  0  3  0  0  0  0  0  0
  -31.2520  -22.8910   20.6830 O   0  0  0  0  0  0  0  0  0  0  0  0
  -31.9590  -23.4700   20.9540 H   0  0  0  0  0  0  0  0  0  0  0  0
  -29.8500  -24.8520   20.4940 C   0  0  0  0  0  2  0  0  0  0  0  0
  -28.4610  -25.4900   20.7210 C   0  0  0  0  0  2  0  0  0  0  0  0
  -28.4600  -26.8150   20.1990 O   0  0  0  0  0  0  0  0  0  0  0  0
  -24.5630  -31.9080   23.2450 C   0  0  0  0  0  0  0  0  0  0  0  0
  -27.2540  -27.4780   20.2220 C   0  0  0  0  0  0  0  0  0  0  0  0
  -23.3730  -30.4910   21.6030 C   0  0  0  0  0  3  0  0  0  0  0  0
  -24.8410  -28.9400   20.2040 C   0  0  0  0  0  0  0  0  0  0  0  0
  -25.8940  -30.8590   21.4200 C   0  0  0  0  0  2  0  0  0  0  0  0
  -25.9860  -29.4850   20.7970 C   0  0  0  0  0  0  0  0  0  0  0  0
  -27.1950  -28.7610   20.8010 C   0  0  0  0  0  3  0  0  0  0  0  0
  -26.0950  -26.9380   19.6240 C   0  0  0  0  0  3  0  0  0  0  0  0
  -24.8870  -27.6660   19.6140 C   0  0  0  0  0  3  0  0  0  0  0  0
  -23.5940  -29.7980   20.2310 C   0  0  0  0  0  2  0  0  0  0  0  0
  -24.6290  -31.1030   22.1470 N   0  0  0  0  0  0  0  0  0  0  0  0
  -23.4800  -32.1830   23.7780 O   0  0  0  0  0  0  0  0  0  0  0  0
  -22.7180  -29.4780   22.5700 C   0  0  0  0  0  0  0  0  0  0  0  0
  -21.3950  -29.2840   22.4280 N   0  0  0  0  0  0  0  0  0  0  0  0
  -23.3950  -28.8640   23.3990 O   0  0  0  0  0  0  0  0  0  0  0  0
  -20.9110  -29.8270   21.7260 H   0  0  0  0  0  0  0  0  0  0  0  0
  -18.0240  -28.0740   22.9020 C   0  0  0  0  0  0  0  0  0  0  0  0
  -20.5770  -28.3500   23.2000 C   0  0  0  0  0  3  0  0  0  0  0  0
  -20.6970  -26.9150   22.6400 C   0  0  0  0  0  2  0  0  0  0  0  0
  -19.6090  -26.5740   21.6170 C   0  0  0  0  0  2  0  0  0  0  0  0
  -18.2180  -26.7190   22.2420 C   0  0  0  0  0  2  0  0  0  0  0  0
  -19.1320  -28.8470   23.3370 C   0  0  0  0  0  0  0  0  0  0  0  0
  -18.9010  -30.1150   23.9130 C   0  0  0  0  0  3  0  0  0  0  0  0
  -17.5920  -30.6110   24.0560 C   0  0  0  0  0  3  0  0  0  0  0  0
  -16.4970  -29.8370   23.6370 C   0  0  0  0  0  3  0  0  0  0  0  0
  -16.7140  -28.5690   23.0670 C   0  0  0  0  0  3  0  0  0  0  0  0
  -25.8460  -32.5470   23.8670 C   0  0  0  0  0  3  0  0  0  0  0  0
  -25.5350  -33.9490   24.1850 N   0  0  0  0  0  0  0  0  0  0  0  0
  -25.8830  -34.9950   23.4230 C   0  0  0  0  0  0  0  0  0  0  0  0
  -26.5710  -34.8830   22.4050 O   0  0  0  0  0  0  0  0  0  0  0  0
  -24.9310  -34.1110   24.9770 H   0  0  0  0  0  0  0  0  0  0  0  0
  -24.1730  -36.7920   23.0140 C   0  0  0  0  0  1  0  0  0  0  0  0
  -25.3910  -36.3870   23.8630 C   0  0  0  0  0  3  0  0  0  0  0  0
  -27.5040  -37.2620   24.7520 C   0  0  0  0  0  1  0  0  0  0  0  0
  -26.4310  -37.4340   23.7760 N   0  0  0  0  0  0  0  0  0  0  0  0
  -26.0260  -38.3560   23.9100 H   0  0  0  0  0  0  0  0  0  0  0  0
  -26.3620  -31.7870   25.1500 C   0  0  1  0  0  0  0  0  0  0  0  0
  -25.2660  -31.5460   26.2140 C   0  0  0  0  0  1  0  0  0  0  0  0
  -26.9510  -30.4110   24.7640 C   0  0  0  0  0  1  0  0  0  0  0  0
  -27.5080  -32.5880   25.8120 C   0  0  0  0  0  1  0  0  0  0  0  0
  1  2  1  0
  3  5  1  0
  4  8  1  0
  4 12  1  0
  5  8  2  0
  5  1  1  0
  6  4  2  0
  7  6  1  0
  7  3  2  0
  9 10  1  0
  9  6  1  0
 11  9  1  0
 13 21  1  0
 14 19  1  0
 15 16  1  0
 15 14  1  0
 17 16  1  0
 17 26  1  0
 17 18  1  0
 19 13  1  0
 19 18  1  0
 20 13  2  0
 21 12  1  0
 21 22  1  0
 23 24  2  0
 24 43  1  0
 25 24  1  0
 25 28  1  0
 26 23  1  0
 26 27  1  0
 27 25  2  0
 28 29  1  0
 29 30  2  0
 31 34  1  0
 31 30  1  0
 32 31  2  0
 33 32  1  0
 33 28  2  0
 34 35  1  0
 35 36  1  0
 36 37  2  0
 38 37  1  0
 38 42  1  0
 39 38  2  0
 40 35  2  0
 40 39  1  0
 41 40  1  0
 43 44  1  0
 44 47  1  0
 44 46  1  0
 45 43  2  0
 48 49  1  0
 48 23  1  0
 50 48  1  0
 51 52  1  0
 51  1  1  0
 52 55  1  0
 53 54  1  0
 53 52  1  0
 55 56  1  0
 57 59  1  0
 57 56  1  0
 58 69  2  0
 59 64  1  0
 60 68  1  0
 60 70  1  0
 61 67  1  0
 61 63  1  0
 62 68  1  0
 63 64  2  0
 63 62  1  0
 65 59  2  0
 66 65  1  0
 66 61  2  0
 67 60  1  0
 68 58  1  0
 70 72  2  0
 71 70  1  0
 73 71  1  0
 74 83  2  0
 74 79  1  0
 75 71  1  0
 75 79  1  0
 76 75  1  0
 77 78  1  0
 77 76  1  0
 78 74  1  0
 79 80  2  0
 80 81  1  0
 82 81  2  0
 83 82  1  0
 84 58  1  0
 84 85  1  0
 84 94  1  0
 85 88  1  0
 86 90  1  0
 86 85  1  0
 87 86  2  0
 90 89  1  0
 92 90  1  0
 92 93  1  0
 92 91  1  0
 94 97  1  1
 94 95  1  0
 96 94  1  0
M  ISO  4  13 100  21 100  56 101  57 101
M  END
>  <TORSDO>  (40) 
F 23

>  <SCORE>  (40) 
-13.405

>  <name>  (40) 
39

>  <ligand_id>  (40) 
39

>  <original_smiles>  (40) 
[H]OC([H])(C([H])([H])N([H])c1nc(C([H])([H])N([H])C(=O)N2C([H])([H])C([H])([H])C([H])([H])C([H])(n3nc(-c4c([H])c([H])c(Oc5c([H])c([H])c(F)c([H])c5F)c([H])c4[H])c(C(=O)N([H])[H])c3N([H])[H])C2([H])[H])c(N([H])[H])nc1[H])C([H])([H])C([H])([H])Oc1c([H])c([H])c2c(c1[H])C([H])([H])N(C(=O)C([H])(N([H])C(=O)C([H])(N([H])C([H])([H])[H])C([H])([H])[H])C(C([H])([H])[H])(C([H])([H])[H])C([H])([H])[H])C([H])(C(=O)N([H])C1([H])c3c([H])c([H])c([H])c([H])c3C([H])([H])C([H])([H])C1([H])[H])C2([H])[H]

>  <smiles>  (40) 
[H]OC([H])(C([H])([H])N([H])c1nc(C([H])([H])N([H])C(=O)N2C([H])([H])C([H])([H])C([H])([H])C([H])(n3nc(-c4c([H])c([H])c(Oc5c([H])c([H])c(F)c([H])c5F)c([H])c4[H])c(C(=O)N([H])[H])c3N([H])[H])C2([H])[H])c(N([H])[H])nc1[H])C([H])([H])C([H])([H])Oc1c([H])c([H])c2c(c1[H])C([H])([H])N(C(=O)C([H])(N([H])C(=O)C([H])(N([H])C([H])([H])[H])C([H])([H])[H])C(C([H])([H])[H])(C([H])([H])[H])C([H])([H])[H])C([H])(C(=O)N([H])C1([H])c3c([H])c([H])c([H])c([H])c3C([H])([H])C([H])([H])C1([H])[H])C2([H])[H]

$$$$
40:0:0
     RDKit          3D

 94102  0  0  1  0  0  0  0  0999 V2000
  -28.5790  -18.1080   19.9010 C   0  0  0  0  0  3  0  0  0  0  0  0
  -29.8510  -18.4420   20.3850 C   0  0  0  0  0  0  0  0  0  0  0  0
  -27.7190  -19.1590   19.5760 C   0  0  0  0  0  0  0  0  0  0  0  0
  -29.2550  -20.7650   20.1710 C   0  0  0  0  0  0  0  0  0  0  0  0
  -30.1710  -19.7990   20.4970 N   0  0  0  0  0  0  0  0  0  0  0  0
  -28.0490  -20.4520   19.7150 N   0  0  0  0  0  0  0  0  0  0  0  0
  -26.4470  -18.9020   19.0950 N   0  0  0  0  0  0  0  0  0  0  0  0
  -29.5730  -22.1780   20.2370 N   0  0  0  0  0  0  0  0  0  0  0  0
  -26.2270  -17.9720   18.7600 H   0  0  0  0  0  0  0  0  0  0  0  0
  -25.9500  -19.6430   18.6180 H   0  0  0  0  0  0  0  0  0  0  0  0
  -30.5410  -22.3310   20.4930 H   0  0  0  0  0  0  0  0  0  0  0  0
  -27.2280  -23.2630   20.1040 C   0  0  0  0  0  1  0  0  0  0  0  0
  -28.7210  -23.4520   20.4250 C   0  0  0  0  0  3  0  0  0  0  0  0
  -29.2110  -24.8430   19.7200 C   0  0  0  0  0  2  0  0  0  0  0  0
  -29.0430  -26.2160   20.3400 O   0  0  0  0  0  0  0  0  0  0  0  0
  -24.9660  -31.4700   23.2480 C   0  0  0  0  0  0  0  0  0  0  0  0
  -27.9110  -27.0590   20.2060 C   0  0  0  0  0  0  0  0  0  0  0  0
  -23.9310  -30.1300   21.4510 C   0  0  0  0  0  3  0  0  0  0  0  0
  -25.5270  -28.6710   20.0730 C   0  0  0  0  0  0  0  0  0  0  0  0
  -26.4730  -30.4890   21.4960 C   0  0  0  0  0  2  0  0  0  0  0  0
  -26.6340  -29.1410   20.7900 C   0  0  0  0  0  0  0  0  0  0  0  0
  -27.8250  -28.3470   20.8450 C   0  0  0  0  0  3  0  0  0  0  0  0
  -26.7780  -26.6560   19.4680 C   0  0  0  0  0  3  0  0  0  0  0  0
  -25.6050  -27.4390   19.4040 C   0  0  0  0  0  3  0  0  0  0  0  0
  -24.2730  -29.5260   20.0630 C   0  0  0  0  0  2  0  0  0  0  0  0
  -25.1370  -30.7150   22.1230 N   0  0  0  0  0  0  0  0  0  0  0  0
  -23.8370  -31.7020   23.7040 O   0  0  0  0  0  0  0  0  0  0  0  0
  -23.2130  -29.0600   22.3070 C   0  0  0  0  0  0  0  0  0  0  0  0
  -21.8850  -28.9360   22.1380 N   0  0  0  0  0  0  0  0  0  0  0  0
  -23.8510  -28.3470   23.0850 O   0  0  0  0  0  0  0  0  0  0  0  0
  -21.4300  -29.5650   21.4900 H   0  0  0  0  0  0  0  0  0  0  0  0
  -18.4470  -27.8910   22.5720 C   0  0  0  0  0  0  0  0  0  0  0  0
  -21.0220  -27.9610   22.8070 C   0  0  0  0  0  3  0  0  0  0  0  0
  -21.0210  -26.6090   22.0560 C   0  0  0  0  0  2  0  0  0  0  0  0
  -19.8840  -26.4860   21.0360 C   0  0  0  0  0  2  0  0  0  0  0  0
  -18.5260  -26.6300   21.7290 C   0  0  0  0  0  2  0  0  0  0  0  0
  -19.6200  -28.5240   23.0670 C   0  0  0  0  0  0  0  0  0  0  0  0
  -19.4910  -29.7120   23.8170 C   0  0  0  0  0  3  0  0  0  0  0  0
  -18.2240  -30.2660   24.0770 C   0  0  0  0  0  3  0  0  0  0  0  0
  -17.0670  -29.6280   23.5990 C   0  0  0  0  0  3  0  0  0  0  0  0
  -17.1790  -28.4410   22.8540 C   0  0  0  0  0  3  0  0  0  0  0  0
  -26.1780  -32.0960   24.0020 C   0  0  0  0  0  3  0  0  0  0  0  0
  -26.5850  -31.2940   25.3000 C   0  0  1  0  0  0  0  0  0  0  0  0
  -25.4060  -31.0350   26.2650 C   0  0  0  0  0  1  0  0  0  0  0  0
  -27.1990  -29.9250   24.9290 C   0  0  0  0  0  1  0  0  0  0  0  0
  -27.6740  -32.0720   26.0760 C   0  0  0  0  0  1  0  0  0  0  0  0
  -25.8220  -33.4820   24.3460 N   0  0  0  0  0  0  0  0  0  0  0  0
  -26.2290  -34.5650   23.6700 C   0  0  0  0  0  0  0  0  0  0  0  0
  -27.0110  -34.5020   22.7180 O   0  0  0  0  0  0  0  0  0  0  0  0
  -25.1400  -33.6040   25.0780 H   0  0  0  0  0  0  0  0  0  0  0  0
  -24.5270  -36.3580   23.2030 C   0  0  0  0  0  1  0  0  0  0  0  0
  -25.6840  -35.9340   24.1220 C   0  0  0  0  0  3  0  0  0  0  0  0
  -27.7040  -36.8150   25.2070 C   0  0  0  0  0  1  0  0  0  0  0  0
  -26.7120  -36.9970   24.1500 N   0  0  0  0  0  0  0  0  0  0  0  0
  -26.2830  -37.9100   24.2730 H   0  0  0  0  0  0  0  0  0  0  0  0
  -30.8510  -17.2710   20.8150 C   0  0  0  0  0  2  0  0  0  0  0  0
  -31.1390  -14.6570   20.6820 C   0  0  0  0  0  0  0  0  0  0  0  0
  -30.9200  -12.4140   19.5890 C   0  0  0  0  0  2  0  0  0  0  0  0
  -30.0320  -12.5540   18.3330 C   0  0  0  0  0  2  0  0  0  0  0  0
  -28.5430  -12.4070   18.7020 C   0  0  0  0  0  2  0  0  0  0  0  0
  -28.1480  -13.2570   19.9400 C   0  0  0  0  0  3  0  0  0  0  0  0
  -29.1640  -13.1060   21.0950 C   0  0  0  0  0  2  0  0  0  0  0  0
  -30.4860  -13.4490   20.5580 N   0  0  0  0  0  0  0  0  0  0  0  0
  -32.3370  -14.7330   20.3970 O   0  0  0  0  0  0  0  0  0  0  0  0
  -30.3980  -15.8070   20.9120 N   0  0  0  0  0  0  0  0  0  0  0  0
  -29.4190  -15.6780   21.1100 H   0  0  0  0  0  0  0  0  0  0  0  0
  -25.7530  -13.8830   20.6030 C   0  0  0  0  0  0  0  0  0  0  0  0
  -24.6580  -13.1250   20.9140 C   0  0  0  0  0  0  0  0  0  0  0  0
  -25.0890  -11.7640   20.8580 C   0  0  0  0  0  0  0  0  0  0  0  0
  -26.7830  -12.9850   20.3750 N   0  0  0  0  0  0  0  0  0  0  0  0
  -26.3880  -11.7040   20.5930 N   0  0  0  0  0  0  0  0  0  0  0  0
  -24.3250  -10.5160   20.9840 C   0  0  0  0  0  0  0  0  0  0  0  0
  -24.6750   -9.5250   21.9280 C   0  0  0  0  0  3  0  0  0  0  0  0
  -23.9120   -8.3430   22.0410 C   0  0  0  0  0  3  0  0  0  0  0  0
  -22.7850   -8.1430   21.2090 C   0  0  0  0  0  0  0  0  0  0  0  0
  -22.4540   -9.1220   20.2540 C   0  0  0  0  0  3  0  0  0  0  0  0
  -23.2180  -10.2950   20.1410 C   0  0  0  0  0  3  0  0  0  0  0  0
  -21.9990   -7.0150   21.2320 O   0  0  0  0  0  0  0  0  0  0  0  0
  -21.8150   -6.2900   22.3820 C   0  0  0  0  0  0  0  0  0  0  0  0
  -21.2360   -6.8590   23.5370 C   0  0  0  0  0  3  0  0  0  0  0  0
  -21.0010   -6.0600   24.6730 C   0  0  0  0  0  3  0  0  0  0  0  0
  -21.3340   -4.6930   24.6550 C   0  0  0  0  0  0  0  0  0  0  0  0
  -21.9060   -4.1230   23.5040 C   0  0  0  0  0  3  0  0  0  0  0  0
  -22.1430   -4.9190   22.3690 C   0  0  0  0  0  0  0  0  0  0  0  0
  -22.6740   -4.3600   21.2550 F   0  0  0  0  0  0  0  0  0  0  0  0
  -21.1030   -3.9230   25.7430 F   0  0  0  0  0  0  0  0  0  0  0  0
  -23.2640  -13.6310   21.1470 C   0  0  0  0  0  0  0  0  0  0  0  0
  -22.4950  -12.9440   21.9840 N   0  0  0  0  0  0  0  0  0  0  0  0
  -22.8650  -14.6690   20.6220 O   0  0  0  0  0  0  0  0  0  0  0  0
  -22.8290  -12.1040   22.4320 H   0  0  0  0  0  0  0  0  0  0  0  0
  -21.5590  -13.2680   22.1840 H   0  0  0  0  0  0  0  0  0  0  0  0
  -25.9510  -15.2540   20.4670 N   0  0  0  0  0  0  0  0  0  0  0  0
  -25.1670  -15.8940   20.5100 H   0  0  0  0  0  0  0  0  0  0  0  0
  -26.7700  -15.6650   20.0370 H   0  0  0  0  0  0  0  0  0  0  0  0
  1  2  2  0
  2  5  1  0
  2 56  1  0
  3  6  2  0
  3  1  1  0
  4  8  1  0
  4  5  2  0
  6  4  1  0
  7  3  1  0
  8 13  1  0
  8 11  1  0
  9  7  1  0
 10  7  1  0
 13 12  1  0
 14 15  1  0
 14 13  1  0
 16 27  2  0
 17 15  1  0
 17 22  1  0
 18 26  1  0
 18 28  1  0
 19 21  1  0
 20 26  1  0
 21 22  2  0
 21 20  1  0
 23 17  2  0
 24 23  1  0
 24 19  2  0
 25 19  1  0
 25 18  1  0
 26 16  1  0
 28 30  2  0
 29 28  1  0
 31 29  1  0
 32 41  2  0
 32 37  1  0
 33 29  1  0
 33 37  1  0
 34 33  1  0
 35 36  1  0
 35 34  1  0
 36 32  1  0
 37 38  2  0
 38 39  1  0
 40 39  2  0
 41 40  1  0
 42 16  1  0
 42 47  1  0
 42 43  1  0
 43 46  1  1
 43 44  1  0
 45 43  1  0
 47 50  1  0
 48 52  1  0
 48 47  1  0
 49 48  2  0
 52 51  1  0
 52 54  1  0
 54 55  1  0
 54 53  1  0
 56 65  1  0
 57 65  1  0
 58 63  1  0
 59 60  1  0
 59 58  1  0
 61 60  1  0
 61 70  1  0
 61 62  1  0
 63 57  1  0
 63 62  1  0
 64 57  2  0
 65 66  1  0
 67 68  2  0
 68 87  1  0
 69 68  1  0
 69 72  1  0
 70 71  1  0
 70 67  1  0
 71 69  2  0
 72 73  1  0
 73 74  2  0
 75 78  1  0
 75 74  1  0
 76 75  2  0
 77 76  1  0
 77 72  2  0
 78 79  1  0
 79 80  1  0
 80 81  2  0
 82 81  1  0
 82 86  1  0
 83 82  2  0
 84 79  2  0
 84 83  1  0
 85 84  1  0
 87 88  1  0
 88 91  1  0
 88 90  1  0
 89 87  2  0
 92 93  1  0
 92 67  1  0
 94 92  1  0
M  ISO  4  14 101  15 101  57 100  65 100
M  END
>  <TORSDO>  (41) 
F 19

>  <SCORE>  (41) 
-12.963

>  <name>  (41) 
40

>  <ligand_id>  (41) 
40

>  <original_smiles>  (41) 
[H]c1c(N([H])[H])nc(N([H])C([H])(C([H])([H])[H])C([H])([H])Oc2c([H])c([H])c3c(c2[H])C([H])([H])N(C(=O)C([H])(N([H])C(=O)C([H])(N([H])C([H])([H])[H])C([H])([H])[H])C(C([H])([H])[H])(C([H])([H])[H])C([H])([H])[H])C([H])(C(=O)N([H])C2([H])c4c([H])c([H])c([H])c([H])c4C([H])([H])C([H])([H])C2([H])[H])C3([H])[H])nc1C([H])([H])N([H])C(=O)N1C([H])([H])C([H])([H])C([H])([H])C([H])(n2nc(-c3c([H])c([H])c(Oc4c([H])c([H])c(F)c([H])c4F)c([H])c3[H])c(C(=O)N([H])[H])c2N([H])[H])C1([H])[H]

>  <smiles>  (41) 
[H]c1c(N([H])[H])nc(N([H])C([H])(C([H])([H])[H])C([H])([H])Oc2c([H])c([H])c3c(c2[H])C([H])([H])N(C(=O)C([H])(N([H])C(=O)C([H])(N([H])C([H])([H])[H])C([H])([H])[H])C(C([H])([H])[H])(C([H])([H])[H])C([H])([H])[H])C([H])(C(=O)N([H])C2([H])c4c([H])c([H])c([H])c([H])c4C([H])([H])C([H])([H])C2([H])[H])C3([H])[H])nc1C([H])([H])N([H])C(=O)N1C([H])([H])C([H])([H])C([H])([H])C([H])(n2nc(-c3c([H])c([H])c(Oc4c([H])c([H])c(F)c([H])c4F)c([H])c3[H])c(C(=O)N([H])[H])c2N([H])[H])C1([H])[H]

$$$$
41:0:0
     RDKit          3D

 96104  0  0  1  0  0  0  0  0999 V2000
  -28.0340  -22.9580   20.1220 C   0  0  0  0  0  2  0  0  0  0  0  0
  -27.1620  -22.0750   22.4420 C   0  0  0  0  0  1  0  0  0  0  0  0
  -28.2940  -22.0680   21.3950 C   0  0  0  0  0  3  0  0  0  0  0  0
  -31.7340  -19.0330   19.7380 C   0  0  0  0  0  3  0  0  0  0  0  0
  -31.0880  -18.1360   20.5560 C   0  0  0  0  0  0  0  0  0  0  0  0
  -29.6300  -19.8950   20.6340 C   0  0  0  0  0  0  0  0  0  0  0  0
  -29.8610  -18.6310   21.0250 N   0  0  0  0  0  0  0  0  0  0  0  0
  -28.5500  -20.6500   21.0850 N   0  0  0  0  0  0  0  0  0  0  0  0
  -30.8550  -20.5350   19.5640 S   0  0  0  0  0  0  0  0  0  0  0  0
  -27.9370  -20.0590   21.6380 H   0  0  0  0  0  0  0  0  0  0  0  0
  -31.6790  -16.8470   21.0800 C   0  0  0  0  0  2  0  0  0  0  0  0
  -31.2970  -14.6640   19.9560 C   0  0  0  0  0  0  0  0  0  0  0  0
  -30.8340  -12.4740   18.9080 C   0  0  0  0  0  2  0  0  0  0  0  0
  -29.8670  -12.6510   17.7210 C   0  0  0  0  0  2  0  0  0  0  0  0
  -28.4090  -12.5730   18.2120 C   0  0  0  0  0  2  0  0  0  0  0  0
  -28.1380  -13.4870   19.4340 C   0  0  0  0  0  3  0  0  0  0  0  0
  -29.2290  -13.3090   20.5190 C   0  0  0  0  0  2  0  0  0  0  0  0
  -30.5460  -13.5270   19.8960 N   0  0  0  0  0  0  0  0  0  0  0  0
  -32.3040  -14.8210   19.2600 O   0  0  0  0  0  0  0  0  0  0  0  0
  -30.9110  -15.6160   20.8170 N   0  0  0  0  0  0  0  0  0  0  0  0
  -30.1240  -15.4390   21.4240 H   0  0  0  0  0  0  0  0  0  0  0  0
  -25.8080  -14.1990   20.2560 C   0  0  0  0  0  0  0  0  0  0  0  0
  -24.7190  -13.4720   20.6610 C   0  0  0  0  0  0  0  0  0  0  0  0
  -25.1090  -12.1020   20.5950 C   0  0  0  0  0  0  0  0  0  0  0  0
  -26.7970  -13.2700   19.9720 N   0  0  0  0  0  0  0  0  0  0  0  0
  -26.3800  -12.0040   20.2270 N   0  0  0  0  0  0  0  0  0  0  0  0
  -24.3280  -10.8720   20.8030 C   0  0  0  0  0  0  0  0  0  0  0  0
  -24.6910   -9.9260   21.7860 C   0  0  0  0  0  3  0  0  0  0  0  0
  -23.9150   -8.7640   21.9820 C   0  0  0  0  0  3  0  0  0  0  0  0
  -22.7600   -8.5400   21.1940 C   0  0  0  0  0  0  0  0  0  0  0  0
  -22.4140   -9.4750   20.2040 C   0  0  0  0  0  3  0  0  0  0  0  0
  -23.1890  -10.6300   20.0080 C   0  0  0  0  0  3  0  0  0  0  0  0
  -21.9630   -7.4230   21.2930 O   0  0  0  0  0  0  0  0  0  0  0  0
  -21.7700   -6.7830   22.4900 C   0  0  0  0  0  0  0  0  0  0  0  0
  -21.2230   -7.4480   23.6100 C   0  0  0  0  0  3  0  0  0  0  0  0
  -20.9750   -6.7350   24.7990 C   0  0  0  0  0  3  0  0  0  0  0  0
  -21.2680   -5.3590   24.8690 C   0  0  0  0  0  0  0  0  0  0  0  0
  -21.8050   -4.6930   23.7520 C   0  0  0  0  0  3  0  0  0  0  0  0
  -22.0540   -5.4050   22.5650 C   0  0  0  0  0  0  0  0  0  0  0  0
  -22.5550   -4.7580   21.4850 F   0  0  0  0  0  0  0  0  0  0  0  0
  -21.0200   -4.6690   26.0070 F   0  0  0  0  0  0  0  0  0  0  0  0
  -23.3640  -14.0200   21.0050 C   0  0  0  0  0  0  0  0  0  0  0  0
  -22.6430  -13.3550   21.9050 N   0  0  0  0  0  0  0  0  0  0  0  0
  -22.9530  -15.0690   20.5110 O   0  0  0  0  0  0  0  0  0  0  0  0
  -22.9820  -12.5040   22.3230 H   0  0  0  0  0  0  0  0  0  0  0  0
  -21.7410  -13.7160   22.1780 H   0  0  0  0  0  0  0  0  0  0  0  0
  -26.0330  -15.5580   20.0840 N   0  0  0  0  0  0  0  0  0  0  0  0
  -25.3020  -16.2480   20.2110 H   0  0  0  0  0  0  0  0  0  0  0  0
  -26.9020  -15.9570   19.7470 H   0  0  0  0  0  0  0  0  0  0  0  0
  -27.6050  -24.4800   20.2370 C   0  0  0  0  0  3  0  0  0  0  0  0
  -27.3260  -24.9520   21.6140 N   0  0  0  0  0  4  0  0  0  0  0  0
  -26.7620  -25.7900   21.5840 H   0  0  0  0  0  0  0  0  0  0  0  0
  -28.1600  -25.1410   22.1470 H   0  0  0  0  0  0  0  0  0  0  0  0
  -26.7920  -24.2580   22.1130 H   0  0  0  0  0  0  0  0  0  0  0  0
  -28.4850  -25.5050   19.4260 C   0  0  0  0  0  2  0  0  0  0  0  0
  -28.4490  -26.9140   19.7940 O   0  0  0  0  0  0  0  0  0  0  0  0
  -24.6360  -31.8140   23.2150 C   0  0  0  0  0  0  0  0  0  0  0  0
  -27.2820  -27.6620   19.7550 C   0  0  0  0  0  0  0  0  0  0  0  0
  -23.4140  -30.5290   21.4850 C   0  0  0  0  0  3  0  0  0  0  0  0
  -24.8700  -29.1470   19.8940 C   0  0  0  0  0  0  0  0  0  0  0  0
  -25.9270  -30.9510   21.2660 C   0  0  0  0  0  2  0  0  0  0  0  0
  -26.0270  -29.6360   20.5180 C   0  0  0  0  0  0  0  0  0  0  0  0
  -27.2300  -28.8940   20.4530 C   0  0  0  0  0  3  0  0  0  0  0  0
  -26.1260  -27.2310   19.0730 C   0  0  0  0  0  3  0  0  0  0  0  0
  -24.9180  -27.9460   19.1670 C   0  0  0  0  0  3  0  0  0  0  0  0
  -23.6080  -29.9670   20.0480 C   0  0  0  0  0  2  0  0  0  0  0  0
  -24.6780  -31.1080   22.0490 N   0  0  0  0  0  0  0  0  0  0  0  0
  -23.5650  -32.0260   23.7990 O   0  0  0  0  0  0  0  0  0  0  0  0
  -22.8040  -29.4250   22.3760 C   0  0  0  0  0  0  0  0  0  0  0  0
  -21.4830  -29.2150   22.2550 N   0  0  0  0  0  0  0  0  0  0  0  0
  -23.5170  -28.7650   23.1380 O   0  0  0  0  0  0  0  0  0  0  0  0
  -20.9560  -29.8260   21.6470 H   0  0  0  0  0  0  0  0  0  0  0  0
  -18.1770  -27.8210   22.6270 C   0  0  0  0  0  0  0  0  0  0  0  0
  -20.7120  -28.1880   22.9580 C   0  0  0  0  0  3  0  0  0  0  0  0
  -20.9020  -26.7980   22.3040 C   0  0  0  0  0  2  0  0  0  0  0  0
  -19.8310  -26.4690   21.2590 C   0  0  0  0  0  2  0  0  0  0  0  0
  -18.4270  -26.5290   21.8670 C   0  0  0  0  0  2  0  0  0  0  0  0
  -19.2480  -28.6080   23.1270 C   0  0  0  0  0  0  0  0  0  0  0  0
  -18.9610  -29.8180   23.7940 C   0  0  0  0  0  3  0  0  0  0  0  0
  -17.6280  -30.2440   23.9640 C   0  0  0  0  0  3  0  0  0  0  0  0
  -16.5730  -29.4570   23.4680 C   0  0  0  0  0  3  0  0  0  0  0  0
  -16.8480  -28.2470   22.8060 C   0  0  0  0  0  3  0  0  0  0  0  0
  -25.9280  -32.4220   23.8480 C   0  0  0  0  0  3  0  0  0  0  0  0
  -25.6080  -33.7890   24.2780 N   0  0  0  0  0  0  0  0  0  0  0  0
  -25.9220  -34.8940   23.5910 C   0  0  0  0  0  0  0  0  0  0  0  0
  -26.5830  -34.8670   22.5490 O   0  0  0  0  0  0  0  0  0  0  0  0
  -25.0250  -33.8810   25.0960 H   0  0  0  0  0  0  0  0  0  0  0  0
  -24.1780  -36.6890   23.3700 C   0  0  0  0  0  1  0  0  0  0  0  0
  -25.4260  -36.2430   24.1490 C   0  0  0  0  0  3  0  0  0  0  0  0
  -27.5560  -37.0890   25.0310 C   0  0  0  0  0  1  0  0  0  0  0  0
  -26.4490  -37.3120   24.1060 N   0  0  0  0  0  0  0  0  0  0  0  0
  -26.0350  -38.2170   24.3140 H   0  0  0  0  0  0  0  0  0  0  0  0
  -26.4830  -31.5710   25.0570 C   0  0  1  0  0  0  0  0  0  0  0  0
  -25.4180  -31.2380   26.1270 C   0  0  0  0  0  1  0  0  0  0  0  0
  -27.0770  -30.2350   24.5520 C   0  0  0  0  0  1  0  0  0  0  0  0
  -27.6360  -32.3330   25.7520 C   0  0  0  0  0  1  0  0  0  0  0  0
  1 50  1  0
  1  3  1  0
  3  2  1  0
  4  5  2  0
  5  7  1  0
  5 11  1  0
  6  7  2  0
  6  8  1  0
  8  3  1  0
  8 10  1  0
  9  4  1  0
  9  6  1  0
 12 20  1  0
 13 18  1  0
 14 15  1  0
 14 13  1  0
 16 15  1  0
 16 25  1  0
 16 17  1  0
 18 12  1  0
 18 17  1  0
 19 12  2  0
 20 11  1  0
 20 21  1  0
 22 23  2  0
 23 42  1  0
 24 23  1  0
 24 27  1  0
 25 26  1  0
 25 22  1  0
 26 24  2  0
 27 28  1  0
 28 29  2  0
 30 33  1  0
 30 29  1  0
 31 30  2  0
 32 31  1  0
 32 27  2  0
 33 34  1  0
 34 39  2  0
 34 35  1  0
 35 36  2  0
 36 37  1  0
 37 41  1  0
 38 37  2  0
 39 38  1  0
 40 39  1  0
 42 43  1  0
 43 46  1  0
 43 45  1  0
 44 42  2  0
 47 48  1  0
 47 22  1  0
 49 47  1  0
 50 55  1  0
 50 51  1  0
 51 54  1  0
 51 53  1  0
 52 51  1  0
 55 56  1  0
 57 68  2  0
 58 56  1  0
 58 63  1  0
 59 67  1  0
 59 69  1  0
 60 66  1  0
 60 62  1  0
 61 67  1  0
 62 61  1  0
 63 62  2  0
 64 65  1  0
 64 58  2  0
 65 60  2  0
 66 59  1  0
 67 57  1  0
 69 71  2  0
 70 69  1  0
 72 70  1  0
 73 82  2  0
 73 78  1  0
 74 70  1  0
 74 78  1  0
 75 74  1  0
 76 77  1  0
 76 75  1  0
 77 73  1  0
 78 79  2  0
 79 80  1  0
 81 80  2  0
 82 81  1  0
 83 57  1  0
 83 84  1  0
 83 93  1  0
 84 87  1  0
 85 89  1  0
 85 84  1  0
 86 85  2  0
 89 88  1  0
 91 89  1  0
 91 92  1  0
 91 90  1  0
 93 96  1  1
 93 94  1  0
 95 93  1  0
M  ISO  4  12 100  20 100  55 101  56 101
M  END
>  <TORSDO>  (42) 
F 22

>  <SCORE>  (42) 
-11.008

>  <name>  (42) 
41

>  <ligand_id>  (42) 
41

>  <original_smiles>  (42) 
[H]c1sc(N([H])C([H])(C([H])([H])[H])C([H])([H])C([H])(C([H])([H])Oc2c([H])c([H])c3c(c2[H])C([H])([H])N(C(=O)C([H])(N([H])C(=O)C([H])(N([H])C([H])([H])[H])C([H])([H])[H])C(C([H])([H])[H])(C([H])([H])[H])C([H])([H])[H])C([H])(C(=O)N([H])C2([H])c4c([H])c([H])c([H])c([H])c4C([H])([H])C([H])([H])C2([H])[H])C3([H])[H])[N+]([H])([H])[H])nc1C([H])([H])N([H])C(=O)N1C([H])([H])C([H])([H])C([H])([H])C([H])(n2nc(-c3c([H])c([H])c(Oc4c([H])c([H])c(F)c([H])c4F)c([H])c3[H])c(C(=O)N([H])[H])c2N([H])[H])C1([H])[H]

>  <smiles>  (42) 
[H]c1sc(N([H])C([H])(C([H])([H])[H])C([H])([H])C([H])(C([H])([H])Oc2c([H])c([H])c3c(c2[H])C([H])([H])N(C(=O)C([H])(N([H])C(=O)C([H])(N([H])C([H])([H])[H])C([H])([H])[H])C(C([H])([H])[H])(C([H])([H])[H])C([H])([H])[H])C([H])(C(=O)N([H])C2([H])c4c([H])c([H])c([H])c([H])c4C([H])([H])C([H])([H])C2([H])[H])C3([H])[H])[N+]([H])([H])[H])nc1C([H])([H])N([H])C(=O)N1C([H])([H])C([H])([H])C([H])([H])C([H])(n2nc(-c3c([H])c([H])c(Oc4c([H])c([H])c(F)c([H])c4F)c([H])c3[H])c(C(=O)N([H])[H])c2N([H])[H])C1([H])[H]

$$$$
42:0:0
     RDKit          3D

 96104  0  0  1  0  0  0  0  0999 V2000
  -28.9160  -18.9290   18.3580 C   0  0  0  0  0  3  0  0  0  0  0  0
  -29.3990  -17.8090   19.0630 C   0  0  0  0  0  0  0  0  0  0  0  0
  -29.9030  -18.0640   20.3660 C   0  0  0  0  0  0  0  0  0  0  0  0
  -29.4740  -20.3210   20.0640 C   0  0  0  0  0  0  0  0  0  0  0  0
  -28.9600  -20.1730   18.8580 N   0  0  0  0  0  0  0  0  0  0  0  0
  -29.9310  -19.3410   20.8400 N   0  0  0  0  0  0  0  0  0  0  0  0
  -29.5690  -21.6260   20.5300 N   0  0  0  0  0  0  0  0  0  0  0  0
  -29.8790  -21.7480   21.4880 H   0  0  0  0  0  0  0  0  0  0  0  0
  -29.3930  -16.5590   18.4310 N   0  0  0  0  0  0  0  0  0  0  0  0
  -29.2240  -16.5440   17.4280 H   0  0  0  0  0  0  0  0  0  0  0  0
  -30.1180  -15.9010   18.7000 H   0  0  0  0  0  0  0  0  0  0  0  0
  -30.4920  -16.9870   21.3100 C   0  0  0  0  0  2  0  0  0  0  0  0
  -30.6930  -14.5590   20.6750 C   0  0  0  0  0  0  0  0  0  0  0  0
  -30.4290  -12.3830   19.5320 C   0  0  0  0  0  2  0  0  0  0  0  0
  -29.5250  -12.5630   18.2960 C   0  0  0  0  0  2  0  0  0  0  0  0
  -28.0420  -12.4100   18.6840 C   0  0  0  0  0  2  0  0  0  0  0  0
  -27.6600  -13.2620   19.9240 C   0  0  0  0  0  3  0  0  0  0  0  0
  -28.6820  -13.0760   21.0680 C   0  0  0  0  0  2  0  0  0  0  0  0
  -30.0190  -13.3820   20.5330 N   0  0  0  0  0  0  0  0  0  0  0  0
  -31.8290  -14.7250   20.2280 O   0  0  0  0  0  0  0  0  0  0  0  0
  -30.0030  -15.5930   21.1930 N   0  0  0  0  0  0  0  0  0  0  0  0
  -29.0470  -15.4280   21.4630 H   0  0  0  0  0  0  0  0  0  0  0  0
  -25.2370  -13.8560   20.5550 C   0  0  0  0  0  0  0  0  0  0  0  0
  -24.1640  -13.0780   20.9000 C   0  0  0  0  0  0  0  0  0  0  0  0
  -24.6350  -11.7300   20.8970 C   0  0  0  0  0  0  0  0  0  0  0  0
  -26.2950  -12.9800   20.3650 N   0  0  0  0  0  0  0  0  0  0  0  0
  -25.9340  -11.6970   20.6280 N   0  0  0  0  0  0  0  0  0  0  0  0
  -23.9120  -10.4640   21.0780 C   0  0  0  0  0  0  0  0  0  0  0  0
  -24.3250   -9.5070   22.0300 C   0  0  0  0  0  3  0  0  0  0  0  0
  -23.6020   -8.3050   22.1980 C   0  0  0  0  0  3  0  0  0  0  0  0
  -22.4520   -8.0540   21.4120 C   0  0  0  0  0  0  0  0  0  0  0  0
  -22.0590   -9.0000   20.4500 C   0  0  0  0  0  3  0  0  0  0  0  0
  -22.7820  -10.1920   20.2810 C   0  0  0  0  0  3  0  0  0  0  0  0
  -21.7030   -6.9050   21.4880 O   0  0  0  0  0  0  0  0  0  0  0  0
  -21.6270   -6.1700   22.6440 C   0  0  0  0  0  0  0  0  0  0  0  0
  -21.1480   -6.7280   23.8500 C   0  0  0  0  0  3  0  0  0  0  0  0
  -21.0200   -5.9190   24.9980 C   0  0  0  0  0  3  0  0  0  0  0  0
  -21.3600   -4.5550   24.9390 C   0  0  0  0  0  0  0  0  0  0  0  0
  -21.8310   -3.9960   23.7390 C   0  0  0  0  0  3  0  0  0  0  0  0
  -21.9600   -4.8020   22.5940 C   0  0  0  0  0  0  0  0  0  0  0  0
  -22.3950   -4.2540   21.4330 F   0  0  0  0  0  0  0  0  0  0  0  0
  -21.2300   -3.7760   26.0380 F   0  0  0  0  0  0  0  0  0  0  0  0
  -22.7550  -13.5490   21.1250 C   0  0  0  0  0  0  0  0  0  0  0  0
  -22.0050  -12.8520   21.9720 N   0  0  0  0  0  0  0  0  0  0  0  0
  -22.3270  -14.5670   20.5840 O   0  0  0  0  0  0  0  0  0  0  0  0
  -22.3630  -12.0270   22.4300 H   0  0  0  0  0  0  0  0  0  0  0  0
  -21.0600  -13.1490   22.1670 H   0  0  0  0  0  0  0  0  0  0  0  0
  -25.3990  -15.2260   20.3670 N   0  0  0  0  0  0  0  0  0  0  0  0
  -24.6240  -15.8760   20.4290 H   0  0  0  0  0  0  0  0  0  0  0  0
  -26.2530  -15.6540   20.0280 H   0  0  0  0  0  0  0  0  0  0  0  0
  -28.8150  -22.7460   19.9380 C   0  0  0  0  0  2  0  0  0  0  0  0
  -29.1650  -24.1700   20.4780 C   0  0  0  0  0  3  0  0  0  0  0  0
  -29.1020  -24.0950   21.8940 O   0  0  0  0  0  0  0  0  0  0  0  0
  -29.2530  -24.9760   22.2230 H   0  0  0  0  0  0  0  0  0  0  0  0
  -28.1050  -25.2070   19.9850 C   0  0  0  0  0  2  0  0  0  0  0  0
  -28.3270  -26.6270   20.2180 O   0  0  0  0  0  0  0  0  0  0  0  0
  -24.5720  -31.9150   23.2580 C   0  0  0  0  0  0  0  0  0  0  0  0
  -27.1890  -27.4310   20.1640 C   0  0  0  0  0  0  0  0  0  0  0  0
  -23.3610  -30.5190   21.6210 C   0  0  0  0  0  3  0  0  0  0  0  0
  -24.8070  -28.9910   20.1810 C   0  0  0  0  0  0  0  0  0  0  0  0
  -25.8940  -30.8610   21.4220 C   0  0  0  0  0  2  0  0  0  0  0  0
  -25.9740  -29.4910   20.7730 C   0  0  0  0  0  0  0  0  0  0  0  0
  -27.1670  -28.7190   20.7630 C   0  0  0  0  0  3  0  0  0  0  0  0
  -26.0000  -26.9800   19.5370 C   0  0  0  0  0  3  0  0  0  0  0  0
  -24.8180  -27.7370   19.5570 C   0  0  0  0  0  3  0  0  0  0  0  0
  -23.5670  -29.8520   20.2370 C   0  0  0  0  0  2  0  0  0  0  0  0
  -24.6280  -31.1140   22.1580 N   0  0  0  0  0  0  0  0  0  0  0  0
  -23.4930  -32.1880   23.8000 O   0  0  0  0  0  0  0  0  0  0  0  0
  -22.7120  -29.4930   22.5790 C   0  0  0  0  0  0  0  0  0  0  0  0
  -21.3870  -29.3080   22.4530 N   0  0  0  0  0  0  0  0  0  0  0  0
  -23.3960  -28.8680   23.3930 O   0  0  0  0  0  0  0  0  0  0  0  0
  -20.8950  -29.8620   21.7660 H   0  0  0  0  0  0  0  0  0  0  0  0
  -18.0140  -28.1070   22.9530 C   0  0  0  0  0  0  0  0  0  0  0  0
  -20.5720  -28.3690   23.2230 C   0  0  0  0  0  3  0  0  0  0  0  0
  -20.6760  -26.9380   22.6470 C   0  0  0  0  0  2  0  0  0  0  0  0
  -19.5730  -26.6150   21.6340 C   0  0  0  0  0  2  0  0  0  0  0  0
  -18.1920  -26.7580   22.2780 C   0  0  0  0  0  2  0  0  0  0  0  0
  -19.1320  -28.8710   23.3830 C   0  0  0  0  0  0  0  0  0  0  0  0
  -18.9110  -30.1350   23.9720 C   0  0  0  0  0  3  0  0  0  0  0  0
  -17.6060  -30.6350   24.1380 C   0  0  0  0  0  3  0  0  0  0  0  0
  -16.5020  -29.8680   23.7260 C   0  0  0  0  0  3  0  0  0  0  0  0
  -16.7080  -28.6070   23.1390 C   0  0  0  0  0  3  0  0  0  0  0  0
  -25.8600  -32.5450   23.8740 C   0  0  0  0  0  3  0  0  0  0  0  0
  -25.5570  -33.9460   24.1940 N   0  0  0  0  0  0  0  0  0  0  0  0
  -25.8990  -34.9920   23.4310 C   0  0  0  0  0  0  0  0  0  0  0  0
  -26.5760  -34.8790   22.4040 O   0  0  0  0  0  0  0  0  0  0  0  0
  -24.9600  -34.1090   24.9920 H   0  0  0  0  0  0  0  0  0  0  0  0
  -24.1930  -36.7980   23.0400 C   0  0  0  0  0  1  0  0  0  0  0  0
  -25.4160  -36.3850   23.8760 C   0  0  0  0  0  3  0  0  0  0  0  0
  -27.5390  -37.2550   24.7470 C   0  0  0  0  0  1  0  0  0  0  0  0
  -26.4590  -37.4290   23.7810 N   0  0  0  0  0  0  0  0  0  0  0  0
  -26.0580  -38.3530   23.9170 H   0  0  0  0  0  0  0  0  0  0  0  0
  -26.3760  -31.7790   25.1530 C   0  0  1  0  0  0  0  0  0  0  0  0
  -25.2820  -31.5490   26.2220 C   0  0  0  0  0  1  0  0  0  0  0  0
  -26.9550  -30.3980   24.7670 C   0  0  0  0  0  1  0  0  0  0  0  0
  -27.5280  -32.5730   25.8110 C   0  0  0  0  0  1  0  0  0  0  0  0
  1  5  1  0
  1  2  2  0
  2  3  1  0
  3  6  2  0
  3 12  1  0
  4  7  1  0
  4  6  1  0
  5  4  2  0
  7  8  1  0
  9 11  1  0
  9  2  1  0
 10  9  1  0
 13 21  1  0
 14 19  1  0
 15 16  1  0
 15 14  1  0
 17 16  1  0
 17 26  1  0
 17 18  1  0
 19 13  1  0
 19 18  1  0
 20 13  2  0
 21 12  1  0
 21 22  1  0
 23 24  2  0
 24 43  1  0
 25 24  1  0
 25 28  1  0
 26 23  1  0
 26 27  1  0
 27 25  2  0
 28 29  1  0
 29 30  2  0
 31 34  1  0
 31 30  1  0
 32 31  2  0
 33 32  1  0
 33 28  2  0
 34 35  1  0
 35 36  1  0
 36 37  2  0
 38 37  1  0
 38 42  1  0
 39 38  2  0
 40 35  2  0
 40 39  1  0
 41 40  1  0
 43 44  1  0
 44 47  1  0
 44 46  1  0
 45 43  2  0
 48 49  1  0
 48 23  1  0
 50 48  1  0
 51  7  1  0
 52 51  1  0
 52 53  1  0
 53 54  1  0
 55 56  1  0
 55 52  1  0
 57 68  2  0
 58 56  1  0
 58 63  1  0
 59 67  1  0
 59 69  1  0
 60 66  1  0
 60 62  1  0
 61 67  1  0
 62 61  1  0
 63 62  2  0
 64 65  1  0
 64 58  2  0
 65 60  2  0
 66 59  1  0
 67 57  1  0
 69 71  2  0
 70 69  1  0
 72 70  1  0
 73 82  2  0
 73 78  1  0
 74 70  1  0
 74 78  1  0
 75 74  1  0
 76 77  1  0
 76 75  1  0
 77 73  1  0
 78 79  2  0
 79 80  1  0
 81 80  2  0
 82 81  1  0
 83 57  1  0
 83 84  1  0
 83 93  1  0
 84 87  1  0
 85 89  1  0
 85 84  1  0
 86 85  2  0
 89 88  1  0
 91 89  1  0
 91 92  1  0
 91 90  1  0
 93 96  1  1
 93 94  1  0
 95 93  1  0
M  ISO  4  13 100  21 100  55 101  56 101
M  END
>  <TORSDO>  (43) 
F 22

>  <SCORE>  (43) 
-13.657

>  <name>  (43) 
42

>  <ligand_id>  (43) 
42

>  <original_smiles>  (43) 
[H]OC([H])(C([H])([H])Oc1c([H])c([H])c2c(c1[H])C([H])([H])N(C(=O)C([H])(N([H])C(=O)C([H])(N([H])C([H])([H])[H])C([H])([H])[H])C(C([H])([H])[H])(C([H])([H])[H])C([H])([H])[H])C([H])(C(=O)N([H])C1([H])c3c([H])c([H])c([H])c([H])c3C([H])([H])C([H])([H])C1([H])[H])C2([H])[H])C([H])([H])N([H])c1nc([H])c(N([H])[H])c(C([H])([H])N([H])C(=O)N2C([H])([H])C([H])([H])C([H])([H])C([H])(n3nc(-c4c([H])c([H])c(Oc5c([H])c([H])c(F)c([H])c5F)c([H])c4[H])c(C(=O)N([H])[H])c3N([H])[H])C2([H])[H])n1

>  <smiles>  (43) 
[H]OC([H])(C([H])([H])Oc1c([H])c([H])c2c(c1[H])C([H])([H])N(C(=O)C([H])(N([H])C(=O)C([H])(N([H])C([H])([H])[H])C([H])([H])[H])C(C([H])([H])[H])(C([H])([H])[H])C([H])([H])[H])C([H])(C(=O)N([H])C1([H])c3c([H])c([H])c([H])c([H])c3C([H])([H])C([H])([H])C1([H])[H])C2([H])[H])C([H])([H])N([H])c1nc([H])c(N([H])[H])c(C([H])([H])N([H])C(=O)N2C([H])([H])C([H])([H])C([H])([H])C([H])(n3nc(-c4c([H])c([H])c(Oc5c([H])c([H])c(F)c([H])c5F)c([H])c4[H])c(C(=O)N([H])[H])c3N([H])[H])C2([H])[H])n1

$$$$
43:0:0
     RDKit          3D

 95103  0  0  1  0  0  0  0  0999 V2000
  -27.8120  -18.9900   18.6990 C   0  0  0  0  0  3  0  0  0  0  0  0
  -28.4760  -17.8630   19.2250 C   0  0  0  0  0  0  0  0  0  0  0  0
  -29.5030  -18.1270   20.1690 C   0  0  0  0  0  0  0  0  0  0  0  0
  -29.1380  -20.3980   19.8760 C   0  0  0  0  0  0  0  0  0  0  0  0
  -28.1610  -20.2500   19.0070 N   0  0  0  0  0  0  0  0  0  0  0  0
  -29.8100  -19.4180   20.4810 N   0  0  0  0  0  0  0  0  0  0  0  0
  -29.6040  -21.7000   20.0030 N   0  0  0  0  0  0  0  0  0  0  0  0
  -29.7100  -22.0880   19.0750 H   0  0  0  0  0  0  0  0  0  0  0  0
  -28.1340  -16.5940   18.7480 N   0  0  0  0  0  0  0  0  0  0  0  0
  -28.8770  -15.9050   18.7380 H   0  0  0  0  0  0  0  0  0  0  0  0
  -27.5920  -16.5600   17.8880 H   0  0  0  0  0  0  0  0  0  0  0  0
  -29.3570  -22.6420   22.2620 C   0  0  0  0  0  1  0  0  0  0  0  0
  -28.8910  -22.7180   20.7980 C   0  0  0  0  0  3  0  0  0  0  0  0
  -29.0510  -24.1670   20.1960 C   0  0  0  0  0  3  0  0  0  0  0  0
  -28.2450  -25.3160   20.8870 C   0  0  0  0  0  3  0  0  0  0  0  0
  -28.3850  -26.6260   20.2710 O   0  0  0  0  0  0  0  0  0  0  0  0
  -24.5790  -31.9060   23.2430 C   0  0  0  0  0  0  0  0  0  0  0  0
  -27.2410  -27.4050   20.2450 C   0  0  0  0  0  0  0  0  0  0  0  0
  -23.3880  -30.4910   21.6010 C   0  0  0  0  0  3  0  0  0  0  0  0
  -24.8560  -28.9390   20.2010 C   0  0  0  0  0  0  0  0  0  0  0  0
  -25.9180  -30.8400   21.4250 C   0  0  0  0  0  2  0  0  0  0  0  0
  -26.0100  -29.4610   20.8000 C   0  0  0  0  0  0  0  0  0  0  0  0
  -27.2080  -28.7030   20.8140 C   0  0  0  0  0  3  0  0  0  0  0  0
  -26.0720  -26.9110   19.6270 C   0  0  0  0  0  3  0  0  0  0  0  0
  -24.8840  -27.6670   19.6050 C   0  0  0  0  0  3  0  0  0  0  0  0
  -23.6130  -29.8030   20.2290 C   0  0  0  0  0  2  0  0  0  0  0  0
  -24.6460  -31.0950   22.1480 N   0  0  0  0  0  0  0  0  0  0  0  0
  -23.4920  -32.1830   23.7700 O   0  0  0  0  0  0  0  0  0  0  0  0
  -22.7250  -29.4790   22.5630 C   0  0  0  0  0  0  0  0  0  0  0  0
  -21.3990  -29.3070   22.4360 N   0  0  0  0  0  0  0  0  0  0  0  0
  -23.4010  -28.8520   23.3840 O   0  0  0  0  0  0  0  0  0  0  0  0
  -20.9140  -29.8660   21.7470 H   0  0  0  0  0  0  0  0  0  0  0  0
  -18.0120  -28.1560   22.9500 C   0  0  0  0  0  0  0  0  0  0  0  0
  -20.5750  -28.3780   23.2080 C   0  0  0  0  0  3  0  0  0  0  0  0
  -20.6540  -26.9470   22.6260 C   0  0  0  0  0  2  0  0  0  0  0  0
  -19.5420  -26.6420   21.6180 C   0  0  0  0  0  2  0  0  0  0  0  0
  -18.1660  -26.8050   22.2690 C   0  0  0  0  0  2  0  0  0  0  0  0
  -19.1440  -28.9010   23.3760 C   0  0  0  0  0  0  0  0  0  0  0  0
  -18.9450  -30.1650   23.9730 C   0  0  0  0  0  3  0  0  0  0  0  0
  -17.6480  -30.6840   24.1460 C   0  0  0  0  0  3  0  0  0  0  0  0
  -16.5310  -29.9350   23.7360 C   0  0  0  0  0  3  0  0  0  0  0  0
  -16.7140  -28.6730   23.1430 C   0  0  0  0  0  3  0  0  0  0  0  0
  -25.8590  -32.5430   23.8690 C   0  0  0  0  0  3  0  0  0  0  0  0
  -25.5480  -33.9430   24.1870 N   0  0  0  0  0  0  0  0  0  0  0  0
  -25.8890  -34.9890   23.4240 C   0  0  0  0  0  0  0  0  0  0  0  0
  -26.5710  -34.8770   22.4010 O   0  0  0  0  0  0  0  0  0  0  0  0
  -24.9480  -34.1040   24.9840 H   0  0  0  0  0  0  0  0  0  0  0  0
  -24.1760  -36.7860   23.0240 C   0  0  0  0  0  1  0  0  0  0  0  0
  -25.3970  -36.3820   23.8640 C   0  0  0  0  0  3  0  0  0  0  0  0
  -27.5160  -37.2620   24.7390 C   0  0  0  0  0  1  0  0  0  0  0  0
  -26.4360  -37.4310   23.7690 N   0  0  0  0  0  0  0  0  0  0  0  0
  -26.0310  -38.3520   23.9030 H   0  0  0  0  0  0  0  0  0  0  0  0
  -26.3670  -31.7800   25.1540 C   0  0  1  0  0  0  0  0  0  0  0  0
  -25.2670  -31.5470   26.2150 C   0  0  0  0  0  1  0  0  0  0  0  0
  -26.9560  -30.4030   24.7720 C   0  0  0  0  0  1  0  0  0  0  0  0
  -27.5130  -32.5800   25.8210 C   0  0  0  0  0  1  0  0  0  0  0  0
  -30.3810  -17.0400   20.8440 C   0  0  0  0  0  2  0  0  0  0  0  0
  -30.6480  -14.5540   20.4720 C   0  0  0  0  0  0  0  0  0  0  0  0
  -30.3610  -12.3800   19.3360 C   0  0  0  0  0  2  0  0  0  0  0  0
  -29.4070  -12.5650   18.1380 C   0  0  0  0  0  2  0  0  0  0  0  0
  -27.9390  -12.4070   18.5800 C   0  0  0  0  0  2  0  0  0  0  0  0
  -27.6030  -13.2290   19.8520 C   0  0  0  0  0  3  0  0  0  0  0  0
  -28.6740  -13.0470   20.9480 C   0  0  0  0  0  2  0  0  0  0  0  0
  -29.9800  -13.3710   20.3550 N   0  0  0  0  0  0  0  0  0  0  0  0
  -31.8100  -14.6890   20.0820 O   0  0  0  0  0  0  0  0  0  0  0  0
  -29.9190  -15.6270   20.8420 N   0  0  0  0  0  0  0  0  0  0  0  0
  -28.9340  -15.4890   21.0200 H   0  0  0  0  0  0  0  0  0  0  0  0
  -25.2130  -13.8320   20.5770 C   0  0  0  0  0  0  0  0  0  0  0  0
  -24.1470  -13.0540   20.9450 C   0  0  0  0  0  0  0  0  0  0  0  0
  -24.6120  -11.7030   20.9050 C   0  0  0  0  0  0  0  0  0  0  0  0
  -26.2570  -12.9520   20.3380 N   0  0  0  0  0  0  0  0  0  0  0  0
  -25.9010  -11.6680   20.5940 N   0  0  0  0  0  0  0  0  0  0  0  0
  -23.8920  -10.4370   21.0880 C   0  0  0  0  0  0  0  0  0  0  0  0
  -24.3350   -9.4640   22.0120 C   0  0  0  0  0  3  0  0  0  0  0  0
  -23.6200   -8.2610   22.1820 C   0  0  0  0  0  3  0  0  0  0  0  0
  -22.4450   -8.0210   21.4300 C   0  0  0  0  0  0  0  0  0  0  0  0
  -22.0210   -8.9820   20.4950 C   0  0  0  0  0  3  0  0  0  0  0  0
  -22.7370  -10.1770   20.3220 C   0  0  0  0  0  3  0  0  0  0  0  0
  -21.6970   -6.8720   21.5130 O   0  0  0  0  0  0  0  0  0  0  0  0
  -21.6600   -6.1190   22.6590 C   0  0  0  0  0  0  0  0  0  0  0  0
  -21.2280   -6.6560   23.8910 C   0  0  0  0  0  3  0  0  0  0  0  0
  -21.1410   -5.8280   25.0270 C   0  0  0  0  0  3  0  0  0  0  0  0
  -21.4740   -4.4630   24.9330 C   0  0  0  0  0  0  0  0  0  0  0  0
  -21.8980   -3.9250   23.7050 C   0  0  0  0  0  3  0  0  0  0  0  0
  -21.9880   -4.7500   22.5710 C   0  0  0  0  0  0  0  0  0  0  0  0
  -22.3770   -4.2230   21.3860 F   0  0  0  0  0  0  0  0  0  0  0  0
  -21.3830   -3.6660   26.0230 F   0  0  0  0  0  0  0  0  0  0  0  0
  -22.7490  -13.5230   21.2250 C   0  0  0  0  0  0  0  0  0  0  0  0
  -22.0240  -12.8150   22.0850 N   0  0  0  0  0  0  0  0  0  0  0  0
  -22.3050  -14.5500   20.7140 O   0  0  0  0  0  0  0  0  0  0  0  0
  -22.3950  -11.9850   22.5240 H   0  0  0  0  0  0  0  0  0  0  0  0
  -21.0850  -13.1100   22.3120 H   0  0  0  0  0  0  0  0  0  0  0  0
  -25.3830  -15.2050   20.4040 N   0  0  0  0  0  0  0  0  0  0  0  0
  -24.6190  -15.8640   20.5020 H   0  0  0  0  0  0  0  0  0  0  0  0
  -26.2290  -15.6340   20.0370 H   0  0  0  0  0  0  0  0  0  0  0  0
  1  5  1  0
  1  2  2  0
  2  3  1  0
  3  6  2  0
  3 57  1  0
  4  7  1  0
  4  6  1  0
  5  4  2  0
  7 13  1  0
  8  7  1  0
  9  2  1  0
 10  9  1  0
 11  9  1  0
 13 12  1  0
 14 13  1  0
 14 15  2  0
 16 15  1  0
 17 28  2  0
 18 16  1  0
 18 23  1  0
 19 27  1  0
 19 29  1  0
 20 26  1  0
 20 22  1  0
 21 27  1  0
 22 23  2  0
 22 21  1  0
 24 18  2  0
 25 24  1  0
 25 20  2  0
 26 19  1  0
 27 17  1  0
 29 31  2  0
 30 29  1  0
 32 30  1  0
 33 42  2  0
 33 38  1  0
 34 30  1  0
 34 38  1  0
 35 34  1  0
 36 37  1  0
 36 35  1  0
 37 33  1  0
 38 39  2  0
 39 40  1  0
 41 40  2  0
 42 41  1  0
 43 17  1  0
 43 44  1  0
 43 53  1  0
 44 47  1  0
 45 49  1  0
 45 44  1  0
 46 45  2  0
 49 48  1  0
 51 49  1  0
 51 52  1  0
 51 50  1  0
 53 56  1  1
 53 54  1  0
 55 53  1  0
 58 66  1  0
 59 64  1  0
 60 61  1  0
 60 59  1  0
 62 61  1  0
 62 71  1  0
 62 63  1  0
 64 58  1  0
 64 63  1  0
 65 58  2  0
 66 57  1  0
 66 67  1  0
 68 69  2  0
 69 88  1  0
 70 69  1  0
 70 73  1  0
 71 68  1  0
 71 72  1  0
 72 70  2  0
 73 74  1  0
 74 75  2  0
 76 79  1  0
 76 75  1  0
 77 76  2  0
 78 77  1  0
 78 73  2  0
 79 80  1  0
 80 81  1  0
 81 82  2  0
 83 82  1  0
 83 87  1  0
 84 83  2  0
 85 80  2  0
 85 84  1  0
 86 85  1  0
 88 89  1  0
 89 92  1  0
 89 91  1  0
 90 88  2  0
 93 94  1  0
 93 68  1  0
 95 93  1  0
M  ISO  4  15 101  16 101  58 100  66 100
M  END
>  <TORSDO>  (44) 
F 21

>  <SCORE>  (44) 
-14.158

>  <name>  (44) 
43

>  <ligand_id>  (44) 
43

>  <original_smiles>  (44) 
[H]c1nc(N([H])C([H])(C([H])([H])[H])C([H])([H])C([H])([H])Oc2c([H])c([H])c3c(c2[H])C([H])([H])N(C(=O)C([H])(N([H])C(=O)C([H])(N([H])C([H])([H])[H])C([H])([H])[H])C(C([H])([H])[H])(C([H])([H])[H])C([H])([H])[H])C([H])(C(=O)N([H])C2([H])c4c([H])c([H])c([H])c([H])c4C([H])([H])C([H])([H])C2([H])[H])C3([H])[H])nc(C([H])([H])N([H])C(=O)N2C([H])([H])C([H])([H])C([H])([H])C([H])(n3nc(-c4c([H])c([H])c(Oc5c([H])c([H])c(F)c([H])c5F)c([H])c4[H])c(C(=O)N([H])[H])c3N([H])[H])C2([H])[H])c1N([H])[H]

>  <smiles>  (44) 
[H]c1nc(N([H])C([H])(C([H])([H])[H])C([H])([H])C([H])([H])Oc2c([H])c([H])c3c(c2[H])C([H])([H])N(C(=O)C([H])(N([H])C(=O)C([H])(N([H])C([H])([H])[H])C([H])([H])[H])C(C([H])([H])[H])(C([H])([H])[H])C([H])([H])[H])C([H])(C(=O)N([H])C2([H])c4c([H])c([H])c([H])c([H])c4C([H])([H])C([H])([H])C2([H])[H])C3([H])[H])nc(C([H])([H])N([H])C(=O)N2C([H])([H])C([H])([H])C([H])([H])C([H])(n3nc(-c4c([H])c([H])c(Oc5c([H])c([H])c(F)c([H])c5F)c([H])c4[H])c(C(=O)N([H])[H])c3N([H])[H])C2([H])[H])c1N([H])[H]

$$$$
44:0:0
     RDKit          3D

 92100  0  0  1  0  0  0  0  0999 V2000
  -28.4330  -17.8860   20.6930 C   0  0  0  0  0  3  0  0  0  0  0  0
  -30.5850  -19.4430   20.3800 C   0  0  0  0  0  0  0  0  0  0  0  0
  -29.7030  -17.2390   20.5770 C   0  0  0  0  0  0  0  0  0  0  0  0
  -29.2980  -20.0700   20.5110 C   0  0  0  0  0  0  0  0  0  0  0  0
  -31.8490  -20.2700   20.2380 C   0  0  0  0  0  1  0  0  0  0  0  0
  -28.2300  -19.2450   20.6530 N   0  0  0  0  0  0  0  0  0  0  0  0
  -30.7770  -18.0710   20.4060 N   0  0  0  0  0  0  0  0  0  0  0  0
  -29.0490  -21.4890   20.6580 N   0  0  0  0  0  0  0  0  0  0  0  0
  -29.7130  -21.8510   21.3360 H   0  0  0  0  0  0  0  0  0  0  0  0
  -30.5410  -14.7330   20.3210 C   0  0  0  0  0  0  0  0  0  0  0  0
  -30.3670  -12.4810   19.2440 C   0  0  0  0  0  2  0  0  0  0  0  0
  -29.4110  -12.5950   18.0350 C   0  0  0  0  0  2  0  0  0  0  0  0
  -27.9440  -12.4160   18.4760 C   0  0  0  0  0  2  0  0  0  0  0  0
  -27.5890  -13.2850   19.7090 C   0  0  0  0  0  3  0  0  0  0  0  0
  -28.6490  -13.1210   20.8200 C   0  0  0  0  0  2  0  0  0  0  0  0
  -29.9520  -13.4910   20.2440 N   0  0  0  0  0  0  0  0  0  0  0  0
  -31.7020  -14.8990   19.9340 O   0  0  0  0  0  0  0  0  0  0  0  0
  -29.7010  -15.7650   20.6910 N   0  0  0  0  0  0  0  0  0  0  0  0
  -28.8130  -15.4010   20.9980 H   0  0  0  0  0  0  0  0  0  0  0  0
  -25.2060  -13.9020   20.4400 C   0  0  0  0  0  0  0  0  0  0  0  0
  -24.1380  -13.1380   20.8240 C   0  0  0  0  0  0  0  0  0  0  0  0
  -24.5920  -11.7840   20.7910 C   0  0  0  0  0  0  0  0  0  0  0  0
  -26.2420  -13.0140   20.2000 N   0  0  0  0  0  0  0  0  0  0  0  0
  -25.8800  -11.7350   20.4740 N   0  0  0  0  0  0  0  0  0  0  0  0
  -23.8620  -10.5250   20.9880 C   0  0  0  0  0  0  0  0  0  0  0  0
  -24.2910   -9.5610   21.9290 C   0  0  0  0  0  3  0  0  0  0  0  0
  -23.5590   -8.3680   22.1140 C   0  0  0  0  0  3  0  0  0  0  0  0
  -22.3860   -8.1310   21.3590 C   0  0  0  0  0  0  0  0  0  0  0  0
  -21.9780   -9.0840   20.4100 C   0  0  0  0  0  3  0  0  0  0  0  0
  -22.7080  -10.2690   20.2220 C   0  0  0  0  0  3  0  0  0  0  0  0
  -21.6260   -6.9910   21.4530 O   0  0  0  0  0  0  0  0  0  0  0  0
  -21.5680   -6.2590   22.6110 C   0  0  0  0  0  0  0  0  0  0  0  0
  -21.1250   -6.8250   23.8290 C   0  0  0  0  0  3  0  0  0  0  0  0
  -21.0130   -6.0180   24.9800 C   0  0  0  0  0  3  0  0  0  0  0  0
  -21.3340   -4.6490   24.9150 C   0  0  0  0  0  0  0  0  0  0  0  0
  -21.7700   -4.0840   23.7040 C   0  0  0  0  0  3  0  0  0  0  0  0
  -21.8840   -4.8860   22.5550 C   0  0  0  0  0  0  0  0  0  0  0  0
  -22.2840   -4.3320   21.3850 F   0  0  0  0  0  0  0  0  0  0  0  0
  -21.2190   -3.8740   26.0190 F   0  0  0  0  0  0  0  0  0  0  0  0
  -22.7450  -13.6240   21.1020 C   0  0  0  0  0  0  0  0  0  0  0  0
  -22.0180  -12.9330   21.9740 N   0  0  0  0  0  0  0  0  0  0  0  0
  -22.3090  -14.6490   20.5820 O   0  0  0  0  0  0  0  0  0  0  0  0
  -22.3840  -12.1030   22.4150 H   0  0  0  0  0  0  0  0  0  0  0  0
  -21.0820  -13.2380   22.2010 H   0  0  0  0  0  0  0  0  0  0  0  0
  -25.3780  -15.2700   20.2430 N   0  0  0  0  0  0  0  0  0  0  0  0
  -24.5990  -15.9160   20.3050 H   0  0  0  0  0  0  0  0  0  0  0  0
  -26.1760  -15.6670   19.7660 H   0  0  0  0  0  0  0  0  0  0  0  0
  -28.4820  -21.7930   18.2480 C   0  0  0  0  0  1  0  0  0  0  0  0
  -28.9730  -22.4920   19.5340 C   0  0  0  0  0  3  0  0  0  0  0  0
  -28.1090  -23.8630   19.7180 C   0  0  0  0  0  2  0  0  0  0  0  0
  -28.5320  -25.1250   20.6100 C   0  0  0  0  0  2  0  0  0  0  0  0
  -28.4470  -26.5400   20.1350 O   0  0  0  0  0  0  0  0  0  0  0  0
  -24.6250  -31.8840   23.2350 C   0  0  0  0  0  0  0  0  0  0  0  0
  -27.2820  -27.3220   20.1990 C   0  0  0  0  0  0  0  0  0  0  0  0
  -23.4370  -30.4780   21.5860 C   0  0  0  0  0  3  0  0  0  0  0  0
  -24.9030  -28.9190   20.1750 C   0  0  0  0  0  0  0  0  0  0  0  0
  -25.9760  -30.8000   21.4220 C   0  0  0  0  0  2  0  0  0  0  0  0
  -26.0640  -29.4170   20.7810 C   0  0  0  0  0  0  0  0  0  0  0  0
  -27.2560  -28.6300   20.7770 C   0  0  0  0  0  3  0  0  0  0  0  0
  -26.1010  -26.8680   19.5790 C   0  0  0  0  0  3  0  0  0  0  0  0
  -24.9260  -27.6520   19.5630 C   0  0  0  0  0  3  0  0  0  0  0  0
  -23.6640  -29.7950   20.2090 C   0  0  0  0  0  2  0  0  0  0  0  0
  -24.6970  -31.0720   22.1390 N   0  0  0  0  0  0  0  0  0  0  0  0
  -23.5380  -32.1620   23.7630 O   0  0  0  0  0  0  0  0  0  0  0  0
  -22.7720  -29.4610   22.5440 C   0  0  0  0  0  0  0  0  0  0  0  0
  -21.4470  -29.2870   22.4140 N   0  0  0  0  0  0  0  0  0  0  0  0
  -23.4480  -28.8290   23.3590 O   0  0  0  0  0  0  0  0  0  0  0  0
  -20.9610  -29.8550   21.7340 H   0  0  0  0  0  0  0  0  0  0  0  0
  -18.0640  -28.1100   22.9130 C   0  0  0  0  0  0  0  0  0  0  0  0
  -20.6250  -28.3480   23.1770 C   0  0  0  0  0  3  0  0  0  0  0  0
  -20.7140  -26.9200   22.5900 C   0  0  0  0  0  2  0  0  0  0  0  0
  -19.6060  -26.6140   21.5760 C   0  0  0  0  0  2  0  0  0  0  0  0
  -18.2270  -26.7630   22.2270 C   0  0  0  0  0  2  0  0  0  0  0  0
  -19.1900  -28.8600   23.3440 C   0  0  0  0  0  0  0  0  0  0  0  0
  -18.9860  -30.1180   23.9520 C   0  0  0  0  0  3  0  0  0  0  0  0
  -17.6850  -30.6280   24.1280 C   0  0  0  0  0  3  0  0  0  0  0  0
  -16.5740  -29.8730   23.7180 C   0  0  0  0  0  3  0  0  0  0  0  0
  -16.7630  -28.6170   23.1150 C   0  0  0  0  0  3  0  0  0  0  0  0
  -25.9030  -32.5210   23.8630 C   0  0  0  0  0  3  0  0  0  0  0  0
  -26.4120  -31.7570   25.1480 C   0  0  1  0  0  0  0  0  0  0  0  0
  -25.3090  -31.5210   26.2070 C   0  0  0  0  0  1  0  0  0  0  0  0
  -27.0050  -30.3820   24.7650 C   0  0  0  0  0  1  0  0  0  0  0  0
  -27.5540  -32.5570   25.8160 C   0  0  0  0  0  1  0  0  0  0  0  0
  -25.5900  -33.9200   24.1870 N   0  0  0  0  0  0  0  0  0  0  0  0
  -25.9170  -34.9720   23.4250 C   0  0  0  0  0  0  0  0  0  0  0  0
  -26.5860  -34.8670   22.3920 O   0  0  0  0  0  0  0  0  0  0  0  0
  -25.0040  -34.0740   24.9960 H   0  0  0  0  0  0  0  0  0  0  0  0
  -24.1860  -36.7580   23.0600 C   0  0  0  0  0  1  0  0  0  0  0  0
  -25.4240  -36.3600   23.8780 C   0  0  0  0  0  3  0  0  0  0  0  0
  -27.5520  -37.2560   24.7130 C   0  0  0  0  0  1  0  0  0  0  0  0
  -26.4550  -37.4160   23.7630 N   0  0  0  0  0  0  0  0  0  0  0  0
  -26.0460  -38.3360   23.9040 H   0  0  0  0  0  0  0  0  0  0  0  0
  2  7  2  0
  2  4  1  0
  3 18  1  0
  3  1  2  0
  4  6  2  0
  4  8  1  0
  5  2  1  0
  6  1  1  0
  7  3  1  0
  8  9  1  0
 10 18  1  0
 11 16  1  0
 12 13  1  0
 12 11  1  0
 14 13  1  0
 14 23  1  0
 14 15  1  0
 16 10  1  0
 16 15  1  0
 17 10  2  0
 18 19  1  0
 20 21  2  0
 21 40  1  0
 22 21  1  0
 22 25  1  0
 23 20  1  0
 23 24  1  0
 24 22  2  0
 25 26  1  0
 26 27  2  0
 28 31  1  0
 28 27  1  0
 29 28  2  0
 30 29  1  0
 30 25  2  0
 31 32  1  0
 32 33  1  0
 33 34  2  0
 35 34  1  0
 35 39  1  0
 36 35  2  0
 37 32  2  0
 37 36  1  0
 38 37  1  0
 40 41  1  0
 41 44  1  0
 41 43  1  0
 42 40  2  0
 45 46  1  0
 45 20  1  0
 47 45  1  0
 49 48  1  0
 49 50  1  0
 49  8  1  0
 50 51  1  0
 52 54  1  0
 52 51  1  0
 53 64  2  0
 54 59  1  0
 55 63  1  0
 55 65  1  0
 56 62  1  0
 56 58  1  0
 57 63  1  0
 58 57  1  0
 59 58  2  0
 60 54  2  0
 61 60  1  0
 61 56  2  0
 62 55  1  0
 63 53  1  0
 65 67  2  0
 66 65  1  0
 68 66  1  0
 69 78  2  0
 69 74  1  0
 70 66  1  0
 70 74  1  0
 71 70  1  0
 72 73  1  0
 72 71  1  0
 73 69  1  0
 74 75  2  0
 75 76  1  0
 77 76  2  0
 78 77  1  0
 79 53  1  0
 79 84  1  0
 79 80  1  0
 80 83  1  1
 80 81  1  0
 82 80  1  0
 84 87  1  0
 85 89  1  0
 85 84  1  0
 86 85  2  0
 89 88  1  0
 91 89  1  0
 91 92  1  0
 91 90  1  0
M  ISO  4  10 100  18 100  51 101  52 101
M  END
>  <TORSDO>  (45) 
F 19

>  <SCORE>  (45) 
-14.281

>  <name>  (45) 
44

>  <ligand_id>  (45) 
44

>  <original_smiles>  (45) 
[H]c1nc(N([H])C([H])(C([H])([H])[H])C([H])([H])C([H])([H])Oc2c([H])c([H])c3c(c2[H])C([H])([H])N(C(=O)C([H])(N([H])C(=O)C([H])(N([H])C([H])([H])[H])C([H])([H])[H])C(C([H])([H])[H])(C([H])([H])[H])C([H])([H])[H])C([H])(C(=O)N([H])C2([H])c4c([H])c([H])c([H])c([H])c4C([H])([H])C([H])([H])C2([H])[H])C3([H])[H])c(C([H])([H])[H])nc1N([H])C(=O)N1C([H])([H])C([H])([H])C([H])([H])C([H])(n2nc(-c3c([H])c([H])c(Oc4c([H])c([H])c(F)c([H])c4F)c([H])c3[H])c(C(=O)N([H])[H])c2N([H])[H])C1([H])[H]

>  <smiles>  (45) 
[H]c1nc(N([H])C([H])(C([H])([H])[H])C([H])([H])C([H])([H])Oc2c([H])c([H])c3c(c2[H])C([H])([H])N(C(=O)C([H])(N([H])C(=O)C([H])(N([H])C([H])([H])[H])C([H])([H])[H])C(C([H])([H])[H])(C([H])([H])[H])C([H])([H])[H])C([H])(C(=O)N([H])C2([H])c4c([H])c([H])c([H])c([H])c4C([H])([H])C([H])([H])C2([H])[H])C3([H])[H])c(C([H])([H])[H])nc1N([H])C(=O)N1C([H])([H])C([H])([H])C([H])([H])C([H])(n2nc(-c3c([H])c([H])c(Oc4c([H])c([H])c(F)c([H])c4F)c([H])c3[H])c(C(=O)N([H])[H])c2N([H])[H])C1([H])[H]

$$$$
45:0:0
     RDKit          3D

 92100  0  0  1  0  0  0  0  0999 V2000
  -30.5680  -14.8620   20.4010 C   0  0  0  0  0  0  0  0  0  0  0  0
  -30.4480  -12.5050   19.5450 C   0  0  0  0  0  2  0  0  0  0  0  0
  -29.5400  -12.4340   18.2980 C   0  0  0  0  0  2  0  0  0  0  0  0
  -28.0650  -12.2510   18.7070 C   0  0  0  0  0  2  0  0  0  0  0  0
  -27.6310  -13.2270   19.8330 C   0  0  0  0  0  3  0  0  0  0  0  0
  -28.6620  -13.2760   20.9800 C   0  0  0  0  0  2  0  0  0  0  0  0
  -29.9560  -13.6240   20.3820 N   0  0  0  0  0  0  0  0  0  0  0  0
  -31.7780  -14.9280   20.1580 O   0  0  0  0  0  0  0  0  0  0  0  0
  -30.3330  -19.9900   21.4730 C   0  0  0  0  0  3  0  0  0  0  0  0
  -30.9140  -18.9020   22.1410 C   0  0  0  0  0  0  0  0  0  0  0  0
  -29.5450  -19.7340   20.3520 C   0  0  0  0  0  0  0  0  0  0  0  0
  -29.9970  -17.3850   20.6590 C   0  0  0  0  0  0  0  0  0  0  0  0
  -31.7800  -19.1140   23.3630 C   0  0  0  0  0  1  0  0  0  0  0  0
  -30.7450  -17.6270   21.7330 N   0  0  0  0  0  0  0  0  0  0  0  0
  -29.3830  -18.4080   19.9650 N   0  0  0  0  0  0  0  0  0  0  0  0
  -29.0250  -20.8460   19.5790 N   0  0  0  0  0  4  0  0  0  0  0  0
  -29.7600  -15.9990   20.3780 N   0  0  0  0  0  0  0  0  0  0  0  0
  -28.6940  -20.5250   18.6740 H   0  0  0  0  0  0  0  0  0  0  0  0
  -28.7900  -15.7920   20.2230 H   0  0  0  0  0  0  0  0  0  0  0  0
  -25.2440  -13.8230   20.5570 C   0  0  0  0  0  0  0  0  0  0  0  0
  -24.1710  -13.0510   20.9070 C   0  0  0  0  0  0  0  0  0  0  0  0
  -24.6250  -11.6970   20.8600 C   0  0  0  0  0  0  0  0  0  0  0  0
  -26.2840  -12.9400   20.3150 N   0  0  0  0  0  0  0  0  0  0  0  0
  -25.9180  -11.6550   20.5620 N   0  0  0  0  0  0  0  0  0  0  0  0
  -23.8870  -10.4380   21.0230 C   0  0  0  0  0  0  0  0  0  0  0  0
  -24.3130   -9.4440   21.9330 C   0  0  0  0  0  3  0  0  0  0  0  0
  -23.5750   -8.2510   22.0850 C   0  0  0  0  0  3  0  0  0  0  0  0
  -22.3980   -8.0420   21.3280 C   0  0  0  0  0  0  0  0  0  0  0  0
  -21.9910   -9.0230   20.4080 C   0  0  0  0  0  3  0  0  0  0  0  0
  -22.7290  -10.2090   20.2530 C   0  0  0  0  0  3  0  0  0  0  0  0
  -21.6320   -6.9030   21.3920 O   0  0  0  0  0  0  0  0  0  0  0  0
  -21.5830   -6.1300   22.5250 C   0  0  0  0  0  0  0  0  0  0  0  0
  -21.1820   -6.6600   23.7710 C   0  0  0  0  0  3  0  0  0  0  0  0
  -21.0800   -5.8150   24.8950 C   0  0  0  0  0  3  0  0  0  0  0  0
  -21.3690   -4.4430   24.7730 C   0  0  0  0  0  0  0  0  0  0  0  0
  -21.7640   -3.9130   23.5320 C   0  0  0  0  0  3  0  0  0  0  0  0
  -21.8670   -4.7540   22.4100 C   0  0  0  0  0  0  0  0  0  0  0  0
  -22.2270   -4.2360   21.2120 F   0  0  0  0  0  0  0  0  0  0  0  0
  -21.2640   -3.6290   25.8500 F   0  0  0  0  0  0  0  0  0  0  0  0
  -22.7750  -13.5340   21.1710 C   0  0  0  0  0  0  0  0  0  0  0  0
  -22.0370  -12.8400   22.0310 N   0  0  0  0  0  0  0  0  0  0  0  0
  -22.3470  -14.5640   20.6500 O   0  0  0  0  0  0  0  0  0  0  0  0
  -22.3970  -12.0070   22.4740 H   0  0  0  0  0  0  0  0  0  0  0  0
  -21.1000  -13.1460   22.2500 H   0  0  0  0  0  0  0  0  0  0  0  0
  -25.4160  -15.1950   20.3990 N   0  0  0  0  0  0  0  0  0  0  0  0
  -24.6410  -15.8410   20.5000 H   0  0  0  0  0  0  0  0  0  0  0  0
  -26.2460  -15.6360   20.0290 H   0  0  0  0  0  0  0  0  0  0  0  0
  -27.8710  -22.0720   21.5070 C   0  0  0  0  0  1  0  0  0  0  0  0
  -28.2870  -22.1130   20.0260 C   0  0  0  0  0  0  0  0  0  0  0  0
  -28.8050  -23.6090   19.6050 C   0  0  0  0  0  3  0  0  0  0  0  0
  -27.7430  -24.8490   19.6050 C   0  0  0  0  0  3  0  0  0  0  0  0
  -28.0690  -26.3310   19.5390 O   0  0  0  0  0  0  0  0  0  0  0  0
  -24.5950  -31.7280   23.0140 C   0  0  0  0  0  0  0  0  0  0  0  0
  -26.9950  -27.2620   19.5920 C   0  0  0  0  0  0  0  0  0  0  0  0
  -23.3030  -30.4360   21.3590 C   0  0  0  0  0  3  0  0  0  0  0  0
  -24.6680  -28.9550   19.7810 C   0  0  0  0  0  0  0  0  0  0  0  0
  -25.8440  -30.7210   21.0800 C   0  0  0  0  0  2  0  0  0  0  0  0
  -25.8750  -29.3770   20.3510 C   0  0  0  0  0  0  0  0  0  0  0  0
  -27.0420  -28.5460   20.2440 C   0  0  0  0  0  3  0  0  0  0  0  0
  -25.7590  -26.9260   18.9920 C   0  0  0  0  0  3  0  0  0  0  0  0
  -24.6150  -27.7390   19.0900 C   0  0  0  0  0  3  0  0  0  0  0  0
  -23.4480  -29.8440   19.9340 C   0  0  0  0  0  2  0  0  0  0  0  0
  -24.6030  -30.9770   21.8730 N   0  0  0  0  0  0  0  0  0  0  0  0
  -23.5380  -31.9860   23.6110 O   0  0  0  0  0  0  0  0  0  0  0  0
  -22.6710  -29.3720   22.2900 C   0  0  0  0  0  0  0  0  0  0  0  0
  -21.3380  -29.2160   22.2180 N   0  0  0  0  0  0  0  0  0  0  0  0
  -23.3780  -28.6920   23.0380 O   0  0  0  0  0  0  0  0  0  0  0  0
  -20.8240  -29.8170   21.5900 H   0  0  0  0  0  0  0  0  0  0  0  0
  -17.9730  -28.0160   22.8080 C   0  0  0  0  0  0  0  0  0  0  0  0
  -20.5430  -28.2450   22.9750 C   0  0  0  0  0  3  0  0  0  0  0  0
  -20.6070  -26.8450   22.3210 C   0  0  0  0  0  2  0  0  0  0  0  0
  -19.4580  -26.5840   21.3420 C   0  0  0  0  0  2  0  0  0  0  0  0
  -18.1070  -26.7040   22.0540 C   0  0  0  0  0  2  0  0  0  0  0  0
  -19.1160  -28.7470   23.2260 C   0  0  0  0  0  0  0  0  0  0  0  0
  -18.9350  -29.9780   23.8940 C   0  0  0  0  0  3  0  0  0  0  0  0
  -17.6430  -30.4770   24.1460 C   0  0  0  0  0  3  0  0  0  0  0  0
  -16.5150  -29.7420   23.7420 C   0  0  0  0  0  3  0  0  0  0  0  0
  -16.6810  -28.5130   23.0790 C   0  0  0  0  0  3  0  0  0  0  0  0
  -25.9090  -32.3170   23.6110 C   0  0  0  0  0  3  0  0  0  0  0  0
  -25.6230  -33.6920   24.0460 N   0  0  0  0  0  0  0  0  0  0  0  0
  -25.9200  -34.7920   23.3420 C   0  0  0  0  0  0  0  0  0  0  0  0
  -26.5330  -34.7560   22.2720 O   0  0  0  0  0  0  0  0  0  0  0  0
  -25.0730  -33.7940   24.8870 H   0  0  0  0  0  0  0  0  0  0  0  0
  -24.1820  -36.6060   23.2070 C   0  0  0  0  0  1  0  0  0  0  0  0
  -25.4670  -36.1480   23.9170 C   0  0  0  0  0  3  0  0  0  0  0  0
  -27.6510  -36.9770   24.6740 C   0  0  0  0  0  1  0  0  0  0  0  0
  -26.4950  -37.2070   23.8100 N   0  0  0  0  0  0  0  0  0  0  0  0
  -26.1030  -38.1150   24.0410 H   0  0  0  0  0  0  0  0  0  0  0  0
  -26.4810  -31.4640   24.8100 C   0  0  1  0  0  0  0  0  0  0  0  0
  -25.4430  -31.1740   25.9180 C   0  0  0  0  0  1  0  0  0  0  0  0
  -27.0250  -30.1070   24.3080 C   0  0  0  0  0  1  0  0  0  0  0  0
  -27.6760  -32.2050   25.4550 C   0  0  0  0  0  1  0  0  0  0  0  0
  2  7  1  0
  3  4  1  0
  3  2  1  0
  5  4  1  0
  5 23  1  0
  5  6  1  0
  7  1  1  0
  7  6  1  0
  8  1  2  0
  9 10  2  0
 10 13  1  0
 11  9  1  0
 12 14  2  0
 14 10  1  0
 15 11  2  0
 15 12  1  0
 16 49  2  0
 16 11  1  0
 17  1  1  0
 17 12  1  0
 18 16  1  0
 19 17  1  0
 20 21  2  0
 21 40  1  0
 22 21  1  0
 22 25  1  0
 23 20  1  0
 23 24  1  0
 24 22  2  0
 25 26  1  0
 26 27  2  0
 28 31  1  0
 28 27  1  0
 29 28  2  0
 30 29  1  0
 30 25  2  0
 31 32  1  0
 32 33  1  0
 33 34  2  0
 35 34  1  0
 35 39  1  0
 36 35  2  0
 37 32  2  0
 37 36  1  0
 38 37  1  0
 40 41  1  0
 41 44  1  0
 41 43  1  0
 42 40  2  0
 45 46  1  0
 45 20  1  0
 47 45  1  0
 49 48  1  0
 50 49  1  0
 51 50  2  0
 52 54  1  0
 52 51  1  0
 53 64  2  0
 54 59  1  0
 55 63  1  0
 55 65  1  0
 56 62  1  0
 56 58  1  0
 57 63  1  0
 58 57  1  0
 59 58  2  0
 60 61  1  0
 60 54  2  0
 61 56  2  0
 62 55  1  0
 63 53  1  0
 65 67  2  0
 66 65  1  0
 68 66  1  0
 69 78  2  0
 69 74  1  0
 70 66  1  0
 70 74  1  0
 71 70  1  0
 72 73  1  0
 72 71  1  0
 73 69  1  0
 74 75  2  0
 75 76  1  0
 77 76  2  0
 78 77  1  0
 79 53  1  0
 79 80  1  0
 79 89  1  0
 80 83  1  0
 81 85  1  0
 81 80  1  0
 82 81  2  0
 85 84  1  0
 87 85  1  0
 87 88  1  0
 87 86  1  0
 89 92  1  1
 89 90  1  0
 91 89  1  0
M  ISO  4   1 100  17 100  51 101  52 101
M  END
>  <TORSDO>  (46) 
F 18

>  <SCORE>  (46) 
-13.942

>  <name>  (46) 
45

>  <ligand_id>  (46) 
45

>  <original_smiles>  (46) 
[H]c1c(N([H])C([H])(C([H])([H])[H])C([H])([H])C([H])([H])Oc2c([H])c([H])c3c(c2[H])C([H])([H])N(C(=O)C([H])(N([H])C(=O)C([H])(N([H])C([H])([H])[H])C([H])([H])[H])C(C([H])([H])[H])(C([H])([H])[H])C([H])([H])[H])C([H])(C(=O)N([H])C2([H])c4c([H])c([H])c([H])c([H])c4C([H])([H])C([H])([H])C2([H])[H])C3([H])[H])nc(N([H])C(=O)N2C([H])([H])C([H])([H])C([H])([H])C([H])(n3nc(-c4c([H])c([H])c(Oc5c([H])c([H])c(F)c([H])c5F)c([H])c4[H])c(C(=O)N([H])[H])c3N([H])[H])C2([H])[H])nc1C([H])([H])[H]

>  <smiles>  (46) 
[H]c1c(N([H])C([H])(C([H])([H])[H])C([H])([H])C([H])([H])Oc2c([H])c([H])c3c(c2[H])C([H])([H])N(C(=O)C([H])(N([H])C(=O)C([H])(N([H])C([H])([H])[H])C([H])([H])[H])C(C([H])([H])[H])(C([H])([H])[H])C([H])([H])[H])C([H])(C(=O)N([H])C2([H])c4c([H])c([H])c([H])c([H])c4C([H])([H])C([H])([H])C2([H])[H])C3([H])[H])nc(N([H])C(=O)N2C([H])([H])C([H])([H])C([H])([H])C([H])(n3nc(-c4c([H])c([H])c(Oc5c([H])c([H])c(F)c([H])c5F)c([H])c4[H])c(C(=O)N([H])[H])c3N([H])[H])C2([H])[H])nc1C([H])([H])[H]

$$$$
46:0:0
     RDKit          3D

 95103  0  0  1  0  0  0  0  0999 V2000
  -29.4930  -23.0770   20.6840 C   0  0  0  0  0  3  0  0  0  0  0  0
  -28.3750  -22.7580   21.7020 C   0  0  0  0  0  0  0  0  0  0  0  0
  -28.5520  -23.2080   23.1500 C   0  0  0  0  0  1  0  0  0  0  0  0
  -27.3550  -22.1410   21.3790 O   0  0  0  0  0  0  0  0  0  0  0  0
  -29.5980  -21.8470   19.8220 N   0  0  0  0  0  4  0  0  0  0  0  0
  -28.6640  -21.4810   19.7390 H   0  0  0  0  0  0  0  0  0  0  0  0
  -29.9130  -22.1020   18.9010 H   0  0  0  0  0  0  0  0  0  0  0  0
  -30.4840  -20.7310   20.2950 C   0  0  0  0  0  2  0  0  0  0  0  0
  -30.8730  -14.7460   20.0780 C   0  0  0  0  0  0  0  0  0  0  0  0
  -30.5360  -12.5580   18.9610 C   0  0  0  0  0  2  0  0  0  0  0  0
  -29.5200  -12.7340   17.8130 C   0  0  0  0  0  2  0  0  0  0  0  0
  -28.0780  -12.5790   18.3260 C   0  0  0  0  0  2  0  0  0  0  0  0
  -27.8070  -13.4310   19.5900 C   0  0  0  0  0  3  0  0  0  0  0  0
  -28.9250  -13.2240   20.6400 C   0  0  0  0  0  2  0  0  0  0  0  0
  -30.2190  -13.5460   20.0100 N   0  0  0  0  0  0  0  0  0  0  0  0
  -31.9340  -14.9540   19.4820 O   0  0  0  0  0  0  0  0  0  0  0  0
  -28.5200  -19.0600   20.0800 C   0  0  0  0  0  3  0  0  0  0  0  0
  -29.8580  -19.3290   20.2400 C   0  0  0  0  0  0  0  0  0  0  0  0
  -29.8590  -17.0090   20.4280 C   0  0  0  0  0  0  0  0  0  0  0  0
  -30.6120  -18.1340   20.4480 N   0  0  0  0  0  0  0  0  0  0  0  0
  -30.2700  -15.6950   20.8340 N   0  0  0  0  0  0  0  0  0  0  0  0
  -28.1630  -17.3550   20.1530 S   0  0  0  0  0  0  0  0  0  0  0  0
  -29.5680  -15.2450   21.4000 H   0  0  0  0  0  0  0  0  0  0  0  0
  -25.4680  -14.0510   20.4760 C   0  0  0  0  0  0  0  0  0  0  0  0
  -24.4070  -13.2950   20.8800 C   0  0  0  0  0  0  0  0  0  0  0  0
  -24.8290  -11.9360   20.7640 C   0  0  0  0  0  0  0  0  0  0  0  0
  -26.4780  -13.1620   20.1440 N   0  0  0  0  0  0  0  0  0  0  0  0
  -26.0970  -11.8790   20.3680 N   0  0  0  0  0  0  0  0  0  0  0  0
  -24.0790  -10.6870   20.9500 C   0  0  0  0  0  0  0  0  0  0  0  0
  -24.5090   -9.6960   21.8580 C   0  0  0  0  0  3  0  0  0  0  0  0
  -23.7600   -8.5130   22.0360 C   0  0  0  0  0  3  0  0  0  0  0  0
  -22.5650   -8.3140   21.3060 C   0  0  0  0  0  0  0  0  0  0  0  0
  -22.1480   -9.2930   20.3900 C   0  0  0  0  0  3  0  0  0  0  0  0
  -22.9010  -10.4670   20.2090 C   0  0  0  0  0  3  0  0  0  0  0  0
  -21.7930   -7.1800   21.3900 O   0  0  0  0  0  0  0  0  0  0  0  0
  -21.7280   -6.4390   22.5420 C   0  0  0  0  0  0  0  0  0  0  0  0
  -21.2680   -6.9890   23.7580 C   0  0  0  0  0  3  0  0  0  0  0  0
  -21.1500   -6.1740   24.9010 C   0  0  0  0  0  3  0  0  0  0  0  0
  -21.4810   -4.8080   24.8290 C   0  0  0  0  0  0  0  0  0  0  0  0
  -21.9380   -4.2590   23.6200 C   0  0  0  0  0  3  0  0  0  0  0  0
  -22.0590   -5.0700   22.4800 C   0  0  0  0  0  0  0  0  0  0  0  0
  -22.4790   -4.5300   21.3090 F   0  0  0  0  0  0  0  0  0  0  0  0
  -21.3590   -4.0240   25.9260 F   0  0  0  0  0  0  0  0  0  0  0  0
  -23.0470  -13.8050   21.2620 C   0  0  0  0  0  0  0  0  0  0  0  0
  -22.3570  -13.1040   22.1540 N   0  0  0  0  0  0  0  0  0  0  0  0
  -22.6060  -14.8600   20.8100 O   0  0  0  0  0  0  0  0  0  0  0  0
  -22.7250  -12.2530   22.5540 H   0  0  0  0  0  0  0  0  0  0  0  0
  -21.4490  -13.4330   22.4490 H   0  0  0  0  0  0  0  0  0  0  0  0
  -25.6370  -15.4220   20.3500 N   0  0  0  0  0  0  0  0  0  0  0  0
  -24.8900  -16.0730   20.5680 H   0  0  0  0  0  0  0  0  0  0  0  0
  -26.4790  -15.8770   20.0260 H   0  0  0  0  0  0  0  0  0  0  0  0
  -29.1800  -24.4050   19.8740 C   0  0  0  0  0  2  0  0  0  0  0  0
  -30.0380  -26.1360   21.5950 C   0  0  0  0  0  1  0  0  0  0  0  0
  -28.8730  -25.7310   20.6730 C   0  0  0  0  0  3  0  0  0  0  0  0
  -28.6670  -26.8740   19.8030 O   0  0  0  0  0  0  0  0  0  0  0  0
  -24.5400  -31.7430   23.0860 C   0  0  0  0  0  0  0  0  0  0  0  0
  -27.4570  -27.5490   19.8810 C   0  0  0  0  0  0  0  0  0  0  0  0
  -23.4240  -30.3370   21.3850 C   0  0  0  0  0  3  0  0  0  0  0  0
  -24.9760  -28.9290   19.9190 C   0  0  0  0  0  0  0  0  0  0  0  0
  -25.9310  -30.8390   21.2200 C   0  0  0  0  0  2  0  0  0  0  0  0
  -26.1000  -29.4970   20.5330 C   0  0  0  0  0  0  0  0  0  0  0  0
  -27.3450  -28.8160   20.5050 C   0  0  0  0  0  3  0  0  0  0  0  0
  -26.3160  -27.0000   19.2600 C   0  0  0  0  0  3  0  0  0  0  0  0
  -25.0790  -27.6800   19.2800 C   0  0  0  0  0  3  0  0  0  0  0  0
  -23.6810  -29.7140   19.9850 C   0  0  0  0  0  2  0  0  0  0  0  0
  -24.6480  -30.9880   21.9540 N   0  0  0  0  0  0  0  0  0  0  0  0
  -23.4440  -31.9350   23.6290 O   0  0  0  0  0  0  0  0  0  0  0  0
  -22.8230  -29.2500   22.3040 C   0  0  0  0  0  0  0  0  0  0  0  0
  -21.5080  -29.0130   22.1740 N   0  0  0  0  0  0  0  0  0  0  0  0
  -23.5390  -28.6210   23.0880 O   0  0  0  0  0  0  0  0  0  0  0  0
  -20.9870  -29.5740   21.5140 H   0  0  0  0  0  0  0  0  0  0  0  0
  -18.1890  -27.6670   22.6620 C   0  0  0  0  0  0  0  0  0  0  0  0
  -20.7400  -28.0060   22.9060 C   0  0  0  0  0  3  0  0  0  0  0  0
  -20.8850  -26.6110   22.2530 C   0  0  0  0  0  2  0  0  0  0  0  0
  -19.7780  -26.3060   21.2390 C   0  0  0  0  0  2  0  0  0  0  0  0
  -18.4030  -26.3640   21.9120 C   0  0  0  0  0  2  0  0  0  0  0  0
  -19.2870  -28.4460   23.1160 C   0  0  0  0  0  0  0  0  0  0  0  0
  -19.0330  -29.6670   23.7790 C   0  0  0  0  0  3  0  0  0  0  0  0
  -17.7140  -30.1090   23.9900 C   0  0  0  0  0  3  0  0  0  0  0  0
  -16.6310  -29.3270   23.5510 C   0  0  0  0  0  3  0  0  0  0  0  0
  -16.8700  -28.1060   22.8950 C   0  0  0  0  0  3  0  0  0  0  0  0
  -25.7860  -32.4210   23.7390 C   0  0  0  0  0  3  0  0  0  0  0  0
  -25.4060  -33.7940   24.0940 N   0  0  0  0  0  0  0  0  0  0  0  0
  -25.6950  -34.8770   23.3620 C   0  0  0  0  0  0  0  0  0  0  0  0
  -26.3770  -34.8280   22.3340 O   0  0  0  0  0  0  0  0  0  0  0  0
  -24.7940  -33.9020   24.8910 H   0  0  0  0  0  0  0  0  0  0  0  0
  -23.8880  -36.5930   23.0230 C   0  0  0  0  0  1  0  0  0  0  0  0
  -25.1360  -36.2300   23.8440 C   0  0  0  0  0  3  0  0  0  0  0  0
  -27.2110  -37.1990   24.7280 C   0  0  0  0  0  1  0  0  0  0  0  0
  -26.1190  -37.3320   23.7660 N   0  0  0  0  0  0  0  0  0  0  0  0
  -25.6680  -38.2310   23.9210 H   0  0  0  0  0  0  0  0  0  0  0  0
  -26.3250  -31.6480   25.0050 C   0  0  1  0  0  0  0  0  0  0  0  0
  -25.2320  -31.3410   26.0540 C   0  0  0  0  0  1  0  0  0  0  0  0
  -26.9760  -30.3060   24.5930 C   0  0  0  0  0  1  0  0  0  0  0  0
  -27.4310  -32.4800   25.6950 C   0  0  0  0  0  1  0  0  0  0  0  0
  1 52  1  0
  1  2  1  0
  2  3  1  0
  4  2  2  0
  5  8  1  0
  5  1  1  0
  6  5  1  0
  7  5  1  0
  9 21  1  0
 10 15  1  0
 11 12  1  0
 11 10  1  0
 13 12  1  0
 13 27  1  0
 13 14  1  0
 15  9  1  0
 15 14  1  0
 16  9  2  0
 17 22  1  0
 17 18  2  0
 18  8  1  0
 18 20  1  0
 19 20  2  0
 19 21  1  0
 21 23  1  0
 22 19  1  0
 24 25  2  0
 25 44  1  0
 26 25  1  0
 26 29  1  0
 27 28  1  0
 27 24  1  0
 28 26  2  0
 29 30  1  0
 30 31  2  0
 32 35  1  0
 32 31  1  0
 33 32  2  0
 34 33  1  0
 34 29  2  0
 35 36  1  0
 36 37  1  0
 37 38  2  0
 39 38  1  0
 39 43  1  0
 40 39  2  0
 41 36  2  0
 41 40  1  0
 42 41  1  0
 44 45  1  0
 45 48  1  0
 45 47  1  0
 46 44  2  0
 49 24  1  0
 49 50  1  0
 51 49  1  0
 52 54  1  0
 54 53  1  0
 55 57  1  0
 55 54  1  0
 56 67  2  0
 57 62  1  0
 58 66  1  0
 58 68  1  0
 59 65  1  0
 59 61  1  0
 60 66  1  0
 61 60  1  0
 62 61  2  0
 63 64  1  0
 63 57  2  0
 64 59  2  0
 65 58  1  0
 66 56  1  0
 68 70  2  0
 69 68  1  0
 71 69  1  0
 72 81  2  0
 72 77  1  0
 73 69  1  0
 73 77  1  0
 74 73  1  0
 75 76  1  0
 75 74  1  0
 76 72  1  0
 77 78  2  0
 78 79  1  0
 80 79  2  0
 81 80  1  0
 82 56  1  0
 82 83  1  0
 82 92  1  0
 83 86  1  0
 84 88  1  0
 84 83  1  0
 85 84  2  0
 88 87  1  0
 90 88  1  0
 90 91  1  0
 90 89  1  0
 92 95  1  1
 92 93  1  0
 94 92  1  0
M  ISO  4   9 100  21 100  54 101  55 101
M  END
>  <TORSDO>  (47) 
F 21

>  <SCORE>  (47) 
-12.443

>  <name>  (47) 
46

>  <ligand_id>  (47) 
46

>  <original_smiles>  (47) 
[H]c1sc(N([H])C(=O)N2C([H])([H])C([H])([H])C([H])([H])C([H])(n3nc(-c4c([H])c([H])c(Oc5c([H])c([H])c(F)c([H])c5F)c([H])c4[H])c(C(=O)N([H])[H])c3N([H])[H])C2([H])[H])nc1C([H])([H])[N+]([H])([H])C([H])(C(=O)C([H])([H])[H])C([H])([H])C([H])(Oc1c([H])c([H])c2c(c1[H])C([H])([H])N(C(=O)C([H])(N([H])C(=O)C([H])(N([H])C([H])([H])[H])C([H])([H])[H])C(C([H])([H])[H])(C([H])([H])[H])C([H])([H])[H])C([H])(C(=O)N([H])C1([H])c3c([H])c([H])c([H])c([H])c3C([H])([H])C([H])([H])C1([H])[H])C2([H])[H])C([H])([H])[H]

>  <smiles>  (47) 
[H]c1sc(N([H])C(=O)N2C([H])([H])C([H])([H])C([H])([H])C([H])(n3nc(-c4c([H])c([H])c(Oc5c([H])c([H])c(F)c([H])c5F)c([H])c4[H])c(C(=O)N([H])[H])c3N([H])[H])C2([H])[H])nc1C([H])([H])[N+]([H])([H])C([H])(C(=O)C([H])([H])[H])C([H])([H])C([H])(Oc1c([H])c([H])c2c(c1[H])C([H])([H])N(C(=O)C([H])(N([H])C(=O)C([H])(N([H])C([H])([H])[H])C([H])([H])[H])C(C([H])([H])[H])(C([H])([H])[H])C([H])([H])[H])C([H])(C(=O)N([H])C1([H])c3c([H])c([H])c([H])c([H])c3C([H])([H])C([H])([H])C1([H])[H])C2([H])[H])C([H])([H])[H]

$$$$
47:0:0
     RDKit          3D

 96104  0  0  1  0  0  0  0  0999 V2000
  -28.0890  -21.8090   18.6280 C   0  0  0  0  0  3  0  0  0  0  0  0
  -28.4490  -20.7890   19.7310 C   0  0  0  0  0  0  0  0  0  0  0  0
  -29.6680  -20.2280   19.6700 N   0  0  0  0  0  0  0  0  0  0  0  0
  -27.6200  -20.5010   20.6010 O   0  0  0  0  0  0  0  0  0  0  0  0
  -30.3380  -20.6810   19.0630 H   0  0  0  0  0  0  0  0  0  0  0  0
  -30.6860  -14.4320   20.4030 C   0  0  0  0  0  0  0  0  0  0  0  0
  -30.3440  -12.2850   19.2380 C   0  0  0  0  0  2  0  0  0  0  0  0
  -29.4020  -12.5220   18.0400 C   0  0  0  0  0  2  0  0  0  0  0  0
  -27.9290  -12.3930   18.4770 C   0  0  0  0  0  2  0  0  0  0  0  0
  -27.6080  -13.2200   19.7520 C   0  0  0  0  0  3  0  0  0  0  0  0
  -28.6680  -12.9850   20.8520 C   0  0  0  0  0  2  0  0  0  0  0  0
  -29.9920  -13.2680   20.2760 N   0  0  0  0  0  0  0  0  0  0  0  0
  -31.8200  -14.5730   19.9300 O   0  0  0  0  0  0  0  0  0  0  0  0
  -29.4700  -17.8470   20.3810 C   0  0  0  0  0  3  0  0  0  0  0  0
  -30.3770  -16.8380   20.8550 C   0  0  0  0  0  0  0  0  0  0  0  0
  -30.0860  -19.0730   20.2540 C   0  0  0  0  0  0  0  0  0  0  0  0
  -31.5770  -17.2550   21.2040 N   0  0  0  0  0  0  0  0  0  0  0  0
  -29.9940  -15.4670   20.9170 N   0  0  0  0  0  0  0  0  0  0  0  0
  -31.7110  -18.8910   20.8420 S   0  0  0  0  0  0  0  0  0  0  0  0
  -29.0370  -15.2720   21.1630 H   0  0  0  0  0  0  0  0  0  0  0  0
  -25.2170  -13.8430   20.4680 C   0  0  0  0  0  0  0  0  0  0  0  0
  -24.1460  -13.0770   20.8470 C   0  0  0  0  0  0  0  0  0  0  0  0
  -24.5990  -11.7230   20.8170 C   0  0  0  0  0  0  0  0  0  0  0  0
  -26.2550  -12.9550   20.2350 N   0  0  0  0  0  0  0  0  0  0  0  0
  -25.8870  -11.6750   20.5020 N   0  0  0  0  0  0  0  0  0  0  0  0
  -23.8660  -10.4660   21.0140 C   0  0  0  0  0  0  0  0  0  0  0  0
  -24.3010   -9.4970   21.9450 C   0  0  0  0  0  3  0  0  0  0  0  0
  -23.5710   -8.3030   22.1300 C   0  0  0  0  0  3  0  0  0  0  0  0
  -22.3930   -8.0690   21.3840 C   0  0  0  0  0  0  0  0  0  0  0  0
  -21.9760   -9.0260   20.4420 C   0  0  0  0  0  3  0  0  0  0  0  0
  -22.7060  -10.2120   20.2550 C   0  0  0  0  0  3  0  0  0  0  0  0
  -21.6340   -6.9280   21.4780 O   0  0  0  0  0  0  0  0  0  0  0  0
  -21.5930   -6.1830   22.6300 C   0  0  0  0  0  0  0  0  0  0  0  0
  -21.1790   -6.7370   23.8600 C   0  0  0  0  0  3  0  0  0  0  0  0
  -21.0840   -5.9200   25.0040 C   0  0  0  0  0  3  0  0  0  0  0  0
  -21.3940   -4.5490   24.9190 C   0  0  0  0  0  0  0  0  0  0  0  0
  -21.8010   -3.9950   23.6920 C   0  0  0  0  0  3  0  0  0  0  0  0
  -21.8980   -4.8090   22.5500 C   0  0  0  0  0  0  0  0  0  0  0  0
  -22.2700   -4.2660   21.3670 F   0  0  0  0  0  0  0  0  0  0  0  0
  -21.2960   -3.7620   26.0150 F   0  0  0  0  0  0  0  0  0  0  0  0
  -22.7520  -13.5630   21.1260 C   0  0  0  0  0  0  0  0  0  0  0  0
  -22.0240  -12.8730   21.9960 N   0  0  0  0  0  0  0  0  0  0  0  0
  -22.3160  -14.5890   20.6040 O   0  0  0  0  0  0  0  0  0  0  0  0
  -22.3890  -12.0440   22.4410 H   0  0  0  0  0  0  0  0  0  0  0  0
  -21.0880  -13.1810   22.2230 H   0  0  0  0  0  0  0  0  0  0  0  0
  -25.3850  -15.2110   20.2810 N   0  0  0  0  0  0  0  0  0  0  0  0
  -24.6110  -15.8610   20.3740 H   0  0  0  0  0  0  0  0  0  0  0  0
  -26.2190  -15.6420   19.9030 H   0  0  0  0  0  0  0  0  0  0  0  0
  -26.6270  -21.9170   18.4780 N   0  0  0  0  0  4  0  0  0  0  0  0
  -26.2160  -22.2550   19.3290 H   0  0  0  0  0  0  0  0  0  0  0  0
  -26.2510  -20.9990   18.3110 H   0  0  0  0  0  0  0  0  0  0  0  0
  -26.3800  -22.5110   17.7080 H   0  0  0  0  0  0  0  0  0  0  0  0
  -28.7890  -23.2020   18.6840 C   0  0  0  0  0  2  0  0  0  0  0  0
  -28.2870  -24.2740   19.6910 C   0  0  0  0  0  2  0  0  0  0  0  0
  -28.6830  -25.7010   19.2240 C   0  0  0  0  0  2  0  0  0  0  0  0
  -28.4290  -26.7470   20.1670 O   0  0  0  0  0  0  0  0  0  0  0  0
  -24.5910  -31.8810   23.2320 C   0  0  0  0  0  0  0  0  0  0  0  0
  -27.2340  -27.4410   20.1370 C   0  0  0  0  0  0  0  0  0  0  0  0
  -23.3810  -30.4800   21.5910 C   0  0  0  0  0  3  0  0  0  0  0  0
  -24.8310  -28.9390   20.1630 C   0  0  0  0  0  0  0  0  0  0  0  0
  -25.9060  -30.8340   21.3910 C   0  0  0  0  0  2  0  0  0  0  0  0
  -25.9870  -29.4620   20.7550 C   0  0  0  0  0  0  0  0  0  0  0  0
  -27.1850  -28.7140   20.7490 C   0  0  0  0  0  3  0  0  0  0  0  0
  -26.0580  -26.9310   19.5400 C   0  0  0  0  0  3  0  0  0  0  0  0
  -24.8610  -27.6710   19.5580 C   0  0  0  0  0  3  0  0  0  0  0  0
  -23.5860  -29.7970   20.2120 C   0  0  0  0  0  2  0  0  0  0  0  0
  -24.6440  -31.0830   22.1290 N   0  0  0  0  0  0  0  0  0  0  0  0
  -23.5120  -32.1540   23.7750 O   0  0  0  0  0  0  0  0  0  0  0  0
  -22.7310  -29.4600   22.5520 C   0  0  0  0  0  0  0  0  0  0  0  0
  -21.4060  -29.2780   22.4240 N   0  0  0  0  0  0  0  0  0  0  0  0
  -23.4140  -28.8340   23.3670 O   0  0  0  0  0  0  0  0  0  0  0  0
  -20.9180  -29.8350   21.7370 H   0  0  0  0  0  0  0  0  0  0  0  0
  -18.0300  -28.0940   22.9230 C   0  0  0  0  0  0  0  0  0  0  0  0
  -20.5880  -28.3410   23.1930 C   0  0  0  0  0  3  0  0  0  0  0  0
  -20.6860  -26.9120   22.6110 C   0  0  0  0  0  2  0  0  0  0  0  0
  -19.5800  -26.5960   21.5990 C   0  0  0  0  0  2  0  0  0  0  0  0
  -18.2000  -26.7450   22.2450 C   0  0  0  0  0  2  0  0  0  0  0  0
  -19.1520  -28.8500   23.3540 C   0  0  0  0  0  0  0  0  0  0  0  0
  -18.9400  -30.1140   23.9460 C   0  0  0  0  0  3  0  0  0  0  0  0
  -17.6380  -30.6200   24.1150 C   0  0  0  0  0  3  0  0  0  0  0  0
  -16.5290  -29.8600   23.7020 C   0  0  0  0  0  3  0  0  0  0  0  0
  -16.7270  -28.5990   23.1120 C   0  0  0  0  0  3  0  0  0  0  0  0
  -25.8800  -32.5100   23.8510 C   0  0  0  0  0  3  0  0  0  0  0  0
  -25.5740  -33.9080   24.1820 N   0  0  0  0  0  0  0  0  0  0  0  0
  -25.9080  -34.9590   23.4220 C   0  0  0  0  0  0  0  0  0  0  0  0
  -26.5790  -34.8540   22.3910 O   0  0  0  0  0  0  0  0  0  0  0  0
  -24.9850  -34.0630   24.9870 H   0  0  0  0  0  0  0  0  0  0  0  0
  -24.1870  -36.7550   23.0570 C   0  0  0  0  0  1  0  0  0  0  0  0
  -25.4200  -36.3470   23.8780 C   0  0  0  0  0  3  0  0  0  0  0  0
  -27.5520  -37.2240   24.7250 C   0  0  0  0  0  1  0  0  0  0  0  0
  -26.4570  -37.3970   23.7740 N   0  0  0  0  0  0  0  0  0  0  0  0
  -26.0550  -38.3200   23.9170 H   0  0  0  0  0  0  0  0  0  0  0  0
  -26.3990  -31.7360   25.1260 C   0  0  1  0  0  0  0  0  0  0  0  0
  -25.3070  -31.5000   26.1950 C   0  0  0  0  0  1  0  0  0  0  0  0
  -26.9810  -30.3590   24.7300 C   0  0  0  0  0  1  0  0  0  0  0  0
  -27.5510  -32.5290   25.7860 C   0  0  0  0  0  1  0  0  0  0  0  0
  1 53  1  0
  1  2  1  0
  2  4  2  0
  3  2  1  0
  3 16  1  0
  5  3  1  0
  6 18  1  0
  7 12  1  0
  8  9  1  0
  8  7  1  0
 10  9  1  0
 10 24  1  0
 10 11  1  0
 12  6  1  0
 12 11  1  0
 13  6  2  0
 14 15  1  0
 15 18  1  0
 15 17  2  0
 16 14  2  0
 16 19  1  0
 18 20  1  0
 19 17  1  0
 21 22  2  0
 22 41  1  0
 23 22  1  0
 23 26  1  0
 24 21  1  0
 24 25  1  0
 25 23  2  0
 26 27  1  0
 27 28  2  0
 29 32  1  0
 29 28  1  0
 30 29  2  0
 31 30  1  0
 31 26  2  0
 32 33  1  0
 33 34  1  0
 34 35  2  0
 36 35  1  0
 36 40  1  0
 37 36  2  0
 38 33  2  0
 38 37  1  0
 39 38  1  0
 41 42  1  0
 42 45  1  0
 42 44  1  0
 43 41  2  0
 46 47  1  0
 46 21  1  0
 48 46  1  0
 49  1  1  0
 49 50  1  0
 51 49  1  0
 52 49  1  0
 53 54  1  0
 55 54  1  0
 55 56  1  0
 57 68  2  0
 58 56  1  0
 58 63  1  0
 59 67  1  0
 59 69  1  0
 60 66  1  0
 60 62  1  0
 61 67  1  0
 62 61  1  0
 63 62  2  0
 64 65  1  0
 64 58  2  0
 65 60  2  0
 66 59  1  0
 67 57  1  0
 69 71  2  0
 70 69  1  0
 72 70  1  0
 73 82  2  0
 73 78  1  0
 74 70  1  0
 74 78  1  0
 75 74  1  0
 76 77  1  0
 76 75  1  0
 77 73  1  0
 78 79  2  0
 79 80  1  0
 81 80  2  0
 82 81  1  0
 83 57  1  0
 83 84  1  0
 83 93  1  0
 84 87  1  0
 85 89  1  0
 85 84  1  0
 86 85  2  0
 89 88  1  0
 91 89  1  0
 91 92  1  0
 91 90  1  0
 93 96  1  1
 93 94  1  0
 95 93  1  0
M  ISO  4   6 100  18 100  55 101  56 101
M  END
>  <TORSDO>  (48) 
F 21

>  <SCORE>  (48) 
-13.731

>  <name>  (48) 
47

>  <ligand_id>  (48) 
47

>  <original_smiles>  (48) 
[H]c1c(N([H])C(=O)N2C([H])([H])C([H])([H])C([H])([H])C([H])(n3nc(-c4c([H])c([H])c(Oc5c([H])c([H])c(F)c([H])c5F)c([H])c4[H])c(C(=O)N([H])[H])c3N([H])[H])C2([H])[H])nsc1N([H])C(=O)C([H])(C([H])([H])C([H])([H])C([H])([H])Oc1c([H])c([H])c2c(c1[H])C([H])([H])N(C(=O)C([H])(N([H])C(=O)C([H])(N([H])C([H])([H])[H])C([H])([H])[H])C(C([H])([H])[H])(C([H])([H])[H])C([H])([H])[H])C([H])(C(=O)N([H])C1([H])c3c([H])c([H])c([H])c([H])c3C([H])([H])C([H])([H])C1([H])[H])C2([H])[H])[N+]([H])([H])[H]

>  <smiles>  (48) 
[H]c1c(N([H])C(=O)N2C([H])([H])C([H])([H])C([H])([H])C([H])(n3nc(-c4c([H])c([H])c(Oc5c([H])c([H])c(F)c([H])c5F)c([H])c4[H])c(C(=O)N([H])[H])c3N([H])[H])C2([H])[H])nsc1N([H])C(=O)C([H])(C([H])([H])C([H])([H])C([H])([H])Oc1c([H])c([H])c2c(c1[H])C([H])([H])N(C(=O)C([H])(N([H])C(=O)C([H])(N([H])C([H])([H])[H])C([H])([H])[H])C(C([H])([H])[H])(C([H])([H])[H])C([H])([H])[H])C([H])(C(=O)N([H])C1([H])c3c([H])c([H])c([H])c([H])c3C([H])([H])C([H])([H])C1([H])[H])C2([H])[H])[N+]([H])([H])[H]

$$$$
48:0:0
     RDKit          3D

 99107  0  0  1  0  0  0  0  0999 V2000
  -29.2300  -21.8150   20.3210 C   0  0  0  0  0  3  0  0  0  0  0  0
  -30.3500  -20.8490   20.5190 N   0  0  0  0  0  0  0  0  0  0  0  0
  -31.0920  -21.2260   19.9410 H   0  0  0  0  0  0  0  0  0  0  0  0
  -30.9370  -14.8390   20.9660 C   0  0  0  0  0  0  0  0  0  0  0  0
  -30.7740  -12.5690   20.0250 C   0  0  0  0  0  2  0  0  0  0  0  0
  -29.9590  -12.6570   18.7180 C   0  0  0  0  0  2  0  0  0  0  0  0
  -28.4480  -12.5460   19.0020 C   0  0  0  0  0  2  0  0  0  0  0  0
  -27.9820  -13.4610   20.1660 C   0  0  0  0  0  3  0  0  0  0  0  0
  -28.9280  -13.3590   21.3840 C   0  0  0  0  0  2  0  0  0  0  0  0
  -30.2930  -13.6360   20.9210 N   0  0  0  0  0  0  0  0  0  0  0  0
  -32.1400  -14.9350   20.7100 O   0  0  0  0  0  0  0  0  0  0  0  0
  -30.7250  -18.1040   18.1020 C   0  0  0  0  0  3  0  0  0  0  0  0
  -30.5060  -16.9970   18.9310 C   0  0  0  0  0  3  0  0  0  0  0  0
  -30.7210  -19.3880   18.6720 C   0  0  0  0  0  0  0  0  0  0  0  0
  -30.2910  -17.1640   20.3170 C   0  0  0  0  0  0  0  0  0  0  0  0
  -30.3630  -19.5210   20.0280 C   0  0  0  0  0  0  0  0  0  0  0  0
  -30.1600  -18.4340   20.8380 N   0  0  0  0  0  0  0  0  0  0  0  0
  -30.1580  -15.9520   21.0940 N   0  0  0  0  0  0  0  0  0  0  0  0
  -29.2510  -15.8070   21.5050 H   0  0  0  0  0  0  0  0  0  0  0  0
  -25.5370  -14.0860   20.6470 C   0  0  0  0  0  0  0  0  0  0  0  0
  -24.4350  -13.3270   20.9360 C   0  0  0  0  0  0  0  0  0  0  0  0
  -24.8890  -11.9720   20.9810 C   0  0  0  0  0  0  0  0  0  0  0  0
  -26.5930  -13.1970   20.5320 N   0  0  0  0  0  0  0  0  0  0  0  0
  -26.2020  -11.9220   20.7940 N   0  0  0  0  0  0  0  0  0  0  0  0
  -24.1410  -10.7180   21.1310 C   0  0  0  0  0  0  0  0  0  0  0  0
  -24.5000   -9.7540   22.0990 C   0  0  0  0  0  3  0  0  0  0  0  0
  -23.7520   -8.5660   22.2360 C   0  0  0  0  0  3  0  0  0  0  0  0
  -22.6300   -8.3320   21.4050 C   0  0  0  0  0  0  0  0  0  0  0  0
  -22.2920   -9.2840   20.4280 C   0  0  0  0  0  3  0  0  0  0  0  0
  -23.0410  -10.4640   20.2890 C   0  0  0  0  0  3  0  0  0  0  0  0
  -21.8600   -7.1950   21.4510 O   0  0  0  0  0  0  0  0  0  0  0  0
  -21.7510   -6.4460   22.5950 C   0  0  0  0  0  0  0  0  0  0  0  0
  -21.2770   -6.9980   23.8060 C   0  0  0  0  0  3  0  0  0  0  0  0
  -21.1140   -6.1760   24.9380 C   0  0  0  0  0  3  0  0  0  0  0  0
  -21.4130   -4.8020   24.8610 C   0  0  0  0  0  0  0  0  0  0  0  0
  -21.8820   -4.2510   23.6570 C   0  0  0  0  0  3  0  0  0  0  0  0
  -22.0470   -5.0700   22.5260 C   0  0  0  0  0  0  0  0  0  0  0  0
  -22.4780   -4.5280   21.3610 F   0  0  0  0  0  0  0  0  0  0  0  0
  -21.2510   -4.0110   25.9480 F   0  0  0  0  0  0  0  0  0  0  0  0
  -23.0230  -13.8190   21.0670 C   0  0  0  0  0  0  0  0  0  0  0  0
  -22.2160  -13.1570   21.8880 N   0  0  0  0  0  0  0  0  0  0  0  0
  -22.6410  -14.8310   20.4790 O   0  0  0  0  0  0  0  0  0  0  0  0
  -22.5340  -12.3420   22.3900 H   0  0  0  0  0  0  0  0  0  0  0  0
  -21.2670  -13.4760   22.0210 H   0  0  0  0  0  0  0  0  0  0  0  0
  -25.7260  -15.4500   20.4530 N   0  0  0  0  0  0  0  0  0  0  0  0
  -24.9490  -16.1020   20.4480 H   0  0  0  0  0  0  0  0  0  0  0  0
  -26.5970  -15.8780   20.1670 H   0  0  0  0  0  0  0  0  0  0  0  0
  -31.0990  -20.5000   17.9110 N   0  0  0  0  0  0  0  0  0  0  0  0
  -31.2910  -20.2880   16.9360 H   0  0  0  0  0  0  0  0  0  0  0  0
  -31.8890  -21.0270   18.2730 H   0  0  0  0  0  0  0  0  0  0  0  0
  -27.9650  -21.2080   19.6670 C   0  0  0  0  0  0  0  0  0  0  0  0
  -27.9800  -20.1800   18.9830 O   0  0  0  0  0  0  0  0  0  0  0  0
  -26.1650  -22.5810   18.4990 C   0  0  0  0  0  1  0  0  0  0  0  0
  -26.6590  -21.9880   19.8280 C   0  0  0  0  0  2  0  0  0  0  0  0
  -29.6500  -23.1220   19.5290 C   0  0  0  0  0  2  0  0  0  0  0  0
  -29.9270  -24.4890   20.2730 C   0  0  0  0  0  2  0  0  0  0  0  0
  -28.3170  -25.2520   22.1110 C   0  0  0  0  0  1  0  0  0  0  0  0
  -28.6830  -25.3860   20.6250 C   0  0  0  0  0  3  0  0  0  0  0  0
  -28.8370  -26.8180   20.3220 O   0  0  0  0  0  0  0  0  0  0  0  0
  -24.6220  -31.8000   23.3060 C   0  0  0  0  0  0  0  0  0  0  0  0
  -27.6650  -27.5710   20.2410 C   0  0  0  0  0  0  0  0  0  0  0  0
  -23.5900  -30.3940   21.5580 C   0  0  0  0  0  3  0  0  0  0  0  0
  -25.2030  -28.9980   20.1560 C   0  0  0  0  0  0  0  0  0  0  0  0
  -26.1030  -30.8890   21.5110 C   0  0  0  0  0  2  0  0  0  0  0  0
  -26.3030  -29.5470   20.8300 C   0  0  0  0  0  0  0  0  0  0  0  0
  -27.5390  -28.8430   20.8670 C   0  0  0  0  0  3  0  0  0  0  0  0
  -26.5500  -27.0760   19.5280 C   0  0  0  0  0  3  0  0  0  0  0  0
  -25.3260  -27.7660   19.5000 C   0  0  0  0  0  3  0  0  0  0  0  0
  -23.9120  -29.7880   20.1670 C   0  0  0  0  0  2  0  0  0  0  0  0
  -24.7860  -31.0430   22.1850 N   0  0  0  0  0  0  0  0  0  0  0  0
  -23.4980  -31.9890   23.7950 O   0  0  0  0  0  0  0  0  0  0  0  0
  -22.9510  -29.2990   22.4450 C   0  0  0  0  0  0  0  0  0  0  0  0
  -21.6450  -29.0560   22.2550 N   0  0  0  0  0  0  0  0  0  0  0  0
  -23.6320  -28.6740   23.2630 O   0  0  0  0  0  0  0  0  0  0  0  0
  -21.1540  -29.6140   21.5700 H   0  0  0  0  0  0  0  0  0  0  0  0
  -18.3100  -27.7030   22.6030 C   0  0  0  0  0  0  0  0  0  0  0  0
  -20.8480  -28.0450   22.9530 C   0  0  0  0  0  3  0  0  0  0  0  0
  -21.0210  -26.6520   22.3040 C   0  0  0  0  0  2  0  0  0  0  0  0
  -19.9580  -26.3440   21.2450 C   0  0  0  0  0  2  0  0  0  0  0  0
  -18.5560  -26.4000   21.8600 C   0  0  0  0  0  2  0  0  0  0  0  0
  -19.3860  -28.4820   23.1020 C   0  0  0  0  0  0  0  0  0  0  0  0
  -19.1040  -29.7010   23.7570 C   0  0  0  0  0  3  0  0  0  0  0  0
  -17.7760  -30.1430   23.9150 C   0  0  0  0  0  3  0  0  0  0  0  0
  -16.7150  -29.3610   23.4300 C   0  0  0  0  0  3  0  0  0  0  0  0
  -16.9810  -28.1430   22.7810 C   0  0  0  0  0  3  0  0  0  0  0  0
  -25.8300  -32.4860   24.0130 C   0  0  0  0  0  3  0  0  0  0  0  0
  -25.4440  -33.8720   24.3070 N   0  0  0  0  0  0  0  0  0  0  0  0
  -25.7810  -34.9310   23.5580 C   0  0  0  0  0  0  0  0  0  0  0  0
  -26.5210  -34.8450   22.5740 O   0  0  0  0  0  0  0  0  0  0  0  0
  -24.7920  -34.0090   25.0650 H   0  0  0  0  0  0  0  0  0  0  0  0
  -23.9980  -36.6400   23.0800 C   0  0  0  0  0  1  0  0  0  0  0  0
  -25.2080  -36.3020   23.9660 C   0  0  0  0  0  3  0  0  0  0  0  0
  -27.2530  -37.2930   24.8990 C   0  0  0  0  0  1  0  0  0  0  0  0
  -26.1980  -37.4000   23.8950 N   0  0  0  0  0  0  0  0  0  0  0  0
  -25.7430  -38.3010   24.0070 H   0  0  0  0  0  0  0  0  0  0  0  0
  -26.2820  -31.7420   25.3300 C   0  0  1  0  0  0  0  0  0  0  0  0
  -25.1240  -31.4670   26.3170 C   0  0  0  0  0  1  0  0  0  0  0  0
  -26.9440  -30.3850   24.9900 C   0  0  0  0  0  1  0  0  0  0  0  0
  -27.3500  -32.5830   26.0690 C   0  0  0  0  0  1  0  0  0  0  0  0
  1 55  1  0
  1  2  1  0
  3  2  1  0
  4 18  1  0
  5 10  1  0
  6  7  1  0
  6  5  1  0
  8  7  1  0
  8 23  1  0
  8  9  1  0
 10  4  1  0
 10  9  1  0
 11  4  2  0
 12 14  2  0
 12 13  1  0
 13 15  2  0
 14 16  1  0
 15 17  1  0
 15 18  1  0
 16  2  1  0
 16 17  2  0
 18 19  1  0
 20 21  2  0
 21 22  1  0
 21 40  1  0
 22 25  1  0
 23 20  1  0
 23 24  1  0
 24 22  2  0
 25 26  1  0
 26 27  2  0
 28 31  1  0
 28 27  1  0
 29 28  2  0
 30 29  1  0
 30 25  2  0
 31 32  1  0
 32 33  1  0
 33 34  2  0
 35 34  1  0
 35 39  1  0
 36 35  2  0
 37 32  2  0
 37 36  1  0
 38 37  1  0
 40 41  1  0
 41 44  1  0
 41 43  1  0
 42 40  2  0
 45 20  1  0
 46 45  1  0
 47 45  1  0
 48 50  1  0
 48 14  1  0
 49 48  1  0
 51 54  1  0
 51  1  1  0
 52 51  2  0
 53 54  1  0
 55 56  1  0
 56 58  1  0
 58 57  1  0
 59 58  1  0
 60 71  2  0
 61 59  1  0
 61 66  1  0
 62 70  1  0
 62 72  1  0
 63 69  1  0
 63 65  1  0
 64 70  1  0
 65 66  2  0
 65 64  1  0
 67 61  2  0
 68 67  1  0
 68 63  2  0
 69 62  1  0
 70 60  1  0
 72 74  2  0
 73 72  1  0
 75 73  1  0
 76 85  2  0
 76 81  1  0
 77 73  1  0
 77 81  1  0
 78 77  1  0
 79 80  1  0
 79 78  1  0
 80 76  1  0
 81 82  2  0
 82 83  1  0
 84 83  2  0
 85 84  1  0
 86 60  1  0
 86 87  1  0
 86 96  1  0
 87 90  1  0
 88 92  1  0
 88 87  1  0
 89 88  2  0
 92 91  1  0
 94 92  1  0
 94 95  1  0
 94 93  1  0
 96 99  1  1
 96 97  1  0
 98 96  1  0
M  ISO  4   4 100  18 100  58 101  59 101
M  END
>  <TORSDO>  (49) 
F 23

>  <SCORE>  (49) 
-12.647

>  <name>  (49) 
48

>  <ligand_id>  (49) 
48

>  <original_smiles>  (49) 
[H]c1c(N([H])C(=O)N2C([H])([H])C([H])([H])C([H])([H])C([H])(n3nc(-c4c([H])c([H])c(Oc5c([H])c([H])c(F)c([H])c5F)c([H])c4[H])c(C(=O)N([H])[H])c3N([H])[H])C2([H])[H])nc(N([H])C([H])(C(=O)C([H])([H])C([H])([H])[H])C([H])([H])C([H])([H])C([H])(Oc2c([H])c([H])c3c(c2[H])C([H])([H])N(C(=O)C([H])(N([H])C(=O)C([H])(N([H])C([H])([H])[H])C([H])([H])[H])C(C([H])([H])[H])(C([H])([H])[H])C([H])([H])[H])C([H])(C(=O)N([H])C2([H])c4c([H])c([H])c([H])c([H])c4C([H])([H])C([H])([H])C2([H])[H])C3([H])[H])C([H])([H])[H])c(N([H])[H])c1[H]

>  <smiles>  (49) 
[H]c1c(N([H])C(=O)N2C([H])([H])C([H])([H])C([H])([H])C([H])(n3nc(-c4c([H])c([H])c(Oc5c([H])c([H])c(F)c([H])c5F)c([H])c4[H])c(C(=O)N([H])[H])c3N([H])[H])C2([H])[H])nc(N([H])C([H])(C(=O)C([H])([H])C([H])([H])[H])C([H])([H])C([H])([H])C([H])(Oc2c([H])c([H])c3c(c2[H])C([H])([H])N(C(=O)C([H])(N([H])C(=O)C([H])(N([H])C([H])([H])[H])C([H])([H])[H])C(C([H])([H])[H])(C([H])([H])[H])C([H])([H])[H])C([H])(C(=O)N([H])C2([H])c4c([H])c([H])c([H])c([H])c4C([H])([H])C([H])([H])C2([H])[H])C3([H])[H])C([H])([H])[H])c(N([H])[H])c1[H]

$$$$
49:0:0
     RDKit          3D

 93101  0  0  1  0  0  0  0  0999 V2000
  -29.4680  -22.3460   20.0470 C   0  0  0  0  0  3  0  0  0  0  0  0
  -30.5950  -22.6800   20.9450 N   0  0  0  0  0  4  0  0  0  0  0  0
  -31.2560  -21.9240   21.0080 H   0  0  0  0  0  0  0  0  0  0  0  0
  -30.2860  -22.8950   21.8770 H   0  0  0  0  0  0  0  0  0  0  0  0
  -31.0990  -23.4730   20.5920 H   0  0  0  0  0  0  0  0  0  0  0  0
  -28.6000  -23.7080   19.6790 C   0  0  0  0  0  2  0  0  0  0  0  0
  -27.1360  -24.7110   21.5820 C   0  0  0  0  0  1  0  0  0  0  0  0
  -28.3310  -24.9930   20.6490 C   0  0  0  0  0  3  0  0  0  0  0  0
  -28.3520  -26.4250   20.1470 O   0  0  0  0  0  0  0  0  0  0  0  0
  -24.6210  -31.8690   23.2360 C   0  0  0  0  0  0  0  0  0  0  0  0
  -27.2290  -27.2840   20.1590 C   0  0  0  0  0  0  0  0  0  0  0  0
  -23.4180  -30.4730   21.5940 C   0  0  0  0  0  3  0  0  0  0  0  0
  -24.8660  -28.9190   20.1630 C   0  0  0  0  0  0  0  0  0  0  0  0
  -25.9610  -30.7820   21.4100 C   0  0  0  0  0  2  0  0  0  0  0  0
  -26.0410  -29.4030   20.7580 C   0  0  0  0  0  0  0  0  0  0  0  0
  -27.2260  -28.6010   20.7370 C   0  0  0  0  0  3  0  0  0  0  0  0
  -26.0340  -26.8660   19.5420 C   0  0  0  0  0  3  0  0  0  0  0  0
  -24.8680  -27.6590   19.5450 C   0  0  0  0  0  3  0  0  0  0  0  0
  -23.6340  -29.8010   20.2140 C   0  0  0  0  0  2  0  0  0  0  0  0
  -24.6870  -31.0590   22.1370 N   0  0  0  0  0  0  0  0  0  0  0  0
  -23.5360  -32.1470   23.7690 O   0  0  0  0  0  0  0  0  0  0  0  0
  -22.7560  -29.4550   22.5550 C   0  0  0  0  0  0  0  0  0  0  0  0
  -21.4300  -29.2790   22.4300 N   0  0  0  0  0  0  0  0  0  0  0  0
  -23.4340  -28.8300   23.3730 O   0  0  0  0  0  0  0  0  0  0  0  0
  -20.9410  -29.8340   21.7430 H   0  0  0  0  0  0  0  0  0  0  0  0
  -18.0550  -28.0700   22.9170 C   0  0  0  0  0  0  0  0  0  0  0  0
  -20.6100  -28.3390   23.1990 C   0  0  0  0  0  3  0  0  0  0  0  0
  -20.7190  -26.9090   22.6250 C   0  0  0  0  0  2  0  0  0  0  0  0
  -19.6220  -26.5790   21.6100 C   0  0  0  0  0  2  0  0  0  0  0  0
  -18.2370  -26.7200   22.2460 C   0  0  0  0  0  2  0  0  0  0  0  0
  -19.1690  -28.8370   23.3500 C   0  0  0  0  0  0  0  0  0  0  0  0
  -18.9430  -30.0990   23.9420 C   0  0  0  0  0  3  0  0  0  0  0  0
  -17.6360  -30.5950   24.1070 C   0  0  0  0  0  3  0  0  0  0  0  0
  -16.5350  -29.8260   23.6880 C   0  0  0  0  0  3  0  0  0  0  0  0
  -16.7460  -28.5670   23.0990 C   0  0  0  0  0  3  0  0  0  0  0  0
  -25.9000  -32.5080   23.8560 C   0  0  0  0  0  3  0  0  0  0  0  0
  -26.4190  -31.7470   25.1380 C   0  0  1  0  0  0  0  0  0  0  0  0
  -25.3270  -31.5160   26.2110 C   0  0  0  0  0  1  0  0  0  0  0  0
  -27.0070  -30.3700   24.7540 C   0  0  0  0  0  1  0  0  0  0  0  0
  -27.5680  -32.5480   25.7950 C   0  0  0  0  0  1  0  0  0  0  0  0
  -25.5840  -33.9060   24.1790 N   0  0  0  0  0  0  0  0  0  0  0  0
  -25.9280  -34.9600   23.4250 C   0  0  0  0  0  0  0  0  0  0  0  0
  -26.6090  -34.8550   22.4020 O   0  0  0  0  0  0  0  0  0  0  0  0
  -24.9660  -34.0610   24.9610 H   0  0  0  0  0  0  0  0  0  0  0  0
  -24.2040  -36.7600   23.0690 C   0  0  0  0  0  1  0  0  0  0  0  0
  -25.4430  -36.3490   23.8820 C   0  0  0  0  0  3  0  0  0  0  0  0
  -27.5780  -37.2290   24.7180 C   0  0  0  0  0  1  0  0  0  0  0  0
  -26.4790  -37.4000   23.7730 N   0  0  0  0  0  0  0  0  0  0  0  0
  -26.0740  -38.3190   23.9240 H   0  0  0  0  0  0  0  0  0  0  0  0
  -28.7930  -20.8970   20.4150 C   0  0  0  0  0  2  0  0  0  0  0  0
  -30.5730  -14.7880   20.2870 C   0  0  0  0  0  0  0  0  0  0  0  0
  -30.3910  -12.4890   19.2980 C   0  0  0  0  0  2  0  0  0  0  0  0
  -29.4470  -12.5560   18.0740 C   0  0  0  0  0  2  0  0  0  0  0  0
  -27.9750  -12.3940   18.5120 C   0  0  0  0  0  2  0  0  0  0  0  0
  -27.6060  -13.2750   19.7380 C   0  0  0  0  0  3  0  0  0  0  0  0
  -28.6780  -13.1780   20.8480 C   0  0  0  0  0  2  0  0  0  0  0  0
  -29.9640  -13.5470   20.2460 N   0  0  0  0  0  0  0  0  0  0  0  0
  -31.7590  -14.8770   19.9480 O   0  0  0  0  0  0  0  0  0  0  0  0
  -30.7110  -19.2280   19.6850 C   0  0  0  0  0  2  0  0  0  0  0  0
  -29.9480  -17.3670   20.3260 C   0  0  0  0  0  0  0  0  0  0  0  0
  -31.0300  -17.9190   19.6940 N   0  0  0  0  0  0  0  0  0  0  0  0
  -29.0180  -18.3080   20.6740 N   0  0  0  0  0  2  0  0  0  0  0  0
  -29.5370  -19.5480   20.2570 N   0  0  0  0  0  0  0  0  0  0  0  0
  -29.7770  -15.9030   20.5430 N   0  0  0  0  0  0  0  0  0  0  0  0
  -28.8530  -15.6570   20.8560 H   0  0  0  0  0  0  0  0  0  0  0  0
  -25.2180  -13.8540   20.4850 C   0  0  0  0  0  0  0  0  0  0  0  0
  -24.1600  -13.0770   20.8670 C   0  0  0  0  0  0  0  0  0  0  0  0
  -24.6290  -11.7280   20.8330 C   0  0  0  0  0  0  0  0  0  0  0  0
  -26.2660  -12.9820   20.2410 N   0  0  0  0  0  0  0  0  0  0  0  0
  -25.9190  -11.6960   20.5120 N   0  0  0  0  0  0  0  0  0  0  0  0
  -23.9110  -10.4620   21.0300 C   0  0  0  0  0  0  0  0  0  0  0  0
  -24.3540   -9.4950   21.9600 C   0  0  0  0  0  3  0  0  0  0  0  0
  -23.6320   -8.2970   22.1460 C   0  0  0  0  0  3  0  0  0  0  0  0
  -22.4540   -8.0530   21.4000 C   0  0  0  0  0  0  0  0  0  0  0  0
  -22.0290   -9.0110   20.4600 C   0  0  0  0  0  3  0  0  0  0  0  0
  -22.7520  -10.2020   20.2720 C   0  0  0  0  0  3  0  0  0  0  0  0
  -21.7040   -6.9070   21.4920 O   0  0  0  0  0  0  0  0  0  0  0  0
  -21.6670   -6.1620   22.6440 C   0  0  0  0  0  0  0  0  0  0  0  0
  -21.2500   -6.7130   23.8750 C   0  0  0  0  0  3  0  0  0  0  0  0
  -21.1610   -5.8950   25.0190 C   0  0  0  0  0  3  0  0  0  0  0  0
  -21.4820   -4.5270   24.9330 C   0  0  0  0  0  0  0  0  0  0  0  0
  -21.8960   -3.9750   23.7090 C   0  0  0  0  0  3  0  0  0  0  0  0
  -21.9850   -4.7900   22.5670 C   0  0  0  0  0  0  0  0  0  0  0  0
  -22.3620   -4.2490   21.3810 F   0  0  0  0  0  0  0  0  0  0  0  0
  -21.3910   -3.7370   26.0310 F   0  0  0  0  0  0  0  0  0  0  0  0
  -22.7610  -13.5510   21.1420 C   0  0  0  0  0  0  0  0  0  0  0  0
  -22.0330  -12.8580   22.0110 N   0  0  0  0  0  0  0  0  0  0  0  0
  -22.3180  -14.5740   20.6210 O   0  0  0  0  0  0  0  0  0  0  0  0
  -22.3970  -12.0320   22.4630 H   0  0  0  0  0  0  0  0  0  0  0  0
  -21.0960  -13.1620   22.2320 H   0  0  0  0  0  0  0  0  0  0  0  0
  -25.3670  -15.2270   20.3080 N   0  0  0  0  0  0  0  0  0  0  0  0
  -24.5820  -15.8570   20.4390 H   0  0  0  0  0  0  0  0  0  0  0  0
  -26.1870  -15.6880   19.9340 H   0  0  0  0  0  0  0  0  0  0  0  0
  1  6  1  0
  1 50  1  0
  1  2  1  0
  2  3  1  0
  2  4  1  0
  5  2  1  0
  6  8  1  0
  8  7  1  0
  9 11  1  0
  9  8  1  0
 10 21  2  0
 11 16  1  0
 12 20  1  0
 12 22  1  0
 13 19  1  0
 13 15  1  0
 14 20  1  0
 15 14  1  0
 16 15  2  0
 17 18  1  0
 17 11  2  0
 18 13  2  0
 19 12  1  0
 20 10  1  0
 22 24  2  0
 23 22  1  0
 25 23  1  0
 26 35  2  0
 26 31  1  0
 27 23  1  0
 27 31  1  0
 28 27  1  0
 29 30  1  0
 29 28  1  0
 30 26  1  0
 31 32  2  0
 32 33  1  0
 34 33  2  0
 35 34  1  0
 36 10  1  0
 36 41  1  0
 36 37  1  0
 37 40  1  1
 37 38  1  0
 39 37  1  0
 41 44  1  0
 42 46  1  0
 42 41  1  0
 43 42  2  0
 46 45  1  0
 48 46  1  0
 48 49  1  0
 48 47  1  0
 51 64  1  0
 52 57  1  0
 53 54  1  0
 53 52  1  0
 55 54  1  0
 55 69  1  0
 55 56  1  0
 57 51  1  0
 57 56  1  0
 58 51  2  0
 59 61  1  0
 59 63  1  0
 60 64  1  0
 60 62  1  0
 61 60  2  0
 63 50  1  0
 63 62  1  0
 64 65  1  0
 66 67  2  0
 67 86  1  0
 68 67  1  0
 68 71  1  0
 69 66  1  0
 69 70  1  0
 70 68  2  0
 71 72  1  0
 72 73  2  0
 74 77  1  0
 74 73  1  0
 75 74  2  0
 76 75  1  0
 76 71  2  0
 77 78  1  0
 78 79  1  0
 79 80  2  0
 81 80  1  0
 81 85  1  0
 82 81  2  0
 83 78  2  0
 83 82  1  0
 84 83  1  0
 86 87  1  0
 87 90  1  0
 87 89  1  0
 88 86  2  0
 91 92  1  0
 91 66  1  0
 93 91  1  0
M  ISO  4   8 101   9 101  51 100  64 100
M  END
>  <TORSDO>  (50) 
F 20

>  <SCORE>  (50) 
-14.130

>  <name>  (50) 
49

>  <ligand_id>  (50) 
49

>  <original_smiles>  (50) 
[H]c1c([H])c([H])c2c(c1[H])C([H])([H])C([H])([H])C([H])([H])C2([H])N([H])C(=O)C1([H])N(C(=O)C([H])(N([H])C(=O)C([H])(N([H])C([H])([H])[H])C([H])([H])[H])C(C([H])([H])[H])(C([H])([H])[H])C([H])([H])[H])C([H])([H])c2c([H])c(OC([H])(C([H])([H])[H])C([H])([H])C([H])(C([H])([H])n3nc(N([H])C(=O)N4C([H])([H])C([H])([H])C([H])([H])C([H])(n5nc(-c6c([H])c([H])c(Oc7c([H])c([H])c(F)c([H])c7F)c([H])c6[H])c(C(=O)N([H])[H])c5N([H])[H])C4([H])[H])nc3[H])[N+]([H])([H])[H])c([H])c([H])c2C1([H])[H]

>  <smiles>  (50) 
[H]c1c([H])c([H])c2c(c1[H])C([H])([H])C([H])([H])C([H])([H])C2([H])N([H])C(=O)C1([H])N(C(=O)C([H])(N([H])C(=O)C([H])(N([H])C([H])([H])[H])C([H])([H])[H])C(C([H])([H])[H])(C([H])([H])[H])C([H])([H])[H])C([H])([H])c2c([H])c(OC([H])(C([H])([H])[H])C([H])([H])C([H])(C([H])([H])n3nc(N([H])C(=O)N4C([H])([H])C([H])([H])C([H])([H])C([H])(n5nc(-c6c([H])c([H])c(Oc7c([H])c([H])c(F)c([H])c7F)c([H])c6[H])c(C(=O)N([H])[H])c5N([H])[H])C4([H])[H])nc3[H])[N+]([H])([H])[H])c([H])c([H])c2C1([H])[H]

$$$$
50:0:0
     RDKit          3D

 96104  0  0  1  0  0  0  0  0999 V2000
  -30.4810  -23.3070   21.9810 C   0  0  0  0  0  1  0  0  0  0  0  0
  -29.7690  -22.4170   20.9310 C   0  0  0  0  0  3  0  0  0  0  0  0
  -30.4150  -21.0680   20.9120 N   0  0  0  0  0  4  0  0  0  0  0  0
  -30.0360  -20.5660   20.1250 H   0  0  0  0  0  0  0  0  0  0  0  0
  -31.4030  -21.1760   20.7460 H   0  0  0  0  0  0  0  0  0  0  0  0
  -31.2330  -20.3950   23.2270 C   0  0  0  0  0  1  0  0  0  0  0  0
  -30.2010  -20.1930   22.0990 C   0  0  0  0  0  3  0  0  0  0  0  0
  -31.6080  -14.4540   19.9630 C   0  0  0  0  0  0  0  0  0  0  0  0
  -31.1350  -12.2910   18.9170 C   0  0  0  0  0  2  0  0  0  0  0  0
  -30.1480  -12.5410   17.7580 C   0  0  0  0  0  2  0  0  0  0  0  0
  -28.6920  -12.5060   18.2630 C   0  0  0  0  0  2  0  0  0  0  0  0
  -28.4660  -13.3830   19.5240 C   0  0  0  0  0  3  0  0  0  0  0  0
  -29.5670  -13.1350   20.5840 C   0  0  0  0  0  2  0  0  0  0  0  0
  -30.8690  -13.3170   19.9310 N   0  0  0  0  0  0  0  0  0  0  0  0
  -32.7970  -14.4960   19.6420 O   0  0  0  0  0  0  0  0  0  0  0  0
  -30.2290  -18.7740   21.5730 C   0  0  0  0  0  0  0  0  0  0  0  0
  -30.6100  -16.5930   20.6050 C   0  0  0  0  0  0  0  0  0  0  0  0
  -29.2160  -17.9150   21.7940 N   0  0  0  0  0  0  0  0  0  0  0  0
  -29.4230  -16.6650   21.2160 N   0  0  0  0  0  0  0  0  0  0  0  0
  -30.8870  -15.5490   19.7020 N   0  0  0  0  0  0  0  0  0  0  0  0
  -31.6000  -18.0460   20.7200 S   0  0  0  0  0  0  0  0  0  0  0  0
  -31.3020  -15.9450   18.8760 H   0  0  0  0  0  0  0  0  0  0  0  0
  -26.1880  -14.1440   20.4460 C   0  0  0  0  0  0  0  0  0  0  0  0
  -25.0740  -13.4450   20.8240 C   0  0  0  0  0  0  0  0  0  0  0  0
  -25.4030  -12.0620   20.6610 C   0  0  0  0  0  0  0  0  0  0  0  0
  -27.1290  -13.1950   20.0780 N   0  0  0  0  0  0  0  0  0  0  0  0
  -26.6630  -11.9340   20.2680 N   0  0  0  0  0  0  0  0  0  0  0  0
  -24.5750  -10.8580   20.8050 C   0  0  0  0  0  0  0  0  0  0  0  0
  -24.9290   -9.8220   21.6970 C   0  0  0  0  0  3  0  0  0  0  0  0
  -24.1080   -8.6790   21.8270 C   0  0  0  0  0  3  0  0  0  0  0  0
  -22.9200   -8.5680   21.0650 C   0  0  0  0  0  0  0  0  0  0  0  0
  -22.5840   -9.5960   20.1650 C   0  0  0  0  0  3  0  0  0  0  0  0
  -23.4030  -10.7280   20.0330 C   0  0  0  0  0  3  0  0  0  0  0  0
  -22.0760   -7.4860   21.1080 O   0  0  0  0  0  0  0  0  0  0  0  0
  -21.9010   -6.7560   22.2570 C   0  0  0  0  0  0  0  0  0  0  0  0
  -21.4730   -7.3550   23.4620 C   0  0  0  0  0  3  0  0  0  0  0  0
  -21.2390   -6.5550   24.5990 C   0  0  0  0  0  3  0  0  0  0  0  0
  -21.4220   -5.1620   24.5300 C   0  0  0  0  0  0  0  0  0  0  0  0
  -21.8420   -4.5640   23.3280 C   0  0  0  0  0  3  0  0  0  0  0  0
  -22.0780   -5.3600   22.1930 C   0  0  0  0  0  0  0  0  0  0  0  0
  -22.4630   -4.7770   21.0340 F   0  0  0  0  0  0  0  0  0  0  0  0
  -21.1880   -4.3940   25.6190 F   0  0  0  0  0  0  0  0  0  0  0  0
  -23.7480  -14.0190   21.2250 C   0  0  0  0  0  0  0  0  0  0  0  0
  -23.0310  -13.3430   22.1130 N   0  0  0  0  0  0  0  0  0  0  0  0
  -23.3600  -15.1030   20.7860 O   0  0  0  0  0  0  0  0  0  0  0  0
  -23.3550  -12.4630   22.4890 H   0  0  0  0  0  0  0  0  0  0  0  0
  -22.1410  -13.7100   22.4190 H   0  0  0  0  0  0  0  0  0  0  0  0
  -26.4760  -15.5030   20.3690 N   0  0  0  0  0  0  0  0  0  0  0  0
  -25.8240  -16.2180   20.6690 H   0  0  0  0  0  0  0  0  0  0  0  0
  -27.4160  -15.8590   20.2370 H   0  0  0  0  0  0  0  0  0  0  0  0
  -29.8140  -23.0530   19.5070 C   0  0  0  0  0  2  0  0  0  0  0  0
  -28.9410  -24.3070   19.1880 C   0  0  0  0  0  3  0  0  0  0  0  0
  -29.3670  -24.7480   17.9050 O   0  0  0  0  0  0  0  0  0  0  0  0
  -29.1740  -25.6820   17.8570 H   0  0  0  0  0  0  0  0  0  0  0  0
  -29.1020  -25.5050   20.1550 C   0  0  0  0  0  2  0  0  0  0  0  0
  -28.8270  -26.7870   19.5970 O   0  0  0  0  0  0  0  0  0  0  0  0
  -24.7090  -31.4970   23.0370 C   0  0  0  0  0  0  0  0  0  0  0  0
  -27.5870  -27.3500   19.7600 C   0  0  0  0  0  0  0  0  0  0  0  0
  -23.5790  -30.1010   21.3390 C   0  0  0  0  0  3  0  0  0  0  0  0
  -25.1080  -28.6940   19.8660 C   0  0  0  0  0  0  0  0  0  0  0  0
  -26.0810  -30.6040   21.1570 C   0  0  0  0  0  2  0  0  0  0  0  0
  -26.2350  -29.2650   20.4670 C   0  0  0  0  0  0  0  0  0  0  0  0
  -27.4800  -28.6010   20.4070 C   0  0  0  0  0  3  0  0  0  0  0  0
  -26.4400  -26.7780   19.1720 C   0  0  0  0  0  3  0  0  0  0  0  0
  -25.2010  -27.4460   19.2250 C   0  0  0  0  0  3  0  0  0  0  0  0
  -23.8190  -29.4800   19.9390 C   0  0  0  0  0  2  0  0  0  0  0  0
  -24.8080  -30.7470   21.9020 N   0  0  0  0  0  0  0  0  0  0  0  0
  -23.6160  -31.6900   23.5860 O   0  0  0  0  0  0  0  0  0  0  0  0
  -22.9850  -29.0080   22.2570 C   0  0  0  0  0  0  0  0  0  0  0  0
  -21.6750  -28.7520   22.1050 N   0  0  0  0  0  0  0  0  0  0  0  0
  -23.6990  -28.3960   23.0550 O   0  0  0  0  0  0  0  0  0  0  0  0
  -21.1600  -29.2940   21.4260 H   0  0  0  0  0  0  0  0  0  0  0  0
  -18.3770  -27.3380   22.5080 C   0  0  0  0  0  0  0  0  0  0  0  0
  -20.9090  -27.7400   22.8320 C   0  0  0  0  0  3  0  0  0  0  0  0
  -21.1090  -26.3400   22.2070 C   0  0  0  0  0  2  0  0  0  0  0  0
  -20.0420  -25.9880   21.1640 C   0  0  0  0  0  2  0  0  0  0  0  0
  -18.6460  -26.0260   21.7910 C   0  0  0  0  0  2  0  0  0  0  0  0
  -19.4400  -28.1500   22.9830 C   0  0  0  0  0  0  0  0  0  0  0  0
  -19.1360  -29.3780   23.6120 C   0  0  0  0  0  3  0  0  0  0  0  0
  -17.8010  -29.7930   23.7730 C   0  0  0  0  0  3  0  0  0  0  0  0
  -16.7520  -28.9770   23.3140 C   0  0  0  0  0  3  0  0  0  0  0  0
  -17.0410  -27.7500   22.6880 C   0  0  0  0  0  3  0  0  0  0  0  0
  -25.9620  -32.1670   23.6830 C   0  0  0  0  0  3  0  0  0  0  0  0
  -25.5800  -33.5310   24.0700 N   0  0  0  0  0  0  0  0  0  0  0  0
  -25.8720  -34.6300   23.3620 C   0  0  0  0  0  0  0  0  0  0  0  0
  -26.5610  -34.6040   22.3380 O   0  0  0  0  0  0  0  0  0  0  0  0
  -24.9570  -33.6190   24.8600 H   0  0  0  0  0  0  0  0  0  0  0  0
  -24.0590  -36.3460   23.0520 C   0  0  0  0  0  1  0  0  0  0  0  0
  -25.3060  -35.9700   23.8670 C   0  0  0  0  0  3  0  0  0  0  0  0
  -27.3790  -36.9230   24.7750 C   0  0  0  0  0  1  0  0  0  0  0  0
  -26.2860  -37.0780   23.8190 N   0  0  0  0  0  0  0  0  0  0  0  0
  -25.8290  -37.9670   24.0030 H   0  0  0  0  0  0  0  0  0  0  0  0
  -26.5220  -31.3690   24.9240 C   0  0  1  0  0  0  0  0  0  0  0  0
  -25.4420  -31.0230   25.9770 C   0  0  0  0  0  1  0  0  0  0  0  0
  -27.1770  -30.0410   24.4720 C   0  0  0  0  0  1  0  0  0  0  0  0
  -27.6310  -32.1920   25.6200 C   0  0  0  0  0  1  0  0  0  0  0  0
  2  1  1  0
  3  2  1  0
  3  7  1  0
  4  3  1  0
  5  3  1  0
  7  6  1  0
  9 14  1  0
 10 11  1  0
 10  9  1  0
 12 11  1  0
 12 26  1  0
 12 13  1  0
 14  8  1  0
 14 13  1  0
 15  8  2  0
 16 18  2  0
 16  7  1  0
 17 21  1  0
 17 19  2  0
 19 18  1  0
 20  8  1  0
 20 17  1  0
 21 16  1  0
 22 20  1  0
 23 24  2  0
 24 43  1  0
 25 28  1  0
 25 24  1  0
 26 27  1  0
 26 23  1  0
 27 25  2  0
 28 29  1  0
 29 30  2  0
 31 34  1  0
 31 30  1  0
 32 31  2  0
 33 32  1  0
 33 28  2  0
 34 35  1  0
 35 36  1  0
 36 37  2  0
 38 37  1  0
 38 42  1  0
 39 38  2  0
 40 35  2  0
 40 39  1  0
 41 40  1  0
 43 44  1  0
 44 47  1  0
 44 46  1  0
 45 43  2  0
 48 23  1  0
 48 49  1  0
 50 48  1  0
 51  2  1  0
 52 51  1  0
 52 55  1  0
 53 52  1  0
 54 53  1  0
 56 58  1  0
 56 55  1  0
 57 68  2  0
 58 63  1  0
 59 67  1  0
 59 69  1  0
 60 66  1  0
 60 62  1  0
 61 67  1  0
 62 61  1  0
 63 62  2  0
 64 65  1  0
 64 58  2  0
 65 60  2  0
 66 59  1  0
 67 57  1  0
 69 71  2  0
 70 69  1  0
 72 70  1  0
 73 82  2  0
 73 78  1  0
 74 70  1  0
 74 78  1  0
 75 74  1  0
 76 77  1  0
 76 75  1  0
 77 73  1  0
 78 79  2  0
 79 80  1  0
 81 80  2  0
 82 81  1  0
 83 57  1  0
 83 84  1  0
 83 93  1  0
 84 87  1  0
 85 89  1  0
 85 84  1  0
 86 85  2  0
 89 88  1  0
 91 89  1  0
 91 92  1  0
 91 90  1  0
 93 96  1  1
 93 94  1  0
 95 93  1  0
M  ISO  4   8 100  20 100  55 101  56 101
M  END
>  <TORSDO>  (51) 
F 22

>  <SCORE>  (51) 
-10.864

>  <name>  (51) 
50

>  <ligand_id>  (51) 
50

>  <original_smiles>  (51) 
[H]OC([H])(C([H])([H])Oc1c([H])c([H])c2c(c1[H])C([H])([H])N(C(=O)C([H])(N([H])C(=O)C([H])(N([H])C([H])([H])[H])C([H])([H])[H])C(C([H])([H])[H])(C([H])([H])[H])C([H])([H])[H])C([H])(C(=O)N([H])C1([H])c3c([H])c([H])c([H])c([H])c3C([H])([H])C([H])([H])C1([H])[H])C2([H])[H])C([H])([H])C([H])(C([H])([H])[H])[N+]([H])([H])C([H])(c1nnc(N([H])C(=O)N2C([H])([H])C([H])([H])C([H])([H])C([H])(n3nc(-c4c([H])c([H])c(Oc5c([H])c([H])c(F)c([H])c5F)c([H])c4[H])c(C(=O)N([H])[H])c3N([H])[H])C2([H])[H])s1)C([H])([H])[H]

>  <smiles>  (51) 
[H]OC([H])(C([H])([H])Oc1c([H])c([H])c2c(c1[H])C([H])([H])N(C(=O)C([H])(N([H])C(=O)C([H])(N([H])C([H])([H])[H])C([H])([H])[H])C(C([H])([H])[H])(C([H])([H])[H])C([H])([H])[H])C([H])(C(=O)N([H])C1([H])c3c([H])c([H])c([H])c([H])c3C([H])([H])C([H])([H])C1([H])[H])C2([H])[H])C([H])([H])C([H])(C([H])([H])[H])[N+]([H])([H])C([H])(c1nnc(N([H])C(=O)N2C([H])([H])C([H])([H])C([H])([H])C([H])(n3nc(-c4c([H])c([H])c(Oc5c([H])c([H])c(F)c([H])c5F)c([H])c4[H])c(C(=O)N([H])[H])c3N([H])[H])C2([H])[H])s1)C([H])([H])[H]

$$$$
51:0:0
     RDKit          3D

 95103  0  0  1  0  0  0  0  0999 V2000
  -29.9170  -18.8030   19.9930 C   0  0  0  0  0  0  0  0  0  0  0  0
  -27.8810  -19.5310   19.4670 C   0  0  0  0  0  0  0  0  0  0  0  0
  -29.4100  -21.0850   19.8720 C   0  0  0  0  0  0  0  0  0  0  0  0
  -28.6670  -18.4780   19.6510 N   0  0  0  0  0  4  0  0  0  0  0  0
  -30.3290  -20.1150   20.1420 N   0  0  0  0  0  0  0  0  0  0  0  0
  -28.1570  -20.8280   19.5260 N   0  0  0  0  0  2  0  0  0  0  0  0
  -26.5730  -19.2490   19.2200 N   0  0  0  0  0  0  0  0  0  0  0  0
  -29.7210  -22.4850   20.0880 N   0  0  0  0  0  0  0  0  0  0  0  0
  -26.2420  -18.3390   19.5090 H   0  0  0  0  0  0  0  0  0  0  0  0
  -25.9280  -20.0020   19.4170 H   0  0  0  0  0  0  0  0  0  0  0  0
  -30.5940  -22.5890   20.5870 H   0  0  0  0  0  0  0  0  0  0  0  0
  -30.2980  -24.0170   18.2130 C   0  0  0  0  0  1  0  0  0  0  0  0
  -29.3070  -23.7800   19.3600 C   0  0  0  0  0  3  0  0  0  0  0  0
  -30.3810  -25.4610   20.9740 C   0  0  0  0  0  1  0  0  0  0  0  0
  -29.0890  -25.1900   20.1940 C   0  0  0  0  0  3  0  0  0  0  0  0
  -28.8560  -26.5700   19.5980 O   0  0  0  0  0  0  0  0  0  0  0  0
  -24.7230  -31.5160   23.0790 C   0  0  0  0  0  0  0  0  0  0  0  0
  -27.6810  -27.3470   19.7410 C   0  0  0  0  0  0  0  0  0  0  0  0
  -23.6580  -30.2250   21.2680 C   0  0  0  0  0  3  0  0  0  0  0  0
  -25.2480  -28.8790   19.7720 C   0  0  0  0  0  0  0  0  0  0  0  0
  -26.1860  -30.6770   21.2220 C   0  0  0  0  0  2  0  0  0  0  0  0
  -26.3700  -29.3600   20.4590 C   0  0  0  0  0  0  0  0  0  0  0  0
  -27.5960  -28.6110   20.4270 C   0  0  0  0  0  3  0  0  0  0  0  0
  -26.5290  -26.9290   19.0470 C   0  0  0  0  0  3  0  0  0  0  0  0
  -25.3290  -27.6720   19.0610 C   0  0  0  0  0  3  0  0  0  0  0  0
  -23.9690  -29.6990   19.8450 C   0  0  0  0  0  2  0  0  0  0  0  0
  -24.8700  -30.8210   21.9140 N   0  0  0  0  0  0  0  0  0  0  0  0
  -23.6080  -31.6800   23.5970 O   0  0  0  0  0  0  0  0  0  0  0  0
  -23.0170  -29.0870   22.1020 C   0  0  0  0  0  0  0  0  0  0  0  0
  -21.7090  -28.8510   21.9020 N   0  0  0  0  0  0  0  0  0  0  0  0
  -23.6980  -28.4220   22.8830 O   0  0  0  0  0  0  0  0  0  0  0  0
  -21.2210  -29.4310   21.2370 H   0  0  0  0  0  0  0  0  0  0  0  0
  -18.3830  -27.4530   22.1610 C   0  0  0  0  0  0  0  0  0  0  0  0
  -20.9150  -27.8010   22.5430 C   0  0  0  0  0  3  0  0  0  0  0  0
  -21.1080  -26.4470   21.8230 C   0  0  0  0  0  2  0  0  0  0  0  0
  -20.0520  -26.1780   20.7450 C   0  0  0  0  0  2  0  0  0  0  0  0
  -18.6470  -26.1930   21.3530 C   0  0  0  0  0  2  0  0  0  0  0  0
  -19.4490  -28.2150   22.7060 C   0  0  0  0  0  0  0  0  0  0  0  0
  -19.1510  -29.3950   23.4200 C   0  0  0  0  0  3  0  0  0  0  0  0
  -17.8180  -29.8170   23.5890 C   0  0  0  0  0  3  0  0  0  0  0  0
  -16.7650  -29.0470   23.0660 C   0  0  0  0  0  3  0  0  0  0  0  0
  -17.0480  -27.8670   22.3590 C   0  0  0  0  0  3  0  0  0  0  0  0
  -25.9440  -32.1570   23.8070 C   0  0  0  0  0  3  0  0  0  0  0  0
  -26.3980  -31.3440   25.0790 C   0  0  1  0  0  0  0  0  0  0  0  0
  -25.2440  -31.0410   26.0630 C   0  0  0  0  0  1  0  0  0  0  0  0
  -27.0340  -29.9980   24.6660 C   0  0  0  0  0  1  0  0  0  0  0  0
  -27.4900  -32.1280   25.8410 C   0  0  0  0  0  1  0  0  0  0  0  0
  -25.5640  -33.5290   24.1800 N   0  0  0  0  0  0  0  0  0  0  0  0
  -25.9480  -34.6300   23.5220 C   0  0  0  0  0  0  0  0  0  0  0  0
  -26.7150  -34.5950   22.5550 O   0  0  0  0  0  0  0  0  0  0  0  0
  -24.8940  -33.6300   24.9310 H   0  0  0  0  0  0  0  0  0  0  0  0
  -24.2070  -36.3950   23.1190 C   0  0  0  0  0  1  0  0  0  0  0  0
  -25.3900  -35.9810   24.0110 C   0  0  0  0  0  3  0  0  0  0  0  0
  -27.4210  -36.8670   25.0600 C   0  0  0  0  0  1  0  0  0  0  0  0
  -26.3970  -37.0620   24.0370 N   0  0  0  0  0  0  0  0  0  0  0  0
  -25.9520  -37.9610   24.1940 H   0  0  0  0  0  0  0  0  0  0  0  0
  -30.8870  -17.5710   20.3560 C   0  0  0  0  0  2  0  0  0  0  0  0
  -31.1570  -14.9570   20.0840 C   0  0  0  0  0  0  0  0  0  0  0  0
  -30.9340  -12.6640   19.0630 C   0  0  0  0  0  2  0  0  0  0  0  0
  -29.9630  -12.7080   17.8630 C   0  0  0  0  0  2  0  0  0  0  0  0
  -28.5130  -12.5280   18.3430 C   0  0  0  0  0  2  0  0  0  0  0  0
  -28.1700  -13.4320   19.5530 C   0  0  0  0  0  3  0  0  0  0  0  0
  -29.2510  -13.3650   20.6560 C   0  0  0  0  0  2  0  0  0  0  0  0
  -30.5270  -13.7290   20.0270 N   0  0  0  0  0  0  0  0  0  0  0  0
  -32.3090  -15.0430   19.6460 O   0  0  0  0  0  0  0  0  0  0  0  0
  -30.4410  -16.0990   20.4520 N   0  0  0  0  0  0  0  0  0  0  0  0
  -29.4960  -15.9770   20.7830 H   0  0  0  0  0  0  0  0  0  0  0  0
  -25.8450  -14.0570   20.4360 C   0  0  0  0  0  0  0  0  0  0  0  0
  -24.7680  -13.3010   20.7990 C   0  0  0  0  0  0  0  0  0  0  0  0
  -25.1690  -11.9380   20.6450 C   0  0  0  0  0  0  0  0  0  0  0  0
  -26.8370  -13.1600   20.0800 N   0  0  0  0  0  0  0  0  0  0  0  0
  -26.4400  -11.8760   20.2670 N   0  0  0  0  0  0  0  0  0  0  0  0
  -24.3990  -10.6950   20.7710 C   0  0  0  0  0  0  0  0  0  0  0  0
  -24.8520   -9.6190   21.5690 C   0  0  0  0  0  3  0  0  0  0  0  0
  -24.0770   -8.4470   21.6920 C   0  0  0  0  0  3  0  0  0  0  0  0
  -22.8380   -8.3390   21.0170 C   0  0  0  0  0  0  0  0  0  0  0  0
  -22.4050   -9.4010   20.2030 C   0  0  0  0  0  3  0  0  0  0  0  0
  -23.1800  -10.5670   20.0750 C   0  0  0  0  0  3  0  0  0  0  0  0
  -22.0310   -7.2250   21.0550 O   0  0  0  0  0  0  0  0  0  0  0  0
  -22.0630   -6.3510   22.1110 C   0  0  0  0  0  0  0  0  0  0  0  0
  -21.8010   -6.7690   23.4350 C   0  0  0  0  0  3  0  0  0  0  0  0
  -21.7750   -5.8250   24.4800 C   0  0  0  0  0  3  0  0  0  0  0  0
  -22.0030   -4.4620   24.2050 C   0  0  0  0  0  0  0  0  0  0  0  0
  -22.2640   -4.0430   22.8880 C   0  0  0  0  0  3  0  0  0  0  0  0
  -22.2900   -4.9840   21.8450 C   0  0  0  0  0  0  0  0  0  0  0  0
  -22.5180   -4.5710   20.5740 F   0  0  0  0  0  0  0  0  0  0  0  0
  -21.9700   -3.5550   25.2090 F   0  0  0  0  0  0  0  0  0  0  0  0
  -23.4100  -13.8110   21.1750 C   0  0  0  0  0  0  0  0  0  0  0  0
  -22.7040  -13.1020   22.0450 N   0  0  0  0  0  0  0  0  0  0  0  0
  -22.9850  -14.8800   20.7300 O   0  0  0  0  0  0  0  0  0  0  0  0
  -23.0630  -12.2350   22.4230 H   0  0  0  0  0  0  0  0  0  0  0  0
  -21.7970  -13.4320   22.3390 H   0  0  0  0  0  0  0  0  0  0  0  0
  -26.0510  -15.4350   20.3600 N   0  0  0  0  0  0  0  0  0  0  0  0
  -25.3220  -16.1060   20.5760 H   0  0  0  0  0  0  0  0  0  0  0  0
  -26.8920  -15.8780   20.0190 H   0  0  0  0  0  0  0  0  0  0  0  0
  1  5  1  0
  1 57  1  0
  2  6  1  0
  2  4  2  0
  3  8  1  0
  3  5  2  0
  4  1  2  0
  6  3  1  0
  7 10  1  0
  7  2  1  0
  7  9  1  0
  8 11  1  0
 13 12  1  0
 13  8  1  0
 13 15  1  0
 15 14  1  0
 16 18  1  0
 16 15  1  0
 17 28  2  0
 18 23  1  0
 19 27  1  0
 19 29  1  0
 20 26  1  0
 20 22  1  0
 21 27  1  0
 22 21  1  0
 23 22  2  0
 24 25  1  0
 24 18  2  0
 25 20  2  0
 26 19  1  0
 27 17  1  0
 29 31  2  0
 30 29  1  0
 32 30  1  0
 33 42  2  0
 33 38  1  0
 34 30  1  0
 34 38  1  0
 35 34  1  0
 36 37  1  0
 36 35  1  0
 37 33  1  0
 38 39  2  0
 39 40  1  0
 41 40  2  0
 42 41  1  0
 43 17  1  0
 43 48  1  0
 43 44  1  0
 44 47  1  1
 44 45  1  0
 46 44  1  0
 48 51  1  0
 49 53  1  0
 49 48  1  0
 50 49  2  0
 53 52  1  0
 53 55  1  0
 55 56  1  0
 55 54  1  0
 57 66  1  0
 58 66  1  0
 59 64  1  0
 60 61  1  0
 60 59  1  0
 62 61  1  0
 62 71  1  0
 62 63  1  0
 64 58  1  0
 64 63  1  0
 65 58  2  0
 66 67  1  0
 68 69  2  0
 69 88  1  0
 70 73  1  0
 70 69  1  0
 71 72  1  0
 71 68  1  0
 72 70  2  0
 73 74  1  0
 74 75  2  0
 76 79  1  0
 76 75  1  0
 77 76  2  0
 78 77  1  0
 78 73  2  0
 79 80  1  0
 80 81  1  0
 81 82  2  0
 83 82  1  0
 83 87  1  0
 84 83  2  0
 85 80  2  0
 85 84  1  0
 86 85  1  0
 88 89  1  0
 89 92  1  0
 89 91  1  0
 90 88  2  0
 93 68  1  0
 93 94  1  0
 95 93  1  0
M  ISO  4  15 101  16 101  58 100  66 100
M  END
>  <TORSDO>  (52) 
F 19

>  <SCORE>  (52) 
-12.485

>  <name>  (52) 
51

>  <ligand_id>  (52) 
51

>  <original_smiles>  (52) 
[H]c1c([H])c([H])c2c(c1[H])C([H])([H])C([H])([H])C([H])([H])C2([H])N([H])C(=O)C1([H])N(C(=O)C([H])(N([H])C(=O)C([H])(N([H])C([H])([H])[H])C([H])([H])[H])C(C([H])([H])[H])(C([H])([H])[H])C([H])([H])[H])C([H])([H])c2c([H])c(OC([H])(C([H])([H])[H])C([H])(N([H])c3nc(N([H])[H])nc(C([H])([H])N([H])C(=O)N4C([H])([H])C([H])([H])C([H])([H])C([H])(n5nc(-c6c([H])c([H])c(Oc7c([H])c([H])c(F)c([H])c7F)c([H])c6[H])c(C(=O)N([H])[H])c5N([H])[H])C4([H])[H])n3)C([H])([H])[H])c([H])c([H])c2C1([H])[H]

>  <smiles>  (52) 
[H]c1c([H])c([H])c2c(c1[H])C([H])([H])C([H])([H])C([H])([H])C2([H])N([H])C(=O)C1([H])N(C(=O)C([H])(N([H])C(=O)C([H])(N([H])C([H])([H])[H])C([H])([H])[H])C(C([H])([H])[H])(C([H])([H])[H])C([H])([H])[H])C([H])([H])c2c([H])c(OC([H])(C([H])([H])[H])C([H])(N([H])c3nc(N([H])[H])nc(C([H])([H])N([H])C(=O)N4C([H])([H])C([H])([H])C([H])([H])C([H])(n5nc(-c6c([H])c([H])c(Oc7c([H])c([H])c(F)c([H])c7F)c([H])c6[H])c(C(=O)N([H])[H])c5N([H])[H])C4([H])[H])n3)C([H])([H])[H])c([H])c([H])c2C1([H])[H]

$$$$
52:0:0
     RDKit          3D

 96104  0  0  1  0  0  0  0  0999 V2000
  -29.7990  -19.3470   18.4670 C   0  0  0  0  0  3  0  0  0  0  0  0
  -29.9420  -19.4230   21.1280 C   0  0  0  0  0  0  0  0  0  0  0  0
  -30.2910  -18.2360   20.4070 C   0  0  0  0  0  0  0  0  0  0  0  0
  -29.5650  -20.5650   20.3690 C   0  0  0  0  0  0  0  0  0  0  0  0
  -30.1880  -18.2210   19.0660 N   0  0  0  0  0  0  0  0  0  0  0  0
  -29.5010  -20.5160   19.0360 N   0  0  0  0  0  0  0  0  0  0  0  0
  -29.2180  -21.7700   21.0250 N   0  0  0  0  0  0  0  0  0  0  0  0
  -29.4310  -21.6690   22.0100 H   0  0  0  0  0  0  0  0  0  0  0  0
  -29.9500  -19.4980   22.5300 N   0  0  0  0  0  0  0  0  0  0  0  0
  -30.0380  -18.6270   23.0440 H   0  0  0  0  0  0  0  0  0  0  0  0
  -29.2340  -20.0840   22.9500 H   0  0  0  0  0  0  0  0  0  0  0  0
  -30.9180  -16.9700   21.0540 C   0  0  0  0  0  2  0  0  0  0  0  0
  -31.0910  -14.5660   20.2200 C   0  0  0  0  0  0  0  0  0  0  0  0
  -30.7590  -12.3570   19.1360 C   0  0  0  0  0  2  0  0  0  0  0  0
  -29.7980  -12.5190   17.9390 C   0  0  0  0  0  2  0  0  0  0  0  0
  -28.3310  -12.4140   18.4000 C   0  0  0  0  0  2  0  0  0  0  0  0
  -28.0250  -13.3010   19.6390 C   0  0  0  0  0  3  0  0  0  0  0  0
  -29.0950  -13.1020   20.7340 C   0  0  0  0  0  2  0  0  0  0  0  0
  -30.4050  -13.3870   20.1270 N   0  0  0  0  0  0  0  0  0  0  0  0
  -32.2440  -14.6860   19.8010 O   0  0  0  0  0  0  0  0  0  0  0  0
  -30.3910  -15.6310   20.6800 N   0  0  0  0  0  0  0  0  0  0  0  0
  -29.4200  -15.4720   20.8990 H   0  0  0  0  0  0  0  0  0  0  0  0
  -25.6710  -13.9870   20.4090 C   0  0  0  0  0  0  0  0  0  0  0  0
  -24.5810  -13.2520   20.7930 C   0  0  0  0  0  0  0  0  0  0  0  0
  -24.9910  -11.8840   20.7420 C   0  0  0  0  0  0  0  0  0  0  0  0
  -26.6760  -13.0690   20.1480 N   0  0  0  0  0  0  0  0  0  0  0  0
  -26.2720  -11.7990   20.4070 N   0  0  0  0  0  0  0  0  0  0  0  0
  -24.2220  -10.6490   20.9360 C   0  0  0  0  0  0  0  0  0  0  0  0
  -24.6240   -9.6690   21.8720 C   0  0  0  0  0  3  0  0  0  0  0  0
  -23.8580   -8.4980   22.0540 C   0  0  0  0  0  3  0  0  0  0  0  0
  -22.6760   -8.2980   21.3020 C   0  0  0  0  0  0  0  0  0  0  0  0
  -22.2930   -9.2650   20.3550 C   0  0  0  0  0  3  0  0  0  0  0  0
  -23.0590  -10.4280   20.1710 C   0  0  0  0  0  3  0  0  0  0  0  0
  -21.8830   -7.1800   21.3920 O   0  0  0  0  0  0  0  0  0  0  0  0
  -21.7820   -6.4610   22.5560 C   0  0  0  0  0  0  0  0  0  0  0  0
  -21.3290   -7.0490   23.7560 C   0  0  0  0  0  3  0  0  0  0  0  0
  -21.1740   -6.2590   24.9130 C   0  0  0  0  0  3  0  0  0  0  0  0
  -21.4650   -4.8820   24.8690 C   0  0  0  0  0  0  0  0  0  0  0  0
  -21.9120   -4.2940   23.6740 C   0  0  0  0  0  3  0  0  0  0  0  0
  -22.0680   -5.0820   22.5190 C   0  0  0  0  0  0  0  0  0  0  0  0
  -22.4800   -4.5070   21.3640 F   0  0  0  0  0  0  0  0  0  0  0  0
  -21.3090   -4.1210   25.9780 F   0  0  0  0  0  0  0  0  0  0  0  0
  -23.2090  -13.7790   21.0980 C   0  0  0  0  0  0  0  0  0  0  0  0
  -22.4780  -13.1080   21.9800 N   0  0  0  0  0  0  0  0  0  0  0  0
  -22.7970  -14.8190   20.5870 O   0  0  0  0  0  0  0  0  0  0  0  0
  -22.8230  -12.2640   22.4110 H   0  0  0  0  0  0  0  0  0  0  0  0
  -21.5560  -13.4410   22.2260 H   0  0  0  0  0  0  0  0  0  0  0  0
  -25.8840  -15.3520   20.2410 N   0  0  0  0  0  0  0  0  0  0  0  0
  -25.1460  -16.0340   20.3760 H   0  0  0  0  0  0  0  0  0  0  0  0
  -26.7380  -15.7630   19.8860 H   0  0  0  0  0  0  0  0  0  0  0  0
  -29.4920  -23.1190   20.4630 C   0  0  0  0  0  2  0  0  0  0  0  0
  -28.7490  -24.2350   21.2770 C   0  0  0  0  0  3  0  0  0  0  0  0
  -27.3640  -24.0370   21.0880 O   0  0  0  0  0  0  0  0  0  0  0  0
  -27.2600  -23.0910   21.0090 H   0  0  0  0  0  0  0  0  0  0  0  0
  -29.1520  -25.7670   21.2230 C   0  0  0  0  0  2  0  0  0  0  0  0
  -28.8740  -26.5930   20.0640 O   0  0  0  0  0  0  0  0  0  0  0  0
  -24.8030  -31.6880   23.1320 C   0  0  0  0  0  0  0  0  0  0  0  0
  -27.7100  -27.3470   20.0960 C   0  0  0  0  0  0  0  0  0  0  0  0
  -23.7080  -30.2560   21.4400 C   0  0  0  0  0  3  0  0  0  0  0  0
  -25.2680  -28.7930   20.0460 C   0  0  0  0  0  0  0  0  0  0  0  0
  -26.2260  -30.7100   21.3270 C   0  0  0  0  0  2  0  0  0  0  0  0
  -26.3890  -29.3450   20.6800 C   0  0  0  0  0  0  0  0  0  0  0  0
  -27.6180  -28.6290   20.7060 C   0  0  0  0  0  3  0  0  0  0  0  0
  -26.5750  -26.8270   19.4470 C   0  0  0  0  0  3  0  0  0  0  0  0
  -25.3560  -27.5330   19.4300 C   0  0  0  0  0  3  0  0  0  0  0  0
  -23.9890  -29.6050   20.0610 C   0  0  0  0  0  2  0  0  0  0  0  0
  -24.9280  -30.9000   22.0260 N   0  0  0  0  0  0  0  0  0  0  0  0
  -23.6960  -31.9120   23.6410 O   0  0  0  0  0  0  0  0  0  0  0  0
  -23.0660  -29.2010   22.3700 C   0  0  0  0  0  0  0  0  0  0  0  0
  -21.7490  -28.9840   22.2130 N   0  0  0  0  0  0  0  0  0  0  0  0
  -23.7500  -28.5810   23.1880 O   0  0  0  0  0  0  0  0  0  0  0  0
  -21.2570  -29.5370   21.5260 H   0  0  0  0  0  0  0  0  0  0  0  0
  -18.4020  -27.6850   22.6330 C   0  0  0  0  0  0  0  0  0  0  0  0
  -20.9470  -28.0090   22.9510 C   0  0  0  0  0  3  0  0  0  0  0  0
  -21.0990  -26.5930   22.3490 C   0  0  0  0  0  2  0  0  0  0  0  0
  -20.0240  -26.2630   21.3080 C   0  0  0  0  0  2  0  0  0  0  0  0
  -18.6270  -26.3560   21.9300 C   0  0  0  0  0  2  0  0  0  0  0  0
  -19.4920  -28.4680   23.0970 C   0  0  0  0  0  0  0  0  0  0  0  0
  -19.2300  -29.7110   23.7130 C   0  0  0  0  0  3  0  0  0  0  0  0
  -17.9090  -30.1740   23.8660 C   0  0  0  0  0  3  0  0  0  0  0  0
  -16.8330  -29.3880   23.4190 C   0  0  0  0  0  3  0  0  0  0  0  0
  -17.0800  -28.1460   22.8090 C   0  0  0  0  0  3  0  0  0  0  0  0
  -26.0430  -32.3640   23.7990 C   0  0  0  0  0  3  0  0  0  0  0  0
  -25.6690  -33.7450   24.1300 N   0  0  0  0  0  0  0  0  0  0  0  0
  -25.9780  -34.8170   23.3870 C   0  0  0  0  0  0  0  0  0  0  0  0
  -26.6780  -34.7500   22.3730 O   0  0  0  0  0  0  0  0  0  0  0  0
  -25.0490  -33.8700   24.9160 H   0  0  0  0  0  0  0  0  0  0  0  0
  -24.1870  -36.5400   23.0030 C   0  0  0  0  0  1  0  0  0  0  0  0
  -25.4230  -36.1800   23.8420 C   0  0  0  0  0  3  0  0  0  0  0  0
  -27.4950  -37.1460   24.7350 C   0  0  0  0  0  1  0  0  0  0  0  0
  -26.4130  -37.2760   23.7630 N   0  0  0  0  0  0  0  0  0  0  0  0
  -25.9650  -38.1770   23.9080 H   0  0  0  0  0  0  0  0  0  0  0  0
  -26.5540  -31.6010   25.0820 C   0  0  1  0  0  0  0  0  0  0  0  0
  -25.4400  -31.3110   26.1140 C   0  0  0  0  0  1  0  0  0  0  0  0
  -27.2010  -30.2500   24.6940 C   0  0  0  0  0  1  0  0  0  0  0  0
  -27.6550  -32.4310   25.7830 C   0  0  0  0  0  1  0  0  0  0  0  0
  1  6  2  0
  1  5  1  0
  2  9  1  0
  3 12  1  0
  3  2  1  0
  4  7  1  0
  4  2  2  0
  5  3  2  0
  6  4  1  0
  7  8  1  0
  9 11  1  0
  9 10  1  0
 13 21  1  0
 14 19  1  0
 15 16  1  0
 15 14  1  0
 17 16  1  0
 17 26  1  0
 17 18  1  0
 19 13  1  0
 19 18  1  0
 20 13  2  0
 21 22  1  0
 21 12  1  0
 23 24  2  0
 24 43  1  0
 25 24  1  0
 25 28  1  0
 26 27  1  0
 26 23  1  0
 27 25  2  0
 28 29  1  0
 29 30  2  0
 31 34  1  0
 31 30  1  0
 32 31  2  0
 33 32  1  0
 33 28  2  0
 34 35  1  0
 35 36  1  0
 36 37  2  0
 38 37  1  0
 38 42  1  0
 39 38  2  0
 40 35  2  0
 40 39  1  0
 41 40  1  0
 43 44  1  0
 44 47  1  0
 44 46  1  0
 45 43  2  0
 48 49  1  0
 48 23  1  0
 50 48  1  0
 51  7  1  0
 52 51  1  0
 53 52  1  0
 54 53  1  0
 55 52  1  0
 56 58  1  0
 56 55  1  0
 57 68  2  0
 58 63  1  0
 59 67  1  0
 59 69  1  0
 60 66  1  0
 60 62  1  0
 61 67  1  0
 62 63  2  0
 62 61  1  0
 64 58  2  0
 65 64  1  0
 65 60  2  0
 66 59  1  0
 67 57  1  0
 69 71  2  0
 70 69  1  0
 72 70  1  0
 73 82  2  0
 73 78  1  0
 74 70  1  0
 74 78  1  0
 75 74  1  0
 76 77  1  0
 76 75  1  0
 77 73  1  0
 78 79  2  0
 79 80  1  0
 81 80  2  0
 82 81  1  0
 83 57  1  0
 83 84  1  0
 83 93  1  0
 84 87  1  0
 85 89  1  0
 85 84  1  0
 86 85  2  0
 89 88  1  0
 91 89  1  0
 91 92  1  0
 91 90  1  0
 93 96  1  1
 93 94  1  0
 95 93  1  0
M  ISO  4  13 100  21 100  55 101  56 101
M  END
>  <TORSDO>  (53) 
F 22

>  <SCORE>  (53) 
-12.570

>  <name>  (53) 
52

>  <ligand_id>  (53) 
52

>  <original_smiles>  (53) 
[H]OC([H])(C([H])([H])Oc1c([H])c([H])c2c(c1[H])C([H])([H])N(C(=O)C([H])(N([H])C(=O)C([H])(N([H])C([H])([H])[H])C([H])([H])[H])C(C([H])([H])[H])(C([H])([H])[H])C([H])([H])[H])C([H])(C(=O)N([H])C1([H])c3c([H])c([H])c([H])c([H])c3C([H])([H])C([H])([H])C1([H])[H])C2([H])[H])C([H])([H])N([H])c1nc([H])nc(C([H])([H])N([H])C(=O)N2C([H])([H])C([H])([H])C([H])([H])C([H])(n3nc(-c4c([H])c([H])c(Oc5c([H])c([H])c(F)c([H])c5F)c([H])c4[H])c(C(=O)N([H])[H])c3N([H])[H])C2([H])[H])c1N([H])[H]

>  <smiles>  (53) 
[H]OC([H])(C([H])([H])Oc1c([H])c([H])c2c(c1[H])C([H])([H])N(C(=O)C([H])(N([H])C(=O)C([H])(N([H])C([H])([H])[H])C([H])([H])[H])C(C([H])([H])[H])(C([H])([H])[H])C([H])([H])[H])C([H])(C(=O)N([H])C1([H])c3c([H])c([H])c([H])c([H])c3C([H])([H])C([H])([H])C1([H])[H])C2([H])[H])C([H])([H])N([H])c1nc([H])nc(C([H])([H])N([H])C(=O)N2C([H])([H])C([H])([H])C([H])([H])C([H])(n3nc(-c4c([H])c([H])c(Oc5c([H])c([H])c(F)c([H])c5F)c([H])c4[H])c(C(=O)N([H])[H])c3N([H])[H])C2([H])[H])c1N([H])[H]

$$$$
53:0:0
     RDKit          3D

 94102  0  0  1  0  0  0  0  0999 V2000
  -28.5800  -22.2240   19.3130 C   0  0  0  0  0  0  0  0  0  0  0  0
  -29.3650  -21.1870   18.9710 N   0  0  0  0  0  0  0  0  0  0  0  0
  -27.7460  -22.1850   20.2160 O   0  0  0  0  0  0  0  0  0  0  0  0
  -29.9790  -21.3540   18.1830 H   0  0  0  0  0  0  0  0  0  0  0  0
  -30.1670  -18.9020   18.8260 C   0  0  0  0  0  3  0  0  0  0  0  0
  -30.1850  -17.5770   19.2960 C   0  0  0  0  0  3  0  0  0  0  0  0
  -28.6920  -19.4400   20.6570 C   0  0  0  0  0  3  0  0  0  0  0  0
  -29.3930  -19.8630   19.5030 C   0  0  0  0  0  0  0  0  0  0  0  0
  -29.4380  -17.2490   20.4440 C   0  0  0  0  0  0  0  0  0  0  0  0
  -28.7160  -18.1690   21.1120 N   0  0  0  0  0  0  0  0  0  0  0  0
  -29.3020  -15.8240   20.9760 C   0  0  0  0  0  2  0  0  0  0  0  0
  -30.6690  -14.1740   19.7550 C   0  0  0  0  0  0  0  0  0  0  0  0
  -30.1360  -12.0820   18.5550 C   0  0  0  0  0  2  0  0  0  0  0  0
  -29.0860  -12.3310   17.4580 C   0  0  0  0  0  2  0  0  0  0  0  0
  -27.6590  -12.2140   18.0300 C   0  0  0  0  0  2  0  0  0  0  0  0
  -27.4740  -13.0210   19.3420 C   0  0  0  0  0  3  0  0  0  0  0  0
  -28.6380  -12.7530   20.3270 C   0  0  0  0  0  2  0  0  0  0  0  0
  -29.9060  -13.0490   19.6400 N   0  0  0  0  0  0  0  0  0  0  0  0
  -31.6330  -14.3860   19.0140 O   0  0  0  0  0  0  0  0  0  0  0  0
  -31.6530  -15.4500   21.5680 C   0  0  0  0  0  1  0  0  0  0  0  0
  -30.4770  -14.9500   20.8470 N   0  0  0  0  0  0  0  0  0  0  0  0
  -25.1690  -13.6560   20.2940 C   0  0  0  0  0  0  0  0  0  0  0  0
  -24.1390  -12.8970   20.7820 C   0  0  0  0  0  0  0  0  0  0  0  0
  -24.5810  -11.5400   20.7110 C   0  0  0  0  0  0  0  0  0  0  0  0
  -26.1750  -12.7630   19.9590 N   0  0  0  0  0  0  0  0  0  0  0  0
  -25.8300  -11.4860   20.2640 N   0  0  0  0  0  0  0  0  0  0  0  0
  -23.8670  -10.2870   20.9910 C   0  0  0  0  0  0  0  0  0  0  0  0
  -24.3490   -9.3550   21.9360 C   0  0  0  0  0  3  0  0  0  0  0  0
  -23.6360   -8.1660   22.1990 C   0  0  0  0  0  3  0  0  0  0  0  0
  -22.4260   -7.9000   21.5170 C   0  0  0  0  0  0  0  0  0  0  0  0
  -21.9600   -8.8190   20.5610 C   0  0  0  0  0  3  0  0  0  0  0  0
  -22.6750   -9.9990   20.2970 C   0  0  0  0  0  3  0  0  0  0  0  0
  -21.6780   -6.7580   21.6870 O   0  0  0  0  0  0  0  0  0  0  0  0
  -21.6540   -6.0860   22.8820 C   0  0  0  0  0  0  0  0  0  0  0  0
  -21.2500   -6.7120   24.0810 C   0  0  0  0  0  3  0  0  0  0  0  0
  -21.1730   -5.9670   25.2740 C   0  0  0  0  0  3  0  0  0  0  0  0
  -21.4920   -4.5950   25.2690 C   0  0  0  0  0  0  0  0  0  0  0  0
  -21.8900   -3.9680   24.0760 C   0  0  0  0  0  3  0  0  0  0  0  0
  -21.9670   -4.7120   22.8850 C   0  0  0  0  0  0  0  0  0  0  0  0
  -22.3320   -4.0980   21.7330 F   0  0  0  0  0  0  0  0  0  0  0  0
  -21.4110   -3.8760   26.4130 F   0  0  0  0  0  0  0  0  0  0  0  0
  -22.7830  -13.3900   21.2010 C   0  0  0  0  0  0  0  0  0  0  0  0
  -22.1500  -12.7140   22.1540 N   0  0  0  0  0  0  0  0  0  0  0  0
  -22.2940  -14.4100   20.7130 O   0  0  0  0  0  0  0  0  0  0  0  0
  -22.5580  -11.8870   22.5640 H   0  0  0  0  0  0  0  0  0  0  0  0
  -21.2470  -13.0280   22.4760 H   0  0  0  0  0  0  0  0  0  0  0  0
  -25.3280  -15.0240   20.0900 N   0  0  0  0  0  0  0  0  0  0  0  0
  -24.5810  -15.6890   20.2620 H   0  0  0  0  0  0  0  0  0  0  0  0
  -26.1380  -15.4470   19.6570 H   0  0  0  0  0  0  0  0  0  0  0  0
  -28.7160  -23.4950   18.4690 C   0  0  0  0  0  2  0  0  0  0  0  0
  -29.3110  -24.7240   19.1940 C   0  0  0  0  0  2  0  0  0  0  0  0
  -29.0010  -25.0060   21.7310 C   0  0  0  0  0  1  0  0  0  0  0  0
  -28.4580  -25.3290   20.3320 C   0  0  0  0  0  3  0  0  0  0  0  0
  -28.4900  -26.7540   20.2060 O   0  0  0  0  0  0  0  0  0  0  0  0
  -24.6070  -31.8840   23.2270 C   0  0  0  0  0  0  0  0  0  0  0  0
  -27.2970  -27.4430   20.1970 C   0  0  0  0  0  0  0  0  0  0  0  0
  -23.4270  -30.4770   21.5690 C   0  0  0  0  0  3  0  0  0  0  0  0
  -24.8990  -28.9390   20.1730 C   0  0  0  0  0  0  0  0  0  0  0  0
  -25.9510  -30.8410   21.4060 C   0  0  0  0  0  2  0  0  0  0  0  0
  -26.0480  -29.4660   20.7780 C   0  0  0  0  0  0  0  0  0  0  0  0
  -27.2490  -28.7240   20.7860 C   0  0  0  0  0  3  0  0  0  0  0  0
  -26.1340  -26.9340   19.5750 C   0  0  0  0  0  3  0  0  0  0  0  0
  -24.9370  -27.6720   19.5680 C   0  0  0  0  0  3  0  0  0  0  0  0
  -23.6570  -29.7960   20.1930 C   0  0  0  0  0  2  0  0  0  0  0  0
  -24.6790  -31.0820   22.1280 N   0  0  0  0  0  0  0  0  0  0  0  0
  -23.5190  -32.1580   23.7510 O   0  0  0  0  0  0  0  0  0  0  0  0
  -22.7600  -29.4580   22.5210 C   0  0  0  0  0  0  0  0  0  0  0  0
  -21.4340  -29.2990   22.3900 N   0  0  0  0  0  0  0  0  0  0  0  0
  -23.4330  -28.8130   23.3300 O   0  0  0  0  0  0  0  0  0  0  0  0
  -20.9550  -29.8720   21.7090 H   0  0  0  0  0  0  0  0  0  0  0  0
  -18.0360  -28.1880   22.9020 C   0  0  0  0  0  0  0  0  0  0  0  0
  -20.6020  -28.3670   23.1500 C   0  0  0  0  0  3  0  0  0  0  0  0
  -20.6580  -26.9470   22.5420 C   0  0  0  0  0  2  0  0  0  0  0  0
  -19.5390  -26.6760   21.5340 C   0  0  0  0  0  2  0  0  0  0  0  0
  -18.1690  -26.8470   22.1980 C   0  0  0  0  0  2  0  0  0  0  0  0
  -19.1810  -28.9080   23.3350 C   0  0  0  0  0  0  0  0  0  0  0  0
  -19.0060  -30.1650   23.9520 C   0  0  0  0  0  3  0  0  0  0  0  0
  -17.7180  -30.7000   24.1460 C   0  0  0  0  0  3  0  0  0  0  0  0
  -16.5890  -29.9760   23.7310 C   0  0  0  0  0  3  0  0  0  0  0  0
  -16.7480  -28.7230   23.1130 C   0  0  0  0  0  3  0  0  0  0  0  0
  -25.8850  -32.5130   23.8670 C   0  0  0  0  0  3  0  0  0  0  0  0
  -25.5700  -33.9060   24.2090 N   0  0  0  0  0  0  0  0  0  0  0  0
  -25.9050  -34.9670   23.4620 C   0  0  0  0  0  0  0  0  0  0  0  0
  -26.5840  -34.8750   22.4350 O   0  0  0  0  0  0  0  0  0  0  0  0
  -24.9690  -34.0540   25.0060 H   0  0  0  0  0  0  0  0  0  0  0  0
  -24.1730  -36.7560   23.1020 C   0  0  0  0  0  1  0  0  0  0  0  0
  -25.4050  -36.3480   23.9260 C   0  0  0  0  0  3  0  0  0  0  0  0
  -27.5260  -37.2340   24.7910 C   0  0  0  0  0  1  0  0  0  0  0  0
  -26.4330  -37.4060   23.8370 N   0  0  0  0  0  0  0  0  0  0  0  0
  -26.0220  -38.3230   23.9920 H   0  0  0  0  0  0  0  0  0  0  0  0
  -26.3970  -31.7280   25.1360 C   0  0  1  0  0  0  0  0  0  0  0  0
  -25.2960  -31.4680   26.1920 C   0  0  0  0  0  1  0  0  0  0  0  0
  -26.9960  -30.3630   24.7260 C   0  0  0  0  0  1  0  0  0  0  0  0
  -27.5370  -32.5210   25.8190 C   0  0  0  0  0  1  0  0  0  0  0  0
  1  3  2  0
  2  1  1  0
  2  8  1  0
  4  2  1  0
  5  6  2  0
  5  8  1  0
  6  9  1  0
  7 10  1  0
  8  7  2  0
  9 11  1  0
  9 10  2  0
 12 21  1  0
 13 18  1  0
 14 15  1  0
 14 13  1  0
 16 15  1  0
 16 25  1  0
 16 17  1  0
 18 12  1  0
 18 17  1  0
 19 12  2  0
 21 11  1  0
 21 20  1  0
 22 23  2  0
 23 42  1  0
 24 23  1  0
 24 27  1  0
 25 26  1  0
 25 22  1  0
 26 24  2  0
 27 28  1  0
 28 29  2  0
 30 33  1  0
 30 29  1  0
 31 30  2  0
 32 31  1  0
 32 27  2  0
 33 34  1  0
 34 39  2  0
 34 35  1  0
 35 36  2  0
 37 36  1  0
 37 41  1  0
 38 37  2  0
 39 38  1  0
 40 39  1  0
 42 43  1  0
 43 46  1  0
 43 45  1  0
 44 42  2  0
 47 48  1  0
 47 22  1  0
 49 47  1  0
 50 51  1  0
 50  1  1  0
 51 53  1  0
 53 52  1  0
 54 53  1  0
 55 66  2  0
 56 54  1  0
 56 61  1  0
 57 65  1  0
 57 67  1  0
 58 64  1  0
 58 60  1  0
 59 65  1  0
 60 61  2  0
 60 59  1  0
 62 56  2  0
 63 62  1  0
 63 58  2  0
 64 57  1  0
 65 55  1  0
 67 69  2  0
 68 67  1  0
 70 68  1  0
 71 80  2  0
 71 76  1  0
 72 68  1  0
 72 76  1  0
 73 72  1  0
 74 75  1  0
 74 73  1  0
 75 71  1  0
 76 77  2  0
 77 78  1  0
 79 78  2  0
 80 79  1  0
 81 55  1  0
 81 82  1  0
 81 91  1  0
 82 85  1  0
 83 87  1  0
 83 82  1  0
 84 83  2  0
 87 86  1  0
 89 87  1  0
 89 90  1  0
 89 88  1  0
 91 94  1  1
 91 92  1  0
 93 91  1  0
M  ISO  4  12 100  21 100  53 101  54 101
M  END
>  <TORSDO>  (54) 
F 21

>  <SCORE>  (54) 
-12.501

>  <name>  (54) 
53

>  <ligand_id>  (54) 
53

>  <original_smiles>  (54) 
[H]c1nc(C([H])([H])N(C(=O)N2C([H])([H])C([H])([H])C([H])([H])C([H])(n3nc(-c4c([H])c([H])c(Oc5c([H])c([H])c(F)c([H])c5F)c([H])c4[H])c(C(=O)N([H])[H])c3N([H])[H])C2([H])[H])C([H])([H])[H])c([H])c([H])c1N([H])C(=O)C([H])([H])C([H])([H])C([H])(Oc1c([H])c([H])c2c(c1[H])C([H])([H])N(C(=O)C([H])(N([H])C(=O)C([H])(N([H])C([H])([H])[H])C([H])([H])[H])C(C([H])([H])[H])(C([H])([H])[H])C([H])([H])[H])C([H])(C(=O)N([H])C1([H])c3c([H])c([H])c([H])c([H])c3C([H])([H])C([H])([H])C1([H])[H])C2([H])[H])C([H])([H])[H]

>  <smiles>  (54) 
[H]c1nc(C([H])([H])N(C(=O)N2C([H])([H])C([H])([H])C([H])([H])C([H])(n3nc(-c4c([H])c([H])c(Oc5c([H])c([H])c(F)c([H])c5F)c([H])c4[H])c(C(=O)N([H])[H])c3N([H])[H])C2([H])[H])C([H])([H])[H])c([H])c([H])c1N([H])C(=O)C([H])([H])C([H])([H])C([H])(Oc1c([H])c([H])c2c(c1[H])C([H])([H])N(C(=O)C([H])(N([H])C(=O)C([H])(N([H])C([H])([H])[H])C([H])([H])[H])C(C([H])([H])[H])(C([H])([H])[H])C([H])([H])[H])C([H])(C(=O)N([H])C1([H])c3c([H])c([H])c([H])c([H])c3C([H])([H])C([H])([H])C1([H])[H])C2([H])[H])C([H])([H])[H]

$$$$
54:0:0
     RDKit          3D

 96104  0  0  1  0  0  0  0  0999 V2000
  -31.1070  -20.5850   20.3570 C   0  0  0  0  0  3  0  0  0  0  0  0
  -30.8960  -14.6510   19.8970 C   0  0  0  0  0  0  0  0  0  0  0  0
  -30.5160  -12.5490   18.6230 C   0  0  0  0  0  2  0  0  0  0  0  0
  -29.4340  -12.8110   17.5520 C   0  0  0  0  0  2  0  0  0  0  0  0
  -28.0140  -12.6410   18.1350 C   0  0  0  0  0  2  0  0  0  0  0  0
  -27.8290  -13.3880   19.4820 C   0  0  0  0  0  3  0  0  0  0  0  0
  -29.0020  -13.0700   20.4380 C   0  0  0  0  0  2  0  0  0  0  0  0
  -30.2530  -13.4520   19.7550 N   0  0  0  0  0  0  0  0  0  0  0  0
  -31.9720  -14.8960   19.3380 O   0  0  0  0  0  0  0  0  0  0  0  0
  -30.6650  -19.2370   20.9720 C   0  0  0  0  0  0  0  0  0  0  0  0
  -30.2720  -19.0490   22.2840 C   0  0  0  0  0  0  0  0  0  0  0  0
  -30.3970  -16.9230   21.0120 C   0  0  0  0  0  0  0  0  0  0  0  0
  -30.7200  -17.9990   20.2520 N   0  0  0  0  0  0  0  0  0  0  0  0
  -30.1700  -15.5730   20.5770 N   0  0  0  0  0  0  0  0  0  0  0  0
  -29.9480  -17.3730   22.6490 S   0  0  0  0  0  0  0  0  0  0  0  0
  -29.3610  -15.1510   21.0010 H   0  0  0  0  0  0  0  0  0  0  0  0
  -25.5330  -13.9730   20.4860 C   0  0  0  0  0  0  0  0  0  0  0  0
  -24.5010  -13.1900   20.9290 C   0  0  0  0  0  0  0  0  0  0  0  0
  -24.9360  -11.8390   20.7700 C   0  0  0  0  0  0  0  0  0  0  0  0
  -26.5330  -13.0970   20.0910 N   0  0  0  0  0  0  0  0  0  0  0  0
  -26.1840  -11.8060   20.3180 N   0  0  0  0  0  0  0  0  0  0  0  0
  -24.2160  -10.5740   20.9660 C   0  0  0  0  0  0  0  0  0  0  0  0
  -24.6500   -9.6170   21.9100 C   0  0  0  0  0  3  0  0  0  0  0  0
  -23.9310   -8.4160   22.0940 C   0  0  0  0  0  3  0  0  0  0  0  0
  -22.7650   -8.1630   21.3330 C   0  0  0  0  0  0  0  0  0  0  0  0
  -22.3510   -9.1080   20.3780 C   0  0  0  0  0  3  0  0  0  0  0  0
  -23.0700  -10.3010   20.1920 C   0  0  0  0  0  3  0  0  0  0  0  0
  -22.0190   -7.0140   21.4260 O   0  0  0  0  0  0  0  0  0  0  0  0
  -21.8450   -6.3620   22.6210 C   0  0  0  0  0  0  0  0  0  0  0  0
  -21.2710   -7.0010   23.7420 C   0  0  0  0  0  3  0  0  0  0  0  0
  -21.0470   -6.2730   24.9290 C   0  0  0  0  0  3  0  0  0  0  0  0
  -21.3890   -4.9090   24.9940 C   0  0  0  0  0  0  0  0  0  0  0  0
  -21.9560   -4.2700   23.8770 C   0  0  0  0  0  3  0  0  0  0  0  0
  -22.1810   -4.9950   22.6930 C   0  0  0  0  0  0  0  0  0  0  0  0
  -22.7080   -4.3700   21.6130 F   0  0  0  0  0  0  0  0  0  0  0  0
  -21.1670   -4.2080   26.1300 F   0  0  0  0  0  0  0  0  0  0  0  0
  -23.1490  -13.6620   21.3820 C   0  0  0  0  0  0  0  0  0  0  0  0
  -22.5210  -12.9350   22.2990 N   0  0  0  0  0  0  0  0  0  0  0  0
  -22.6630  -14.7100   20.9570 O   0  0  0  0  0  0  0  0  0  0  0  0
  -22.9300  -12.0880   22.6650 H   0  0  0  0  0  0  0  0  0  0  0  0
  -21.6180  -13.2310   22.6420 H   0  0  0  0  0  0  0  0  0  0  0  0
  -25.6970  -15.3500   20.3680 N   0  0  0  0  0  0  0  0  0  0  0  0
  -24.9490  -15.9990   20.5850 H   0  0  0  0  0  0  0  0  0  0  0  0
  -26.4970  -15.7990   19.9390 H   0  0  0  0  0  0  0  0  0  0  0  0
  -30.1220  -19.9810   23.3080 N   0  0  0  0  0  0  0  0  0  0  0  0
  -30.2670  -20.9830   23.2250 H   0  0  0  0  0  0  0  0  0  0  0  0
  -29.7870  -19.7250   24.2330 H   0  0  0  0  0  0  0  0  0  0  0  0
  -32.1750  -20.2960   19.3900 N   0  0  0  0  0  4  0  0  0  0  0  0
  -31.8150  -19.6960   18.6700 H   0  0  0  0  0  0  0  0  0  0  0  0
  -32.9130  -19.8030   19.8580 H   0  0  0  0  0  0  0  0  0  0  0  0
  -32.5450  -21.1370   18.9900 H   0  0  0  0  0  0  0  0  0  0  0  0
  -29.9960  -21.4990   19.7010 C   0  0  0  0  0  2  0  0  0  0  0  0
  -29.2950  -22.6340   20.5460 C   0  0  0  0  0  2  0  0  0  0  0  0
  -29.6920  -24.1520   20.3270 C   0  0  0  0  0  2  0  0  0  0  0  0
  -28.4680  -25.1290   20.1900 C   0  0  0  0  0  2  0  0  0  0  0  0
  -28.6780  -26.5790   20.2550 O   0  0  0  0  0  0  0  0  0  0  0  0
  -24.7560  -31.7480   23.3540 C   0  0  0  0  0  0  0  0  0  0  0  0
  -27.5300  -27.3780   20.2090 C   0  0  0  0  0  0  0  0  0  0  0  0
  -23.6210  -30.4050   21.6210 C   0  0  0  0  0  3  0  0  0  0  0  0
  -25.1350  -28.9310   20.1900 C   0  0  0  0  0  0  0  0  0  0  0  0
  -26.1590  -30.7670   21.5320 C   0  0  0  0  0  2  0  0  0  0  0  0
  -26.2770  -29.4200   20.8370 C   0  0  0  0  0  0  0  0  0  0  0  0
  -27.4790  -28.6560   20.8350 C   0  0  0  0  0  3  0  0  0  0  0  0
  -26.3570  -26.9310   19.5500 C   0  0  0  0  0  3  0  0  0  0  0  0
  -25.1750  -27.6900   19.5410 C   0  0  0  0  0  3  0  0  0  0  0  0
  -23.8870  -29.7860   20.2240 C   0  0  0  0  0  2  0  0  0  0  0  0
  -24.8630  -30.9870   22.2280 N   0  0  0  0  0  0  0  0  0  0  0  0
  -23.6530  -31.9950   23.8610 O   0  0  0  0  0  0  0  0  0  0  0  0
  -22.9410  -29.3430   22.5170 C   0  0  0  0  0  0  0  0  0  0  0  0
  -21.6210  -29.1620   22.3380 N   0  0  0  0  0  0  0  0  0  0  0  0
  -23.5980  -28.6900   23.3300 O   0  0  0  0  0  0  0  0  0  0  0  0
  -21.1510  -29.7420   21.6580 H   0  0  0  0  0  0  0  0  0  0  0  0
  -18.2360  -27.9410   22.6900 C   0  0  0  0  0  0  0  0  0  0  0  0
  -20.7850  -28.1910   23.0440 C   0  0  0  0  0  3  0  0  0  0  0  0
  -20.9050  -26.7850   22.4100 C   0  0  0  0  0  2  0  0  0  0  0  0
  -19.8330  -26.5050   21.3520 C   0  0  0  0  0  2  0  0  0  0  0  0
  -18.4340  -26.6220   21.9630 C   0  0  0  0  0  2  0  0  0  0  0  0
  -19.3400  -28.6850   23.1840 C   0  0  0  0  0  0  0  0  0  0  0  0
  -19.1030  -29.9210   23.8240 C   0  0  0  0  0  3  0  0  0  0  0  0
  -17.7930  -30.4140   23.9750 C   0  0  0  0  0  3  0  0  0  0  0  0
  -16.7020  -29.6680   23.4970 C   0  0  0  0  0  3  0  0  0  0  0  0
  -16.9240  -28.4320   22.8610 C   0  0  0  0  0  3  0  0  0  0  0  0
  -26.0120  -32.3670   24.0420 C   0  0  0  0  0  3  0  0  0  0  0  0
  -25.6650  -33.7360   24.4480 N   0  0  0  0  0  0  0  0  0  0  0  0
  -25.9950  -34.8400   23.7660 C   0  0  0  0  0  0  0  0  0  0  0  0
  -26.6940  -34.8120   22.7490 O   0  0  0  0  0  0  0  0  0  0  0  0
  -25.0440  -33.8280   25.2390 H   0  0  0  0  0  0  0  0  0  0  0  0
  -24.2450  -36.6220   23.4670 C   0  0  0  0  0  1  0  0  0  0  0  0
  -25.4660  -36.1870   24.2930 C   0  0  0  0  0  3  0  0  0  0  0  0
  -27.5550  -37.0540   25.2510 C   0  0  0  0  0  1  0  0  0  0  0  0
  -26.4820  -37.2630   24.2820 N   0  0  0  0  0  0  0  0  0  0  0  0
  -26.0530  -38.1640   24.4720 H   0  0  0  0  0  0  0  0  0  0  0  0
  -26.5150  -31.5290   25.2810 C   0  0  1  0  0  0  0  0  0  0  0  0
  -25.4020  -31.1980   26.3030 C   0  0  0  0  0  1  0  0  0  0  0  0
  -27.1430  -30.1920   24.8200 C   0  0  0  0  0  1  0  0  0  0  0  0
  -27.6260  -32.3080   26.0230 C   0  0  0  0  0  1  0  0  0  0  0  0
  1 52  1  0
  1 10  1  0
  2 14  1  0
  3  8  1  0
  4  5  1  0
  4  3  1  0
  6  5  1  0
  6 20  1  0
  6  7  1  0
  8  2  1  0
  8  7  1  0
  9  2  2  0
 10 11  2  0
 11 15  1  0
 11 45  1  0
 12 15  1  0
 13 10  1  0
 13 12  2  0
 14 16  1  0
 14 12  1  0
 17 18  2  0
 18 37  1  0
 19 18  1  0
 19 22  1  0
 20 21  1  0
 20 17  1  0
 21 19  2  0
 22 23  1  0
 23 24  2  0
 25 28  1  0
 25 24  1  0
 26 25  2  0
 27 26  1  0
 27 22  2  0
 28 29  1  0
 29 34  2  0
 29 30  1  0
 30 31  2  0
 31 32  1  0
 32 36  1  0
 33 32  2  0
 34 33  1  0
 35 34  1  0
 37 38  1  0
 38 41  1  0
 38 40  1  0
 39 37  2  0
 42 17  1  0
 42 43  1  0
 44 42  1  0
 45 47  1  0
 46 45  1  0
 48 50  1  0
 48  1  1  0
 49 48  1  0
 51 48  1  0
 52 53  1  0
 54 53  1  0
 55 56  1  0
 55 54  1  0
 57 68  2  0
 58 56  1  0
 58 63  1  0
 59 67  1  0
 59 69  1  0
 60 66  1  0
 60 62  1  0
 61 67  1  0
 62 61  1  0
 63 62  2  0
 64 58  2  0
 65 64  1  0
 65 60  2  0
 66 59  1  0
 67 57  1  0
 69 71  2  0
 70 69  1  0
 72 70  1  0
 73 82  2  0
 73 78  1  0
 74 70  1  0
 74 78  1  0
 75 74  1  0
 76 77  1  0
 76 75  1  0
 77 73  1  0
 78 79  2  0
 79 80  1  0
 81 80  2  0
 82 81  1  0
 83 57  1  0
 83 84  1  0
 83 93  1  0
 84 87  1  0
 85 89  1  0
 85 84  1  0
 86 85  2  0
 89 88  1  0
 91 89  1  0
 91 92  1  0
 91 90  1  0
 93 96  1  1
 93 94  1  0
 95 93  1  0
M  ISO  4   2 100  14 100  55 101  56 101
M  END
>  <TORSDO>  (55) 
F 22

>  <SCORE>  (55) 
-10.743

>  <name>  (55) 
54

>  <ligand_id>  (55) 
54

>  <original_smiles>  (55) 
[H]c1c([H])c([H])c2c(c1[H])C([H])([H])C([H])([H])C([H])([H])C2([H])N([H])C(=O)C1([H])N(C(=O)C([H])(N([H])C(=O)C([H])(N([H])C([H])([H])[H])C([H])([H])[H])C(C([H])([H])[H])(C([H])([H])[H])C([H])([H])[H])C([H])([H])c2c([H])c(OC([H])([H])C([H])([H])C([H])([H])C([H])([H])C([H])(c3nc(N([H])C(=O)N4C([H])([H])C([H])([H])C([H])([H])C([H])(n5nc(-c6c([H])c([H])c(Oc7c([H])c([H])c(F)c([H])c7F)c([H])c6[H])c(C(=O)N([H])[H])c5N([H])[H])C4([H])[H])sc3N([H])[H])[N+]([H])([H])[H])c([H])c([H])c2C1([H])[H]

>  <smiles>  (55) 
[H]c1c([H])c([H])c2c(c1[H])C([H])([H])C([H])([H])C([H])([H])C2([H])N([H])C(=O)C1([H])N(C(=O)C([H])(N([H])C(=O)C([H])(N([H])C([H])([H])[H])C([H])([H])[H])C(C([H])([H])[H])(C([H])([H])[H])C([H])([H])[H])C([H])([H])c2c([H])c(OC([H])([H])C([H])([H])C([H])([H])C([H])([H])C([H])(c3nc(N([H])C(=O)N4C([H])([H])C([H])([H])C([H])([H])C([H])(n5nc(-c6c([H])c([H])c(Oc7c([H])c([H])c(F)c([H])c7F)c([H])c6[H])c(C(=O)N([H])[H])c5N([H])[H])C4([H])[H])sc3N([H])[H])[N+]([H])([H])[H])c([H])c([H])c2C1([H])[H]

$$$$
55:0:0
     RDKit          3D

 97105  0  0  1  0  0  0  0  0999 V2000
  -31.8470  -22.9310   20.9700 C   0  0  0  0  0  1  0  0  0  0  0  0
  -30.4020  -22.6300   20.5140 C   0  0  0  0  0  3  0  0  0  0  0  0
  -30.2090  -21.1640   20.3770 N   0  0  0  0  0  4  0  0  0  0  0  0
  -29.3910  -20.9900   19.8140 H   0  0  0  0  0  0  0  0  0  0  0  0
  -30.9980  -20.7780   19.8820 H   0  0  0  0  0  0  0  0  0  0  0  0
  -30.0220  -20.4340   21.6500 C   0  0  0  0  0  2  0  0  0  0  0  0
  -30.7010  -14.3630   20.1840 C   0  0  0  0  0  0  0  0  0  0  0  0
  -30.2900  -12.3040   18.8860 C   0  0  0  0  0  2  0  0  0  0  0  0
  -29.2630  -12.5850   17.7710 C   0  0  0  0  0  2  0  0  0  0  0  0
  -27.8200  -12.4320   18.2950 C   0  0  0  0  0  2  0  0  0  0  0  0
  -27.5830  -13.2080   19.6170 C   0  0  0  0  0  3  0  0  0  0  0  0
  -28.7040  -12.8900   20.6310 C   0  0  0  0  0  2  0  0  0  0  0  0
  -30.0010  -13.2120   20.0040 N   0  0  0  0  0  0  0  0  0  0  0  0
  -31.7140  -14.6460   19.5350 O   0  0  0  0  0  0  0  0  0  0  0  0
  -31.6130  -18.4150   21.7840 C   0  0  0  0  0  3  0  0  0  0  0  0
  -30.3840  -18.9850   21.5390 C   0  0  0  0  0  0  0  0  0  0  0  0
  -30.4400  -16.5510   21.2560 C   0  0  0  0  0  0  0  0  0  0  0  0
  -31.6370  -17.0250   21.6150 N   0  0  0  0  0  0  0  0  0  0  0  0
  -30.1800  -15.1770   21.1090 N   0  0  0  0  0  0  0  0  0  0  0  0
  -29.1910  -17.7800   21.1170 S   0  0  0  0  0  0  0  0  0  0  0  0
  -29.3170  -14.8480   21.5090 H   0  0  0  0  0  0  0  0  0  0  0  0
  -25.2390  -13.8100   20.5020 C   0  0  0  0  0  0  0  0  0  0  0  0
  -24.1880  -13.0330   20.9110 C   0  0  0  0  0  0  0  0  0  0  0  0
  -24.6330  -11.6800   20.8000 C   0  0  0  0  0  0  0  0  0  0  0  0
  -26.2580  -12.9300   20.1700 N   0  0  0  0  0  0  0  0  0  0  0  0
  -25.8990  -11.6420   20.4030 N   0  0  0  0  0  0  0  0  0  0  0  0
  -23.9090  -10.4150   20.9930 C   0  0  0  0  0  0  0  0  0  0  0  0
  -24.3570   -9.4430   21.9140 C   0  0  0  0  0  3  0  0  0  0  0  0
  -23.6340   -8.2440   22.0950 C   0  0  0  0  0  3  0  0  0  0  0  0
  -22.4500   -8.0090   21.3570 C   0  0  0  0  0  0  0  0  0  0  0  0
  -22.0220   -8.9730   20.4270 C   0  0  0  0  0  3  0  0  0  0  0  0
  -22.7450  -10.1620   20.2420 C   0  0  0  0  0  3  0  0  0  0  0  0
  -21.6970   -6.8620   21.4490 O   0  0  0  0  0  0  0  0  0  0  0  0
  -21.6260   -6.1400   22.6130 C   0  0  0  0  0  0  0  0  0  0  0  0
  -21.1700   -6.7150   23.8210 C   0  0  0  0  0  3  0  0  0  0  0  0
  -21.0450   -5.9180   24.9760 C   0  0  0  0  0  3  0  0  0  0  0  0
  -21.3670   -4.5480   24.9260 C   0  0  0  0  0  0  0  0  0  0  0  0
  -21.8150   -3.9730   23.7240 C   0  0  0  0  0  3  0  0  0  0  0  0
  -21.9420   -4.7670   22.5710 C   0  0  0  0  0  0  0  0  0  0  0  0
  -22.3540   -4.2040   21.4080 F   0  0  0  0  0  0  0  0  0  0  0  0
  -21.2410   -3.7800   26.0330 F   0  0  0  0  0  0  0  0  0  0  0  0
  -22.8160  -13.5090   21.2950 C   0  0  0  0  0  0  0  0  0  0  0  0
  -22.1420  -12.7840   22.1830 N   0  0  0  0  0  0  0  0  0  0  0  0
  -22.3520  -14.5540   20.8440 O   0  0  0  0  0  0  0  0  0  0  0  0
  -22.5280  -11.9360   22.5680 H   0  0  0  0  0  0  0  0  0  0  0  0
  -21.2240  -13.0820   22.4800 H   0  0  0  0  0  0  0  0  0  0  0  0
  -25.4110  -15.1850   20.3650 N   0  0  0  0  0  0  0  0  0  0  0  0
  -24.6660  -15.8470   20.5470 H   0  0  0  0  0  0  0  0  0  0  0  0
  -26.2540  -15.6200   20.0120 H   0  0  0  0  0  0  0  0  0  0  0  0
  -30.0750  -23.3490   19.1790 C   0  0  0  0  0  2  0  0  0  0  0  0
  -29.9490  -24.9000   19.2560 C   0  0  0  0  0  3  0  0  0  0  0  0
  -29.6740  -25.1160   16.6850 C   0  0  0  0  0  1  0  0  0  0  0  0
  -30.4210  -25.5990   17.9440 C   0  0  0  0  0  3  0  0  0  0  0  0
  -32.7790  -26.2540   18.7700 C   0  0  0  0  0  1  0  0  0  0  0  0
  -31.9460  -25.5330   17.7030 C   0  0  0  0  0  2  0  0  0  0  0  0
  -28.5180  -25.3510   19.6420 C   0  0  0  0  0  2  0  0  0  0  0  0
  -28.5000  -26.7520   19.9530 O   0  0  0  0  0  0  0  0  0  0  0  0
  -24.6830  -31.8330   23.1720 C   0  0  0  0  0  0  0  0  0  0  0  0
  -27.2960  -27.4340   19.9910 C   0  0  0  0  0  0  0  0  0  0  0  0
  -23.4610  -30.4590   21.5220 C   0  0  0  0  0  3  0  0  0  0  0  0
  -24.8980  -28.9440   20.0610 C   0  0  0  0  0  0  0  0  0  0  0  0
  -25.9860  -30.8160   21.3060 C   0  0  0  0  0  2  0  0  0  0  0  0
  -26.0630  -29.4560   20.6420 C   0  0  0  0  0  0  0  0  0  0  0  0
  -27.2640  -28.7110   20.6010 C   0  0  0  0  0  3  0  0  0  0  0  0
  -26.1000  -26.9320   19.4230 C   0  0  0  0  0  3  0  0  0  0  0  0
  -24.9120  -27.6820   19.4500 C   0  0  0  0  0  3  0  0  0  0  0  0
  -23.6540  -29.8000   20.1300 C   0  0  0  0  0  2  0  0  0  0  0  0
  -24.7290  -31.0480   22.0580 N   0  0  0  0  0  0  0  0  0  0  0  0
  -23.6050  -32.0960   23.7260 O   0  0  0  0  0  0  0  0  0  0  0  0
  -22.8190  -29.4200   22.4700 C   0  0  0  0  0  0  0  0  0  0  0  0
  -21.4920  -29.2450   22.3570 N   0  0  0  0  0  0  0  0  0  0  0  0
  -23.5120  -28.7730   23.2590 O   0  0  0  0  0  0  0  0  0  0  0  0
  -20.9940  -29.8150   21.6880 H   0  0  0  0  0  0  0  0  0  0  0  0
  -18.1170  -28.0700   22.8820 C   0  0  0  0  0  0  0  0  0  0  0  0
  -20.6800  -28.2980   23.1200 C   0  0  0  0  0  3  0  0  0  0  0  0
  -20.7620  -26.8790   22.5100 C   0  0  0  0  0  2  0  0  0  0  0  0
  -19.6420  -26.5890   21.5070 C   0  0  0  0  0  2  0  0  0  0  0  0
  -18.2710  -26.7340   22.1730 C   0  0  0  0  0  2  0  0  0  0  0  0
  -19.2480  -28.8110   23.3120 C   0  0  0  0  0  0  0  0  0  0  0  0
  -19.0510  -30.0670   23.9270 C   0  0  0  0  0  3  0  0  0  0  0  0
  -17.7540  -30.5760   24.1240 C   0  0  0  0  0  3  0  0  0  0  0  0
  -16.6360  -29.8270   23.7150 C   0  0  0  0  0  3  0  0  0  0  0  0
  -16.8190  -28.5790   23.0970 C   0  0  0  0  0  3  0  0  0  0  0  0
  -25.9750  -32.4530   23.7870 C   0  0  0  0  0  3  0  0  0  0  0  0
  -26.4990  -31.6660   25.0510 C   0  0  1  0  0  0  0  0  0  0  0  0
  -25.4150  -31.4290   26.1270 C   0  0  0  0  0  1  0  0  0  0  0  0
  -27.0680  -30.2870   24.6430 C   0  0  0  0  0  1  0  0  0  0  0  0
  -27.6590  -32.4500   25.7110 C   0  0  0  0  0  1  0  0  0  0  0  0
  -25.6760  -33.8500   24.1320 N   0  0  0  0  0  0  0  0  0  0  0  0
  -26.0140  -34.9070   23.3810 C   0  0  0  0  0  0  0  0  0  0  0  0
  -26.6850  -34.8100   22.3510 O   0  0  0  0  0  0  0  0  0  0  0  0
  -25.0880  -34.0000   24.9390 H   0  0  0  0  0  0  0  0  0  0  0  0
  -24.3070  -36.7170   23.0210 C   0  0  0  0  0  1  0  0  0  0  0  0
  -25.5300  -36.2930   23.8490 C   0  0  0  0  0  3  0  0  0  0  0  0
  -27.6590  -37.1490   24.7230 C   0  0  0  0  0  1  0  0  0  0  0  0
  -26.5720  -37.3380   23.7660 N   0  0  0  0  0  0  0  0  0  0  0  0
  -26.1730  -38.2610   23.9160 H   0  0  0  0  0  0  0  0  0  0  0  0
  2  1  1  0
  3  2  1  0
  3  6  1  0
  4  3  1  0
  5  3  1  0
  7 19  1  0
  8 13  1  0
  9 10  1  0
  9  8  1  0
 11 10  1  0
 11 25  1  0
 11 12  1  0
 13  7  1  0
 13 12  1  0
 14  7  2  0
 16  6  1  0
 16 15  2  0
 17 18  2  0
 18 15  1  0
 19 17  1  0
 19 21  1  0
 20 17  1  0
 20 16  1  0
 22 23  2  0
 23 42  1  0
 24 23  1  0
 24 27  1  0
 25 26  1  0
 25 22  1  0
 26 24  2  0
 27 28  1  0
 28 29  2  0
 30 33  1  0
 30 29  1  0
 31 30  2  0
 32 31  1  0
 32 27  2  0
 33 34  1  0
 34 35  1  0
 35 36  2  0
 37 36  1  0
 37 41  1  0
 38 37  2  0
 39 34  2  0
 39 38  1  0
 40 39  1  0
 42 43  1  0
 43 46  1  0
 43 45  1  0
 44 42  2  0
 47 22  1  0
 47 48  1  0
 49 47  1  0
 50  2  1  0
 51 50  1  0
 51 56  1  0
 53 52  1  0
 53 51  1  0
 55 53  1  0
 55 54  1  0
 56 57  1  0
 57 59  1  0
 58 69  2  0
 59 64  1  0
 60 68  1  0
 60 70  1  0
 61 67  1  0
 61 63  1  0
 62 68  1  0
 63 62  1  0
 64 63  2  0
 65 66  1  0
 65 59  2  0
 66 61  2  0
 67 60  1  0
 68 58  1  0
 70 72  2  0
 71 70  1  0
 73 71  1  0
 74 83  2  0
 74 79  1  0
 75 71  1  0
 75 79  1  0
 76 75  1  0
 77 78  1  0
 77 76  1  0
 78 74  1  0
 79 80  2  0
 80 81  1  0
 82 81  2  0
 83 82  1  0
 84 58  1  0
 84 89  1  0
 84 85  1  0
 85 88  1  1
 85 86  1  0
 87 85  1  0
 89 92  1  0
 90 94  1  0
 90 89  1  0
 91 90  2  0
 94 93  1  0
 96 94  1  0
 96 97  1  0
 96 95  1  0
M  ISO  4   7 100  19 100  56 101  57 101
M  END
>  <TORSDO>  (56) 
F 23

>  <SCORE>  (56) 
-12.000

>  <name>  (56) 
55

>  <ligand_id>  (56) 
55

>  <original_smiles>  (56) 
[H]c1nc(N([H])C(=O)N2C([H])([H])C([H])([H])C([H])([H])C([H])(n3nc(-c4c([H])c([H])c(Oc5c([H])c([H])c(F)c([H])c5F)c([H])c4[H])c(C(=O)N([H])[H])c3N([H])[H])C2([H])[H])sc1C([H])([H])[N+]([H])([H])C([H])(C([H])([H])[H])C([H])([H])C([H])(C([H])([H])Oc1c([H])c([H])c2c(c1[H])C([H])([H])N(C(=O)C([H])(N([H])C(=O)C([H])(N([H])C([H])([H])[H])C([H])([H])[H])C(C([H])([H])[H])(C([H])([H])[H])C([H])([H])[H])C([H])(C(=O)N([H])C1([H])c3c([H])c([H])c([H])c([H])c3C([H])([H])C([H])([H])C1([H])[H])C2([H])[H])C([H])(C([H])([H])[H])C([H])([H])C([H])([H])[H]

>  <smiles>  (56) 
[H]c1nc(N([H])C(=O)N2C([H])([H])C([H])([H])C([H])([H])C([H])(n3nc(-c4c([H])c([H])c(Oc5c([H])c([H])c(F)c([H])c5F)c([H])c4[H])c(C(=O)N([H])[H])c3N([H])[H])C2([H])[H])sc1C([H])([H])[N+]([H])([H])C([H])(C([H])([H])[H])C([H])([H])C([H])(C([H])([H])Oc1c([H])c([H])c2c(c1[H])C([H])([H])N(C(=O)C([H])(N([H])C(=O)C([H])(N([H])C([H])([H])[H])C([H])([H])[H])C(C([H])([H])[H])(C([H])([H])[H])C([H])([H])[H])C([H])(C(=O)N([H])C1([H])c3c([H])c([H])c([H])c([H])c3C([H])([H])C([H])([H])C1([H])[H])C2([H])[H])C([H])(C([H])([H])[H])C([H])([H])C([H])([H])[H]

$$$$
56:0:0
     RDKit          3D

 94102  0  0  1  0  0  0  0  0999 V2000
  -29.5650  -18.5320   20.0980 C   0  0  0  0  0  0  0  0  0  0  0  0
  -27.4930  -19.1330   19.5960 C   0  0  0  0  0  0  0  0  0  0  0  0
  -28.9570  -20.7720   19.9360 C   0  0  0  0  0  0  0  0  0  0  0  0
  -28.3330  -18.1340   19.8080 N   0  0  0  0  0  4  0  0  0  0  0  0
  -29.9340  -19.8530   20.1930 N   0  0  0  0  0  0  0  0  0  0  0  0
  -27.7090  -20.4460   19.6260 N   0  0  0  0  0  2  0  0  0  0  0  0
  -26.2320  -18.7310   19.2710 N   0  0  0  0  0  0  0  0  0  0  0  0
  -29.2450  -22.1840   20.0920 N   0  0  0  0  0  0  0  0  0  0  0  0
  -25.4860  -19.4080   19.3680 H   0  0  0  0  0  0  0  0  0  0  0  0
  -25.9780  -17.7800   19.5070 H   0  0  0  0  0  0  0  0  0  0  0  0
  -30.1980  -22.3090   20.4050 H   0  0  0  0  0  0  0  0  0  0  0  0
  -29.6310  -23.8280   18.2390 C   0  0  0  0  0  1  0  0  0  0  0  0
  -28.7000  -23.4560   19.4160 C   0  0  0  0  0  3  0  0  0  0  0  0
  -28.3450  -24.7910   20.3280 C   0  0  0  0  0  2  0  0  0  0  0  0
  -28.4630  -26.2640   19.9600 O   0  0  0  0  0  0  0  0  0  0  0  0
  -24.5760  -31.6310   23.1080 C   0  0  0  0  0  0  0  0  0  0  0  0
  -27.3480  -27.1390   19.9950 C   0  0  0  0  0  0  0  0  0  0  0  0
  -23.4580  -30.2570   21.3920 C   0  0  0  0  0  3  0  0  0  0  0  0
  -24.9780  -28.7660   19.9690 C   0  0  0  0  0  0  0  0  0  0  0  0
  -26.0040  -30.6020   21.3110 C   0  0  0  0  0  2  0  0  0  0  0  0
  -26.1260  -29.2390   20.6200 C   0  0  0  0  0  0  0  0  0  0  0  0
  -27.3190  -28.4380   20.6160 C   0  0  0  0  0  3  0  0  0  0  0  0
  -26.1760  -26.7350   19.3300 C   0  0  0  0  0  3  0  0  0  0  0  0
  -25.0080  -27.5230   19.3160 C   0  0  0  0  0  3  0  0  0  0  0  0
  -23.7330  -29.6330   19.9990 C   0  0  0  0  0  2  0  0  0  0  0  0
  -24.6970  -30.8480   21.9930 N   0  0  0  0  0  0  0  0  0  0  0  0
  -23.4690  -31.8720   23.6120 O   0  0  0  0  0  0  0  0  0  0  0  0
  -22.7790  -29.2020   22.2990 C   0  0  0  0  0  0  0  0  0  0  0  0
  -21.4500  -29.0420   22.1600 N   0  0  0  0  0  0  0  0  0  0  0  0
  -23.4460  -28.5340   23.0930 O   0  0  0  0  0  0  0  0  0  0  0  0
  -20.9640  -29.6310   21.4980 H   0  0  0  0  0  0  0  0  0  0  0  0
  -18.0570  -27.8810   22.6450 C   0  0  0  0  0  0  0  0  0  0  0  0
  -20.6240  -28.0700   22.8820 C   0  0  0  0  0  3  0  0  0  0  0  0
  -20.6870  -26.6800   22.2110 C   0  0  0  0  0  2  0  0  0  0  0  0
  -19.5620  -26.4490   21.1990 C   0  0  0  0  0  2  0  0  0  0  0  0
  -18.1960  -26.5770   21.8760 C   0  0  0  0  0  2  0  0  0  0  0  0
  -19.2010  -28.5880   23.1030 C   0  0  0  0  0  0  0  0  0  0  0  0
  -19.0220  -29.8120   23.7870 C   0  0  0  0  0  3  0  0  0  0  0  0
  -17.7300  -30.3270   24.0130 C   0  0  0  0  0  3  0  0  0  0  0  0
  -16.6030  -29.6160   23.5660 C   0  0  0  0  0  3  0  0  0  0  0  0
  -16.7650  -28.3910   22.8940 C   0  0  0  0  0  3  0  0  0  0  0  0
  -25.8220  -32.2740   23.7870 C   0  0  0  0  0  3  0  0  0  0  0  0
  -26.2940  -31.4960   25.0760 C   0  0  1  0  0  0  0  0  0  0  0  0
  -25.1600  -31.2360   26.0960 C   0  0  0  0  0  1  0  0  0  0  0  0
  -26.9070  -30.1250   24.6990 C   0  0  0  0  0  1  0  0  0  0  0  0
  -27.4070  -32.2960   25.7940 C   0  0  0  0  0  1  0  0  0  0  0  0
  -25.4770  -33.6620   24.1230 N   0  0  0  0  0  0  0  0  0  0  0  0
  -25.8350  -34.7340   23.4020 C   0  0  0  0  0  0  0  0  0  0  0  0
  -26.5580  -34.6580   22.4050 O   0  0  0  0  0  0  0  0  0  0  0  0
  -24.8410  -33.7960   24.8950 H   0  0  0  0  0  0  0  0  0  0  0  0
  -24.0980  -36.5140   23.0040 C   0  0  0  0  0  1  0  0  0  0  0  0
  -25.3080  -36.1100   23.8600 C   0  0  0  0  0  3  0  0  0  0  0  0
  -27.3880  -37.0160   24.8030 C   0  0  0  0  0  1  0  0  0  0  0  0
  -26.3300  -37.1800   23.8070 N   0  0  0  0  0  0  0  0  0  0  0  0
  -25.9030  -38.0920   23.9470 H   0  0  0  0  0  0  0  0  0  0  0  0
  -30.6050  -17.3450   20.3510 C   0  0  0  0  0  2  0  0  0  0  0  0
  -30.8510  -14.7180   20.3580 C   0  0  0  0  0  0  0  0  0  0  0  0
  -30.5930  -12.4280   19.3800 C   0  0  0  0  0  2  0  0  0  0  0  0
  -29.6780  -12.5040   18.1390 C   0  0  0  0  0  2  0  0  0  0  0  0
  -28.2090  -12.3270   18.5580 C   0  0  0  0  0  2  0  0  0  0  0  0
  -27.8270  -13.2540   19.7410 C   0  0  0  0  0  3  0  0  0  0  0  0
  -28.8670  -13.2020   20.8810 C   0  0  0  0  0  2  0  0  0  0  0  0
  -30.1800  -13.5120   20.3030 N   0  0  0  0  0  0  0  0  0  0  0  0
  -32.0420  -14.7640   20.0440 O   0  0  0  0  0  0  0  0  0  0  0  0
  -30.1390  -15.8970   20.5530 N   0  0  0  0  0  0  0  0  0  0  0  0
  -29.1620  -15.8250   20.7900 H   0  0  0  0  0  0  0  0  0  0  0  0
  -25.4490  -13.8890   20.4420 C   0  0  0  0  0  0  0  0  0  0  0  0
  -24.3660  -13.1370   20.8000 C   0  0  0  0  0  0  0  0  0  0  0  0
  -24.8080  -11.7790   20.7990 C   0  0  0  0  0  0  0  0  0  0  0  0
  -26.4790  -12.9920   20.2260 N   0  0  0  0  0  0  0  0  0  0  0  0
  -26.1020  -11.7170   20.5080 N   0  0  0  0  0  0  0  0  0  0  0  0
  -24.0580  -10.5280   20.9920 C   0  0  0  0  0  0  0  0  0  0  0  0
  -24.4620   -9.5640   21.9420 C   0  0  0  0  0  3  0  0  0  0  0  0
  -23.7140   -8.3810   22.1210 C   0  0  0  0  0  3  0  0  0  0  0  0
  -22.5480   -8.1510   21.3550 C   0  0  0  0  0  0  0  0  0  0  0  0
  -22.1650   -9.1020   20.3940 C   0  0  0  0  0  3  0  0  0  0  0  0
  -22.9130  -10.2780   20.2110 C   0  0  0  0  0  3  0  0  0  0  0  0
  -21.7750   -7.0190   21.4460 O   0  0  0  0  0  0  0  0  0  0  0  0
  -21.6950   -6.2940   22.6090 C   0  0  0  0  0  0  0  0  0  0  0  0
  -21.2440   -6.8710   23.8160 C   0  0  0  0  0  3  0  0  0  0  0  0
  -21.1090   -6.0730   24.9690 C   0  0  0  0  0  3  0  0  0  0  0  0
  -21.4130   -4.7010   24.9160 C   0  0  0  0  0  0  0  0  0  0  0  0
  -21.8630   -4.1240   23.7150 C   0  0  0  0  0  3  0  0  0  0  0  0
  -22.0000   -4.9190   22.5640 C   0  0  0  0  0  0  0  0  0  0  0  0
  -22.4090   -4.3560   21.4010 F   0  0  0  0  0  0  0  0  0  0  0  0
  -21.2740   -3.9290   26.0210 F   0  0  0  0  0  0  0  0  0  0  0  0
  -22.9730  -13.6380   21.0440 C   0  0  0  0  0  0  0  0  0  0  0  0
  -22.2260  -12.9760   21.9210 N   0  0  0  0  0  0  0  0  0  0  0  0
  -22.5550  -14.6530   20.4880 O   0  0  0  0  0  0  0  0  0  0  0  0
  -22.5770  -12.1520   22.3880 H   0  0  0  0  0  0  0  0  0  0  0  0
  -21.2940  -13.3030   22.1300 H   0  0  0  0  0  0  0  0  0  0  0  0
  -25.6480  -15.2520   20.2520 N   0  0  0  0  0  0  0  0  0  0  0  0
  -24.8980  -15.9310   20.2980 H   0  0  0  0  0  0  0  0  0  0  0  0
  -26.5280  -15.6580   19.9570 H   0  0  0  0  0  0  0  0  0  0  0  0
  1  5  1  0
  1 56  1  0
  2  6  1  0
  2  4  2  0
  3  8  1  0
  3  5  2  0
  4  1  2  0
  6  3  1  0
  7  9  1  0
  7 10  1  0
  7  2  1  0
  8 11  1  0
 13 12  1  0
 13  8  1  0
 13 14  1  0
 15 17  1  0
 15 14  1  0
 16 27  2  0
 17 22  1  0
 18 26  1  0
 18 28  1  0
 19 25  1  0
 19 21  1  0
 20 26  1  0
 21 20  1  0
 22 21  2  0
 23 17  2  0
 24 23  1  0
 24 19  2  0
 25 18  1  0
 26 16  1  0
 28 30  2  0
 29 28  1  0
 31 29  1  0
 32 41  2  0
 32 37  1  0
 33 29  1  0
 33 37  1  0
 34 33  1  0
 35 36  1  0
 35 34  1  0
 36 32  1  0
 37 38  2  0
 38 39  1  0
 40 39  2  0
 41 40  1  0
 42 16  1  0
 42 47  1  0
 42 43  1  0
 43 46  1  1
 43 44  1  0
 45 43  1  0
 47 50  1  0
 48 52  1  0
 48 47  1  0
 49 48  2  0
 52 51  1  0
 54 52  1  0
 54 55  1  0
 54 53  1  0
 56 65  1  0
 57 65  1  0
 58 63  1  0
 59 60  1  0
 59 58  1  0
 61 60  1  0
 61 70  1  0
 61 62  1  0
 63 57  1  0
 63 62  1  0
 64 57  2  0
 65 66  1  0
 67 68  2  0
 68 87  1  0
 69 68  1  0
 69 72  1  0
 70 67  1  0
 70 71  1  0
 71 69  2  0
 72 73  1  0
 73 74  2  0
 75 78  1  0
 75 74  1  0
 76 75  2  0
 77 76  1  0
 77 72  2  0
 78 79  1  0
 79 80  1  0
 80 81  2  0
 82 81  1  0
 82 86  1  0
 83 82  2  0
 84 79  2  0
 84 83  1  0
 85 84  1  0
 87 88  1  0
 88 91  1  0
 88 90  1  0
 89 87  2  0
 92 93  1  0
 92 67  1  0
 94 92  1  0
M  ISO  4  14 101  15 101  57 100  65 100
M  END
>  <TORSDO>  (57) 
F 19

>  <SCORE>  (57) 
-13.900

>  <name>  (57) 
56

>  <ligand_id>  (57) 
56

>  <original_smiles>  (57) 
[H]c1c([H])c([H])c2c(c1[H])C([H])([H])C([H])([H])C([H])([H])C2([H])N([H])C(=O)C1([H])N(C(=O)C([H])(N([H])C(=O)C([H])(N([H])C([H])([H])[H])C([H])([H])[H])C(C([H])([H])[H])(C([H])([H])[H])C([H])([H])[H])C([H])([H])c2c([H])c(OC([H])([H])C([H])(N([H])c3nc(N([H])[H])nc(C([H])([H])N([H])C(=O)N4C([H])([H])C([H])([H])C([H])([H])C([H])(n5nc(-c6c([H])c([H])c(Oc7c([H])c([H])c(F)c([H])c7F)c([H])c6[H])c(C(=O)N([H])[H])c5N([H])[H])C4([H])[H])n3)C([H])([H])[H])c([H])c([H])c2C1([H])[H]

>  <smiles>  (57) 
[H]c1c([H])c([H])c2c(c1[H])C([H])([H])C([H])([H])C([H])([H])C2([H])N([H])C(=O)C1([H])N(C(=O)C([H])(N([H])C(=O)C([H])(N([H])C([H])([H])[H])C([H])([H])[H])C(C([H])([H])[H])(C([H])([H])[H])C([H])([H])[H])C([H])([H])c2c([H])c(OC([H])([H])C([H])(N([H])c3nc(N([H])[H])nc(C([H])([H])N([H])C(=O)N4C([H])([H])C([H])([H])C([H])([H])C([H])(n5nc(-c6c([H])c([H])c(Oc7c([H])c([H])c(F)c([H])c7F)c([H])c6[H])c(C(=O)N([H])[H])c5N([H])[H])C4([H])[H])n3)C([H])([H])[H])c([H])c([H])c2C1([H])[H]

$$$$
57:0:0
     RDKit          3D

 94102  0  0  1  0  0  0  0  0999 V2000
  -27.2320  -19.5640   19.3040 C   0  0  0  0  0  3  0  0  0  0  0  0
  -28.0360  -18.4280   19.5590 C   0  0  0  0  0  0  0  0  0  0  0  0
  -29.2620  -18.6550   20.2330 C   0  0  0  0  0  0  0  0  0  0  0  0
  -28.7500  -21.0120   20.2040 C   0  0  0  0  0  0  0  0  0  0  0  0
  -27.5850  -20.8260   19.6190 N   0  0  0  0  0  0  0  0  0  0  0  0
  -29.5940  -19.9810   20.5200 N   0  0  0  0  0  0  0  0  0  0  0  0
  -29.1280  -22.3850   20.4120 N   0  0  0  0  0  0  0  0  0  0  0  0
  -30.0940  -22.4500   20.7110 H   0  0  0  0  0  0  0  0  0  0  0  0
  -27.6220  -17.1730   19.0900 N   0  0  0  0  0  0  0  0  0  0  0  0
  -26.9030  -17.2040   18.3690 H   0  0  0  0  0  0  0  0  0  0  0  0
  -28.3720  -16.5580   18.7920 H   0  0  0  0  0  0  0  0  0  0  0  0
  -26.9150  -23.4010   21.2410 C   0  0  0  0  0  1  0  0  0  0  0  0
  -28.3550  -23.6660   20.7730 C   0  0  0  0  0  3  0  0  0  0  0  0
  -28.4040  -24.9800   19.8100 C   0  0  0  0  0  2  0  0  0  0  0  0
  -28.3220  -26.3990   20.3330 O   0  0  0  0  0  0  0  0  0  0  0  0
  -24.5910  -31.9040   23.2470 C   0  0  0  0  0  0  0  0  0  0  0  0
  -27.1990  -27.2620   20.2400 C   0  0  0  0  0  0  0  0  0  0  0  0
  -23.3950  -30.4990   21.6080 C   0  0  0  0  0  3  0  0  0  0  0  0
  -24.8480  -28.9290   20.1980 C   0  0  0  0  0  0  0  0  0  0  0  0
  -25.9420  -30.7910   21.4470 C   0  0  0  0  0  2  0  0  0  0  0  0
  -26.0170  -29.4060   20.8010 C   0  0  0  0  0  0  0  0  0  0  0  0
  -27.1910  -28.5860   20.8080 C   0  0  0  0  0  3  0  0  0  0  0  0
  -26.0010  -26.8500   19.6170 C   0  0  0  0  0  3  0  0  0  0  0  0
  -24.8460  -27.6610   19.5940 C   0  0  0  0  0  3  0  0  0  0  0  0
  -23.6180  -29.8150   20.2330 C   0  0  0  0  0  2  0  0  0  0  0  0
  -24.6610  -31.0850   22.1560 N   0  0  0  0  0  0  0  0  0  0  0  0
  -23.5030  -32.1900   23.7720 O   0  0  0  0  0  0  0  0  0  0  0  0
  -22.7180  -29.4940   22.5710 C   0  0  0  0  0  0  0  0  0  0  0  0
  -21.3900  -29.3280   22.4440 N   0  0  0  0  0  0  0  0  0  0  0  0
  -23.3900  -28.8660   23.3940 O   0  0  0  0  0  0  0  0  0  0  0  0
  -20.9080  -29.8840   21.7520 H   0  0  0  0  0  0  0  0  0  0  0  0
  -17.9990  -28.1720   22.9570 C   0  0  0  0  0  0  0  0  0  0  0  0
  -20.5620  -28.4000   23.2170 C   0  0  0  0  0  3  0  0  0  0  0  0
  -20.6440  -26.9680   22.6390 C   0  0  0  0  0  2  0  0  0  0  0  0
  -19.5340  -26.6610   21.6290 C   0  0  0  0  0  2  0  0  0  0  0  0
  -18.1560  -26.8220   22.2770 C   0  0  0  0  0  2  0  0  0  0  0  0
  -19.1290  -28.9200   23.3840 C   0  0  0  0  0  0  0  0  0  0  0  0
  -18.9280  -30.1830   23.9810 C   0  0  0  0  0  3  0  0  0  0  0  0
  -17.6290  -30.7000   24.1540 C   0  0  0  0  0  3  0  0  0  0  0  0
  -16.5150  -29.9490   23.7420 C   0  0  0  0  0  3  0  0  0  0  0  0
  -16.7000  -28.6870   23.1500 C   0  0  0  0  0  3  0  0  0  0  0  0
  -25.8690  -32.5380   23.8750 C   0  0  0  0  0  3  0  0  0  0  0  0
  -26.3700  -31.7790   25.1660 C   0  0  1  0  0  0  0  0  0  0  0  0
  -25.2660  -31.5610   26.2270 C   0  0  0  0  0  1  0  0  0  0  0  0
  -26.9510  -30.3930   24.8000 C   0  0  0  0  0  1  0  0  0  0  0  0
  -27.5180  -32.5770   25.8280 C   0  0  0  0  0  1  0  0  0  0  0  0
  -25.5620  -33.9410   24.1900 N   0  0  0  0  0  0  0  0  0  0  0  0
  -25.9070  -34.9870   23.4270 C   0  0  0  0  0  0  0  0  0  0  0  0
  -26.5860  -34.8730   22.4040 O   0  0  0  0  0  0  0  0  0  0  0  0
  -24.9570  -34.1040   24.9830 H   0  0  0  0  0  0  0  0  0  0  0  0
  -24.1980  -36.7920   23.0400 C   0  0  0  0  0  1  0  0  0  0  0  0
  -25.4240  -36.3820   23.8720 C   0  0  0  0  0  3  0  0  0  0  0  0
  -27.5510  -37.2610   24.7300 C   0  0  0  0  0  1  0  0  0  0  0  0
  -26.4660  -37.4270   23.7660 N   0  0  0  0  0  0  0  0  0  0  0  0
  -26.0630  -38.3510   23.8990 H   0  0  0  0  0  0  0  0  0  0  0  0
  -30.2690  -17.4520   20.5870 C   0  0  0  0  0  2  0  0  0  0  0  0
  -30.6100  -14.8240   20.4080 C   0  0  0  0  0  0  0  0  0  0  0  0
  -30.4250  -12.5450   19.3820 C   0  0  0  0  0  2  0  0  0  0  0  0
  -29.4780  -12.6020   18.1630 C   0  0  0  0  0  2  0  0  0  0  0  0
  -28.0150  -12.3970   18.6040 C   0  0  0  0  0  2  0  0  0  0  0  0
  -27.6320  -13.2840   19.8210 C   0  0  0  0  0  3  0  0  0  0  0  0
  -28.7000  -13.2160   20.9330 C   0  0  0  0  0  2  0  0  0  0  0  0
  -29.9830  -13.5970   20.3300 N   0  0  0  0  0  0  0  0  0  0  0  0
  -31.8040  -14.9130   20.1090 O   0  0  0  0  0  0  0  0  0  0  0  0
  -29.8530  -15.9700   20.6130 N   0  0  0  0  0  0  0  0  0  0  0  0
  -28.8590  -15.8390   20.7480 H   0  0  0  0  0  0  0  0  0  0  0  0
  -25.2460  -13.8440   20.5740 C   0  0  0  0  0  0  0  0  0  0  0  0
  -24.1900  -13.0570   20.9460 C   0  0  0  0  0  0  0  0  0  0  0  0
  -24.6660  -11.7100   20.8980 C   0  0  0  0  0  0  0  0  0  0  0  0
  -26.2970  -12.9770   20.3200 N   0  0  0  0  0  0  0  0  0  0  0  0
  -25.9550  -11.6880   20.5820 N   0  0  0  0  0  0  0  0  0  0  0  0
  -23.9480  -10.4400   21.0760 C   0  0  0  0  0  0  0  0  0  0  0  0
  -24.3870   -9.4660   21.9990 C   0  0  0  0  0  3  0  0  0  0  0  0
  -23.6680   -8.2610   22.1650 C   0  0  0  0  0  3  0  0  0  0  0  0
  -22.4960   -8.0250   21.4070 C   0  0  0  0  0  0  0  0  0  0  0  0
  -22.0750   -8.9900   20.4750 C   0  0  0  0  0  3  0  0  0  0  0  0
  -22.7950  -10.1850   20.3080 C   0  0  0  0  0  3  0  0  0  0  0  0
  -21.7490   -6.8760   21.4830 O   0  0  0  0  0  0  0  0  0  0  0  0
  -21.6990   -6.1240   22.6280 C   0  0  0  0  0  0  0  0  0  0  0  0
  -21.2470   -6.6610   23.8540 C   0  0  0  0  0  3  0  0  0  0  0  0
  -21.1480   -5.8350   24.9910 C   0  0  0  0  0  3  0  0  0  0  0  0
  -21.4900   -4.4720   24.9030 C   0  0  0  0  0  0  0  0  0  0  0  0
  -21.9360   -3.9340   23.6840 C   0  0  0  0  0  3  0  0  0  0  0  0
  -22.0370   -4.7580   22.5480 C   0  0  0  0  0  0  0  0  0  0  0  0
  -22.4470   -4.2290   21.3700 F   0  0  0  0  0  0  0  0  0  0  0  0
  -21.3880   -3.6770   25.9940 F   0  0  0  0  0  0  0  0  0  0  0  0
  -22.7900  -13.5200   21.2250 C   0  0  0  0  0  0  0  0  0  0  0  0
  -22.0650  -12.8090   22.0820 N   0  0  0  0  0  0  0  0  0  0  0  0
  -22.3440  -14.5500   20.7200 O   0  0  0  0  0  0  0  0  0  0  0  0
  -22.4350  -11.9770   22.5180 H   0  0  0  0  0  0  0  0  0  0  0  0
  -21.1280  -13.1070   22.3100 H   0  0  0  0  0  0  0  0  0  0  0  0
  -25.3870  -15.2190   20.4050 N   0  0  0  0  0  0  0  0  0  0  0  0
  -24.5960  -15.8420   20.5270 H   0  0  0  0  0  0  0  0  0  0  0  0
  -26.2040  -15.7020   20.0320 H   0  0  0  0  0  0  0  0  0  0  0  0
  1  2  2  0
  1  5  1  0
  2  3  1  0
  3  6  2  0
  3 56  1  0
  4  7  1  0
  4  6  1  0
  5  4  2  0
  7  8  1  0
  7 13  1  0
  9  2  1  0
 10  9  1  0
 11  9  1  0
 13 12  1  0
 14 15  1  0
 14 13  1  0
 16 27  2  0
 17 15  1  0
 17 22  1  0
 18 26  1  0
 18 28  1  0
 19 25  1  0
 19 21  1  0
 20 26  1  0
 21 22  2  0
 21 20  1  0
 23 17  2  0
 24 23  1  0
 24 19  2  0
 25 18  1  0
 26 16  1  0
 28 30  2  0
 29 28  1  0
 31 29  1  0
 32 41  2  0
 32 37  1  0
 33 29  1  0
 33 37  1  0
 34 33  1  0
 35 36  1  0
 35 34  1  0
 36 32  1  0
 37 38  2  0
 38 39  1  0
 40 39  2  0
 41 40  1  0
 42 16  1  0
 42 47  1  0
 42 43  1  0
 43 46  1  1
 43 44  1  0
 45 43  1  0
 47 50  1  0
 48 52  1  0
 48 47  1  0
 49 48  2  0
 52 51  1  0
 54 52  1  0
 54 55  1  0
 54 53  1  0
 56 65  1  0
 57 65  1  0
 58 63  1  0
 59 60  1  0
 59 58  1  0
 61 60  1  0
 61 70  1  0
 61 62  1  0
 63 57  1  0
 63 62  1  0
 64 57  2  0
 65 66  1  0
 67 68  2  0
 68 87  1  0
 69 68  1  0
 69 72  1  0
 70 67  1  0
 70 71  1  0
 71 69  2  0
 72 73  1  0
 73 74  2  0
 75 78  1  0
 75 74  1  0
 76 75  2  0
 77 76  1  0
 77 72  2  0
 78 79  1  0
 79 80  1  0
 80 81  2  0
 82 81  1  0
 82 86  1  0
 83 82  2  0
 84 79  2  0
 84 83  1  0
 85 84  1  0
 87 88  1  0
 88 91  1  0
 88 90  1  0
 89 87  2  0
 92 93  1  0
 92 67  1  0
 94 92  1  0
M  ISO  4  14 101  15 101  57 100  65 100
M  END
>  <TORSDO>  (58) 
F 20

>  <SCORE>  (58) 
-14.189

>  <name>  (58) 
57

>  <ligand_id>  (58) 
57

>  <original_smiles>  (58) 
[H]c1nc(N([H])C([H])(C([H])([H])[H])C([H])([H])Oc2c([H])c([H])c3c(c2[H])C([H])([H])N(C(=O)C([H])(N([H])C(=O)C([H])(N([H])C([H])([H])[H])C([H])([H])[H])C(C([H])([H])[H])(C([H])([H])[H])C([H])([H])[H])C([H])(C(=O)N([H])C2([H])c4c([H])c([H])c([H])c([H])c4C([H])([H])C([H])([H])C2([H])[H])C3([H])[H])nc(C([H])([H])N([H])C(=O)N2C([H])([H])C([H])([H])C([H])([H])C([H])(n3nc(-c4c([H])c([H])c(Oc5c([H])c([H])c(F)c([H])c5F)c([H])c4[H])c(C(=O)N([H])[H])c3N([H])[H])C2([H])[H])c1N([H])[H]

>  <smiles>  (58) 
[H]c1nc(N([H])C([H])(C([H])([H])[H])C([H])([H])Oc2c([H])c([H])c3c(c2[H])C([H])([H])N(C(=O)C([H])(N([H])C(=O)C([H])(N([H])C([H])([H])[H])C([H])([H])[H])C(C([H])([H])[H])(C([H])([H])[H])C([H])([H])[H])C([H])(C(=O)N([H])C2([H])c4c([H])c([H])c([H])c([H])c4C([H])([H])C([H])([H])C2([H])[H])C3([H])[H])nc(C([H])([H])N([H])C(=O)N2C([H])([H])C([H])([H])C([H])([H])C([H])(n3nc(-c4c([H])c([H])c(Oc5c([H])c([H])c(F)c([H])c5F)c([H])c4[H])c(C(=O)N([H])[H])c3N([H])[H])C2([H])[H])c1N([H])[H]

$$$$
58:0:0
     RDKit          3D

 97105  0  0  1  0  0  0  0  0999 V2000
  -28.6250  -17.9790   19.8800 C   0  0  0  0  0  3  0  0  0  0  0  0
  -29.8510  -18.1710   20.5360 C   0  0  0  0  0  0  0  0  0  0  0  0
  -27.9100  -19.1260   19.5450 C   0  0  0  0  0  0  0  0  0  0  0  0
  -29.5280  -20.4590   20.4360 C   0  0  0  0  0  0  0  0  0  0  0  0
  -30.2940  -19.4310   20.8140 N   0  0  0  0  0  0  0  0  0  0  0  0
  -28.3620  -20.3570   19.8110 N   0  0  0  0  0  0  0  0  0  0  0  0
  -26.6870  -19.0380   18.8940 N   0  0  0  0  0  0  0  0  0  0  0  0
  -29.9890  -21.7460   20.7140 N   0  0  0  0  0  0  0  0  0  0  0  0
  -26.2430  -18.1460   18.7330 H   0  0  0  0  0  0  0  0  0  0  0  0
  -26.0760  -19.8420   18.8350 H   0  0  0  0  0  0  0  0  0  0  0  0
  -30.8210  -21.7470   21.2960 H   0  0  0  0  0  0  0  0  0  0  0  0
  -28.6220  -22.8390   22.4380 C   0  0  0  0  0  1  0  0  0  0  0  0
  -29.0580  -22.8700   20.9660 C   0  0  0  0  0  3  0  0  0  0  0  0
  -29.5950  -24.2900   20.5740 C   0  0  0  0  0  3  0  0  0  0  0  0
  -30.5220  -24.0280   19.5410 O   0  0  0  0  0  0  0  0  0  0  0  0
  -30.6760  -23.0850   19.6300 H   0  0  0  0  0  0  0  0  0  0  0  0
  -28.4370  -25.2300   20.0810 C   0  0  0  0  0  2  0  0  0  0  0  0
  -28.5840  -26.6640   20.2710 O   0  0  0  0  0  0  0  0  0  0  0  0
  -24.6830  -31.8550   23.2640 C   0  0  0  0  0  0  0  0  0  0  0  0
  -27.4180  -27.4260   20.2020 C   0  0  0  0  0  0  0  0  0  0  0  0
  -23.5230  -30.4650   21.5820 C   0  0  0  0  0  3  0  0  0  0  0  0
  -25.0180  -28.9530   20.1760 C   0  0  0  0  0  0  0  0  0  0  0  0
  -26.0560  -30.8340   21.4430 C   0  0  0  0  0  2  0  0  0  0  0  0
  -26.1660  -29.4680   20.7900 C   0  0  0  0  0  0  0  0  0  0  0  0
  -27.3700  -28.7150   20.7930 C   0  0  0  0  0  3  0  0  0  0  0  0
  -26.2440  -26.9420   19.5730 C   0  0  0  0  0  3  0  0  0  0  0  0
  -25.0530  -27.6900   19.5670 C   0  0  0  0  0  3  0  0  0  0  0  0
  -23.7690  -29.8060   20.2020 C   0  0  0  0  0  2  0  0  0  0  0  0
  -24.7710  -31.0670   22.1540 N   0  0  0  0  0  0  0  0  0  0  0  0
  -23.5870  -32.1150   23.7810 O   0  0  0  0  0  0  0  0  0  0  0  0
  -22.8540  -29.4290   22.5160 C   0  0  0  0  0  0  0  0  0  0  0  0
  -21.5270  -29.2660   22.3800 N   0  0  0  0  0  0  0  0  0  0  0  0
  -23.5260  -28.7800   23.3210 O   0  0  0  0  0  0  0  0  0  0  0  0
  -21.0470  -29.8400   21.7020 H   0  0  0  0  0  0  0  0  0  0  0  0
  -18.1300  -28.1290   22.8690 C   0  0  0  0  0  0  0  0  0  0  0  0
  -20.6950  -28.3200   23.1240 C   0  0  0  0  0  3  0  0  0  0  0  0
  -20.7610  -26.9070   22.4970 C   0  0  0  0  0  2  0  0  0  0  0  0
  -19.6420  -26.6460   21.4830 C   0  0  0  0  0  2  0  0  0  0  0  0
  -18.2690  -26.8000   22.1430 C   0  0  0  0  0  2  0  0  0  0  0  0
  -19.2680  -28.8490   23.3140 C   0  0  0  0  0  0  0  0  0  0  0  0
  -19.0840  -30.0950   23.9510 C   0  0  0  0  0  3  0  0  0  0  0  0
  -17.7920  -30.6200   24.1460 C   0  0  0  0  0  3  0  0  0  0  0  0
  -16.6670  -29.8960   23.7170 C   0  0  0  0  0  3  0  0  0  0  0  0
  -16.8380  -28.6510   23.0830 C   0  0  0  0  0  3  0  0  0  0  0  0
  -25.9500  -32.4850   23.9220 C   0  0  0  0  0  3  0  0  0  0  0  0
  -25.6340  -33.8850   24.2380 N   0  0  0  0  0  0  0  0  0  0  0  0
  -25.9540  -34.9290   23.4630 C   0  0  0  0  0  0  0  0  0  0  0  0
  -26.6170  -34.8180   22.4280 O   0  0  0  0  0  0  0  0  0  0  0  0
  -25.0470  -34.0470   25.0430 H   0  0  0  0  0  0  0  0  0  0  0  0
  -24.2040  -36.6980   23.1060 C   0  0  0  0  0  1  0  0  0  0  0  0
  -25.4600  -36.3190   23.9060 C   0  0  0  0  0  3  0  0  0  0  0  0
  -27.5910  -37.2450   24.7040 C   0  0  0  0  0  1  0  0  0  0  0  0
  -26.4820  -37.3790   23.7610 N   0  0  0  0  0  0  0  0  0  0  0  0
  -26.0660  -38.2990   23.8890 H   0  0  0  0  0  0  0  0  0  0  0  0
  -26.4290  -31.7150   25.2140 C   0  0  1  0  0  0  0  0  0  0  0  0
  -25.3040  -31.4830   26.2500 C   0  0  0  0  0  1  0  0  0  0  0  0
  -27.0250  -30.3390   24.8420 C   0  0  0  0  0  1  0  0  0  0  0  0
  -27.5600  -32.5120   25.9070 C   0  0  0  0  0  1  0  0  0  0  0  0
  -30.7490  -16.9780   20.9110 C   0  0  0  0  0  2  0  0  0  0  0  0
  -30.7420  -14.5590   20.2660 C   0  0  0  0  0  0  0  0  0  0  0  0
  -30.3370  -12.4290   19.0870 C   0  0  0  0  0  2  0  0  0  0  0  0
  -29.3680  -12.6720   17.9140 C   0  0  0  0  0  2  0  0  0  0  0  0
  -27.9100  -12.5320   18.3880 C   0  0  0  0  0  2  0  0  0  0  0  0
  -27.6180  -13.3340   19.6870 C   0  0  0  0  0  3  0  0  0  0  0  0
  -28.7140  -13.1230   20.7560 C   0  0  0  0  0  2  0  0  0  0  0  0
  -30.0130  -13.4130   20.1380 N   0  0  0  0  0  0  0  0  0  0  0  0
  -31.8650  -14.6760   19.7780 O   0  0  0  0  0  0  0  0  0  0  0  0
  -30.1350  -15.6310   20.8190 N   0  0  0  0  0  0  0  0  0  0  0  0
  -29.1970  -15.5320   21.1690 H   0  0  0  0  0  0  0  0  0  0  0  0
  -25.2510  -13.9280   20.5030 C   0  0  0  0  0  0  0  0  0  0  0  0
  -24.1940  -13.1500   20.8910 C   0  0  0  0  0  0  0  0  0  0  0  0
  -24.6460  -11.7970   20.8120 C   0  0  0  0  0  0  0  0  0  0  0  0
  -26.2840  -13.0480   20.2110 N   0  0  0  0  0  0  0  0  0  0  0  0
  -25.9270  -11.7610   20.4590 N   0  0  0  0  0  0  0  0  0  0  0  0
  -23.9200  -10.5340   21.0010 C   0  0  0  0  0  0  0  0  0  0  0  0
  -24.3560   -9.5650   21.9300 C   0  0  0  0  0  3  0  0  0  0  0  0
  -23.6320   -8.3670   22.1080 C   0  0  0  0  0  3  0  0  0  0  0  0
  -22.4570   -8.1310   21.3580 C   0  0  0  0  0  0  0  0  0  0  0  0
  -22.0370   -9.0910   20.4200 C   0  0  0  0  0  3  0  0  0  0  0  0
  -22.7620  -10.2800   20.2410 C   0  0  0  0  0  3  0  0  0  0  0  0
  -21.7000   -6.9870   21.4440 O   0  0  0  0  0  0  0  0  0  0  0  0
  -21.6200   -6.2640   22.6070 C   0  0  0  0  0  0  0  0  0  0  0  0
  -21.1130   -6.8250   23.8000 C   0  0  0  0  0  3  0  0  0  0  0  0
  -20.9820   -6.0260   24.9540 C   0  0  0  0  0  3  0  0  0  0  0  0
  -21.3460   -4.6670   24.9160 C   0  0  0  0  0  0  0  0  0  0  0  0
  -21.8450   -4.1060   23.7260 C   0  0  0  0  0  3  0  0  0  0  0  0
  -21.9780   -4.9020   22.5750 C   0  0  0  0  0  0  0  0  0  0  0  0
  -22.4390   -4.3500   21.4260 F   0  0  0  0  0  0  0  0  0  0  0  0
  -21.2120   -3.8970   26.0200 F   0  0  0  0  0  0  0  0  0  0  0  0
  -22.8080  -13.6300   21.2160 C   0  0  0  0  0  0  0  0  0  0  0  0
  -22.0990  -12.9160   22.0830 N   0  0  0  0  0  0  0  0  0  0  0  0
  -22.3620  -14.6740   20.7390 O   0  0  0  0  0  0  0  0  0  0  0  0
  -22.4720  -12.0760   22.5010 H   0  0  0  0  0  0  0  0  0  0  0  0
  -21.1680  -13.2190   22.3350 H   0  0  0  0  0  0  0  0  0  0  0  0
  -25.4150  -15.3020   20.3500 N   0  0  0  0  0  0  0  0  0  0  0  0
  -24.6510  -15.9500   20.5060 H   0  0  0  0  0  0  0  0  0  0  0  0
  -26.2640  -15.7550   20.0390 H   0  0  0  0  0  0  0  0  0  0  0  0
  1  2  2  0
  2  5  1  0
  2 59  1  0
  3  6  2  0
  3  1  1  0
  4  8  1  0
  4  5  2  0
  6  4  1  0
  7  3  1  0
  8 13  1  0
  8 11  1  0
  9  7  1  0
 10  7  1  0
 13 12  1  0
 14 17  1  0
 14 13  1  0
 15 16  1  0
 15 14  1  0
 17 18  1  0
 19 30  2  0
 20 18  1  0
 20 25  1  0
 21 29  1  0
 21 31  1  0
 22 28  1  0
 22 24  1  0
 23 29  1  0
 24 25  2  0
 24 23  1  0
 26 20  2  0
 27 26  1  0
 27 22  2  0
 28 21  1  0
 29 19  1  0
 31 33  2  0
 32 31  1  0
 34 32  1  0
 35 44  2  0
 35 40  1  0
 36 32  1  0
 36 40  1  0
 37 36  1  0
 38 39  1  0
 38 37  1  0
 39 35  1  0
 40 41  2  0
 41 42  1  0
 43 42  2  0
 44 43  1  0
 45 19  1  0
 45 46  1  0
 45 55  1  0
 46 49  1  0
 47 51  1  0
 47 46  1  0
 48 47  2  0
 51 50  1  0
 53 54  1  0
 53 51  1  0
 53 52  1  0
 55 58  1  1
 55 56  1  0
 57 55  1  0
 60 68  1  0
 61 66  1  0
 62 63  1  0
 62 61  1  0
 64 63  1  0
 64 73  1  0
 64 65  1  0
 66 60  1  0
 66 65  1  0
 67 60  2  0
 68 59  1  0
 68 69  1  0
 70 71  2  0
 71 90  1  0
 72 71  1  0
 72 75  1  0
 73 74  1  0
 73 70  1  0
 74 72  2  0
 75 76  1  0
 76 77  2  0
 78 81  1  0
 78 77  1  0
 79 78  2  0
 80 79  1  0
 80 75  2  0
 81 82  1  0
 82 83  1  0
 83 84  2  0
 85 84  1  0
 85 89  1  0
 86 85  2  0
 87 82  2  0
 87 86  1  0
 88 87  1  0
 90 91  1  0
 91 94  1  0
 91 93  1  0
 92 90  2  0
 95 70  1  0
 95 96  1  0
 97 95  1  0
M  ISO  4  17 101  18 101  60 100  68 100
M  END
>  <TORSDO>  (59) 
F 21

>  <SCORE>  (59) 
-13.887

>  <name>  (59) 
58

>  <ligand_id>  (59) 
58

>  <original_smiles>  (59) 
[H]OC([H])(C([H])([H])Oc1c([H])c([H])c2c(c1[H])C([H])([H])N(C(=O)C([H])(N([H])C(=O)C([H])(N([H])C([H])([H])[H])C([H])([H])[H])C(C([H])([H])[H])(C([H])([H])[H])C([H])([H])[H])C([H])(C(=O)N([H])C1([H])c3c([H])c([H])c([H])c([H])c3C([H])([H])C([H])([H])C1([H])[H])C2([H])[H])C([H])(N([H])c1nc(N([H])[H])c([H])c(C([H])([H])N([H])C(=O)N2C([H])([H])C([H])([H])C([H])([H])C([H])(n3nc(-c4c([H])c([H])c(Oc5c([H])c([H])c(F)c([H])c5F)c([H])c4[H])c(C(=O)N([H])[H])c3N([H])[H])C2([H])[H])n1)C([H])([H])[H]

>  <smiles>  (59) 
[H]OC([H])(C([H])([H])Oc1c([H])c([H])c2c(c1[H])C([H])([H])N(C(=O)C([H])(N([H])C(=O)C([H])(N([H])C([H])([H])[H])C([H])([H])[H])C(C([H])([H])[H])(C([H])([H])[H])C([H])([H])[H])C([H])(C(=O)N([H])C1([H])c3c([H])c([H])c([H])c([H])c3C([H])([H])C([H])([H])C1([H])[H])C2([H])[H])C([H])(N([H])c1nc(N([H])[H])c([H])c(C([H])([H])N([H])C(=O)N2C([H])([H])C([H])([H])C([H])([H])C([H])(n3nc(-c4c([H])c([H])c(Oc5c([H])c([H])c(F)c([H])c5F)c([H])c4[H])c(C(=O)N([H])[H])c3N([H])[H])C2([H])[H])n1)C([H])([H])[H]

$$$$
59:0:0
     RDKit          3D

 95103  0  0  1  0  0  0  0  0999 V2000
  -28.8620  -19.2100   21.5900 C   0  0  0  0  0  3  0  0  0  0  0  0
  -29.4930  -18.0380   21.1240 C   0  0  0  0  0  0  0  0  0  0  0  0
  -30.1030  -18.1320   19.8510 C   0  0  0  0  0  0  0  0  0  0  0  0
  -29.4650  -20.3520   19.7210 C   0  0  0  0  0  0  0  0  0  0  0  0
  -28.8630  -20.3610   20.8950 N   0  0  0  0  0  0  0  0  0  0  0  0
  -30.0670  -19.3040   19.1590 N   0  0  0  0  0  0  0  0  0  0  0  0
  -29.4670  -21.5460   19.0060 N   0  0  0  0  0  0  0  0  0  0  0  0
  -29.9640  -21.4760   18.1280 H   0  0  0  0  0  0  0  0  0  0  0  0
  -29.5360  -16.8910   21.9310 N   0  0  0  0  0  0  0  0  0  0  0  0
  -29.1630  -16.9620   22.8740 H   0  0  0  0  0  0  0  0  0  0  0  0
  -30.3840  -16.3260   21.8970 H   0  0  0  0  0  0  0  0  0  0  0  0
  -30.8850  -16.9680   19.2000 C   0  0  0  0  0  2  0  0  0  0  0  0
  -31.1690  -14.4890   19.2420 C   0  0  0  0  0  0  0  0  0  0  0  0
  -30.8060  -12.1750   18.4830 C   0  0  0  0  0  2  0  0  0  0  0  0
  -29.7290  -12.1960   17.3760 C   0  0  0  0  0  2  0  0  0  0  0  0
  -28.3190  -12.1090   17.9910 C   0  0  0  0  0  2  0  0  0  0  0  0
  -28.1030  -13.1040   19.1630 C   0  0  0  0  0  3  0  0  0  0  0  0
  -29.2870  -13.0710   20.1580 C   0  0  0  0  0  2  0  0  0  0  0  0
  -30.5230  -13.3000   19.3930 N   0  0  0  0  0  0  0  0  0  0  0  0
  -32.2490  -14.5860   18.6560 O   0  0  0  0  0  0  0  0  0  0  0  0
  -30.4850  -15.5970   19.5780 N   0  0  0  0  0  0  0  0  0  0  0  0
  -29.6160  -15.5200   20.0880 H   0  0  0  0  0  0  0  0  0  0  0  0
  -25.8760  -13.7930   20.2490 C   0  0  0  0  0  0  0  0  0  0  0  0
  -24.8300  -13.0590   20.7390 C   0  0  0  0  0  0  0  0  0  0  0  0
  -25.1990  -11.6880   20.5780 C   0  0  0  0  0  0  0  0  0  0  0  0
  -26.8220  -12.8730   19.8300 N   0  0  0  0  0  0  0  0  0  0  0  0
  -26.4260  -11.5980   20.0800 N   0  0  0  0  0  0  0  0  0  0  0  0
  -24.4320  -10.4580   20.8130 C   0  0  0  0  0  0  0  0  0  0  0  0
  -24.8190   -9.5240   21.7990 C   0  0  0  0  0  3  0  0  0  0  0  0
  -24.0530   -8.3590   22.0210 C   0  0  0  0  0  3  0  0  0  0  0  0
  -22.8850   -8.1210   21.2570 C   0  0  0  0  0  0  0  0  0  0  0  0
  -22.5180   -9.0430   20.2620 C   0  0  0  0  0  3  0  0  0  0  0  0
  -23.2850  -10.2000   20.0390 C   0  0  0  0  0  3  0  0  0  0  0  0
  -22.0950   -7.0040   21.3850 O   0  0  0  0  0  0  0  0  0  0  0  0
  -21.8250   -6.4480   22.6100 C   0  0  0  0  0  0  0  0  0  0  0  0
  -21.1680   -7.1750   23.6280 C   0  0  0  0  0  3  0  0  0  0  0  0
  -20.8490   -6.5460   24.8470 C   0  0  0  0  0  3  0  0  0  0  0  0
  -21.1730   -5.1900   25.0470 C   0  0  0  0  0  0  0  0  0  0  0  0
  -21.8190   -4.4640   24.0320 C   0  0  0  0  0  3  0  0  0  0  0  0
  -22.1410   -5.0910   22.8160 C   0  0  0  0  0  0  0  0  0  0  0  0
  -22.7460   -4.3790   21.8330 F   0  0  0  0  0  0  0  0  0  0  0  0
  -20.8580   -4.5840   26.2160 F   0  0  0  0  0  0  0  0  0  0  0  0
  -23.5180  -13.5960   21.2370 C   0  0  0  0  0  0  0  0  0  0  0  0
  -22.8960  -12.9120   22.1890 N   0  0  0  0  0  0  0  0  0  0  0  0
  -23.0630  -14.6580   20.8140 O   0  0  0  0  0  0  0  0  0  0  0  0
  -23.2800  -12.0540   22.5550 H   0  0  0  0  0  0  0  0  0  0  0  0
  -22.0190  -13.2520   22.5570 H   0  0  0  0  0  0  0  0  0  0  0  0
  -26.0900  -15.1620   20.1090 N   0  0  0  0  0  0  0  0  0  0  0  0
  -25.3780  -15.8410   20.3560 H   0  0  0  0  0  0  0  0  0  0  0  0
  -26.9140  -15.5840   19.7010 H   0  0  0  0  0  0  0  0  0  0  0  0
  -29.5150  -22.8820   19.6410 C   0  0  0  0  0  2  0  0  0  0  0  0
  -29.7290  -24.2410   17.4590 C   0  0  0  0  0  1  0  0  0  0  0  0
  -28.9650  -24.0830   18.7830 C   0  0  0  0  0  3  0  0  0  0  0  0
  -28.9700  -25.4230   19.6030 C   0  0  0  0  0  2  0  0  0  0  0  0
  -28.7670  -26.6680   18.8830 O   0  0  0  0  0  0  0  0  0  0  0  0
  -24.7180  -31.0780   22.8240 C   0  0  0  0  0  0  0  0  0  0  0  0
  -27.5530  -27.3080   19.0620 C   0  0  0  0  0  0  0  0  0  0  0  0
  -23.5460  -29.7800   21.0760 C   0  0  0  0  0  3  0  0  0  0  0  0
  -25.0430  -28.5830   19.3870 C   0  0  0  0  0  0  0  0  0  0  0  0
  -26.0130  -30.4050   20.7960 C   0  0  0  0  0  2  0  0  0  0  0  0
  -26.1850  -29.1340   19.9820 C   0  0  0  0  0  0  0  0  0  0  0  0
  -27.4450  -28.5070   19.8130 C   0  0  0  0  0  3  0  0  0  0  0  0
  -26.3940  -26.7810   18.4590 C   0  0  0  0  0  3  0  0  0  0  0  0
  -25.1430  -27.4100   18.6180 C   0  0  0  0  0  3  0  0  0  0  0  0
  -23.7290  -29.3000   19.6090 C   0  0  0  0  0  2  0  0  0  0  0  0
  -24.7800  -30.4310   21.6240 N   0  0  0  0  0  0  0  0  0  0  0  0
  -23.6520  -31.1690   23.4490 O   0  0  0  0  0  0  0  0  0  0  0  0
  -23.0520  -28.5890   21.9280 C   0  0  0  0  0  0  0  0  0  0  0  0
  -21.7670  -28.2290   21.7730 N   0  0  0  0  0  0  0  0  0  0  0  0
  -23.8250  -27.9910   22.6820 O   0  0  0  0  0  0  0  0  0  0  0  0
  -21.1990  -28.7650   21.1320 H   0  0  0  0  0  0  0  0  0  0  0  0
  -18.6300  -26.4580   22.0530 C   0  0  0  0  0  0  0  0  0  0  0  0
  -21.1000  -27.1100   22.4400 C   0  0  0  0  0  3  0  0  0  0  0  0
  -21.4560  -25.7680   21.7590 C   0  0  0  0  0  2  0  0  0  0  0  0
  -20.4500  -25.3520   20.6810 C   0  0  0  0  0  2  0  0  0  0  0  0
  -19.0480  -25.2160   21.2820 C   0  0  0  0  0  2  0  0  0  0  0  0
  -19.5950  -27.3570   22.5830 C   0  0  0  0  0  0  0  0  0  0  0  0
  -19.1540  -28.5140   23.2590 C   0  0  0  0  0  3  0  0  0  0  0  0
  -17.7800  -28.7820   23.4110 C   0  0  0  0  0  3  0  0  0  0  0  0
  -16.8290  -27.8810   22.9000 C   0  0  0  0  0  3  0  0  0  0  0  0
  -17.2560  -26.7210   22.2260 C   0  0  0  0  0  3  0  0  0  0  0  0
  -25.9760  -31.7530   23.4540 C   0  0  0  0  0  3  0  0  0  0  0  0
  -25.5640  -33.0630   23.9730 N   0  0  0  0  0  0  0  0  0  0  0  0
  -25.7690  -34.2290   23.3460 C   0  0  0  0  0  0  0  0  0  0  0  0
  -26.3990  -34.3170   22.2870 O   0  0  0  0  0  0  0  0  0  0  0  0
  -24.9960  -33.0620   24.8080 H   0  0  0  0  0  0  0  0  0  0  0  0
  -23.8810  -35.8870   23.2810 C   0  0  0  0  0  1  0  0  0  0  0  0
  -25.1850  -35.4980   23.9930 C   0  0  0  0  0  3  0  0  0  0  0  0
  -27.2640  -36.4660   24.8740 C   0  0  0  0  0  1  0  0  0  0  0  0
  -26.1190  -36.6460   23.9850 N   0  0  0  0  0  0  0  0  0  0  0  0
  -25.6410  -37.5010   24.2550 H   0  0  0  0  0  0  0  0  0  0  0  0
  -26.6400  -30.8870   24.5940 C   0  0  1  0  0  0  0  0  0  0  0  0
  -25.6400  -30.4140   25.6760 C   0  0  0  0  0  1  0  0  0  0  0  0
  -27.3190  -29.6320   24.0010 C   0  0  0  0  0  1  0  0  0  0  0  0
  -27.7510  -31.7030   25.2950 C   0  0  0  0  0  1  0  0  0  0  0  0
  2  1  2  0
  2  9  1  0
  3  2  1  0
  4  5  2  0
  5  1  1  0
  6  4  1  0
  6  3  2  0
  7 51  1  0
  7  4  1  0
  8  7  1  0
  9 10  1  0
 11  9  1  0
 12 21  1  0
 12  3  1  0
 13 19  1  0
 13 21  1  0
 14 19  1  0
 15 16  1  0
 15 14  1  0
 17 16  1  0
 17 26  1  0
 17 18  1  0
 19 18  1  0
 20 13  2  0
 21 22  1  0
 23 24  2  0
 24 43  1  0
 25 24  1  0
 25 28  1  0
 26 27  1  0
 26 23  1  0
 27 25  2  0
 28 29  1  0
 29 30  2  0
 31 34  1  0
 31 30  1  0
 32 31  2  0
 33 32  1  0
 33 28  2  0
 34 35  1  0
 35 40  2  0
 35 36  1  0
 36 37  2  0
 37 38  1  0
 38 42  1  0
 39 38  2  0
 40 39  1  0
 41 40  1  0
 43 44  1  0
 44 46  1  0
 44 47  1  0
 45 43  2  0
 48 23  1  0
 48 49  1  0
 50 48  1  0
 53 52  1  0
 53 54  1  0
 53 51  1  0
 55 57  1  0
 55 54  1  0
 56 67  2  0
 57 62  1  0
 58 66  1  0
 58 68  1  0
 59 65  1  0
 59 61  1  0
 60 66  1  0
 61 60  1  0
 62 61  2  0
 63 64  1  0
 63 57  2  0
 64 59  2  0
 65 58  1  0
 66 56  1  0
 68 70  2  0
 69 68  1  0
 71 69  1  0
 72 81  2  0
 72 77  1  0
 73 69  1  0
 73 77  1  0
 74 73  1  0
 75 76  1  0
 75 74  1  0
 76 72  1  0
 77 78  2  0
 78 79  1  0
 80 79  2  0
 81 80  1  0
 82 56  1  0
 82 83  1  0
 82 92  1  0
 83 86  1  0
 84 83  1  0
 84 88  1  0
 85 84  2  0
 88 87  1  0
 90 88  1  0
 90 91  1  0
 90 89  1  0
 92 95  1  1
 92 93  1  0
 94 92  1  0
M  ISO  4  13 100  21 100  54 101  55 101
M  END
>  <TORSDO>  (60) 
F 21

>  <SCORE>  (60) 
-8.989

>  <name>  (60) 
59

>  <ligand_id>  (60) 
59

>  <original_smiles>  (60) 
[H]c1nc(N([H])C([H])([H])C([H])(C([H])([H])[H])C([H])([H])Oc2c([H])c([H])c3c(c2[H])C([H])([H])N(C(=O)C([H])(N([H])C(=O)C([H])(N([H])C([H])([H])[H])C([H])([H])[H])C(C([H])([H])[H])(C([H])([H])[H])C([H])([H])[H])C([H])(C(=O)N([H])C2([H])c4c([H])c([H])c([H])c([H])c4C([H])([H])C([H])([H])C2([H])[H])C3([H])[H])nc(C([H])([H])N([H])C(=O)N2C([H])([H])C([H])([H])C([H])([H])C([H])(n3nc(-c4c([H])c([H])c(Oc5c([H])c([H])c(F)c([H])c5F)c([H])c4[H])c(C(=O)N([H])[H])c3N([H])[H])C2([H])[H])c1N([H])[H]

>  <smiles>  (60) 
[H]c1nc(N([H])C([H])([H])C([H])(C([H])([H])[H])C([H])([H])Oc2c([H])c([H])c3c(c2[H])C([H])([H])N(C(=O)C([H])(N([H])C(=O)C([H])(N([H])C([H])([H])[H])C([H])([H])[H])C(C([H])([H])[H])(C([H])([H])[H])C([H])([H])[H])C([H])(C(=O)N([H])C2([H])c4c([H])c([H])c([H])c([H])c4C([H])([H])C([H])([H])C2([H])[H])C3([H])[H])nc(C([H])([H])N([H])C(=O)N2C([H])([H])C([H])([H])C([H])([H])C([H])(n3nc(-c4c([H])c([H])c(Oc5c([H])c([H])c(F)c([H])c5F)c([H])c4[H])c(C(=O)N([H])[H])c3N([H])[H])C2([H])[H])c1N([H])[H]

$$$$
60:0:0
     RDKit          3D

 94102  0  0  1  0  0  0  0  0999 V2000
  -29.2310  -23.8410   20.0100 C   0  0  0  0  0  0  0  0  0  0  0  0
  -28.8630  -22.4950   20.0280 N   0  0  0  0  0  0  0  0  0  0  0  0
  -30.3760  -24.1840   20.3170 O   0  0  0  0  0  0  0  0  0  0  0  0
  -27.8630  -22.3490   20.0540 H   0  0  0  0  0  0  0  0  0  0  0  0
  -30.4850  -21.2610   18.5970 C   0  0  0  0  0  3  0  0  0  0  0  0
  -31.1360  -20.0830   18.1840 C   0  0  0  0  0  3  0  0  0  0  0  0
  -29.5400  -19.9620   20.3880 C   0  0  0  0  0  0  0  0  0  0  0  0
  -29.6410  -21.2600   19.7240 C   0  0  0  0  0  0  0  0  0  0  0  0
  -30.2770  -18.7880   19.9190 C   0  0  0  0  0  0  0  0  0  0  0  0
  -28.6670  -19.8310   21.6270 C   0  0  0  0  0  1  0  0  0  0  0  0
  -31.0410  -18.8900   18.8140 N   0  0  0  0  0  0  0  0  0  0  0  0
  -30.4950  -17.4090   20.7020 C   0  0  0  0  0  2  0  0  0  0  0  0
  -30.9020  -14.8910   19.9600 C   0  0  0  0  0  0  0  0  0  0  0  0
  -30.6440  -12.6200   18.9370 C   0  0  0  0  0  2  0  0  0  0  0  0
  -29.6410  -12.6690   17.7630 C   0  0  0  0  0  2  0  0  0  0  0  0
  -28.1950  -12.5060   18.2710 C   0  0  0  0  0  2  0  0  0  0  0  0
  -27.8800  -13.4130   19.4900 C   0  0  0  0  0  3  0  0  0  0  0  0
  -28.9920  -13.3300   20.5560 C   0  0  0  0  0  2  0  0  0  0  0  0
  -30.2550  -13.6780   19.8930 N   0  0  0  0  0  0  0  0  0  0  0  0
  -32.0940  -14.9750   19.6600 O   0  0  0  0  0  0  0  0  0  0  0  0
  -30.1300  -16.0180   20.1830 N   0  0  0  0  0  0  0  0  0  0  0  0
  -29.1430  -15.8270   20.2150 H   0  0  0  0  0  0  0  0  0  0  0  0
  -25.5430  -14.0360   20.3530 C   0  0  0  0  0  0  0  0  0  0  0  0
  -24.4830  -13.2740   20.7620 C   0  0  0  0  0  0  0  0  0  0  0  0
  -24.9200  -11.9160   20.6860 C   0  0  0  0  0  0  0  0  0  0  0  0
  -26.5580  -13.1440   20.0480 N   0  0  0  0  0  0  0  0  0  0  0  0
  -26.1930  -11.8620   20.3120 N   0  0  0  0  0  0  0  0  0  0  0  0
  -24.1810  -10.6630   20.8870 C   0  0  0  0  0  0  0  0  0  0  0  0
  -24.5910   -9.7080   21.8450 C   0  0  0  0  0  3  0  0  0  0  0  0
  -23.8500   -8.5220   22.0340 C   0  0  0  0  0  3  0  0  0  0  0  0
  -22.6880   -8.2800   21.2630 C   0  0  0  0  0  0  0  0  0  0  0  0
  -22.2980   -9.2220   20.2950 C   0  0  0  0  0  3  0  0  0  0  0  0
  -23.0400  -10.4010   20.1040 C   0  0  0  0  0  3  0  0  0  0  0  0
  -21.9220   -7.1420   21.3600 O   0  0  0  0  0  0  0  0  0  0  0  0
  -21.7830   -6.4670   22.5460 C   0  0  0  0  0  0  0  0  0  0  0  0
  -21.2450   -7.0820   23.6970 C   0  0  0  0  0  3  0  0  0  0  0  0
  -21.0560   -6.3300   24.8730 C   0  0  0  0  0  3  0  0  0  0  0  0
  -21.3960   -4.9650   24.9000 C   0  0  0  0  0  0  0  0  0  0  0  0
  -21.9290   -4.3500   23.7540 C   0  0  0  0  0  3  0  0  0  0  0  0
  -22.1200   -5.0970   22.5800 C   0  0  0  0  0  0  0  0  0  0  0  0
  -22.6140   -4.4940   21.4710 F   0  0  0  0  0  0  0  0  0  0  0  0
  -21.2070   -4.2420   26.0280 F   0  0  0  0  0  0  0  0  0  0  0  0
  -23.1080  -13.7710   21.1030 C   0  0  0  0  0  0  0  0  0  0  0  0
  -22.4110  -13.0800   21.9980 N   0  0  0  0  0  0  0  0  0  0  0  0
  -22.6620  -14.8070   20.6110 O   0  0  0  0  0  0  0  0  0  0  0  0
  -22.7860  -12.2430   22.4190 H   0  0  0  0  0  0  0  0  0  0  0  0
  -21.4890  -13.3940   22.2670 H   0  0  0  0  0  0  0  0  0  0  0  0
  -25.7180  -15.4080   20.1910 N   0  0  0  0  0  0  0  0  0  0  0  0
  -24.9580  -16.0610   20.3470 H   0  0  0  0  0  0  0  0  0  0  0  0
  -26.5370  -15.8440   19.7880 H   0  0  0  0  0  0  0  0  0  0  0  0
  -28.1880  -24.9950   19.5700 C   0  0  0  0  0  3  0  0  0  0  0  0
  -27.6650  -24.0980   17.1660 C   0  0  0  0  0  1  0  0  0  0  0  0
  -28.3420  -25.1770   18.0310 C   0  0  0  0  0  2  0  0  0  0  0  0
  -28.3180  -26.3900   20.1620 O   0  0  0  0  0  0  0  0  0  0  0  0
  -24.5420  -31.8810   23.1730 C   0  0  0  0  0  0  0  0  0  0  0  0
  -27.2160  -27.2970   20.1070 C   0  0  0  0  0  0  0  0  0  0  0  0
  -23.3740  -30.4900   21.5070 C   0  0  0  0  0  3  0  0  0  0  0  0
  -24.8540  -28.9570   20.0890 C   0  0  0  0  0  0  0  0  0  0  0  0
  -25.9250  -30.8000   21.3750 C   0  0  0  0  0  2  0  0  0  0  0  0
  -26.0180  -29.4230   20.7110 C   0  0  0  0  0  0  0  0  0  0  0  0
  -27.2000  -28.6060   20.7120 C   0  0  0  0  0  3  0  0  0  0  0  0
  -26.0130  -26.9130   19.4660 C   0  0  0  0  0  3  0  0  0  0  0  0
  -24.8560  -27.7100   19.4570 C   0  0  0  0  0  3  0  0  0  0  0  0
  -23.6160  -29.8320   20.1260 C   0  0  0  0  0  2  0  0  0  0  0  0
  -24.6330  -31.0770   22.0730 N   0  0  0  0  0  0  0  0  0  0  0  0
  -23.4470  -32.1500   23.6890 O   0  0  0  0  0  0  0  0  0  0  0  0
  -22.6990  -29.4600   22.4480 C   0  0  0  0  0  0  0  0  0  0  0  0
  -21.3760  -29.2780   22.3000 N   0  0  0  0  0  0  0  0  0  0  0  0
  -23.3670  -28.8330   23.2740 O   0  0  0  0  0  0  0  0  0  0  0  0
  -20.8950  -29.8390   21.6110 H   0  0  0  0  0  0  0  0  0  0  0  0
  -17.9960  -28.0540   22.7420 C   0  0  0  0  0  0  0  0  0  0  0  0
  -20.5480  -28.3300   23.0510 C   0  0  0  0  0  3  0  0  0  0  0  0
  -20.6680  -26.9040   22.4670 C   0  0  0  0  0  2  0  0  0  0  0  0
  -19.5830  -26.5790   21.4350 C   0  0  0  0  0  2  0  0  0  0  0  0
  -18.1900  -26.7110   22.0590 C   0  0  0  0  0  2  0  0  0  0  0  0
  -19.1030  -28.8220   23.1920 C   0  0  0  0  0  0  0  0  0  0  0  0
  -18.8650  -30.0780   23.7910 C   0  0  0  0  0  3  0  0  0  0  0  0
  -17.5550  -30.5690   23.9410 C   0  0  0  0  0  3  0  0  0  0  0  0
  -16.4630  -29.8000   23.5050 C   0  0  0  0  0  3  0  0  0  0  0  0
  -16.6840  -28.5440   22.9130 C   0  0  0  0  0  3  0  0  0  0  0  0
  -25.8090  -32.5210   23.8190 C   0  0  0  0  0  3  0  0  0  0  0  0
  -26.3080  -31.7430   25.0990 C   0  0  1  0  0  0  0  0  0  0  0  0
  -25.1960  -31.4850   26.1450 C   0  0  0  0  0  1  0  0  0  0  0  0
  -26.9140  -30.3740   24.7090 C   0  0  0  0  0  1  0  0  0  0  0  0
  -27.4380  -32.5430   25.7880 C   0  0  0  0  0  1  0  0  0  0  0  0
  -25.4790  -33.9130   24.1600 N   0  0  0  0  0  0  0  0  0  0  0  0
  -25.8100  -34.9790   23.4170 C   0  0  0  0  0  0  0  0  0  0  0  0
  -26.4910  -34.8920   22.3930 O   0  0  0  0  0  0  0  0  0  0  0  0
  -24.8770  -34.0500   24.9580 H   0  0  0  0  0  0  0  0  0  0  0  0
  -24.0750  -36.7650   23.0590 C   0  0  0  0  0  1  0  0  0  0  0  0
  -25.3050  -36.3580   23.8860 C   0  0  0  0  0  3  0  0  0  0  0  0
  -27.4140  -37.2500   24.7700 C   0  0  0  0  0  1  0  0  0  0  0  0
  -26.3320  -37.4190   23.8040 N   0  0  0  0  0  0  0  0  0  0  0  0
  -25.9170  -38.3360   23.9490 H   0  0  0  0  0  0  0  0  0  0  0  0
  1  2  1  0
  1  3  2  0
  2  4  1  0
  5  8  1  0
  6  5  2  0
  6 11  1  0
  7 10  1  0
  8  2  1  0
  8  7  2  0
  9  7  1  0
  9 12  1  0
 11  9  2  0
 13 21  1  0
 14 19  1  0
 15 16  1  0
 15 14  1  0
 17 16  1  0
 17 26  1  0
 17 18  1  0
 19 13  1  0
 19 18  1  0
 20 13  2  0
 21 22  1  0
 21 12  1  0
 23 24  2  0
 24 43  1  0
 25 24  1  0
 25 28  1  0
 26 27  1  0
 26 23  1  0
 27 25  2  0
 28 29  1  0
 29 30  2  0
 31 34  1  0
 31 30  1  0
 32 31  2  0
 33 32  1  0
 33 28  2  0
 34 35  1  0
 35 40  2  0
 35 36  1  0
 36 37  2  0
 37 38  1  0
 38 42  1  0
 39 38  2  0
 40 39  1  0
 41 40  1  0
 43 44  1  0
 44 47  1  0
 44 46  1  0
 45 43  2  0
 48 49  1  0
 48 23  1  0
 50 48  1  0
 51 53  1  0
 51  1  1  0
 51 54  1  0
 52 53  1  0
 55 66  2  0
 56 54  1  0
 56 61  1  0
 57 65  1  0
 57 67  1  0
 58 64  1  0
 58 60  1  0
 59 65  1  0
 60 61  2  0
 60 59  1  0
 62 56  2  0
 63 62  1  0
 63 58  2  0
 64 57  1  0
 65 55  1  0
 67 69  2  0
 68 67  1  0
 70 68  1  0
 71 80  2  0
 71 76  1  0
 72 68  1  0
 72 76  1  0
 73 72  1  0
 74 75  1  0
 74 73  1  0
 75 71  1  0
 76 77  2  0
 77 78  1  0
 79 78  2  0
 80 79  1  0
 81 55  1  0
 81 86  1  0
 81 82  1  0
 82 85  1  1
 82 83  1  0
 84 82  1  0
 86 89  1  0
 87 91  1  0
 87 86  1  0
 88 87  2  0
 91 90  1  0
 93 91  1  0
 93 94  1  0
 93 92  1  0
M  ISO  4  13 100  21 100  51 101  54 101
M  END
>  <TORSDO>  (61) 
F 20

>  <SCORE>  (61) 
-12.559

>  <name>  (61) 
60

>  <ligand_id>  (61) 
60

>  <original_smiles>  (61) 
[H]c1nc(C([H])([H])N([H])C(=O)N2C([H])([H])C([H])([H])C([H])([H])C([H])(n3nc(-c4c([H])c([H])c(Oc5c([H])c([H])c(F)c([H])c5F)c([H])c4[H])c(C(=O)N([H])[H])c3N([H])[H])C2([H])[H])c(C([H])([H])[H])c(N([H])C(=O)C([H])(Oc2c([H])c([H])c3c(c2[H])C([H])([H])N(C(=O)C([H])(N([H])C(=O)C([H])(N([H])C([H])([H])[H])C([H])([H])[H])C(C([H])([H])[H])(C([H])([H])[H])C([H])([H])[H])C([H])(C(=O)N([H])C2([H])c4c([H])c([H])c([H])c([H])c4C([H])([H])C([H])([H])C2([H])[H])C3([H])[H])C([H])([H])C([H])([H])[H])c1[H]

>  <smiles>  (61) 
[H]c1nc(C([H])([H])N([H])C(=O)N2C([H])([H])C([H])([H])C([H])([H])C([H])(n3nc(-c4c([H])c([H])c(Oc5c([H])c([H])c(F)c([H])c5F)c([H])c4[H])c(C(=O)N([H])[H])c3N([H])[H])C2([H])[H])c(C([H])([H])[H])c(N([H])C(=O)C([H])(Oc2c([H])c([H])c3c(c2[H])C([H])([H])N(C(=O)C([H])(N([H])C(=O)C([H])(N([H])C([H])([H])[H])C([H])([H])[H])C(C([H])([H])[H])(C([H])([H])[H])C([H])([H])[H])C([H])(C(=O)N([H])C2([H])c4c([H])c([H])c([H])c([H])c4C([H])([H])C([H])([H])C2([H])[H])C3([H])[H])C([H])([H])C([H])([H])[H])c1[H]

$$$$
61:0:0
     RDKit          3D

103111  0  0  1  0  0  0  0  0999 V2000
  -32.2250  -19.6470   21.4350 C   0  0  0  0  0  3  0  0  0  0  0  0
  -30.4830  -18.0120   21.9220 C   0  0  0  0  0  3  0  0  0  0  0  0
  -31.0430  -19.3010   22.1200 C   0  0  0  0  0  0  0  0  0  0  0  0
  -32.8000  -18.7060   20.5650 C   0  0  0  0  0  3  0  0  0  0  0  0
  -31.1040  -17.0810   21.0460 C   0  0  0  0  0  0  0  0  0  0  0  0
  -32.2340  -17.4920   20.4110 N   0  0  0  0  0  0  0  0  0  0  0  0
  -32.6600  -16.8530   19.7270 H   0  0  0  0  0  0  0  0  0  0  0  0
  -31.0810  -14.7760   20.0920 C   0  0  0  0  0  0  0  0  0  0  0  0
  -30.6920  -12.5960   18.9970 C   0  0  0  0  0  2  0  0  0  0  0  0
  -29.7160  -12.7430   17.8140 C   0  0  0  0  0  2  0  0  0  0  0  0
  -28.2590  -12.6200   18.2990 C   0  0  0  0  0  2  0  0  0  0  0  0
  -27.9580  -13.5160   19.5300 C   0  0  0  0  0  3  0  0  0  0  0  0
  -29.0470  -13.3560   20.6160 C   0  0  0  0  0  2  0  0  0  0  0  0
  -30.3580  -13.6250   19.9980 N   0  0  0  0  0  0  0  0  0  0  0  0
  -32.1430  -14.9250   19.4660 O   0  0  0  0  0  0  0  0  0  0  0  0
  -30.5580  -15.7680   20.8440 N   0  0  0  0  0  0  0  0  0  0  0  0
  -29.6720  -15.5600   21.2710 H   0  0  0  0  0  0  0  0  0  0  0  0
  -25.6070  -14.1490   20.3670 C   0  0  0  0  0  0  0  0  0  0  0  0
  -24.5420  -13.3870   20.7630 C   0  0  0  0  0  0  0  0  0  0  0  0
  -24.9720  -12.0270   20.6690 C   0  0  0  0  0  0  0  0  0  0  0  0
  -26.6230  -13.2550   20.0630 N   0  0  0  0  0  0  0  0  0  0  0  0
  -26.2460  -11.9720   20.3000 N   0  0  0  0  0  0  0  0  0  0  0  0
  -24.2290  -10.7740   20.8520 C   0  0  0  0  0  0  0  0  0  0  0  0
  -24.5880   -9.8410   21.8500 C   0  0  0  0  0  3  0  0  0  0  0  0
  -23.8470   -8.6530   22.0190 C   0  0  0  0  0  3  0  0  0  0  0  0
  -22.7320   -8.3880   21.1890 C   0  0  0  0  0  0  0  0  0  0  0  0
  -22.3920   -9.3100   20.1820 C   0  0  0  0  0  3  0  0  0  0  0  0
  -23.1350  -10.4890   20.0120 C   0  0  0  0  0  3  0  0  0  0  0  0
  -21.9690   -7.2480   21.2630 O   0  0  0  0  0  0  0  0  0  0  0  0
  -21.6980   -6.6400   22.4630 C   0  0  0  0  0  0  0  0  0  0  0  0
  -21.0260   -7.3140   23.5050 C   0  0  0  0  0  3  0  0  0  0  0  0
  -20.7080   -6.6310   24.6960 C   0  0  0  0  0  3  0  0  0  0  0  0
  -21.0510   -5.2730   24.8420 C   0  0  0  0  0  0  0  0  0  0  0  0
  -21.7160   -4.5990   23.8030 C   0  0  0  0  0  3  0  0  0  0  0  0
  -22.0360   -5.2800   22.6150 C   0  0  0  0  0  0  0  0  0  0  0  0
  -22.6580   -4.6200   21.6090 F   0  0  0  0  0  0  0  0  0  0  0  0
  -20.7400   -4.6130   25.9820 F   0  0  0  0  0  0  0  0  0  0  0  0
  -23.1690  -13.8820   21.1130 C   0  0  0  0  0  0  0  0  0  0  0  0
  -22.4710  -13.1800   21.9990 N   0  0  0  0  0  0  0  0  0  0  0  0
  -22.7240  -14.9270   20.6380 O   0  0  0  0  0  0  0  0  0  0  0  0
  -22.8430  -12.3330   22.4040 H   0  0  0  0  0  0  0  0  0  0  0  0
  -21.5520  -13.4930   22.2770 H   0  0  0  0  0  0  0  0  0  0  0  0
  -25.7940  -15.5210   20.2200 N   0  0  0  0  0  0  0  0  0  0  0  0
  -25.0380  -16.1830   20.3670 H   0  0  0  0  0  0  0  0  0  0  0  0
  -26.6180  -15.9470   19.8140 H   0  0  0  0  0  0  0  0  0  0  0  0
  -34.0240  -18.9120   19.7900 C   0  0  0  0  0  0  0  0  0  0  0  0
  -34.7330  -17.8300   19.4400 N   0  0  0  0  0  4  0  0  0  0  0  0
  -34.4120  -20.1440   19.4190 N   0  0  0  0  0  0  0  0  0  0  0  0
  -34.4860  -16.9440   19.8500 H   0  0  0  0  0  0  0  0  0  0  0  0
  -35.5320  -17.8630   18.8310 H   0  0  0  0  0  0  0  0  0  0  0  0
  -33.7880  -20.9090   19.6290 H   0  0  0  0  0  0  0  0  0  0  0  0
  -35.8950  -21.9800   18.6250 C   0  0  0  0  0  1  0  0  0  0  0  0
  -35.6110  -20.4750   18.6330 C   0  0  0  0  0  2  0  0  0  0  0  0
  -30.4240  -20.2390   22.9660 N   0  0  0  0  0  0  0  0  0  0  0  0
  -31.0930  -20.8240   23.4580 H   0  0  0  0  0  0  0  0  0  0  0  0
  -29.3670  -21.0130   22.3120 C   0  0  0  0  0  2  0  0  0  0  0  0
  -29.5180  -22.5470   22.5110 C   0  0  0  0  0  2  0  0  0  0  0  0
  -28.6570  -23.3880   21.5250 C   0  0  0  0  0  3  0  0  0  0  0  0
  -27.2840  -23.2320   21.8450 O   0  0  0  0  0  0  0  0  0  0  0  0
  -27.0570  -22.3110   21.7690 H   0  0  0  0  0  0  0  0  0  0  0  0
  -28.9730  -24.9080   21.5170 C   0  0  0  0  0  2  0  0  0  0  0  0
  -28.9070  -25.5410   20.1060 C   0  0  0  0  0  2  0  0  0  0  0  0
  -28.7420  -26.9620   20.1530 O   0  0  0  0  0  0  0  0  0  0  0  0
  -24.5680  -31.7860   23.2350 C   0  0  0  0  0  0  0  0  0  0  0  0
  -27.4870  -27.5400   20.1450 C   0  0  0  0  0  0  0  0  0  0  0  0
  -23.4500  -30.3420   21.5630 C   0  0  0  0  0  3  0  0  0  0  0  0
  -24.9980  -28.8980   20.1370 C   0  0  0  0  0  0  0  0  0  0  0  0
  -25.9520  -30.8410   21.3920 C   0  0  0  0  0  2  0  0  0  0  0  0
  -26.1170  -29.4860   20.7390 C   0  0  0  0  0  0  0  0  0  0  0  0
  -27.3580  -28.8140   20.7360 C   0  0  0  0  0  3  0  0  0  0  0  0
  -26.3440  -26.9510   19.5530 C   0  0  0  0  0  3  0  0  0  0  0  0
  -25.1060  -27.6270   19.5440 C   0  0  0  0  0  3  0  0  0  0  0  0
  -23.7080  -29.6890   20.1770 C   0  0  0  0  0  2  0  0  0  0  0  0
  -24.6730  -31.0040   22.1230 N   0  0  0  0  0  0  0  0  0  0  0  0
  -23.4700  -31.9980   23.7670 O   0  0  0  0  0  0  0  0  0  0  0  0
  -22.8470  -29.2760   22.5060 C   0  0  0  0  0  0  0  0  0  0  0  0
  -21.5510  -28.9760   22.3160 N   0  0  0  0  0  0  0  0  0  0  0  0
  -23.5410  -28.7220   23.3620 O   0  0  0  0  0  0  0  0  0  0  0  0
  -21.0530  -29.4790   21.5960 H   0  0  0  0  0  0  0  0  0  0  0  0
  -18.2870  -27.4600   22.6240 C   0  0  0  0  0  0  0  0  0  0  0  0
  -20.7820  -27.9760   23.0560 C   0  0  0  0  0  3  0  0  0  0  0  0
  -21.0640  -26.5530   22.5210 C   0  0  0  0  0  2  0  0  0  0  0  0
  -20.0690  -26.1050   21.4470 C   0  0  0  0  0  2  0  0  0  0  0  0
  -18.6390  -26.1210   21.9970 C   0  0  0  0  0  2  0  0  0  0  0  0
  -19.2940  -28.3380   23.1060 C   0  0  0  0  0  0  0  0  0  0  0  0
  -18.9140  -29.5840   23.6490 C   0  0  0  0  0  3  0  0  0  0  0  0
  -17.5590  -29.9580   23.7170 C   0  0  0  0  0  3  0  0  0  0  0  0
  -16.5650  -29.0790   23.2520 C   0  0  0  0  0  3  0  0  0  0  0  0
  -16.9280  -27.8320   22.7130 C   0  0  0  0  0  3  0  0  0  0  0  0
  -25.8160  -32.4720   23.8760 C   0  0  0  0  0  3  0  0  0  0  0  0
  -26.3360  -31.7340   25.1700 C   0  0  1  0  0  0  0  0  0  0  0  0
  -25.2240  -31.4240   26.2000 C   0  0  0  0  0  1  0  0  0  0  0  0
  -27.0210  -30.3990   24.7950 C   0  0  0  0  0  1  0  0  0  0  0  0
  -27.4090  -32.6000   25.8740 C   0  0  0  0  0  1  0  0  0  0  0  0
  -25.4480  -33.8600   24.1810 N   0  0  0  0  0  0  0  0  0  0  0  0
  -25.7460  -34.9150   23.4120 C   0  0  0  0  0  0  0  0  0  0  0  0
  -26.4350  -34.8250   22.3910 O   0  0  0  0  0  0  0  0  0  0  0  0
  -24.8350  -33.9990   24.9720 H   0  0  0  0  0  0  0  0  0  0  0  0
  -23.9420  -36.6200   23.0160 C   0  0  0  0  0  1  0  0  0  0  0  0
  -25.1930  -36.2870   23.8420 C   0  0  0  0  0  3  0  0  0  0  0  0
  -27.2780  -37.2820   24.6740 C   0  0  0  0  0  1  0  0  0  0  0  0
  -26.1790  -37.3830   23.7170 N   0  0  0  0  0  0  0  0  0  0  0  0
  -25.7310  -38.2870   23.8470 H   0  0  0  0  0  0  0  0  0  0  0  0
  1  3  2  0
  2  3  1  0
  3 54  1  0
  4 46  1  0
  4  1  1  0
  5  2  2  0
  6  4  1  0
  6  5  1  0
  7  6  1  0
  8 16  1  0
  9 14  1  0
 10 11  1  0
 10  9  1  0
 12 11  1  0
 12 21  1  0
 12 13  1  0
 14  8  1  0
 14 13  1  0
 15  8  2  0
 16  5  1  0
 16 17  1  0
 18 19  2  0
 19 38  1  0
 20 19  1  0
 20 23  1  0
 21 22  1  0
 21 18  1  0
 22 20  2  0
 23 24  1  0
 24 25  2  0
 26 29  1  0
 26 25  1  0
 27 26  2  0
 28 27  1  0
 28 23  2  0
 29 30  1  0
 30 35  2  0
 30 31  1  0
 31 32  2  0
 32 33  1  0
 33 37  1  0
 34 33  2  0
 35 34  1  0
 36 35  1  0
 38 39  1  0
 39 42  1  0
 39 41  1  0
 40 38  2  0
 43 44  1  0
 43 18  1  0
 45 43  1  0
 47 46  2  0
 47 49  1  0
 48 51  1  0
 48 46  1  0
 50 47  1  0
 52 53  1  0
 53 48  1  0
 54 55  1  0
 56 57  1  0
 56 54  1  0
 58 61  1  0
 58 59  1  0
 58 57  1  0
 60 59  1  0
 62 63  1  0
 62 61  1  0
 64 75  2  0
 65 63  1  0
 65 70  1  0
 66 74  1  0
 66 76  1  0
 67 73  1  0
 67 69  1  0
 68 74  1  0
 69 68  1  0
 70 69  2  0
 71 65  2  0
 72 71  1  0
 72 67  2  0
 73 66  1  0
 74 64  1  0
 76 78  2  0
 77 76  1  0
 79 77  1  0
 80 89  2  0
 80 85  1  0
 81 77  1  0
 81 85  1  0
 82 81  1  0
 83 84  1  0
 83 82  1  0
 84 80  1  0
 85 86  2  0
 86 87  1  0
 88 87  2  0
 89 88  1  0
 90 64  1  0
 90 95  1  0
 90 91  1  0
 91 94  1  1
 91 92  1  0
 93 91  1  0
 95 98  1  0
 96100  1  0
 96 95  1  0
 97 96  2  0
100 99  1  0
102100  1  0
102103  1  0
102101  1  0
M  ISO  4   8 100  16 100  62 101  63 101
M  END
>  <TORSDO>  (62) 
F 25

>  <SCORE>  (62) 
-11.818

>  <name>  (62) 
61

>  <ligand_id>  (62) 
61

>  <original_smiles>  (62) 
[H]OC([H])(C([H])([H])C([H])([H])Oc1c([H])c([H])c2c(c1[H])C([H])([H])N(C(=O)C([H])(N([H])C(=O)C([H])(N([H])C([H])([H])[H])C([H])([H])[H])C(C([H])([H])[H])(C([H])([H])[H])C([H])([H])[H])C([H])(C(=O)N([H])C1([H])c3c([H])c([H])c([H])c([H])c3C([H])([H])C([H])([H])C1([H])[H])C2([H])[H])C([H])([H])C([H])([H])N([H])c1c([H])c(C(N([H])[H])=[N+]([H])C([H])([H])C([H])([H])[H])[n+]([H])c(N([H])C(=O)N2C([H])([H])C([H])([H])C([H])([H])C([H])(n3nc(-c4c([H])c([H])c(Oc5c([H])c([H])c(F)c([H])c5F)c([H])c4[H])c(C(=O)N([H])[H])c3N([H])[H])C2([H])[H])c1[H]

>  <smiles>  (62) 
[H]OC([H])(C([H])([H])C([H])([H])Oc1c([H])c([H])c2c(c1[H])C([H])([H])N(C(=O)C([H])(N([H])C(=O)C([H])(N([H])C([H])([H])[H])C([H])([H])[H])C(C([H])([H])[H])(C([H])([H])[H])C([H])([H])[H])C([H])(C(=O)N([H])C1([H])c3c([H])c([H])c([H])c([H])c3C([H])([H])C([H])([H])C1([H])[H])C2([H])[H])C([H])([H])C([H])([H])N([H])c1c([H])c(C(N([H])[H])=[N+]([H])C([H])([H])C([H])([H])[H])[n+]([H])c(N([H])C(=O)N2C([H])([H])C([H])([H])C([H])([H])C([H])(n3nc(-c4c([H])c([H])c(Oc5c([H])c([H])c(F)c([H])c5F)c([H])c4[H])c(C(=O)N([H])[H])c3N([H])[H])C2([H])[H])c1[H]

$$$$
62:0:0
     RDKit          3D

 95103  0  0  1  0  0  0  0  0999 V2000
  -29.3220  -22.4490   20.1900 C   0  0  0  0  0  3  0  0  0  0  0  0
  -31.9130  -22.3020   19.8270 C   0  0  0  0  0  1  0  0  0  0  0  0
  -30.3770  -22.2810   17.8370 C   0  0  0  0  0  1  0  0  0  0  0  0
  -30.5550  -22.7720   19.2910 C   0  0  0  0  0  3  0  0  0  0  0  0
  -28.9120  -20.9860   20.0240 N   0  0  0  0  0  0  0  0  0  0  0  0
  -28.2440  -20.8490   19.2740 H   0  0  0  0  0  0  0  0  0  0  0  0
  -30.5580  -14.8380   20.0250 C   0  0  0  0  0  0  0  0  0  0  0  0
  -30.3450  -12.5760   18.9820 C   0  0  0  0  0  2  0  0  0  0  0  0
  -29.3300  -12.6500   17.8210 C   0  0  0  0  0  2  0  0  0  0  0  0
  -27.8850  -12.4690   18.3230 C   0  0  0  0  0  2  0  0  0  0  0  0
  -27.5720  -13.3430   19.5630 C   0  0  0  0  0  3  0  0  0  0  0  0
  -28.6900  -13.2410   20.6230 C   0  0  0  0  0  2  0  0  0  0  0  0
  -29.9490  -13.6070   19.9630 N   0  0  0  0  0  0  0  0  0  0  0  0
  -31.7520  -14.9510   19.7350 O   0  0  0  0  0  0  0  0  0  0  0  0
  -30.4320  -19.5450   21.5180 C   0  0  0  0  0  0  0  0  0  0  0  0
  -29.5570  -19.7320   20.4560 C   0  0  0  0  0  0  0  0  0  0  0  0
  -29.9570  -17.3600   20.3780 C   0  0  0  0  0  0  0  0  0  0  0  0
  -29.2680  -18.4390   19.8710 N   0  0  0  0  0  0  0  0  0  0  0  0
  -29.7170  -15.9390   20.0650 N   0  0  0  0  0  0  0  0  0  0  0  0
  -31.0210  -17.8820   21.6600 S   0  0  0  0  0  0  0  0  0  0  0  0
  -28.7460  -15.6970   19.9670 H   0  0  0  0  0  0  0  0  0  0  0  0
  -25.2250  -13.9250   20.4280 C   0  0  0  0  0  0  0  0  0  0  0  0
  -24.1800  -13.1440   20.8380 C   0  0  0  0  0  0  0  0  0  0  0  0
  -24.6450  -11.7930   20.7680 C   0  0  0  0  0  0  0  0  0  0  0  0
  -26.2570  -13.0490   20.1230 N   0  0  0  0  0  0  0  0  0  0  0  0
  -25.9170  -11.7630   20.3920 N   0  0  0  0  0  0  0  0  0  0  0  0
  -23.9310  -10.5270   20.9730 C   0  0  0  0  0  0  0  0  0  0  0  0
  -24.3940   -9.5580   21.8890 C   0  0  0  0  0  3  0  0  0  0  0  0
  -23.6810   -8.3540   22.0770 C   0  0  0  0  0  3  0  0  0  0  0  0
  -22.4880   -8.1160   21.3530 C   0  0  0  0  0  0  0  0  0  0  0  0
  -22.0460   -9.0730   20.4240 C   0  0  0  0  0  3  0  0  0  0  0  0
  -22.7600  -10.2660   20.2330 C   0  0  0  0  0  3  0  0  0  0  0  0
  -21.7410   -6.9670   21.4580 O   0  0  0  0  0  0  0  0  0  0  0  0
  -21.7070   -6.2310   22.6150 C   0  0  0  0  0  0  0  0  0  0  0  0
  -21.2590   -6.7820   23.8360 C   0  0  0  0  0  3  0  0  0  0  0  0
  -21.1730   -5.9720   24.9840 C   0  0  0  0  0  3  0  0  0  0  0  0
  -21.5260   -4.6100   24.9150 C   0  0  0  0  0  0  0  0  0  0  0  0
  -21.9670   -4.0580   23.6990 C   0  0  0  0  0  3  0  0  0  0  0  0
  -22.0540   -4.8680   22.5520 C   0  0  0  0  0  0  0  0  0  0  0  0
  -22.4580   -4.3240   21.3790 F   0  0  0  0  0  0  0  0  0  0  0  0
  -21.4370   -3.8290   26.0170 F   0  0  0  0  0  0  0  0  0  0  0  0
  -22.7960  -13.6110   21.1770 C   0  0  0  0  0  0  0  0  0  0  0  0
  -22.1040  -12.9000   22.0620 N   0  0  0  0  0  0  0  0  0  0  0  0
  -22.3340  -14.6450   20.6960 O   0  0  0  0  0  0  0  0  0  0  0  0
  -22.4890  -12.0640   22.4790 H   0  0  0  0  0  0  0  0  0  0  0  0
  -21.1730  -13.1900   22.3220 H   0  0  0  0  0  0  0  0  0  0  0  0
  -25.3810  -15.2990   20.2570 N   0  0  0  0  0  0  0  0  0  0  0  0
  -24.6210  -15.9530   20.4040 H   0  0  0  0  0  0  0  0  0  0  0  0
  -26.1800  -15.7310   19.8140 H   0  0  0  0  0  0  0  0  0  0  0  0
  -32.0840  -20.1870   23.4020 C   0  0  0  0  0  1  0  0  0  0  0  0
  -30.8440  -20.5390   22.5660 C   0  0  0  0  0  2  0  0  0  0  0  0
  -28.2070  -23.6210   19.9230 C   0  0  0  0  0  2  0  0  0  0  0  0
  -29.0490  -25.0300   21.9740 C   0  0  0  0  0  1  0  0  0  0  0  0
  -28.1450  -25.0470   20.7400 C   0  0  0  0  0  3  0  0  0  0  0  0
  -28.3160  -26.4360   20.1680 O   0  0  0  0  0  0  0  0  0  0  0  0
  -24.6300  -31.9410   23.2730 C   0  0  0  0  0  0  0  0  0  0  0  0
  -27.2270  -27.3340   20.2040 C   0  0  0  0  0  0  0  0  0  0  0  0
  -23.4250  -30.5420   21.6380 C   0  0  0  0  0  3  0  0  0  0  0  0
  -24.8700  -28.9810   20.2110 C   0  0  0  0  0  0  0  0  0  0  0  0
  -25.9710  -30.8410   21.4540 C   0  0  0  0  0  2  0  0  0  0  0  0
  -26.0470  -29.4570   20.8060 C   0  0  0  0  0  0  0  0  0  0  0  0
  -27.2320  -28.6480   20.7890 C   0  0  0  0  0  3  0  0  0  0  0  0
  -26.0280  -26.9230   19.5900 C   0  0  0  0  0  3  0  0  0  0  0  0
  -24.8650  -27.7190   19.5960 C   0  0  0  0  0  3  0  0  0  0  0  0
  -23.6400  -29.8680   20.2580 C   0  0  0  0  0  2  0  0  0  0  0  0
  -24.6970  -31.1270   22.1770 N   0  0  0  0  0  0  0  0  0  0  0  0
  -23.5460  -32.2170   23.8090 O   0  0  0  0  0  0  0  0  0  0  0  0
  -22.7650  -29.5260   22.6010 C   0  0  0  0  0  0  0  0  0  0  0  0
  -21.4400  -29.3360   22.4660 N   0  0  0  0  0  0  0  0  0  0  0  0
  -23.4430  -28.9090   23.4270 O   0  0  0  0  0  0  0  0  0  0  0  0
  -20.9520  -29.8860   21.7750 H   0  0  0  0  0  0  0  0  0  0  0  0
  -18.0740  -28.0960   22.9420 C   0  0  0  0  0  0  0  0  0  0  0  0
  -20.6250  -28.3950   23.2360 C   0  0  0  0  0  3  0  0  0  0  0  0
  -20.7530  -26.9600   22.6760 C   0  0  0  0  0  2  0  0  0  0  0  0
  -19.6660  -26.6100   21.6540 C   0  0  0  0  0  2  0  0  0  0  0  0
  -18.2760  -26.7430   22.2810 C   0  0  0  0  0  2  0  0  0  0  0  0
  -19.1770  -28.8780   23.3770 C   0  0  0  0  0  0  0  0  0  0  0  0
  -18.9340  -30.1420   23.9580 C   0  0  0  0  0  3  0  0  0  0  0  0
  -17.6210  -30.6270   24.1040 C   0  0  0  0  0  3  0  0  0  0  0  0
  -16.5320  -29.8430   23.6860 C   0  0  0  0  0  3  0  0  0  0  0  0
  -16.7590  -28.5790   23.1140 C   0  0  0  0  0  3  0  0  0  0  0  0
  -25.9100  -32.5810   23.8930 C   0  0  0  0  0  3  0  0  0  0  0  0
  -25.6020  -33.9850   24.2030 N   0  0  0  0  0  0  0  0  0  0  0  0
  -25.9440  -35.0290   23.4380 C   0  0  0  0  0  0  0  0  0  0  0  0
  -26.6220  -34.9120   22.4130 O   0  0  0  0  0  0  0  0  0  0  0  0
  -25.0060  -34.1490   25.0010 H   0  0  0  0  0  0  0  0  0  0  0  0
  -24.2330  -36.8320   23.0440 C   0  0  0  0  0  1  0  0  0  0  0  0
  -25.4600  -36.4260   23.8780 C   0  0  0  0  0  3  0  0  0  0  0  0
  -27.5880  -37.3060   24.7370 C   0  0  0  0  0  1  0  0  0  0  0  0
  -26.5020  -37.4710   23.7700 N   0  0  0  0  0  0  0  0  0  0  0  0
  -26.1020  -38.3950   23.8980 H   0  0  0  0  0  0  0  0  0  0  0  0
  -26.4150  -31.8280   25.1850 C   0  0  1  0  0  0  0  0  0  0  0  0
  -25.3130  -31.6060   26.2490 C   0  0  0  0  0  1  0  0  0  0  0  0
  -27.0010  -30.4450   24.8190 C   0  0  0  0  0  1  0  0  0  0  0  0
  -27.5620  -32.6310   25.8440 C   0  0  0  0  0  1  0  0  0  0  0  0
  1 52  1  0
  3  4  1  0
  4  2  1  0
  4  1  1  0
  5  1  1  0
  5 16  1  0
  6  5  1  0
  7 19  1  0
  8 13  1  0
  9 10  1  0
  9  8  1  0
 11 10  1  0
 11 25  1  0
 11 12  1  0
 13  7  1  0
 13 12  1  0
 14  7  2  0
 15 20  1  0
 15 51  1  0
 16 15  2  0
 17 20  1  0
 18 17  2  0
 18 16  1  0
 19 17  1  0
 21 19  1  0
 22 23  2  0
 23 42  1  0
 24 23  1  0
 24 27  1  0
 25 26  1  0
 25 22  1  0
 26 24  2  0
 27 28  1  0
 28 29  2  0
 30 33  1  0
 30 29  1  0
 31 30  2  0
 32 31  1  0
 32 27  2  0
 33 34  1  0
 34 35  1  0
 35 36  2  0
 37 36  1  0
 37 41  1  0
 38 37  2  0
 39 34  2  0
 39 38  1  0
 40 39  1  0
 42 43  1  0
 43 46  1  0
 43 45  1  0
 44 42  2  0
 47 48  1  0
 47 22  1  0
 49 47  1  0
 51 50  1  0
 52 54  1  0
 54 53  1  0
 55 57  1  0
 55 54  1  0
 56 67  2  0
 57 62  1  0
 58 66  1  0
 58 68  1  0
 59 65  1  0
 59 61  1  0
 60 66  1  0
 61 60  1  0
 62 61  2  0
 63 64  1  0
 63 57  2  0
 64 59  2  0
 65 58  1  0
 66 56  1  0
 68 70  2  0
 69 68  1  0
 71 69  1  0
 72 81  2  0
 72 77  1  0
 73 69  1  0
 73 77  1  0
 74 73  1  0
 75 76  1  0
 75 74  1  0
 76 72  1  0
 77 78  2  0
 78 79  1  0
 80 79  2  0
 81 80  1  0
 82 56  1  0
 82 83  1  0
 82 92  1  0
 83 86  1  0
 84 88  1  0
 84 83  1  0
 85 84  2  0
 88 87  1  0
 90 88  1  0
 90 91  1  0
 90 89  1  0
 92 95  1  1
 92 93  1  0
 94 92  1  0
M  ISO  4   7 100  19 100  54 101  55 101
M  END
>  <TORSDO>  (63) 
F 21

>  <SCORE>  (63) 
-13.758

>  <name>  (63) 
62

>  <ligand_id>  (63) 
62

>  <original_smiles>  (63) 
[H]c1c([H])c([H])c2c(c1[H])C([H])([H])C([H])([H])C([H])([H])C2([H])N([H])C(=O)C1([H])N(C(=O)C([H])(N([H])C(=O)C([H])(N([H])C([H])([H])[H])C([H])([H])[H])C(C([H])([H])[H])(C([H])([H])[H])C([H])([H])[H])C([H])([H])c2c([H])c(OC([H])(C([H])([H])[H])C([H])([H])C([H])(N([H])c3nc(N([H])C(=O)N4C([H])([H])C([H])([H])C([H])([H])C([H])(n5nc(-c6c([H])c([H])c(Oc7c([H])c([H])c(F)c([H])c7F)c([H])c6[H])c(C(=O)N([H])[H])c5N([H])[H])C4([H])[H])sc3C([H])([H])C([H])([H])[H])C([H])(C([H])([H])[H])C([H])([H])[H])c([H])c([H])c2C1([H])[H]

>  <smiles>  (63) 
[H]c1c([H])c([H])c2c(c1[H])C([H])([H])C([H])([H])C([H])([H])C2([H])N([H])C(=O)C1([H])N(C(=O)C([H])(N([H])C(=O)C([H])(N([H])C([H])([H])[H])C([H])([H])[H])C(C([H])([H])[H])(C([H])([H])[H])C([H])([H])[H])C([H])([H])c2c([H])c(OC([H])(C([H])([H])[H])C([H])([H])C([H])(N([H])c3nc(N([H])C(=O)N4C([H])([H])C([H])([H])C([H])([H])C([H])(n5nc(-c6c([H])c([H])c(Oc7c([H])c([H])c(F)c([H])c7F)c([H])c6[H])c(C(=O)N([H])[H])c5N([H])[H])C4([H])[H])sc3C([H])([H])C([H])([H])[H])C([H])(C([H])([H])[H])C([H])([H])[H])c([H])c([H])c2C1([H])[H]

$$$$
63:0:0
     RDKit          3D

 95103  0  0  1  0  0  0  0  0999 V2000
  -30.7850  -23.2140   21.2620 C   0  0  0  0  0  3  0  0  0  0  0  0
  -31.3540  -23.3290   22.4630 F   0  0  0  0  0  0  0  0  0  0  0  0
  -29.7720  -24.3600   21.0700 C   0  0  0  0  0  2  0  0  0  0  0  0
  -30.4140  -25.7640   21.0090 C   0  0  0  0  0  3  0  0  0  0  0  0
  -31.2100  -25.9060   19.8420 O   0  0  0  0  0  0  0  0  0  0  0  0
  -30.6110  -26.0360   19.1130 H   0  0  0  0  0  0  0  0  0  0  0  0
  -29.3950  -26.9210   21.0300 C   0  0  0  0  0  2  0  0  0  0  0  0
  -28.3930  -26.6890   20.0430 O   0  0  0  0  0  0  0  0  0  0  0  0
  -24.4950  -31.7970   23.1880 C   0  0  0  0  0  0  0  0  0  0  0  0
  -27.2490  -27.4560   20.0930 C   0  0  0  0  0  0  0  0  0  0  0  0
  -23.3240  -30.4040   21.5090 C   0  0  0  0  0  3  0  0  0  0  0  0
  -24.8190  -28.9000   20.0880 C   0  0  0  0  0  0  0  0  0  0  0  0
  -25.8410  -30.8050   21.3460 C   0  0  0  0  0  2  0  0  0  0  0  0
  -25.9550  -29.4410   20.7020 C   0  0  0  0  0  0  0  0  0  0  0  0
  -27.1700  -28.7260   20.7110 C   0  0  0  0  0  3  0  0  0  0  0  0
  -26.0990  -26.9270   19.4720 C   0  0  0  0  0  3  0  0  0  0  0  0
  -24.8820  -27.6370   19.4730 C   0  0  0  0  0  3  0  0  0  0  0  0
  -23.5610  -29.7390   20.1250 C   0  0  0  0  0  2  0  0  0  0  0  0
  -24.5700  -31.0150   22.0740 N   0  0  0  0  0  0  0  0  0  0  0  0
  -23.4040  -32.0510   23.7180 O   0  0  0  0  0  0  0  0  0  0  0  0
  -22.6730  -29.3640   22.4480 C   0  0  0  0  0  0  0  0  0  0  0  0
  -21.3520  -29.1730   22.3010 N   0  0  0  0  0  0  0  0  0  0  0  0
  -23.3530  -28.7320   23.2610 O   0  0  0  0  0  0  0  0  0  0  0  0
  -20.8660  -29.7340   21.6150 H   0  0  0  0  0  0  0  0  0  0  0  0
  -17.9790  -27.9560   22.7450 C   0  0  0  0  0  0  0  0  0  0  0  0
  -20.5330  -28.2180   23.0460 C   0  0  0  0  0  3  0  0  0  0  0  0
  -20.6460  -26.7980   22.4460 C   0  0  0  0  0  2  0  0  0  0  0  0
  -19.5550  -26.4900   21.4150 C   0  0  0  0  0  2  0  0  0  0  0  0
  -18.1670  -26.6190   22.0470 C   0  0  0  0  0  2  0  0  0  0  0  0
  -19.0910  -28.7140   23.1990 C   0  0  0  0  0  0  0  0  0  0  0  0
  -18.8630  -29.9660   23.8100 C   0  0  0  0  0  3  0  0  0  0  0  0
  -17.5560  -30.4630   23.9690 C   0  0  0  0  0  3  0  0  0  0  0  0
  -16.4580  -29.7010   23.5320 C   0  0  0  0  0  3  0  0  0  0  0  0
  -16.6700  -28.4500   22.9260 C   0  0  0  0  0  3  0  0  0  0  0  0
  -25.7680  -32.4310   23.8330 C   0  0  0  0  0  3  0  0  0  0  0  0
  -25.4440  -33.8210   24.1760 N   0  0  0  0  0  0  0  0  0  0  0  0
  -25.7740  -34.8840   23.4300 C   0  0  0  0  0  0  0  0  0  0  0  0
  -26.4550  -34.7980   22.4040 O   0  0  0  0  0  0  0  0  0  0  0  0
  -24.8400  -33.9630   24.9720 H   0  0  0  0  0  0  0  0  0  0  0  0
  -24.0300  -36.6600   23.0760 C   0  0  0  0  0  1  0  0  0  0  0  0
  -25.2680  -36.2620   23.8950 C   0  0  0  0  0  3  0  0  0  0  0  0
  -27.3840  -37.1600   24.7560 C   0  0  0  0  0  1  0  0  0  0  0  0
  -26.2910  -37.3270   23.8020 N   0  0  0  0  0  0  0  0  0  0  0  0
  -25.8730  -38.2410   23.9530 H   0  0  0  0  0  0  0  0  0  0  0  0
  -26.2790  -31.6440   25.1020 C   0  0  1  0  0  0  0  0  0  0  0  0
  -25.1760  -31.3780   26.1530 C   0  0  0  0  0  1  0  0  0  0  0  0
  -26.8800  -30.2800   24.6910 C   0  0  0  0  0  1  0  0  0  0  0  0
  -27.4140  -32.4390   25.7900 C   0  0  0  0  0  1  0  0  0  0  0  0
  -30.1410  -21.8180   21.1540 C   0  0  0  0  0  2  0  0  0  0  0  0
  -30.6260  -14.4170   20.1460 C   0  0  0  0  0  0  0  0  0  0  0  0
  -30.2450  -12.3130   18.9140 C   0  0  0  0  0  2  0  0  0  0  0  0
  -29.2400  -12.5660   17.7730 C   0  0  0  0  0  2  0  0  0  0  0  0
  -27.7890  -12.4200   18.2760 C   0  0  0  0  0  2  0  0  0  0  0  0
  -27.5270  -13.2210   19.5790 C   0  0  0  0  0  3  0  0  0  0  0  0
  -28.6330  -12.9400   20.6210 C   0  0  0  0  0  2  0  0  0  0  0  0
  -29.9360  -13.2550   20.0010 N   0  0  0  0  0  0  0  0  0  0  0  0
  -31.6940  -14.6330   19.5630 O   0  0  0  0  0  0  0  0  0  0  0  0
  -29.1830  -17.5760   21.2140 C   0  0  0  0  0  3  0  0  0  0  0  0
  -29.4110  -18.9600   21.3240 C   0  0  0  0  0  3  0  0  0  0  0  0
  -30.2880  -16.7210   21.0100 C   0  0  0  0  0  0  0  0  0  0  0  0
  -30.7470  -19.4070   21.2490 C   0  0  0  0  0  0  0  0  0  0  0  0
  -31.5490  -17.2300   20.9630 N   0  0  0  0  0  0  0  0  0  0  0  0
  -31.7730  -18.5440   21.0840 N   0  0  0  0  0  0  0  0  0  0  0  0
  -29.9950  -15.3430   20.8870 N   0  0  0  0  0  0  0  0  0  0  0  0
  -31.1170  -20.7490   21.3450 N   0  0  0  0  0  0  0  0  0  0  0  0
  -29.1040  -15.0500   21.2560 H   0  0  0  0  0  0  0  0  0  0  0  0
  -32.1030  -20.9770   21.2840 H   0  0  0  0  0  0  0  0  0  0  0  0
  -25.1670  -13.8300   20.4130 C   0  0  0  0  0  0  0  0  0  0  0  0
  -24.1160  -13.0550   20.8270 C   0  0  0  0  0  0  0  0  0  0  0  0
  -24.5690  -11.7030   20.7540 C   0  0  0  0  0  0  0  0  0  0  0  0
  -26.1960  -12.9480   20.1180 N   0  0  0  0  0  0  0  0  0  0  0  0
  -25.8420  -11.6640   20.3780 N   0  0  0  0  0  0  0  0  0  0  0  0
  -23.8500  -10.4410   20.9660 C   0  0  0  0  0  0  0  0  0  0  0  0
  -24.2970   -9.4860   21.9060 C   0  0  0  0  0  3  0  0  0  0  0  0
  -23.5790   -8.2870   22.1050 C   0  0  0  0  0  3  0  0  0  0  0  0
  -22.4010   -8.0350   21.3640 C   0  0  0  0  0  0  0  0  0  0  0  0
  -21.9730   -8.9780   20.4120 C   0  0  0  0  0  3  0  0  0  0  0  0
  -22.6910  -10.1680   20.2110 C   0  0  0  0  0  3  0  0  0  0  0  0
  -21.6540   -6.8860   21.4700 O   0  0  0  0  0  0  0  0  0  0  0  0
  -21.5760   -6.1850   22.6470 C   0  0  0  0  0  0  0  0  0  0  0  0
  -21.1080   -6.7780   23.8390 C   0  0  0  0  0  3  0  0  0  0  0  0
  -20.9790   -6.0020   25.0090 C   0  0  0  0  0  3  0  0  0  0  0  0
  -21.3080   -4.6340   24.9860 C   0  0  0  0  0  0  0  0  0  0  0  0
  -21.7690   -4.0400   23.7980 C   0  0  0  0  0  3  0  0  0  0  0  0
  -21.9000   -4.8130   22.6310 C   0  0  0  0  0  0  0  0  0  0  0  0
  -22.3250   -4.2300   21.4840 F   0  0  0  0  0  0  0  0  0  0  0  0
  -21.1760   -3.8860   26.1070 F   0  0  0  0  0  0  0  0  0  0  0  0
  -22.7360  -13.5330   21.1770 C   0  0  0  0  0  0  0  0  0  0  0  0
  -22.0520  -12.8300   22.0720 N   0  0  0  0  0  0  0  0  0  0  0  0
  -22.2730  -14.5640   20.6900 O   0  0  0  0  0  0  0  0  0  0  0  0
  -22.4400  -11.9960   22.4890 H   0  0  0  0  0  0  0  0  0  0  0  0
  -21.1290  -13.1320   22.3480 H   0  0  0  0  0  0  0  0  0  0  0  0
  -25.3280  -15.2010   20.2430 N   0  0  0  0  0  0  0  0  0  0  0  0
  -24.5610  -15.8510   20.3810 H   0  0  0  0  0  0  0  0  0  0  0  0
  -26.1460  -15.6350   19.8360 H   0  0  0  0  0  0  0  0  0  0  0  0
  1  2  1  0
  3  1  1  0
  4  7  1  0
  4  3  1  0
  5  4  1  0
  6  5  1  0
  8 10  1  0
  8  7  1  0
  9 20  2  0
 10 15  1  0
 11 19  1  0
 11 21  1  0
 12 18  1  0
 12 14  1  0
 13 19  1  0
 14 15  2  0
 14 13  1  0
 16 17  1  0
 16 10  2  0
 17 12  2  0
 18 11  1  0
 19  9  1  0
 21 23  2  0
 22 21  1  0
 24 22  1  0
 25 34  2  0
 25 30  1  0
 26 22  1  0
 26 30  1  0
 27 26  1  0
 28 29  1  0
 28 27  1  0
 29 25  1  0
 30 31  2  0
 31 32  1  0
 33 32  2  0
 34 33  1  0
 35  9  1  0
 35 36  1  0
 35 45  1  0
 36 39  1  0
 37 41  1  0
 37 36  1  0
 38 37  2  0
 41 40  1  0
 43 41  1  0
 43 44  1  0
 43 42  1  0
 45 48  1  1
 45 46  1  0
 47 45  1  0
 49  1  1  0
 49 65  1  0
 50 64  1  0
 51 56  1  0
 52 53  1  0
 52 51  1  0
 54 53  1  0
 54 71  1  0
 54 55  1  0
 56 50  1  0
 56 55  1  0
 57 50  2  0
 58 59  1  0
 60 58  2  0
 61 59  2  0
 61 65  1  0
 62 60  1  0
 62 63  2  0
 63 61  1  0
 64 60  1  0
 64 66  1  0
 67 65  1  0
 68 69  2  0
 69 88  1  0
 70 69  1  0
 70 73  1  0
 71 72  1  0
 71 68  1  0
 72 70  2  0
 73 74  1  0
 74 75  2  0
 76 79  1  0
 76 75  1  0
 77 76  2  0
 78 77  1  0
 78 73  2  0
 79 80  1  0
 80 81  1  0
 81 82  2  0
 83 82  1  0
 83 87  1  0
 84 83  2  0
 85 80  2  0
 85 84  1  0
 86 85  1  0
 88 89  1  0
 89 92  1  0
 89 91  1  0
 90 88  2  0
 93 94  1  0
 93 68  1  0
 95 93  1  0
M  ISO  4   7 101   8 101  50 100  64 100
M  END
>  <TORSDO>  (64) 
F 21

>  <SCORE>  (64) 
-12.754

>  <name>  (64) 
63

>  <ligand_id>  (64) 
63

>  <original_smiles>  (64) 
[H]OC([H])(C([H])([H])Oc1c([H])c([H])c2c(c1[H])C([H])([H])N(C(=O)C([H])(N([H])C(=O)C([H])(N([H])C([H])([H])[H])C([H])([H])[H])C(C([H])([H])[H])(C([H])([H])[H])C([H])([H])[H])C([H])(C(=O)N([H])C1([H])c3c([H])c([H])c([H])c([H])c3C([H])([H])C([H])([H])C1([H])[H])C2([H])[H])C([H])([H])C([H])(F)C([H])([H])N([H])c1nnc(N([H])C(=O)N2C([H])([H])C([H])([H])C([H])([H])C([H])(n3nc(-c4c([H])c([H])c(Oc5c([H])c([H])c(F)c([H])c5F)c([H])c4[H])c(C(=O)N([H])[H])c3N([H])[H])C2([H])[H])c([H])c1[H]

>  <smiles>  (64) 
[H]OC([H])(C([H])([H])Oc1c([H])c([H])c2c(c1[H])C([H])([H])N(C(=O)C([H])(N([H])C(=O)C([H])(N([H])C([H])([H])[H])C([H])([H])[H])C(C([H])([H])[H])(C([H])([H])[H])C([H])([H])[H])C([H])(C(=O)N([H])C1([H])c3c([H])c([H])c([H])c([H])c3C([H])([H])C([H])([H])C1([H])[H])C2([H])[H])C([H])([H])C([H])(F)C([H])([H])N([H])c1nnc(N([H])C(=O)N2C([H])([H])C([H])([H])C([H])([H])C([H])(n3nc(-c4c([H])c([H])c(Oc5c([H])c([H])c(F)c([H])c5F)c([H])c4[H])c(C(=O)N([H])[H])c3N([H])[H])C2([H])[H])c([H])c1[H]

$$$$
64:0:0
     RDKit          3D

100108  0  0  1  0  0  0  0  0999 V2000
  -28.7260  -22.3320   20.4350 C   0  0  0  0  0  0  0  0  0  0  0  0
  -29.1960  -21.0560   19.7550 N   0  0  0  0  0  4  0  0  0  0  0  0
  -28.6000  -20.7950   18.9810 H   0  0  0  0  0  0  0  0  0  0  0  0
  -30.6900  -14.8150   20.0070 C   0  0  0  0  0  0  0  0  0  0  0  0
  -30.4190  -12.5510   18.9660 C   0  0  0  0  0  2  0  0  0  0  0  0
  -29.4040  -12.6120   17.8030 C   0  0  0  0  0  2  0  0  0  0  0  0
  -27.9610  -12.4360   18.3230 C   0  0  0  0  0  2  0  0  0  0  0  0
  -27.6570  -13.3160   19.5630 C   0  0  0  0  0  3  0  0  0  0  0  0
  -28.7850  -13.2360   20.6140 C   0  0  0  0  0  2  0  0  0  0  0  0
  -30.0380  -13.6020   19.9370 N   0  0  0  0  0  0  0  0  0  0  0  0
  -31.8850  -14.8760   19.6770 O   0  0  0  0  0  0  0  0  0  0  0  0
  -30.9680  -20.0520   21.1630 C   0  0  0  0  0  3  0  0  0  0  0  0
  -31.6820  -18.9280   21.6270 C   0  0  0  0  0  2  0  0  0  0  0  0
  -29.8640  -19.8920   20.3070 C   0  0  0  0  0  0  0  0  0  0  0  0
  -29.5290  -18.5160   19.9500 C   0  0  0  0  0  0  0  0  0  0  0  0
  -30.2880  -17.3700   20.4370 C   0  0  0  0  0  0  0  0  0  0  0  0
  -31.3300  -17.6730   21.2560 N   0  0  0  0  0  0  0  0  0  0  0  0
  -29.9240  -15.9600   20.1700 N   0  0  0  0  0  0  0  0  0  0  0  0
  -31.8920  -16.9020   21.6300 H   0  0  0  0  0  0  0  0  0  0  0  0
  -28.9350  -15.8180   20.0800 H   0  0  0  0  0  0  0  0  0  0  0  0
  -25.3300  -13.9030   20.4600 C   0  0  0  0  0  0  0  0  0  0  0  0
  -24.2820  -13.1250   20.8720 C   0  0  0  0  0  0  0  0  0  0  0  0
  -24.7310  -11.7740   20.7750 C   0  0  0  0  0  0  0  0  0  0  0  0
  -26.3480  -13.0230   20.1340 N   0  0  0  0  0  0  0  0  0  0  0  0
  -25.9990  -11.7350   20.3880 N   0  0  0  0  0  0  0  0  0  0  0  0
  -24.0070  -10.5120   20.9750 C   0  0  0  0  0  0  0  0  0  0  0  0
  -24.4600   -9.5390   21.8920 C   0  0  0  0  0  3  0  0  0  0  0  0
  -23.7370   -8.3410   22.0770 C   0  0  0  0  0  3  0  0  0  0  0  0
  -22.5470   -8.1110   21.3460 C   0  0  0  0  0  0  0  0  0  0  0  0
  -22.1150   -9.0720   20.4170 C   0  0  0  0  0  3  0  0  0  0  0  0
  -22.8380  -10.2600   20.2300 C   0  0  0  0  0  3  0  0  0  0  0  0
  -21.7930   -6.9660   21.4440 O   0  0  0  0  0  0  0  0  0  0  0  0
  -21.7330   -6.2400   22.6070 C   0  0  0  0  0  0  0  0  0  0  0  0
  -21.2910   -6.8110   23.8210 C   0  0  0  0  0  3  0  0  0  0  0  0
  -21.1800   -6.0100   24.9750 C   0  0  0  0  0  3  0  0  0  0  0  0
  -21.5000   -4.6400   24.9160 C   0  0  0  0  0  0  0  0  0  0  0  0
  -21.9340   -4.0690   23.7070 C   0  0  0  0  0  3  0  0  0  0  0  0
  -22.0480   -4.8670   22.5550 C   0  0  0  0  0  0  0  0  0  0  0  0
  -22.4460   -4.3070   21.3870 F   0  0  0  0  0  0  0  0  0  0  0  0
  -21.3860   -3.8700   26.0220 F   0  0  0  0  0  0  0  0  0  0  0  0
  -22.9080  -13.6050   21.2390 C   0  0  0  0  0  0  0  0  0  0  0  0
  -22.2310  -12.8900   22.1320 N   0  0  0  0  0  0  0  0  0  0  0  0
  -22.4480  -14.6460   20.7730 O   0  0  0  0  0  0  0  0  0  0  0  0
  -22.6210  -12.0470   22.5270 H   0  0  0  0  0  0  0  0  0  0  0  0
  -21.3110  -13.1900   22.4230 H   0  0  0  0  0  0  0  0  0  0  0  0
  -25.4870  -15.2780   20.3110 N   0  0  0  0  0  0  0  0  0  0  0  0
  -24.7120  -15.9110   20.4780 H   0  0  0  0  0  0  0  0  0  0  0  0
  -26.2770  -15.7390   19.8770 H   0  0  0  0  0  0  0  0  0  0  0  0
  -28.4430  -18.2980   19.0960 N   0  0  0  0  0  0  0  0  0  0  0  0
  -28.6870  -17.8360   18.2260 H   0  0  0  0  0  0  0  0  0  0  0  0
  -27.9310  -19.1410   18.8760 H   0  0  0  0  0  0  0  0  0  0  0  0
  -27.3930  -22.8240   22.5860 C   0  0  0  0  0  1  0  0  0  0  0  0
  -28.6860  -22.2240   22.0000 C   0  0  0  0  0  3  0  0  0  0  0  0
  -30.1950  -22.1040   24.0970 C   0  0  0  0  0  1  0  0  0  0  0  0
  -29.9440  -22.7520   22.7310 C   0  0  0  0  0  2  0  0  0  0  0  0
  -29.0680  -23.7870   19.7690 C   0  0  0  0  0  3  0  0  0  0  0  0
  -30.4290  -24.0600   20.0530 O   0  0  0  0  0  0  0  0  0  0  0  0
  -30.5090  -24.0970   20.9990 H   0  0  0  0  0  0  0  0  0  0  0  0
  -28.1880  -25.0720   20.2280 C   0  0  0  0  0  2  0  0  0  0  0  0
  -28.3520  -26.4630   19.6850 O   0  0  0  0  0  0  0  0  0  0  0  0
  -24.6470  -31.7460   23.0490 C   0  0  0  0  0  0  0  0  0  0  0  0
  -27.2350  -27.3250   19.7400 C   0  0  0  0  0  0  0  0  0  0  0  0
  -23.4130  -30.3780   21.4070 C   0  0  0  0  0  3  0  0  0  0  0  0
  -24.8430  -28.9060   19.8790 C   0  0  0  0  0  0  0  0  0  0  0  0
  -25.9410  -30.7480   21.1490 C   0  0  0  0  0  2  0  0  0  0  0  0
  -26.0260  -29.3900   20.4520 C   0  0  0  0  0  0  0  0  0  0  0  0
  -27.2240  -28.6090   20.3790 C   0  0  0  0  0  3  0  0  0  0  0  0
  -26.0290  -26.9140   19.1280 C   0  0  0  0  0  3  0  0  0  0  0  0
  -24.8480  -27.6720   19.2100 C   0  0  0  0  0  3  0  0  0  0  0  0
  -23.5940  -29.7540   20.0000 C   0  0  0  0  0  2  0  0  0  0  0  0
  -24.6880  -30.9740   21.9240 N   0  0  0  0  0  0  0  0  0  0  0  0
  -23.5780  -31.9820   23.6330 O   0  0  0  0  0  0  0  0  0  0  0  0
  -22.8060  -29.3170   22.3550 C   0  0  0  0  0  0  0  0  0  0  0  0
  -21.4860  -29.0950   22.2490 N   0  0  0  0  0  0  0  0  0  0  0  0
  -23.5220  -28.6980   23.1460 O   0  0  0  0  0  0  0  0  0  0  0  0
  -20.9650  -29.6480   21.5820 H   0  0  0  0  0  0  0  0  0  0  0  0
  -18.1700  -27.7320   22.7430 C   0  0  0  0  0  0  0  0  0  0  0  0
  -20.7130  -28.1120   23.0120 C   0  0  0  0  0  3  0  0  0  0  0  0
  -20.8850  -26.6940   22.4210 C   0  0  0  0  0  2  0  0  0  0  0  0
  -19.7990  -26.3280   21.4060 C   0  0  0  0  0  2  0  0  0  0  0  0
  -18.4120  -26.3990   22.0530 C   0  0  0  0  0  2  0  0  0  0  0  0
  -19.2520  -28.5420   23.1770 C   0  0  0  0  0  0  0  0  0  0  0  0
  -18.9760  -29.7870   23.7830 C   0  0  0  0  0  3  0  0  0  0  0  0
  -17.6490  -30.2210   23.9640 C   0  0  0  0  0  3  0  0  0  0  0  0
  -16.5810  -29.4070   23.5470 C   0  0  0  0  0  3  0  0  0  0  0  0
  -16.8420  -28.1660   22.9400 C   0  0  0  0  0  3  0  0  0  0  0  0
  -25.9370  -32.3880   23.6460 C   0  0  0  0  0  3  0  0  0  0  0  0
  -25.6010  -33.7580   24.0580 N   0  0  0  0  0  0  0  0  0  0  0  0
  -25.8710  -34.8580   23.3430 C   0  0  0  0  0  0  0  0  0  0  0  0
  -26.4950  -34.8260   22.2790 O   0  0  0  0  0  0  0  0  0  0  0  0
  -25.0360  -33.8520   24.8880 H   0  0  0  0  0  0  0  0  0  0  0  0
  -24.0690  -36.6090   23.1700 C   0  0  0  0  0  1  0  0  0  0  0  0
  -25.3660  -36.2080   23.8900 C   0  0  0  0  0  3  0  0  0  0  0  0
  -27.5140  -37.1250   24.6470 C   0  0  0  0  0  1  0  0  0  0  0  0
  -26.3570  -37.3000   23.7730 N   0  0  0  0  0  0  0  0  0  0  0  0
  -25.9330  -38.1980   23.9890 H   0  0  0  0  0  0  0  0  0  0  0  0
  -26.5290  -31.5710   24.8610 C   0  0  1  0  0  0  0  0  0  0  0  0
  -25.4930  -31.2530   25.9650 C   0  0  0  0  0  1  0  0  0  0  0  0
  -27.1270  -30.2290   24.3810 C   0  0  0  0  0  1  0  0  0  0  0  0
  -27.6900  -32.3630   25.5060 C   0  0  0  0  0  1  0  0  0  0  0  0
  1 53  1  0
  2 14  1  0
  2  1  2  0
  3  2  1  0
  4 18  1  0
  5 10  1  0
  6  7  1  0
  6  5  1  0
  8  7  1  0
  8 24  1  0
  8  9  1  0
 10  4  1  0
 10  9  1  0
 11  4  2  0
 12 13  1  0
 14 12  2  0
 15 14  1  0
 15 16  2  0
 16 17  1  0
 17 13  1  0
 17 19  1  0
 18 16  1  0
 20 18  1  0
 21 22  2  0
 22 41  1  0
 23 22  1  0
 23 26  1  0
 24 25  1  0
 24 21  1  0
 25 23  2  0
 26 27  1  0
 27 28  2  0
 29 32  1  0
 29 28  1  0
 30 29  2  0
 31 30  1  0
 31 26  2  0
 32 33  1  0
 33 34  1  0
 34 35  2  0
 36 35  1  0
 36 40  1  0
 37 36  2  0
 38 33  2  0
 38 37  1  0
 39 38  1  0
 41 42  1  0
 42 45  1  0
 42 44  1  0
 43 41  2  0
 46 21  1  0
 46 47  1  0
 48 46  1  0
 49 15  1  0
 50 49  1  0
 51 49  1  0
 53 52  1  0
 53 55  1  0
 55 54  1  0
 56 57  1  0
 56 59  1  0
 56  1  1  0
 57 58  1  0
 60 62  1  0
 60 59  1  0
 61 72  2  0
 62 67  1  0
 63 71  1  0
 63 73  1  0
 64 70  1  0
 64 66  1  0
 65 71  1  0
 66 65  1  0
 67 66  2  0
 68 69  1  0
 68 62  2  0
 69 64  2  0
 70 63  1  0
 71 61  1  0
 73 75  2  0
 74 73  1  0
 76 74  1  0
 77 86  2  0
 77 82  1  0
 78 74  1  0
 78 82  1  0
 79 78  1  0
 80 81  1  0
 80 79  1  0
 81 77  1  0
 82 83  2  0
 83 84  1  0
 85 84  2  0
 86 85  1  0
 87 61  1  0
 87 88  1  0
 87 97  1  0
 88 91  1  0
 89 93  1  0
 89 88  1  0
 90 89  2  0
 93 92  1  0
 95 93  1  0
 95 96  1  0
 95 94  1  0
 97100  1  1
 97 98  1  0
 99 97  1  0
M  ISO  4   4 100  18 100  59 101  60 101
M  END
>  <TORSDO>  (65) 
F 23

>  <SCORE>  (65) 
-12.531

>  <name>  (65) 
64

>  <ligand_id>  (65) 
64

>  <original_smiles>  (65) 
[H]OC([H])(C([H])([H])Oc1c([H])c([H])c2c(c1[H])C([H])([H])N(C(=O)C([H])(N([H])C(=O)C([H])(N([H])C([H])([H])[H])C([H])([H])[H])C(C([H])([H])[H])(C([H])([H])[H])C([H])([H])[H])C([H])(C(=O)N([H])C1([H])c3c([H])c([H])c([H])c([H])c3C([H])([H])C([H])([H])C1([H])[H])C2([H])[H])C([H])(N([H])c1c([H])c([H])[n+]([H])c(N([H])C(=O)N2C([H])([H])C([H])([H])C([H])([H])C([H])(n3nc(-c4c([H])c([H])c(Oc5c([H])c([H])c(F)c([H])c5F)c([H])c4[H])c(C(=O)N([H])[H])c3N([H])[H])C2([H])[H])c1N([H])[H])C([H])(C([H])([H])[H])C([H])([H])C([H])([H])[H]

>  <smiles>  (65) 
[H]OC([H])(C([H])([H])Oc1c([H])c([H])c2c(c1[H])C([H])([H])N(C(=O)C([H])(N([H])C(=O)C([H])(N([H])C([H])([H])[H])C([H])([H])[H])C(C([H])([H])[H])(C([H])([H])[H])C([H])([H])[H])C([H])(C(=O)N([H])C1([H])c3c([H])c([H])c([H])c([H])c3C([H])([H])C([H])([H])C1([H])[H])C2([H])[H])C([H])(N([H])c1c([H])c([H])[n+]([H])c(N([H])C(=O)N2C([H])([H])C([H])([H])C([H])([H])C([H])(n3nc(-c4c([H])c([H])c(Oc5c([H])c([H])c(F)c([H])c5F)c([H])c4[H])c(C(=O)N([H])[H])c3N([H])[H])C2([H])[H])c1N([H])[H])C([H])(C([H])([H])[H])C([H])([H])C([H])([H])[H]

$$$$
65:0:0
     RDKit          3D

 90 97  0  0  1  0  0  0  0  0999 V2000
  -28.5950  -21.8130   20.4220 C   0  0  0  0  0  0  0  0  0  0  0  0
  -29.4190  -20.6560   20.2490 N   0  0  0  0  0  0  0  0  0  0  0  0
  -27.3940  -21.6260   20.6120 O   0  0  0  0  0  0  0  0  0  0  0  0
  -30.4020  -20.8700   20.1350 H   0  0  0  0  0  0  0  0  0  0  0  0
  -29.0560  -23.4100   20.4080 C   0  0  0  0  0  3  0  0  0  0  0  0
  -28.0080  -24.7260   20.2000 C   0  0  0  0  0  3  0  0  0  0  0  0
  -28.2790  -26.2590   20.3590 O   0  0  0  0  0  0  0  0  0  0  0  0
  -24.6090  -31.9420   23.3190 C   0  0  0  0  0  0  0  0  0  0  0  0
  -27.2180  -27.2380   20.2940 C   0  0  0  0  0  0  0  0  0  0  0  0
  -23.4210  -30.5400   21.6770 C   0  0  0  0  0  3  0  0  0  0  0  0
  -24.8820  -28.9740   20.2550 C   0  0  0  0  0  0  0  0  0  0  0  0
  -25.9740  -30.8180   21.5180 C   0  0  0  0  0  2  0  0  0  0  0  0
  -26.0560  -29.4250   20.8710 C   0  0  0  0  0  0  0  0  0  0  0  0
  -27.2250  -28.5720   20.8730 C   0  0  0  0  0  3  0  0  0  0  0  0
  -26.0140  -26.8900   19.6440 C   0  0  0  0  0  3  0  0  0  0  0  0
  -24.8740  -27.7210   19.6260 C   0  0  0  0  0  3  0  0  0  0  0  0
  -23.6480  -29.8640   20.2990 C   0  0  0  0  0  2  0  0  0  0  0  0
  -24.6870  -31.1230   22.2260 N   0  0  0  0  0  0  0  0  0  0  0  0
  -23.5210  -32.2210   23.8450 O   0  0  0  0  0  0  0  0  0  0  0  0
  -22.7450  -29.5310   22.6380 C   0  0  0  0  0  0  0  0  0  0  0  0
  -21.4200  -29.3380   22.4950 N   0  0  0  0  0  0  0  0  0  0  0  0
  -23.4140  -28.9210   23.4760 O   0  0  0  0  0  0  0  0  0  0  0  0
  -20.9370  -29.8830   21.7940 H   0  0  0  0  0  0  0  0  0  0  0  0
  -18.0500  -28.0990   22.9620 C   0  0  0  0  0  0  0  0  0  0  0  0
  -20.6010  -28.3960   23.2610 C   0  0  0  0  0  3  0  0  0  0  0  0
  -20.7280  -26.9620   22.6950 C   0  0  0  0  0  2  0  0  0  0  0  0
  -19.6430  -26.6190   21.6690 C   0  0  0  0  0  2  0  0  0  0  0  0
  -18.2530  -26.7490   22.2960 C   0  0  0  0  0  2  0  0  0  0  0  0
  -19.1520  -28.8790   23.4010 C   0  0  0  0  0  0  0  0  0  0  0  0
  -18.9080  -30.1410   23.9850 C   0  0  0  0  0  3  0  0  0  0  0  0
  -17.5940  -30.6220   24.1350 C   0  0  0  0  0  3  0  0  0  0  0  0
  -16.5050  -29.8400   23.7120 C   0  0  0  0  0  3  0  0  0  0  0  0
  -16.7340  -28.5790   23.1310 C   0  0  0  0  0  3  0  0  0  0  0  0
  -25.8820  -32.5840   23.9500 C   0  0  0  0  0  3  0  0  0  0  0  0
  -25.5770  -33.9950   24.2410 N   0  0  0  0  0  0  0  0  0  0  0  0
  -25.9170  -35.0270   23.4570 C   0  0  0  0  0  0  0  0  0  0  0  0
  -26.5880  -34.8930   22.4310 O   0  0  0  0  0  0  0  0  0  0  0  0
  -24.9820  -34.1740   25.0370 H   0  0  0  0  0  0  0  0  0  0  0  0
  -24.2060  -36.8290   23.0540 C   0  0  0  0  0  1  0  0  0  0  0  0
  -25.4400  -36.4310   23.8790 C   0  0  0  0  0  3  0  0  0  0  0  0
  -27.5720  -37.3310   24.7030 C   0  0  0  0  0  1  0  0  0  0  0  0
  -26.4820  -37.4740   23.7420 N   0  0  0  0  0  0  0  0  0  0  0  0
  -26.0800  -38.4000   23.8540 H   0  0  0  0  0  0  0  0  0  0  0  0
  -26.3630  -31.8460   25.2610 C   0  0  1  0  0  0  0  0  0  0  0  0
  -25.2460  -31.6440   26.3110 C   0  0  0  0  0  1  0  0  0  0  0  0
  -26.9440  -30.4530   24.9240 C   0  0  0  0  0  1  0  0  0  0  0  0
  -27.5050  -32.6500   25.9260 C   0  0  0  0  0  1  0  0  0  0  0  0
  -29.0780  -19.1030   20.0900 C   0  0  0  0  0  3  0  0  0  0  0  0
  -28.1280  -19.9800   17.7540 C   0  0  0  0  0  1  0  0  0  0  0  0
  -27.5170  -17.7130   18.5750 C   0  0  0  0  0  1  0  0  0  0  0  0
  -28.6100  -18.7950   18.6200 C   0  0  0  0  0  3  0  0  0  0  0  0
  -30.1360  -17.8510   20.5630 C   0  0  0  0  0  2  0  0  0  0  0  0
  -30.5860  -15.1050   20.4520 C   0  0  0  0  0  0  0  0  0  0  0  0
  -30.4800  -12.7450   19.5190 C   0  0  0  0  0  2  0  0  0  0  0  0
  -29.5670  -12.6920   18.2710 C   0  0  0  0  0  2  0  0  0  0  0  0
  -28.0980  -12.4800   18.6810 C   0  0  0  0  0  2  0  0  0  0  0  0
  -27.6720  -13.4030   19.8520 C   0  0  0  0  0  3  0  0  0  0  0  0
  -28.7100  -13.4330   20.9950 C   0  0  0  0  0  2  0  0  0  0  0  0
  -29.9880  -13.8450   20.3990 N   0  0  0  0  0  0  0  0  0  0  0  0
  -31.7920  -15.1640   20.1940 O   0  0  0  0  0  0  0  0  0  0  0  0
  -29.8090  -16.2910   20.5930 N   0  0  0  0  0  0  0  0  0  0  0  0
  -28.8350  -16.0930   20.7620 H   0  0  0  0  0  0  0  0  0  0  0  0
  -25.2840  -13.9790   20.5660 C   0  0  0  0  0  0  0  0  0  0  0  0
  -24.2150  -13.2040   20.9140 C   0  0  0  0  0  0  0  0  0  0  0  0
  -24.6770  -11.8530   20.8770 C   0  0  0  0  0  0  0  0  0  0  0  0
  -26.3290  -13.1020   20.3310 N   0  0  0  0  0  0  0  0  0  0  0  0
  -25.9720  -11.8160   20.5830 N   0  0  0  0  0  0  0  0  0  0  0  0
  -23.9440  -10.5920   21.0440 C   0  0  0  0  0  0  0  0  0  0  0  0
  -24.3500   -9.6200   21.9850 C   0  0  0  0  0  3  0  0  0  0  0  0
  -23.6150   -8.4240   22.1410 C   0  0  0  0  0  3  0  0  0  0  0  0
  -22.4610   -8.1920   21.3550 C   0  0  0  0  0  0  0  0  0  0  0  0
  -22.0750   -9.1540   20.4040 C   0  0  0  0  0  3  0  0  0  0  0  0
  -22.8110  -10.3410   20.2470 C   0  0  0  0  0  3  0  0  0  0  0  0
  -21.7020   -7.0500   21.4190 O   0  0  0  0  0  0  0  0  0  0  0  0
  -21.6060   -6.3120   22.5730 C   0  0  0  0  0  0  0  0  0  0  0  0
  -21.0870   -6.8600   23.7660 C   0  0  0  0  0  3  0  0  0  0  0  0
  -20.9410   -6.0480   24.9090 C   0  0  0  0  0  3  0  0  0  0  0  0
  -21.3070   -4.6900   24.8590 C   0  0  0  0  0  0  0  0  0  0  0  0
  -21.8190   -4.1420   23.6700 C   0  0  0  0  0  3  0  0  0  0  0  0
  -21.9660   -4.9500   22.5290 C   0  0  0  0  0  0  0  0  0  0  0  0
  -22.4410   -4.4110   21.3800 F   0  0  0  0  0  0  0  0  0  0  0  0
  -21.1610   -3.9070   25.9530 F   0  0  0  0  0  0  0  0  0  0  0  0
  -22.8150  -13.6830   21.1670 C   0  0  0  0  0  0  0  0  0  0  0  0
  -22.0740  -12.9840   22.0180 N   0  0  0  0  0  0  0  0  0  0  0  0
  -22.3900  -14.7140   20.6490 O   0  0  0  0  0  0  0  0  0  0  0  0
  -22.4340  -12.1480   22.4580 H   0  0  0  0  0  0  0  0  0  0  0  0
  -21.1360  -13.2860   22.2340 H   0  0  0  0  0  0  0  0  0  0  0  0
  -25.4460  -15.3510   20.4030 N   0  0  0  0  0  0  0  0  0  0  0  0
  -24.6630  -15.9880   20.4950 H   0  0  0  0  0  0  0  0  0  0  0  0
  -26.2700  -15.7890   20.0160 H   0  0  0  0  0  0  0  0  0  0  0  0
  1  3  2  0
  2  1  1  0
  4  2  1  0
  5  1  1  0
  6  7  1  0
  6  5  2  0
  8 19  2  0
  9  7  1  0
  9 14  1  0
 10 18  1  0
 10 20  1  0
 11 17  1  0
 11 13  1  0
 12 18  1  0
 13 14  2  0
 13 12  1  0
 15  9  2  0
 16 15  1  0
 16 11  2  0
 17 10  1  0
 18  8  1  0
 20 22  2  0
 21 20  1  0
 23 21  1  0
 24 33  2  0
 24 29  1  0
 25 21  1  0
 25 29  1  0
 26 25  1  0
 27 28  1  0
 27 26  1  0
 28 24  1  0
 29 30  2  0
 30 31  1  0
 32 31  2  0
 33 32  1  0
 34  8  1  0
 34 35  1  0
 34 44  1  0
 35 38  1  0
 36 40  1  0
 36 35  1  0
 37 36  2  0
 40 39  1  0
 42 43  1  0
 42 40  1  0
 42 41  1  0
 44 47  1  1
 44 45  1  0
 46 44  1  0
 48  2  1  0
 48 52  1  0
 49 51  1  0
 50 51  1  0
 51 48  1  0
 52 61  1  0
 53 61  1  0
 54 59  1  0
 55 56  1  0
 55 54  1  0
 57 56  1  0
 57 66  1  0
 57 58  1  0
 59 53  1  0
 59 58  1  0
 60 53  2  0
 61 62  1  0
 63 64  2  0
 64 83  1  0
 65 64  1  0
 65 68  1  0
 66 63  1  0
 66 67  1  0
 67 65  2  0
 68 69  1  0
 69 70  2  0
 71 74  1  0
 71 70  1  0
 72 71  2  0
 73 72  1  0
 73 68  2  0
 74 75  1  0
 75 76  1  0
 76 77  2  0
 78 77  1  0
 78 82  1  0
 79 78  2  0
 80 75  2  0
 80 79  1  0
 81 80  1  0
 83 84  1  0
 84 87  1  0
 84 86  1  0
 85 83  2  0
 88 89  1  0
 88 63  1  0
 90 88  1  0
M  ISO  4   6 101   7 101  53 100  61 100
M  END
>  <TORSDO>  (66) 
F 21

>  <SCORE>  (66) 
-14.650

>  <name>  (66) 
65

>  <ligand_id>  (66) 
65

>  <original_smiles>  (66) 
[H]c1c([H])c([H])c2c(c1[H])C([H])([H])C([H])([H])C([H])([H])C2([H])N([H])C(=O)C1([H])N(C(=O)C([H])(N([H])C(=O)C([H])(N([H])C([H])([H])[H])C([H])([H])[H])C(C([H])([H])[H])(C([H])([H])[H])C([H])([H])[H])C([H])([H])c2c([H])c(OC([H])([H])C([H])([H])C(=O)N([H])C([H])(C([H])([H])N([H])C(=O)N3C([H])([H])C([H])([H])C([H])([H])C([H])(n4nc(-c5c([H])c([H])c(Oc6c([H])c([H])c(F)c([H])c6F)c([H])c5[H])c(C(=O)N([H])[H])c4N([H])[H])C3([H])[H])C([H])(C([H])([H])[H])C([H])([H])[H])c([H])c([H])c2C1([H])[H]

>  <smiles>  (66) 
[H]c1c([H])c([H])c2c(c1[H])C([H])([H])C([H])([H])C([H])([H])C2([H])N([H])C(=O)C1([H])N(C(=O)C([H])(N([H])C(=O)C([H])(N([H])C([H])([H])[H])C([H])([H])[H])C(C([H])([H])[H])(C([H])([H])[H])C([H])([H])[H])C([H])([H])c2c([H])c(OC([H])([H])C([H])([H])C(=O)N([H])C([H])(C([H])([H])N([H])C(=O)N3C([H])([H])C([H])([H])C([H])([H])C([H])(n4nc(-c5c([H])c([H])c(Oc6c([H])c([H])c(F)c([H])c6F)c([H])c5[H])c(C(=O)N([H])[H])c4N([H])[H])C3([H])[H])C([H])(C([H])([H])[H])C([H])([H])[H])c([H])c([H])c2C1([H])[H]

$$$$
66:0:0
     RDKit          3D

 91 99  0  0  1  0  0  0  0  0999 V2000
  -28.8400  -22.1260   19.9390 C   0  0  0  0  0  2  0  0  0  0  0  0
  -30.5720  -14.7740   20.3650 C   0  0  0  0  0  0  0  0  0  0  0  0
  -30.3880  -12.4850   19.3730 C   0  0  0  0  0  2  0  0  0  0  0  0
  -29.4530  -12.5550   18.1440 C   0  0  0  0  0  2  0  0  0  0  0  0
  -27.9830  -12.3750   18.5690 C   0  0  0  0  0  2  0  0  0  0  0  0
  -27.6040  -13.2620   19.7860 C   0  0  0  0  0  3  0  0  0  0  0  0
  -28.6610  -13.1770   20.9110 C   0  0  0  0  0  2  0  0  0  0  0  0
  -29.9610  -13.5360   20.3290 N   0  0  0  0  0  0  0  0  0  0  0  0
  -31.7340  -14.8850   19.9640 O   0  0  0  0  0  0  0  0  0  0  0  0
  -29.5690  -19.5870   20.2780 C   0  0  0  0  0  0  0  0  0  0  0  0
  -29.9380  -17.3090   20.3240 C   0  0  0  0  0  3  0  0  0  0  0  0
  -29.3840  -18.3960   20.9570 N   0  0  0  0  0  0  0  0  0  0  0  0
  -30.2180  -19.4920   19.1050 N   0  0  0  0  0  2  0  0  0  0  0  0
  -29.1630  -20.8890   20.7680 N   0  0  0  0  0  0  0  0  0  0  0  0
  -29.8280  -15.8850   20.7420 N   0  0  0  0  0  0  0  0  0  0  0  0
  -30.6890  -17.8630   18.8420 S   0  0  0  0  0  0  0  0  0  0  0  0
  -28.7480  -20.9060   21.6950 H   0  0  0  0  0  0  0  0  0  0  0  0
  -28.9860  -15.6640   21.2480 H   0  0  0  0  0  0  0  0  0  0  0  0
  -25.2120  -13.8490   20.5010 C   0  0  0  0  0  0  0  0  0  0  0  0
  -24.1470  -13.0740   20.8740 C   0  0  0  0  0  0  0  0  0  0  0  0
  -24.6140  -11.7240   20.8510 C   0  0  0  0  0  0  0  0  0  0  0  0
  -26.2590  -12.9710   20.2730 N   0  0  0  0  0  0  0  0  0  0  0  0
  -25.9060  -11.6880   20.5450 N   0  0  0  0  0  0  0  0  0  0  0  0
  -23.8890  -10.4600   21.0450 C   0  0  0  0  0  0  0  0  0  0  0  0
  -24.3340   -9.4880   21.9690 C   0  0  0  0  0  3  0  0  0  0  0  0
  -23.6080   -8.2910   22.1520 C   0  0  0  0  0  3  0  0  0  0  0  0
  -22.4250   -8.0570   21.4130 C   0  0  0  0  0  0  0  0  0  0  0  0
  -22.0000   -9.0170   20.4780 C   0  0  0  0  0  3  0  0  0  0  0  0
  -22.7250  -10.2060   20.2920 C   0  0  0  0  0  3  0  0  0  0  0  0
  -21.6700   -6.9120   21.5060 O   0  0  0  0  0  0  0  0  0  0  0  0
  -21.6480   -6.1560   22.6500 C   0  0  0  0  0  0  0  0  0  0  0  0
  -21.2650   -6.6990   23.8960 C   0  0  0  0  0  3  0  0  0  0  0  0
  -21.1880   -5.8700   25.0330 C   0  0  0  0  0  3  0  0  0  0  0  0
  -21.4860   -4.4980   24.9260 C   0  0  0  0  0  0  0  0  0  0  0  0
  -21.8630   -3.9530   23.6860 C   0  0  0  0  0  3  0  0  0  0  0  0
  -21.9400   -4.7800   22.5500 C   0  0  0  0  0  0  0  0  0  0  0  0
  -22.2830   -4.2470   21.3530 F   0  0  0  0  0  0  0  0  0  0  0  0
  -21.4060   -3.7000   26.0160 F   0  0  0  0  0  0  0  0  0  0  0  0
  -22.7480  -13.5480   21.1400 C   0  0  0  0  0  0  0  0  0  0  0  0
  -22.0200  -12.8580   22.0100 N   0  0  0  0  0  0  0  0  0  0  0  0
  -22.3090  -14.5680   20.6100 O   0  0  0  0  0  0  0  0  0  0  0  0
  -22.3870  -12.0330   22.4600 H   0  0  0  0  0  0  0  0  0  0  0  0
  -21.0810  -13.1600   22.2300 H   0  0  0  0  0  0  0  0  0  0  0  0
  -25.3710  -15.2180   20.3170 N   0  0  0  0  0  0  0  0  0  0  0  0
  -24.5980  -15.8680   20.4210 H   0  0  0  0  0  0  0  0  0  0  0  0
  -26.2120  -15.6620   19.9700 H   0  0  0  0  0  0  0  0  0  0  0  0
  -28.8670  -23.6030   20.6410 C   0  0  0  0  0  3  0  0  0  0  0  0
  -28.3370  -23.3830   21.9390 O   0  0  0  0  0  0  0  0  0  0  0  0
  -28.4370  -24.1960   22.4250 H   0  0  0  0  0  0  0  0  0  0  0  0
  -28.0270  -24.8460   19.9840 C   0  0  0  0  0  2  0  0  0  0  0  0
  -28.2560  -26.3160   20.2800 O   0  0  0  0  0  0  0  0  0  0  0  0
  -24.6160  -31.8830   23.2330 C   0  0  0  0  0  0  0  0  0  0  0  0
  -27.1800  -27.2430   20.1880 C   0  0  0  0  0  0  0  0  0  0  0  0
  -23.4020  -30.4870   21.6030 C   0  0  0  0  0  3  0  0  0  0  0  0
  -24.8400  -28.9270   20.1680 C   0  0  0  0  0  0  0  0  0  0  0  0
  -25.9490  -30.7730   21.4170 C   0  0  0  0  0  2  0  0  0  0  0  0
  -26.0170  -29.3880   20.7700 C   0  0  0  0  0  0  0  0  0  0  0  0
  -27.1870  -28.5580   20.7730 C   0  0  0  0  0  3  0  0  0  0  0  0
  -25.9850  -26.8710   19.5270 C   0  0  0  0  0  3  0  0  0  0  0  0
  -24.8320  -27.6780   19.5330 C   0  0  0  0  0  3  0  0  0  0  0  0
  -23.6110  -29.8130   20.2210 C   0  0  0  0  0  2  0  0  0  0  0  0
  -24.6760  -31.0660   22.1400 N   0  0  0  0  0  0  0  0  0  0  0  0
  -23.5350  -32.1680   23.7680 O   0  0  0  0  0  0  0  0  0  0  0  0
  -22.7350  -29.4750   22.5660 C   0  0  0  0  0  0  0  0  0  0  0  0
  -21.4070  -29.3050   22.4470 N   0  0  0  0  0  0  0  0  0  0  0  0
  -23.4130  -28.8470   23.3850 O   0  0  0  0  0  0  0  0  0  0  0  0
  -20.9190  -29.8650   21.7630 H   0  0  0  0  0  0  0  0  0  0  0  0
  -18.0260  -28.1190   22.9620 C   0  0  0  0  0  0  0  0  0  0  0  0
  -20.5870  -28.3740   23.2240 C   0  0  0  0  0  3  0  0  0  0  0  0
  -20.6830  -26.9380   22.6550 C   0  0  0  0  0  2  0  0  0  0  0  0
  -19.5780  -26.6140   21.6450 C   0  0  0  0  0  2  0  0  0  0  0  0
  -18.1980  -26.7660   22.2910 C   0  0  0  0  0  2  0  0  0  0  0  0
  -19.1480  -28.8800   23.3860 C   0  0  0  0  0  0  0  0  0  0  0  0
  -18.9330  -30.1460   23.9730 C   0  0  0  0  0  3  0  0  0  0  0  0
  -17.6300  -30.6510   24.1410 C   0  0  0  0  0  3  0  0  0  0  0  0
  -16.5230  -29.8870   23.7330 C   0  0  0  0  0  3  0  0  0  0  0  0
  -16.7220  -28.6220   23.1490 C   0  0  0  0  0  3  0  0  0  0  0  0
  -25.9010  -32.5140   23.8490 C   0  0  0  0  0  3  0  0  0  0  0  0
  -26.4240  -31.7390   25.1220 C   0  0  1  0  0  0  0  0  0  0  0  0
  -25.3370  -31.5040   26.1970 C   0  0  0  0  0  1  0  0  0  0  0  0
  -27.0000  -30.3610   24.7260 C   0  0  0  0  0  1  0  0  0  0  0  0
  -27.5800  -32.5290   25.7780 C   0  0  0  0  0  1  0  0  0  0  0  0
  -25.5930  -33.9110   24.1870 N   0  0  0  0  0  0  0  0  0  0  0  0
  -25.9170  -34.9690   23.4300 C   0  0  0  0  0  0  0  0  0  0  0  0
  -26.5750  -34.8700   22.3910 O   0  0  0  0  0  0  0  0  0  0  0  0
  -25.0090  -34.0610   24.9960 H   0  0  0  0  0  0  0  0  0  0  0  0
  -24.1810  -36.7620   23.1100 C   0  0  0  0  0  1  0  0  0  0  0  0
  -25.4350  -36.3560   23.9000 C   0  0  0  0  0  3  0  0  0  0  0  0
  -27.5830  -37.2400   24.6970 C   0  0  0  0  0  1  0  0  0  0  0  0
  -26.4640  -37.4100   23.7740 N   0  0  0  0  0  0  0  0  0  0  0  0
  -26.0600  -38.3300   23.9320 H   0  0  0  0  0  0  0  0  0  0  0  0
  1 14  1  0
  2 15  1  0
  3  8  1  0
  4  5  1  0
  4  3  1  0
  6  5  1  0
  6 22  1  0
  6  7  1  0
  8  2  1  0
  8  7  1  0
  9  2  2  0
 10 14  1  0
 10 12  2  0
 11 15  1  0
 11 12  1  0
 13 10  1  0
 14 17  1  0
 15 18  1  0
 16 13  1  0
 16 11  1  0
 19 20  2  0
 20 39  1  0
 21 20  1  0
 21 24  1  0
 22 19  1  0
 22 23  1  0
 23 21  2  0
 24 25  1  0
 25 26  2  0
 27 30  1  0
 27 26  1  0
 28 27  2  0
 29 28  1  0
 29 24  2  0
 30 31  1  0
 31 32  1  0
 32 33  2  0
 34 33  1  0
 34 38  1  0
 35 34  2  0
 36 31  2  0
 36 35  1  0
 37 36  1  0
 39 40  1  0
 40 43  1  0
 40 42  1  0
 41 39  2  0
 44 45  1  0
 44 19  1  0
 46 44  1  0
 47  1  1  0
 47 48  1  0
 48 49  1  0
 50 51  1  0
 50 47  1  0
 52 63  2  0
 53 51  1  0
 53 58  1  0
 54 62  1  0
 54 64  1  0
 55 61  1  0
 55 57  1  0
 56 62  1  0
 57 58  2  0
 57 56  1  0
 59 60  1  0
 59 53  2  0
 60 55  2  0
 61 54  1  0
 62 52  1  0
 64 66  2  0
 65 64  1  0
 67 65  1  0
 68 77  2  0
 68 73  1  0
 69 65  1  0
 69 73  1  0
 70 69  1  0
 71 72  1  0
 71 70  1  0
 72 68  1  0
 73 74  2  0
 74 75  1  0
 76 75  2  0
 77 76  1  0
 78 52  1  0
 78 83  1  0
 78 79  1  0
 79 82  1  1
 79 80  1  0
 81 79  1  0
 83 86  1  0
 84 88  1  0
 84 83  1  0
 85 84  2  0
 88 87  1  0
 90 88  1  0
 90 91  1  0
 90 89  1  0
M  ISO  4   2 100  15 100  50 101  51 101
M  END
>  <TORSDO>  (67) 
F 19

>  <SCORE>  (67) 
-14.482

>  <name>  (67) 
66

>  <ligand_id>  (67) 
66

>  <original_smiles>  (67) 
[H]OC([H])(C([H])([H])Oc1c([H])c([H])c2c(c1[H])C([H])([H])N(C(=O)C([H])(N([H])C(=O)C([H])(N([H])C([H])([H])[H])C([H])([H])[H])C(C([H])([H])[H])(C([H])([H])[H])C([H])([H])[H])C([H])(C(=O)N([H])C1([H])c3c([H])c([H])c([H])c([H])c3C([H])([H])C([H])([H])C1([H])[H])C2([H])[H])C([H])([H])N([H])c1nsc(N([H])C(=O)N2C([H])([H])C([H])([H])C([H])([H])C([H])(n3nc(-c4c([H])c([H])c(Oc5c([H])c([H])c(F)c([H])c5F)c([H])c4[H])c(C(=O)N([H])[H])c3N([H])[H])C2([H])[H])n1

>  <smiles>  (67) 
[H]OC([H])(C([H])([H])Oc1c([H])c([H])c2c(c1[H])C([H])([H])N(C(=O)C([H])(N([H])C(=O)C([H])(N([H])C([H])([H])[H])C([H])([H])[H])C(C([H])([H])[H])(C([H])([H])[H])C([H])([H])[H])C([H])(C(=O)N([H])C1([H])c3c([H])c([H])c([H])c([H])c3C([H])([H])C([H])([H])C1([H])[H])C2([H])[H])C([H])([H])N([H])c1nsc(N([H])C(=O)N2C([H])([H])C([H])([H])C([H])([H])C([H])(n3nc(-c4c([H])c([H])c(Oc5c([H])c([H])c(F)c([H])c5F)c([H])c4[H])c(C(=O)N([H])[H])c3N([H])[H])C2([H])[H])n1

$$$$
67:0:0
     RDKit          3D

 95103  0  0  1  0  0  0  0  0999 V2000
  -28.9180  -17.7180   19.1870 C   0  0  0  0  0  3  0  0  0  0  0  0
  -29.6660  -18.1050   20.3090 C   0  0  0  0  0  0  0  0  0  0  0  0
  -28.3680  -18.7430   18.4200 C   0  0  0  0  0  0  0  0  0  0  0  0
  -29.2540  -20.3310   19.7950 C   0  0  0  0  0  0  0  0  0  0  0  0
  -29.8160  -19.4320   20.6150 N   0  0  0  0  0  0  0  0  0  0  0  0
  -28.5490  -20.0380   18.7120 N   0  0  0  0  0  0  0  0  0  0  0  0
  -27.6190  -18.4690   17.2900 N   0  0  0  0  0  0  0  0  0  0  0  0
  -29.5810  -21.6860   19.9020 N   0  0  0  0  0  0  0  0  0  0  0  0
  -27.5410  -17.5310   16.9180 H   0  0  0  0  0  0  0  0  0  0  0  0
  -27.3300  -19.2160   16.6700 H   0  0  0  0  0  0  0  0  0  0  0  0
  -29.5230  -22.0900   18.9760 H   0  0  0  0  0  0  0  0  0  0  0  0
  -29.6990  -22.5880   22.2010 C   0  0  0  0  0  1  0  0  0  0  0  0
  -28.9810  -22.6610   20.8400 C   0  0  0  0  0  3  0  0  0  0  0  0
  -29.0120  -24.1320   20.2450 C   0  0  0  0  0  3  0  0  0  0  0  0
  -28.3420  -25.3040   21.0530 C   0  0  0  0  0  3  0  0  0  0  0  0
  -28.4850  -26.6340   20.4670 O   0  0  0  0  0  0  0  0  0  0  0  0
  -24.5710  -31.9460   23.2640 C   0  0  0  0  0  0  0  0  0  0  0  0
  -27.3380  -27.4130   20.4000 C   0  0  0  0  0  0  0  0  0  0  0  0
  -23.4280  -30.4870   21.6280 C   0  0  0  0  0  3  0  0  0  0  0  0
  -24.9390  -28.9290   20.2810 C   0  0  0  0  0  0  0  0  0  0  0  0
  -25.9550  -30.8650   21.4880 C   0  0  0  0  0  2  0  0  0  0  0  0
  -26.0780  -29.4720   20.8900 C   0  0  0  0  0  0  0  0  0  0  0  0
  -27.2840  -28.7250   20.9400 C   0  0  0  0  0  3  0  0  0  0  0  0
  -26.1860  -26.9020   19.7670 C   0  0  0  0  0  3  0  0  0  0  0  0
  -24.9920  -27.6450   19.7100 C   0  0  0  0  0  3  0  0  0  0  0  0
  -23.6860  -29.7770   20.2720 C   0  0  0  0  0  2  0  0  0  0  0  0
  -24.6690  -31.1160   22.1860 N   0  0  0  0  0  0  0  0  0  0  0  0
  -23.4720  -32.2170   23.7680 O   0  0  0  0  0  0  0  0  0  0  0  0
  -22.7600  -29.4840   22.5980 C   0  0  0  0  0  0  0  0  0  0  0  0
  -21.4380  -29.2930   22.4520 N   0  0  0  0  0  0  0  0  0  0  0  0
  -23.4310  -28.8780   23.4390 O   0  0  0  0  0  0  0  0  0  0  0  0
  -20.9540  -29.8330   21.7480 H   0  0  0  0  0  0  0  0  0  0  0  0
  -18.0540  -28.1360   22.9680 C   0  0  0  0  0  0  0  0  0  0  0  0
  -20.6160  -28.3680   23.2290 C   0  0  0  0  0  3  0  0  0  0  0  0
  -20.7020  -26.9320   22.6600 C   0  0  0  0  0  2  0  0  0  0  0  0
  -19.5940  -26.6170   21.6500 C   0  0  0  0  0  2  0  0  0  0  0  0
  -18.2160  -26.7820   22.2970 C   0  0  0  0  0  2  0  0  0  0  0  0
  -19.1820  -28.8870   23.3930 C   0  0  0  0  0  0  0  0  0  0  0  0
  -18.9790  -30.1540   23.9790 C   0  0  0  0  0  3  0  0  0  0  0  0
  -17.6810  -30.6720   24.1470 C   0  0  0  0  0  3  0  0  0  0  0  0
  -16.5670  -29.9180   23.7390 C   0  0  0  0  0  3  0  0  0  0  0  0
  -16.7550  -28.6520   23.1550 C   0  0  0  0  0  3  0  0  0  0  0  0
  -25.8290  -32.6150   23.8990 C   0  0  0  0  0  3  0  0  0  0  0  0
  -26.3380  -31.8750   25.1950 C   0  0  1  0  0  0  0  0  0  0  0  0
  -25.2260  -31.6170   26.2390 C   0  0  0  0  0  1  0  0  0  0  0  0
  -26.9720  -30.5120   24.8310 C   0  0  0  0  0  1  0  0  0  0  0  0
  -27.4500  -32.7090   25.8750 C   0  0  0  0  0  1  0  0  0  0  0  0
  -25.4890  -34.0120   24.1990 N   0  0  0  0  0  0  0  0  0  0  0  0
  -25.8160  -35.0580   23.4290 C   0  0  0  0  0  0  0  0  0  0  0  0
  -26.5080  -34.9490   22.4120 O   0  0  0  0  0  0  0  0  0  0  0  0
  -24.8800  -34.1680   24.9910 H   0  0  0  0  0  0  0  0  0  0  0  0
  -24.0750  -36.8180   22.9940 C   0  0  0  0  0  1  0  0  0  0  0  0
  -25.2940  -36.4450   23.8520 C   0  0  0  0  0  3  0  0  0  0  0  0
  -27.3810  -37.3760   24.7490 C   0  0  0  0  0  1  0  0  0  0  0  0
  -26.3150  -37.5110   23.7600 N   0  0  0  0  0  0  0  0  0  0  0  0
  -25.8890  -38.4270   23.8770 H   0  0  0  0  0  0  0  0  0  0  0  0
  -30.3740  -17.0470   21.1810 C   0  0  0  0  0  2  0  0  0  0  0  0
  -30.6430  -14.6060   20.5140 C   0  0  0  0  0  0  0  0  0  0  0  0
  -30.3440  -12.4790   19.2890 C   0  0  0  0  0  2  0  0  0  0  0  0
  -29.3810  -12.7240   18.1090 C   0  0  0  0  0  2  0  0  0  0  0  0
  -27.9100  -12.5720   18.5500 C   0  0  0  0  0  2  0  0  0  0  0  0
  -27.5930  -13.3370   19.8620 C   0  0  0  0  0  3  0  0  0  0  0  0
  -28.6710  -13.0790   20.9390 C   0  0  0  0  0  2  0  0  0  0  0  0
  -29.9770  -13.4270   20.3550 N   0  0  0  0  0  0  0  0  0  0  0  0
  -31.7870  -14.7770   20.0880 O   0  0  0  0  0  0  0  0  0  0  0  0
  -29.9260  -15.6380   21.0130 N   0  0  0  0  0  0  0  0  0  0  0  0
  -28.9710  -15.4490   21.2700 H   0  0  0  0  0  0  0  0  0  0  0  0
  -25.1970  -13.9000   20.6020 C   0  0  0  0  0  0  0  0  0  0  0  0
  -24.1400  -13.1100   20.9660 C   0  0  0  0  0  0  0  0  0  0  0  0
  -24.6140  -11.7640   20.9090 C   0  0  0  0  0  0  0  0  0  0  0  0
  -26.2500  -13.0350   20.3510 N   0  0  0  0  0  0  0  0  0  0  0  0
  -25.9040  -11.7450   20.5940 N   0  0  0  0  0  0  0  0  0  0  0  0
  -23.9010  -10.4930   21.0800 C   0  0  0  0  0  0  0  0  0  0  0  0
  -24.3310   -9.5270   22.0160 C   0  0  0  0  0  3  0  0  0  0  0  0
  -23.6190   -8.3180   22.1770 C   0  0  0  0  0  3  0  0  0  0  0  0
  -22.4630   -8.0670   21.4020 C   0  0  0  0  0  0  0  0  0  0  0  0
  -22.0520   -9.0230   20.4570 C   0  0  0  0  0  3  0  0  0  0  0  0
  -22.7640  -10.2230   20.2930 C   0  0  0  0  0  3  0  0  0  0  0  0
  -21.7220   -6.9120   21.4750 O   0  0  0  0  0  0  0  0  0  0  0  0
  -21.6540   -6.1700   22.6270 C   0  0  0  0  0  0  0  0  0  0  0  0
  -21.1510   -6.7090   23.8300 C   0  0  0  0  0  3  0  0  0  0  0  0
  -21.0310   -5.8910   24.9720 C   0  0  0  0  0  3  0  0  0  0  0  0
  -21.4060   -4.5360   24.9100 C   0  0  0  0  0  0  0  0  0  0  0  0
  -21.9000   -3.9960   23.7110 C   0  0  0  0  0  3  0  0  0  0  0  0
  -22.0210   -4.8100   22.5710 C   0  0  0  0  0  0  0  0  0  0  0  0
  -22.4780   -4.2780   21.4110 F   0  0  0  0  0  0  0  0  0  0  0  0
  -21.2850   -3.7490   26.0040 F   0  0  0  0  0  0  0  0  0  0  0  0
  -22.7390  -13.5690   21.2570 C   0  0  0  0  0  0  0  0  0  0  0  0
  -22.0180  -12.8400   22.1030 N   0  0  0  0  0  0  0  0  0  0  0  0
  -22.2930  -14.6050   20.7690 O   0  0  0  0  0  0  0  0  0  0  0  0
  -22.3900  -12.0000   22.5200 H   0  0  0  0  0  0  0  0  0  0  0  0
  -21.0770  -13.1270   22.3340 H   0  0  0  0  0  0  0  0  0  0  0  0
  -25.3470  -15.2760   20.4430 N   0  0  0  0  0  0  0  0  0  0  0  0
  -24.5750  -15.9210   20.5650 H   0  0  0  0  0  0  0  0  0  0  0  0
  -26.1820  -15.7290   20.0970 H   0  0  0  0  0  0  0  0  0  0  0  0
  1  2  2  0
  2  5  1  0
  2 57  1  0
  3  6  2  0
  3  1  1  0
  4  8  1  0
  4  5  2  0
  6  4  1  0
  7  3  1  0
  8 13  1  0
  9  7  1  0
 10  7  1  0
 11  8  1  0
 13 12  1  0
 14 13  1  0
 14 15  2  0
 16 15  1  0
 17 28  2  0
 18 16  1  0
 18 23  1  0
 19 27  1  0
 19 29  1  0
 20 22  1  0
 21 27  1  0
 22 23  2  0
 22 21  1  0
 24 18  2  0
 25 24  1  0
 25 20  2  0
 26 20  1  0
 26 19  1  0
 27 17  1  0
 29 31  2  0
 30 29  1  0
 32 30  1  0
 33 42  2  0
 33 38  1  0
 34 30  1  0
 34 38  1  0
 35 34  1  0
 36 37  1  0
 36 35  1  0
 37 33  1  0
 38 39  2  0
 39 40  1  0
 41 40  2  0
 42 41  1  0
 43 17  1  0
 43 48  1  0
 43 44  1  0
 44 47  1  1
 44 45  1  0
 46 44  1  0
 48 51  1  0
 49 53  1  0
 49 48  1  0
 50 49  2  0
 53 52  1  0
 55 53  1  0
 55 56  1  0
 55 54  1  0
 58 66  1  0
 59 64  1  0
 60 61  1  0
 60 59  1  0
 62 61  1  0
 62 71  1  0
 62 63  1  0
 64 58  1  0
 64 63  1  0
 65 58  2  0
 66 57  1  0
 66 67  1  0
 68 69  2  0
 69 88  1  0
 70 69  1  0
 70 73  1  0
 71 72  1  0
 71 68  1  0
 72 70  2  0
 73 74  1  0
 74 75  2  0
 76 79  1  0
 76 75  1  0
 77 76  2  0
 78 77  1  0
 78 73  2  0
 79 80  1  0
 80 81  1  0
 81 82  2  0
 83 82  1  0
 83 87  1  0
 84 83  2  0
 85 80  2  0
 85 84  1  0
 86 85  1  0
 88 89  1  0
 89 92  1  0
 89 91  1  0
 90 88  2  0
 93 94  1  0
 93 68  1  0
 95 93  1  0
M  ISO  4  15 101  16 101  58 100  66 100
M  END
>  <TORSDO>  (68) 
F 20

>  <SCORE>  (68) 
-14.098

>  <name>  (68) 
67

>  <ligand_id>  (68) 
67

>  <original_smiles>  (68) 
[H]c1c(N([H])[H])nc(N([H])C([H])(C([H])([H])[H])C([H])([H])C([H])([H])Oc2c([H])c([H])c3c(c2[H])C([H])([H])N(C(=O)C([H])(N([H])C(=O)C([H])(N([H])C([H])([H])[H])C([H])([H])[H])C(C([H])([H])[H])(C([H])([H])[H])C([H])([H])[H])C([H])(C(=O)N([H])C2([H])c4c([H])c([H])c([H])c([H])c4C([H])([H])C([H])([H])C2([H])[H])C3([H])[H])nc1C([H])([H])N([H])C(=O)N1C([H])([H])C([H])([H])C([H])([H])C([H])(n2nc(-c3c([H])c([H])c(Oc4c([H])c([H])c(F)c([H])c4F)c([H])c3[H])c(C(=O)N([H])[H])c2N([H])[H])C1([H])[H]

>  <smiles>  (68) 
[H]c1c(N([H])[H])nc(N([H])C([H])(C([H])([H])[H])C([H])([H])C([H])([H])Oc2c([H])c([H])c3c(c2[H])C([H])([H])N(C(=O)C([H])(N([H])C(=O)C([H])(N([H])C([H])([H])[H])C([H])([H])[H])C(C([H])([H])[H])(C([H])([H])[H])C([H])([H])[H])C([H])(C(=O)N([H])C2([H])c4c([H])c([H])c([H])c([H])c4C([H])([H])C([H])([H])C2([H])[H])C3([H])[H])nc1C([H])([H])N([H])C(=O)N1C([H])([H])C([H])([H])C([H])([H])C([H])(n2nc(-c3c([H])c([H])c(Oc4c([H])c([H])c(F)c([H])c4F)c([H])c3[H])c(C(=O)N([H])[H])c2N([H])[H])C1([H])[H]

$$$$
68:0:0
     RDKit          3D

 93101  0  0  1  0  0  0  0  0999 V2000
  -29.8520  -21.4320   19.7610 C   0  0  0  0  0  3  0  0  0  0  0  0
  -32.0810  -20.7570   18.6470 C   0  0  0  0  0  1  0  0  0  0  0  0
  -31.1960  -21.9040   19.1610 C   0  0  0  0  0  2  0  0  0  0  0  0
  -30.0330  -20.4890   21.0080 C   0  0  0  0  0  2  0  0  0  0  0  0
  -30.5150  -17.9250   21.1170 C   0  0  0  0  0  3  0  0  0  0  0  0
  -28.6090  -18.5480   20.2710 C   0  0  0  0  0  3  0  0  0  0  0  0
  -29.7480  -16.8100   20.8090 C   0  0  0  0  0  0  0  0  0  0  0  0
  -28.5310  -17.2180   20.2710 N   0  0  0  0  0  0  0  0  0  0  0  0
  -29.7510  -19.0540   20.7700 N   0  0  0  0  0  0  0  0  0  0  0  0
  -30.6430  -14.5160   20.4520 C   0  0  0  0  0  0  0  0  0  0  0  0
  -30.3580  -12.3600   19.2700 C   0  0  0  0  0  2  0  0  0  0  0  0
  -29.4050  -12.5690   18.0740 C   0  0  0  0  0  2  0  0  0  0  0  0
  -27.9320  -12.4190   18.5070 C   0  0  0  0  0  2  0  0  0  0  0  0
  -27.6030  -13.2420   19.7810 C   0  0  0  0  0  3  0  0  0  0  0  0
  -28.6620  -13.0020   20.8810 C   0  0  0  0  0  2  0  0  0  0  0  0
  -29.9890  -13.3240   20.3210 N   0  0  0  0  0  0  0  0  0  0  0  0
  -31.7360  -14.7330   19.9210 O   0  0  0  0  0  0  0  0  0  0  0  0
  -29.9950  -15.4530   21.1800 N   0  0  0  0  0  0  0  0  0  0  0  0
  -29.2140  -15.0320   21.6570 H   0  0  0  0  0  0  0  0  0  0  0  0
  -25.2110  -13.8550   20.5050 C   0  0  0  0  0  0  0  0  0  0  0  0
  -24.1410  -13.0850   20.8810 C   0  0  0  0  0  0  0  0  0  0  0  0
  -24.5980  -11.7310   20.8460 C   0  0  0  0  0  0  0  0  0  0  0  0
  -26.2510  -12.9690   20.2680 N   0  0  0  0  0  0  0  0  0  0  0  0
  -25.8870  -11.6870   20.5290 N   0  0  0  0  0  0  0  0  0  0  0  0
  -23.8690  -10.4700   21.0430 C   0  0  0  0  0  0  0  0  0  0  0  0
  -24.3180   -9.4930   21.9590 C   0  0  0  0  0  3  0  0  0  0  0  0
  -23.5920   -8.2970   22.1420 C   0  0  0  0  0  3  0  0  0  0  0  0
  -22.4030   -8.0690   21.4090 C   0  0  0  0  0  0  0  0  0  0  0  0
  -21.9720   -9.0350   20.4820 C   0  0  0  0  0  3  0  0  0  0  0  0
  -22.7000  -10.2220   20.2970 C   0  0  0  0  0  3  0  0  0  0  0  0
  -21.6420   -6.9280   21.5060 O   0  0  0  0  0  0  0  0  0  0  0  0
  -21.6280   -6.1660   22.6470 C   0  0  0  0  0  0  0  0  0  0  0  0
  -21.2550   -6.7050   23.8980 C   0  0  0  0  0  3  0  0  0  0  0  0
  -21.1830   -5.8700   25.0310 C   0  0  0  0  0  3  0  0  0  0  0  0
  -21.4770   -4.4970   24.9140 C   0  0  0  0  0  0  0  0  0  0  0  0
  -21.8440   -3.9590   23.6670 C   0  0  0  0  0  3  0  0  0  0  0  0
  -21.9160   -4.7910   22.5370 C   0  0  0  0  0  0  0  0  0  0  0  0
  -22.2490   -4.2610   21.3330 F   0  0  0  0  0  0  0  0  0  0  0  0
  -21.4030   -3.6940   26.0010 F   0  0  0  0  0  0  0  0  0  0  0  0
  -22.7470  -13.5640   21.1630 C   0  0  0  0  0  0  0  0  0  0  0  0
  -22.0200  -12.8700   22.0340 N   0  0  0  0  0  0  0  0  0  0  0  0
  -22.3060  -14.5880   20.6440 O   0  0  0  0  0  0  0  0  0  0  0  0
  -22.3890  -12.0440   22.4810 H   0  0  0  0  0  0  0  0  0  0  0  0
  -21.0810  -13.1700   22.2540 H   0  0  0  0  0  0  0  0  0  0  0  0
  -25.3830  -15.2250   20.3340 N   0  0  0  0  0  0  0  0  0  0  0  0
  -24.6330  -15.8940   20.4680 H   0  0  0  0  0  0  0  0  0  0  0  0
  -26.2620  -15.6660   20.0820 H   0  0  0  0  0  0  0  0  0  0  0  0
  -28.7990  -22.6060   19.9240 C   0  0  0  0  0  3  0  0  0  0  0  0
  -28.0220  -22.5760   18.7340 O   0  0  0  0  0  0  0  0  0  0  0  0
  -28.5850  -22.8120   18.0030 H   0  0  0  0  0  0  0  0  0  0  0  0
  -29.2680  -24.0990   20.1670 C   0  0  0  0  0  2  0  0  0  0  0  0
  -28.0950  -25.1360   20.0660 C   0  0  0  0  0  2  0  0  0  0  0  0
  -28.3360  -26.5670   20.1950 O   0  0  0  0  0  0  0  0  0  0  0  0
  -24.6120  -31.8920   23.2360 C   0  0  0  0  0  0  0  0  0  0  0  0
  -27.1960  -27.3760   20.1570 C   0  0  0  0  0  0  0  0  0  0  0  0
  -23.3910  -30.4970   21.6070 C   0  0  0  0  0  3  0  0  0  0  0  0
  -24.8240  -28.9560   20.1730 C   0  0  0  0  0  0  0  0  0  0  0  0
  -25.9250  -30.8280   21.3940 C   0  0  0  0  0  2  0  0  0  0  0  0
  -25.9970  -29.4530   20.7530 C   0  0  0  0  0  0  0  0  0  0  0  0
  -27.1910  -28.6770   20.7320 C   0  0  0  0  0  3  0  0  0  0  0  0
  -25.9890  -26.9200   19.5680 C   0  0  0  0  0  3  0  0  0  0  0  0
  -24.8190  -27.6930   19.5720 C   0  0  0  0  0  3  0  0  0  0  0  0
  -23.5880  -29.8230   20.2260 C   0  0  0  0  0  2  0  0  0  0  0  0
  -24.6630  -31.0870   22.1370 N   0  0  0  0  0  0  0  0  0  0  0  0
  -23.5330  -32.1720   23.7770 O   0  0  0  0  0  0  0  0  0  0  0  0
  -22.7370  -29.4780   22.5700 C   0  0  0  0  0  0  0  0  0  0  0  0
  -21.4110  -29.3030   22.4500 N   0  0  0  0  0  0  0  0  0  0  0  0
  -23.4190  -28.8510   23.3840 O   0  0  0  0  0  0  0  0  0  0  0  0
  -20.9220  -29.8580   21.7610 H   0  0  0  0  0  0  0  0  0  0  0  0
  -18.0310  -28.1270   22.9640 C   0  0  0  0  0  0  0  0  0  0  0  0
  -20.5920  -28.3730   23.2270 C   0  0  0  0  0  3  0  0  0  0  0  0
  -20.6860  -26.9400   22.6530 C   0  0  0  0  0  2  0  0  0  0  0  0
  -19.5780  -26.6190   21.6450 C   0  0  0  0  0  2  0  0  0  0  0  0
  -18.1990  -26.7740   22.2940 C   0  0  0  0  0  2  0  0  0  0  0  0
  -19.1550  -28.8850   23.3880 C   0  0  0  0  0  0  0  0  0  0  0  0
  -18.9420  -30.1510   23.9760 C   0  0  0  0  0  3  0  0  0  0  0  0
  -17.6400  -30.6570   24.1450 C   0  0  0  0  0  3  0  0  0  0  0  0
  -16.5320  -29.8970   23.7350 C   0  0  0  0  0  3  0  0  0  0  0  0
  -16.7290  -28.6340   23.1490 C   0  0  0  0  0  3  0  0  0  0  0  0
  -25.9020  -32.5180   23.8500 C   0  0  0  0  0  3  0  0  0  0  0  0
  -25.5960  -33.9130   24.1860 N   0  0  0  0  0  0  0  0  0  0  0  0
  -25.9240  -34.9670   23.4260 C   0  0  0  0  0  0  0  0  0  0  0  0
  -26.5860  -34.8660   22.3890 O   0  0  0  0  0  0  0  0  0  0  0  0
  -25.0040  -34.0670   24.9880 H   0  0  0  0  0  0  0  0  0  0  0  0
  -24.1950  -36.7640   23.0890 C   0  0  0  0  0  1  0  0  0  0  0  0
  -25.4420  -36.3550   23.8900 C   0  0  0  0  0  3  0  0  0  0  0  0
  -27.5880  -37.2340   24.7010 C   0  0  0  0  0  1  0  0  0  0  0  0
  -26.4760  -37.4070   23.7700 N   0  0  0  0  0  0  0  0  0  0  0  0
  -26.0740  -38.3290   23.9240 H   0  0  0  0  0  0  0  0  0  0  0  0
  -26.4250  -31.7400   25.1190 C   0  0  1  0  0  0  0  0  0  0  0  0
  -25.3380  -31.5020   26.1940 C   0  0  0  0  0  1  0  0  0  0  0  0
  -27.0000  -30.3620   24.7160 C   0  0  0  0  0  1  0  0  0  0  0  0
  -27.5860  -32.5260   25.7730 C   0  0  0  0  0  1  0  0  0  0  0  0
  1  3  1  0
  1 48  1  0
  1  4  1  0
  2  3  1  0
  6  9  1  0
  7  5  2  0
  7 18  1  0
  8  6  2  0
  8  7  1  0
  9  4  1  0
  9  5  1  0
 10 18  1  0
 11 16  1  0
 12 13  1  0
 12 11  1  0
 14 13  1  0
 14 23  1  0
 14 15  1  0
 16 10  1  0
 16 15  1  0
 17 10  2  0
 18 19  1  0
 20 21  2  0
 21 40  1  0
 22 21  1  0
 22 25  1  0
 23 20  1  0
 23 24  1  0
 24 22  2  0
 25 26  1  0
 26 27  2  0
 28 31  1  0
 28 27  1  0
 29 28  2  0
 30 29  1  0
 30 25  2  0
 31 32  1  0
 32 33  1  0
 33 34  2  0
 35 34  1  0
 35 39  1  0
 36 35  2  0
 37 32  2  0
 37 36  1  0
 38 37  1  0
 40 41  1  0
 41 44  1  0
 41 43  1  0
 42 40  2  0
 45 46  1  0
 45 20  1  0
 47 45  1  0
 48 51  1  0
 49 48  1  0
 50 49  1  0
 52 51  1  0
 52 53  1  0
 54 65  2  0
 55 53  1  0
 55 60  1  0
 56 64  1  0
 56 66  1  0
 57 63  1  0
 57 59  1  0
 58 64  1  0
 59 58  1  0
 60 59  2  0
 61 62  1  0
 61 55  2  0
 62 57  2  0
 63 56  1  0
 64 54  1  0
 66 68  2  0
 67 66  1  0
 69 67  1  0
 70 79  2  0
 70 75  1  0
 71 67  1  0
 71 75  1  0
 72 71  1  0
 73 74  1  0
 73 72  1  0
 74 70  1  0
 75 76  2  0
 76 77  1  0
 78 77  2  0
 79 78  1  0
 80 54  1  0
 80 81  1  0
 80 90  1  0
 81 84  1  0
 82 86  1  0
 82 81  1  0
 83 82  2  0
 86 85  1  0
 88 86  1  0
 88 89  1  0
 88 87  1  0
 90 93  1  1
 90 91  1  0
 92 90  1  0
M  ISO  4  10 100  18 100  52 101  53 101
M  END
>  <TORSDO>  (69) 
F 23

>  <SCORE>  (69) 
-13.230

>  <name>  (69) 
68

>  <ligand_id>  (69) 
68

>  <original_smiles>  (69) 
[H]OC([H])(C([H])([H])C([H])([H])Oc1c([H])c([H])c2c(c1[H])C([H])([H])N(C(=O)C([H])(N([H])C(=O)C([H])(N([H])C([H])([H])[H])C([H])([H])[H])C(C([H])([H])[H])(C([H])([H])[H])C([H])([H])[H])C([H])(C(=O)N([H])C1([H])c3c([H])c([H])c([H])c([H])c3C([H])([H])C([H])([H])C1([H])[H])C2([H])[H])C([H])(C([H])([H])n1c([H])nc(N([H])C(=O)N2C([H])([H])C([H])([H])C([H])([H])C([H])(n3nc(-c4c([H])c([H])c(Oc5c([H])c([H])c(F)c([H])c5F)c([H])c4[H])c(C(=O)N([H])[H])c3N([H])[H])C2([H])[H])c1[H])C([H])([H])C([H])([H])[H]

>  <smiles>  (69) 
[H]OC([H])(C([H])([H])C([H])([H])Oc1c([H])c([H])c2c(c1[H])C([H])([H])N(C(=O)C([H])(N([H])C(=O)C([H])(N([H])C([H])([H])[H])C([H])([H])[H])C(C([H])([H])[H])(C([H])([H])[H])C([H])([H])[H])C([H])(C(=O)N([H])C1([H])c3c([H])c([H])c([H])c([H])c3C([H])([H])C([H])([H])C1([H])[H])C2([H])[H])C([H])(C([H])([H])n1c([H])nc(N([H])C(=O)N2C([H])([H])C([H])([H])C([H])([H])C([H])(n3nc(-c4c([H])c([H])c(Oc5c([H])c([H])c(F)c([H])c5F)c([H])c4[H])c(C(=O)N([H])[H])c3N([H])[H])C2([H])[H])c1[H])C([H])([H])C([H])([H])[H]

$$$$
69:0:0
     RDKit          3D

 97105  0  0  1  0  0  0  0  0999 V2000
  -27.5030  -17.6030   18.8600 C   0  0  0  0  0  3  0  0  0  0  0  0
  -29.1750  -17.8800   20.4570 C   0  0  0  0  0  0  0  0  0  0  0  0
  -27.2150  -18.9770   18.9040 C   0  0  0  0  0  0  0  0  0  0  0  0
  -28.9630  -19.3210   20.4160 C   0  0  0  0  0  0  0  0  0  0  0  0
  -28.4480  -17.0580   19.6520 N   0  0  0  0  0  0  0  0  0  0  0  0
  -27.9520  -19.8200   19.6560 N   0  0  0  0  0  0  0  0  0  0  0  0
  -29.6920  -20.3300   21.1070 N   0  0  0  0  0  0  0  0  0  0  0  0
  -30.5210  -20.0210   21.5970 H   0  0  0  0  0  0  0  0  0  0  0  0
  -25.0690  -19.9440   19.1730 C   0  0  0  0  0  1  0  0  0  0  0  0
  -26.1050  -19.5060   18.2410 N   0  0  0  0  0  0  0  0  0  0  0  0
  -25.7340  -18.8400   17.5660 H   0  0  0  0  0  0  0  0  0  0  0  0
  -30.1600  -17.0750   21.3570 C   0  0  0  0  0  2  0  0  0  0  0  0
  -30.7260  -14.6170   20.7220 C   0  0  0  0  0  0  0  0  0  0  0  0
  -30.4510  -12.5710   19.3410 C   0  0  0  0  0  2  0  0  0  0  0  0
  -29.4820  -12.8920   18.1820 C   0  0  0  0  0  2  0  0  0  0  0  0
  -28.0130  -12.7040   18.6160 C   0  0  0  0  0  2  0  0  0  0  0  0
  -27.7020  -13.3910   19.9700 C   0  0  0  0  0  3  0  0  0  0  0  0
  -28.7760  -13.0410   21.0250 C   0  0  0  0  0  2  0  0  0  0  0  0
  -30.0850  -13.4350   20.4780 N   0  0  0  0  0  0  0  0  0  0  0  0
  -31.8570  -14.8500   20.2880 O   0  0  0  0  0  0  0  0  0  0  0  0
  -29.9750  -15.5820   21.3080 N   0  0  0  0  0  0  0  0  0  0  0  0
  -29.0590  -15.2750   21.6020 H   0  0  0  0  0  0  0  0  0  0  0  0
  -25.2960  -13.9320   20.6980 C   0  0  0  0  0  0  0  0  0  0  0  0
  -24.2360  -13.1350   21.0290 C   0  0  0  0  0  0  0  0  0  0  0  0
  -24.7180  -11.7920   20.9580 C   0  0  0  0  0  0  0  0  0  0  0  0
  -26.3550  -13.0760   20.4380 N   0  0  0  0  0  0  0  0  0  0  0  0
  -26.0110  -11.7800   20.6530 N   0  0  0  0  0  0  0  0  0  0  0  0
  -24.0080  -10.5160   21.1060 C   0  0  0  0  0  0  0  0  0  0  0  0
  -24.4100   -9.5560   22.0600 C   0  0  0  0  0  3  0  0  0  0  0  0
  -23.7030   -8.3420   22.1950 C   0  0  0  0  0  3  0  0  0  0  0  0
  -22.5790   -8.0800   21.3760 C   0  0  0  0  0  0  0  0  0  0  0  0
  -22.1960   -9.0300   20.4120 C   0  0  0  0  0  3  0  0  0  0  0  0
  -22.9060  -10.2350   20.2750 C   0  0  0  0  0  3  0  0  0  0  0  0
  -21.8480   -6.9190   21.4160 O   0  0  0  0  0  0  0  0  0  0  0  0
  -21.7210   -6.1920   22.5740 C   0  0  0  0  0  0  0  0  0  0  0  0
  -21.1090   -6.7280   23.7270 C   0  0  0  0  0  3  0  0  0  0  0  0
  -20.9370   -5.9220   24.8720 C   0  0  0  0  0  3  0  0  0  0  0  0
  -21.3700   -4.5810   24.8600 C   0  0  0  0  0  0  0  0  0  0  0  0
  -21.9770   -4.0460   23.7100 C   0  0  0  0  0  3  0  0  0  0  0  0
  -22.1500   -4.8500   22.5690 C   0  0  0  0  0  0  0  0  0  0  0  0
  -22.7150   -4.3230   21.4560 F   0  0  0  0  0  0  0  0  0  0  0  0
  -21.2000   -3.8040   25.9550 F   0  0  0  0  0  0  0  0  0  0  0  0
  -22.8310  -13.5850   21.3110 C   0  0  0  0  0  0  0  0  0  0  0  0
  -22.1090  -12.8530   22.1520 N   0  0  0  0  0  0  0  0  0  0  0  0
  -22.3810  -14.6240   20.8240 O   0  0  0  0  0  0  0  0  0  0  0  0
  -22.4870  -12.0160   22.5690 H   0  0  0  0  0  0  0  0  0  0  0  0
  -21.1680  -13.1340   22.3870 H   0  0  0  0  0  0  0  0  0  0  0  0
  -25.4450  -15.3070   20.5830 N   0  0  0  0  0  0  0  0  0  0  0  0
  -24.6830  -15.9540   20.7580 H   0  0  0  0  0  0  0  0  0  0  0  0
  -26.3240  -15.7610   20.3590 H   0  0  0  0  0  0  0  0  0  0  0  0
  -29.6580  -21.7350   20.5750 C   0  0  0  0  0  2  0  0  0  0  0  0
  -30.1580  -22.8710   21.5310 C   0  0  0  0  0  3  0  0  0  0  0  0
  -31.5320  -22.5950   21.7350 O   0  0  0  0  0  0  0  0  0  0  0  0
  -31.5910  -21.7340   22.1380 H   0  0  0  0  0  0  0  0  0  0  0  0
  -30.0780  -24.3650   21.0080 C   0  0  0  0  0  2  0  0  0  0  0  0
  -28.7320  -25.1630   21.1340 C   0  0  0  0  0  2  0  0  0  0  0  0
  -28.8610  -26.5950   20.8470 O   0  0  0  0  0  0  0  0  0  0  0  0
  -24.6950  -31.8770   23.3540 C   0  0  0  0  0  0  0  0  0  0  0  0
  -27.6920  -27.3380   20.7110 C   0  0  0  0  0  0  0  0  0  0  0  0
  -23.6730  -30.3920   21.6630 C   0  0  0  0  0  3  0  0  0  0  0  0
  -25.2820  -28.8290   20.4400 C   0  0  0  0  0  0  0  0  0  0  0  0
  -26.2050  -30.7850   21.6870 C   0  0  0  0  0  2  0  0  0  0  0  0
  -26.3750  -29.3890   21.1110 C   0  0  0  0  0  0  0  0  0  0  0  0
  -27.5860  -28.6550   21.2380 C   0  0  0  0  0  3  0  0  0  0  0  0
  -26.5770  -26.8130   20.0180 C   0  0  0  0  0  3  0  0  0  0  0  0
  -25.3820  -27.5420   19.8870 C   0  0  0  0  0  3  0  0  0  0  0  0
  -24.0240  -29.6670   20.3380 C   0  0  0  0  0  2  0  0  0  0  0  0
  -24.8700  -31.0380   22.2920 N   0  0  0  0  0  0  0  0  0  0  0  0
  -23.5640  -32.1480   23.7800 O   0  0  0  0  0  0  0  0  0  0  0  0
  -22.9500  -29.3960   22.6030 C   0  0  0  0  0  0  0  0  0  0  0  0
  -21.6300  -29.2280   22.4070 N   0  0  0  0  0  0  0  0  0  0  0  0
  -23.5770  -28.7750   23.4660 O   0  0  0  0  0  0  0  0  0  0  0  0
  -21.1820  -29.7720   21.6840 H   0  0  0  0  0  0  0  0  0  0  0  0
  -18.2040  -28.1710   22.8290 C   0  0  0  0  0  0  0  0  0  0  0  0
  -20.7670  -28.3050   23.1420 C   0  0  0  0  0  3  0  0  0  0  0  0
  -20.8140  -26.8890   22.5290 C   0  0  0  0  0  2  0  0  0  0  0  0
  -19.7130  -26.6410   21.4930 C   0  0  0  0  0  2  0  0  0  0  0  0
  -18.3280  -26.8360   22.1150 C   0  0  0  0  0  2  0  0  0  0  0  0
  -19.3500  -28.8680   23.2950 C   0  0  0  0  0  0  0  0  0  0  0  0
  -19.1830  -30.1220   23.9200 C   0  0  0  0  0  3  0  0  0  0  0  0
  -17.9020  -30.6810   24.0810 C   0  0  0  0  0  3  0  0  0  0  0  0
  -16.7700  -29.9810   23.6330 C   0  0  0  0  0  3  0  0  0  0  0  0
  -16.9210  -28.7260   23.0150 C   0  0  0  0  0  3  0  0  0  0  0  0
  -25.9030  -32.5630   24.0620 C   0  0  0  0  0  3  0  0  0  0  0  0
  -25.5360  -33.9650   24.3080 N   0  0  0  0  0  0  0  0  0  0  0  0
  -25.9000  -34.9950   23.5310 C   0  0  0  0  0  0  0  0  0  0  0  0
  -26.6500  -34.8660   22.5600 O   0  0  0  0  0  0  0  0  0  0  0  0
  -24.8750  -34.1330   25.0530 H   0  0  0  0  0  0  0  0  0  0  0  0
  -24.1650  -36.7250   22.9660 C   0  0  0  0  0  1  0  0  0  0  0  0
  -25.3450  -36.3870   23.8900 C   0  0  0  0  0  3  0  0  0  0  0  0
  -27.3720  -37.3720   24.8670 C   0  0  0  0  0  1  0  0  0  0  0  0
  -26.3610  -37.4600   23.8170 N   0  0  0  0  0  0  0  0  0  0  0  0
  -25.9220  -38.3760   23.8740 H   0  0  0  0  0  0  0  0  0  0  0  0
  -26.3190  -31.8510   25.4080 C   0  0  1  0  0  0  0  0  0  0  0  0
  -25.1340  -31.5840   26.3660 C   0  0  0  0  0  1  0  0  0  0  0  0
  -27.0040  -30.4950   25.1190 C   0  0  0  0  0  1  0  0  0  0  0  0
  -27.3550  -32.7180   26.1610 C   0  0  0  0  0  1  0  0  0  0  0  0
  1  3  2  0
  1  5  1  0
  2 12  1  0
  3  6  1  0
  4  2  1  0
  4  7  1  0
  5  2  2  0
  6  4  2  0
  7  8  1  0
 10  3  1  0
 10  9  1  0
 11 10  1  0
 13 21  1  0
 14 19  1  0
 15 16  1  0
 15 14  1  0
 17 16  1  0
 17 26  1  0
 17 18  1  0
 19 13  1  0
 19 18  1  0
 20 13  2  0
 21 12  1  0
 21 22  1  0
 23 24  2  0
 24 43  1  0
 25 24  1  0
 25 28  1  0
 26 27  1  0
 26 23  1  0
 27 25  2  0
 28 29  1  0
 29 30  2  0
 31 34  1  0
 31 30  1  0
 32 31  2  0
 33 32  1  0
 33 28  2  0
 34 35  1  0
 35 36  1  0
 36 37  2  0
 38 37  1  0
 38 42  1  0
 39 38  2  0
 40 35  2  0
 40 39  1  0
 41 40  1  0
 43 44  1  0
 44 47  1  0
 44 46  1  0
 45 43  2  0
 48 23  1  0
 48 49  1  0
 50 48  1  0
 51  7  1  0
 52 51  1  0
 52 53  1  0
 53 54  1  0
 55 56  1  0
 55 52  1  0
 57 56  1  0
 58 69  2  0
 59 57  1  0
 59 64  1  0
 60 68  1  0
 60 70  1  0
 61 63  1  0
 62 68  1  0
 63 64  2  0
 63 62  1  0
 65 59  2  0
 66 65  1  0
 66 61  2  0
 67 61  1  0
 67 60  1  0
 68 58  1  0
 70 72  2  0
 71 70  1  0
 73 71  1  0
 74 83  2  0
 74 79  1  0
 75 71  1  0
 75 79  1  0
 76 75  1  0
 77 78  1  0
 77 76  1  0
 78 74  1  0
 79 80  2  0
 80 81  1  0
 82 81  2  0
 83 82  1  0
 84 58  1  0
 84 85  1  0
 84 94  1  0
 85 88  1  0
 86 90  1  0
 86 85  1  0
 87 86  2  0
 90 89  1  0
 92 93  1  0
 92 90  1  0
 92 91  1  0
 94 97  1  1
 94 95  1  0
 96 94  1  0
M  ISO  4  13 100  21 100  56 101  57 101
M  END
>  <TORSDO>  (70) 
F 23

>  <SCORE>  (70) 
-12.385

>  <name>  (70) 
69

>  <ligand_id>  (70) 
69

>  <original_smiles>  (70) 
[H]OC([H])(C([H])([H])N([H])c1nc(N([H])C([H])([H])[H])c([H])nc1C([H])([H])N([H])C(=O)N1C([H])([H])C([H])([H])C([H])([H])C([H])(n2nc(-c3c([H])c([H])c(Oc4c([H])c([H])c(F)c([H])c4F)c([H])c3[H])c(C(=O)N([H])[H])c2N([H])[H])C1([H])[H])C([H])([H])C([H])([H])Oc1c([H])c([H])c2c(c1[H])C([H])([H])N(C(=O)C([H])(N([H])C(=O)C([H])(N([H])C([H])([H])[H])C([H])([H])[H])C(C([H])([H])[H])(C([H])([H])[H])C([H])([H])[H])C([H])(C(=O)N([H])C1([H])c3c([H])c([H])c([H])c([H])c3C([H])([H])C([H])([H])C1([H])[H])C2([H])[H]

>  <smiles>  (70) 
[H]OC([H])(C([H])([H])N([H])c1nc(N([H])C([H])([H])[H])c([H])nc1C([H])([H])N([H])C(=O)N1C([H])([H])C([H])([H])C([H])([H])C([H])(n2nc(-c3c([H])c([H])c(Oc4c([H])c([H])c(F)c([H])c4F)c([H])c3[H])c(C(=O)N([H])[H])c2N([H])[H])C1([H])[H])C([H])([H])C([H])([H])Oc1c([H])c([H])c2c(c1[H])C([H])([H])N(C(=O)C([H])(N([H])C(=O)C([H])(N([H])C([H])([H])[H])C([H])([H])[H])C(C([H])([H])[H])(C([H])([H])[H])C([H])([H])[H])C([H])(C(=O)N([H])C1([H])c3c([H])c([H])c([H])c([H])c3C([H])([H])C([H])([H])C1([H])[H])C2([H])[H]

$$$$
70:0:0
     RDKit          3D

 95103  0  0  1  0  0  0  0  0999 V2000
  -29.4710  -18.1710   20.5150 C   0  0  0  0  0  0  0  0  0  0  0  0
  -27.5820  -18.6000   19.4740 C   0  0  0  0  0  0  0  0  0  0  0  0
  -28.8510  -20.2980   20.0830 C   0  0  0  0  0  0  0  0  0  0  0  0
  -28.3670  -17.6680   19.9650 N   0  0  0  0  0  4  0  0  0  0  0  0
  -29.7730  -19.4860   20.6260 N   0  0  0  0  0  0  0  0  0  0  0  0
  -27.7380  -19.9090   19.4840 N   0  0  0  0  0  2  0  0  0  0  0  0
  -26.4550  -18.1490   18.8700 N   0  0  0  0  0  0  0  0  0  0  0  0
  -29.0060  -21.6960   19.9990 N   0  0  0  0  0  0  0  0  0  0  0  0
  -26.4540  -17.1870   18.5660 H   0  0  0  0  0  0  0  0  0  0  0  0
  -25.9880  -18.7950   18.2480 H   0  0  0  0  0  0  0  0  0  0  0  0
  -28.2340  -22.1080   19.4890 H   0  0  0  0  0  0  0  0  0  0  0  0
  -31.2350  -22.3390   20.9230 C   0  0  0  0  0  1  0  0  0  0  0  0
  -29.7430  -22.7090   20.7940 C   0  0  0  0  0  3  0  0  0  0  0  0
  -29.6150  -24.1920   20.2080 C   0  0  0  0  0  3  0  0  0  0  0  0
  -28.5780  -25.2030   20.8340 C   0  0  0  0  0  3  0  0  0  0  0  0
  -28.7000  -26.6070   20.4050 O   0  0  0  0  0  0  0  0  0  0  0  0
  -24.6750  -31.8830   23.1980 C   0  0  0  0  0  0  0  0  0  0  0  0
  -27.5390  -27.3780   20.3380 C   0  0  0  0  0  0  0  0  0  0  0  0
  -23.5740  -30.4150   21.5460 C   0  0  0  0  0  3  0  0  0  0  0  0
  -25.1200  -28.8820   20.2110 C   0  0  0  0  0  0  0  0  0  0  0  0
  -26.1020  -30.8200   21.4410 C   0  0  0  0  0  2  0  0  0  0  0  0
  -26.2490  -29.4310   20.8320 C   0  0  0  0  0  0  0  0  0  0  0  0
  -27.4630  -28.6920   20.8840 C   0  0  0  0  0  3  0  0  0  0  0  0
  -26.3920  -26.8700   19.6900 C   0  0  0  0  0  3  0  0  0  0  0  0
  -25.1910  -27.6040   19.6330 C   0  0  0  0  0  3  0  0  0  0  0  0
  -23.8570  -29.7150   20.1910 C   0  0  0  0  0  2  0  0  0  0  0  0
  -24.8000  -31.0580   22.1190 N   0  0  0  0  0  0  0  0  0  0  0  0
  -23.5660  -32.1370   23.6880 O   0  0  0  0  0  0  0  0  0  0  0  0
  -22.9110  -29.3970   22.5030 C   0  0  0  0  0  0  0  0  0  0  0  0
  -21.5950  -29.1840   22.3390 N   0  0  0  0  0  0  0  0  0  0  0  0
  -23.5810  -28.8010   23.3510 O   0  0  0  0  0  0  0  0  0  0  0  0
  -21.1140  -29.7180   21.6290 H   0  0  0  0  0  0  0  0  0  0  0  0
  -18.2130  -27.9990   22.8310 C   0  0  0  0  0  0  0  0  0  0  0  0
  -20.7740  -28.2410   23.0990 C   0  0  0  0  0  3  0  0  0  0  0  0
  -20.8660  -26.8170   22.5040 C   0  0  0  0  0  2  0  0  0  0  0  0
  -19.7600  -26.5130   21.4900 C   0  0  0  0  0  2  0  0  0  0  0  0
  -18.3800  -26.6570   22.1380 C   0  0  0  0  0  2  0  0  0  0  0  0
  -19.3360  -28.7500   23.2690 C   0  0  0  0  0  0  0  0  0  0  0  0
  -19.1260  -30.0060   23.8760 C   0  0  0  0  0  3  0  0  0  0  0  0
  -17.8250  -30.5130   24.0530 C   0  0  0  0  0  3  0  0  0  0  0  0
  -16.7150  -29.7590   23.6320 C   0  0  0  0  0  3  0  0  0  0  0  0
  -16.9100  -28.5050   23.0260 C   0  0  0  0  0  3  0  0  0  0  0  0
  -25.9150  -32.5670   23.8520 C   0  0  0  0  0  3  0  0  0  0  0  0
  -26.4310  -31.8120   25.1400 C   0  0  1  0  0  0  0  0  0  0  0  0
  -25.3160  -31.4930   26.1630 C   0  0  0  0  0  1  0  0  0  0  0  0
  -27.1170  -30.4810   24.7560 C   0  0  0  0  0  1  0  0  0  0  0  0
  -27.5020  -32.6710   25.8550 C   0  0  0  0  0  1  0  0  0  0  0  0
  -25.5380  -33.9490   24.1790 N   0  0  0  0  0  0  0  0  0  0  0  0
  -25.8590  -35.0200   23.4420 C   0  0  0  0  0  0  0  0  0  0  0  0
  -26.5720  -34.9500   22.4370 O   0  0  0  0  0  0  0  0  0  0  0  0
  -24.9070  -34.0730   24.9580 H   0  0  0  0  0  0  0  0  0  0  0  0
  -24.0990  -36.7650   23.0070 C   0  0  0  0  0  1  0  0  0  0  0  0
  -25.3010  -36.3850   23.8890 C   0  0  0  0  0  3  0  0  0  0  0  0
  -27.3430  -37.3280   24.8730 C   0  0  0  0  0  1  0  0  0  0  0  0
  -26.3050  -37.4710   23.8560 N   0  0  0  0  0  0  0  0  0  0  0  0
  -25.8610  -38.3770   23.9800 H   0  0  0  0  0  0  0  0  0  0  0  0
  -30.4730  -17.1040   21.0250 C   0  0  0  0  0  2  0  0  0  0  0  0
  -30.7540  -14.6330   20.4320 C   0  0  0  0  0  0  0  0  0  0  0  0
  -30.4500  -12.5050   19.2030 C   0  0  0  0  0  2  0  0  0  0  0  0
  -29.4960  -12.7560   18.0190 C   0  0  0  0  0  2  0  0  0  0  0  0
  -28.0230  -12.6100   18.4520 C   0  0  0  0  0  2  0  0  0  0  0  0
  -27.7030  -13.3760   19.7650 C   0  0  0  0  0  3  0  0  0  0  0  0
  -28.7750  -13.1140   20.8470 C   0  0  0  0  0  2  0  0  0  0  0  0
  -30.0820  -13.4570   20.2660 N   0  0  0  0  0  0  0  0  0  0  0  0
  -31.9110  -14.7860   20.0370 O   0  0  0  0  0  0  0  0  0  0  0  0
  -30.0330  -15.6830   20.8910 N   0  0  0  0  0  0  0  0  0  0  0  0
  -29.0480  -15.5370   21.0370 H   0  0  0  0  0  0  0  0  0  0  0  0
  -25.3070  -13.9500   20.4970 C   0  0  0  0  0  0  0  0  0  0  0  0
  -24.2450  -13.1640   20.8570 C   0  0  0  0  0  0  0  0  0  0  0  0
  -24.7180  -11.8150   20.8120 C   0  0  0  0  0  0  0  0  0  0  0  0
  -26.3580  -13.0800   20.2490 N   0  0  0  0  0  0  0  0  0  0  0  0
  -26.0090  -11.7900   20.4990 N   0  0  0  0  0  0  0  0  0  0  0  0
  -24.0010  -10.5450   20.9910 C   0  0  0  0  0  0  0  0  0  0  0  0
  -24.4070   -9.5960   21.9560 C   0  0  0  0  0  3  0  0  0  0  0  0
  -23.6890   -8.3920   22.1230 C   0  0  0  0  0  3  0  0  0  0  0  0
  -22.5490   -8.1310   21.3260 C   0  0  0  0  0  0  0  0  0  0  0  0
  -22.1610   -9.0680   20.3540 C   0  0  0  0  0  3  0  0  0  0  0  0
  -22.8800  -10.2630   20.1840 C   0  0  0  0  0  3  0  0  0  0  0  0
  -21.8070   -6.9750   21.3980 O   0  0  0  0  0  0  0  0  0  0  0  0
  -21.6780   -6.2740   22.5690 C   0  0  0  0  0  0  0  0  0  0  0  0
  -21.0860   -6.8420   23.7170 C   0  0  0  0  0  3  0  0  0  0  0  0
  -20.9110   -6.0640   24.8790 C   0  0  0  0  0  3  0  0  0  0  0  0
  -21.3210   -4.7170   24.8910 C   0  0  0  0  0  0  0  0  0  0  0  0
  -21.9060   -4.1460   23.7480 C   0  0  0  0  0  3  0  0  0  0  0  0
  -22.0800   -4.9230   22.5880 C   0  0  0  0  0  0  0  0  0  0  0  0
  -22.6260   -4.3630   21.4800 F   0  0  0  0  0  0  0  0  0  0  0  0
  -21.1500   -3.9660   26.0040 F   0  0  0  0  0  0  0  0  0  0  0  0
  -22.8450  -13.6280   21.1380 C   0  0  0  0  0  0  0  0  0  0  0  0
  -22.1200  -12.9060   21.9880 N   0  0  0  0  0  0  0  0  0  0  0  0
  -22.4010  -14.6610   20.6400 O   0  0  0  0  0  0  0  0  0  0  0  0
  -22.4860  -12.0650   22.4070 H   0  0  0  0  0  0  0  0  0  0  0  0
  -21.1820  -13.2010   22.2190 H   0  0  0  0  0  0  0  0  0  0  0  0
  -25.4650  -15.3240   20.3400 N   0  0  0  0  0  0  0  0  0  0  0  0
  -24.7000  -15.9760   20.4690 H   0  0  0  0  0  0  0  0  0  0  0  0
  -26.3240  -15.7840   20.0620 H   0  0  0  0  0  0  0  0  0  0  0  0
  1  5  1  0
  1 57  1  0
  2  6  1  0
  2  4  2  0
  3  5  2  0
  4  1  2  0
  6  3  1  0
  7  2  1  0
  8  3  1  0
  8 13  1  0
  9  7  1  0
 10  7  1  0
 11  8  1  0
 13 12  1  0
 14 13  1  0
 14 15  2  0
 16 15  1  0
 17 28  2  0
 18 16  1  0
 18 23  1  0
 19 27  1  0
 19 29  1  0
 20 22  1  0
 21 27  1  0
 22 23  2  0
 22 21  1  0
 24 18  2  0
 25 24  1  0
 25 20  2  0
 26 20  1  0
 26 19  1  0
 27 17  1  0
 29 31  2  0
 30 29  1  0
 32 30  1  0
 33 42  2  0
 33 38  1  0
 34 30  1  0
 34 38  1  0
 35 34  1  0
 36 37  1  0
 36 35  1  0
 37 33  1  0
 38 39  2  0
 39 40  1  0
 41 40  2  0
 42 41  1  0
 43 17  1  0
 43 48  1  0
 43 44  1  0
 44 47  1  1
 44 45  1  0
 46 44  1  0
 48 51  1  0
 49 53  1  0
 49 48  1  0
 50 49  2  0
 53 52  1  0
 55 53  1  0
 55 56  1  0
 55 54  1  0
 58 66  1  0
 59 64  1  0
 60 61  1  0
 60 59  1  0
 62 61  1  0
 62 71  1  0
 62 63  1  0
 64 58  1  0
 64 63  1  0
 65 58  2  0
 66 57  1  0
 66 67  1  0
 68 69  2  0
 69 88  1  0
 70 69  1  0
 70 73  1  0
 71 68  1  0
 71 72  1  0
 72 70  2  0
 73 74  1  0
 74 75  2  0
 76 79  1  0
 76 75  1  0
 77 76  2  0
 78 77  1  0
 78 73  2  0
 79 80  1  0
 80 85  2  0
 80 81  1  0
 81 82  2  0
 82 83  1  0
 83 87  1  0
 84 83  2  0
 85 84  1  0
 86 85  1  0
 88 89  1  0
 89 92  1  0
 89 91  1  0
 90 88  2  0
 93 94  1  0
 93 68  1  0
 95 93  1  0
M  ISO  4  15 101  16 101  58 100  66 100
M  END
>  <TORSDO>  (71) 
F 20

>  <SCORE>  (71) 
-13.875

>  <name>  (71) 
70

>  <ligand_id>  (71) 
70

>  <original_smiles>  (71) 
[H]c1c([H])c([H])c2c(c1[H])C([H])([H])C([H])([H])C([H])([H])C2([H])N([H])C(=O)C1([H])N(C(=O)C([H])(N([H])C(=O)C([H])(N([H])C([H])([H])[H])C([H])([H])[H])C(C([H])([H])[H])(C([H])([H])[H])C([H])([H])[H])C([H])([H])c2c([H])c(OC([H])([H])C([H])([H])C([H])(N([H])c3nc(N([H])[H])nc(C([H])([H])N([H])C(=O)N4C([H])([H])C([H])([H])C([H])([H])C([H])(n5nc(-c6c([H])c([H])c(Oc7c([H])c([H])c(F)c([H])c7F)c([H])c6[H])c(C(=O)N([H])[H])c5N([H])[H])C4([H])[H])n3)C([H])([H])[H])c([H])c([H])c2C1([H])[H]

>  <smiles>  (71) 
[H]c1c([H])c([H])c2c(c1[H])C([H])([H])C([H])([H])C([H])([H])C2([H])N([H])C(=O)C1([H])N(C(=O)C([H])(N([H])C(=O)C([H])(N([H])C([H])([H])[H])C([H])([H])[H])C(C([H])([H])[H])(C([H])([H])[H])C([H])([H])[H])C([H])([H])c2c([H])c(OC([H])([H])C([H])([H])C([H])(N([H])c3nc(N([H])[H])nc(C([H])([H])N([H])C(=O)N4C([H])([H])C([H])([H])C([H])([H])C([H])(n5nc(-c6c([H])c([H])c(Oc7c([H])c([H])c(F)c([H])c7F)c([H])c6[H])c(C(=O)N([H])[H])c5N([H])[H])C4([H])[H])n3)C([H])([H])[H])c([H])c([H])c2C1([H])[H]

$$$$
71:0:0
     RDKit          3D

100108  0  0  1  0  0  0  0  0999 V2000
  -29.9820  -23.3650   19.8180 C   0  0  0  0  0  3  0  0  0  0  0  0
  -29.6060  -21.9680   20.1860 N   0  0  0  0  0  4  0  0  0  0  0  0
  -28.7410  -22.0440   20.7010 H   0  0  0  0  0  0  0  0  0  0  0  0
  -29.3630  -21.4990   19.3300 H   0  0  0  0  0  0  0  0  0  0  0  0
  -30.6220  -21.1780   20.9420 C   0  0  0  0  0  3  0  0  0  0  0  0
  -30.8890  -14.4450   20.1070 C   0  0  0  0  0  0  0  0  0  0  0  0
  -30.5390  -12.3030   18.9250 C   0  0  0  0  0  2  0  0  0  0  0  0
  -29.5460  -12.5360   17.7670 C   0  0  0  0  0  2  0  0  0  0  0  0
  -28.0880  -12.4090   18.2530 C   0  0  0  0  0  2  0  0  0  0  0  0
  -27.8130  -13.2250   19.5440 C   0  0  0  0  0  3  0  0  0  0  0  0
  -28.9090  -12.9570   20.6010 C   0  0  0  0  0  2  0  0  0  0  0  0
  -30.2160  -13.2650   19.9920 N   0  0  0  0  0  0  0  0  0  0  0  0
  -31.9880  -14.6270   19.5700 O   0  0  0  0  0  0  0  0  0  0  0  0
  -29.3700  -18.9660   21.4450 C   0  0  0  0  0  3  0  0  0  0  0  0
  -29.3300  -17.5570   21.3970 C   0  0  0  0  0  3  0  0  0  0  0  0
  -31.4000  -18.8520   20.1710 C   0  0  0  0  0  3  0  0  0  0  0  0
  -30.4380  -19.6490   20.8270 C   0  0  0  0  0  0  0  0  0  0  0  0
  -30.3450  -16.8320   20.7350 C   0  0  0  0  0  0  0  0  0  0  0  0
  -31.3540  -17.4990   20.1220 N   0  0  0  0  0  0  0  0  0  0  0  0
  -30.2090  -15.4100   20.7640 N   0  0  0  0  0  0  0  0  0  0  0  0
  -29.3760  -15.0730   21.2170 H   0  0  0  0  0  0  0  0  0  0  0  0
  -25.4490  -13.8560   20.3440 C   0  0  0  0  0  0  0  0  0  0  0  0
  -24.3870  -13.0930   20.7500 C   0  0  0  0  0  0  0  0  0  0  0  0
  -24.8320  -11.7360   20.6930 C   0  0  0  0  0  0  0  0  0  0  0  0
  -26.4750  -12.9650   20.0680 N   0  0  0  0  0  0  0  0  0  0  0  0
  -26.1100  -11.6850   20.3360 N   0  0  0  0  0  0  0  0  0  0  0  0
  -24.1010  -10.4800   20.9060 C   0  0  0  0  0  0  0  0  0  0  0  0
  -24.5190   -9.5370   21.8710 C   0  0  0  0  0  3  0  0  0  0  0  0
  -23.7910   -8.3440   22.0680 C   0  0  0  0  0  3  0  0  0  0  0  0
  -22.6290   -8.0860   21.3010 C   0  0  0  0  0  0  0  0  0  0  0  0
  -22.2310   -9.0190   20.3270 C   0  0  0  0  0  3  0  0  0  0  0  0
  -22.9600  -10.2030   20.1280 C   0  0  0  0  0  3  0  0  0  0  0  0
  -21.8740   -6.9440   21.4070 O   0  0  0  0  0  0  0  0  0  0  0  0
  -21.7480   -6.2710   22.5950 C   0  0  0  0  0  0  0  0  0  0  0  0
  -21.2400   -6.8950   23.7550 C   0  0  0  0  0  3  0  0  0  0  0  0
  -21.0640   -6.1460   24.9360 C   0  0  0  0  0  3  0  0  0  0  0  0
  -21.3850   -4.7760   24.9570 C   0  0  0  0  0  0  0  0  0  0  0  0
  -21.8860   -4.1520   23.8020 C   0  0  0  0  0  3  0  0  0  0  0  0
  -22.0640   -4.8970   22.6220 C   0  0  0  0  0  0  0  0  0  0  0  0
  -22.5280   -4.2870   21.5050 F   0  0  0  0  0  0  0  0  0  0  0  0
  -21.2080   -4.0540   26.0890 F   0  0  0  0  0  0  0  0  0  0  0  0
  -23.0070  -13.5820   21.0790 C   0  0  0  0  0  0  0  0  0  0  0  0
  -22.3060  -12.8890   21.9700 N   0  0  0  0  0  0  0  0  0  0  0  0
  -22.5580  -14.6130   20.5800 O   0  0  0  0  0  0  0  0  0  0  0  0
  -22.6820  -12.0550   22.3950 H   0  0  0  0  0  0  0  0  0  0  0  0
  -21.3800  -13.1990   22.2310 H   0  0  0  0  0  0  0  0  0  0  0  0
  -25.6210  -15.2270   20.1700 N   0  0  0  0  0  0  0  0  0  0  0  0
  -24.8630  -15.8840   20.3130 H   0  0  0  0  0  0  0  0  0  0  0  0
  -26.4580  -15.6590   19.7980 H   0  0  0  0  0  0  0  0  0  0  0  0
  -31.8500  -20.9510   23.2080 C   0  0  0  0  0  1  0  0  0  0  0  0
  -30.7240  -21.6390   22.4190 C   0  0  0  0  0  2  0  0  0  0  0  0
  -30.9120  -23.3610   18.5730 C   0  0  0  0  0  2  0  0  0  0  0  0
  -32.1860  -24.7420   16.8680 C   0  0  0  0  0  1  0  0  0  0  0  0
  -32.8430  -24.8840   19.2990 C   0  0  0  0  0  1  0  0  0  0  0  0
  -31.6750  -24.6840   18.3160 C   0  0  0  0  0  3  0  0  0  0  0  0
  -28.7080  -24.2520   19.5750 C   0  0  0  0  0  3  0  0  0  0  0  0
  -27.5690  -23.4110   19.4210 O   0  0  0  0  0  0  0  0  0  0  0  0
  -26.8750  -23.9300   19.0280 H   0  0  0  0  0  0  0  0  0  0  0  0
  -28.4240  -25.3370   20.6580 C   0  0  0  0  0  2  0  0  0  0  0  0
  -28.4860  -26.6790   20.1460 O   0  0  0  0  0  0  0  0  0  0  0  0
  -24.7050  -31.8520   23.2530 C   0  0  0  0  0  0  0  0  0  0  0  0
  -27.3130  -27.4000   20.1650 C   0  0  0  0  0  0  0  0  0  0  0  0
  -23.4820  -30.4540   21.6200 C   0  0  0  0  0  3  0  0  0  0  0  0
  -24.9200  -28.9060   20.1900 C   0  0  0  0  0  0  0  0  0  0  0  0
  -26.0050  -30.8060   21.4010 C   0  0  0  0  0  2  0  0  0  0  0  0
  -26.0830  -29.4340   20.7630 C   0  0  0  0  0  0  0  0  0  0  0  0
  -27.2850  -28.6900   20.7420 C   0  0  0  0  0  3  0  0  0  0  0  0
  -26.1320  -26.8840   19.5900 C   0  0  0  0  0  3  0  0  0  0  0  0
  -24.9380  -27.6300   19.6000 C   0  0  0  0  0  3  0  0  0  0  0  0
  -23.6780  -29.7680   20.2410 C   0  0  0  0  0  2  0  0  0  0  0  0
  -24.7490  -31.0510   22.1500 N   0  0  0  0  0  0  0  0  0  0  0  0
  -23.6280  -32.1280   23.8000 O   0  0  0  0  0  0  0  0  0  0  0  0
  -22.8340  -29.4360   22.5860 C   0  0  0  0  0  0  0  0  0  0  0  0
  -21.5100  -29.2510   22.4600 N   0  0  0  0  0  0  0  0  0  0  0  0
  -23.5190  -28.8160   23.4050 O   0  0  0  0  0  0  0  0  0  0  0  0
  -21.0200  -29.8020   21.7690 H   0  0  0  0  0  0  0  0  0  0  0  0
  -18.1400  -28.0400   22.9430 C   0  0  0  0  0  0  0  0  0  0  0  0
  -20.6940  -28.3160   23.2340 C   0  0  0  0  0  3  0  0  0  0  0  0
  -20.8100  -26.8810   22.6720 C   0  0  0  0  0  2  0  0  0  0  0  0
  -19.7190  -26.5410   21.6530 C   0  0  0  0  0  2  0  0  0  0  0  0
  -18.3310  -26.6840   22.2840 C   0  0  0  0  0  2  0  0  0  0  0  0
  -19.2500  -28.8130   23.3740 C   0  0  0  0  0  0  0  0  0  0  0  0
  -19.0190  -30.0820   23.9490 C   0  0  0  0  0  3  0  0  0  0  0  0
  -17.7100  -30.5780   24.0980 C   0  0  0  0  0  3  0  0  0  0  0  0
  -16.6140  -29.8020   23.6830 C   0  0  0  0  0  3  0  0  0  0  0  0
  -16.8300  -28.5340   23.1120 C   0  0  0  0  0  3  0  0  0  0  0  0
  -25.9970  -32.4770   23.8650 C   0  0  0  0  0  3  0  0  0  0  0  0
  -25.6960  -33.8750   24.1990 N   0  0  0  0  0  0  0  0  0  0  0  0
  -26.0290  -34.9270   23.4380 C   0  0  0  0  0  0  0  0  0  0  0  0
  -26.6920  -34.8220   22.4040 O   0  0  0  0  0  0  0  0  0  0  0  0
  -25.1060  -34.0310   25.0040 H   0  0  0  0  0  0  0  0  0  0  0  0
  -24.3030  -36.7230   23.0940 C   0  0  0  0  0  1  0  0  0  0  0  0
  -25.5470  -36.3160   23.8990 C   0  0  0  0  0  3  0  0  0  0  0  0
  -27.6890  -37.1930   24.7190 C   0  0  0  0  0  1  0  0  0  0  0  0
  -26.5810  -37.3670   23.7820 N   0  0  0  0  0  0  0  0  0  0  0  0
  -26.1790  -38.2870   23.9350 H   0  0  0  0  0  0  0  0  0  0  0  0
  -26.5240  -31.7010   25.1340 C   0  0  1  0  0  0  0  0  0  0  0  0
  -25.4420  -31.4680   26.2140 C   0  0  0  0  0  1  0  0  0  0  0  0
  -27.0940  -30.3210   24.7290 C   0  0  0  0  0  1  0  0  0  0  0  0
  -27.6860  -32.4880   25.7840 C   0  0  0  0  0  1  0  0  0  0  0  0
  1 52  1  0
  1  2  1  0
  2  3  1  0
  2  5  1  0
  4  2  1  0
  5 51  1  0
  6 20  1  0
  7 12  1  0
  8  9  1  0
  8  7  1  0
 10  9  1  0
 10 25  1  0
 10 11  1  0
 12  6  1  0
 12 11  1  0
 13  6  2  0
 15 14  1  0
 16 17  1  0
 17  5  1  0
 17 14  2  0
 18 20  1  0
 18 15  2  0
 19 16  2  0
 19 18  1  0
 20 21  1  0
 22 23  2  0
 23 42  1  0
 24 23  1  0
 24 27  1  0
 25 26  1  0
 25 22  1  0
 26 24  2  0
 27 28  1  0
 28 29  2  0
 30 33  1  0
 30 29  1  0
 31 30  2  0
 32 31  1  0
 32 27  2  0
 33 34  1  0
 34 39  2  0
 34 35  1  0
 35 36  2  0
 36 37  1  0
 37 41  1  0
 38 37  2  0
 39 38  1  0
 40 39  1  0
 42 43  1  0
 43 46  1  0
 43 45  1  0
 44 42  2  0
 47 48  1  0
 47 22  1  0
 49 47  1  0
 51 50  1  0
 53 55  1  0
 55 52  1  0
 55 54  1  0
 56  1  1  0
 56 59  1  0
 57 56  1  0
 58 57  1  0
 60 62  1  0
 60 59  1  0
 61 72  2  0
 62 67  1  0
 63 71  1  0
 63 73  1  0
 64 70  1  0
 64 66  1  0
 65 71  1  0
 66 65  1  0
 67 66  2  0
 68 69  1  0
 68 62  2  0
 69 64  2  0
 70 63  1  0
 71 61  1  0
 73 75  2  0
 74 73  1  0
 76 74  1  0
 77 86  2  0
 77 82  1  0
 78 74  1  0
 78 82  1  0
 79 78  1  0
 80 81  1  0
 80 79  1  0
 81 77  1  0
 82 83  2  0
 83 84  1  0
 85 84  2  0
 86 85  1  0
 87 61  1  0
 87 88  1  0
 87 97  1  0
 88 91  1  0
 89 93  1  0
 89 88  1  0
 90 89  2  0
 93 92  1  0
 95 93  1  0
 95 96  1  0
 95 94  1  0
 97100  1  1
 97 98  1  0
 99 97  1  0
M  ISO  4   6 100  20 100  59 101  60 101
M  END
>  <TORSDO>  (72) 
F 24

>  <SCORE>  (72) 
-12.163

>  <name>  (72) 
71

>  <ligand_id>  (72) 
71

>  <original_smiles>  (72) 
[H]OC([H])(C([H])([H])Oc1c([H])c([H])c2c(c1[H])C([H])([H])N(C(=O)C([H])(N([H])C(=O)C([H])(N([H])C([H])([H])[H])C([H])([H])[H])C(C([H])([H])[H])(C([H])([H])[H])C([H])([H])[H])C([H])(C(=O)N([H])C1([H])c3c([H])c([H])c([H])c([H])c3C([H])([H])C([H])([H])C1([H])[H])C2([H])[H])C([H])(C([H])([H])C([H])(C([H])([H])[H])C([H])([H])[H])[N+]([H])([H])C([H])(c1c([H])nc(N([H])C(=O)N2C([H])([H])C([H])([H])C([H])([H])C([H])(n3nc(-c4c([H])c([H])c(Oc5c([H])c([H])c(F)c([H])c5F)c([H])c4[H])c(C(=O)N([H])[H])c3N([H])[H])C2([H])[H])c([H])c1[H])C([H])([H])C([H])([H])[H]

>  <smiles>  (72) 
[H]OC([H])(C([H])([H])Oc1c([H])c([H])c2c(c1[H])C([H])([H])N(C(=O)C([H])(N([H])C(=O)C([H])(N([H])C([H])([H])[H])C([H])([H])[H])C(C([H])([H])[H])(C([H])([H])[H])C([H])([H])[H])C([H])(C(=O)N([H])C1([H])c3c([H])c([H])c([H])c([H])c3C([H])([H])C([H])([H])C1([H])[H])C2([H])[H])C([H])(C([H])([H])C([H])(C([H])([H])[H])C([H])([H])[H])[N+]([H])([H])C([H])(c1c([H])nc(N([H])C(=O)N2C([H])([H])C([H])([H])C([H])([H])C([H])(n3nc(-c4c([H])c([H])c(Oc5c([H])c([H])c(F)c([H])c5F)c([H])c4[H])c(C(=O)N([H])[H])c3N([H])[H])C2([H])[H])c([H])c1[H])C([H])([H])C([H])([H])[H]

$$$$
72:0:0
     RDKit          3D

 92100  0  0  1  0  0  0  0  0999 V2000
  -28.7190  -21.4780   18.7350 C   0  0  0  0  0  1  0  0  0  0  0  0
  -28.1960  -21.5100   20.1810 C   0  0  0  0  0  3  0  0  0  0  0  0
  -31.5110  -17.5450   20.6410 C   0  0  0  0  0  3  0  0  0  0  0  0
  -30.7740  -19.7390   20.6770 C   0  0  0  0  0  3  0  0  0  0  0  0
  -30.1800  -17.0480   20.7060 C   0  0  0  0  0  0  0  0  0  0  0  0
  -29.4320  -19.3000   20.7490 C   0  0  0  0  0  0  0  0  0  0  0  0
  -31.8120  -18.8690   20.6280 N   0  0  0  0  0  0  0  0  0  0  0  0
  -29.1510  -17.9590   20.7770 N   0  0  0  0  0  0  0  0  0  0  0  0
  -28.3300  -20.1870   20.8440 N   0  0  0  0  0  0  0  0  0  0  0  0
  -27.4500  -19.7130   21.0100 H   0  0  0  0  0  0  0  0  0  0  0  0
  -30.6570  -14.5660   20.3030 C   0  0  0  0  0  0  0  0  0  0  0  0
  -30.3710  -12.3710   19.1920 C   0  0  0  0  0  2  0  0  0  0  0  0
  -29.4060  -12.5310   17.9950 C   0  0  0  0  0  2  0  0  0  0  0  0
  -27.9410  -12.3870   18.4540 C   0  0  0  0  0  2  0  0  0  0  0  0
  -27.6140  -13.2410   19.7090 C   0  0  0  0  0  3  0  0  0  0  0  0
  -28.6900  -13.0530   20.8010 C   0  0  0  0  0  2  0  0  0  0  0  0
  -29.9950  -13.3760   20.2040 N   0  0  0  0  0  0  0  0  0  0  0  0
  -31.8050  -14.6960   19.8760 O   0  0  0  0  0  0  0  0  0  0  0  0
  -29.9030  -15.6250   20.7170 N   0  0  0  0  0  0  0  0  0  0  0  0
  -28.9520  -15.3810   20.9390 H   0  0  0  0  0  0  0  0  0  0  0  0
  -25.2340  -13.8450   20.4710 C   0  0  0  0  0  0  0  0  0  0  0  0
  -24.1730  -13.0720   20.8580 C   0  0  0  0  0  0  0  0  0  0  0  0
  -24.6330  -11.7210   20.8140 C   0  0  0  0  0  0  0  0  0  0  0  0
  -26.2740  -12.9630   20.2140 N   0  0  0  0  0  0  0  0  0  0  0  0
  -25.9180  -11.6810   20.4820 N   0  0  0  0  0  0  0  0  0  0  0  0
  -23.9120  -10.4580   21.0130 C   0  0  0  0  0  0  0  0  0  0  0  0
  -24.3550   -9.4940   21.9460 C   0  0  0  0  0  3  0  0  0  0  0  0
  -23.6360   -8.2920   22.1330 C   0  0  0  0  0  3  0  0  0  0  0  0
  -22.4580   -8.0480   21.3870 C   0  0  0  0  0  0  0  0  0  0  0  0
  -22.0320   -9.0020   20.4440 C   0  0  0  0  0  3  0  0  0  0  0  0
  -22.7510  -10.1940   20.2560 C   0  0  0  0  0  3  0  0  0  0  0  0
  -21.7080   -6.9010   21.4830 O   0  0  0  0  0  0  0  0  0  0  0  0
  -21.6660   -6.1660   22.6410 C   0  0  0  0  0  0  0  0  0  0  0  0
  -21.2230   -6.7220   23.8610 C   0  0  0  0  0  3  0  0  0  0  0  0
  -21.1290   -5.9110   25.0090 C   0  0  0  0  0  3  0  0  0  0  0  0
  -21.4620   -4.5460   24.9380 C   0  0  0  0  0  0  0  0  0  0  0  0
  -21.9000   -3.9910   23.7230 C   0  0  0  0  0  3  0  0  0  0  0  0
  -21.9970   -4.7990   22.5770 C   0  0  0  0  0  0  0  0  0  0  0  0
  -22.3970   -4.2540   21.4020 F   0  0  0  0  0  0  0  0  0  0  0  0
  -21.3660   -3.7650   26.0400 F   0  0  0  0  0  0  0  0  0  0  0  0
  -22.7800  -13.5490   21.1520 C   0  0  0  0  0  0  0  0  0  0  0  0
  -22.0620  -12.8560   22.0270 N   0  0  0  0  0  0  0  0  0  0  0  0
  -22.3340  -14.5760   20.6400 O   0  0  0  0  0  0  0  0  0  0  0  0
  -22.4350  -12.0330   22.4740 H   0  0  0  0  0  0  0  0  0  0  0  0
  -21.1260  -13.1590   22.2600 H   0  0  0  0  0  0  0  0  0  0  0  0
  -25.3970  -15.2140   20.2940 N   0  0  0  0  0  0  0  0  0  0  0  0
  -24.6370  -15.8720   20.4280 H   0  0  0  0  0  0  0  0  0  0  0  0
  -26.2310  -15.6500   19.9220 H   0  0  0  0  0  0  0  0  0  0  0  0
  -28.6980  -22.7380   21.0270 C   0  0  0  0  0  2  0  0  0  0  0  0
  -27.9700  -24.1430   20.9310 C   0  0  0  0  0  2  0  0  0  0  0  0
  -28.4280  -25.1750   19.8410 C   0  0  0  0  0  2  0  0  0  0  0  0
  -28.4040  -26.5930   20.2150 O   0  0  0  0  0  0  0  0  0  0  0  0
  -24.6090  -31.8760   23.2220 C   0  0  0  0  0  0  0  0  0  0  0  0
  -27.2430  -27.3590   20.1660 C   0  0  0  0  0  0  0  0  0  0  0  0
  -23.4140  -30.4720   21.5770 C   0  0  0  0  0  3  0  0  0  0  0  0
  -24.8710  -28.9300   20.1540 C   0  0  0  0  0  0  0  0  0  0  0  0
  -25.9490  -30.8070   21.4010 C   0  0  0  0  0  2  0  0  0  0  0  0
  -26.0310  -29.4330   20.7550 C   0  0  0  0  0  0  0  0  0  0  0  0
  -27.2210  -28.6580   20.7470 C   0  0  0  0  0  3  0  0  0  0  0  0
  -26.0640  -26.8920   19.5480 C   0  0  0  0  0  3  0  0  0  0  0  0
  -24.8880  -27.6660   19.5400 C   0  0  0  0  0  3  0  0  0  0  0  0
  -23.6280  -29.7910   20.2000 C   0  0  0  0  0  2  0  0  0  0  0  0
  -24.6750  -31.0690   22.1240 N   0  0  0  0  0  0  0  0  0  0  0  0
  -23.5230  -32.1500   23.7540 O   0  0  0  0  0  0  0  0  0  0  0  0
  -22.7550  -29.4520   22.5370 C   0  0  0  0  0  0  0  0  0  0  0  0
  -21.4300  -29.2800   22.4110 N   0  0  0  0  0  0  0  0  0  0  0  0
  -23.4370  -28.8170   23.3460 O   0  0  0  0  0  0  0  0  0  0  0  0
  -20.9420  -29.8390   21.7250 H   0  0  0  0  0  0  0  0  0  0  0  0
  -18.0440  -28.1230   22.9290 C   0  0  0  0  0  0  0  0  0  0  0  0
  -20.6070  -28.3440   23.1780 C   0  0  0  0  0  3  0  0  0  0  0  0
  -20.6850  -26.9190   22.5810 C   0  0  0  0  0  2  0  0  0  0  0  0
  -19.5680  -26.6250   21.5760 C   0  0  0  0  0  2  0  0  0  0  0  0
  -18.1940  -26.7810   22.2360 C   0  0  0  0  0  2  0  0  0  0  0  0
  -19.1770  -28.8640   23.3580 C   0  0  0  0  0  0  0  0  0  0  0  0
  -18.9820  -30.1240   23.9660 C   0  0  0  0  0  3  0  0  0  0  0  0
  -17.6850  -30.6420   24.1510 C   0  0  0  0  0  3  0  0  0  0  0  0
  -16.5670  -29.8950   23.7410 C   0  0  0  0  0  3  0  0  0  0  0  0
  -16.7470  -28.6390   23.1360 C   0  0  0  0  0  3  0  0  0  0  0  0
  -25.8880  -32.5110   23.8500 C   0  0  0  0  0  3  0  0  0  0  0  0
  -26.4020  -31.7400   25.1270 C   0  0  1  0  0  0  0  0  0  0  0  0
  -25.3040  -31.5010   26.1910 C   0  0  0  0  0  1  0  0  0  0  0  0
  -26.9930  -30.3640   24.7390 C   0  0  0  0  0  1  0  0  0  0  0  0
  -27.5450  -32.5400   25.7950 C   0  0  0  0  0  1  0  0  0  0  0  0
  -25.5740  -33.9070   24.1800 N   0  0  0  0  0  0  0  0  0  0  0  0
  -25.9020  -34.9620   23.4230 C   0  0  0  0  0  0  0  0  0  0  0  0
  -26.5720  -34.8620   22.3910 O   0  0  0  0  0  0  0  0  0  0  0  0
  -24.9820  -34.0590   24.9830 H   0  0  0  0  0  0  0  0  0  0  0  0
  -24.1690  -36.7490   23.0660 C   0  0  0  0  0  1  0  0  0  0  0  0
  -25.4070  -36.3460   23.8810 C   0  0  0  0  0  3  0  0  0  0  0  0
  -27.5350  -37.2380   24.7250 C   0  0  0  0  0  1  0  0  0  0  0  0
  -26.4370  -37.4030   23.7760 N   0  0  0  0  0  0  0  0  0  0  0  0
  -26.0270  -38.3220   23.9210 H   0  0  0  0  0  0  0  0  0  0  0  0
  2  1  1  0
  2  9  1  0
  2 49  1  0
  3  5  1  0
  4  6  2  0
  5 19  1  0
  5  8  2  0
  6  8  1  0
  6  9  1  0
  7  3  2  0
  7  4  1  0
  9 10  1  0
 11 19  1  0
 12 17  1  0
 13 14  1  0
 13 12  1  0
 15 14  1  0
 15 24  1  0
 15 16  1  0
 17 11  1  0
 17 16  1  0
 18 11  2  0
 19 20  1  0
 21 22  2  0
 22 41  1  0
 23 22  1  0
 23 26  1  0
 24 21  1  0
 24 25  1  0
 25 23  2  0
 26 27  1  0
 27 28  2  0
 29 32  1  0
 29 28  1  0
 30 29  2  0
 31 30  1  0
 31 26  2  0
 32 33  1  0
 33 34  1  0
 34 35  2  0
 36 35  1  0
 36 40  1  0
 37 36  2  0
 38 33  2  0
 38 37  1  0
 39 38  1  0
 41 42  1  0
 42 45  1  0
 42 44  1  0
 43 41  2  0
 46 47  1  0
 46 21  1  0
 48 46  1  0
 50 49  1  0
 51 52  1  0
 51 50  1  0
 53 64  2  0
 54 52  1  0
 54 59  1  0
 55 63  1  0
 55 65  1  0
 56 62  1  0
 56 58  1  0
 57 63  1  0
 58 57  1  0
 59 58  2  0
 60 54  2  0
 61 60  1  0
 61 56  2  0
 62 55  1  0
 63 53  1  0
 65 67  2  0
 66 65  1  0
 68 66  1  0
 69 78  2  0
 69 74  1  0
 70 66  1  0
 70 74  1  0
 71 70  1  0
 72 73  1  0
 72 71  1  0
 73 69  1  0
 74 75  2  0
 75 76  1  0
 77 76  2  0
 78 77  1  0
 79 53  1  0
 79 84  1  0
 79 80  1  0
 80 83  1  1
 80 81  1  0
 82 80  1  0
 84 87  1  0
 85 89  1  0
 85 84  1  0
 86 85  2  0
 89 88  1  0
 91 89  1  0
 91 92  1  0
 91 90  1  0
M  ISO  4  11 100  19 100  51 101  52 101
M  END
>  <TORSDO>  (73) 
F 20

>  <SCORE>  (73) 
-14.231

>  <name>  (73) 
72

>  <ligand_id>  (73) 
72

>  <original_smiles>  (73) 
[H]c1nc([H])c(N([H])C([H])(C([H])([H])[H])C([H])([H])C([H])([H])C([H])([H])Oc2c([H])c([H])c3c(c2[H])C([H])([H])N(C(=O)C([H])(N([H])C(=O)C([H])(N([H])C([H])([H])[H])C([H])([H])[H])C(C([H])([H])[H])(C([H])([H])[H])C([H])([H])[H])C([H])(C(=O)N([H])C2([H])c4c([H])c([H])c([H])c([H])c4C([H])([H])C([H])([H])C2([H])[H])C3([H])[H])nc1N([H])C(=O)N1C([H])([H])C([H])([H])C([H])([H])C([H])(n2nc(-c3c([H])c([H])c(Oc4c([H])c([H])c(F)c([H])c4F)c([H])c3[H])c(C(=O)N([H])[H])c2N([H])[H])C1([H])[H]

>  <smiles>  (73) 
[H]c1nc([H])c(N([H])C([H])(C([H])([H])[H])C([H])([H])C([H])([H])C([H])([H])Oc2c([H])c([H])c3c(c2[H])C([H])([H])N(C(=O)C([H])(N([H])C(=O)C([H])(N([H])C([H])([H])[H])C([H])([H])[H])C(C([H])([H])[H])(C([H])([H])[H])C([H])([H])[H])C([H])(C(=O)N([H])C2([H])c4c([H])c([H])c([H])c([H])c4C([H])([H])C([H])([H])C2([H])[H])C3([H])[H])nc1N([H])C(=O)N1C([H])([H])C([H])([H])C([H])([H])C([H])(n2nc(-c3c([H])c([H])c(Oc4c([H])c([H])c(F)c([H])c4F)c([H])c3[H])c(C(=O)N([H])[H])c2N([H])[H])C1([H])[H]

$$$$
73:0:0
     RDKit          3D

 91 99  0  0  1  0  0  0  0  0999 V2000
  -27.3700  -20.3310   20.0830 C   0  0  0  0  0  3  0  0  0  0  0  0
  -27.2380  -18.9420   19.8960 C   0  0  0  0  0  3  0  0  0  0  0  0
  -28.6570  -20.8780   20.1630 C   0  0  0  0  0  0  0  0  0  0  0  0
  -29.4920  -18.6100   20.0750 C   0  0  0  0  0  0  0  0  0  0  0  0
  -28.2850  -18.0950   19.8920 N   0  0  0  0  0  0  0  0  0  0  0  0
  -29.7130  -19.9700   20.1750 N   0  0  0  0  0  0  0  0  0  0  0  0
  -28.8670  -22.3210   20.2350 N   0  0  0  0  0  4  0  0  0  0  0  0
  -29.8300  -22.6030   20.3730 H   0  0  0  0  0  0  0  0  0  0  0  0
  -26.9100  -23.6290   19.1130 C   0  0  0  0  0  1  0  0  0  0  0  0
  -27.8370  -23.4620   20.3410 C   0  0  0  0  0  0  0  0  0  0  0  0
  -28.2460  -24.9320   21.0010 C   0  0  0  0  0  2  0  0  0  0  0  0
  -28.4670  -26.3070   20.3740 O   0  0  0  0  0  0  0  0  0  0  0  0
  -24.6320  -31.8040   23.2850 C   0  0  0  0  0  0  0  0  0  0  0  0
  -27.4190  -27.2580   20.3130 C   0  0  0  0  0  0  0  0  0  0  0  0
  -23.5420  -30.4250   21.5550 C   0  0  0  0  0  3  0  0  0  0  0  0
  -25.0870  -28.9300   20.1710 C   0  0  0  0  0  0  0  0  0  0  0  0
  -26.0890  -30.7570   21.5310 C   0  0  0  0  0  2  0  0  0  0  0  0
  -26.2150  -29.3820   20.8690 C   0  0  0  0  0  0  0  0  0  0  0  0
  -27.3880  -28.5550   20.9420 C   0  0  0  0  0  3  0  0  0  0  0  0
  -26.3070  -26.9260   19.5210 C   0  0  0  0  0  3  0  0  0  0  0  0
  -25.1410  -27.7130   19.4800 C   0  0  0  0  0  3  0  0  0  0  0  0
  -23.8420  -29.7960   20.1720 C   0  0  0  0  0  2  0  0  0  0  0  0
  -24.7700  -31.0120   22.1830 N   0  0  0  0  0  0  0  0  0  0  0  0
  -23.5120  -32.0630   23.7560 O   0  0  0  0  0  0  0  0  0  0  0  0
  -22.8380  -29.3740   22.4480 C   0  0  0  0  0  0  0  0  0  0  0  0
  -21.5220  -29.1860   22.2470 N   0  0  0  0  0  0  0  0  0  0  0  0
  -23.4770  -28.7280   23.2840 O   0  0  0  0  0  0  0  0  0  0  0  0
  -21.0610  -29.7480   21.5460 H   0  0  0  0  0  0  0  0  0  0  0  0
  -18.1150  -28.0360   22.6390 C   0  0  0  0  0  0  0  0  0  0  0  0
  -20.6730  -28.2220   22.9510 C   0  0  0  0  0  3  0  0  0  0  0  0
  -20.7520  -26.8330   22.2750 C   0  0  0  0  0  2  0  0  0  0  0  0
  -19.6490  -26.5990   21.2360 C   0  0  0  0  0  2  0  0  0  0  0  0
  -18.2680  -26.7330   21.8760 C   0  0  0  0  0  2  0  0  0  0  0  0
  -19.2430  -28.7490   23.1280 C   0  0  0  0  0  0  0  0  0  0  0  0
  -19.0410  -29.9790   23.7910 C   0  0  0  0  0  3  0  0  0  0  0  0
  -17.7450  -30.4940   23.9730 C   0  0  0  0  0  3  0  0  0  0  0  0
  -16.6330  -29.7770   23.4990 C   0  0  0  0  0  3  0  0  0  0  0  0
  -16.8170  -28.5480   22.8420 C   0  0  0  0  0  3  0  0  0  0  0  0
  -25.8650  -32.4410   23.9920 C   0  0  0  0  0  3  0  0  0  0  0  0
  -26.2820  -31.6800   25.3090 C   0  0  1  0  0  0  0  0  0  0  0  0
  -25.1020  -31.4320   26.2780 C   0  0  0  0  0  1  0  0  0  0  0  0
  -26.9060  -30.3060   24.9710 C   0  0  0  0  0  1  0  0  0  0  0  0
  -27.3600  -32.4880   26.0680 C   0  0  0  0  0  1  0  0  0  0  0  0
  -25.5350  -33.8430   24.2910 N   0  0  0  0  0  0  0  0  0  0  0  0
  -25.8950  -34.8880   23.5370 C   0  0  0  0  0  0  0  0  0  0  0  0
  -26.6150  -34.7790   22.5410 O   0  0  0  0  0  0  0  0  0  0  0  0
  -24.9000  -34.0050   25.0610 H   0  0  0  0  0  0  0  0  0  0  0  0
  -24.1750  -36.6640   23.0700 C   0  0  0  0  0  1  0  0  0  0  0  0
  -25.3730  -36.2780   23.9540 C   0  0  0  0  0  3  0  0  0  0  0  0
  -27.4350  -37.1970   24.9170 C   0  0  0  0  0  1  0  0  0  0  0  0
  -26.4040  -37.3370   23.8910 N   0  0  0  0  0  0  0  0  0  0  0  0
  -25.9810  -38.2550   23.9930 H   0  0  0  0  0  0  0  0  0  0  0  0
  -30.6210  -17.4920   20.2530 C   0  0  0  0  0  2  0  0  0  0  0  0
  -30.9620  -14.8590   20.0990 C   0  0  0  0  0  0  0  0  0  0  0  0
  -30.7370  -12.5310   19.1960 C   0  0  0  0  0  2  0  0  0  0  0  0
  -29.7640  -12.5060   17.9970 C   0  0  0  0  0  2  0  0  0  0  0  0
  -28.3220  -12.3160   18.4950 C   0  0  0  0  0  2  0  0  0  0  0  0
  -27.9580  -13.2990   19.6390 C   0  0  0  0  0  3  0  0  0  0  0  0
  -29.0420  -13.3160   20.7370 C   0  0  0  0  0  2  0  0  0  0  0  0
  -30.3200  -13.6400   20.0870 N   0  0  0  0  0  0  0  0  0  0  0  0
  -32.1460  -14.9270   19.7660 O   0  0  0  0  0  0  0  0  0  0  0  0
  -30.2150  -16.0120   20.2940 N   0  0  0  0  0  0  0  0  0  0  0  0
  -29.2270  -15.8970   20.4630 H   0  0  0  0  0  0  0  0  0  0  0  0
  -25.6330  -13.9340   20.5070 C   0  0  0  0  0  0  0  0  0  0  0  0
  -24.5590  -13.1740   20.8960 C   0  0  0  0  0  0  0  0  0  0  0  0
  -24.9820  -11.8150   20.7990 C   0  0  0  0  0  0  0  0  0  0  0  0
  -26.6360  -13.0320   20.1920 N   0  0  0  0  0  0  0  0  0  0  0  0
  -26.2550  -11.7520   20.4340 N   0  0  0  0  0  0  0  0  0  0  0  0
  -24.2310  -10.5650   20.9820 C   0  0  0  0  0  0  0  0  0  0  0  0
  -24.6210   -9.6000   21.9350 C   0  0  0  0  0  3  0  0  0  0  0  0
  -23.8720   -8.4160   22.1030 C   0  0  0  0  0  3  0  0  0  0  0  0
  -22.7160   -8.1900   21.3180 C   0  0  0  0  0  0  0  0  0  0  0  0
  -22.3440   -9.1440   20.3560 C   0  0  0  0  0  3  0  0  0  0  0  0
  -23.0940  -10.3190   20.1850 C   0  0  0  0  0  3  0  0  0  0  0  0
  -21.9380   -7.0590   21.3970 O   0  0  0  0  0  0  0  0  0  0  0  0
  -21.7870   -6.3740   22.5740 C   0  0  0  0  0  0  0  0  0  0  0  0
  -21.1750   -6.9590   23.7040 C   0  0  0  0  0  3  0  0  0  0  0  0
  -20.9770   -6.1930   24.8710 C   0  0  0  0  0  3  0  0  0  0  0  0
  -21.3750   -4.8420   24.9050 C   0  0  0  0  0  0  0  0  0  0  0  0
  -21.9790   -4.2590   23.7770 C   0  0  0  0  0  3  0  0  0  0  0  0
  -22.1800   -5.0220   22.6140 C   0  0  0  0  0  0  0  0  0  0  0  0
  -22.7430   -4.4500   21.5220 F   0  0  0  0  0  0  0  0  0  0  0  0
  -21.1770   -4.1030   26.0200 F   0  0  0  0  0  0  0  0  0  0  0  0
  -23.1920  -13.6810   21.2420 C   0  0  0  0  0  0  0  0  0  0  0  0
  -22.4870  -12.9680   22.1190 N   0  0  0  0  0  0  0  0  0  0  0  0
  -22.7580  -14.7300   20.7770 O   0  0  0  0  0  0  0  0  0  0  0  0
  -22.8590  -12.1140   22.5090 H   0  0  0  0  0  0  0  0  0  0  0  0
  -21.5730  -13.2810   22.4050 H   0  0  0  0  0  0  0  0  0  0  0  0
  -25.8360  -15.3020   20.3720 N   0  0  0  0  0  0  0  0  0  0  0  0
  -25.1040  -15.9770   20.5590 H   0  0  0  0  0  0  0  0  0  0  0  0
  -26.7030  -15.7320   20.0690 H   0  0  0  0  0  0  0  0  0  0  0  0
  1  3  1  0
  2  1  2  0
  3  6  2  0
  3  7  1  0
  4  6  1  0
  4 53  1  0
  5  2  1  0
  5  4  2  0
  7 10  2  0
  7  8  1  0
  9 10  1  0
 10 11  1  0
 12 11  1  0
 13 24  2  0
 14 12  1  0
 14 19  1  0
 15 23  1  0
 15 25  1  0
 16 22  1  0
 16 18  1  0
 17 23  1  0
 18 19  2  0
 18 17  1  0
 20 14  2  0
 21 20  1  0
 21 16  2  0
 22 15  1  0
 23 13  1  0
 25 27  2  0
 26 25  1  0
 28 26  1  0
 29 38  2  0
 29 34  1  0
 30 26  1  0
 30 34  1  0
 31 30  1  0
 32 33  1  0
 32 31  1  0
 33 29  1  0
 34 35  2  0
 35 36  1  0
 37 36  2  0
 38 37  1  0
 39 13  1  0
 39 44  1  0
 39 40  1  0
 40 43  1  1
 40 41  1  0
 42 40  1  0
 44 47  1  0
 45 49  1  0
 45 44  1  0
 46 45  2  0
 49 48  1  0
 51 49  1  0
 51 52  1  0
 51 50  1  0
 53 62  1  0
 54 62  1  0
 55 60  1  0
 56 57  1  0
 56 55  1  0
 58 57  1  0
 58 67  1  0
 58 59  1  0
 60 54  1  0
 60 59  1  0
 61 54  2  0
 62 63  1  0
 64 65  2  0
 65 84  1  0
 66 65  1  0
 66 69  1  0
 67 68  1  0
 67 64  1  0
 68 66  2  0
 69 70  1  0
 70 71  2  0
 72 75  1  0
 72 71  1  0
 73 72  2  0
 74 73  1  0
 74 69  2  0
 75 76  1  0
 76 81  2  0
 76 77  1  0
 77 78  2  0
 78 79  1  0
 79 83  1  0
 80 79  2  0
 81 80  1  0
 82 81  1  0
 84 85  1  0
 85 88  1  0
 85 87  1  0
 86 84  2  0
 89 64  1  0
 89 90  1  0
 91 89  1  0
M  ISO  4  11 101  12 101  54 100  62 100
M  END
>  <TORSDO>  (74) 
F 19

>  <SCORE>  (74) 
-13.537

>  <name>  (74) 
73

>  <ligand_id>  (74) 
73

>  <original_smiles>  (74) 
[H]c1nc(C([H])([H])N([H])C(=O)N2C([H])([H])C([H])([H])C([H])([H])C([H])(n3nc(-c4c([H])c([H])c(Oc5c([H])c([H])c(F)c([H])c5F)c([H])c4[H])c(C(=O)N([H])[H])c3N([H])[H])C2([H])[H])nc(N([H])C([H])(C([H])([H])[H])C([H])([H])Oc2c([H])c([H])c3c(c2[H])C([H])([H])N(C(=O)C([H])(N([H])C(=O)C([H])(N([H])C([H])([H])[H])C([H])([H])[H])C(C([H])([H])[H])(C([H])([H])[H])C([H])([H])[H])C([H])(C(=O)N([H])C2([H])c4c([H])c([H])c([H])c([H])c4C([H])([H])C([H])([H])C2([H])[H])C3([H])[H])c1[H]

>  <smiles>  (74) 
[H]c1nc(C([H])([H])N([H])C(=O)N2C([H])([H])C([H])([H])C([H])([H])C([H])(n3nc(-c4c([H])c([H])c(Oc5c([H])c([H])c(F)c([H])c5F)c([H])c4[H])c(C(=O)N([H])[H])c3N([H])[H])C2([H])[H])nc(N([H])C([H])(C([H])([H])[H])C([H])([H])Oc2c([H])c([H])c3c(c2[H])C([H])([H])N(C(=O)C([H])(N([H])C(=O)C([H])(N([H])C([H])([H])[H])C([H])([H])[H])C(C([H])([H])[H])(C([H])([H])[H])C([H])([H])[H])C([H])(C(=O)N([H])C2([H])c4c([H])c([H])c([H])c([H])c4C([H])([H])C([H])([H])C2([H])[H])C3([H])[H])c1[H]

$$$$
74:0:0
     RDKit          3D

 93101  0  0  1  0  0  0  0  0999 V2000
  -28.5390  -22.3020   19.7830 N   0  0  0  0  0  0  0  0  0  0  0  0
  -27.6780  -22.7790   19.5450 H   0  0  0  0  0  0  0  0  0  0  0  0
  -27.3470  -20.1920   19.5580 C   0  0  0  0  0  3  0  0  0  0  0  0
  -28.4890  -20.9000   19.8160 C   0  0  0  0  0  0  0  0  0  0  0  0
  -29.2520  -18.7750   20.1780 C   0  0  0  0  0  0  0  0  0  0  0  0
  -29.5830  -20.0810   20.1300 N   0  0  0  0  0  0  0  0  0  0  0  0
  -27.5700  -18.4780   19.7430 S   0  0  0  0  0  0  0  0  0  0  0  0
  -30.1980  -17.7070   20.5480 C   0  0  0  0  0  0  0  0  0  0  0  0
  -31.4550  -17.8350   20.4490 N   0  0  0  0  0  2  0  0  0  0  0  0
  -31.6710  -18.7520   20.0690 H   0  0  0  0  0  0  0  0  0  0  0  0
  -29.5950  -16.4330   21.1600 C   0  0  0  0  0  3  0  0  0  0  0  0
  -30.5730  -15.2580   21.4540 C   0  0  0  0  0  2  0  0  0  0  0  0
  -30.8910  -14.3490   20.2470 C   0  0  0  0  0  0  0  0  0  0  0  0
  -30.4430  -12.2990   18.9280 C   0  0  0  0  0  2  0  0  0  0  0  0
  -29.4430  -12.5430   17.7790 C   0  0  0  0  0  2  0  0  0  0  0  0
  -27.9890  -12.4180   18.2740 C   0  0  0  0  0  2  0  0  0  0  0  0
  -27.7380  -13.2360   19.5640 C   0  0  0  0  0  3  0  0  0  0  0  0
  -28.8240  -12.9470   20.6190 C   0  0  0  0  0  2  0  0  0  0  0  0
  -30.1400  -13.2370   20.0180 N   0  0  0  0  0  0  0  0  0  0  0  0
  -31.8750  -14.6270   19.5540 O   0  0  0  0  0  0  0  0  0  0  0  0
  -25.3880  -13.9000   20.3700 C   0  0  0  0  0  0  0  0  0  0  0  0
  -24.3190  -13.1500   20.7790 C   0  0  0  0  0  0  0  0  0  0  0  0
  -24.7470  -11.7880   20.7260 C   0  0  0  0  0  0  0  0  0  0  0  0
  -26.4010  -12.9950   20.0960 N   0  0  0  0  0  0  0  0  0  0  0  0
  -26.0220  -11.7220   20.3670 N   0  0  0  0  0  0  0  0  0  0  0  0
  -24.0060  -10.5410   20.9420 C   0  0  0  0  0  0  0  0  0  0  0  0
  -24.4550   -9.5620   21.8540 C   0  0  0  0  0  3  0  0  0  0  0  0
  -23.7160   -8.3760   22.0540 C   0  0  0  0  0  3  0  0  0  0  0  0
  -22.5110   -8.1620   21.3440 C   0  0  0  0  0  0  0  0  0  0  0  0
  -22.0810   -9.1310   20.4190 C   0  0  0  0  0  3  0  0  0  0  0  0
  -22.8200  -10.3070   20.2180 C   0  0  0  0  0  3  0  0  0  0  0  0
  -21.7390   -7.0320   21.4570 O   0  0  0  0  0  0  0  0  0  0  0  0
  -21.7090   -6.2960   22.6140 C   0  0  0  0  0  0  0  0  0  0  0  0
  -21.3500   -6.8670   23.8550 C   0  0  0  0  0  3  0  0  0  0  0  0
  -21.2680   -6.0560   25.0050 C   0  0  0  0  0  3  0  0  0  0  0  0
  -21.5330   -4.6760   24.9140 C   0  0  0  0  0  0  0  0  0  0  0  0
  -21.8850   -4.1040   23.6790 C   0  0  0  0  0  3  0  0  0  0  0  0
  -21.9710   -4.9120   22.5310 C   0  0  0  0  0  0  0  0  0  0  0  0
  -22.2920   -4.3550   21.3390 F   0  0  0  0  0  0  0  0  0  0  0  0
  -21.4460   -3.8960   26.0170 F   0  0  0  0  0  0  0  0  0  0  0  0
  -22.9420  -13.6570   21.1080 C   0  0  0  0  0  0  0  0  0  0  0  0
  -22.2430  -12.9770   22.0070 N   0  0  0  0  0  0  0  0  0  0  0  0
  -22.5050  -14.6900   20.6060 O   0  0  0  0  0  0  0  0  0  0  0  0
  -22.6090  -12.1350   22.4250 H   0  0  0  0  0  0  0  0  0  0  0  0
  -21.3290  -13.3020   22.2850 H   0  0  0  0  0  0  0  0  0  0  0  0
  -25.5800  -15.2660   20.1890 N   0  0  0  0  0  0  0  0  0  0  0  0
  -24.8260  -15.9330   20.3140 H   0  0  0  0  0  0  0  0  0  0  0  0
  -26.4110  -15.6720   19.7810 H   0  0  0  0  0  0  0  0  0  0  0  0
  -29.7470  -23.1230   19.8190 C   0  0  0  0  0  2  0  0  0  0  0  0
  -29.5040  -24.5340   20.4150 C   0  0  0  0  0  3  0  0  0  0  0  0
  -29.1970  -24.3880   21.7050 F   0  0  0  0  0  0  0  0  0  0  0  0
  -28.3960  -25.3630   19.7240 C   0  0  0  0  0  2  0  0  0  0  0  0
  -28.3840  -26.7280   20.1760 O   0  0  0  0  0  0  0  0  0  0  0  0
  -24.5450  -31.8770   23.2290 C   0  0  0  0  0  0  0  0  0  0  0  0
  -27.1930  -27.4320   20.1440 C   0  0  0  0  0  0  0  0  0  0  0  0
  -23.3390  -30.4760   21.5860 C   0  0  0  0  0  3  0  0  0  0  0  0
  -24.7930  -28.9410   20.1610 C   0  0  0  0  0  0  0  0  0  0  0  0
  -25.8650  -30.8280   21.3970 C   0  0  0  0  0  2  0  0  0  0  0  0
  -25.9480  -29.4580   20.7580 C   0  0  0  0  0  0  0  0  0  0  0  0
  -27.1460  -28.7070   20.7540 C   0  0  0  0  0  3  0  0  0  0  0  0
  -26.0170  -26.9410   19.5220 C   0  0  0  0  0  3  0  0  0  0  0  0
  -24.8210  -27.6800   19.5460 C   0  0  0  0  0  3  0  0  0  0  0  0
  -23.5510  -29.7980   20.2060 C   0  0  0  0  0  2  0  0  0  0  0  0
  -24.6020  -31.0740   22.1290 N   0  0  0  0  0  0  0  0  0  0  0  0
  -23.4640  -32.1540   23.7650 O   0  0  0  0  0  0  0  0  0  0  0  0
  -22.6860  -29.4550   22.5450 C   0  0  0  0  0  0  0  0  0  0  0  0
  -21.3610  -29.2730   22.4140 N   0  0  0  0  0  0  0  0  0  0  0  0
  -23.3660  -28.8310   23.3640 O   0  0  0  0  0  0  0  0  0  0  0  0
  -20.8740  -29.8310   21.7270 H   0  0  0  0  0  0  0  0  0  0  0  0
  -17.9870  -28.0790   22.8910 C   0  0  0  0  0  0  0  0  0  0  0  0
  -20.5410  -28.3370   23.1820 C   0  0  0  0  0  3  0  0  0  0  0  0
  -20.6490  -26.9050   22.6120 C   0  0  0  0  0  2  0  0  0  0  0  0
  -19.5560  -26.5770   21.5900 C   0  0  0  0  0  2  0  0  0  0  0  0
  -18.1680  -26.7260   22.2240 C   0  0  0  0  0  2  0  0  0  0  0  0
  -19.1020  -28.8420   23.3270 C   0  0  0  0  0  0  0  0  0  0  0  0
  -18.8790  -30.1080   23.9110 C   0  0  0  0  0  3  0  0  0  0  0  0
  -17.5750  -30.6130   24.0610 C   0  0  0  0  0  3  0  0  0  0  0  0
  -16.4730  -29.8470   23.6430 C   0  0  0  0  0  3  0  0  0  0  0  0
  -16.6800  -28.5820   23.0660 C   0  0  0  0  0  3  0  0  0  0  0  0
  -25.8320  -32.5070   23.8480 C   0  0  0  0  0  3  0  0  0  0  0  0
  -25.5260  -33.9060   24.1750 N   0  0  0  0  0  0  0  0  0  0  0  0
  -25.8660  -34.9550   23.4160 C   0  0  0  0  0  0  0  0  0  0  0  0
  -26.5420  -34.8490   22.3880 O   0  0  0  0  0  0  0  0  0  0  0  0
  -24.9280  -34.0620   24.9730 H   0  0  0  0  0  0  0  0  0  0  0  0
  -24.1440  -36.7500   23.0500 C   0  0  0  0  0  1  0  0  0  0  0  0
  -25.3800  -36.3460   23.8690 C   0  0  0  0  0  3  0  0  0  0  0  0
  -27.5130  -37.2240   24.7090 C   0  0  0  0  0  1  0  0  0  0  0  0
  -26.4160  -37.3950   23.7590 N   0  0  0  0  0  0  0  0  0  0  0  0
  -26.0140  -38.3170   23.9050 H   0  0  0  0  0  0  0  0  0  0  0  0
  -26.3500  -31.7360   25.1240 C   0  0  1  0  0  0  0  0  0  0  0  0
  -25.2550  -31.4990   26.1900 C   0  0  0  0  0  1  0  0  0  0  0  0
  -26.9310  -30.3580   24.7300 C   0  0  0  0  0  1  0  0  0  0  0  0
  -27.5010  -32.5280   25.7860 C   0  0  0  0  0  1  0  0  0  0  0  0
  1  4  1  0
  1 49  1  0
  2  1  1  0
  3  7  1  0
  3  4  2  0
  4  6  1  0
  5  8  1  0
  6  5  2  0
  7  5  1  0
  8 11  2  0
  9  8  1  0
 10  9  1  0
 11 12  1  0
 13 12  1  0
 14 19  1  0
 15 16  1  0
 15 14  1  0
 17 16  1  0
 17 24  1  0
 17 18  1  0
 19 13  1  0
 19 18  1  0
 20 13  2  0
 21 22  2  0
 22 41  1  0
 23 22  1  0
 23 26  1  0
 24 25  1  0
 24 21  1  0
 25 23  2  0
 26 27  1  0
 27 28  2  0
 29 32  1  0
 29 28  1  0
 30 29  2  0
 31 30  1  0
 31 26  2  0
 32 33  1  0
 33 34  1  0
 34 35  2  0
 36 35  1  0
 36 40  1  0
 37 36  2  0
 38 33  2  0
 38 37  1  0
 39 38  1  0
 41 42  1  0
 42 45  1  0
 42 44  1  0
 43 41  2  0
 46 47  1  0
 46 21  1  0
 48 46  1  0
 49 50  1  0
 50 51  1  0
 52 53  1  0
 52 50  1  0
 54 65  2  0
 55 53  1  0
 55 60  1  0
 56 64  1  0
 56 66  1  0
 57 63  1  0
 57 59  1  0
 58 64  1  0
 59 58  1  0
 60 59  2  0
 61 62  1  0
 61 55  2  0
 62 57  2  0
 63 56  1  0
 64 54  1  0
 66 68  2  0
 67 66  1  0
 69 67  1  0
 70 79  2  0
 70 75  1  0
 71 67  1  0
 71 75  1  0
 72 71  1  0
 73 74  1  0
 73 72  1  0
 74 70  1  0
 75 76  2  0
 76 77  1  0
 78 77  2  0
 79 78  1  0
 80 54  1  0
 80 81  1  0
 80 90  1  0
 81 84  1  0
 82 86  1  0
 82 81  1  0
 83 82  2  0
 86 85  1  0
 88 86  1  0
 88 89  1  0
 88 87  1  0
 90 93  1  1
 90 91  1  0
 92 90  1  0
M  ISO  4  12 100  13 100  52 101  53 101
M  END
>  <TORSDO>  (75) 
F 23

>  <SCORE>  (75) 
-12.810

>  <name>  (75) 
74

>  <ligand_id>  (75) 
74

>  <original_smiles>  (75) 
[H]N=C(c1nc(N([H])C([H])([H])C([H])(F)C([H])([H])Oc2c([H])c([H])c3c(c2[H])C([H])([H])N(C(=O)C([H])(N([H])C(=O)C([H])(N([H])C([H])([H])[H])C([H])([H])[H])C(C([H])([H])[H])(C([H])([H])[H])C([H])([H])[H])C([H])(C(=O)N([H])C2([H])c4c([H])c([H])c([H])c([H])c4C([H])([H])C([H])([H])C2([H])[H])C3([H])[H])c([H])s1)C([H])([H])C([H])([H])C(=O)N1C([H])([H])C([H])([H])C([H])([H])C([H])(n2nc(-c3c([H])c([H])c(Oc4c([H])c([H])c(F)c([H])c4F)c([H])c3[H])c(C(=O)N([H])[H])c2N([H])[H])C1([H])[H]

>  <smiles>  (75) 
[H]N=C(c1nc(N([H])C([H])([H])C([H])(F)C([H])([H])Oc2c([H])c([H])c3c(c2[H])C([H])([H])N(C(=O)C([H])(N([H])C(=O)C([H])(N([H])C([H])([H])[H])C([H])([H])[H])C(C([H])([H])[H])(C([H])([H])[H])C([H])([H])[H])C([H])(C(=O)N([H])C2([H])c4c([H])c([H])c([H])c([H])c4C([H])([H])C([H])([H])C2([H])[H])C3([H])[H])c([H])s1)C([H])([H])C([H])([H])C(=O)N1C([H])([H])C([H])([H])C([H])([H])C([H])(n2nc(-c3c([H])c([H])c(Oc4c([H])c([H])c(F)c([H])c4F)c([H])c3[H])c(C(=O)N([H])[H])c2N([H])[H])C1([H])[H]

$$$$
75:0:0
     RDKit          3D

 96 98  0  0  1  0  0  0  0  0999 V2000
  -23.0620  -11.9660   20.7310 C   0  0  0  0  0 15  0  0  0  0  0  0
  -23.8280  -10.4160   19.8870 C   0  0  0  0  0  3  0  0  0  0  0  0
  -25.5240   -9.9360   20.7610 C   0  0  0  0  0  3  0  0  0  0  0  0
  -25.8440  -13.0750   22.1680 C   0  0  0  0  0  2  0  0  0  0  0  0
  -24.1270  -12.8770   22.0000 N   0  0  0  0  0  1  0  0  0  0  0  0
  -26.0150  -11.3110   22.0950 N   0  0  0  0  0  1  0  0  0  0  0  0
  -27.0480  -14.8200   21.5560 N   0  0  0  0  0  1  0  0  0  0  0  0
  -26.4280  -15.5640   21.8740 H   0  0  0  0  0  0  0  0  0  0  0  0
  -29.6620  -16.1020   21.8300 C   0  0  0  0  0  1  0  0  0  0  0  0
  -28.6980  -16.2030   20.6510 C   0  0  0  0  0  1  0  0  0  0  0  0
  -29.9420  -18.4020   19.4490 C   0  0  0  0  0 15  0  0  0  0  0  0
  -31.6180  -19.9660   18.4910 O   0  0  0  0  0 15  0  0  0  0  0  0
  -33.5920  -28.4320   17.4720 C   0  0  0  0  0  0  0  0  0  0  0  0
  -32.2320  -21.5570   17.5790 C   0  0  0  0  0  2  0  0  0  0  0  0
  -31.9910  -27.1420   16.1400 C   0  0  0  0  0  3  0  0  0  0  0  0
  -32.3330  -24.4920   15.8290 C   0  0  0  0  0  0  0  0  0  0  0  0
  -34.0760  -25.8360   16.9100 C   0  0  0  0  0  2  0  0  0  0  0  0
  -33.2780  -24.3530   16.8380 C   0  0  0  0  0  0  0  0  0  0  0  0
  -33.2390  -22.9260   17.6120 C   0  0  0  0  0  2  0  0  0  0  0  0
  -31.7790  -21.9710   16.2330 C   0  0  0  0  0  3  0  0  0  0  0  0
  -31.7400  -23.2510   15.4920 C   0  0  0  0  0  3  0  0  0  0  0  0
  -31.9530  -25.8850   15.1950 C   0  0  0  0  0  2  0  0  0  0  0  0
  -33.2980  -27.1980   16.8650 N   0  0  0  0  0  0  0  0  0  0  0  0
  -32.7600  -29.3620   17.5220 O   0  0  0  0  0  0  0  0  0  0  0  0
  -30.8170  -27.1000   17.1550 C   0  0  0  0  0  0  0  0  0  0  0  0
  -29.5760  -27.4390   16.7500 N   0  0  0  0  0  0  0  0  0  0  0  0
  -31.0470  -26.7440   18.3140 O   0  0  0  0  0  0  0  0  0  0  0  0
  -29.4490  -27.7440   15.7950 H   0  0  0  0  0  0  0  0  0  0  0  0
  -25.9480  -27.7720   16.7950 C   0  0  0  0  0  0  0  0  0  0  0  0
  -28.3690  -27.2990   17.5790 C   0  0  0  0  0  3  0  0  0  0  0  0
  -27.9280  -25.8180   17.6700 C   0  0  0  0  0  2  0  0  0  0  0  0
  -26.8950  -25.4330   16.6070 C   0  0  0  0  0  2  0  0  0  0  0  0
  -25.6340  -26.2860   16.7570 C   0  0  0  0  0  2  0  0  0  0  0  0
  -27.2370  -28.2480   17.1630 C   0  0  0  0  0  0  0  0  0  0  0  0
  -27.4740  -29.6390   17.1600 C   0  0  0  0  0  3  0  0  0  0  0  0
  -26.4600  -30.5450   16.7920 C   0  0  0  0  0  3  0  0  0  0  0  0
  -25.1870  -30.0690   16.4360 C   0  0  0  0  0  3  0  0  0  0  0  0
  -24.9320  -28.6860   16.4420 C   0  0  0  0  0  3  0  0  0  0  0  0
  -34.9660  -28.7740   18.1440 C   0  0  0  0  0  3  0  0  0  0  0  0
  -35.2480  -30.2320   17.9940 N   0  0  0  0  0  0  0  0  0  0  0  0
  -36.0820  -30.8010   17.1070 C   0  0  0  0  0  0  0  0  0  0  0  0
  -36.7250  -30.1360   16.2940 O   0  0  0  0  0  0  0  0  0  0  0  0
  -34.7010  -30.8480   18.5760 H   0  0  0  0  0  0  0  0  0  0  0  0
  -35.3300  -32.9670   16.0360 C   0  0  0  0  0  1  0  0  0  0  0  0
  -36.2300  -32.3430   17.1180 C   0  0  0  0  0  3  0  0  0  0  0  0
  -38.5040  -32.5120   18.0410 C   0  0  0  0  0  1  0  0  0  0  0  0
  -37.6200  -32.8140   16.9190 N   0  0  0  0  0  0  0  0  0  0  0  0
  -37.6390  -33.8180   16.7600 H   0  0  0  0  0  0  0  0  0  0  0  0
  -35.0060  -28.4230   19.6860 C   0  0  1  0  0  0  0  0  0  0  0  0
  -33.8510  -29.0570   20.4970 C   0  0  0  0  0  1  0  0  0  0  0  0
  -34.9440  -26.9040   19.9270 C   0  0  0  0  0  1  0  0  0  0  0  0
  -36.3460  -28.8950   20.2980 C   0  0  0  0  0  1  0  0  0  0  0  0
  -23.2580   -9.8630   18.7060 N   0  0  0  0  0  0  0  0  0  0  0  0
  -23.5870   -8.9640   18.3510 H   0  0  0  0  0  0  0  0  0  0  0  0
  -21.0900   -9.1950   17.7460 C   0  0  0  0  0  1  0  0  0  0  0  0
  -21.7730  -11.5990   17.6450 C   0  0  0  0  0  1  0  0  0  0  0  0
  -21.8820  -10.2920   18.4370 C   0  0  0  0  0  3  0  0  0  0  0  0
  -26.8220   -9.2030   19.5750 C   0  0  0  0  0  2  0  0  0  0  0  0
  -29.9260   -9.9760   19.5740 C   0  0  0  0  0  0  0  0  0  0  0  0
  -30.2350   -8.8660   21.4480 C   0  0  0  0  0  2  0  0  0  0  0  0
  -28.8390   -8.3780   21.3540 C   0  0  0  0  0  2  0  0  0  0  0  0
  -27.9720   -9.6750   21.7180 C   0  0  0  0  0  2  0  0  0  0  0  0
  -28.1170  -11.2570   20.9720 C   0  0  0  0  0  3  0  0  0  0  0  0
  -29.5560  -11.3440   21.3110 C   0  0  0  0  0  2  0  0  0  0  0  0
  -30.1400  -10.1400   20.8250 N   0  0  0  0  0  0  0  0  0  0  0  0
  -31.0960  -10.1080   19.1390 O   0  0  0  0  0  0  0  0  0  0  0  0
  -28.5080   -9.6080   19.0520 N   0  0  0  0  0  0  0  0  0  0  0  0
  -28.5680   -9.5070   18.0490 H   0  0  0  0  0  0  0  0  0  0  0  0
  -26.2540  -13.1090   19.5270 C   0  0  2  0  0  0  0  0  0  0  0  0
  -24.8450  -12.9370   19.5790 C   0  0  0  0  0  3  0  0  0  0  0  0
  -25.1360  -11.6930   19.9190 C   0  0  0  0  0  3  0  0  0  0  0  0
  -27.1540  -11.9920   19.8070 N   0  0  0  0  0  0  0  0  0  0  0  0
  -26.1660  -11.5280   19.0980 N   0  0  0  0  0  0  0  0  0  0  0  0
  -23.9600   -9.6270   21.6920 C   0  0  0  0  0  3  0  0  0  0  0  0
  -23.1330   -9.3770   22.8820 C   0  0  0  0  0  2  0  0  0  0  0  0
  -22.0230   -8.3800   23.0620 C   0  0  0  0  0  3  0  0  0  0  0  0
  -21.3680   -7.7750   21.9240 C   0  0  0  0  0  0  0  0  0  0  0  0
  -22.0100   -8.0700   20.7620 C   0  0  0  0  0  2  0  0  0  0  0  0
  -23.3640   -8.3440   21.0920 C   0  0  0  0  0  2  0  0  0  0  0  0
  -20.2950   -6.8930   21.8110 O   0  0  0  0  0  0  0  0  0  0  0  0
  -19.8030   -6.2270   22.8970 C   0  0  0  0  0  0  0  0  0  0  0  0
  -19.3730   -6.9900   23.9950 C   0  0  0  0  0  3  0  0  0  0  0  0
  -18.9010   -6.3620   25.1530 C   0  0  0  0  0  3  0  0  0  0  0  0
  -18.8030   -4.9640   25.2020 C   0  0  0  0  0  0  0  0  0  0  0  0
  -19.1690   -4.1880   24.0860 C   0  0  0  0  0  3  0  0  0  0  0  0
  -19.6600   -4.8140   22.9250 C   0  0  0  0  0  0  0  0  0  0  0  0
  -19.9870   -4.0500   21.8520 F   0  0  0  0  0  0  0  0  0  0  0  0
  -18.3490   -4.3700   26.3300 F   0  0  0  0  0  0  0  0  0  0  0  0
  -23.4900  -13.7510   19.6800 C   0  0  0  0  0  0  0  0  0  0  0  0
  -22.4300  -13.6550   20.5410 N   0  0  0  0  0  0  0  0  0  0  0  0
  -23.2730  -14.5140   18.8090 O   0  0  0  0  0  0  0  0  0  0  0  0
  -22.6130  -13.0640   21.3670 H   0  0  0  0  0  0  0  0  0  0  0  0
  -21.5910  -14.2060   20.4490 H   0  0  0  0  0  0  0  0  0  0  0  0
  -26.8890  -14.2140   19.1420 N   0  0  0  0  0  0  0  0  0  0  0  0
  -26.3790  -15.0620   19.3330 H   0  0  0  0  0  0  0  0  0  0  0  0
  -27.8880  -14.3410   19.2260 H   0  0  0  0  0  0  0  0  0  0  0  0
  2 53  1  0
  2 71  1  0
  2  3  1  0
  3 58  1  0
  3 74  1  0
  5  4  1  0
  6  4  1  0
  7  8  1  0
 10  9  1  0
 13 24  2  0
 14 19  1  0
 15 23  1  0
 15 25  1  0
 16 18  2  0
 18 17  1  0
 18 19  1  0
 20 14  1  0
 21 16  1  0
 21 20  2  0
 22 16  1  0
 22 15  1  0
 23 17  1  0
 23 13  1  0
 25 27  2  0
 26 25  1  0
 28 26  1  0
 29 34  1  0
 30 26  1  0
 30 31  1  0
 32 33  1  0
 32 31  1  0
 33 29  1  0
 34 30  1  0
 35 34  2  0
 36 35  1  0
 37 38  1  0
 37 36  2  0
 38 29  2  0
 39 13  1  0
 39 49  1  0
 40 39  1  0
 40 43  1  0
 41 45  1  0
 41 40  1  0
 42 41  2  0
 45 44  1  0
 47 45  1  0
 47 46  1  0
 48 47  1  0
 49 51  1  6
 49 52  1  0
 49 50  1  0
 54 53  1  0
 55 57  1  0
 56 57  1  0
 57 53  1  0
 59 65  1  0
 61 60  1  0
 61 62  1  0
 63 64  1  0
 63 62  1  0
 65 64  1  0
 65 60  1  0
 66 59  2  0
 67 59  1  0
 67 58  1  0
 68 67  1  0
 69 94  1  1
 69 70  1  0
 69 72  1  0
 70 89  1  0
 70 71  1  0
 72 63  1  0
 73 69  1  0
 73 72  1  0
 73 71  1  0
 74 75  1  0
 75 76  1  0
 77 76  2  0
 78 79  1  0
 78 77  1  0
 79 74  1  0
 80 77  1  0
 80 81  1  0
 81 86  2  0
 81 82  1  0
 82 83  2  0
 83 84  1  0
 84 88  1  0
 85 84  2  0
 86 85  1  0
 87 86  1  0
 89 90  1  0
 90 92  1  0
 91 89  2  0
 93 90  1  0
 94 96  1  0
 94 95  1  0
M  ISO  4  11 101  12 101  59 100  67 100
M  END
>  <TORSDO>  (76) 
F 21

>  <SCORE>  (76) 
20.528

>  <name>  (76) 
75

>  <ligand_id>  (76) 
75

>  <original_smiles>  (76) 
[H]c1nc(N([H])C([H])(C([H])([H])[H])C([H])([H])Oc2c([H])c([H])c3c(c2[H])C([H])([H])N(C(=O)C([H])(N([H])C(=O)C([H])(N([H])C([H])([H])[H])C([H])([H])[H])C(C([H])([H])[H])(C([H])([H])[H])C([H])([H])[H])C([H])(C(=O)N([H])C2([H])c4c([H])c([H])c([H])c([H])c4C([H])([H])C([H])([H])C2([H])[H])C3([H])[H])nc(C([H])([H])N([H])C(=O)N2C([H])([H])C([H])([H])C([H])([H])C([H])(n3nc(-c4c([H])c([H])c(Oc5c([H])c([H])c(F)c([H])c5F)c([H])c4[H])c(C(=O)N([H])[H])c3N([H])[H])C2([H])[H])c1N([H])C([H])(C([H])([H])[H])C([H])([H])[H]

>  <smiles>  (76) 
[H]c1nc(N([H])C([H])(C([H])([H])[H])C([H])([H])Oc2c([H])c([H])c3c(c2[H])C([H])([H])N(C(=O)C([H])(N([H])C(=O)C([H])(N([H])C([H])([H])[H])C([H])([H])[H])C(C([H])([H])[H])(C([H])([H])[H])C([H])([H])[H])C([H])(C(=O)N([H])C2([H])c4c([H])c([H])c([H])c([H])c4C([H])([H])C([H])([H])C2([H])[H])C3([H])[H])nc(C([H])([H])N([H])C(=O)N2C([H])([H])C([H])([H])C([H])([H])C([H])(n3nc(-c4c([H])c([H])c(Oc5c([H])c([H])c(F)c([H])c5F)c([H])c4[H])c(C(=O)N([H])[H])c3N([H])[H])C2([H])[H])c1N([H])C([H])(C([H])([H])[H])C([H])([H])[H]

$$$$
76:0:0
     RDKit          3D

 97105  0  0  1  0  0  0  0  0999 V2000
  -29.2350  -20.9120   20.0480 N   0  0  0  0  0  0  0  0  0  0  0  0
  -28.3380  -21.1210   19.6140 H   0  0  0  0  0  0  0  0  0  0  0  0
  -30.8900  -14.5860   21.1850 C   0  0  0  0  0  0  0  0  0  0  0  0
  -30.8680  -12.2790   20.2800 C   0  0  0  0  0  2  0  0  0  0  0  0
  -30.0960  -12.2980   18.9410 C   0  0  0  0  0  2  0  0  0  0  0  0
  -28.5780  -12.1470   19.1730 C   0  0  0  0  0  2  0  0  0  0  0  0
  -28.0440  -13.0970   20.2770 C   0  0  0  0  0  3  0  0  0  0  0  0
  -28.9360  -13.0280   21.5370 C   0  0  0  0  0  2  0  0  0  0  0  0
  -30.3160  -13.3470   21.1320 N   0  0  0  0  0  0  0  0  0  0  0  0
  -32.0770  -14.7680   20.8810 O   0  0  0  0  0  0  0  0  0  0  0  0
  -30.6630  -19.0880   21.0590 C   0  0  0  0  0  3  0  0  0  0  0  0
  -29.4940  -19.5490   20.4010 C   0  0  0  0  0  0  0  0  0  0  0  0
  -28.5580  -18.5110   20.1330 C   0  0  0  0  0  0  0  0  0  0  0  0
  -29.9410  -16.9010   21.0600 C   0  0  0  0  0  0  0  0  0  0  0  0
  -30.8840  -17.7870   21.3770 N   0  0  0  0  0  0  0  0  0  0  0  0
  -28.7850  -17.2240   20.4970 N   0  0  0  0  0  0  0  0  0  0  0  0
  -30.0250  -15.5870   21.4850 N   0  0  0  0  0  0  0  0  0  0  0  0
  -29.1250  -15.2130   21.7270 H   0  0  0  0  0  0  0  0  0  0  0  0
  -25.5760  -13.7140   20.6580 C   0  0  0  0  0  0  0  0  0  0  0  0
  -24.4700  -12.9470   20.9110 C   0  0  0  0  0  0  0  0  0  0  0  0
  -24.9320  -11.5980   20.9820 C   0  0  0  0  0  0  0  0  0  0  0  0
  -26.6420  -12.8310   20.5880 N   0  0  0  0  0  0  0  0  0  0  0  0
  -26.2520  -11.5550   20.8410 N   0  0  0  0  0  0  0  0  0  0  0  0
  -24.1910  -10.3370   21.1200 C   0  0  0  0  0  0  0  0  0  0  0  0
  -24.5460   -9.3730   22.0890 C   0  0  0  0  0  3  0  0  0  0  0  0
  -23.8060   -8.1780   22.2130 C   0  0  0  0  0  3  0  0  0  0  0  0
  -22.6970   -7.9380   21.3690 C   0  0  0  0  0  0  0  0  0  0  0  0
  -22.3610   -8.8920   20.3910 C   0  0  0  0  0  3  0  0  0  0  0  0
  -23.1020  -10.0790   20.2640 C   0  0  0  0  0  3  0  0  0  0  0  0
  -21.9360   -6.7950   21.4000 O   0  0  0  0  0  0  0  0  0  0  0  0
  -21.7970   -6.0540   22.5470 C   0  0  0  0  0  0  0  0  0  0  0  0
  -21.2560   -6.6060   23.7280 C   0  0  0  0  0  3  0  0  0  0  0  0
  -21.0650   -5.7910   24.8620 C   0  0  0  0  0  3  0  0  0  0  0  0
  -21.4040   -4.4270   24.8150 C   0  0  0  0  0  0  0  0  0  0  0  0
  -21.9390   -3.8750   23.6380 C   0  0  0  0  0  3  0  0  0  0  0  0
  -22.1310   -4.6850   22.5050 C   0  0  0  0  0  0  0  0  0  0  0  0
  -22.6260   -4.1440   21.3660 F   0  0  0  0  0  0  0  0  0  0  0  0
  -21.2140   -3.6420   25.9010 F   0  0  0  0  0  0  0  0  0  0  0  0
  -23.0490  -13.4250   20.9910 C   0  0  0  0  0  0  0  0  0  0  0  0
  -22.2270  -12.7740   21.8060 N   0  0  0  0  0  0  0  0  0  0  0  0
  -22.6700  -14.4130   20.3620 O   0  0  0  0  0  0  0  0  0  0  0  0
  -22.5430  -11.9770   22.3380 H   0  0  0  0  0  0  0  0  0  0  0  0
  -21.2680  -13.0780   21.9010 H   0  0  0  0  0  0  0  0  0  0  0  0
  -25.7620  -15.0790   20.4650 N   0  0  0  0  0  0  0  0  0  0  0  0
  -24.9810  -15.7250   20.4460 H   0  0  0  0  0  0  0  0  0  0  0  0
  -26.6470  -15.5220   20.2480 H   0  0  0  0  0  0  0  0  0  0  0  0
  -26.0800  -18.7430   20.5690 C   0  0  0  0  0  1  0  0  0  0  0  0
  -27.1810  -18.7560   19.5040 C   0  0  2  0  0  0  0  0  0  0  0  0
  -26.9130  -17.7900   18.6210 F   0  0  0  0  0  0  0  0  0  0  0  0
  -27.1140  -19.9130   18.8440 F   0  0  0  0  0  0  0  0  0  0  0  0
  -31.2580  -21.7470   18.9000 C   0  0  0  0  0  1  0  0  0  0  0  0
  -30.2320  -22.0000   20.0230 C   0  0  0  0  0  3  0  0  0  0  0  0
  -29.6400  -23.4510   19.7940 C   0  0  0  0  0  2  0  0  0  0  0  0
  -28.8630  -23.5500   22.2440 C   0  0  0  0  0  1  0  0  0  0  0  0
  -28.6940  -24.1470   20.8340 C   0  0  0  0  0  3  0  0  0  0  0  0
  -28.8540  -25.7150   20.9430 C   0  0  0  0  0  2  0  0  0  0  0  0
  -28.5420  -26.5300   19.7920 O   0  0  0  0  0  0  0  0  0  0  0  0
  -24.6540  -31.6160   23.0670 C   0  0  0  0  0  0  0  0  0  0  0  0
  -27.3890  -27.2920   19.8670 C   0  0  0  0  0  0  0  0  0  0  0  0
  -23.4860  -30.2550   21.3650 C   0  0  0  0  0  3  0  0  0  0  0  0
  -24.9790  -28.7850   19.9030 C   0  0  0  0  0  0  0  0  0  0  0  0
  -26.0110  -30.6490   21.2070 C   0  0  0  0  0  2  0  0  0  0  0  0
  -26.1250  -29.2980   20.5250 C   0  0  0  0  0  0  0  0  0  0  0  0
  -27.3360  -28.5580   20.5070 C   0  0  0  0  0  3  0  0  0  0  0  0
  -26.2290  -26.8040   19.2360 C   0  0  0  0  0  3  0  0  0  0  0  0
  -25.0260  -27.5370   19.2560 C   0  0  0  0  0  3  0  0  0  0  0  0
  -23.7220  -29.6260   19.9650 C   0  0  0  0  0  2  0  0  0  0  0  0
  -24.7340  -30.8550   21.9380 N   0  0  0  0  0  0  0  0  0  0  0  0
  -23.5630  -31.8530   23.6060 O   0  0  0  0  0  0  0  0  0  0  0  0
  -22.8400  -29.1920   22.2830 C   0  0  0  0  0  0  0  0  0  0  0  0
  -21.5150  -29.0110   22.1550 N   0  0  0  0  0  0  0  0  0  0  0  0
  -23.5280  -28.5330   23.0680 O   0  0  0  0  0  0  0  0  0  0  0  0
  -21.0190  -29.5950   21.4970 H   0  0  0  0  0  0  0  0  0  0  0  0
  -18.1440  -27.7990   22.6350 C   0  0  0  0  0  0  0  0  0  0  0  0
  -20.7050  -28.0380   22.8880 C   0  0  0  0  0  3  0  0  0  0  0  0
  -20.7970  -26.6370   22.2390 C   0  0  0  0  0  2  0  0  0  0  0  0
  -19.6820  -26.3690   21.2230 C   0  0  0  0  0  2  0  0  0  0  0  0
  -18.3090  -26.4850   21.8900 C   0  0  0  0  0  2  0  0  0  0  0  0
  -19.2700  -28.5350   23.0890 C   0  0  0  0  0  0  0  0  0  0  0  0
  -19.0620  -29.7680   23.7470 C   0  0  0  0  0  3  0  0  0  0  0  0
  -17.7610  -30.2630   23.9530 C   0  0  0  0  0  3  0  0  0  0  0  0
  -16.6490  -29.5230   23.5150 C   0  0  0  0  0  3  0  0  0  0  0  0
  -16.8420  -28.2920   22.8610 C   0  0  0  0  0  3  0  0  0  0  0  0
  -25.9240  -32.2450   23.7200 C   0  0  0  0  0  3  0  0  0  0  0  0
  -25.5890  -33.6240   24.1020 N   0  0  0  0  0  0  0  0  0  0  0  0
  -25.9120  -34.7110   23.3880 C   0  0  0  0  0  0  0  0  0  0  0  0
  -26.5940  -34.6590   22.3610 O   0  0  0  0  0  0  0  0  0  0  0  0
  -24.9840  -33.7370   24.9020 H   0  0  0  0  0  0  0  0  0  0  0  0
  -24.1620  -36.4920   23.0800 C   0  0  0  0  0  1  0  0  0  0  0  0
  -25.3960  -36.0720   23.8950 C   0  0  0  0  0  3  0  0  0  0  0  0
  -27.5010  -36.9550   24.8000 C   0  0  0  0  0  1  0  0  0  0  0  0
  -26.4150  -37.1440   23.8420 N   0  0  0  0  0  0  0  0  0  0  0  0
  -25.9920  -38.0510   24.0180 H   0  0  0  0  0  0  0  0  0  0  0  0
  -26.4500  -31.4330   24.9670 C   0  0  1  0  0  0  0  0  0  0  0  0
  -25.3580  -31.1410   26.0230 C   0  0  0  0  0  1  0  0  0  0  0  0
  -27.0510  -30.0790   24.5230 C   0  0  0  0  0  1  0  0  0  0  0  0
  -27.5880  -32.2180   25.6610 C   0  0  0  0  0  1  0  0  0  0  0  0
  1 12  1  0
  2  1  1  0
  3 17  1  0
  4  9  1  0
  5  6  1  0
  5  4  1  0
  7  6  1  0
  7 22  1  0
  7  8  1  0
  9  3  1  0
  9  8  1  0
 10  3  2  0
 11 15  1  0
 12 11  2  0
 13 12  1  0
 13 16  2  0
 14 15  2  0
 14 17  1  0
 16 14  1  0
 17 18  1  0
 19 20  2  0
 20 21  1  0
 20 39  1  0
 21 24  1  0
 22 19  1  0
 22 23  1  0
 23 21  2  0
 24 25  1  0
 25 26  2  0
 27 30  1  0
 27 26  1  0
 28 27  2  0
 29 28  1  0
 29 24  2  0
 30 31  1  0
 31 32  1  0
 32 33  2  0
 34 33  1  0
 34 38  1  0
 35 34  2  0
 36 31  2  0
 36 35  1  0
 37 36  1  0
 39 40  1  0
 40 43  1  0
 40 42  1  0
 41 39  2  0
 44 19  1  0
 45 44  1  0
 46 44  1  0
 48 13  1  0
 48 47  1  1
 49 48  1  0
 50 48  1  0
 52 51  1  0
 52  1  1  0
 53 52  1  0
 53 55  1  0
 55 56  1  0
 55 54  1  0
 57 59  1  0
 57 56  1  0
 58 69  2  0
 59 64  1  0
 60 68  1  0
 60 70  1  0
 61 67  1  0
 61 63  1  0
 62 68  1  0
 63 62  1  0
 64 63  2  0
 65 66  1  0
 65 59  2  0
 66 61  2  0
 67 60  1  0
 68 58  1  0
 70 72  2  0
 71 70  1  0
 73 71  1  0
 74 83  2  0
 74 79  1  0
 75 71  1  0
 75 79  1  0
 76 75  1  0
 77 78  1  0
 77 76  1  0
 78 74  1  0
 79 80  2  0
 80 81  1  0
 82 81  2  0
 83 82  1  0
 84 58  1  0
 84 85  1  0
 84 94  1  0
 85 88  1  0
 86 90  1  0
 86 85  1  0
 87 86  2  0
 90 89  1  0
 92 90  1  0
 92 93  1  0
 92 91  1  0
 94 97  1  1
 94 95  1  0
 96 94  1  0
M  ISO  4   3 100  17 100  56 101  57 101
M  END
>  <TORSDO>  (77) 
F 21

>  <SCORE>  (77) 
-11.503

>  <name>  (77) 
76

>  <ligand_id>  (77) 
76

>  <original_smiles>  (77) 
[H]c1nc(N([H])C(=O)N2C([H])([H])C([H])([H])C([H])([H])C([H])(n3nc(-c4c([H])c([H])c(Oc5c([H])c([H])c(F)c([H])c5F)c([H])c4[H])c(C(=O)N([H])[H])c3N([H])[H])C2([H])[H])nc(C(F)(F)C([H])([H])[H])c1N([H])C([H])(C([H])([H])[H])C([H])([H])C([H])(C([H])([H])[H])C([H])([H])Oc1c([H])c([H])c2c(c1[H])C([H])([H])N(C(=O)C([H])(N([H])C(=O)C([H])(N([H])C([H])([H])[H])C([H])([H])[H])C(C([H])([H])[H])(C([H])([H])[H])C([H])([H])[H])C([H])(C(=O)N([H])C1([H])c3c([H])c([H])c([H])c([H])c3C([H])([H])C([H])([H])C1([H])[H])C2([H])[H]

>  <smiles>  (77) 
[H]c1nc(N([H])C(=O)N2C([H])([H])C([H])([H])C([H])([H])C([H])(n3nc(-c4c([H])c([H])c(Oc5c([H])c([H])c(F)c([H])c5F)c([H])c4[H])c(C(=O)N([H])[H])c3N([H])[H])C2([H])[H])nc(C(F)(F)C([H])([H])[H])c1N([H])C([H])(C([H])([H])[H])C([H])([H])C([H])(C([H])([H])[H])C([H])([H])Oc1c([H])c([H])c2c(c1[H])C([H])([H])N(C(=O)C([H])(N([H])C(=O)C([H])(N([H])C([H])([H])[H])C([H])([H])[H])C(C([H])([H])[H])(C([H])([H])[H])C([H])([H])[H])C([H])(C(=O)N([H])C1([H])c3c([H])c([H])c([H])c([H])c3C([H])([H])C([H])([H])C1([H])[H])C2([H])[H]

$$$$
77:0:0
     RDKit          3D

 93101  0  0  1  0  0  0  0  0999 V2000
  -28.9200  -21.2070   21.2880 N   0  0  0  0  0  4  0  0  0  0  0  0
  -29.9250  -21.2230   21.3010 H   0  0  0  0  0  0  0  0  0  0  0  0
  -28.6020  -20.8630   22.1800 H   0  0  0  0  0  0  0  0  0  0  0  0
  -26.9470  -22.7200   21.4010 C   0  0  0  0  0  1  0  0  0  0  0  0
  -28.4570  -22.5960   21.0930 C   0  0  0  0  0  3  0  0  0  0  0  0
  -29.3100  -23.5830   21.9330 C   0  0  0  0  0  2  0  0  0  0  0  0
  -29.6800  -24.8900   21.1970 C   0  0  0  0  0  2  0  0  0  0  0  0
  -28.4810  -25.5390   20.4990 C   0  0  0  0  0  2  0  0  0  0  0  0
  -28.6900  -26.9200   20.2360 O   0  0  0  0  0  0  0  0  0  0  0  0
  -24.6640  -31.8880   23.2790 C   0  0  0  0  0  0  0  0  0  0  0  0
  -27.5130  -27.6240   20.1710 C   0  0  0  0  0  0  0  0  0  0  0  0
  -23.5370  -30.4850   21.5830 C   0  0  0  0  0  3  0  0  0  0  0  0
  -25.0710  -29.0330   20.1600 C   0  0  0  0  0  0  0  0  0  0  0  0
  -26.0570  -30.9350   21.4520 C   0  0  0  0  0  2  0  0  0  0  0  0
  -26.1980  -29.5900   20.7760 C   0  0  0  0  0  0  0  0  0  0  0  0
  -27.4290  -28.8960   20.7710 C   0  0  0  0  0  3  0  0  0  0  0  0
  -26.3670  -27.0750   19.5460 C   0  0  0  0  0  3  0  0  0  0  0  0
  -25.1500  -27.7750   19.5410 C   0  0  0  0  0  3  0  0  0  0  0  0
  -23.7980  -29.8440   20.1970 C   0  0  0  0  0  2  0  0  0  0  0  0
  -24.7680  -31.1140   22.1630 N   0  0  0  0  0  0  0  0  0  0  0  0
  -23.5610  -32.1170   23.7960 O   0  0  0  0  0  0  0  0  0  0  0  0
  -22.8950  -29.4250   22.5050 C   0  0  0  0  0  0  0  0  0  0  0  0
  -21.5760  -29.2280   22.3590 N   0  0  0  0  0  0  0  0  0  0  0  0
  -23.5820  -28.7840   23.3060 O   0  0  0  0  0  0  0  0  0  0  0  0
  -21.0850  -29.7900   21.6750 H   0  0  0  0  0  0  0  0  0  0  0  0
  -18.2050  -28.0240   22.8280 C   0  0  0  0  0  0  0  0  0  0  0  0
  -20.7650  -28.2630   23.0950 C   0  0  0  0  0  3  0  0  0  0  0  0
  -20.8630  -26.8550   22.4630 C   0  0  0  0  0  2  0  0  0  0  0  0
  -19.7530  -26.5710   21.4440 C   0  0  0  0  0  2  0  0  0  0  0  0
  -18.3770  -26.7000   22.1010 C   0  0  0  0  0  2  0  0  0  0  0  0
  -19.3280  -28.7650   23.2820 C   0  0  0  0  0  0  0  0  0  0  0  0
  -19.1200  -30.0040   23.9230 C   0  0  0  0  0  3  0  0  0  0  0  0
  -17.8180  -30.5020   24.1180 C   0  0  0  0  0  3  0  0  0  0  0  0
  -16.7080  -29.7580   23.6800 C   0  0  0  0  0  3  0  0  0  0  0  0
  -16.9030  -28.5220   23.0400 C   0  0  0  0  0  3  0  0  0  0  0  0
  -25.9170  -32.5410   23.9400 C   0  0  0  0  0  3  0  0  0  0  0  0
  -25.5790  -33.9400   24.2340 N   0  0  0  0  0  0  0  0  0  0  0  0
  -25.9280  -34.9800   23.4660 C   0  0  0  0  0  0  0  0  0  0  0  0
  -26.6370  -34.8640   22.4620 O   0  0  0  0  0  0  0  0  0  0  0  0
  -24.9540  -34.1050   25.0100 H   0  0  0  0  0  0  0  0  0  0  0  0
  -24.1950  -36.7420   23.0090 C   0  0  0  0  0  1  0  0  0  0  0  0
  -25.4080  -36.3720   23.8780 C   0  0  0  0  0  3  0  0  0  0  0  0
  -27.4950  -37.2990   24.7780 C   0  0  0  0  0  1  0  0  0  0  0  0
  -26.4340  -37.4340   23.7840 N   0  0  0  0  0  0  0  0  0  0  0  0
  -26.0130  -38.3540   23.8890 H   0  0  0  0  0  0  0  0  0  0  0  0
  -26.3930  -31.7930   25.2450 C   0  0  1  0  0  0  0  0  0  0  0  0
  -25.2580  -31.5480   26.2670 C   0  0  0  0  0  1  0  0  0  0  0  0
  -27.0120  -30.4220   24.8910 C   0  0  0  0  0  1  0  0  0  0  0  0
  -27.5050  -32.6090   25.9440 C   0  0  0  0  0  1  0  0  0  0  0  0
  -28.5160  -20.2770   20.2160 C   0  0  0  0  0  2  0  0  0  0  0  0
  -31.0510  -14.5330   20.1110 C   0  0  0  0  0  0  0  0  0  0  0  0
  -30.6550  -12.4010   18.9500 C   0  0  0  0  0  2  0  0  0  0  0  0
  -29.6790  -12.6470   17.7820 C   0  0  0  0  0  2  0  0  0  0  0  0
  -28.2150  -12.5380   18.2610 C   0  0  0  0  0  2  0  0  0  0  0  0
  -27.9410  -13.3620   19.5480 C   0  0  0  0  0  3  0  0  0  0  0  0
  -29.0310  -13.1010   20.6140 C   0  0  0  0  0  2  0  0  0  0  0  0
  -30.3520  -13.3720   20.0090 N   0  0  0  0  0  0  0  0  0  0  0  0
  -32.1030  -14.7430   19.4990 O   0  0  0  0  0  0  0  0  0  0  0  0
  -30.3800  -18.7250   19.3760 C   0  0  0  0  0  3  0  0  0  0  0  0
  -29.3420  -19.0380   20.2230 C   0  0  0  0  0  0  0  0  0  0  0  0
  -30.2630  -16.7970   20.5690 C   0  0  0  0  0  0  0  0  0  0  0  0
  -30.8990  -17.4480   19.5880 N   0  0  0  0  0  0  0  0  0  0  0  0
  -30.4950  -15.4480   20.9110 N   0  0  0  0  0  0  0  0  0  0  0  0
  -29.0140  -17.7470   21.3520 S   0  0  0  0  0  0  0  0  0  0  0  0
  -29.8210  -15.0700   21.5570 H   0  0  0  0  0  0  0  0  0  0  0  0
  -25.5810  -13.9810   20.3710 C   0  0  0  0  0  0  0  0  0  0  0  0
  -24.5180  -13.2120   20.7710 C   0  0  0  0  0  0  0  0  0  0  0  0
  -24.9600  -11.8560   20.6860 C   0  0  0  0  0  0  0  0  0  0  0  0
  -26.6020  -13.0940   20.0720 N   0  0  0  0  0  0  0  0  0  0  0  0
  -26.2340  -11.8090   20.3140 N   0  0  0  0  0  0  0  0  0  0  0  0
  -24.2270  -10.5980   20.8830 C   0  0  0  0  0  0  0  0  0  0  0  0
  -24.6270   -9.6490   21.8490 C   0  0  0  0  0  3  0  0  0  0  0  0
  -23.8940   -8.4560   22.0270 C   0  0  0  0  0  3  0  0  0  0  0  0
  -22.7440   -8.2050   21.2420 C   0  0  0  0  0  0  0  0  0  0  0  0
  -22.3600   -9.1430   20.2690 C   0  0  0  0  0  3  0  0  0  0  0  0
  -23.0950  -10.3280   20.0890 C   0  0  0  0  0  3  0  0  0  0  0  0
  -21.9850   -7.0630   21.3260 O   0  0  0  0  0  0  0  0  0  0  0  0
  -21.8170   -6.4000   22.5150 C   0  0  0  0  0  0  0  0  0  0  0  0
  -21.2390   -7.0250   23.6430 C   0  0  0  0  0  3  0  0  0  0  0  0
  -21.0260   -6.2850   24.8240 C   0  0  0  0  0  3  0  0  0  0  0  0
  -21.3770   -4.9230   24.8750 C   0  0  0  0  0  0  0  0  0  0  0  0
  -21.9480   -4.2990   23.7520 C   0  0  0  0  0  3  0  0  0  0  0  0
  -22.1640   -5.0350   22.5750 C   0  0  0  0  0  0  0  0  0  0  0  0
  -22.6940   -4.4250   21.4880 F   0  0  0  0  0  0  0  0  0  0  0  0
  -21.1620   -4.2100   26.0060 F   0  0  0  0  0  0  0  0  0  0  0  0
  -23.1430  -13.7010   21.1240 C   0  0  0  0  0  0  0  0  0  0  0  0
  -22.4470  -12.9920   22.0060 N   0  0  0  0  0  0  0  0  0  0  0  0
  -22.6990  -14.7490   20.6550 O   0  0  0  0  0  0  0  0  0  0  0  0
  -22.8210  -12.1440   22.4040 H   0  0  0  0  0  0  0  0  0  0  0  0
  -21.5290  -13.3060   22.2930 H   0  0  0  0  0  0  0  0  0  0  0  0
  -25.7560  -15.3530   20.2200 N   0  0  0  0  0  0  0  0  0  0  0  0
  -25.0030  -16.0140   20.3780 H   0  0  0  0  0  0  0  0  0  0  0  0
  -26.5950  -15.7850   19.8540 H   0  0  0  0  0  0  0  0  0  0  0  0
  1  2  1  0
  1  3  1  0
  5  1  1  0
  5  4  1  0
  5  6  1  0
  7  6  1  0
  8  7  1  0
  9  8  1  0
 10 21  2  0
 11  9  1  0
 11 16  1  0
 12 20  1  0
 12 22  1  0
 13 19  1  0
 13 15  1  0
 14 20  1  0
 15 14  1  0
 16 15  2  0
 17 11  2  0
 18 17  1  0
 18 13  2  0
 19 12  1  0
 20 10  1  0
 22 24  2  0
 23 22  1  0
 25 23  1  0
 26 35  2  0
 26 31  1  0
 27 23  1  0
 27 31  1  0
 28 27  1  0
 29 30  1  0
 29 28  1  0
 30 26  1  0
 31 32  2  0
 32 33  1  0
 34 33  2  0
 35 34  1  0
 36 10  1  0
 36 37  1  0
 36 46  1  0
 37 40  1  0
 38 42  1  0
 38 37  1  0
 39 38  2  0
 42 41  1  0
 44 42  1  0
 44 45  1  0
 44 43  1  0
 46 49  1  1
 46 47  1  0
 48 46  1  0
 50 60  1  0
 50  1  1  0
 51 63  1  0
 52 57  1  0
 53 54  1  0
 53 52  1  0
 55 54  1  0
 55 69  1  0
 55 56  1  0
 57 51  1  0
 57 56  1  0
 58 51  2  0
 59 62  1  0
 59 60  2  0
 60 64  1  0
 61 63  1  0
 61 64  1  0
 62 61  2  0
 63 65  1  0
 66 67  2  0
 67 86  1  0
 68 67  1  0
 68 71  1  0
 69 70  1  0
 69 66  1  0
 70 68  2  0
 71 72  1  0
 72 73  2  0
 74 77  1  0
 74 73  1  0
 75 74  2  0
 76 75  1  0
 76 71  2  0
 77 78  1  0
 78 83  2  0
 78 79  1  0
 79 80  2  0
 80 81  1  0
 81 85  1  0
 82 81  2  0
 83 82  1  0
 84 83  1  0
 86 87  1  0
 87 90  1  0
 87 89  1  0
 88 86  2  0
 91 66  1  0
 91 92  1  0
 93 91  1  0
M  ISO  4   8 101   9 101  51 100  63 100
M  END
>  <TORSDO>  (78) 
F 21

>  <SCORE>  (78) 
-12.829

>  <name>  (78) 
77

>  <ligand_id>  (78) 
77

>  <original_smiles>  (78) 
[H]c1nc(N([H])C(=O)N2C([H])([H])C([H])([H])C([H])([H])C([H])(n3nc(-c4c([H])c([H])c(Oc5c([H])c([H])c(F)c([H])c5F)c([H])c4[H])c(C(=O)N([H])[H])c3N([H])[H])C2([H])[H])sc1C([H])([H])[N+]([H])([H])C([H])(C([H])([H])[H])C([H])([H])C([H])([H])C([H])([H])Oc1c([H])c([H])c2c(c1[H])C([H])([H])N(C(=O)C([H])(N([H])C(=O)C([H])(N([H])C([H])([H])[H])C([H])([H])[H])C(C([H])([H])[H])(C([H])([H])[H])C([H])([H])[H])C([H])(C(=O)N([H])C1([H])c3c([H])c([H])c([H])c([H])c3C([H])([H])C([H])([H])C1([H])[H])C2([H])[H]

>  <smiles>  (78) 
[H]c1nc(N([H])C(=O)N2C([H])([H])C([H])([H])C([H])([H])C([H])(n3nc(-c4c([H])c([H])c(Oc5c([H])c([H])c(F)c([H])c5F)c([H])c4[H])c(C(=O)N([H])[H])c3N([H])[H])C2([H])[H])sc1C([H])([H])[N+]([H])([H])C([H])(C([H])([H])[H])C([H])([H])C([H])([H])C([H])([H])Oc1c([H])c([H])c2c(c1[H])C([H])([H])N(C(=O)C([H])(N([H])C(=O)C([H])(N([H])C([H])([H])[H])C([H])([H])[H])C(C([H])([H])[H])(C([H])([H])[H])C([H])([H])[H])C([H])(C(=O)N([H])C1([H])c3c([H])c([H])c([H])c([H])c3C([H])([H])C([H])([H])C1([H])[H])C2([H])[H]

$$$$
78:0:0
     RDKit          3D

 94 96  0  0  1  0  0  0  0  0999 V2000
  -23.0490  -23.5770   18.8390 C   0  0  0  0  0  1  0  0  0  0  0  0
  -20.4170  -26.4800   18.5250 C   0  0  0  0  0  1  0  0  0  0  0  0
  -23.1160  -26.1400   18.9710 C   0  0  0  0  0  3  0  0  0  0  0  0
  -21.3530  -24.6630   18.6030 N   0  0  0  0  0 15  0  0  0  0  0  0
  -23.6450  -24.8150   18.8870 N   0  0  0  0  0  2  0  0  0  0  0  0
  -21.8400  -26.9070   18.6840 N   0  0  0  0  0  2  0  0  0  0  0  0
  -17.6020  -27.9740   19.0530 N   0  0  0  0  0  2  0  0  0  0  0  0
  -24.1520  -26.7100   19.8020 N   0  0  0  0  0  0  0  0  0  0  0  0
  -16.9150  -27.3780   19.4860 H   0  0  0  0  0  0  0  0  0  0  0  0
  -17.7110  -28.8750   19.4900 H   0  0  0  0  0  0  0  0  0  0  0  0
  -23.9690  -27.6310   20.1900 H   0  0  0  0  0  0  0  0  0  0  0  0
  -24.7780  -21.3750   19.3630 C   0  0  0  0  0 15  0  0  0  0  0  0
  -28.2260  -17.9040   19.6790 C   0  0  0  0  0  2  0  0  0  0  0  0
  -30.1860  -15.2700   19.2910 C   0  0  0  0  0  2  0  0  0  0  0  0
  -30.2050  -13.7500   18.6180 C   0  0  0  0  0  2  0  0  0  0  0  0
  -29.1640  -12.8030   19.1980 C   0  0  0  0  0  2  0  0  0  0  0  0
  -28.1640  -13.7940   19.7590 C   0  0  0  0  0  3  0  0  0  0  0  0
  -28.6330  -14.9790   20.6740 C   0  0  0  0  0  2  0  0  0  0  0  0
  -28.7950  -16.2170   19.7380 N   0  0  0  0  0  0  0  0  0  0  0  0
  -29.5750  -17.9600   19.7810 O   0  0  0  0  0  1  0  0  0  0  0  0
  -26.5750  -19.3400   19.4570 N   0  0  0  0  0  1  0  0  0  0  0  0
  -25.8930  -18.6070   19.3010 H   0  0  0  0  0  0  0  0  0  0  0  0
  -25.8900  -14.2210   20.4090 C   0  0  0  0  0  0  0  0  0  0  0  0
  -24.8760  -13.4390   20.8120 C   0  0  0  0  0  0  0  0  0  0  0  0
  -25.3720  -12.0980   20.7960 C   0  0  0  0  0  0  0  0  0  0  0  0
  -26.9290  -13.3500   20.2140 N   0  0  0  0  0  0  0  0  0  0  0  0
  -26.6630  -12.0610   20.4930 N   0  0  0  0  0  0  0  0  0  0  0  0
  -24.6560  -10.8460   20.9730 C   0  0  0  0  0  0  0  0  0  0  0  0
  -24.8860  -10.0170   22.0900 C   0  0  0  0  0  3  0  0  0  0  0  0
  -24.1430   -8.8310   22.2490 C   0  0  0  0  0  3  0  0  0  0  0  0
  -23.1670   -8.4740   21.2870 C   0  0  0  0  0  0  0  0  0  0  0  0
  -22.9690   -9.2930   20.1630 C   0  0  0  0  0  3  0  0  0  0  0  0
  -23.7120  -10.4700   20.0030 C   0  0  0  0  0  3  0  0  0  0  0  0
  -22.4090   -7.3340   21.3470 O   0  0  0  0  0  0  0  0  0  0  0  0
  -21.7970   -6.9450   22.5090 C   0  0  0  0  0  0  0  0  0  0  0  0
  -20.8360   -7.7540   23.1530 C   0  0  0  0  0  3  0  0  0  0  0  0
  -20.1830   -7.2810   24.3090 C   0  0  0  0  0  3  0  0  0  0  0  0
  -20.4830   -6.0020   24.8140 C   0  0  0  0  0  0  0  0  0  0  0  0
  -21.4380   -5.1950   24.1700 C   0  0  0  0  0  3  0  0  0  0  0  0
  -22.0920   -5.6660   23.0190 C   0  0  0  0  0  0  0  0  0  0  0  0
  -22.9980   -4.8800   22.3880 F   0  0  0  0  0  0  0  0  0  0  0  0
  -19.8480   -5.5420   25.9170 F   0  0  0  0  0  0  0  0  0  0  0  0
  -23.4950  -13.9380   21.0570 C   0  0  0  0  0  0  0  0  0  0  0  0
  -22.7640  -13.2760   21.9380 N   0  0  0  0  0  0  0  0  0  0  0  0
  -23.0910  -14.9640   20.5110 O   0  0  0  0  0  0  0  0  0  0  0  0
  -23.1200  -12.4490   22.3930 H   0  0  0  0  0  0  0  0  0  0  0  0
  -21.8320  -13.5970   22.1610 H   0  0  0  0  0  0  0  0  0  0  0  0
  -25.9940  -15.5900   20.1540 N   0  0  0  0  0  0  0  0  0  0  0  0
  -25.1170  -16.0870   20.0460 H   0  0  0  0  0  0  0  0  0  0  0  0
  -26.6950  -15.8710   19.4820 H   0  0  0  0  0  0  0  0  0  0  0  0
  -25.3720  -25.9560   20.3620 C   0  0  0  0  0  2  0  0  0  0  0  0
  -26.9770  -25.5630   22.2910 C   0  0  0  0  0  1  0  0  0  0  0  0
  -26.5840  -26.5830   21.2130 C   0  0  0  0  0  3  0  0  0  0  0  0
  -27.8830  -26.8840   20.5610 O   0  0  0  0  0  0  0  0  0  0  0  0
  -27.9530  -31.3890   25.6090 C   0  0  0  0  0  0  0  0  0  0  0  0
  -27.9470  -28.2250   20.5630 C   0  0  0  0  0  0  0  0  0  0  0  0
  -26.3010  -31.5540   23.8090 C   0  0  0  0  0  3  0  0  0  0  0  0
  -26.9140  -30.6000   21.5260 C   0  0  0  0  0  0  0  0  0  0  0  0
  -28.6640  -30.7470   23.3200 C   0  0  0  0  0  2  0  0  0  0  0  0
  -28.0660  -30.0620   22.1140 C   0  0  0  0  0  0  0  0  0  0  0  0
  -28.6060  -28.8620   21.6280 C   0  0  0  0  0  3  0  0  0  0  0  0
  -26.9430  -28.8700   19.8280 C   0  0  0  0  0  3  0  0  0  0  0  0
  -26.4040  -30.0650   20.3270 C   0  0  0  0  0  3  0  0  0  0  0  0
  -26.2240  -31.7220   22.2610 C   0  0  0  0  0  2  0  0  0  0  0  0
  -27.6790  -31.2680   24.2840 N   0  0  0  0  0  0  0  0  0  0  0  0
  -27.1410  -31.9100   26.3870 O   0  0  0  0  0  0  0  0  0  0  0  0
  -25.4020  -30.3990   24.3370 C   0  0  0  0  0  0  0  0  0  0  0  0
  -24.1300  -30.5140   24.2780 N   0  0  0  0  0  0  0  0  0  0  0  0
  -25.8180  -29.3800   24.8320 O   0  0  0  0  0  0  0  0  0  0  0  0
  -23.8770  -31.3450   23.7620 H   0  0  0  0  0  0  0  0  0  0  0  0
  -20.9820  -28.3330   22.9440 C   0  0  0  0  0  0  0  0  0  0  0  0
  -22.8630  -29.8240   24.6910 C   0  0  0  0  0  3  0  0  0  0  0  0
  -22.9060  -28.3410   24.9520 C   0  0  0  0  0  3  0  0  0  0  0  0
  -21.8860  -27.2350   24.4270 C   0  0  0  0  0  3  0  0  0  0  0  0
  -20.6870  -27.2440   23.5220 C   0  0  0  0  0  2  0  0  0  0  0  0
  -22.0350  -29.7440   23.5570 C   0  0  0  0  0  0  0  0  0  0  0  0
  -22.6870  -30.8820   22.5330 C   0  0  0  0  0  3  0  0  0  0  0  0
  -22.7020  -30.6240   21.0000 C   0  0  0  0  0  3  0  0  0  0  0  0
  -21.9480  -29.3070   20.2850 C   0  0  0  0  0  3  0  0  0  0  0  0
  -20.9940  -28.1230   21.1440 C   0  0  0  0  0  3  0  0  0  0  0  0
  -29.2950  -30.8740   26.2050 C   0  0  0  0  0  3  0  0  0  0  0  0
  -29.2130  -29.3940   26.7500 C   0  0  1  0  0  0  0  0  0  0  0  0
  -28.0070  -29.1340   27.6830 C   0  0  0  0  0  1  0  0  0  0  0  0
  -29.1300  -28.3790   25.5860 C   0  0  0  0  0  1  0  0  0  0  0  0
  -30.5140  -29.0580   27.5190 C   0  0  0  0  0  1  0  0  0  0  0  0
  -29.6650  -31.8080   27.2700 N   0  0  0  0  0  0  0  0  0  0  0  0
  -30.4960  -32.8450   27.1030 C   0  0  0  0  0  0  0  0  0  0  0  0
  -31.0850  -33.0710   26.0420 O   0  0  0  0  0  0  0  0  0  0  0  0
  -29.1590  -31.7290   28.1400 H   0  0  0  0  0  0  0  0  0  0  0  0
  -29.8130  -35.0150   28.1750 C   0  0  0  0  0  1  0  0  0  0  0  0
  -30.7090  -33.7750   28.3100 C   0  0  0  0  0  3  0  0  0  0  0  0
  -32.9960  -33.1150   28.9090 C   0  0  0  0  0  1  0  0  0  0  0  0
  -32.1140  -34.1970   28.4830 N   0  0  0  0  0  0  0  0  0  0  0  0
  -32.1810  -34.9470   29.1660 H   0  0  0  0  0  0  0  0  0  0  0  0
  1  5  1  0
  2  6  1  0
  3  8  1  0
  5  3  1  0
  6  3  1  0
  7  9  1  0
  7 10  1  0
  8 11  1  0
  8 51  1  0
 13 19  1  0
 13 20  1  0
 14 19  1  0
 15 16  1  0
 15 14  1  0
 17 16  1  0
 17 26  1  0
 17 18  1  0
 19 18  1  0
 22 21  1  0
 23 24  2  0
 24 43  1  0
 25 24  1  0
 25 28  1  0
 26 23  1  0
 26 27  1  0
 27 25  2  0
 28 29  1  0
 29 30  2  0
 31 34  1  0
 31 30  1  0
 32 31  2  0
 33 32  1  0
 33 28  2  0
 34 35  1  0
 35 40  2  0
 35 36  1  0
 36 37  2  0
 37 38  1  0
 38 42  1  0
 39 38  2  0
 40 39  1  0
 41 40  1  0
 43 44  1  0
 44 47  1  0
 44 46  1  0
 45 43  2  0
 48 23  1  0
 49 48  1  0
 50 48  1  0
 51 53  1  0
 53 52  1  0
 54 56  1  0
 54 53  1  0
 55 66  2  0
 56 61  1  0
 57 65  1  0
 57 67  1  0
 58 60  1  0
 58 64  1  0
 59 65  1  0
 60 59  1  0
 61 60  2  0
 62 63  1  0
 62 56  2  0
 63 58  2  0
 64 57  1  0
 65 55  1  0
 67 69  2  0
 68 67  1  0
 70 68  1  0
 71 75  1  0
 71 76  1  0
 72 68  1  0
 72 73  1  0
 74 73  2  0
 75 74  1  0
 76 72  1  0
 77 76  2  0
 78 77  1  0
 79 78  2  0
 79 80  1  0
 80 71  2  0
 81 55  1  0
 81 82  1  0
 81 86  1  0
 82 85  1  1
 82 83  1  0
 84 82  1  0
 86 89  1  0
 87 86  1  0
 87 91  1  0
 88 87  2  0
 91 90  1  0
 91 93  1  0
 93 92  1  0
 93 94  1  0
M  ISO  4  13 100  21 100  53 101  54 101
M  END
>  <TORSDO>  (79) 
F 19

>  <SCORE>  (79) 
-5.068

>  <name>  (79) 
78

>  <ligand_id>  (79) 
78

>  <original_smiles>  (79) 
[H]c1c([H])c([H])c2c(c1[H])C([H])([H])C([H])([H])C([H])([H])C2([H])N([H])C(=O)C1([H])N(C(=O)C([H])(N([H])C(=O)C([H])(N([H])C([H])([H])[H])C([H])([H])[H])C(C([H])([H])[H])(C([H])([H])[H])C([H])([H])[H])C([H])([H])c2c([H])c(OC([H])(C([H])([H])[H])C([H])([H])N([H])c3nc(N([H])[H])nc(C([H])([H])N([H])C(=O)N4C([H])([H])C([H])([H])C([H])([H])C([H])(n5nc(-c6c([H])c([H])c(Oc7c([H])c([H])c(F)c([H])c7F)c([H])c6[H])c(C(=O)N([H])[H])c5N([H])[H])C4([H])[H])n3)c([H])c([H])c2C1([H])[H]

>  <smiles>  (79) 
[H]c1c([H])c([H])c2c(c1[H])C([H])([H])C([H])([H])C([H])([H])C2([H])N([H])C(=O)C1([H])N(C(=O)C([H])(N([H])C(=O)C([H])(N([H])C([H])([H])[H])C([H])([H])[H])C(C([H])([H])[H])(C([H])([H])[H])C([H])([H])[H])C([H])([H])c2c([H])c(OC([H])(C([H])([H])[H])C([H])([H])N([H])c3nc(N([H])[H])nc(C([H])([H])N([H])C(=O)N4C([H])([H])C([H])([H])C([H])([H])C([H])(n5nc(-c6c([H])c([H])c(Oc7c([H])c([H])c(F)c([H])c7F)c([H])c6[H])c(C(=O)N([H])[H])c5N([H])[H])C4([H])[H])n3)c([H])c([H])c2C1([H])[H]

$$$$
79:0:0
     RDKit          3D

 92100  0  0  1  0  0  0  0  0999 V2000
  -29.5650  -22.7560   20.0800 C   0  0  0  0  0  2  0  0  0  0  0  0
  -30.2710  -21.9370   21.0820 N   0  0  0  0  0  0  0  0  0  0  0  0
  -30.2810  -22.4730   21.9500 H   0  0  0  0  0  0  0  0  0  0  0  0
  -30.2680  -19.8970   22.4490 C   0  0  0  0  0  3  0  0  0  0  0  0
  -30.2980  -20.5250   21.2300 C   0  0  0  0  0  0  0  0  0  0  0  0
  -30.6030  -18.3170   20.5880 C   0  0  0  0  0  0  0  0  0  0  0  0
  -30.4420  -19.5980   20.1770 N   0  0  0  0  0  0  0  0  0  0  0  0
  -30.4700  -18.1670   22.3350 S   0  0  0  0  0  0  0  0  0  0  0  0
  -30.9630  -17.1590   19.6720 C   0  0  0  0  0  2  0  0  0  0  0  0
  -31.1350  -14.6750   19.9250 C   0  0  0  0  0  0  0  0  0  0  0  0
  -30.7280  -12.4730   18.9170 C   0  0  0  0  0  2  0  0  0  0  0  0
  -29.7540  -12.6500   17.7340 C   0  0  0  0  0  2  0  0  0  0  0  0
  -28.2920  -12.5630   18.2150 C   0  0  0  0  0  2  0  0  0  0  0  0
  -28.0080  -13.4470   19.4630 C   0  0  0  0  0  3  0  0  0  0  0  0
  -29.1080  -13.2820   20.5390 C   0  0  0  0  0  2  0  0  0  0  0  0
  -30.4090  -13.5210   19.8990 N   0  0  0  0  0  0  0  0  0  0  0  0
  -32.3010  -14.7160   19.5360 O   0  0  0  0  0  0  0  0  0  0  0  0
  -30.4530  -15.8280   20.1130 N   0  0  0  0  0  0  0  0  0  0  0  0
  -29.4780  -15.7620   20.3510 H   0  0  0  0  0  0  0  0  0  0  0  0
  -25.6620  -14.1150   20.2880 C   0  0  0  0  0  0  0  0  0  0  0  0
  -24.5870  -13.3740   20.7010 C   0  0  0  0  0  0  0  0  0  0  0  0
  -25.0080  -12.0090   20.6490 C   0  0  0  0  0  0  0  0  0  0  0  0
  -26.6730  -13.2060   20.0090 N   0  0  0  0  0  0  0  0  0  0  0  0
  -26.2840  -11.9350   20.2850 N   0  0  0  0  0  0  0  0  0  0  0  0
  -24.2530  -10.7670   20.8720 C   0  0  0  0  0  0  0  0  0  0  0  0
  -24.6400   -9.8280   21.8550 C   0  0  0  0  0  3  0  0  0  0  0  0
  -23.8870   -8.6520   22.0600 C   0  0  0  0  0  3  0  0  0  0  0  0
  -22.7320   -8.4040   21.2800 C   0  0  0  0  0  0  0  0  0  0  0  0
  -22.3630   -9.3310   20.2880 C   0  0  0  0  0  3  0  0  0  0  0  0
  -23.1160  -10.4990   20.0820 C   0  0  0  0  0  3  0  0  0  0  0  0
  -21.9550   -7.2770   21.3910 O   0  0  0  0  0  0  0  0  0  0  0  0
  -21.7840   -6.6330   22.5910 C   0  0  0  0  0  0  0  0  0  0  0  0
  -21.2570   -7.2940   23.7220 C   0  0  0  0  0  3  0  0  0  0  0  0
  -21.0340   -6.5780   24.9160 C   0  0  0  0  0  3  0  0  0  0  0  0
  -21.3270   -5.2030   24.9780 C   0  0  0  0  0  0  0  0  0  0  0  0
  -21.8470   -4.5420   23.8520 C   0  0  0  0  0  3  0  0  0  0  0  0
  -22.0730   -5.2550   22.6610 C   0  0  0  0  0  0  0  0  0  0  0  0
  -22.5530   -4.6070   21.5720 F   0  0  0  0  0  0  0  0  0  0  0  0
  -21.1060   -4.5140   26.1220 F   0  0  0  0  0  0  0  0  0  0  0  0
  -23.2140  -13.8930   21.0230 C   0  0  0  0  0  0  0  0  0  0  0  0
  -22.5060  -13.2380   21.9380 N   0  0  0  0  0  0  0  0  0  0  0  0
  -22.7770  -14.9140   20.4950 O   0  0  0  0  0  0  0  0  0  0  0  0
  -22.8730  -12.4190   22.3970 H   0  0  0  0  0  0  0  0  0  0  0  0
  -21.5840  -13.5690   22.1820 H   0  0  0  0  0  0  0  0  0  0  0  0
  -25.8600  -15.4810   20.1030 N   0  0  0  0  0  0  0  0  0  0  0  0
  -25.1240  -16.1610   20.2460 H   0  0  0  0  0  0  0  0  0  0  0  0
  -26.7020  -15.8860   19.7140 H   0  0  0  0  0  0  0  0  0  0  0  0
  -29.5610  -24.2910   20.4680 C   0  0  0  0  0  3  0  0  0  0  0  0
  -29.5430  -24.3710   21.8910 O   0  0  0  0  0  0  0  0  0  0  0  0
  -29.6600  -25.2900   22.1150 H   0  0  0  0  0  0  0  0  0  0  0  0
  -28.3350  -25.1190   19.9460 C   0  0  0  0  0  2  0  0  0  0  0  0
  -28.4550  -26.5740   20.0380 O   0  0  0  0  0  0  0  0  0  0  0  0
  -24.5000  -31.7140   23.0770 C   0  0  0  0  0  0  0  0  0  0  0  0
  -27.2810  -27.3270   19.9820 C   0  0  0  0  0  0  0  0  0  0  0  0
  -23.3410  -30.2910   21.4210 C   0  0  0  0  0  3  0  0  0  0  0  0
  -24.8470  -28.8080   19.9840 C   0  0  0  0  0  0  0  0  0  0  0  0
  -25.8620  -30.7160   21.2360 C   0  0  0  0  0  2  0  0  0  0  0  0
  -25.9910  -29.3510   20.5800 C   0  0  0  0  0  0  0  0  0  0  0  0
  -27.2090  -28.6190   20.5710 C   0  0  0  0  0  3  0  0  0  0  0  0
  -26.1130  -26.8250   19.3610 C   0  0  0  0  0  3  0  0  0  0  0  0
  -24.9050  -27.5460   19.3710 C   0  0  0  0  0  3  0  0  0  0  0  0
  -23.5760  -29.6290   20.0380 C   0  0  0  0  0  2  0  0  0  0  0  0
  -24.5860  -30.9260   21.9670 N   0  0  0  0  0  0  0  0  0  0  0  0
  -23.4100  -31.9470   23.6150 O   0  0  0  0  0  0  0  0  0  0  0  0
  -22.7190  -29.2430   22.3730 C   0  0  0  0  0  0  0  0  0  0  0  0
  -21.4070  -28.9970   22.2190 N   0  0  0  0  0  0  0  0  0  0  0  0
  -23.4140  -28.6560   23.2070 O   0  0  0  0  0  0  0  0  0  0  0  0
  -20.9010  -29.5340   21.5270 H   0  0  0  0  0  0  0  0  0  0  0  0
  -18.0950  -27.6020   22.6130 C   0  0  0  0  0  0  0  0  0  0  0  0
  -20.6210  -28.0220   22.9740 C   0  0  0  0  0  3  0  0  0  0  0  0
  -20.8300  -26.5900   22.4280 C   0  0  0  0  0  2  0  0  0  0  0  0
  -19.7880  -26.1850   21.3790 C   0  0  0  0  0  2  0  0  0  0  0  0
  -18.3780  -26.2550   21.9700 C   0  0  0  0  0  2  0  0  0  0  0  0
  -19.1490  -28.4380   23.0710 C   0  0  0  0  0  0  0  0  0  0  0  0
  -18.8290  -29.6950   23.6290 C   0  0  0  0  0  3  0  0  0  0  0  0
  -17.4910  -30.1170   23.7380 C   0  0  0  0  0  3  0  0  0  0  0  0
  -16.4520  -29.2780   23.2970 C   0  0  0  0  0  3  0  0  0  0  0  0
  -16.7560  -28.0230   22.7400 C   0  0  0  0  0  3  0  0  0  0  0  0
  -25.7650  -32.3780   23.7090 C   0  0  0  0  0  3  0  0  0  0  0  0
  -25.4040  -33.7540   24.0710 N   0  0  0  0  0  0  0  0  0  0  0  0
  -25.7110  -34.8370   23.3440 C   0  0  0  0  0  0  0  0  0  0  0  0
  -26.3980  -34.7840   22.3210 O   0  0  0  0  0  0  0  0  0  0  0  0
  -24.7910  -33.8660   24.8630 H   0  0  0  0  0  0  0  0  0  0  0  0
  -23.9270  -36.5810   23.0190 C   0  0  0  0  0  1  0  0  0  0  0  0
  -25.1720  -36.1950   23.8330 C   0  0  0  0  0  3  0  0  0  0  0  0
  -27.2660  -37.1310   24.7110 C   0  0  0  0  0  1  0  0  0  0  0  0
  -26.1680  -37.2860   23.7610 N   0  0  0  0  0  0  0  0  0  0  0  0
  -25.7260  -38.1870   23.9280 H   0  0  0  0  0  0  0  0  0  0  0  0
  -26.3180  -31.5980   24.9650 C   0  0  1  0  0  0  0  0  0  0  0  0
  -25.2430  -31.2970   26.0350 C   0  0  0  0  0  1  0  0  0  0  0  0
  -26.9520  -30.2550   24.5380 C   0  0  0  0  0  1  0  0  0  0  0  0
  -27.4370  -32.4240   25.6430 C   0  0  0  0  0  1  0  0  0  0  0  0
  1 48  1  0
  1  2  1  0
  2  5  1  0
  2  3  1  0
  5  4  2  0
  6  8  1  0
  7  6  2  0
  7  5  1  0
  8  4  1  0
  9 18  1  0
  9  6  1  0
 10 18  1  0
 11 16  1  0
 12 13  1  0
 12 11  1  0
 14 13  1  0
 14 23  1  0
 14 15  1  0
 16 10  1  0
 16 15  1  0
 17 10  2  0
 18 19  1  0
 20 21  2  0
 21 40  1  0
 22 21  1  0
 22 25  1  0
 23 24  1  0
 23 20  1  0
 24 22  2  0
 25 26  1  0
 26 27  2  0
 28 31  1  0
 28 27  1  0
 29 28  2  0
 30 29  1  0
 30 25  2  0
 31 32  1  0
 32 37  2  0
 32 33  1  0
 33 34  2  0
 34 35  1  0
 35 39  1  0
 36 35  2  0
 37 36  1  0
 38 37  1  0
 40 41  1  0
 41 44  1  0
 41 43  1  0
 42 40  2  0
 45 46  1  0
 45 20  1  0
 47 45  1  0
 48 51  1  0
 48 49  1  0
 49 50  1  0
 51 52  1  0
 53 64  2  0
 54 52  1  0
 54 59  1  0
 55 63  1  0
 55 65  1  0
 56 62  1  0
 56 58  1  0
 57 63  1  0
 58 57  1  0
 59 58  2  0
 60 61  1  0
 60 54  2  0
 61 56  2  0
 62 55  1  0
 63 53  1  0
 65 67  2  0
 66 65  1  0
 68 66  1  0
 69 78  2  0
 69 74  1  0
 70 66  1  0
 70 74  1  0
 71 70  1  0
 72 73  1  0
 72 71  1  0
 73 69  1  0
 74 75  2  0
 75 76  1  0
 77 76  2  0
 78 77  1  0
 79 53  1  0
 79 80  1  0
 79 89  1  0
 80 83  1  0
 81 85  1  0
 81 80  1  0
 82 81  2  0
 85 84  1  0
 87 85  1  0
 87 88  1  0
 87 86  1  0
 89 92  1  1
 89 90  1  0
 91 89  1  0
M  ISO  4  10 100  18 100  51 101  52 101
M  END
>  <TORSDO>  (80) 
F 22

>  <SCORE>  (80) 
-11.931

>  <name>  (80) 
79

>  <ligand_id>  (80) 
79

>  <original_smiles>  (80) 
[H]OC([H])(C([H])([H])Oc1c([H])c([H])c2c(c1[H])C([H])([H])N(C(=O)C([H])(N([H])C(=O)C([H])(N([H])C([H])([H])[H])C([H])([H])[H])C(C([H])([H])[H])(C([H])([H])[H])C([H])([H])[H])C([H])(C(=O)N([H])C1([H])c3c([H])c([H])c([H])c([H])c3C([H])([H])C([H])([H])C1([H])[H])C2([H])[H])C([H])([H])N([H])c1nc(C([H])([H])N([H])C(=O)N2C([H])([H])C([H])([H])C([H])([H])C([H])(n3nc(-c4c([H])c([H])c(Oc5c([H])c([H])c(F)c([H])c5F)c([H])c4[H])c(C(=O)N([H])[H])c3N([H])[H])C2([H])[H])sc1[H]

>  <smiles>  (80) 
[H]OC([H])(C([H])([H])Oc1c([H])c([H])c2c(c1[H])C([H])([H])N(C(=O)C([H])(N([H])C(=O)C([H])(N([H])C([H])([H])[H])C([H])([H])[H])C(C([H])([H])[H])(C([H])([H])[H])C([H])([H])[H])C([H])(C(=O)N([H])C1([H])c3c([H])c([H])c([H])c([H])c3C([H])([H])C([H])([H])C1([H])[H])C2([H])[H])C([H])([H])N([H])c1nc(C([H])([H])N([H])C(=O)N2C([H])([H])C([H])([H])C([H])([H])C([H])(n3nc(-c4c([H])c([H])c(Oc5c([H])c([H])c(F)c([H])c5F)c([H])c4[H])c(C(=O)N([H])[H])c3N([H])[H])C2([H])[H])sc1[H]

$$$$
80:0:0
     RDKit          3D

 94102  0  0  1  0  0  0  0  0999 V2000
  -29.6220  -21.7620   19.4870 C   0  0  0  0  0  2  0  0  0  0  0  0
  -31.2320  -20.1960   18.3190 C   0  0  0  0  0  1  0  0  0  0  0  0
  -30.3910  -20.3620   19.6010 C   0  0  0  0  0  3  0  0  0  0  0  0
  -28.1650  -19.1090   19.7600 C   0  0  0  0  0  3  0  0  0  0  0  0
  -28.1110  -16.7500   20.2830 C   0  0  0  0  0  3  0  0  0  0  0  0
  -27.4340  -17.9420   19.9940 C   0  0  0  0  0  0  0  0  0  0  0  0
  -29.5650  -19.0580   19.8320 C   0  0  0  0  0  0  0  0  0  0  0  0
  -29.5190  -16.7160   20.3400 C   0  0  0  0  0  0  0  0  0  0  0  0
  -30.2250  -17.8790   20.1310 N   0  0  0  0  0  0  0  0  0  0  0  0
  -26.0800  -17.9650   19.9480 F   0  0  0  0  0  0  0  0  0  0  0  0
  -30.6950  -14.4240   20.0460 C   0  0  0  0  0  0  0  0  0  0  0  0
  -30.5140  -12.0870   19.2010 C   0  0  0  0  0  2  0  0  0  0  0  0
  -29.5330  -12.0640   18.0060 C   0  0  0  0  0  2  0  0  0  0  0  0
  -28.0700  -11.9460   18.4820 C   0  0  0  0  0  2  0  0  0  0  0  0
  -27.7320  -12.9400   19.6230 C   0  0  0  0  0  3  0  0  0  0  0  0
  -28.8120  -12.8780   20.7280 C   0  0  0  0  0  2  0  0  0  0  0  0
  -30.1160  -13.1830   20.1060 N   0  0  0  0  0  0  0  0  0  0  0  0
  -31.7700  -14.6140   19.4650 O   0  0  0  0  0  0  0  0  0  0  0  0
  -29.9980  -15.3940   20.6920 N   0  0  0  0  0  0  0  0  0  0  0  0
  -29.3620  -14.9460   21.3320 H   0  0  0  0  0  0  0  0  0  0  0  0
  -25.3930  -13.6330   20.4450 C   0  0  0  0  0  0  0  0  0  0  0  0
  -24.3110  -12.9010   20.8530 C   0  0  0  0  0  0  0  0  0  0  0  0
  -24.7130  -11.5320   20.7850 C   0  0  0  0  0  0  0  0  0  0  0  0
  -26.3900  -12.7130   20.1570 N   0  0  0  0  0  0  0  0  0  0  0  0
  -25.9860  -11.4440   20.4160 N   0  0  0  0  0  0  0  0  0  0  0  0
  -23.9430  -10.2980   20.9910 C   0  0  0  0  0  0  0  0  0  0  0  0
  -24.3680   -9.3080   21.9030 C   0  0  0  0  0  3  0  0  0  0  0  0
  -23.6030   -8.1380   22.0980 C   0  0  0  0  0  3  0  0  0  0  0  0
  -22.3960   -7.9520   21.3810 C   0  0  0  0  0  0  0  0  0  0  0  0
  -21.9890   -8.9320   20.4590 C   0  0  0  0  0  3  0  0  0  0  0  0
  -22.7550  -10.0930   20.2630 C   0  0  0  0  0  3  0  0  0  0  0  0
  -21.6000   -6.8370   21.4870 O   0  0  0  0  0  0  0  0  0  0  0  0
  -21.5510   -6.0950   22.6400 C   0  0  0  0  0  0  0  0  0  0  0  0
  -21.1770   -6.6640   23.8760 C   0  0  0  0  0  3  0  0  0  0  0  0
  -21.0720   -5.8500   25.0220 C   0  0  0  0  0  3  0  0  0  0  0  0
  -21.3290   -4.4690   24.9320 C   0  0  0  0  0  0  0  0  0  0  0  0
  -21.6970   -3.9010   23.7000 C   0  0  0  0  0  3  0  0  0  0  0  0
  -21.8040   -4.7110   22.5560 C   0  0  0  0  0  0  0  0  0  0  0  0
  -22.1380   -4.1550   21.3670 F   0  0  0  0  0  0  0  0  0  0  0  0
  -21.2210   -3.6850   26.0300 F   0  0  0  0  0  0  0  0  0  0  0  0
  -22.9490  -13.4340   21.1950 C   0  0  0  0  0  0  0  0  0  0  0  0
  -22.2340  -12.7600   22.0890 N   0  0  0  0  0  0  0  0  0  0  0  0
  -22.5280  -14.4800   20.7040 O   0  0  0  0  0  0  0  0  0  0  0  0
  -22.5870  -11.9120   22.5090 H   0  0  0  0  0  0  0  0  0  0  0  0
  -21.3210  -13.0990   22.3590 H   0  0  0  0  0  0  0  0  0  0  0  0
  -25.6060  -14.9970   20.2780 N   0  0  0  0  0  0  0  0  0  0  0  0
  -24.8730  -15.6790   20.4390 H   0  0  0  0  0  0  0  0  0  0  0  0
  -26.4540  -15.4070   19.9070 H   0  0  0  0  0  0  0  0  0  0  0  0
  -29.3940  -22.6490   20.7630 C   0  0  0  0  0  2  0  0  0  0  0  0
  -29.4680  -24.2350   20.6460 C   0  0  0  0  0  3  0  0  0  0  0  0
  -29.7810  -24.6710   21.9600 O   0  0  0  0  0  0  0  0  0  0  0  0
  -30.6720  -24.3970   22.1540 H   0  0  0  0  0  0  0  0  0  0  0  0
  -28.1810  -25.0470   20.2400 C   0  0  0  0  0  2  0  0  0  0  0  0
  -28.3600  -26.5040   20.2000 O   0  0  0  0  0  0  0  0  0  0  0  0
  -24.6160  -31.8540   23.1940 C   0  0  0  0  0  0  0  0  0  0  0  0
  -27.2130  -27.3000   20.1680 C   0  0  0  0  0  0  0  0  0  0  0  0
  -23.4000  -30.4470   21.5670 C   0  0  0  0  0  3  0  0  0  0  0  0
  -24.8400  -28.8790   20.1560 C   0  0  0  0  0  0  0  0  0  0  0  0
  -25.9350  -30.7670   21.3690 C   0  0  0  0  0  2  0  0  0  0  0  0
  -26.0100  -29.3840   20.7380 C   0  0  0  0  0  0  0  0  0  0  0  0
  -27.1990  -28.6060   20.7320 C   0  0  0  0  0  3  0  0  0  0  0  0
  -26.0200  -26.8280   19.5740 C   0  0  0  0  0  3  0  0  0  0  0  0
  -24.8450  -27.6050   19.5670 C   0  0  0  0  0  3  0  0  0  0  0  0
  -23.6050  -29.7550   20.1950 C   0  0  0  0  0  2  0  0  0  0  0  0
  -24.6690  -31.0380   22.1010 N   0  0  0  0  0  0  0  0  0  0  0  0
  -23.5350  -32.1420   23.7290 O   0  0  0  0  0  0  0  0  0  0  0  0
  -22.7350  -29.4430   22.5370 C   0  0  0  0  0  0  0  0  0  0  0  0
  -21.4050  -29.2840   22.4250 N   0  0  0  0  0  0  0  0  0  0  0  0
  -23.4120  -28.8080   23.3500 O   0  0  0  0  0  0  0  0  0  0  0  0
  -20.9180  -29.8470   21.7410 H   0  0  0  0  0  0  0  0  0  0  0  0
  -18.0150  -28.1510   22.9630 C   0  0  0  0  0  0  0  0  0  0  0  0
  -20.5800  -28.3630   23.2060 C   0  0  0  0  0  3  0  0  0  0  0  0
  -20.6500  -26.9290   22.6320 C   0  0  0  0  0  2  0  0  0  0  0  0
  -19.5310  -26.6250   21.6300 C   0  0  0  0  0  2  0  0  0  0  0  0
  -18.1590  -26.7970   22.2880 C   0  0  0  0  0  2  0  0  0  0  0  0
  -19.1510  -28.8930   23.3790 C   0  0  0  0  0  0  0  0  0  0  0  0
  -18.9620  -30.1620   23.9700 C   0  0  0  0  0  3  0  0  0  0  0  0
  -17.6680  -30.6870   24.1480 C   0  0  0  0  0  3  0  0  0  0  0  0
  -16.5460  -29.9420   23.7470 C   0  0  0  0  0  3  0  0  0  0  0  0
  -16.7200  -28.6750   23.1610 C   0  0  0  0  0  3  0  0  0  0  0  0
  -25.9040  -32.4820   23.8100 C   0  0  0  0  0  3  0  0  0  0  0  0
  -25.5950  -33.8760   24.1600 N   0  0  0  0  0  0  0  0  0  0  0  0
  -25.9120  -34.9370   23.4070 C   0  0  0  0  0  0  0  0  0  0  0  0
  -26.5650  -34.8470   22.3650 O   0  0  0  0  0  0  0  0  0  0  0  0
  -25.0120  -34.0180   24.9710 H   0  0  0  0  0  0  0  0  0  0  0  0
  -24.1730  -36.7280   23.0980 C   0  0  0  0  0  1  0  0  0  0  0  0
  -25.4260  -36.3190   23.8870 C   0  0  0  0  0  3  0  0  0  0  0  0
  -27.5710  -37.2000   24.6970 C   0  0  0  0  0  1  0  0  0  0  0  0
  -26.4540  -37.3770   23.7720 N   0  0  0  0  0  0  0  0  0  0  0  0
  -26.0480  -38.2930   23.9360 H   0  0  0  0  0  0  0  0  0  0  0  0
  -26.4380  -31.6970   25.0700 C   0  0  1  0  0  0  0  0  0  0  0  0
  -25.3570  -31.4430   26.1460 C   0  0  0  0  0  1  0  0  0  0  0  0
  -27.0200  -30.3260   24.6520 C   0  0  0  0  0  1  0  0  0  0  0  0
  -27.5940  -32.4860   25.7280 C   0  0  0  0  0  1  0  0  0  0  0  0
  1  3  1  0
  1 49  1  0
  3  2  1  0
  3  7  1  0
  4  7  2  0
  4  6  1  0
  5  8  1  0
  6  5  2  0
  7  9  1  0
  8 19  1  0
  9  8  2  0
 10  6  1  0
 11 17  1  0
 11 19  1  0
 12 17  1  0
 13 14  1  0
 13 12  1  0
 15 14  1  0
 15 24  1  0
 15 16  1  0
 17 16  1  0
 18 11  2  0
 19 20  1  0
 21 22  2  0
 22 41  1  0
 23 22  1  0
 23 26  1  0
 24 25  1  0
 24 21  1  0
 25 23  2  0
 26 27  1  0
 27 28  2  0
 29 32  1  0
 29 28  1  0
 30 29  2  0
 31 30  1  0
 31 26  2  0
 32 33  1  0
 33 34  1  0
 34 35  2  0
 36 35  1  0
 36 40  1  0
 37 36  2  0
 38 33  2  0
 38 37  1  0
 39 38  1  0
 41 42  1  0
 42 45  1  0
 42 44  1  0
 43 41  2  0
 46 47  1  0
 46 21  1  0
 48 46  1  0
 50 53  1  0
 50 49  1  0
 50 51  1  0
 51 52  1  0
 54 53  1  0
 55 66  2  0
 56 54  1  0
 56 61  1  0
 57 65  1  0
 57 67  1  0
 58 64  1  0
 58 60  1  0
 59 65  1  0
 60 59  1  0
 61 60  2  0
 62 56  2  0
 63 62  1  0
 63 58  2  0
 64 57  1  0
 65 55  1  0
 67 69  2  0
 68 67  1  0
 70 68  1  0
 71 80  2  0
 71 76  1  0
 72 68  1  0
 72 76  1  0
 73 72  1  0
 74 75  1  0
 74 73  1  0
 75 71  1  0
 76 77  2  0
 77 78  1  0
 79 78  2  0
 80 79  1  0
 81 55  1  0
 81 82  1  0
 81 91  1  0
 82 85  1  0
 83 87  1  0
 83 82  1  0
 84 83  2  0
 87 86  1  0
 89 87  1  0
 89 90  1  0
 89 88  1  0
 91 94  1  1
 91 92  1  0
 93 91  1  0
M  ISO  4  11 100  19 100  53 101  54 101
M  END
>  <TORSDO>  (81) 
F 22

>  <SCORE>  (81) 
-13.469

>  <name>  (81) 
80

>  <ligand_id>  (81) 
80

>  <original_smiles>  (81) 
[H]OC([H])(C([H])([H])Oc1c([H])c([H])c2c(c1[H])C([H])([H])N(C(=O)C([H])(N([H])C(=O)C([H])(N([H])C([H])([H])[H])C([H])([H])[H])C(C([H])([H])[H])(C([H])([H])[H])C([H])([H])[H])C([H])(C(=O)N([H])C1([H])c3c([H])c([H])c([H])c([H])c3C([H])([H])C([H])([H])C1([H])[H])C2([H])[H])C([H])([H])C([H])([H])C([H])(c1nc(N([H])C(=O)N2C([H])([H])C([H])([H])C([H])([H])C([H])(n3nc(-c4c([H])c([H])c(Oc5c([H])c([H])c(F)c([H])c5F)c([H])c4[H])c(C(=O)N([H])[H])c3N([H])[H])C2([H])[H])c([H])c(F)c1[H])C([H])([H])[H]

>  <smiles>  (81) 
[H]OC([H])(C([H])([H])Oc1c([H])c([H])c2c(c1[H])C([H])([H])N(C(=O)C([H])(N([H])C(=O)C([H])(N([H])C([H])([H])[H])C([H])([H])[H])C(C([H])([H])[H])(C([H])([H])[H])C([H])([H])[H])C([H])(C(=O)N([H])C1([H])c3c([H])c([H])c([H])c([H])c3C([H])([H])C([H])([H])C1([H])[H])C2([H])[H])C([H])([H])C([H])([H])C([H])(c1nc(N([H])C(=O)N2C([H])([H])C([H])([H])C([H])([H])C([H])(n3nc(-c4c([H])c([H])c(Oc5c([H])c([H])c(F)c([H])c5F)c([H])c4[H])c(C(=O)N([H])[H])c3N([H])[H])C2([H])[H])c([H])c(F)c1[H])C([H])([H])[H]

$$$$
81:0:0
     RDKit          3D

 91 99  0  0  1  0  0  0  0  0999 V2000
  -28.6170  -18.9420   19.9340 C   0  0  0  0  0  3  0  0  0  0  0  0
  -29.8300  -18.6070   20.5060 C   0  0  0  0  0  0  0  0  0  0  0  0
  -29.2220  -21.1330   20.4750 C   0  0  0  0  0  0  0  0  0  0  0  0
  -28.3050  -20.3320   19.9080 N   0  0  0  0  0  0  0  0  0  0  0  0
  -29.1580  -22.5650   20.6050 N   0  0  0  0  0  0  0  0  0  0  0  0
  -30.5800  -20.1280   21.0740 S   0  0  0  0  0  0  0  0  0  0  0  0
  -29.9200  -22.8980   21.1870 H   0  0  0  0  0  0  0  0  0  0  0  0
  -26.9210  -23.2810   19.8690 C   0  0  0  0  0  1  0  0  0  0  0  0
  -28.3780  -23.7360   20.0490 C   0  0  0  0  0  3  0  0  0  0  0  0
  -29.8280  -25.2670   21.5540 C   0  0  0  0  0  1  0  0  0  0  0  0
  -28.4670  -25.1600   20.8440 C   0  0  0  0  0  3  0  0  0  0  0  0
  -28.3950  -26.4820   20.1510 O   0  0  0  0  0  0  0  0  0  0  0  0
  -24.6210  -31.8960   23.2470 C   0  0  0  0  0  0  0  0  0  0  0  0
  -27.2610  -27.3110   20.2230 C   0  0  0  0  0  0  0  0  0  0  0  0
  -23.4290  -30.4840   21.6090 C   0  0  0  0  0  3  0  0  0  0  0  0
  -24.8910  -28.9210   20.2070 C   0  0  0  0  0  0  0  0  0  0  0  0
  -25.9720  -30.8010   21.4390 C   0  0  0  0  0  2  0  0  0  0  0  0
  -26.0570  -29.4150   20.8070 C   0  0  0  0  0  0  0  0  0  0  0  0
  -27.2480  -28.6220   20.8030 C   0  0  0  0  0  3  0  0  0  0  0  0
  -26.0790  -26.8880   19.5860 C   0  0  0  0  0  3  0  0  0  0  0  0
  -24.9050  -27.6610   19.5860 C   0  0  0  0  0  3  0  0  0  0  0  0
  -23.6510  -29.7940   20.2380 C   0  0  0  0  0  2  0  0  0  0  0  0
  -24.6920  -31.0790   22.1540 N   0  0  0  0  0  0  0  0  0  0  0  0
  -23.5310  -32.1730   23.7710 O   0  0  0  0  0  0  0  0  0  0  0  0
  -22.7630  -29.4730   22.5730 C   0  0  0  0  0  0  0  0  0  0  0  0
  -21.4350  -29.2980   22.4470 N   0  0  0  0  0  0  0  0  0  0  0  0
  -23.4410  -28.8450   23.3900 O   0  0  0  0  0  0  0  0  0  0  0  0
  -20.9480  -29.8600   21.7630 H   0  0  0  0  0  0  0  0  0  0  0  0
  -18.0540  -28.1210   22.9570 C   0  0  0  0  0  0  0  0  0  0  0  0
  -20.6150  -28.3650   23.2190 C   0  0  0  0  0  3  0  0  0  0  0  0
  -20.7040  -26.9330   22.6450 C   0  0  0  0  0  2  0  0  0  0  0  0
  -19.5970  -26.6170   21.6340 C   0  0  0  0  0  2  0  0  0  0  0  0
  -18.2190  -26.7710   22.2810 C   0  0  0  0  0  2  0  0  0  0  0  0
  -19.1780  -28.8750   23.3840 C   0  0  0  0  0  0  0  0  0  0  0  0
  -18.9690  -30.1390   23.9780 C   0  0  0  0  0  3  0  0  0  0  0  0
  -17.6660  -30.6470   24.1480 C   0  0  0  0  0  3  0  0  0  0  0  0
  -16.5570  -29.8890   23.7360 C   0  0  0  0  0  3  0  0  0  0  0  0
  -16.7520  -28.6280   23.1470 C   0  0  0  0  0  3  0  0  0  0  0  0
  -25.8960  -32.5350   23.8740 C   0  0  0  0  0  3  0  0  0  0  0  0
  -26.4040  -31.7730   25.1600 C   0  0  1  0  0  0  0  0  0  0  0  0
  -25.3050  -31.5480   26.2250 C   0  0  0  0  0  1  0  0  0  0  0  0
  -26.9890  -30.3910   24.7840 C   0  0  0  0  0  1  0  0  0  0  0  0
  -27.5520  -32.5710   25.8210 C   0  0  0  0  0  1  0  0  0  0  0  0
  -25.5770  -33.9320   24.1980 N   0  0  0  0  0  0  0  0  0  0  0  0
  -25.9150  -34.9860   23.4400 C   0  0  0  0  0  0  0  0  0  0  0  0
  -26.5910  -34.8790   22.4130 O   0  0  0  0  0  0  0  0  0  0  0  0
  -24.9620  -34.0870   24.9830 H   0  0  0  0  0  0  0  0  0  0  0  0
  -24.1820  -36.7740   23.0790 C   0  0  0  0  0  1  0  0  0  0  0  0
  -25.4230  -36.3750   23.8910 C   0  0  0  0  0  3  0  0  0  0  0  0
  -27.5580  -37.2660   24.7170 C   0  0  0  0  0  1  0  0  0  0  0  0
  -26.4530  -37.4300   23.7740 N   0  0  0  0  0  0  0  0  0  0  0  0
  -26.0470  -38.3500   23.9190 H   0  0  0  0  0  0  0  0  0  0  0  0
  -30.6170  -17.2520   20.6060 C   0  0  0  0  0  2  0  0  0  0  0  0
  -30.6510  -14.7030   20.3870 C   0  0  0  0  0  0  0  0  0  0  0  0
  -30.3680  -12.4490   19.3700 C   0  0  0  0  0  2  0  0  0  0  0  0
  -29.4400  -12.5480   18.1440 C   0  0  0  0  0  2  0  0  0  0  0  0
  -27.9720  -12.3840   18.5760 C   0  0  0  0  0  2  0  0  0  0  0  0
  -27.6010  -13.2720   19.7950 C   0  0  0  0  0  3  0  0  0  0  0  0
  -28.6610  -13.1980   20.9160 C   0  0  0  0  0  2  0  0  0  0  0  0
  -29.9630  -13.5150   20.3160 N   0  0  0  0  0  0  0  0  0  0  0  0
  -31.8350  -14.7500   20.0470 O   0  0  0  0  0  0  0  0  0  0  0  0
  -29.9710  -15.8780   20.6380 N   0  0  0  0  0  0  0  0  0  0  0  0
  -28.9970  -15.8160   20.8950 H   0  0  0  0  0  0  0  0  0  0  0  0
  -25.2160  -13.8560   20.5370 C   0  0  0  0  0  0  0  0  0  0  0  0
  -24.1530  -13.0780   20.9110 C   0  0  0  0  0  0  0  0  0  0  0  0
  -24.6190  -11.7290   20.8780 C   0  0  0  0  0  0  0  0  0  0  0  0
  -26.2600  -12.9810   20.2920 N   0  0  0  0  0  0  0  0  0  0  0  0
  -25.9090  -11.6960   20.5620 N   0  0  0  0  0  0  0  0  0  0  0  0
  -23.8960  -10.4640   21.0640 C   0  0  0  0  0  0  0  0  0  0  0  0
  -24.3420   -9.4900   21.9870 C   0  0  0  0  0  3  0  0  0  0  0  0
  -23.6190   -8.2910   22.1650 C   0  0  0  0  0  3  0  0  0  0  0  0
  -22.4390   -8.0540   21.4240 C   0  0  0  0  0  0  0  0  0  0  0  0
  -22.0110   -9.0160   20.4930 C   0  0  0  0  0  3  0  0  0  0  0  0
  -22.7340  -10.2080   20.3100 C   0  0  0  0  0  3  0  0  0  0  0  0
  -21.6880   -6.9070   21.5140 O   0  0  0  0  0  0  0  0  0  0  0  0
  -21.6600   -6.1520   22.6580 C   0  0  0  0  0  0  0  0  0  0  0  0
  -21.2660   -6.6920   23.9010 C   0  0  0  0  0  3  0  0  0  0  0  0
  -21.1880   -5.8630   25.0370 C   0  0  0  0  0  3  0  0  0  0  0  0
  -21.4920   -4.4940   24.9320 C   0  0  0  0  0  0  0  0  0  0  0  0
  -21.8780   -3.9510   23.6940 C   0  0  0  0  0  3  0  0  0  0  0  0
  -21.9610   -4.7780   22.5610 C   0  0  0  0  0  0  0  0  0  0  0  0
  -22.3150   -4.2460   21.3660 F   0  0  0  0  0  0  0  0  0  0  0  0
  -21.4080   -3.6940   26.0220 F   0  0  0  0  0  0  0  0  0  0  0  0
  -22.7560  -13.5510   21.1840 C   0  0  0  0  0  0  0  0  0  0  0  0
  -22.0300  -12.8530   22.0500 N   0  0  0  0  0  0  0  0  0  0  0  0
  -22.3140  -14.5740   20.6610 O   0  0  0  0  0  0  0  0  0  0  0  0
  -22.3980  -12.0270   22.4990 H   0  0  0  0  0  0  0  0  0  0  0  0
  -21.0880  -13.1490   22.2680 H   0  0  0  0  0  0  0  0  0  0  0  0
  -25.3720  -15.2270   20.3550 N   0  0  0  0  0  0  0  0  0  0  0  0
  -24.6000  -15.8750   20.4690 H   0  0  0  0  0  0  0  0  0  0  0  0
  -26.2050  -15.6660   19.9860 H   0  0  0  0  0  0  0  0  0  0  0  0
  1  2  2  0
  2 53  1  0
  2  6  1  0
  3  5  1  0
  3  6  1  0
  4  1  1  0
  4  3  2  0
  5  7  1  0
  9  8  1  0
  9  5  1  0
  9 11  1  0
 11 10  1  0
 12 14  1  0
 12 11  1  0
 13 24  2  0
 14 19  1  0
 15 23  1  0
 15 25  1  0
 16 22  1  0
 16 18  1  0
 17 23  1  0
 18 17  1  0
 19 18  2  0
 20 21  1  0
 20 14  2  0
 21 16  2  0
 22 15  1  0
 23 13  1  0
 25 27  2  0
 26 25  1  0
 28 26  1  0
 29 38  2  0
 29 34  1  0
 30 26  1  0
 30 34  1  0
 31 30  1  0
 32 33  1  0
 32 31  1  0
 33 29  1  0
 34 35  2  0
 35 36  1  0
 37 36  2  0
 38 37  1  0
 39 13  1  0
 39 44  1  0
 39 40  1  0
 40 43  1  1
 40 41  1  0
 42 40  1  0
 44 47  1  0
 45 49  1  0
 45 44  1  0
 46 45  2  0
 49 48  1  0
 51 49  1  0
 51 52  1  0
 51 50  1  0
 53 62  1  0
 54 62  1  0
 55 60  1  0
 56 57  1  0
 56 55  1  0
 58 57  1  0
 58 67  1  0
 58 59  1  0
 60 54  1  0
 60 59  1  0
 61 54  2  0
 62 63  1  0
 64 65  2  0
 65 84  1  0
 66 65  1  0
 66 69  1  0
 67 64  1  0
 67 68  1  0
 68 66  2  0
 69 70  1  0
 70 71  2  0
 72 75  1  0
 72 71  1  0
 73 72  2  0
 74 73  1  0
 74 69  2  0
 75 76  1  0
 76 77  1  0
 77 78  2  0
 79 78  1  0
 79 83  1  0
 80 79  2  0
 81 76  2  0
 81 80  1  0
 82 81  1  0
 84 85  1  0
 85 88  1  0
 85 87  1  0
 86 84  2  0
 89 90  1  0
 89 64  1  0
 91 89  1  0
M  ISO  4  11 101  12 101  54 100  62 100
M  END
>  <TORSDO>  (82) 
F 19

>  <SCORE>  (82) 
-14.355

>  <name>  (82) 
81

>  <ligand_id>  (82) 
81

>  <original_smiles>  (82) 
[H]c1nc(N([H])C([H])(C([H])([H])[H])C([H])(Oc2c([H])c([H])c3c(c2[H])C([H])([H])N(C(=O)C([H])(N([H])C(=O)C([H])(N([H])C([H])([H])[H])C([H])([H])[H])C(C([H])([H])[H])(C([H])([H])[H])C([H])([H])[H])C([H])(C(=O)N([H])C2([H])c4c([H])c([H])c([H])c([H])c4C([H])([H])C([H])([H])C2([H])[H])C3([H])[H])C([H])([H])[H])sc1C([H])([H])N([H])C(=O)N1C([H])([H])C([H])([H])C([H])([H])C([H])(n2nc(-c3c([H])c([H])c(Oc4c([H])c([H])c(F)c([H])c4F)c([H])c3[H])c(C(=O)N([H])[H])c2N([H])[H])C1([H])[H]

>  <smiles>  (82) 
[H]c1nc(N([H])C([H])(C([H])([H])[H])C([H])(Oc2c([H])c([H])c3c(c2[H])C([H])([H])N(C(=O)C([H])(N([H])C(=O)C([H])(N([H])C([H])([H])[H])C([H])([H])[H])C(C([H])([H])[H])(C([H])([H])[H])C([H])([H])[H])C([H])(C(=O)N([H])C2([H])c4c([H])c([H])c([H])c([H])c4C([H])([H])C([H])([H])C2([H])[H])C3([H])[H])C([H])([H])[H])sc1C([H])([H])N([H])C(=O)N1C([H])([H])C([H])([H])C([H])([H])C([H])(n2nc(-c3c([H])c([H])c(Oc4c([H])c([H])c(F)c([H])c4F)c([H])c3[H])c(C(=O)N([H])[H])c2N([H])[H])C1([H])[H]

$$$$
82:0:0
     RDKit          3D

 98106  0  0  1  0  0  0  0  0999 V2000
  -30.3720  -21.6490   18.8570 C   0  0  0  0  0  3  0  0  0  0  0  0
  -29.6610  -20.2900   18.4760 C   0  0  0  0  0  2  0  0  0  0  0  0
  -30.9970  -14.4880   20.0770 C   0  0  0  0  0  0  0  0  0  0  0  0
  -30.6560  -12.3250   18.9470 C   0  0  0  0  0  2  0  0  0  0  0  0
  -29.6920  -12.5580   17.7650 C   0  0  0  0  0  2  0  0  0  0  0  0
  -28.2250  -12.4420   18.2210 C   0  0  0  0  0  2  0  0  0  0  0  0
  -27.9300  -13.2680   19.5030 C   0  0  0  0  0  3  0  0  0  0  0  0
  -29.0040  -13.0210   20.5860 C   0  0  0  0  0  2  0  0  0  0  0  0
  -30.3260  -13.3050   19.9940 N   0  0  0  0  0  0  0  0  0  0  0  0
  -32.0880  -14.6850   19.5320 O   0  0  0  0  0  0  0  0  0  0  0  0
  -29.8080  -19.0770   19.3850 C   0  0  0  0  0  0  0  0  0  0  0  0
  -29.1110  -18.8170   20.5450 C   0  0  0  0  0  0  0  0  0  0  0  0
  -30.1840  -16.8140   20.3680 C   0  0  0  0  0  0  0  0  0  0  0  0
  -29.3420  -17.5540   21.0900 N   0  0  0  0  0  0  0  0  0  0  0  0
  -30.3550  -15.4540   20.7460 N   0  0  0  0  0  0  0  0  0  0  0  0
  -30.8150  -17.6840   18.9600 S   0  0  0  0  0  0  0  0  0  0  0  0
  -29.6340  -15.1150   21.3590 H   0  0  0  0  0  0  0  0  0  0  0  0
  -25.5490  -13.8960   20.2570 C   0  0  0  0  0  0  0  0  0  0  0  0
  -24.4800  -13.1340   20.6560 C   0  0  0  0  0  0  0  0  0  0  0  0
  -24.9280  -11.7800   20.6210 C   0  0  0  0  0  0  0  0  0  0  0  0
  -26.5820  -13.0060   20.0110 N   0  0  0  0  0  0  0  0  0  0  0  0
  -26.2130  -11.7280   20.2860 N   0  0  0  0  0  0  0  0  0  0  0  0
  -24.1960  -10.5230   20.8340 C   0  0  0  0  0  0  0  0  0  0  0  0
  -24.5700   -9.6120   21.8470 C   0  0  0  0  0  3  0  0  0  0  0  0
  -23.8370   -8.4200   22.0430 C   0  0  0  0  0  3  0  0  0  0  0  0
  -22.7160   -8.1330   21.2270 C   0  0  0  0  0  0  0  0  0  0  0  0
  -22.3630   -9.0340   20.2080 C   0  0  0  0  0  3  0  0  0  0  0  0
  -23.0960  -10.2160   20.0080 C   0  0  0  0  0  3  0  0  0  0  0  0
  -21.9600   -6.9900   21.3280 O   0  0  0  0  0  0  0  0  0  0  0  0
  -21.7700   -6.3590   22.5320 C   0  0  0  0  0  0  0  0  0  0  0  0
  -21.1310   -7.0000   23.6160 C   0  0  0  0  0  3  0  0  0  0  0  0
  -20.8890   -6.2900   24.8100 C   0  0  0  0  0  3  0  0  0  0  0  0
  -21.2780   -4.9410   24.9210 C   0  0  0  0  0  0  0  0  0  0  0  0
  -21.9100   -4.3020   23.8390 C   0  0  0  0  0  3  0  0  0  0  0  0
  -22.1510   -5.0080   22.6480 C   0  0  0  0  0  0  0  0  0  0  0  0
  -22.7400   -4.3780   21.6030 F   0  0  0  0  0  0  0  0  0  0  0  0
  -21.0410   -4.2580   26.0650 F   0  0  0  0  0  0  0  0  0  0  0  0
  -23.0930  -13.6290   20.9540 C   0  0  0  0  0  0  0  0  0  0  0  0
  -22.3730  -12.9390   21.8310 N   0  0  0  0  0  0  0  0  0  0  0  0
  -22.6570  -14.6590   20.4410 O   0  0  0  0  0  0  0  0  0  0  0  0
  -22.7370  -12.1110   22.2780 H   0  0  0  0  0  0  0  0  0  0  0  0
  -21.4390  -13.2480   22.0650 H   0  0  0  0  0  0  0  0  0  0  0  0
  -25.7280  -15.2620   20.0660 N   0  0  0  0  0  0  0  0  0  0  0  0
  -24.9810  -15.9400   20.1840 H   0  0  0  0  0  0  0  0  0  0  0  0
  -26.5950  -15.6850   19.7590 H   0  0  0  0  0  0  0  0  0  0  0  0
  -28.1940  -19.6520   21.1780 N   0  0  0  0  0  0  0  0  0  0  0  0
  -27.8250  -20.4800   20.7280 H   0  0  0  0  0  0  0  0  0  0  0  0
  -27.6640  -19.3090   21.9710 H   0  0  0  0  0  0  0  0  0  0  0  0
  -31.5620  -21.9400   17.8860 C   0  0  0  0  0  2  0  0  0  0  0  0
  -33.3130  -22.5890   19.6840 C   0  0  0  0  0  1  0  0  0  0  0  0
  -33.4530  -20.3260   18.5730 C   0  0  0  0  0  1  0  0  0  0  0  0
  -33.0110  -21.7830   18.4100 C   0  0  0  0  0  3  0  0  0  0  0  0
  -29.3160  -22.8270   18.8390 C   0  0  0  0  0  2  0  0  0  0  0  0
  -29.6240  -24.2440   19.4610 C   0  0  0  0  0  3  0  0  0  0  0  0
  -30.5920  -24.9310   18.6920 O   0  0  0  0  0  0  0  0  0  0  0  0
  -30.6720  -25.8010   19.0740 H   0  0  0  0  0  0  0  0  0  0  0  0
  -28.3620  -25.1630   19.4210 C   0  0  0  0  0  2  0  0  0  0  0  0
  -28.4740  -26.5300   19.9200 O   0  0  0  0  0  0  0  0  0  0  0  0
  -24.6290  -31.7060   23.1160 C   0  0  0  0  0  0  0  0  0  0  0  0
  -27.3040  -27.2930   19.9390 C   0  0  0  0  0  0  0  0  0  0  0  0
  -23.4330  -30.3000   21.4770 C   0  0  0  0  0  3  0  0  0  0  0  0
  -24.8910  -28.8080   20.0190 C   0  0  0  0  0  0  0  0  0  0  0  0
  -25.9590  -30.6890   21.2600 C   0  0  0  0  0  2  0  0  0  0  0  0
  -26.0580  -29.3270   20.5950 C   0  0  0  0  0  0  0  0  0  0  0  0
  -27.2660  -28.5800   20.5470 C   0  0  0  0  0  3  0  0  0  0  0  0
  -26.1020  -26.8130   19.3610 C   0  0  0  0  0  3  0  0  0  0  0  0
  -24.9100  -27.5540   19.3980 C   0  0  0  0  0  3  0  0  0  0  0  0
  -23.6410  -29.6500   20.0880 C   0  0  0  0  0  2  0  0  0  0  0  0
  -24.6920  -30.9150   22.0080 N   0  0  0  0  0  0  0  0  0  0  0  0
  -23.5470  -31.9500   23.6670 O   0  0  0  0  0  0  0  0  0  0  0  0
  -22.8100  -29.2560   22.4340 C   0  0  0  0  0  0  0  0  0  0  0  0
  -21.4930  -29.0270   22.2950 N   0  0  0  0  0  0  0  0  0  0  0  0
  -23.5070  -28.6590   23.2590 O   0  0  0  0  0  0  0  0  0  0  0  0
  -20.9950  -29.5590   21.5940 H   0  0  0  0  0  0  0  0  0  0  0  0
  -18.1560  -27.7050   22.7500 C   0  0  0  0  0  0  0  0  0  0  0  0
  -20.6980  -28.0660   23.0570 C   0  0  0  0  0  3  0  0  0  0  0  0
  -20.8660  -26.6380   22.4890 C   0  0  0  0  0  2  0  0  0  0  0  0
  -19.7910  -26.2660   21.4630 C   0  0  0  0  0  2  0  0  0  0  0  0
  -18.3950  -26.3610   22.0860 C   0  0  0  0  0  2  0  0  0  0  0  0
  -19.2380  -28.5140   23.1910 C   0  0  0  0  0  0  0  0  0  0  0  0
  -18.9600  -29.7720   23.7700 C   0  0  0  0  0  3  0  0  0  0  0  0
  -17.6330  -30.2230   23.9130 C   0  0  0  0  0  3  0  0  0  0  0  0
  -16.5660  -29.4110   23.4900 C   0  0  0  0  0  3  0  0  0  0  0  0
  -16.8280  -28.1540   22.9160 C   0  0  0  0  0  3  0  0  0  0  0  0
  -25.9090  -32.3570   23.7270 C   0  0  0  0  0  3  0  0  0  0  0  0
  -25.5700  -33.7420   24.0860 N   0  0  0  0  0  0  0  0  0  0  0  0
  -25.8860  -34.8170   23.3520 C   0  0  0  0  0  0  0  0  0  0  0  0
  -26.5640  -34.7510   22.3230 O   0  0  0  0  0  0  0  0  0  0  0  0
  -24.9730  -33.8670   24.8880 H   0  0  0  0  0  0  0  0  0  0  0  0
  -24.1450  -36.5990   23.0050 C   0  0  0  0  0  1  0  0  0  0  0  0
  -25.3700  -36.1860   23.8370 C   0  0  0  0  0  3  0  0  0  0  0  0
  -27.4630  -37.0760   24.7620 C   0  0  0  0  0  1  0  0  0  0  0  0
  -26.3950  -37.2530   23.7830 N   0  0  0  0  0  0  0  0  0  0  0  0
  -25.9710  -38.1650   23.9380 H   0  0  0  0  0  0  0  0  0  0  0  0
  -26.4600  -31.5760   24.9810 C   0  0  1  0  0  0  0  0  0  0  0  0
  -25.3900  -31.2860   26.0580 C   0  0  0  0  0  1  0  0  0  0  0  0
  -27.0760  -30.2240   24.5540 C   0  0  0  0  0  1  0  0  0  0  0  0
  -27.5980  -32.3900   25.6440 C   0  0  0  0  0  1  0  0  0  0  0  0
  1 49  1  0
  2  1  1  0
  2 11  1  0
  3 15  1  0
  4  9  1  0
  5  6  1  0
  5  4  1  0
  7  6  1  0
  7 21  1  0
  7  8  1  0
  9  3  1  0
  9  8  1  0
 10  3  2  0
 11 12  2  0
 12 14  1  0
 12 46  1  0
 13 15  1  0
 13 14  2  0
 15 17  1  0
 16 11  1  0
 16 13  1  0
 18 19  2  0
 19 38  1  0
 20 19  1  0
 20 23  1  0
 21 18  1  0
 21 22  1  0
 22 20  2  0
 23 24  1  0
 24 25  2  0
 26 29  1  0
 26 25  1  0
 27 26  2  0
 28 27  1  0
 28 23  2  0
 29 30  1  0
 30 35  2  0
 30 31  1  0
 31 32  2  0
 32 33  1  0
 33 37  1  0
 34 33  2  0
 35 34  1  0
 36 35  1  0
 38 39  1  0
 39 42  1  0
 39 41  1  0
 40 38  2  0
 43 44  1  0
 43 18  1  0
 45 43  1  0
 46 48  1  0
 47 46  1  0
 49 52  1  0
 52 51  1  0
 52 50  1  0
 53  1  1  0
 54 53  1  0
 55 56  1  0
 55 54  1  0
 57 54  1  0
 57 58  1  0
 58 60  1  0
 59 70  2  0
 60 65  1  0
 61 69  1  0
 61 71  1  0
 62 68  1  0
 62 64  1  0
 63 69  1  0
 64 63  1  0
 65 64  2  0
 66 67  1  0
 66 60  2  0
 67 62  2  0
 68 61  1  0
 69 59  1  0
 71 73  2  0
 72 71  1  0
 74 72  1  0
 75 84  2  0
 75 80  1  0
 76 72  1  0
 76 80  1  0
 77 76  1  0
 78 79  1  0
 78 77  1  0
 79 75  1  0
 80 81  2  0
 81 82  1  0
 83 82  2  0
 84 83  1  0
 85 59  1  0
 85 86  1  0
 85 95  1  0
 86 89  1  0
 87 91  1  0
 87 86  1  0
 88 87  2  0
 91 90  1  0
 93 91  1  0
 93 94  1  0
 93 92  1  0
 95 98  1  1
 95 96  1  0
 97 95  1  0
M  ISO  4   3 100  15 100  57 101  58 101
M  END
>  <TORSDO>  (83) 
F 24

>  <SCORE>  (83) 
-12.166

>  <name>  (83) 
82

>  <ligand_id>  (83) 
82

>  <original_smiles>  (83) 
[H]OC([H])(C([H])([H])Oc1c([H])c([H])c2c(c1[H])C([H])([H])N(C(=O)C([H])(N([H])C(=O)C([H])(N([H])C([H])([H])[H])C([H])([H])[H])C(C([H])([H])[H])(C([H])([H])[H])C([H])([H])[H])C([H])(C(=O)N([H])C1([H])c3c([H])c([H])c([H])c([H])c3C([H])([H])C([H])([H])C1([H])[H])C2([H])[H])C([H])([H])C([H])(C([H])([H])c1sc(N([H])C(=O)N2C([H])([H])C([H])([H])C([H])([H])C([H])(n3nc(-c4c([H])c([H])c(Oc5c([H])c([H])c(F)c([H])c5F)c([H])c4[H])c(C(=O)N([H])[H])c3N([H])[H])C2([H])[H])nc1N([H])[H])C([H])([H])C([H])(C([H])([H])[H])C([H])([H])[H]

>  <smiles>  (83) 
[H]OC([H])(C([H])([H])Oc1c([H])c([H])c2c(c1[H])C([H])([H])N(C(=O)C([H])(N([H])C(=O)C([H])(N([H])C([H])([H])[H])C([H])([H])[H])C(C([H])([H])[H])(C([H])([H])[H])C([H])([H])[H])C([H])(C(=O)N([H])C1([H])c3c([H])c([H])c([H])c([H])c3C([H])([H])C([H])([H])C1([H])[H])C2([H])[H])C([H])([H])C([H])(C([H])([H])c1sc(N([H])C(=O)N2C([H])([H])C([H])([H])C([H])([H])C([H])(n3nc(-c4c([H])c([H])c(Oc5c([H])c([H])c(F)c([H])c5F)c([H])c4[H])c(C(=O)N([H])[H])c3N([H])[H])C2([H])[H])nc1N([H])[H])C([H])([H])C([H])(C([H])([H])[H])C([H])([H])[H]

$$$$
83:0:0
     RDKit          3D

 95103  0  0  1  0  0  0  0  0999 V2000
  -29.6940  -20.5880   20.9080 C   0  0  0  0  0  0  0  0  0  0  0  0
  -29.6620  -20.4410   22.2410 N   0  0  0  0  0  4  0  0  0  0  0  0
  -29.5520  -21.8290   20.3560 N   0  0  0  0  0  0  0  0  0  0  0  0
  -29.7570  -19.4910   22.5780 H   0  0  0  0  0  0  0  0  0  0  0  0
  -29.5660  -21.1890   22.9050 H   0  0  0  0  0  0  0  0  0  0  0  0
  -29.6560  -21.8950   19.3520 H   0  0  0  0  0  0  0  0  0  0  0  0
  -30.7260  -14.6300   20.3710 C   0  0  0  0  0  0  0  0  0  0  0  0
  -30.4510  -12.4390   19.2960 C   0  0  0  0  0  2  0  0  0  0  0  0
  -29.5070  -12.6250   18.0900 C   0  0  0  0  0  2  0  0  0  0  0  0
  -28.0350  -12.4730   18.5230 C   0  0  0  0  0  2  0  0  0  0  0  0
  -27.6890  -13.3150   19.7820 C   0  0  0  0  0  3  0  0  0  0  0  0
  -28.7540  -13.1300   20.8880 C   0  0  0  0  0  2  0  0  0  0  0  0
  -30.0730  -13.4370   20.3100 N   0  0  0  0  0  0  0  0  0  0  0  0
  -31.8780  -14.7740   19.9500 O   0  0  0  0  0  0  0  0  0  0  0  0
  -30.1860  -19.3640   18.7210 C   0  0  0  0  0  3  0  0  0  0  0  0
  -30.3270  -17.0650   18.7090 C   0  0  0  0  0  3  0  0  0  0  0  0
  -29.8970  -19.3440   20.1060 C   0  0  0  0  0  0  0  0  0  0  0  0
  -30.0610  -16.9990   20.1090 C   0  0  0  0  0  0  0  0  0  0  0  0
  -30.3870  -18.2260   18.0170 N   0  0  0  0  0  0  0  0  0  0  0  0
  -29.8230  -18.1580   20.7960 N   0  0  0  0  0  0  0  0  0  0  0  0
  -29.9900  -15.7070   20.7320 N   0  0  0  0  0  0  0  0  0  0  0  0
  -29.1650  -15.5240   21.2800 H   0  0  0  0  0  0  0  0  0  0  0  0
  -25.2920  -13.9040   20.5120 C   0  0  0  0  0  0  0  0  0  0  0  0
  -24.2290  -13.1240   20.8810 C   0  0  0  0  0  0  0  0  0  0  0  0
  -24.6940  -11.7740   20.8370 C   0  0  0  0  0  0  0  0  0  0  0  0
  -26.3400  -13.0280   20.2670 N   0  0  0  0  0  0  0  0  0  0  0  0
  -25.9830  -11.7420   20.5190 N   0  0  0  0  0  0  0  0  0  0  0  0
  -23.9730  -10.5100   21.0250 C   0  0  0  0  0  0  0  0  0  0  0  0
  -24.3980   -9.5500   21.9700 C   0  0  0  0  0  3  0  0  0  0  0  0
  -23.6790   -8.3480   22.1450 C   0  0  0  0  0  3  0  0  0  0  0  0
  -22.5170   -8.0970   21.3760 C   0  0  0  0  0  0  0  0  0  0  0  0
  -22.1090   -9.0470   20.4230 C   0  0  0  0  0  3  0  0  0  0  0  0
  -22.8300  -10.2400   20.2440 C   0  0  0  0  0  3  0  0  0  0  0  0
  -21.7720   -6.9460   21.4560 O   0  0  0  0  0  0  0  0  0  0  0  0
  -21.6960   -6.2190   22.6180 C   0  0  0  0  0  0  0  0  0  0  0  0
  -21.1930   -6.7760   23.8140 C   0  0  0  0  0  3  0  0  0  0  0  0
  -21.0670   -5.9730   24.9660 C   0  0  0  0  0  3  0  0  0  0  0  0
  -21.4340   -4.6140   24.9200 C   0  0  0  0  0  0  0  0  0  0  0  0
  -21.9300   -4.0570   23.7280 C   0  0  0  0  0  3  0  0  0  0  0  0
  -22.0580   -4.8580   22.5790 C   0  0  0  0  0  0  0  0  0  0  0  0
  -22.5160   -4.3120   21.4280 F   0  0  0  0  0  0  0  0  0  0  0  0
  -21.3070   -3.8410   26.0230 F   0  0  0  0  0  0  0  0  0  0  0  0
  -22.8320  -13.5970   21.1650 C   0  0  0  0  0  0  0  0  0  0  0  0
  -22.1080  -12.8930   22.0290 N   0  0  0  0  0  0  0  0  0  0  0  0
  -22.3900  -14.6270   20.6590 O   0  0  0  0  0  0  0  0  0  0  0  0
  -22.4740  -12.0620   22.4700 H   0  0  0  0  0  0  0  0  0  0  0  0
  -21.1720  -13.1970   22.2560 H   0  0  0  0  0  0  0  0  0  0  0  0
  -25.4520  -15.2770   20.3430 N   0  0  0  0  0  0  0  0  0  0  0  0
  -24.6860  -15.9290   20.4690 H   0  0  0  0  0  0  0  0  0  0  0  0
  -26.2970  -15.7210   20.0110 H   0  0  0  0  0  0  0  0  0  0  0  0
  -30.6660  -23.5070   21.8300 C   0  0  0  0  0  1  0  0  0  0  0  0
  -29.3780  -23.1360   21.0610 C   0  0  0  0  0  3  0  0  0  0  0  0
  -28.8860  -24.3050   20.1370 C   0  0  0  0  0  2  0  0  0  0  0  0
  -28.3770  -25.5780   20.8870 C   0  0  0  0  0  2  0  0  0  0  0  0
  -28.3080  -26.7580   20.0580 O   0  0  0  0  0  0  0  0  0  0  0  0
  -24.5140  -31.9150   23.2530 C   0  0  0  0  0  0  0  0  0  0  0  0
  -27.1390  -27.4920   20.1190 C   0  0  0  0  0  0  0  0  0  0  0  0
  -23.2960  -30.5370   21.5950 C   0  0  0  0  0  3  0  0  0  0  0  0
  -24.7420  -29.0020   20.1530 C   0  0  0  0  0  0  0  0  0  0  0  0
  -25.8200  -30.8890   21.3910 C   0  0  0  0  0  2  0  0  0  0  0  0
  -25.9020  -29.5200   20.7410 C   0  0  0  0  0  0  0  0  0  0  0  0
  -27.1030  -28.7730   20.7230 C   0  0  0  0  0  3  0  0  0  0  0  0
  -25.9630  -26.9880   19.5270 C   0  0  0  0  0  3  0  0  0  0  0  0
  -24.7670  -27.7340   19.5430 C   0  0  0  0  0  3  0  0  0  0  0  0
  -23.5000  -29.8660   20.2090 C   0  0  0  0  0  2  0  0  0  0  0  0
  -24.5600  -31.1300   22.1370 N   0  0  0  0  0  0  0  0  0  0  0  0
  -23.4370  -32.1830   23.8030 O   0  0  0  0  0  0  0  0  0  0  0  0
  -22.6450  -29.5090   22.5510 C   0  0  0  0  0  0  0  0  0  0  0  0
  -21.3220  -29.3210   22.4190 N   0  0  0  0  0  0  0  0  0  0  0  0
  -23.3300  -28.8850   23.3660 O   0  0  0  0  0  0  0  0  0  0  0  0
  -20.8300  -29.8780   21.7350 H   0  0  0  0  0  0  0  0  0  0  0  0
  -17.9570  -28.0920   22.8950 C   0  0  0  0  0  0  0  0  0  0  0  0
  -20.5110  -28.3730   23.1820 C   0  0  0  0  0  3  0  0  0  0  0  0
  -20.6280  -26.9440   22.6000 C   0  0  0  0  0  2  0  0  0  0  0  0
  -19.5350  -26.6170   21.5780 C   0  0  0  0  0  2  0  0  0  0  0  0
  -18.1490  -26.7480   22.2150 C   0  0  0  0  0  2  0  0  0  0  0  0
  -19.0670  -28.8620   23.3360 C   0  0  0  0  0  0  0  0  0  0  0  0
  -18.8350  -30.1190   23.9310 C   0  0  0  0  0  3  0  0  0  0  0  0
  -17.5250  -30.6100   24.0920 C   0  0  0  0  0  3  0  0  0  0  0  0
  -16.4290  -29.8370   23.6680 C   0  0  0  0  0  3  0  0  0  0  0  0
  -16.6460  -28.5820   23.0740 C   0  0  0  0  0  3  0  0  0  0  0  0
  -25.8060  -32.5350   23.8720 C   0  0  0  0  0  3  0  0  0  0  0  0
  -26.3140  -31.7680   25.1570 C   0  0  1  0  0  0  0  0  0  0  0  0
  -25.2190  -31.5540   26.2280 C   0  0  0  0  0  1  0  0  0  0  0  0
  -26.8790  -30.3800   24.7770 C   0  0  0  0  0  1  0  0  0  0  0  0
  -27.4720  -32.5560   25.8140 C   0  0  0  0  0  1  0  0  0  0  0  0
  -25.5140  -33.9390   24.1890 N   0  0  0  0  0  0  0  0  0  0  0  0
  -25.8700  -34.9810   23.4250 C   0  0  0  0  0  0  0  0  0  0  0  0
  -26.5490  -34.8600   22.4020 O   0  0  0  0  0  0  0  0  0  0  0  0
  -24.9140  -34.1090   24.9820 H   0  0  0  0  0  0  0  0  0  0  0  0
  -24.1900  -36.8090   23.0220 C   0  0  0  0  0  1  0  0  0  0  0  0
  -25.3990  -36.3800   23.8670 C   0  0  0  0  0  3  0  0  0  0  0  0
  -27.5220  -37.2300   24.7600 C   0  0  0  0  0  1  0  0  0  0  0  0
  -26.4540  -37.4110   23.7800 N   0  0  0  0  0  0  0  0  0  0  0  0
  -26.0600  -38.3400   23.9050 H   0  0  0  0  0  0  0  0  0  0  0  0
  1  2  2  0
  2  4  1  0
  2  5  1  0
  3  1  1  0
  3 52  1  0
  6  3  1  0
  7 21  1  0
  8 13  1  0
  9 10  1  0
  9  8  1  0
 11 10  1  0
 11 26  1  0
 11 12  1  0
 13  7  1  0
 13 12  1  0
 14  7  2  0
 15 17  1  0
 16 18  2  0
 17 20  2  0
 17  1  1  0
 18 21  1  0
 18 20  1  0
 19 16  1  0
 19 15  2  0
 21 22  1  0
 23 24  2  0
 24 43  1  0
 25 24  1  0
 25 28  1  0
 26 23  1  0
 26 27  1  0
 27 25  2  0
 28 29  1  0
 29 30  2  0
 31 34  1  0
 31 30  1  0
 32 31  2  0
 33 32  1  0
 33 28  2  0
 34 35  1  0
 35 36  1  0
 36 37  2  0
 38 37  1  0
 38 42  1  0
 39 38  2  0
 40 35  2  0
 40 39  1  0
 41 40  1  0
 43 44  1  0
 44 47  1  0
 44 46  1  0
 45 43  2  0
 48 49  1  0
 48 23  1  0
 50 48  1  0
 52 51  1  0
 53 54  1  0
 53 52  1  0
 55 57  1  0
 55 54  1  0
 56 67  2  0
 57 62  1  0
 58 66  1  0
 58 68  1  0
 59 65  1  0
 59 61  1  0
 60 66  1  0
 61 60  1  0
 62 61  2  0
 63 64  1  0
 63 57  2  0
 64 59  2  0
 65 58  1  0
 66 56  1  0
 68 70  2  0
 69 68  1  0
 71 69  1  0
 72 81  2  0
 72 77  1  0
 73 69  1  0
 73 77  1  0
 74 73  1  0
 75 76  1  0
 75 74  1  0
 76 72  1  0
 77 78  2  0
 78 79  1  0
 80 79  2  0
 81 80  1  0
 82 56  1  0
 82 87  1  0
 82 83  1  0
 83 86  1  1
 83 84  1  0
 85 83  1  0
 87 90  1  0
 88 92  1  0
 88 87  1  0
 89 88  2  0
 92 91  1  0
 94 92  1  0
 94 95  1  0
 94 93  1  0
M  ISO  4   7 100  21 100  54 101  55 101
M  END
>  <TORSDO>  (84) 
F 19

>  <SCORE>  (84) 
-14.290

>  <name>  (84) 
83

>  <ligand_id>  (84) 
83

>  <original_smiles>  (84) 
[H]c1nc([H])c(N([H])C(=O)N2C([H])([H])C([H])([H])C([H])([H])C([H])(n3nc(-c4c([H])c([H])c(Oc5c([H])c([H])c(F)c([H])c5F)c([H])c4[H])c(C(=O)N([H])[H])c3N([H])[H])C2([H])[H])nc1C(N([H])[H])=[N+]([H])C([H])(C([H])([H])[H])C([H])([H])C([H])([H])Oc1c([H])c([H])c2c(c1[H])C([H])([H])N(C(=O)C([H])(N([H])C(=O)C([H])(N([H])C([H])([H])[H])C([H])([H])[H])C(C([H])([H])[H])(C([H])([H])[H])C([H])([H])[H])C([H])(C(=O)N([H])C1([H])c3c([H])c([H])c([H])c([H])c3C([H])([H])C([H])([H])C1([H])[H])C2([H])[H]

>  <smiles>  (84) 
[H]c1nc([H])c(N([H])C(=O)N2C([H])([H])C([H])([H])C([H])([H])C([H])(n3nc(-c4c([H])c([H])c(Oc5c([H])c([H])c(F)c([H])c5F)c([H])c4[H])c(C(=O)N([H])[H])c3N([H])[H])C2([H])[H])nc1C(N([H])[H])=[N+]([H])C([H])(C([H])([H])[H])C([H])([H])C([H])([H])Oc1c([H])c([H])c2c(c1[H])C([H])([H])N(C(=O)C([H])(N([H])C(=O)C([H])(N([H])C([H])([H])[H])C([H])([H])[H])C(C([H])([H])[H])(C([H])([H])[H])C([H])([H])[H])C([H])(C(=O)N([H])C1([H])c3c([H])c([H])c([H])c([H])c3C([H])([H])C([H])([H])C1([H])[H])C2([H])[H]

$$$$
84:0:0
     RDKit          3D

 93101  0  0  1  0  0  0  0  0999 V2000
  -28.7940  -21.5860   19.9970 C   0  0  0  0  0  2  0  0  0  0  0  0
  -28.9480  -20.3290   20.7450 N   0  0  0  0  0  0  0  0  0  0  0  0
  -29.1740  -20.4210   21.7300 H   0  0  0  0  0  0  0  0  0  0  0  0
  -30.7090  -14.5670   20.6850 C   0  0  0  0  0  0  0  0  0  0  0  0
  -30.4820  -12.3770   19.5930 C   0  0  0  0  0  2  0  0  0  0  0  0
  -29.5930  -12.5740   18.3440 C   0  0  0  0  0  2  0  0  0  0  0  0
  -28.0990  -12.4490   18.7080 C   0  0  0  0  0  2  0  0  0  0  0  0
  -27.7070  -13.2800   19.9600 C   0  0  0  0  0  3  0  0  0  0  0  0
  -28.7200  -13.0740   21.1110 C   0  0  0  0  0  2  0  0  0  0  0  0
  -30.0650  -13.3700   20.5950 N   0  0  0  0  0  0  0  0  0  0  0  0
  -31.8790  -14.7200   20.3210 O   0  0  0  0  0  0  0  0  0  0  0  0
  -29.7190  -17.8930   18.0400 C   0  0  0  0  0  3  0  0  0  0  0  0
  -29.9470  -16.7620   18.8350 C   0  0  0  0  0  3  0  0  0  0  0  0
  -29.3640  -19.0930   18.6690 C   0  0  0  0  0  3  0  0  0  0  0  0
  -29.8150  -16.8370   20.2420 C   0  0  0  0  0  0  0  0  0  0  0  0
  -29.2720  -19.1340   20.0720 C   0  0  0  0  0  0  0  0  0  0  0  0
  -29.4840  -18.0250   20.8310 N   0  0  0  0  0  0  0  0  0  0  0  0
  -29.9330  -15.6270   21.0030 N   0  0  0  0  0  0  0  0  0  0  0  0
  -29.1250  -15.4090   21.5590 H   0  0  0  0  0  0  0  0  0  0  0  0
  -25.2750  -13.8760   20.5530 C   0  0  0  0  0  0  0  0  0  0  0  0
  -24.1960  -13.0990   20.8850 C   0  0  0  0  0  0  0  0  0  0  0  0
  -24.6680  -11.7500   20.8930 C   0  0  0  0  0  0  0  0  0  0  0  0
  -26.3350  -12.9990   20.3820 N   0  0  0  0  0  0  0  0  0  0  0  0
  -25.9710  -11.7170   20.6430 N   0  0  0  0  0  0  0  0  0  0  0  0
  -23.9420  -10.4840   21.0630 C   0  0  0  0  0  0  0  0  0  0  0  0
  -24.3360   -9.5330   22.0290 C   0  0  0  0  0  3  0  0  0  0  0  0
  -23.6110   -8.3330   22.1920 C   0  0  0  0  0  3  0  0  0  0  0  0
  -22.4770   -8.0750   21.3890 C   0  0  0  0  0  0  0  0  0  0  0  0
  -22.1010   -9.0150   20.4120 C   0  0  0  0  0  3  0  0  0  0  0  0
  -22.8280  -10.2070   20.2470 C   0  0  0  0  0  3  0  0  0  0  0  0
  -21.7270   -6.9270   21.4570 O   0  0  0  0  0  0  0  0  0  0  0  0
  -21.6230   -6.2010   22.6170 C   0  0  0  0  0  0  0  0  0  0  0  0
  -21.1130   -6.7670   23.8070 C   0  0  0  0  0  3  0  0  0  0  0  0
  -20.9620   -5.9680   24.9570 C   0  0  0  0  0  3  0  0  0  0  0  0
  -21.3050   -4.6040   24.9190 C   0  0  0  0  0  0  0  0  0  0  0  0
  -21.8070   -4.0370   23.7340 C   0  0  0  0  0  3  0  0  0  0  0  0
  -21.9630   -4.8330   22.5850 C   0  0  0  0  0  0  0  0  0  0  0  0
  -22.4250   -4.2770   21.4400 F   0  0  0  0  0  0  0  0  0  0  0  0
  -21.1520   -3.8340   26.0220 F   0  0  0  0  0  0  0  0  0  0  0  0
  -22.7840  -13.5680   21.0880 C   0  0  0  0  0  0  0  0  0  0  0  0
  -22.0230  -12.8750   21.9280 N   0  0  0  0  0  0  0  0  0  0  0  0
  -22.3610  -14.5830   20.5360 O   0  0  0  0  0  0  0  0  0  0  0  0
  -22.3720  -12.0520   22.3970 H   0  0  0  0  0  0  0  0  0  0  0  0
  -21.0720  -13.1700   22.1040 H   0  0  0  0  0  0  0  0  0  0  0  0
  -25.4390  -15.2450   20.3580 N   0  0  0  0  0  0  0  0  0  0  0  0
  -24.6720  -15.9040   20.4350 H   0  0  0  0  0  0  0  0  0  0  0  0
  -26.2980  -15.6790   20.0490 H   0  0  0  0  0  0  0  0  0  0  0  0
  -28.5210  -22.8210   20.8950 C   0  0  0  0  0  3  0  0  0  0  0  0
  -29.5660  -22.8450   21.8540 O   0  0  0  0  0  0  0  0  0  0  0  0
  -29.3970  -23.5580   22.4630 H   0  0  0  0  0  0  0  0  0  0  0  0
  -28.5120  -24.1650   20.0980 C   0  0  0  0  0  2  0  0  0  0  0  0
  -28.1320  -25.4260   20.9240 C   0  0  0  0  0  2  0  0  0  0  0  0
  -28.3050  -26.6780   20.2170 O   0  0  0  0  0  0  0  0  0  0  0  0
  -24.5310  -31.9160   23.2250 C   0  0  0  0  0  0  0  0  0  0  0  0
  -27.1770  -27.4640   20.1720 C   0  0  0  0  0  0  0  0  0  0  0  0
  -23.3360  -30.5150   21.5770 C   0  0  0  0  0  3  0  0  0  0  0  0
  -24.7960  -28.9830   20.1550 C   0  0  0  0  0  0  0  0  0  0  0  0
  -25.8620  -30.8810   21.3850 C   0  0  0  0  0  2  0  0  0  0  0  0
  -25.9540  -29.5090   20.7440 C   0  0  0  0  0  0  0  0  0  0  0  0
  -27.1550  -28.7610   20.7420 C   0  0  0  0  0  3  0  0  0  0  0  0
  -26.0060  -26.9580   19.5710 C   0  0  0  0  0  3  0  0  0  0  0  0
  -24.8170  -27.7090   19.5630 C   0  0  0  0  0  3  0  0  0  0  0  0
  -23.5500  -29.8370   20.1980 C   0  0  0  0  0  2  0  0  0  0  0  0
  -24.5960  -31.1170   22.1220 N   0  0  0  0  0  0  0  0  0  0  0  0
  -23.4460  -32.1870   23.7590 O   0  0  0  0  0  0  0  0  0  0  0  0
  -22.6830  -29.4920   22.5360 C   0  0  0  0  0  0  0  0  0  0  0  0
  -21.3600  -29.3070   22.4000 N   0  0  0  0  0  0  0  0  0  0  0  0
  -23.3630  -28.8660   23.3540 O   0  0  0  0  0  0  0  0  0  0  0  0
  -20.8750  -29.8620   21.7090 H   0  0  0  0  0  0  0  0  0  0  0  0
  -17.9800  -28.1210   22.8830 C   0  0  0  0  0  0  0  0  0  0  0  0
  -20.5380  -28.3680   23.1630 C   0  0  0  0  0  3  0  0  0  0  0  0
  -20.6370  -26.9410   22.5770 C   0  0  0  0  0  2  0  0  0  0  0  0
  -19.5340  -26.6290   21.5600 C   0  0  0  0  0  2  0  0  0  0  0  0
  -18.1540  -26.7750   22.2030 C   0  0  0  0  0  2  0  0  0  0  0  0
  -19.1000  -28.8750   23.3200 C   0  0  0  0  0  0  0  0  0  0  0  0
  -18.8880  -30.1370   23.9180 C   0  0  0  0  0  3  0  0  0  0  0  0
  -17.5860  -30.6430   24.0870 C   0  0  0  0  0  3  0  0  0  0  0  0
  -16.4780  -29.8870   23.6650 C   0  0  0  0  0  3  0  0  0  0  0  0
  -16.6760  -28.6290   23.0680 C   0  0  0  0  0  3  0  0  0  0  0  0
  -25.8100  -32.5490   23.8530 C   0  0  0  0  0  3  0  0  0  0  0  0
  -25.5010  -33.9500   24.1690 N   0  0  0  0  0  0  0  0  0  0  0  0
  -25.8530  -34.9980   23.4130 C   0  0  0  0  0  0  0  0  0  0  0  0
  -26.5440  -34.8890   22.3970 O   0  0  0  0  0  0  0  0  0  0  0  0
  -24.8810  -34.1090   24.9490 H   0  0  0  0  0  0  0  0  0  0  0  0
  -24.1440  -36.8020   23.0140 C   0  0  0  0  0  1  0  0  0  0  0  0
  -25.3620  -36.3900   23.8570 C   0  0  0  0  0  3  0  0  0  0  0  0
  -27.4790  -37.2620   24.7440 C   0  0  0  0  0  1  0  0  0  0  0  0
  -26.4020  -37.4380   23.7730 N   0  0  0  0  0  0  0  0  0  0  0  0
  -25.9970  -38.3600   23.9130 H   0  0  0  0  0  0  0  0  0  0  0  0
  -26.3130  -31.7850   25.1400 C   0  0  1  0  0  0  0  0  0  0  0  0
  -25.2080  -31.5600   26.1980 C   0  0  0  0  0  1  0  0  0  0  0  0
  -26.8960  -30.4040   24.7600 C   0  0  0  0  0  1  0  0  0  0  0  0
  -27.4550  -32.5850   25.8110 C   0  0  0  0  0  1  0  0  0  0  0  0
  1  2  1  0
  2  3  1  0
  4 18  1  0
  5 10  1  0
  6  7  1  0
  6  5  1  0
  8  7  1  0
  8 23  1  0
  8  9  1  0
 10  4  1  0
 10  9  1  0
 11  4  2  0
 12 14  2  0
 12 13  1  0
 13 15  2  0
 14 16  1  0
 15 17  1  0
 15 18  1  0
 16  2  1  0
 16 17  2  0
 18 19  1  0
 20 21  2  0
 21 22  1  0
 21 40  1  0
 22 25  1  0
 23 20  1  0
 23 24  1  0
 24 22  2  0
 25 26  1  0
 26 27  2  0
 28 31  1  0
 28 27  1  0
 29 28  2  0
 30 29  1  0
 30 25  2  0
 31 32  1  0
 32 33  1  0
 33 34  2  0
 35 34  1  0
 35 39  1  0
 36 35  2  0
 37 32  2  0
 37 36  1  0
 38 37  1  0
 40 41  1  0
 41 44  1  0
 41 43  1  0
 42 40  2  0
 45 46  1  0
 45 20  1  0
 47 45  1  0
 48  1  1  0
 48 49  1  0
 49 50  1  0
 51 48  1  0
 51 52  1  0
 53 52  1  0
 54 65  2  0
 55 53  1  0
 55 60  1  0
 56 64  1  0
 56 66  1  0
 57 63  1  0
 57 59  1  0
 58 64  1  0
 59 58  1  0
 60 59  2  0
 61 55  2  0
 62 61  1  0
 62 57  2  0
 63 56  1  0
 64 54  1  0
 66 68  2  0
 67 66  1  0
 69 67  1  0
 70 79  2  0
 70 75  1  0
 71 67  1  0
 71 75  1  0
 72 71  1  0
 73 74  1  0
 73 72  1  0
 74 70  1  0
 75 76  2  0
 76 77  1  0
 78 77  2  0
 79 78  1  0
 80 54  1  0
 80 81  1  0
 80 90  1  0
 81 84  1  0
 82 86  1  0
 82 81  1  0
 83 82  2  0
 86 85  1  0
 88 86  1  0
 88 89  1  0
 88 87  1  0
 90 93  1  1
 90 91  1  0
 92 90  1  0
M  ISO  4   4 100  18 100  52 101  53 101
M  END
>  <TORSDO>  (85) 
F 21

>  <SCORE>  (85) 
-13.704

>  <name>  (85) 
84

>  <ligand_id>  (85) 
84

>  <original_smiles>  (85) 
[H]OC([H])(C([H])([H])N([H])c1nc(N([H])C(=O)N2C([H])([H])C([H])([H])C([H])([H])C([H])(n3nc(-c4c([H])c([H])c(Oc5c([H])c([H])c(F)c([H])c5F)c([H])c4[H])c(C(=O)N([H])[H])c3N([H])[H])C2([H])[H])c([H])c([H])c1[H])C([H])([H])C([H])([H])Oc1c([H])c([H])c2c(c1[H])C([H])([H])N(C(=O)C([H])(N([H])C(=O)C([H])(N([H])C([H])([H])[H])C([H])([H])[H])C(C([H])([H])[H])(C([H])([H])[H])C([H])([H])[H])C([H])(C(=O)N([H])C1([H])c3c([H])c([H])c([H])c([H])c3C([H])([H])C([H])([H])C1([H])[H])C2([H])[H]

>  <smiles>  (85) 
[H]OC([H])(C([H])([H])N([H])c1nc(N([H])C(=O)N2C([H])([H])C([H])([H])C([H])([H])C([H])(n3nc(-c4c([H])c([H])c(Oc5c([H])c([H])c(F)c([H])c5F)c([H])c4[H])c(C(=O)N([H])[H])c3N([H])[H])C2([H])[H])c([H])c([H])c1[H])C([H])([H])C([H])([H])Oc1c([H])c([H])c2c(c1[H])C([H])([H])N(C(=O)C([H])(N([H])C(=O)C([H])(N([H])C([H])([H])[H])C([H])([H])[H])C(C([H])([H])[H])(C([H])([H])[H])C([H])([H])[H])C([H])(C(=O)N([H])C1([H])c3c([H])c([H])c([H])c([H])c3C([H])([H])C([H])([H])C1([H])[H])C2([H])[H]

$$$$
85:0:0
     RDKit          3D

 94102  0  0  1  0  0  0  0  0999 V2000
  -29.5650  -18.5320   20.0980 C   0  0  0  0  0  0  0  0  0  0  0  0
  -27.4930  -19.1330   19.5960 C   0  0  0  0  0  0  0  0  0  0  0  0
  -28.9570  -20.7720   19.9360 C   0  0  0  0  0  0  0  0  0  0  0  0
  -28.3330  -18.1340   19.8080 N   0  0  0  0  0  4  0  0  0  0  0  0
  -29.9340  -19.8530   20.1930 N   0  0  0  0  0  0  0  0  0  0  0  0
  -27.7090  -20.4460   19.6260 N   0  0  0  0  0  2  0  0  0  0  0  0
  -26.2320  -18.7310   19.2710 N   0  0  0  0  0  0  0  0  0  0  0  0
  -29.2450  -22.1840   20.0920 N   0  0  0  0  0  0  0  0  0  0  0  0
  -25.4860  -19.4080   19.3680 H   0  0  0  0  0  0  0  0  0  0  0  0
  -25.9780  -17.7800   19.5070 H   0  0  0  0  0  0  0  0  0  0  0  0
  -30.1980  -22.3090   20.4050 H   0  0  0  0  0  0  0  0  0  0  0  0
  -29.6310  -23.8280   18.2390 C   0  0  0  0  0  1  0  0  0  0  0  0
  -28.7000  -23.4560   19.4160 C   0  0  0  0  0  3  0  0  0  0  0  0
  -28.3450  -24.7910   20.3280 C   0  0  0  0  0  2  0  0  0  0  0  0
  -28.4630  -26.2640   19.9600 O   0  0  0  0  0  0  0  0  0  0  0  0
  -24.5760  -31.6310   23.1080 C   0  0  0  0  0  0  0  0  0  0  0  0
  -27.3480  -27.1390   19.9950 C   0  0  0  0  0  0  0  0  0  0  0  0
  -23.4580  -30.2570   21.3920 C   0  0  0  0  0  3  0  0  0  0  0  0
  -24.9780  -28.7660   19.9690 C   0  0  0  0  0  0  0  0  0  0  0  0
  -26.0040  -30.6020   21.3110 C   0  0  0  0  0  2  0  0  0  0  0  0
  -26.1260  -29.2390   20.6200 C   0  0  0  0  0  0  0  0  0  0  0  0
  -27.3190  -28.4380   20.6160 C   0  0  0  0  0  3  0  0  0  0  0  0
  -26.1760  -26.7350   19.3300 C   0  0  0  0  0  3  0  0  0  0  0  0
  -25.0080  -27.5230   19.3160 C   0  0  0  0  0  3  0  0  0  0  0  0
  -23.7330  -29.6330   19.9990 C   0  0  0  0  0  2  0  0  0  0  0  0
  -24.6970  -30.8480   21.9930 N   0  0  0  0  0  0  0  0  0  0  0  0
  -23.4690  -31.8720   23.6120 O   0  0  0  0  0  0  0  0  0  0  0  0
  -22.7790  -29.2020   22.2990 C   0  0  0  0  0  0  0  0  0  0  0  0
  -21.4500  -29.0420   22.1600 N   0  0  0  0  0  0  0  0  0  0  0  0
  -23.4460  -28.5340   23.0930 O   0  0  0  0  0  0  0  0  0  0  0  0
  -20.9640  -29.6310   21.4980 H   0  0  0  0  0  0  0  0  0  0  0  0
  -18.0570  -27.8810   22.6450 C   0  0  0  0  0  0  0  0  0  0  0  0
  -20.6240  -28.0700   22.8820 C   0  0  0  0  0  3  0  0  0  0  0  0
  -20.6870  -26.6800   22.2110 C   0  0  0  0  0  2  0  0  0  0  0  0
  -19.5620  -26.4490   21.1990 C   0  0  0  0  0  2  0  0  0  0  0  0
  -18.1960  -26.5770   21.8760 C   0  0  0  0  0  2  0  0  0  0  0  0
  -19.2010  -28.5880   23.1030 C   0  0  0  0  0  0  0  0  0  0  0  0
  -19.0220  -29.8120   23.7870 C   0  0  0  0  0  3  0  0  0  0  0  0
  -17.7300  -30.3270   24.0130 C   0  0  0  0  0  3  0  0  0  0  0  0
  -16.6030  -29.6160   23.5660 C   0  0  0  0  0  3  0  0  0  0  0  0
  -16.7650  -28.3910   22.8940 C   0  0  0  0  0  3  0  0  0  0  0  0
  -25.8220  -32.2740   23.7870 C   0  0  0  0  0  3  0  0  0  0  0  0
  -26.2940  -31.4960   25.0760 C   0  0  1  0  0  0  0  0  0  0  0  0
  -25.1600  -31.2360   26.0960 C   0  0  0  0  0  1  0  0  0  0  0  0
  -26.9070  -30.1250   24.6990 C   0  0  0  0  0  1  0  0  0  0  0  0
  -27.4070  -32.2960   25.7940 C   0  0  0  0  0  1  0  0  0  0  0  0
  -25.4770  -33.6620   24.1230 N   0  0  0  0  0  0  0  0  0  0  0  0
  -25.8350  -34.7340   23.4020 C   0  0  0  0  0  0  0  0  0  0  0  0
  -26.5580  -34.6580   22.4050 O   0  0  0  0  0  0  0  0  0  0  0  0
  -24.8410  -33.7960   24.8950 H   0  0  0  0  0  0  0  0  0  0  0  0
  -24.0980  -36.5140   23.0040 C   0  0  0  0  0  1  0  0  0  0  0  0
  -25.3080  -36.1100   23.8600 C   0  0  0  0  0  3  0  0  0  0  0  0
  -27.3880  -37.0160   24.8030 C   0  0  0  0  0  1  0  0  0  0  0  0
  -26.3300  -37.1800   23.8070 N   0  0  0  0  0  0  0  0  0  0  0  0
  -25.9030  -38.0920   23.9470 H   0  0  0  0  0  0  0  0  0  0  0  0
  -30.6050  -17.3450   20.3510 C   0  0  0  0  0  2  0  0  0  0  0  0
  -30.8510  -14.7180   20.3580 C   0  0  0  0  0  0  0  0  0  0  0  0
  -30.5930  -12.4280   19.3800 C   0  0  0  0  0  2  0  0  0  0  0  0
  -29.6780  -12.5040   18.1390 C   0  0  0  0  0  2  0  0  0  0  0  0
  -28.2090  -12.3270   18.5580 C   0  0  0  0  0  2  0  0  0  0  0  0
  -27.8270  -13.2540   19.7410 C   0  0  0  0  0  3  0  0  0  0  0  0
  -28.8670  -13.2020   20.8810 C   0  0  0  0  0  2  0  0  0  0  0  0
  -30.1800  -13.5120   20.3030 N   0  0  0  0  0  0  0  0  0  0  0  0
  -32.0420  -14.7640   20.0440 O   0  0  0  0  0  0  0  0  0  0  0  0
  -30.1390  -15.8970   20.5530 N   0  0  0  0  0  0  0  0  0  0  0  0
  -29.1620  -15.8250   20.7900 H   0  0  0  0  0  0  0  0  0  0  0  0
  -25.4490  -13.8890   20.4420 C   0  0  0  0  0  0  0  0  0  0  0  0
  -24.3660  -13.1370   20.8000 C   0  0  0  0  0  0  0  0  0  0  0  0
  -24.8080  -11.7790   20.7990 C   0  0  0  0  0  0  0  0  0  0  0  0
  -26.4790  -12.9920   20.2260 N   0  0  0  0  0  0  0  0  0  0  0  0
  -26.1020  -11.7170   20.5080 N   0  0  0  0  0  0  0  0  0  0  0  0
  -24.0580  -10.5280   20.9920 C   0  0  0  0  0  0  0  0  0  0  0  0
  -24.4620   -9.5640   21.9420 C   0  0  0  0  0  3  0  0  0  0  0  0
  -23.7140   -8.3810   22.1210 C   0  0  0  0  0  3  0  0  0  0  0  0
  -22.5480   -8.1510   21.3550 C   0  0  0  0  0  0  0  0  0  0  0  0
  -22.1650   -9.1020   20.3940 C   0  0  0  0  0  3  0  0  0  0  0  0
  -22.9130  -10.2780   20.2110 C   0  0  0  0  0  3  0  0  0  0  0  0
  -21.7750   -7.0190   21.4460 O   0  0  0  0  0  0  0  0  0  0  0  0
  -21.6950   -6.2940   22.6090 C   0  0  0  0  0  0  0  0  0  0  0  0
  -21.2440   -6.8710   23.8160 C   0  0  0  0  0  3  0  0  0  0  0  0
  -21.1090   -6.0730   24.9690 C   0  0  0  0  0  3  0  0  0  0  0  0
  -21.4130   -4.7010   24.9160 C   0  0  0  0  0  0  0  0  0  0  0  0
  -21.8630   -4.1240   23.7150 C   0  0  0  0  0  3  0  0  0  0  0  0
  -22.0000   -4.9190   22.5640 C   0  0  0  0  0  0  0  0  0  0  0  0
  -22.4090   -4.3560   21.4010 F   0  0  0  0  0  0  0  0  0  0  0  0
  -21.2740   -3.9290   26.0210 F   0  0  0  0  0  0  0  0  0  0  0  0
  -22.9730  -13.6380   21.0440 C   0  0  0  0  0  0  0  0  0  0  0  0
  -22.2260  -12.9760   21.9210 N   0  0  0  0  0  0  0  0  0  0  0  0
  -22.5550  -14.6530   20.4880 O   0  0  0  0  0  0  0  0  0  0  0  0
  -22.5770  -12.1520   22.3880 H   0  0  0  0  0  0  0  0  0  0  0  0
  -21.2940  -13.3030   22.1300 H   0  0  0  0  0  0  0  0  0  0  0  0
  -25.6480  -15.2520   20.2520 N   0  0  0  0  0  0  0  0  0  0  0  0
  -24.8980  -15.9310   20.2980 H   0  0  0  0  0  0  0  0  0  0  0  0
  -26.5280  -15.6580   19.9570 H   0  0  0  0  0  0  0  0  0  0  0  0
  1  5  1  0
  1 56  1  0
  2  6  1  0
  2  4  2  0
  3  8  1  0
  3  5  2  0
  4  1  2  0
  6  3  1  0
  7  9  1  0
  7 10  1  0
  7  2  1  0
  8 11  1  0
 13 12  1  0
 13  8  1  0
 13 14  1  0
 15 17  1  0
 15 14  1  0
 16 27  2  0
 17 22  1  0
 18 26  1  0
 18 28  1  0
 19 25  1  0
 19 21  1  0
 20 26  1  0
 21 20  1  0
 22 21  2  0
 23 17  2  0
 24 23  1  0
 24 19  2  0
 25 18  1  0
 26 16  1  0
 28 30  2  0
 29 28  1  0
 31 29  1  0
 32 41  2  0
 32 37  1  0
 33 29  1  0
 33 37  1  0
 34 33  1  0
 35 36  1  0
 35 34  1  0
 36 32  1  0
 37 38  2  0
 38 39  1  0
 40 39  2  0
 41 40  1  0
 42 16  1  0
 42 47  1  0
 42 43  1  0
 43 46  1  1
 43 44  1  0
 45 43  1  0
 47 50  1  0
 48 52  1  0
 48 47  1  0
 49 48  2  0
 52 51  1  0
 54 52  1  0
 54 55  1  0
 54 53  1  0
 56 65  1  0
 57 65  1  0
 58 63  1  0
 59 60  1  0
 59 58  1  0
 61 60  1  0
 61 70  1  0
 61 62  1  0
 63 57  1  0
 63 62  1  0
 64 57  2  0
 65 66  1  0
 67 68  2  0
 68 87  1  0
 69 68  1  0
 69 72  1  0
 70 67  1  0
 70 71  1  0
 71 69  2  0
 72 73  1  0
 73 74  2  0
 75 78  1  0
 75 74  1  0
 76 75  2  0
 77 76  1  0
 77 72  2  0
 78 79  1  0
 79 80  1  0
 80 81  2  0
 82 81  1  0
 82 86  1  0
 83 82  2  0
 84 79  2  0
 84 83  1  0
 85 84  1  0
 87 88  1  0
 88 91  1  0
 88 90  1  0
 89 87  2  0
 92 93  1  0
 92 67  1  0
 94 92  1  0
M  ISO  4  14 101  15 101  57 100  65 100
M  END
>  <TORSDO>  (86) 
F 19

>  <SCORE>  (86) 
-13.900

>  <name>  (86) 
85

>  <ligand_id>  (86) 
85

>  <original_smiles>  (86) 
[H]c1c([H])c([H])c2c(c1[H])C([H])([H])C([H])([H])C([H])([H])C2([H])N([H])C(=O)C1([H])N(C(=O)C([H])(N([H])C(=O)C([H])(N([H])C([H])([H])[H])C([H])([H])[H])C(C([H])([H])[H])(C([H])([H])[H])C([H])([H])[H])C([H])([H])c2c([H])c(OC([H])([H])C([H])(N([H])c3nc(N([H])[H])nc(C([H])([H])N([H])C(=O)N4C([H])([H])C([H])([H])C([H])([H])C([H])(n5nc(-c6c([H])c([H])c(Oc7c([H])c([H])c(F)c([H])c7F)c([H])c6[H])c(C(=O)N([H])[H])c5N([H])[H])C4([H])[H])n3)C([H])([H])[H])c([H])c([H])c2C1([H])[H]

>  <smiles>  (86) 
[H]c1c([H])c([H])c2c(c1[H])C([H])([H])C([H])([H])C([H])([H])C2([H])N([H])C(=O)C1([H])N(C(=O)C([H])(N([H])C(=O)C([H])(N([H])C([H])([H])[H])C([H])([H])[H])C(C([H])([H])[H])(C([H])([H])[H])C([H])([H])[H])C([H])([H])c2c([H])c(OC([H])([H])C([H])(N([H])c3nc(N([H])[H])nc(C([H])([H])N([H])C(=O)N4C([H])([H])C([H])([H])C([H])([H])C([H])(n5nc(-c6c([H])c([H])c(Oc7c([H])c([H])c(F)c([H])c7F)c([H])c6[H])c(C(=O)N([H])[H])c5N([H])[H])C4([H])[H])n3)C([H])([H])[H])c([H])c([H])c2C1([H])[H]

$$$$
86:0:0
     RDKit          3D

 89 97  0  0  1  0  0  0  0  0999 V2000
  -29.0100  -22.5650   20.6950 C   0  0  0  0  0  0  0  0  0  0  0  0
  -29.7060  -22.6590   21.7100 O   0  0  0  0  0  0  0  0  0  0  0  0
  -28.5370  -23.8730   19.9390 C   0  0  0  0  0  2  0  0  0  0  0  0
  -28.2380  -25.1860   20.7970 C   0  0  0  0  0  2  0  0  0  0  0  0
  -28.3480  -26.5280   20.1840 O   0  0  0  0  0  0  0  0  0  0  0  0
  -24.5930  -31.8870   23.2290 C   0  0  0  0  0  0  0  0  0  0  0  0
  -27.2170  -27.3480   20.1860 C   0  0  0  0  0  0  0  0  0  0  0  0
  -23.3880  -30.4770   21.5950 C   0  0  0  0  0  3  0  0  0  0  0  0
  -24.8410  -28.9230   20.1730 C   0  0  0  0  0  0  0  0  0  0  0  0
  -25.9220  -30.8130   21.3990 C   0  0  0  0  0  2  0  0  0  0  0  0
  -26.0070  -29.4330   20.7610 C   0  0  0  0  0  0  0  0  0  0  0  0
  -27.2020  -28.6580   20.7520 C   0  0  0  0  0  3  0  0  0  0  0  0
  -26.0320  -26.8790   19.5830 C   0  0  0  0  0  3  0  0  0  0  0  0
  -24.8550  -27.6520   19.5750 C   0  0  0  0  0  3  0  0  0  0  0  0
  -23.5990  -29.7900   20.2190 C   0  0  0  0  0  2  0  0  0  0  0  0
  -24.6530  -31.0770   22.1310 N   0  0  0  0  0  0  0  0  0  0  0  0
  -23.5100  -32.1610   23.7670 O   0  0  0  0  0  0  0  0  0  0  0  0
  -22.7320  -29.4640   22.5620 C   0  0  0  0  0  0  0  0  0  0  0  0
  -21.4070  -29.2820   22.4360 N   0  0  0  0  0  0  0  0  0  0  0  0
  -23.4140  -28.8410   23.3800 O   0  0  0  0  0  0  0  0  0  0  0  0
  -20.9150  -29.8350   21.7480 H   0  0  0  0  0  0  0  0  0  0  0  0
  -18.0340  -28.0790   22.9420 C   0  0  0  0  0  0  0  0  0  0  0  0
  -20.5910  -28.3440   23.2100 C   0  0  0  0  0  3  0  0  0  0  0  0
  -20.6950  -26.9110   22.6380 C   0  0  0  0  0  2  0  0  0  0  0  0
  -19.5930  -26.5840   21.6250 C   0  0  0  0  0  2  0  0  0  0  0  0
  -18.2120  -26.7290   22.2700 C   0  0  0  0  0  2  0  0  0  0  0  0
  -19.1500  -28.8460   23.3690 C   0  0  0  0  0  0  0  0  0  0  0  0
  -18.9300  -30.1100   23.9560 C   0  0  0  0  0  3  0  0  0  0  0  0
  -17.6250  -30.6090   24.1230 C   0  0  0  0  0  3  0  0  0  0  0  0
  -16.5220  -29.8400   23.7130 C   0  0  0  0  0  3  0  0  0  0  0  0
  -16.7270  -28.5780   23.1280 C   0  0  0  0  0  3  0  0  0  0  0  0
  -25.8760  -32.5230   23.8470 C   0  0  0  0  0  3  0  0  0  0  0  0
  -26.3960  -31.7560   25.1240 C   0  0  1  0  0  0  0  0  0  0  0  0
  -25.3060  -31.5180   26.1950 C   0  0  0  0  0  1  0  0  0  0  0  0
  -26.9810  -30.3790   24.7340 C   0  0  0  0  0  1  0  0  0  0  0  0
  -27.5480  -32.5520   25.7820 C   0  0  0  0  0  1  0  0  0  0  0  0
  -25.5650  -33.9220   24.1750 N   0  0  0  0  0  0  0  0  0  0  0  0
  -25.9000  -34.9740   23.4170 C   0  0  0  0  0  0  0  0  0  0  0  0
  -26.5740  -34.8700   22.3870 O   0  0  0  0  0  0  0  0  0  0  0  0
  -24.9730  -34.0780   24.9780 H   0  0  0  0  0  0  0  0  0  0  0  0
  -24.1810  -36.7710   23.0440 C   0  0  0  0  0  1  0  0  0  0  0  0
  -25.4110  -36.3640   23.8710 C   0  0  0  0  0  3  0  0  0  0  0  0
  -27.5370  -37.2420   24.7300 C   0  0  0  0  0  1  0  0  0  0  0  0
  -26.4480  -37.4140   23.7730 N   0  0  0  0  0  0  0  0  0  0  0  0
  -26.0420  -38.3350   23.9160 H   0  0  0  0  0  0  0  0  0  0  0  0
  -28.6590  -21.1200   20.1560 C   0  0  0  0  0  2  0  0  0  0  0  0
  -29.9580  -16.0720   20.5830 C   0  0  0  0  0  0  0  0  0  0  0  0
  -29.4930  -18.5500   20.5960 C   0  0  0  0  0  0  0  0  0  0  0  0
  -28.6630  -16.4030   20.3710 N   0  0  0  0  0  0  0  0  0  0  0  0
  -28.4030  -17.7990   20.3670 N   0  0  0  0  0  0  0  0  0  0  0  0
  -29.5250  -19.9800   20.6080 N   0  0  0  0  0  0  0  0  0  0  0  0
  -30.9460  -17.5480   20.8580 S   0  0  0  0  0  0  0  0  0  0  0  0
  -30.4290  -20.3310   20.9120 H   0  0  0  0  0  0  0  0  0  0  0  0
  -30.6800  -14.7020   20.3950 C   0  0  0  0  0  0  0  0  0  0  0  0
  -30.4300  -12.4410   19.3990 C   0  0  0  0  0  2  0  0  0  0  0  0
  -29.4990  -12.5340   18.1700 C   0  0  0  0  0  2  0  0  0  0  0  0
  -28.0310  -12.3530   18.5980 C   0  0  0  0  0  2  0  0  0  0  0  0
  -27.6510  -13.2460   19.8070 C   0  0  0  0  0  3  0  0  0  0  0  0
  -28.7070  -13.1830   20.9310 C   0  0  0  0  0  2  0  0  0  0  0  0
  -30.0130  -13.5000   20.3440 N   0  0  0  0  0  0  0  0  0  0  0  0
  -31.8740  -14.7490   20.0850 O   0  0  0  0  0  0  0  0  0  0  0  0
  -25.2690  -13.8330   20.5580 C   0  0  0  0  0  0  0  0  0  0  0  0
  -24.2060  -13.0530   20.9260 C   0  0  0  0  0  0  0  0  0  0  0  0
  -24.6750  -11.7040   20.8870 C   0  0  0  0  0  0  0  0  0  0  0  0
  -26.3120  -12.9560   20.3080 N   0  0  0  0  0  0  0  0  0  0  0  0
  -25.9630  -11.6710   20.5720 N   0  0  0  0  0  0  0  0  0  0  0  0
  -23.9540  -10.4380   21.0750 C   0  0  0  0  0  0  0  0  0  0  0  0
  -24.3960   -9.4660   21.9990 C   0  0  0  0  0  3  0  0  0  0  0  0
  -23.6740   -8.2650   22.1730 C   0  0  0  0  0  3  0  0  0  0  0  0
  -22.4980   -8.0280   21.4220 C   0  0  0  0  0  0  0  0  0  0  0  0
  -22.0780   -8.9890   20.4850 C   0  0  0  0  0  3  0  0  0  0  0  0
  -22.8000  -10.1810   20.3090 C   0  0  0  0  0  3  0  0  0  0  0  0
  -21.7490   -6.8800   21.5060 O   0  0  0  0  0  0  0  0  0  0  0  0
  -21.7070   -6.1290   22.6540 C   0  0  0  0  0  0  0  0  0  0  0  0
  -21.2770   -6.6730   23.8850 C   0  0  0  0  0  3  0  0  0  0  0  0
  -21.1840   -5.8480   25.0240 C   0  0  0  0  0  3  0  0  0  0  0  0
  -21.5110   -4.4810   24.9330 C   0  0  0  0  0  0  0  0  0  0  0  0
  -21.9340   -3.9370   23.7080 C   0  0  0  0  0  3  0  0  0  0  0  0
  -22.0290   -4.7590   22.5700 C   0  0  0  0  0  0  0  0  0  0  0  0
  -22.4170   -4.2250   21.3870 F   0  0  0  0  0  0  0  0  0  0  0  0
  -21.4140   -3.6880   26.0250 F   0  0  0  0  0  0  0  0  0  0  0  0
  -22.8090  -13.5230   21.2060 C   0  0  0  0  0  0  0  0  0  0  0  0
  -22.0860  -12.8170   22.0660 N   0  0  0  0  0  0  0  0  0  0  0  0
  -22.3660  -14.5520   20.6950 O   0  0  0  0  0  0  0  0  0  0  0  0
  -22.4580  -11.9850   22.5010 H   0  0  0  0  0  0  0  0  0  0  0  0
  -21.1470  -13.1110   22.2950 H   0  0  0  0  0  0  0  0  0  0  0  0
  -25.4350  -15.2060   20.3960 N   0  0  0  0  0  0  0  0  0  0  0  0
  -24.6850  -15.8690   20.5510 H   0  0  0  0  0  0  0  0  0  0  0  0
  -26.3200  -15.6510   20.1730 H   0  0  0  0  0  0  0  0  0  0  0  0
  1  2  2  0
  3  1  1  0
  3  4  1  0
  5  7  1  0
  5  4  1  0
  6 17  2  0
  7 12  1  0
  8 16  1  0
  8 18  1  0
  9 15  1  0
  9 11  1  0
 10 16  1  0
 11 10  1  0
 12 11  2  0
 13  7  2  0
 14 13  1  0
 14  9  2  0
 15  8  1  0
 16  6  1  0
 18 20  2  0
 19 18  1  0
 21 19  1  0
 22 31  2  0
 22 27  1  0
 23 19  1  0
 23 27  1  0
 24 23  1  0
 25 26  1  0
 25 24  1  0
 26 22  1  0
 27 28  2  0
 28 29  1  0
 30 29  2  0
 31 30  1  0
 32  6  1  0
 32 37  1  0
 32 33  1  0
 33 36  1  1
 33 34  1  0
 35 33  1  0
 37 40  1  0
 38 42  1  0
 38 37  1  0
 39 38  2  0
 42 41  1  0
 44 42  1  0
 44 45  1  0
 44 43  1  0
 46 51  1  0
 46  1  1  0
 47 52  1  0
 48 51  1  0
 48 52  1  0
 49 47  2  0
 50 49  1  0
 50 48  2  0
 51 53  1  0
 54 47  1  0
 55 60  1  0
 56 57  1  0
 56 55  1  0
 58 57  1  0
 58 65  1  0
 58 59  1  0
 60 54  1  0
 60 59  1  0
 61 54  2  0
 62 63  2  0
 63 82  1  0
 64 63  1  0
 64 67  1  0
 65 62  1  0
 65 66  1  0
 66 64  2  0
 67 68  1  0
 68 69  2  0
 70 73  1  0
 70 69  1  0
 71 70  2  0
 72 71  1  0
 72 67  2  0
 73 74  1  0
 74 75  1  0
 75 76  2  0
 77 76  1  0
 77 81  1  0
 78 77  2  0
 79 74  2  0
 79 78  1  0
 80 79  1  0
 82 83  1  0
 83 86  1  0
 83 85  1  0
 84 82  2  0
 87 88  1  0
 87 62  1  0
 89 87  1  0
M  ISO  4   4 101   5 101  47 100  54 100
M  END
>  <TORSDO>  (87) 
F 20

>  <SCORE>  (87) 
-13.951

>  <name>  (87) 
86

>  <ligand_id>  (87) 
86

>  <original_smiles>  (87) 
[H]c1c([H])c([H])c2c(c1[H])C([H])([H])C([H])([H])C([H])([H])C2([H])N([H])C(=O)C1([H])N(C(=O)C([H])(N([H])C(=O)C([H])(N([H])C([H])([H])[H])C([H])([H])[H])C(C([H])([H])[H])(C([H])([H])[H])C([H])([H])[H])C([H])([H])c2c([H])c(OC([H])([H])C([H])([H])C(=O)C([H])([H])N([H])c3nnc(C(=O)N4C([H])([H])C([H])([H])C([H])([H])C([H])(n5nc(-c6c([H])c([H])c(Oc7c([H])c([H])c(F)c([H])c7F)c([H])c6[H])c(C(=O)N([H])[H])c5N([H])[H])C4([H])[H])s3)c([H])c([H])c2C1([H])[H]

>  <smiles>  (87) 
[H]c1c([H])c([H])c2c(c1[H])C([H])([H])C([H])([H])C([H])([H])C2([H])N([H])C(=O)C1([H])N(C(=O)C([H])(N([H])C(=O)C([H])(N([H])C([H])([H])[H])C([H])([H])[H])C(C([H])([H])[H])(C([H])([H])[H])C([H])([H])[H])C([H])([H])c2c([H])c(OC([H])([H])C([H])([H])C(=O)C([H])([H])N([H])c3nnc(C(=O)N4C([H])([H])C([H])([H])C([H])([H])C([H])(n5nc(-c6c([H])c([H])c(Oc7c([H])c([H])c(F)c([H])c7F)c([H])c6[H])c(C(=O)N([H])[H])c5N([H])[H])C4([H])[H])s3)c([H])c([H])c2C1([H])[H]

$$$$
87:0:0
     RDKit          3D

 99107  0  0  1  0  0  0  0  0999 V2000
  -29.5690  -17.8300   19.0120 C   0  0  0  0  0  0  0  0  0  0  0  0
  -29.9840  -18.0630   20.3530 C   0  0  0  0  0  0  0  0  0  0  0  0
  -29.1410  -18.9660   18.3020 C   0  0  0  0  0  0  0  0  0  0  0  0
  -29.5710  -20.3250   20.0640 C   0  0  0  0  0  0  0  0  0  0  0  0
  -29.9800  -19.3310   20.8530 N   0  0  0  0  0  0  0  0  0  0  0  0
  -29.1420  -20.1960   18.8170 N   0  0  0  0  0  0  0  0  0  0  0  0
  -28.7110  -18.8540   16.9880 N   0  0  0  0  0  0  0  0  0  0  0  0
  -29.6250  -21.6180   20.5660 N   0  0  0  0  0  0  0  0  0  0  0  0
  -28.9750  -18.0110   16.5030 H   0  0  0  0  0  0  0  0  0  0  0  0
  -28.7480  -19.6880   16.4180 H   0  0  0  0  0  0  0  0  0  0  0  0
  -29.8660  -21.7150   21.5460 H   0  0  0  0  0  0  0  0  0  0  0  0
  -29.6080  -16.5910   18.3590 N   0  0  0  0  0  0  0  0  0  0  0  0
  -30.3420  -15.9500   18.6410 H   0  0  0  0  0  0  0  0  0  0  0  0
  -29.4780  -16.5960   17.3550 H   0  0  0  0  0  0  0  0  0  0  0  0
  -30.5070  -16.9670   21.3140 C   0  0  0  0  0  2  0  0  0  0  0  0
  -30.7030  -14.5530   20.6210 C   0  0  0  0  0  0  0  0  0  0  0  0
  -30.4330  -12.3940   19.4490 C   0  0  0  0  0  2  0  0  0  0  0  0
  -29.5050  -12.5840   18.2320 C   0  0  0  0  0  2  0  0  0  0  0  0
  -28.0290  -12.4240   18.6420 C   0  0  0  0  0  2  0  0  0  0  0  0
  -27.6630  -13.2550   19.9010 C   0  0  0  0  0  3  0  0  0  0  0  0
  -28.7060  -13.0550   21.0240 C   0  0  0  0  0  2  0  0  0  0  0  0
  -30.0320  -13.3760   20.4710 N   0  0  0  0  0  0  0  0  0  0  0  0
  -31.8350  -14.7290   20.1650 O   0  0  0  0  0  0  0  0  0  0  0  0
  -30.0150  -15.5770   21.1590 N   0  0  0  0  0  0  0  0  0  0  0  0
  -29.0620  -15.4040   21.4340 H   0  0  0  0  0  0  0  0  0  0  0  0
  -25.2500  -13.8290   20.5780 C   0  0  0  0  0  0  0  0  0  0  0  0
  -24.1840  -13.0430   20.9300 C   0  0  0  0  0  0  0  0  0  0  0  0
  -24.6610  -11.6970   20.9010 C   0  0  0  0  0  0  0  0  0  0  0  0
  -26.3070  -12.9610   20.3600 N   0  0  0  0  0  0  0  0  0  0  0  0
  -25.9560  -11.6720   20.6120 N   0  0  0  0  0  0  0  0  0  0  0  0
  -23.9450  -10.4270   21.0760 C   0  0  0  0  0  0  0  0  0  0  0  0
  -24.3610   -9.4690   22.0280 C   0  0  0  0  0  3  0  0  0  0  0  0
  -23.6460   -8.2630   22.1900 C   0  0  0  0  0  3  0  0  0  0  0  0
  -22.5010   -8.0050   21.4000 C   0  0  0  0  0  0  0  0  0  0  0  0
  -22.1040   -8.9500   20.4390 C   0  0  0  0  0  3  0  0  0  0  0  0
  -22.8200  -10.1490   20.2740 C   0  0  0  0  0  3  0  0  0  0  0  0
  -21.7600   -6.8500   21.4700 O   0  0  0  0  0  0  0  0  0  0  0  0
  -21.6680   -6.1220   22.6290 C   0  0  0  0  0  0  0  0  0  0  0  0
  -21.1490   -6.6800   23.8190 C   0  0  0  0  0  3  0  0  0  0  0  0
  -21.0070   -5.8770   24.9690 C   0  0  0  0  0  3  0  0  0  0  0  0
  -21.3760   -4.5180   24.9300 C   0  0  0  0  0  0  0  0  0  0  0  0
  -21.8870   -3.9610   23.7450 C   0  0  0  0  0  3  0  0  0  0  0  0
  -22.0300   -4.7610   22.5980 C   0  0  0  0  0  0  0  0  0  0  0  0
  -22.5040   -4.2140   21.4530 F   0  0  0  0  0  0  0  0  0  0  0  0
  -21.2320   -3.7460   26.0320 F   0  0  0  0  0  0  0  0  0  0  0  0
  -22.7780  -13.5040   21.1840 C   0  0  0  0  0  0  0  0  0  0  0  0
  -22.0410  -12.7910   22.0290 N   0  0  0  0  0  0  0  0  0  0  0  0
  -22.3380  -14.5320   20.6680 O   0  0  0  0  0  0  0  0  0  0  0  0
  -22.4090  -11.9600   22.4680 H   0  0  0  0  0  0  0  0  0  0  0  0
  -21.0970  -13.0810   22.2410 H   0  0  0  0  0  0  0  0  0  0  0  0
  -25.4020  -15.2020   20.4060 N   0  0  0  0  0  0  0  0  0  0  0  0
  -24.6240  -15.8480   20.4890 H   0  0  0  0  0  0  0  0  0  0  0  0
  -26.2430  -15.6380   20.0490 H   0  0  0  0  0  0  0  0  0  0  0  0
  -28.8650  -22.7360   19.9740 C   0  0  0  0  0  2  0  0  0  0  0  0
  -29.1680  -24.1540   20.5580 C   0  0  0  0  0  3  0  0  0  0  0  0
  -29.0470  -24.0400   21.9670 O   0  0  0  0  0  0  0  0  0  0  0  0
  -29.1590  -24.9150   22.3260 H   0  0  0  0  0  0  0  0  0  0  0  0
  -28.1160  -25.1900   20.0470 C   0  0  0  0  0  2  0  0  0  0  0  0
  -28.3320  -26.6090   20.2940 O   0  0  0  0  0  0  0  0  0  0  0  0
  -24.5710  -31.9420   23.2520 C   0  0  0  0  0  0  0  0  0  0  0  0
  -27.1970  -27.4170   20.2210 C   0  0  0  0  0  0  0  0  0  0  0  0
  -23.3710  -30.5370   21.6140 C   0  0  0  0  0  3  0  0  0  0  0  0
  -24.8230  -28.9880   20.2030 C   0  0  0  0  0  0  0  0  0  0  0  0
  -25.9070  -30.8640   21.4370 C   0  0  0  0  0  2  0  0  0  0  0  0
  -25.9870  -29.4880   20.8020 C   0  0  0  0  0  0  0  0  0  0  0  0
  -27.1760  -28.7100   20.8100 C   0  0  0  0  0  3  0  0  0  0  0  0
  -26.0120  -26.9670   19.5870 C   0  0  0  0  0  3  0  0  0  0  0  0
  -24.8340  -27.7290   19.5910 C   0  0  0  0  0  3  0  0  0  0  0  0
  -23.5860  -29.8560   20.2380 C   0  0  0  0  0  2  0  0  0  0  0  0
  -24.6350  -31.1300   22.1580 N   0  0  0  0  0  0  0  0  0  0  0  0
  -23.4880  -32.2240   23.7810 O   0  0  0  0  0  0  0  0  0  0  0  0
  -22.7070  -29.5220   22.5750 C   0  0  0  0  0  0  0  0  0  0  0  0
  -21.3810  -29.3510   22.4450 N   0  0  0  0  0  0  0  0  0  0  0  0
  -23.3820  -28.8940   23.3950 O   0  0  0  0  0  0  0  0  0  0  0  0
  -20.8970  -29.9080   21.7550 H   0  0  0  0  0  0  0  0  0  0  0  0
  -17.9910  -28.2040   22.9590 C   0  0  0  0  0  0  0  0  0  0  0  0
  -20.5530  -28.4230   23.2180 C   0  0  0  0  0  3  0  0  0  0  0  0
  -20.6320  -26.9920   22.6390 C   0  0  0  0  0  2  0  0  0  0  0  0
  -19.5200  -26.6880   21.6300 C   0  0  0  0  0  2  0  0  0  0  0  0
  -18.1440  -26.8530   22.2820 C   0  0  0  0  0  2  0  0  0  0  0  0
  -19.1230  -28.9470   23.3850 C   0  0  0  0  0  0  0  0  0  0  0  0
  -18.9270  -30.2140   23.9790 C   0  0  0  0  0  3  0  0  0  0  0  0
  -17.6310  -30.7340   24.1520 C   0  0  0  0  0  3  0  0  0  0  0  0
  -16.5130  -29.9870   23.7420 C   0  0  0  0  0  3  0  0  0  0  0  0
  -16.6940  -28.7230   23.1520 C   0  0  0  0  0  3  0  0  0  0  0  0
  -25.8560  -32.5720   23.8740 C   0  0  0  0  0  3  0  0  0  0  0  0
  -25.5520  -33.9750   24.1890 N   0  0  0  0  0  0  0  0  0  0  0  0
  -25.8960  -35.0170   23.4220 C   0  0  0  0  0  0  0  0  0  0  0  0
  -26.5740  -34.9010   22.3980 O   0  0  0  0  0  0  0  0  0  0  0  0
  -24.9520  -34.1400   24.9840 H   0  0  0  0  0  0  0  0  0  0  0  0
  -24.1950  -36.8250   23.0180 C   0  0  0  0  0  1  0  0  0  0  0  0
  -25.4110  -36.4130   23.8620 C   0  0  0  0  0  3  0  0  0  0  0  0
  -27.5300  -37.2820   24.7460 C   0  0  0  0  0  1  0  0  0  0  0  0
  -26.4570  -37.4540   23.7710 N   0  0  0  0  0  0  0  0  0  0  0  0
  -26.0560  -38.3800   23.8990 H   0  0  0  0  0  0  0  0  0  0  0  0
  -26.3620  -31.8090   25.1590 C   0  0  1  0  0  0  0  0  0  0  0  0
  -25.2600  -31.5800   26.2200 C   0  0  0  0  0  1  0  0  0  0  0  0
  -26.9460  -30.4280   24.7810 C   0  0  0  0  0  1  0  0  0  0  0  0
  -27.5080  -32.6070   25.8240 C   0  0  0  0  0  1  0  0  0  0  0  0
  1  2  2  0
  2  5  1  0
  2 15  1  0
  3  6  2  0
  3  1  1  0
  4  8  1  0
  4  5  2  0
  6  4  1  0
  7  3  1  0
  8 11  1  0
  9  7  1  0
 10  7  1  0
 12 13  1  0
 12  1  1  0
 14 12  1  0
 16 24  1  0
 17 22  1  0
 18 19  1  0
 18 17  1  0
 20 19  1  0
 20 29  1  0
 20 21  1  0
 22 16  1  0
 22 21  1  0
 23 16  2  0
 24 15  1  0
 24 25  1  0
 26 27  2  0
 27 46  1  0
 28 27  1  0
 28 31  1  0
 29 26  1  0
 29 30  1  0
 30 28  2  0
 31 32  1  0
 32 33  2  0
 34 37  1  0
 34 33  1  0
 35 34  2  0
 36 35  1  0
 36 31  2  0
 37 38  1  0
 38 39  1  0
 39 40  2  0
 41 40  1  0
 41 45  1  0
 42 41  2  0
 43 38  2  0
 43 42  1  0
 44 43  1  0
 46 47  1  0
 47 50  1  0
 47 49  1  0
 48 46  2  0
 51 52  1  0
 51 26  1  0
 53 51  1  0
 54  8  1  0
 55 54  1  0
 55 56  1  0
 56 57  1  0
 58 59  1  0
 58 55  1  0
 60 71  2  0
 61 59  1  0
 61 66  1  0
 62 70  1  0
 62 72  1  0
 63 69  1  0
 63 65  1  0
 64 70  1  0
 65 66  2  0
 65 64  1  0
 67 68  1  0
 67 61  2  0
 68 63  2  0
 69 62  1  0
 70 60  1  0
 72 74  2  0
 73 72  1  0
 75 73  1  0
 76 85  2  0
 76 81  1  0
 77 73  1  0
 77 81  1  0
 78 77  1  0
 79 80  1  0
 79 78  1  0
 80 76  1  0
 81 82  2  0
 82 83  1  0
 84 83  2  0
 85 84  1  0
 86 60  1  0
 86 87  1  0
 86 96  1  0
 87 90  1  0
 88 92  1  0
 88 87  1  0
 89 88  2  0
 92 91  1  0
 94 92  1  0
 94 95  1  0
 94 93  1  0
 96 99  1  1
 96 97  1  0
 98 96  1  0
M  ISO  4  16 100  24 100  58 101  59 101
M  END
>  <TORSDO>  (88) 
F 22

>  <SCORE>  (88) 
-13.742

>  <name>  (88) 
87

>  <ligand_id>  (88) 
87

>  <original_smiles>  (88) 
[H]OC([H])(C([H])([H])Oc1c([H])c([H])c2c(c1[H])C([H])([H])N(C(=O)C([H])(N([H])C(=O)C([H])(N([H])C([H])([H])[H])C([H])([H])[H])C(C([H])([H])[H])(C([H])([H])[H])C([H])([H])[H])C([H])(C(=O)N([H])C1([H])c3c([H])c([H])c([H])c([H])c3C([H])([H])C([H])([H])C1([H])[H])C2([H])[H])C([H])([H])N([H])c1nc(N([H])[H])c(N([H])[H])c(C([H])([H])N([H])C(=O)N2C([H])([H])C([H])([H])C([H])([H])C([H])(n3nc(-c4c([H])c([H])c(Oc5c([H])c([H])c(F)c([H])c5F)c([H])c4[H])c(C(=O)N([H])[H])c3N([H])[H])C2([H])[H])n1

>  <smiles>  (88) 
[H]OC([H])(C([H])([H])Oc1c([H])c([H])c2c(c1[H])C([H])([H])N(C(=O)C([H])(N([H])C(=O)C([H])(N([H])C([H])([H])[H])C([H])([H])[H])C(C([H])([H])[H])(C([H])([H])[H])C([H])([H])[H])C([H])(C(=O)N([H])C1([H])c3c([H])c([H])c([H])c([H])c3C([H])([H])C([H])([H])C1([H])[H])C2([H])[H])C([H])([H])N([H])c1nc(N([H])[H])c(N([H])[H])c(C([H])([H])N([H])C(=O)N2C([H])([H])C([H])([H])C([H])([H])C([H])(n3nc(-c4c([H])c([H])c(Oc5c([H])c([H])c(F)c([H])c5F)c([H])c4[H])c(C(=O)N([H])[H])c3N([H])[H])C2([H])[H])n1

$$$$
88:0:0
     RDKit          3D

 94102  0  0  1  0  0  0  0  0999 V2000
  -29.9440  -21.3650   20.2280 N   0  0  0  0  0  0  0  0  0  0  0  0
  -30.8130  -21.8560   20.0100 H   0  0  0  0  0  0  0  0  0  0  0  0
  -30.5910  -14.7430   20.3700 C   0  0  0  0  0  0  0  0  0  0  0  0
  -30.3800  -12.4680   19.3580 C   0  0  0  0  0  2  0  0  0  0  0  0
  -29.4410  -12.5520   18.1340 C   0  0  0  0  0  2  0  0  0  0  0  0
  -27.9710  -12.3840   18.5660 C   0  0  0  0  0  2  0  0  0  0  0  0
  -27.6030  -13.2720   19.7850 C   0  0  0  0  0  3  0  0  0  0  0  0
  -28.6630  -13.1750   20.9050 C   0  0  0  0  0  2  0  0  0  0  0  0
  -29.9620  -13.5190   20.3130 N   0  0  0  0  0  0  0  0  0  0  0  0
  -31.7770  -14.8320   20.0340 O   0  0  0  0  0  0  0  0  0  0  0  0
  -31.3510  -19.2470   20.2670 C   0  0  0  0  0  0  0  0  0  0  0  0
  -30.1230  -19.9170   20.3350 C   0  0  0  0  0  0  0  0  0  0  0  0
  -30.0660  -17.3080   20.4960 C   0  0  0  0  0  0  0  0  0  0  0  0
  -31.2890  -17.8270   20.3680 N   0  0  0  0  0  0  0  0  0  0  0  0
  -29.8020  -15.8560   20.6030 N   0  0  0  0  0  0  0  0  0  0  0  0
  -28.8580  -18.6600   20.5290 S   0  0  0  0  0  0  0  0  0  0  0  0
  -28.8440  -15.6270   20.8150 H   0  0  0  0  0  0  0  0  0  0  0  0
  -25.2170  -13.8720   20.5090 C   0  0  0  0  0  0  0  0  0  0  0  0
  -24.1490  -13.1000   20.8790 C   0  0  0  0  0  0  0  0  0  0  0  0
  -24.6100  -11.7490   20.8530 C   0  0  0  0  0  0  0  0  0  0  0  0
  -26.2590  -12.9900   20.2750 N   0  0  0  0  0  0  0  0  0  0  0  0
  -25.9010  -11.7070   20.5450 N   0  0  0  0  0  0  0  0  0  0  0  0
  -23.8820  -10.4880   21.0450 C   0  0  0  0  0  0  0  0  0  0  0  0
  -24.3200   -9.5160   21.9730 C   0  0  0  0  0  3  0  0  0  0  0  0
  -23.5920   -8.3200   22.1540 C   0  0  0  0  0  3  0  0  0  0  0  0
  -22.4110   -8.0870   21.4090 C   0  0  0  0  0  0  0  0  0  0  0  0
  -21.9920   -9.0480   20.4710 C   0  0  0  0  0  3  0  0  0  0  0  0
  -22.7200  -10.2350   20.2880 C   0  0  0  0  0  3  0  0  0  0  0  0
  -21.6550   -6.9450   21.4990 O   0  0  0  0  0  0  0  0  0  0  0  0
  -21.6230   -6.1920   22.6450 C   0  0  0  0  0  0  0  0  0  0  0  0
  -21.2320   -6.7400   23.8850 C   0  0  0  0  0  3  0  0  0  0  0  0
  -21.1470   -5.9140   25.0240 C   0  0  0  0  0  3  0  0  0  0  0  0
  -21.4430   -4.5410   24.9240 C   0  0  0  0  0  0  0  0  0  0  0  0
  -21.8290   -3.9920   23.6880 C   0  0  0  0  0  3  0  0  0  0  0  0
  -21.9160   -4.8160   22.5520 C   0  0  0  0  0  0  0  0  0  0  0  0
  -22.2680   -4.2780   21.3580 F   0  0  0  0  0  0  0  0  0  0  0  0
  -21.3540   -3.7450   26.0160 F   0  0  0  0  0  0  0  0  0  0  0  0
  -22.7530  -13.5810   21.1450 C   0  0  0  0  0  0  0  0  0  0  0  0
  -22.0240  -12.8890   22.0150 N   0  0  0  0  0  0  0  0  0  0  0  0
  -22.3160  -14.6040   20.6180 O   0  0  0  0  0  0  0  0  0  0  0  0
  -22.3910  -12.0610   22.4590 H   0  0  0  0  0  0  0  0  0  0  0  0
  -21.0860  -13.1920   22.2370 H   0  0  0  0  0  0  0  0  0  0  0  0
  -25.3810  -15.2420   20.3280 N   0  0  0  0  0  0  0  0  0  0  0  0
  -24.6080  -15.8890   20.4320 H   0  0  0  0  0  0  0  0  0  0  0  0
  -26.2120  -15.6810   19.9540 H   0  0  0  0  0  0  0  0  0  0  0  0
  -32.6580  -19.9080   20.0970 C   0  0  0  0  0  0  0  0  0  0  0  0
  -33.8860  -19.0160   20.2630 C   0  0  0  0  0  1  0  0  0  0  0  0
  -32.8450  -21.1030   19.8400 O   0  0  0  0  0  0  0  0  0  0  0  0
  -28.2400  -21.9660   21.9340 C   0  0  0  0  0  1  0  0  0  0  0  0
  -28.7940  -22.2850   20.5390 C   0  0  0  0  0  3  0  0  0  0  0  0
  -29.1460  -23.8690   20.3470 C   0  0  0  0  0  2  0  0  0  0  0  0
  -28.1280  -25.3490   22.2460 C   0  0  0  0  0  1  0  0  0  0  0  0
  -28.1250  -25.0700   20.7290 C   0  0  0  0  0  3  0  0  0  0  0  0
  -28.3390  -26.4400   20.1610 O   0  0  0  0  0  0  0  0  0  0  0  0
  -24.6550  -31.8840   23.2120 C   0  0  0  0  0  0  0  0  0  0  0  0
  -27.2380  -27.3180   20.1330 C   0  0  0  0  0  0  0  0  0  0  0  0
  -23.4370  -30.4850   21.5850 C   0  0  0  0  0  3  0  0  0  0  0  0
  -24.8750  -28.9350   20.1420 C   0  0  0  0  0  0  0  0  0  0  0  0
  -25.9750  -30.8050   21.3740 C   0  0  0  0  0  2  0  0  0  0  0  0
  -26.0510  -29.4250   20.7250 C   0  0  0  0  0  0  0  0  0  0  0  0
  -27.2380  -28.6290   20.7080 C   0  0  0  0  0  3  0  0  0  0  0  0
  -26.0450  -26.8900   19.5140 C   0  0  0  0  0  3  0  0  0  0  0  0
  -24.8750  -27.6740   19.5250 C   0  0  0  0  0  3  0  0  0  0  0  0
  -23.6370  -29.8090   20.2020 C   0  0  0  0  0  2  0  0  0  0  0  0
  -24.7080  -31.0750   22.1140 N   0  0  0  0  0  0  0  0  0  0  0  0
  -23.5760  -32.1610   23.7580 O   0  0  0  0  0  0  0  0  0  0  0  0
  -22.7850  -29.4680   22.5510 C   0  0  0  0  0  0  0  0  0  0  0  0
  -21.4580  -29.2880   22.4360 N   0  0  0  0  0  0  0  0  0  0  0  0
  -23.4710  -28.8430   23.3660 O   0  0  0  0  0  0  0  0  0  0  0  0
  -20.9650  -29.8440   21.7510 H   0  0  0  0  0  0  0  0  0  0  0  0
  -18.0860  -28.0820   22.9570 C   0  0  0  0  0  0  0  0  0  0  0  0
  -20.6460  -28.3500   23.2130 C   0  0  0  0  0  3  0  0  0  0  0  0
  -20.7490  -26.9170   22.6420 C   0  0  0  0  0  2  0  0  0  0  0  0
  -19.6420  -26.5890   21.6350 C   0  0  0  0  0  2  0  0  0  0  0  0
  -18.2630  -26.7310   22.2860 C   0  0  0  0  0  2  0  0  0  0  0  0
  -19.2050  -28.8490   23.3780 C   0  0  0  0  0  0  0  0  0  0  0  0
  -18.9850  -30.1130   23.9690 C   0  0  0  0  0  3  0  0  0  0  0  0
  -17.6790  -30.6100   24.1410 C   0  0  0  0  0  3  0  0  0  0  0  0
  -16.5750  -29.8400   23.7350 C   0  0  0  0  0  3  0  0  0  0  0  0
  -16.7800  -28.5780   23.1490 C   0  0  0  0  0  3  0  0  0  0  0  0
  -25.9430  -32.5180   23.8230 C   0  0  0  0  0  3  0  0  0  0  0  0
  -26.4830  -31.7350   25.0830 C   0  0  1  0  0  0  0  0  0  0  0  0
  -25.4070  -31.4840   26.1670 C   0  0  0  0  0  1  0  0  0  0  0  0
  -27.0610  -30.3620   24.6680 C   0  0  0  0  0  1  0  0  0  0  0  0
  -27.6430  -32.5250   25.7330 C   0  0  0  0  0  1  0  0  0  0  0  0
  -25.6280  -33.9090   24.1770 N   0  0  0  0  0  0  0  0  0  0  0  0
  -25.9390  -34.9750   23.4270 C   0  0  0  0  0  0  0  0  0  0  0  0
  -26.5900  -34.8900   22.3820 O   0  0  0  0  0  0  0  0  0  0  0  0
  -25.0470  -34.0460   24.9890 H   0  0  0  0  0  0  0  0  0  0  0  0
  -24.1900  -36.7600   23.1320 C   0  0  0  0  0  1  0  0  0  0  0  0
  -25.4510  -36.3540   23.9110 C   0  0  0  0  0  3  0  0  0  0  0  0
  -27.5980  -37.2460   24.7040 C   0  0  0  0  0  1  0  0  0  0  0  0
  -26.4730  -37.4170   23.7900 N   0  0  0  0  0  0  0  0  0  0  0  0
  -26.0650  -38.3330   23.9580 H   0  0  0  0  0  0  0  0  0  0  0  0
  1 12  1  0
  1 50  1  0
  2  1  1  0
  3 15  1  0
  4  9  1  0
  5  6  1  0
  5  4  1  0
  7  6  1  0
  7 21  1  0
  7  8  1  0
  9  3  1  0
  9  8  1  0
 10  3  2  0
 11 12  2  0
 11 14  1  0
 12 16  1  0
 13 16  1  0
 13 15  1  0
 14 13  2  0
 15 17  1  0
 18 19  2  0
 19 38  1  0
 20 19  1  0
 20 23  1  0
 21 18  1  0
 21 22  1  0
 22 20  2  0
 23 24  1  0
 24 25  2  0
 26 29  1  0
 26 25  1  0
 27 26  2  0
 28 27  1  0
 28 23  2  0
 29 30  1  0
 30 31  1  0
 31 32  2  0
 33 32  1  0
 33 37  1  0
 34 33  2  0
 35 30  2  0
 35 34  1  0
 36 35  1  0
 38 39  1  0
 39 42  1  0
 39 41  1  0
 40 38  2  0
 43 44  1  0
 43 18  1  0
 45 43  1  0
 46 47  1  0
 46 11  1  0
 48 46  2  0
 50 49  1  0
 51 50  1  0
 51 53  1  0
 53 52  1  0
 54 53  1  0
 55 66  2  0
 56 54  1  0
 56 61  1  0
 57 65  1  0
 57 67  1  0
 58 64  1  0
 58 60  1  0
 59 65  1  0
 60 59  1  0
 61 60  2  0
 62 63  1  0
 62 56  2  0
 63 58  2  0
 64 57  1  0
 65 55  1  0
 67 69  2  0
 68 67  1  0
 70 68  1  0
 71 80  2  0
 71 76  1  0
 72 68  1  0
 72 76  1  0
 73 72  1  0
 74 75  1  0
 74 73  1  0
 75 71  1  0
 76 77  2  0
 77 78  1  0
 79 78  2  0
 80 79  1  0
 81 55  1  0
 81 86  1  0
 81 82  1  0
 82 85  1  1
 82 83  1  0
 84 82  1  0
 86 89  1  0
 87 91  1  0
 87 86  1  0
 88 87  2  0
 91 90  1  0
 93 91  1  0
 93 94  1  0
 93 92  1  0
M  ISO  4   3 100  15 100  53 101  54 101
M  END
>  <TORSDO>  (89) 
F 20

>  <SCORE>  (89) 
-13.947

>  <name>  (89) 
88

>  <ligand_id>  (89) 
88

>  <original_smiles>  (89) 
[H]c1c([H])c([H])c2c(c1[H])C([H])([H])C([H])([H])C([H])([H])C2([H])N([H])C(=O)C1([H])N(C(=O)C([H])(N([H])C(=O)C([H])(N([H])C([H])([H])[H])C([H])([H])[H])C(C([H])([H])[H])(C([H])([H])[H])C([H])([H])[H])C([H])([H])c2c([H])c(OC([H])(C([H])([H])[H])C([H])([H])C([H])(N([H])c3sc(N([H])C(=O)N4C([H])([H])C([H])([H])C([H])([H])C([H])(n5nc(-c6c([H])c([H])c(Oc7c([H])c([H])c(F)c([H])c7F)c([H])c6[H])c(C(=O)N([H])[H])c5N([H])[H])C4([H])[H])nc3C(=O)C([H])([H])[H])C([H])([H])[H])c([H])c([H])c2C1([H])[H]

>  <smiles>  (89) 
[H]c1c([H])c([H])c2c(c1[H])C([H])([H])C([H])([H])C([H])([H])C2([H])N([H])C(=O)C1([H])N(C(=O)C([H])(N([H])C(=O)C([H])(N([H])C([H])([H])[H])C([H])([H])[H])C(C([H])([H])[H])(C([H])([H])[H])C([H])([H])[H])C([H])([H])c2c([H])c(OC([H])(C([H])([H])[H])C([H])([H])C([H])(N([H])c3sc(N([H])C(=O)N4C([H])([H])C([H])([H])C([H])([H])C([H])(n5nc(-c6c([H])c([H])c(Oc7c([H])c([H])c(F)c([H])c7F)c([H])c6[H])c(C(=O)N([H])[H])c5N([H])[H])C4([H])[H])nc3C(=O)C([H])([H])[H])C([H])([H])[H])c([H])c([H])c2C1([H])[H]

$$$$
89:0:0
     RDKit          3D

 94102  0  0  1  0  0  0  0  0999 V2000
  -29.9000  -17.9970   21.6240 C   0  0  0  0  0  3  0  0  0  0  0  0
  -29.9540  -20.0680   20.4800 C   0  0  0  0  0  0  0  0  0  0  0  0
  -30.1130  -17.2210   20.4500 C   0  0  0  0  0  0  0  0  0  0  0  0
  -30.1320  -19.2940   19.2790 C   0  0  0  0  0  0  0  0  0  0  0  0
  -29.8390  -19.3630   21.6460 N   0  0  0  0  0  0  0  0  0  0  0  0
  -30.2110  -17.9190   19.2740 N   0  0  0  0  0  0  0  0  0  0  0  0
  -30.2680  -19.8570   18.0130 N   0  0  0  0  0  0  0  0  0  0  0  0
  -30.3940  -20.8540   17.8810 H   0  0  0  0  0  0  0  0  0  0  0  0
  -30.5320  -19.2810   17.2210 H   0  0  0  0  0  0  0  0  0  0  0  0
  -30.7750  -14.7380   20.0160 C   0  0  0  0  0  0  0  0  0  0  0  0
  -30.5040  -12.4900   18.9750 C   0  0  0  0  0  2  0  0  0  0  0  0
  -29.4980  -12.6240   17.8090 C   0  0  0  0  0  2  0  0  0  0  0  0
  -28.0470  -12.4850   18.3110 C   0  0  0  0  0  2  0  0  0  0  0  0
  -27.7670  -13.3420   19.5750 C   0  0  0  0  0  3  0  0  0  0  0  0
  -28.8810  -13.1680   20.6320 C   0  0  0  0  0  2  0  0  0  0  0  0
  -30.1610  -13.5090   19.9910 N   0  0  0  0  0  0  0  0  0  0  0  0
  -31.8790  -14.9050   19.4850 O   0  0  0  0  0  0  0  0  0  0  0  0
  -30.0680  -15.7620   20.5920 N   0  0  0  0  0  0  0  0  0  0  0  0
  -29.3240  -15.4350   21.1890 H   0  0  0  0  0  0  0  0  0  0  0  0
  -25.4390  -13.9710   20.4610 C   0  0  0  0  0  0  0  0  0  0  0  0
  -24.3780  -13.2110   20.8730 C   0  0  0  0  0  0  0  0  0  0  0  0
  -24.8010  -11.8510   20.7660 C   0  0  0  0  0  0  0  0  0  0  0  0
  -26.4420  -13.0740   20.1300 N   0  0  0  0  0  0  0  0  0  0  0  0
  -26.0670  -11.7920   20.3720 N   0  0  0  0  0  0  0  0  0  0  0  0
  -24.0560  -10.6000   20.9630 C   0  0  0  0  0  0  0  0  0  0  0  0
  -24.4760   -9.6290   21.8980 C   0  0  0  0  0  3  0  0  0  0  0  0
  -23.7320   -8.4440   22.0830 C   0  0  0  0  0  3  0  0  0  0  0  0
  -22.5520   -8.2220   21.3320 C   0  0  0  0  0  0  0  0  0  0  0  0
  -22.1510   -9.1830   20.3870 C   0  0  0  0  0  3  0  0  0  0  0  0
  -22.8950  -10.3590   20.2010 C   0  0  0  0  0  3  0  0  0  0  0  0
  -21.7790   -7.0910   21.4260 O   0  0  0  0  0  0  0  0  0  0  0  0
  -21.6570   -6.3970   22.6030 C   0  0  0  0  0  0  0  0  0  0  0  0
  -21.0580   -6.9690   23.7470 C   0  0  0  0  0  3  0  0  0  0  0  0
  -20.8900   -6.1980   24.9140 C   0  0  0  0  0  3  0  0  0  0  0  0
  -21.3100   -4.8540   24.9370 C   0  0  0  0  0  0  0  0  0  0  0  0
  -21.9010   -4.2810   23.7990 C   0  0  0  0  0  3  0  0  0  0  0  0
  -22.0720   -5.0490   22.6340 C   0  0  0  0  0  0  0  0  0  0  0  0
  -22.6220   -4.4860   21.5310 F   0  0  0  0  0  0  0  0  0  0  0  0
  -21.1420   -4.1120   26.0560 F   0  0  0  0  0  0  0  0  0  0  0  0
  -23.0140  -13.7130   21.2520 C   0  0  0  0  0  0  0  0  0  0  0  0
  -22.3270  -13.0090   22.1460 N   0  0  0  0  0  0  0  0  0  0  0  0
  -22.5690  -14.7620   20.7910 O   0  0  0  0  0  0  0  0  0  0  0  0
  -22.7030  -12.1610   22.5430 H   0  0  0  0  0  0  0  0  0  0  0  0
  -21.4150  -13.3250   22.4380 H   0  0  0  0  0  0  0  0  0  0  0  0
  -25.6280  -15.3430   20.3210 N   0  0  0  0  0  0  0  0  0  0  0  0
  -24.8830  -16.0090   20.4980 H   0  0  0  0  0  0  0  0  0  0  0  0
  -26.4590  -15.7710   19.9310 H   0  0  0  0  0  0  0  0  0  0  0  0
  -30.1260  -21.6130   20.6330 C   0  0  0  0  0  0  0  0  0  0  0  0
  -29.2990  -22.5620   20.0810 N   0  0  0  0  0  0  0  0  0  0  0  0
  -31.0590  -21.9950   21.3490 O   0  0  0  0  0  0  0  0  0  0  0  0
  -28.5110  -22.2360   19.5370 H   0  0  0  0  0  0  0  0  0  0  0  0
  -29.5180  -24.0650   20.1950 C   0  0  0  0  0  3  0  0  0  0  0  0
  -28.3260  -25.0750   19.8650 C   0  0  0  0  0  3  0  0  0  0  0  0
  -28.5050  -26.5290   20.1430 O   0  0  0  0  0  0  0  0  0  0  0  0
  -24.7080  -31.8070   23.2910 C   0  0  0  0  0  0  0  0  0  0  0  0
  -27.3790  -27.3740   20.1010 C   0  0  0  0  0  0  0  0  0  0  0  0
  -23.5270  -30.4570   21.5980 C   0  0  0  0  0  3  0  0  0  0  0  0
  -24.9990  -28.9690   20.1280 C   0  0  0  0  0  0  0  0  0  0  0  0
  -26.0630  -30.8060   21.4350 C   0  0  0  0  0  2  0  0  0  0  0  0
  -26.1610  -29.4500   20.7440 C   0  0  0  0  0  0  0  0  0  0  0  0
  -27.3540  -28.6660   20.7180 C   0  0  0  0  0  3  0  0  0  0  0  0
  -26.1920  -26.9530   19.4580 C   0  0  0  0  0  3  0  0  0  0  0  0
  -25.0170  -27.7270   19.4750 C   0  0  0  0  0  3  0  0  0  0  0  0
  -23.7530  -29.8290   20.1970 C   0  0  0  0  0  2  0  0  0  0  0  0
  -24.7860  -31.0390   22.1670 N   0  0  0  0  0  0  0  0  0  0  0  0
  -23.6190  -32.0570   23.8280 O   0  0  0  0  0  0  0  0  0  0  0  0
  -22.8660  -29.4020   22.5190 C   0  0  0  0  0  0  0  0  0  0  0  0
  -21.5430  -29.2140   22.3740 N   0  0  0  0  0  0  0  0  0  0  0  0
  -23.5450  -28.7570   23.3230 O   0  0  0  0  0  0  0  0  0  0  0  0
  -21.0560  -29.7880   21.7000 H   0  0  0  0  0  0  0  0  0  0  0  0
  -18.1680  -27.9990   22.8330 C   0  0  0  0  0  0  0  0  0  0  0  0
  -20.7270  -28.2430   23.1050 C   0  0  0  0  0  3  0  0  0  0  0  0
  -20.8260  -26.8380   22.4660 C   0  0  0  0  0  2  0  0  0  0  0  0
  -19.7190  -26.5610   21.4440 C   0  0  0  0  0  2  0  0  0  0  0  0
  -18.3400  -26.6800   22.0980 C   0  0  0  0  0  2  0  0  0  0  0  0
  -19.2880  -28.7400   23.2910 C   0  0  0  0  0  0  0  0  0  0  0  0
  -19.0720  -29.9760   23.9390 C   0  0  0  0  0  3  0  0  0  0  0  0
  -17.7680  -30.4690   24.1320 C   0  0  0  0  0  3  0  0  0  0  0  0
  -16.6620  -29.7250   23.6870 C   0  0  0  0  0  3  0  0  0  0  0  0
  -16.8630  -28.4910   23.0430 C   0  0  0  0  0  3  0  0  0  0  0  0
  -25.9820  -32.4270   23.9450 C   0  0  0  0  0  3  0  0  0  0  0  0
  -26.4590  -31.6500   25.2340 C   0  0  1  0  0  0  0  0  0  0  0  0
  -25.3320  -31.4090   26.2670 C   0  0  0  0  0  1  0  0  0  0  0  0
  -27.0510  -30.2730   24.8520 C   0  0  0  0  0  1  0  0  0  0  0  0
  -27.5870  -32.4400   25.9340 C   0  0  0  0  0  1  0  0  0  0  0  0
  -25.6760  -33.8280   24.2700 N   0  0  0  0  0  0  0  0  0  0  0  0
  -25.9800  -34.8740   23.4900 C   0  0  0  0  0  0  0  0  0  0  0  0
  -26.6160  -34.7610   22.4380 O   0  0  0  0  0  0  0  0  0  0  0  0
  -25.1010  -33.9870   25.0850 H   0  0  0  0  0  0  0  0  0  0  0  0
  -24.2200  -36.6470   23.1940 C   0  0  0  0  0  1  0  0  0  0  0  0
  -25.5030  -36.2660   23.9490 C   0  0  0  0  0  3  0  0  0  0  0  0
  -27.6540  -37.2000   24.6770 C   0  0  0  0  0  1  0  0  0  0  0  0
  -26.5190  -37.3250   23.7660 N   0  0  0  0  0  0  0  0  0  0  0  0
  -26.1070  -38.2460   23.8970 H   0  0  0  0  0  0  0  0  0  0  0  0
  1  5  1  0
  2 48  1  0
  2  5  2  0
  3 18  1  0
  3  1  2  0
  4  2  1  0
  6  4  2  0
  6  3  1  0
  7  4  1  0
  8  7  1  0
  9  7  1  0
 10 18  1  0
 11 16  1  0
 12 13  1  0
 12 11  1  0
 14 13  1  0
 14 23  1  0
 14 15  1  0
 16 10  1  0
 16 15  1  0
 17 10  2  0
 18 19  1  0
 20 21  2  0
 21 40  1  0
 22 21  1  0
 22 25  1  0
 23 24  1  0
 23 20  1  0
 24 22  2  0
 25 26  1  0
 26 27  2  0
 28 31  1  0
 28 27  1  0
 29 28  2  0
 30 29  1  0
 30 25  2  0
 31 32  1  0
 32 37  2  0
 32 33  1  0
 33 34  2  0
 34 35  1  0
 35 39  1  0
 36 35  2  0
 37 36  1  0
 38 37  1  0
 40 41  1  0
 41 44  1  0
 41 43  1  0
 42 40  2  0
 45 20  1  0
 45 46  1  0
 47 45  1  0
 48 50  2  0
 49 52  1  0
 49 48  1  0
 51 49  1  0
 53 54  1  0
 53 52  2  0
 55 66  2  0
 56 54  1  0
 56 61  1  0
 57 65  1  0
 57 67  1  0
 58 64  1  0
 58 60  1  0
 59 65  1  0
 60 59  1  0
 61 60  2  0
 62 63  1  0
 62 56  2  0
 63 58  2  0
 64 57  1  0
 65 55  1  0
 67 69  2  0
 68 67  1  0
 70 68  1  0
 71 80  2  0
 71 76  1  0
 72 68  1  0
 72 76  1  0
 73 72  1  0
 74 75  1  0
 74 73  1  0
 75 71  1  0
 76 77  2  0
 77 78  1  0
 79 78  2  0
 80 79  1  0
 81 55  1  0
 81 86  1  0
 81 82  1  0
 82 85  1  1
 82 83  1  0
 84 82  1  0
 86 89  1  0
 87 91  1  0
 87 86  1  0
 88 87  2  0
 91 90  1  0
 93 94  1  0
 93 91  1  0
 93 92  1  0
M  ISO  4  10 100  18 100  53 101  54 101
M  END
>  <TORSDO>  (90) 
F 19

>  <SCORE>  (90) 
-13.548

>  <name>  (90) 
89

>  <ligand_id>  (90) 
89

>  <original_smiles>  (90) 
[H]c1nc(C(=O)N([H])C([H])([H])C([H])([H])Oc2c([H])c([H])c3c(c2[H])C([H])([H])N(C(=O)C([H])(N([H])C(=O)C([H])(N([H])C([H])([H])[H])C([H])([H])[H])C(C([H])([H])[H])(C([H])([H])[H])C([H])([H])[H])C([H])(C(=O)N([H])C2([H])c4c([H])c([H])c([H])c([H])c4C([H])([H])C([H])([H])C2([H])[H])C3([H])[H])c(N([H])[H])nc1N([H])C(=O)N1C([H])([H])C([H])([H])C([H])([H])C([H])(n2nc(-c3c([H])c([H])c(Oc4c([H])c([H])c(F)c([H])c4F)c([H])c3[H])c(C(=O)N([H])[H])c2N([H])[H])C1([H])[H]

>  <smiles>  (90) 
[H]c1nc(C(=O)N([H])C([H])([H])C([H])([H])Oc2c([H])c([H])c3c(c2[H])C([H])([H])N(C(=O)C([H])(N([H])C(=O)C([H])(N([H])C([H])([H])[H])C([H])([H])[H])C(C([H])([H])[H])(C([H])([H])[H])C([H])([H])[H])C([H])(C(=O)N([H])C2([H])c4c([H])c([H])c([H])c([H])c4C([H])([H])C([H])([H])C2([H])[H])C3([H])[H])c(N([H])[H])nc1N([H])C(=O)N1C([H])([H])C([H])([H])C([H])([H])C([H])(n2nc(-c3c([H])c([H])c(Oc4c([H])c([H])c(F)c([H])c4F)c([H])c3[H])c(C(=O)N([H])[H])c2N([H])[H])C1([H])[H]

$$$$
90:0:0
     RDKit          3D

 97105  0  0  1  0  0  0  0  0999 V2000
  -27.8560  -18.6620   19.6960 C   0  0  0  0  0  0  0  0  0  0  0  0
  -29.0810  -18.9960   20.3110 C   0  0  0  0  0  0  0  0  0  0  0  0
  -26.9840  -19.7130   19.3830 C   0  0  0  0  0  0  0  0  0  0  0  0
  -28.4150  -21.3100   20.1840 C   0  0  0  0  0  0  0  0  0  0  0  0
  -29.3350  -20.3560   20.5460 N   0  0  0  0  0  0  0  0  0  0  0  0
  -27.2560  -21.0090   19.6150 N   0  0  0  0  0  0  0  0  0  0  0  0
  -25.7680  -19.4290   18.7740 N   0  0  0  0  0  0  0  0  0  0  0  0
  -28.6640  -22.7120   20.3840 N   0  0  0  0  0  0  0  0  0  0  0  0
  -27.5240  -17.3840   19.3740 F   0  0  0  0  0  0  0  0  0  0  0  0
  -25.5280  -18.4450   18.7600 H   0  0  0  0  0  0  0  0  0  0  0  0
  -24.9910  -20.0340   19.0000 H   0  0  0  0  0  0  0  0  0  0  0  0
  -29.5430  -22.8950   20.8520 H   0  0  0  0  0  0  0  0  0  0  0  0
  -30.1590  -17.8410   20.5690 C   0  0  0  0  0  2  0  0  0  0  0  0
  -29.7240  -16.3430   21.0370 C   0  0  0  0  0  2  0  0  0  0  0  0
  -30.6220  -15.0350   20.7510 C   0  0  0  0  0  0  0  0  0  0  0  0
  -30.6000  -12.6950   19.8390 C   0  0  0  0  0  2  0  0  0  0  0  0
  -29.7570  -12.6760   18.5420 C   0  0  0  0  0  2  0  0  0  0  0  0
  -28.2560  -12.4970   18.8480 C   0  0  0  0  0  2  0  0  0  0  0  0
  -27.7700  -13.4370   19.9790 C   0  0  0  0  0  3  0  0  0  0  0  0
  -28.7290  -13.4120   21.1860 C   0  0  0  0  0  2  0  0  0  0  0  0
  -30.0700  -13.7730   20.7060 N   0  0  0  0  0  0  0  0  0  0  0  0
  -31.8110  -15.1790   20.4470 O   0  0  0  0  0  0  0  0  0  0  0  0
  -25.3550  -14.0450   20.5920 C   0  0  0  0  0  0  0  0  0  0  0  0
  -24.2580  -13.2760   20.8680 C   0  0  0  0  0  0  0  0  0  0  0  0
  -24.7000  -11.9190   20.8030 C   0  0  0  0  0  0  0  0  0  0  0  0
  -26.3940  -13.1570   20.3770 N   0  0  0  0  0  0  0  0  0  0  0  0
  -26.0050  -11.8700   20.5690 N   0  0  0  0  0  0  0  0  0  0  0  0
  -23.9450  -10.6640   20.8920 C   0  0  0  0  0  0  0  0  0  0  0  0
  -24.3490   -9.6130   21.7470 C   0  0  0  0  0  3  0  0  0  0  0  0
  -23.5900   -8.4250   21.8270 C   0  0  0  0  0  3  0  0  0  0  0  0
  -22.4150   -8.2790   21.0530 C   0  0  0  0  0  0  0  0  0  0  0  0
  -22.0290   -9.3190   20.1890 C   0  0  0  0  0  3  0  0  0  0  0  0
  -22.7880  -10.4980   20.1060 C   0  0  0  0  0  3  0  0  0  0  0  0
  -21.6300   -7.1520   21.0490 O   0  0  0  0  0  0  0  0  0  0  0  0
  -21.6130   -6.2820   22.1090 C   0  0  0  0  0  0  0  0  0  0  0  0
  -21.2850   -6.7050   23.4150 C   0  0  0  0  0  3  0  0  0  0  0  0
  -21.2130   -5.7660   24.4630 C   0  0  0  0  0  3  0  0  0  0  0  0
  -21.4590   -4.4030   24.2070 C   0  0  0  0  0  0  0  0  0  0  0  0
  -21.7830   -3.9800   22.9060 C   0  0  0  0  0  3  0  0  0  0  0  0
  -21.8560   -4.9150   21.8590 C   0  0  0  0  0  0  0  0  0  0  0  0
  -22.1460   -4.4990   20.6020 F   0  0  0  0  0  0  0  0  0  0  0  0
  -21.3850   -3.5000   25.2110 F   0  0  0  0  0  0  0  0  0  0  0  0
  -22.8560  -13.7660   21.0810 C   0  0  0  0  0  0  0  0  0  0  0  0
  -22.0740  -13.0540   21.8820 N   0  0  0  0  0  0  0  0  0  0  0  0
  -22.4620  -14.8140   20.5720 O   0  0  0  0  0  0  0  0  0  0  0  0
  -22.4050  -12.2040   22.3130 H   0  0  0  0  0  0  0  0  0  0  0  0
  -21.1310  -13.3670   22.0730 H   0  0  0  0  0  0  0  0  0  0  0  0
  -25.5480  -15.4200   20.4830 N   0  0  0  0  0  0  0  0  0  0  0  0
  -24.7720  -16.0700   20.5440 H   0  0  0  0  0  0  0  0  0  0  0  0
  -26.4110  -15.8660   20.1870 H   0  0  0  0  0  0  0  0  0  0  0  0
  -27.8040  -23.9560   20.1110 C   0  0  0  0  0  3  0  0  0  0  0  0
  -26.7300  -24.1590   21.2370 C   0  0  0  0  0  2  0  0  0  0  0  0
  -24.4920  -23.6540   20.0590 C   0  0  0  0  0  1  0  0  0  0  0  0
  -24.6290  -23.6310   22.5590 C   0  0  0  0  0  1  0  0  0  0  0  0
  -25.4060  -23.3470   21.2560 C   0  0  0  0  0  3  0  0  0  0  0  0
  -28.6030  -25.3840   20.0620 C   0  0  0  0  0  2  0  0  0  0  0  0
  -28.2620  -26.6900   19.3960 O   0  0  0  0  0  0  0  0  0  0  0  0
  -24.6320  -31.7600   23.1620 C   0  0  0  0  0  0  0  0  0  0  0  0
  -27.1290  -27.4860   19.6300 C   0  0  0  0  0  0  0  0  0  0  0  0
  -23.3700  -30.5060   21.4510 C   0  0  0  0  0  3  0  0  0  0  0  0
  -24.7680  -29.1030   19.8330 C   0  0  0  0  0  0  0  0  0  0  0  0
  -25.8980  -30.8610   21.1910 C   0  0  0  0  0  2  0  0  0  0  0  0
  -25.9600  -29.5410   20.4290 C   0  0  0  0  0  0  0  0  0  0  0  0
  -27.1460  -28.7510   20.3090 C   0  0  0  0  0  3  0  0  0  0  0  0
  -25.9210  -27.1080   19.0140 C   0  0  0  0  0  3  0  0  0  0  0  0
  -24.7550  -27.8960   19.1130 C   0  0  0  0  0  3  0  0  0  0  0  0
  -23.5300  -29.9640   20.0050 C   0  0  0  0  0  2  0  0  0  0  0  0
  -24.6550  -31.0580   21.9900 N   0  0  0  0  0  0  0  0  0  0  0  0
  -23.5710  -31.9730   23.7680 O   0  0  0  0  0  0  0  0  0  0  0  0
  -22.7590  -29.3970   22.3400 C   0  0  0  0  0  0  0  0  0  0  0  0
  -21.4410  -29.1740   22.2160 N   0  0  0  0  0  0  0  0  0  0  0  0
  -23.4740  -28.7370   23.1030 O   0  0  0  0  0  0  0  0  0  0  0  0
  -20.9220  -29.7670   21.5840 H   0  0  0  0  0  0  0  0  0  0  0  0
  -18.1360  -27.7450   22.6040 C   0  0  0  0  0  0  0  0  0  0  0  0
  -20.6710  -28.1490   22.9220 C   0  0  0  0  0  3  0  0  0  0  0  0
  -20.8700  -26.7580   22.2770 C   0  0  0  0  0  2  0  0  0  0  0  0
  -19.7990  -26.4140   21.2340 C   0  0  0  0  0  2  0  0  0  0  0  0
  -18.4020  -26.4460   21.8610 C   0  0  0  0  0  2  0  0  0  0  0  0
  -19.2020  -28.5530   23.0850 C   0  0  0  0  0  0  0  0  0  0  0  0
  -18.8990  -29.7660   23.7370 C   0  0  0  0  0  3  0  0  0  0  0  0
  -17.5650  -30.1770   23.9140 C   0  0  0  0  0  3  0  0  0  0  0  0
  -16.5150  -29.3670   23.4500 C   0  0  0  0  0  3  0  0  0  0  0  0
  -16.7990  -28.1540   22.8000 C   0  0  0  0  0  3  0  0  0  0  0  0
  -25.9340  -32.3540   23.7830 C   0  0  0  0  0  3  0  0  0  0  0  0
  -25.6340  -33.7270   24.2140 N   0  0  0  0  0  0  0  0  0  0  0  0
  -25.9360  -34.8300   23.5150 C   0  0  0  0  0  0  0  0  0  0  0  0
  -26.5670  -34.7990   22.4570 O   0  0  0  0  0  0  0  0  0  0  0  0
  -25.0720  -33.8240   25.0460 H   0  0  0  0  0  0  0  0  0  0  0  0
  -24.1850  -36.6310   23.3560 C   0  0  0  0  0  1  0  0  0  0  0  0
  -25.4630  -36.1830   24.0830 C   0  0  0  0  0  3  0  0  0  0  0  0
  -27.6270  -37.0240   24.8760 C   0  0  0  0  0  1  0  0  0  0  0  0
  -26.4840  -37.2490   23.9960 N   0  0  0  0  0  0  0  0  0  0  0  0
  -26.0810  -38.1520   24.2270 H   0  0  0  0  0  0  0  0  0  0  0  0
  -26.4860  -31.5110   24.9970 C   0  0  1  0  0  0  0  0  0  0  0  0
  -25.4300  -31.2100   26.0870 C   0  0  0  0  0  1  0  0  0  0  0  0
  -27.0560  -30.1580   24.5090 C   0  0  0  0  0  1  0  0  0  0  0  0
  -27.6580  -32.2650   25.6690 C   0  0  0  0  0  1  0  0  0  0  0  0
  1  2  2  0
  2  5  1  0
  2 13  1  0
  3  6  2  0
  3  1  1  0
  4  8  1  0
  4  5  2  0
  6  4  1  0
  7 11  1  0
  7  3  1  0
  8 12  1  0
  9  1  1  0
 10  7  1  0
 13 14  1  0
 15 14  1  0
 16 21  1  0
 17 18  1  0
 17 16  1  0
 19 18  1  0
 19 26  1  0
 19 20  1  0
 21 15  1  0
 21 20  1  0
 22 15  2  0
 23 24  2  0
 24 43  1  0
 25 24  1  0
 25 28  1  0
 26 27  1  0
 26 23  1  0
 27 25  2  0
 28 29  1  0
 29 30  2  0
 31 30  1  0
 32 31  2  0
 33 32  1  0
 33 28  2  0
 34 31  1  0
 34 35  1  0
 35 36  1  0
 36 37  2  0
 38 37  1  0
 38 42  1  0
 39 38  2  0
 40 35  2  0
 40 39  1  0
 41 40  1  0
 43 44  1  0
 44 47  1  0
 44 46  1  0
 45 43  2  0
 48 49  1  0
 48 23  1  0
 50 48  1  0
 51 56  1  0
 51  8  1  0
 51 52  1  0
 52 55  1  0
 53 55  1  0
 55 54  1  0
 57 59  1  0
 57 56  1  0
 58 69  2  0
 59 64  1  0
 60 68  1  0
 60 70  1  0
 61 67  1  0
 61 63  1  0
 62 68  1  0
 63 62  1  0
 64 63  2  0
 65 66  1  0
 65 59  2  0
 66 61  2  0
 67 60  1  0
 68 58  1  0
 70 72  2  0
 71 70  1  0
 73 71  1  0
 74 83  2  0
 74 79  1  0
 75 71  1  0
 75 79  1  0
 76 75  1  0
 77 78  1  0
 77 76  1  0
 78 74  1  0
 79 80  2  0
 80 81  1  0
 82 81  2  0
 83 82  1  0
 84 58  1  0
 84 85  1  0
 84 94  1  0
 85 88  1  0
 86 90  1  0
 86 85  1  0
 87 86  2  0
 90 89  1  0
 92 90  1  0
 92 93  1  0
 92 91  1  0
 94 97  1  1
 94 95  1  0
 96 94  1  0
M  ISO  4  14 100  15 100  56 101  57 101
M  END
>  <TORSDO>  (91) 
F 22

>  <SCORE>  (91) 
-12.597

>  <name>  (91) 
90

>  <ligand_id>  (91) 
90

>  <original_smiles>  (91) 
[H]c1c([H])c([H])c2c(c1[H])C([H])([H])C([H])([H])C([H])([H])C2([H])N([H])C(=O)C1([H])N(C(=O)C([H])(N([H])C(=O)C([H])(N([H])C([H])([H])[H])C([H])([H])[H])C(C([H])([H])[H])(C([H])([H])[H])C([H])([H])[H])C([H])([H])c2c([H])c(OC([H])([H])C([H])(N([H])c3nc(N([H])[H])c(F)c(C([H])([H])C([H])([H])C(=O)N4C([H])([H])C([H])([H])C([H])([H])C([H])(n5nc(-c6c([H])c([H])c(Oc7c([H])c([H])c(F)c([H])c7F)c([H])c6[H])c(C(=O)N([H])[H])c5N([H])[H])C4([H])[H])n3)C([H])([H])C([H])(C([H])([H])[H])C([H])([H])[H])c([H])c([H])c2C1([H])[H]

>  <smiles>  (91) 
[H]c1c([H])c([H])c2c(c1[H])C([H])([H])C([H])([H])C([H])([H])C2([H])N([H])C(=O)C1([H])N(C(=O)C([H])(N([H])C(=O)C([H])(N([H])C([H])([H])[H])C([H])([H])[H])C(C([H])([H])[H])(C([H])([H])[H])C([H])([H])[H])C([H])([H])c2c([H])c(OC([H])([H])C([H])(N([H])c3nc(N([H])[H])c(F)c(C([H])([H])C([H])([H])C(=O)N4C([H])([H])C([H])([H])C([H])([H])C([H])(n5nc(-c6c([H])c([H])c(Oc7c([H])c([H])c(F)c([H])c7F)c([H])c6[H])c(C(=O)N([H])[H])c5N([H])[H])C4([H])[H])n3)C([H])([H])C([H])(C([H])([H])[H])C([H])([H])[H])c([H])c([H])c2C1([H])[H]

$$$$
91:0:0
     RDKit          3D

 96104  0  0  1  0  0  0  0  0999 V2000
  -30.3490  -18.3840   20.3560 C   0  0  0  0  0  0  0  0  0  0  0  0
  -31.4270  -18.5280   21.2070 C   0  0  0  0  0  0  0  0  0  0  0  0
  -30.4980  -20.6900   20.4310 C   0  0  0  0  0  0  0  0  0  0  0  0
  -29.8130  -19.6350   19.9630 N   0  0  0  0  0  0  0  0  0  0  0  0
  -30.2610  -22.0400   20.1250 N   0  0  0  0  0  0  0  0  0  0  0  0
  -31.8090  -20.2120   21.5010 S   0  0  0  0  0  0  0  0  0  0  0  0
  -31.1330  -22.4380   19.7920 H   0  0  0  0  0  0  0  0  0  0  0  0
  -32.2320  -17.5450   21.7750 N   0  0  0  0  0  0  0  0  0  0  0  0
  -32.2120  -16.5930   21.4230 H   0  0  0  0  0  0  0  0  0  0  0  0
  -33.1070  -17.7670   22.2430 H   0  0  0  0  0  0  0  0  0  0  0  0
  -29.7850  -17.1080   19.7340 C   0  0  0  0  0  2  0  0  0  0  0  0
  -30.5810  -14.7970   20.2760 C   0  0  0  0  0  0  0  0  0  0  0  0
  -30.3590  -12.5650   19.2640 C   0  0  0  0  0  2  0  0  0  0  0  0
  -29.4020  -12.7030   18.0610 C   0  0  0  0  0  2  0  0  0  0  0  0
  -27.9380  -12.5310   18.5100 C   0  0  0  0  0  2  0  0  0  0  0  0
  -27.5850  -13.3990   19.7480 C   0  0  0  0  0  3  0  0  0  0  0  0
  -28.6610  -13.2650   20.8530 C   0  0  0  0  0  2  0  0  0  0  0  0
  -29.9680  -13.5790   20.2580 N   0  0  0  0  0  0  0  0  0  0  0  0
  -31.7210  -14.9740   19.8380 O   0  0  0  0  0  0  0  0  0  0  0  0
  -29.7690  -15.8470   20.5170 N   0  0  0  0  0  0  0  0  0  0  0  0
  -28.8850  -15.6190   20.9460 H   0  0  0  0  0  0  0  0  0  0  0  0
  -25.1980  -13.9700   20.5200 C   0  0  0  0  0  0  0  0  0  0  0  0
  -24.1450  -13.1810   20.8990 C   0  0  0  0  0  0  0  0  0  0  0  0
  -24.6190  -11.8350   20.8330 C   0  0  0  0  0  0  0  0  0  0  0  0
  -26.2460  -13.1020   20.2510 N   0  0  0  0  0  0  0  0  0  0  0  0
  -25.9020  -11.8130   20.4970 N   0  0  0  0  0  0  0  0  0  0  0  0
  -23.9080  -10.5630   21.0150 C   0  0  0  0  0  0  0  0  0  0  0  0
  -24.3580   -9.5900   21.9340 C   0  0  0  0  0  3  0  0  0  0  0  0
  -23.6490   -8.3820   22.1050 C   0  0  0  0  0  3  0  0  0  0  0  0
  -22.4740   -8.1380   21.3550 C   0  0  0  0  0  0  0  0  0  0  0  0
  -22.0420   -9.1000   20.4250 C   0  0  0  0  0  3  0  0  0  0  0  0
  -22.7530  -10.3000   20.2540 C   0  0  0  0  0  3  0  0  0  0  0  0
  -21.7330   -6.9840   21.4360 O   0  0  0  0  0  0  0  0  0  0  0  0
  -21.6960   -6.2300   22.5810 C   0  0  0  0  0  0  0  0  0  0  0  0
  -21.2180   -6.7530   23.8020 C   0  0  0  0  0  3  0  0  0  0  0  0
  -21.1340   -5.9240   24.9370 C   0  0  0  0  0  3  0  0  0  0  0  0
  -21.5160   -4.5720   24.8540 C   0  0  0  0  0  0  0  0  0  0  0  0
  -21.9870   -4.0480   23.6360 C   0  0  0  0  0  3  0  0  0  0  0  0
  -22.0750   -4.8750   22.5030 C   0  0  0  0  0  0  0  0  0  0  0  0
  -22.5080   -4.3590   21.3280 F   0  0  0  0  0  0  0  0  0  0  0  0
  -21.4270   -3.7720   25.9430 F   0  0  0  0  0  0  0  0  0  0  0  0
  -22.7510  -13.6400   21.2100 C   0  0  0  0  0  0  0  0  0  0  0  0
  -22.0450  -12.9180   22.0730 N   0  0  0  0  0  0  0  0  0  0  0  0
  -22.2940  -14.6740   20.7230 O   0  0  0  0  0  0  0  0  0  0  0  0
  -22.4290  -12.0840   22.4910 H   0  0  0  0  0  0  0  0  0  0  0  0
  -21.1090  -13.2050   22.3220 H   0  0  0  0  0  0  0  0  0  0  0  0
  -25.3450  -15.3450   20.3630 N   0  0  0  0  0  0  0  0  0  0  0  0
  -24.5670  -15.9840   20.4860 H   0  0  0  0  0  0  0  0  0  0  0  0
  -26.1770  -15.8010   20.0090 H   0  0  0  0  0  0  0  0  0  0  0  0
  -29.4800  -23.1300   20.7400 C   0  0  0  0  0  3  0  0  0  0  0  0
  -29.4460  -22.2360   23.1660 C   0  0  0  0  0  1  0  0  0  0  0  0
  -29.9120  -23.3460   22.2120 C   0  0  0  0  0  2  0  0  0  0  0  0
  -30.9810  -24.9970   19.7720 C   0  0  0  0  0  1  0  0  0  0  0  0
  -29.5430  -24.4580   19.8870 C   0  0  0  0  0  3  0  0  0  0  0  0
  -28.5670  -25.5820   20.3740 C   0  0  0  0  0  2  0  0  0  0  0  0
  -28.5570  -26.7960   19.5790 O   0  0  0  0  0  0  0  0  0  0  0  0
  -24.6220  -31.6290   23.0820 C   0  0  0  0  0  0  0  0  0  0  0  0
  -27.3780  -27.5160   19.6450 C   0  0  0  0  0  0  0  0  0  0  0  0
  -23.4380  -30.2870   21.3770 C   0  0  0  0  0  3  0  0  0  0  0  0
  -24.9220  -28.9230   19.8100 C   0  0  0  0  0  0  0  0  0  0  0  0
  -25.9410  -30.7740   21.1450 C   0  0  0  0  0  2  0  0  0  0  0  0
  -26.0730  -29.4550   20.4070 C   0  0  0  0  0  0  0  0  0  0  0  0
  -27.3050  -28.7610   20.3190 C   0  0  0  0  0  3  0  0  0  0  0  0
  -26.2100  -27.0160   19.0260 C   0  0  0  0  0  3  0  0  0  0  0  0
  -24.9880  -27.7060   19.1120 C   0  0  0  0  0  3  0  0  0  0  0  0
  -23.6390  -29.7140   19.9490 C   0  0  0  0  0  2  0  0  0  0  0  0
  -24.6860  -30.9080   21.9270 N   0  0  0  0  0  0  0  0  0  0  0  0
  -23.5450  -31.8130   23.6650 O   0  0  0  0  0  0  0  0  0  0  0  0
  -22.8590  -29.1730   22.2810 C   0  0  0  0  0  0  0  0  0  0  0  0
  -21.5440  -28.9280   22.1620 N   0  0  0  0  0  0  0  0  0  0  0  0
  -23.5900  -28.5360   23.0430 O   0  0  0  0  0  0  0  0  0  0  0  0
  -21.0130  -29.4970   21.5180 H   0  0  0  0  0  0  0  0  0  0  0  0
  -18.2470  -27.5250   22.6340 C   0  0  0  0  0  0  0  0  0  0  0  0
  -20.7920  -27.9010   22.8820 C   0  0  0  0  0  3  0  0  0  0  0  0
  -20.9590  -26.5180   22.2130 C   0  0  0  0  0  2  0  0  0  0  0  0
  -19.8570  -26.2030   21.1960 C   0  0  0  0  0  2  0  0  0  0  0  0
  -18.4810  -26.2330   21.8700 C   0  0  0  0  0  2  0  0  0  0  0  0
  -19.3310  -28.3170   23.0960 C   0  0  0  0  0  0  0  0  0  0  0  0
  -19.0580  -29.5260   23.7690 C   0  0  0  0  0  3  0  0  0  0  0  0
  -17.7320  -29.9460   23.9870 C   0  0  0  0  0  3  0  0  0  0  0  0
  -16.6620  -29.1510   23.5410 C   0  0  0  0  0  3  0  0  0  0  0  0
  -16.9200  -27.9410   22.8700 C   0  0  0  0  0  3  0  0  0  0  0  0
  -25.8950  -32.2770   23.7140 C   0  0  0  0  0  3  0  0  0  0  0  0
  -25.5240  -33.6220   24.1720 N   0  0  0  0  0  0  0  0  0  0  0  0
  -25.7710  -34.7520   23.4940 C   0  0  0  0  0  0  0  0  0  0  0  0
  -26.4060  -34.7730   22.4360 O   0  0  0  0  0  0  0  0  0  0  0  0
  -24.9540  -33.6770   25.0030 H   0  0  0  0  0  0  0  0  0  0  0  0
  -23.9410  -36.4700   23.3460 C   0  0  0  0  0  1  0  0  0  0  0  0
  -25.2260  -36.0660   24.0850 C   0  0  0  0  0  3  0  0  0  0  0  0
  -27.3310  -36.9970   24.9390 C   0  0  0  0  0  1  0  0  0  0  0  0
  -26.1980  -37.1800   24.0360 N   0  0  0  0  0  0  0  0  0  0  0  0
  -25.7480  -38.0620   24.2660 H   0  0  0  0  0  0  0  0  0  0  0  0
  -26.5010  -31.4290   24.8990 C   0  0  1  0  0  0  0  0  0  0  0  0
  -25.4660  -31.0420   25.9800 C   0  0  0  0  0  1  0  0  0  0  0  0
  -27.1370  -30.1240   24.3660 C   0  0  0  0  0  1  0  0  0  0  0  0
  -27.6360  -32.2270   25.5850 C   0  0  0  0  0  1  0  0  0  0  0  0
  1  2  2  0
  2  6  1  0
  2  8  1  0
  3  6  1  0
  4  1  1  0
  4  3  2  0
  5  3  1  0
  5 50  1  0
  7  5  1  0
  8 10  1  0
  9  8  1  0
 11  1  1  0
 11 20  1  0
 12 20  1  0
 13 18  1  0
 14 15  1  0
 14 13  1  0
 16 15  1  0
 16 25  1  0
 16 17  1  0
 18 12  1  0
 18 17  1  0
 19 12  2  0
 20 21  1  0
 22 23  2  0
 23 42  1  0
 24 23  1  0
 24 27  1  0
 25 26  1  0
 25 22  1  0
 26 24  2  0
 27 28  1  0
 28 29  2  0
 30 33  1  0
 30 29  1  0
 31 30  2  0
 32 31  1  0
 32 27  2  0
 33 34  1  0
 34 35  1  0
 35 36  2  0
 37 36  1  0
 37 41  1  0
 38 37  2  0
 39 34  2  0
 39 38  1  0
 40 39  1  0
 42 43  1  0
 43 46  1  0
 43 45  1  0
 44 42  2  0
 47 48  1  0
 47 22  1  0
 49 47  1  0
 50 52  1  0
 52 51  1  0
 54 53  1  0
 54 55  1  0
 54 50  1  0
 56 58  1  0
 56 55  1  0
 57 68  2  0
 58 63  1  0
 59 67  1  0
 59 69  1  0
 60 66  1  0
 60 62  1  0
 61 67  1  0
 62 61  1  0
 63 62  2  0
 64 65  1  0
 64 58  2  0
 65 60  2  0
 66 59  1  0
 67 57  1  0
 69 71  2  0
 70 69  1  0
 72 70  1  0
 73 82  2  0
 73 78  1  0
 74 70  1  0
 74 78  1  0
 75 74  1  0
 76 77  1  0
 76 75  1  0
 77 73  1  0
 78 79  2  0
 79 80  1  0
 81 80  2  0
 82 81  1  0
 83 57  1  0
 83 84  1  0
 83 93  1  0
 84 87  1  0
 85 89  1  0
 85 84  1  0
 86 85  2  0
 89 88  1  0
 91 89  1  0
 91 92  1  0
 91 90  1  0
 93 96  1  1
 93 94  1  0
 95 93  1  0
M  ISO  4  12 100  20 100  55 101  56 101
M  END
>  <TORSDO>  (92) 
F 22

>  <SCORE>  (92) 
-12.235

>  <name>  (92) 
91

>  <ligand_id>  (92) 
91

>  <original_smiles>  (92) 
[H]c1c([H])c([H])c2c(c1[H])C([H])([H])C([H])([H])C([H])([H])C2([H])N([H])C(=O)C1([H])N(C(=O)C([H])(N([H])C(=O)C([H])(N([H])C([H])([H])[H])C([H])([H])[H])C(C([H])([H])[H])(C([H])([H])[H])C([H])([H])[H])C([H])([H])c2c([H])c(OC([H])([H])C([H])(C([H])([H])[H])C([H])(N([H])c3nc(C([H])([H])N([H])C(=O)N4C([H])([H])C([H])([H])C([H])([H])C([H])(n5nc(-c6c([H])c([H])c(Oc7c([H])c([H])c(F)c([H])c7F)c([H])c6[H])c(C(=O)N([H])[H])c5N([H])[H])C4([H])[H])c(N([H])[H])s3)C([H])([H])C([H])([H])[H])c([H])c([H])c2C1([H])[H]

>  <smiles>  (92) 
[H]c1c([H])c([H])c2c(c1[H])C([H])([H])C([H])([H])C([H])([H])C2([H])N([H])C(=O)C1([H])N(C(=O)C([H])(N([H])C(=O)C([H])(N([H])C([H])([H])[H])C([H])([H])[H])C(C([H])([H])[H])(C([H])([H])[H])C([H])([H])[H])C([H])([H])c2c([H])c(OC([H])([H])C([H])(C([H])([H])[H])C([H])(N([H])c3nc(C([H])([H])N([H])C(=O)N4C([H])([H])C([H])([H])C([H])([H])C([H])(n5nc(-c6c([H])c([H])c(Oc7c([H])c([H])c(F)c([H])c7F)c([H])c6[H])c(C(=O)N([H])[H])c5N([H])[H])C4([H])[H])c(N([H])[H])s3)C([H])([H])C([H])([H])[H])c([H])c([H])c2C1([H])[H]

$$$$
92:0:0
     RDKit          3D

 91 99  0  0  1  0  0  0  0  0999 V2000
  -30.6180  -14.7930   20.4580 C   0  0  0  0  0  0  0  0  0  0  0  0
  -30.3900  -12.5200   19.4320 C   0  0  0  0  0  2  0  0  0  0  0  0
  -29.4770  -12.6050   18.1910 C   0  0  0  0  0  2  0  0  0  0  0  0
  -27.9970  -12.4470   18.5900 C   0  0  0  0  0  2  0  0  0  0  0  0
  -27.6090  -13.3250   19.8100 C   0  0  0  0  0  3  0  0  0  0  0  0
  -28.6520  -13.2420   20.9460 C   0  0  0  0  0  2  0  0  0  0  0  0
  -29.9570  -13.5840   20.3680 N   0  0  0  0  0  0  0  0  0  0  0  0
  -31.8170  -14.8350   20.1720 O   0  0  0  0  0  0  0  0  0  0  0  0
  -30.2800  -17.3780   20.7310 C   0  0  0  0  0  0  0  0  0  0  0  0
  -29.9130  -19.7520   20.7130 C   0  0  0  0  0  0  0  0  0  0  0  0
  -29.4150  -18.4640   20.5390 N   0  0  0  0  0  4  0  0  0  0  0  0
  -31.5660  -17.6350   21.0750 N   0  0  0  0  0  0  0  0  0  0  0  0
  -31.2020  -19.9500   21.0550 N   0  0  0  0  0  2  0  0  0  0  0  0
  -31.9990  -18.8920   21.2310 N   0  0  0  0  0  0  0  0  0  0  0  0
  -29.8660  -15.9550   20.6190 N   0  0  0  0  0  0  0  0  0  0  0  0
  -29.1140  -20.9370   20.4330 N   0  0  0  0  0  0  0  0  0  0  0  0
  -28.8720  -15.8100   20.6630 H   0  0  0  0  0  0  0  0  0  0  0  0
  -28.2020  -20.6690   20.0780 H   0  0  0  0  0  0  0  0  0  0  0  0
  -25.2110  -13.9230   20.4880 C   0  0  0  0  0  0  0  0  0  0  0  0
  -24.1390  -13.1530   20.8500 C   0  0  0  0  0  0  0  0  0  0  0  0
  -24.6020  -11.8000   20.8450 C   0  0  0  0  0  0  0  0  0  0  0  0
  -26.2590  -13.0400   20.2820 N   0  0  0  0  0  0  0  0  0  0  0  0
  -25.8990  -11.7610   20.5610 N   0  0  0  0  0  0  0  0  0  0  0  0
  -23.8700  -10.5410   21.0340 C   0  0  0  0  0  0  0  0  0  0  0  0
  -24.2890   -9.5760   21.9780 C   0  0  0  0  0  3  0  0  0  0  0  0
  -23.5540   -8.3850   22.1580 C   0  0  0  0  0  3  0  0  0  0  0  0
  -22.3860   -8.1490   21.3930 C   0  0  0  0  0  0  0  0  0  0  0  0
  -21.9860   -9.1010   20.4400 C   0  0  0  0  0  3  0  0  0  0  0  0
  -22.7220  -10.2840   20.2580 C   0  0  0  0  0  3  0  0  0  0  0  0
  -21.6250   -7.0080   21.4820 O   0  0  0  0  0  0  0  0  0  0  0  0
  -21.5690   -6.2660   22.6340 C   0  0  0  0  0  0  0  0  0  0  0  0
  -21.1540   -6.8270   23.8620 C   0  0  0  0  0  3  0  0  0  0  0  0
  -21.0450   -6.0140   25.0070 C   0  0  0  0  0  3  0  0  0  0  0  0
  -21.3390   -4.6400   24.9260 C   0  0  0  0  0  0  0  0  0  0  0  0
  -21.7470   -4.0780   23.7030 C   0  0  0  0  0  3  0  0  0  0  0  0
  -21.8580   -4.8890   22.5600 C   0  0  0  0  0  0  0  0  0  0  0  0
  -22.2300   -4.3380   21.3790 F   0  0  0  0  0  0  0  0  0  0  0  0
  -21.2270   -3.8570   26.0230 F   0  0  0  0  0  0  0  0  0  0  0  0
  -22.7370  -13.6340   21.0830 C   0  0  0  0  0  0  0  0  0  0  0  0
  -21.9910  -12.9540   21.9480 N   0  0  0  0  0  0  0  0  0  0  0  0
  -22.3110  -14.6490   20.5350 O   0  0  0  0  0  0  0  0  0  0  0  0
  -22.3500  -12.1320   22.4120 H   0  0  0  0  0  0  0  0  0  0  0  0
  -21.0490  -13.2580   22.1450 H   0  0  0  0  0  0  0  0  0  0  0  0
  -25.3760  -15.2900   20.2910 N   0  0  0  0  0  0  0  0  0  0  0  0
  -24.5970  -15.9390   20.3610 H   0  0  0  0  0  0  0  0  0  0  0  0
  -26.2130  -15.7230   19.9230 H   0  0  0  0  0  0  0  0  0  0  0  0
  -30.2400  -22.5370   22.1120 C   0  0  0  0  0  1  0  0  0  0  0  0
  -29.0880  -22.3160   21.1130 C   0  0  0  0  0  3  0  0  0  0  0  0
  -28.8970  -23.6680   20.2120 C   0  0  0  0  0  2  0  0  0  0  0  0
  -28.2740  -25.0260   20.8760 C   0  0  0  0  0  2  0  0  0  0  0  0
  -28.4400  -26.4240   20.3280 O   0  0  0  0  0  0  0  0  0  0  0  0
  -24.6420  -31.9080   23.2640 C   0  0  0  0  0  0  0  0  0  0  0  0
  -27.3280  -27.2970   20.3050 C   0  0  0  0  0  0  0  0  0  0  0  0
  -23.4730  -30.4810   21.6220 C   0  0  0  0  0  3  0  0  0  0  0  0
  -24.9560  -28.9190   20.2350 C   0  0  0  0  0  0  0  0  0  0  0  0
  -26.0140  -30.8090   21.4700 C   0  0  0  0  0  2  0  0  0  0  0  0
  -26.1160  -29.4190   20.8420 C   0  0  0  0  0  0  0  0  0  0  0  0
  -27.3070  -28.6230   20.8600 C   0  0  0  0  0  3  0  0  0  0  0  0
  -26.1470  -26.8620   19.6680 C   0  0  0  0  0  3  0  0  0  0  0  0
  -24.9770  -27.6500   19.6340 C   0  0  0  0  0  3  0  0  0  0  0  0
  -23.7140  -29.7890   20.2540 C   0  0  0  0  0  2  0  0  0  0  0  0
  -24.7280  -31.0860   22.1760 N   0  0  0  0  0  0  0  0  0  0  0  0
  -23.5500  -32.1820   23.7820 O   0  0  0  0  0  0  0  0  0  0  0  0
  -22.8020  -29.4740   22.5870 C   0  0  0  0  0  0  0  0  0  0  0  0
  -21.4760  -29.2940   22.4520 N   0  0  0  0  0  0  0  0  0  0  0  0
  -23.4740  -28.8540   23.4150 O   0  0  0  0  0  0  0  0  0  0  0  0
  -20.9920  -29.8460   21.7580 H   0  0  0  0  0  0  0  0  0  0  0  0
  -18.0960  -28.0980   22.9480 C   0  0  0  0  0  0  0  0  0  0  0  0
  -20.6550  -28.3600   23.2260 C   0  0  0  0  0  3  0  0  0  0  0  0
  -20.7580  -26.9260   22.6560 C   0  0  0  0  0  2  0  0  0  0  0  0
  -19.6600  -26.5990   21.6390 C   0  0  0  0  0  2  0  0  0  0  0  0
  -18.2760  -26.7460   22.2780 C   0  0  0  0  0  2  0  0  0  0  0  0
  -19.2130  -28.8630   23.3790 C   0  0  0  0  0  0  0  0  0  0  0  0
  -18.9920  -30.1280   23.9660 C   0  0  0  0  0  3  0  0  0  0  0  0
  -17.6860  -30.6280   24.1260 C   0  0  0  0  0  3  0  0  0  0  0  0
  -16.5830  -29.8620   23.7110 C   0  0  0  0  0  3  0  0  0  0  0  0
  -16.7890  -28.5990   23.1280 C   0  0  0  0  0  3  0  0  0  0  0  0
  -25.9100  -32.5580   23.8970 C   0  0  0  0  0  3  0  0  0  0  0  0
  -25.5860  -33.9580   24.2100 N   0  0  0  0  0  0  0  0  0  0  0  0
  -25.9160  -35.0070   23.4440 C   0  0  0  0  0  0  0  0  0  0  0  0
  -26.5920  -34.8970   22.4180 O   0  0  0  0  0  0  0  0  0  0  0  0
  -24.9860  -34.1160   25.0050 H   0  0  0  0  0  0  0  0  0  0  0  0
  -24.1750  -36.7830   23.0590 C   0  0  0  0  0  1  0  0  0  0  0  0
  -25.4130  -36.3960   23.8820 C   0  0  0  0  0  3  0  0  0  0  0  0
  -27.5370  -37.3070   24.7160 C   0  0  0  0  0  1  0  0  0  0  0  0
  -26.4390  -37.4570   23.7650 N   0  0  0  0  0  0  0  0  0  0  0  0
  -26.0250  -38.3750   23.9000 H   0  0  0  0  0  0  0  0  0  0  0  0
  -26.4150  -31.8050   25.1890 C   0  0  1  0  0  0  0  0  0  0  0  0
  -25.3100  -31.5740   26.2470 C   0  0  0  0  0  1  0  0  0  0  0  0
  -27.0100  -30.4260   24.8230 C   0  0  0  0  0  1  0  0  0  0  0  0
  -27.5520  -32.6150   25.8580 C   0  0  0  0  0  1  0  0  0  0  0  0
  1 15  1  0
  2  7  1  0
  3  4  1  0
  3  2  1  0
  5  4  1  0
  5 22  1  0
  5  6  1  0
  7  1  1  0
  7  6  1  0
  8  1  2  0
  9 12  1  0
 10 13  1  0
 11 10  2  0
 11  9  2  0
 12 14  2  0
 13 14  1  0
 15 17  1  0
 15  9  1  0
 16 10  1  0
 16 48  1  0
 18 16  1  0
 19 20  2  0
 20 39  1  0
 21 20  1  0
 21 24  1  0
 22 19  1  0
 22 23  1  0
 23 21  2  0
 24 25  1  0
 25 26  2  0
 27 30  1  0
 27 26  1  0
 28 27  2  0
 29 28  1  0
 29 24  2  0
 30 31  1  0
 31 32  1  0
 32 33  2  0
 34 33  1  0
 34 38  1  0
 35 34  2  0
 36 31  2  0
 36 35  1  0
 37 36  1  0
 39 40  1  0
 40 43  1  0
 40 42  1  0
 41 39  2  0
 44 45  1  0
 44 19  1  0
 46 44  1  0
 48 47  1  0
 49 50  1  0
 49 48  1  0
 51 50  1  0
 52 63  2  0
 53 51  1  0
 53 58  1  0
 54 62  1  0
 54 64  1  0
 55 61  1  0
 55 57  1  0
 56 62  1  0
 57 58  2  0
 57 56  1  0
 59 53  2  0
 60 59  1  0
 60 55  2  0
 61 54  1  0
 62 52  1  0
 64 66  2  0
 65 64  1  0
 67 65  1  0
 68 77  2  0
 68 73  1  0
 69 65  1  0
 69 73  1  0
 70 69  1  0
 71 72  1  0
 71 70  1  0
 72 68  1  0
 73 74  2  0
 74 75  1  0
 76 75  2  0
 77 76  1  0
 78 52  1  0
 78 79  1  0
 78 88  1  0
 79 82  1  0
 80 84  1  0
 80 79  1  0
 81 80  2  0
 84 83  1  0
 86 84  1  0
 86 87  1  0
 86 85  1  0
 88 91  1  1
 88 89  1  0
 90 88  1  0
M  ISO  4   1 100  15 100  50 101  51 101
M  END
>  <TORSDO>  (93) 
F 18

>  <SCORE>  (93) 
-14.874

>  <name>  (93) 
92

>  <ligand_id>  (93) 
92

>  <original_smiles>  (93) 
[H]c1c([H])c([H])c2c(c1[H])C([H])([H])C([H])([H])C([H])([H])C2([H])N([H])C(=O)C1([H])N(C(=O)C([H])(N([H])C(=O)C([H])(N([H])C([H])([H])[H])C([H])([H])[H])C(C([H])([H])[H])(C([H])([H])[H])C([H])([H])[H])C([H])([H])c2c([H])c(OC([H])([H])C([H])([H])C([H])(N([H])c3nnnc(N([H])C(=O)N4C([H])([H])C([H])([H])C([H])([H])C([H])(n5nc(-c6c([H])c([H])c(Oc7c([H])c([H])c(F)c([H])c7F)c([H])c6[H])c(C(=O)N([H])[H])c5N([H])[H])C4([H])[H])n3)C([H])([H])[H])c([H])c([H])c2C1([H])[H]

>  <smiles>  (93) 
[H]c1c([H])c([H])c2c(c1[H])C([H])([H])C([H])([H])C([H])([H])C2([H])N([H])C(=O)C1([H])N(C(=O)C([H])(N([H])C(=O)C([H])(N([H])C([H])([H])[H])C([H])([H])[H])C(C([H])([H])[H])(C([H])([H])[H])C([H])([H])[H])C([H])([H])c2c([H])c(OC([H])([H])C([H])([H])C([H])(N([H])c3nnnc(N([H])C(=O)N4C([H])([H])C([H])([H])C([H])([H])C([H])(n5nc(-c6c([H])c([H])c(Oc7c([H])c([H])c(F)c([H])c7F)c([H])c6[H])c(C(=O)N([H])[H])c5N([H])[H])C4([H])[H])n3)C([H])([H])[H])c([H])c([H])c2C1([H])[H]

$$$$
93:0:0
     RDKit          3D

 98106  0  0  1  0  0  0  0  0999 V2000
  -30.4620  -20.0030   18.4520 C   0  0  0  0  0  1  0  0  0  0  0  0
  -30.5410  -20.4350   19.9380 C   0  0  0  0  0  3  0  0  0  0  0  0
  -30.7530  -17.0100   22.5220 C   0  0  0  0  0  3  0  0  0  0  0  0
  -30.5460  -19.1900   20.8870 C   0  0  0  0  0  0  0  0  0  0  0  0
  -30.3290  -16.8480   21.1820 C   0  0  0  0  0  0  0  0  0  0  0  0
  -30.9960  -19.2860   22.2330 C   0  0  0  0  0  0  0  0  0  0  0  0
  -31.0720  -18.2160   23.0500 N   0  0  0  0  0  0  0  0  0  0  0  0
  -30.1930  -17.9570   20.3840 N   0  0  0  0  0  0  0  0  0  0  0  0
  -31.3710  -20.4860   22.8250 N   0  0  0  0  0  0  0  0  0  0  0  0
  -31.9740  -21.0920   22.2800 H   0  0  0  0  0  0  0  0  0  0  0  0
  -31.7480  -20.3800   23.7590 H   0  0  0  0  0  0  0  0  0  0  0  0
  -30.6800  -14.4970   20.3370 C   0  0  0  0  0  0  0  0  0  0  0  0
  -30.3790  -12.3350   19.1630 C   0  0  0  0  0  2  0  0  0  0  0  0
  -29.4190  -12.5460   17.9710 C   0  0  0  0  0  2  0  0  0  0  0  0
  -27.9460  -12.4150   18.4140 C   0  0  0  0  0  2  0  0  0  0  0  0
  -27.6330  -13.2350   19.6940 C   0  0  0  0  0  3  0  0  0  0  0  0
  -28.7010  -12.9920   20.7840 C   0  0  0  0  0  2  0  0  0  0  0  0
  -30.0150  -13.3120   20.2000 N   0  0  0  0  0  0  0  0  0  0  0  0
  -31.8240  -14.6620   19.9020 O   0  0  0  0  0  0  0  0  0  0  0  0
  -29.9260  -15.5250   20.8020 N   0  0  0  0  0  0  0  0  0  0  0  0
  -28.9990  -15.2600   21.0910 H   0  0  0  0  0  0  0  0  0  0  0  0
  -25.2510  -13.8720   20.4270 C   0  0  0  0  0  0  0  0  0  0  0  0
  -24.1770  -13.1150   20.8100 C   0  0  0  0  0  0  0  0  0  0  0  0
  -24.6210  -11.7570   20.7800 C   0  0  0  0  0  0  0  0  0  0  0  0
  -26.2820  -12.9770   20.1880 N   0  0  0  0  0  0  0  0  0  0  0  0
  -25.9080  -11.7000   20.4590 N   0  0  0  0  0  0  0  0  0  0  0  0
  -23.8800  -10.5060   20.9830 C   0  0  0  0  0  0  0  0  0  0  0  0
  -24.3060   -9.5400   21.9210 C   0  0  0  0  0  3  0  0  0  0  0  0
  -23.5680   -8.3520   22.1100 C   0  0  0  0  0  3  0  0  0  0  0  0
  -22.3900   -8.1200   21.3610 C   0  0  0  0  0  0  0  0  0  0  0  0
  -21.9820   -9.0760   20.4140 C   0  0  0  0  0  3  0  0  0  0  0  0
  -22.7210  -10.2550   20.2220 C   0  0  0  0  0  3  0  0  0  0  0  0
  -21.6230   -6.9850   21.4610 O   0  0  0  0  0  0  0  0  0  0  0  0
  -21.5670   -6.2510   22.6180 C   0  0  0  0  0  0  0  0  0  0  0  0
  -21.1450   -6.8190   23.8410 C   0  0  0  0  0  3  0  0  0  0  0  0
  -21.0360   -6.0130   24.9900 C   0  0  0  0  0  3  0  0  0  0  0  0
  -21.3400   -4.6400   24.9210 C   0  0  0  0  0  0  0  0  0  0  0  0
  -21.7560   -4.0720   23.7040 C   0  0  0  0  0  3  0  0  0  0  0  0
  -21.8660   -4.8750   22.5560 C   0  0  0  0  0  0  0  0  0  0  0  0
  -22.2480   -4.3190   21.3800 F   0  0  0  0  0  0  0  0  0  0  0  0
  -21.2270   -3.8640   26.0220 F   0  0  0  0  0  0  0  0  0  0  0  0
  -22.7880  -13.6110   21.0890 C   0  0  0  0  0  0  0  0  0  0  0  0
  -22.0560  -12.9310   21.9640 N   0  0  0  0  0  0  0  0  0  0  0  0
  -22.3600  -14.6410   20.5660 O   0  0  0  0  0  0  0  0  0  0  0  0
  -22.4130  -12.1020   22.4150 H   0  0  0  0  0  0  0  0  0  0  0  0
  -21.1220  -13.2490   22.1870 H   0  0  0  0  0  0  0  0  0  0  0  0
  -25.4310  -15.2380   20.2380 N   0  0  0  0  0  0  0  0  0  0  0  0
  -24.6680  -15.8990   20.3340 H   0  0  0  0  0  0  0  0  0  0  0  0
  -26.2660  -15.6570   19.8500 H   0  0  0  0  0  0  0  0  0  0  0  0
  -29.5880  -21.5540   20.3160 N   0  0  0  0  0  4  0  0  0  0  0  0
  -29.8630  -21.8600   21.2380 H   0  0  0  0  0  0  0  0  0  0  0  0
  -28.6660  -21.1600   20.4080 H   0  0  0  0  0  0  0  0  0  0  0  0
  -28.3700  -22.5890   18.3740 C   0  0  0  0  0  1  0  0  0  0  0  0
  -29.5130  -22.7580   19.3990 C   0  0  0  0  0  3  0  0  0  0  0  0
  -29.5560  -24.2140   20.0440 C   0  0  0  0  0  2  0  0  0  0  0  0
  -27.5190  -24.5370   21.5250 C   0  0  0  0  0  1  0  0  0  0  0  0
  -28.2280  -25.0360   20.2520 C   0  0  0  0  0  3  0  0  0  0  0  0
  -28.3960  -26.4960   20.3100 O   0  0  0  0  0  0  0  0  0  0  0  0
  -24.6130  -31.8580   23.2400 C   0  0  0  0  0  0  0  0  0  0  0  0
  -27.2550  -27.3080   20.2390 C   0  0  0  0  0  0  0  0  0  0  0  0
  -23.4210  -30.4430   21.6060 C   0  0  0  0  0  3  0  0  0  0  0  0
  -24.8790  -28.8900   20.2070 C   0  0  0  0  0  0  0  0  0  0  0  0
  -25.9590  -30.7710   21.4370 C   0  0  0  0  0  2  0  0  0  0  0  0
  -26.0420  -29.3910   20.8040 C   0  0  0  0  0  0  0  0  0  0  0  0
  -27.2330  -28.6110   20.8100 C   0  0  0  0  0  3  0  0  0  0  0  0
  -26.0630  -26.8540   19.6180 C   0  0  0  0  0  3  0  0  0  0  0  0
  -24.8900  -27.6250   19.6080 C   0  0  0  0  0  3  0  0  0  0  0  0
  -23.6420  -29.7560   20.2350 C   0  0  0  0  0  2  0  0  0  0  0  0
  -24.6830  -31.0400   22.1510 N   0  0  0  0  0  0  0  0  0  0  0  0
  -23.5260  -32.1410   23.7620 O   0  0  0  0  0  0  0  0  0  0  0  0
  -22.7510  -29.4340   22.5680 C   0  0  0  0  0  0  0  0  0  0  0  0
  -21.4260  -29.2530   22.4250 N   0  0  0  0  0  0  0  0  0  0  0  0
  -23.4190  -28.8170   23.4010 O   0  0  0  0  0  0  0  0  0  0  0  0
  -20.9470  -29.8040   21.7250 H   0  0  0  0  0  0  0  0  0  0  0  0
  -18.0410  -28.0700   22.8950 C   0  0  0  0  0  0  0  0  0  0  0  0
  -20.5970  -28.3260   23.1970 C   0  0  0  0  0  3  0  0  0  0  0  0
  -20.7030  -26.8880   22.6380 C   0  0  0  0  0  2  0  0  0  0  0  0
  -19.6130  -26.5550   21.6150 C   0  0  0  0  0  2  0  0  0  0  0  0
  -18.2230  -26.7110   22.2390 C   0  0  0  0  0  2  0  0  0  0  0  0
  -19.1570  -28.8340   23.3290 C   0  0  0  0  0  0  0  0  0  0  0  0
  -18.9330  -30.1060   23.9020 C   0  0  0  0  0  3  0  0  0  0  0  0
  -17.6280  -30.6130   24.0460 C   0  0  0  0  0  3  0  0  0  0  0  0
  -16.5270  -29.8440   23.6290 C   0  0  0  0  0  3  0  0  0  0  0  0
  -16.7350  -28.5750   23.0600 C   0  0  0  0  0  3  0  0  0  0  0  0
  -25.8940  -32.4930   23.8650 C   0  0  0  0  0  3  0  0  0  0  0  0
  -25.5800  -33.8910   24.1900 N   0  0  0  0  0  0  0  0  0  0  0  0
  -25.9120  -34.9410   23.4270 C   0  0  0  0  0  0  0  0  0  0  0  0
  -26.5860  -34.8360   22.3990 O   0  0  0  0  0  0  0  0  0  0  0  0
  -24.9820  -34.0470   24.9880 H   0  0  0  0  0  0  0  0  0  0  0  0
  -24.1850  -36.7310   23.0560 C   0  0  0  0  0  1  0  0  0  0  0  0
  -25.4190  -36.3300   23.8780 C   0  0  0  0  0  3  0  0  0  0  0  0
  -27.5440  -37.2210   24.7260 C   0  0  0  0  0  1  0  0  0  0  0  0
  -26.4520  -37.3840   23.7710 N   0  0  0  0  0  0  0  0  0  0  0  0
  -26.0430  -38.3030   23.9130 H   0  0  0  0  0  0  0  0  0  0  0  0
  -26.4040  -31.7240   25.1460 C   0  0  1  0  0  0  0  0  0  0  0  0
  -25.3040  -31.4870   26.2070 C   0  0  0  0  0  1  0  0  0  0  0  0
  -26.9920  -30.3450   24.7620 C   0  0  0  0  0  1  0  0  0  0  0  0
  -27.5480  -32.5220   25.8140 C   0  0  0  0  0  1  0  0  0  0  0  0
  2  1  1  0
  2 50  1  0
  2  4  1  0
  3  7  1  0
  4  6  1  0
  5  3  2  0
  6  9  1  0
  6  7  2  0
  8  4  2  0
  8  5  1  0
  9 11  1  0
 10  9  1  0
 12 20  1  0
 13 18  1  0
 14 15  1  0
 14 13  1  0
 16 15  1  0
 16 25  1  0
 16 17  1  0
 18 12  1  0
 18 17  1  0
 19 12  2  0
 20 21  1  0
 20  5  1  0
 22 23  2  0
 23 42  1  0
 24 23  1  0
 24 27  1  0
 25 22  1  0
 25 26  1  0
 26 24  2  0
 27 28  1  0
 28 29  2  0
 30 33  1  0
 30 29  1  0
 31 30  2  0
 32 31  1  0
 32 27  2  0
 33 34  1  0
 34 35  1  0
 35 36  2  0
 37 36  1  0
 37 41  1  0
 38 37  2  0
 39 34  2  0
 39 38  1  0
 40 39  1  0
 42 43  1  0
 43 46  1  0
 43 45  1  0
 44 42  2  0
 47 48  1  0
 47 22  1  0
 49 47  1  0
 50 52  1  0
 50 51  1  0
 54 53  1  0
 54 55  1  0
 54 50  1  0
 55 57  1  0
 57 58  1  0
 57 56  1  0
 59 70  2  0
 60 58  1  0
 60 65  1  0
 61 69  1  0
 61 71  1  0
 62 68  1  0
 62 64  1  0
 63 69  1  0
 64 65  2  0
 64 63  1  0
 66 60  2  0
 67 66  1  0
 67 62  2  0
 68 61  1  0
 69 59  1  0
 71 73  2  0
 72 71  1  0
 74 72  1  0
 75 84  2  0
 75 80  1  0
 76 72  1  0
 76 80  1  0
 77 76  1  0
 78 79  1  0
 78 77  1  0
 79 75  1  0
 80 81  2  0
 81 82  1  0
 83 82  2  0
 84 83  1  0
 85 59  1  0
 85 86  1  0
 85 95  1  0
 86 89  1  0
 87 91  1  0
 87 86  1  0
 88 87  2  0
 91 90  1  0
 93 91  1  0
 93 94  1  0
 93 92  1  0
 95 98  1  1
 95 96  1  0
 97 95  1  0
M  ISO  4  12 100  20 100  57 101  58 101
M  END
>  <TORSDO>  (94) 
F 21

>  <SCORE>  (94) 
-13.508

>  <name>  (94) 
93

>  <ligand_id>  (94) 
93

>  <original_smiles>  (94) 
[H]c1nc(N([H])[H])c(C([H])(C([H])([H])[H])[N+]([H])([H])C([H])(C([H])([H])[H])C([H])([H])C([H])(Oc2c([H])c([H])c3c(c2[H])C([H])([H])N(C(=O)C([H])(N([H])C(=O)C([H])(N([H])C([H])([H])[H])C([H])([H])[H])C(C([H])([H])[H])(C([H])([H])[H])C([H])([H])[H])C([H])(C(=O)N([H])C2([H])c4c([H])c([H])c([H])c([H])c4C([H])([H])C([H])([H])C2([H])[H])C3([H])[H])C([H])([H])[H])nc1N([H])C(=O)N1C([H])([H])C([H])([H])C([H])([H])C([H])(n2nc(-c3c([H])c([H])c(Oc4c([H])c([H])c(F)c([H])c4F)c([H])c3[H])c(C(=O)N([H])[H])c2N([H])[H])C1([H])[H]

>  <smiles>  (94) 
[H]c1nc(N([H])[H])c(C([H])(C([H])([H])[H])[N+]([H])([H])C([H])(C([H])([H])[H])C([H])([H])C([H])(Oc2c([H])c([H])c3c(c2[H])C([H])([H])N(C(=O)C([H])(N([H])C(=O)C([H])(N([H])C([H])([H])[H])C([H])([H])[H])C(C([H])([H])[H])(C([H])([H])[H])C([H])([H])[H])C([H])(C(=O)N([H])C2([H])c4c([H])c([H])c([H])c([H])c4C([H])([H])C([H])([H])C2([H])[H])C3([H])[H])C([H])([H])[H])nc1N([H])C(=O)N1C([H])([H])C([H])([H])C([H])([H])C([H])(n2nc(-c3c([H])c([H])c(Oc4c([H])c([H])c(F)c([H])c4F)c([H])c3[H])c(C(=O)N([H])[H])c2N([H])[H])C1([H])[H]

$$$$
