0:0:0
     RDKit          3D

 92100  0  0  1  0  0  0  0  0999 V2000
  -29.0210  -23.0690   20.8980 C   0  0  0  0  0  2  0  0  0  0  0  0
  -29.9400  -21.9950   20.4910 N   0  0  0  0  0  0  0  0  0  0  0  0
  -30.8630  -22.2900   20.1700 H   0  0  0  0  0  0  0  0  0  0  0  0
  -30.5740  -19.6220   20.1600 C   0  0  0  0  0  3  0  0  0  0  0  0
  -28.3380  -20.0840   20.5920 C   0  0  0  0  0  3  0  0  0  0  0  0
  -29.5870  -20.6250   20.4290 C   0  0  0  0  0  0  0  0  0  0  0  0
  -30.0800  -18.3370   20.1060 C   0  0  0  0  0  0  0  0  0  0  0  0
  -28.3530  -18.3400   20.3920 S   0  0  0  0  0  0  0  0  0  0  0  0
  -30.9150  -17.1140   19.7920 C   0  0  0  0  0  2  0  0  0  0  0  0
  -31.2680  -14.6920   20.0580 C   0  0  0  0  0  0  0  0  0  0  0  0
  -30.9230  -12.4870   19.0230 C   0  0  0  0  0  2  0  0  0  0  0  0
  -29.9510  -12.6560   17.8380 C   0  0  0  0  0  2  0  0  0  0  0  0
  -28.4970  -12.5180   18.3260 C   0  0  0  0  0  2  0  0  0  0  0  0
  -28.1900  -13.4000   19.5650 C   0  0  0  0  0  3  0  0  0  0  0  0
  -29.2820  -13.2500   20.6500 C   0  0  0  0  0  2  0  0  0  0  0  0
  -30.5840  -13.5160   20.0220 N   0  0  0  0  0  0  0  0  0  0  0  0
  -32.4050  -14.8040   19.5920 O   0  0  0  0  0  0  0  0  0  0  0  0
  -30.5560  -15.8020   20.3730 N   0  0  0  0  0  0  0  0  0  0  0  0
  -29.6270  -15.6820   20.7520 H   0  0  0  0  0  0  0  0  0  0  0  0
  -25.8400  -14.0190   20.4060 C   0  0  0  0  0  0  0  0  0  0  0  0
  -24.7800  -13.2540   20.8050 C   0  0  0  0  0  0  0  0  0  0  0  0
  -25.2180  -11.8970   20.7140 C   0  0  0  0  0  0  0  0  0  0  0  0
  -26.8580  -13.1300   20.0990 N   0  0  0  0  0  0  0  0  0  0  0  0
  -26.4900  -11.8450   20.3460 N   0  0  0  0  0  0  0  0  0  0  0  0
  -24.4800  -10.6430   20.9020 C   0  0  0  0  0  0  0  0  0  0  0  0
  -24.8750   -9.6880   21.8630 C   0  0  0  0  0  3  0  0  0  0  0  0
  -24.1410   -8.4950   22.0370 C   0  0  0  0  0  3  0  0  0  0  0  0
  -22.9950   -8.2480   21.2450 C   0  0  0  0  0  0  0  0  0  0  0  0
  -22.6180   -9.1900   20.2700 C   0  0  0  0  0  3  0  0  0  0  0  0
  -23.3560  -10.3740   20.0960 C   0  0  0  0  0  3  0  0  0  0  0  0
  -22.2340   -7.1060   21.3270 O   0  0  0  0  0  0  0  0  0  0  0  0
  -22.0640   -6.4380   22.5140 C   0  0  0  0  0  0  0  0  0  0  0  0
  -21.4960   -7.0610   23.6450 C   0  0  0  0  0  3  0  0  0  0  0  0
  -21.2720   -6.3160   24.8210 C   0  0  0  0  0  3  0  0  0  0  0  0
  -21.6110   -4.9510   24.8650 C   0  0  0  0  0  0  0  0  0  0  0  0
  -22.1720   -4.3280   23.7370 C   0  0  0  0  0  3  0  0  0  0  0  0
  -22.3940   -5.0700   22.5640 C   0  0  0  0  0  0  0  0  0  0  0  0
  -22.9150   -4.4580   21.4720 F   0  0  0  0  0  0  0  0  0  0  0  0
  -21.3890   -4.2330   25.9920 F   0  0  0  0  0  0  0  0  0  0  0  0
  -23.4040  -13.7430   21.1520 C   0  0  0  0  0  0  0  0  0  0  0  0
  -22.7070  -13.0450   22.0400 N   0  0  0  0  0  0  0  0  0  0  0  0
  -22.9580  -14.7850   20.6700 O   0  0  0  0  0  0  0  0  0  0  0  0
  -23.0830  -12.2050   22.4550 H   0  0  0  0  0  0  0  0  0  0  0  0
  -21.7830  -13.3540   22.3070 H   0  0  0  0  0  0  0  0  0  0  0  0
  -26.0160  -15.3910   20.2540 N   0  0  0  0  0  0  0  0  0  0  0  0
  -25.2570  -16.0490   20.4020 H   0  0  0  0  0  0  0  0  0  0  0  0
  -26.8400  -15.8320   19.8670 H   0  0  0  0  0  0  0  0  0  0  0  0
  -29.4330  -24.4640   20.3470 C   0  0  0  0  0  3  0  0  0  0  0  0
  -30.7750  -24.7040   20.7310 O   0  0  0  0  0  0  0  0  0  0  0  0
  -31.0210  -25.5460   20.3580 H   0  0  0  0  0  0  0  0  0  0  0  0
  -28.5440  -25.6040   20.9140 C   0  0  0  0  0  2  0  0  0  0  0  0
  -28.6950  -26.8530   20.2160 O   0  0  0  0  0  0  0  0  0  0  0  0
  -24.9510  -31.8310   23.6810 C   0  0  0  0  0  0  0  0  0  0  0  0
  -27.5640  -27.6410   20.2540 C   0  0  0  0  0  0  0  0  0  0  0  0
  -23.7540  -30.6290   21.8830 C   0  0  0  0  0  3  0  0  0  0  0  0
  -25.2070  -29.1950   20.3510 C   0  0  0  0  0  0  0  0  0  0  0  0
  -26.2930  -30.9350   21.7830 C   0  0  0  0  0  2  0  0  0  0  0  0
  -26.3620  -29.6350   21.0100 C   0  0  0  0  0  0  0  0  0  0  0  0
  -27.5480  -28.8640   20.9580 C   0  0  0  0  0  3  0  0  0  0  0  0
  -26.3970  -27.2170   19.5820 C   0  0  0  0  0  3  0  0  0  0  0  0
  -25.2210  -27.9850   19.6370 C   0  0  0  0  0  3  0  0  0  0  0  0
  -23.9820  -30.0740   20.4520 C   0  0  0  0  0  2  0  0  0  0  0  0
  -25.0160  -31.1420   22.5070 N   0  0  0  0  0  0  0  0  0  0  0  0
  -23.8610  -32.0820   24.2160 O   0  0  0  0  0  0  0  0  0  0  0  0
  -23.0510  -29.5390   22.7240 C   0  0  0  0  0  0  0  0  0  0  0  0
  -21.7300  -29.3910   22.5250 N   0  0  0  0  0  0  0  0  0  0  0  0
  -23.6910  -28.8340   23.5060 O   0  0  0  0  0  0  0  0  0  0  0  0
  -21.2770  -30.0140   21.8720 H   0  0  0  0  0  0  0  0  0  0  0  0
  -18.3260  -28.2060   22.7580 C   0  0  0  0  0  0  0  0  0  0  0  0
  -20.8700  -28.4060   23.1750 C   0  0  0  0  0  3  0  0  0  0  0  0
  -20.9860  -27.0240   22.4890 C   0  0  0  0  0  2  0  0  0  0  0  0
  -19.9330  -26.8010   21.3980 C   0  0  0  0  0  2  0  0  0  0  0  0
  -18.5220  -26.9140   21.9830 C   0  0  0  0  0  2  0  0  0  0  0  0
  -19.4280  -28.9150   23.3030 C   0  0  0  0  0  0  0  0  0  0  0  0
  -19.1930  -30.1300   23.9810 C   0  0  0  0  0  3  0  0  0  0  0  0
  -17.8880  -30.6360   24.1210 C   0  0  0  0  0  3  0  0  0  0  0  0
  -16.7980  -29.9220   23.5940 C   0  0  0  0  0  3  0  0  0  0  0  0
  -17.0170  -28.7090   22.9190 C   0  0  0  0  0  3  0  0  0  0  0  0
  -26.2350  -32.3630   24.3900 C   0  0  0  0  0  3  0  0  0  0  0  0
  -25.9630  -33.7390   24.8240 N   0  0  0  0  0  0  0  0  0  0  0  0
  -26.3730  -34.8350   24.1720 C   0  0  0  0  0  0  0  0  0  0  0  0
  -27.0860  -34.7890   23.1660 O   0  0  0  0  0  0  0  0  0  0  0  0
  -25.3280  -33.8560   25.6000 H   0  0  0  0  0  0  0  0  0  0  0  0
  -24.7410  -36.7290   23.8850 C   0  0  0  0  0  1  0  0  0  0  0  0
  -25.9160  -36.1990   24.7230 C   0  0  0  0  0  3  0  0  0  0  0  0
  -28.0300  -36.9110   25.7480 C   0  0  0  0  0  1  0  0  0  0  0  0
  -26.9940  -37.2090   24.7600 N   0  0  0  0  0  0  0  0  0  0  0  0
  -26.6200  -38.1330   24.9610 H   0  0  0  0  0  0  0  0  0  0  0  0
  -26.6880  -31.4730   25.6110 C   0  0  1  0  0  0  0  0  0  0  0  0
  -25.5520  -31.1780   26.6180 C   0  0  0  0  0  1  0  0  0  0  0  0
  -27.2540  -30.1200   25.1210 C   0  0  0  0  0  1  0  0  0  0  0  0
  -27.8340  -32.1790   26.3760 C   0  0  0  0  0  1  0  0  0  0  0  0
  2  1  1  0
  3  2  1  0
  4  6  1  0
  6  2  1  0
  6  5  2  0
  7  4  2  0
  7  8  1  0
  8  5  1  0
  9  7  1  0
  9 18  1  0
 10 18  1  0
 11 16  1  0
 12 13  1  0
 12 11  1  0
 14 13  1  0
 14 23  1  0
 14 15  1  0
 16 10  1  0
 16 15  1  0
 17 10  2  0
 18 19  1  0
 20 21  2  0
 21 40  1  0
 22 21  1  0
 22 25  1  0
 23 24  1  0
 23 20  1  0
 24 22  2  0
 25 26  1  0
 26 27  2  0
 28 31  1  0
 28 27  1  0
 29 28  2  0
 30 29  1  0
 30 25  2  0
 31 32  1  0
 32 37  2  0
 32 33  1  0
 33 34  2  0
 34 35  1  0
 35 39  1  0
 36 35  2  0
 37 36  1  0
 38 37  1  0
 40 41  1  0
 41 44  1  0
 41 43  1  0
 42 40  2  0
 45 46  1  0
 45 20  1  0
 47 45  1  0
 48 49  1  0
 48  1  1  0
 48 51  1  0
 50 49  1  0
 52 54  1  0
 52 51  1  0
 53 64  2  0
 54 59  1  0
 55 63  1  0
 55 65  1  0
 56 62  1  0
 56 58  1  0
 57 63  1  0
 58 57  1  0
 59 58  2  0
 60 61  1  0
 60 54  2  0
 61 56  2  0
 62 55  1  0
 63 53  1  0
 65 67  2  0
 66 65  1  0
 68 66  1  0
 69 78  2  0
 69 74  1  0
 70 66  1  0
 70 74  1  0
 71 70  1  0
 72 73  1  0
 72 71  1  0
 73 69  1  0
 74 75  2  0
 75 76  1  0
 77 76  2  0
 78 77  1  0
 79 53  1  0
 79 80  1  0
 79 89  1  0
 80 83  1  0
 81 85  1  0
 81 80  1  0
 82 81  2  0
 85 84  1  0
 85 87  1  0
 87 88  1  0
 87 86  1  0
 89 92  1  1
 89 90  1  0
 91 89  1  0
M  ISO  4  10 100  18 100  51 101  52 101
M  END
>  <TORSDO>  (1) 
F 22

>  <SCORE>  (1) 
-12.052

>  <name>  (1) 
0

>  <ligand_id>  (1) 
0

>  <original_smiles>  (1) 
[H]OC([H])(C([H])([H])Oc1c([H])c([H])c2c(c1[H])C([H])([H])N(C(=O)C([H])(N([H])C(=O)C([H])(N([H])C([H])([H])[H])C([H])([H])[H])C(C([H])([H])[H])(C([H])([H])[H])C([H])([H])[H])C([H])(C(=O)N([H])C1([H])c3c([H])c([H])c([H])c([H])c3C([H])([H])C([H])([H])C1([H])[H])C2([H])[H])C([H])([H])N([H])c1c([H])sc(C([H])([H])N([H])C(=O)N2C([H])([H])C([H])([H])C([H])([H])C([H])(n3nc(-c4c([H])c([H])c(Oc5c([H])c([H])c(F)c([H])c5F)c([H])c4[H])c(C(=O)N([H])[H])c3N([H])[H])C2([H])[H])c1[H]

>  <smiles>  (1) 
[H]OC([H])(C([H])([H])Oc1c([H])c([H])c2c(c1[H])C([H])([H])N(C(=O)C([H])(N([H])C(=O)C([H])(N([H])C([H])([H])[H])C([H])([H])[H])C(C([H])([H])[H])(C([H])([H])[H])C([H])([H])[H])C([H])(C(=O)N([H])C1([H])c3c([H])c([H])c([H])c([H])c3C([H])([H])C([H])([H])C1([H])[H])C2([H])[H])C([H])([H])N([H])c1c([H])sc(C([H])([H])N([H])C(=O)N2C([H])([H])C([H])([H])C([H])([H])C([H])(n3nc(-c4c([H])c([H])c(Oc5c([H])c([H])c(F)c([H])c5F)c([H])c4[H])c(C(=O)N([H])[H])c3N([H])[H])C2([H])[H])c1[H]

$$$$
1:0:0
     RDKit          3D

 93101  0  0  1  0  0  0  0  0999 V2000
  -29.6550  -21.6050   19.9580 N   0  0  0  0  0  4  0  0  0  0  0  0
  -29.7170  -21.7700   18.9680 H   0  0  0  0  0  0  0  0  0  0  0  0
  -30.3590  -21.4320   20.6590 H   0  0  0  0  0  0  0  0  0  0  0  0
  -29.5130  -19.9890   18.0920 C   0  0  0  0  0  1  0  0  0  0  0  0
  -30.2460  -20.3300   19.4050 C   0  0  0  0  0  3  0  0  0  0  0  0
  -30.9410  -14.5320   19.9870 C   0  0  0  0  0  0  0  0  0  0  0  0
  -30.5800  -12.3980   18.7680 C   0  0  0  0  0  2  0  0  0  0  0  0
  -29.5300  -12.6420   17.6620 C   0  0  0  0  0  2  0  0  0  0  0  0
  -28.0990  -12.4840   18.2110 C   0  0  0  0  0  2  0  0  0  0  0  0
  -27.8810  -13.2470   19.5460 C   0  0  0  0  0  3  0  0  0  0  0  0
  -29.0320  -12.9640   20.5360 C   0  0  0  0  0  2  0  0  0  0  0  0
  -30.3000  -13.3280   19.8750 N   0  0  0  0  0  0  0  0  0  0  0  0
  -31.9890  -14.7840   19.3830 O   0  0  0  0  0  0  0  0  0  0  0  0
  -29.8550  -19.1550   21.6910 C   0  0  0  0  0  3  0  0  0  0  0  0
  -30.1870  -19.1150   20.3600 C   0  0  0  0  0  0  0  0  0  0  0  0
  -30.3400  -16.8560   20.9180 C   0  0  0  0  0  0  0  0  0  0  0  0
  -30.4950  -17.7820   19.9410 N   0  0  0  0  0  0  0  0  0  0  0  0
  -30.3160  -15.4230   20.7910 N   0  0  0  0  0  0  0  0  0  0  0  0
  -29.8710  -17.5840   22.4470 S   0  0  0  0  0  0  0  0  0  0  0  0
  -29.6300  -14.9810   21.3820 H   0  0  0  0  0  0  0  0  0  0  0  0
  -25.5790  -13.8270   20.5360 C   0  0  0  0  0  0  0  0  0  0  0  0
  -24.5290  -13.0470   20.9340 C   0  0  0  0  0  0  0  0  0  0  0  0
  -24.9450  -11.6950   20.7330 C   0  0  0  0  0  0  0  0  0  0  0  0
  -26.5720  -12.9520   20.1260 N   0  0  0  0  0  0  0  0  0  0  0  0
  -26.1990  -11.6590   20.2980 N   0  0  0  0  0  0  0  0  0  0  0  0
  -24.2050  -10.4360   20.8790 C   0  0  0  0  0  0  0  0  0  0  0  0
  -24.6390   -9.4180   21.7560 C   0  0  0  0  0  3  0  0  0  0  0  0
  -23.8980   -8.2240   21.8920 C   0  0  0  0  0  3  0  0  0  0  0  0
  -22.7080   -8.0390   21.1500 C   0  0  0  0  0  0  0  0  0  0  0  0
  -22.2920   -9.0460   20.2610 C   0  0  0  0  0  3  0  0  0  0  0  0
  -23.0340  -10.2320   20.1240 C   0  0  0  0  0  3  0  0  0  0  0  0
  -21.9400   -6.9020   21.1960 O   0  0  0  0  0  0  0  0  0  0  0  0
  -21.8260   -6.1550   22.3410 C   0  0  0  0  0  0  0  0  0  0  0  0
  -21.3360   -6.7090   23.5440 C   0  0  0  0  0  3  0  0  0  0  0  0
  -21.1710   -5.8910   24.6780 C   0  0  0  0  0  3  0  0  0  0  0  0
  -21.4850   -4.5190   24.6100 C   0  0  0  0  0  0  0  0  0  0  0  0
  -21.9660   -3.9660   23.4110 C   0  0  0  0  0  3  0  0  0  0  0  0
  -22.1330   -4.7810   22.2780 C   0  0  0  0  0  0  0  0  0  0  0  0
  -22.5780   -4.2390   21.1190 F   0  0  0  0  0  0  0  0  0  0  0  0
  -21.3180   -3.7300   25.6970 F   0  0  0  0  0  0  0  0  0  0  0  0
  -23.1800  -13.5250   21.3850 C   0  0  0  0  0  0  0  0  0  0  0  0
  -22.5290  -12.7790   22.2700 N   0  0  0  0  0  0  0  0  0  0  0  0
  -22.7140  -14.5950   20.9920 O   0  0  0  0  0  0  0  0  0  0  0  0
  -22.9210  -11.9130   22.6100 H   0  0  0  0  0  0  0  0  0  0  0  0
  -21.6270  -13.0800   22.6120 H   0  0  0  0  0  0  0  0  0  0  0  0
  -25.7640  -15.2070   20.4680 N   0  0  0  0  0  0  0  0  0  0  0  0
  -25.0190  -15.8560   20.6930 H   0  0  0  0  0  0  0  0  0  0  0  0
  -26.5900  -15.6630   20.1010 H   0  0  0  0  0  0  0  0  0  0  0  0
  -30.8460  -23.3440   18.5450 C   0  0  0  0  0  1  0  0  0  0  0  0
  -30.2600  -22.9880   19.9270 C   0  0  0  0  0  3  0  0  0  0  0  0
  -29.3980  -24.1700   20.5650 C   0  0  0  0  0  2  0  0  0  0  0  0
  -28.5580  -25.1620   19.6680 C   0  0  0  0  0  2  0  0  0  0  0  0
  -28.5070  -26.5430   20.1640 O   0  0  0  0  0  0  0  0  0  0  0  0
  -24.7490  -31.8140   23.2600 C   0  0  0  0  0  0  0  0  0  0  0  0
  -27.3410  -27.3160   20.1250 C   0  0  0  0  0  0  0  0  0  0  0  0
  -23.5270  -30.4370   21.6130 C   0  0  0  0  0  3  0  0  0  0  0  0
  -24.9630  -28.9000   20.1650 C   0  0  0  0  0  0  0  0  0  0  0  0
  -26.0640  -30.7560   21.4180 C   0  0  0  0  0  2  0  0  0  0  0  0
  -26.1340  -29.3890   20.7550 C   0  0  0  0  0  0  0  0  0  0  0  0
  -27.3220  -28.6060   20.7310 C   0  0  0  0  0  3  0  0  0  0  0  0
  -26.1430  -26.8690   19.5160 C   0  0  0  0  0  3  0  0  0  0  0  0
  -24.9680  -27.6400   19.5450 C   0  0  0  0  0  3  0  0  0  0  0  0
  -23.7290  -29.7730   20.2270 C   0  0  0  0  0  2  0  0  0  0  0  0
  -24.7990  -31.0190   22.1530 N   0  0  0  0  0  0  0  0  0  0  0  0
  -23.6700  -32.0940   23.8030 O   0  0  0  0  0  0  0  0  0  0  0  0
  -22.8660  -29.4130   22.5670 C   0  0  0  0  0  0  0  0  0  0  0  0
  -21.5370  -29.2430   22.4440 N   0  0  0  0  0  0  0  0  0  0  0  0
  -23.5460  -28.7780   23.3760 O   0  0  0  0  0  0  0  0  0  0  0  0
  -21.0460  -29.8080   21.7680 H   0  0  0  0  0  0  0  0  0  0  0  0
  -18.1600  -28.0560   22.9470 C   0  0  0  0  0  0  0  0  0  0  0  0
  -20.7200  -28.3010   23.2090 C   0  0  0  0  0  3  0  0  0  0  0  0
  -20.8120  -26.8730   22.6220 C   0  0  0  0  0  2  0  0  0  0  0  0
  -19.7060  -26.5670   21.6080 C   0  0  0  0  0  2  0  0  0  0  0  0
  -18.3260  -26.7140   22.2580 C   0  0  0  0  0  2  0  0  0  0  0  0
  -19.2830  -28.8100   23.3790 C   0  0  0  0  0  0  0  0  0  0  0  0
  -19.0770  -30.0710   23.9820 C   0  0  0  0  0  3  0  0  0  0  0  0
  -17.7760  -30.5810   24.1540 C   0  0  0  0  0  3  0  0  0  0  0  0
  -16.6640  -29.8230   23.7390 C   0  0  0  0  0  3  0  0  0  0  0  0
  -16.8590  -28.5630   23.1440 C   0  0  0  0  0  3  0  0  0  0  0  0
  -26.0390  -32.4330   23.8810 C   0  0  0  0  0  3  0  0  0  0  0  0
  -26.5710  -31.6320   25.1340 C   0  0  1  0  0  0  0  0  0  0  0  0
  -25.4920  -31.3680   26.2080 C   0  0  0  0  0  1  0  0  0  0  0  0
  -27.1540  -30.2660   24.7040 C   0  0  0  0  0  1  0  0  0  0  0  0
  -27.7250  -32.4130   25.8050 C   0  0  0  0  0  1  0  0  0  0  0  0
  -25.7330  -33.8230   24.2450 N   0  0  0  0  0  0  0  0  0  0  0  0
  -26.0730  -34.8910   23.5120 C   0  0  0  0  0  0  0  0  0  0  0  0
  -26.7460  -34.8090   22.4810 O   0  0  0  0  0  0  0  0  0  0  0  0
  -25.1410  -33.9640   25.0510 H   0  0  0  0  0  0  0  0  0  0  0  0
  -24.3660  -36.7090   23.1870 C   0  0  0  0  0  1  0  0  0  0  0  0
  -25.5920  -36.2720   24.0030 C   0  0  0  0  0  3  0  0  0  0  0  0
  -27.7250  -37.1170   24.8820 C   0  0  0  0  0  1  0  0  0  0  0  0
  -26.6360  -37.3170   23.9290 N   0  0  0  0  0  0  0  0  0  0  0  0
  -26.2390  -38.2390   24.0910 H   0  0  0  0  0  0  0  0  0  0  0  0
  1  3  1  0
  2  1  1  0
  5  4  1  0
  5  1  1  0
  5 15  1  0
  6 18  1  0
  7 12  1  0
  8  9  1  0
  8  7  1  0
 10  9  1  0
 10 24  1  0
 10 11  1  0
 12  6  1  0
 12 11  1  0
 13  6  2  0
 14 19  1  0
 15 14  2  0
 16 19  1  0
 17 15  1  0
 17 16  2  0
 18 16  1  0
 18 20  1  0
 21 22  2  0
 22 41  1  0
 23 26  1  0
 23 22  1  0
 24 25  1  0
 24 21  1  0
 25 23  2  0
 26 27  1  0
 27 28  2  0
 29 32  1  0
 29 28  1  0
 30 29  2  0
 31 30  1  0
 31 26  2  0
 32 33  1  0
 33 34  1  0
 34 35  2  0
 36 35  1  0
 36 40  1  0
 37 36  2  0
 38 33  2  0
 38 37  1  0
 39 38  1  0
 41 42  1  0
 42 44  1  0
 42 45  1  0
 43 41  2  0
 46 21  1  0
 46 47  1  0
 48 46  1  0
 50 49  1  0
 50  1  1  0
 50 51  1  0
 52 53  1  0
 52 51  1  0
 54 65  2  0
 55 53  1  0
 55 60  1  0
 56 64  1  0
 56 66  1  0
 57 63  1  0
 57 59  1  0
 58 64  1  0
 59 58  1  0
 60 59  2  0
 61 62  1  0
 61 55  2  0
 62 57  2  0
 63 56  1  0
 64 54  1  0
 66 68  2  0
 67 66  1  0
 69 67  1  0
 70 79  2  0
 70 75  1  0
 71 67  1  0
 71 75  1  0
 72 71  1  0
 73 74  1  0
 73 72  1  0
 74 70  1  0
 75 76  2  0
 76 77  1  0
 78 77  2  0
 79 78  1  0
 80 54  1  0
 80 85  1  0
 80 81  1  0
 81 84  1  1
 81 82  1  0
 83 81  1  0
 85 88  1  0
 86 90  1  0
 86 85  1  0
 87 86  2  0
 90 89  1  0
 92 90  1  0
 92 93  1  0
 92 91  1  0
M  ISO  4   6 100  18 100  52 101  53 101
M  END
>  <TORSDO>  (2) 
F 20

>  <SCORE>  (2) 
-11.708

>  <name>  (2) 
1

>  <ligand_id>  (2) 
1

>  <original_smiles>  (2) 
[H]c1sc(N([H])C(=O)N2C([H])([H])C([H])([H])C([H])([H])C([H])(n3nc(-c4c([H])c([H])c(Oc5c([H])c([H])c(F)c([H])c5F)c([H])c4[H])c(C(=O)N([H])[H])c3N([H])[H])C2([H])[H])nc1C([H])(C([H])([H])[H])[N+]([H])([H])C([H])(C([H])([H])[H])C([H])([H])C([H])([H])Oc1c([H])c([H])c2c(c1[H])C([H])([H])N(C(=O)C([H])(N([H])C(=O)C([H])(N([H])C([H])([H])[H])C([H])([H])[H])C(C([H])([H])[H])(C([H])([H])[H])C([H])([H])[H])C([H])(C(=O)N([H])C1([H])c3c([H])c([H])c([H])c([H])c3C([H])([H])C([H])([H])C1([H])[H])C2([H])[H]

>  <smiles>  (2) 
[H]c1sc(N([H])C(=O)N2C([H])([H])C([H])([H])C([H])([H])C([H])(n3nc(-c4c([H])c([H])c(Oc5c([H])c([H])c(F)c([H])c5F)c([H])c4[H])c(C(=O)N([H])[H])c3N([H])[H])C2([H])[H])nc1C([H])(C([H])([H])[H])[N+]([H])([H])C([H])(C([H])([H])[H])C([H])([H])C([H])([H])Oc1c([H])c([H])c2c(c1[H])C([H])([H])N(C(=O)C([H])(N([H])C(=O)C([H])(N([H])C([H])([H])[H])C([H])([H])[H])C(C([H])([H])[H])(C([H])([H])[H])C([H])([H])[H])C([H])(C(=O)N([H])C1([H])c3c([H])c([H])c([H])c([H])c3C([H])([H])C([H])([H])C1([H])[H])C2([H])[H]

$$$$
2:0:0
     RDKit          3D

 93101  0  0  1  0  0  0  0  0999 V2000
  -29.9860  -21.7930   20.8330 N   0  0  1  0  0  4  0  0  0  0  0  0
  -30.5490  -21.6550   21.6580 H   0  0  0  0  0  0  0  0  0  0  0  0
  -32.3100  -22.5940   20.2610 C   0  0  0  0  0  1  0  0  0  0  0  0
  -30.9780  -22.0190   19.7380 C   0  0  0  0  0  2  0  0  0  0  0  0
  -29.1010  -23.1140   22.7300 C   0  0  0  0  0  1  0  0  0  0  0  0
  -29.0710  -22.9440   21.1960 C   0  0  0  0  0  3  0  0  0  0  0  0
  -29.2620  -24.3270   20.4550 C   0  0  0  0  0  2  0  0  0  0  0  0
  -28.2440  -25.4310   20.8690 C   0  0  0  0  0  2  0  0  0  0  0  0
  -28.3820  -26.6840   20.1600 O   0  0  0  0  0  0  0  0  0  0  0  0
  -24.5950  -31.8930   23.2640 C   0  0  0  0  0  0  0  0  0  0  0  0
  -27.2360  -27.4570   20.1560 C   0  0  0  0  0  0  0  0  0  0  0  0
  -23.3870  -30.4970   21.6190 C   0  0  0  0  0  3  0  0  0  0  0  0
  -24.8400  -28.9680   20.1800 C   0  0  0  0  0  0  0  0  0  0  0  0
  -25.9130  -30.8580   21.4150 C   0  0  0  0  0  2  0  0  0  0  0  0
  -26.0020  -29.4900   20.7660 C   0  0  0  0  0  0  0  0  0  0  0  0
  -27.2040  -28.7410   20.7500 C   0  0  0  0  0  3  0  0  0  0  0  0
  -26.0610  -26.9610   19.5520 C   0  0  0  0  0  3  0  0  0  0  0  0
  -24.8650  -27.7030   19.5700 C   0  0  0  0  0  3  0  0  0  0  0  0
  -23.5940  -29.8250   20.2370 C   0  0  0  0  0  2  0  0  0  0  0  0
  -24.6510  -31.0980   22.1570 N   0  0  0  0  0  0  0  0  0  0  0  0
  -23.5140  -32.1590   23.8100 O   0  0  0  0  0  0  0  0  0  0  0  0
  -22.7410  -29.4700   22.5760 C   0  0  0  0  0  0  0  0  0  0  0  0
  -21.4160  -29.2810   22.4480 N   0  0  0  0  0  0  0  0  0  0  0  0
  -23.4270  -28.8430   23.3860 O   0  0  0  0  0  0  0  0  0  0  0  0
  -20.9220  -29.8360   21.7630 H   0  0  0  0  0  0  0  0  0  0  0  0
  -18.0490  -28.0660   22.9390 C   0  0  0  0  0  0  0  0  0  0  0  0
  -20.6050  -28.3370   23.2150 C   0  0  0  0  0  3  0  0  0  0  0  0
  -20.7160  -26.9080   22.6350 C   0  0  0  0  0  2  0  0  0  0  0  0
  -19.6180  -26.5830   21.6170 C   0  0  0  0  0  2  0  0  0  0  0  0
  -18.2340  -26.7210   22.2590 C   0  0  0  0  0  2  0  0  0  0  0  0
  -19.1630  -28.8340   23.3730 C   0  0  0  0  0  0  0  0  0  0  0  0
  -18.9360  -30.0930   23.9660 C   0  0  0  0  0  3  0  0  0  0  0  0
  -17.6290  -30.5890   24.1310 C   0  0  0  0  0  3  0  0  0  0  0  0
  -16.5300  -29.8180   23.7140 C   0  0  0  0  0  3  0  0  0  0  0  0
  -16.7410  -28.5600   23.1240 C   0  0  0  0  0  3  0  0  0  0  0  0
  -25.8820  -32.5250   23.8810 C   0  0  0  0  0  3  0  0  0  0  0  0
  -25.5790  -33.9250   24.2060 N   0  0  0  0  0  0  0  0  0  0  0  0
  -25.9220  -34.9710   23.4430 C   0  0  0  0  0  0  0  0  0  0  0  0
  -26.5970  -34.8590   22.4160 O   0  0  0  0  0  0  0  0  0  0  0  0
  -24.9830  -34.0870   25.0050 H   0  0  0  0  0  0  0  0  0  0  0  0
  -24.2100  -36.7720   23.0600 C   0  0  0  0  0  1  0  0  0  0  0  0
  -25.4380  -36.3640   23.8900 C   0  0  0  0  0  3  0  0  0  0  0  0
  -27.5670  -37.2340   24.7490 C   0  0  0  0  0  1  0  0  0  0  0  0
  -26.4800  -37.4090   23.7890 N   0  0  0  0  0  0  0  0  0  0  0  0
  -26.0800  -38.3320   23.9300 H   0  0  0  0  0  0  0  0  0  0  0  0
  -26.3970  -31.7560   25.1600 C   0  0  1  0  0  0  0  0  0  0  0  0
  -25.3040  -31.5230   26.2280 C   0  0  0  0  0  1  0  0  0  0  0  0
  -26.9790  -30.3780   24.7680 C   0  0  0  0  0  1  0  0  0  0  0  0
  -27.5520  -32.5490   25.8170 C   0  0  0  0  0  1  0  0  0  0  0  0
  -29.2530  -20.4850   20.7140 C   0  0  0  0  0  2  0  0  0  0  0  0
  -30.6190  -14.5370   20.1060 C   0  0  0  0  0  0  0  0  0  0  0  0
  -30.2550  -12.4040   18.9160 C   0  0  0  0  0  2  0  0  0  0  0  0
  -29.2580  -12.6520   17.7680 C   0  0  0  0  0  2  0  0  0  0  0  0
  -27.8070  -12.5050   18.2710 C   0  0  0  0  0  2  0  0  0  0  0  0
  -27.5350  -13.3020   19.5770 C   0  0  0  0  0  3  0  0  0  0  0  0
  -28.6460  -13.0490   20.6190 C   0  0  0  0  0  2  0  0  0  0  0  0
  -29.9370  -13.3650   19.9850 N   0  0  0  0  0  0  0  0  0  0  0  0
  -31.7430  -14.6970   19.6220 O   0  0  0  0  0  0  0  0  0  0  0  0
  -31.4290  -19.0880   21.1640 C   0  0  0  0  0  3  0  0  0  0  0  0
  -30.0950  -19.2120   20.8380 C   0  0  0  0  0  0  0  0  0  0  0  0
  -30.3450  -16.9170   20.7570 C   0  0  0  0  0  0  0  0  0  0  0  0
  -29.4890  -17.9490   20.6460 N   0  0  0  0  0  0  0  0  0  0  0  0
  -29.9050  -15.5730   20.5970 N   0  0  0  0  0  0  0  0  0  0  0  0
  -31.9780  -17.4290   21.1640 S   0  0  0  0  0  0  0  0  0  0  0  0
  -28.9390  -15.3870   20.8100 H   0  0  0  0  0  0  0  0  0  0  0  0
  -25.1700  -13.8870   20.4200 C   0  0  0  0  0  0  0  0  0  0  0  0
  -24.1260  -13.1030   20.8300 C   0  0  0  0  0  0  0  0  0  0  0  0
  -24.5890  -11.7550   20.7520 C   0  0  0  0  0  0  0  0  0  0  0  0
  -26.2070  -13.0150   20.1180 N   0  0  0  0  0  0  0  0  0  0  0  0
  -25.8630  -11.7270   20.3760 N   0  0  0  0  0  0  0  0  0  0  0  0
  -23.8780  -10.4860   20.9600 C   0  0  0  0  0  0  0  0  0  0  0  0
  -24.3370   -9.5270   21.8900 C   0  0  0  0  0  3  0  0  0  0  0  0
  -23.6280   -8.3210   22.0840 C   0  0  0  0  0  3  0  0  0  0  0  0
  -22.4460   -8.0670   21.3480 C   0  0  0  0  0  0  0  0  0  0  0  0
  -22.0060   -9.0160   20.4080 C   0  0  0  0  0  3  0  0  0  0  0  0
  -22.7160  -10.2130   20.2120 C   0  0  0  0  0  3  0  0  0  0  0  0
  -21.7050   -6.9140   21.4510 O   0  0  0  0  0  0  0  0  0  0  0  0
  -21.6630   -6.1870   22.6150 C   0  0  0  0  0  0  0  0  0  0  0  0
  -21.2150   -6.7520   23.8290 C   0  0  0  0  0  3  0  0  0  0  0  0
  -21.1180   -5.9510   24.9840 C   0  0  0  0  0  3  0  0  0  0  0  0
  -21.4620   -4.5870   24.9270 C   0  0  0  0  0  0  0  0  0  0  0  0
  -21.9030   -4.0220   23.7180 C   0  0  0  0  0  3  0  0  0  0  0  0
  -22.0010   -4.8200   22.5630 C   0  0  0  0  0  0  0  0  0  0  0  0
  -22.4060   -4.2660   21.3960 F   0  0  0  0  0  0  0  0  0  0  0  0
  -21.3640   -3.8160   26.0340 F   0  0  0  0  0  0  0  0  0  0  0  0
  -22.7410  -13.5680   21.1820 C   0  0  0  0  0  0  0  0  0  0  0  0
  -22.0540  -12.8490   22.0640 N   0  0  0  0  0  0  0  0  0  0  0  0
  -22.2770  -14.6040   20.7080 O   0  0  0  0  0  0  0  0  0  0  0  0
  -22.4440  -12.0150   22.4770 H   0  0  0  0  0  0  0  0  0  0  0  0
  -21.1270  -13.1440   22.3330 H   0  0  0  0  0  0  0  0  0  0  0  0
  -25.3160  -15.2620   20.2590 N   0  0  0  0  0  0  0  0  0  0  0  0
  -24.5480  -15.9040   20.4270 H   0  0  0  0  0  0  0  0  0  0  0  0
  -26.1430  -15.7220   19.8940 H   0  0  0  0  0  0  0  0  0  0  0  0
  1  6  1  0
  1  2  1  1
  4  3  1  0
  4  1  1  0
  6  5  1  0
  7  8  1  0
  7  6  1  0
  9  8  1  0
 10 21  2  0
 11  9  1  0
 11 16  1  0
 12 20  1  0
 12 22  1  0
 13 19  1  0
 13 15  1  0
 14 20  1  0
 15 14  1  0
 16 15  2  0
 17 18  1  0
 17 11  2  0
 18 13  2  0
 19 12  1  0
 20 10  1  0
 22 24  2  0
 23 22  1  0
 25 23  1  0
 26 35  2  0
 26 31  1  0
 27 23  1  0
 27 31  1  0
 28 27  1  0
 29 30  1  0
 29 28  1  0
 30 26  1  0
 31 32  2  0
 32 33  1  0
 34 33  2  0
 35 34  1  0
 36 10  1  0
 36 37  1  0
 36 46  1  0
 37 40  1  0
 38 42  1  0
 38 37  1  0
 39 38  2  0
 42 41  1  0
 44 42  1  0
 44 45  1  0
 44 43  1  0
 46 49  1  1
 46 47  1  0
 48 46  1  0
 50  1  1  0
 50 60  1  0
 51 63  1  0
 52 57  1  0
 53 54  1  0
 53 52  1  0
 55 54  1  0
 55 69  1  0
 55 56  1  0
 57 51  1  0
 57 56  1  0
 58 51  2  0
 59 64  1  0
 60 59  2  0
 61 64  1  0
 62 61  2  0
 62 60  1  0
 63 61  1  0
 63 65  1  0
 66 67  2  0
 67 86  1  0
 68 67  1  0
 68 71  1  0
 69 70  1  0
 69 66  1  0
 70 68  2  0
 71 72  1  0
 72 73  2  0
 74 77  1  0
 74 73  1  0
 75 74  2  0
 76 75  1  0
 76 71  2  0
 77 78  1  0
 78 79  1  0
 79 80  2  0
 81 80  1  0
 81 85  1  0
 82 81  2  0
 83 78  2  0
 83 82  1  0
 84 83  1  0
 86 87  1  0
 87 90  1  0
 87 89  1  0
 88 86  2  0
 91 66  1  0
 91 92  1  0
 93 91  1  0
M  ISO  4   8 101   9 101  51 100  63 100
M  END
>  <TORSDO>  (3) 
F 21

>  <SCORE>  (3) 
-13.161

>  <name>  (3) 
2

>  <ligand_id>  (3) 
2

>  <original_smiles>  (3) 
[H]c1sc(N([H])C(=O)N2C([H])([H])C([H])([H])C([H])([H])C([H])(n3nc(-c4c([H])c([H])c(Oc5c([H])c([H])c(F)c([H])c5F)c([H])c4[H])c(C(=O)N([H])[H])c3N([H])[H])C2([H])[H])nc1C([H])([H])[N+]([H])(C([H])([H])C([H])([H])[H])C([H])(C([H])([H])[H])C([H])([H])C([H])([H])Oc1c([H])c([H])c2c(c1[H])C([H])([H])N(C(=O)C([H])(N([H])C(=O)C([H])(N([H])C([H])([H])[H])C([H])([H])[H])C(C([H])([H])[H])(C([H])([H])[H])C([H])([H])[H])C([H])(C(=O)N([H])C1([H])c3c([H])c([H])c([H])c([H])c3C([H])([H])C([H])([H])C1([H])[H])C2([H])[H]

>  <smiles>  (3) 
[H]c1sc(N([H])C(=O)N2C([H])([H])C([H])([H])C([H])([H])C([H])(n3nc(-c4c([H])c([H])c(Oc5c([H])c([H])c(F)c([H])c5F)c([H])c4[H])c(C(=O)N([H])[H])c3N([H])[H])C2([H])[H])nc1C([H])([H])[N+]([H])(C([H])([H])C([H])([H])[H])C([H])(C([H])([H])[H])C([H])([H])C([H])([H])Oc1c([H])c([H])c2c(c1[H])C([H])([H])N(C(=O)C([H])(N([H])C(=O)C([H])(N([H])C([H])([H])[H])C([H])([H])[H])C(C([H])([H])[H])(C([H])([H])[H])C([H])([H])[H])C([H])(C(=O)N([H])C1([H])c3c([H])c([H])c([H])c([H])c3C([H])([H])C([H])([H])C1([H])[H])C2([H])[H]

$$$$
3:0:0
     RDKit          3D

 93101  0  0  1  0  0  0  0  0999 V2000
  -30.2530  -18.3040   19.6520 C   0  0  0  0  0  0  0  0  0  0  0  0
  -29.2090  -18.3000   20.5500 C   0  0  0  0  0  0  0  0  0  0  0  0
  -29.5990  -20.5330   19.5420 C   0  0  0  0  0  0  0  0  0  0  0  0
  -28.7310  -17.1810   21.4180 C   0  0  0  0  0  1  0  0  0  0  0  0
  -30.4610  -19.5990   19.0920 N   0  0  0  0  0  0  0  0  0  0  0  0
  -29.5440  -21.9080   19.2310 N   0  0  0  0  0  0  0  0  0  0  0  0
  -28.4360  -19.8640   20.6720 S   0  0  0  0  0  0  0  0  0  0  0  0
  -28.7920  -22.3570   19.7450 H   0  0  0  0  0  0  0  0  0  0  0  0
  -31.1990  -17.1320   19.3330 C   0  0  0  0  0  2  0  0  0  0  0  0
  -31.5260  -14.6320   19.5210 C   0  0  0  0  0  0  0  0  0  0  0  0
  -31.1770  -12.3120   18.7460 C   0  0  0  0  0  2  0  0  0  0  0  0
  -30.1340  -12.3400   17.6070 C   0  0  0  0  0  2  0  0  0  0  0  0
  -28.7020  -12.2630   18.1730 C   0  0  0  0  0  2  0  0  0  0  0  0
  -28.4610  -13.2730   19.3270 C   0  0  0  0  0  3  0  0  0  0  0  0
  -29.6080  -13.2230   20.3620 C   0  0  0  0  0  2  0  0  0  0  0  0
  -30.8710  -13.4440   19.6420 N   0  0  0  0  0  0  0  0  0  0  0  0
  -32.6600  -14.7070   19.0400 O   0  0  0  0  0  0  0  0  0  0  0  0
  -30.7870  -15.7540   19.7220 N   0  0  0  0  0  0  0  0  0  0  0  0
  -29.8440  -15.6360   20.0480 H   0  0  0  0  0  0  0  0  0  0  0  0
  -26.2550  -14.0210   20.4130 C   0  0  0  0  0  0  0  0  0  0  0  0
  -25.1650  -13.3170   20.8480 C   0  0  0  0  0  0  0  0  0  0  0  0
  -25.4730  -11.9380   20.6350 C   0  0  0  0  0  0  0  0  0  0  0  0
  -27.1610  -13.0750   19.9600 N   0  0  0  0  0  0  0  0  0  0  0  0
  -26.7040  -11.8120   20.1560 N   0  0  0  0  0  0  0  0  0  0  0  0
  -24.6480  -10.7370   20.8050 C   0  0  0  0  0  0  0  0  0  0  0  0
  -25.0030   -9.7180   21.7180 C   0  0  0  0  0  3  0  0  0  0  0  0
  -24.1830   -8.5800   21.8750 C   0  0  0  0  0  3  0  0  0  0  0  0
  -22.9930   -8.4520   21.1180 C   0  0  0  0  0  0  0  0  0  0  0  0
  -22.6550   -9.4580   20.1960 C   0  0  0  0  0  3  0  0  0  0  0  0
  -23.4760  -10.5870   20.0360 C   0  0  0  0  0  3  0  0  0  0  0  0
  -22.1490   -7.3700   21.1850 O   0  0  0  0  0  0  0  0  0  0  0  0
  -21.9010   -6.7230   22.3700 C   0  0  0  0  0  0  0  0  0  0  0  0
  -21.3250   -7.3860   23.4740 C   0  0  0  0  0  3  0  0  0  0  0  0
  -21.0240   -6.6660   24.6480 C   0  0  0  0  0  3  0  0  0  0  0  0
  -21.2890   -5.2850   24.7150 C   0  0  0  0  0  0  0  0  0  0  0  0
  -21.8590   -4.6220   23.6140 C   0  0  0  0  0  3  0  0  0  0  0  0
  -22.1620   -5.3390   22.4430 C   0  0  0  0  0  0  0  0  0  0  0  0
  -22.6910   -4.6920   21.3770 F   0  0  0  0  0  0  0  0  0  0  0  0
  -20.9940   -4.5910   25.8400 F   0  0  0  0  0  0  0  0  0  0  0  0
  -23.8670  -13.8920   21.3390 C   0  0  0  0  0  0  0  0  0  0  0  0
  -23.1940  -13.1980   22.2520 N   0  0  0  0  0  0  0  0  0  0  0  0
  -23.4680  -14.9880   20.9510 O   0  0  0  0  0  0  0  0  0  0  0  0
  -23.5320  -12.3090   22.5860 H   0  0  0  0  0  0  0  0  0  0  0  0
  -22.3280  -13.5640   22.6220 H   0  0  0  0  0  0  0  0  0  0  0  0
  -26.5390  -15.3810   20.3400 N   0  0  0  0  0  0  0  0  0  0  0  0
  -25.8530  -16.0830   20.5940 H   0  0  0  0  0  0  0  0  0  0  0  0
  -27.3640  -15.7770   19.9080 H   0  0  0  0  0  0  0  0  0  0  0  0
  -30.3180  -22.8730   18.4370 C   0  0  0  0  0  2  0  0  0  0  0  0
  -29.6990  -24.3200   18.2300 C   0  0  0  0  0  3  0  0  0  0  0  0
  -30.4990  -24.8900   17.2110 O   0  0  0  0  0  0  0  0  0  0  0  0
  -30.3780  -24.3620   16.4280 H   0  0  0  0  0  0  0  0  0  0  0  0
  -29.7360  -25.3140   19.4510 C   0  0  0  0  0  2  0  0  0  0  0  0
  -29.4630  -26.7330   19.2180 O   0  0  0  0  0  0  0  0  0  0  0  0
  -24.9060  -30.6890   23.0870 C   0  0  0  0  0  0  0  0  0  0  0  0
  -28.1870  -27.2540   19.3590 C   0  0  0  0  0  0  0  0  0  0  0  0
  -23.9280  -29.4620   21.1770 C   0  0  0  0  0  3  0  0  0  0  0  0
  -25.6010  -28.4120   19.5550 C   0  0  0  0  0  0  0  0  0  0  0  0
  -26.3810  -30.1840   21.1370 C   0  0  0  0  0  2  0  0  0  0  0  0
  -26.6690  -28.9730   20.2670 C   0  0  0  0  0  0  0  0  0  0  0  0
  -27.9650  -28.4070   20.1600 C   0  0  0  0  0  3  0  0  0  0  0  0
  -27.1000  -26.7130   18.6480 C   0  0  0  0  0  3  0  0  0  0  0  0
  -25.8130  -27.2820   18.7450 C   0  0  0  0  0  3  0  0  0  0  0  0
  -24.2490  -29.0750   19.7090 C   0  0  0  0  0  2  0  0  0  0  0  0
  -25.0870  -30.1210   21.8620 N   0  0  0  0  0  0  0  0  0  0  0  0
  -23.7930  -30.7080   23.6290 O   0  0  0  0  0  0  0  0  0  0  0  0
  -23.4150  -28.2070   21.9190 C   0  0  0  0  0  0  0  0  0  0  0  0
  -22.1480  -27.8370   21.6670 N   0  0  0  0  0  0  0  0  0  0  0  0
  -24.1560  -27.5760   22.6770 O   0  0  0  0  0  0  0  0  0  0  0  0
  -21.6070  -28.4010   21.0250 H   0  0  0  0  0  0  0  0  0  0  0  0
  -19.0280  -26.0160   21.6930 C   0  0  0  0  0  0  0  0  0  0  0  0
  -21.4720  -26.6630   22.2210 C   0  0  0  0  0  3  0  0  0  0  0  0
  -21.8660  -25.3890   21.4420 C   0  0  0  0  0  2  0  0  0  0  0  0
  -20.9030  -25.0680   20.2960 C   0  0  0  0  0  2  0  0  0  0  0  0
  -19.4880  -24.8460   20.8400 C   0  0  0  0  0  2  0  0  0  0  0  0
  -19.9590  -26.8780   22.3330 C   0  0  0  0  0  0  0  0  0  0  0  0
  -19.4780  -27.9650   23.0960 C   0  0  0  0  0  3  0  0  0  0  0  0
  -18.0950  -28.2010   23.2190 C   0  0  0  0  0  3  0  0  0  0  0  0
  -17.1780  -27.3420   22.5880 C   0  0  0  0  0  3  0  0  0  0  0  0
  -17.6430  -26.2500   21.8360 C   0  0  0  0  0  3  0  0  0  0  0  0
  -26.0850  -31.3690   23.8560 C   0  0  0  0  0  3  0  0  0  0  0  0
  -25.6430  -32.7140   24.2480 N   0  0  0  0  0  0  0  0  0  0  0  0
  -25.9790  -33.8440   23.6080 C   0  0  0  0  0  0  0  0  0  0  0  0
  -26.7650  -33.8640   22.6560 O   0  0  0  0  0  0  0  0  0  0  0  0
  -24.9530  -32.7680   24.9830 H   0  0  0  0  0  0  0  0  0  0  0  0
  -24.1810  -35.5480   23.1800 C   0  0  0  0  0  1  0  0  0  0  0  0
  -25.3460  -35.1580   24.1050 C   0  0  0  0  0  3  0  0  0  0  0  0
  -27.2950  -36.1070   25.2570 C   0  0  0  0  0  1  0  0  0  0  0  0
  -26.3090  -36.2780   24.1930 N   0  0  0  0  0  0  0  0  0  0  0  0
  -25.8250  -37.1590   24.3460 H   0  0  0  0  0  0  0  0  0  0  0  0
  -26.5590  -30.5490   25.1180 C   0  0  1  0  0  0  0  0  0  0  0  0
  -25.4090  -30.1690   26.0780 C   0  0  0  0  0  1  0  0  0  0  0  0
  -27.2660  -29.2430   24.6890 C   0  0  0  0  0  1  0  0  0  0  0  0
  -27.6000  -31.3710   25.9160 C   0  0  0  0  0  1  0  0  0  0  0  0
  1  2  2  0
  2  7  1  0
  2  4  1  0
  3  7  1  0
  5  3  2  0
  5  1  1  0
  6  3  1  0
  6  8  1  0
  9  1  1  0
  9 18  1  0
 10 16  1  0
 10 18  1  0
 11 16  1  0
 12 13  1  0
 12 11  1  0
 14 13  1  0
 14 23  1  0
 14 15  1  0
 16 15  1  0
 17 10  2  0
 18 19  1  0
 20 21  2  0
 21 40  1  0
 22 25  1  0
 22 21  1  0
 23 24  1  0
 23 20  1  0
 24 22  2  0
 25 26  1  0
 26 27  2  0
 28 31  1  0
 28 27  1  0
 29 28  2  0
 30 29  1  0
 30 25  2  0
 31 32  1  0
 32 37  2  0
 32 33  1  0
 33 34  2  0
 34 35  1  0
 35 39  1  0
 36 35  2  0
 37 36  1  0
 38 37  1  0
 40 41  1  0
 41 43  1  0
 41 44  1  0
 42 40  2  0
 45 20  1  0
 45 46  1  0
 47 45  1  0
 48  6  1  0
 49 48  1  0
 49 52  1  0
 50 49  1  0
 51 50  1  0
 53 55  1  0
 53 52  1  0
 54 65  2  0
 55 60  1  0
 56 64  1  0
 56 66  1  0
 57 63  1  0
 57 59  1  0
 58 64  1  0
 59 58  1  0
 60 59  2  0
 61 62  1  0
 61 55  2  0
 62 57  2  0
 63 56  1  0
 64 54  1  0
 66 68  2  0
 67 66  1  0
 69 67  1  0
 70 79  2  0
 70 75  1  0
 71 67  1  0
 71 75  1  0
 72 71  1  0
 73 74  1  0
 73 72  1  0
 74 70  1  0
 75 76  2  0
 76 77  1  0
 78 77  2  0
 79 78  1  0
 80 54  1  0
 80 81  1  0
 80 90  1  0
 81 84  1  0
 82 86  1  0
 82 81  1  0
 83 82  2  0
 86 85  1  0
 86 88  1  0
 88 89  1  0
 88 87  1  0
 90 93  1  1
 90 91  1  0
 92 90  1  0
M  ISO  4  10 100  18 100  52 101  53 101
M  END
>  <TORSDO>  (4) 
F 21

>  <SCORE>  (4) 
-9.055

>  <name>  (4) 
3

>  <ligand_id>  (4) 
3

>  <original_smiles>  (4) 
[H]OC([H])(C([H])([H])Oc1c([H])c([H])c2c(c1[H])C([H])([H])N(C(=O)C([H])(N([H])C(=O)C([H])(N([H])C([H])([H])[H])C([H])([H])[H])C(C([H])([H])[H])(C([H])([H])[H])C([H])([H])[H])C([H])(C(=O)N([H])C1([H])c3c([H])c([H])c([H])c([H])c3C([H])([H])C([H])([H])C1([H])[H])C2([H])[H])C([H])([H])N([H])c1nc(C([H])([H])N([H])C(=O)N2C([H])([H])C([H])([H])C([H])([H])C([H])(n3nc(-c4c([H])c([H])c(Oc5c([H])c([H])c(F)c([H])c5F)c([H])c4[H])c(C(=O)N([H])[H])c3N([H])[H])C2([H])[H])c(C([H])([H])[H])s1

>  <smiles>  (4) 
[H]OC([H])(C([H])([H])Oc1c([H])c([H])c2c(c1[H])C([H])([H])N(C(=O)C([H])(N([H])C(=O)C([H])(N([H])C([H])([H])[H])C([H])([H])[H])C(C([H])([H])[H])(C([H])([H])[H])C([H])([H])[H])C([H])(C(=O)N([H])C1([H])c3c([H])c([H])c([H])c([H])c3C([H])([H])C([H])([H])C1([H])[H])C2([H])[H])C([H])([H])N([H])c1nc(C([H])([H])N([H])C(=O)N2C([H])([H])C([H])([H])C([H])([H])C([H])(n3nc(-c4c([H])c([H])c(Oc5c([H])c([H])c(F)c([H])c5F)c([H])c4[H])c(C(=O)N([H])[H])c3N([H])[H])C2([H])[H])c(C([H])([H])[H])s1

$$$$
4:0:0
     RDKit          3D

 94102  0  0  1  0  0  0  0  0999 V2000
  -30.6380  -14.7530   20.4420 C   0  0  0  0  0  0  0  0  0  0  0  0
  -30.3790  -12.4830   19.4450 C   0  0  0  0  0  2  0  0  0  0  0  0
  -29.4710  -12.5780   18.2030 C   0  0  0  0  0  2  0  0  0  0  0  0
  -27.9940  -12.4210   18.6090 C   0  0  0  0  0  2  0  0  0  0  0  0
  -27.6070  -13.3070   19.8240 C   0  0  0  0  0  3  0  0  0  0  0  0
  -28.6510  -13.2320   20.9590 C   0  0  0  0  0  2  0  0  0  0  0  0
  -29.9570  -13.5560   20.3760 N   0  0  0  0  0  0  0  0  0  0  0  0
  -31.8450  -14.7320   20.1790 O   0  0  0  0  0  0  0  0  0  0  0  0
  -31.0890  -19.8790   19.7550 C   0  0  0  0  0  3  0  0  0  0  0  0
  -29.8000  -19.6840   20.2700 C   0  0  0  0  0  0  0  0  0  0  0  0
  -31.9050  -18.7730   19.5710 C   0  0  0  0  0  0  0  0  0  0  0  0
  -30.2910  -17.3220   20.3670 C   0  0  0  0  0  0  0  0  0  0  0  0
  -29.4160  -18.3690   20.5640 N   0  0  0  0  0  0  0  0  0  0  0  0
  -31.5130  -17.5370   19.8770 N   0  0  0  0  0  0  0  0  0  0  0  0
  -33.1680  -18.8970   19.0230 N   0  0  0  0  0  0  0  0  0  0  0  0
  -29.9310  -15.9470   20.6050 N   0  0  0  0  0  0  0  0  0  0  0  0
  -33.3860  -19.7440   18.5140 H   0  0  0  0  0  0  0  0  0  0  0  0
  -33.5680  -18.0610   18.6110 H   0  0  0  0  0  0  0  0  0  0  0  0
  -28.9680  -15.8190   20.8620 H   0  0  0  0  0  0  0  0  0  0  0  0
  -25.2110  -13.8920   20.5200 C   0  0  0  0  0  0  0  0  0  0  0  0
  -24.1440  -13.1180   20.8820 C   0  0  0  0  0  0  0  0  0  0  0  0
  -24.6090  -11.7680   20.8640 C   0  0  0  0  0  0  0  0  0  0  0  0
  -26.2600  -13.0140   20.3000 N   0  0  0  0  0  0  0  0  0  0  0  0
  -25.9040  -11.7320   20.5730 N   0  0  0  0  0  0  0  0  0  0  0  0
  -23.8830  -10.5050   21.0530 C   0  0  0  0  0  0  0  0  0  0  0  0
  -24.3100   -9.5360   21.9890 C   0  0  0  0  0  3  0  0  0  0  0  0
  -23.5800   -8.3390   22.1620 C   0  0  0  0  0  3  0  0  0  0  0  0
  -22.4110   -8.1020   21.4000 C   0  0  0  0  0  0  0  0  0  0  0  0
  -22.0030   -9.0600   20.4550 C   0  0  0  0  0  3  0  0  0  0  0  0
  -22.7320  -10.2490   20.2790 C   0  0  0  0  0  3  0  0  0  0  0  0
  -21.6520   -6.9590   21.4850 O   0  0  0  0  0  0  0  0  0  0  0  0
  -21.6000   -6.2140   22.6350 C   0  0  0  0  0  0  0  0  0  0  0  0
  -21.1810   -6.7680   23.8640 C   0  0  0  0  0  3  0  0  0  0  0  0
  -21.0760   -5.9480   25.0050 C   0  0  0  0  0  3  0  0  0  0  0  0
  -21.3800   -4.5760   24.9190 C   0  0  0  0  0  0  0  0  0  0  0  0
  -21.7910   -4.0210   23.6940 C   0  0  0  0  0  3  0  0  0  0  0  0
  -21.8980   -4.8380   22.5540 C   0  0  0  0  0  0  0  0  0  0  0  0
  -22.2770   -4.2940   21.3720 F   0  0  0  0  0  0  0  0  0  0  0  0
  -21.2730   -3.7890   26.0150 F   0  0  0  0  0  0  0  0  0  0  0  0
  -22.7410  -13.5950   21.1280 C   0  0  0  0  0  0  0  0  0  0  0  0
  -22.0000  -12.9050   21.9900 N   0  0  0  0  0  0  0  0  0  0  0  0
  -22.3110  -14.6160   20.5930 O   0  0  0  0  0  0  0  0  0  0  0  0
  -22.3590  -12.0810   22.4470 H   0  0  0  0  0  0  0  0  0  0  0  0
  -21.0580  -13.2080   22.1960 H   0  0  0  0  0  0  0  0  0  0  0  0
  -25.3720  -15.2610   20.3370 N   0  0  0  0  0  0  0  0  0  0  0  0
  -24.5960  -15.9080   20.4310 H   0  0  0  0  0  0  0  0  0  0  0  0
  -26.2160  -15.7070   20.0030 H   0  0  0  0  0  0  0  0  0  0  0  0
  -28.7970  -20.9350   20.2470 C   0  0  0  0  0  2  0  0  0  0  0  0
  -29.1030  -22.4210   20.8680 C   0  0  0  0  0  3  0  0  0  0  0  0
  -30.4960  -22.6820   20.9640 O   0  0  0  0  0  0  0  0  0  0  0  0
  -30.6190  -23.4790   21.4740 H   0  0  0  0  0  0  0  0  0  0  0  0
  -28.5090  -23.7510   20.1460 C   0  0  0  0  0  2  0  0  0  0  0  0
  -28.3750  -25.1400   20.9650 C   0  0  0  0  0  2  0  0  0  0  0  0
  -28.4450  -26.4890   20.3320 O   0  0  0  0  0  0  0  0  0  0  0  0
  -24.6410  -31.9210   23.2810 C   0  0  0  0  0  0  0  0  0  0  0  0
  -27.3170  -27.3250   20.3330 C   0  0  0  0  0  0  0  0  0  0  0  0
  -23.4700  -30.4990   21.6360 C   0  0  0  0  0  3  0  0  0  0  0  0
  -24.9480  -28.9300   20.2570 C   0  0  0  0  0  0  0  0  0  0  0  0
  -26.0070  -30.8250   21.4870 C   0  0  0  0  0  2  0  0  0  0  0  0
  -26.1060  -29.4350   20.8630 C   0  0  0  0  0  0  0  0  0  0  0  0
  -27.2970  -28.6460   20.8840 C   0  0  0  0  0  3  0  0  0  0  0  0
  -26.1380  -26.8670   19.7130 C   0  0  0  0  0  3  0  0  0  0  0  0
  -24.9680  -27.6530   19.6690 C   0  0  0  0  0  3  0  0  0  0  0  0
  -23.7110  -29.8040   20.2680 C   0  0  0  0  0  2  0  0  0  0  0  0
  -24.7240  -31.1000   22.1920 N   0  0  0  0  0  0  0  0  0  0  0  0
  -23.5490  -32.2000   23.7960 O   0  0  0  0  0  0  0  0  0  0  0  0
  -22.7940  -29.4940   22.5990 C   0  0  0  0  0  0  0  0  0  0  0  0
  -21.4690  -29.3170   22.4570 N   0  0  0  0  0  0  0  0  0  0  0  0
  -23.4620  -28.8740   23.4310 O   0  0  0  0  0  0  0  0  0  0  0  0
  -20.9890  -29.8640   21.7570 H   0  0  0  0  0  0  0  0  0  0  0  0
  -18.0850  -28.1250   22.9270 C   0  0  0  0  0  0  0  0  0  0  0  0
  -20.6410  -28.3840   23.2240 C   0  0  0  0  0  3  0  0  0  0  0  0
  -20.7500  -26.9490   22.6620 C   0  0  0  0  0  2  0  0  0  0  0  0
  -19.6610  -26.6200   21.6360 C   0  0  0  0  0  2  0  0  0  0  0  0
  -18.2710  -26.7710   22.2600 C   0  0  0  0  0  2  0  0  0  0  0  0
  -19.1990  -28.8890   23.3640 C   0  0  0  0  0  0  0  0  0  0  0  0
  -18.9750  -30.1560   23.9460 C   0  0  0  0  0  3  0  0  0  0  0  0
  -17.6690  -30.6600   24.0920 C   0  0  0  0  0  3  0  0  0  0  0  0
  -16.5690  -29.8940   23.6710 C   0  0  0  0  0  3  0  0  0  0  0  0
  -16.7780  -28.6280   23.0950 C   0  0  0  0  0  3  0  0  0  0  0  0
  -25.9120  -32.5660   23.9180 C   0  0  0  0  0  3  0  0  0  0  0  0
  -26.4100  -31.8080   25.2100 C   0  0  1  0  0  0  0  0  0  0  0  0
  -25.3000  -31.5790   26.2630 C   0  0  0  0  0  1  0  0  0  0  0  0
  -27.0020  -30.4290   24.8410 C   0  0  0  0  0  1  0  0  0  0  0  0
  -27.5490  -32.6110   25.8830 C   0  0  0  0  0  1  0  0  0  0  0  0
  -25.5920  -33.9660   24.2310 N   0  0  0  0  0  0  0  0  0  0  0  0
  -25.9290  -35.0130   23.4650 C   0  0  0  0  0  0  0  0  0  0  0  0
  -26.6100  -34.9010   22.4420 O   0  0  0  0  0  0  0  0  0  0  0  0
  -24.9900  -34.1270   25.0240 H   0  0  0  0  0  0  0  0  0  0  0  0
  -24.1970  -36.7960   23.0750 C   0  0  0  0  0  1  0  0  0  0  0  0
  -25.4310  -36.4030   23.9030 C   0  0  0  0  0  3  0  0  0  0  0  0
  -27.5530  -37.3070   24.7480 C   0  0  0  0  0  1  0  0  0  0  0  0
  -26.4600  -37.4610   23.7910 N   0  0  0  0  0  0  0  0  0  0  0  0
  -26.0500  -38.3800   23.9260 H   0  0  0  0  0  0  0  0  0  0  0  0
  1 16  1  0
  2  7  1  0
  3  4  1  0
  3  2  1  0
  5  4  1  0
  5 23  1  0
  5  6  1  0
  7  1  1  0
  7  6  1  0
  8  1  2  0
  9 10  2  0
 10 13  1  0
 11  9  1  0
 11 14  2  0
 12 13  2  0
 12 16  1  0
 14 12  1  0
 15 11  1  0
 16 19  1  0
 17 15  1  0
 18 15  1  0
 20 21  2  0
 21 40  1  0
 22 21  1  0
 22 25  1  0
 23 20  1  0
 23 24  1  0
 24 22  2  0
 25 26  1  0
 26 27  2  0
 28 31  1  0
 28 27  1  0
 29 28  2  0
 30 29  1  0
 30 25  2  0
 31 32  1  0
 32 33  1  0
 33 34  2  0
 35 34  1  0
 35 39  1  0
 36 35  2  0
 37 32  2  0
 37 36  1  0
 38 37  1  0
 40 41  1  0
 41 44  1  0
 41 43  1  0
 42 40  2  0
 45 46  1  0
 45 20  1  0
 47 45  1  0
 48 10  1  0
 48 49  1  0
 49 52  1  0
 49 50  1  0
 50 51  1  0
 52 53  1  0
 54 56  1  0
 54 53  1  0
 55 66  2  0
 56 61  1  0
 57 65  1  0
 57 67  1  0
 58 64  1  0
 58 60  1  0
 59 65  1  0
 60 61  2  0
 60 59  1  0
 62 56  2  0
 63 62  1  0
 63 58  2  0
 64 57  1  0
 65 55  1  0
 67 69  2  0
 68 67  1  0
 70 68  1  0
 71 80  2  0
 71 76  1  0
 72 68  1  0
 72 76  1  0
 73 72  1  0
 74 75  1  0
 74 73  1  0
 75 71  1  0
 76 77  2  0
 77 78  1  0
 79 78  2  0
 80 79  1  0
 81 55  1  0
 81 86  1  0
 81 82  1  0
 82 85  1  1
 82 83  1  0
 84 82  1  0
 86 89  1  0
 87 91  1  0
 87 86  1  0
 88 87  2  0
 91 90  1  0
 93 91  1  0
 93 94  1  0
 93 92  1  0
M  ISO  4   1 100  16 100  53 101  54 101
M  END
>  <TORSDO>  (5) 
F 20

>  <SCORE>  (5) 
-14.131

>  <name>  (5) 
4

>  <ligand_id>  (5) 
4

>  <original_smiles>  (5) 
[H]OC([H])(C([H])([H])c1nc(N([H])C(=O)N2C([H])([H])C([H])([H])C([H])([H])C([H])(n3nc(-c4c([H])c([H])c(Oc5c([H])c([H])c(F)c([H])c5F)c([H])c4[H])c(C(=O)N([H])[H])c3N([H])[H])C2([H])[H])nc(N([H])[H])c1[H])C([H])([H])C([H])([H])Oc1c([H])c([H])c2c(c1[H])C([H])([H])N(C(=O)C([H])(N([H])C(=O)C([H])(N([H])C([H])([H])[H])C([H])([H])[H])C(C([H])([H])[H])(C([H])([H])[H])C([H])([H])[H])C([H])(C(=O)N([H])C1([H])c3c([H])c([H])c([H])c([H])c3C([H])([H])C([H])([H])C1([H])[H])C2([H])[H]

>  <smiles>  (5) 
[H]OC([H])(C([H])([H])c1nc(N([H])C(=O)N2C([H])([H])C([H])([H])C([H])([H])C([H])(n3nc(-c4c([H])c([H])c(Oc5c([H])c([H])c(F)c([H])c5F)c([H])c4[H])c(C(=O)N([H])[H])c3N([H])[H])C2([H])[H])nc(N([H])[H])c1[H])C([H])([H])C([H])([H])Oc1c([H])c([H])c2c(c1[H])C([H])([H])N(C(=O)C([H])(N([H])C(=O)C([H])(N([H])C([H])([H])[H])C([H])([H])[H])C(C([H])([H])[H])(C([H])([H])[H])C([H])([H])[H])C([H])(C(=O)N([H])C1([H])c3c([H])c([H])c([H])c([H])c3C([H])([H])C([H])([H])C1([H])[H])C2([H])[H]

$$$$
5:0:0
     RDKit          3D

 91 99  0  0  1  0  0  0  0  0999 V2000
  -30.6000  -14.7870   20.4040 C   0  0  0  0  0  0  0  0  0  0  0  0
  -30.3830  -12.5040   19.4250 C   0  0  0  0  0  2  0  0  0  0  0  0
  -29.4680  -12.5770   18.1830 C   0  0  0  0  0  2  0  0  0  0  0  0
  -27.9910  -12.4170   18.5920 C   0  0  0  0  0  2  0  0  0  0  0  0
  -27.6020  -13.3100   19.8010 C   0  0  0  0  0  3  0  0  0  0  0  0
  -28.6470  -13.2400   20.9380 C   0  0  0  0  0  2  0  0  0  0  0  0
  -29.9530  -13.5710   20.3590 N   0  0  0  0  0  0  0  0  0  0  0  0
  -31.8090  -14.8210   20.1500 O   0  0  0  0  0  0  0  0  0  0  0  0
  -30.9060  -17.4940   18.9370 C   0  0  0  0  0  3  0  0  0  0  0  0
  -31.0950  -18.7620   18.3840 C   0  0  0  0  0  3  0  0  0  0  0  0
  -30.0820  -17.3450   20.0640 C   0  0  0  0  0  0  0  0  0  0  0  0
  -29.7550  -19.7470   19.9620 C   0  0  0  0  0  0  0  0  0  0  0  0
  -30.5180  -19.8590   18.8920 N   0  0  0  0  0  0  0  0  0  0  0  0
  -29.4970  -18.5290   20.5430 N   0  0  0  0  0  0  0  0  0  0  0  0
  -29.8470  -15.9540   20.5550 N   0  0  0  0  0  0  0  0  0  0  0  0
  -29.1620  -20.9880   20.4190 N   0  0  0  0  0  4  0  0  0  0  0  0
  -28.9180  -15.7920   20.9110 H   0  0  0  0  0  0  0  0  0  0  0  0
  -28.5160  -20.8330   21.1850 H   0  0  0  0  0  0  0  0  0  0  0  0
  -25.2090  -13.9110   20.5060 C   0  0  0  0  0  0  0  0  0  0  0  0
  -24.1350  -13.1430   20.8670 C   0  0  0  0  0  0  0  0  0  0  0  0
  -24.5950  -11.7910   20.8540 C   0  0  0  0  0  0  0  0  0  0  0  0
  -26.2520  -13.0270   20.2840 N   0  0  0  0  0  0  0  0  0  0  0  0
  -25.8910  -11.7470   20.5610 N   0  0  0  0  0  0  0  0  0  0  0  0
  -23.8610  -10.5340   21.0460 C   0  0  0  0  0  0  0  0  0  0  0  0
  -24.2870   -9.5660   21.9820 C   0  0  0  0  0  3  0  0  0  0  0  0
  -23.5560   -8.3720   22.1590 C   0  0  0  0  0  3  0  0  0  0  0  0
  -22.3840   -8.1370   21.3990 C   0  0  0  0  0  0  0  0  0  0  0  0
  -21.9770   -9.0950   20.4540 C   0  0  0  0  0  3  0  0  0  0  0  0
  -22.7090  -10.2810   20.2740 C   0  0  0  0  0  3  0  0  0  0  0  0
  -21.6230   -6.9990   21.4880 O   0  0  0  0  0  0  0  0  0  0  0  0
  -21.5760   -6.2500   22.6380 C   0  0  0  0  0  0  0  0  0  0  0  0
  -21.1680   -6.8040   23.8700 C   0  0  0  0  0  3  0  0  0  0  0  0
  -21.0620   -5.9830   25.0100 C   0  0  0  0  0  3  0  0  0  0  0  0
  -21.3590   -4.6100   24.9210 C   0  0  0  0  0  0  0  0  0  0  0  0
  -21.7590   -4.0540   23.6930 C   0  0  0  0  0  3  0  0  0  0  0  0
  -21.8640   -4.8740   22.5540 C   0  0  0  0  0  0  0  0  0  0  0  0
  -22.2310   -4.3290   21.3700 F   0  0  0  0  0  0  0  0  0  0  0  0
  -21.2510   -3.8200   26.0140 F   0  0  0  0  0  0  0  0  0  0  0  0
  -22.7350  -13.6290   21.1110 C   0  0  0  0  0  0  0  0  0  0  0  0
  -21.9900  -12.9490   21.9740 N   0  0  0  0  0  0  0  0  0  0  0  0
  -22.3110  -14.6510   20.5720 O   0  0  0  0  0  0  0  0  0  0  0  0
  -22.3480  -12.1280   22.4410 H   0  0  0  0  0  0  0  0  0  0  0  0
  -21.0490  -13.2550   22.1720 H   0  0  0  0  0  0  0  0  0  0  0  0
  -25.3750  -15.2810   20.3250 N   0  0  0  0  0  0  0  0  0  0  0  0
  -24.5970  -15.9210   20.4340 H   0  0  0  0  0  0  0  0  0  0  0  0
  -26.2170  -15.7350   19.9930 H   0  0  0  0  0  0  0  0  0  0  0  0
  -30.6660  -22.7500   19.2100 C   0  0  0  0  0  1  0  0  0  0  0  0
  -29.6210  -22.4580   20.3120 C   0  0  0  0  0  0  0  0  0  0  0  0
  -28.5420  -23.6890   20.4980 C   0  0  0  0  0  2  0  0  0  0  0  0
  -28.6400  -25.1330   19.7270 C   0  0  0  0  0  2  0  0  0  0  0  0
  -28.4440  -26.4780   20.3650 O   0  0  0  0  0  0  0  0  0  0  0  0
  -24.6070  -31.8880   23.2490 C   0  0  0  0  0  0  0  0  0  0  0  0
  -27.2990  -27.3000   20.2520 C   0  0  0  0  0  0  0  0  0  0  0  0
  -23.4360  -30.4600   21.6100 C   0  0  0  0  0  3  0  0  0  0  0  0
  -24.9140  -28.9040   20.2100 C   0  0  0  0  0  0  0  0  0  0  0  0
  -25.9750  -30.7930   21.4510 C   0  0  0  0  0  2  0  0  0  0  0  0
  -26.0720  -29.4070   20.8140 C   0  0  0  0  0  0  0  0  0  0  0  0
  -27.2620  -28.6140   20.8260 C   0  0  0  0  0  3  0  0  0  0  0  0
  -26.1160  -26.8490   19.6280 C   0  0  0  0  0  3  0  0  0  0  0  0
  -24.9410  -27.6310   19.6110 C   0  0  0  0  0  3  0  0  0  0  0  0
  -23.6720  -29.7730   20.2390 C   0  0  0  0  0  2  0  0  0  0  0  0
  -24.6910  -31.0700   22.1580 N   0  0  0  0  0  0  0  0  0  0  0  0
  -23.5160  -32.1610   23.7690 O   0  0  0  0  0  0  0  0  0  0  0  0
  -22.7720  -29.4520   22.5750 C   0  0  0  0  0  0  0  0  0  0  0  0
  -21.4460  -29.2760   22.4470 N   0  0  0  0  0  0  0  0  0  0  0  0
  -23.4480  -28.8310   23.4010 O   0  0  0  0  0  0  0  0  0  0  0  0
  -20.9620  -29.8210   21.7470 H   0  0  0  0  0  0  0  0  0  0  0  0
  -18.0630  -28.0900   22.9510 C   0  0  0  0  0  0  0  0  0  0  0  0
  -20.6240  -28.3420   23.2180 C   0  0  0  0  0  3  0  0  0  0  0  0
  -20.7220  -26.9110   22.6380 C   0  0  0  0  0  2  0  0  0  0  0  0
  -19.6150  -26.5940   21.6270 C   0  0  0  0  0  2  0  0  0  0  0  0
  -18.2350  -26.7420   22.2730 C   0  0  0  0  0  2  0  0  0  0  0  0
  -19.1850  -28.8490   23.3800 C   0  0  0  0  0  0  0  0  0  0  0  0
  -18.9690  -30.1120   23.9720 C   0  0  0  0  0  3  0  0  0  0  0  0
  -17.6660  -30.6150   24.1450 C   0  0  0  0  0  3  0  0  0  0  0  0
  -16.5600  -29.8540   23.7320 C   0  0  0  0  0  3  0  0  0  0  0  0
  -16.7590  -28.5940   23.1410 C   0  0  0  0  0  3  0  0  0  0  0  0
  -25.8770  -32.5410   23.8800 C   0  0  0  0  0  3  0  0  0  0  0  0
  -25.5470  -33.9390   24.1960 N   0  0  0  0  0  0  0  0  0  0  0  0
  -25.8770  -34.9920   23.4350 C   0  0  0  0  0  0  0  0  0  0  0  0
  -26.5590  -34.8890   22.4120 O   0  0  0  0  0  0  0  0  0  0  0  0
  -24.9430  -34.0910   24.9890 H   0  0  0  0  0  0  0  0  0  0  0  0
  -24.1330  -36.7680   23.0580 C   0  0  0  0  0  1  0  0  0  0  0  0
  -25.3720  -36.3780   23.8810 C   0  0  0  0  0  3  0  0  0  0  0  0
  -27.4930  -37.2900   24.7220 C   0  0  0  0  0  1  0  0  0  0  0  0
  -26.3940  -37.4430   23.7710 N   0  0  0  0  0  0  0  0  0  0  0  0
  -25.9750  -38.3580   23.9160 H   0  0  0  0  0  0  0  0  0  0  0  0
  -26.3810  -31.7880   25.1730 C   0  0  1  0  0  0  0  0  0  0  0  0
  -25.2780  -31.5550   26.2320 C   0  0  0  0  0  1  0  0  0  0  0  0
  -26.9790  -30.4110   24.8030 C   0  0  0  0  0  1  0  0  0  0  0  0
  -27.5170  -32.6010   25.8420 C   0  0  0  0  0  1  0  0  0  0  0  0
  1 15  1  0
  2  7  1  0
  3  4  1  0
  3  2  1  0
  5  4  1  0
  5 22  1  0
  5  6  1  0
  7  1  1  0
  7  6  1  0
  8  1  2  0
  9 11  1  0
 10 13  1  0
 10  9  2  0
 11 14  2  0
 11 15  1  0
 12 16  1  0
 12 14  1  0
 13 12  2  0
 15 17  1  0
 16 18  1  0
 19 20  2  0
 20 39  1  0
 21 20  1  0
 21 24  1  0
 22 19  1  0
 22 23  1  0
 23 21  2  0
 24 25  1  0
 25 26  2  0
 27 30  1  0
 27 26  1  0
 28 27  2  0
 29 28  1  0
 29 24  2  0
 30 31  1  0
 31 32  1  0
 32 33  2  0
 34 33  1  0
 34 38  1  0
 35 34  2  0
 36 31  2  0
 36 35  1  0
 37 36  1  0
 39 40  1  0
 40 43  1  0
 40 42  1  0
 41 39  2  0
 44 45  1  0
 44 19  1  0
 46 44  1  0
 47 48  1  0
 48 16  2  0
 48 49  1  0
 50 51  1  0
 50 49  1  0
 52 63  2  0
 53 51  1  0
 53 58  1  0
 54 62  1  0
 54 64  1  0
 55 61  1  0
 55 57  1  0
 56 62  1  0
 57 58  2  0
 57 56  1  0
 59 53  2  0
 60 59  1  0
 60 55  2  0
 61 54  1  0
 62 52  1  0
 64 66  2  0
 65 64  1  0
 67 65  1  0
 68 77  2  0
 68 73  1  0
 69 65  1  0
 69 73  1  0
 70 69  1  0
 71 72  1  0
 71 70  1  0
 72 68  1  0
 73 74  2  0
 74 75  1  0
 76 75  2  0
 77 76  1  0
 78 52  1  0
 78 79  1  0
 78 88  1  0
 79 82  1  0
 80 84  1  0
 80 79  1  0
 81 80  2  0
 84 83  1  0
 86 84  1  0
 86 87  1  0
 86 85  1  0
 88 91  1  1
 88 89  1  0
 90 88  1  0
M  ISO  4   1 100  15 100  50 101  51 101
M  END
>  <TORSDO>  (6) 
F 18

>  <SCORE>  (6) 
-14.590

>  <name>  (6) 
5

>  <ligand_id>  (6) 
5

>  <original_smiles>  (6) 
[H]c1nc(N([H])C([H])(C([H])([H])[H])C([H])([H])C([H])([H])Oc2c([H])c([H])c3c(c2[H])C([H])([H])N(C(=O)C([H])(N([H])C(=O)C([H])(N([H])C([H])([H])[H])C([H])([H])[H])C(C([H])([H])[H])(C([H])([H])[H])C([H])([H])[H])C([H])(C(=O)N([H])C2([H])c4c([H])c([H])c([H])c([H])c4C([H])([H])C([H])([H])C2([H])[H])C3([H])[H])nc(N([H])C(=O)N2C([H])([H])C([H])([H])C([H])([H])C([H])(n3nc(-c4c([H])c([H])c(Oc5c([H])c([H])c(F)c([H])c5F)c([H])c4[H])c(C(=O)N([H])[H])c3N([H])[H])C2([H])[H])c1[H]

>  <smiles>  (6) 
[H]c1nc(N([H])C([H])(C([H])([H])[H])C([H])([H])C([H])([H])Oc2c([H])c([H])c3c(c2[H])C([H])([H])N(C(=O)C([H])(N([H])C(=O)C([H])(N([H])C([H])([H])[H])C([H])([H])[H])C(C([H])([H])[H])(C([H])([H])[H])C([H])([H])[H])C([H])(C(=O)N([H])C2([H])c4c([H])c([H])c([H])c([H])c4C([H])([H])C([H])([H])C2([H])[H])C3([H])[H])nc(N([H])C(=O)N2C([H])([H])C([H])([H])C([H])([H])C([H])(n3nc(-c4c([H])c([H])c(Oc5c([H])c([H])c(F)c([H])c5F)c([H])c4[H])c(C(=O)N([H])[H])c3N([H])[H])C2([H])[H])c1[H]

$$$$
6:0:0
     RDKit          3D

 91 95  0  0  1  0  0  0  0  0999 V2000
  -26.1740  -18.2880   18.1860 C   0  0  0  0  0  3  0  0  0  0  0  0
  -26.8250  -17.0490   18.3220 C   0  0  0  0  0  0  0  0  0  0  0  0
  -28.2080  -16.9850   18.6380 C   0  0  0  0  0  0  0  0  0  0  0  0
  -27.9700  -19.6470   18.7650 C   0  0  0  0  0  0  0  0  0  0  0  0
  -25.9620  -15.8140   18.0620 C   0  0  0  0  0  1  0  0  0  0  0  0
  -26.7170  -19.4980   18.3960 N   0  0  0  0  0  0  0  0  0  0  0  0
  -28.7440  -18.3880   18.8600 N   0  0  0  0  0  0  0  0  0  0  0  0
  -28.0610  -21.2280   18.9230 N   0  0  0  0  0  0  0  0  0  0  0  0
  -27.1200  -21.5170   18.6740 H   0  0  0  0  0  0  0  0  0  0  0  0
  -28.8560  -15.2820   18.4980 C   0  0  0  0  0  2  0  0  0  0  0  0
  -30.0810  -13.6570   20.9790 C   0  0  2  0  0  0  0  0  0  0  0  0
  -31.3810  -14.1290   20.3470 C   0  0  0  0  0  1  0  0  0  0  0  0
  -30.3040  -15.8410   20.5000 C   0  0  0  0  0 15  0  0  0  0  0  0
  -28.4180  -15.4630   21.1210 C   0  0  0  0  0  1  0  0  0  0  0  0
  -27.7870  -13.8320   21.5750 C   0  0  0  0  0  2  0  0  0  0  0  0
  -28.9950  -12.5370   21.5310 C   0  0  0  0  0  1  0  0  0  0  0  0
  -30.5570  -12.7420   20.9380 N   0  0  0  0  0  1  0  0  0  0  0  0
  -30.3580  -14.2420   22.2450 O   0  0  0  0  0  1  0  0  0  0  0  0
  -29.2880  -13.8960   19.4910 N   0  0  0  0  0  2  0  0  0  0  0  0
  -29.2870  -13.0460   18.9500 H   0  0  0  0  0  0  0  0  0  0  0  0
  -25.2560  -13.9830   21.1350 C   0  0  0  0  0  0  0  0  0  0  0  0
  -24.2630  -13.0480   21.2150 C   0  0  0  0  0  0  0  0  0  0  0  0
  -24.8950  -11.7720   21.2010 C   0  0  0  0  0  0  0  0  0  0  0  0
  -26.4570  -13.3080   21.1810 N   0  0  0  0  0  0  0  0  0  0  0  0
  -26.2200  -11.9490   21.2060 N   0  0  0  0  0  0  0  0  0  0  0  0
  -24.2960  -10.4180   21.1960 C   0  0  0  0  0  0  0  0  0  0  0  0
  -24.6870   -9.4160   22.1150 C   0  0  0  0  0  3  0  0  0  0  0  0
  -24.0620   -8.1470   22.1100 C   0  0  0  0  0  3  0  0  0  0  0  0
  -23.0270   -7.8630   21.1850 C   0  0  0  0  0  0  0  0  0  0  0  0
  -22.6520   -8.8560   20.2640 C   0  0  0  0  0  3  0  0  0  0  0  0
  -23.2810  -10.1130   20.2650 C   0  0  0  0  0  3  0  0  0  0  0  0
  -22.3850   -6.6490   21.0820 O   0  0  0  0  0  0  0  0  0  0  0  0
  -22.2780   -5.7910   22.1470 C   0  0  0  0  0  0  0  0  0  0  0  0
  -21.6840   -6.1840   23.3660 C   0  0  0  0  0  3  0  0  0  0  0  0
  -21.5290   -5.2490   24.4090 C   0  0  0  0  0  3  0  0  0  0  0  0
  -21.9590   -3.9200   24.2350 C   0  0  0  0  0  0  0  0  0  0  0  0
  -22.5430   -3.5230   23.0190 C   0  0  0  0  0  3  0  0  0  0  0  0
  -22.6970   -4.4550   21.9780 C   0  0  0  0  0  0  0  0  0  0  0  0
  -23.2400   -4.0590   20.8000 F   0  0  0  0  0  0  0  0  0  0  0  0
  -21.8060   -3.0220   25.2360 F   0  0  0  0  0  0  0  0  0  0  0  0
  -22.7950  -13.3450   21.2860 C   0  0  0  0  0  0  0  0  0  0  0  0
  -22.0380  -12.5260   22.0070 N   0  0  0  0  0  0  0  0  0  0  0  0
  -22.3270  -14.3540   20.7620 O   0  0  0  0  0  0  0  0  0  0  0  0
  -22.4330  -11.7060   22.4440 H   0  0  0  0  0  0  0  0  0  0  0  0
  -21.0500  -12.7110   22.1140 H   0  0  0  0  0  0  0  0  0  0  0  0
  -25.2120  -15.3630   21.1000 N   0  0  0  0  0  0  0  0  0  0  0  0
  -24.3220  -15.8310   20.9700 H   0  0  0  0  0  0  0  0  0  0  0  0
  -26.0060  -15.9790   21.0020 H   0  0  0  0  0  0  0  0  0  0  0  0
  -28.7480  -22.7110   19.2730 C   0  0  0  0  0  3  0  0  0  0  0  0
  -28.0050  -24.4180   19.3520 C   0  0  0  0  0  3  0  0  0  0  0  0
  -28.4310  -26.0230   19.7190 O   0  0  0  0  0  0  0  0  0  0  0  0
  -25.0130  -32.0440   23.2080 C   0  0  0  0  0  0  0  0  0  0  0  0
  -27.5010  -27.2000   19.8790 C   0  0  0  0  0  0  0  0  0  0  0  0
  -23.8070  -30.6460   21.5990 C   0  0  0  0  0  3  0  0  0  0  0  0
  -25.2220  -29.1000   20.0910 C   0  0  0  0  0  0  0  0  0  0  0  0
  -26.3770  -30.8760   21.3790 C   0  0  0  0  0  2  0  0  0  0  0  0
  -26.4410  -29.4790   20.6660 C   0  0  0  0  0  0  0  0  0  0  0  0
  -27.5840  -28.5450   20.5430 C   0  0  0  0  0  3  0  0  0  0  0  0
  -26.2370  -27.0020   19.3070 C   0  0  0  0  0  3  0  0  0  0  0  0
  -25.1440  -27.8830   19.4090 C   0  0  0  0  0  3  0  0  0  0  0  0
  -24.0010  -30.0060   20.2040 C   0  0  0  0  0  2  0  0  0  0  0  0
  -25.0920  -31.2170   22.1120 N   0  0  0  0  0  0  0  0  0  0  0  0
  -23.9300  -32.3010   23.7590 O   0  0  0  0  0  0  0  0  0  0  0  0
  -23.1650  -29.6130   22.5660 C   0  0  0  0  0  0  0  0  0  0  0  0
  -21.8420  -29.3920   22.4570 N   0  0  0  0  0  0  0  0  0  0  0  0
  -23.8660  -29.0150   23.3850 O   0  0  0  0  0  0  0  0  0  0  0  0
  -21.3270  -29.9230   21.7690 H   0  0  0  0  0  0  0  0  0  0  0  0
  -18.5330  -27.9890   22.9660 C   0  0  0  0  0  0  0  0  0  0  0  0
  -21.0700  -28.4180   23.2380 C   0  0  0  0  0  3  0  0  0  0  0  0
  -21.2650  -26.9870   22.6840 C   0  0  0  0  0  2  0  0  0  0  0  0
  -20.1920  -26.5810   21.6710 C   0  0  0  0  0  2  0  0  0  0  0  0
  -18.8000  -26.6440   22.3070 C   0  0  0  0  0  2  0  0  0  0  0  0
  -19.6000  -28.8270   23.3880 C   0  0  0  0  0  0  0  0  0  0  0  0
  -19.2980  -30.0760   23.9720 C   0  0  0  0  0  3  0  0  0  0  0  0
  -17.9630  -30.4930   24.1340 C   0  0  0  0  0  3  0  0  0  0  0  0
  -16.9110  -29.6550   23.7270 C   0  0  0  0  0  3  0  0  0  0  0  0
  -17.1960  -28.4040   23.1490 C   0  0  0  0  0  3  0  0  0  0  0  0
  -26.2790  -32.7210   23.8130 C   0  0  0  0  0  3  0  0  0  0  0  0
  -26.8490  -31.9510   25.0690 C   0  0  1  0  0  0  0  0  0  0  0  0
  -25.7890  -31.6560   26.1580 C   0  0  0  0  0  1  0  0  0  0  0  0
  -27.4760  -30.6000   24.6570 C   0  0  0  0  0  1  0  0  0  0  0  0
  -27.9810  -32.7770   25.7200 C   0  0  0  0  0  1  0  0  0  0  0  0
  -25.9180  -34.1000   24.1940 N   0  0  0  0  0  0  0  0  0  0  0  0
  -26.2370  -35.2010   23.5000 C   0  0  0  0  0  0  0  0  0  0  0  0
  -26.9300  -35.1640   22.4810 O   0  0  0  0  0  0  0  0  0  0  0  0
  -25.3080  -34.1970   24.9920 H   0  0  0  0  0  0  0  0  0  0  0  0
  -24.4830  -36.9840   23.1930 C   0  0  0  0  0  1  0  0  0  0  0  0
  -25.7070  -36.5550   24.0170 C   0  0  0  0  0  3  0  0  0  0  0  0
  -27.8010  -37.4360   24.9530 C   0  0  0  0  0  1  0  0  0  0  0  0
  -26.7210  -37.6340   23.9910 N   0  0  0  0  0  0  0  0  0  0  0  0
  -26.2900  -38.5360   24.1780 H   0  0  0  0  0  0  0  0  0  0  0  0
  1  2  2  0
  1  6  1  0
  2  3  1  0
  3  7  2  0
  4  7  1  0
  4  8  1  0
  5  2  1  0
  6  4  2  0
  8 49  1  0
  9  8  1  0
 10  3  1  0
 10 19  1  0
 11 16  1  1
 11 18  1  0
 12 11  1  0
 14 15  1  0
 17 11  1  0
 20 19  1  0
 21 24  1  0
 21 22  2  0
 22 41  1  0
 23 25  2  0
 23 22  1  0
 24 25  1  0
 24 15  1  0
 26 23  1  0
 26 27  1  0
 28 27  2  0
 29 28  1  0
 30 31  1  0
 30 29  2  0
 31 26  2  0
 32 29  1  0
 32 33  1  0
 33 34  1  0
 34 35  2  0
 36 35  1  0
 36 40  1  0
 37 36  2  0
 38 33  2  0
 38 37  1  0
 39 38  1  0
 41 42  1  0
 42 45  1  0
 42 44  1  0
 43 41  2  0
 46 21  1  0
 47 46  1  0
 48 46  1  0
 49 50  2  0
 50 51  1  0
 51 53  1  0
 52 63  2  0
 53 58  1  0
 54 62  1  0
 54 64  1  0
 55 61  1  0
 55 57  1  0
 56 62  1  0
 57 56  1  0
 58 57  2  0
 59 60  1  0
 59 53  2  0
 60 55  2  0
 61 54  1  0
 62 52  1  0
 64 66  2  0
 65 64  1  0
 67 65  1  0
 68 77  2  0
 68 73  1  0
 69 65  1  0
 69 73  1  0
 70 69  1  0
 71 72  1  0
 71 70  1  0
 72 68  1  0
 73 74  2  0
 74 75  1  0
 76 75  2  0
 77 76  1  0
 78 52  1  0
 78 83  1  0
 78 79  1  0
 79 82  1  1
 79 80  1  0
 81 79  1  0
 83 86  1  0
 84 88  1  0
 84 83  1  0
 85 84  2  0
 88 87  1  0
 90 88  1  0
 90 91  1  0
 90 89  1  0
M  ISO  4  11 100  19 100  50 101  51 101
M  END
>  <TORSDO>  (7) 
F 19

>  <SCORE>  (7) 
-3.964

>  <name>  (7) 
6

>  <ligand_id>  (7) 
6

>  <original_smiles>  (7) 
[H]c1nc(N([H])C([H])([H])C([H])([H])Oc2c([H])c([H])c3c(c2[H])C([H])([H])N(C(=O)C([H])(N([H])C(=O)C([H])(N([H])C([H])([H])[H])C([H])([H])[H])C(C([H])([H])[H])(C([H])([H])[H])C([H])([H])[H])C([H])(C(=O)N([H])C2([H])c4c([H])c([H])c([H])c([H])c4C([H])([H])C([H])([H])C2([H])[H])C3([H])[H])nc(C([H])([H])N([H])C(=O)N2C([H])([H])C([H])([H])C([H])([H])C([H])(n3nc(-c4c([H])c([H])c(Oc5c([H])c([H])c(F)c([H])c5F)c([H])c4[H])c(C(=O)N([H])[H])c3N([H])[H])C2([H])[H])c1C([H])([H])[H]

>  <smiles>  (7) 
[H]c1nc(N([H])C([H])([H])C([H])([H])Oc2c([H])c([H])c3c(c2[H])C([H])([H])N(C(=O)C([H])(N([H])C(=O)C([H])(N([H])C([H])([H])[H])C([H])([H])[H])C(C([H])([H])[H])(C([H])([H])[H])C([H])([H])[H])C([H])(C(=O)N([H])C2([H])c4c([H])c([H])c([H])c([H])c4C([H])([H])C([H])([H])C2([H])[H])C3([H])[H])nc(C([H])([H])N([H])C(=O)N2C([H])([H])C([H])([H])C([H])([H])C([H])(n3nc(-c4c([H])c([H])c(Oc5c([H])c([H])c(F)c([H])c5F)c([H])c4[H])c(C(=O)N([H])[H])c3N([H])[H])C2([H])[H])c1C([H])([H])[H]

$$$$
7:0:0
     RDKit          3D

 97102  0  0  1  0  0  0  0  0999 V2000
  -23.4200  -16.8750   18.3700 C   0  0  0  0  0  1  0  0  0  0  0  0
  -24.8590  -16.5040   18.7380 C   0  0  0  0  0  3  0  0  0  0  0  0
  -29.9740  -13.2790   21.4420 C   0  0  0  0  0  0  0  0  0  0  0  0
  -31.1050  -12.8350   19.1100 C   0  0  0  0  0  3  0  0  0  0  0  0
  -30.2310  -13.1830   17.7830 C   0  0  0  0  0  3  0  0  0  0  0  0
  -28.7070  -13.5450   17.9950 C   0  0  0  0  0  2  0  0  0  0  0  0
  -28.5650  -13.8050   19.5060 C   0  0  1  0  0  0  0  0  0  0  0  0
  -29.1500  -12.2940   19.8100 C   0  0  0  0  0  2  0  0  0  0  0  0
  -30.3290  -12.5820   20.3510 N   0  0  0  0  0  0  0  0  0  0  0  0
  -30.7830  -14.2850   21.4690 O   0  0  0  0  0  0  0  0  0  0  0  0
  -25.4410  -11.4920   18.9930 C   0  0  0  0  0  3  0  0  0  0  0  0
  -24.6080  -12.9780   18.4940 C   0  0  0  0  0  0  0  0  0  0  0  0
  -24.7100  -14.5930   19.0870 C   0  0  0  0  0  3  0  0  0  0  0  0
  -26.9550  -12.4430   21.3230 C   0  0  0  0  0  2  0  0  0  0  0  0
  -26.5740  -11.2010   20.2390 N   0  0  0  0  0  2  0  0  0  0  0  0
  -25.2170  -14.4720   20.3350 N   0  0  0  0  0  1  0  0  0  0  0  0
  -28.5350  -12.8250   22.0170 N   0  0  0  0  0  0  0  0  0  0  0  0
  -28.4200  -13.2610   22.9190 H   0  0  0  0  0  0  0  0  0  0  0  0
  -26.5060  -14.5200   22.0300 C   0  0  0  0  0  3  0  0  0  0  0  0
  -25.0410  -13.5580   22.2130 C   0  0  0  0  0  3  0  0  0  0  0  0
  -24.6690  -12.6420   20.7970 C   0  0  0  0  0  2  0  0  0  0  0  0
  -27.4600  -14.4470   20.3710 N   0  0  0  0  0  0  0  0  0  0  0  0
  -26.7250  -13.4760   19.3150 N   0  0  0  0  0  2  0  0  0  0  0  0
  -23.9920  -11.1670   21.0650 C   0  0  0  0  0  0  0  0  0  0  0  0
  -24.4930  -10.0790   21.9010 C   0  0  0  0  0  3  0  0  0  0  0  0
  -23.8250   -8.8120   22.0720 C   0  0  0  0  0  3  0  0  0  0  0  0
  -22.5840   -8.5680   21.4340 C   0  0  0  0  0  0  0  0  0  0  0  0
  -22.0970   -9.6020   20.6130 C   0  0  0  0  0  3  0  0  0  0  0  0
  -22.7740  -10.8400   20.4360 C   0  0  0  0  0  3  0  0  0  0  0  0
  -21.8330   -7.3950   21.4710 O   0  0  0  0  0  0  0  0  0  0  0  0
  -21.8170   -6.4880   22.5130 C   0  0  0  0  0  0  0  0  0  0  0  0
  -21.5380   -6.8630   23.8480 C   0  0  0  0  0  3  0  0  0  0  0  0
  -21.4600   -5.8840   24.8630 C   0  0  0  0  0  3  0  0  0  0  0  0
  -21.6520   -4.5240   24.5560 C   0  0  0  0  0  0  0  0  0  0  0  0
  -21.9020   -4.1380   23.2280 C   0  0  0  0  0  3  0  0  0  0  0  0
  -21.9720   -5.1120   22.2140 C   0  0  0  0  0  0  0  0  0  0  0  0
  -22.1790   -4.7150   20.9340 F   0  0  0  0  0  0  0  0  0  0  0  0
  -21.5970   -3.5880   25.5350 F   0  0  0  0  0  0  0  0  0  0  0  0
  -23.5840  -14.0510   22.4300 C   0  0  0  0  0  0  0  0  0  0  0  0
  -22.7630  -13.2200   23.0640 N   0  0  0  0  0  0  0  0  0  0  0  0
  -23.0640  -14.9960   21.8120 O   0  0  0  0  0  0  0  0  0  0  0  0
  -23.1110  -12.3960   23.5310 H   0  0  0  0  0  0  0  0  0  0  0  0
  -21.7850  -13.4570   23.1500 H   0  0  0  0  0  0  0  0  0  0  0  0
  -26.4560  -15.8700   22.2350 N   0  0  0  0  0  0  0  0  0  0  0  0
  -25.4970  -16.0640   21.9660 H   0  0  0  0  0  0  0  0  0  0  0  0
  -27.0870  -16.2900   21.5670 H   0  0  0  0  0  0  0  0  0  0  0  0
  -23.8500  -12.8330   17.3240 N   0  0  0  0  0  0  0  0  0  0  0  0
  -23.2230  -13.5830   17.0400 H   0  0  0  0  0  0  0  0  0  0  0  0
  -23.5330  -11.9100   17.0380 H   0  0  0  0  0  0  0  0  0  0  0  0
  -25.5600  -18.0350   19.5200 N   0  0  0  0  0  4  0  0  0  0  0  0
  -26.4870  -17.7130   19.7490 H   0  0  0  0  0  0  0  0  0  0  0  0
  -25.0630  -18.0420   20.3920 H   0  0  0  0  0  0  0  0  0  0  0  0
  -24.4530  -20.4270   18.8600 C   0  0  0  0  0  1  0  0  0  0  0  0
  -25.8300  -19.8430   19.1940 C   0  0  0  0  0  2  0  0  0  0  0  0
  -26.7350  -21.5190   19.9770 C   0  0  0  0  0 15  0  0  0  0  0  0
  -26.8730  -23.5750   19.8680 C   0  0  0  0  0  1  0  0  0  0  0  0
  -27.6870  -25.1650   20.4060 O   0  0  0  0  0  0  0  0  0  0  0  0
  -25.1350  -32.0150   23.5370 C   0  0  0  0  0  0  0  0  0  0  0  0
  -27.1840  -26.6560   20.4570 C   0  0  0  0  0  0  0  0  0  0  0  0
  -23.9450  -30.6690   21.8940 C   0  0  0  0  0  3  0  0  0  0  0  0
  -25.3020  -29.0000   20.4510 C   0  0  0  0  0  0  0  0  0  0  0  0
  -26.5350  -30.6150   21.8510 C   0  0  0  0  0  2  0  0  0  0  0  0
  -26.5010  -29.1830   21.1450 C   0  0  0  0  0  0  0  0  0  0  0  0
  -27.4610  -28.0170   21.1320 C   0  0  0  0  0  3  0  0  0  0  0  0
  -26.0490  -26.7780   19.6770 C   0  0  0  0  0  3  0  0  0  0  0  0
  -25.1330  -27.8390   19.6970 C   0  0  0  0  0  3  0  0  0  0  0  0
  -24.1810  -30.0350   20.5040 C   0  0  0  0  0  2  0  0  0  0  0  0
  -25.2390  -31.1400   22.4740 N   0  0  0  0  0  0  0  0  0  0  0  0
  -24.0350  -32.3490   24.0120 O   0  0  0  0  0  0  0  0  0  0  0  0
  -23.1960  -29.6780   22.8280 C   0  0  0  0  0  0  0  0  0  0  0  0
  -21.8720  -29.5170   22.6470 N   0  0  0  0  0  0  0  0  0  0  0  0
  -23.8170  -29.0660   23.7020 O   0  0  0  0  0  0  0  0  0  0  0  0
  -21.4180  -30.0650   21.9300 H   0  0  0  0  0  0  0  0  0  0  0  0
  -18.4730  -28.2900   23.0210 C   0  0  0  0  0  0  0  0  0  0  0  0
  -21.0150  -28.5920   23.4000 C   0  0  0  0  0  3  0  0  0  0  0  0
  -21.1540  -27.1450   22.8700 C   0  0  0  0  0  2  0  0  0  0  0  0
  -20.1080  -26.7870   21.8100 C   0  0  0  0  0  2  0  0  0  0  0  0
  -18.6960  -26.9290   22.3840 C   0  0  0  0  0  2  0  0  0  0  0  0
  -19.5620  -29.0790   23.4850 C   0  0  0  0  0  0  0  0  0  0  0  0
  -19.2980  -30.3470   24.0450 C   0  0  0  0  0  3  0  0  0  0  0  0
  -17.9780  -30.8310   24.1420 C   0  0  0  0  0  3  0  0  0  0  0  0
  -16.9050  -30.0430   23.6890 C   0  0  0  0  0  3  0  0  0  0  0  0
  -17.1540  -28.7750   23.1380 C   0  0  0  0  0  3  0  0  0  0  0  0
  -26.3870  -32.6550   24.2050 C   0  0  0  0  0  3  0  0  0  0  0  0
  -26.0640  -34.0620   24.5310 N   0  0  0  0  0  0  0  0  0  0  0  0
  -26.4380  -35.1330   23.8150 C   0  0  0  0  0  0  0  0  0  0  0  0
  -27.1500  -35.0420   22.8130 O   0  0  0  0  0  0  0  0  0  0  0  0
  -25.4400  -34.2060   25.3110 H   0  0  0  0  0  0  0  0  0  0  0  0
  -24.7630  -36.9800   23.4200 C   0  0  0  0  0  1  0  0  0  0  0  0
  -25.9510  -36.5220   24.2830 C   0  0  0  0  0  3  0  0  0  0  0  0
  -28.0490  -37.3600   25.2530 C   0  0  0  0  0  1  0  0  0  0  0  0
  -27.0050  -37.5620   24.2510 N   0  0  0  0  0  0  0  0  0  0  0  0
  -26.6050  -38.4840   24.3960 H   0  0  0  0  0  0  0  0  0  0  0  0
  -26.8340  -31.9020   25.5200 C   0  0  1  0  0  0  0  0  0  0  0  0
  -25.6940  -31.6870   26.5440 C   0  0  0  0  0  1  0  0  0  0  0  0
  -27.4230  -30.5150   25.1920 C   0  0  0  0  0  1  0  0  0  0  0  0
  -27.9570  -32.7000   26.2230 C   0  0  0  0  0  1  0  0  0  0  0  0
  2  1  1  0
  2 13  1  0
  2 50  1  0
  3 10  2  0
  3 17  1  0
  4  9  1  0
  5  6  1  0
  5  4  2  0
  7  6  1  1
  7  8  1  0
  7 22  1  0
  8  9  1  0
  9  3  1  0
 11 15  1  0
 12 11  2  0
 12 13  1  0
 13 16  1  0
 14 17  1  0
 15 14  1  0
 17 18  1  0
 19 20  1  0
 19 44  1  0
 20 21  1  0
 20 39  1  0
 21 24  1  0
 22 19  1  0
 23  7  1  0
 23 22  1  0
 24 25  1  0
 25 26  2  0
 27 30  1  0
 27 26  1  0
 28 27  2  0
 29 28  1  0
 29 24  2  0
 30 31  1  0
 31 32  1  0
 32 33  2  0
 34 33  1  0
 34 38  1  0
 35 34  2  0
 36 31  2  0
 36 35  1  0
 37 36  1  0
 39 40  1  0
 40 43  1  0
 40 42  1  0
 41 39  2  0
 45 44  1  0
 46 44  1  0
 47 12  1  0
 48 47  1  0
 49 47  1  0
 50 51  1  0
 50 52  1  0
 53 54  1  0
 54 50  1  0
 56 57  1  0
 57 59  1  0
 58 69  2  0
 59 64  1  0
 60 68  1  0
 60 70  1  0
 61 67  1  0
 61 63  1  0
 62 68  1  0
 63 62  1  0
 64 63  2  0
 65 66  1  0
 65 59  2  0
 66 61  2  0
 67 60  1  0
 68 58  1  0
 70 72  2  0
 71 70  1  0
 73 71  1  0
 74 83  2  0
 74 79  1  0
 75 71  1  0
 75 79  1  0
 76 75  1  0
 77 78  1  0
 77 76  1  0
 78 74  1  0
 79 80  2  0
 80 81  1  0
 82 81  2  0
 83 82  1  0
 84 58  1  0
 84 85  1  0
 84 94  1  0
 85 88  1  0
 86 90  1  0
 86 85  1  0
 87 86  2  0
 90 89  1  0
 92 90  1  0
 92 93  1  0
 92 91  1  0
 94 97  1  1
 94 95  1  0
 96 94  1  0
M  ISO  4   3 100  17 100  56 101  57 101
M  END
>  <TORSDO>  (8) 
F 21

>  <SCORE>  (8) 
16.652

>  <name>  (8) 
7

>  <ligand_id>  (8) 
7

>  <original_smiles>  (8) 
[H]c1nc(N([H])C(=O)N2C([H])([H])C([H])([H])C([H])([H])C([H])(n3nc(-c4c([H])c([H])c(Oc5c([H])c([H])c(F)c([H])c5F)c([H])c4[H])c(C(=O)N([H])[H])c3N([H])[H])C2([H])[H])nc(C([H])(C([H])([H])[H])[N+]([H])([H])C([H])(C([H])([H])[H])C([H])([H])C([H])([H])Oc2c([H])c([H])c3c(c2[H])C([H])([H])N(C(=O)C([H])(N([H])C(=O)C([H])(N([H])C([H])([H])[H])C([H])([H])[H])C(C([H])([H])[H])(C([H])([H])[H])C([H])([H])[H])C([H])(C(=O)N([H])C2([H])c4c([H])c([H])c([H])c([H])c4C([H])([H])C([H])([H])C2([H])[H])C3([H])[H])c1N([H])[H]

>  <smiles>  (8) 
[H]c1nc(N([H])C(=O)N2C([H])([H])C([H])([H])C([H])([H])C([H])(n3nc(-c4c([H])c([H])c(Oc5c([H])c([H])c(F)c([H])c5F)c([H])c4[H])c(C(=O)N([H])[H])c3N([H])[H])C2([H])[H])nc(C([H])(C([H])([H])[H])[N+]([H])([H])C([H])(C([H])([H])[H])C([H])([H])C([H])([H])Oc2c([H])c([H])c3c(c2[H])C([H])([H])N(C(=O)C([H])(N([H])C(=O)C([H])(N([H])C([H])([H])[H])C([H])([H])[H])C(C([H])([H])[H])(C([H])([H])[H])C([H])([H])[H])C([H])(C(=O)N([H])C2([H])c4c([H])c([H])c([H])c([H])c4C([H])([H])C([H])([H])C2([H])[H])C3([H])[H])c1N([H])[H]

$$$$
8:0:0
     RDKit          3D

 95103  0  0  1  0  0  0  0  0999 V2000
  -30.3460  -21.3680   19.1480 N   0  0  0  0  0  0  0  0  0  0  0  0
  -31.2200  -21.7570   18.8030 H   0  0  0  0  0  0  0  0  0  0  0  0
  -31.1740  -14.6900   20.0440 C   0  0  0  0  0  0  0  0  0  0  0  0
  -31.0650  -12.3370   19.2390 C   0  0  0  0  0  2  0  0  0  0  0  0
  -30.1560  -12.2920   17.9900 C   0  0  0  0  0  2  0  0  0  0  0  0
  -28.6760  -12.1280   18.3930 C   0  0  0  0  0  2  0  0  0  0  0  0
  -28.2490  -13.1130   19.5150 C   0  0  0  0  0  3  0  0  0  0  0  0
  -29.2780  -13.1260   20.6690 C   0  0  0  0  0  2  0  0  0  0  0  0
  -30.5930  -13.4480   20.0910 N   0  0  0  0  0  0  0  0  0  0  0  0
  -32.3490  -14.8230   19.6880 O   0  0  0  0  0  0  0  0  0  0  0  0
  -31.4970  -19.1570   19.2150 C   0  0  0  0  0  3  0  0  0  0  0  0
  -30.3350  -19.9590   19.4190 C   0  0  0  0  0  0  0  0  0  0  0  0
  -30.4420  -17.1880   19.9570 C   0  0  0  0  0  0  0  0  0  0  0  0
  -29.2780  -18.0030   20.1840 C   0  0  0  0  0  0  0  0  0  0  0  0
  -26.9840  -18.2660   21.0820 C   0  0  0  0  0  1  0  0  0  0  0  0
  -31.5510  -17.8120   19.4660 N   0  0  0  0  0  0  0  0  0  0  0  0
  -29.2200  -19.3480   19.8980 N   0  0  0  0  0  0  0  0  0  0  0  0
  -30.3340  -15.7550   20.2410 N   0  0  0  0  0  0  0  0  0  0  0  0
  -28.1200  -17.4210   20.7280 N   0  0  0  0  0  0  0  0  0  0  0  0
  -29.4070  -15.4750   20.5120 H   0  0  0  0  0  0  0  0  0  0  0  0
  -28.2330  -16.5720   21.2690 H   0  0  0  0  0  0  0  0  0  0  0  0
  -25.8490  -13.7250   20.2000 C   0  0  0  0  0  0  0  0  0  0  0  0
  -24.7770  -12.9590   20.5670 C   0  0  0  0  0  0  0  0  0  0  0  0
  -25.2360  -11.6070   20.5590 C   0  0  0  0  0  0  0  0  0  0  0  0
  -26.8950  -12.8400   19.9890 N   0  0  0  0  0  0  0  0  0  0  0  0
  -26.5310  -11.5610   20.2650 N   0  0  0  0  0  0  0  0  0  0  0  0
  -24.5030  -10.3490   20.7560 C   0  0  0  0  0  0  0  0  0  0  0  0
  -24.8620   -9.4370   21.7730 C   0  0  0  0  0  3  0  0  0  0  0  0
  -24.1300   -8.2440   21.9550 C   0  0  0  0  0  3  0  0  0  0  0  0
  -23.0260   -7.9550   21.1190 C   0  0  0  0  0  0  0  0  0  0  0  0
  -22.6870   -8.8550   20.0940 C   0  0  0  0  0  3  0  0  0  0  0  0
  -23.4200  -10.0400   19.9100 C   0  0  0  0  0  3  0  0  0  0  0  0
  -22.2740   -6.8070   21.2050 O   0  0  0  0  0  0  0  0  0  0  0  0
  -21.9160   -6.2710   22.4160 C   0  0  0  0  0  0  0  0  0  0  0  0
  -21.0770   -6.9590   23.3180 C   0  0  0  0  0  3  0  0  0  0  0  0
  -20.6780   -6.3420   24.5190 C   0  0  0  0  0  3  0  0  0  0  0  0
  -21.1080   -5.0350   24.8180 C   0  0  0  0  0  0  0  0  0  0  0  0
  -21.9400   -4.3460   23.9190 C   0  0  0  0  0  3  0  0  0  0  0  0
  -22.3400   -4.9610   22.7190 C   0  0  0  0  0  0  0  0  0  0  0  0
  -23.1240   -4.2850   21.8460 F   0  0  0  0  0  0  0  0  0  0  0  0
  -20.7190   -4.4380   25.9690 F   0  0  0  0  0  0  0  0  0  0  0  0
  -23.3780  -13.4450   20.8190 C   0  0  0  0  0  0  0  0  0  0  0  0
  -22.6760  -12.8310   21.7650 N   0  0  0  0  0  0  0  0  0  0  0  0
  -22.9170  -14.4080   20.2090 O   0  0  0  0  0  0  0  0  0  0  0  0
  -23.0630  -12.0530   22.2820 H   0  0  0  0  0  0  0  0  0  0  0  0
  -21.7390  -13.1420   21.9770 H   0  0  0  0  0  0  0  0  0  0  0  0
  -26.0140  -15.0920   20.0080 N   0  0  0  0  0  0  0  0  0  0  0  0
  -25.2430  -15.7400   20.1280 H   0  0  0  0  0  0  0  0  0  0  0  0
  -26.8680  -15.5590   19.7320 H   0  0  0  0  0  0  0  0  0  0  0  0
  -29.2170  -22.3430   19.2580 C   0  0  0  0  0  2  0  0  0  0  0  0
  -29.6370  -23.8910   19.2880 C   0  0  0  0  0  3  0  0  0  0  0  0
  -30.5930  -23.9870   20.3300 O   0  0  0  0  0  0  0  0  0  0  0  0
  -30.1850  -23.6520   21.1220 H   0  0  0  0  0  0  0  0  0  0  0  0
  -28.4770  -24.9530   19.5650 C   0  0  0  0  0  2  0  0  0  0  0  0
  -28.7560  -26.4150   19.5620 O   0  0  0  0  0  0  0  0  0  0  0  0
  -24.9320  -31.3890   23.1600 C   0  0  0  0  0  0  0  0  0  0  0  0
  -27.6500  -27.2820   19.5990 C   0  0  0  0  0  0  0  0  0  0  0  0
  -23.8000  -30.2730   21.2720 C   0  0  0  0  0  3  0  0  0  0  0  0
  -25.3060  -28.9250   19.7090 C   0  0  0  0  0  0  0  0  0  0  0  0
  -26.3510  -30.5660   21.2670 C   0  0  0  0  0  2  0  0  0  0  0  0
  -26.4490  -29.2960   20.4300 C   0  0  0  0  0  0  0  0  0  0  0  0
  -27.6250  -28.4890   20.3650 C   0  0  0  0  0  3  0  0  0  0  0  0
  -26.4850  -26.9750   18.8560 C   0  0  0  0  0  3  0  0  0  0  0  0
  -25.3270  -27.7700   18.9150 C   0  0  0  0  0  3  0  0  0  0  0  0
  -24.0800  -29.8060   19.8200 C   0  0  0  0  0  2  0  0  0  0  0  0
  -25.0440  -30.7510   21.9590 N   0  0  0  0  0  0  0  0  0  0  0  0
  -23.8250  -31.6070   23.6720 O   0  0  0  0  0  0  0  0  0  0  0  0
  -23.0760  -29.1380   22.0340 C   0  0  0  0  0  0  0  0  0  0  0  0
  -21.7420  -29.0640   21.8830 N   0  0  0  0  0  0  0  0  0  0  0  0
  -23.7120  -28.3350   22.7210 O   0  0  0  0  0  0  0  0  0  0  0  0
  -21.2910  -29.7650   21.3110 H   0  0  0  0  0  0  0  0  0  0  0  0
  -18.2830  -28.1170   22.3530 C   0  0  0  0  0  0  0  0  0  0  0  0
  -20.8650  -28.0530   22.4750 C   0  0  0  0  0  3  0  0  0  0  0  0
  -20.7740  -26.7990   21.5770 C   0  0  0  0  0  2  0  0  0  0  0  0
  -19.5900  -26.8370   20.6050 C   0  0  0  0  0  2  0  0  0  0  0  0
  -18.2700  -26.9570   21.3700 C   0  0  0  0  0  2  0  0  0  0  0  0
  -19.5010  -28.6410   22.8590 C   0  0  0  0  0  0  0  0  0  0  0  0
  -19.4570  -29.7410   23.7430 C   0  0  0  0  0  3  0  0  0  0  0  0
  -18.2280  -30.3120   24.1220 C   0  0  0  0  0  3  0  0  0  0  0  0
  -17.0240  -29.7780   23.6290 C   0  0  0  0  0  3  0  0  0  0  0  0
  -17.0530  -28.6810   22.7500 C   0  0  0  0  0  3  0  0  0  0  0  0
  -26.1870  -31.8970   23.9330 C   0  0  0  0  0  3  0  0  0  0  0  0
  -26.5570  -30.9960   25.1750 C   0  0  1  0  0  0  0  0  0  0  0  0
  -25.3670  -30.7250   26.1240 C   0  0  0  0  0  1  0  0  0  0  0  0
  -27.1120  -29.6280   24.7120 C   0  0  0  0  0  1  0  0  0  0  0  0
  -27.6790  -31.6730   25.9980 C   0  0  0  0  0  1  0  0  0  0  0  0
  -25.9170  -33.2780   24.3590 N   0  0  0  0  0  0  0  0  0  0  0  0
  -26.3100  -34.3710   23.6910 C   0  0  0  0  0  0  0  0  0  0  0  0
  -27.0060  -34.3190   22.6730 O   0  0  0  0  0  0  0  0  0  0  0  0
  -25.3050  -33.3960   25.1530 H   0  0  0  0  0  0  0  0  0  0  0  0
  -24.6480  -36.2430   23.4360 C   0  0  0  0  0  1  0  0  0  0  0  0
  -25.8580  -35.7390   24.2380 C   0  0  0  0  0  3  0  0  0  0  0  0
  -27.9790  -36.5180   25.2020 C   0  0  0  0  0  1  0  0  0  0  0  0
  -26.9270  -36.7620   24.2180 N   0  0  0  0  0  0  0  0  0  0  0  0
  -26.5430  -37.6870   24.3880 H   0  0  0  0  0  0  0  0  0  0  0  0
  1 50  1  0
  1 12  1  0
  2  1  1  0
  3  9  1  0
  3 18  1  0
  4  9  1  0
  5  6  1  0
  5  4  1  0
  7  6  1  0
  7 25  1  0
  7  8  1  0
  9  8  1  0
 10  3  2  0
 11 12  2  0
 11 16  1  0
 12 17  1  0
 13 14  1  0
 13 18  1  0
 14 19  1  0
 16 13  2  0
 17 14  2  0
 18 20  1  0
 19 15  1  0
 19 21  1  0
 22 23  2  0
 23 42  1  0
 24 23  1  0
 24 27  1  0
 25 22  1  0
 25 26  1  0
 26 24  2  0
 27 28  1  0
 28 29  2  0
 30 33  1  0
 30 29  1  0
 31 30  2  0
 32 31  1  0
 32 27  2  0
 33 34  1  0
 34 39  2  0
 34 35  1  0
 35 36  2  0
 36 37  1  0
 37 41  1  0
 38 37  2  0
 39 38  1  0
 40 39  1  0
 42 43  1  0
 43 46  1  0
 43 45  1  0
 44 42  2  0
 47 48  1  0
 47 22  1  0
 49 47  1  0
 51 50  1  0
 51 54  1  0
 51 52  1  0
 52 53  1  0
 55 54  1  0
 55 57  1  0
 56 67  2  0
 57 62  1  0
 58 66  1  0
 58 68  1  0
 59 65  1  0
 59 61  1  0
 60 66  1  0
 61 60  1  0
 62 61  2  0
 63 64  1  0
 63 57  2  0
 64 59  2  0
 65 58  1  0
 66 56  1  0
 68 70  2  0
 69 68  1  0
 71 69  1  0
 72 81  2  0
 72 77  1  0
 73 69  1  0
 73 77  1  0
 74 73  1  0
 75 76  1  0
 75 74  1  0
 76 72  1  0
 77 78  2  0
 78 79  1  0
 80 79  2  0
 81 80  1  0
 82 56  1  0
 82 87  1  0
 82 83  1  0
 83 86  1  1
 83 84  1  0
 85 83  1  0
 87 90  1  0
 88 92  1  0
 88 87  1  0
 89 88  2  0
 92 91  1  0
 94 92  1  0
 94 95  1  0
 94 93  1  0
M  ISO  4   3 100  18 100  54 101  55 101
M  END
>  <TORSDO>  (9) 
F 20

>  <SCORE>  (9) 
-10.053

>  <name>  (9) 
8

>  <ligand_id>  (9) 
8

>  <original_smiles>  (9) 
[H]OC([H])(C([H])([H])Oc1c([H])c([H])c2c(c1[H])C([H])([H])N(C(=O)C([H])(N([H])C(=O)C([H])(N([H])C([H])([H])[H])C([H])([H])[H])C(C([H])([H])[H])(C([H])([H])[H])C([H])([H])[H])C([H])(C(=O)N([H])C1([H])c3c([H])c([H])c([H])c([H])c3C([H])([H])C([H])([H])C1([H])[H])C2([H])[H])C([H])([H])N([H])c1nc(N([H])C([H])([H])[H])c(N([H])C(=O)N2C([H])([H])C([H])([H])C([H])([H])C([H])(n3nc(-c4c([H])c([H])c(Oc5c([H])c([H])c(F)c([H])c5F)c([H])c4[H])c(C(=O)N([H])[H])c3N([H])[H])C2([H])[H])nc1[H]

>  <smiles>  (9) 
[H]OC([H])(C([H])([H])Oc1c([H])c([H])c2c(c1[H])C([H])([H])N(C(=O)C([H])(N([H])C(=O)C([H])(N([H])C([H])([H])[H])C([H])([H])[H])C(C([H])([H])[H])(C([H])([H])[H])C([H])([H])[H])C([H])(C(=O)N([H])C1([H])c3c([H])c([H])c([H])c([H])c3C([H])([H])C([H])([H])C1([H])[H])C2([H])[H])C([H])([H])N([H])c1nc(N([H])C([H])([H])[H])c(N([H])C(=O)N2C([H])([H])C([H])([H])C([H])([H])C([H])(n3nc(-c4c([H])c([H])c(Oc5c([H])c([H])c(F)c([H])c5F)c([H])c4[H])c(C(=O)N([H])[H])c3N([H])[H])C2([H])[H])nc1[H]

$$$$
9:0:0
     RDKit          3D

 93101  0  0  1  0  0  0  0  0999 V2000
  -29.0550  -21.1530   22.3430 C   0  0  0  0  0  1  0  0  0  0  0  0
  -29.6500  -21.6140   21.0010 C   0  0  0  0  0  3  0  0  0  0  0  0
  -30.3790  -17.2610   19.0220 C   0  0  0  0  0  3  0  0  0  0  0  0
  -30.0390  -16.9580   20.3180 C   0  0  0  0  0  0  0  0  0  0  0  0
  -29.9090  -19.0980   20.0550 C   0  0  0  0  0  0  0  0  0  0  0  0
  -29.7150  -18.1510   20.9840 N   0  0  0  0  0  0  0  0  0  0  0  0
  -29.7760  -20.4870   20.0630 N   0  0  0  0  0  0  0  0  0  0  0  0
  -30.3010  -18.6170   18.8470 O   0  0  0  0  0  0  0  0  0  0  0  0
  -30.0050  -20.8200   19.1320 H   0  0  0  0  0  0  0  0  0  0  0  0
  -30.6710  -14.5750   20.3970 C   0  0  0  0  0  0  0  0  0  0  0  0
  -30.3780  -12.4120   19.2700 C   0  0  0  0  0  2  0  0  0  0  0  0
  -29.4340  -12.6220   18.0650 C   0  0  0  0  0  2  0  0  0  0  0  0
  -27.9590  -12.4900   18.4920 C   0  0  0  0  0  2  0  0  0  0  0  0
  -27.6290  -13.3190   19.7630 C   0  0  0  0  0  3  0  0  0  0  0  0
  -28.6840  -13.0950   20.8720 C   0  0  0  0  0  2  0  0  0  0  0  0
  -30.0080  -13.3900   20.3050 N   0  0  0  0  0  0  0  0  0  0  0  0
  -31.8160  -14.7280   19.9620 O   0  0  0  0  0  0  0  0  0  0  0  0
  -29.9490  -15.6280   20.8410 N   0  0  0  0  0  0  0  0  0  0  0  0
  -29.1130  -15.4120   21.3620 H   0  0  0  0  0  0  0  0  0  0  0  0
  -25.2300  -13.9340   20.4560 C   0  0  0  0  0  0  0  0  0  0  0  0
  -24.1600  -13.1700   20.8270 C   0  0  0  0  0  0  0  0  0  0  0  0
  -24.6190  -11.8150   20.8130 C   0  0  0  0  0  0  0  0  0  0  0  0
  -26.2750  -13.0500   20.2390 N   0  0  0  0  0  0  0  0  0  0  0  0
  -25.9110  -11.7710   20.5140 N   0  0  0  0  0  0  0  0  0  0  0  0
  -23.8900  -10.5560   21.0110 C   0  0  0  0  0  0  0  0  0  0  0  0
  -24.3270   -9.5890   21.9440 C   0  0  0  0  0  3  0  0  0  0  0  0
  -23.5980   -8.3950   22.1300 C   0  0  0  0  0  3  0  0  0  0  0  0
  -22.4200   -8.1590   21.3810 C   0  0  0  0  0  0  0  0  0  0  0  0
  -22.0040   -9.1150   20.4370 C   0  0  0  0  0  3  0  0  0  0  0  0
  -22.7330  -10.3010   20.2500 C   0  0  0  0  0  3  0  0  0  0  0  0
  -21.6600   -7.0180   21.4780 O   0  0  0  0  0  0  0  0  0  0  0  0
  -21.6250   -6.2710   22.6280 C   0  0  0  0  0  0  0  0  0  0  0  0
  -21.2220   -6.8250   23.8620 C   0  0  0  0  0  3  0  0  0  0  0  0
  -21.1310   -6.0050   25.0050 C   0  0  0  0  0  3  0  0  0  0  0  0
  -21.4350   -4.6340   24.9140 C   0  0  0  0  0  0  0  0  0  0  0  0
  -21.8330   -4.0800   23.6840 C   0  0  0  0  0  3  0  0  0  0  0  0
  -21.9240   -4.8960   22.5430 C   0  0  0  0  0  0  0  0  0  0  0  0
  -22.2850   -4.3530   21.3560 F   0  0  0  0  0  0  0  0  0  0  0  0
  -21.3430   -3.8440   26.0100 F   0  0  0  0  0  0  0  0  0  0  0  0
  -22.7620  -13.6510   21.0870 C   0  0  0  0  0  0  0  0  0  0  0  0
  -22.0290  -12.9650   21.9550 N   0  0  0  0  0  0  0  0  0  0  0  0
  -22.3270  -14.6710   20.5530 O   0  0  0  0  0  0  0  0  0  0  0  0
  -22.3970  -12.1420   22.4100 H   0  0  0  0  0  0  0  0  0  0  0  0
  -21.0900  -13.2690   22.1710 H   0  0  0  0  0  0  0  0  0  0  0  0
  -25.4010  -15.3040   20.2660 N   0  0  0  0  0  0  0  0  0  0  0  0
  -24.6390  -15.9650   20.3720 H   0  0  0  0  0  0  0  0  0  0  0  0
  -26.2560  -15.7360   19.9440 H   0  0  0  0  0  0  0  0  0  0  0  0
  -28.8170  -22.7780   20.3590 C   0  0  0  0  0  2  0  0  0  0  0  0
  -29.1040  -24.2660   20.7650 C   0  0  0  0  0  3  0  0  0  0  0  0
  -28.9070  -24.4310   22.1570 O   0  0  0  0  0  0  0  0  0  0  0  0
  -29.0500  -25.3540   22.3470 H   0  0  0  0  0  0  0  0  0  0  0  0
  -28.1100  -25.2290   20.0540 C   0  0  0  0  0  2  0  0  0  0  0  0
  -28.3360  -26.6550   20.2270 O   0  0  0  0  0  0  0  0  0  0  0  0
  -24.5930  -31.9300   23.2680 C   0  0  0  0  0  0  0  0  0  0  0  0
  -27.2050  -27.4610   20.1570 C   0  0  0  0  0  0  0  0  0  0  0  0
  -23.3810  -30.5380   21.6250 C   0  0  0  0  0  3  0  0  0  0  0  0
  -24.8280  -29.0160   20.1730 C   0  0  0  0  0  0  0  0  0  0  0  0
  -25.9110  -30.8840   21.4250 C   0  0  0  0  0  2  0  0  0  0  0  0
  -25.9920  -29.5170   20.7700 C   0  0  0  0  0  0  0  0  0  0  0  0
  -27.1820  -28.7430   20.7670 C   0  0  0  0  0  3  0  0  0  0  0  0
  -26.0270  -27.0160   19.5090 C   0  0  0  0  0  3  0  0  0  0  0  0
  -24.8410  -27.7660   19.5390 C   0  0  0  0  0  3  0  0  0  0  0  0
  -23.5880  -29.8780   20.2380 C   0  0  0  0  0  2  0  0  0  0  0  0
  -24.6470  -31.1300   22.1650 N   0  0  0  0  0  0  0  0  0  0  0  0
  -23.5120  -32.2040   23.8100 O   0  0  0  0  0  0  0  0  0  0  0  0
  -22.7310  -29.5100   22.5790 C   0  0  0  0  0  0  0  0  0  0  0  0
  -21.4070  -29.3200   22.4510 N   0  0  0  0  0  0  0  0  0  0  0  0
  -23.4140  -28.8870   23.3980 O   0  0  0  0  0  0  0  0  0  0  0  0
  -20.9110  -29.8780   21.7690 H   0  0  0  0  0  0  0  0  0  0  0  0
  -18.0400  -28.1000   22.9280 C   0  0  0  0  0  0  0  0  0  0  0  0
  -20.5930  -28.3760   23.2180 C   0  0  0  0  0  3  0  0  0  0  0  0
  -20.7120  -26.9460   22.6440 C   0  0  0  0  0  2  0  0  0  0  0  0
  -19.6190  -26.6140   21.6240 C   0  0  0  0  0  2  0  0  0  0  0  0
  -18.2310  -26.7500   22.2570 C   0  0  0  0  0  2  0  0  0  0  0  0
  -19.1490  -28.8710   23.3650 C   0  0  0  0  0  0  0  0  0  0  0  0
  -18.9170  -30.1340   23.9490 C   0  0  0  0  0  3  0  0  0  0  0  0
  -17.6080  -30.6260   24.1050 C   0  0  0  0  0  3  0  0  0  0  0  0
  -16.5120  -29.8510   23.6880 C   0  0  0  0  0  3  0  0  0  0  0  0
  -16.7300  -28.5910   23.1030 C   0  0  0  0  0  3  0  0  0  0  0  0
  -25.8810  -32.5580   23.8840 C   0  0  0  0  0  3  0  0  0  0  0  0
  -25.5780  -33.9570   24.2140 N   0  0  0  0  0  0  0  0  0  0  0  0
  -25.9080  -35.0070   23.4500 C   0  0  0  0  0  0  0  0  0  0  0  0
  -26.5710  -34.9000   22.4140 O   0  0  0  0  0  0  0  0  0  0  0  0
  -24.9930  -34.1160   25.0210 H   0  0  0  0  0  0  0  0  0  0  0  0
  -24.1810  -36.8000   23.0990 C   0  0  0  0  0  1  0  0  0  0  0  0
  -25.4260  -36.3970   23.9050 C   0  0  0  0  0  3  0  0  0  0  0  0
  -27.5670  -37.2780   24.7230 C   0  0  0  0  0  1  0  0  0  0  0  0
  -26.4610  -37.4480   23.7840 N   0  0  0  0  0  0  0  0  0  0  0  0
  -26.0580  -38.3680   23.9340 H   0  0  0  0  0  0  0  0  0  0  0  0
  -26.3990  -31.7840   25.1570 C   0  0  1  0  0  0  0  0  0  0  0  0
  -25.3100  -31.5470   26.2280 C   0  0  0  0  0  1  0  0  0  0  0  0
  -26.9780  -30.4070   24.7610 C   0  0  0  0  0  1  0  0  0  0  0  0
  -27.5560  -32.5740   25.8140 C   0  0  0  0  0  1  0  0  0  0  0  0
  2  1  1  0
  3  4  2  0
  4 18  1  0
  4  6  1  0
  5  7  1  0
  5  6  2  0
  7  2  1  0
  8  3  1  0
  8  5  1  0
  9  7  1  0
 10 18  1  0
 11 16  1  0
 12 13  1  0
 12 11  1  0
 14 13  1  0
 14 23  1  0
 14 15  1  0
 16 10  1  0
 16 15  1  0
 17 10  2  0
 18 19  1  0
 20 21  2  0
 21 40  1  0
 22 21  1  0
 22 25  1  0
 23 20  1  0
 23 24  1  0
 24 22  2  0
 25 26  1  0
 26 27  2  0
 28 31  1  0
 28 27  1  0
 29 28  2  0
 30 29  1  0
 30 25  2  0
 31 32  1  0
 32 33  1  0
 33 34  2  0
 35 34  1  0
 35 39  1  0
 36 35  2  0
 37 32  2  0
 37 36  1  0
 38 37  1  0
 40 41  1  0
 41 44  1  0
 41 43  1  0
 42 40  2  0
 45 46  1  0
 45 20  1  0
 47 45  1  0
 48 49  1  0
 48  2  1  0
 49 52  1  0
 49 50  1  0
 50 51  1  0
 52 53  1  0
 54 65  2  0
 55 53  1  0
 55 60  1  0
 56 64  1  0
 56 66  1  0
 57 63  1  0
 57 59  1  0
 58 64  1  0
 59 58  1  0
 60 59  2  0
 61 62  1  0
 61 55  2  0
 62 57  2  0
 63 56  1  0
 64 54  1  0
 66 68  2  0
 67 66  1  0
 69 67  1  0
 70 79  2  0
 70 75  1  0
 71 67  1  0
 71 75  1  0
 72 71  1  0
 73 74  1  0
 73 72  1  0
 74 70  1  0
 75 76  2  0
 76 77  1  0
 78 77  2  0
 79 78  1  0
 80 54  1  0
 80 81  1  0
 80 90  1  0
 81 84  1  0
 82 86  1  0
 82 81  1  0
 83 82  2  0
 86 85  1  0
 88 86  1  0
 88 89  1  0
 88 87  1  0
 90 93  1  1
 90 91  1  0
 92 90  1  0
M  ISO  4  10 100  18 100  52 101  53 101
M  END
>  <TORSDO>  (10) 
F 21

>  <SCORE>  (10) 
-13.425

>  <name>  (10) 
9

>  <ligand_id>  (10) 
9

>  <original_smiles>  (10) 
[H]OC([H])(C([H])([H])Oc1c([H])c([H])c2c(c1[H])C([H])([H])N(C(=O)C([H])(N([H])C(=O)C([H])(N([H])C([H])([H])[H])C([H])([H])[H])C(C([H])([H])[H])(C([H])([H])[H])C([H])([H])[H])C([H])(C(=O)N([H])C1([H])c3c([H])c([H])c([H])c([H])c3C([H])([H])C([H])([H])C1([H])[H])C2([H])[H])C([H])([H])C([H])(N([H])c1nc(N([H])C(=O)N2C([H])([H])C([H])([H])C([H])([H])C([H])(n3nc(-c4c([H])c([H])c(Oc5c([H])c([H])c(F)c([H])c5F)c([H])c4[H])c(C(=O)N([H])[H])c3N([H])[H])C2([H])[H])c([H])o1)C([H])([H])[H]

>  <smiles>  (10) 
[H]OC([H])(C([H])([H])Oc1c([H])c([H])c2c(c1[H])C([H])([H])N(C(=O)C([H])(N([H])C(=O)C([H])(N([H])C([H])([H])[H])C([H])([H])[H])C(C([H])([H])[H])(C([H])([H])[H])C([H])([H])[H])C([H])(C(=O)N([H])C1([H])c3c([H])c([H])c([H])c([H])c3C([H])([H])C([H])([H])C1([H])[H])C2([H])[H])C([H])([H])C([H])(N([H])c1nc(N([H])C(=O)N2C([H])([H])C([H])([H])C([H])([H])C([H])(n3nc(-c4c([H])c([H])c(Oc5c([H])c([H])c(F)c([H])c5F)c([H])c4[H])c(C(=O)N([H])[H])c3N([H])[H])C2([H])[H])c([H])o1)C([H])([H])[H]

$$$$
10:0:0
     RDKit          3D

 94102  0  0  1  0  0  0  0  0999 V2000
  -30.1020  -20.8620   19.1570 C   0  0  0  0  0  3  0  0  0  0  0  0
  -30.3610  -18.6230   19.8950 C   0  0  0  0  0  0  0  0  0  0  0  0
  -29.5880  -21.3040   20.4130 C   0  0  0  0  0  0  0  0  0  0  0  0
  -29.8230  -19.0540   21.1430 C   0  0  0  0  0  0  0  0  0  0  0  0
  -30.4740  -19.5620   18.9080 N   0  0  0  0  0  0  0  0  0  0  0  0
  -29.4380  -20.3450   21.3790 N   0  0  0  0  0  0  0  0  0  0  0  0
  -29.7010  -18.1960   22.2270 N   0  0  0  0  0  0  0  0  0  0  0  0
  -30.1610  -17.2940   22.2170 H   0  0  0  0  0  0  0  0  0  0  0  0
  -29.5150  -18.5700   23.1500 H   0  0  0  0  0  0  0  0  0  0  0  0
  -29.4300  -23.9110   20.1300 C   0  0  0  0  0  0  0  0  0  0  0  0
  -29.2200  -22.6890   20.7230 N   0  0  0  0  0  0  0  0  0  0  0  0
  -30.0240  -24.0400   19.0560 O   0  0  0  0  0  0  0  0  0  0  0  0
  -28.7250  -22.7730   21.5990 H   0  0  0  0  0  0  0  0  0  0  0  0
  -28.8690  -25.1860   20.8890 C   0  0  0  0  0  2  0  0  0  0  0  0
  -29.1000  -26.5340   20.3030 O   0  0  0  0  0  0  0  0  0  0  0  0
  -24.9380  -31.7030   23.1640 C   0  0  0  0  0  0  0  0  0  0  0  0
  -27.9640  -27.3470   20.2140 C   0  0  0  0  0  0  0  0  0  0  0  0
  -23.9030  -30.2520   21.4550 C   0  0  0  0  0  3  0  0  0  0  0  0
  -25.5150  -28.8080   20.0900 C   0  0  0  0  0  0  0  0  0  0  0  0
  -26.4230  -30.7280   21.4000 C   0  0  0  0  0  2  0  0  0  0  0  0
  -26.6200  -29.3640   20.7490 C   0  0  0  0  0  0  0  0  0  0  0  0
  -27.8520  -28.6460   20.8010 C   0  0  0  0  0  3  0  0  0  0  0  0
  -26.8410  -26.8480   19.5220 C   0  0  0  0  0  3  0  0  0  0  0  0
  -25.6260  -27.5560   19.4660 C   0  0  0  0  0  3  0  0  0  0  0  0
  -24.2250  -29.6050   20.0830 C   0  0  0  0  0  2  0  0  0  0  0  0
  -25.1030  -30.9120   22.0640 N   0  0  0  0  0  0  0  0  0  0  0  0
  -23.8140  -31.9090   23.6470 O   0  0  0  0  0  0  0  0  0  0  0  0
  -23.2570  -29.1860   22.3740 C   0  0  0  0  0  0  0  0  0  0  0  0
  -21.9440  -28.9590   22.2060 N   0  0  0  0  0  0  0  0  0  0  0  0
  -23.9380  -28.5700   23.1980 O   0  0  0  0  0  0  0  0  0  0  0  0
  -21.4510  -29.5110   21.5170 H   0  0  0  0  0  0  0  0  0  0  0  0
  -18.5900  -27.6750   22.6450 C   0  0  0  0  0  0  0  0  0  0  0  0
  -21.1420  -27.9730   22.9330 C   0  0  0  0  0  3  0  0  0  0  0  0
  -21.2730  -26.5700   22.2960 C   0  0  0  0  0  2  0  0  0  0  0  0
  -20.1800  -26.2700   21.2660 C   0  0  0  0  0  2  0  0  0  0  0  0
  -18.7940  -26.3610   21.9110 C   0  0  0  0  0  2  0  0  0  0  0  0
  -19.6920  -28.4400   23.1110 C   0  0  0  0  0  0  0  0  0  0  0  0
  -19.4470  -29.6710   23.7570 C   0  0  0  0  0  3  0  0  0  0  0  0
  -18.1330  -30.1390   23.9420 C   0  0  0  0  0  3  0  0  0  0  0  0
  -17.0450  -29.3700   23.4920 C   0  0  0  0  0  3  0  0  0  0  0  0
  -17.2740  -28.1410   22.8500 C   0  0  0  0  0  3  0  0  0  0  0  0
  -26.1470  -32.4050   23.8540 C   0  0  0  0  0  3  0  0  0  0  0  0
  -26.6470  -31.6540   25.1480 C   0  0  1  0  0  0  0  0  0  0  0  0
  -25.5180  -31.3310   26.1540 C   0  0  0  0  0  1  0  0  0  0  0  0
  -27.3400  -30.3220   24.7760 C   0  0  0  0  0  1  0  0  0  0  0  0
  -27.7060  -32.5130   25.8770 C   0  0  0  0  0  1  0  0  0  0  0  0
  -25.7370  -33.7790   24.1790 N   0  0  0  0  0  0  0  0  0  0  0  0
  -26.0230  -34.8560   23.4350 C   0  0  0  0  0  0  0  0  0  0  0  0
  -26.7270  -34.8020   22.4230 O   0  0  0  0  0  0  0  0  0  0  0  0
  -25.1130  -33.8890   24.9640 H   0  0  0  0  0  0  0  0  0  0  0  0
  -24.1900  -36.5320   23.0410 C   0  0  0  0  0  1  0  0  0  0  0  0
  -25.4330  -36.2070   23.8830 C   0  0  0  0  0  3  0  0  0  0  0  0
  -27.4760  -37.2340   24.7800 C   0  0  0  0  0  1  0  0  0  0  0  0
  -26.3970  -37.3270   23.8010 N   0  0  0  0  0  0  0  0  0  0  0  0
  -25.9250  -38.2180   23.9310 H   0  0  0  0  0  0  0  0  0  0  0  0
  -31.0870  -17.2400   19.6370 C   0  0  0  0  0  2  0  0  0  0  0  0
  -31.1700  -14.7050   19.6030 C   0  0  0  0  0  0  0  0  0  0  0  0
  -30.8250  -12.4130   18.7130 C   0  0  0  0  0  2  0  0  0  0  0  0
  -29.7740  -12.4550   17.5850 C   0  0  0  0  0  2  0  0  0  0  0  0
  -28.3540  -12.3130   18.1670 C   0  0  0  0  0  2  0  0  0  0  0  0
  -28.1040  -13.2520   19.3770 C   0  0  0  0  0  3  0  0  0  0  0  0
  -29.2700  -13.2140   20.3890 C   0  0  0  0  0  2  0  0  0  0  0  0
  -30.5030  -13.5080   19.6520 N   0  0  0  0  0  0  0  0  0  0  0  0
  -32.3150  -14.7610   19.1490 O   0  0  0  0  0  0  0  0  0  0  0  0
  -30.4860  -15.8690   19.8520 N   0  0  0  0  0  0  0  0  0  0  0  0
  -29.5230  -15.8100   20.1460 H   0  0  0  0  0  0  0  0  0  0  0  0
  -25.8520  -13.8780   20.4380 C   0  0  0  0  0  0  0  0  0  0  0  0
  -24.8060  -13.1190   20.8850 C   0  0  0  0  0  0  0  0  0  0  0  0
  -25.1990  -11.7570   20.7030 C   0  0  0  0  0  0  0  0  0  0  0  0
  -26.8180  -12.9810   20.0140 N   0  0  0  0  0  0  0  0  0  0  0  0
  -26.4390  -11.6950   20.2340 N   0  0  0  0  0  0  0  0  0  0  0  0
  -24.4440  -10.5130   20.8950 C   0  0  0  0  0  0  0  0  0  0  0  0
  -24.8610   -9.5290   21.8190 C   0  0  0  0  0  3  0  0  0  0  0  0
  -24.1070   -8.3490   21.9980 C   0  0  0  0  0  3  0  0  0  0  0  0
  -22.9200   -8.1450   21.2540 C   0  0  0  0  0  0  0  0  0  0  0  0
  -22.5220   -9.1170   20.3190 C   0  0  0  0  0  3  0  0  0  0  0  0
  -23.2760  -10.2870   20.1380 C   0  0  0  0  0  3  0  0  0  0  0  0
  -22.1370   -7.0200   21.3430 O   0  0  0  0  0  0  0  0  0  0  0  0
  -21.9530   -6.3640   22.5340 C   0  0  0  0  0  0  0  0  0  0  0  0
  -21.3680   -6.9990   23.6510 C   0  0  0  0  0  3  0  0  0  0  0  0
  -21.1330   -6.2680   24.8330 C   0  0  0  0  0  3  0  0  0  0  0  0
  -21.4730   -4.9040   24.8980 C   0  0  0  0  0  0  0  0  0  0  0  0
  -22.0520   -4.2690   23.7840 C   0  0  0  0  0  3  0  0  0  0  0  0
  -22.2880   -4.9970   22.6050 C   0  0  0  0  0  0  0  0  0  0  0  0
  -22.8260   -4.3750   21.5280 F   0  0  0  0  0  0  0  0  0  0  0  0
  -21.2420   -4.1990   26.0300 F   0  0  0  0  0  0  0  0  0  0  0  0
  -23.4750  -13.6260   21.3610 C   0  0  0  0  0  0  0  0  0  0  0  0
  -22.8330  -12.9020   22.2710 N   0  0  0  0  0  0  0  0  0  0  0  0
  -23.0200  -14.6980   20.9640 O   0  0  0  0  0  0  0  0  0  0  0  0
  -23.2160  -12.0320   22.6110 H   0  0  0  0  0  0  0  0  0  0  0  0
  -21.9450  -13.2220   22.6320 H   0  0  0  0  0  0  0  0  0  0  0  0
  -26.0550  -15.2520   20.3360 N   0  0  0  0  0  0  0  0  0  0  0  0
  -25.3370  -15.9230   20.5850 H   0  0  0  0  0  0  0  0  0  0  0  0
  -26.8730  -15.6830   19.9240 H   0  0  0  0  0  0  0  0  0  0  0  0
  1  3  1  0
  2  4  2  0
  3 11  1  0
  3  6  2  0
  4  6  1  0
  4  7  1  0
  5  1  2  0
  5  2  1  0
  7  9  1  0
  8  7  1  0
 10 11  1  0
 10 14  1  0
 11 13  1  0
 12 10  2  0
 15 14  1  0
 16 27  2  0
 17 15  1  0
 17 22  1  0
 18 26  1  0
 18 28  1  0
 19 21  1  0
 20 26  1  0
 21 22  2  0
 21 20  1  0
 23 17  2  0
 24 23  1  0
 24 19  2  0
 25 19  1  0
 25 18  1  0
 26 16  1  0
 28 30  2  0
 29 28  1  0
 31 29  1  0
 32 41  2  0
 32 37  1  0
 33 29  1  0
 33 37  1  0
 34 33  1  0
 35 36  1  0
 35 34  1  0
 36 32  1  0
 37 38  2  0
 38 39  1  0
 40 39  2  0
 41 40  1  0
 42 16  1  0
 42 47  1  0
 42 43  1  0
 43 46  1  1
 43 44  1  0
 45 43  1  0
 47 50  1  0
 48 52  1  0
 48 47  1  0
 49 48  2  0
 52 51  1  0
 54 52  1  0
 54 55  1  0
 54 53  1  0
 56 65  1  0
 56  2  1  0
 57 63  1  0
 57 65  1  0
 58 63  1  0
 59 60  1  0
 59 58  1  0
 61 60  1  0
 61 70  1  0
 61 62  1  0
 63 62  1  0
 64 57  2  0
 65 66  1  0
 67 68  2  0
 68 87  1  0
 69 68  1  0
 69 72  1  0
 70 71  1  0
 70 67  1  0
 71 69  2  0
 72 73  1  0
 73 74  2  0
 75 78  1  0
 75 74  1  0
 76 75  2  0
 77 76  1  0
 77 72  2  0
 78 79  1  0
 79 84  2  0
 79 80  1  0
 80 81  2  0
 81 82  1  0
 82 86  1  0
 83 82  2  0
 84 83  1  0
 85 84  1  0
 87 88  1  0
 88 90  1  0
 88 91  1  0
 89 87  2  0
 92 67  1  0
 92 93  1  0
 94 92  1  0
M  ISO  4  14 101  15 101  57 100  65 100
M  END
>  <TORSDO>  (11) 
F 19

>  <SCORE>  (11) 
-12.120

>  <name>  (11) 
10

>  <ligand_id>  (11) 
10

>  <original_smiles>  (11) 
[H]c1nc(C([H])([H])N([H])C(=O)N2C([H])([H])C([H])([H])C([H])([H])C([H])(n3nc(-c4c([H])c([H])c(Oc5c([H])c([H])c(F)c([H])c5F)c([H])c4[H])c(C(=O)N([H])[H])c3N([H])[H])C2([H])[H])c(N([H])[H])nc1N([H])C(=O)C([H])([H])Oc1c([H])c([H])c2c(c1[H])C([H])([H])N(C(=O)C([H])(N([H])C(=O)C([H])(N([H])C([H])([H])[H])C([H])([H])[H])C(C([H])([H])[H])(C([H])([H])[H])C([H])([H])[H])C([H])(C(=O)N([H])C1([H])c3c([H])c([H])c([H])c([H])c3C([H])([H])C([H])([H])C1([H])[H])C2([H])[H]

>  <smiles>  (11) 
[H]c1nc(C([H])([H])N([H])C(=O)N2C([H])([H])C([H])([H])C([H])([H])C([H])(n3nc(-c4c([H])c([H])c(Oc5c([H])c([H])c(F)c([H])c5F)c([H])c4[H])c(C(=O)N([H])[H])c3N([H])[H])C2([H])[H])c(N([H])[H])nc1N([H])C(=O)C([H])([H])Oc1c([H])c([H])c2c(c1[H])C([H])([H])N(C(=O)C([H])(N([H])C(=O)C([H])(N([H])C([H])([H])[H])C([H])([H])[H])C(C([H])([H])[H])(C([H])([H])[H])C([H])([H])[H])C([H])(C(=O)N([H])C1([H])c3c([H])c([H])c([H])c([H])c3C([H])([H])C([H])([H])C1([H])[H])C2([H])[H]

$$$$
11:0:0
     RDKit          3D

 95103  0  0  1  0  0  0  0  0999 V2000
  -29.0590  -22.3830   19.9610 C   0  0  0  0  0  3  0  0  0  0  0  0
  -29.6210  -22.2120   18.5340 C   0  0  0  0  0  0  0  0  0  0  0  0
  -28.7400  -21.5010   17.5170 C   0  0  0  0  0  1  0  0  0  0  0  0
  -30.7540  -22.5750   18.2100 O   0  0  0  0  0  0  0  0  0  0  0  0
  -29.7510  -21.4040   20.8680 N   0  0  0  0  0  0  0  0  0  0  0  0
  -30.5930  -21.7940   21.2840 H   0  0  0  0  0  0  0  0  0  0  0  0
  -30.5860  -14.6850   20.4350 C   0  0  0  0  0  0  0  0  0  0  0  0
  -30.4050  -12.4390   19.3670 C   0  0  0  0  0  2  0  0  0  0  0  0
  -29.4730  -12.5520   18.1380 C   0  0  0  0  0  2  0  0  0  0  0  0
  -27.9960  -12.3830   18.5500 C   0  0  0  0  0  2  0  0  0  0  0  0
  -27.6180  -13.2490   19.7820 C   0  0  0  0  0  3  0  0  0  0  0  0
  -28.6640  -13.1040   20.9100 C   0  0  0  0  0  2  0  0  0  0  0  0
  -29.9780  -13.4580   20.3460 N   0  0  0  0  0  0  0  0  0  0  0  0
  -31.7660  -14.8230   20.0900 O   0  0  0  0  0  0  0  0  0  0  0  0
  -28.6890  -19.1500   20.2840 C   0  0  0  0  0  3  0  0  0  0  0  0
  -29.7440  -19.9580   20.7810 C   0  0  0  0  0  0  0  0  0  0  0  0
  -30.8390  -19.1680   21.2420 C   0  0  0  0  0  0  0  0  0  0  0  0
  -29.8280  -17.1460   20.6700 C   0  0  0  0  0  0  0  0  0  0  0  0
  -32.0580  -19.8180   21.8690 C   0  0  0  0  0  1  0  0  0  0  0  0
  -28.7320  -17.7860   20.2500 N   0  0  0  0  0  0  0  0  0  0  0  0
  -30.8760  -17.8050   21.1750 N   0  0  0  0  0  0  0  0  0  0  0  0
  -29.7450  -15.7390   20.7080 N   0  0  0  0  0  0  0  0  0  0  0  0
  -28.8000  -15.4230   20.8320 H   0  0  0  0  0  0  0  0  0  0  0  0
  -25.2130  -13.8410   20.4660 C   0  0  0  0  0  0  0  0  0  0  0  0
  -24.1460  -13.0650   20.8290 C   0  0  0  0  0  0  0  0  0  0  0  0
  -24.6180  -11.7170   20.8220 C   0  0  0  0  0  0  0  0  0  0  0  0
  -26.2650  -12.9640   20.2540 N   0  0  0  0  0  0  0  0  0  0  0  0
  -25.9120  -11.6830   20.5300 N   0  0  0  0  0  0  0  0  0  0  0  0
  -23.8970  -10.4530   21.0180 C   0  0  0  0  0  0  0  0  0  0  0  0
  -24.3300   -9.4920   21.9590 C   0  0  0  0  0  3  0  0  0  0  0  0
  -23.6090   -8.2930   22.1420 C   0  0  0  0  0  3  0  0  0  0  0  0
  -22.4400   -8.0450   21.3830 C   0  0  0  0  0  0  0  0  0  0  0  0
  -22.0270   -8.9940   20.4320 C   0  0  0  0  0  3  0  0  0  0  0  0
  -22.7480  -10.1850   20.2470 C   0  0  0  0  0  3  0  0  0  0  0  0
  -21.6900   -6.8980   21.4750 O   0  0  0  0  0  0  0  0  0  0  0  0
  -21.6470   -6.1570   22.6290 C   0  0  0  0  0  0  0  0  0  0  0  0
  -21.2240   -6.7120   23.8570 C   0  0  0  0  0  3  0  0  0  0  0  0
  -21.1280   -5.8960   25.0010 C   0  0  0  0  0  3  0  0  0  0  0  0
  -21.4470   -4.5280   24.9200 C   0  0  0  0  0  0  0  0  0  0  0  0
  -21.8650   -3.9720   23.6980 C   0  0  0  0  0  3  0  0  0  0  0  0
  -21.9620   -4.7850   22.5550 C   0  0  0  0  0  0  0  0  0  0  0  0
  -22.3440   -4.2410   21.3750 F   0  0  0  0  0  0  0  0  0  0  0  0
  -21.3490   -3.7420   26.0180 F   0  0  0  0  0  0  0  0  0  0  0  0
  -22.7420  -13.5380   21.0760 C   0  0  0  0  0  0  0  0  0  0  0  0
  -22.0050  -12.8490   21.9390 N   0  0  0  0  0  0  0  0  0  0  0  0
  -22.3070  -14.5550   20.5370 O   0  0  0  0  0  0  0  0  0  0  0  0
  -22.3690  -12.0290   22.4020 H   0  0  0  0  0  0  0  0  0  0  0  0
  -21.0640  -13.1520   22.1450 H   0  0  0  0  0  0  0  0  0  0  0  0
  -25.3670  -15.2110   20.2750 N   0  0  0  0  0  0  0  0  0  0  0  0
  -24.5820  -15.8460   20.3690 H   0  0  0  0  0  0  0  0  0  0  0  0
  -26.2010  -15.6680   19.9310 H   0  0  0  0  0  0  0  0  0  0  0  0
  -29.1680  -23.9370   20.4100 C   0  0  0  0  0  2  0  0  0  0  0  0
  -28.5750  -25.2370   18.1970 C   0  0  0  0  0  1  0  0  0  0  0  0
  -28.2760  -25.0780   19.7020 C   0  0  0  0  0  3  0  0  0  0  0  0
  -28.3350  -26.4690   20.2300 O   0  0  0  0  0  0  0  0  0  0  0  0
  -24.6120  -31.8790   23.2540 C   0  0  0  0  0  0  0  0  0  0  0  0
  -27.2050  -27.3170   20.1690 C   0  0  0  0  0  0  0  0  0  0  0  0
  -23.3990  -30.4850   21.6200 C   0  0  0  0  0  3  0  0  0  0  0  0
  -24.8400  -28.9400   20.1830 C   0  0  0  0  0  0  0  0  0  0  0  0
  -25.9390  -30.7990   21.4220 C   0  0  0  0  0  2  0  0  0  0  0  0
  -26.0120  -29.4200   20.7760 C   0  0  0  0  0  0  0  0  0  0  0  0
  -27.1950  -28.6180   20.7650 C   0  0  0  0  0  3  0  0  0  0  0  0
  -26.0050  -26.9030   19.5430 C   0  0  0  0  0  3  0  0  0  0  0  0
  -24.8380  -27.6860   19.5590 C   0  0  0  0  0  3  0  0  0  0  0  0
  -23.6060  -29.8160   20.2360 C   0  0  0  0  0  2  0  0  0  0  0  0
  -24.6700  -31.0730   22.1550 N   0  0  0  0  0  0  0  0  0  0  0  0
  -23.5320  -32.1570   23.7950 O   0  0  0  0  0  0  0  0  0  0  0  0
  -22.7440  -29.4650   22.5810 C   0  0  0  0  0  0  0  0  0  0  0  0
  -21.4180  -29.2840   22.4590 N   0  0  0  0  0  0  0  0  0  0  0  0
  -23.4270  -28.8400   23.3970 O   0  0  0  0  0  0  0  0  0  0  0  0
  -20.9260  -29.8390   21.7730 H   0  0  0  0  0  0  0  0  0  0  0  0
  -18.0440  -28.0760   22.9660 C   0  0  0  0  0  0  0  0  0  0  0  0
  -20.6010  -28.3470   23.2350 C   0  0  0  0  0  3  0  0  0  0  0  0
  -20.7100  -26.9130   22.6670 C   0  0  0  0  0  2  0  0  0  0  0  0
  -19.6090  -26.5800   21.6550 C   0  0  0  0  0  2  0  0  0  0  0  0
  -18.2260  -26.7220   22.2980 C   0  0  0  0  0  2  0  0  0  0  0  0
  -19.1600  -28.8450   23.3920 C   0  0  0  0  0  0  0  0  0  0  0  0
  -18.9360  -30.1090   23.9790 C   0  0  0  0  0  3  0  0  0  0  0  0
  -17.6290  -30.6050   24.1420 C   0  0  0  0  0  3  0  0  0  0  0  0
  -16.5280  -29.8340   23.7300 C   0  0  0  0  0  3  0  0  0  0  0  0
  -16.7370  -28.5710   23.1480 C   0  0  0  0  0  3  0  0  0  0  0  0
  -25.9000  -32.5120   23.8680 C   0  0  0  0  0  3  0  0  0  0  0  0
  -26.4190  -31.7440   25.1450 C   0  0  1  0  0  0  0  0  0  0  0  0
  -25.3290  -31.5140   26.2180 C   0  0  0  0  0  1  0  0  0  0  0  0
  -26.9960  -30.3620   24.7560 C   0  0  0  0  0  1  0  0  0  0  0  0
  -27.5770  -32.5370   25.7960 C   0  0  0  0  0  1  0  0  0  0  0  0
  -25.5930  -33.9110   24.1950 N   0  0  0  0  0  0  0  0  0  0  0  0
  -25.9240  -34.9620   23.4320 C   0  0  0  0  0  0  0  0  0  0  0  0
  -26.5890  -34.8530   22.3980 O   0  0  0  0  0  0  0  0  0  0  0  0
  -24.9970  -34.0700   24.9960 H   0  0  0  0  0  0  0  0  0  0  0  0
  -24.1980  -36.7590   23.0780 C   0  0  0  0  0  1  0  0  0  0  0  0
  -25.4420  -36.3530   23.8860 C   0  0  0  0  0  3  0  0  0  0  0  0
  -27.5810  -37.2340   24.7070 C   0  0  0  0  0  1  0  0  0  0  0  0
  -26.4780  -37.4020   23.7650 N   0  0  0  0  0  0  0  0  0  0  0  0
  -26.0750  -38.3240   23.9100 H   0  0  0  0  0  0  0  0  0  0  0  0
  1 52  1  0
  1  5  1  0
  2  1  1  0
  3  2  1  0
  4  2  2  0
  5  6  1  0
  7 22  1  0
  8 13  1  0
  9 10  1  0
  9  8  1  0
 11 10  1  0
 11 27  1  0
 11 12  1  0
 13  7  1  0
 13 12  1  0
 14  7  2  0
 15 16  2  0
 16  5  1  0
 16 17  1  0
 17 19  1  0
 18 22  1  0
 18 21  1  0
 20 15  1  0
 20 18  2  0
 21 17  2  0
 22 23  1  0
 24 25  2  0
 25 44  1  0
 26 25  1  0
 26 29  1  0
 27 24  1  0
 27 28  1  0
 28 26  2  0
 29 30  1  0
 30 31  2  0
 32 35  1  0
 32 31  1  0
 33 32  2  0
 34 33  1  0
 34 29  2  0
 35 36  1  0
 36 37  1  0
 37 38  2  0
 39 38  1  0
 39 43  1  0
 40 39  2  0
 41 36  2  0
 41 40  1  0
 42 41  1  0
 44 45  1  0
 45 48  1  0
 45 47  1  0
 46 44  2  0
 49 50  1  0
 49 24  1  0
 51 49  1  0
 54 53  1  0
 54 55  1  0
 54 52  1  0
 56 67  2  0
 57 55  1  0
 57 62  1  0
 58 66  1  0
 58 68  1  0
 59 65  1  0
 59 61  1  0
 60 66  1  0
 61 60  1  0
 62 61  2  0
 63 64  1  0
 63 57  2  0
 64 59  2  0
 65 58  1  0
 66 56  1  0
 68 70  2  0
 69 68  1  0
 71 69  1  0
 72 81  2  0
 72 77  1  0
 73 69  1  0
 73 77  1  0
 74 73  1  0
 75 76  1  0
 75 74  1  0
 76 72  1  0
 77 78  2  0
 78 79  1  0
 80 79  2  0
 81 80  1  0
 82 56  1  0
 82 87  1  0
 82 83  1  0
 83 86  1  1
 83 84  1  0
 85 83  1  0
 87 90  1  0
 88 92  1  0
 88 87  1  0
 89 88  2  0
 92 91  1  0
 94 92  1  0
 94 95  1  0
 94 93  1  0
M  ISO  4   7 100  22 100  54 101  55 101
M  END
>  <TORSDO>  (12) 
F 20

>  <SCORE>  (12) 
-14.224

>  <name>  (12) 
11

>  <ligand_id>  (12) 
11

>  <original_smiles>  (12) 
[H]c1nc(N([H])C(=O)N2C([H])([H])C([H])([H])C([H])([H])C([H])(n3nc(-c4c([H])c([H])c(Oc5c([H])c([H])c(F)c([H])c5F)c([H])c4[H])c(C(=O)N([H])[H])c3N([H])[H])C2([H])[H])nc(C([H])([H])[H])c1N([H])C([H])(C(=O)C([H])([H])[H])C([H])([H])C([H])(Oc1c([H])c([H])c2c(c1[H])C([H])([H])N(C(=O)C([H])(N([H])C(=O)C([H])(N([H])C([H])([H])[H])C([H])([H])[H])C(C([H])([H])[H])(C([H])([H])[H])C([H])([H])[H])C([H])(C(=O)N([H])C1([H])c3c([H])c([H])c([H])c([H])c3C([H])([H])C([H])([H])C1([H])[H])C2([H])[H])C([H])([H])[H]

>  <smiles>  (12) 
[H]c1nc(N([H])C(=O)N2C([H])([H])C([H])([H])C([H])([H])C([H])(n3nc(-c4c([H])c([H])c(Oc5c([H])c([H])c(F)c([H])c5F)c([H])c4[H])c(C(=O)N([H])[H])c3N([H])[H])C2([H])[H])nc(C([H])([H])[H])c1N([H])C([H])(C(=O)C([H])([H])[H])C([H])([H])C([H])(Oc1c([H])c([H])c2c(c1[H])C([H])([H])N(C(=O)C([H])(N([H])C(=O)C([H])(N([H])C([H])([H])[H])C([H])([H])[H])C(C([H])([H])[H])(C([H])([H])[H])C([H])([H])[H])C([H])(C(=O)N([H])C1([H])c3c([H])c([H])c([H])c([H])c3C([H])([H])C([H])([H])C1([H])[H])C2([H])[H])C([H])([H])[H]

$$$$
12:0:0
     RDKit          3D

 95103  0  0  1  0  0  0  0  0999 V2000
  -29.1350  -21.7600   20.3640 C   0  0  0  0  0  3  0  0  0  0  0  0
  -29.4360  -21.7530   21.8710 C   0  0  0  0  0  0  0  0  0  0  0  0
  -28.6480  -21.3140   22.7120 O   0  0  0  0  0  0  0  0  0  0  0  0
  -31.5710  -21.3110   23.1830 C   0  0  0  0  0  1  0  0  0  0  0  0
  -30.7970  -22.3000   22.3050 C   0  0  0  0  0  2  0  0  0  0  0  0
  -29.0410  -23.2390   18.2410 C   0  0  0  0  0  1  0  0  0  0  0  0
  -29.1280  -23.2530   19.7810 C   0  0  0  0  0  3  0  0  0  0  0  0
  -28.0510  -24.2670   20.3420 C   0  0  0  0  0  2  0  0  0  0  0  0
  -28.5000  -25.7500   20.6690 C   0  0  0  0  0  2  0  0  0  0  0  0
  -28.3620  -26.8100   19.6830 O   0  0  0  0  0  0  0  0  0  0  0  0
  -24.5980  -31.8760   23.1260 C   0  0  0  0  0  0  0  0  0  0  0  0
  -27.2180  -27.5830   19.7810 C   0  0  0  0  0  0  0  0  0  0  0  0
  -23.3710  -30.5210   21.4630 C   0  0  0  0  0  3  0  0  0  0  0  0
  -24.8090  -29.0700   19.9300 C   0  0  0  0  0  0  0  0  0  0  0  0
  -25.8860  -30.9280   21.2070 C   0  0  0  0  0  2  0  0  0  0  0  0
  -25.9770  -29.5830   20.5060 C   0  0  0  0  0  0  0  0  0  0  0  0
  -27.1890  -28.8470   20.4280 C   0  0  0  0  0  3  0  0  0  0  0  0
  -26.0340  -27.1010   19.1910 C   0  0  0  0  0  3  0  0  0  0  0  0
  -24.8330  -27.8290   19.2680 C   0  0  0  0  0  3  0  0  0  0  0  0
  -23.5510  -29.9030   20.0520 C   0  0  0  0  0  2  0  0  0  0  0  0
  -24.6380  -31.1230   21.9890 N   0  0  0  0  0  0  0  0  0  0  0  0
  -23.5290  -32.0990   23.7140 O   0  0  0  0  0  0  0  0  0  0  0  0
  -22.7690  -29.4490   22.3980 C   0  0  0  0  0  0  0  0  0  0  0  0
  -21.4520  -29.2110   22.2720 N   0  0  0  0  0  0  0  0  0  0  0  0
  -23.4820  -28.8320   23.1940 O   0  0  0  0  0  0  0  0  0  0  0  0
  -20.9320  -29.7610   21.6020 H   0  0  0  0  0  0  0  0  0  0  0  0
  -18.1510  -27.8070   22.7150 C   0  0  0  0  0  0  0  0  0  0  0  0
  -20.6860  -28.2160   23.0210 C   0  0  0  0  0  3  0  0  0  0  0  0
  -20.8810  -26.8000   22.4300 C   0  0  0  0  0  2  0  0  0  0  0  0
  -19.8150  -26.4260   21.3980 C   0  0  0  0  0  2  0  0  0  0  0  0
  -18.4180  -26.4810   22.0260 C   0  0  0  0  0  2  0  0  0  0  0  0
  -19.2170  -28.6300   23.1680 C   0  0  0  0  0  0  0  0  0  0  0  0
  -18.9150  -29.8680   23.7730 C   0  0  0  0  0  3  0  0  0  0  0  0
  -17.5810  -30.2890   23.9300 C   0  0  0  0  0  3  0  0  0  0  0  0
  -16.5300  -29.4640   23.4920 C   0  0  0  0  0  3  0  0  0  0  0  0
  -16.8160  -28.2260   22.8910 C   0  0  0  0  0  3  0  0  0  0  0  0
  -25.8860  -32.5120   23.7300 C   0  0  0  0  0  3  0  0  0  0  0  0
  -26.4400  -31.7210   24.9780 C   0  0  1  0  0  0  0  0  0  0  0  0
  -25.3760  -31.4450   26.0640 C   0  0  0  0  0  1  0  0  0  0  0  0
  -27.0340  -30.3600   24.5480 C   0  0  0  0  0  1  0  0  0  0  0  0
  -27.5990  -32.5120   25.6300 C   0  0  0  0  0  1  0  0  0  0  0  0
  -25.5680  -33.9000   24.0960 N   0  0  0  0  0  0  0  0  0  0  0  0
  -25.8940  -34.9740   23.3630 C   0  0  0  0  0  0  0  0  0  0  0  0
  -26.5640  -34.8990   22.3290 O   0  0  0  0  0  0  0  0  0  0  0  0
  -24.9690  -34.0270   24.8980 H   0  0  0  0  0  0  0  0  0  0  0  0
  -24.1680  -36.7740   23.0350 C   0  0  0  0  0  1  0  0  0  0  0  0
  -25.3990  -36.3500   23.8520 C   0  0  0  0  0  3  0  0  0  0  0  0
  -27.5180  -37.2170   24.7390 C   0  0  0  0  0  1  0  0  0  0  0  0
  -26.4330  -37.4060   23.7810 N   0  0  0  0  0  0  0  0  0  0  0  0
  -26.0250  -38.3230   23.9430 H   0  0  0  0  0  0  0  0  0  0  0  0
  -30.1230  -20.9180   19.6600 N   0  0  0  0  0  0  0  0  0  0  0  0
  -30.6600  -21.4650   19.0000 H   0  0  0  0  0  0  0  0  0  0  0  0
  -30.9130  -14.8630   20.3100 C   0  0  0  0  0  0  0  0  0  0  0  0
  -30.6430  -12.6290   19.3050 C   0  0  0  0  0  2  0  0  0  0  0  0
  -29.7280  -12.7910   18.0730 C   0  0  0  0  0  2  0  0  0  0  0  0
  -28.2500  -12.6570   18.4860 C   0  0  0  0  0  2  0  0  0  0  0  0
  -27.8890  -13.5330   19.7150 C   0  0  0  0  0  3  0  0  0  0  0  0
  -28.9320  -13.3790   20.8460 C   0  0  0  0  0  2  0  0  0  0  0  0
  -30.2550  -13.6690   20.2780 N   0  0  0  0  0  0  0  0  0  0  0  0
  -32.0870  -14.9560   19.9390 O   0  0  0  0  0  0  0  0  0  0  0  0
  -30.8730  -19.0510   18.3290 C   0  0  0  0  0  3  0  0  0  0  0  0
  -30.2590  -19.5120   19.4620 C   0  0  0  0  0  0  0  0  0  0  0  0
  -30.3260  -17.2330   19.8880 C   0  0  0  0  0  0  0  0  0  0  0  0
  -29.8920  -18.4470   20.3350 N   0  0  0  0  0  0  0  0  0  0  0  0
  -30.1780  -15.9760   20.5870 N   0  0  0  0  0  0  0  0  0  0  0  0
  -31.0660  -17.3290   18.2910 S   0  0  0  0  0  0  0  0  0  0  0  0
  -29.3250  -15.8420   21.1050 H   0  0  0  0  0  0  0  0  0  0  0  0
  -25.4960  -14.1440   20.4110 C   0  0  0  0  0  0  0  0  0  0  0  0
  -24.4260  -13.3730   20.7770 C   0  0  0  0  0  0  0  0  0  0  0  0
  -24.8850  -12.0200   20.7580 C   0  0  0  0  0  0  0  0  0  0  0  0
  -26.5380  -13.2580   20.1890 N   0  0  0  0  0  0  0  0  0  0  0  0
  -26.1760  -11.9770   20.4560 N   0  0  0  0  0  0  0  0  0  0  0  0
  -24.1560  -10.7600   20.9520 C   0  0  0  0  0  0  0  0  0  0  0  0
  -24.5530   -9.8180   21.9270 C   0  0  0  0  0  3  0  0  0  0  0  0
  -23.8250   -8.6220   22.1060 C   0  0  0  0  0  3  0  0  0  0  0  0
  -22.6880   -8.3600   21.3050 C   0  0  0  0  0  0  0  0  0  0  0  0
  -22.3120   -9.2880   20.3180 C   0  0  0  0  0  3  0  0  0  0  0  0
  -23.0400  -10.4760   20.1400 C   0  0  0  0  0  3  0  0  0  0  0  0
  -21.9340   -7.2140   21.3910 O   0  0  0  0  0  0  0  0  0  0  0  0
  -21.8100   -6.5210   22.5670 C   0  0  0  0  0  0  0  0  0  0  0  0
  -21.2600   -7.1110   23.7260 C   0  0  0  0  0  3  0  0  0  0  0  0
  -21.0870   -6.3430   24.8940 C   0  0  0  0  0  3  0  0  0  0  0  0
  -21.4510   -4.9830   24.9020 C   0  0  0  0  0  0  0  0  0  0  0  0
  -21.9940   -4.3910   23.7490 C   0  0  0  0  0  3  0  0  0  0  0  0
  -22.1710   -5.1570   22.5830 C   0  0  0  0  0  0  0  0  0  0  0  0
  -22.6740   -4.5770   21.4660 F   0  0  0  0  0  0  0  0  0  0  0  0
  -21.2780   -4.2410   26.0210 F   0  0  0  0  0  0  0  0  0  0  0  0
  -23.0290  -13.8540   21.0380 C   0  0  0  0  0  0  0  0  0  0  0  0
  -22.2980  -13.1610   21.9050 N   0  0  0  0  0  0  0  0  0  0  0  0
  -22.5930  -14.8770   20.5150 O   0  0  0  0  0  0  0  0  0  0  0  0
  -22.6680  -12.3340   22.3460 H   0  0  0  0  0  0  0  0  0  0  0  0
  -21.3610  -13.4630   22.1320 H   0  0  0  0  0  0  0  0  0  0  0  0
  -25.6650  -15.5130   20.2270 N   0  0  0  0  0  0  0  0  0  0  0  0
  -24.8930  -16.1680   20.3060 H   0  0  0  0  0  0  0  0  0  0  0  0
  -26.5120  -15.9440   19.8780 H   0  0  0  0  0  0  0  0  0  0  0  0
  1  2  1  0
  2  5  1  0
  2  3  2  0
  5  4  1  0
  7  6  1  0
  7  8  1  0
  7  1  1  0
  8  9  1  0
 10 12  1  0
 10  9  1  0
 11 22  2  0
 12 17  1  0
 13 21  1  0
 13 23  1  0
 14 20  1  0
 14 16  1  0
 15 21  1  0
 16 15  1  0
 17 16  2  0
 18 19  1  0
 18 12  2  0
 19 14  2  0
 20 13  1  0
 21 11  1  0
 23 25  2  0
 24 23  1  0
 26 24  1  0
 27 36  2  0
 27 32  1  0
 28 24  1  0
 28 32  1  0
 29 28  1  0
 30 31  1  0
 30 29  1  0
 31 27  1  0
 32 33  2  0
 33 34  1  0
 35 34  2  0
 36 35  1  0
 37 11  1  0
 37 42  1  0
 37 38  1  0
 38 41  1  1
 38 39  1  0
 40 38  1  0
 42 45  1  0
 43 47  1  0
 43 42  1  0
 44 43  2  0
 47 46  1  0
 49 47  1  0
 49 50  1  0
 49 48  1  0
 51  1  1  0
 52 51  1  0
 53 65  1  0
 54 59  1  0
 55 56  1  0
 55 54  1  0
 57 56  1  0
 57 71  1  0
 57 58  1  0
 59 53  1  0
 59 58  1  0
 60 53  2  0
 61 62  2  0
 62 51  1  0
 62 64  1  0
 63 64  2  0
 63 65  1  0
 65 67  1  0
 66 61  1  0
 66 63  1  0
 68 69  2  0
 69 88  1  0
 70 69  1  0
 70 73  1  0
 71 68  1  0
 71 72  1  0
 72 70  2  0
 73 74  1  0
 74 75  2  0
 76 79  1  0
 76 75  1  0
 77 76  2  0
 78 77  1  0
 78 73  2  0
 79 80  1  0
 80 85  2  0
 80 81  1  0
 81 82  2  0
 82 83  1  0
 83 87  1  0
 84 83  2  0
 85 84  1  0
 86 85  1  0
 88 89  1  0
 89 92  1  0
 89 91  1  0
 90 88  2  0
 93 94  1  0
 93 68  1  0
 95 93  1  0
M  ISO  4   9 101  10 101  53 100  65 100
M  END
>  <TORSDO>  (13) 
F 22

>  <SCORE>  (13) 
-12.624

>  <name>  (13) 
12

>  <ligand_id>  (13) 
12

>  <original_smiles>  (13) 
[H]c1sc(N([H])C(=O)N2C([H])([H])C([H])([H])C([H])([H])C([H])(n3nc(-c4c([H])c([H])c(Oc5c([H])c([H])c(F)c([H])c5F)c([H])c4[H])c(C(=O)N([H])[H])c3N([H])[H])C2([H])[H])nc1N([H])C([H])(C(=O)C([H])([H])C([H])([H])[H])C([H])(C([H])([H])[H])C([H])([H])C([H])([H])Oc1c([H])c([H])c2c(c1[H])C([H])([H])N(C(=O)C([H])(N([H])C(=O)C([H])(N([H])C([H])([H])[H])C([H])([H])[H])C(C([H])([H])[H])(C([H])([H])[H])C([H])([H])[H])C([H])(C(=O)N([H])C1([H])c3c([H])c([H])c([H])c([H])c3C([H])([H])C([H])([H])C1([H])[H])C2([H])[H]

>  <smiles>  (13) 
[H]c1sc(N([H])C(=O)N2C([H])([H])C([H])([H])C([H])([H])C([H])(n3nc(-c4c([H])c([H])c(Oc5c([H])c([H])c(F)c([H])c5F)c([H])c4[H])c(C(=O)N([H])[H])c3N([H])[H])C2([H])[H])nc1N([H])C([H])(C(=O)C([H])([H])C([H])([H])[H])C([H])(C([H])([H])[H])C([H])([H])C([H])([H])Oc1c([H])c([H])c2c(c1[H])C([H])([H])N(C(=O)C([H])(N([H])C(=O)C([H])(N([H])C([H])([H])[H])C([H])([H])[H])C(C([H])([H])[H])(C([H])([H])[H])C([H])([H])[H])C([H])(C(=O)N([H])C1([H])c3c([H])c([H])c([H])c([H])c3C([H])([H])C([H])([H])C1([H])[H])C2([H])[H]

$$$$
13:0:0
     RDKit          3D

 96104  0  0  1  0  0  0  0  0999 V2000
  -30.9850  -17.2210   19.0870 C   0  0  0  0  0  3  0  0  0  0  0  0
  -30.1420  -16.9770   20.2120 C   0  0  0  0  0  0  0  0  0  0  0  0
  -30.7050  -19.4910   19.2730 C   0  0  0  0  0  0  0  0  0  0  0  0
  -29.8210  -19.3020   20.3700 C   0  0  0  0  0  0  0  0  0  0  0  0
  -31.2660  -18.4600   18.6210 N   0  0  0  0  0  0  0  0  0  0  0  0
  -29.5360  -18.0460   20.8220 N   0  0  0  0  0  0  0  0  0  0  0  0
  -31.0740  -20.7560   18.8360 N   0  0  0  0  0  0  0  0  0  0  0  0
  -29.3450  -20.3980   21.1180 N   0  0  0  0  0  0  0  0  0  0  0  0
  -30.8210  -21.5660   19.4010 H   0  0  0  0  0  0  0  0  0  0  0  0
  -31.8290  -20.8820   18.1760 H   0  0  0  0  0  0  0  0  0  0  0  0
  -30.1610  -20.9940   21.2800 H   0  0  0  0  0  0  0  0  0  0  0  0
  -30.6610  -14.5210   20.4080 C   0  0  0  0  0  0  0  0  0  0  0  0
  -30.3530  -12.3290   19.3460 C   0  0  0  0  0  2  0  0  0  0  0  0
  -29.4210  -12.5330   18.1330 C   0  0  0  0  0  2  0  0  0  0  0  0
  -27.9430  -12.4140   18.5580 C   0  0  0  0  0  2  0  0  0  0  0  0
  -27.6060  -13.2470   19.8260 C   0  0  0  0  0  3  0  0  0  0  0  0
  -28.6680  -13.0580   20.9340 C   0  0  0  0  0  2  0  0  0  0  0  0
  -29.9860  -13.3380   20.3500 N   0  0  0  0  0  0  0  0  0  0  0  0
  -31.8410  -14.6130   20.0680 O   0  0  0  0  0  0  0  0  0  0  0  0
  -29.9090  -15.6230   20.6580 N   0  0  0  0  0  0  0  0  0  0  0  0
  -29.0100  -15.4490   21.0750 H   0  0  0  0  0  0  0  0  0  0  0  0
  -25.2110  -13.8500   20.5450 C   0  0  0  0  0  0  0  0  0  0  0  0
  -24.1450  -13.0760   20.9170 C   0  0  0  0  0  0  0  0  0  0  0  0
  -24.6060  -11.7250   20.8870 C   0  0  0  0  0  0  0  0  0  0  0  0
  -26.2570  -12.9680   20.3130 N   0  0  0  0  0  0  0  0  0  0  0  0
  -25.8990  -11.6860   20.5800 N   0  0  0  0  0  0  0  0  0  0  0  0
  -23.8790  -10.4630   21.0760 C   0  0  0  0  0  0  0  0  0  0  0  0
  -24.3230   -9.4880   21.9950 C   0  0  0  0  0  3  0  0  0  0  0  0
  -23.5960   -8.2910   22.1760 C   0  0  0  0  0  3  0  0  0  0  0  0
  -22.4090   -8.0610   21.4390 C   0  0  0  0  0  0  0  0  0  0  0  0
  -21.9840   -9.0290   20.5110 C   0  0  0  0  0  3  0  0  0  0  0  0
  -22.7120  -10.2160   20.3280 C   0  0  0  0  0  3  0  0  0  0  0  0
  -21.6530   -6.9190   21.5290 O   0  0  0  0  0  0  0  0  0  0  0  0
  -21.6330   -6.1550   22.6690 C   0  0  0  0  0  0  0  0  0  0  0  0
  -21.2590   -6.6930   23.9190 C   0  0  0  0  0  3  0  0  0  0  0  0
  -21.1840   -5.8560   25.0520 C   0  0  0  0  0  3  0  0  0  0  0  0
  -21.4770   -4.4840   24.9350 C   0  0  0  0  0  0  0  0  0  0  0  0
  -21.8470   -3.9470   23.6890 C   0  0  0  0  0  3  0  0  0  0  0  0
  -21.9230   -4.7810   22.5580 C   0  0  0  0  0  0  0  0  0  0  0  0
  -22.2550   -4.2510   21.3570 F   0  0  0  0  0  0  0  0  0  0  0  0
  -21.4010   -3.6800   26.0210 F   0  0  0  0  0  0  0  0  0  0  0  0
  -22.7470  -13.5530   21.1850 C   0  0  0  0  0  0  0  0  0  0  0  0
  -22.0200  -12.8600   22.0550 N   0  0  0  0  0  0  0  0  0  0  0  0
  -22.3090  -14.5750   20.6610 O   0  0  0  0  0  0  0  0  0  0  0  0
  -22.3860  -12.0320   22.4990 H   0  0  0  0  0  0  0  0  0  0  0  0
  -21.0830  -13.1600   22.2760 H   0  0  0  0  0  0  0  0  0  0  0  0
  -25.3750  -15.2210   20.3640 N   0  0  0  0  0  0  0  0  0  0  0  0
  -24.6070  -15.8750   20.4770 H   0  0  0  0  0  0  0  0  0  0  0  0
  -26.2210  -15.6650   20.0260 H   0  0  0  0  0  0  0  0  0  0  0  0
  -28.4760  -21.4020   20.4810 C   0  0  0  0  0  2  0  0  0  0  0  0
  -28.8570  -22.8230   21.0150 C   0  0  0  0  0  3  0  0  0  0  0  0
  -30.2780  -22.8650   20.9530 O   0  0  0  0  0  0  0  0  0  0  0  0
  -30.5780  -23.5460   21.5470 H   0  0  0  0  0  0  0  0  0  0  0  0
  -28.2620  -24.0720   20.2760 C   0  0  0  0  0  2  0  0  0  0  0  0
  -28.3880  -25.4160   21.0700 C   0  0  0  0  0  2  0  0  0  0  0  0
  -28.4420  -26.6310   20.2830 O   0  0  0  0  0  0  0  0  0  0  0  0
  -24.6230  -31.8840   23.2640 C   0  0  0  0  0  0  0  0  0  0  0  0
  -27.2930  -27.3930   20.2730 C   0  0  0  0  0  0  0  0  0  0  0  0
  -23.4380  -30.4660   21.6220 C   0  0  0  0  0  3  0  0  0  0  0  0
  -24.9070  -28.9120   20.2290 C   0  0  0  0  0  0  0  0  0  0  0  0
  -25.9680  -30.8190   21.4520 C   0  0  0  0  0  2  0  0  0  0  0  0
  -26.0610  -29.4430   20.8230 C   0  0  0  0  0  0  0  0  0  0  0  0
  -27.2600  -28.6920   20.8350 C   0  0  0  0  0  3  0  0  0  0  0  0
  -26.1230  -26.8780   19.6810 C   0  0  0  0  0  3  0  0  0  0  0  0
  -24.9340  -27.6300   19.6540 C   0  0  0  0  0  3  0  0  0  0  0  0
  -23.6650  -29.7750   20.2510 C   0  0  0  0  0  2  0  0  0  0  0  0
  -24.6940  -31.0730   22.1700 N   0  0  0  0  0  0  0  0  0  0  0  0
  -23.5350  -32.1590   23.7900 O   0  0  0  0  0  0  0  0  0  0  0  0
  -22.7790  -29.4530   22.5860 C   0  0  0  0  0  0  0  0  0  0  0  0
  -21.4570  -29.2710   22.4480 N   0  0  0  0  0  0  0  0  0  0  0  0
  -23.4550  -28.8340   23.4120 O   0  0  0  0  0  0  0  0  0  0  0  0
  -20.9750  -29.8190   21.7480 H   0  0  0  0  0  0  0  0  0  0  0  0
  -18.0740  -28.0870   22.9300 C   0  0  0  0  0  0  0  0  0  0  0  0
  -20.6320  -28.3400   23.2180 C   0  0  0  0  0  3  0  0  0  0  0  0
  -20.7360  -26.9060   22.6500 C   0  0  0  0  0  2  0  0  0  0  0  0
  -19.6390  -26.5800   21.6310 C   0  0  0  0  0  2  0  0  0  0  0  0
  -18.2530  -26.7330   22.2640 C   0  0  0  0  0  2  0  0  0  0  0  0
  -19.1940  -28.8470   23.3640 C   0  0  0  0  0  0  0  0  0  0  0  0
  -18.9760  -30.1140   23.9490 C   0  0  0  0  0  3  0  0  0  0  0  0
  -17.6730  -30.6210   24.1070 C   0  0  0  0  0  3  0  0  0  0  0  0
  -16.5680  -29.8580   23.6900 C   0  0  0  0  0  3  0  0  0  0  0  0
  -16.7710  -28.5940   23.1060 C   0  0  0  0  0  3  0  0  0  0  0  0
  -25.9020  -32.5220   23.8920 C   0  0  0  0  0  3  0  0  0  0  0  0
  -25.5850  -33.9220   24.2080 N   0  0  0  0  0  0  0  0  0  0  0  0
  -25.9200  -34.9710   23.4450 C   0  0  0  0  0  0  0  0  0  0  0  0
  -26.6010  -34.8630   22.4200 O   0  0  0  0  0  0  0  0  0  0  0  0
  -24.9770  -34.0780   24.9990 H   0  0  0  0  0  0  0  0  0  0  0  0
  -24.1830  -36.7500   23.0710 C   0  0  0  0  0  1  0  0  0  0  0  0
  -25.4230  -36.3590   23.8890 C   0  0  0  0  0  3  0  0  0  0  0  0
  -27.5510  -37.2610   24.7190 C   0  0  0  0  0  1  0  0  0  0  0  0
  -26.4480  -37.4180   23.7730 N   0  0  0  0  0  0  0  0  0  0  0  0
  -26.0370  -38.3370   23.9170 H   0  0  0  0  0  0  0  0  0  0  0  0
  -26.4090  -31.7630   25.1800 C   0  0  1  0  0  0  0  0  0  0  0  0
  -25.3080  -31.5330   26.2400 C   0  0  0  0  0  1  0  0  0  0  0  0
  -27.0020  -30.3840   24.8070 C   0  0  0  0  0  1  0  0  0  0  0  0
  -27.5510  -32.5670   25.8460 C   0  0  0  0  0  1  0  0  0  0  0  0
  1  2  1  0
  2 20  1  0
  2  6  2  0
  3  4  2  0
  4  6  1  0
  4  8  1  0
  5  1  2  0
  5  3  1  0
  7  3  1  0
  7  9  1  0
  8 11  1  0
 10  7  1  0
 12 20  1  0
 13 18  1  0
 14 15  1  0
 14 13  1  0
 16 15  1  0
 16 25  1  0
 16 17  1  0
 18 12  1  0
 18 17  1  0
 19 12  2  0
 20 21  1  0
 22 23  2  0
 23 42  1  0
 24 23  1  0
 24 27  1  0
 25 22  1  0
 25 26  1  0
 26 24  2  0
 27 28  1  0
 28 29  2  0
 30 33  1  0
 30 29  1  0
 31 30  2  0
 32 31  1  0
 32 27  2  0
 33 34  1  0
 34 35  1  0
 35 36  2  0
 37 36  1  0
 37 41  1  0
 38 37  2  0
 39 34  2  0
 39 38  1  0
 40 39  1  0
 42 43  1  0
 43 46  1  0
 43 45  1  0
 44 42  2  0
 47 48  1  0
 47 22  1  0
 49 47  1  0
 50 51  1  0
 50  8  1  0
 51 54  1  0
 52 51  1  0
 52 53  1  0
 54 55  1  0
 56 55  1  0
 57 68  2  0
 58 56  1  0
 58 63  1  0
 59 67  1  0
 59 69  1  0
 60 66  1  0
 60 62  1  0
 61 67  1  0
 62 63  2  0
 62 61  1  0
 64 58  2  0
 65 64  1  0
 65 60  2  0
 66 59  1  0
 67 57  1  0
 69 71  2  0
 70 69  1  0
 72 70  1  0
 73 82  2  0
 73 78  1  0
 74 70  1  0
 74 78  1  0
 75 74  1  0
 76 77  1  0
 76 75  1  0
 77 73  1  0
 78 79  2  0
 79 80  1  0
 81 80  2  0
 82 81  1  0
 83 57  1  0
 83 84  1  0
 83 93  1  0
 84 87  1  0
 85 89  1  0
 85 84  1  0
 86 85  2  0
 89 88  1  0
 91 89  1  0
 91 92  1  0
 91 90  1  0
 93 96  1  1
 93 94  1  0
 95 93  1  0
M  ISO  4  12 100  20 100  55 101  56 101
M  END
>  <TORSDO>  (14) 
F 21

>  <SCORE>  (14) 
-13.992

>  <name>  (14) 
13

>  <ligand_id>  (14) 
13

>  <original_smiles>  (14) 
[H]OC([H])(C([H])([H])N([H])c1nc(N([H])C(=O)N2C([H])([H])C([H])([H])C([H])([H])C([H])(n3nc(-c4c([H])c([H])c(Oc5c([H])c([H])c(F)c([H])c5F)c([H])c4[H])c(C(=O)N([H])[H])c3N([H])[H])C2([H])[H])c([H])nc1N([H])[H])C([H])([H])C([H])([H])Oc1c([H])c([H])c2c(c1[H])C([H])([H])N(C(=O)C([H])(N([H])C(=O)C([H])(N([H])C([H])([H])[H])C([H])([H])[H])C(C([H])([H])[H])(C([H])([H])[H])C([H])([H])[H])C([H])(C(=O)N([H])C1([H])c3c([H])c([H])c([H])c([H])c3C([H])([H])C([H])([H])C1([H])[H])C2([H])[H]

>  <smiles>  (14) 
[H]OC([H])(C([H])([H])N([H])c1nc(N([H])C(=O)N2C([H])([H])C([H])([H])C([H])([H])C([H])(n3nc(-c4c([H])c([H])c(Oc5c([H])c([H])c(F)c([H])c5F)c([H])c4[H])c(C(=O)N([H])[H])c3N([H])[H])C2([H])[H])c([H])nc1N([H])[H])C([H])([H])C([H])([H])Oc1c([H])c([H])c2c(c1[H])C([H])([H])N(C(=O)C([H])(N([H])C(=O)C([H])(N([H])C([H])([H])[H])C([H])([H])[H])C(C([H])([H])[H])(C([H])([H])[H])C([H])([H])[H])C([H])(C(=O)N([H])C1([H])c3c([H])c([H])c([H])c([H])c3C([H])([H])C([H])([H])C1([H])[H])C2([H])[H]

$$$$
14:0:0
     RDKit          3D

 94102  0  0  1  0  0  0  0  0999 V2000
  -31.3440  -17.6690   19.3740 C   0  0  0  0  0  3  0  0  0  0  0  0
  -30.1340  -17.4060   20.0780 C   0  0  0  0  0  0  0  0  0  0  0  0
  -30.9860  -19.9500   19.3260 C   0  0  0  0  0  0  0  0  0  0  0  0
  -29.7270  -19.8220   19.9590 C   0  0  0  0  0  0  0  0  0  0  0  0
  -31.7790  -18.9050   19.0310 N   0  0  0  0  0  0  0  0  0  0  0  0
  -29.3160  -18.5290   20.3200 N   0  0  0  0  0  0  0  0  0  0  0  0
  -31.3960  -21.1660   18.8150 N   0  0  0  0  0  0  0  0  0  0  0  0
  -28.8400  -20.9720   19.9860 N   0  0  0  0  0  4  0  0  0  0  0  0
  -30.6010  -21.8010   18.8250 H   0  0  0  0  0  0  0  0  0  0  0  0
  -31.8550  -21.0930   17.9140 H   0  0  0  0  0  0  0  0  0  0  0  0
  -27.8790  -20.6540   19.9930 H   0  0  0  0  0  0  0  0  0  0  0  0
  -30.5790  -14.8030   20.3240 C   0  0  0  0  0  0  0  0  0  0  0  0
  -30.3740  -12.4980   19.3950 C   0  0  0  0  0  2  0  0  0  0  0  0
  -29.4550  -12.5680   18.1560 C   0  0  0  0  0  2  0  0  0  0  0  0
  -27.9800  -12.3970   18.5760 C   0  0  0  0  0  2  0  0  0  0  0  0
  -27.5970  -13.2800   19.7960 C   0  0  0  0  0  3  0  0  0  0  0  0
  -28.6570  -13.2220   20.9170 C   0  0  0  0  0  2  0  0  0  0  0  0
  -29.9460  -13.5760   20.3140 N   0  0  0  0  0  0  0  0  0  0  0  0
  -31.7800  -14.8300   20.0540 O   0  0  0  0  0  0  0  0  0  0  0  0
  -29.8260  -15.9820   20.4450 N   0  0  0  0  0  0  0  0  0  0  0  0
  -28.8900  -15.8440   20.7930 H   0  0  0  0  0  0  0  0  0  0  0  0
  -25.2140  -13.8520   20.5390 C   0  0  0  0  0  0  0  0  0  0  0  0
  -24.1540  -13.0770   20.9160 C   0  0  0  0  0  0  0  0  0  0  0  0
  -24.6220  -11.7250   20.8840 C   0  0  0  0  0  0  0  0  0  0  0  0
  -26.2610  -12.9780   20.2940 N   0  0  0  0  0  0  0  0  0  0  0  0
  -25.9140  -11.6920   20.5660 N   0  0  0  0  0  0  0  0  0  0  0  0
  -23.9000  -10.4620   21.0730 C   0  0  0  0  0  0  0  0  0  0  0  0
  -24.3450   -9.4850   21.9940 C   0  0  0  0  0  3  0  0  0  0  0  0
  -23.6210   -8.2860   22.1720 C   0  0  0  0  0  3  0  0  0  0  0  0
  -22.4390   -8.0540   21.4300 C   0  0  0  0  0  0  0  0  0  0  0  0
  -22.0140   -9.0170   20.4980 C   0  0  0  0  0  3  0  0  0  0  0  0
  -22.7380  -10.2070   20.3180 C   0  0  0  0  0  3  0  0  0  0  0  0
  -21.6850   -6.9090   21.5230 O   0  0  0  0  0  0  0  0  0  0  0  0
  -21.6570   -6.1530   22.6670 C   0  0  0  0  0  0  0  0  0  0  0  0
  -21.2570   -6.6940   23.9080 C   0  0  0  0  0  3  0  0  0  0  0  0
  -21.1740   -5.8630   25.0430 C   0  0  0  0  0  3  0  0  0  0  0  0
  -21.4870   -4.4930   24.9380 C   0  0  0  0  0  0  0  0  0  0  0  0
  -21.8790   -3.9530   23.7010 C   0  0  0  0  0  3  0  0  0  0  0  0
  -21.9610   -4.7800   22.5680 C   0  0  0  0  0  0  0  0  0  0  0  0
  -22.3210   -4.2480   21.3770 F   0  0  0  0  0  0  0  0  0  0  0  0
  -21.4000   -3.6960   26.0280 F   0  0  0  0  0  0  0  0  0  0  0  0
  -22.7560  -13.5480   21.1900 C   0  0  0  0  0  0  0  0  0  0  0  0
  -22.0270  -12.8540   22.0550 N   0  0  0  0  0  0  0  0  0  0  0  0
  -22.3150  -14.5750   20.6700 O   0  0  0  0  0  0  0  0  0  0  0  0
  -22.3920  -12.0270   22.5060 H   0  0  0  0  0  0  0  0  0  0  0  0
  -21.0900  -13.1580   22.2770 H   0  0  0  0  0  0  0  0  0  0  0  0
  -25.3760  -15.2230   20.3560 N   0  0  0  0  0  0  0  0  0  0  0  0
  -24.6060  -15.8770   20.4430 H   0  0  0  0  0  0  0  0  0  0  0  0
  -26.2200  -15.6520   20.0010 H   0  0  0  0  0  0  0  0  0  0  0  0
  -30.0460  -22.3380   21.7850 C   0  0  0  0  0  1  0  0  0  0  0  0
  -28.9300  -22.2990   20.7320 C   0  0  0  0  0  0  0  0  0  0  0  0
  -28.8360  -23.7240   19.9500 C   0  0  0  0  0  3  0  0  0  0  0  0
  -28.1960  -25.0000   20.7230 C   0  0  0  0  0  3  0  0  0  0  0  0
  -28.3870  -26.4260   20.2990 O   0  0  0  0  0  0  0  0  0  0  0  0
  -24.6020  -31.8900   23.2640 C   0  0  0  0  0  0  0  0  0  0  0  0
  -27.2740  -27.2920   20.2880 C   0  0  0  0  0  0  0  0  0  0  0  0
  -23.4300  -30.4710   21.6190 C   0  0  0  0  0  3  0  0  0  0  0  0
  -24.9090  -28.9100   20.2320 C   0  0  0  0  0  0  0  0  0  0  0  0
  -25.9720  -30.7950   21.4700 C   0  0  0  0  0  2  0  0  0  0  0  0
  -26.0700  -29.4040   20.8430 C   0  0  0  0  0  0  0  0  0  0  0  0
  -27.2580  -28.6070   20.8600 C   0  0  0  0  0  3  0  0  0  0  0  0
  -26.0950  -26.8590   19.6480 C   0  0  0  0  0  3  0  0  0  0  0  0
  -24.9260  -27.6460   19.6230 C   0  0  0  0  0  3  0  0  0  0  0  0
  -23.6720  -29.7890   20.2480 C   0  0  0  0  0  2  0  0  0  0  0  0
  -24.6870  -31.0700   22.1760 N   0  0  0  0  0  0  0  0  0  0  0  0
  -23.5070  -32.1710   23.7750 O   0  0  0  0  0  0  0  0  0  0  0  0
  -22.7540  -29.4620   22.5770 C   0  0  0  0  0  0  0  0  0  0  0  0
  -21.4290  -29.2830   22.4360 N   0  0  0  0  0  0  0  0  0  0  0  0
  -23.4210  -28.8410   23.4070 O   0  0  0  0  0  0  0  0  0  0  0  0
  -20.9490  -29.8430   21.7450 H   0  0  0  0  0  0  0  0  0  0  0  0
  -18.0440  -28.0920   22.8980 C   0  0  0  0  0  0  0  0  0  0  0  0
  -20.6000  -28.3520   23.2010 C   0  0  0  0  0  3  0  0  0  0  0  0
  -20.7080  -26.9150   22.6370 C   0  0  0  0  0  2  0  0  0  0  0  0
  -19.6190  -26.5850   21.6110 C   0  0  0  0  0  2  0  0  0  0  0  0
  -18.2270  -26.7380   22.2340 C   0  0  0  0  0  2  0  0  0  0  0  0
  -19.1580  -28.8570   23.3380 C   0  0  0  0  0  0  0  0  0  0  0  0
  -18.9310  -30.1230   23.9170 C   0  0  0  0  0  3  0  0  0  0  0  0
  -17.6250  -30.6260   24.0640 C   0  0  0  0  0  3  0  0  0  0  0  0
  -16.5260  -29.8600   23.6380 C   0  0  0  0  0  3  0  0  0  0  0  0
  -16.7360  -28.5960   23.0610 C   0  0  0  0  0  3  0  0  0  0  0  0
  -25.8700  -32.5370   23.9030 C   0  0  0  0  0  3  0  0  0  0  0  0
  -26.3610  -31.7820   25.1990 C   0  0  1  0  0  0  0  0  0  0  0  0
  -25.2480  -31.5570   26.2490 C   0  0  0  0  0  1  0  0  0  0  0  0
  -26.9510  -30.4020   24.8290 C   0  0  0  0  0  1  0  0  0  0  0  0
  -27.4990  -32.5850   25.8720 C   0  0  0  0  0  1  0  0  0  0  0  0
  -25.5520  -33.9380   24.2100 N   0  0  0  0  0  0  0  0  0  0  0  0
  -25.8970  -34.9820   23.4450 C   0  0  0  0  0  0  0  0  0  0  0  0
  -26.5870  -34.8670   22.4280 O   0  0  0  0  0  0  0  0  0  0  0  0
  -24.9490  -34.1030   25.0030 H   0  0  0  0  0  0  0  0  0  0  0  0
  -24.1760  -36.7690   23.0330 C   0  0  0  0  0  1  0  0  0  0  0  0
  -25.3990  -36.3760   23.8770 C   0  0  0  0  0  3  0  0  0  0  0  0
  -27.5160  -37.2690   24.7450 C   0  0  0  0  0  1  0  0  0  0  0  0
  -26.4340  -37.4290   23.7760 N   0  0  0  0  0  0  0  0  0  0  0  0
  -26.0240  -38.3500   23.9100 H   0  0  0  0  0  0  0  0  0  0  0  0
  1  2  1  0
  2  6  2  0
  2 20  1  0
  3  4  2  0
  4  8  1  0
  4  6  1  0
  5  3  1  0
  5  1  2  0
  7  9  1  0
  7  3  1  0
  8 11  1  0
  8 51  2  3
 10  7  1  0
 12 20  1  0
 13 18  1  0
 14 15  1  0
 14 13  1  0
 16 15  1  0
 16 25  1  0
 16 17  1  0
 18 12  1  0
 18 17  1  0
 19 12  2  0
 20 21  1  0
 22 23  2  0
 23 42  1  0
 24 23  1  0
 24 27  1  0
 25 22  1  0
 25 26  1  0
 26 24  2  0
 27 28  1  0
 28 29  2  0
 30 33  1  0
 30 29  1  0
 31 30  2  0
 32 31  1  0
 32 27  2  0
 33 34  1  0
 34 35  1  0
 35 36  2  0
 37 36  1  0
 37 41  1  0
 38 37  2  0
 39 34  2  0
 39 38  1  0
 40 39  1  0
 42 43  1  0
 43 46  1  0
 43 45  1  0
 44 42  2  0
 47 48  1  0
 47 22  1  0
 49 47  1  0
 51 50  1  0
 52 53  2  0
 52 51  1  0
 54 53  1  0
 55 66  2  0
 56 54  1  0
 56 61  1  0
 57 65  1  0
 57 67  1  0
 58 64  1  0
 58 60  1  0
 59 65  1  0
 60 61  2  0
 60 59  1  0
 62 56  2  0
 63 62  1  0
 63 58  2  0
 64 57  1  0
 65 55  1  0
 67 69  2  0
 68 67  1  0
 70 68  1  0
 71 80  2  0
 71 76  1  0
 72 68  1  0
 72 76  1  0
 73 72  1  0
 74 75  1  0
 74 73  1  0
 75 71  1  0
 76 77  2  0
 77 78  1  0
 79 78  2  0
 80 79  1  0
 81 55  1  0
 81 86  1  0
 81 82  1  0
 82 85  1  1
 82 83  1  0
 84 82  1  0
 86 89  1  0
 87 91  1  0
 87 86  1  0
 88 87  2  0
 91 90  1  0
 93 91  1  0
 93 94  1  0
 93 92  1  0
M  ISO  4  12 100  20 100  53 101  54 101
M  END
>  <TORSDO>  (15) 
F 19

>  <SCORE>  (15) 
-14.316

>  <name>  (15) 
14

>  <ligand_id>  (15) 
14

>  <original_smiles>  (15) 
[H]c1nc(N([H])[H])c(N([H])C([H])(C([H])([H])[H])C([H])([H])C([H])([H])Oc2c([H])c([H])c3c(c2[H])C([H])([H])N(C(=O)C([H])(N([H])C(=O)C([H])(N([H])C([H])([H])[H])C([H])([H])[H])C(C([H])([H])[H])(C([H])([H])[H])C([H])([H])[H])C([H])(C(=O)N([H])C2([H])c4c([H])c([H])c([H])c([H])c4C([H])([H])C([H])([H])C2([H])[H])C3([H])[H])nc1N([H])C(=O)N1C([H])([H])C([H])([H])C([H])([H])C([H])(n2nc(-c3c([H])c([H])c(Oc4c([H])c([H])c(F)c([H])c4F)c([H])c3[H])c(C(=O)N([H])[H])c2N([H])[H])C1([H])[H]

>  <smiles>  (15) 
[H]c1nc(N([H])[H])c(N([H])C([H])(C([H])([H])[H])C([H])([H])C([H])([H])Oc2c([H])c([H])c3c(c2[H])C([H])([H])N(C(=O)C([H])(N([H])C(=O)C([H])(N([H])C([H])([H])[H])C([H])([H])[H])C(C([H])([H])[H])(C([H])([H])[H])C([H])([H])[H])C([H])(C(=O)N([H])C2([H])c4c([H])c([H])c([H])c([H])c4C([H])([H])C([H])([H])C2([H])[H])C3([H])[H])nc1N([H])C(=O)N1C([H])([H])C([H])([H])C([H])([H])C([H])(n2nc(-c3c([H])c([H])c(Oc4c([H])c([H])c(F)c([H])c4F)c([H])c3[H])c(C(=O)N([H])[H])c2N([H])[H])C1([H])[H]

$$$$
15:0:0
     RDKit          3D

 94102  0  0  1  0  0  0  0  0999 V2000
  -30.4130  -20.8800   20.2040 C   0  0  0  0  0  3  0  0  0  0  0  0
  -30.0000  -18.5500   20.3560 C   0  0  0  0  0  0  0  0  0  0  0  0
  -29.0260  -21.1860   20.1110 C   0  0  0  0  0  0  0  0  0  0  0  0
  -28.6080  -18.8640   20.2830 C   0  0  0  0  0  0  0  0  0  0  0  0
  -30.8820  -19.5950   20.3120 N   0  0  0  0  0  0  0  0  0  0  0  0
  -28.1430  -20.1450   20.1370 N   0  0  0  0  0  0  0  0  0  0  0  0
  -27.6220  -17.8920   20.3990 N   0  0  0  0  0  0  0  0  0  0  0  0
  -27.8480  -17.0740   20.9510 H   0  0  0  0  0  0  0  0  0  0  0  0
  -26.6810  -18.2240   20.5690 H   0  0  0  0  0  0  0  0  0  0  0  0
  -28.4490  -22.4880   19.9490 N   0  0  0  0  0  0  0  0  0  0  0  0
  -27.4370  -22.4760   19.8660 H   0  0  0  0  0  0  0  0  0  0  0  0
  -29.0150  -23.8420   20.2600 C   0  0  0  0  0  2  0  0  0  0  0  0
  -28.6120  -25.0390   18.0530 C   0  0  0  0  0  1  0  0  0  0  0  0
  -28.2360  -25.0440   19.5460 C   0  0  0  0  0  3  0  0  0  0  0  0
  -28.3530  -26.4510   20.0260 O   0  0  0  0  0  0  0  0  0  0  0  0
  -24.5380  -31.7610   23.1260 C   0  0  0  0  0  0  0  0  0  0  0  0
  -27.2250  -27.3000   19.9740 C   0  0  0  0  0  0  0  0  0  0  0  0
  -23.3630  -30.3830   21.4530 C   0  0  0  0  0  3  0  0  0  0  0  0
  -24.8400  -28.8960   19.9960 C   0  0  0  0  0  0  0  0  0  0  0  0
  -25.9020  -30.7380   21.2910 C   0  0  0  0  0  2  0  0  0  0  0  0
  -26.0030  -29.3770   20.6110 C   0  0  0  0  0  0  0  0  0  0  0  0
  -27.1960  -28.5910   20.5940 C   0  0  0  0  0  3  0  0  0  0  0  0
  -26.0330  -26.8890   19.3280 C   0  0  0  0  0  3  0  0  0  0  0  0
  -24.8580  -27.6570   19.3460 C   0  0  0  0  0  3  0  0  0  0  0  0
  -23.5930  -29.7510   20.0570 C   0  0  0  0  0  2  0  0  0  0  0  0
  -24.6200  -30.9770   22.0130 N   0  0  0  0  0  0  0  0  0  0  0  0
  -23.4480  -32.0110   23.6600 O   0  0  0  0  0  0  0  0  0  0  0  0
  -22.7130  -29.3320   22.3830 C   0  0  0  0  0  0  0  0  0  0  0  0
  -21.3900  -29.1390   22.2480 N   0  0  0  0  0  0  0  0  0  0  0  0
  -23.3980  -28.6960   23.1880 O   0  0  0  0  0  0  0  0  0  0  0  0
  -20.8970  -29.7060   21.5720 H   0  0  0  0  0  0  0  0  0  0  0  0
  -18.0270  -27.8840   22.7040 C   0  0  0  0  0  0  0  0  0  0  0  0
  -20.5800  -28.1740   22.9940 C   0  0  0  0  0  3  0  0  0  0  0  0
  -20.7050  -26.7560   22.3890 C   0  0  0  0  0  2  0  0  0  0  0  0
  -19.6120  -26.4390   21.3630 C   0  0  0  0  0  2  0  0  0  0  0  0
  -18.2260  -26.5520   22.0020 C   0  0  0  0  0  2  0  0  0  0  0  0
  -19.1320  -28.6530   23.1560 C   0  0  0  0  0  0  0  0  0  0  0  0
  -18.8930  -29.9000   23.7720 C   0  0  0  0  0  3  0  0  0  0  0  0
  -17.5810  -30.3790   23.9410 C   0  0  0  0  0  3  0  0  0  0  0  0
  -16.4890  -29.6080   23.5060 C   0  0  0  0  0  3  0  0  0  0  0  0
  -16.7130  -28.3620   22.8930 C   0  0  0  0  0  3  0  0  0  0  0  0
  -25.8080  -32.3990   23.7680 C   0  0  0  0  0  3  0  0  0  0  0  0
  -26.3240  -31.6130   25.0360 C   0  0  1  0  0  0  0  0  0  0  0  0
  -25.2250  -31.3430   26.0900 C   0  0  0  0  0  1  0  0  0  0  0  0
  -26.9290  -30.2500   24.6280 C   0  0  0  0  0  1  0  0  0  0  0  0
  -27.4580  -32.4130   25.7210 C   0  0  0  0  0  1  0  0  0  0  0  0
  -25.4780  -33.7870   24.1190 N   0  0  0  0  0  0  0  0  0  0  0  0
  -25.7990  -34.8570   23.3790 C   0  0  0  0  0  0  0  0  0  0  0  0
  -26.4760  -34.7800   22.3500 O   0  0  0  0  0  0  0  0  0  0  0  0
  -24.8780  -33.9210   24.9190 H   0  0  0  0  0  0  0  0  0  0  0  0
  -24.0500  -36.6340   23.0450 C   0  0  0  0  0  1  0  0  0  0  0  0
  -25.2920  -36.2310   23.8580 C   0  0  0  0  0  3  0  0  0  0  0  0
  -27.4060  -37.1310   24.7230 C   0  0  0  0  0  1  0  0  0  0  0  0
  -26.3110  -37.2990   23.7700 N   0  0  0  0  0  0  0  0  0  0  0  0
  -25.8910  -38.2110   23.9260 H   0  0  0  0  0  0  0  0  0  0  0  0
  -30.6480  -17.1360   20.6580 C   0  0  0  0  0  2  0  0  0  0  0  0
  -30.6540  -14.6510   20.0500 C   0  0  0  0  0  0  0  0  0  0  0  0
  -30.3040  -12.4280   18.9940 C   0  0  0  0  0  2  0  0  0  0  0  0
  -29.3040  -12.5520   17.8260 C   0  0  0  0  0  2  0  0  0  0  0  0
  -27.8580  -12.4020   18.3370 C   0  0  0  0  0  2  0  0  0  0  0  0
  -27.5690  -13.2800   19.5840 C   0  0  0  0  0  3  0  0  0  0  0  0
  -28.6870  -13.1570   20.6430 C   0  0  0  0  0  2  0  0  0  0  0  0
  -29.9590  -13.4710   19.9810 N   0  0  0  0  0  0  0  0  0  0  0  0
  -31.8130  -14.7180   19.6360 O   0  0  0  0  0  0  0  0  0  0  0  0
  -29.9940  -15.7930   20.4270 N   0  0  0  0  0  0  0  0  0  0  0  0
  -29.0140  -15.7080   20.6440 H   0  0  0  0  0  0  0  0  0  0  0  0
  -25.2350  -13.8890   20.4600 C   0  0  0  0  0  0  0  0  0  0  0  0
  -24.1790  -13.1200   20.8700 C   0  0  0  0  0  0  0  0  0  0  0  0
  -24.6200  -11.7640   20.7820 C   0  0  0  0  0  0  0  0  0  0  0  0
  -26.2510  -13.0010   20.1450 N   0  0  0  0  0  0  0  0  0  0  0  0
  -25.8900  -11.7170   20.4010 N   0  0  0  0  0  0  0  0  0  0  0  0
  -23.8850  -10.5080   20.9830 C   0  0  0  0  0  0  0  0  0  0  0  0
  -24.3360   -9.5250   21.8930 C   0  0  0  0  0  3  0  0  0  0  0  0
  -23.6030   -8.3350   22.0830 C   0  0  0  0  0  3  0  0  0  0  0  0
  -22.4030   -8.1180   21.3640 C   0  0  0  0  0  0  0  0  0  0  0  0
  -21.9700   -9.0890   20.4430 C   0  0  0  0  0  3  0  0  0  0  0  0
  -22.7040  -10.2700   20.2510 C   0  0  0  0  0  3  0  0  0  0  0  0
  -21.6380   -6.9810   21.4650 O   0  0  0  0  0  0  0  0  0  0  0  0
  -21.6020   -6.2370   22.6170 C   0  0  0  0  0  0  0  0  0  0  0  0
  -21.1910   -6.7910   23.8490 C   0  0  0  0  0  3  0  0  0  0  0  0
  -21.1030   -5.9730   24.9940 C   0  0  0  0  0  3  0  0  0  0  0  0
  -21.4160   -4.6040   24.9080 C   0  0  0  0  0  0  0  0  0  0  0  0
  -21.8210   -4.0500   23.6800 C   0  0  0  0  0  3  0  0  0  0  0  0
  -21.9100   -4.8650   22.5370 C   0  0  0  0  0  0  0  0  0  0  0  0
  -22.2800   -4.3210   21.3530 F   0  0  0  0  0  0  0  0  0  0  0  0
  -21.3240   -3.8160   26.0050 F   0  0  0  0  0  0  0  0  0  0  0  0
  -22.8070  -13.6100   21.2320 C   0  0  0  0  0  0  0  0  0  0  0  0
  -22.1190  -12.9030   22.1210 N   0  0  0  0  0  0  0  0  0  0  0  0
  -22.3570  -14.6550   20.7630 O   0  0  0  0  0  0  0  0  0  0  0  0
  -22.4970  -12.0580   22.5220 H   0  0  0  0  0  0  0  0  0  0  0  0
  -21.1990  -13.2120   22.4050 H   0  0  0  0  0  0  0  0  0  0  0  0
  -25.4070  -15.2610   20.3090 N   0  0  0  0  0  0  0  0  0  0  0  0
  -24.6590  -15.9200   20.4990 H   0  0  0  0  0  0  0  0  0  0  0  0
  -26.2540  -15.7170   19.9900 H   0  0  0  0  0  0  0  0  0  0  0  0
  1  5  1  0
  2 56  1  0
  3  6  1  0
  3  1  2  0
  4  2  1  0
  4  7  1  0
  5  2  2  0
  6  4  2  0
  7  9  1  0
  7  8  1  0
 10  3  1  0
 10 12  1  0
 11 10  1  0
 14 13  1  0
 14 15  1  0
 14 12  1  0
 16 27  2  0
 17 15  1  0
 17 22  1  0
 18 26  1  0
 18 28  1  0
 19 25  1  0
 19 21  1  0
 20 26  1  0
 21 20  1  0
 22 21  2  0
 23 24  1  0
 23 17  2  0
 24 19  2  0
 25 18  1  0
 26 16  1  0
 28 30  2  0
 29 28  1  0
 31 29  1  0
 32 41  2  0
 32 37  1  0
 33 29  1  0
 33 37  1  0
 34 33  1  0
 35 36  1  0
 35 34  1  0
 36 32  1  0
 37 38  2  0
 38 39  1  0
 40 39  2  0
 41 40  1  0
 42 16  1  0
 42 47  1  0
 42 43  1  0
 43 46  1  1
 43 44  1  0
 45 43  1  0
 47 50  1  0
 48 52  1  0
 48 47  1  0
 49 48  2  0
 52 51  1  0
 54 52  1  0
 54 55  1  0
 54 53  1  0
 57 65  1  0
 58 63  1  0
 59 60  1  0
 59 58  1  0
 61 60  1  0
 61 70  1  0
 61 62  1  0
 63 57  1  0
 63 62  1  0
 64 57  2  0
 65 66  1  0
 65 56  1  0
 67 68  2  0
 68 87  1  0
 69 68  1  0
 69 72  1  0
 70 71  1  0
 70 67  1  0
 71 69  2  0
 72 73  1  0
 73 74  2  0
 75 78  1  0
 75 74  1  0
 76 75  2  0
 77 76  1  0
 77 72  2  0
 78 79  1  0
 79 80  1  0
 80 81  2  0
 82 81  1  0
 82 86  1  0
 83 82  2  0
 84 79  2  0
 84 83  1  0
 85 84  1  0
 87 88  1  0
 88 91  1  0
 88 90  1  0
 89 87  2  0
 92 67  1  0
 92 93  1  0
 94 92  1  0
M  ISO  4  14 101  15 101  57 100  65 100
M  END
>  <TORSDO>  (16) 
F 20

>  <SCORE>  (16) 
-13.870

>  <name>  (16) 
15

>  <ligand_id>  (16) 
15

>  <original_smiles>  (16) 
[H]c1nc(C([H])([H])N([H])C(=O)N2C([H])([H])C([H])([H])C([H])([H])C([H])(n3nc(-c4c([H])c([H])c(Oc5c([H])c([H])c(F)c([H])c5F)c([H])c4[H])c(C(=O)N([H])[H])c3N([H])[H])C2([H])[H])c(N([H])[H])nc1N([H])C([H])([H])C([H])(Oc1c([H])c([H])c2c(c1[H])C([H])([H])N(C(=O)C([H])(N([H])C(=O)C([H])(N([H])C([H])([H])[H])C([H])([H])[H])C(C([H])([H])[H])(C([H])([H])[H])C([H])([H])[H])C([H])(C(=O)N([H])C1([H])c3c([H])c([H])c([H])c([H])c3C([H])([H])C([H])([H])C1([H])[H])C2([H])[H])C([H])([H])[H]

>  <smiles>  (16) 
[H]c1nc(C([H])([H])N([H])C(=O)N2C([H])([H])C([H])([H])C([H])([H])C([H])(n3nc(-c4c([H])c([H])c(Oc5c([H])c([H])c(F)c([H])c5F)c([H])c4[H])c(C(=O)N([H])[H])c3N([H])[H])C2([H])[H])c(N([H])[H])nc1N([H])C([H])([H])C([H])(Oc1c([H])c([H])c2c(c1[H])C([H])([H])N(C(=O)C([H])(N([H])C(=O)C([H])(N([H])C([H])([H])[H])C([H])([H])[H])C(C([H])([H])[H])(C([H])([H])[H])C([H])([H])[H])C([H])(C(=O)N([H])C1([H])c3c([H])c([H])c([H])c([H])c3C([H])([H])C([H])([H])C1([H])[H])C2([H])[H])C([H])([H])[H]

$$$$
16:0:0
     RDKit          3D

 92100  0  0  1  0  0  0  0  0999 V2000
  -28.8890  -22.3000   22.2630 C   0  0  0  0  0  1  0  0  0  0  0  0
  -28.8450  -22.4810   20.7350 C   0  0  0  0  0  3  0  0  0  0  0  0
  -28.8150  -18.0020   20.8550 C   0  0  0  0  0  3  0  0  0  0  0  0
  -30.8670  -19.2750   19.7170 C   0  0  0  0  0  3  0  0  0  0  0  0
  -29.9180  -17.2240   20.3770 C   0  0  0  0  0  0  0  0  0  0  0  0
  -29.7650  -20.0420   20.2040 C   0  0  0  0  0  0  0  0  0  0  0  0
  -30.9460  -17.9080   19.7990 N   0  0  0  0  0  0  0  0  0  0  0  0
  -28.7300  -19.3710   20.7730 N   0  0  0  0  0  0  0  0  0  0  0  0
  -29.7550  -21.4780   20.0890 N   0  0  0  0  0  0  0  0  0  0  0  0
  -30.5480  -21.8640   19.5840 H   0  0  0  0  0  0  0  0  0  0  0  0
  -30.5940  -14.7310   20.0590 C   0  0  0  0  0  0  0  0  0  0  0  0
  -30.3100  -12.5280   18.9400 C   0  0  0  0  0  2  0  0  0  0  0  0
  -29.3040  -12.7100   17.7820 C   0  0  0  0  0  2  0  0  0  0  0  0
  -27.8550  -12.5490   18.2810 C   0  0  0  0  0  2  0  0  0  0  0  0
  -27.5730  -13.3690   19.5680 C   0  0  0  0  0  3  0  0  0  0  0  0
  -28.6860  -13.1600   20.6180 C   0  0  0  0  0  2  0  0  0  0  0  0
  -29.9680  -13.5130   19.9870 N   0  0  0  0  0  0  0  0  0  0  0  0
  -31.7330  -14.8850   19.6040 O   0  0  0  0  0  0  0  0  0  0  0  0
  -29.8310  -15.7710   20.5240 N   0  0  0  0  0  0  0  0  0  0  0  0
  -28.9740  -15.4560   20.9500 H   0  0  0  0  0  0  0  0  0  0  0  0
  -25.2160  -13.9660   20.4000 C   0  0  0  0  0  0  0  0  0  0  0  0
  -24.1660  -13.1920   20.8140 C   0  0  0  0  0  0  0  0  0  0  0  0
  -24.6240  -11.8390   20.7480 C   0  0  0  0  0  0  0  0  0  0  0  0
  -26.2470  -13.0860   20.1110 N   0  0  0  0  0  0  0  0  0  0  0  0
  -25.8980  -11.8010   20.3800 N   0  0  0  0  0  0  0  0  0  0  0  0
  -23.9040  -10.5760   20.9600 C   0  0  0  0  0  0  0  0  0  0  0  0
  -24.3750   -9.6030   21.8690 C   0  0  0  0  0  3  0  0  0  0  0  0
  -23.6570   -8.4050   22.0700 C   0  0  0  0  0  3  0  0  0  0  0  0
  -22.4530   -8.1720   21.3630 C   0  0  0  0  0  0  0  0  0  0  0  0
  -22.0010   -9.1340   20.4430 C   0  0  0  0  0  3  0  0  0  0  0  0
  -22.7200  -10.3240   20.2400 C   0  0  0  0  0  3  0  0  0  0  0  0
  -21.7000   -7.0270   21.4760 O   0  0  0  0  0  0  0  0  0  0  0  0
  -21.6950   -6.2800   22.6270 C   0  0  0  0  0  0  0  0  0  0  0  0
  -21.3230   -6.8320   23.8710 C   0  0  0  0  0  3  0  0  0  0  0  0
  -21.2620   -6.0120   25.0150 C   0  0  0  0  0  3  0  0  0  0  0  0
  -21.5640   -4.6400   24.9170 C   0  0  0  0  0  0  0  0  0  0  0  0
  -21.9290   -4.0870   23.6770 C   0  0  0  0  0  3  0  0  0  0  0  0
  -21.9920   -4.9050   22.5350 C   0  0  0  0  0  0  0  0  0  0  0  0
  -22.3230   -4.3620   21.3380 F   0  0  0  0  0  0  0  0  0  0  0  0
  -21.4990   -3.8510   26.0150 F   0  0  0  0  0  0  0  0  0  0  0  0
  -22.7840  -13.6690   21.1530 C   0  0  0  0  0  0  0  0  0  0  0  0
  -22.0970  -12.9670   22.0470 N   0  0  0  0  0  0  0  0  0  0  0  0
  -22.3240  -14.6980   20.6600 O   0  0  0  0  0  0  0  0  0  0  0  0
  -22.4840  -12.1340   22.4680 H   0  0  0  0  0  0  0  0  0  0  0  0
  -21.1700  -13.2660   22.3160 H   0  0  0  0  0  0  0  0  0  0  0  0
  -25.3750  -15.3370   20.2250 N   0  0  0  0  0  0  0  0  0  0  0  0
  -24.6040  -15.9840   20.3560 H   0  0  0  0  0  0  0  0  0  0  0  0
  -26.1780  -15.7660   19.7830 H   0  0  0  0  0  0  0  0  0  0  0  0
  -29.1260  -24.0190   20.3080 C   0  0  0  0  0  2  0  0  0  0  0  0
  -28.5770  -25.6040   22.3360 C   0  0  0  0  0  1  0  0  0  0  0  0
  -28.2500  -25.2520   20.8700 C   0  0  0  0  0  3  0  0  0  0  0  0
  -28.4040  -26.5650   20.1990 O   0  0  0  0  0  0  0  0  0  0  0  0
  -24.6150  -31.9160   23.2310 C   0  0  0  0  0  0  0  0  0  0  0  0
  -27.2830  -27.4050   20.1810 C   0  0  0  0  0  0  0  0  0  0  0  0
  -23.4290  -30.5100   21.5820 C   0  0  0  0  0  3  0  0  0  0  0  0
  -24.9000  -28.9730   20.1630 C   0  0  0  0  0  0  0  0  0  0  0  0
  -25.9650  -30.8580   21.4070 C   0  0  0  0  0  2  0  0  0  0  0  0
  -26.0610  -29.4820   20.7610 C   0  0  0  0  0  0  0  0  0  0  0  0
  -27.2590  -28.7090   20.7590 C   0  0  0  0  0  3  0  0  0  0  0  0
  -26.1030  -26.9420   19.5620 C   0  0  0  0  0  3  0  0  0  0  0  0
  -24.9210  -27.7070   19.5550 C   0  0  0  0  0  3  0  0  0  0  0  0
  -23.6550  -29.8340   20.2030 C   0  0  0  0  0  2  0  0  0  0  0  0
  -24.6880  -31.1120   22.1310 N   0  0  0  0  0  0  0  0  0  0  0  0
  -23.5280  -32.1840   23.7630 O   0  0  0  0  0  0  0  0  0  0  0  0
  -22.7720  -29.4880   22.5390 C   0  0  0  0  0  0  0  0  0  0  0  0
  -21.4490  -29.2970   22.4010 N   0  0  0  0  0  0  0  0  0  0  0  0
  -23.4500  -28.8690   23.3620 O   0  0  0  0  0  0  0  0  0  0  0  0
  -20.9610  -29.8500   21.7110 H   0  0  0  0  0  0  0  0  0  0  0  0
  -18.0810  -28.0600   22.8640 C   0  0  0  0  0  0  0  0  0  0  0  0
  -20.6330  -28.3520   23.1660 C   0  0  0  0  0  3  0  0  0  0  0  0
  -20.7600  -26.9200   22.5960 C   0  0  0  0  0  2  0  0  0  0  0  0
  -19.6750  -26.5800   21.5700 C   0  0  0  0  0  2  0  0  0  0  0  0
  -18.2840  -26.7110   22.1960 C   0  0  0  0  0  2  0  0  0  0  0  0
  -19.1860  -28.8380   23.3050 C   0  0  0  0  0  0  0  0  0  0  0  0
  -18.9440  -30.1000   23.8890 C   0  0  0  0  0  3  0  0  0  0  0  0
  -17.6310  -30.5860   24.0370 C   0  0  0  0  0  3  0  0  0  0  0  0
  -16.5410  -29.8050   23.6130 C   0  0  0  0  0  3  0  0  0  0  0  0
  -16.7670  -28.5450   23.0310 C   0  0  0  0  0  3  0  0  0  0  0  0
  -25.8910  -32.5560   23.8610 C   0  0  0  0  0  3  0  0  0  0  0  0
  -26.4020  -31.7910   25.1440 C   0  0  1  0  0  0  0  0  0  0  0  0
  -25.3020  -31.5530   26.2050 C   0  0  0  0  0  1  0  0  0  0  0  0
  -26.9920  -30.4120   24.7600 C   0  0  0  0  0  1  0  0  0  0  0  0
  -27.5460  -32.5900   25.8080 C   0  0  0  0  0  1  0  0  0  0  0  0
  -25.5740  -33.9540   24.1870 N   0  0  0  0  0  0  0  0  0  0  0  0
  -25.9110  -35.0070   23.4300 C   0  0  0  0  0  0  0  0  0  0  0  0
  -26.5930  -34.9040   22.4060 O   0  0  0  0  0  0  0  0  0  0  0  0
  -24.9660  -34.1060   24.9790 H   0  0  0  0  0  0  0  0  0  0  0  0
  -24.1810  -36.7950   23.0550 C   0  0  0  0  0  1  0  0  0  0  0  0
  -25.4150  -36.3940   23.8800 C   0  0  0  0  0  3  0  0  0  0  0  0
  -27.5390  -37.2860   24.7320 C   0  0  0  0  0  1  0  0  0  0  0  0
  -26.4460  -37.4490   23.7780 N   0  0  0  0  0  0  0  0  0  0  0  0
  -26.0350  -38.3670   23.9210 H   0  0  0  0  0  0  0  0  0  0  0  0
  2  1  1  0
  4  7  2  0
  4  6  1  0
  5 19  1  0
  5  3  2  0
  6  8  2  0
  7  5  1  0
  8  3  1  0
  9  6  1  0
  9  2  1  0
 10  9  1  0
 11 19  1  0
 12 17  1  0
 13 14  1  0
 13 12  1  0
 15 14  1  0
 15 24  1  0
 15 16  1  0
 17 11  1  0
 17 16  1  0
 18 11  2  0
 19 20  1  0
 21 22  2  0
 22 41  1  0
 23 22  1  0
 23 26  1  0
 24 25  1  0
 24 21  1  0
 25 23  2  0
 26 27  1  0
 27 28  2  0
 29 32  1  0
 29 28  1  0
 30 29  2  0
 31 30  1  0
 31 26  2  0
 32 33  1  0
 33 34  1  0
 34 35  2  0
 36 35  1  0
 36 40  1  0
 37 36  2  0
 38 33  2  0
 38 37  1  0
 39 38  1  0
 41 42  1  0
 42 45  1  0
 42 44  1  0
 43 41  2  0
 46 47  1  0
 46 21  1  0
 48 46  1  0
 49  2  1  0
 49 51  1  0
 51 50  1  0
 52 51  1  0
 53 64  2  0
 54 52  1  0
 54 59  1  0
 55 63  1  0
 55 65  1  0
 56 62  1  0
 56 58  1  0
 57 63  1  0
 58 57  1  0
 59 58  2  0
 60 54  2  0
 61 60  1  0
 61 56  2  0
 62 55  1  0
 63 53  1  0
 65 67  2  0
 66 65  1  0
 68 66  1  0
 69 78  2  0
 69 74  1  0
 70 66  1  0
 70 74  1  0
 71 70  1  0
 72 73  1  0
 72 71  1  0
 73 69  1  0
 74 75  2  0
 75 76  1  0
 77 76  2  0
 78 77  1  0
 79 53  1  0
 79 84  1  0
 79 80  1  0
 80 83  1  1
 80 81  1  0
 82 80  1  0
 84 87  1  0
 85 89  1  0
 85 84  1  0
 86 85  2  0
 89 88  1  0
 91 89  1  0
 91 92  1  0
 91 90  1  0
M  ISO  4  11 100  19 100  51 101  52 101
M  END
>  <TORSDO>  (17) 
F 19

>  <SCORE>  (17) 
-14.113

>  <name>  (17) 
16

>  <ligand_id>  (17) 
16

>  <original_smiles>  (17) 
[H]c1nc(N([H])C([H])(C([H])([H])[H])C([H])([H])C([H])(Oc2c([H])c([H])c3c(c2[H])C([H])([H])N(C(=O)C([H])(N([H])C(=O)C([H])(N([H])C([H])([H])[H])C([H])([H])[H])C(C([H])([H])[H])(C([H])([H])[H])C([H])([H])[H])C([H])(C(=O)N([H])C2([H])c4c([H])c([H])c([H])c([H])c4C([H])([H])C([H])([H])C2([H])[H])C3([H])[H])C([H])([H])[H])c([H])nc1N([H])C(=O)N1C([H])([H])C([H])([H])C([H])([H])C([H])(n2nc(-c3c([H])c([H])c(Oc4c([H])c([H])c(F)c([H])c4F)c([H])c3[H])c(C(=O)N([H])[H])c2N([H])[H])C1([H])[H]

>  <smiles>  (17) 
[H]c1nc(N([H])C([H])(C([H])([H])[H])C([H])([H])C([H])(Oc2c([H])c([H])c3c(c2[H])C([H])([H])N(C(=O)C([H])(N([H])C(=O)C([H])(N([H])C([H])([H])[H])C([H])([H])[H])C(C([H])([H])[H])(C([H])([H])[H])C([H])([H])[H])C([H])(C(=O)N([H])C2([H])c4c([H])c([H])c([H])c([H])c4C([H])([H])C([H])([H])C2([H])[H])C3([H])[H])C([H])([H])[H])c([H])nc1N([H])C(=O)N1C([H])([H])C([H])([H])C([H])([H])C([H])(n2nc(-c3c([H])c([H])c(Oc4c([H])c([H])c(F)c([H])c4F)c([H])c3[H])c(C(=O)N([H])[H])c2N([H])[H])C1([H])[H]

$$$$
17:0:0
     RDKit          3D

 90 98  0  0  1  0  0  0  0  0999 V2000
  -28.4330  -22.2100   18.3020 C   0  0  0  0  0  1  0  0  0  0  0  0
  -29.1450  -22.3880   19.6510 C   0  0  0  0  0  3  0  0  0  0  0  0
  -30.6530  -14.6940   19.9950 C   0  0  0  0  0  0  0  0  0  0  0  0
  -30.3950  -12.4540   18.9220 C   0  0  0  0  0  2  0  0  0  0  0  0
  -29.3760  -12.5890   17.7680 C   0  0  0  0  0  2  0  0  0  0  0  0
  -27.9330  -12.4190   18.2840 C   0  0  0  0  0  2  0  0  0  0  0  0
  -27.6530  -13.2610   19.5560 C   0  0  0  0  0  3  0  0  0  0  0  0
  -28.7790  -13.0940   20.6020 C   0  0  0  0  0  2  0  0  0  0  0  0
  -30.0470  -13.4590   19.9510 N   0  0  0  0  0  0  0  0  0  0  0  0
  -31.7840  -14.8470   19.5200 O   0  0  0  0  0  0  0  0  0  0  0  0
  -29.9230  -17.2020   20.2880 C   0  0  0  0  0  0  0  0  0  0  0  0
  -29.5200  -19.7080   20.2280 C   0  0  0  0  0  0  0  0  0  0  0  0
  -30.6370  -17.8520   19.3440 N   0  0  0  0  0  0  0  0  0  0  0  0
  -30.3980  -19.2620   19.3040 N   0  0  0  0  0  0  0  0  0  0  0  0
  -29.8940  -15.7380   20.4780 N   0  0  0  0  0  0  0  0  0  0  0  0
  -29.0860  -21.0770   20.4020 N   0  0  0  0  0  0  0  0  0  0  0  0
  -28.9010  -18.3480   21.2250 S   0  0  0  0  0  0  0  0  0  0  0  0
  -29.0800  -15.4200   20.9770 H   0  0  0  0  0  0  0  0  0  0  0  0
  -28.5040  -21.1500   21.2300 H   0  0  0  0  0  0  0  0  0  0  0  0
  -25.3160  -13.8540   20.4400 C   0  0  0  0  0  0  0  0  0  0  0  0
  -24.2700  -13.0780   20.8590 C   0  0  0  0  0  0  0  0  0  0  0  0
  -24.7190  -11.7250   20.7680 C   0  0  0  0  0  0  0  0  0  0  0  0
  -26.3370  -12.9720   20.1190 N   0  0  0  0  0  0  0  0  0  0  0  0
  -25.9870  -11.6870   20.3770 N   0  0  0  0  0  0  0  0  0  0  0  0
  -23.9970  -10.4630   20.9750 C   0  0  0  0  0  0  0  0  0  0  0  0
  -24.4580   -9.4900   21.8890 C   0  0  0  0  0  3  0  0  0  0  0  0
  -23.7350   -8.2920   22.0850 C   0  0  0  0  0  3  0  0  0  0  0  0
  -22.5390   -8.0600   21.3650 C   0  0  0  0  0  0  0  0  0  0  0  0
  -22.0980   -9.0220   20.4390 C   0  0  0  0  0  3  0  0  0  0  0  0
  -22.8210  -10.2100   20.2420 C   0  0  0  0  0  3  0  0  0  0  0  0
  -21.7860   -6.9160   21.4700 O   0  0  0  0  0  0  0  0  0  0  0  0
  -21.7410   -6.1890   22.6320 C   0  0  0  0  0  0  0  0  0  0  0  0
  -21.3050   -6.7560   23.8490 C   0  0  0  0  0  3  0  0  0  0  0  0
  -21.2060   -5.9550   25.0040 C   0  0  0  0  0  3  0  0  0  0  0  0
  -21.5330   -4.5880   24.9440 C   0  0  0  0  0  0  0  0  0  0  0  0
  -21.9630   -4.0200   23.7320 C   0  0  0  0  0  3  0  0  0  0  0  0
  -22.0630   -4.8170   22.5780 C   0  0  0  0  0  0  0  0  0  0  0  0
  -22.4560   -4.2610   21.4080 F   0  0  0  0  0  0  0  0  0  0  0  0
  -21.4330   -3.8150   26.0510 F   0  0  0  0  0  0  0  0  0  0  0  0
  -22.8960  -13.5570   21.2310 C   0  0  0  0  0  0  0  0  0  0  0  0
  -22.2200  -12.8470   22.1270 N   0  0  0  0  0  0  0  0  0  0  0  0
  -22.4330  -14.5940   20.7610 O   0  0  0  0  0  0  0  0  0  0  0  0
  -22.6110  -12.0070   22.5290 H   0  0  0  0  0  0  0  0  0  0  0  0
  -21.3010  -13.1470   22.4180 H   0  0  0  0  0  0  0  0  0  0  0  0
  -25.4780  -15.2270   20.2820 N   0  0  0  0  0  0  0  0  0  0  0  0
  -24.7170  -15.8770   20.4450 H   0  0  0  0  0  0  0  0  0  0  0  0
  -26.2880  -15.6650   19.8630 H   0  0  0  0  0  0  0  0  0  0  0  0
  -28.6170  -23.7310   20.3930 C   0  0  0  0  0  3  0  0  0  0  0  0
  -28.5890  -25.1300   19.5820 C   0  0  0  0  0  3  0  0  0  0  0  0
  -28.4280  -26.4610   20.2410 O   0  0  0  0  0  0  0  0  0  0  0  0
  -24.6280  -31.8410   23.2000 C   0  0  0  0  0  0  0  0  0  0  0  0
  -27.2810  -27.2770   20.1560 C   0  0  0  0  0  0  0  0  0  0  0  0
  -23.4420  -30.4440   21.5460 C   0  0  0  0  0  3  0  0  0  0  0  0
  -24.9070  -28.8940   20.1290 C   0  0  0  0  0  0  0  0  0  0  0  0
  -25.9820  -30.7630   21.3860 C   0  0  0  0  0  2  0  0  0  0  0  0
  -26.0690  -29.3830   20.7360 C   0  0  0  0  0  0  0  0  0  0  0  0
  -27.2530  -28.5860   20.7400 C   0  0  0  0  0  3  0  0  0  0  0  0
  -26.0900  -26.8370   19.5350 C   0  0  0  0  0  3  0  0  0  0  0  0
  -24.9220  -27.6280   19.5200 C   0  0  0  0  0  3  0  0  0  0  0  0
  -23.6680  -29.7670   20.1670 C   0  0  0  0  0  2  0  0  0  0  0  0
  -24.7030  -31.0340   22.1010 N   0  0  0  0  0  0  0  0  0  0  0  0
  -23.5400  -32.1160   23.7260 O   0  0  0  0  0  0  0  0  0  0  0  0
  -22.7700  -29.4270   22.4990 C   0  0  0  0  0  0  0  0  0  0  0  0
  -21.4410  -29.2710   22.3800 N   0  0  0  0  0  0  0  0  0  0  0  0
  -23.4450  -28.7810   23.3060 O   0  0  0  0  0  0  0  0  0  0  0  0
  -20.9570  -29.8420   21.7020 H   0  0  0  0  0  0  0  0  0  0  0  0
  -18.0480  -28.1310   22.9030 C   0  0  0  0  0  0  0  0  0  0  0  0
  -20.6140  -28.3350   23.1440 C   0  0  0  0  0  3  0  0  0  0  0  0
  -20.6800  -26.9130   22.5410 C   0  0  0  0  0  2  0  0  0  0  0  0
  -19.5590  -26.6310   21.5350 C   0  0  0  0  0  2  0  0  0  0  0  0
  -18.1890  -26.7920   22.1990 C   0  0  0  0  0  2  0  0  0  0  0  0
  -19.1870  -28.8640   23.3320 C   0  0  0  0  0  0  0  0  0  0  0  0
  -19.0000  -30.1190   23.9490 C   0  0  0  0  0  3  0  0  0  0  0  0
  -17.7070  -30.6420   24.1420 C   0  0  0  0  0  3  0  0  0  0  0  0
  -16.5830  -29.9060   23.7290 C   0  0  0  0  0  3  0  0  0  0  0  0
  -16.7540  -28.6530   23.1150 C   0  0  0  0  0  3  0  0  0  0  0  0
  -25.9040  -32.4750   23.8370 C   0  0  0  0  0  3  0  0  0  0  0  0
  -25.5820  -33.8650   24.1900 N   0  0  0  0  0  0  0  0  0  0  0  0
  -25.8940  -34.9330   23.4430 C   0  0  0  0  0  0  0  0  0  0  0  0
  -26.5530  -34.8520   22.4030 O   0  0  0  0  0  0  0  0  0  0  0  0
  -24.9940  -34.0000   24.9990 H   0  0  0  0  0  0  0  0  0  0  0  0
  -24.1380  -36.7090   23.1430 C   0  0  0  0  0  1  0  0  0  0  0  0
  -25.3990  -36.3090   23.9270 C   0  0  0  0  0  3  0  0  0  0  0  0
  -27.5340  -37.2130   24.7340 C   0  0  0  0  0  1  0  0  0  0  0  0
  -26.4150  -37.3770   23.8090 N   0  0  0  0  0  0  0  0  0  0  0  0
  -26.0000  -38.2910   23.9720 H   0  0  0  0  0  0  0  0  0  0  0  0
  -26.4220  -31.6890   25.1040 C   0  0  1  0  0  0  0  0  0  0  0  0
  -25.3270  -31.4270   26.1650 C   0  0  0  0  0  1  0  0  0  0  0  0
  -27.0170  -30.3200   24.6940 C   0  0  0  0  0  1  0  0  0  0  0  0
  -27.5650  -32.4820   25.7820 C   0  0  0  0  0  1  0  0  0  0  0  0
  2  1  1  0
  2 48  1  0
  2 16  1  0
  3 15  1  0
  4  9  1  0
  5  6  1  0
  5  4  1  0
  7  6  1  0
  7 23  1  0
  7  8  1  0
  9  3  1  0
  9  8  1  0
 10  3  2  0
 11 15  1  0
 11 17  1  0
 12 16  1  0
 12 17  1  0
 13 11  2  0
 14 13  1  0
 14 12  2  0
 15 18  1  0
 16 19  1  0
 20 21  2  0
 21 40  1  0
 22 21  1  0
 22 25  1  0
 23 24  1  0
 23 20  1  0
 24 22  2  0
 25 26  1  0
 26 27  2  0
 28 31  1  0
 28 27  1  0
 29 28  2  0
 30 29  1  0
 30 25  2  0
 31 32  1  0
 32 33  1  0
 33 34  2  0
 35 34  1  0
 35 39  1  0
 36 35  2  0
 37 32  2  0
 37 36  1  0
 38 37  1  0
 40 41  1  0
 41 44  1  0
 41 43  1  0
 42 40  2  0
 45 20  1  0
 45 46  1  0
 47 45  1  0
 49 50  1  0
 49 48  2  0
 51 62  2  0
 52 50  1  0
 52 57  1  0
 53 61  1  0
 53 63  1  0
 54 60  1  0
 54 56  1  0
 55 61  1  0
 56 57  2  0
 56 55  1  0
 58 52  2  0
 59 58  1  0
 59 54  2  0
 60 53  1  0
 61 51  1  0
 63 65  2  0
 64 63  1  0
 66 64  1  0
 67 76  2  0
 67 72  1  0
 68 64  1  0
 68 72  1  0
 69 68  1  0
 70 71  1  0
 70 69  1  0
 71 67  1  0
 72 73  2  0
 73 74  1  0
 75 74  2  0
 76 75  1  0
 77 51  1  0
 77 78  1  0
 77 87  1  0
 78 81  1  0
 79 83  1  0
 79 78  1  0
 80 79  2  0
 83 82  1  0
 85 83  1  0
 85 86  1  0
 85 84  1  0
 87 90  1  1
 87 88  1  0
 89 87  1  0
M  ISO  4   3 100  15 100  49 101  50 101
M  END
>  <TORSDO>  (18) 
F 18

>  <SCORE>  (18) 
-13.800

>  <name>  (18) 
17

>  <ligand_id>  (18) 
17

>  <original_smiles>  (18) 
[H]c1c([H])c([H])c2c(c1[H])C([H])([H])C([H])([H])C([H])([H])C2([H])N([H])C(=O)C1([H])N(C(=O)C([H])(N([H])C(=O)C([H])(N([H])C([H])([H])[H])C([H])([H])[H])C(C([H])([H])[H])(C([H])([H])[H])C([H])([H])[H])C([H])([H])c2c([H])c(OC([H])([H])C([H])([H])C([H])(N([H])c3nnc(N([H])C(=O)N4C([H])([H])C([H])([H])C([H])([H])C([H])(n5nc(-c6c([H])c([H])c(Oc7c([H])c([H])c(F)c([H])c7F)c([H])c6[H])c(C(=O)N([H])[H])c5N([H])[H])C4([H])[H])s3)C([H])([H])[H])c([H])c([H])c2C1([H])[H]

>  <smiles>  (18) 
[H]c1c([H])c([H])c2c(c1[H])C([H])([H])C([H])([H])C([H])([H])C2([H])N([H])C(=O)C1([H])N(C(=O)C([H])(N([H])C(=O)C([H])(N([H])C([H])([H])[H])C([H])([H])[H])C(C([H])([H])[H])(C([H])([H])[H])C([H])([H])[H])C([H])([H])c2c([H])c(OC([H])([H])C([H])([H])C([H])(N([H])c3nnc(N([H])C(=O)N4C([H])([H])C([H])([H])C([H])([H])C([H])(n5nc(-c6c([H])c([H])c(Oc7c([H])c([H])c(F)c([H])c7F)c([H])c6[H])c(C(=O)N([H])[H])c5N([H])[H])C4([H])[H])s3)C([H])([H])[H])c([H])c([H])c2C1([H])[H]

$$$$
18:0:0
     RDKit          3D

 91 99  0  0  1  0  0  0  0  0999 V2000
  -29.0990  -22.4770   20.8560 C   0  0  0  0  0  2  0  0  0  0  0  0
  -30.7890  -17.9770   20.9760 C   0  0  0  0  0  3  0  0  0  0  0  0
  -29.7480  -17.1620   20.5640 C   0  0  0  0  0  0  0  0  0  0  0  0
  -29.3690  -19.7510   20.4250 C   0  0  0  0  0  0  0  0  0  0  0  0
  -30.5550  -19.3870   20.9380 N   0  0  0  0  0  0  0  0  0  0  0  0
  -28.8860  -21.1030   20.2510 N   0  0  0  0  0  0  0  0  0  0  0  0
  -28.4360  -18.2610   20.0320 S   0  0  0  0  0  0  0  0  0  0  0  0
  -28.0760  -21.1060   19.6390 H   0  0  0  0  0  0  0  0  0  0  0  0
  -30.5030  -14.7250   20.3760 C   0  0  0  0  0  0  0  0  0  0  0  0
  -30.3730  -12.4640   19.3230 C   0  0  0  0  0  2  0  0  0  0  0  0
  -29.4180  -12.5580   18.1100 C   0  0  0  0  0  2  0  0  0  0  0  0
  -27.9460  -12.3840   18.5440 C   0  0  0  0  0  2  0  0  0  0  0  0
  -27.5810  -13.2550   19.7750 C   0  0  0  0  0  3  0  0  0  0  0  0
  -28.6400  -13.1040   20.8870 C   0  0  0  0  0  2  0  0  0  0  0  0
  -29.9380  -13.4760   20.3070 N   0  0  0  0  0  0  0  0  0  0  0  0
  -31.6810  -14.9080   20.0440 O   0  0  0  0  0  0  0  0  0  0  0  0
  -29.6200  -15.7660   20.6040 N   0  0  0  0  0  0  0  0  0  0  0  0
  -28.6770  -15.4360   20.7520 H   0  0  0  0  0  0  0  0  0  0  0  0
  -25.1940  -13.8580   20.5020 C   0  0  0  0  0  0  0  0  0  0  0  0
  -24.1310  -13.0860   20.8810 C   0  0  0  0  0  0  0  0  0  0  0  0
  -24.5940  -11.7360   20.8530 C   0  0  0  0  0  0  0  0  0  0  0  0
  -26.2360  -12.9760   20.2630 N   0  0  0  0  0  0  0  0  0  0  0  0
  -25.8810  -11.6960   20.5360 N   0  0  0  0  0  0  0  0  0  0  0  0
  -23.8720  -10.4740   21.0490 C   0  0  0  0  0  0  0  0  0  0  0  0
  -24.3210   -9.5020   21.9690 C   0  0  0  0  0  3  0  0  0  0  0  0
  -23.5990   -8.3040   22.1540 C   0  0  0  0  0  3  0  0  0  0  0  0
  -22.4130   -8.0690   21.4170 C   0  0  0  0  0  0  0  0  0  0  0  0
  -21.9850   -9.0290   20.4840 C   0  0  0  0  0  3  0  0  0  0  0  0
  -22.7070  -10.2190   20.2980 C   0  0  0  0  0  3  0  0  0  0  0  0
  -21.6590   -6.9250   21.5110 O   0  0  0  0  0  0  0  0  0  0  0  0
  -21.6410   -6.1680   22.6560 C   0  0  0  0  0  0  0  0  0  0  0  0
  -21.2630   -6.7120   23.9030 C   0  0  0  0  0  3  0  0  0  0  0  0
  -21.1890   -5.8820   25.0390 C   0  0  0  0  0  3  0  0  0  0  0  0
  -21.4870   -4.5100   24.9310 C   0  0  0  0  0  0  0  0  0  0  0  0
  -21.8590   -3.9660   23.6890 C   0  0  0  0  0  3  0  0  0  0  0  0
  -21.9350   -4.7940   22.5550 C   0  0  0  0  0  0  0  0  0  0  0  0
  -22.2730   -4.2620   21.3550 F   0  0  0  0  0  0  0  0  0  0  0  0
  -21.4110   -3.7090   26.0190 F   0  0  0  0  0  0  0  0  0  0  0  0
  -22.7350  -13.5620   21.1620 C   0  0  0  0  0  0  0  0  0  0  0  0
  -22.0110  -12.8670   22.0310 N   0  0  0  0  0  0  0  0  0  0  0  0
  -22.2940  -14.5850   20.6400 O   0  0  0  0  0  0  0  0  0  0  0  0
  -22.3770  -12.0360   22.4720 H   0  0  0  0  0  0  0  0  0  0  0  0
  -21.0760  -13.1740   22.2640 H   0  0  0  0  0  0  0  0  0  0  0  0
  -25.3580  -15.2290   20.3220 N   0  0  0  0  0  0  0  0  0  0  0  0
  -24.5870  -15.8820   20.4250 H   0  0  0  0  0  0  0  0  0  0  0  0
  -26.1960  -15.6690   19.9620 H   0  0  0  0  0  0  0  0  0  0  0  0
  -28.6770  -23.8160   20.0350 C   0  0  0  0  0  3  0  0  0  0  0  0
  -29.7170  -23.9790   19.0790 O   0  0  0  0  0  0  0  0  0  0  0  0
  -29.5540  -24.7940   18.6060 H   0  0  0  0  0  0  0  0  0  0  0  0
  -28.5700  -25.2220   20.8290 C   0  0  0  0  0  2  0  0  0  0  0  0
  -28.4220  -26.5260   20.1190 O   0  0  0  0  0  0  0  0  0  0  0  0
  -24.6080  -31.8770   23.2330 C   0  0  0  0  0  0  0  0  0  0  0  0
  -27.2600  -27.3140   20.2010 C   0  0  0  0  0  0  0  0  0  0  0  0
  -23.4120  -30.4680   21.5930 C   0  0  0  0  0  3  0  0  0  0  0  0
  -24.8730  -28.9010   20.1860 C   0  0  0  0  0  0  0  0  0  0  0  0
  -25.9480  -30.7930   21.4090 C   0  0  0  0  0  2  0  0  0  0  0  0
  -26.0360  -29.4070   20.7790 C   0  0  0  0  0  0  0  0  0  0  0  0
  -27.2340  -28.6270   20.7720 C   0  0  0  0  0  3  0  0  0  0  0  0
  -26.0750  -26.8550   19.5920 C   0  0  0  0  0  3  0  0  0  0  0  0
  -24.8930  -27.6300   19.5830 C   0  0  0  0  0  3  0  0  0  0  0  0
  -23.6320  -29.7770   20.2200 C   0  0  0  0  0  2  0  0  0  0  0  0
  -24.6760  -31.0650   22.1360 N   0  0  0  0  0  0  0  0  0  0  0  0
  -23.5240  -32.1530   23.7620 O   0  0  0  0  0  0  0  0  0  0  0  0
  -22.7470  -29.4610   22.5610 C   0  0  0  0  0  0  0  0  0  0  0  0
  -21.4190  -29.2850   22.4350 N   0  0  0  0  0  0  0  0  0  0  0  0
  -23.4250  -28.8340   23.3800 O   0  0  0  0  0  0  0  0  0  0  0  0
  -20.9280  -29.8380   21.7440 H   0  0  0  0  0  0  0  0  0  0  0  0
  -18.0470  -28.0890   22.9510 C   0  0  0  0  0  0  0  0  0  0  0  0
  -20.6040  -28.3510   23.2120 C   0  0  0  0  0  3  0  0  0  0  0  0
  -20.7070  -26.9200   22.6380 C   0  0  0  0  0  2  0  0  0  0  0  0
  -19.6020  -26.5950   21.6280 C   0  0  0  0  0  2  0  0  0  0  0  0
  -18.2210  -26.7420   22.2720 C   0  0  0  0  0  2  0  0  0  0  0  0
  -19.1670  -28.8520   23.3760 C   0  0  0  0  0  0  0  0  0  0  0  0
  -18.9480  -30.1140   23.9690 C   0  0  0  0  0  3  0  0  0  0  0  0
  -17.6430  -30.6130   24.1420 C   0  0  0  0  0  3  0  0  0  0  0  0
  -16.5380  -29.8500   23.7250 C   0  0  0  0  0  3  0  0  0  0  0  0
  -16.7400  -28.5890   23.1350 C   0  0  0  0  0  3  0  0  0  0  0  0
  -25.8880  -32.5130   23.8560 C   0  0  0  0  0  3  0  0  0  0  0  0
  -26.4020  -31.7460   25.1390 C   0  0  1  0  0  0  0  0  0  0  0  0
  -25.3080  -31.5240   26.2050 C   0  0  0  0  0  1  0  0  0  0  0  0
  -26.9790  -30.3630   24.7560 C   0  0  0  0  0  1  0  0  0  0  0  0
  -27.5550  -32.5420   25.7970 C   0  0  0  0  0  1  0  0  0  0  0  0
  -25.5750  -33.9130   24.1820 N   0  0  0  0  0  0  0  0  0  0  0  0
  -25.9100  -34.9640   23.4220 C   0  0  0  0  0  0  0  0  0  0  0  0
  -26.5820  -34.8600   22.3920 O   0  0  0  0  0  0  0  0  0  0  0  0
  -24.9780  -34.0700   24.9810 H   0  0  0  0  0  0  0  0  0  0  0  0
  -24.1790  -36.7540   23.0640 C   0  0  0  0  0  1  0  0  0  0  0  0
  -25.4220  -36.3540   23.8750 C   0  0  0  0  0  3  0  0  0  0  0  0
  -27.5600  -37.2420   24.6980 C   0  0  0  0  0  1  0  0  0  0  0  0
  -26.4560  -37.4080   23.7580 N   0  0  0  0  0  0  0  0  0  0  0  0
  -26.0470  -38.3270   23.9050 H   0  0  0  0  0  0  0  0  0  0  0  0
  3 17  1  0
  3  2  2  0
  4  5  2  0
  5  2  1  0
  6  4  1  0
  6  1  1  0
  7  4  1  0
  7  3  1  0
  8  6  1  0
  9 17  1  0
 10 15  1  0
 11 12  1  0
 11 10  1  0
 13 12  1  0
 13 22  1  0
 13 14  1  0
 15  9  1  0
 15 14  1  0
 16  9  2  0
 17 18  1  0
 19 20  2  0
 20 39  1  0
 21 20  1  0
 21 24  1  0
 22 19  1  0
 22 23  1  0
 23 21  2  0
 24 25  1  0
 25 26  2  0
 27 30  1  0
 27 26  1  0
 28 27  2  0
 29 28  1  0
 29 24  2  0
 30 31  1  0
 31 32  1  0
 32 33  2  0
 34 33  1  0
 34 38  1  0
 35 34  2  0
 36 31  2  0
 36 35  1  0
 37 36  1  0
 39 40  1  0
 40 43  1  0
 40 42  1  0
 41 39  2  0
 44 45  1  0
 44 19  1  0
 46 44  1  0
 47 50  1  0
 47  1  1  0
 48 47  1  0
 49 48  1  0
 51 53  1  0
 51 50  1  0
 52 63  2  0
 53 58  1  0
 54 62  1  0
 54 64  1  0
 55 61  1  0
 55 57  1  0
 56 62  1  0
 57 56  1  0
 58 57  2  0
 59 53  2  0
 60 59  1  0
 60 55  2  0
 61 54  1  0
 62 52  1  0
 64 66  2  0
 65 64  1  0
 67 65  1  0
 68 77  2  0
 68 73  1  0
 69 65  1  0
 69 73  1  0
 70 69  1  0
 71 72  1  0
 71 70  1  0
 72 68  1  0
 73 74  2  0
 74 75  1  0
 76 75  2  0
 77 76  1  0
 78 52  1  0
 78 83  1  0
 78 79  1  0
 79 82  1  1
 79 80  1  0
 81 79  1  0
 83 86  1  0
 84 88  1  0
 84 83  1  0
 85 84  2  0
 88 87  1  0
 90 88  1  0
 90 91  1  0
 90 89  1  0
M  ISO  4   9 100  17 100  50 101  51 101
M  END
>  <TORSDO>  (19) 
F 20

>  <SCORE>  (19) 
-14.117

>  <name>  (19) 
18

>  <ligand_id>  (19) 
18

>  <original_smiles>  (19) 
[H]OC([H])(C([H])([H])Oc1c([H])c([H])c2c(c1[H])C([H])([H])N(C(=O)C([H])(N([H])C(=O)C([H])(N([H])C([H])([H])[H])C([H])([H])[H])C(C([H])([H])[H])(C([H])([H])[H])C([H])([H])[H])C([H])(C(=O)N([H])C1([H])c3c([H])c([H])c([H])c([H])c3C([H])([H])C([H])([H])C1([H])[H])C2([H])[H])C([H])([H])N([H])c1nc([H])c(N([H])C(=O)N2C([H])([H])C([H])([H])C([H])([H])C([H])(n3nc(-c4c([H])c([H])c(Oc5c([H])c([H])c(F)c([H])c5F)c([H])c4[H])c(C(=O)N([H])[H])c3N([H])[H])C2([H])[H])s1

>  <smiles>  (19) 
[H]OC([H])(C([H])([H])Oc1c([H])c([H])c2c(c1[H])C([H])([H])N(C(=O)C([H])(N([H])C(=O)C([H])(N([H])C([H])([H])[H])C([H])([H])[H])C(C([H])([H])[H])(C([H])([H])[H])C([H])([H])[H])C([H])(C(=O)N([H])C1([H])c3c([H])c([H])c([H])c([H])c3C([H])([H])C([H])([H])C1([H])[H])C2([H])[H])C([H])([H])N([H])c1nc([H])c(N([H])C(=O)N2C([H])([H])C([H])([H])C([H])([H])C([H])(n3nc(-c4c([H])c([H])c(Oc5c([H])c([H])c(F)c([H])c5F)c([H])c4[H])c(C(=O)N([H])[H])c3N([H])[H])C2([H])[H])s1

$$$$
19:0:0
     RDKit          3D

 98106  0  0  1  0  0  0  0  0999 V2000
  -29.2970  -20.8210   20.9270 C   0  0  0  0  0  0  0  0  0  0  0  0
  -28.2400  -20.8960   21.7550 N   0  0  0  0  0  4  0  0  0  0  0  0
  -29.6530  -21.9220   20.2180 N   0  0  0  0  0  0  0  0  0  0  0  0
  -27.9540  -20.0830   22.2770 H   0  0  0  0  0  0  0  0  0  0  0  0
  -27.7430  -21.7520   21.9380 H   0  0  0  0  0  0  0  0  0  0  0  0
  -30.4480  -21.8640   19.5940 H   0  0  0  0  0  0  0  0  0  0  0  0
  -31.0080  -14.7440   20.0580 C   0  0  0  0  0  0  0  0  0  0  0  0
  -30.6660  -12.5750   18.9170 C   0  0  0  0  0  2  0  0  0  0  0  0
  -29.6590  -12.7600   17.7620 C   0  0  0  0  0  2  0  0  0  0  0  0
  -28.2060  -12.6320   18.2640 C   0  0  0  0  0  2  0  0  0  0  0  0
  -27.9350  -13.4840   19.5300 C   0  0  0  0  0  3  0  0  0  0  0  0
  -29.0400  -13.2490   20.5860 C   0  0  0  0  0  2  0  0  0  0  0  0
  -30.3430  -13.5590   19.9620 N   0  0  0  0  0  0  0  0  0  0  0  0
  -32.0790  -14.9580   19.4780 O   0  0  0  0  0  0  0  0  0  0  0  0
  -29.9810  -19.5360   20.8000 C   0  0  0  0  0  0  0  0  0  0  0  0
  -31.3120  -19.2020   20.6100 C   0  0  0  0  0  0  0  0  0  0  0  0
  -30.4270  -17.0970   20.7030 C   0  0  0  0  0  0  0  0  0  0  0  0
  -31.5470  -17.8170   20.5410 N   0  0  0  0  0  0  0  0  0  0  0  0
  -30.3530  -15.6780   20.7690 N   0  0  0  0  0  0  0  0  0  0  0  0
  -28.9970  -18.0870   20.9240 S   0  0  0  0  0  0  0  0  0  0  0  0
  -29.5050  -15.3250   21.1840 H   0  0  0  0  0  0  0  0  0  0  0  0
  -25.5910  -14.1260   20.3840 C   0  0  0  0  0  0  0  0  0  0  0  0
  -24.5260  -13.3670   20.7910 C   0  0  0  0  0  0  0  0  0  0  0  0
  -24.9530  -12.0070   20.6960 C   0  0  0  0  0  0  0  0  0  0  0  0
  -26.6020  -13.2280   20.0730 N   0  0  0  0  0  0  0  0  0  0  0  0
  -26.2230  -11.9480   20.3150 N   0  0  0  0  0  0  0  0  0  0  0  0
  -24.2100  -10.7560   20.8910 C   0  0  0  0  0  0  0  0  0  0  0  0
  -24.6230   -9.7920   21.8370 C   0  0  0  0  0  3  0  0  0  0  0  0
  -23.8820   -8.6040   22.0180 C   0  0  0  0  0  3  0  0  0  0  0  0
  -22.7150   -8.3720   21.2530 C   0  0  0  0  0  0  0  0  0  0  0  0
  -22.3230   -9.3240   20.2940 C   0  0  0  0  0  3  0  0  0  0  0  0
  -23.0630  -10.5030   20.1120 C   0  0  0  0  0  3  0  0  0  0  0  0
  -21.9480   -7.2350   21.3420 O   0  0  0  0  0  0  0  0  0  0  0  0
  -21.8000   -6.5580   22.5260 C   0  0  0  0  0  0  0  0  0  0  0  0
  -21.2290   -7.1650   23.6660 C   0  0  0  0  0  3  0  0  0  0  0  0
  -21.0330   -6.4120   24.8400 C   0  0  0  0  0  3  0  0  0  0  0  0
  -21.3970   -5.0530   24.8740 C   0  0  0  0  0  0  0  0  0  0  0  0
  -21.9600   -4.4450   23.7390 C   0  0  0  0  0  3  0  0  0  0  0  0
  -22.1580   -5.1950   22.5660 C   0  0  0  0  0  0  0  0  0  0  0  0
  -22.6820   -4.6000   21.4680 F   0  0  0  0  0  0  0  0  0  0  0  0
  -21.2020   -4.3260   26.0000 F   0  0  0  0  0  0  0  0  0  0  0  0
  -23.1580  -13.8650   21.1550 C   0  0  0  0  0  0  0  0  0  0  0  0
  -22.4690  -13.1640   22.0480 N   0  0  0  0  0  0  0  0  0  0  0  0
  -22.7110  -14.9110   20.6850 O   0  0  0  0  0  0  0  0  0  0  0  0
  -22.8450  -12.3180   22.4490 H   0  0  0  0  0  0  0  0  0  0  0  0
  -21.5520  -13.4780   22.3360 H   0  0  0  0  0  0  0  0  0  0  0  0
  -25.7780  -15.4970   20.2340 N   0  0  0  0  0  0  0  0  0  0  0  0
  -25.0290  -16.1630   20.3890 H   0  0  0  0  0  0  0  0  0  0  0  0
  -26.6070  -15.9210   19.8370 H   0  0  0  0  0  0  0  0  0  0  0  0
  -32.3950  -20.0760   20.4940 N   0  0  0  0  0  0  0  0  0  0  0  0
  -32.3170  -21.0100   20.8780 H   0  0  0  0  0  0  0  0  0  0  0  0
  -33.3250  -19.6840   20.6020 H   0  0  0  0  0  0  0  0  0  0  0  0
  -28.7990  -23.1140   20.0110 C   0  0  0  0  0  2  0  0  0  0  0  0
  -29.5250  -24.4850   19.9290 C   0  0  0  0  0  3  0  0  0  0  0  0
  -30.5810  -24.3880   18.9840 O   0  0  0  0  0  0  0  0  0  0  0  0
  -30.9800  -25.2530   18.9250 H   0  0  0  0  0  0  0  0  0  0  0  0
  -28.4890  -25.5340   19.4360 C   0  0  0  0  0  2  0  0  0  0  0  0
  -28.6210  -26.9140   19.8490 O   0  0  0  0  0  0  0  0  0  0  0  0
  -24.5840  -31.7660   23.1980 C   0  0  0  0  0  0  0  0  0  0  0  0
  -27.4370  -27.6460   19.8410 C   0  0  0  0  0  0  0  0  0  0  0  0
  -23.4520  -30.4280   21.4600 C   0  0  0  0  0  3  0  0  0  0  0  0
  -24.9790  -29.0690   19.9410 C   0  0  0  0  0  0  0  0  0  0  0  0
  -25.9660  -30.9040   21.3110 C   0  0  0  0  0  2  0  0  0  0  0  0
  -26.1150  -29.5860   20.5770 C   0  0  0  0  0  0  0  0  0  0  0  0
  -27.3460  -28.8830   20.5270 C   0  0  0  0  0  3  0  0  0  0  0  0
  -26.2760  -27.1720   19.1760 C   0  0  0  0  0  3  0  0  0  0  0  0
  -25.0570  -27.8610   19.2370 C   0  0  0  0  0  3  0  0  0  0  0  0
  -23.6990  -29.8650   20.0360 C   0  0  0  0  0  2  0  0  0  0  0  0
  -24.6850  -31.0440   22.0480 N   0  0  0  0  0  0  0  0  0  0  0  0
  -23.4880  -31.9490   23.7470 O   0  0  0  0  0  0  0  0  0  0  0  0
  -22.8470  -29.3070   22.3390 C   0  0  0  0  0  0  0  0  0  0  0  0
  -21.5340  -29.0710   22.1900 N   0  0  0  0  0  0  0  0  0  0  0  0
  -23.5580  -28.6600   23.1130 O   0  0  0  0  0  0  0  0  0  0  0  0
  -21.0190  -29.6500   21.5410 H   0  0  0  0  0  0  0  0  0  0  0  0
  -18.2100  -27.7140   22.6040 C   0  0  0  0  0  0  0  0  0  0  0  0
  -20.7580  -28.0460   22.8890 C   0  0  0  0  0  3  0  0  0  0  0  0
  -20.9120  -26.6680   22.2050 C   0  0  0  0  0  2  0  0  0  0  0  0
  -19.8170  -26.3810   21.1730 C   0  0  0  0  0  2  0  0  0  0  0  0
  -18.4330  -26.4260   21.8290 C   0  0  0  0  0  2  0  0  0  0  0  0
  -19.3020  -28.4820   23.0890 C   0  0  0  0  0  0  0  0  0  0  0  0
  -19.0400  -29.6890   23.7710 C   0  0  0  0  0  3  0  0  0  0  0  0
  -17.7180  -30.1280   23.9770 C   0  0  0  0  0  3  0  0  0  0  0  0
  -16.6410  -29.3550   23.5120 C   0  0  0  0  0  3  0  0  0  0  0  0
  -16.8880  -28.1510   22.8290 C   0  0  0  0  0  3  0  0  0  0  0  0
  -25.8350  -32.4130   23.8670 C   0  0  0  0  0  3  0  0  0  0  0  0
  -25.4860  -33.7980   24.2060 N   0  0  0  0  0  0  0  0  0  0  0  0
  -25.7860  -34.8640   23.4520 C   0  0  0  0  0  0  0  0  0  0  0  0
  -26.4560  -34.7860   22.4180 O   0  0  0  0  0  0  0  0  0  0  0  0
  -24.8900  -33.9320   25.0110 H   0  0  0  0  0  0  0  0  0  0  0  0
  -23.9910  -36.5930   23.1270 C   0  0  0  0  0  1  0  0  0  0  0  0
  -25.2580  -36.2330   23.9180 C   0  0  0  0  0  3  0  0  0  0  0  0
  -27.3630  -37.2010   24.7310 C   0  0  0  0  0  1  0  0  0  0  0  0
  -26.2510  -37.3220   23.7900 N   0  0  0  0  0  0  0  0  0  0  0  0
  -25.8120  -38.2270   23.9330 H   0  0  0  0  0  0  0  0  0  0  0  0
  -26.3290  -31.6310   25.1460 C   0  0  1  0  0  0  0  0  0  0  0  0
  -25.2070  -31.3470   26.1710 C   0  0  0  0  0  1  0  0  0  0  0  0
  -26.9590  -30.2770   24.7470 C   0  0  0  0  0  1  0  0  0  0  0  0
  -27.4350  -32.4420   25.8600 C   0  0  0  0  0  1  0  0  0  0  0  0
  1  2  2  0
  2  5  1  0
  2  4  1  0
  3  1  1  0
  6  3  1  0
  7 19  1  0
  8 13  1  0
  9 10  1  0
  9  8  1  0
 11 10  1  0
 11 25  1  0
 11 12  1  0
 13  7  1  0
 13 12  1  0
 14  7  2  0
 15 20  1  0
 15  1  1  0
 16 15  2  0
 17 19  1  0
 17 20  1  0
 18 16  1  0
 18 17  2  0
 19 21  1  0
 22 23  2  0
 23 42  1  0
 24 23  1  0
 24 27  1  0
 25 26  1  0
 25 22  1  0
 26 24  2  0
 27 28  1  0
 28 29  2  0
 30 33  1  0
 30 29  1  0
 31 30  2  0
 32 31  1  0
 32 27  2  0
 33 34  1  0
 34 39  2  0
 34 35  1  0
 35 36  2  0
 36 37  1  0
 37 41  1  0
 38 37  2  0
 39 38  1  0
 40 39  1  0
 42 43  1  0
 43 46  1  0
 43 45  1  0
 44 42  2  0
 47 22  1  0
 47 48  1  0
 49 47  1  0
 50 52  1  0
 50 16  1  0
 50 51  1  0
 53  3  1  0
 54 57  1  0
 54 53  1  0
 55 54  1  0
 56 55  1  0
 57 58  1  0
 59 70  2  0
 60 58  1  0
 60 65  1  0
 61 69  1  0
 61 71  1  0
 62 68  1  0
 62 64  1  0
 63 69  1  0
 64 63  1  0
 65 64  2  0
 66 67  1  0
 66 60  2  0
 67 62  2  0
 68 61  1  0
 69 59  1  0
 71 73  2  0
 72 71  1  0
 74 72  1  0
 75 84  2  0
 75 80  1  0
 76 72  1  0
 76 80  1  0
 77 76  1  0
 78 79  1  0
 78 77  1  0
 79 75  1  0
 80 81  2  0
 81 82  1  0
 83 82  2  0
 84 83  1  0
 85 59  1  0
 85 86  1  0
 85 95  1  0
 86 89  1  0
 87 91  1  0
 87 86  1  0
 88 87  2  0
 91 90  1  0
 93 91  1  0
 93 94  1  0
 93 92  1  0
 95 98  1  1
 95 96  1  0
 97 95  1  0
M  ISO  4   7 100  19 100  57 101  58 101
M  END
>  <TORSDO>  (20) 
F 21

>  <SCORE>  (20) 
-13.020

>  <name>  (20) 
19

>  <ligand_id>  (20) 
19

>  <original_smiles>  (20) 
[H]OC([H])(C([H])([H])Oc1c([H])c([H])c2c(c1[H])C([H])([H])N(C(=O)C([H])(N([H])C(=O)C([H])(N([H])C([H])([H])[H])C([H])([H])[H])C(C([H])([H])[H])(C([H])([H])[H])C([H])([H])[H])C([H])(C(=O)N([H])C1([H])c3c([H])c([H])c([H])c([H])c3C([H])([H])C([H])([H])C1([H])[H])C2([H])[H])C([H])([H])[N+]([H])=C(c1sc(N([H])C(=O)N2C([H])([H])C([H])([H])C([H])([H])C([H])(n3nc(-c4c([H])c([H])c(Oc5c([H])c([H])c(F)c([H])c5F)c([H])c4[H])c(C(=O)N([H])[H])c3N([H])[H])C2([H])[H])nc1N([H])[H])N([H])[H]

>  <smiles>  (20) 
[H]OC([H])(C([H])([H])Oc1c([H])c([H])c2c(c1[H])C([H])([H])N(C(=O)C([H])(N([H])C(=O)C([H])(N([H])C([H])([H])[H])C([H])([H])[H])C(C([H])([H])[H])(C([H])([H])[H])C([H])([H])[H])C([H])(C(=O)N([H])C1([H])c3c([H])c([H])c([H])c([H])c3C([H])([H])C([H])([H])C1([H])[H])C2([H])[H])C([H])([H])[N+]([H])=C(c1sc(N([H])C(=O)N2C([H])([H])C([H])([H])C([H])([H])C([H])(n3nc(-c4c([H])c([H])c(Oc5c([H])c([H])c(F)c([H])c5F)c([H])c4[H])c(C(=O)N([H])[H])c3N([H])[H])C2([H])[H])nc1N([H])[H])N([H])[H]

$$$$
20:0:0
     RDKit          3D

 89 97  0  0  1  0  0  0  0  0999 V2000
  -28.9310  -23.1770   20.2730 C   0  0  0  0  0  3  0  0  0  0  0  0
  -29.9280  -23.2510   19.2650 O   0  0  0  0  0  0  0  0  0  0  0  0
  -30.6250  -22.6460   19.5020 H   0  0  0  0  0  0  0  0  0  0  0  0
  -28.3740  -21.5520   20.2370 C   0  0  0  0  0  2  0  0  0  0  0  0
  -28.6540  -18.7630   20.4480 C   0  0  0  0  0  3  0  0  0  0  0  0
  -29.6910  -17.7970   20.3440 C   0  0  0  0  0  0  0  0  0  0  0  0
  -30.8060  -18.6350   20.1230 N   0  0  0  0  0  0  0  0  0  0  0  0
  -30.4860  -19.9400   20.0850 N   0  0  0  0  0  0  0  0  0  0  0  0
  -29.1420  -20.1280   20.2930 N   0  0  0  0  0  0  0  0  0  0  0  0
  -30.4400  -15.0850   20.2750 C   0  0  0  0  0  0  0  0  0  0  0  0
  -30.3670  -12.7070   19.3480 C   0  0  0  0  0  2  0  0  0  0  0  0
  -29.4180  -12.6250   18.1270 C   0  0  0  0  0  2  0  0  0  0  0  0
  -27.9640  -12.3940   18.5780 C   0  0  0  0  0  2  0  0  0  0  0  0
  -27.5570  -13.3240   19.7500 C   0  0  0  0  0  3  0  0  0  0  0  0
  -28.6240  -13.3570   20.8650 C   0  0  0  0  0  2  0  0  0  0  0  0
  -29.8780  -13.8010   20.2410 N   0  0  0  0  0  0  0  0  0  0  0  0
  -31.6430  -15.1570   19.9880 O   0  0  0  0  0  0  0  0  0  0  0  0
  -29.6040  -16.2440   20.4410 N   0  0  0  0  0  0  0  0  0  0  0  0
  -28.6650  -15.9390   20.6430 H   0  0  0  0  0  0  0  0  0  0  0  0
  -25.1870  -13.8930   20.5270 C   0  0  0  0  0  0  0  0  0  0  0  0
  -24.1290  -13.1140   20.9020 C   0  0  0  0  0  0  0  0  0  0  0  0
  -24.5930  -11.7640   20.8520 C   0  0  0  0  0  0  0  0  0  0  0  0
  -26.2270  -13.0180   20.2630 N   0  0  0  0  0  0  0  0  0  0  0  0
  -25.8800  -11.7310   20.5260 N   0  0  0  0  0  0  0  0  0  0  0  0
  -23.8680  -10.5000   21.0370 C   0  0  0  0  0  0  0  0  0  0  0  0
  -24.2930   -9.5320   21.9730 C   0  0  0  0  0  3  0  0  0  0  0  0
  -23.5670   -8.3350   22.1460 C   0  0  0  0  0  3  0  0  0  0  0  0
  -22.4000   -8.0960   21.3820 C   0  0  0  0  0  0  0  0  0  0  0  0
  -21.9930   -9.0520   20.4340 C   0  0  0  0  0  3  0  0  0  0  0  0
  -22.7210  -10.2410   20.2590 C   0  0  0  0  0  3  0  0  0  0  0  0
  -21.6450   -6.9510   21.4630 O   0  0  0  0  0  0  0  0  0  0  0  0
  -21.5690   -6.2200   22.6220 C   0  0  0  0  0  0  0  0  0  0  0  0
  -21.0940   -6.7810   23.8280 C   0  0  0  0  0  3  0  0  0  0  0  0
  -20.9680   -5.9770   24.9780 C   0  0  0  0  0  3  0  0  0  0  0  0
  -21.3070   -4.6120   24.9230 C   0  0  0  0  0  0  0  0  0  0  0  0
  -21.7740   -4.0490   23.7220 C   0  0  0  0  0  3  0  0  0  0  0  0
  -21.9020   -4.8510   22.5740 C   0  0  0  0  0  0  0  0  0  0  0  0
  -22.3340   -4.3000   21.4140 F   0  0  0  0  0  0  0  0  0  0  0  0
  -21.1770   -3.8360   26.0250 F   0  0  0  0  0  0  0  0  0  0  0  0
  -22.7340  -13.5900   21.1910 C   0  0  0  0  0  0  0  0  0  0  0  0
  -22.0160  -12.8880   22.0600 N   0  0  0  0  0  0  0  0  0  0  0  0
  -22.2910  -14.6170   20.6800 O   0  0  0  0  0  0  0  0  0  0  0  0
  -22.3870  -12.0560   22.4940 H   0  0  0  0  0  0  0  0  0  0  0  0
  -21.0810  -13.1890   22.2980 H   0  0  0  0  0  0  0  0  0  0  0  0
  -25.3470  -15.2660   20.3560 N   0  0  0  0  0  0  0  0  0  0  0  0
  -24.5670  -15.9060   20.4590 H   0  0  0  0  0  0  0  0  0  0  0  0
  -26.1590  -15.6980   19.9380 H   0  0  0  0  0  0  0  0  0  0  0  0
  -27.9470  -24.5760   20.0370 C   0  0  0  0  0  2  0  0  0  0  0  0
  -28.2240  -26.1210   20.2580 O   0  0  0  0  0  0  0  0  0  0  0  0
  -24.6490  -31.9020   23.2430 C   0  0  0  0  0  0  0  0  0  0  0  0
  -27.1870  -27.1420   20.1930 C   0  0  0  0  0  0  0  0  0  0  0  0
  -23.4400  -30.5180   21.6020 C   0  0  0  0  0  3  0  0  0  0  0  0
  -24.8750  -28.9340   20.1680 C   0  0  0  0  0  0  0  0  0  0  0  0
  -25.9970  -30.7570   21.4360 C   0  0  0  0  0  2  0  0  0  0  0  0
  -26.0620  -29.3630   20.7770 C   0  0  0  0  0  0  0  0  0  0  0  0
  -27.2170  -28.4840   20.7690 C   0  0  0  0  0  3  0  0  0  0  0  0
  -25.9720  -26.8300   19.5420 C   0  0  0  0  0  3  0  0  0  0  0  0
  -24.8460  -27.6850   19.5340 C   0  0  0  0  0  3  0  0  0  0  0  0
  -23.6550  -29.8450   20.2210 C   0  0  0  0  0  2  0  0  0  0  0  0
  -24.7170  -31.0820   22.1490 N   0  0  0  0  0  0  0  0  0  0  0  0
  -23.5660  -32.1910   23.7740 O   0  0  0  0  0  0  0  0  0  0  0  0
  -22.7540  -29.5140   22.5630 C   0  0  0  0  0  0  0  0  0  0  0  0
  -21.4250  -29.3500   22.4390 N   0  0  0  0  0  0  0  0  0  0  0  0
  -23.4230  -28.8840   23.3880 O   0  0  0  0  0  0  0  0  0  0  0  0
  -20.9400  -29.9090   21.7500 H   0  0  0  0  0  0  0  0  0  0  0  0
  -18.0390  -28.1590   22.9440 C   0  0  0  0  0  0  0  0  0  0  0  0
  -20.6000  -28.4140   23.2090 C   0  0  0  0  0  3  0  0  0  0  0  0
  -20.6960  -26.9820   22.6330 C   0  0  0  0  0  2  0  0  0  0  0  0
  -19.5930  -26.6640   21.6190 C   0  0  0  0  0  2  0  0  0  0  0  0
  -18.2120  -26.8110   22.2650 C   0  0  0  0  0  2  0  0  0  0  0  0
  -19.1600  -28.9190   23.3730 C   0  0  0  0  0  0  0  0  0  0  0  0
  -18.9430  -30.1800   23.9710 C   0  0  0  0  0  3  0  0  0  0  0  0
  -17.6390  -30.6810   24.1420 C   0  0  0  0  0  3  0  0  0  0  0  0
  -16.5330  -29.9200   23.7270 C   0  0  0  0  0  3  0  0  0  0  0  0
  -16.7350  -28.6590   23.1340 C   0  0  0  0  0  3  0  0  0  0  0  0
  -25.9310  -32.5310   23.8690 C   0  0  0  0  0  3  0  0  0  0  0  0
  -26.4380  -31.7580   25.1500 C   0  0  1  0  0  0  0  0  0  0  0  0
  -25.3400  -31.5310   26.2160 C   0  0  0  0  0  1  0  0  0  0  0  0
  -27.0130  -30.3750   24.7670 C   0  0  0  0  0  1  0  0  0  0  0  0
  -27.5920  -32.5450   25.8140 C   0  0  0  0  0  1  0  0  0  0  0  0
  -25.6260  -33.9300   24.2060 N   0  0  0  0  0  0  0  0  0  0  0  0
  -25.9400  -34.9870   23.4450 C   0  0  0  0  0  0  0  0  0  0  0  0
  -26.5820  -34.8850   22.3960 O   0  0  0  0  0  0  0  0  0  0  0  0
  -25.0530  -34.0830   25.0240 H   0  0  0  0  0  0  0  0  0  0  0  0
  -24.1940  -36.7770   23.1590 C   0  0  0  0  0  1  0  0  0  0  0  0
  -25.4690  -36.3760   23.9190 C   0  0  0  0  0  3  0  0  0  0  0  0
  -27.6300  -37.2750   24.6630 C   0  0  0  0  0  1  0  0  0  0  0  0
  -26.4930  -37.4320   23.7610 N   0  0  0  0  0  0  0  0  0  0  0  0
  -26.0890  -38.3510   23.9180 H   0  0  0  0  0  0  0  0  0  0  0  0
  1 48  1  0
  2  3  1  0
  2  1  1  0
  4  1  1  0
  4  9  1  0
  6 18  1  0
  6  5  2  0
  7  6  1  0
  8  7  2  0
  8  9  1  0
  9  5  1  0
 10 18  1  0
 11 16  1  0
 12 13  1  0
 12 11  1  0
 14 13  1  0
 14 23  1  0
 14 15  1  0
 16 10  1  0
 16 15  1  0
 17 10  2  0
 18 19  1  0
 20 21  2  0
 21 40  1  0
 22 21  1  0
 22 25  1  0
 23 24  1  0
 23 20  1  0
 24 22  2  0
 25 26  1  0
 26 27  2  0
 28 31  1  0
 28 27  1  0
 29 28  2  0
 30 29  1  0
 30 25  2  0
 31 32  1  0
 32 33  1  0
 33 34  2  0
 35 34  1  0
 35 39  1  0
 36 35  2  0
 37 32  2  0
 37 36  1  0
 38 37  1  0
 40 41  1  0
 41 44  1  0
 41 43  1  0
 42 40  2  0
 45 46  1  0
 45 20  1  0
 47 45  1  0
 48 49  1  0
 50 61  2  0
 51 49  1  0
 51 56  1  0
 52 60  1  0
 52 62  1  0
 53 59  1  0
 53 55  1  0
 54 60  1  0
 55 54  1  0
 56 55  2  0
 57 51  2  0
 58 57  1  0
 58 53  2  0
 59 52  1  0
 60 50  1  0
 62 64  2  0
 63 62  1  0
 65 63  1  0
 66 75  2  0
 66 71  1  0
 67 63  1  0
 67 71  1  0
 68 67  1  0
 69 70  1  0
 69 68  1  0
 70 66  1  0
 71 72  2  0
 72 73  1  0
 74 73  2  0
 75 74  1  0
 76 50  1  0
 76 81  1  0
 76 77  1  0
 77 80  1  1
 77 78  1  0
 79 77  1  0
 81 84  1  0
 82 86  1  0
 82 81  1  0
 83 82  2  0
 86 85  1  0
 88 89  1  0
 88 86  1  0
 88 87  1  0
M  ISO  4  10 100  18 100  48 101  49 101
M  END
>  <TORSDO>  (21) 
F 20

>  <SCORE>  (21) 
-15.456

>  <name>  (21) 
20

>  <ligand_id>  (21) 
20

>  <original_smiles>  (21) 
[H]OC([H])(C([H])([H])Oc1c([H])c([H])c2c(c1[H])C([H])([H])N(C(=O)C([H])(N([H])C(=O)C([H])(N([H])C([H])([H])[H])C([H])([H])[H])C(C([H])([H])[H])(C([H])([H])[H])C([H])([H])[H])C([H])(C(=O)N([H])C1([H])c3c([H])c([H])c([H])c([H])c3C([H])([H])C([H])([H])C1([H])[H])C2([H])[H])C([H])([H])n1nnc(N([H])C(=O)N2C([H])([H])C([H])([H])C([H])([H])C([H])(n3nc(-c4c([H])c([H])c(Oc5c([H])c([H])c(F)c([H])c5F)c([H])c4[H])c(C(=O)N([H])[H])c3N([H])[H])C2([H])[H])c1[H]

>  <smiles>  (21) 
[H]OC([H])(C([H])([H])Oc1c([H])c([H])c2c(c1[H])C([H])([H])N(C(=O)C([H])(N([H])C(=O)C([H])(N([H])C([H])([H])[H])C([H])([H])[H])C(C([H])([H])[H])(C([H])([H])[H])C([H])([H])[H])C([H])(C(=O)N([H])C1([H])c3c([H])c([H])c([H])c([H])c3C([H])([H])C([H])([H])C1([H])[H])C2([H])[H])C([H])([H])n1nnc(N([H])C(=O)N2C([H])([H])C([H])([H])C([H])([H])C([H])(n3nc(-c4c([H])c([H])c(Oc5c([H])c([H])c(F)c([H])c5F)c([H])c4[H])c(C(=O)N([H])[H])c3N([H])[H])C2([H])[H])c1[H]

$$$$
21:0:0
     RDKit          3D

 94102  0  0  1  0  0  0  0  0999 V2000
  -29.2680  -22.4700   20.7350 C   0  0  0  0  0  3  0  0  0  0  0  0
  -29.1740  -18.0300   20.9200 C   0  0  0  0  0  3  0  0  0  0  0  0
  -31.0230  -19.2280   19.4070 C   0  0  0  0  0  3  0  0  0  0  0  0
  -30.1540  -17.2170   20.2700 C   0  0  0  0  0  0  0  0  0  0  0  0
  -30.0480  -20.0320   20.0700 C   0  0  0  0  0  0  0  0  0  0  0  0
  -31.0810  -17.8620   19.5040 N   0  0  0  0  0  0  0  0  0  0  0  0
  -29.1100  -19.3980   20.8270 N   0  0  0  0  0  0  0  0  0  0  0  0
  -30.0580  -21.4660   19.9490 N   0  0  0  0  0  0  0  0  0  0  0  0
  -30.8000  -21.8420   19.3670 H   0  0  0  0  0  0  0  0  0  0  0  0
  -30.8170  -14.7240   19.9990 C   0  0  0  0  0  0  0  0  0  0  0  0
  -30.5610  -12.4870   18.9440 C   0  0  0  0  0  2  0  0  0  0  0  0
  -29.5640  -12.6250   17.7710 C   0  0  0  0  0  2  0  0  0  0  0  0
  -28.1130  -12.4600   18.2620 C   0  0  0  0  0  2  0  0  0  0  0  0
  -27.8090  -13.3090   19.5240 C   0  0  0  0  0  3  0  0  0  0  0  0
  -28.9150  -13.1560   20.5910 C   0  0  0  0  0  2  0  0  0  0  0  0
  -30.1990  -13.5000   19.9570 N   0  0  0  0  0  0  0  0  0  0  0  0
  -31.9510  -14.8770   19.5370 O   0  0  0  0  0  0  0  0  0  0  0  0
  -30.0540  -15.7710   20.4480 N   0  0  0  0  0  0  0  0  0  0  0  0
  -29.1970  -15.4690   20.8830 H   0  0  0  0  0  0  0  0  0  0  0  0
  -25.4540  -13.8960   20.3690 C   0  0  0  0  0  0  0  0  0  0  0  0
  -24.4060  -13.1170   20.7750 C   0  0  0  0  0  0  0  0  0  0  0  0
  -24.8600  -11.7660   20.6900 C   0  0  0  0  0  0  0  0  0  0  0  0
  -26.4840  -13.0190   20.0650 N   0  0  0  0  0  0  0  0  0  0  0  0
  -26.1340  -11.7310   20.3160 N   0  0  0  0  0  0  0  0  0  0  0  0
  -24.1400  -10.5020   20.8870 C   0  0  0  0  0  0  0  0  0  0  0  0
  -24.5550   -9.5570   21.8510 C   0  0  0  0  0  3  0  0  0  0  0  0
  -23.8330   -8.3570   22.0370 C   0  0  0  0  0  3  0  0  0  0  0  0
  -22.6830   -8.0940   21.2550 C   0  0  0  0  0  0  0  0  0  0  0  0
  -22.2860   -9.0280   20.2800 C   0  0  0  0  0  3  0  0  0  0  0  0
  -23.0080  -10.2180   20.0940 C   0  0  0  0  0  3  0  0  0  0  0  0
  -21.9360   -6.9440   21.3460 O   0  0  0  0  0  0  0  0  0  0  0  0
  -21.7900   -6.2710   22.5320 C   0  0  0  0  0  0  0  0  0  0  0  0
  -21.2260   -6.8860   23.6710 C   0  0  0  0  0  3  0  0  0  0  0  0
  -21.0310   -6.1390   24.8510 C   0  0  0  0  0  3  0  0  0  0  0  0
  -21.3910   -4.7790   24.8900 C   0  0  0  0  0  0  0  0  0  0  0  0
  -21.9480   -4.1630   23.7550 C   0  0  0  0  0  3  0  0  0  0  0  0
  -22.1440   -4.9080   22.5780 C   0  0  0  0  0  0  0  0  0  0  0  0
  -22.6620   -4.3050   21.4810 F   0  0  0  0  0  0  0  0  0  0  0  0
  -21.1970   -4.0590   26.0200 F   0  0  0  0  0  0  0  0  0  0  0  0
  -23.0250  -13.5920   21.1270 C   0  0  0  0  0  0  0  0  0  0  0  0
  -22.3350  -12.8740   22.0060 N   0  0  0  0  0  0  0  0  0  0  0  0
  -22.5680  -14.6340   20.6570 O   0  0  0  0  0  0  0  0  0  0  0  0
  -22.7170  -12.0300   22.4050 H   0  0  0  0  0  0  0  0  0  0  0  0
  -21.4110  -13.1740   22.2860 H   0  0  0  0  0  0  0  0  0  0  0  0
  -25.6140  -15.2700   20.2110 N   0  0  0  0  0  0  0  0  0  0  0  0
  -24.8480  -15.9170   20.3620 H   0  0  0  0  0  0  0  0  0  0  0  0
  -26.4230  -15.7070   19.7890 H   0  0  0  0  0  0  0  0  0  0  0  0
  -30.5630  -23.3010   22.8870 C   0  0  0  0  0  1  0  0  0  0  0  0
  -28.3850  -22.0110   23.1650 C   0  0  0  0  0  1  0  0  0  0  0  0
  -29.6060  -22.2700   22.2640 C   0  0  0  0  0  3  0  0  0  0  0  0
  -29.4080  -23.9960   20.1820 C   0  0  0  0  0  2  0  0  0  0  0  0
  -27.4570  -24.9440   21.6130 C   0  0  0  0  0  1  0  0  0  0  0  0
  -28.2050  -25.0600   20.2760 C   0  0  0  0  0  3  0  0  0  0  0  0
  -28.4860  -26.5120   20.0340 O   0  0  0  0  0  0  0  0  0  0  0  0
  -24.7480  -31.7760   23.2520 C   0  0  0  0  0  0  0  0  0  0  0  0
  -27.3910  -27.3960   19.9750 C   0  0  0  0  0  0  0  0  0  0  0  0
  -23.5590  -30.4640   21.5310 C   0  0  0  0  0  3  0  0  0  0  0  0
  -25.0240  -29.0060   20.0290 C   0  0  0  0  0  0  0  0  0  0  0  0
  -26.1000  -30.8000   21.3840 C   0  0  0  0  0  2  0  0  0  0  0  0
  -26.1880  -29.4630   20.6600 C   0  0  0  0  0  0  0  0  0  0  0  0
  -27.3750  -28.6700   20.6230 C   0  0  0  0  0  3  0  0  0  0  0  0
  -26.2080  -27.0090   19.3040 C   0  0  0  0  0  3  0  0  0  0  0  0
  -25.0370  -27.7860   19.3410 C   0  0  0  0  0  3  0  0  0  0  0  0
  -23.7840  -29.8720   20.1160 C   0  0  0  0  0  2  0  0  0  0  0  0
  -24.8200  -31.0290   22.1110 N   0  0  0  0  0  0  0  0  0  0  0  0
  -23.6590  -32.0220   23.7920 O   0  0  0  0  0  0  0  0  0  0  0  0
  -22.8950  -29.3940   22.4300 C   0  0  0  0  0  0  0  0  0  0  0  0
  -21.5660  -29.2390   22.3020 N   0  0  0  0  0  0  0  0  0  0  0  0
  -23.5740  -28.7110   23.2020 O   0  0  0  0  0  0  0  0  0  0  0  0
  -21.0780  -29.8400   21.6530 H   0  0  0  0  0  0  0  0  0  0  0  0
  -18.1750  -28.0660   22.7660 C   0  0  0  0  0  0  0  0  0  0  0  0
  -20.7410  -28.2640   23.0190 C   0  0  0  0  0  3  0  0  0  0  0  0
  -20.8110  -26.8740   22.3460 C   0  0  0  0  0  2  0  0  0  0  0  0
  -19.6910  -26.6380   21.3280 C   0  0  0  0  0  2  0  0  0  0  0  0
  -18.3200  -26.7630   21.9990 C   0  0  0  0  0  2  0  0  0  0  0  0
  -19.3120  -28.7800   23.2310 C   0  0  0  0  0  0  0  0  0  0  0  0
  -19.1210  -30.0040   23.9090 C   0  0  0  0  0  3  0  0  0  0  0  0
  -17.8270  -30.5130   24.1260 C   0  0  0  0  0  3  0  0  0  0  0  0
  -16.7050  -29.7960   23.6750 C   0  0  0  0  0  3  0  0  0  0  0  0
  -16.8800  -28.5740   23.0030 C   0  0  0  0  0  3  0  0  0  0  0  0
  -26.0260  -32.3760   23.9150 C   0  0  0  0  0  3  0  0  0  0  0  0
  -26.5320  -31.5410   25.1550 C   0  0  1  0  0  0  0  0  0  0  0  0
  -25.4290  -31.2480   26.1980 C   0  0  0  0  0  1  0  0  0  0  0  0
  -27.1180  -30.1850   24.6960 C   0  0  0  0  0  1  0  0  0  0  0  0
  -27.6750  -32.3000   25.8690 C   0  0  0  0  0  1  0  0  0  0  0  0
  -25.7120  -33.7560   24.3150 N   0  0  0  0  0  0  0  0  0  0  0  0
  -26.0620  -34.8480   23.6250 C   0  0  0  0  0  0  0  0  0  0  0  0
  -26.7540  -34.8000   22.6040 O   0  0  0  0  0  0  0  0  0  0  0  0
  -25.1070  -33.8670   25.1160 H   0  0  0  0  0  0  0  0  0  0  0  0
  -24.3550  -36.6680   23.3240 C   0  0  0  0  0  1  0  0  0  0  0  0
  -25.5670  -36.2090   24.1490 C   0  0  0  0  0  3  0  0  0  0  0  0
  -27.6750  -37.0280   25.1050 C   0  0  0  0  0  1  0  0  0  0  0  0
  -26.6090  -37.2590   24.1350 N   0  0  0  0  0  0  0  0  0  0  0  0
  -26.2020  -38.1720   24.3230 H   0  0  0  0  0  0  0  0  0  0  0  0
  1 51  1  0
  1 50  1  0
  3  6  2  0
  3  5  1  0
  4 18  1  0
  4  2  2  0
  5  7  2  0
  6  4  1  0
  7  2  1  0
  8  5  1  0
  8  1  1  0
  9  8  1  0
 10 18  1  0
 11 16  1  0
 12 13  1  0
 12 11  1  0
 14 13  1  0
 14 23  1  0
 14 15  1  0
 16 10  1  0
 16 15  1  0
 17 10  2  0
 18 19  1  0
 20 21  2  0
 21 40  1  0
 22 21  1  0
 22 25  1  0
 23 24  1  0
 23 20  1  0
 24 22  2  0
 25 26  1  0
 26 27  2  0
 28 31  1  0
 28 27  1  0
 29 28  2  0
 30 29  1  0
 30 25  2  0
 31 32  1  0
 32 37  2  0
 32 33  1  0
 33 34  2  0
 34 35  1  0
 35 39  1  0
 36 35  2  0
 37 36  1  0
 38 37  1  0
 40 41  1  0
 41 44  1  0
 41 43  1  0
 42 40  2  0
 45 46  1  0
 45 20  1  0
 47 45  1  0
 50 48  1  0
 50 49  1  0
 51 53  1  0
 53 52  1  0
 54 53  1  0
 55 66  2  0
 56 54  1  0
 56 61  1  0
 57 65  1  0
 57 67  1  0
 58 64  1  0
 58 60  1  0
 59 65  1  0
 60 59  1  0
 61 60  2  0
 62 63  1  0
 62 56  2  0
 63 58  2  0
 64 57  1  0
 65 55  1  0
 67 69  2  0
 68 67  1  0
 70 68  1  0
 71 80  2  0
 71 76  1  0
 72 68  1  0
 72 76  1  0
 73 72  1  0
 74 75  1  0
 74 73  1  0
 75 71  1  0
 76 77  2  0
 77 78  1  0
 79 78  2  0
 80 79  1  0
 81 55  1  0
 81 86  1  0
 81 82  1  0
 82 85  1  1
 82 83  1  0
 84 82  1  0
 86 89  1  0
 87 91  1  0
 87 86  1  0
 88 87  2  0
 91 90  1  0
 93 91  1  0
 93 94  1  0
 93 92  1  0
M  ISO  4  10 100  18 100  53 101  54 101
M  END
>  <TORSDO>  (22) 
F 20

>  <SCORE>  (22) 
-11.749

>  <name>  (22) 
21

>  <ligand_id>  (22) 
21

>  <original_smiles>  (22) 
[H]c1nc(N([H])C([H])(C([H])([H])C([H])(Oc2c([H])c([H])c3c(c2[H])C([H])([H])N(C(=O)C([H])(N([H])C(=O)C([H])(N([H])C([H])([H])[H])C([H])([H])[H])C(C([H])([H])[H])(C([H])([H])[H])C([H])([H])[H])C([H])(C(=O)N([H])C2([H])c4c([H])c([H])c([H])c([H])c4C([H])([H])C([H])([H])C2([H])[H])C3([H])[H])C([H])([H])[H])C([H])(C([H])([H])[H])C([H])([H])[H])c([H])nc1N([H])C(=O)N1C([H])([H])C([H])([H])C([H])([H])C([H])(n2nc(-c3c([H])c([H])c(Oc4c([H])c([H])c(F)c([H])c4F)c([H])c3[H])c(C(=O)N([H])[H])c2N([H])[H])C1([H])[H]

>  <smiles>  (22) 
[H]c1nc(N([H])C([H])(C([H])([H])C([H])(Oc2c([H])c([H])c3c(c2[H])C([H])([H])N(C(=O)C([H])(N([H])C(=O)C([H])(N([H])C([H])([H])[H])C([H])([H])[H])C(C([H])([H])[H])(C([H])([H])[H])C([H])([H])[H])C([H])(C(=O)N([H])C2([H])c4c([H])c([H])c([H])c([H])c4C([H])([H])C([H])([H])C2([H])[H])C3([H])[H])C([H])([H])[H])C([H])(C([H])([H])[H])C([H])([H])[H])c([H])nc1N([H])C(=O)N1C([H])([H])C([H])([H])C([H])([H])C([H])(n2nc(-c3c([H])c([H])c(Oc4c([H])c([H])c(F)c([H])c4F)c([H])c3[H])c(C(=O)N([H])[H])c2N([H])[H])C1([H])[H]

$$$$
22:0:0
     RDKit          3D

 93101  0  0  1  0  0  0  0  0999 V2000
  -29.1460  -20.4340   19.9390 C   0  0  0  0  0  0  0  0  0  0  0  0
  -29.6600  -21.6200   20.1450 N   0  0  0  0  0  2  0  0  0  0  0  0
  -27.9900  -20.1660   19.2320 N   0  0  0  0  0  4  0  0  0  0  0  0
  -27.6550  -19.2180   19.1040 H   0  0  0  0  0  0  0  0  0  0  0  0
  -27.3410  -20.8430   18.8560 H   0  0  0  0  0  0  0  0  0  0  0  0
  -30.6630  -14.5410   20.4640 C   0  0  0  0  0  0  0  0  0  0  0  0
  -30.3880  -12.3450   19.3640 C   0  0  0  0  0  2  0  0  0  0  0  0
  -29.4610  -12.5380   18.1470 C   0  0  0  0  0  2  0  0  0  0  0  0
  -27.9800  -12.4000   18.5610 C   0  0  0  0  0  2  0  0  0  0  0  0
  -27.6260  -13.2410   19.8170 C   0  0  0  0  0  3  0  0  0  0  0  0
  -28.6780  -13.0510   20.9350 C   0  0  0  0  0  2  0  0  0  0  0  0
  -30.0010  -13.3530   20.3660 N   0  0  0  0  0  0  0  0  0  0  0  0
  -31.8320  -14.6680   20.0840 O   0  0  0  0  0  0  0  0  0  0  0  0
  -29.8050  -19.1510   20.4110 C   0  0  0  0  0  3  0  0  0  0  0  0
  -30.2280  -16.9970   20.7530 C   0  0  0  0  0  0  0  0  0  0  0  0
  -29.2980  -17.9060   20.3760 N   0  0  0  0  0  0  0  0  0  0  0  0
  -31.4400  -17.4570   21.1320 N   0  0  0  0  0  2  0  0  0  0  0  0
  -29.8910  -15.6070   20.7840 N   0  0  0  0  0  0  0  0  0  0  0  0
  -31.4560  -19.1520   20.9710 S   0  0  0  0  0  0  0  0  0  0  0  0
  -28.9150  -15.4030   20.9170 H   0  0  0  0  0  0  0  0  0  0  0  0
  -25.2250  -13.8420   20.5090 C   0  0  0  0  0  0  0  0  0  0  0  0
  -24.1590  -13.0670   20.8790 C   0  0  0  0  0  0  0  0  0  0  0  0
  -24.6250  -11.7160   20.8580 C   0  0  0  0  0  0  0  0  0  0  0  0
  -26.2750  -12.9620   20.2910 N   0  0  0  0  0  0  0  0  0  0  0  0
  -25.9180  -11.6780   20.5600 N   0  0  0  0  0  0  0  0  0  0  0  0
  -23.8990  -10.4550   21.0520 C   0  0  0  0  0  0  0  0  0  0  0  0
  -24.3360   -9.4870   21.9830 C   0  0  0  0  0  3  0  0  0  0  0  0
  -23.6120   -8.2890   22.1650 C   0  0  0  0  0  3  0  0  0  0  0  0
  -22.4350   -8.0510   21.4160 C   0  0  0  0  0  0  0  0  0  0  0  0
  -22.0150   -9.0080   20.4760 C   0  0  0  0  0  3  0  0  0  0  0  0
  -22.7410  -10.1980   20.2920 C   0  0  0  0  0  3  0  0  0  0  0  0
  -21.6830   -6.9050   21.5080 O   0  0  0  0  0  0  0  0  0  0  0  0
  -21.6520   -6.1530   22.6540 C   0  0  0  0  0  0  0  0  0  0  0  0
  -21.2490   -6.6980   23.8930 C   0  0  0  0  0  3  0  0  0  0  0  0
  -21.1640   -5.8720   25.0310 C   0  0  0  0  0  3  0  0  0  0  0  0
  -21.4720   -4.5030   24.9330 C   0  0  0  0  0  0  0  0  0  0  0  0
  -21.8680   -3.9570   23.6990 C   0  0  0  0  0  3  0  0  0  0  0  0
  -21.9560   -4.7800   22.5630 C   0  0  0  0  0  0  0  0  0  0  0  0
  -22.3160   -4.2440   21.3720 F   0  0  0  0  0  0  0  0  0  0  0  0
  -21.3850   -3.7070   26.0240 F   0  0  0  0  0  0  0  0  0  0  0  0
  -22.7580  -13.5420   21.1370 C   0  0  0  0  0  0  0  0  0  0  0  0
  -22.0260  -12.8500   22.0030 N   0  0  0  0  0  0  0  0  0  0  0  0
  -22.3200  -14.5620   20.6060 O   0  0  0  0  0  0  0  0  0  0  0  0
  -22.3930  -12.0250   22.4520 H   0  0  0  0  0  0  0  0  0  0  0  0
  -21.0870  -13.1510   22.2180 H   0  0  0  0  0  0  0  0  0  0  0  0
  -25.3820  -15.2120   20.3210 N   0  0  0  0  0  0  0  0  0  0  0  0
  -24.6010  -15.8530   20.4130 H   0  0  0  0  0  0  0  0  0  0  0  0
  -26.2220  -15.6570   19.9720 H   0  0  0  0  0  0  0  0  0  0  0  0
  -29.6520  -22.9150   18.0640 C   0  0  0  0  0  1  0  0  0  0  0  0
  -29.0560  -22.8010   19.4830 C   0  0  0  0  0  3  0  0  0  0  0  0
  -29.2590  -24.1600   20.2470 C   0  0  0  0  0  2  0  0  0  0  0  0
  -28.1800  -25.2120   19.8400 C   0  0  0  0  0  2  0  0  0  0  0  0
  -28.3350  -26.6010   20.2390 O   0  0  0  0  0  0  0  0  0  0  0  0
  -24.5810  -31.8960   23.2450 C   0  0  0  0  0  0  0  0  0  0  0  0
  -27.1900  -27.3950   20.1780 C   0  0  0  0  0  0  0  0  0  0  0  0
  -23.3700  -30.5050   21.6040 C   0  0  0  0  0  3  0  0  0  0  0  0
  -24.8140  -28.9640   20.1740 C   0  0  0  0  0  0  0  0  0  0  0  0
  -25.9040  -30.8300   21.4190 C   0  0  0  0  0  2  0  0  0  0  0  0
  -25.9780  -29.4580   20.7770 C   0  0  0  0  0  0  0  0  0  0  0  0
  -27.1650  -28.6800   20.7800 C   0  0  0  0  0  3  0  0  0  0  0  0
  -26.0040  -26.9470   19.5420 C   0  0  0  0  0  3  0  0  0  0  0  0
  -24.8250  -27.7080   19.5540 C   0  0  0  0  0  3  0  0  0  0  0  0
  -23.5780  -29.8330   20.2220 C   0  0  0  0  0  2  0  0  0  0  0  0
  -24.6360  -31.0910   22.1470 N   0  0  0  0  0  0  0  0  0  0  0  0
  -23.5010  -32.1770   23.7810 O   0  0  0  0  0  0  0  0  0  0  0  0
  -22.7090  -29.4840   22.5610 C   0  0  0  0  0  0  0  0  0  0  0  0
  -21.3850  -29.3070   22.4280 N   0  0  0  0  0  0  0  0  0  0  0  0
  -23.3860  -28.8570   23.3790 O   0  0  0  0  0  0  0  0  0  0  0  0
  -20.8980  -29.8620   21.7370 H   0  0  0  0  0  0  0  0  0  0  0  0
  -18.0030  -28.1280   22.9200 C   0  0  0  0  0  0  0  0  0  0  0  0
  -20.5610  -28.3740   23.1980 C   0  0  0  0  0  3  0  0  0  0  0  0
  -20.6600  -26.9420   22.6240 C   0  0  0  0  0  2  0  0  0  0  0  0
  -19.5590  -26.6230   21.6080 C   0  0  0  0  0  2  0  0  0  0  0  0
  -18.1770  -26.7760   22.2470 C   0  0  0  0  0  2  0  0  0  0  0  0
  -19.1250  -28.8850   23.3530 C   0  0  0  0  0  0  0  0  0  0  0  0
  -18.9110  -30.1490   23.9410 C   0  0  0  0  0  3  0  0  0  0  0  0
  -17.6090  -30.6590   24.1030 C   0  0  0  0  0  3  0  0  0  0  0  0
  -16.5020  -29.8990   23.6870 C   0  0  0  0  0  3  0  0  0  0  0  0
  -16.7000  -28.6370   23.1010 C   0  0  0  0  0  3  0  0  0  0  0  0
  -25.8710  -32.5190   23.8650 C   0  0  0  0  0  3  0  0  0  0  0  0
  -26.3830  -31.7430   25.1400 C   0  0  1  0  0  0  0  0  0  0  0  0
  -25.2890  -31.5110   26.2060 C   0  0  0  0  0  1  0  0  0  0  0  0
  -26.9580  -30.3610   24.7470 C   0  0  0  0  0  1  0  0  0  0  0  0
  -27.5390  -32.5290   25.8030 C   0  0  0  0  0  1  0  0  0  0  0  0
  -25.5700  -33.9190   24.1920 N   0  0  0  0  0  0  0  0  0  0  0  0
  -25.9050  -34.9680   23.4290 C   0  0  0  0  0  0  0  0  0  0  0  0
  -26.5720  -34.8580   22.3960 O   0  0  0  0  0  0  0  0  0  0  0  0
  -24.9840  -34.0800   24.9980 H   0  0  0  0  0  0  0  0  0  0  0  0
  -24.1870  -36.7680   23.0680 C   0  0  0  0  0  1  0  0  0  0  0  0
  -25.4240  -36.3600   23.8820 C   0  0  0  0  0  3  0  0  0  0  0  0
  -27.5610  -37.2350   24.7140 C   0  0  0  0  0  1  0  0  0  0  0  0
  -26.4610  -37.4080   23.7690 N   0  0  0  0  0  0  0  0  0  0  0  0
  -26.0600  -38.3300   23.9140 H   0  0  0  0  0  0  0  0  0  0  0  0
  1  2  1  0
  3  1  2  0
  4  3  1  0
  5  3  1  0
  6 18  1  0
  7 12  1  0
  8  9  1  0
  8  7  1  0
 10  9  1  0
 10 24  1  0
 10 11  1  0
 12  6  1  0
 12 11  1  0
 13  6  2  0
 14  1  1  0
 14 19  1  0
 15 18  1  0
 15 17  1  0
 16 14  1  0
 16 15  2  0
 18 20  1  0
 19 17  1  0
 21 22  2  0
 22 41  1  0
 23 22  1  0
 23 26  1  0
 24 21  1  0
 24 25  1  0
 25 23  2  0
 26 27  1  0
 27 28  2  0
 29 32  1  0
 29 28  1  0
 30 29  2  0
 31 30  1  0
 31 26  2  0
 32 33  1  0
 33 34  1  0
 34 35  2  0
 36 35  1  0
 36 40  1  0
 37 36  2  0
 38 33  2  0
 38 37  1  0
 39 38  1  0
 41 42  1  0
 42 45  1  0
 42 44  1  0
 43 41  2  0
 46 47  1  0
 46 21  1  0
 48 46  1  0
 50 49  1  0
 50  2  1  0
 50 51  1  0
 52 53  1  0
 52 51  1  0
 54 65  2  0
 55 53  1  0
 55 60  1  0
 56 64  1  0
 56 66  1  0
 57 63  1  0
 57 59  1  0
 58 64  1  0
 59 60  2  0
 59 58  1  0
 61 62  1  0
 61 55  2  0
 62 57  2  0
 63 56  1  0
 64 54  1  0
 66 68  2  0
 67 66  1  0
 69 67  1  0
 70 79  2  0
 70 75  1  0
 71 67  1  0
 71 75  1  0
 72 71  1  0
 73 74  1  0
 73 72  1  0
 74 70  1  0
 75 76  2  0
 76 77  1  0
 78 77  2  0
 79 78  1  0
 80 54  1  0
 80 85  1  0
 80 81  1  0
 81 84  1  1
 81 82  1  0
 83 81  1  0
 85 88  1  0
 86 90  1  0
 86 85  1  0
 87 86  2  0
 90 89  1  0
 92 90  1  0
 92 93  1  0
 92 91  1  0
M  ISO  4   6 100  18 100  52 101  53 101
M  END
>  <TORSDO>  (23) 
F 19

>  <SCORE>  (23) 
-14.410

>  <name>  (23) 
22

>  <ligand_id>  (23) 
22

>  <original_smiles>  (23) 
[H]c1c([H])c([H])c2c(c1[H])C([H])([H])C([H])([H])C([H])([H])C2([H])N([H])C(=O)C1([H])N(C(=O)C([H])(N([H])C(=O)C([H])(N([H])C([H])([H])[H])C([H])([H])[H])C(C([H])([H])[H])(C([H])([H])[H])C([H])([H])[H])C([H])([H])c2c([H])c(OC([H])([H])C([H])([H])C([H])(N=C(c3nc(N([H])C(=O)N4C([H])([H])C([H])([H])C([H])([H])C([H])(n5nc(-c6c([H])c([H])c(Oc7c([H])c([H])c(F)c([H])c7F)c([H])c6[H])c(C(=O)N([H])[H])c5N([H])[H])C4([H])[H])ns3)N([H])[H])C([H])([H])[H])c([H])c([H])c2C1([H])[H]

>  <smiles>  (23) 
[H]c1c([H])c([H])c2c(c1[H])C([H])([H])C([H])([H])C([H])([H])C2([H])N([H])C(=O)C1([H])N(C(=O)C([H])(N([H])C(=O)C([H])(N([H])C([H])([H])[H])C([H])([H])[H])C(C([H])([H])[H])(C([H])([H])[H])C([H])([H])[H])C([H])([H])c2c([H])c(OC([H])([H])C([H])([H])C([H])(N=C(c3nc(N([H])C(=O)N4C([H])([H])C([H])([H])C([H])([H])C([H])(n5nc(-c6c([H])c([H])c(Oc7c([H])c([H])c(F)c([H])c7F)c([H])c6[H])c(C(=O)N([H])[H])c5N([H])[H])C4([H])[H])ns3)N([H])[H])C([H])([H])[H])c([H])c([H])c2C1([H])[H]

$$$$
23:0:0
     RDKit          3D

 91 99  0  0  1  0  0  0  0  0999 V2000
  -31.3400  -22.1450   21.4820 C   0  0  0  0  0  1  0  0  0  0  0  0
  -30.0130  -21.8150   20.7740 C   0  0  0  0  0  3  0  0  0  0  0  0
  -29.4400  -20.5790   21.3050 N   0  0  0  0  0  0  0  0  0  0  0  0
  -28.5240  -20.6540   21.7430 H   0  0  0  0  0  0  0  0  0  0  0  0
  -30.7440  -14.4920   20.0800 C   0  0  0  0  0  0  0  0  0  0  0  0
  -30.3790  -12.3710   18.8750 C   0  0  0  0  0  2  0  0  0  0  0  0
  -29.3640  -12.6230   17.7410 C   0  0  0  0  0  2  0  0  0  0  0  0
  -27.9190  -12.4620   18.2560 C   0  0  0  0  0  2  0  0  0  0  0  0
  -27.6610  -13.2560   19.5640 C   0  0  0  0  0  3  0  0  0  0  0  0
  -28.7820  -12.9870   20.5940 C   0  0  0  0  0  2  0  0  0  0  0  0
  -30.0750  -13.3120   19.9630 N   0  0  0  0  0  0  0  0  0  0  0  0
  -31.8180  -14.7030   19.5040 O   0  0  0  0  0  0  0  0  0  0  0  0
  -30.9320  -18.9270   20.1030 C   0  0  0  0  0  3  0  0  0  0  0  0
  -29.9200  -19.3060   20.9600 C   0  0  0  0  0  0  0  0  0  0  0  0
  -30.2320  -16.8530   20.7630 C   0  0  0  0  0  0  0  0  0  0  0  0
  -31.1000  -17.5350   20.0010 N   0  0  0  0  0  0  0  0  0  0  0  0
  -30.1130  -15.4330   20.8070 N   0  0  0  0  0  0  0  0  0  0  0  0
  -29.1590  -17.9050   21.6850 S   0  0  0  0  0  0  0  0  0  0  0  0
  -29.3130  -15.0930   21.3180 H   0  0  0  0  0  0  0  0  0  0  0  0
  -25.3070  -13.8290   20.4370 C   0  0  0  0  0  0  0  0  0  0  0  0
  -24.2680  -13.0410   20.8560 C   0  0  0  0  0  0  0  0  0  0  0  0
  -24.7330  -11.6940   20.7590 C   0  0  0  0  0  0  0  0  0  0  0  0
  -26.3410  -12.9620   20.1190 N   0  0  0  0  0  0  0  0  0  0  0  0
  -26.0010  -11.6700   20.3690 N   0  0  0  0  0  0  0  0  0  0  0  0
  -24.0270  -10.4220   20.9640 C   0  0  0  0  0  0  0  0  0  0  0  0
  -24.4860   -9.4660   21.8960 C   0  0  0  0  0  3  0  0  0  0  0  0
  -23.7820   -8.2580   22.0890 C   0  0  0  0  0  3  0  0  0  0  0  0
  -22.6050   -7.9980   21.3470 C   0  0  0  0  0  0  0  0  0  0  0  0
  -22.1660   -8.9410   20.4020 C   0  0  0  0  0  3  0  0  0  0  0  0
  -22.8710  -10.1420   20.2080 C   0  0  0  0  0  3  0  0  0  0  0  0
  -21.8690   -6.8410   21.4460 O   0  0  0  0  0  0  0  0  0  0  0  0
  -21.7870   -6.1410   22.6230 C   0  0  0  0  0  0  0  0  0  0  0  0
  -21.3040   -6.7310   23.8110 C   0  0  0  0  0  3  0  0  0  0  0  0
  -21.1750   -5.9530   24.9800 C   0  0  0  0  0  3  0  0  0  0  0  0
  -21.5140   -4.5880   24.9600 C   0  0  0  0  0  0  0  0  0  0  0  0
  -21.9890   -3.9960   23.7760 C   0  0  0  0  0  3  0  0  0  0  0  0
  -22.1230   -4.7710   22.6100 C   0  0  0  0  0  0  0  0  0  0  0  0
  -22.5620   -4.1940   21.4650 F   0  0  0  0  0  0  0  0  0  0  0  0
  -21.3810   -3.8380   26.0790 F   0  0  0  0  0  0  0  0  0  0  0  0
  -22.8880  -13.5010   21.2310 C   0  0  0  0  0  0  0  0  0  0  0  0
  -22.2220  -12.7770   22.1250 N   0  0  0  0  0  0  0  0  0  0  0  0
  -22.4110  -14.5350   20.7670 O   0  0  0  0  0  0  0  0  0  0  0  0
  -22.6190  -11.9370   22.5210 H   0  0  0  0  0  0  0  0  0  0  0  0
  -21.2970  -13.0630   22.4140 H   0  0  0  0  0  0  0  0  0  0  0  0
  -25.4520  -15.2050   20.2840 N   0  0  0  0  0  0  0  0  0  0  0  0
  -24.6810  -15.8490   20.4300 H   0  0  0  0  0  0  0  0  0  0  0  0
  -26.2730  -15.6560   19.8970 H   0  0  0  0  0  0  0  0  0  0  0  0
  -28.9820  -22.9560   20.9500 C   0  0  0  0  0  2  0  0  0  0  0  0
  -29.3180  -24.3200   20.2990 C   0  0  0  0  0  2  0  0  0  0  0  0
  -28.2040  -25.3420   20.6070 C   0  0  0  0  0  2  0  0  0  0  0  0
  -28.4320  -26.6670   20.0920 O   0  0  0  0  0  0  0  0  0  0  0  0
  -24.6590  -31.8590   23.2150 C   0  0  0  0  0  0  0  0  0  0  0  0
  -27.2920  -27.4480   20.0790 C   0  0  0  0  0  0  0  0  0  0  0  0
  -23.4510  -30.4730   21.5620 C   0  0  0  0  0  3  0  0  0  0  0  0
  -24.9050  -28.9620   20.1130 C   0  0  0  0  0  0  0  0  0  0  0  0
  -25.9800  -30.8350   21.3650 C   0  0  0  0  0  2  0  0  0  0  0  0
  -26.0660  -29.4720   20.7100 C   0  0  0  0  0  0  0  0  0  0  0  0
  -27.2650  -28.7190   20.6970 C   0  0  0  0  0  3  0  0  0  0  0  0
  -26.1230  -26.9730   19.4470 C   0  0  0  0  0  3  0  0  0  0  0  0
  -24.9300  -27.7120   19.4780 C   0  0  0  0  0  3  0  0  0  0  0  0
  -23.6580  -29.8150   20.1730 C   0  0  0  0  0  2  0  0  0  0  0  0
  -24.7160  -31.0720   22.1040 N   0  0  0  0  0  0  0  0  0  0  0  0
  -23.5780  -32.1210   23.7580 O   0  0  0  0  0  0  0  0  0  0  0  0
  -22.8090  -29.4370   22.5120 C   0  0  0  0  0  0  0  0  0  0  0  0
  -21.4810  -29.2640   22.3970 N   0  0  0  0  0  0  0  0  0  0  0  0
  -23.4990  -28.7950   23.3070 O   0  0  0  0  0  0  0  0  0  0  0  0
  -20.9840  -29.8400   21.7320 H   0  0  0  0  0  0  0  0  0  0  0  0
  -18.1050  -28.0870   22.9140 C   0  0  0  0  0  0  0  0  0  0  0  0
  -20.6690  -28.3170   23.1610 C   0  0  0  0  0  3  0  0  0  0  0  0
  -20.7540  -26.8960   22.5540 C   0  0  0  0  0  2  0  0  0  0  0  0
  -19.6340  -26.5990   21.5530 C   0  0  0  0  0  2  0  0  0  0  0  0
  -18.2610  -26.7500   22.2140 C   0  0  0  0  0  2  0  0  0  0  0  0
  -19.2360  -28.8300   23.3460 C   0  0  0  0  0  0  0  0  0  0  0  0
  -19.0360  -30.0870   23.9580 C   0  0  0  0  0  3  0  0  0  0  0  0
  -17.7390  -30.5970   24.1460 C   0  0  0  0  0  3  0  0  0  0  0  0
  -16.6210  -29.8490   23.7350 C   0  0  0  0  0  3  0  0  0  0  0  0
  -16.8060  -28.5960   23.1230 C   0  0  0  0  0  3  0  0  0  0  0  0
  -25.9450  -32.4870   23.8360 C   0  0  0  0  0  3  0  0  0  0  0  0
  -26.4660  -31.7060   25.1040 C   0  0  1  0  0  0  0  0  0  0  0  0
  -25.3760  -31.4570   26.1710 C   0  0  0  0  0  1  0  0  0  0  0  0
  -27.0560  -30.3370   24.6930 C   0  0  0  0  0  1  0  0  0  0  0  0
  -27.6150  -32.4980   25.7730 C   0  0  0  0  0  1  0  0  0  0  0  0
  -25.6390  -33.8820   24.1760 N   0  0  0  0  0  0  0  0  0  0  0  0
  -25.9610  -34.9370   23.4170 C   0  0  0  0  0  0  0  0  0  0  0  0
  -26.6230  -34.8390   22.3810 O   0  0  0  0  0  0  0  0  0  0  0  0
  -25.0560  -34.0340   24.9870 H   0  0  0  0  0  0  0  0  0  0  0  0
  -24.2260  -36.7210   23.0790 C   0  0  0  0  0  1  0  0  0  0  0  0
  -25.4710  -36.3200   23.8830 C   0  0  0  0  0  3  0  0  0  0  0  0
  -27.6090  -37.2080   24.7030 C   0  0  0  0  0  1  0  0  0  0  0  0
  -26.4980  -37.3800   23.7700 N   0  0  0  0  0  0  0  0  0  0  0  0
  -26.0880  -38.2960   23.9300 H   0  0  0  0  0  0  0  0  0  0  0  0
  2 48  1  0
  2  3  1  0
  2  1  1  0
  3  4  1  0
  5 17  1  0
  6 11  1  0
  7  8  1  0
  7  6  1  0
  9  8  1  0
  9 23  1  0
  9 10  1  0
 11  5  1  0
 11 10  1  0
 12  5  2  0
 13 14  2  0
 14  3  1  0
 14 18  1  0
 15 17  1  0
 15 18  1  0
 16 13  1  0
 16 15  2  0
 17 19  1  0
 20 21  2  0
 21 40  1  0
 22 21  1  0
 22 25  1  0
 23 24  1  0
 23 20  1  0
 24 22  2  0
 25 26  1  0
 26 27  2  0
 28 31  1  0
 28 27  1  0
 29 28  2  0
 30 29  1  0
 30 25  2  0
 31 32  1  0
 32 33  1  0
 33 34  2  0
 35 34  1  0
 35 39  1  0
 36 35  2  0
 37 32  2  0
 37 36  1  0
 38 37  1  0
 40 41  1  0
 41 44  1  0
 41 43  1  0
 42 40  2  0
 45 46  1  0
 45 20  1  0
 47 45  1  0
 49 50  1  0
 49 48  1  0
 51 50  1  0
 52 63  2  0
 53 51  1  0
 53 58  1  0
 54 62  1  0
 54 64  1  0
 55 61  1  0
 55 57  1  0
 56 62  1  0
 57 56  1  0
 58 57  2  0
 59 60  1  0
 59 53  2  0
 60 55  2  0
 61 54  1  0
 62 52  1  0
 64 66  2  0
 65 64  1  0
 67 65  1  0
 68 77  2  0
 68 73  1  0
 69 65  1  0
 69 73  1  0
 70 69  1  0
 71 72  1  0
 71 70  1  0
 72 68  1  0
 73 74  2  0
 74 75  1  0
 76 75  2  0
 77 76  1  0
 78 52  1  0
 78 83  1  0
 78 79  1  0
 79 82  1  1
 79 80  1  0
 81 79  1  0
 83 86  1  0
 84 88  1  0
 84 83  1  0
 85 84  2  0
 88 87  1  0
 90 88  1  0
 90 91  1  0
 90 89  1  0
M  ISO  4   5 100  17 100  50 101  51 101
M  END
>  <TORSDO>  (24) 
F 20

>  <SCORE>  (24) 
-12.695

>  <name>  (24) 
23

>  <ligand_id>  (24) 
23

>  <original_smiles>  (24) 
[H]c1nc(N([H])C(=O)N2C([H])([H])C([H])([H])C([H])([H])C([H])(n3nc(-c4c([H])c([H])c(Oc5c([H])c([H])c(F)c([H])c5F)c([H])c4[H])c(C(=O)N([H])[H])c3N([H])[H])C2([H])[H])sc1N([H])C([H])(C([H])([H])[H])C([H])([H])C([H])([H])C([H])([H])Oc1c([H])c([H])c2c(c1[H])C([H])([H])N(C(=O)C([H])(N([H])C(=O)C([H])(N([H])C([H])([H])[H])C([H])([H])[H])C(C([H])([H])[H])(C([H])([H])[H])C([H])([H])[H])C([H])(C(=O)N([H])C1([H])c3c([H])c([H])c([H])c([H])c3C([H])([H])C([H])([H])C1([H])[H])C2([H])[H]

>  <smiles>  (24) 
[H]c1nc(N([H])C(=O)N2C([H])([H])C([H])([H])C([H])([H])C([H])(n3nc(-c4c([H])c([H])c(Oc5c([H])c([H])c(F)c([H])c5F)c([H])c4[H])c(C(=O)N([H])[H])c3N([H])[H])C2([H])[H])sc1N([H])C([H])(C([H])([H])[H])C([H])([H])C([H])([H])C([H])([H])Oc1c([H])c([H])c2c(c1[H])C([H])([H])N(C(=O)C([H])(N([H])C(=O)C([H])(N([H])C([H])([H])[H])C([H])([H])[H])C(C([H])([H])[H])(C([H])([H])[H])C([H])([H])[H])C([H])(C(=O)N([H])C1([H])c3c([H])c([H])c([H])c([H])c3C([H])([H])C([H])([H])C1([H])[H])C2([H])[H]

$$$$
24:0:0
     RDKit          3D

 94102  0  0  1  0  0  0  0  0999 V2000
  -29.6550  -21.0100   21.0250 C   0  0  0  0  0  0  0  0  0  0  0  0
  -29.4970  -21.7050   19.8820 N   0  0  0  0  0  0  0  0  0  0  0  0
  -29.5820  -21.5630   22.1230 O   0  0  0  0  0  0  0  0  0  0  0  0
  -29.5500  -21.1560   19.0340 H   0  0  0  0  0  0  0  0  0  0  0  0
  -30.6280  -14.6030   20.3990 C   0  0  0  0  0  0  0  0  0  0  0  0
  -30.3890  -12.3980   19.2950 C   0  0  0  0  0  2  0  0  0  0  0  0
  -29.4410  -12.5600   18.0890 C   0  0  0  0  0  2  0  0  0  0  0  0
  -27.9670  -12.4110   18.5180 C   0  0  0  0  0  2  0  0  0  0  0  0
  -27.6190  -13.2560   19.7750 C   0  0  0  0  0  3  0  0  0  0  0  0
  -28.6830  -13.0670   20.8800 C   0  0  0  0  0  2  0  0  0  0  0  0
  -29.9930  -13.3990   20.2990 N   0  0  0  0  0  0  0  0  0  0  0  0
  -31.7930  -14.7540   20.0100 O   0  0  0  0  0  0  0  0  0  0  0  0
  -30.0630  -19.5690   20.9390 C   0  0  0  0  0  0  0  0  0  0  0  0
  -31.2850  -18.9780   21.1960 C   0  0  0  0  0  0  0  0  0  0  0  0
  -30.0880  -17.0620   20.7950 C   0  0  0  0  0  0  0  0  0  0  0  0
  -32.5630  -19.6760   21.5630 C   0  0  0  0  0  1  0  0  0  0  0  0
  -31.2870  -17.5730   21.1010 N   0  0  0  0  0  0  0  0  0  0  0  0
  -29.8190  -15.6490   20.7240 N   0  0  0  0  0  0  0  0  0  0  0  0
  -28.8560  -18.3330   20.5910 S   0  0  0  0  0  0  0  0  0  0  0  0
  -28.8530  -15.3980   20.8500 H   0  0  0  0  0  0  0  0  0  0  0  0
  -25.2240  -13.8530   20.5000 C   0  0  0  0  0  0  0  0  0  0  0  0
  -24.1610  -13.0780   20.8740 C   0  0  0  0  0  0  0  0  0  0  0  0
  -24.6260  -11.7270   20.8430 C   0  0  0  0  0  0  0  0  0  0  0  0
  -26.2700  -12.9740   20.2620 N   0  0  0  0  0  0  0  0  0  0  0  0
  -25.9150  -11.6910   20.5290 N   0  0  0  0  0  0  0  0  0  0  0  0
  -23.9030  -10.4630   21.0360 C   0  0  0  0  0  0  0  0  0  0  0  0
  -24.3410   -9.4980   21.9700 C   0  0  0  0  0  3  0  0  0  0  0  0
  -23.6170   -8.3000   22.1540 C   0  0  0  0  0  3  0  0  0  0  0  0
  -22.4440   -8.0580   21.4010 C   0  0  0  0  0  0  0  0  0  0  0  0
  -22.0250   -9.0110   20.4590 C   0  0  0  0  0  3  0  0  0  0  0  0
  -22.7480  -10.2010   20.2730 C   0  0  0  0  0  3  0  0  0  0  0  0
  -21.6940   -6.9090   21.4890 O   0  0  0  0  0  0  0  0  0  0  0  0
  -21.6520   -6.1650   22.6410 C   0  0  0  0  0  0  0  0  0  0  0  0
  -21.2250   -6.7160   23.8700 C   0  0  0  0  0  3  0  0  0  0  0  0
  -21.1300   -5.8990   25.0130 C   0  0  0  0  0  3  0  0  0  0  0  0
  -21.4550   -4.5310   24.9300 C   0  0  0  0  0  0  0  0  0  0  0  0
  -21.8760   -3.9800   23.7090 C   0  0  0  0  0  3  0  0  0  0  0  0
  -21.9720   -4.7940   22.5670 C   0  0  0  0  0  0  0  0  0  0  0  0
  -22.3580   -4.2530   21.3850 F   0  0  0  0  0  0  0  0  0  0  0  0
  -21.3560   -3.7450   26.0270 F   0  0  0  0  0  0  0  0  0  0  0  0
  -22.7630  -13.5530   21.1500 C   0  0  0  0  0  0  0  0  0  0  0  0
  -22.0370  -12.8530   22.0170 N   0  0  0  0  0  0  0  0  0  0  0  0
  -22.3210  -14.5770   20.6320 O   0  0  0  0  0  0  0  0  0  0  0  0
  -22.4040  -12.0210   22.4540 H   0  0  0  0  0  0  0  0  0  0  0  0
  -21.1020  -13.1540   22.2480 H   0  0  0  0  0  0  0  0  0  0  0  0
  -25.3840  -15.2260   20.3230 N   0  0  0  0  0  0  0  0  0  0  0  0
  -24.6150  -15.8760   20.4530 H   0  0  0  0  0  0  0  0  0  0  0  0
  -26.2150  -15.6700   19.9560 H   0  0  0  0  0  0  0  0  0  0  0  0
  -29.7270  -23.1650   19.7010 C   0  0  0  0  0  2  0  0  0  0  0  0
  -28.5440  -24.1370   20.0420 C   0  0  0  0  0  3  0  0  0  0  0  0
  -27.3560  -23.5090   19.5910 O   0  0  0  0  0  0  0  0  0  0  0  0
  -27.4680  -22.5780   19.7660 H   0  0  0  0  0  0  0  0  0  0  0  0
  -28.6680  -25.5580   19.3750 C   0  0  0  0  0  2  0  0  0  0  0  0
  -28.4260  -26.7100   20.2130 O   0  0  0  0  0  0  0  0  0  0  0  0
  -24.5760  -31.8930   23.2440 C   0  0  0  0  0  0  0  0  0  0  0  0
  -27.2360  -27.4240   20.1650 C   0  0  0  0  0  0  0  0  0  0  0  0
  -23.3780  -30.4870   21.6000 C   0  0  0  0  0  3  0  0  0  0  0  0
  -24.8340  -28.9460   20.1760 C   0  0  0  0  0  0  0  0  0  0  0  0
  -25.9060  -30.8380   21.4120 C   0  0  0  0  0  2  0  0  0  0  0  0
  -25.9910  -29.4660   20.7690 C   0  0  0  0  0  0  0  0  0  0  0  0
  -27.1880  -28.7100   20.7640 C   0  0  0  0  0  3  0  0  0  0  0  0
  -26.0520  -26.9190   19.5770 C   0  0  0  0  0  3  0  0  0  0  0  0
  -24.8590  -27.6700   19.5810 C   0  0  0  0  0  3  0  0  0  0  0  0
  -23.5940  -29.8090   20.2190 C   0  0  0  0  0  2  0  0  0  0  0  0
  -24.6380  -31.0870   22.1450 N   0  0  0  0  0  0  0  0  0  0  0  0
  -23.4930  -32.1650   23.7810 O   0  0  0  0  0  0  0  0  0  0  0  0
  -22.7240  -29.4660   22.5570 C   0  0  0  0  0  0  0  0  0  0  0  0
  -21.3980  -29.2900   22.4310 N   0  0  0  0  0  0  0  0  0  0  0  0
  -23.4060  -28.8330   23.3680 O   0  0  0  0  0  0  0  0  0  0  0  0
  -20.9080  -29.8540   21.7530 H   0  0  0  0  0  0  0  0  0  0  0  0
  -18.0230  -28.1050   22.9290 C   0  0  0  0  0  0  0  0  0  0  0  0
  -20.5810  -28.3480   23.1970 C   0  0  0  0  0  3  0  0  0  0  0  0
  -20.6760  -26.9190   22.6130 C   0  0  0  0  0  2  0  0  0  0  0  0
  -19.5720  -26.6090   21.5990 C   0  0  0  0  0  2  0  0  0  0  0  0
  -18.1920  -26.7560   22.2490 C   0  0  0  0  0  2  0  0  0  0  0  0
  -19.1470  -28.8590   23.3610 C   0  0  0  0  0  0  0  0  0  0  0  0
  -18.9360  -30.1190   23.9590 C   0  0  0  0  0  3  0  0  0  0  0  0
  -17.6340  -30.6250   24.1350 C   0  0  0  0  0  3  0  0  0  0  0  0
  -16.5250  -29.8680   23.7220 C   0  0  0  0  0  3  0  0  0  0  0  0
  -16.7200  -28.6120   23.1210 C   0  0  0  0  0  3  0  0  0  0  0  0
  -25.8600  -32.5240   23.8670 C   0  0  0  0  0  3  0  0  0  0  0  0
  -26.3730  -31.7580   25.1480 C   0  0  1  0  0  0  0  0  0  0  0  0
  -25.2760  -31.5300   26.2140 C   0  0  0  0  0  1  0  0  0  0  0  0
  -26.9560  -30.3790   24.7610 C   0  0  0  0  0  1  0  0  0  0  0  0
  -27.5210  -32.5560   25.8120 C   0  0  0  0  0  1  0  0  0  0  0  0
  -25.5530  -33.9240   24.1900 N   0  0  0  0  0  0  0  0  0  0  0  0
  -25.8940  -34.9730   23.4310 C   0  0  0  0  0  0  0  0  0  0  0  0
  -26.5680  -34.8650   22.4030 O   0  0  0  0  0  0  0  0  0  0  0  0
  -24.9470  -34.0840   24.9830 H   0  0  0  0  0  0  0  0  0  0  0  0
  -24.1700  -36.7710   23.0620 C   0  0  0  0  0  1  0  0  0  0  0  0
  -25.4040  -36.3630   23.8840 C   0  0  0  0  0  3  0  0  0  0  0  0
  -27.5340  -37.2480   24.7280 C   0  0  0  0  0  1  0  0  0  0  0  0
  -26.4400  -37.4140   23.7750 N   0  0  0  0  0  0  0  0  0  0  0  0
  -26.0330  -38.3350   23.9230 H   0  0  0  0  0  0  0  0  0  0  0  0
  1  3  2  0
  2  1  1  0
  4  2  1  0
  5 18  1  0
  6 11  1  0
  7  8  1  0
  7  6  1  0
  9  8  1  0
  9 24  1  0
  9 10  1  0
 11  5  1  0
 11 10  1  0
 12  5  2  0
 13  1  1  0
 13 14  2  0
 14 16  1  0
 15 17  2  0
 17 14  1  0
 18 15  1  0
 18 20  1  0
 19 15  1  0
 19 13  1  0
 21 22  2  0
 22 41  1  0
 23 22  1  0
 23 26  1  0
 24 21  1  0
 24 25  1  0
 25 23  2  0
 26 27  1  0
 27 28  2  0
 29 32  1  0
 29 28  1  0
 30 29  2  0
 31 30  1  0
 31 26  2  0
 32 33  1  0
 33 34  1  0
 34 35  2  0
 36 35  1  0
 36 40  1  0
 37 36  2  0
 38 33  2  0
 38 37  1  0
 39 38  1  0
 41 42  1  0
 42 45  1  0
 42 44  1  0
 43 41  2  0
 46 47  1  0
 46 21  1  0
 48 46  1  0
 49  2  1  0
 49 50  1  0
 50 53  1  0
 51 52  1  0
 51 50  1  0
 53 54  1  0
 55 66  2  0
 56 54  1  0
 56 61  1  0
 57 65  1  0
 57 67  1  0
 58 64  1  0
 58 60  1  0
 59 65  1  0
 60 59  1  0
 61 60  2  0
 62 63  1  0
 62 56  2  0
 63 58  2  0
 64 57  1  0
 65 55  1  0
 67 69  2  0
 68 67  1  0
 70 68  1  0
 71 80  2  0
 71 76  1  0
 72 68  1  0
 72 76  1  0
 73 72  1  0
 74 75  1  0
 74 73  1  0
 75 71  1  0
 76 77  2  0
 77 78  1  0
 79 78  2  0
 80 79  1  0
 81 55  1  0
 81 86  1  0
 81 82  1  0
 82 85  1  1
 82 83  1  0
 84 82  1  0
 86 89  1  0
 87 91  1  0
 87 86  1  0
 88 87  2  0
 91 90  1  0
 93 91  1  0
 93 94  1  0
 93 92  1  0
M  ISO  4   5 100  18 100  53 101  54 101
M  END
>  <TORSDO>  (25) 
F 20

>  <SCORE>  (25) 
-14.324

>  <name>  (25) 
24

>  <ligand_id>  (25) 
24

>  <original_smiles>  (25) 
[H]OC([H])(C([H])([H])Oc1c([H])c([H])c2c(c1[H])C([H])([H])N(C(=O)C([H])(N([H])C(=O)C([H])(N([H])C([H])([H])[H])C([H])([H])[H])C(C([H])([H])[H])(C([H])([H])[H])C([H])([H])[H])C([H])(C(=O)N([H])C1([H])c3c([H])c([H])c([H])c([H])c3C([H])([H])C([H])([H])C1([H])[H])C2([H])[H])C([H])([H])N([H])C(=O)c1sc(N([H])C(=O)N2C([H])([H])C([H])([H])C([H])([H])C([H])(n3nc(-c4c([H])c([H])c(Oc5c([H])c([H])c(F)c([H])c5F)c([H])c4[H])c(C(=O)N([H])[H])c3N([H])[H])C2([H])[H])nc1C([H])([H])[H]

>  <smiles>  (25) 
[H]OC([H])(C([H])([H])Oc1c([H])c([H])c2c(c1[H])C([H])([H])N(C(=O)C([H])(N([H])C(=O)C([H])(N([H])C([H])([H])[H])C([H])([H])[H])C(C([H])([H])[H])(C([H])([H])[H])C([H])([H])[H])C([H])(C(=O)N([H])C1([H])c3c([H])c([H])c([H])c([H])c3C([H])([H])C([H])([H])C1([H])[H])C2([H])[H])C([H])([H])N([H])C(=O)c1sc(N([H])C(=O)N2C([H])([H])C([H])([H])C([H])([H])C([H])(n3nc(-c4c([H])c([H])c(Oc5c([H])c([H])c(F)c([H])c5F)c([H])c4[H])c(C(=O)N([H])[H])c3N([H])[H])C2([H])[H])nc1C([H])([H])[H]

$$$$
25:0:0
     RDKit          3D

 95103  0  0  1  0  0  0  0  0999 V2000
  -30.5240  -14.7620   20.3630 C   0  0  0  0  0  0  0  0  0  0  0  0
  -30.4020  -12.4430   19.5000 C   0  0  0  0  0  2  0  0  0  0  0  0
  -29.4550  -12.3880   18.2840 C   0  0  0  0  0  2  0  0  0  0  0  0
  -28.0020  -12.1660   18.7450 C   0  0  0  0  0  2  0  0  0  0  0  0
  -27.5790  -13.1310   19.8850 C   0  0  0  0  0  3  0  0  0  0  0  0
  -28.6470  -13.1870   21.0020 C   0  0  0  0  0  2  0  0  0  0  0  0
  -29.9320  -13.5310   20.3760 N   0  0  0  0  0  0  0  0  0  0  0  0
  -31.6640  -14.9100   19.9100 O   0  0  0  0  0  0  0  0  0  0  0  0
  -30.5910  -19.7560   21.4940 C   0  0  0  0  0  0  0  0  0  0  0  0
  -31.4860  -18.7060   21.7790 C   0  0  0  0  0  0  0  0  0  0  0  0
  -29.3990  -19.4040   20.8310 C   0  0  0  0  0  0  0  0  0  0  0  0
  -30.0470  -17.1650   20.8590 C   0  0  0  0  0  0  0  0  0  0  0  0
  -30.9160  -21.1830   21.9290 C   0  0  0  0  0  1  0  0  0  0  0  0
  -32.8090  -18.9180   22.4920 C   0  0  0  0  0  1  0  0  0  0  0  0
  -31.1950  -17.4320   21.4710 N   0  0  0  0  0  0  0  0  0  0  0  0
  -29.1380  -18.1040   20.5330 N   0  0  0  0  0  0  0  0  0  0  0  0
  -28.3810  -20.3380   20.5430 N   0  0  0  0  0  0  0  0  0  0  0  0
  -29.7250  -15.8250   20.6550 N   0  0  0  0  0  0  0  0  0  0  0  0
  -28.1440  -20.8540   21.3910 H   0  0  0  0  0  0  0  0  0  0  0  0
  -28.7500  -15.6080   20.7590 H   0  0  0  0  0  0  0  0  0  0  0  0
  -25.2090  -13.6330   20.7420 C   0  0  0  0  0  0  0  0  0  0  0  0
  -24.1750  -12.8150   21.1100 C   0  0  0  0  0  0  0  0  0  0  0  0
  -24.6630  -11.4780   20.9760 C   0  0  0  0  0  0  0  0  0  0  0  0
  -26.2600  -12.7920   20.4110 N   0  0  0  0  0  0  0  0  0  0  0  0
  -25.9390  -11.4880   20.6110 N   0  0  0  0  0  0  0  0  0  0  0  0
  -23.9710  -10.1910   21.1180 C   0  0  0  0  0  0  0  0  0  0  0  0
  -24.3910   -9.2260   22.0600 C   0  0  0  0  0  3  0  0  0  0  0  0
  -23.6980   -8.0030   22.1900 C   0  0  0  0  0  3  0  0  0  0  0  0
  -22.5710   -7.7360   21.3750 C   0  0  0  0  0  0  0  0  0  0  0  0
  -22.1710   -8.6900   20.4240 C   0  0  0  0  0  3  0  0  0  0  0  0
  -22.8660   -9.9050   20.2920 C   0  0  0  0  0  3  0  0  0  0  0  0
  -21.8520   -6.5660   21.4150 O   0  0  0  0  0  0  0  0  0  0  0  0
  -21.6510   -5.8830   22.5880 C   0  0  0  0  0  0  0  0  0  0  0  0
  -21.0100   -6.4790   23.6960 C   0  0  0  0  0  3  0  0  0  0  0  0
  -20.7620   -5.7200   24.8580 C   0  0  0  0  0  3  0  0  0  0  0  0
  -21.1440   -4.3660   24.9100 C   0  0  0  0  0  0  0  0  0  0  0  0
  -21.7770   -3.7700   23.8050 C   0  0  0  0  0  3  0  0  0  0  0  0
  -22.0270   -4.5260   22.6460 C   0  0  0  0  0  0  0  0  0  0  0  0
  -22.6180   -3.9410   21.5770 F   0  0  0  0  0  0  0  0  0  0  0  0
  -20.8980   -3.6340   26.0210 F   0  0  0  0  0  0  0  0  0  0  0  0
  -22.7810  -13.2430   21.4690 C   0  0  0  0  0  0  0  0  0  0  0  0
  -22.1050  -12.4780   22.3180 N   0  0  0  0  0  0  0  0  0  0  0  0
  -22.3010  -14.2890   21.0340 O   0  0  0  0  0  0  0  0  0  0  0  0
  -22.5070  -11.6310   22.6940 H   0  0  0  0  0  0  0  0  0  0  0  0
  -21.1720  -12.7440   22.6010 H   0  0  0  0  0  0  0  0  0  0  0  0
  -25.3360  -15.0150   20.6410 N   0  0  0  0  0  0  0  0  0  0  0  0
  -24.5570  -15.6400   20.8130 H   0  0  0  0  0  0  0  0  0  0  0  0
  -26.1520  -15.4950   20.2810 H   0  0  0  0  0  0  0  0  0  0  0  0
  -28.6410  -21.4470   19.6040 C   0  0  0  0  0  2  0  0  0  0  0  0
  -27.8290  -22.7210   20.0200 C   0  0  0  0  0  3  0  0  0  0  0  0
  -27.9860  -22.8340   21.4270 O   0  0  0  0  0  0  0  0  0  0  0  0
  -27.3650  -23.4810   21.7460 H   0  0  0  0  0  0  0  0  0  0  0  0
  -28.2030  -24.0860   19.3330 C   0  0  0  0  0  2  0  0  0  0  0  0
  -27.4360  -25.3320   19.8970 C   0  0  0  0  0  2  0  0  0  0  0  0
  -27.5930  -26.6050   19.2040 O   0  0  0  0  0  0  0  0  0  0  0  0
  -24.4930  -31.7730   23.0830 C   0  0  0  0  0  0  0  0  0  0  0  0
  -26.5250  -27.4770   19.3610 C   0  0  0  0  0  0  0  0  0  0  0  0
  -23.0480  -30.6010   21.4560 C   0  0  0  0  0  3  0  0  0  0  0  0
  -24.2570  -29.1370   19.7500 C   0  0  0  0  0  0  0  0  0  0  0  0
  -25.5640  -30.8330   21.0350 C   0  0  0  0  0  2  0  0  0  0  0  0
  -25.5020  -29.5270   20.2620 C   0  0  0  0  0  0  0  0  0  0  0  0
  -26.6420  -28.7050   20.0640 C   0  0  0  0  0  3  0  0  0  0  0  0
  -25.2670  -27.1310   18.8210 C   0  0  0  0  0  3  0  0  0  0  0  0
  -24.1360  -27.9410   19.0250 C   0  0  0  0  0  3  0  0  0  0  0  0
  -23.0810  -30.0530   20.0060 C   0  0  0  0  0  2  0  0  0  0  0  0
  -24.3930  -31.0770   21.9140 N   0  0  0  0  0  0  0  0  0  0  0  0
  -23.4890  -32.0480   23.7540 O   0  0  0  0  0  0  0  0  0  0  0  0
  -22.4330  -29.5270   22.3820 C   0  0  0  0  0  0  0  0  0  0  0  0
  -21.1010  -29.3640   22.3100 N   0  0  0  0  0  0  0  0  0  0  0  0
  -23.1470  -28.8470   23.1220 O   0  0  0  0  0  0  0  0  0  0  0  0
  -20.5840  -29.9680   21.6860 H   0  0  0  0  0  0  0  0  0  0  0  0
  -17.7540  -28.0950   22.8240 C   0  0  0  0  0  0  0  0  0  0  0  0
  -20.3120  -28.3860   23.0590 C   0  0  0  0  0  3  0  0  0  0  0  0
  -20.4260  -26.9770   22.4310 C   0  0  0  0  0  2  0  0  0  0  0  0
  -19.3120  -26.6730   21.4250 C   0  0  0  0  0  2  0  0  0  0  0  0
  -17.9390  -26.7730   22.0970 C   0  0  0  0  0  2  0  0  0  0  0  0
  -18.8690  -28.8600   23.2610 C   0  0  0  0  0  0  0  0  0  0  0  0
  -18.6410  -30.0980   23.8990 C   0  0  0  0  0  3  0  0  0  0  0  0
  -17.3320  -30.5730   24.1050 C   0  0  0  0  0  3  0  0  0  0  0  0
  -16.2320  -29.8040   23.6840 C   0  0  0  0  0  3  0  0  0  0  0  0
  -16.4440  -28.5670   23.0490 C   0  0  0  0  0  3  0  0  0  0  0  0
  -25.8700  -32.2750   23.6200 C   0  0  0  0  0  3  0  0  0  0  0  0
  -26.4650  -31.3580   24.7590 C   0  0  1  0  0  0  0  0  0  0  0  0
  -25.4770  -31.0820   25.9170 C   0  0  0  0  0  1  0  0  0  0  0  0
  -26.9120  -29.9920   24.1850 C   0  0  0  0  0  1  0  0  0  0  0  0
  -27.7290  -32.0200   25.3570 C   0  0  0  0  0  1  0  0  0  0  0  0
  -25.6790  -33.6480   24.1050 N   0  0  0  0  0  0  0  0  0  0  0  0
  -26.0080  -34.7500   23.4180 C   0  0  0  0  0  0  0  0  0  0  0  0
  -26.5740  -34.7120   22.3220 O   0  0  0  0  0  0  0  0  0  0  0  0
  -25.1690  -33.7560   24.9700 H   0  0  0  0  0  0  0  0  0  0  0  0
  -24.3690  -36.6590   23.3990 C   0  0  0  0  0  1  0  0  0  0  0  0
  -25.6530  -36.1110   24.0470 C   0  0  0  0  0  3  0  0  0  0  0  0
  -27.9040  -36.7950   24.7450 C   0  0  0  0  0  1  0  0  0  0  0  0
  -26.7340  -37.1130   23.9320 N   0  0  0  0  0  0  0  0  0  0  0  0
  -26.4010  -38.0340   24.2000 H   0  0  0  0  0  0  0  0  0  0  0  0
  1  7  1  0
  1 18  1  0
  2  7  1  0
  3  4  1  0
  3  2  1  0
  5  4  1  0
  5 24  1  0
  5  6  1  0
  7  6  1  0
  8  1  2  0
  9 10  2  0
  9 13  1  0
 10 14  1  0
 11  9  1  0
 12 15  2  0
 15 10  1  0
 16 11  2  0
 16 12  1  0
 17 11  1  0
 17 19  1  0
 18 20  1  0
 18 12  1  0
 21 22  2  0
 22 41  1  0
 23 22  1  0
 23 26  1  0
 24 25  1  0
 24 21  1  0
 25 23  2  0
 26 27  1  0
 27 28  2  0
 29 32  1  0
 29 28  1  0
 30 29  2  0
 31 30  1  0
 31 26  2  0
 32 33  1  0
 33 38  2  0
 33 34  1  0
 34 35  2  0
 35 36  1  0
 36 40  1  0
 37 36  2  0
 38 37  1  0
 39 38  1  0
 41 42  1  0
 42 45  1  0
 42 44  1  0
 43 41  2  0
 46 21  1  0
 46 47  1  0
 48 46  1  0
 49 50  1  0
 49 17  1  0
 50 53  1  0
 50 51  1  0
 51 52  1  0
 53 54  1  0
 55 57  1  0
 55 54  1  0
 56 67  2  0
 57 62  1  0
 58 66  1  0
 58 68  1  0
 59 65  1  0
 59 61  1  0
 60 66  1  0
 61 60  1  0
 62 61  2  0
 63 64  1  0
 63 57  2  0
 64 59  2  0
 65 58  1  0
 66 56  1  0
 68 70  2  0
 69 68  1  0
 71 69  1  0
 72 81  2  0
 72 77  1  0
 73 69  1  0
 73 77  1  0
 74 73  1  0
 75 76  1  0
 75 74  1  0
 76 72  1  0
 77 78  2  0
 78 79  1  0
 80 79  2  0
 81 80  1  0
 82 56  1  0
 82 87  1  0
 82 83  1  0
 83 86  1  1
 83 84  1  0
 85 83  1  0
 87 90  1  0
 88 92  1  0
 88 87  1  0
 89 88  2  0
 92 91  1  0
 94 92  1  0
 94 95  1  0
 94 93  1  0
M  ISO  4   1 100  18 100  54 101  55 101
M  END
>  <TORSDO>  (26) 
F 20

>  <SCORE>  (26) 
-12.577

>  <name>  (26) 
25

>  <ligand_id>  (26) 
25

>  <original_smiles>  (26) 
[H]OC([H])(C([H])([H])N([H])c1nc(N([H])C(=O)N2C([H])([H])C([H])([H])C([H])([H])C([H])(n3nc(-c4c([H])c([H])c(Oc5c([H])c([H])c(F)c([H])c5F)c([H])c4[H])c(C(=O)N([H])[H])c3N([H])[H])C2([H])[H])nc(C([H])([H])[H])c1C([H])([H])[H])C([H])([H])C([H])([H])Oc1c([H])c([H])c2c(c1[H])C([H])([H])N(C(=O)C([H])(N([H])C(=O)C([H])(N([H])C([H])([H])[H])C([H])([H])[H])C(C([H])([H])[H])(C([H])([H])[H])C([H])([H])[H])C([H])(C(=O)N([H])C1([H])c3c([H])c([H])c([H])c([H])c3C([H])([H])C([H])([H])C1([H])[H])C2([H])[H]

>  <smiles>  (26) 
[H]OC([H])(C([H])([H])N([H])c1nc(N([H])C(=O)N2C([H])([H])C([H])([H])C([H])([H])C([H])(n3nc(-c4c([H])c([H])c(Oc5c([H])c([H])c(F)c([H])c5F)c([H])c4[H])c(C(=O)N([H])[H])c3N([H])[H])C2([H])[H])nc(C([H])([H])[H])c1C([H])([H])[H])C([H])([H])C([H])([H])Oc1c([H])c([H])c2c(c1[H])C([H])([H])N(C(=O)C([H])(N([H])C(=O)C([H])(N([H])C([H])([H])[H])C([H])([H])[H])C(C([H])([H])[H])(C([H])([H])[H])C([H])([H])[H])C([H])(C(=O)N([H])C1([H])c3c([H])c([H])c([H])c([H])c3C([H])([H])C([H])([H])C1([H])[H])C2([H])[H]

$$$$
26:0:0
     RDKit          3D

 91 99  0  0  1  0  0  0  0  0999 V2000
  -31.5380  -22.2230   21.4520 C   0  0  0  0  0  1  0  0  0  0  0  0
  -30.2420  -21.8810   20.7010 C   0  0  0  0  0  3  0  0  0  0  0  0
  -30.7170  -14.4660   20.1360 C   0  0  0  0  0  0  0  0  0  0  0  0
  -30.3330  -12.3520   18.9240 C   0  0  0  0  0  2  0  0  0  0  0  0
  -29.3370  -12.6160   17.7760 C   0  0  0  0  0  2  0  0  0  0  0  0
  -27.8840  -12.4750   18.2740 C   0  0  0  0  0  2  0  0  0  0  0  0
  -27.6180  -13.2690   19.5800 C   0  0  0  0  0  3  0  0  0  0  0  0
  -28.7230  -12.9920   20.6250 C   0  0  0  0  0  2  0  0  0  0  0  0
  -30.0270  -13.2980   20.0090 N   0  0  0  0  0  0  0  0  0  0  0  0
  -31.8050  -14.6520   19.5830 O   0  0  0  0  0  0  0  0  0  0  0  0
  -30.2400  -16.8400   20.7650 C   0  0  0  0  0  0  0  0  0  0  0  0
  -30.0740  -19.2460   20.8850 C   0  0  0  0  0  0  0  0  0  0  0  0
  -31.1780  -17.4610   20.0240 N   0  0  0  0  0  0  0  0  0  0  0  0
  -31.0810  -18.8500   20.0950 N   0  0  0  0  0  0  0  0  0  0  0  0
  -30.0850  -15.4240   20.8370 N   0  0  0  0  0  0  0  0  0  0  0  0
  -29.7370  -20.5780   21.1300 N   0  0  0  0  0  0  0  0  0  0  0  0
  -29.1530  -17.9340   21.6200 S   0  0  0  0  0  0  0  0  0  0  0  0
  -29.2680  -15.1110   21.3360 H   0  0  0  0  0  0  0  0  0  0  0  0
  -28.9370  -20.6490   21.7490 H   0  0  0  0  0  0  0  0  0  0  0  0
  -25.2490  -13.8660   20.3940 C   0  0  0  0  0  0  0  0  0  0  0  0
  -24.2000  -13.0880   20.8030 C   0  0  0  0  0  0  0  0  0  0  0  0
  -24.6620  -11.7380   20.7410 C   0  0  0  0  0  0  0  0  0  0  0  0
  -26.2860  -12.9890   20.1130 N   0  0  0  0  0  0  0  0  0  0  0  0
  -25.9380  -11.7030   20.3780 N   0  0  0  0  0  0  0  0  0  0  0  0
  -23.9480  -10.4710   20.9510 C   0  0  0  0  0  0  0  0  0  0  0  0
  -24.4030   -9.5130   21.8830 C   0  0  0  0  0  3  0  0  0  0  0  0
  -23.6890   -8.3110   22.0810 C   0  0  0  0  0  3  0  0  0  0  0  0
  -22.5060   -8.0600   21.3460 C   0  0  0  0  0  0  0  0  0  0  0  0
  -22.0710   -9.0070   20.4020 C   0  0  0  0  0  3  0  0  0  0  0  0
  -22.7850  -10.2000   20.2030 C   0  0  0  0  0  3  0  0  0  0  0  0
  -21.7610   -6.9100   21.4520 O   0  0  0  0  0  0  0  0  0  0  0  0
  -21.7090   -6.1930   22.6210 C   0  0  0  0  0  0  0  0  0  0  0  0
  -21.2590   -6.7690   23.8290 C   0  0  0  0  0  3  0  0  0  0  0  0
  -21.1550   -5.9770   24.9910 C   0  0  0  0  0  3  0  0  0  0  0  0
  -21.4890   -4.6110   24.9440 C   0  0  0  0  0  0  0  0  0  0  0  0
  -21.9310   -4.0340   23.7400 C   0  0  0  0  0  3  0  0  0  0  0  0
  -22.0380   -4.8230   22.5810 C   0  0  0  0  0  0  0  0  0  0  0  0
  -22.4450   -4.2580   21.4190 F   0  0  0  0  0  0  0  0  0  0  0  0
  -21.3810   -3.8480   26.0570 F   0  0  0  0  0  0  0  0  0  0  0  0
  -22.8150  -13.5590   21.1410 C   0  0  0  0  0  0  0  0  0  0  0  0
  -22.1260  -12.8520   22.0310 N   0  0  0  0  0  0  0  0  0  0  0  0
  -22.3520  -14.5890   20.6520 O   0  0  0  0  0  0  0  0  0  0  0  0
  -22.5130  -12.0170   22.4480 H   0  0  0  0  0  0  0  0  0  0  0  0
  -21.1990  -13.1480   22.2990 H   0  0  0  0  0  0  0  0  0  0  0  0
  -25.4020  -15.2380   20.2190 N   0  0  0  0  0  0  0  0  0  0  0  0
  -24.6280  -15.8820   20.3440 H   0  0  0  0  0  0  0  0  0  0  0  0
  -26.2250  -15.6810   19.8310 H   0  0  0  0  0  0  0  0  0  0  0  0
  -29.1480  -22.9590   20.9030 C   0  0  0  0  0  2  0  0  0  0  0  0
  -29.4540  -24.3860   20.3810 C   0  0  0  0  0  2  0  0  0  0  0  0
  -28.2600  -25.3330   20.6250 C   0  0  0  0  0  2  0  0  0  0  0  0
  -28.4420  -26.6650   20.1130 O   0  0  0  0  0  0  0  0  0  0  0  0
  -24.6290  -31.8430   23.1970 C   0  0  0  0  0  0  0  0  0  0  0  0
  -27.2860  -27.4200   20.0990 C   0  0  0  0  0  0  0  0  0  0  0  0
  -23.4300  -30.4470   21.5460 C   0  0  0  0  0  3  0  0  0  0  0  0
  -24.8890  -28.9250   20.1140 C   0  0  0  0  0  0  0  0  0  0  0  0
  -25.9560  -30.8110   21.3560 C   0  0  0  0  0  2  0  0  0  0  0  0
  -26.0460  -29.4430   20.7100 C   0  0  0  0  0  0  0  0  0  0  0  0
  -27.2480  -28.6980   20.7010 C   0  0  0  0  0  3  0  0  0  0  0  0
  -26.1150  -26.9260   19.4790 C   0  0  0  0  0  3  0  0  0  0  0  0
  -24.9190  -27.6650   19.4960 C   0  0  0  0  0  3  0  0  0  0  0  0
  -23.6440  -29.7800   20.1610 C   0  0  0  0  0  2  0  0  0  0  0  0
  -24.6890  -31.0490   22.0910 N   0  0  0  0  0  0  0  0  0  0  0  0
  -23.5460  -32.1090   23.7360 O   0  0  0  0  0  0  0  0  0  0  0  0
  -22.7790  -29.4190   22.4980 C   0  0  0  0  0  0  0  0  0  0  0  0
  -21.4510  -29.2510   22.3820 N   0  0  0  0  0  0  0  0  0  0  0  0
  -23.4660  -28.7760   23.2970 O   0  0  0  0  0  0  0  0  0  0  0  0
  -20.9600  -29.8180   21.7040 H   0  0  0  0  0  0  0  0  0  0  0  0
  -18.0670  -28.1000   22.9130 C   0  0  0  0  0  0  0  0  0  0  0  0
  -20.6330  -28.3120   23.1490 C   0  0  0  0  0  3  0  0  0  0  0  0
  -20.7040  -26.8910   22.5450 C   0  0  0  0  0  2  0  0  0  0  0  0
  -19.5810  -26.6040   21.5450 C   0  0  0  0  0  2  0  0  0  0  0  0
  -18.2120  -26.7610   22.2110 C   0  0  0  0  0  2  0  0  0  0  0  0
  -19.2050  -28.8360   23.3400 C   0  0  0  0  0  0  0  0  0  0  0  0
  -19.0160  -30.0930   23.9540 C   0  0  0  0  0  3  0  0  0  0  0  0
  -17.7210  -30.6110   24.1490 C   0  0  0  0  0  3  0  0  0  0  0  0
  -16.5980  -29.8700   23.7410 C   0  0  0  0  0  3  0  0  0  0  0  0
  -16.7730  -28.6170   23.1280 C   0  0  0  0  0  3  0  0  0  0  0  0
  -25.9120  -32.4730   23.8230 C   0  0  0  0  0  3  0  0  0  0  0  0
  -26.4290  -31.6970   25.0950 C   0  0  1  0  0  0  0  0  0  0  0  0
  -25.3350  -31.4490   26.1600 C   0  0  0  0  0  1  0  0  0  0  0  0
  -27.0160  -30.3240   24.6920 C   0  0  0  0  0  1  0  0  0  0  0  0
  -27.5770  -32.4900   25.7640 C   0  0  0  0  0  1  0  0  0  0  0  0
  -25.6010  -33.8690   24.1570 N   0  0  0  0  0  0  0  0  0  0  0  0
  -25.9360  -34.9240   23.4010 C   0  0  0  0  0  0  0  0  0  0  0  0
  -26.6100  -34.8240   22.3720 O   0  0  0  0  0  0  0  0  0  0  0  0
  -25.0020  -34.0210   24.9550 H   0  0  0  0  0  0  0  0  0  0  0  0
  -24.2110  -36.7140   23.0400 C   0  0  0  0  0  1  0  0  0  0  0  0
  -25.4440  -36.3080   23.8610 C   0  0  0  0  0  3  0  0  0  0  0  0
  -27.5700  -37.1870   24.7180 C   0  0  0  0  0  1  0  0  0  0  0  0
  -26.4770  -37.3630   23.7640 N   0  0  0  0  0  0  0  0  0  0  0  0
  -26.0690  -38.2810   23.9170 H   0  0  0  0  0  0  0  0  0  0  0  0
  2 48  1  0
  2 16  1  0
  2  1  1  0
  3 15  1  0
  4  9  1  0
  5  6  1  0
  5  4  1  0
  7  6  1  0
  7 23  1  0
  7  8  1  0
  9  3  1  0
  9  8  1  0
 10  3  2  0
 11 15  1  0
 11 17  1  0
 12 16  1  0
 12 17  1  0
 13 14  1  0
 13 11  2  0
 14 12  2  0
 15 18  1  0
 16 19  1  0
 20 21  2  0
 21 40  1  0
 22 21  1  0
 22 25  1  0
 23 24  1  0
 23 20  1  0
 24 22  2  0
 25 26  1  0
 26 27  2  0
 28 31  1  0
 28 27  1  0
 29 28  2  0
 30 29  1  0
 30 25  2  0
 31 32  1  0
 32 33  1  0
 33 34  2  0
 35 34  1  0
 35 39  1  0
 36 35  2  0
 37 32  2  0
 37 36  1  0
 38 37  1  0
 40 41  1  0
 41 44  1  0
 41 43  1  0
 42 40  2  0
 45 46  1  0
 45 20  1  0
 47 45  1  0
 49 50  1  0
 49 48  1  0
 51 50  1  0
 52 63  2  0
 53 51  1  0
 53 58  1  0
 54 62  1  0
 54 64  1  0
 55 61  1  0
 55 57  1  0
 56 62  1  0
 57 56  1  0
 58 57  2  0
 59 60  1  0
 59 53  2  0
 60 55  2  0
 61 54  1  0
 62 52  1  0
 64 66  2  0
 65 64  1  0
 67 65  1  0
 68 77  2  0
 68 73  1  0
 69 65  1  0
 69 73  1  0
 70 69  1  0
 71 72  1  0
 71 70  1  0
 72 68  1  0
 73 74  2  0
 74 75  1  0
 76 75  2  0
 77 76  1  0
 78 52  1  0
 78 83  1  0
 78 79  1  0
 79 82  1  1
 79 80  1  0
 81 79  1  0
 83 86  1  0
 84 88  1  0
 84 83  1  0
 85 84  2  0
 88 87  1  0
 90 88  1  0
 90 91  1  0
 90 89  1  0
M  ISO  4   3 100  15 100  50 101  51 101
M  END
>  <TORSDO>  (27) 
F 19

>  <SCORE>  (27) 
-13.126

>  <name>  (27) 
26

>  <ligand_id>  (27) 
26

>  <original_smiles>  (27) 
[H]c1c([H])c([H])c2c(c1[H])C([H])([H])C([H])([H])C([H])([H])C2([H])N([H])C(=O)C1([H])N(C(=O)C([H])(N([H])C(=O)C([H])(N([H])C([H])([H])[H])C([H])([H])[H])C(C([H])([H])[H])(C([H])([H])[H])C([H])([H])[H])C([H])([H])c2c([H])c(OC([H])([H])C([H])([H])C([H])([H])C([H])(N([H])c3nnc(N([H])C(=O)N4C([H])([H])C([H])([H])C([H])([H])C([H])(n5nc(-c6c([H])c([H])c(Oc7c([H])c([H])c(F)c([H])c7F)c([H])c6[H])c(C(=O)N([H])[H])c5N([H])[H])C4([H])[H])s3)C([H])([H])[H])c([H])c([H])c2C1([H])[H]

>  <smiles>  (27) 
[H]c1c([H])c([H])c2c(c1[H])C([H])([H])C([H])([H])C([H])([H])C2([H])N([H])C(=O)C1([H])N(C(=O)C([H])(N([H])C(=O)C([H])(N([H])C([H])([H])[H])C([H])([H])[H])C(C([H])([H])[H])(C([H])([H])[H])C([H])([H])[H])C([H])([H])c2c([H])c(OC([H])([H])C([H])([H])C([H])([H])C([H])(N([H])c3nnc(N([H])C(=O)N4C([H])([H])C([H])([H])C([H])([H])C([H])(n5nc(-c6c([H])c([H])c(Oc7c([H])c([H])c(F)c([H])c7F)c([H])c6[H])c(C(=O)N([H])[H])c5N([H])[H])C4([H])[H])s3)C([H])([H])[H])c([H])c([H])c2C1([H])[H]

$$$$
27:0:0
     RDKit          3D

 91 99  0  0  1  0  0  0  0  0999 V2000
  -29.2220  -22.2980   22.4360 C   0  0  0  0  0  1  0  0  0  0  0  0
  -28.8740  -22.3960   20.9390 C   0  0  0  0  0  3  0  0  0  0  0  0
  -30.5890  -14.8080   20.0570 C   0  0  0  0  0  0  0  0  0  0  0  0
  -30.4000  -12.5750   18.9470 C   0  0  0  0  0  2  0  0  0  0  0  0
  -29.3930  -12.7060   17.7810 C   0  0  0  0  0  2  0  0  0  0  0  0
  -27.9410  -12.5160   18.2720 C   0  0  0  0  0  2  0  0  0  0  0  0
  -27.6340  -13.3440   19.5470 C   0  0  0  0  0  3  0  0  0  0  0  0
  -28.7450  -13.1580   20.6060 C   0  0  0  0  0  2  0  0  0  0  0  0
  -30.0200  -13.5570   19.9860 N   0  0  0  0  0  0  0  0  0  0  0  0
  -31.7060  -15.0250   19.5770 O   0  0  0  0  0  0  0  0  0  0  0  0
  -29.6800  -17.2500   20.5670 C   0  0  0  0  0  0  0  0  0  0  0  0
  -29.4740  -19.7760   20.4360 C   0  0  0  0  0  0  0  0  0  0  0  0
  -28.6930  -17.7770   21.3180 N   0  0  0  0  0  0  0  0  0  0  0  0
  -28.5830  -19.1840   21.2520 N   0  0  0  0  0  0  0  0  0  0  0  0
  -29.7810  -15.7810   20.5950 N   0  0  0  0  0  0  0  0  0  0  0  0
  -29.5290  -21.2120   20.2550 N   0  0  0  0  0  0  0  0  0  0  0  0
  -30.5660  -18.5410   19.6730 S   0  0  0  0  0  0  0  0  0  0  0  0
  -28.9870  -15.3630   21.0510 H   0  0  0  0  0  0  0  0  0  0  0  0
  -30.2120  -21.4770   19.5520 H   0  0  0  0  0  0  0  0  0  0  0  0
  -25.2690  -13.9200   20.3720 C   0  0  0  0  0  0  0  0  0  0  0  0
  -24.2240  -13.1370   20.7800 C   0  0  0  0  0  0  0  0  0  0  0  0
  -24.6920  -11.7890   20.7130 C   0  0  0  0  0  0  0  0  0  0  0  0
  -26.3080  -13.0490   20.0840 N   0  0  0  0  0  0  0  0  0  0  0  0
  -25.9680  -11.7610   20.3470 N   0  0  0  0  0  0  0  0  0  0  0  0
  -23.9830  -10.5190   20.9190 C   0  0  0  0  0  0  0  0  0  0  0  0
  -24.4400   -9.5610   21.8500 C   0  0  0  0  0  3  0  0  0  0  0  0
  -23.7310   -8.3570   22.0440 C   0  0  0  0  0  3  0  0  0  0  0  0
  -22.5490   -8.1030   21.3080 C   0  0  0  0  0  0  0  0  0  0  0  0
  -22.1110   -9.0490   20.3660 C   0  0  0  0  0  3  0  0  0  0  0  0
  -22.8210  -10.2460   20.1690 C   0  0  0  0  0  3  0  0  0  0  0  0
  -21.8080   -6.9500   21.4130 O   0  0  0  0  0  0  0  0  0  0  0  0
  -21.7480   -6.2380   22.5830 C   0  0  0  0  0  0  0  0  0  0  0  0
  -21.2890   -6.8170   23.7870 C   0  0  0  0  0  3  0  0  0  0  0  0
  -21.1780   -6.0280   24.9500 C   0  0  0  0  0  3  0  0  0  0  0  0
  -21.5150   -4.6630   24.9100 C   0  0  0  0  0  0  0  0  0  0  0  0
  -21.9660   -4.0830   23.7110 C   0  0  0  0  0  3  0  0  0  0  0  0
  -22.0790   -4.8680   22.5510 C   0  0  0  0  0  0  0  0  0  0  0  0
  -22.4940   -4.2990   21.3930 F   0  0  0  0  0  0  0  0  0  0  0  0
  -21.4020   -3.9030   26.0250 F   0  0  0  0  0  0  0  0  0  0  0  0
  -22.8370  -13.6020   21.1190 C   0  0  0  0  0  0  0  0  0  0  0  0
  -22.1530  -12.8910   22.0100 N   0  0  0  0  0  0  0  0  0  0  0  0
  -22.3690  -14.6300   20.6290 O   0  0  0  0  0  0  0  0  0  0  0  0
  -22.5470  -12.0630   22.4300 H   0  0  0  0  0  0  0  0  0  0  0  0
  -21.2230  -13.1810   22.2770 H   0  0  0  0  0  0  0  0  0  0  0  0
  -25.4150  -15.2940   20.2040 N   0  0  0  0  0  0  0  0  0  0  0  0
  -24.6490  -15.9390   20.3630 H   0  0  0  0  0  0  0  0  0  0  0  0
  -26.2460  -15.7520   19.8520 H   0  0  0  0  0  0  0  0  0  0  0  0
  -29.1340  -23.9080   20.3720 C   0  0  0  0  0  2  0  0  0  0  0  0
  -28.3720  -25.5150   22.3370 C   0  0  0  0  0  1  0  0  0  0  0  0
  -28.2250  -25.1840   20.8370 C   0  0  0  0  0  3  0  0  0  0  0  0
  -28.4080  -26.5230   20.1930 O   0  0  0  0  0  0  0  0  0  0  0  0
  -24.5580  -31.8870   23.1790 C   0  0  0  0  0  0  0  0  0  0  0  0
  -27.2910  -27.3840   20.1420 C   0  0  0  0  0  0  0  0  0  0  0  0
  -23.4030  -30.4840   21.5090 C   0  0  0  0  0  3  0  0  0  0  0  0
  -24.9020  -28.9660   20.0910 C   0  0  0  0  0  0  0  0  0  0  0  0
  -25.9400  -30.8410   21.3680 C   0  0  0  0  0  2  0  0  0  0  0  0
  -26.0540  -29.4690   20.7100 C   0  0  0  0  0  0  0  0  0  0  0  0
  -27.2550  -28.6930   20.7190 C   0  0  0  0  0  3  0  0  0  0  0  0
  -26.1200  -26.9380   19.4940 C   0  0  0  0  0  3  0  0  0  0  0  0
  -24.9400  -27.7070   19.4680 C   0  0  0  0  0  3  0  0  0  0  0  0
  -23.6480  -29.8200   20.1270 C   0  0  0  0  0  2  0  0  0  0  0  0
  -24.6520  -31.0870   22.0760 N   0  0  0  0  0  0  0  0  0  0  0  0
  -23.4620  -32.1430   23.6990 O   0  0  0  0  0  0  0  0  0  0  0  0
  -22.7390  -29.4520   22.4520 C   0  0  0  0  0  0  0  0  0  0  0  0
  -21.4190  -29.2500   22.2950 N   0  0  0  0  0  0  0  0  0  0  0  0
  -23.4110  -28.8340   23.2820 O   0  0  0  0  0  0  0  0  0  0  0  0
  -20.9350  -29.8010   21.6000 H   0  0  0  0  0  0  0  0  0  0  0  0
  -18.0550  -27.9890   22.7220 C   0  0  0  0  0  0  0  0  0  0  0  0
  -20.6020  -28.2940   23.0450 C   0  0  0  0  0  3  0  0  0  0  0  0
  -20.7420  -26.8660   22.4650 C   0  0  0  0  0  2  0  0  0  0  0  0
  -19.6670  -26.5290   21.4270 C   0  0  0  0  0  2  0  0  0  0  0  0
  -18.2700  -26.6460   22.0430 C   0  0  0  0  0  2  0  0  0  0  0  0
  -19.1500  -28.7690   23.1780 C   0  0  0  0  0  0  0  0  0  0  0  0
  -18.8950  -30.0240   23.7730 C   0  0  0  0  0  3  0  0  0  0  0  0
  -17.5780  -30.5000   23.9160 C   0  0  0  0  0  3  0  0  0  0  0  0
  -16.4970  -29.7160   23.4760 C   0  0  0  0  0  3  0  0  0  0  0  0
  -16.7360  -28.4620   22.8850 C   0  0  0  0  0  3  0  0  0  0  0  0
  -25.8210  -32.5340   23.8260 C   0  0  0  0  0  3  0  0  0  0  0  0
  -25.4880  -33.9290   24.1530 N   0  0  0  0  0  0  0  0  0  0  0  0
  -25.8270  -34.9890   23.4080 C   0  0  0  0  0  0  0  0  0  0  0  0
  -26.5240  -34.8970   22.3940 O   0  0  0  0  0  0  0  0  0  0  0  0
  -24.8710  -34.0720   24.9380 H   0  0  0  0  0  0  0  0  0  0  0  0
  -24.0920  -36.7710   23.0190 C   0  0  0  0  0  1  0  0  0  0  0  0
  -25.3150  -36.3700   23.8610 C   0  0  0  0  0  3  0  0  0  0  0  0
  -27.4170  -37.2700   24.7570 C   0  0  0  0  0  1  0  0  0  0  0  0
  -26.3390  -37.4350   23.7840 N   0  0  0  0  0  0  0  0  0  0  0  0
  -25.9210  -38.3490   23.9290 H   0  0  0  0  0  0  0  0  0  0  0  0
  -26.3200  -31.7690   25.1140 C   0  0  1  0  0  0  0  0  0  0  0  0
  -25.2080  -31.5120   26.1580 C   0  0  0  0  0  1  0  0  0  0  0  0
  -26.9340  -30.4010   24.7330 C   0  0  0  0  0  1  0  0  0  0  0  0
  -27.4420  -32.5810   25.8030 C   0  0  0  0  0  1  0  0  0  0  0  0
  2  1  1  0
  3 15  1  0
  4  9  1  0
  5  6  1  0
  5  4  1  0
  7  6  1  0
  7 23  1  0
  7  8  1  0
  9  3  1  0
  9  8  1  0
 10  3  2  0
 11 15  1  0
 11 13  2  0
 12 14  2  0
 14 13  1  0
 15 18  1  0
 16 12  1  0
 16  2  1  0
 17 12  1  0
 17 11  1  0
 19 16  1  0
 20 21  2  0
 21 40  1  0
 22 21  1  0
 22 25  1  0
 23 24  1  0
 23 20  1  0
 24 22  2  0
 25 26  1  0
 26 27  2  0
 28 31  1  0
 28 27  1  0
 29 28  2  0
 30 29  1  0
 30 25  2  0
 31 32  1  0
 32 33  1  0
 33 34  2  0
 35 34  1  0
 35 39  1  0
 36 35  2  0
 37 32  2  0
 37 36  1  0
 38 37  1  0
 40 41  1  0
 41 44  1  0
 41 43  1  0
 42 40  2  0
 45 46  1  0
 45 20  1  0
 47 45  1  0
 48 50  1  0
 48  2  1  0
 50 49  1  0
 51 50  1  0
 52 63  2  0
 53 51  1  0
 53 58  1  0
 54 62  1  0
 54 64  1  0
 55 61  1  0
 55 57  1  0
 56 62  1  0
 57 58  2  0
 57 56  1  0
 59 53  2  0
 60 59  1  0
 60 55  2  0
 61 54  1  0
 62 52  1  0
 64 66  2  0
 65 64  1  0
 67 65  1  0
 68 77  2  0
 68 73  1  0
 69 65  1  0
 69 73  1  0
 70 69  1  0
 71 72  1  0
 71 70  1  0
 72 68  1  0
 73 74  2  0
 74 75  1  0
 76 75  2  0
 77 76  1  0
 78 52  1  0
 78 79  1  0
 78 88  1  0
 79 82  1  0
 80 84  1  0
 80 79  1  0
 81 80  2  0
 84 83  1  0
 86 84  1  0
 86 87  1  0
 86 85  1  0
 88 91  1  1
 88 89  1  0
 90 88  1  0
M  ISO  4   3 100  15 100  50 101  51 101
M  END
>  <TORSDO>  (28) 
F 18

>  <SCORE>  (28) 
-13.766

>  <name>  (28) 
27

>  <ligand_id>  (28) 
27

>  <original_smiles>  (28) 
[H]c1c([H])c([H])c2c(c1[H])C([H])([H])C([H])([H])C([H])([H])C2([H])N([H])C(=O)C1([H])N(C(=O)C([H])(N([H])C(=O)C([H])(N([H])C([H])([H])[H])C([H])([H])[H])C(C([H])([H])[H])(C([H])([H])[H])C([H])([H])[H])C([H])([H])c2c([H])c(OC([H])(C([H])([H])[H])C([H])([H])C([H])(N([H])c3nnc(N([H])C(=O)N4C([H])([H])C([H])([H])C([H])([H])C([H])(n5nc(-c6c([H])c([H])c(Oc7c([H])c([H])c(F)c([H])c7F)c([H])c6[H])c(C(=O)N([H])[H])c5N([H])[H])C4([H])[H])s3)C([H])([H])[H])c([H])c([H])c2C1([H])[H]

>  <smiles>  (28) 
[H]c1c([H])c([H])c2c(c1[H])C([H])([H])C([H])([H])C([H])([H])C2([H])N([H])C(=O)C1([H])N(C(=O)C([H])(N([H])C(=O)C([H])(N([H])C([H])([H])[H])C([H])([H])[H])C(C([H])([H])[H])(C([H])([H])[H])C([H])([H])[H])C([H])([H])c2c([H])c(OC([H])(C([H])([H])[H])C([H])([H])C([H])(N([H])c3nnc(N([H])C(=O)N4C([H])([H])C([H])([H])C([H])([H])C([H])(n5nc(-c6c([H])c([H])c(Oc7c([H])c([H])c(F)c([H])c7F)c([H])c6[H])c(C(=O)N([H])[H])c5N([H])[H])C4([H])[H])s3)C([H])([H])[H])c([H])c([H])c2C1([H])[H]

$$$$
28:0:0
     RDKit          3D

 93101  0  0  1  0  0  0  0  0999 V2000
  -32.1380  -23.0340   21.7580 C   0  0  0  0  0  1  0  0  0  0  0  0
  -30.9240  -22.1550   21.4180 C   0  0  0  0  0  3  0  0  0  0  0  0
  -30.5040  -17.7860   23.6590 C   0  0  0  0  0  3  0  0  0  0  0  0
  -30.7340  -17.3040   22.3920 C   0  0  0  0  0  0  0  0  0  0  0  0
  -30.7280  -19.7750   22.5840 C   0  0  0  0  0  0  0  0  0  0  0  0
  -30.5110  -19.1820   23.7550 N   0  0  0  0  0  0  0  0  0  0  0  0
  -30.7620  -21.1600   22.4730 N   0  0  0  0  0  0  0  0  0  0  0  0
  -30.9580  -18.6320   21.2570 S   0  0  0  0  0  0  0  0  0  0  0  0
  -30.6050  -21.5940   23.3750 H   0  0  0  0  0  0  0  0  0  0  0  0
  -30.7370  -15.8440   22.0140 C   0  0  0  0  0  2  0  0  0  0  0  0
  -31.8350  -14.4240   20.2590 C   0  0  0  0  0  0  0  0  0  0  0  0
  -31.2340  -12.4690   18.8890 C   0  0  0  0  0  2  0  0  0  0  0  0
  -30.2900  -12.9240   17.7570 C   0  0  0  0  0  2  0  0  0  0  0  0
  -28.8220  -12.9080   18.2270 C   0  0  0  0  0  2  0  0  0  0  0  0
  -28.6250  -13.6150   19.5960 C   0  0  0  0  0  3  0  0  0  0  0  0
  -29.6760  -13.1280   20.6170 C   0  0  0  0  0  2  0  0  0  0  0  0
  -31.0060  -13.3650   20.0350 N   0  0  0  0  0  0  0  0  0  0  0  0
  -32.9570  -14.5060   19.7600 O   0  0  0  0  0  0  0  0  0  0  0  0
  -31.2720  -15.5690   20.6840 N   0  0  0  0  0  0  0  0  0  0  0  0
  -31.7790  -16.3640   20.3270 H   0  0  0  0  0  0  0  0  0  0  0  0
  -26.3100  -14.4090   20.3930 C   0  0  0  0  0  0  0  0  0  0  0  0
  -25.1820  -13.7210   20.7530 C   0  0  0  0  0  0  0  0  0  0  0  0
  -25.5120  -12.3350   20.6440 C   0  0  0  0  0  0  0  0  0  0  0  0
  -27.2620  -13.4460   20.0950 N   0  0  0  0  0  0  0  0  0  0  0  0
  -26.7860  -12.1910   20.3000 N   0  0  0  0  0  0  0  0  0  0  0  0
  -24.6750  -11.1390   20.7920 C   0  0  0  0  0  0  0  0  0  0  0  0
  -25.0190  -10.1050   21.6910 C   0  0  0  0  0  3  0  0  0  0  0  0
  -24.1890   -8.9720   21.8300 C   0  0  0  0  0  3  0  0  0  0  0  0
  -23.0000   -8.8650   21.0700 C   0  0  0  0  0  0  0  0  0  0  0  0
  -22.6740   -9.8860   20.1600 C   0  0  0  0  0  3  0  0  0  0  0  0
  -23.5040  -11.0110   20.0200 C   0  0  0  0  0  3  0  0  0  0  0  0
  -22.1470   -7.7890   21.1200 O   0  0  0  0  0  0  0  0  0  0  0  0
  -21.9890   -7.0480   22.2640 C   0  0  0  0  0  0  0  0  0  0  0  0
  -21.5850   -7.6350   23.4820 C   0  0  0  0  0  3  0  0  0  0  0  0
  -21.3670   -6.8260   24.6150 C   0  0  0  0  0  3  0  0  0  0  0  0
  -21.5440   -5.4310   24.5300 C   0  0  0  0  0  0  0  0  0  0  0  0
  -21.9410   -4.8450   23.3150 C   0  0  0  0  0  3  0  0  0  0  0  0
  -22.1610   -5.6510   22.1850 C   0  0  0  0  0  0  0  0  0  0  0  0
  -22.5220   -5.0790   21.0120 F   0  0  0  0  0  0  0  0  0  0  0  0
  -21.3280   -4.6530   25.6160 F   0  0  0  0  0  0  0  0  0  0  0  0
  -23.8420  -14.3120   21.0870 C   0  0  0  0  0  0  0  0  0  0  0  0
  -23.0850  -13.6580   21.9610 N   0  0  0  0  0  0  0  0  0  0  0  0
  -23.4800  -15.3870   20.6090 O   0  0  0  0  0  0  0  0  0  0  0  0
  -23.3930  -12.7880   22.3700 H   0  0  0  0  0  0  0  0  0  0  0  0
  -22.1850  -14.0340   22.2250 H   0  0  0  0  0  0  0  0  0  0  0  0
  -26.6010  -15.7640   20.2770 N   0  0  0  0  0  0  0  0  0  0  0  0
  -25.9060  -16.4850   20.4380 H   0  0  0  0  0  0  0  0  0  0  0  0
  -27.4870  -16.1340   19.9580 H   0  0  0  0  0  0  0  0  0  0  0  0
  -28.5740  -22.0450   20.5070 C   0  0  0  0  0  1  0  0  0  0  0  0
  -29.5970  -22.9500   21.2210 C   0  0  0  0  0  3  0  0  0  0  0  0
  -29.7340  -24.3380   20.5180 C   0  0  0  0  0  2  0  0  0  0  0  0
  -28.4100  -25.1300   20.4600 C   0  0  0  0  0  2  0  0  0  0  0  0
  -28.5600  -26.5160   20.1040 O   0  0  0  0  0  0  0  0  0  0  0  0
  -24.7300  -31.7110   23.1200 C   0  0  0  0  0  0  0  0  0  0  0  0
  -27.3830  -27.2430   20.0800 C   0  0  0  0  0  0  0  0  0  0  0  0
  -23.5130  -30.2530   21.5360 C   0  0  0  0  0  3  0  0  0  0  0  0
  -24.9630  -28.7170   20.1120 C   0  0  0  0  0  0  0  0  0  0  0  0
  -26.0290  -30.6520   21.2750 C   0  0  0  0  0  2  0  0  0  0  0  0
  -26.1270  -29.2700   20.6600 C   0  0  0  0  0  0  0  0  0  0  0  0
  -27.3400  -28.5430   20.6400 C   0  0  0  0  0  3  0  0  0  0  0  0
  -26.1980  -26.7110   19.5180 C   0  0  0  0  0  3  0  0  0  0  0  0
  -24.9930  -27.4360   19.5370 C   0  0  0  0  0  3  0  0  0  0  0  0
  -23.7050  -29.5520   20.1660 C   0  0  0  0  0  2  0  0  0  0  0  0
  -24.7770  -30.8870   22.0350 N   0  0  0  0  0  0  0  0  0  0  0  0
  -23.6550  -31.9750   23.6780 O   0  0  0  0  0  0  0  0  0  0  0  0
  -22.9030  -29.2400   22.5320 C   0  0  0  0  0  0  0  0  0  0  0  0
  -21.5910  -28.9860   22.4000 N   0  0  0  0  0  0  0  0  0  0  0  0
  -23.6070  -28.6830   23.3790 O   0  0  0  0  0  0  0  0  0  0  0  0
  -21.0830  -29.4890   21.6860 H   0  0  0  0  0  0  0  0  0  0  0  0
  -18.2960  -27.5700   22.8380 C   0  0  0  0  0  0  0  0  0  0  0  0
  -20.8110  -28.0430   23.2010 C   0  0  0  0  0  3  0  0  0  0  0  0
  -21.0480  -26.5890   22.7310 C   0  0  0  0  0  2  0  0  0  0  0  0
  -20.0220  -26.1130   21.6980 C   0  0  0  0  0  2  0  0  0  0  0  0
  -18.6040  -26.1950   22.2710 C   0  0  0  0  0  2  0  0  0  0  0  0
  -19.3330  -28.4430   23.2600 C   0  0  0  0  0  0  0  0  0  0  0  0
  -18.9940  -29.7240   23.7480 C   0  0  0  0  0  3  0  0  0  0  0  0
  -17.6500  -30.1340   23.8220 C   0  0  0  0  0  3  0  0  0  0  0  0
  -16.6250  -29.2590   23.4180 C   0  0  0  0  0  3  0  0  0  0  0  0
  -16.9490  -27.9800   22.9320 C   0  0  0  0  0  3  0  0  0  0  0  0
  -26.0170  -32.3780   23.6970 C   0  0  0  0  0  3  0  0  0  0  0  0
  -25.6690  -33.7530   24.0790 N   0  0  0  0  0  0  0  0  0  0  0  0
  -26.0050  -34.8440   23.3800 C   0  0  0  0  0  0  0  0  0  0  0  0
  -26.7120  -34.8010   22.3690 O   0  0  0  0  0  0  0  0  0  0  0  0
  -25.0450  -33.8600   24.8660 H   0  0  0  0  0  0  0  0  0  0  0  0
  -24.2610  -36.6220   23.0340 C   0  0  0  0  0  1  0  0  0  0  0  0
  -25.4720  -36.2010   23.8800 C   0  0  0  0  0  3  0  0  0  0  0  0
  -27.5530  -37.0760   24.8440 C   0  0  0  0  0  1  0  0  0  0  0  0
  -26.4880  -37.2740   23.8640 N   0  0  0  0  0  0  0  0  0  0  0  0
  -26.0600  -38.1790   24.0390 H   0  0  0  0  0  0  0  0  0  0  0  0
  -26.6260  -31.5940   24.9240 C   0  0  1  0  0  0  0  0  0  0  0  0
  -25.5980  -31.2850   26.0370 C   0  0  0  0  0  1  0  0  0  0  0  0
  -27.2410  -30.2540   24.4620 C   0  0  0  0  0  1  0  0  0  0  0  0
  -27.7760  -32.4170   25.5520 C   0  0  0  0  0  1  0  0  0  0  0  0
  2  1  1  0
  2  7  1  0
  3  6  1  0
  4  3  2  0
  5  6  2  0
  7  5  1  0
  7  9  1  0
  8  4  1  0
  8  5  1  0
 10  4  1  0
 11 19  1  0
 12 17  1  0
 13 14  1  0
 13 12  1  0
 15 14  1  0
 15 24  1  0
 15 16  1  0
 17 11  1  0
 17 16  1  0
 18 11  2  0
 19 10  1  0
 20 19  1  0
 21 22  2  0
 22 41  1  0
 23 22  1  0
 23 26  1  0
 24 25  1  0
 24 21  1  0
 25 23  2  0
 26 27  1  0
 27 28  2  0
 29 32  1  0
 29 28  1  0
 30 29  2  0
 31 30  1  0
 31 26  2  0
 32 33  1  0
 33 34  1  0
 34 35  2  0
 36 35  1  0
 36 40  1  0
 37 36  2  0
 38 33  2  0
 38 37  1  0
 39 38  1  0
 41 42  1  0
 42 45  1  0
 42 44  1  0
 43 41  2  0
 46 21  1  0
 46 47  1  0
 48 46  1  0
 50 49  1  0
 50  2  1  0
 51 50  1  0
 52 51  1  0
 53 52  1  0
 54 65  2  0
 55 53  1  0
 55 60  1  0
 56 64  1  0
 56 66  1  0
 57 63  1  0
 57 59  1  0
 58 64  1  0
 59 58  1  0
 60 59  2  0
 61 62  1  0
 61 55  2  0
 62 57  2  0
 63 56  1  0
 64 54  1  0
 66 68  2  0
 67 66  1  0
 69 67  1  0
 70 79  2  0
 70 75  1  0
 71 67  1  0
 71 75  1  0
 72 71  1  0
 73 74  1  0
 73 72  1  0
 74 70  1  0
 75 76  2  0
 76 77  1  0
 78 77  2  0
 79 78  1  0
 80 54  1  0
 80 81  1  0
 80 90  1  0
 81 84  1  0
 82 86  1  0
 82 81  1  0
 83 82  2  0
 86 85  1  0
 88 86  1  0
 88 89  1  0
 88 87  1  0
 90 93  1  1
 90 91  1  0
 92 90  1  0
M  ISO  4  11 100  19 100  52 101  53 101
M  END
>  <TORSDO>  (29) 
F 21

>  <SCORE>  (29) 
-9.416

>  <name>  (29) 
28

>  <ligand_id>  (29) 
28

>  <original_smiles>  (29) 
[H]c1nc(N([H])C([H])(C([H])([H])[H])C([H])(C([H])([H])[H])C([H])([H])C([H])([H])Oc2c([H])c([H])c3c(c2[H])C([H])([H])N(C(=O)C([H])(N([H])C(=O)C([H])(N([H])C([H])([H])[H])C([H])([H])[H])C(C([H])([H])[H])(C([H])([H])[H])C([H])([H])[H])C([H])(C(=O)N([H])C2([H])c4c([H])c([H])c([H])c([H])c4C([H])([H])C([H])([H])C2([H])[H])C3([H])[H])sc1C([H])([H])N([H])C(=O)N1C([H])([H])C([H])([H])C([H])([H])C([H])(n2nc(-c3c([H])c([H])c(Oc4c([H])c([H])c(F)c([H])c4F)c([H])c3[H])c(C(=O)N([H])[H])c2N([H])[H])C1([H])[H]

>  <smiles>  (29) 
[H]c1nc(N([H])C([H])(C([H])([H])[H])C([H])(C([H])([H])[H])C([H])([H])C([H])([H])Oc2c([H])c([H])c3c(c2[H])C([H])([H])N(C(=O)C([H])(N([H])C(=O)C([H])(N([H])C([H])([H])[H])C([H])([H])[H])C(C([H])([H])[H])(C([H])([H])[H])C([H])([H])[H])C([H])(C(=O)N([H])C2([H])c4c([H])c([H])c([H])c([H])c4C([H])([H])C([H])([H])C2([H])[H])C3([H])[H])sc1C([H])([H])N([H])C(=O)N1C([H])([H])C([H])([H])C([H])([H])C([H])(n2nc(-c3c([H])c([H])c(Oc4c([H])c([H])c(F)c([H])c4F)c([H])c3[H])c(C(=O)N([H])[H])c2N([H])[H])C1([H])[H]

$$$$
29:0:0
     RDKit          3D

 91 99  0  0  1  0  0  0  0  0999 V2000
  -28.7910  -22.1920   19.9970 C   0  0  0  0  0  2  0  0  0  0  0  0
  -29.1340  -20.9470   20.7960 N   0  0  0  0  0  0  0  0  0  0  0  0
  -28.6780  -20.9150   21.7040 H   0  0  0  0  0  0  0  0  0  0  0  0
  -30.5590  -14.7520   20.3460 C   0  0  0  0  0  0  0  0  0  0  0  0
  -30.3720  -12.4750   19.3410 C   0  0  0  0  0  2  0  0  0  0  0  0
  -29.4400  -12.5610   18.1100 C   0  0  0  0  0  2  0  0  0  0  0  0
  -27.9680  -12.3830   18.5350 C   0  0  0  0  0  2  0  0  0  0  0  0
  -27.5930  -13.2600   19.7590 C   0  0  0  0  0  3  0  0  0  0  0  0
  -28.6490  -13.1610   20.8820 C   0  0  0  0  0  2  0  0  0  0  0  0
  -29.9500  -13.5180   20.3000 N   0  0  0  0  0  0  0  0  0  0  0  0
  -31.7330  -14.8590   19.9660 O   0  0  0  0  0  0  0  0  0  0  0  0
  -30.3520  -19.4800   19.1590 C   0  0  0  0  0  3  0  0  0  0  0  0
  -29.5900  -19.6530   20.2890 C   0  0  0  0  0  0  0  0  0  0  0  0
  -29.9520  -17.2780   20.2970 C   0  0  0  0  0  0  0  0  0  0  0  0
  -29.3630  -18.3650   20.9090 N   0  0  0  0  0  0  0  0  0  0  0  0
  -29.8030  -15.8570   20.6960 N   0  0  0  0  0  0  0  0  0  0  0  0
  -30.8400  -17.8100   18.8690 S   0  0  0  0  0  0  0  0  0  0  0  0
  -28.9300  -15.6390   21.1490 H   0  0  0  0  0  0  0  0  0  0  0  0
  -25.2100  -13.8480   20.4960 C   0  0  0  0  0  0  0  0  0  0  0  0
  -24.1450  -13.0740   20.8680 C   0  0  0  0  0  0  0  0  0  0  0  0
  -24.6100  -11.7220   20.8380 C   0  0  0  0  0  0  0  0  0  0  0  0
  -26.2520  -12.9680   20.2510 N   0  0  0  0  0  0  0  0  0  0  0  0
  -25.8990  -11.6850   20.5220 N   0  0  0  0  0  0  0  0  0  0  0  0
  -23.8840  -10.4600   21.0370 C   0  0  0  0  0  0  0  0  0  0  0  0
  -24.3310   -9.4910   21.9630 C   0  0  0  0  0  3  0  0  0  0  0  0
  -23.6070   -8.2920   22.1480 C   0  0  0  0  0  3  0  0  0  0  0  0
  -22.4240   -8.0580   21.4080 C   0  0  0  0  0  0  0  0  0  0  0  0
  -21.9970   -9.0160   20.4720 C   0  0  0  0  0  3  0  0  0  0  0  0
  -22.7210  -10.2050   20.2850 C   0  0  0  0  0  3  0  0  0  0  0  0
  -21.6700   -6.9120   21.5020 O   0  0  0  0  0  0  0  0  0  0  0  0
  -21.6460   -6.1590   22.6490 C   0  0  0  0  0  0  0  0  0  0  0  0
  -21.2550   -6.7060   23.8910 C   0  0  0  0  0  3  0  0  0  0  0  0
  -21.1760   -5.8790   25.0290 C   0  0  0  0  0  3  0  0  0  0  0  0
  -21.4790   -4.5090   24.9270 C   0  0  0  0  0  0  0  0  0  0  0  0
  -21.8640   -3.9610   23.6910 C   0  0  0  0  0  3  0  0  0  0  0  0
  -21.9440   -4.7860   22.5540 C   0  0  0  0  0  0  0  0  0  0  0  0
  -22.2960   -4.2500   21.3600 F   0  0  0  0  0  0  0  0  0  0  0  0
  -21.3970   -3.7130   26.0200 F   0  0  0  0  0  0  0  0  0  0  0  0
  -22.7490  -13.5520   21.1440 C   0  0  0  0  0  0  0  0  0  0  0  0
  -22.0220  -12.8600   22.0120 N   0  0  0  0  0  0  0  0  0  0  0  0
  -22.3110  -14.5750   20.6220 O   0  0  0  0  0  0  0  0  0  0  0  0
  -22.3900  -12.0370   22.4640 H   0  0  0  0  0  0  0  0  0  0  0  0
  -21.0850  -13.1640   22.2330 H   0  0  0  0  0  0  0  0  0  0  0  0
  -25.3690  -15.2180   20.3170 N   0  0  0  0  0  0  0  0  0  0  0  0
  -24.5930  -15.8650   20.4220 H   0  0  0  0  0  0  0  0  0  0  0  0
  -26.2140  -15.6620   19.9800 H   0  0  0  0  0  0  0  0  0  0  0  0
  -28.7770  -23.6450   20.7260 C   0  0  0  0  0  3  0  0  0  0  0  0
  -28.1700  -23.4120   21.9910 O   0  0  0  0  0  0  0  0  0  0  0  0
  -28.8220  -22.9930   22.5430 H   0  0  0  0  0  0  0  0  0  0  0  0
  -27.9740  -24.8730   20.0300 C   0  0  0  0  0  2  0  0  0  0  0  0
  -28.2380  -26.3380   20.2940 O   0  0  0  0  0  0  0  0  0  0  0  0
  -24.6170  -31.8910   23.2360 C   0  0  0  0  0  0  0  0  0  0  0  0
  -27.1680  -27.2600   20.1930 C   0  0  0  0  0  0  0  0  0  0  0  0
  -23.3990  -30.4920   21.6120 C   0  0  0  0  0  3  0  0  0  0  0  0
  -24.8310  -28.9350   20.1730 C   0  0  0  0  0  0  0  0  0  0  0  0
  -25.9440  -30.7830   21.4190 C   0  0  0  0  0  2  0  0  0  0  0  0
  -26.0080  -29.4010   20.7720 C   0  0  0  0  0  0  0  0  0  0  0  0
  -27.1790  -28.5750   20.7740 C   0  0  0  0  0  3  0  0  0  0  0  0
  -25.9770  -26.8850   19.5280 C   0  0  0  0  0  3  0  0  0  0  0  0
  -24.8210  -27.6860   19.5370 C   0  0  0  0  0  3  0  0  0  0  0  0
  -23.6020  -29.8190   20.2300 C   0  0  0  0  0  2  0  0  0  0  0  0
  -24.6730  -31.0740   22.1450 N   0  0  0  0  0  0  0  0  0  0  0  0
  -23.5390  -32.1780   23.7750 O   0  0  0  0  0  0  0  0  0  0  0  0
  -22.7380  -29.4810   22.5780 C   0  0  0  0  0  0  0  0  0  0  0  0
  -21.4100  -29.3050   22.4580 N   0  0  0  0  0  0  0  0  0  0  0  0
  -23.4170  -28.8580   23.3980 O   0  0  0  0  0  0  0  0  0  0  0  0
  -20.9200  -29.8600   21.7720 H   0  0  0  0  0  0  0  0  0  0  0  0
  -18.0350  -28.1050   22.9760 C   0  0  0  0  0  0  0  0  0  0  0  0
  -20.5930  -28.3730   23.2380 C   0  0  0  0  0  3  0  0  0  0  0  0
  -20.6940  -26.9350   22.6790 C   0  0  0  0  0  2  0  0  0  0  0  0
  -19.5920  -26.6000   21.6690 C   0  0  0  0  0  2  0  0  0  0  0  0
  -18.2110  -26.7490   22.3130 C   0  0  0  0  0  2  0  0  0  0  0  0
  -19.1520  -28.8740   23.3960 C   0  0  0  0  0  0  0  0  0  0  0  0
  -18.9320  -30.1410   23.9770 C   0  0  0  0  0  3  0  0  0  0  0  0
  -17.6270  -30.6410   24.1400 C   0  0  0  0  0  3  0  0  0  0  0  0
  -16.5230  -29.8700   23.7350 C   0  0  0  0  0  3  0  0  0  0  0  0
  -16.7270  -28.6040   23.1590 C   0  0  0  0  0  3  0  0  0  0  0  0
  -25.9060  -32.5220   23.8480 C   0  0  0  0  0  3  0  0  0  0  0  0
  -26.4340  -31.7480   25.1180 C   0  0  1  0  0  0  0  0  0  0  0  0
  -25.3530  -31.5080   26.1960 C   0  0  0  0  0  1  0  0  0  0  0  0
  -27.0110  -30.3700   24.7170 C   0  0  0  0  0  1  0  0  0  0  0  0
  -27.5940  -32.5390   25.7670 C   0  0  0  0  0  1  0  0  0  0  0  0
  -25.5990  -33.9200   24.1880 N   0  0  0  0  0  0  0  0  0  0  0  0
  -25.9200  -34.9760   23.4300 C   0  0  0  0  0  0  0  0  0  0  0  0
  -26.5760  -34.8770   22.3890 O   0  0  0  0  0  0  0  0  0  0  0  0
  -25.0120  -34.0720   24.9950 H   0  0  0  0  0  0  0  0  0  0  0  0
  -24.1820  -36.7690   23.1110 C   0  0  0  0  0  1  0  0  0  0  0  0
  -25.4370  -36.3630   23.9000 C   0  0  0  0  0  3  0  0  0  0  0  0
  -27.5860  -37.2470   24.6960 C   0  0  0  0  0  1  0  0  0  0  0  0
  -26.4680  -37.4180   23.7730 N   0  0  0  0  0  0  0  0  0  0  0  0
  -26.0640  -38.3370   23.9290 H   0  0  0  0  0  0  0  0  0  0  0  0
  1  2  1  0
  2  3  1  0
  4 16  1  0
  5 10  1  0
  6  7  1  0
  6  5  1  0
  8  7  1  0
  8 22  1  0
  8  9  1  0
 10  4  1  0
 10  9  1  0
 11  4  2  0
 12 13  2  0
 13  2  1  0
 13 15  1  0
 14 16  1  0
 14 15  2  0
 16 18  1  0
 17 12  1  0
 17 14  1  0
 19 20  2  0
 20 39  1  0
 21 20  1  0
 21 24  1  0
 22 19  1  0
 22 23  1  0
 23 21  2  0
 24 25  1  0
 25 26  2  0
 27 30  1  0
 27 26  1  0
 28 27  2  0
 29 28  1  0
 29 24  2  0
 30 31  1  0
 31 32  1  0
 32 33  2  0
 34 33  1  0
 34 38  1  0
 35 34  2  0
 36 31  2  0
 36 35  1  0
 37 36  1  0
 39 40  1  0
 40 43  1  0
 40 42  1  0
 41 39  2  0
 44 45  1  0
 44 19  1  0
 46 44  1  0
 47  1  1  0
 47 48  1  0
 48 49  1  0
 50 51  1  0
 50 47  1  0
 52 63  2  0
 53 51  1  0
 53 58  1  0
 54 62  1  0
 54 64  1  0
 55 61  1  0
 55 57  1  0
 56 62  1  0
 57 58  2  0
 57 56  1  0
 59 60  1  0
 59 53  2  0
 60 55  2  0
 61 54  1  0
 62 52  1  0
 64 66  2  0
 65 64  1  0
 67 65  1  0
 68 77  2  0
 68 73  1  0
 69 65  1  0
 69 73  1  0
 70 69  1  0
 71 72  1  0
 71 70  1  0
 72 68  1  0
 73 74  2  0
 74 75  1  0
 76 75  2  0
 77 76  1  0
 78 52  1  0
 78 83  1  0
 78 79  1  0
 79 82  1  1
 79 80  1  0
 81 79  1  0
 83 86  1  0
 84 88  1  0
 84 83  1  0
 85 84  2  0
 88 87  1  0
 90 88  1  0
 90 91  1  0
 90 89  1  0
M  ISO  4   4 100  16 100  50 101  51 101
M  END
>  <TORSDO>  (30) 
F 20

>  <SCORE>  (30) 
-14.120

>  <name>  (30) 
29

>  <ligand_id>  (30) 
29

>  <original_smiles>  (30) 
[H]OC([H])(C([H])([H])Oc1c([H])c([H])c2c(c1[H])C([H])([H])N(C(=O)C([H])(N([H])C(=O)C([H])(N([H])C([H])([H])[H])C([H])([H])[H])C(C([H])([H])[H])(C([H])([H])[H])C([H])([H])[H])C([H])(C(=O)N([H])C1([H])c3c([H])c([H])c([H])c([H])c3C([H])([H])C([H])([H])C1([H])[H])C2([H])[H])C([H])([H])N([H])c1nc(N([H])C(=O)N2C([H])([H])C([H])([H])C([H])([H])C([H])(n3nc(-c4c([H])c([H])c(Oc5c([H])c([H])c(F)c([H])c5F)c([H])c4[H])c(C(=O)N([H])[H])c3N([H])[H])C2([H])[H])sc1[H]

>  <smiles>  (30) 
[H]OC([H])(C([H])([H])Oc1c([H])c([H])c2c(c1[H])C([H])([H])N(C(=O)C([H])(N([H])C(=O)C([H])(N([H])C([H])([H])[H])C([H])([H])[H])C(C([H])([H])[H])(C([H])([H])[H])C([H])([H])[H])C([H])(C(=O)N([H])C1([H])c3c([H])c([H])c([H])c([H])c3C([H])([H])C([H])([H])C1([H])[H])C2([H])[H])C([H])([H])N([H])c1nc(N([H])C(=O)N2C([H])([H])C([H])([H])C([H])([H])C([H])(n3nc(-c4c([H])c([H])c(Oc5c([H])c([H])c(F)c([H])c5F)c([H])c4[H])c(C(=O)N([H])[H])c3N([H])[H])C2([H])[H])sc1[H]

$$$$
30:0:0
     RDKit          3D

 92100  0  0  1  0  0  0  0  0999 V2000
  -28.9580  -22.9670   20.8600 C   0  0  0  0  0  2  0  0  0  0  0  0
  -29.7640  -21.7870   20.2690 C   0  0  0  0  0  2  0  0  0  0  0  0
  -30.7780  -14.4750   20.1210 C   0  0  0  0  0  0  0  0  0  0  0  0
  -30.3970  -12.3630   18.9080 C   0  0  0  0  0  2  0  0  0  0  0  0
  -29.3840  -12.6230   17.7730 C   0  0  0  0  0  2  0  0  0  0  0  0
  -27.9380  -12.4770   18.2850 C   0  0  0  0  0  2  0  0  0  0  0  0
  -27.6840  -13.2680   19.5970 C   0  0  0  0  0  3  0  0  0  0  0  0
  -28.8010  -12.9870   20.6280 C   0  0  0  0  0  2  0  0  0  0  0  0
  -30.0980  -13.3020   20.0010 N   0  0  0  0  0  0  0  0  0  0  0  0
  -31.8510  -14.6820   19.5450 O   0  0  0  0  0  0  0  0  0  0  0  0
  -30.2210  -16.8280   20.7290 C   0  0  0  0  0  0  0  0  0  0  0  0
  -29.9160  -19.2190   20.7760 C   0  0  0  0  0  0  0  0  0  0  0  0
  -30.9250  -17.4560   19.7690 N   0  0  0  0  0  0  0  0  0  0  0  0
  -30.7450  -18.8370   19.7960 N   0  0  0  0  0  0  0  0  0  0  0  0
  -30.1620  -15.4110   20.8650 N   0  0  0  0  0  0  0  0  0  0  0  0
  -29.5400  -20.5400   21.0000 N   0  0  0  0  0  0  0  0  0  0  0  0
  -29.2850  -17.9040   21.7660 S   0  0  0  0  0  0  0  0  0  0  0  0
  -29.3990  -15.0700   21.4270 H   0  0  0  0  0  0  0  0  0  0  0  0
  -28.9240  -20.6350   21.8020 H   0  0  0  0  0  0  0  0  0  0  0  0
  -25.3330  -13.8630   20.4600 C   0  0  0  0  0  0  0  0  0  0  0  0
  -24.2840  -13.0830   20.8690 C   0  0  0  0  0  0  0  0  0  0  0  0
  -24.7360  -11.7310   20.7700 C   0  0  0  0  0  0  0  0  0  0  0  0
  -26.3580  -12.9850   20.1430 N   0  0  0  0  0  0  0  0  0  0  0  0
  -26.0050  -11.6970   20.3840 N   0  0  0  0  0  0  0  0  0  0  0  0
  -24.0160  -10.4660   20.9650 C   0  0  0  0  0  0  0  0  0  0  0  0
  -24.4670   -9.4950   21.8860 C   0  0  0  0  0  3  0  0  0  0  0  0
  -23.7480   -8.2940   22.0690 C   0  0  0  0  0  3  0  0  0  0  0  0
  -22.5640   -8.0560   21.3300 C   0  0  0  0  0  0  0  0  0  0  0  0
  -22.1330   -9.0160   20.3990 C   0  0  0  0  0  3  0  0  0  0  0  0
  -22.8520  -10.2080   20.2130 C   0  0  0  0  0  3  0  0  0  0  0  0
  -21.8160   -6.9080   21.4240 O   0  0  0  0  0  0  0  0  0  0  0  0
  -21.7400   -6.1910   22.5910 C   0  0  0  0  0  0  0  0  0  0  0  0
  -21.2770   -6.7690   23.7920 C   0  0  0  0  0  3  0  0  0  0  0  0
  -21.1500   -5.9770   24.9510 C   0  0  0  0  0  3  0  0  0  0  0  0
  -21.4750   -4.6070   24.9090 C   0  0  0  0  0  0  0  0  0  0  0  0
  -21.9310   -4.0290   23.7120 C   0  0  0  0  0  3  0  0  0  0  0  0
  -22.0600   -4.8190   22.5550 C   0  0  0  0  0  0  0  0  0  0  0  0
  -22.4800   -4.2510   21.3980 F   0  0  0  0  0  0  0  0  0  0  0  0
  -21.3460   -3.8450   26.0200 F   0  0  0  0  0  0  0  0  0  0  0  0
  -22.9080  -13.5560   21.2400 C   0  0  0  0  0  0  0  0  0  0  0  0
  -22.2310  -12.8370   22.1270 N   0  0  0  0  0  0  0  0  0  0  0  0
  -22.4440  -14.5980   20.7780 O   0  0  0  0  0  0  0  0  0  0  0  0
  -22.6200  -11.9930   22.5220 H   0  0  0  0  0  0  0  0  0  0  0  0
  -21.3100  -13.1340   22.4170 H   0  0  0  0  0  0  0  0  0  0  0  0
  -25.4940  -15.2370   20.3130 N   0  0  0  0  0  0  0  0  0  0  0  0
  -24.7370  -15.8910   20.4810 H   0  0  0  0  0  0  0  0  0  0  0  0
  -26.3200  -15.6800   19.9300 H   0  0  0  0  0  0  0  0  0  0  0  0
  -29.0750  -24.3150   20.0990 C   0  0  0  0  0  3  0  0  0  0  0  0
  -28.5030  -24.1520   18.8120 O   0  0  0  0  0  0  0  0  0  0  0  0
  -28.5250  -25.0090   18.3930 H   0  0  0  0  0  0  0  0  0  0  0  0
  -28.2850  -25.4320   20.8170 C   0  0  0  0  0  2  0  0  0  0  0  0
  -28.4530  -26.7190   20.1980 O   0  0  0  0  0  0  0  0  0  0  0  0
  -24.5760  -31.8780   23.1950 C   0  0  0  0  0  0  0  0  0  0  0  0
  -27.2970  -27.4650   20.1570 C   0  0  0  0  0  0  0  0  0  0  0  0
  -23.4050  -30.4720   21.5290 C   0  0  0  0  0  3  0  0  0  0  0  0
  -24.8930  -28.9490   20.1250 C   0  0  0  0  0  0  0  0  0  0  0  0
  -25.9310  -30.8510   21.3730 C   0  0  0  0  0  2  0  0  0  0  0  0
  -26.0380  -29.4840   20.7310 C   0  0  0  0  0  0  0  0  0  0  0  0
  -27.2460  -28.7500   20.7420 C   0  0  0  0  0  3  0  0  0  0  0  0
  -26.1390  -26.9470   19.5360 C   0  0  0  0  0  3  0  0  0  0  0  0
  -24.9390  -27.6800   19.5220 C   0  0  0  0  0  3  0  0  0  0  0  0
  -23.6420  -29.7980   20.1520 C   0  0  0  0  0  2  0  0  0  0  0  0
  -24.6540  -31.0810   22.0910 N   0  0  0  0  0  0  0  0  0  0  0  0
  -23.4840  -32.1430   23.7160 O   0  0  0  0  0  0  0  0  0  0  0  0
  -22.7440  -29.4460   22.4760 C   0  0  0  0  0  0  0  0  0  0  0  0
  -21.4200  -29.2650   22.3310 N   0  0  0  0  0  0  0  0  0  0  0  0
  -23.4170  -28.8160   23.2960 O   0  0  0  0  0  0  0  0  0  0  0  0
  -20.9390  -29.8250   21.6420 H   0  0  0  0  0  0  0  0  0  0  0  0
  -18.0420  -28.0660   22.7730 C   0  0  0  0  0  0  0  0  0  0  0  0
  -20.5940  -28.3230   23.0860 C   0  0  0  0  0  3  0  0  0  0  0  0
  -20.7070  -26.8950   22.5060 C   0  0  0  0  0  2  0  0  0  0  0  0
  -19.6210  -26.5760   21.4740 C   0  0  0  0  0  2  0  0  0  0  0  0
  -18.2300  -26.7180   22.0970 C   0  0  0  0  0  2  0  0  0  0  0  0
  -19.1530  -28.8270   23.2240 C   0  0  0  0  0  0  0  0  0  0  0  0
  -18.9250  -30.0880   23.8140 C   0  0  0  0  0  3  0  0  0  0  0  0
  -17.6180  -30.5890   23.9600 C   0  0  0  0  0  3  0  0  0  0  0  0
  -16.5200  -29.8250   23.5270 C   0  0  0  0  0  3  0  0  0  0  0  0
  -16.7330  -28.5650   22.9390 C   0  0  0  0  0  3  0  0  0  0  0  0
  -25.8480  -32.5140   23.8370 C   0  0  0  0  0  3  0  0  0  0  0  0
  -26.3540  -31.7380   25.1150 C   0  0  1  0  0  0  0  0  0  0  0  0
  -25.2470  -31.4830   26.1660 C   0  0  0  0  0  1  0  0  0  0  0  0
  -26.9530  -30.3670   24.7190 C   0  0  0  0  0  1  0  0  0  0  0  0
  -27.4880  -32.5360   25.7990 C   0  0  0  0  0  1  0  0  0  0  0  0
  -25.5270  -33.9070   24.1680 N   0  0  0  0  0  0  0  0  0  0  0  0
  -25.8640  -34.9640   23.4170 C   0  0  0  0  0  0  0  0  0  0  0  0
  -26.5490  -34.8680   22.3950 O   0  0  0  0  0  0  0  0  0  0  0  0
  -24.9200  -34.0560   24.9610 H   0  0  0  0  0  0  0  0  0  0  0  0
  -24.1280  -36.7440   23.0420 C   0  0  0  0  0  1  0  0  0  0  0  0
  -25.3610  -36.3480   23.8700 C   0  0  0  0  0  3  0  0  0  0  0  0
  -27.4770  -37.2440   24.7310 C   0  0  0  0  0  1  0  0  0  0  0  0
  -26.3870  -37.4080   23.7730 N   0  0  0  0  0  0  0  0  0  0  0  0
  -25.9730  -38.3250   23.9170 H   0  0  0  0  0  0  0  0  0  0  0  0
  2  1  1  0
  2 16  1  0
  3 15  1  0
  4  9  1  0
  5  6  1  0
  5  4  1  0
  7  6  1  0
  7 23  1  0
  7  8  1  0
  9  3  1  0
  9  8  1  0
 10  3  2  0
 11 15  1  0
 11 17  1  0
 12 16  1  0
 12 17  1  0
 13 14  1  0
 13 11  2  0
 14 12  2  0
 15 18  1  0
 16 19  1  0
 20 21  2  0
 21 40  1  0
 22 21  1  0
 22 25  1  0
 23 24  1  0
 23 20  1  0
 24 22  2  0
 25 26  1  0
 26 27  2  0
 28 31  1  0
 28 27  1  0
 29 28  2  0
 30 29  1  0
 30 25  2  0
 31 32  1  0
 32 33  1  0
 33 34  2  0
 35 34  1  0
 35 39  1  0
 36 35  2  0
 37 32  2  0
 37 36  1  0
 38 37  1  0
 40 41  1  0
 41 44  1  0
 41 43  1  0
 42 40  2  0
 45 20  1  0
 45 46  1  0
 47 45  1  0
 48 51  1  0
 48  1  1  0
 49 48  1  0
 50 49  1  0
 52 51  1  0
 53 64  2  0
 54 52  1  0
 54 59  1  0
 55 63  1  0
 55 65  1  0
 56 62  1  0
 56 58  1  0
 57 63  1  0
 58 59  2  0
 58 57  1  0
 60 54  2  0
 61 60  1  0
 61 56  2  0
 62 55  1  0
 63 53  1  0
 65 67  2  0
 66 65  1  0
 68 66  1  0
 69 78  2  0
 69 74  1  0
 70 66  1  0
 70 74  1  0
 71 70  1  0
 72 73  1  0
 72 71  1  0
 73 69  1  0
 74 75  2  0
 75 76  1  0
 77 76  2  0
 78 77  1  0
 79 53  1  0
 79 84  1  0
 79 80  1  0
 80 83  1  1
 80 81  1  0
 82 80  1  0
 84 87  1  0
 85 89  1  0
 85 84  1  0
 86 85  2  0
 89 88  1  0
 91 89  1  0
 91 92  1  0
 91 90  1  0
M  ISO  4   3 100  15 100  51 101  52 101
M  END
>  <TORSDO>  (31) 
F 20

>  <SCORE>  (31) 
-12.994

>  <name>  (31) 
30

>  <ligand_id>  (31) 
30

>  <original_smiles>  (31) 
[H]OC([H])(C([H])([H])Oc1c([H])c([H])c2c(c1[H])C([H])([H])N(C(=O)C([H])(N([H])C(=O)C([H])(N([H])C([H])([H])[H])C([H])([H])[H])C(C([H])([H])[H])(C([H])([H])[H])C([H])([H])[H])C([H])(C(=O)N([H])C1([H])c3c([H])c([H])c([H])c([H])c3C([H])([H])C([H])([H])C1([H])[H])C2([H])[H])C([H])([H])C([H])([H])N([H])c1nnc(N([H])C(=O)N2C([H])([H])C([H])([H])C([H])([H])C([H])(n3nc(-c4c([H])c([H])c(Oc5c([H])c([H])c(F)c([H])c5F)c([H])c4[H])c(C(=O)N([H])[H])c3N([H])[H])C2([H])[H])s1

>  <smiles>  (31) 
[H]OC([H])(C([H])([H])Oc1c([H])c([H])c2c(c1[H])C([H])([H])N(C(=O)C([H])(N([H])C(=O)C([H])(N([H])C([H])([H])[H])C([H])([H])[H])C(C([H])([H])[H])(C([H])([H])[H])C([H])([H])[H])C([H])(C(=O)N([H])C1([H])c3c([H])c([H])c([H])c([H])c3C([H])([H])C([H])([H])C1([H])[H])C2([H])[H])C([H])([H])C([H])([H])N([H])c1nnc(N([H])C(=O)N2C([H])([H])C([H])([H])C([H])([H])C([H])(n3nc(-c4c([H])c([H])c(Oc5c([H])c([H])c(F)c([H])c5F)c([H])c4[H])c(C(=O)N([H])[H])c3N([H])[H])C2([H])[H])s1

$$$$
31:0:0
     RDKit          3D

100108  0  0  1  0  0  0  0  0999 V2000
  -23.8560  -22.4250   19.2840 C   0  0  0  0  0  3  0  0  0  0  0  0
  -23.5800  -23.8190   18.9640 N   0  0  0  0  0  4  0  0  0  0  0  0
  -23.7830  -23.8490   17.9790 H   0  0  0  0  0  0  0  0  0  0  0  0
  -22.6490  -24.1490   18.7830 H   0  0  0  0  0  0  0  0  0  0  0  0
  -24.8240  -24.6060   19.5260 C   0  0  0  0  0  2  0  0  0  0  0  0
  -26.2480  -23.9310   20.3560 C   0  0  0  0  0  2  0  0  0  0  0  0
  -27.3260  -22.5060   20.5630 C   0  0  0  0  0  2  0  0  0  0  0  0
  -27.8510  -19.5460   20.0970 C   0  0  0  0  0  2  0  0  0  0  0  0
  -29.3240  -20.9800   20.6010 C   0  0  0  0  0  2  0  0  0  0  0  0
  -29.1110  -18.7740   20.3810 C   0  0  0  0  0  3  0  0  0  0  0  0
  -29.9360  -19.8340   20.8680 N   0  0  0  0  0  2  0  0  0  0  0  0
  -28.0090  -21.0170   20.2500 N   0  0  0  0  0  0  0  0  0  0  0  0
  -30.4800  -16.0300   20.5170 C   0  0  0  0  0  0  0  0  0  0  0  0
  -30.7540  -13.5210   19.7240 C   0  0  0  0  0  2  0  0  0  0  0  0
  -29.8800  -13.1090   18.4860 C   0  0  0  0  0  2  0  0  0  0  0  0
  -28.4620  -12.7600   18.9130 C   0  0  0  0  0  2  0  0  0  0  0  0
  -27.8960  -13.8610   19.8340 C   0  0  0  0  0  3  0  0  0  0  0  0
  -28.8390  -14.1070   21.0250 C   0  0  0  0  0  2  0  0  0  0  0  0
  -30.0580  -14.6630   20.4670 N   0  0  0  0  0  0  0  0  0  0  0  0
  -31.6950  -16.1310   20.3890 O   0  0  0  0  0  0  0  0  0  0  0  0
  -29.5400  -17.1950   20.3060 N   0  0  0  0  0  0  0  0  0  0  0  0
  -30.4790  -17.5280   19.9740 H   0  0  0  0  0  0  0  0  0  0  0  0
  -25.5150  -14.4620   20.5320 C   0  0  0  0  0  0  0  0  0  0  0  0
  -24.4300  -13.6820   20.8410 C   0  0  0  0  0  0  0  0  0  0  0  0
  -24.8980  -12.3340   20.7940 C   0  0  0  0  0  0  0  0  0  0  0  0
  -26.5560  -13.5760   20.3080 N   0  0  0  0  0  0  0  0  0  0  0  0
  -26.2000  -12.2900   20.5450 N   0  0  0  0  0  0  0  0  0  0  0  0
  -24.1700  -11.0650   20.9200 C   0  0  0  0  0  0  0  0  0  0  0  0
  -24.5610  -10.0840   21.8590 C   0  0  0  0  0  3  0  0  0  0  0  0
  -23.8440   -8.8740   21.9660 C   0  0  0  0  0  3  0  0  0  0  0  0
  -22.7220   -8.6440   21.1350 C   0  0  0  0  0  0  0  0  0  0  0  0
  -22.3500   -9.6110   20.1880 C   0  0  0  0  0  3  0  0  0  0  0  0
  -23.0680  -10.8130   20.0790 C   0  0  0  0  0  3  0  0  0  0  0  0
  -21.9760   -7.4930   21.1530 O   0  0  0  0  0  0  0  0  0  0  0  0
  -21.8270   -6.7550   22.2990 C   0  0  0  0  0  0  0  0  0  0  0  0
  -21.2940   -7.3140   23.4820 C   0  0  0  0  0  3  0  0  0  0  0  0
  -21.0960   -6.5010   24.6150 C   0  0  0  0  0  3  0  0  0  0  0  0
  -21.4200   -5.1330   24.5660 C   0  0  0  0  0  0  0  0  0  0  0  0
  -21.9480   -4.5740   23.3880 C   0  0  0  0  0  3  0  0  0  0  0  0
  -22.1500   -5.3840   22.2580 C   0  0  0  0  0  0  0  0  0  0  0  0
  -22.6400   -4.8410   21.1170 F   0  0  0  0  0  0  0  0  0  0  0  0
  -21.2200   -4.3480   25.6500 F   0  0  0  0  0  0  0  0  0  0  0  0
  -23.0230  -14.1580   21.0410 C   0  0  0  0  0  0  0  0  0  0  0  0
  -22.2520  -13.4430   21.8570 N   0  0  0  0  0  0  0  0  0  0  0  0
  -22.6110  -15.1910   20.5190 O   0  0  0  0  0  0  0  0  0  0  0  0
  -22.5850  -12.6040   22.3040 H   0  0  0  0  0  0  0  0  0  0  0  0
  -21.3040  -13.7420   22.0390 H   0  0  0  0  0  0  0  0  0  0  0  0
  -25.6960  -15.8280   20.3870 N   0  0  0  0  0  0  0  0  0  0  0  0
  -24.9290  -16.4810   20.5060 H   0  0  0  0  0  0  0  0  0  0  0  0
  -26.5630  -16.2620   20.1020 H   0  0  0  0  0  0  0  0  0  0  0  0
  -23.7630  -22.6450   20.9630 C   0  0  0  0  0  2  0  0  0  0  0  0
  -22.0200  -24.6890   21.7710 C   0  0  0  0  0  1  0  0  0  0  0  0
  -23.8920  -24.0490   23.2550 C   0  0  0  0  0  1  0  0  0  0  0  0
  -22.9010  -23.4640   22.1180 C   0  0  0  0  0  3  0  0  0  0  0  0
  -25.1380  -22.4230   18.1680 C   0  0  0  0  0  3  0  0  0  0  0  0
  -24.2450  -22.2200   16.9770 O   0  0  0  0  0  0  0  0  0  0  0  0
  -23.9850  -21.3220   16.7760 H   0  0  0  0  0  0  0  0  0  0  0  0
  -26.4090  -23.4890   17.5130 C   0  0  0  0  0  2  0  0  0  0  0  0
  -27.3010  -25.0490   17.6700 C   0  0  0  0  0  2  0  0  0  0  0  0
  -27.7160  -26.3280   18.5580 O   0  0  0  0  0  0  0  0  0  0  0  0
  -24.5390  -31.7730   22.8600 C   0  0  0  0  0  0  0  0  0  0  0  0
  -26.8790  -27.4410   18.9730 C   0  0  0  0  0  0  0  0  0  0  0  0
  -23.3120  -30.5900   21.1340 C   0  0  0  0  0  3  0  0  0  0  0  0
  -24.6920  -29.2200   19.4630 C   0  0  0  0  0  3  0  0  0  0  0  0
  -25.8980  -30.9260   20.8100 C   0  0  0  0  0  2  0  0  0  0  0  0
  -25.9230  -29.6030   19.9220 C   0  0  0  0  0  3  0  0  0  0  0  0
  -27.0590  -28.7900   19.5180 C   0  0  0  0  0  3  0  0  0  0  0  0
  -25.5550  -27.1320   19.1740 C   0  0  0  0  0  2  0  0  0  0  0  0
  -24.4750  -27.9260   18.9350 C   0  0  0  0  0  2  0  0  0  0  0  0
  -23.5180  -30.1440   19.6640 C   0  0  0  0  0  2  0  0  0  0  0  0
  -24.6260  -31.1050   21.6740 N   0  0  0  0  0  0  0  0  0  0  0  0
  -23.4700  -31.9720   23.4400 O   0  0  0  0  0  0  0  0  0  0  0  0
  -22.7050  -29.4020   21.9580 C   0  0  0  0  0  0  0  0  0  0  0  0
  -21.3660  -29.2450   21.9190 N   0  0  0  0  0  0  0  0  0  0  0  0
  -23.4350  -28.6170   22.5660 O   0  0  0  0  0  0  0  0  0  0  0  0
  -20.8310  -29.9230   21.3660 H   0  0  0  0  0  0  0  0  0  0  0  0
  -18.0070  -28.0300   22.5530 C   0  0  0  0  0  0  0  0  0  0  0  0
  -20.5970  -28.1930   22.5830 C   0  0  0  0  0  3  0  0  0  0  0  0
  -20.5530  -26.8570   21.7730 C   0  0  0  0  0  2  0  0  0  0  0  0
  -19.3530  -26.7480   20.8360 C   0  0  0  0  0  2  0  0  0  0  0  0
  -18.0530  -26.8180   21.6380 C   0  0  0  0  0  2  0  0  0  0  0  0
  -19.2010  -28.6840   22.9730 C   0  0  0  0  0  0  0  0  0  0  0  0
  -19.1080  -29.8270   23.7860 C   0  0  0  0  0  3  0  0  0  0  0  0
  -17.8550  -30.3270   24.1810 C   0  0  0  0  0  3  0  0  0  0  0  0
  -16.6730  -29.6760   23.7760 C   0  0  0  0  0  3  0  0  0  0  0  0
  -16.7550  -28.5220   22.9700 C   0  0  0  0  0  3  0  0  0  0  0  0
  -25.7940  -32.3890   23.4980 C   0  0  0  0  0  3  0  0  0  0  0  0
  -25.4000  -33.6890   24.0870 N   0  0  0  0  0  0  0  0  0  0  0  0
  -25.6160  -34.8760   23.4860 C   0  0  0  0  0  0  0  0  0  0  0  0
  -26.2560  -34.9830   22.4360 O   0  0  0  0  0  0  0  0  0  0  0  0
  -24.7620  -33.6300   24.8580 H   0  0  0  0  0  0  0  0  0  0  0  0
  -23.7670  -36.5830   23.4750 C   0  0  0  0  0  1  0  0  0  0  0  0
  -25.0530  -36.1130   24.1750 C   0  0  0  0  0  3  0  0  0  0  0  0
  -27.1620  -36.9820   25.1070 C   0  0  0  0  0  1  0  0  0  0  0  0
  -26.0240  -37.2330   24.2260 N   0  0  0  0  0  0  0  0  0  0  0  0
  -25.5580  -38.0890   24.5230 H   0  0  0  0  0  0  0  0  0  0  0  0
  -26.3770  -31.4280   24.6140 C   0  0  1  0  0  0  0  0  0  0  0  0
  -25.3380  -30.9530   25.6610 C   0  0  0  0  0  1  0  0  0  0  0  0
  -26.9870  -30.1720   23.9350 C   0  0  0  0  0  1  0  0  0  0  0  0
  -27.5120  -32.1770   25.3480 C   0  0  0  0  0  1  0  0  0  0  0  0
  1 51  1  0
  2  1  1  0
  2  5  1  0
  3  2  1  0
  4  2  1  0
  5  6  1  0
  6  7  1  0
  8 12  1  0
  8 10  1  0
  9 11  1  0
 10 21  1  0
 10 11  1  0
 12  7  1  0
 12  9  1  0
 14 19  1  0
 15 16  1  0
 15 14  1  0
 17 16  1  0
 17 26  1  0
 17 18  1  0
 19 13  1  0
 19 18  1  0
 20 13  2  0
 21 13  1  0
 22 21  1  0
 23 24  2  0
 24 43  1  0
 25 24  1  0
 25 28  1  0
 26 23  1  0
 26 27  1  0
 27 25  2  0
 28 29  1  0
 29 30  2  0
 31 34  1  0
 31 30  1  0
 32 31  2  0
 33 32  1  0
 33 28  2  0
 34 35  1  0
 35 36  1  0
 36 37  2  0
 38 37  1  0
 38 42  1  0
 39 38  2  0
 40 35  2  0
 40 39  1  0
 41 40  1  0
 43 44  1  0
 44 47  1  0
 44 46  1  0
 45 43  2  0
 48 49  1  0
 48 23  1  0
 50 48  1  0
 51 54  1  0
 52 54  1  0
 54 53  1  0
 55 58  1  0
 55  1  1  0
 56 55  1  0
 57 56  1  0
 58 59  1  0
 59 60  1  0
 60 62  1  0
 61 72  2  0
 62 68  1  0
 62 67  2  0
 63 71  1  0
 63 73  1  0
 64 69  1  0
 64 70  1  0
 64 66  1  0
 65 71  1  0
 66 67  1  0
 66 65  1  0
 69 68  1  0
 70 63  1  0
 71 61  1  0
 73 75  2  0
 74 73  1  0
 76 74  1  0
 77 86  2  0
 77 82  1  0
 78 74  1  0
 78 82  1  0
 79 78  1  0
 80 81  1  0
 80 79  1  0
 81 77  1  0
 82 83  2  0
 83 84  1  0
 85 84  2  0
 86 85  1  0
 87 61  1  0
 87 88  1  0
 87 97  1  0
 88 91  1  0
 89 88  1  0
 89 93  1  0
 90 89  2  0
 93 92  1  0
 93 95  1  0
 95 96  1  0
 95 94  1  0
 97100  1  1
 97 98  1  0
 99 97  1  0
M  ISO  4  13 100  21 100  59 101  60 101
M  END
>  <TORSDO>  (32) 
F 27

>  <SCORE>  (32) 
-10.522

>  <name>  (32) 
31

>  <ligand_id>  (32) 
31

>  <original_smiles>  (32) 
[H]OC([H])(C([H])([H])C([H])([H])Oc1c([H])c([H])c2c(c1[H])C([H])([H])N(C(=O)C([H])(N([H])C(=O)C([H])(N([H])C([H])([H])[H])C([H])([H])[H])C(C([H])([H])[H])(C([H])([H])[H])C([H])([H])[H])C([H])(C(=O)N([H])C1([H])c3c([H])c([H])c([H])c([H])c3C([H])([H])C([H])([H])C1([H])[H])C2([H])[H])C([H])(C([H])([H])C([H])(C([H])([H])[H])C([H])([H])[H])[N+]([H])([H])C([H])([H])C([H])([H])C([H])([H])n1c([H])nc(N([H])C(=O)N2C([H])([H])C([H])([H])C([H])([H])C([H])(n3nc(-c4c([H])c([H])c(Oc5c([H])c([H])c(F)c([H])c5F)c([H])c4[H])c(C(=O)N([H])[H])c3N([H])[H])C2([H])[H])c1[H]

>  <smiles>  (32) 
[H]OC([H])(C([H])([H])C([H])([H])Oc1c([H])c([H])c2c(c1[H])C([H])([H])N(C(=O)C([H])(N([H])C(=O)C([H])(N([H])C([H])([H])[H])C([H])([H])[H])C(C([H])([H])[H])(C([H])([H])[H])C([H])([H])[H])C([H])(C(=O)N([H])C1([H])c3c([H])c([H])c([H])c([H])c3C([H])([H])C([H])([H])C1([H])[H])C2([H])[H])C([H])(C([H])([H])C([H])(C([H])([H])[H])C([H])([H])[H])[N+]([H])([H])C([H])([H])C([H])([H])C([H])([H])n1c([H])nc(N([H])C(=O)N2C([H])([H])C([H])([H])C([H])([H])C([H])(n3nc(-c4c([H])c([H])c(Oc5c([H])c([H])c(F)c([H])c5F)c([H])c4[H])c(C(=O)N([H])[H])c3N([H])[H])C2([H])[H])c1[H]

$$$$
32:0:0
     RDKit          3D

 92100  0  0  1  0  0  0  0  0999 V2000
  -29.5640  -18.6000   20.5110 C   0  0  0  0  0  3  0  0  0  0  0  0
  -30.7920  -19.1350   22.4630 C   0  0  0  0  0  3  0  0  0  0  0  0
  -30.4760  -18.1650   21.4930 C   0  0  0  0  0  0  0  0  0  0  0  0
  -29.4210  -20.6830   21.4790 C   0  0  0  0  0  0  0  0  0  0  0  0
  -29.0550  -19.8610   20.5020 N   0  0  0  0  0  0  0  0  0  0  0  0
  -30.2500  -20.3760   22.4630 N   0  0  0  0  0  0  0  0  0  0  0  0
  -28.9130  -21.9800   21.5210 N   0  0  0  0  0  0  0  0  0  0  0  0
  -29.1270  -22.4830   22.3750 H   0  0  0  0  0  0  0  0  0  0  0  0
  -27.0450  -22.3420   19.9430 C   0  0  0  0  0  1  0  0  0  0  0  0
  -28.4540  -22.7890   20.3750 C   0  0  0  0  0  3  0  0  0  0  0  0
  -28.5000  -24.3370   20.6560 C   0  0  0  0  0  3  0  0  0  0  0  0
  -28.4280  -25.2670   19.3950 C   0  0  0  0  0  3  0  0  0  0  0  0
  -28.3930  -26.6970   19.6530 O   0  0  0  0  0  0  0  0  0  0  0  0
  -24.5390  -31.6850   22.9980 C   0  0  0  0  0  0  0  0  0  0  0  0
  -27.1960  -27.4010   19.6730 C   0  0  0  0  0  0  0  0  0  0  0  0
  -23.3260  -30.3190   21.3310 C   0  0  0  0  0  3  0  0  0  0  0  0
  -24.7730  -28.8870   19.8000 C   0  0  0  0  0  0  0  0  0  0  0  0
  -25.8400  -30.7440   21.0900 C   0  0  0  0  0  2  0  0  0  0  0  0
  -25.9380  -29.4060   20.3770 C   0  0  0  0  0  0  0  0  0  0  0  0
  -27.1510  -28.6750   20.3040 C   0  0  0  0  0  3  0  0  0  0  0  0
  -26.0010  -26.9100   19.0960 C   0  0  0  0  0  3  0  0  0  0  0  0
  -24.8020  -27.6390   19.1560 C   0  0  0  0  0  3  0  0  0  0  0  0
  -23.5100  -29.7090   19.9170 C   0  0  0  0  0  2  0  0  0  0  0  0
  -24.5870  -30.9310   21.8610 N   0  0  0  0  0  0  0  0  0  0  0  0
  -23.4670  -31.9070   23.5770 O   0  0  0  0  0  0  0  0  0  0  0  0
  -22.7320  -29.2380   22.2630 C   0  0  0  0  0  0  0  0  0  0  0  0
  -21.4090  -29.0320   22.1690 N   0  0  0  0  0  0  0  0  0  0  0  0
  -23.4560  -28.5900   23.0240 O   0  0  0  0  0  0  0  0  0  0  0  0
  -20.8890  -29.6160   21.5290 H   0  0  0  0  0  0  0  0  0  0  0  0
  -18.0770  -27.7220   22.7000 C   0  0  0  0  0  0  0  0  0  0  0  0
  -20.6340  -28.0380   22.9130 C   0  0  0  0  0  3  0  0  0  0  0  0
  -20.7560  -26.6380   22.2700 C   0  0  0  0  0  2  0  0  0  0  0  0
  -19.6330  -26.3320   21.2700 C   0  0  0  0  0  2  0  0  0  0  0  0
  -18.2670  -26.4100   21.9590 C   0  0  0  0  0  2  0  0  0  0  0  0
  -19.1870  -28.4960   23.1310 C   0  0  0  0  0  0  0  0  0  0  0  0
  -18.9550  -29.7270   23.7830 C   0  0  0  0  0  3  0  0  0  0  0  0
  -17.6430  -30.1900   23.9990 C   0  0  0  0  0  3  0  0  0  0  0  0
  -16.5460  -29.4120   23.5860 C   0  0  0  0  0  3  0  0  0  0  0  0
  -16.7650  -28.1790   22.9460 C   0  0  0  0  0  3  0  0  0  0  0  0
  -25.8250  -32.3230   23.6100 C   0  0  0  0  0  3  0  0  0  0  0  0
  -26.4090  -31.5060   24.8290 C   0  0  1  0  0  0  0  0  0  0  0  0
  -25.3570  -31.1870   25.9200 C   0  0  0  0  0  1  0  0  0  0  0  0
  -27.0190  -30.1690   24.3460 C   0  0  0  0  0  1  0  0  0  0  0  0
  -27.5590  -32.3030   25.4940 C   0  0  0  0  0  1  0  0  0  0  0  0
  -25.4840  -33.6910   24.0260 N   0  0  0  0  0  0  0  0  0  0  0  0
  -25.7660  -34.7930   23.3180 C   0  0  0  0  0  0  0  0  0  0  0  0
  -26.4170  -34.7690   22.2690 O   0  0  0  0  0  0  0  0  0  0  0  0
  -24.9120  -33.7830   24.8510 H   0  0  0  0  0  0  0  0  0  0  0  0
  -23.9800  -36.5460   23.1010 C   0  0  0  0  0  1  0  0  0  0  0  0
  -25.2500  -36.1390   23.8630 C   0  0  0  0  0  3  0  0  0  0  0  0
  -27.3710  -37.0400   24.7060 C   0  0  0  0  0  1  0  0  0  0  0  0
  -26.2500  -37.2250   23.7890 N   0  0  0  0  0  0  0  0  0  0  0  0
  -25.8210  -38.1250   23.9900 H   0  0  0  0  0  0  0  0  0  0  0  0
  -31.2180  -16.8040   21.4860 C   0  0  0  0  0  2  0  0  0  0  0  0
  -31.1730  -14.6520   20.1360 C   0  0  0  0  0  0  0  0  0  0  0  0
  -30.7860  -12.5150   18.9340 C   0  0  0  0  0  2  0  0  0  0  0  0
  -29.7900  -12.7130   17.7740 C   0  0  0  0  0  2  0  0  0  0  0  0
  -28.3330  -12.6070   18.2670 C   0  0  0  0  0  2  0  0  0  0  0  0
  -28.0690  -13.4660   19.5310 C   0  0  0  0  0  3  0  0  0  0  0  0
  -29.1570  -13.2080   20.5960 C   0  0  0  0  0  2  0  0  0  0  0  0
  -30.4630  -13.4990   19.9820 N   0  0  0  0  0  0  0  0  0  0  0  0
  -32.2600  -14.8390   19.5810 O   0  0  0  0  0  0  0  0  0  0  0  0
  -30.5780  -15.6060   20.8960 N   0  0  0  0  0  0  0  0  0  0  0  0
  -29.6870  -15.3330   21.2830 H   0  0  0  0  0  0  0  0  0  0  0  0
  -25.7380  -14.1650   20.3710 C   0  0  0  0  0  0  0  0  0  0  0  0
  -24.6550  -13.4300   20.7740 C   0  0  0  0  0  0  0  0  0  0  0  0
  -25.0510  -12.0610   20.6850 C   0  0  0  0  0  0  0  0  0  0  0  0
  -26.7290  -13.2430   20.0660 N   0  0  0  0  0  0  0  0  0  0  0  0
  -26.3200  -11.9710   20.3110 N   0  0  0  0  0  0  0  0  0  0  0  0
  -24.2780  -10.8270   20.8790 C   0  0  0  0  0  0  0  0  0  0  0  0
  -24.6760   -9.8440   21.8120 C   0  0  0  0  0  3  0  0  0  0  0  0
  -23.9050   -8.6760   21.9930 C   0  0  0  0  0  3  0  0  0  0  0  0
  -22.7230   -8.4810   21.2390 C   0  0  0  0  0  0  0  0  0  0  0  0
  -22.3440   -9.4520   20.2950 C   0  0  0  0  0  3  0  0  0  0  0  0
  -23.1150  -10.6130   20.1120 C   0  0  0  0  0  3  0  0  0  0  0  0
  -21.9260   -7.3670   21.3290 O   0  0  0  0  0  0  0  0  0  0  0  0
  -21.8040   -6.6600   22.4980 C   0  0  0  0  0  0  0  0  0  0  0  0
  -21.3380   -7.2640   23.6880 C   0  0  0  0  0  3  0  0  0  0  0  0
  -21.1620   -6.4850   24.8490 C   0  0  0  0  0  3  0  0  0  0  0  0
  -21.4410   -5.1060   24.8220 C   0  0  0  0  0  0  0  0  0  0  0  0
  -21.9020   -4.5030   23.6390 C   0  0  0  0  0  3  0  0  0  0  0  0
  -22.0790   -5.2780   22.4790 C   0  0  0  0  0  0  0  0  0  0  0  0
  -22.5010   -4.6880   21.3350 F   0  0  0  0  0  0  0  0  0  0  0  0
  -21.2650   -4.3570   25.9360 F   0  0  0  0  0  0  0  0  0  0  0  0
  -23.2960  -13.9610   21.1300 C   0  0  0  0  0  0  0  0  0  0  0  0
  -22.5810  -13.2720   22.0130 N   0  0  0  0  0  0  0  0  0  0  0  0
  -22.8780  -15.0180   20.6600 O   0  0  0  0  0  0  0  0  0  0  0  0
  -22.9310  -12.4140   22.4110 H   0  0  0  0  0  0  0  0  0  0  0  0
  -21.6690  -13.6070   22.2910 H   0  0  0  0  0  0  0  0  0  0  0  0
  -25.9590  -15.5300   20.2230 N   0  0  0  0  0  0  0  0  0  0  0  0
  -25.2370  -16.2200   20.3920 H   0  0  0  0  0  0  0  0  0  0  0  0
  -26.8100  -15.9370   19.8540 H   0  0  0  0  0  0  0  0  0  0  0  0
  1  3  2  0
  2  6  2  0
  3  2  1  0
  4  7  1  0
  4  6  1  0
  5  1  1  0
  5  4  2  0
  7  8  1  0
 10  9  1  0
 10 11  1  0
 10  7  1  0
 12 13  1  0
 12 11  2  0
 13 15  1  0
 14 25  2  0
 15 20  1  0
 16 24  1  0
 16 26  1  0
 17 23  1  0
 17 19  1  0
 18 24  1  0
 19 18  1  0
 20 19  2  0
 21 22  1  0
 21 15  2  0
 22 17  2  0
 23 16  1  0
 24 14  1  0
 26 28  2  0
 27 26  1  0
 29 27  1  0
 30 39  2  0
 30 35  1  0
 31 27  1  0
 31 35  1  0
 32 31  1  0
 33 34  1  0
 33 32  1  0
 34 30  1  0
 35 36  2  0
 36 37  1  0
 38 37  2  0
 39 38  1  0
 40 14  1  0
 40 45  1  0
 40 41  1  0
 41 44  1  1
 41 42  1  0
 43 41  1  0
 45 48  1  0
 46 50  1  0
 46 45  1  0
 47 46  2  0
 50 49  1  0
 52 50  1  0
 52 53  1  0
 52 51  1  0
 54  3  1  0
 55 63  1  0
 56 61  1  0
 57 58  1  0
 57 56  1  0
 59 58  1  0
 59 68  1  0
 59 60  1  0
 61 55  1  0
 61 60  1  0
 62 55  2  0
 63 64  1  0
 63 54  1  0
 65 66  2  0
 66 85  1  0
 67 66  1  0
 67 70  1  0
 68 69  1  0
 68 65  1  0
 69 67  2  0
 70 71  1  0
 71 72  2  0
 73 76  1  0
 73 72  1  0
 74 73  2  0
 75 74  1  0
 75 70  2  0
 76 77  1  0
 77 78  1  0
 78 79  2  0
 80 79  1  0
 80 84  1  0
 81 80  2  0
 82 77  2  0
 82 81  1  0
 83 82  1  0
 85 86  1  0
 86 89  1  0
 86 88  1  0
 87 85  2  0
 90 65  1  0
 90 91  1  0
 92 90  1  0
M  ISO  4  12 101  13 101  55 100  63 100
M  END
>  <TORSDO>  (33) 
F 20

>  <SCORE>  (33) 
-12.793

>  <name>  (33) 
32

>  <ligand_id>  (33) 
32

>  <original_smiles>  (33) 
[H]c1nc(N([H])C([H])(C([H])([H])[H])C([H])([H])C([H])([H])Oc2c([H])c([H])c3c(c2[H])C([H])([H])N(C(=O)C([H])(N([H])C(=O)C([H])(N([H])C([H])([H])[H])C([H])([H])[H])C(C([H])([H])[H])(C([H])([H])[H])C([H])([H])[H])C([H])(C(=O)N([H])C2([H])c4c([H])c([H])c([H])c([H])c4C([H])([H])C([H])([H])C2([H])[H])C3([H])[H])nc([H])c1C([H])([H])N([H])C(=O)N1C([H])([H])C([H])([H])C([H])([H])C([H])(n2nc(-c3c([H])c([H])c(Oc4c([H])c([H])c(F)c([H])c4F)c([H])c3[H])c(C(=O)N([H])[H])c2N([H])[H])C1([H])[H]

>  <smiles>  (33) 
[H]c1nc(N([H])C([H])(C([H])([H])[H])C([H])([H])C([H])([H])Oc2c([H])c([H])c3c(c2[H])C([H])([H])N(C(=O)C([H])(N([H])C(=O)C([H])(N([H])C([H])([H])[H])C([H])([H])[H])C(C([H])([H])[H])(C([H])([H])[H])C([H])([H])[H])C([H])(C(=O)N([H])C2([H])c4c([H])c([H])c([H])c([H])c4C([H])([H])C([H])([H])C2([H])[H])C3([H])[H])nc([H])c1C([H])([H])N([H])C(=O)N1C([H])([H])C([H])([H])C([H])([H])C([H])(n2nc(-c3c([H])c([H])c(Oc4c([H])c([H])c(F)c([H])c4F)c([H])c3[H])c(C(=O)N([H])[H])c2N([H])[H])C1([H])[H]

$$$$
33:0:0
     RDKit          3D

 89 97  0  0  1  0  0  0  0  0999 V2000
  -29.4420  -19.1060   21.4200 C   0  0  0  0  0  3  0  0  0  0  0  0
  -29.9190  -18.8850   20.1500 C   0  0  0  0  0  0  0  0  0  0  0  0
  -29.4490  -21.2380   20.0840 C   0  0  0  0  0  0  0  0  0  0  0  0
  -29.8810  -20.1260   19.4110 N   0  0  0  0  0  0  0  0  0  0  0  0
  -29.3290  -22.5880   19.5780 N   0  0  0  0  0  0  0  0  0  0  0  0
  -29.0150  -20.7950   21.7330 S   0  0  0  0  0  0  0  0  0  0  0  0
  -29.4650  -22.5900   18.5720 H   0  0  0  0  0  0  0  0  0  0  0  0
  -30.5290  -17.5430   19.5750 C   0  0  0  0  0  2  0  0  0  0  0  0
  -30.9030  -14.9920   19.8780 C   0  0  0  0  0  0  0  0  0  0  0  0
  -30.6280  -12.7120   18.9050 C   0  0  0  0  0  2  0  0  0  0  0  0
  -29.6480  -12.7940   17.7140 C   0  0  0  0  0  2  0  0  0  0  0  0
  -28.1960  -12.6340   18.2020 C   0  0  0  0  0  2  0  0  0  0  0  0
  -27.8770  -13.5310   19.4290 C   0  0  0  0  0  3  0  0  0  0  0  0
  -28.9770  -13.4470   20.5090 C   0  0  0  0  0  2  0  0  0  0  0  0
  -30.2540  -13.7770   19.8640 N   0  0  0  0  0  0  0  0  0  0  0  0
  -32.0670  -15.0640   19.4760 O   0  0  0  0  0  0  0  0  0  0  0  0
  -30.1750  -16.1510   20.0960 N   0  0  0  0  0  0  0  0  0  0  0  0
  -29.2280  -16.0310   20.4240 H   0  0  0  0  0  0  0  0  0  0  0  0
  -25.5280  -14.1390   20.2590 C   0  0  0  0  0  0  0  0  0  0  0  0
  -24.4720  -13.3730   20.6700 C   0  0  0  0  0  0  0  0  0  0  0  0
  -24.9200  -12.0180   20.6140 C   0  0  0  0  0  0  0  0  0  0  0  0
  -26.5530  -13.2510   19.9740 N   0  0  0  0  0  0  0  0  0  0  0  0
  -26.1960  -11.9700   20.2510 N   0  0  0  0  0  0  0  0  0  0  0  0
  -24.1900  -10.7610   20.8270 C   0  0  0  0  0  0  0  0  0  0  0  0
  -24.6180   -9.8100   21.7800 C   0  0  0  0  0  3  0  0  0  0  0  0
  -23.8880   -8.6200   21.9810 C   0  0  0  0  0  3  0  0  0  0  0  0
  -22.7150   -8.3700   21.2290 C   0  0  0  0  0  0  0  0  0  0  0  0
  -22.3050   -9.3090   20.2660 C   0  0  0  0  0  3  0  0  0  0  0  0
  -23.0370  -10.4910   20.0630 C   0  0  0  0  0  3  0  0  0  0  0  0
  -21.9560   -7.2300   21.3390 O   0  0  0  0  0  0  0  0  0  0  0  0
  -21.8760   -6.5290   22.5160 C   0  0  0  0  0  0  0  0  0  0  0  0
  -21.3530   -7.1080   23.6930 C   0  0  0  0  0  3  0  0  0  0  0  0
  -21.2240   -6.3310   24.8630 C   0  0  0  0  0  3  0  0  0  0  0  0
  -21.6050   -4.9760   24.8540 C   0  0  0  0  0  0  0  0  0  0  0  0
  -22.1210   -4.3970   23.6800 C   0  0  0  0  0  3  0  0  0  0  0  0
  -22.2520   -5.1710   22.5140 C   0  0  0  0  0  0  0  0  0  0  0  0
  -22.7280   -4.6020   21.3810 F   0  0  0  0  0  0  0  0  0  0  0  0
  -21.4750   -4.2280   25.9740 F   0  0  0  0  0  0  0  0  0  0  0  0
  -23.0910  -13.8610   21.0000 C   0  0  0  0  0  0  0  0  0  0  0  0
  -22.3950  -13.1710   21.8950 N   0  0  0  0  0  0  0  0  0  0  0  0
  -22.6420  -14.8910   20.4990 O   0  0  0  0  0  0  0  0  0  0  0  0
  -22.7730  -12.3390   22.3240 H   0  0  0  0  0  0  0  0  0  0  0  0
  -21.4700  -13.4810   22.1580 H   0  0  0  0  0  0  0  0  0  0  0  0
  -25.6950  -15.5090   20.0800 N   0  0  0  0  0  0  0  0  0  0  0  0
  -24.9330  -16.1640   20.2180 H   0  0  0  0  0  0  0  0  0  0  0  0
  -26.5210  -15.9440   19.6910 H   0  0  0  0  0  0  0  0  0  0  0  0
  -29.3630  -24.0100   20.1170 C   0  0  0  0  0  3  0  0  0  0  0  0
  -28.3580  -25.1370   19.5300 C   0  0  0  0  0  3  0  0  0  0  0  0
  -28.4780  -26.5940   19.9020 O   0  0  0  0  0  0  0  0  0  0  0  0
  -24.5380  -31.7530   23.1470 C   0  0  0  0  0  0  0  0  0  0  0  0
  -27.3420  -27.4410   19.8630 C   0  0  0  0  0  0  0  0  0  0  0  0
  -23.3980  -30.3910   21.4360 C   0  0  0  0  0  3  0  0  0  0  0  0
  -24.9150  -28.9840   19.9270 C   0  0  0  0  0  0  0  0  0  0  0  0
  -25.9260  -30.8190   21.2770 C   0  0  0  0  0  2  0  0  0  0  0  0
  -26.0650  -29.4780   20.5570 C   0  0  0  0  0  0  0  0  0  0  0  0
  -27.2780  -28.7180   20.5170 C   0  0  0  0  0  3  0  0  0  0  0  0
  -26.1700  -27.0260   19.1910 C   0  0  0  0  0  3  0  0  0  0  0  0
  -24.9730  -27.7660   19.2340 C   0  0  0  0  0  3  0  0  0  0  0  0
  -23.6420  -29.8010   20.0220 C   0  0  0  0  0  2  0  0  0  0  0  0
  -24.6390  -31.0050   22.0100 N   0  0  0  0  0  0  0  0  0  0  0  0
  -23.4430  -31.9550   23.6930 O   0  0  0  0  0  0  0  0  0  0  0  0
  -22.7810  -29.2970   22.3420 C   0  0  0  0  0  0  0  0  0  0  0  0
  -21.4660  -29.0610   22.1990 N   0  0  0  0  0  0  0  0  0  0  0  0
  -23.4860  -28.6660   23.1330 O   0  0  0  0  0  0  0  0  0  0  0  0
  -20.9520  -29.6250   21.5360 H   0  0  0  0  0  0  0  0  0  0  0  0
  -18.1460  -27.6890   22.6400 C   0  0  0  0  0  0  0  0  0  0  0  0
  -20.6920  -28.0470   22.9190 C   0  0  0  0  0  3  0  0  0  0  0  0
  -20.8540  -26.6550   22.2660 C   0  0  0  0  0  2  0  0  0  0  0  0
  -19.7640  -26.3400   21.2370 C   0  0  0  0  0  2  0  0  0  0  0  0
  -18.3800  -26.3890   21.8910 C   0  0  0  0  0  2  0  0  0  0  0  0
  -19.2310  -28.4760   23.1080 C   0  0  0  0  0  0  0  0  0  0  0  0
  -18.9590  -29.6930   23.7700 C   0  0  0  0  0  3  0  0  0  0  0  0
  -17.6340  -30.1260   23.9660 C   0  0  0  0  0  3  0  0  0  0  0  0
  -16.5630  -29.3360   23.5120 C   0  0  0  0  0  3  0  0  0  0  0  0
  -16.8190  -28.1200   22.8560 C   0  0  0  0  0  3  0  0  0  0  0  0
  -25.7900  -32.4110   23.8040 C   0  0  0  0  0  3  0  0  0  0  0  0
  -26.2900  -31.6480   25.0920 C   0  0  1  0  0  0  0  0  0  0  0  0
  -25.1740  -31.3830   26.1290 C   0  0  0  0  0  1  0  0  0  0  0  0
  -26.9150  -30.2850   24.7140 C   0  0  0  0  0  1  0  0  0  0  0  0
  -27.4060  -32.4660   25.7850 C   0  0  0  0  0  1  0  0  0  0  0  0
  -25.4410  -33.8020   24.1310 N   0  0  0  0  0  0  0  0  0  0  0  0
  -25.7560  -34.8650   23.3790 C   0  0  0  0  0  0  0  0  0  0  0  0
  -26.4390  -34.7800   22.3540 O   0  0  0  0  0  0  0  0  0  0  0  0
  -24.8350  -33.9410   24.9270 H   0  0  0  0  0  0  0  0  0  0  0  0
  -23.9850  -36.6140   23.0160 C   0  0  0  0  0  1  0  0  0  0  0  0
  -25.2320  -36.2410   23.8350 C   0  0  0  0  0  3  0  0  0  0  0  0
  -27.3270  -37.1920   24.6930 C   0  0  0  0  0  1  0  0  0  0  0  0
  -26.2380  -37.3200   23.7280 N   0  0  0  0  0  0  0  0  0  0  0  0
  -25.8050  -38.2300   23.8560 H   0  0  0  0  0  0  0  0  0  0  0  0
  1  6  1  0
  2  1  2  0
  3  6  1  0
  4  3  2  0
  4  2  1  0
  5  3  1  0
  5 47  1  0
  7  5  1  0
  8 17  1  0
  8  2  1  0
  9 17  1  0
 10 15  1  0
 11 12  1  0
 11 10  1  0
 13 12  1  0
 13 22  1  0
 13 14  1  0
 15  9  1  0
 15 14  1  0
 16  9  2  0
 17 18  1  0
 19 20  2  0
 20 39  1  0
 21 20  1  0
 21 24  1  0
 22 23  1  0
 22 19  1  0
 23 21  2  0
 24 25  1  0
 25 26  2  0
 27 30  1  0
 27 26  1  0
 28 27  2  0
 29 28  1  0
 29 24  2  0
 30 31  1  0
 31 32  1  0
 32 33  2  0
 34 33  1  0
 34 38  1  0
 35 34  2  0
 36 31  2  0
 36 35  1  0
 37 36  1  0
 39 40  1  0
 40 43  1  0
 40 42  1  0
 41 39  2  0
 44 45  1  0
 44 19  1  0
 46 44  1  0
 48 49  1  0
 48 47  2  0
 50 61  2  0
 51 49  1  0
 51 56  1  0
 52 60  1  0
 52 62  1  0
 53 59  1  0
 53 55  1  0
 54 60  1  0
 55 54  1  0
 56 55  2  0
 57 58  1  0
 57 51  2  0
 58 53  2  0
 59 52  1  0
 60 50  1  0
 62 64  2  0
 63 62  1  0
 65 63  1  0
 66 75  2  0
 66 71  1  0
 67 63  1  0
 67 71  1  0
 68 67  1  0
 69 70  1  0
 69 68  1  0
 70 66  1  0
 71 72  2  0
 72 73  1  0
 74 73  2  0
 75 74  1  0
 76 50  1  0
 76 81  1  0
 76 77  1  0
 77 80  1  1
 77 78  1  0
 79 77  1  0
 81 84  1  0
 82 86  1  0
 82 81  1  0
 83 82  2  0
 86 85  1  0
 88 86  1  0
 88 89  1  0
 88 87  1  0
M  ISO  4   9 100  17 100  48 101  49 101
M  END
>  <TORSDO>  (34) 
F 19

>  <SCORE>  (34) 
-12.607

>  <name>  (34) 
33

>  <ligand_id>  (34) 
33

>  <original_smiles>  (34) 
[H]c1sc(N([H])C([H])([H])C([H])([H])Oc2c([H])c([H])c3c(c2[H])C([H])([H])N(C(=O)C([H])(N([H])C(=O)C([H])(N([H])C([H])([H])[H])C([H])([H])[H])C(C([H])([H])[H])(C([H])([H])[H])C([H])([H])[H])C([H])(C(=O)N([H])C2([H])c4c([H])c([H])c([H])c([H])c4C([H])([H])C([H])([H])C2([H])[H])C3([H])[H])nc1C([H])([H])N([H])C(=O)N1C([H])([H])C([H])([H])C([H])([H])C([H])(n2nc(-c3c([H])c([H])c(Oc4c([H])c([H])c(F)c([H])c4F)c([H])c3[H])c(C(=O)N([H])[H])c2N([H])[H])C1([H])[H]

>  <smiles>  (34) 
[H]c1sc(N([H])C([H])([H])C([H])([H])Oc2c([H])c([H])c3c(c2[H])C([H])([H])N(C(=O)C([H])(N([H])C(=O)C([H])(N([H])C([H])([H])[H])C([H])([H])[H])C(C([H])([H])[H])(C([H])([H])[H])C([H])([H])[H])C([H])(C(=O)N([H])C2([H])c4c([H])c([H])c([H])c([H])c4C([H])([H])C([H])([H])C2([H])[H])C3([H])[H])nc1C([H])([H])N([H])C(=O)N1C([H])([H])C([H])([H])C([H])([H])C([H])(n2nc(-c3c([H])c([H])c(Oc4c([H])c([H])c(F)c([H])c4F)c([H])c3[H])c(C(=O)N([H])[H])c2N([H])[H])C1([H])[H]

$$$$
34:0:0
     RDKit          3D

 93101  0  0  1  0  0  0  0  0999 V2000
  -28.9460  -21.2070   19.8760 C   0  0  0  0  0  0  0  0  0  0  0  0
  -29.0990  -22.4500   20.4650 N   0  0  0  0  0  0  0  0  0  0  0  0
  -28.3150  -21.1550   18.8170 O   0  0  0  0  0  0  0  0  0  0  0  0
  -29.5820  -22.4780   21.3540 H   0  0  0  0  0  0  0  0  0  0  0  0
  -30.5950  -14.7470   20.3960 C   0  0  0  0  0  0  0  0  0  0  0  0
  -30.4330  -12.4820   19.3430 C   0  0  0  0  0  2  0  0  0  0  0  0
  -29.4800  -12.5610   18.1270 C   0  0  0  0  0  2  0  0  0  0  0  0
  -28.0130  -12.3740   18.5610 C   0  0  0  0  0  2  0  0  0  0  0  0
  -27.6400  -13.2540   19.7850 C   0  0  0  0  0  3  0  0  0  0  0  0
  -28.7030  -13.1350   20.9020 C   0  0  0  0  0  2  0  0  0  0  0  0
  -30.0000  -13.5080   20.3160 N   0  0  0  0  0  0  0  0  0  0  0  0
  -31.7720  -14.8960   20.0560 O   0  0  0  0  0  0  0  0  0  0  0  0
  -29.5070  -19.8600   20.4240 C   0  0  0  0  0  0  0  0  0  0  0  0
  -30.5800  -19.4280   21.2060 C   0  0  0  0  0  0  0  0  0  0  0  0
  -29.8780  -17.2790   20.5980 C   0  0  0  0  0  0  0  0  0  0  0  0
  -30.7630  -18.0140   21.2960 N   0  0  0  0  0  0  0  0  0  0  0  0
  -29.7470  -15.8090   20.6490 N   0  0  0  0  0  0  0  0  0  0  0  0
  -28.7080  -18.3780   19.8040 S   0  0  0  0  0  0  0  0  0  0  0  0
  -28.7940  -15.5030   20.7520 H   0  0  0  0  0  0  0  0  0  0  0  0
  -25.2510  -13.8440   20.5170 C   0  0  0  0  0  0  0  0  0  0  0  0
  -24.1870  -13.0670   20.8910 C   0  0  0  0  0  0  0  0  0  0  0  0
  -24.6540  -11.7180   20.8580 C   0  0  0  0  0  0  0  0  0  0  0  0
  -26.2970  -12.9670   20.2770 N   0  0  0  0  0  0  0  0  0  0  0  0
  -25.9440  -11.6840   20.5430 N   0  0  0  0  0  0  0  0  0  0  0  0
  -23.9320  -10.4540   21.0500 C   0  0  0  0  0  0  0  0  0  0  0  0
  -24.3710   -9.4850   21.9780 C   0  0  0  0  0  3  0  0  0  0  0  0
  -23.6490   -8.2850   22.1560 C   0  0  0  0  0  3  0  0  0  0  0  0
  -22.4740   -8.0470   21.4060 C   0  0  0  0  0  0  0  0  0  0  0  0
  -22.0530   -9.0050   20.4660 C   0  0  0  0  0  3  0  0  0  0  0  0
  -22.7750  -10.1960   20.2860 C   0  0  0  0  0  3  0  0  0  0  0  0
  -21.7210   -6.9010   21.4960 O   0  0  0  0  0  0  0  0  0  0  0  0
  -21.6810   -6.1530   22.6450 C   0  0  0  0  0  0  0  0  0  0  0  0
  -21.2560   -6.6990   23.8750 C   0  0  0  0  0  3  0  0  0  0  0  0
  -21.1650   -5.8780   25.0160 C   0  0  0  0  0  3  0  0  0  0  0  0
  -21.4890   -4.5100   24.9280 C   0  0  0  0  0  0  0  0  0  0  0  0
  -21.9070   -3.9630   23.7020 C   0  0  0  0  0  3  0  0  0  0  0  0
  -22.0000   -4.7810   22.5630 C   0  0  0  0  0  0  0  0  0  0  0  0
  -22.3850   -4.2440   21.3800 F   0  0  0  0  0  0  0  0  0  0  0  0
  -21.3930   -3.7200   26.0220 F   0  0  0  0  0  0  0  0  0  0  0  0
  -22.7900  -13.5420   21.1660 C   0  0  0  0  0  0  0  0  0  0  0  0
  -22.0650  -12.8440   22.0310 N   0  0  0  0  0  0  0  0  0  0  0  0
  -22.3490  -14.5680   20.6500 O   0  0  0  0  0  0  0  0  0  0  0  0
  -22.4340  -12.0160   22.4760 H   0  0  0  0  0  0  0  0  0  0  0  0
  -21.1260  -13.1430   22.2550 H   0  0  0  0  0  0  0  0  0  0  0  0
  -25.4070  -15.2170   20.3380 N   0  0  0  0  0  0  0  0  0  0  0  0
  -24.6220  -15.8520   20.4250 H   0  0  0  0  0  0  0  0  0  0  0  0
  -26.2250  -15.6580   19.9410 H   0  0  0  0  0  0  0  0  0  0  0  0
  -31.5000  -20.2290   21.8920 N   0  0  0  0  0  0  0  0  0  0  0  0
  -31.4970  -21.2420   21.8470 H   0  0  0  0  0  0  0  0  0  0  0  0
  -32.2710  -19.8240   22.4130 H   0  0  0  0  0  0  0  0  0  0  0  0
  -28.7760  -23.8090   19.8270 C   0  0  0  0  0  3  0  0  0  0  0  0
  -28.2890  -25.0630   20.7240 C   0  0  0  0  0  3  0  0  0  0  0  0
  -28.3760  -26.4680   20.2130 O   0  0  0  0  0  0  0  0  0  0  0  0
  -24.6060  -31.8810   23.2390 C   0  0  0  0  0  0  0  0  0  0  0  0
  -27.2410  -27.3010   20.2200 C   0  0  0  0  0  0  0  0  0  0  0  0
  -23.4100  -30.4730   21.5970 C   0  0  0  0  0  3  0  0  0  0  0  0
  -24.8680  -28.9090   20.1870 C   0  0  0  0  0  0  0  0  0  0  0  0
  -25.9480  -30.7970   21.4140 C   0  0  0  0  0  2  0  0  0  0  0  0
  -26.0360  -29.4120   20.7770 C   0  0  0  0  0  0  0  0  0  0  0  0
  -27.2280  -28.6240   20.7700 C   0  0  0  0  0  3  0  0  0  0  0  0
  -26.0480  -26.8440   19.6230 C   0  0  0  0  0  3  0  0  0  0  0  0
  -24.8760  -27.6310   19.6000 C   0  0  0  0  0  3  0  0  0  0  0  0
  -23.6310  -29.7840   20.2240 C   0  0  0  0  0  2  0  0  0  0  0  0
  -24.6750  -31.0680   22.1400 N   0  0  0  0  0  0  0  0  0  0  0  0
  -23.5220  -32.1560   23.7710 O   0  0  0  0  0  0  0  0  0  0  0  0
  -22.7450  -29.4630   22.5620 C   0  0  0  0  0  0  0  0  0  0  0  0
  -21.4170  -29.2870   22.4330 N   0  0  0  0  0  0  0  0  0  0  0  0
  -23.4200  -28.8400   23.3830 O   0  0  0  0  0  0  0  0  0  0  0  0
  -20.9330  -29.8420   21.7420 H   0  0  0  0  0  0  0  0  0  0  0  0
  -18.0370  -28.1050   22.9410 C   0  0  0  0  0  0  0  0  0  0  0  0
  -20.5970  -28.3520   23.2050 C   0  0  0  0  0  3  0  0  0  0  0  0
  -20.6910  -26.9230   22.6250 C   0  0  0  0  0  2  0  0  0  0  0  0
  -19.5850  -26.6080   21.6130 C   0  0  0  0  0  2  0  0  0  0  0  0
  -18.2050  -26.7570   22.2610 C   0  0  0  0  0  2  0  0  0  0  0  0
  -19.1600  -28.8610   23.3690 C   0  0  0  0  0  0  0  0  0  0  0  0
  -18.9480  -30.1220   23.9670 C   0  0  0  0  0  3  0  0  0  0  0  0
  -17.6460  -30.6290   24.1370 C   0  0  0  0  0  3  0  0  0  0  0  0
  -16.5370  -29.8710   23.7260 C   0  0  0  0  0  3  0  0  0  0  0  0
  -16.7340  -28.6090   23.1330 C   0  0  0  0  0  3  0  0  0  0  0  0
  -25.8850  -32.5190   23.8640 C   0  0  0  0  0  3  0  0  0  0  0  0
  -26.3960  -31.7540   25.1470 C   0  0  1  0  0  0  0  0  0  0  0  0
  -25.3000  -31.5220   26.2130 C   0  0  0  0  0  1  0  0  0  0  0  0
  -26.9770  -30.3750   24.7610 C   0  0  0  0  0  1  0  0  0  0  0  0
  -27.5430  -32.5520   25.8100 C   0  0  0  0  0  1  0  0  0  0  0  0
  -25.5730  -33.9180   24.1880 N   0  0  0  0  0  0  0  0  0  0  0  0
  -25.9090  -34.9690   23.4300 C   0  0  0  0  0  0  0  0  0  0  0  0
  -26.5840  -34.8650   22.4020 O   0  0  0  0  0  0  0  0  0  0  0  0
  -24.9790  -34.0720   24.9900 H   0  0  0  0  0  0  0  0  0  0  0  0
  -24.1890  -36.7650   23.0590 C   0  0  0  0  0  1  0  0  0  0  0  0
  -25.4220  -36.3590   23.8820 C   0  0  0  0  0  3  0  0  0  0  0  0
  -27.5490  -37.2420   24.7330 C   0  0  0  0  0  1  0  0  0  0  0  0
  -26.4570  -37.4100   23.7770 N   0  0  0  0  0  0  0  0  0  0  0  0
  -26.0520  -38.3320   23.9190 H   0  0  0  0  0  0  0  0  0  0  0  0
  1 13  1  0
  1  2  1  0
  2  4  1  0
  3  1  2  0
  5 17  1  0
  6 11  1  0
  7  8  1  0
  7  6  1  0
  9  8  1  0
  9 23  1  0
  9 10  1  0
 11  5  1  0
 11 10  1  0
 12  5  2  0
 13 14  2  0
 14 16  1  0
 14 48  1  0
 15 17  1  0
 15 16  2  0
 17 19  1  0
 18 13  1  0
 18 15  1  0
 20 21  2  0
 21 40  1  0
 22 21  1  0
 22 25  1  0
 23 20  1  0
 23 24  1  0
 24 22  2  0
 25 26  1  0
 26 27  2  0
 28 31  1  0
 28 27  1  0
 29 28  2  0
 30 29  1  0
 30 25  2  0
 31 32  1  0
 32 33  1  0
 33 34  2  0
 35 34  1  0
 35 39  1  0
 36 35  2  0
 37 32  2  0
 37 36  1  0
 38 37  1  0
 40 41  1  0
 41 44  1  0
 41 43  1  0
 42 40  2  0
 45 46  1  0
 45 20  1  0
 47 45  1  0
 48 50  1  0
 49 48  1  0
 51  2  1  0
 51 52  2  0
 53 55  1  0
 53 52  1  0
 54 65  2  0
 55 60  1  0
 56 64  1  0
 56 66  1  0
 57 63  1  0
 57 59  1  0
 58 64  1  0
 59 58  1  0
 60 59  2  0
 61 55  2  0
 62 61  1  0
 62 57  2  0
 63 56  1  0
 64 54  1  0
 66 68  2  0
 67 66  1  0
 69 67  1  0
 70 79  2  0
 70 75  1  0
 71 67  1  0
 71 75  1  0
 72 71  1  0
 73 74  1  0
 73 72  1  0
 74 70  1  0
 75 76  2  0
 76 77  1  0
 78 77  2  0
 79 78  1  0
 80 54  1  0
 80 85  1  0
 80 81  1  0
 81 84  1  1
 81 82  1  0
 83 81  1  0
 85 88  1  0
 86 90  1  0
 86 85  1  0
 87 86  2  0
 90 89  1  0
 92 90  1  0
 92 93  1  0
 92 91  1  0
M  ISO  4   5 100  17 100  52 101  53 101
M  END
>  <TORSDO>  (35) 
F 19

>  <SCORE>  (35) 
-14.597

>  <name>  (35) 
34

>  <ligand_id>  (35) 
34

>  <original_smiles>  (35) 
[H]c1c([H])c([H])c2c(c1[H])C([H])([H])C([H])([H])C([H])([H])C2([H])N([H])C(=O)C1([H])N(C(=O)C([H])(N([H])C(=O)C([H])(N([H])C([H])([H])[H])C([H])([H])[H])C(C([H])([H])[H])(C([H])([H])[H])C([H])([H])[H])C([H])([H])c2c([H])c(OC([H])([H])C([H])([H])N([H])C(=O)c3sc(N([H])C(=O)N4C([H])([H])C([H])([H])C([H])([H])C([H])(n5nc(-c6c([H])c([H])c(Oc7c([H])c([H])c(F)c([H])c7F)c([H])c6[H])c(C(=O)N([H])[H])c5N([H])[H])C4([H])[H])nc3N([H])[H])c([H])c([H])c2C1([H])[H]

>  <smiles>  (35) 
[H]c1c([H])c([H])c2c(c1[H])C([H])([H])C([H])([H])C([H])([H])C2([H])N([H])C(=O)C1([H])N(C(=O)C([H])(N([H])C(=O)C([H])(N([H])C([H])([H])[H])C([H])([H])[H])C(C([H])([H])[H])(C([H])([H])[H])C([H])([H])[H])C([H])([H])c2c([H])c(OC([H])([H])C([H])([H])N([H])C(=O)c3sc(N([H])C(=O)N4C([H])([H])C([H])([H])C([H])([H])C([H])(n5nc(-c6c([H])c([H])c(Oc7c([H])c([H])c(F)c([H])c7F)c([H])c6[H])c(C(=O)N([H])[H])c5N([H])[H])C4([H])[H])nc3N([H])[H])c([H])c([H])c2C1([H])[H]

$$$$
35:0:0
     RDKit          3D

 92100  0  0  1  0  0  0  0  0999 V2000
  -27.4450  -21.3530   20.8540 C   0  0  0  0  0  1  0  0  0  0  0  0
  -28.9140  -21.6310   20.4930 C   0  0  0  0  0  3  0  0  0  0  0  0
  -29.4370  -20.5660   19.6240 N   0  0  0  0  0  0  0  0  0  0  0  0
  -29.2430  -20.7330   18.6400 H   0  0  0  0  0  0  0  0  0  0  0  0
  -31.0410  -14.6720   20.5080 C   0  0  0  0  0  0  0  0  0  0  0  0
  -30.7090  -12.5550   19.2640 C   0  0  0  0  0  2  0  0  0  0  0  0
  -29.7810  -12.7790   18.0550 C   0  0  0  0  0  2  0  0  0  0  0  0
  -28.3060  -12.6320   18.4690 C   0  0  0  0  0  2  0  0  0  0  0  0
  -27.9600  -13.4480   19.7420 C   0  0  0  0  0  3  0  0  0  0  0  0
  -29.0010  -13.2200   20.8590 C   0  0  0  0  0  2  0  0  0  0  0  0
  -30.3290  -13.5260   20.3040 N   0  0  0  0  0  0  0  0  0  0  0  0
  -32.1720  -14.8340   20.0410 O   0  0  0  0  0  0  0  0  0  0  0  0
  -28.6370  -18.2130   19.3970 C   0  0  0  0  0  0  0  0  0  0  0  0
  -29.4230  -19.1950   19.9660 C   0  0  0  0  0  0  0  0  0  0  0  0
  -29.9590  -16.8650   20.6870 C   0  0  0  0  0  0  0  0  0  0  0  0
  -27.5280  -18.4320   18.4130 C   0  0  0  0  0  1  0  0  0  0  0  0
  -28.9500  -16.9030   19.8080 N   0  0  0  0  0  0  0  0  0  0  0  0
  -30.4700  -15.6490   21.2410 N   0  0  0  0  0  0  0  0  0  0  0  0
  -30.5410  -18.4860   21.1210 S   0  0  0  0  0  0  0  0  0  0  0  0
  -31.0750  -15.8670   22.0190 H   0  0  0  0  0  0  0  0  0  0  0  0
  -25.5560  -14.0630   20.4010 C   0  0  0  0  0  0  0  0  0  0  0  0
  -24.4790  -13.2940   20.7510 C   0  0  0  0  0  0  0  0  0  0  0  0
  -24.9390  -11.9420   20.7450 C   0  0  0  0  0  0  0  0  0  0  0  0
  -26.6030  -13.1770   20.2000 N   0  0  0  0  0  0  0  0  0  0  0  0
  -26.2350  -11.8970   20.4670 N   0  0  0  0  0  0  0  0  0  0  0  0
  -24.2090  -10.6810   20.9320 C   0  0  0  0  0  0  0  0  0  0  0  0
  -24.5890   -9.7470   21.9210 C   0  0  0  0  0  3  0  0  0  0  0  0
  -23.8620   -8.5490   22.0930 C   0  0  0  0  0  3  0  0  0  0  0  0
  -22.7400   -8.2760   21.2740 C   0  0  0  0  0  0  0  0  0  0  0  0
  -22.3790   -9.2000   20.2760 C   0  0  0  0  0  3  0  0  0  0  0  0
  -23.1080  -10.3890   20.1030 C   0  0  0  0  0  3  0  0  0  0  0  0
  -21.9890   -7.1290   21.3510 O   0  0  0  0  0  0  0  0  0  0  0  0
  -21.8250   -6.4550   22.5350 C   0  0  0  0  0  0  0  0  0  0  0  0
  -21.2050   -7.0550   23.6520 C   0  0  0  0  0  3  0  0  0  0  0  0
  -20.9910   -6.3040   24.8260 C   0  0  0  0  0  3  0  0  0  0  0  0
  -21.3900   -4.9550   24.8820 C   0  0  0  0  0  0  0  0  0  0  0  0
  -22.0020   -4.3550   23.7690 C   0  0  0  0  0  3  0  0  0  0  0  0
  -22.2170   -5.1030   22.5970 C   0  0  0  0  0  0  0  0  0  0  0  0
  -22.7880   -4.5130   21.5190 F   0  0  0  0  0  0  0  0  0  0  0  0
  -21.1770   -4.2320   26.0060 F   0  0  0  0  0  0  0  0  0  0  0  0
  -23.0760  -13.7730   20.9900 C   0  0  0  0  0  0  0  0  0  0  0  0
  -22.3330  -13.0850   21.8500 N   0  0  0  0  0  0  0  0  0  0  0  0
  -22.6480  -14.7920   20.4510 O   0  0  0  0  0  0  0  0  0  0  0  0
  -22.6930  -12.2580   22.3040 H   0  0  0  0  0  0  0  0  0  0  0  0
  -21.3910  -13.3880   22.0550 H   0  0  0  0  0  0  0  0  0  0  0  0
  -25.7340  -15.4330   20.2180 N   0  0  0  0  0  0  0  0  0  0  0  0
  -24.9840  -16.1060   20.3260 H   0  0  0  0  0  0  0  0  0  0  0  0
  -26.6210  -15.8590   19.9730 H   0  0  0  0  0  0  0  0  0  0  0  0
  -29.0850  -23.0150   19.7780 C   0  0  0  0  0  2  0  0  0  0  0  0
  -28.5800  -24.3080   20.4980 C   0  0  0  0  0  2  0  0  0  0  0  0
  -28.8920  -25.6190   19.7070 C   0  0  0  0  0  2  0  0  0  0  0  0
  -28.6800  -26.8620   20.4150 O   0  0  0  0  0  0  0  0  0  0  0  0
  -24.6250  -31.9360   23.3720 C   0  0  0  0  0  0  0  0  0  0  0  0
  -27.4800  -27.5540   20.3470 C   0  0  0  0  0  0  0  0  0  0  0  0
  -23.5180  -30.5330   21.6640 C   0  0  0  0  0  3  0  0  0  0  0  0
  -25.0570  -29.0390   20.2800 C   0  0  0  0  0  0  0  0  0  0  0  0
  -26.0450  -30.9340   21.5770 C   0  0  0  0  0  2  0  0  0  0  0  0
  -26.1820  -29.5710   20.9220 C   0  0  0  0  0  0  0  0  0  0  0  0
  -27.3910  -28.8340   20.9510 C   0  0  0  0  0  3  0  0  0  0  0  0
  -26.3250  -27.0360   19.7130 C   0  0  0  0  0  3  0  0  0  0  0  0
  -25.1250  -27.7730   19.6750 C   0  0  0  0  0  3  0  0  0  0  0  0
  -23.7980  -29.8790   20.2850 C   0  0  0  0  0  2  0  0  0  0  0  0
  -24.7450  -31.1490   22.2640 N   0  0  0  0  0  0  0  0  0  0  0  0
  -23.5160  -32.1810   23.8670 O   0  0  0  0  0  0  0  0  0  0  0  0
  -22.8460  -29.4870   22.5830 C   0  0  0  0  0  0  0  0  0  0  0  0
  -21.5290  -29.2910   22.4070 N   0  0  0  0  0  0  0  0  0  0  0  0
  -23.5090  -28.8550   23.4100 O   0  0  0  0  0  0  0  0  0  0  0  0
  -21.0550  -29.8460   21.7090 H   0  0  0  0  0  0  0  0  0  0  0  0
  -18.1420  -28.0960   22.8180 C   0  0  0  0  0  0  0  0  0  0  0  0
  -20.6970  -28.3320   23.1340 C   0  0  0  0  0  3  0  0  0  0  0  0
  -20.7980  -26.9210   22.5110 C   0  0  0  0  0  2  0  0  0  0  0  0
  -19.7110  -26.6470   21.4660 C   0  0  0  0  0  2  0  0  0  0  0  0
  -18.3210  -26.7720   22.0970 C   0  0  0  0  0  2  0  0  0  0  0  0
  -19.2580  -28.8370   23.2890 C   0  0  0  0  0  0  0  0  0  0  0  0
  -19.0370  -30.0780   23.9260 C   0  0  0  0  0  3  0  0  0  0  0  0
  -17.7340  -30.5770   24.0980 C   0  0  0  0  0  3  0  0  0  0  0  0
  -16.6300  -29.8320   23.6450 C   0  0  0  0  0  3  0  0  0  0  0  0
  -16.8360  -28.5940   23.0110 C   0  0  0  0  0  3  0  0  0  0  0  0
  -25.8680  -32.5840   24.0540 C   0  0  0  0  0  3  0  0  0  0  0  0
  -26.3330  -31.8180   25.3540 C   0  0  1  0  0  0  0  0  0  0  0  0
  -25.1900  -31.5500   26.3600 C   0  0  0  0  0  1  0  0  0  0  0  0
  -26.9680  -30.4570   24.9850 C   0  0  0  0  0  1  0  0  0  0  0  0
  -27.4280  -32.6370   26.0780 C   0  0  0  0  0  1  0  0  0  0  0  0
  -25.5240  -33.9780   24.3690 N   0  0  0  0  0  0  0  0  0  0  0  0
  -25.8890  -35.0360   23.6320 C   0  0  0  0  0  0  0  0  0  0  0  0
  -26.6190  -34.9420   22.6410 O   0  0  0  0  0  0  0  0  0  0  0  0
  -24.8830  -34.1240   25.1340 H   0  0  0  0  0  0  0  0  0  0  0  0
  -24.1850  -36.8250   23.1600 C   0  0  0  0  0  1  0  0  0  0  0  0
  -25.3620  -36.4190   24.0630 C   0  0  0  0  0  3  0  0  0  0  0  0
  -27.4130  -37.3130   25.0750 C   0  0  0  0  0  1  0  0  0  0  0  0
  -26.3950  -37.4770   24.0400 N   0  0  0  0  0  0  0  0  0  0  0  0
  -25.9750  -38.3960   24.1530 H   0  0  0  0  0  0  0  0  0  0  0  0
  2  1  1  0
  3 14  1  0
  3  2  1  0
  4  3  1  0
  5 18  1  0
  6 11  1  0
  7  8  1  0
  7  6  1  0
  9  8  1  0
  9 24  1  0
  9 10  1  0
 11  5  1  0
 11 10  1  0
 12  5  2  0
 13 17  1  0
 13 14  2  0
 14 19  1  0
 15 19  1  0
 15 18  1  0
 16 13  1  0
 17 15  2  0
 18 20  1  0
 21 22  2  0
 22 41  1  0
 23 22  1  0
 23 26  1  0
 24 21  1  0
 24 25  1  0
 25 23  2  0
 26 27  1  0
 27 28  2  0
 29 32  1  0
 29 28  1  0
 30 29  2  0
 31 30  1  0
 31 26  2  0
 32 33  1  0
 33 38  2  0
 33 34  1  0
 34 35  2  0
 35 36  1  0
 36 40  1  0
 37 36  2  0
 38 37  1  0
 39 38  1  0
 41 42  1  0
 42 45  1  0
 42 44  1  0
 43 41  2  0
 46 47  1  0
 46 21  1  0
 48 46  1  0
 49  2  1  0
 49 50  1  0
 51 52  1  0
 51 50  1  0
 53 64  2  0
 54 52  1  0
 54 59  1  0
 55 63  1  0
 55 65  1  0
 56 62  1  0
 56 58  1  0
 57 63  1  0
 58 59  2  0
 58 57  1  0
 60 54  2  0
 61 60  1  0
 61 56  2  0
 62 55  1  0
 63 53  1  0
 65 67  2  0
 66 65  1  0
 68 66  1  0
 69 78  2  0
 69 74  1  0
 70 66  1  0
 70 74  1  0
 71 70  1  0
 72 73  1  0
 72 71  1  0
 73 69  1  0
 74 75  2  0
 75 76  1  0
 77 76  2  0
 78 77  1  0
 79 53  1  0
 79 84  1  0
 79 80  1  0
 80 83  1  1
 80 81  1  0
 82 80  1  0
 84 87  1  0
 85 89  1  0
 85 84  1  0
 86 85  2  0
 89 88  1  0
 91 89  1  0
 91 92  1  0
 91 90  1  0
M  ISO  4   5 100  18 100  51 101  52 101
M  END
>  <TORSDO>  (36) 
F 20

>  <SCORE>  (36) 
-13.347

>  <name>  (36) 
35

>  <ligand_id>  (36) 
35

>  <original_smiles>  (36) 
[H]c1c([H])c([H])c2c(c1[H])C([H])([H])C([H])([H])C([H])([H])C2([H])N([H])C(=O)C1([H])N(C(=O)C([H])(N([H])C(=O)C([H])(N([H])C([H])([H])[H])C([H])([H])[H])C(C([H])([H])[H])(C([H])([H])[H])C([H])([H])[H])C([H])([H])c2c([H])c(OC([H])([H])C([H])([H])C([H])([H])C([H])(N([H])c3sc(N([H])C(=O)N4C([H])([H])C([H])([H])C([H])([H])C([H])(n5nc(-c6c([H])c([H])c(Oc7c([H])c([H])c(F)c([H])c7F)c([H])c6[H])c(C(=O)N([H])[H])c5N([H])[H])C4([H])[H])nc3C([H])([H])[H])C([H])([H])[H])c([H])c([H])c2C1([H])[H]

>  <smiles>  (36) 
[H]c1c([H])c([H])c2c(c1[H])C([H])([H])C([H])([H])C([H])([H])C2([H])N([H])C(=O)C1([H])N(C(=O)C([H])(N([H])C(=O)C([H])(N([H])C([H])([H])[H])C([H])([H])[H])C(C([H])([H])[H])(C([H])([H])[H])C([H])([H])[H])C([H])([H])c2c([H])c(OC([H])([H])C([H])([H])C([H])([H])C([H])(N([H])c3sc(N([H])C(=O)N4C([H])([H])C([H])([H])C([H])([H])C([H])(n5nc(-c6c([H])c([H])c(Oc7c([H])c([H])c(F)c([H])c7F)c([H])c6[H])c(C(=O)N([H])[H])c5N([H])[H])C4([H])[H])nc3C([H])([H])[H])C([H])([H])[H])c([H])c([H])c2C1([H])[H]

$$$$
36:0:0
     RDKit          3D

 91 99  0  0  1  0  0  0  0  0999 V2000
  -28.8260  -23.0080   21.2380 C   0  0  0  0  0  3  0  0  0  0  0  0
  -29.1100  -23.1330   22.6220 O   0  0  0  0  0  0  0  0  0  0  0  0
  -30.0410  -23.3100   22.7250 H   0  0  0  0  0  0  0  0  0  0  0  0
  -29.6120  -21.7900   20.6880 C   0  0  0  0  0  2  0  0  0  0  0  0
  -29.1420  -20.4140   21.2440 C   0  0  0  0  0  2  0  0  0  0  0  0
  -30.7440  -14.5490   20.1720 C   0  0  0  0  0  0  0  0  0  0  0  0
  -30.3990  -12.3940   19.0310 C   0  0  0  0  0  2  0  0  0  0  0  0
  -29.4170  -12.6170   17.8610 C   0  0  0  0  0  2  0  0  0  0  0  0
  -27.9610  -12.4690   18.3430 C   0  0  0  0  0  2  0  0  0  0  0  0
  -27.6660  -13.2840   19.6310 C   0  0  0  0  0  3  0  0  0  0  0  0
  -28.7660  -13.0640   20.6960 C   0  0  0  0  0  2  0  0  0  0  0  0
  -30.0650  -13.3730   20.0790 N   0  0  0  0  0  0  0  0  0  0  0  0
  -31.8670  -14.6870   19.6810 O   0  0  0  0  0  0  0  0  0  0  0  0
  -31.0960  -19.2570   20.0130 C   0  0  0  0  0  3  0  0  0  0  0  0
  -29.9360  -19.2240   20.7490 C   0  0  0  0  0  0  0  0  0  0  0  0
  -30.3460  -16.9710   20.5390 C   0  0  0  0  0  0  0  0  0  0  0  0
  -29.5220  -17.9070   21.0400 N   0  0  0  0  0  0  0  0  0  0  0  0
  -30.0600  -15.5820   20.7030 N   0  0  0  0  0  0  0  0  0  0  0  0
  -31.7120  -17.6690   19.6610 S   0  0  0  0  0  0  0  0  0  0  0  0
  -29.1720  -15.3590   21.1210 H   0  0  0  0  0  0  0  0  0  0  0  0
  -25.2910  -13.8550   20.4360 C   0  0  0  0  0  0  0  0  0  0  0  0
  -24.2460  -13.0670   20.8380 C   0  0  0  0  0  0  0  0  0  0  0  0
  -24.7200  -11.7210   20.7740 C   0  0  0  0  0  0  0  0  0  0  0  0
  -26.3360  -12.9890   20.1580 N   0  0  0  0  0  0  0  0  0  0  0  0
  -25.9980  -11.6990   20.4190 N   0  0  0  0  0  0  0  0  0  0  0  0
  -24.0140  -10.4480   20.9760 C   0  0  0  0  0  0  0  0  0  0  0  0
  -24.4720   -9.4900   21.9060 C   0  0  0  0  0  3  0  0  0  0  0  0
  -23.7660   -8.2820   22.0970 C   0  0  0  0  0  3  0  0  0  0  0  0
  -22.5880   -8.0250   21.3560 C   0  0  0  0  0  0  0  0  0  0  0  0
  -22.1490   -8.9730   20.4150 C   0  0  0  0  0  3  0  0  0  0  0  0
  -22.8560  -10.1720   20.2220 C   0  0  0  0  0  3  0  0  0  0  0  0
  -21.8520   -6.8690   21.4560 O   0  0  0  0  0  0  0  0  0  0  0  0
  -21.8060   -6.1430   22.6190 C   0  0  0  0  0  0  0  0  0  0  0  0
  -21.3290   -6.6990   23.8260 C   0  0  0  0  0  3  0  0  0  0  0  0
  -21.2340   -5.8970   24.9820 C   0  0  0  0  0  3  0  0  0  0  0  0
  -21.6040   -4.5390   24.9290 C   0  0  0  0  0  0  0  0  0  0  0  0
  -22.0730   -3.9830   23.7260 C   0  0  0  0  0  3  0  0  0  0  0  0
  -22.1700   -4.7830   22.5740 C   0  0  0  0  0  0  0  0  0  0  0  0
  -22.6020   -4.2350   21.4120 F   0  0  0  0  0  0  0  0  0  0  0  0
  -21.5050   -3.7670   26.0360 F   0  0  0  0  0  0  0  0  0  0  0  0
  -22.8550  -13.5260   21.1680 C   0  0  0  0  0  0  0  0  0  0  0  0
  -22.1660  -12.8100   22.0500 N   0  0  0  0  0  0  0  0  0  0  0  0
  -22.3880  -14.5540   20.6800 O   0  0  0  0  0  0  0  0  0  0  0  0
  -22.5570  -11.9790   22.4680 H   0  0  0  0  0  0  0  0  0  0  0  0
  -21.2340  -13.1000   22.3120 H   0  0  0  0  0  0  0  0  0  0  0  0
  -25.4340  -15.2290   20.2680 N   0  0  0  0  0  0  0  0  0  0  0  0
  -24.6630  -15.8730   20.4130 H   0  0  0  0  0  0  0  0  0  0  0  0
  -26.2670  -15.6860   19.9160 H   0  0  0  0  0  0  0  0  0  0  0  0
  -29.1420  -24.3560   20.5270 C   0  0  0  0  0  2  0  0  0  0  0  0
  -28.2310  -25.5220   20.9830 C   0  0  0  0  0  2  0  0  0  0  0  0
  -28.4190  -26.7460   20.2440 O   0  0  0  0  0  0  0  0  0  0  0  0
  -24.5720  -31.9140   23.2740 C   0  0  0  0  0  0  0  0  0  0  0  0
  -27.2820  -27.5210   20.1950 C   0  0  0  0  0  0  0  0  0  0  0  0
  -23.4000  -30.5270   21.5950 C   0  0  0  0  0  3  0  0  0  0  0  0
  -24.8860  -29.0190   20.1710 C   0  0  0  0  0  0  0  0  0  0  0  0
  -25.9280  -30.9010   21.4450 C   0  0  0  0  0  2  0  0  0  0  0  0
  -26.0320  -29.5410   20.7860 C   0  0  0  0  0  0  0  0  0  0  0  0
  -27.2370  -28.8010   20.7930 C   0  0  0  0  0  3  0  0  0  0  0  0
  -26.1260  -27.0200   19.5590 C   0  0  0  0  0  3  0  0  0  0  0  0
  -24.9280  -27.7580   19.5510 C   0  0  0  0  0  3  0  0  0  0  0  0
  -23.6350  -29.8660   20.2100 C   0  0  0  0  0  2  0  0  0  0  0  0
  -24.6500  -31.1280   22.1640 N   0  0  0  0  0  0  0  0  0  0  0  0
  -23.4800  -32.1750   23.7990 O   0  0  0  0  0  0  0  0  0  0  0  0
  -22.7380  -29.4910   22.5320 C   0  0  0  0  0  0  0  0  0  0  0  0
  -21.4160  -29.3090   22.3850 N   0  0  0  0  0  0  0  0  0  0  0  0
  -23.4120  -28.8530   23.3450 O   0  0  0  0  0  0  0  0  0  0  0  0
  -20.9330  -29.8750   21.7010 H   0  0  0  0  0  0  0  0  0  0  0  0
  -18.0340  -28.1170   22.8320 C   0  0  0  0  0  0  0  0  0  0  0  0
  -20.5900  -28.3600   23.1310 C   0  0  0  0  0  3  0  0  0  0  0  0
  -20.6920  -26.9390   22.5280 C   0  0  0  0  0  2  0  0  0  0  0  0
  -19.5990  -26.6400   21.4990 C   0  0  0  0  0  2  0  0  0  0  0  0
  -18.2110  -26.7800   22.1340 C   0  0  0  0  0  2  0  0  0  0  0  0
  -19.1520  -28.8660   23.2870 C   0  0  0  0  0  0  0  0  0  0  0  0
  -18.9330  -30.1190   23.8980 C   0  0  0  0  0  3  0  0  0  0  0  0
  -17.6290  -30.6240   24.0600 C   0  0  0  0  0  3  0  0  0  0  0  0
  -16.5250  -29.8710   23.6240 C   0  0  0  0  0  3  0  0  0  0  0  0
  -16.7290  -28.6190   23.0160 C   0  0  0  0  0  3  0  0  0  0  0  0
  -25.8440  -32.5440   23.9220 C   0  0  0  0  0  3  0  0  0  0  0  0
  -25.5330  -33.9430   24.2420 N   0  0  0  0  0  0  0  0  0  0  0  0
  -25.8970  -34.9930   23.4930 C   0  0  0  0  0  0  0  0  0  0  0  0
  -26.6000  -34.8850   22.4850 O   0  0  0  0  0  0  0  0  0  0  0  0
  -24.9130  -34.1020   25.0230 H   0  0  0  0  0  0  0  0  0  0  0  0
  -24.2030  -36.8010   23.0640 C   0  0  0  0  0  1  0  0  0  0  0  0
  -25.4000  -36.3830   23.9330 C   0  0  0  0  0  3  0  0  0  0  0  0
  -27.4970  -37.2450   24.8740 C   0  0  0  0  0  1  0  0  0  0  0  0
  -26.4460  -37.4270   23.8760 N   0  0  0  0  0  0  0  0  0  0  0  0
  -26.0410  -38.3500   24.0060 H   0  0  0  0  0  0  0  0  0  0  0  0
  -26.3340  -31.7720   25.2090 C   0  0  1  0  0  0  0  0  0  0  0  0
  -25.2170  -31.5340   26.2520 C   0  0  0  0  0  1  0  0  0  0  0  0
  -26.9280  -30.3950   24.8290 C   0  0  0  0  0  1  0  0  0  0  0  0
  -27.4700  -32.5670   25.8960 C   0  0  0  0  0  1  0  0  0  0  0  0
  1 49  1  0
  1  2  1  0
  2  3  1  0
  4  1  1  0
  4  5  1  0
  6 18  1  0
  7 12  1  0
  8  9  1  0
  8  7  1  0
 10  9  1  0
 10 24  1  0
 10 11  1  0
 12  6  1  0
 12 11  1  0
 13  6  2  0
 14 15  2  0
 15 17  1  0
 15  5  1  0
 16 18  1  0
 16 17  2  0
 18 20  1  0
 19 14  1  0
 19 16  1  0
 21 22  2  0
 22 41  1  0
 23 22  1  0
 23 26  1  0
 24 25  1  0
 24 21  1  0
 25 23  2  0
 26 27  1  0
 27 28  2  0
 29 32  1  0
 29 28  1  0
 30 29  2  0
 31 30  1  0
 31 26  2  0
 32 33  1  0
 33 34  1  0
 34 35  2  0
 36 35  1  0
 36 40  1  0
 37 36  2  0
 38 33  2  0
 38 37  1  0
 39 38  1  0
 41 42  1  0
 42 45  1  0
 42 44  1  0
 43 41  2  0
 46 47  1  0
 46 21  1  0
 48 46  1  0
 49 50  1  0
 51 50  1  0
 52 63  2  0
 53 51  1  0
 53 58  1  0
 54 62  1  0
 54 64  1  0
 55 61  1  0
 55 57  1  0
 56 62  1  0
 57 58  2  0
 57 56  1  0
 59 53  2  0
 60 59  1  0
 60 55  2  0
 61 54  1  0
 62 52  1  0
 64 66  2  0
 65 64  1  0
 67 65  1  0
 68 77  2  0
 68 73  1  0
 69 65  1  0
 69 73  1  0
 70 69  1  0
 71 72  1  0
 71 70  1  0
 72 68  1  0
 73 74  2  0
 74 75  1  0
 76 75  2  0
 77 76  1  0
 78 52  1  0
 78 79  1  0
 78 88  1  0
 79 82  1  0
 80 84  1  0
 80 79  1  0
 81 80  2  0
 84 83  1  0
 86 84  1  0
 86 87  1  0
 86 85  1  0
 88 91  1  1
 88 89  1  0
 90 88  1  0
M  ISO  4   6 100  18 100  50 101  51 101
M  END
>  <TORSDO>  (37) 
F 21

>  <SCORE>  (37) 
-13.645

>  <name>  (37) 
36

>  <ligand_id>  (37) 
36

>  <original_smiles>  (37) 
[H]OC([H])(C([H])([H])C([H])([H])Oc1c([H])c([H])c2c(c1[H])C([H])([H])N(C(=O)C([H])(N([H])C(=O)C([H])(N([H])C([H])([H])[H])C([H])([H])[H])C(C([H])([H])[H])(C([H])([H])[H])C([H])([H])[H])C([H])(C(=O)N([H])C1([H])c3c([H])c([H])c([H])c([H])c3C([H])([H])C([H])([H])C1([H])[H])C2([H])[H])C([H])([H])C([H])([H])c1nc(N([H])C(=O)N2C([H])([H])C([H])([H])C([H])([H])C([H])(n3nc(-c4c([H])c([H])c(Oc5c([H])c([H])c(F)c([H])c5F)c([H])c4[H])c(C(=O)N([H])[H])c3N([H])[H])C2([H])[H])sc1[H]

>  <smiles>  (37) 
[H]OC([H])(C([H])([H])C([H])([H])Oc1c([H])c([H])c2c(c1[H])C([H])([H])N(C(=O)C([H])(N([H])C(=O)C([H])(N([H])C([H])([H])[H])C([H])([H])[H])C(C([H])([H])[H])(C([H])([H])[H])C([H])([H])[H])C([H])(C(=O)N([H])C1([H])c3c([H])c([H])c([H])c([H])c3C([H])([H])C([H])([H])C1([H])[H])C2([H])[H])C([H])([H])C([H])([H])c1nc(N([H])C(=O)N2C([H])([H])C([H])([H])C([H])([H])C([H])(n3nc(-c4c([H])c([H])c(Oc5c([H])c([H])c(F)c([H])c5F)c([H])c4[H])c(C(=O)N([H])[H])c3N([H])[H])C2([H])[H])sc1[H]

$$$$
37:0:0
     RDKit          3D

 92100  0  0  1  0  0  0  0  0999 V2000
  -29.5470  -21.7280   20.3980 C   0  0  0  0  0  2  0  0  0  0  0  0
  -29.1860  -20.5290   21.1610 N   0  0  0  0  0  0  0  0  0  0  0  0
  -28.2340  -20.5170   21.5270 H   0  0  0  0  0  0  0  0  0  0  0  0
  -31.1460  -17.5650   20.1070 C   0  0  0  0  0  3  0  0  0  0  0  0
  -30.9010  -18.9720   20.1890 C   0  0  0  0  0  3  0  0  0  0  0  0
  -30.1880  -16.7870   20.7240 C   0  0  0  0  0  0  0  0  0  0  0  0
  -29.7540  -19.2840   20.8700 C   0  0  0  0  0  0  0  0  0  0  0  0
  -28.9700  -17.8260   21.4350 S   0  0  0  0  0  0  0  0  0  0  0  0
  -30.7250  -14.4750   20.1330 C   0  0  0  0  0  0  0  0  0  0  0  0
  -30.3620  -12.3670   18.9070 C   0  0  0  0  0  2  0  0  0  0  0  0
  -29.3530  -12.6270   17.7690 C   0  0  0  0  0  2  0  0  0  0  0  0
  -27.9040  -12.4780   18.2740 C   0  0  0  0  0  2  0  0  0  0  0  0
  -27.6450  -13.2630   19.5890 C   0  0  0  0  0  3  0  0  0  0  0  0
  -28.7560  -12.9760   20.6240 C   0  0  0  0  0  2  0  0  0  0  0  0
  -30.0530  -13.2990   20.0030 N   0  0  0  0  0  0  0  0  0  0  0  0
  -31.8100  -14.6850   19.5820 O   0  0  0  0  0  0  0  0  0  0  0  0
  -30.0680  -15.4290   20.8210 N   0  0  0  0  0  0  0  0  0  0  0  0
  -29.2460  -15.1000   21.3030 H   0  0  0  0  0  0  0  0  0  0  0  0
  -25.2800  -13.8540   20.4180 C   0  0  0  0  0  0  0  0  0  0  0  0
  -24.2320  -13.0710   20.8290 C   0  0  0  0  0  0  0  0  0  0  0  0
  -24.6970  -11.7230   20.7570 C   0  0  0  0  0  0  0  0  0  0  0  0
  -26.3150  -12.9790   20.1270 N   0  0  0  0  0  0  0  0  0  0  0  0
  -25.9700  -11.6920   20.3850 N   0  0  0  0  0  0  0  0  0  0  0  0
  -23.9860  -10.4540   20.9660 C   0  0  0  0  0  0  0  0  0  0  0  0
  -24.4440   -9.4960   21.8970 C   0  0  0  0  0  3  0  0  0  0  0  0
  -23.7340   -8.2920   22.0930 C   0  0  0  0  0  3  0  0  0  0  0  0
  -22.5530   -8.0360   21.3580 C   0  0  0  0  0  0  0  0  0  0  0  0
  -22.1140   -8.9830   20.4150 C   0  0  0  0  0  3  0  0  0  0  0  0
  -22.8240  -10.1780   20.2170 C   0  0  0  0  0  3  0  0  0  0  0  0
  -21.8130   -6.8830   21.4640 O   0  0  0  0  0  0  0  0  0  0  0  0
  -21.7550   -6.1700   22.6340 C   0  0  0  0  0  0  0  0  0  0  0  0
  -21.3010   -6.7510   23.8390 C   0  0  0  0  0  3  0  0  0  0  0  0
  -21.1920   -5.9630   25.0030 C   0  0  0  0  0  3  0  0  0  0  0  0
  -21.5240   -4.5950   24.9620 C   0  0  0  0  0  0  0  0  0  0  0  0
  -21.9710   -4.0150   23.7620 C   0  0  0  0  0  3  0  0  0  0  0  0
  -22.0830   -4.8000   22.6000 C   0  0  0  0  0  0  0  0  0  0  0  0
  -22.4930   -4.2310   21.4420 F   0  0  0  0  0  0  0  0  0  0  0  0
  -21.4120   -3.8360   26.0770 F   0  0  0  0  0  0  0  0  0  0  0  0
  -22.8490  -13.5380   21.1750 C   0  0  0  0  0  0  0  0  0  0  0  0
  -22.1670  -12.8260   22.0670 N   0  0  0  0  0  0  0  0  0  0  0  0
  -22.3800  -14.5680   20.6920 O   0  0  0  0  0  0  0  0  0  0  0  0
  -22.5590  -11.9920   22.4780 H   0  0  0  0  0  0  0  0  0  0  0  0
  -21.2400  -13.1190   22.3420 H   0  0  0  0  0  0  0  0  0  0  0  0
  -25.4310  -15.2260   20.2500 N   0  0  0  0  0  0  0  0  0  0  0  0
  -24.6700  -15.8790   20.3990 H   0  0  0  0  0  0  0  0  0  0  0  0
  -26.2650  -15.6690   19.8820 H   0  0  0  0  0  0  0  0  0  0  0  0
  -28.8680  -22.9680   21.0180 C   0  0  0  0  0  3  0  0  0  0  0  0
  -29.3370  -22.9680   22.3510 O   0  0  0  0  0  0  0  0  0  0  0  0
  -29.4630  -22.0390   22.5490 H   0  0  0  0  0  0  0  0  0  0  0  0
  -29.1690  -24.3260   20.3340 C   0  0  0  0  0  2  0  0  0  0  0  0
  -28.3540  -25.4910   20.9430 C   0  0  0  0  0  2  0  0  0  0  0  0
  -28.4710  -26.7150   20.2020 O   0  0  0  0  0  0  0  0  0  0  0  0
  -24.6080  -31.8780   23.2310 C   0  0  0  0  0  0  0  0  0  0  0  0
  -27.3140  -27.4600   20.1820 C   0  0  0  0  0  0  0  0  0  0  0  0
  -23.4290  -30.4690   21.5760 C   0  0  0  0  0  3  0  0  0  0  0  0
  -24.9080  -28.9400   20.1670 C   0  0  0  0  0  0  0  0  0  0  0  0
  -25.9530  -30.8450   21.4050 C   0  0  0  0  0  2  0  0  0  0  0  0
  -26.0570  -29.4760   20.7660 C   0  0  0  0  0  0  0  0  0  0  0  0
  -27.2660  -28.7430   20.7700 C   0  0  0  0  0  3  0  0  0  0  0  0
  -26.1540  -26.9370   19.5750 C   0  0  0  0  0  3  0  0  0  0  0  0
  -24.9510  -27.6690   19.5690 C   0  0  0  0  0  3  0  0  0  0  0  0
  -23.6580  -29.7900   20.1990 C   0  0  0  0  0  2  0  0  0  0  0  0
  -24.6810  -31.0790   22.1300 N   0  0  0  0  0  0  0  0  0  0  0  0
  -23.5200  -32.1460   23.7580 O   0  0  0  0  0  0  0  0  0  0  0  0
  -22.7710  -29.4460   22.5290 C   0  0  0  0  0  0  0  0  0  0  0  0
  -21.4460  -29.2680   22.3910 N   0  0  0  0  0  0  0  0  0  0  0  0
  -23.4470  -28.8140   23.3450 O   0  0  0  0  0  0  0  0  0  0  0  0
  -20.9630  -29.8300   21.7050 H   0  0  0  0  0  0  0  0  0  0  0  0
  -18.0630  -28.0950   22.8730 C   0  0  0  0  0  0  0  0  0  0  0  0
  -20.6220  -28.3280   23.1490 C   0  0  0  0  0  3  0  0  0  0  0  0
  -20.7120  -26.9040   22.5570 C   0  0  0  0  0  2  0  0  0  0  0  0
  -19.6090  -26.6020   21.5380 C   0  0  0  0  0  2  0  0  0  0  0  0
  -18.2270  -26.7520   22.1830 C   0  0  0  0  0  2  0  0  0  0  0  0
  -19.1880  -28.8430   23.3110 C   0  0  0  0  0  0  0  0  0  0  0  0
  -18.9810  -30.1030   23.9140 C   0  0  0  0  0  3  0  0  0  0  0  0
  -17.6810  -30.6160   24.0840 C   0  0  0  0  0  3  0  0  0  0  0  0
  -16.5700  -29.8640   23.6630 C   0  0  0  0  0  3  0  0  0  0  0  0
  -16.7610  -28.6060   23.0640 C   0  0  0  0  0  3  0  0  0  0  0  0
  -25.8860  -32.5130   23.8680 C   0  0  0  0  0  3  0  0  0  0  0  0
  -25.5700  -33.9090   24.1970 N   0  0  0  0  0  0  0  0  0  0  0  0
  -25.9070  -34.9630   23.4430 C   0  0  0  0  0  0  0  0  0  0  0  0
  -26.5890  -34.8640   22.4190 O   0  0  0  0  0  0  0  0  0  0  0  0
  -24.9680  -34.0610   24.9940 H   0  0  0  0  0  0  0  0  0  0  0  0
  -24.1780  -36.7470   23.0640 C   0  0  0  0  0  1  0  0  0  0  0  0
  -25.4070  -36.3490   23.8950 C   0  0  0  0  0  3  0  0  0  0  0  0
  -27.5240  -37.2380   24.7630 C   0  0  0  0  0  1  0  0  0  0  0  0
  -26.4380  -37.4050   23.8010 N   0  0  0  0  0  0  0  0  0  0  0  0
  -26.0260  -38.3230   23.9430 H   0  0  0  0  0  0  0  0  0  0  0  0
  -26.3940  -31.7390   25.1450 C   0  0  1  0  0  0  0  0  0  0  0  0
  -25.2920  -31.4900   26.2020 C   0  0  0  0  0  1  0  0  0  0  0  0
  -26.9910  -30.3680   24.7480 C   0  0  0  0  0  1  0  0  0  0  0  0
  -27.5340  -32.5370   25.8220 C   0  0  0  0  0  1  0  0  0  0  0  0
  1 47  1  0
  1  2  1  0
  2  3  1  0
  4  5  1  0
  4  6  2  0
  5  7  2  0
  6 17  1  0
  6  8  1  0
  7  2  1  0
  7  8  1  0
  9 17  1  0
 10 15  1  0
 11 12  1  0
 11 10  1  0
 13 12  1  0
 13 22  1  0
 13 14  1  0
 15  9  1  0
 15 14  1  0
 16  9  2  0
 17 18  1  0
 19 20  2  0
 20 39  1  0
 21 20  1  0
 21 24  1  0
 22 23  1  0
 22 19  1  0
 23 21  2  0
 24 25  1  0
 25 26  2  0
 27 30  1  0
 27 26  1  0
 28 27  2  0
 29 28  1  0
 29 24  2  0
 30 31  1  0
 31 32  1  0
 32 33  2  0
 34 33  1  0
 34 38  1  0
 35 34  2  0
 36 31  2  0
 36 35  1  0
 37 36  1  0
 39 40  1  0
 40 43  1  0
 40 42  1  0
 41 39  2  0
 44 45  1  0
 44 19  1  0
 46 44  1  0
 47 50  1  0
 47 48  1  0
 48 49  1  0
 50 51  1  0
 52 51  1  0
 53 64  2  0
 54 52  1  0
 54 59  1  0
 55 63  1  0
 55 65  1  0
 56 62  1  0
 56 58  1  0
 57 63  1  0
 58 59  2  0
 58 57  1  0
 60 54  2  0
 61 60  1  0
 61 56  2  0
 62 55  1  0
 63 53  1  0
 65 67  2  0
 66 65  1  0
 68 66  1  0
 69 78  2  0
 69 74  1  0
 70 66  1  0
 70 74  1  0
 71 70  1  0
 72 73  1  0
 72 71  1  0
 73 69  1  0
 74 75  2  0
 75 76  1  0
 77 76  2  0
 78 77  1  0
 79 53  1  0
 79 80  1  0
 79 89  1  0
 80 83  1  0
 81 85  1  0
 81 80  1  0
 82 81  2  0
 85 84  1  0
 87 85  1  0
 87 88  1  0
 87 86  1  0
 89 92  1  1
 89 90  1  0
 91 89  1  0
M  ISO  4   9 100  17 100  51 101  52 101
M  END
>  <TORSDO>  (38) 
F 22

>  <SCORE>  (38) 
-12.608

>  <name>  (38) 
37

>  <ligand_id>  (38) 
37

>  <original_smiles>  (38) 
[H]OC([H])(C([H])([H])N([H])c1sc(N([H])C(=O)N2C([H])([H])C([H])([H])C([H])([H])C([H])(n3nc(-c4c([H])c([H])c(Oc5c([H])c([H])c(F)c([H])c5F)c([H])c4[H])c(C(=O)N([H])[H])c3N([H])[H])C2([H])[H])c([H])c1[H])C([H])([H])C([H])([H])Oc1c([H])c([H])c2c(c1[H])C([H])([H])N(C(=O)C([H])(N([H])C(=O)C([H])(N([H])C([H])([H])[H])C([H])([H])[H])C(C([H])([H])[H])(C([H])([H])[H])C([H])([H])[H])C([H])(C(=O)N([H])C1([H])c3c([H])c([H])c([H])c([H])c3C([H])([H])C([H])([H])C1([H])[H])C2([H])[H]

>  <smiles>  (38) 
[H]OC([H])(C([H])([H])N([H])c1sc(N([H])C(=O)N2C([H])([H])C([H])([H])C([H])([H])C([H])(n3nc(-c4c([H])c([H])c(Oc5c([H])c([H])c(F)c([H])c5F)c([H])c4[H])c(C(=O)N([H])[H])c3N([H])[H])C2([H])[H])c([H])c1[H])C([H])([H])C([H])([H])Oc1c([H])c([H])c2c(c1[H])C([H])([H])N(C(=O)C([H])(N([H])C(=O)C([H])(N([H])C([H])([H])[H])C([H])([H])[H])C(C([H])([H])[H])(C([H])([H])[H])C([H])([H])[H])C([H])(C(=O)N([H])C1([H])c3c([H])c([H])c([H])c([H])c3C([H])([H])C([H])([H])C1([H])[H])C2([H])[H]

$$$$
38:0:0
     RDKit          3D

 90 98  0  0  1  0  0  0  0  0999 V2000
  -29.2990  -19.2380   21.4230 C   0  0  0  0  0  3  0  0  0  0  0  0
  -29.8290  -18.7310   20.2490 C   0  0  0  0  0  0  0  0  0  0  0  0
  -29.1750  -21.2410   20.2360 C   0  0  0  0  0  0  0  0  0  0  0  0
  -28.9470  -20.6230   21.4050 N   0  0  0  0  0  0  0  0  0  0  0  0
  -28.9600  -22.6320   19.9300 N   0  0  0  0  0  0  0  0  0  0  0  0
  -29.8260  -20.0590   19.0590 S   0  0  0  0  0  0  0  0  0  0  0  0
  -29.2200  -22.8050   18.9630 H   0  0  0  0  0  0  0  0  0  0  0  0
  -27.1880  -23.7580   21.2750 C   0  0  0  0  0  1  0  0  0  0  0  0
  -28.5550  -23.9230   20.6000 C   0  0  0  0  0  3  0  0  0  0  0  0
  -28.5540  -25.2390   19.6680 C   0  0  0  0  0  2  0  0  0  0  0  0
  -28.4490  -26.6150   20.2380 O   0  0  0  0  0  0  0  0  0  0  0  0
  -24.6370  -31.9340   23.2800 C   0  0  0  0  0  0  0  0  0  0  0  0
  -27.2970  -27.4220   20.1740 C   0  0  0  0  0  0  0  0  0  0  0  0
  -23.4490  -30.5440   21.6210 C   0  0  0  0  0  3  0  0  0  0  0  0
  -24.9150  -29.0230   20.1740 C   0  0  0  0  0  0  0  0  0  0  0  0
  -25.9840  -30.8870   21.4420 C   0  0  0  0  0  2  0  0  0  0  0  0
  -26.0760  -29.5150   20.7790 C   0  0  0  0  0  0  0  0  0  0  0  0
  -27.2660  -28.7260   20.7680 C   0  0  0  0  0  3  0  0  0  0  0  0
  -26.1040  -26.9800   19.5590 C   0  0  0  0  0  3  0  0  0  0  0  0
  -24.9330  -27.7620   19.5560 C   0  0  0  0  0  3  0  0  0  0  0  0
  -23.6710  -29.8870   20.2300 C   0  0  0  0  0  2  0  0  0  0  0  0
  -24.7090  -31.1400   22.1700 N   0  0  0  0  0  0  0  0  0  0  0  0
  -23.5520  -32.1920   23.8180 O   0  0  0  0  0  0  0  0  0  0  0  0
  -22.7970  -29.5080   22.5680 C   0  0  0  0  0  0  0  0  0  0  0  0
  -21.4730  -29.3190   22.4390 N   0  0  0  0  0  0  0  0  0  0  0  0
  -23.4820  -28.8760   23.3770 O   0  0  0  0  0  0  0  0  0  0  0  0
  -20.9770  -29.8830   21.7630 H   0  0  0  0  0  0  0  0  0  0  0  0
  -18.1060  -28.0870   22.9250 C   0  0  0  0  0  0  0  0  0  0  0  0
  -20.6620  -28.3640   23.1980 C   0  0  0  0  0  3  0  0  0  0  0  0
  -20.7760  -26.9400   22.6050 C   0  0  0  0  0  2  0  0  0  0  0  0
  -19.6780  -26.6220   21.5860 C   0  0  0  0  0  2  0  0  0  0  0  0
  -18.2940  -26.7480   22.2320 C   0  0  0  0  0  2  0  0  0  0  0  0
  -19.2180  -28.8520   23.3640 C   0  0  0  0  0  0  0  0  0  0  0  0
  -18.9890  -30.1050   23.9730 C   0  0  0  0  0  3  0  0  0  0  0  0
  -17.6810  -30.5910   24.1490 C   0  0  0  0  0  3  0  0  0  0  0  0
  -16.5820  -29.8240   23.7270 C   0  0  0  0  0  3  0  0  0  0  0  0
  -16.7960  -28.5740   23.1180 C   0  0  0  0  0  3  0  0  0  0  0  0
  -25.9130  -32.5720   23.9100 C   0  0  0  0  0  3  0  0  0  0  0  0
  -26.4120  -31.8140   25.2020 C   0  0  1  0  0  0  0  0  0  0  0  0
  -25.3050  -31.5880   26.2580 C   0  0  0  0  0  1  0  0  0  0  0  0
  -27.0020  -30.4330   24.8320 C   0  0  0  0  0  1  0  0  0  0  0  0
  -27.5530  -32.6160   25.8710 C   0  0  0  0  0  1  0  0  0  0  0  0
  -25.6000  -33.9740   24.2220 N   0  0  0  0  0  0  0  0  0  0  0  0
  -25.9350  -35.0190   23.4550 C   0  0  0  0  0  0  0  0  0  0  0  0
  -26.6100  -34.9050   22.4280 O   0  0  0  0  0  0  0  0  0  0  0  0
  -24.9990  -34.1350   25.0170 H   0  0  0  0  0  0  0  0  0  0  0  0
  -24.2110  -36.8110   23.0720 C   0  0  0  0  0  1  0  0  0  0  0  0
  -25.4450  -36.4110   23.8960 C   0  0  0  0  0  3  0  0  0  0  0  0
  -27.5680  -37.3090   24.7440 C   0  0  0  0  0  1  0  0  0  0  0  0
  -26.4780  -37.4640   23.7830 N   0  0  0  0  0  0  0  0  0  0  0  0
  -26.0700  -38.3850   23.9170 H   0  0  0  0  0  0  0  0  0  0  0  0
  -30.5430  -17.3710   19.9280 C   0  0  0  0  0  2  0  0  0  0  0  0
  -30.7210  -14.8300   20.0350 C   0  0  0  0  0  0  0  0  0  0  0  0
  -30.4040  -12.6050   18.9740 C   0  0  0  0  0  2  0  0  0  0  0  0
  -29.4100  -12.7400   17.8010 C   0  0  0  0  0  2  0  0  0  0  0  0
  -27.9620  -12.5810   18.3010 C   0  0  0  0  0  2  0  0  0  0  0  0
  -27.6650  -13.4310   19.5650 C   0  0  0  0  0  3  0  0  0  0  0  0
  -28.7780  -13.2980   20.6270 C   0  0  0  0  0  2  0  0  0  0  0  0
  -30.0490  -13.6340   19.9770 N   0  0  0  0  0  0  0  0  0  0  0  0
  -31.8860  -14.9010   19.6340 O   0  0  0  0  0  0  0  0  0  0  0  0
  -30.0240  -15.9930   20.3010 N   0  0  0  0  0  0  0  0  0  0  0  0
  -29.0600  -15.9080   20.5830 H   0  0  0  0  0  0  0  0  0  0  0  0
  -25.3120  -14.0090   20.4070 C   0  0  0  0  0  0  0  0  0  0  0  0
  -24.2660  -13.2280   20.8180 C   0  0  0  0  0  0  0  0  0  0  0  0
  -24.7310  -11.8790   20.7530 C   0  0  0  0  0  0  0  0  0  0  0  0
  -26.3460  -13.1350   20.1140 N   0  0  0  0  0  0  0  0  0  0  0  0
  -26.0070  -11.8490   20.3860 N   0  0  0  0  0  0  0  0  0  0  0  0
  -24.0160  -10.6130   20.9630 C   0  0  0  0  0  0  0  0  0  0  0  0
  -24.4680   -9.6550   21.8970 C   0  0  0  0  0  3  0  0  0  0  0  0
  -23.7530   -8.4540   22.0950 C   0  0  0  0  0  3  0  0  0  0  0  0
  -22.5710   -8.2020   21.3570 C   0  0  0  0  0  0  0  0  0  0  0  0
  -22.1390   -9.1480   20.4110 C   0  0  0  0  0  3  0  0  0  0  0  0
  -22.8540  -10.3410   20.2120 C   0  0  0  0  0  3  0  0  0  0  0  0
  -21.8270   -7.0520   21.4640 O   0  0  0  0  0  0  0  0  0  0  0  0
  -21.7730   -6.3350   22.6320 C   0  0  0  0  0  0  0  0  0  0  0  0
  -21.2900   -6.8990   23.8320 C   0  0  0  0  0  3  0  0  0  0  0  0
  -21.1880   -6.1070   24.9930 C   0  0  0  0  0  3  0  0  0  0  0  0
  -21.5580   -4.7490   24.9530 C   0  0  0  0  0  0  0  0  0  0  0  0
  -22.0350   -4.1830   23.7580 C   0  0  0  0  0  3  0  0  0  0  0  0
  -22.1390   -4.9740   22.6000 C   0  0  0  0  0  0  0  0  0  0  0  0
  -22.5790   -4.4180   21.4440 F   0  0  0  0  0  0  0  0  0  0  0  0
  -21.4540   -3.9840   26.0650 F   0  0  0  0  0  0  0  0  0  0  0  0
  -22.8820  -13.6980   21.1580 C   0  0  0  0  0  0  0  0  0  0  0  0
  -22.1930  -12.9870   22.0430 N   0  0  0  0  0  0  0  0  0  0  0  0
  -22.4220  -14.7330   20.6760 O   0  0  0  0  0  0  0  0  0  0  0  0
  -22.5790  -12.1490   22.4530 H   0  0  0  0  0  0  0  0  0  0  0  0
  -21.2670  -13.2840   22.3150 H   0  0  0  0  0  0  0  0  0  0  0  0
  -25.4630  -15.3820   20.2330 N   0  0  0  0  0  0  0  0  0  0  0  0
  -24.6950  -16.0300   20.3690 H   0  0  0  0  0  0  0  0  0  0  0  0
  -26.2810  -15.8210   19.8300 H   0  0  0  0  0  0  0  0  0  0  0  0
  2  1  2  0
  3  4  2  0
  4  1  1  0
  5  3  1  0
  5  9  1  0
  6  3  1  0
  6  2  1  0
  7  5  1  0
  9  8  1  0
 10 11  1  0
 10  9  1  0
 12 23  2  0
 13 11  1  0
 13 18  1  0
 14 22  1  0
 14 24  1  0
 15 21  1  0
 15 17  1  0
 16 22  1  0
 17 16  1  0
 18 17  2  0
 19 13  2  0
 20 19  1  0
 20 15  2  0
 21 14  1  0
 22 12  1  0
 24 26  2  0
 25 24  1  0
 27 25  1  0
 28 37  2  0
 28 33  1  0
 29 25  1  0
 29 33  1  0
 30 29  1  0
 31 32  1  0
 31 30  1  0
 32 28  1  0
 33 34  2  0
 34 35  1  0
 36 35  2  0
 37 36  1  0
 38 12  1  0
 38 43  1  0
 38 39  1  0
 39 42  1  1
 39 40  1  0
 41 39  1  0
 43 46  1  0
 44 48  1  0
 44 43  1  0
 45 44  2  0
 48 47  1  0
 50 48  1  0
 50 51  1  0
 50 49  1  0
 52  2  1  0
 52 61  1  0
 53 61  1  0
 54 59  1  0
 55 56  1  0
 55 54  1  0
 57 56  1  0
 57 66  1  0
 57 58  1  0
 59 53  1  0
 59 58  1  0
 60 53  2  0
 61 62  1  0
 63 64  2  0
 64 83  1  0
 65 64  1  0
 65 68  1  0
 66 67  1  0
 66 63  1  0
 67 65  2  0
 68 69  1  0
 69 70  2  0
 71 74  1  0
 71 70  1  0
 72 71  2  0
 73 72  1  0
 73 68  2  0
 74 75  1  0
 75 76  1  0
 76 77  2  0
 78 77  1  0
 78 82  1  0
 79 78  2  0
 80 75  2  0
 80 79  1  0
 81 80  1  0
 83 84  1  0
 84 87  1  0
 84 86  1  0
 85 83  2  0
 88 89  1  0
 88 63  1  0
 90 88  1  0
M  ISO  4  10 101  11 101  53 100  61 100
M  END
>  <TORSDO>  (39) 
F 19

>  <SCORE>  (39) 
-13.492

>  <name>  (39) 
38

>  <ligand_id>  (39) 
38

>  <original_smiles>  (39) 
[H]c1nc(N([H])C([H])(C([H])([H])[H])C([H])([H])Oc2c([H])c([H])c3c(c2[H])C([H])([H])N(C(=O)C([H])(N([H])C(=O)C([H])(N([H])C([H])([H])[H])C([H])([H])[H])C(C([H])([H])[H])(C([H])([H])[H])C([H])([H])[H])C([H])(C(=O)N([H])C2([H])c4c([H])c([H])c([H])c([H])c4C([H])([H])C([H])([H])C2([H])[H])C3([H])[H])sc1C([H])([H])N([H])C(=O)N1C([H])([H])C([H])([H])C([H])([H])C([H])(n2nc(-c3c([H])c([H])c(Oc4c([H])c([H])c(F)c([H])c4F)c([H])c3[H])c(C(=O)N([H])[H])c2N([H])[H])C1([H])[H]

>  <smiles>  (39) 
[H]c1nc(N([H])C([H])(C([H])([H])[H])C([H])([H])Oc2c([H])c([H])c3c(c2[H])C([H])([H])N(C(=O)C([H])(N([H])C(=O)C([H])(N([H])C([H])([H])[H])C([H])([H])[H])C(C([H])([H])[H])(C([H])([H])[H])C([H])([H])[H])C([H])(C(=O)N([H])C2([H])c4c([H])c([H])c([H])c([H])c4C([H])([H])C([H])([H])C2([H])[H])C3([H])[H])sc1C([H])([H])N([H])C(=O)N1C([H])([H])C([H])([H])C([H])([H])C([H])(n2nc(-c3c([H])c([H])c(Oc4c([H])c([H])c(F)c([H])c4F)c([H])c3[H])c(C(=O)N([H])[H])c2N([H])[H])C1([H])[H]

$$$$
39:0:0
     RDKit          3D

 94102  0  0  1  0  0  0  0  0999 V2000
  -27.6280  -21.5900   19.5510 C   0  0  0  0  0  3  0  0  0  0  0  0
  -29.2010  -19.3620   19.6950 C   0  0  0  0  0  0  0  0  0  0  0  0
  -29.0360  -21.7120   19.6380 C   0  0  0  0  0  0  0  0  0  0  0  0
  -27.7860  -19.2940   19.5830 C   0  0  0  0  0  0  0  0  0  0  0  0
  -27.0020  -20.3890   19.5350 N   0  0  0  0  0  0  0  0  0  0  0  0
  -29.8260  -20.5870   19.7350 N   0  0  0  0  0  0  0  0  0  0  0  0
  -27.1190  -18.0840   19.4450 N   0  0  0  0  0  0  0  0  0  0  0  0
  -27.6680  -17.3120   19.0840 H   0  0  0  0  0  0  0  0  0  0  0  0
  -26.1840  -18.1160   19.0520 H   0  0  0  0  0  0  0  0  0  0  0  0
  -29.6670  -22.9720   19.4630 N   0  0  0  0  0  0  0  0  0  0  0  0
  -29.6990  -23.2240   18.4780 H   0  0  0  0  0  0  0  0  0  0  0  0
  -29.3650  -24.1660   20.3030 C   0  0  0  0  0  2  0  0  0  0  0  0
  -28.3050  -25.1900   19.7420 C   0  0  0  0  0  2  0  0  0  0  0  0
  -28.3620  -26.5720   20.2410 O   0  0  0  0  0  0  0  0  0  0  0  0
  -24.5590  -31.8970   23.2520 C   0  0  0  0  0  0  0  0  0  0  0  0
  -27.2110  -27.3720   20.1910 C   0  0  0  0  0  0  0  0  0  0  0  0
  -23.3590  -30.4840   21.6160 C   0  0  0  0  0  3  0  0  0  0  0  0
  -24.8170  -28.9360   20.2010 C   0  0  0  0  0  0  0  0  0  0  0  0
  -25.8960  -30.8190   21.4350 C   0  0  0  0  0  2  0  0  0  0  0  0
  -25.9830  -29.4430   20.7910 C   0  0  0  0  0  0  0  0  0  0  0  0
  -27.1780  -28.6690   20.7850 C   0  0  0  0  0  3  0  0  0  0  0  0
  -26.0230  -26.9210   19.5690 C   0  0  0  0  0  3  0  0  0  0  0  0
  -24.8370  -27.6750   19.5890 C   0  0  0  0  0  3  0  0  0  0  0  0
  -23.5750  -29.7970   20.2440 C   0  0  0  0  0  2  0  0  0  0  0  0
  -24.6220  -31.0850   22.1540 N   0  0  0  0  0  0  0  0  0  0  0  0
  -23.4740  -32.1730   23.7860 O   0  0  0  0  0  0  0  0  0  0  0  0
  -22.7030  -29.4690   22.5810 C   0  0  0  0  0  0  0  0  0  0  0  0
  -21.3790  -29.2850   22.4500 N   0  0  0  0  0  0  0  0  0  0  0  0
  -23.3850  -28.8530   23.4040 O   0  0  0  0  0  0  0  0  0  0  0  0
  -20.8930  -29.8310   21.7510 H   0  0  0  0  0  0  0  0  0  0  0  0
  -18.0060  -28.0860   22.9540 C   0  0  0  0  0  0  0  0  0  0  0  0
  -20.5630  -28.3500   23.2230 C   0  0  0  0  0  3  0  0  0  0  0  0
  -20.6660  -26.9170   22.6530 C   0  0  0  0  0  2  0  0  0  0  0  0
  -19.5640  -26.5890   21.6400 C   0  0  0  0  0  2  0  0  0  0  0  0
  -18.1830  -26.7340   22.2830 C   0  0  0  0  0  2  0  0  0  0  0  0
  -19.1220  -28.8530   23.3800 C   0  0  0  0  0  0  0  0  0  0  0  0
  -18.9020  -30.1170   23.9660 C   0  0  0  0  0  3  0  0  0  0  0  0
  -17.5970  -30.6170   24.1310 C   0  0  0  0  0  3  0  0  0  0  0  0
  -16.4940  -29.8500   23.7180 C   0  0  0  0  0  3  0  0  0  0  0  0
  -16.6990  -28.5860   23.1360 C   0  0  0  0  0  3  0  0  0  0  0  0
  -25.8420  -32.5330   23.8700 C   0  0  0  0  0  3  0  0  0  0  0  0
  -25.5310  -33.9340   24.1850 N   0  0  0  0  0  0  0  0  0  0  0  0
  -25.8700  -34.9800   23.4180 C   0  0  0  0  0  0  0  0  0  0  0  0
  -26.5470  -34.8640   22.3910 O   0  0  0  0  0  0  0  0  0  0  0  0
  -24.9290  -34.0980   24.9790 H   0  0  0  0  0  0  0  0  0  0  0  0
  -24.1490  -36.7700   23.0290 C   0  0  0  0  0  1  0  0  0  0  0  0
  -25.3810  -36.3730   23.8570 C   0  0  0  0  0  3  0  0  0  0  0  0
  -27.5090  -37.2590   24.7030 C   0  0  0  0  0  1  0  0  0  0  0  0
  -26.4190  -37.4220   23.7440 N   0  0  0  0  0  0  0  0  0  0  0  0
  -26.0140  -38.3440   23.8770 H   0  0  0  0  0  0  0  0  0  0  0  0
  -26.3520  -31.7750   25.1570 C   0  0  1  0  0  0  0  0  0  0  0  0
  -25.2510  -31.5490   26.2200 C   0  0  0  0  0  1  0  0  0  0  0  0
  -26.9360  -30.3920   24.7850 C   0  0  0  0  0  1  0  0  0  0  0  0
  -27.5030  -32.5740   25.8100 C   0  0  0  0  0  1  0  0  0  0  0  0
  -30.0310  -18.0400   19.6340 C   0  0  0  0  0  2  0  0  0  0  0  0
  -30.0480  -17.1290   20.9190 C   0  0  0  0  0  2  0  0  0  0  0  0
  -30.6480  -14.6290   20.4230 C   0  0  0  0  0  0  0  0  0  0  0  0
  -30.4310  -12.4340   19.2970 C   0  0  0  0  0  2  0  0  0  0  0  0
  -29.4860  -12.6160   18.0880 C   0  0  0  0  0  2  0  0  0  0  0  0
  -28.0090  -12.4740   18.5060 C   0  0  0  0  0  2  0  0  0  0  0  0
  -27.6580  -13.2970   19.7740 C   0  0  0  0  0  3  0  0  0  0  0  0
  -28.7100  -13.0810   20.8830 C   0  0  0  0  0  2  0  0  0  0  0  0
  -30.0270  -13.4160   20.3160 N   0  0  0  0  0  0  0  0  0  0  0  0
  -31.8160  -14.8130   20.0710 O   0  0  0  0  0  0  0  0  0  0  0  0
  -29.8200  -15.6590   20.7420 N   0  0  0  0  0  0  0  0  0  0  0  0
  -28.8830  -15.3520   20.9510 H   0  0  0  0  0  0  0  0  0  0  0  0
  -25.2560  -13.8990   20.4600 C   0  0  0  0  0  0  0  0  0  0  0  0
  -24.1810  -13.1300   20.8120 C   0  0  0  0  0  0  0  0  0  0  0  0
  -24.6500  -11.7770   20.8020 C   0  0  0  0  0  0  0  0  0  0  0  0
  -26.3040  -13.0160   20.2430 N   0  0  0  0  0  0  0  0  0  0  0  0
  -25.9420  -11.7350   20.5070 N   0  0  0  0  0  0  0  0  0  0  0  0
  -23.9220  -10.5180   21.0010 C   0  0  0  0  0  0  0  0  0  0  0  0
  -24.3410   -9.5660   21.9570 C   0  0  0  0  0  3  0  0  0  0  0  0
  -23.6200   -8.3680   22.1360 C   0  0  0  0  0  3  0  0  0  0  0  0
  -22.4620   -8.1170   21.3640 C   0  0  0  0  0  0  0  0  0  0  0  0
  -22.0600   -9.0600   20.4000 C   0  0  0  0  0  3  0  0  0  0  0  0
  -22.7840  -10.2470   20.2170 C   0  0  0  0  0  3  0  0  0  0  0  0
  -21.7090   -6.9730   21.4540 O   0  0  0  0  0  0  0  0  0  0  0  0
  -21.6390   -6.2450   22.6140 C   0  0  0  0  0  0  0  0  0  0  0  0
  -21.1840   -6.8130   23.8250 C   0  0  0  0  0  3  0  0  0  0  0  0
  -21.0640   -6.0130   24.9790 C   0  0  0  0  0  3  0  0  0  0  0  0
  -21.3860   -4.6440   24.9230 C   0  0  0  0  0  0  0  0  0  0  0  0
  -21.8310   -4.0740   23.7170 C   0  0  0  0  0  3  0  0  0  0  0  0
  -21.9520   -4.8720   22.5660 C   0  0  0  0  0  0  0  0  0  0  0  0
  -22.3620   -4.3130   21.4030 F   0  0  0  0  0  0  0  0  0  0  0  0
  -21.2600   -3.8720   26.0280 F   0  0  0  0  0  0  0  0  0  0  0  0
  -22.7790  -13.6040   21.0620 C   0  0  0  0  0  0  0  0  0  0  0  0
  -22.0460  -12.9100   21.9260 N   0  0  0  0  0  0  0  0  0  0  0  0
  -22.3420  -14.6260   20.5330 O   0  0  0  0  0  0  0  0  0  0  0  0
  -22.4080  -12.0790   22.3720 H   0  0  0  0  0  0  0  0  0  0  0  0
  -21.1040  -13.2080   22.1370 H   0  0  0  0  0  0  0  0  0  0  0  0
  -25.4230  -15.2690   20.2880 N   0  0  0  0  0  0  0  0  0  0  0  0
  -24.6660  -15.9230   20.4500 H   0  0  0  0  0  0  0  0  0  0  0  0
  -26.2890  -15.7400   20.0670 H   0  0  0  0  0  0  0  0  0  0  0  0
  1  3  1  0
  2  6  1  0
  3  6  2  0
  4  2  2  0
  5  1  2  0
  5  4  1  0
  7  4  1  0
  8  7  1  0
  9  7  1  0
 10  3  1  0
 10 12  1  0
 11 10  1  0
 13 14  1  0
 13 12  1  0
 15 26  2  0
 16 14  1  0
 16 21  1  0
 17 25  1  0
 17 27  1  0
 18 24  1  0
 18 20  1  0
 19 25  1  0
 20 19  1  0
 21 20  2  0
 22 23  1  0
 22 16  2  0
 23 18  2  0
 24 17  1  0
 25 15  1  0
 27 29  2  0
 28 27  1  0
 30 28  1  0
 31 40  2  0
 31 36  1  0
 32 28  1  0
 32 36  1  0
 33 32  1  0
 34 35  1  0
 34 33  1  0
 35 31  1  0
 36 37  2  0
 37 38  1  0
 39 38  2  0
 40 39  1  0
 41 15  1  0
 41 42  1  0
 41 51  1  0
 42 45  1  0
 43 47  1  0
 43 42  1  0
 44 43  2  0
 47 46  1  0
 49 47  1  0
 49 50  1  0
 49 48  1  0
 51 54  1  1
 51 52  1  0
 53 51  1  0
 55  2  1  0
 55 56  1  0
 57 65  1  0
 58 63  1  0
 59 60  1  0
 59 58  1  0
 61 60  1  0
 61 70  1  0
 61 62  1  0
 63 57  1  0
 63 62  1  0
 64 57  2  0
 65 56  1  0
 65 66  1  0
 67 68  2  0
 68 87  1  0
 69 68  1  0
 69 72  1  0
 70 67  1  0
 70 71  1  0
 71 69  2  0
 72 73  1  0
 73 74  2  0
 75 78  1  0
 75 74  1  0
 76 75  2  0
 77 76  1  0
 77 72  2  0
 78 79  1  0
 79 80  1  0
 80 81  2  0
 82 81  1  0
 82 86  1  0
 83 82  2  0
 84 79  2  0
 84 83  1  0
 85 84  1  0
 87 88  1  0
 88 91  1  0
 88 90  1  0
 89 87  2  0
 92 93  1  0
 92 67  1  0
 94 92  1  0
M  ISO  4  13 101  14 101  57 100  65 100
M  END
>  <TORSDO>  (40) 
F 21

>  <SCORE>  (40) 
-13.300

>  <name>  (40) 
39

>  <ligand_id>  (40) 
39

>  <original_smiles>  (40) 
[H]c1nc(N([H])[H])c(C([H])([H])C([H])([H])N([H])C(=O)N2C([H])([H])C([H])([H])C([H])([H])C([H])(n3nc(-c4c([H])c([H])c(Oc5c([H])c([H])c(F)c([H])c5F)c([H])c4[H])c(C(=O)N([H])[H])c3N([H])[H])C2([H])[H])nc1N([H])C([H])([H])C([H])([H])Oc1c([H])c([H])c2c(c1[H])C([H])([H])N(C(=O)C([H])(N([H])C(=O)C([H])(N([H])C([H])([H])[H])C([H])([H])[H])C(C([H])([H])[H])(C([H])([H])[H])C([H])([H])[H])C([H])(C(=O)N([H])C1([H])c3c([H])c([H])c([H])c([H])c3C([H])([H])C([H])([H])C1([H])[H])C2([H])[H]

>  <smiles>  (40) 
[H]c1nc(N([H])[H])c(C([H])([H])C([H])([H])N([H])C(=O)N2C([H])([H])C([H])([H])C([H])([H])C([H])(n3nc(-c4c([H])c([H])c(Oc5c([H])c([H])c(F)c([H])c5F)c([H])c4[H])c(C(=O)N([H])[H])c3N([H])[H])C2([H])[H])nc1N([H])C([H])([H])C([H])([H])Oc1c([H])c([H])c2c(c1[H])C([H])([H])N(C(=O)C([H])(N([H])C(=O)C([H])(N([H])C([H])([H])[H])C([H])([H])[H])C(C([H])([H])[H])(C([H])([H])[H])C([H])([H])[H])C([H])(C(=O)N([H])C1([H])c3c([H])c([H])c([H])c([H])c3C([H])([H])C([H])([H])C1([H])[H])C2([H])[H]

$$$$
40:0:0
     RDKit          3D

 97105  0  0  1  0  0  0  0  0999 V2000
  -27.7820  -20.8560   22.0330 C   0  0  0  0  0  1  0  0  0  0  0  0
  -28.6610  -20.8640   20.7480 C   0  0  0  0  0  3  0  0  0  0  0  0
  -31.1820  -18.1710   21.2930 C   0  0  0  0  0  3  0  0  0  0  0  0
  -29.3880  -19.5010   20.6370 C   0  0  0  0  0  0  0  0  0  0  0  0
  -30.5700  -17.0040   20.7350 C   0  0  0  0  0  0  0  0  0  0  0  0
  -28.7600  -18.3330   20.1070 C   0  0  0  0  0  0  0  0  0  0  0  0
  -30.6120  -19.4060   21.2270 N   0  0  0  0  0  0  0  0  0  0  0  0
  -29.3650  -17.1200   20.1110 N   0  0  0  0  0  0  0  0  0  0  0  0
  -27.4360  -18.3160   19.6700 N   0  0  0  0  0  0  0  0  0  0  0  0
  -26.8030  -19.0290   20.0110 H   0  0  0  0  0  0  0  0  0  0  0  0
  -26.9750  -17.4110   19.6650 H   0  0  0  0  0  0  0  0  0  0  0  0
  -31.4950  -14.7810   20.1270 C   0  0  0  0  0  0  0  0  0  0  0  0
  -31.0300  -12.6220   19.0010 C   0  0  0  0  0  2  0  0  0  0  0  0
  -30.0800  -12.8440   17.8060 C   0  0  0  0  0  2  0  0  0  0  0  0
  -28.6090  -12.7530   18.2560 C   0  0  0  0  0  2  0  0  0  0  0  0
  -28.3220  -13.6110   19.5150 C   0  0  0  0  0  3  0  0  0  0  0  0
  -29.3990  -13.4030   20.6040 C   0  0  0  0  0  2  0  0  0  0  0  0
  -30.7260  -13.6520   20.0130 N   0  0  0  0  0  0  0  0  0  0  0  0
  -32.5650  -14.9000   19.5250 O   0  0  0  0  0  0  0  0  0  0  0  0
  -31.1600  -15.7310   21.0230 N   0  0  0  0  0  0  0  0  0  0  0  0
  -31.9920  -15.9020   21.5700 H   0  0  0  0  0  0  0  0  0  0  0  0
  -25.9490  -14.2880   20.2490 C   0  0  0  0  0  0  0  0  0  0  0  0
  -24.8540  -13.5470   20.6210 C   0  0  0  0  0  0  0  0  0  0  0  0
  -25.2720  -12.1840   20.5910 C   0  0  0  0  0  0  0  0  0  0  0  0
  -26.9640  -13.3730   20.0160 N   0  0  0  0  0  0  0  0  0  0  0  0
  -26.5590  -12.0980   20.2770 N   0  0  0  0  0  0  0  0  0  0  0  0
  -24.5020  -10.9450   20.7920 C   0  0  0  0  0  0  0  0  0  0  0  0
  -24.8430  -10.0090   21.7940 C   0  0  0  0  0  3  0  0  0  0  0  0
  -24.0630   -8.8460   21.9770 C   0  0  0  0  0  3  0  0  0  0  0  0
  -22.9320   -8.6140   21.1630 C   0  0  0  0  0  0  0  0  0  0  0  0
  -22.6090   -9.5370   20.1540 C   0  0  0  0  0  3  0  0  0  0  0  0
  -23.3930  -10.6880   19.9660 C   0  0  0  0  0  3  0  0  0  0  0  0
  -22.1360   -7.4980   21.2450 O   0  0  0  0  0  0  0  0  0  0  0  0
  -21.8860   -6.8850   22.4460 C   0  0  0  0  0  0  0  0  0  0  0  0
  -21.2920   -7.5700   23.5270 C   0  0  0  0  0  3  0  0  0  0  0  0
  -21.0000   -6.8810   24.7210 C   0  0  0  0  0  3  0  0  0  0  0  0
  -21.2900   -5.5080   24.8280 C   0  0  0  0  0  0  0  0  0  0  0  0
  -21.8810   -4.8240   23.7530 C   0  0  0  0  0  3  0  0  0  0  0  0
  -22.1760   -5.5100   22.5640 C   0  0  0  0  0  0  0  0  0  0  0  0
  -22.7260   -4.8420   21.5240 F   0  0  0  0  0  0  0  0  0  0  0  0
  -21.0040   -4.8440   25.9750 F   0  0  0  0  0  0  0  0  0  0  0  0
  -23.4850  -14.0850   20.9250 C   0  0  0  0  0  0  0  0  0  0  0  0
  -22.7660  -13.4360   21.8380 N   0  0  0  0  0  0  0  0  0  0  0  0
  -23.0650  -15.1130   20.3980 O   0  0  0  0  0  0  0  0  0  0  0  0
  -23.1360  -12.6260   22.3080 H   0  0  0  0  0  0  0  0  0  0  0  0
  -21.8460  -13.7690   22.0920 H   0  0  0  0  0  0  0  0  0  0  0  0
  -26.1390  -15.6550   20.0850 N   0  0  0  0  0  0  0  0  0  0  0  0
  -25.3340  -16.2760   20.0300 H   0  0  0  0  0  0  0  0  0  0  0  0
  -27.0070  -16.0760   19.7610 H   0  0  0  0  0  0  0  0  0  0  0  0
  -29.5950  -22.0240   20.6100 N   0  0  0  0  0  4  0  0  0  0  0  0
  -30.4650  -21.7360   21.0300 H   0  0  0  0  0  0  0  0  0  0  0  0
  -29.7770  -22.1330   19.6250 H   0  0  0  0  0  0  0  0  0  0  0  0
  -29.8590  -23.5020   22.5650 C   0  0  0  0  0  1  0  0  0  0  0  0
  -29.1800  -23.3480   21.1790 C   0  0  0  0  0  3  0  0  0  0  0  0
  -29.4300  -24.5710   20.2320 C   0  0  0  0  0  2  0  0  0  0  0  0
  -28.8090  -25.8830   20.7990 C   0  0  0  0  0  2  0  0  0  0  0  0
  -28.8160  -27.0260   19.9290 O   0  0  0  0  0  0  0  0  0  0  0  0
  -24.7110  -31.8180   23.2890 C   0  0  0  0  0  0  0  0  0  0  0  0
  -27.6350  -27.7320   19.9700 C   0  0  0  0  0  0  0  0  0  0  0  0
  -23.6170  -30.4620   21.5440 C   0  0  0  0  0  3  0  0  0  0  0  0
  -25.1710  -29.1010   20.0570 C   0  0  0  0  0  0  0  0  0  0  0  0
  -26.1250  -30.9630   21.4210 C   0  0  0  0  0  2  0  0  0  0  0  0
  -26.2940  -29.6440   20.6910 C   0  0  0  0  0  0  0  0  0  0  0  0
  -27.5370  -28.9700   20.6420 C   0  0  0  0  0  3  0  0  0  0  0  0
  -26.5020  -27.1990   19.3250 C   0  0  0  0  0  3  0  0  0  0  0  0
  -25.2680  -27.8770   19.3700 C   0  0  0  0  0  3  0  0  0  0  0  0
  -23.8860  -29.8930   20.1300 C   0  0  0  0  0  2  0  0  0  0  0  0
  -24.8360  -31.0920   22.1440 N   0  0  0  0  0  0  0  0  0  0  0  0
  -23.6040  -32.0030   23.8180 O   0  0  0  0  0  0  0  0  0  0  0  0
  -23.0070  -29.3480   22.4240 C   0  0  0  0  0  0  0  0  0  0  0  0
  -21.6970  -29.1070   22.2510 N   0  0  0  0  0  0  0  0  0  0  0  0
  -23.7040  -28.7180   23.2240 O   0  0  0  0  0  0  0  0  0  0  0  0
  -21.1970  -29.6660   21.5750 H   0  0  0  0  0  0  0  0  0  0  0  0
  -18.3740  -27.7230   22.5850 C   0  0  0  0  0  0  0  0  0  0  0  0
  -20.9080  -28.0860   22.9420 C   0  0  0  0  0  3  0  0  0  0  0  0
  -21.0990  -26.7030   22.2850 C   0  0  0  0  0  2  0  0  0  0  0  0
  -20.0420  -26.3880   21.2230 C   0  0  0  0  0  2  0  0  0  0  0  0
  -18.6370  -26.4260   21.8360 C   0  0  0  0  0  2  0  0  0  0  0  0
  -19.4440  -28.5070   23.0890 C   0  0  0  0  0  0  0  0  0  0  0  0
  -19.1520  -29.7170   23.7530 C   0  0  0  0  0  3  0  0  0  0  0  0
  -17.8220  -30.1490   23.9130 C   0  0  0  0  0  3  0  0  0  0  0  0
  -16.7640  -29.3600   23.4280 C   0  0  0  0  0  3  0  0  0  0  0  0
  -17.0420  -28.1470   22.7710 C   0  0  0  0  0  3  0  0  0  0  0  0
  -25.9490  -32.4800   23.9670 C   0  0  0  0  0  3  0  0  0  0  0  0
  -25.5820  -33.8650   24.2850 N   0  0  0  0  0  0  0  0  0  0  0  0
  -25.9330  -34.9350   23.5570 C   0  0  0  0  0  0  0  0  0  0  0  0
  -26.6680  -34.8590   22.5680 O   0  0  0  0  0  0  0  0  0  0  0  0
  -24.9240  -33.9940   25.0410 H   0  0  0  0  0  0  0  0  0  0  0  0
  -24.1820  -36.6860   23.1340 C   0  0  0  0  0  1  0  0  0  0  0  0
  -25.3900  -36.3040   24.0030 C   0  0  0  0  0  3  0  0  0  0  0  0
  -27.4570  -37.2440   24.9460 C   0  0  0  0  0  1  0  0  0  0  0  0
  -26.3970  -37.3850   23.9510 N   0  0  0  0  0  0  0  0  0  0  0  0
  -25.9600  -38.2950   24.0760 H   0  0  0  0  0  0  0  0  0  0  0  0
  -26.4370  -31.7090   25.2570 C   0  0  1  0  0  0  0  0  0  0  0  0
  -25.3070  -31.4290   26.2720 C   0  0  0  0  0  1  0  0  0  0  0  0
  -27.0730  -30.3520   24.8790 C   0  0  0  0  0  1  0  0  0  0  0  0
  -27.5310  -32.5340   25.9810 C   0  0  0  0  0  1  0  0  0  0  0  0
  2  1  1  0
  4  2  1  0
  4  7  2  0
  5 20  1  0
  5  3  2  0
  6  8  2  0
  6  4  1  0
  7  3  1  0
  8  5  1  0
  9 10  1  0
  9  6  1  0
 11  9  1  0
 12 20  1  0
 13 18  1  0
 14 15  1  0
 14 13  1  0
 16 15  1  0
 16 25  1  0
 16 17  1  0
 18 12  1  0
 18 17  1  0
 19 12  2  0
 20 21  1  0
 22 23  2  0
 23 42  1  0
 24 23  1  0
 24 27  1  0
 25 22  1  0
 25 26  1  0
 26 24  2  0
 27 28  1  0
 28 29  2  0
 30 33  1  0
 30 29  1  0
 31 30  2  0
 32 31  1  0
 32 27  2  0
 33 34  1  0
 34 39  2  0
 34 35  1  0
 35 36  2  0
 36 37  1  0
 37 41  1  0
 38 37  2  0
 39 38  1  0
 40 39  1  0
 42 43  1  0
 43 46  1  0
 43 45  1  0
 44 42  2  0
 47 22  1  0
 48 47  1  0
 49 47  1  0
 50  2  1  0
 50 51  1  0
 50 54  1  0
 52 50  1  0
 54 53  1  0
 55 56  1  0
 55 54  1  0
 57 59  1  0
 57 56  1  0
 58 69  2  0
 59 64  1  0
 60 68  1  0
 60 70  1  0
 61 67  1  0
 61 63  1  0
 62 68  1  0
 63 62  1  0
 64 63  2  0
 65 66  1  0
 65 59  2  0
 66 61  2  0
 67 60  1  0
 68 58  1  0
 70 72  2  0
 71 70  1  0
 73 71  1  0
 74 83  2  0
 74 79  1  0
 75 71  1  0
 75 79  1  0
 76 75  1  0
 77 78  1  0
 77 76  1  0
 78 74  1  0
 79 80  2  0
 80 81  1  0
 82 81  2  0
 83 82  1  0
 84 58  1  0
 84 85  1  0
 84 94  1  0
 85 88  1  0
 86 90  1  0
 86 85  1  0
 87 86  2  0
 90 89  1  0
 92 90  1  0
 92 93  1  0
 92 91  1  0
 94 97  1  1
 94 95  1  0
 96 94  1  0
M  ISO  4  12 100  20 100  56 101  57 101
M  END
>  <TORSDO>  (41) 
F 21

>  <SCORE>  (41) 
-11.045

>  <name>  (41) 
40

>  <ligand_id>  (41) 
40

>  <original_smiles>  (41) 
[H]c1nc(C([H])(C([H])([H])[H])[N+]([H])([H])C([H])(C([H])([H])[H])C([H])([H])C([H])([H])Oc2c([H])c([H])c3c(c2[H])C([H])([H])N(C(=O)C([H])(N([H])C(=O)C([H])(N([H])C([H])([H])[H])C([H])([H])[H])C(C([H])([H])[H])(C([H])([H])[H])C([H])([H])[H])C([H])(C(=O)N([H])C2([H])c4c([H])c([H])c([H])c([H])c4C([H])([H])C([H])([H])C2([H])[H])C3([H])[H])c(N([H])[H])nc1N([H])C(=O)N1C([H])([H])C([H])([H])C([H])([H])C([H])(n2nc(-c3c([H])c([H])c(Oc4c([H])c([H])c(F)c([H])c4F)c([H])c3[H])c(C(=O)N([H])[H])c2N([H])[H])C1([H])[H]

>  <smiles>  (41) 
[H]c1nc(C([H])(C([H])([H])[H])[N+]([H])([H])C([H])(C([H])([H])[H])C([H])([H])C([H])([H])Oc2c([H])c([H])c3c(c2[H])C([H])([H])N(C(=O)C([H])(N([H])C(=O)C([H])(N([H])C([H])([H])[H])C([H])([H])[H])C(C([H])([H])[H])(C([H])([H])[H])C([H])([H])[H])C([H])(C(=O)N([H])C2([H])c4c([H])c([H])c([H])c([H])c4C([H])([H])C([H])([H])C2([H])[H])C3([H])[H])c(N([H])[H])nc1N([H])C(=O)N1C([H])([H])C([H])([H])C([H])([H])C([H])(n2nc(-c3c([H])c([H])c(Oc4c([H])c([H])c(F)c([H])c4F)c([H])c3[H])c(C(=O)N([H])[H])c2N([H])[H])C1([H])[H]

$$$$
41:0:0
     RDKit          3D

 92100  0  0  1  0  0  0  0  0999 V2000
  -28.6830  -22.8490   20.6820 C   0  0  0  0  0  2  0  0  0  0  0  0
  -28.9010  -18.3140   21.0040 C   0  0  0  0  0  3  0  0  0  0  0  0
  -30.2430  -18.0200   20.9180 C   0  0  0  0  0  0  0  0  0  0  0  0
  -29.6730  -20.4140   20.5550 C   0  0  0  0  0  0  0  0  0  0  0  0
  -28.5920  -19.6750   20.8110 N   0  0  0  0  0  0  0  0  0  0  0  0
  -29.6660  -21.8000   20.3970 N   0  0  0  0  0  0  0  0  0  0  0  0
  -31.1550  -19.4630   20.5020 S   0  0  0  0  0  0  0  0  0  0  0  0
  -30.5830  -22.1990   20.2110 H   0  0  0  0  0  0  0  0  0  0  0  0
  -30.9670  -16.7250   21.2220 C   0  0  0  0  0  2  0  0  0  0  0  0
  -30.8560  -14.4810   20.1120 C   0  0  0  0  0  0  0  0  0  0  0  0
  -30.4580  -12.3380   18.9490 C   0  0  0  0  0  2  0  0  0  0  0  0
  -29.4750  -12.5460   17.7800 C   0  0  0  0  0  2  0  0  0  0  0  0
  -28.0180  -12.4240   18.2670 C   0  0  0  0  0  2  0  0  0  0  0  0
  -27.7390  -13.2720   19.5370 C   0  0  0  0  0  3  0  0  0  0  0  0
  -28.8310  -13.0480   20.6070 C   0  0  0  0  0  2  0  0  0  0  0  0
  -30.1370  -13.3320   19.9870 N   0  0  0  0  0  0  0  0  0  0  0  0
  -31.9390  -14.6470   19.5450 O   0  0  0  0  0  0  0  0  0  0  0  0
  -30.2960  -15.4680   20.8390 N   0  0  0  0  0  0  0  0  0  0  0  0
  -29.4010  -15.2670   21.2590 H   0  0  0  0  0  0  0  0  0  0  0  0
  -25.3790  -13.9110   20.3400 C   0  0  0  0  0  0  0  0  0  0  0  0
  -24.3140  -13.1530   20.7470 C   0  0  0  0  0  0  0  0  0  0  0  0
  -24.7520  -11.7950   20.6920 C   0  0  0  0  0  0  0  0  0  0  0  0
  -26.4010  -13.0160   20.0660 N   0  0  0  0  0  0  0  0  0  0  0  0
  -26.0290  -11.7370   20.3350 N   0  0  0  0  0  0  0  0  0  0  0  0
  -24.0140  -10.5440   20.9050 C   0  0  0  0  0  0  0  0  0  0  0  0
  -24.4460   -9.5810   21.8450 C   0  0  0  0  0  3  0  0  0  0  0  0
  -23.7090   -8.3930   22.0440 C   0  0  0  0  0  3  0  0  0  0  0  0
  -22.5260   -8.1600   21.3030 C   0  0  0  0  0  0  0  0  0  0  0  0
  -22.1140   -9.1100   20.3540 C   0  0  0  0  0  3  0  0  0  0  0  0
  -22.8500  -10.2890   20.1520 C   0  0  0  0  0  3  0  0  0  0  0  0
  -21.7610   -7.0250   21.4120 O   0  0  0  0  0  0  0  0  0  0  0  0
  -21.6920   -6.3110   22.5820 C   0  0  0  0  0  0  0  0  0  0  0  0
  -21.2520   -6.8990   23.7880 C   0  0  0  0  0  3  0  0  0  0  0  0
  -21.1320   -6.1110   24.9510 C   0  0  0  0  0  3  0  0  0  0  0  0
  -21.4410   -4.7380   24.9080 C   0  0  0  0  0  0  0  0  0  0  0  0
  -21.8730   -4.1510   23.7060 C   0  0  0  0  0  3  0  0  0  0  0  0
  -21.9960   -4.9350   22.5460 C   0  0  0  0  0  0  0  0  0  0  0  0
  -22.3930   -4.3600   21.3860 F   0  0  0  0  0  0  0  0  0  0  0  0
  -21.3170   -3.9810   26.0230 F   0  0  0  0  0  0  0  0  0  0  0  0
  -22.9360  -13.6510   21.0750 C   0  0  0  0  0  0  0  0  0  0  0  0
  -22.2300  -12.9620   21.9650 N   0  0  0  0  0  0  0  0  0  0  0  0
  -22.4950  -14.6870   20.5780 O   0  0  0  0  0  0  0  0  0  0  0  0
  -22.6000  -12.1240   22.3890 H   0  0  0  0  0  0  0  0  0  0  0  0
  -21.3070  -13.2770   22.2260 H   0  0  0  0  0  0  0  0  0  0  0  0
  -25.5600  -15.2800   20.1610 N   0  0  0  0  0  0  0  0  0  0  0  0
  -24.8050  -15.9450   20.2900 H   0  0  0  0  0  0  0  0  0  0  0  0
  -26.3980  -15.7000   19.7810 H   0  0  0  0  0  0  0  0  0  0  0  0
  -29.1520  -24.2690   20.2460 C   0  0  0  0  0  3  0  0  0  0  0  0
  -30.4650  -24.4350   20.7640 O   0  0  0  0  0  0  0  0  0  0  0  0
  -30.4100  -24.3400   21.7090 H   0  0  0  0  0  0  0  0  0  0  0  0
  -28.2260  -25.3930   20.8020 C   0  0  0  0  0  2  0  0  0  0  0  0
  -28.4150  -26.6920   20.1960 O   0  0  0  0  0  0  0  0  0  0  0  0
  -24.5970  -31.8740   23.2830 C   0  0  0  0  0  0  0  0  0  0  0  0
  -27.2780  -27.4730   20.1710 C   0  0  0  0  0  0  0  0  0  0  0  0
  -23.4200  -30.5130   21.5860 C   0  0  0  0  0  3  0  0  0  0  0  0
  -24.8960  -29.0010   20.1570 C   0  0  0  0  0  0  0  0  0  0  0  0
  -25.9510  -30.8620   21.4500 C   0  0  0  0  0  2  0  0  0  0  0  0
  -26.0460  -29.5050   20.7810 C   0  0  0  0  0  0  0  0  0  0  0  0
  -27.2430  -28.7500   20.7820 C   0  0  0  0  0  3  0  0  0  0  0  0
  -26.1160  -26.9950   19.5280 C   0  0  0  0  0  3  0  0  0  0  0  0
  -24.9270  -27.7460   19.5250 C   0  0  0  0  0  3  0  0  0  0  0  0
  -23.6550  -29.8640   20.1970 C   0  0  0  0  0  2  0  0  0  0  0  0
  -24.6730  -31.0970   22.1650 N   0  0  0  0  0  0  0  0  0  0  0  0
  -23.5060  -32.1410   23.8050 O   0  0  0  0  0  0  0  0  0  0  0  0
  -22.7430  -29.4750   22.5110 C   0  0  0  0  0  0  0  0  0  0  0  0
  -21.4220  -29.3000   22.3500 N   0  0  0  0  0  0  0  0  0  0  0  0
  -23.4060  -28.8320   23.3280 O   0  0  0  0  0  0  0  0  0  0  0  0
  -20.9480  -29.8710   21.6650 H   0  0  0  0  0  0  0  0  0  0  0  0
  -18.0340  -28.1010   22.7380 C   0  0  0  0  0  0  0  0  0  0  0  0
  -20.5840  -28.3500   23.0820 C   0  0  0  0  0  3  0  0  0  0  0  0
  -20.7000  -26.9290   22.4850 C   0  0  0  0  0  2  0  0  0  0  0  0
  -19.6260  -26.6250   21.4360 C   0  0  0  0  0  2  0  0  0  0  0  0
  -18.2280  -26.7630   22.0450 C   0  0  0  0  0  2  0  0  0  0  0  0
  -19.1410  -28.8540   23.2110 C   0  0  0  0  0  0  0  0  0  0  0  0
  -18.9090  -30.1080   23.8160 C   0  0  0  0  0  3  0  0  0  0  0  0
  -17.6010  -30.6080   23.9540 C   0  0  0  0  0  3  0  0  0  0  0  0
  -16.5080  -29.8520   23.4990 C   0  0  0  0  0  3  0  0  0  0  0  0
  -16.7240  -28.6000   22.8960 C   0  0  0  0  0  3  0  0  0  0  0  0
  -25.8730  -32.4860   23.9420 C   0  0  0  0  0  3  0  0  0  0  0  0
  -25.5690  -33.8820   24.2830 N   0  0  0  0  0  0  0  0  0  0  0  0
  -25.9370  -34.9400   23.5490 C   0  0  0  0  0  0  0  0  0  0  0  0
  -26.6390  -34.8440   22.5380 O   0  0  0  0  0  0  0  0  0  0  0  0
  -24.9520  -34.0320   25.0670 H   0  0  0  0  0  0  0  0  0  0  0  0
  -24.2410  -36.7560   23.1610 C   0  0  0  0  0  1  0  0  0  0  0  0
  -25.4500  -36.3270   24.0090 C   0  0  0  0  0  3  0  0  0  0  0  0
  -27.5640  -37.1760   24.9230 C   0  0  0  0  0  1  0  0  0  0  0  0
  -26.4960  -37.3700   23.9460 N   0  0  0  0  0  0  0  0  0  0  0  0
  -26.0960  -38.2920   24.0930 H   0  0  0  0  0  0  0  0  0  0  0  0
  -26.3540  -31.6920   25.2180 C   0  0  1  0  0  0  0  0  0  0  0  0
  -25.2350  -31.4440   26.2560 C   0  0  0  0  0  1  0  0  0  0  0  0
  -26.9390  -30.3170   24.8160 C   0  0  0  0  0  1  0  0  0  0  0  0
  -27.4940  -32.4680   25.9190 C   0  0  0  0  0  1  0  0  0  0  0  0
  3  2  2  0
  3  9  1  0
  4  5  2  0
  5  2  1  0
  6  4  1  0
  6  1  1  0
  7  4  1  0
  7  3  1  0
  8  6  1  0
 10 18  1  0
 11 16  1  0
 12 13  1  0
 12 11  1  0
 14 13  1  0
 14 23  1  0
 14 15  1  0
 16 10  1  0
 16 15  1  0
 17 10  2  0
 18  9  1  0
 18 19  1  0
 20 21  2  0
 21 40  1  0
 22 21  1  0
 22 25  1  0
 23 24  1  0
 23 20  1  0
 24 22  2  0
 25 26  1  0
 26 27  2  0
 28 31  1  0
 28 27  1  0
 29 28  2  0
 30 29  1  0
 30 25  2  0
 31 32  1  0
 32 33  1  0
 33 34  2  0
 35 34  1  0
 35 39  1  0
 36 35  2  0
 37 32  2  0
 37 36  1  0
 38 37  1  0
 40 41  1  0
 41 44  1  0
 41 43  1  0
 42 40  2  0
 45 46  1  0
 45 20  1  0
 47 45  1  0
 48  1  1  0
 48 49  1  0
 48 51  1  0
 49 50  1  0
 52 51  1  0
 53 64  2  0
 54 52  1  0
 54 59  1  0
 55 63  1  0
 55 65  1  0
 56 62  1  0
 56 58  1  0
 57 63  1  0
 58 59  2  0
 58 57  1  0
 60 54  2  0
 61 60  1  0
 61 56  2  0
 62 55  1  0
 63 53  1  0
 65 67  2  0
 66 65  1  0
 68 66  1  0
 69 78  2  0
 69 74  1  0
 70 66  1  0
 70 74  1  0
 71 70  1  0
 72 73  1  0
 72 71  1  0
 73 69  1  0
 74 75  2  0
 75 76  1  0
 77 76  2  0
 78 77  1  0
 79 53  1  0
 79 80  1  0
 79 89  1  0
 80 83  1  0
 81 85  1  0
 81 80  1  0
 82 81  2  0
 85 84  1  0
 87 85  1  0
 87 88  1  0
 87 86  1  0
 89 92  1  1
 89 90  1  0
 91 89  1  0
M  ISO  4  10 100  18 100  51 101  52 101
M  END
>  <TORSDO>  (42) 
F 21

>  <SCORE>  (42) 
-13.330

>  <name>  (42) 
41

>  <ligand_id>  (42) 
41

>  <original_smiles>  (42) 
[H]OC([H])(C([H])([H])Oc1c([H])c([H])c2c(c1[H])C([H])([H])N(C(=O)C([H])(N([H])C(=O)C([H])(N([H])C([H])([H])[H])C([H])([H])[H])C(C([H])([H])[H])(C([H])([H])[H])C([H])([H])[H])C([H])(C(=O)N([H])C1([H])c3c([H])c([H])c([H])c([H])c3C([H])([H])C([H])([H])C1([H])[H])C2([H])[H])C([H])([H])N([H])c1nc([H])c(C([H])([H])N([H])C(=O)N2C([H])([H])C([H])([H])C([H])([H])C([H])(n3nc(-c4c([H])c([H])c(Oc5c([H])c([H])c(F)c([H])c5F)c([H])c4[H])c(C(=O)N([H])[H])c3N([H])[H])C2([H])[H])s1

>  <smiles>  (42) 
[H]OC([H])(C([H])([H])Oc1c([H])c([H])c2c(c1[H])C([H])([H])N(C(=O)C([H])(N([H])C(=O)C([H])(N([H])C([H])([H])[H])C([H])([H])[H])C(C([H])([H])[H])(C([H])([H])[H])C([H])([H])[H])C([H])(C(=O)N([H])C1([H])c3c([H])c([H])c([H])c([H])c3C([H])([H])C([H])([H])C1([H])[H])C2([H])[H])C([H])([H])N([H])c1nc([H])c(C([H])([H])N([H])C(=O)N2C([H])([H])C([H])([H])C([H])([H])C([H])(n3nc(-c4c([H])c([H])c(Oc5c([H])c([H])c(F)c([H])c5F)c([H])c4[H])c(C(=O)N([H])[H])c3N([H])[H])C2([H])[H])s1

$$$$
42:0:0
     RDKit          3D

 92100  0  0  1  0  0  0  0  0999 V2000
  -30.5680  -14.8620   20.4010 C   0  0  0  0  0  0  0  0  0  0  0  0
  -30.4480  -12.5050   19.5450 C   0  0  0  0  0  2  0  0  0  0  0  0
  -29.5400  -12.4340   18.2980 C   0  0  0  0  0  2  0  0  0  0  0  0
  -28.0650  -12.2510   18.7070 C   0  0  0  0  0  2  0  0  0  0  0  0
  -27.6310  -13.2270   19.8330 C   0  0  0  0  0  3  0  0  0  0  0  0
  -28.6620  -13.2760   20.9800 C   0  0  0  0  0  2  0  0  0  0  0  0
  -29.9560  -13.6240   20.3820 N   0  0  0  0  0  0  0  0  0  0  0  0
  -31.7780  -14.9280   20.1580 O   0  0  0  0  0  0  0  0  0  0  0  0
  -30.3330  -19.9900   21.4730 C   0  0  0  0  0  3  0  0  0  0  0  0
  -30.9140  -18.9020   22.1410 C   0  0  0  0  0  0  0  0  0  0  0  0
  -29.5450  -19.7340   20.3520 C   0  0  0  0  0  0  0  0  0  0  0  0
  -29.9970  -17.3850   20.6590 C   0  0  0  0  0  0  0  0  0  0  0  0
  -31.7800  -19.1140   23.3630 C   0  0  0  0  0  1  0  0  0  0  0  0
  -30.7450  -17.6270   21.7330 N   0  0  0  0  0  0  0  0  0  0  0  0
  -29.3830  -18.4080   19.9650 N   0  0  0  0  0  0  0  0  0  0  0  0
  -29.0250  -20.8460   19.5790 N   0  0  0  0  0  4  0  0  0  0  0  0
  -29.7600  -15.9990   20.3780 N   0  0  0  0  0  0  0  0  0  0  0  0
  -28.6940  -20.5250   18.6740 H   0  0  0  0  0  0  0  0  0  0  0  0
  -28.7900  -15.7920   20.2230 H   0  0  0  0  0  0  0  0  0  0  0  0
  -25.2440  -13.8230   20.5570 C   0  0  0  0  0  0  0  0  0  0  0  0
  -24.1710  -13.0510   20.9070 C   0  0  0  0  0  0  0  0  0  0  0  0
  -24.6250  -11.6970   20.8600 C   0  0  0  0  0  0  0  0  0  0  0  0
  -26.2840  -12.9400   20.3150 N   0  0  0  0  0  0  0  0  0  0  0  0
  -25.9180  -11.6550   20.5620 N   0  0  0  0  0  0  0  0  0  0  0  0
  -23.8870  -10.4380   21.0230 C   0  0  0  0  0  0  0  0  0  0  0  0
  -24.3130   -9.4440   21.9330 C   0  0  0  0  0  3  0  0  0  0  0  0
  -23.5750   -8.2510   22.0850 C   0  0  0  0  0  3  0  0  0  0  0  0
  -22.3980   -8.0420   21.3280 C   0  0  0  0  0  0  0  0  0  0  0  0
  -21.9910   -9.0230   20.4080 C   0  0  0  0  0  3  0  0  0  0  0  0
  -22.7290  -10.2090   20.2530 C   0  0  0  0  0  3  0  0  0  0  0  0
  -21.6320   -6.9030   21.3920 O   0  0  0  0  0  0  0  0  0  0  0  0
  -21.5830   -6.1300   22.5250 C   0  0  0  0  0  0  0  0  0  0  0  0
  -21.1820   -6.6600   23.7710 C   0  0  0  0  0  3  0  0  0  0  0  0
  -21.0800   -5.8150   24.8950 C   0  0  0  0  0  3  0  0  0  0  0  0
  -21.3690   -4.4430   24.7730 C   0  0  0  0  0  0  0  0  0  0  0  0
  -21.7640   -3.9130   23.5320 C   0  0  0  0  0  3  0  0  0  0  0  0
  -21.8670   -4.7540   22.4100 C   0  0  0  0  0  0  0  0  0  0  0  0
  -22.2270   -4.2360   21.2120 F   0  0  0  0  0  0  0  0  0  0  0  0
  -21.2640   -3.6290   25.8500 F   0  0  0  0  0  0  0  0  0  0  0  0
  -22.7750  -13.5340   21.1710 C   0  0  0  0  0  0  0  0  0  0  0  0
  -22.0370  -12.8400   22.0310 N   0  0  0  0  0  0  0  0  0  0  0  0
  -22.3470  -14.5640   20.6500 O   0  0  0  0  0  0  0  0  0  0  0  0
  -22.3970  -12.0070   22.4740 H   0  0  0  0  0  0  0  0  0  0  0  0
  -21.1000  -13.1460   22.2500 H   0  0  0  0  0  0  0  0  0  0  0  0
  -25.4160  -15.1950   20.3990 N   0  0  0  0  0  0  0  0  0  0  0  0
  -24.6410  -15.8410   20.5000 H   0  0  0  0  0  0  0  0  0  0  0  0
  -26.2460  -15.6360   20.0290 H   0  0  0  0  0  0  0  0  0  0  0  0
  -27.8710  -22.0720   21.5070 C   0  0  0  0  0  1  0  0  0  0  0  0
  -28.2870  -22.1130   20.0260 C   0  0  0  0  0  0  0  0  0  0  0  0
  -28.8050  -23.6090   19.6050 C   0  0  0  0  0  3  0  0  0  0  0  0
  -27.7430  -24.8490   19.6050 C   0  0  0  0  0  3  0  0  0  0  0  0
  -28.0690  -26.3310   19.5390 O   0  0  0  0  0  0  0  0  0  0  0  0
  -24.5950  -31.7280   23.0140 C   0  0  0  0  0  0  0  0  0  0  0  0
  -26.9950  -27.2620   19.5920 C   0  0  0  0  0  0  0  0  0  0  0  0
  -23.3030  -30.4360   21.3590 C   0  0  0  0  0  3  0  0  0  0  0  0
  -24.6680  -28.9550   19.7810 C   0  0  0  0  0  0  0  0  0  0  0  0
  -25.8440  -30.7210   21.0800 C   0  0  0  0  0  2  0  0  0  0  0  0
  -25.8750  -29.3770   20.3510 C   0  0  0  0  0  0  0  0  0  0  0  0
  -27.0420  -28.5460   20.2440 C   0  0  0  0  0  3  0  0  0  0  0  0
  -25.7590  -26.9260   18.9920 C   0  0  0  0  0  3  0  0  0  0  0  0
  -24.6150  -27.7390   19.0900 C   0  0  0  0  0  3  0  0  0  0  0  0
  -23.4480  -29.8440   19.9340 C   0  0  0  0  0  2  0  0  0  0  0  0
  -24.6030  -30.9770   21.8730 N   0  0  0  0  0  0  0  0  0  0  0  0
  -23.5380  -31.9860   23.6110 O   0  0  0  0  0  0  0  0  0  0  0  0
  -22.6710  -29.3720   22.2900 C   0  0  0  0  0  0  0  0  0  0  0  0
  -21.3380  -29.2160   22.2180 N   0  0  0  0  0  0  0  0  0  0  0  0
  -23.3780  -28.6920   23.0380 O   0  0  0  0  0  0  0  0  0  0  0  0
  -20.8240  -29.8170   21.5900 H   0  0  0  0  0  0  0  0  0  0  0  0
  -17.9730  -28.0160   22.8080 C   0  0  0  0  0  0  0  0  0  0  0  0
  -20.5430  -28.2450   22.9750 C   0  0  0  0  0  3  0  0  0  0  0  0
  -20.6070  -26.8450   22.3210 C   0  0  0  0  0  2  0  0  0  0  0  0
  -19.4580  -26.5840   21.3420 C   0  0  0  0  0  2  0  0  0  0  0  0
  -18.1070  -26.7040   22.0540 C   0  0  0  0  0  2  0  0  0  0  0  0
  -19.1160  -28.7470   23.2260 C   0  0  0  0  0  0  0  0  0  0  0  0
  -18.9350  -29.9780   23.8940 C   0  0  0  0  0  3  0  0  0  0  0  0
  -17.6430  -30.4770   24.1460 C   0  0  0  0  0  3  0  0  0  0  0  0
  -16.5150  -29.7420   23.7420 C   0  0  0  0  0  3  0  0  0  0  0  0
  -16.6810  -28.5130   23.0790 C   0  0  0  0  0  3  0  0  0  0  0  0
  -25.9090  -32.3170   23.6110 C   0  0  0  0  0  3  0  0  0  0  0  0
  -25.6230  -33.6920   24.0460 N   0  0  0  0  0  0  0  0  0  0  0  0
  -25.9200  -34.7920   23.3420 C   0  0  0  0  0  0  0  0  0  0  0  0
  -26.5330  -34.7560   22.2720 O   0  0  0  0  0  0  0  0  0  0  0  0
  -25.0730  -33.7940   24.8870 H   0  0  0  0  0  0  0  0  0  0  0  0
  -24.1820  -36.6060   23.2070 C   0  0  0  0  0  1  0  0  0  0  0  0
  -25.4670  -36.1480   23.9170 C   0  0  0  0  0  3  0  0  0  0  0  0
  -27.6510  -36.9770   24.6740 C   0  0  0  0  0  1  0  0  0  0  0  0
  -26.4950  -37.2070   23.8100 N   0  0  0  0  0  0  0  0  0  0  0  0
  -26.1030  -38.1150   24.0410 H   0  0  0  0  0  0  0  0  0  0  0  0
  -26.4810  -31.4640   24.8100 C   0  0  1  0  0  0  0  0  0  0  0  0
  -25.4430  -31.1740   25.9180 C   0  0  0  0  0  1  0  0  0  0  0  0
  -27.0250  -30.1070   24.3080 C   0  0  0  0  0  1  0  0  0  0  0  0
  -27.6760  -32.2050   25.4550 C   0  0  0  0  0  1  0  0  0  0  0  0
  2  7  1  0
  3  4  1  0
  3  2  1  0
  5  4  1  0
  5 23  1  0
  5  6  1  0
  7  1  1  0
  7  6  1  0
  8  1  2  0
  9 10  2  0
 10 13  1  0
 11  9  1  0
 12 14  2  0
 14 10  1  0
 15 11  2  0
 15 12  1  0
 16 49  2  0
 16 11  1  0
 17  1  1  0
 17 12  1  0
 18 16  1  0
 19 17  1  0
 20 21  2  0
 21 40  1  0
 22 21  1  0
 22 25  1  0
 23 20  1  0
 23 24  1  0
 24 22  2  0
 25 26  1  0
 26 27  2  0
 28 31  1  0
 28 27  1  0
 29 28  2  0
 30 29  1  0
 30 25  2  0
 31 32  1  0
 32 33  1  0
 33 34  2  0
 35 34  1  0
 35 39  1  0
 36 35  2  0
 37 32  2  0
 37 36  1  0
 38 37  1  0
 40 41  1  0
 41 44  1  0
 41 43  1  0
 42 40  2  0
 45 46  1  0
 45 20  1  0
 47 45  1  0
 49 48  1  0
 50 49  1  0
 51 50  2  0
 52 54  1  0
 52 51  1  0
 53 64  2  0
 54 59  1  0
 55 63  1  0
 55 65  1  0
 56 62  1  0
 56 58  1  0
 57 63  1  0
 58 57  1  0
 59 58  2  0
 60 61  1  0
 60 54  2  0
 61 56  2  0
 62 55  1  0
 63 53  1  0
 65 67  2  0
 66 65  1  0
 68 66  1  0
 69 78  2  0
 69 74  1  0
 70 66  1  0
 70 74  1  0
 71 70  1  0
 72 73  1  0
 72 71  1  0
 73 69  1  0
 74 75  2  0
 75 76  1  0
 77 76  2  0
 78 77  1  0
 79 53  1  0
 79 80  1  0
 79 89  1  0
 80 83  1  0
 81 85  1  0
 81 80  1  0
 82 81  2  0
 85 84  1  0
 87 85  1  0
 87 88  1  0
 87 86  1  0
 89 92  1  1
 89 90  1  0
 91 89  1  0
M  ISO  4   1 100  17 100  51 101  52 101
M  END
>  <TORSDO>  (43) 
F 18

>  <SCORE>  (43) 
-13.942

>  <name>  (43) 
42

>  <ligand_id>  (43) 
42

>  <original_smiles>  (43) 
[H]c1c(N([H])C([H])(C([H])([H])[H])C([H])([H])C([H])([H])Oc2c([H])c([H])c3c(c2[H])C([H])([H])N(C(=O)C([H])(N([H])C(=O)C([H])(N([H])C([H])([H])[H])C([H])([H])[H])C(C([H])([H])[H])(C([H])([H])[H])C([H])([H])[H])C([H])(C(=O)N([H])C2([H])c4c([H])c([H])c([H])c([H])c4C([H])([H])C([H])([H])C2([H])[H])C3([H])[H])nc(N([H])C(=O)N2C([H])([H])C([H])([H])C([H])([H])C([H])(n3nc(-c4c([H])c([H])c(Oc5c([H])c([H])c(F)c([H])c5F)c([H])c4[H])c(C(=O)N([H])[H])c3N([H])[H])C2([H])[H])nc1C([H])([H])[H]

>  <smiles>  (43) 
[H]c1c(N([H])C([H])(C([H])([H])[H])C([H])([H])C([H])([H])Oc2c([H])c([H])c3c(c2[H])C([H])([H])N(C(=O)C([H])(N([H])C(=O)C([H])(N([H])C([H])([H])[H])C([H])([H])[H])C(C([H])([H])[H])(C([H])([H])[H])C([H])([H])[H])C([H])(C(=O)N([H])C2([H])c4c([H])c([H])c([H])c([H])c4C([H])([H])C([H])([H])C2([H])[H])C3([H])[H])nc(N([H])C(=O)N2C([H])([H])C([H])([H])C([H])([H])C([H])(n3nc(-c4c([H])c([H])c(Oc5c([H])c([H])c(F)c([H])c5F)c([H])c4[H])c(C(=O)N([H])[H])c3N([H])[H])C2([H])[H])nc1C([H])([H])[H]

$$$$
43:0:0
     RDKit          3D

 95103  0  0  1  0  0  0  0  0999 V2000
  -27.9770  -23.6000   20.3970 C   0  0  0  0  0  0  0  0  0  0  0  0
  -26.9750  -23.5780   19.2360 C   0  0  0  0  0  0  0  0  0  0  0  0
  -27.3230  -23.6230   18.0520 O   0  0  0  0  0  0  0  0  0  0  0  0
  -24.5560  -22.9520   18.5310 C   0  0  0  0  0  1  0  0  0  0  0  0
  -25.4890  -23.5040   19.6260 C   0  0  0  0  0  2  0  0  0  0  0  0
  -29.0400  -22.5090   20.2990 N   0  0  0  0  0  4  0  0  0  0  0  0
  -29.9910  -22.8400   20.1810 H   0  0  0  0  0  0  0  0  0  0  0  0
  -27.5860  -20.4340   20.2510 C   0  0  0  0  0  3  0  0  0  0  0  0
  -28.8120  -21.0540   20.2320 C   0  0  0  0  0  0  0  0  0  0  0  0
  -29.4270  -18.7060   20.1460 C   0  0  0  0  0  0  0  0  0  0  0  0
  -29.8280  -20.0290   20.1620 N   0  0  0  0  0  0  0  0  0  0  0  0
  -27.6660  -18.6660   20.1880 S   0  0  0  0  0  0  0  0  0  0  0  0
  -30.3780  -17.4290   20.1410 C   0  0  0  0  0  2  0  0  0  0  0  0
  -30.5920  -14.8170   20.0650 C   0  0  0  0  0  0  0  0  0  0  0  0
  -30.3650  -12.5090   19.1040 C   0  0  0  0  0  2  0  0  0  0  0  0
  -29.3880  -12.5510   17.9080 C   0  0  0  0  0  2  0  0  0  0  0  0
  -27.9300  -12.3970   18.3850 C   0  0  0  0  0  2  0  0  0  0  0  0
  -27.6020  -13.2990   19.6020 C   0  0  0  0  0  3  0  0  0  0  0  0
  -28.6950  -13.2230   20.6880 C   0  0  0  0  0  2  0  0  0  0  0  0
  -29.9620  -13.5860   20.0450 N   0  0  0  0  0  0  0  0  0  0  0  0
  -31.7630  -14.8890   19.6780 O   0  0  0  0  0  0  0  0  0  0  0  0
  -29.8680  -15.9840   20.3130 N   0  0  0  0  0  0  0  0  0  0  0  0
  -28.9110  -15.8810   20.6120 H   0  0  0  0  0  0  0  0  0  0  0  0
  -25.2600  -13.9070   20.4420 C   0  0  0  0  0  0  0  0  0  0  0  0
  -24.1980  -13.1420   20.8380 C   0  0  0  0  0  0  0  0  0  0  0  0
  -24.6370  -11.7850   20.7590 C   0  0  0  0  0  0  0  0  0  0  0  0
  -26.2780  -13.0160   20.1430 N   0  0  0  0  0  0  0  0  0  0  0  0
  -25.9130  -11.7330   20.3980 N   0  0  0  0  0  0  0  0  0  0  0  0
  -23.8950  -10.5310   20.9530 C   0  0  0  0  0  0  0  0  0  0  0  0
  -24.3350   -9.5460   21.8670 C   0  0  0  0  0  3  0  0  0  0  0  0
  -23.5940   -8.3580   22.0490 C   0  0  0  0  0  3  0  0  0  0  0  0
  -22.4010   -8.1470   21.3170 C   0  0  0  0  0  0  0  0  0  0  0  0
  -21.9830   -9.1180   20.3920 C   0  0  0  0  0  3  0  0  0  0  0  0
  -22.7230  -10.2980   20.2070 C   0  0  0  0  0  3  0  0  0  0  0  0
  -21.6300   -7.0120   21.4100 O   0  0  0  0  0  0  0  0  0  0  0  0
  -21.5700   -6.2760   22.5660 C   0  0  0  0  0  0  0  0  0  0  0  0
  -21.1620   -6.8440   23.7910 C   0  0  0  0  0  3  0  0  0  0  0  0
  -21.0480   -6.0340   24.9390 C   0  0  0  0  0  3  0  0  0  0  0  0
  -21.3340   -4.6600   24.8630 C   0  0  0  0  0  0  0  0  0  0  0  0
  -21.7390   -4.0910   23.6420 C   0  0  0  0  0  3  0  0  0  0  0  0
  -21.8540   -4.8960   22.4960 C   0  0  0  0  0  0  0  0  0  0  0  0
  -22.2230   -4.3410   21.3170 F   0  0  0  0  0  0  0  0  0  0  0  0
  -21.2180   -3.8790   25.9640 F   0  0  0  0  0  0  0  0  0  0  0  0
  -22.8230  -13.6360   21.1830 C   0  0  0  0  0  0  0  0  0  0  0  0
  -22.1270  -12.9310   22.0670 N   0  0  0  0  0  0  0  0  0  0  0  0
  -22.3810  -14.6770   20.7020 O   0  0  0  0  0  0  0  0  0  0  0  0
  -22.5040  -12.0850   22.4700 H   0  0  0  0  0  0  0  0  0  0  0  0
  -21.2070  -13.2400   22.3500 H   0  0  0  0  0  0  0  0  0  0  0  0
  -25.4410  -15.2770   20.2910 N   0  0  0  0  0  0  0  0  0  0  0  0
  -24.6890  -15.9420   20.4440 H   0  0  0  0  0  0  0  0  0  0  0  0
  -26.2760  -15.7090   19.9180 H   0  0  0  0  0  0  0  0  0  0  0  0
  -28.2550  -25.1260   20.9550 C   0  0  0  0  0  3  0  0  0  0  0  0
  -29.4790  -26.4410   22.8090 C   0  0  0  0  0  1  0  0  0  0  0  0
  -29.4330  -25.1620   21.9500 C   0  0  0  0  0  2  0  0  0  0  0  0
  -28.3680  -26.4000   20.1660 O   0  0  0  0  0  0  0  0  0  0  0  0
  -24.6580  -31.8510   23.2740 C   0  0  0  0  0  0  0  0  0  0  0  0
  -27.2850  -27.3070   20.1790 C   0  0  0  0  0  0  0  0  0  0  0  0
  -23.4670  -30.4700   21.6090 C   0  0  0  0  0  3  0  0  0  0  0  0
  -24.9300  -28.9410   20.1700 C   0  0  0  0  0  0  0  0  0  0  0  0
  -26.0080  -30.7850   21.4520 C   0  0  0  0  0  2  0  0  0  0  0  0
  -26.0920  -29.4110   20.7950 C   0  0  0  0  0  0  0  0  0  0  0  0
  -27.2710  -28.5970   20.8070 C   0  0  0  0  0  3  0  0  0  0  0  0
  -26.1240  -26.9310   19.4850 C   0  0  0  0  0  3  0  0  0  0  0  0
  -24.9490  -27.7040   19.5110 C   0  0  0  0  0  3  0  0  0  0  0  0
  -23.6910  -29.8110   20.2230 C   0  0  0  0  0  2  0  0  0  0  0  0
  -24.7290  -31.0540   22.1680 N   0  0  0  0  0  0  0  0  0  0  0  0
  -23.5720  -32.1170   23.8100 O   0  0  0  0  0  0  0  0  0  0  0  0
  -22.8040  -29.4380   22.5540 C   0  0  0  0  0  0  0  0  0  0  0  0
  -21.4760  -29.2680   22.4310 N   0  0  0  0  0  0  0  0  0  0  0  0
  -23.4840  -28.7950   23.3600 O   0  0  0  0  0  0  0  0  0  0  0  0
  -20.9850  -29.8520   21.7700 H   0  0  0  0  0  0  0  0  0  0  0  0
  -18.0980  -28.0690   22.9210 C   0  0  0  0  0  0  0  0  0  0  0  0
  -20.6580  -28.3140   23.1860 C   0  0  0  0  0  3  0  0  0  0  0  0
  -20.7520  -26.8930   22.5830 C   0  0  0  0  0  2  0  0  0  0  0  0
  -19.6420  -26.5910   21.5700 C   0  0  0  0  0  2  0  0  0  0  0  0
  -18.2630  -26.7340   22.2170 C   0  0  0  0  0  2  0  0  0  0  0  0
  -19.2220  -28.8190   23.3630 C   0  0  0  0  0  0  0  0  0  0  0  0
  -19.0110  -30.0710   23.9800 C   0  0  0  0  0  3  0  0  0  0  0  0
  -17.7080  -30.5720   24.1630 C   0  0  0  0  0  3  0  0  0  0  0  0
  -16.6000  -29.8190   23.7420 C   0  0  0  0  0  3  0  0  0  0  0  0
  -16.7960  -28.5700   23.1260 C   0  0  0  0  0  3  0  0  0  0  0  0
  -25.9370  -32.4830   23.9120 C   0  0  0  0  0  3  0  0  0  0  0  0
  -25.6190  -33.8750   24.2630 N   0  0  0  0  0  0  0  0  0  0  0  0
  -25.9370  -34.9410   23.5190 C   0  0  0  0  0  0  0  0  0  0  0  0
  -26.5970  -34.8550   22.4790 O   0  0  0  0  0  0  0  0  0  0  0  0
  -25.0520  -34.0170   25.0860 H   0  0  0  0  0  0  0  0  0  0  0  0
  -24.1910  -36.7250   23.2060 C   0  0  0  0  0  1  0  0  0  0  0  0
  -25.4420  -36.3170   24.0020 C   0  0  0  0  0  3  0  0  0  0  0  0
  -27.5800  -37.2060   24.8210 C   0  0  0  0  0  1  0  0  0  0  0  0
  -26.4630  -37.3810   23.8970 N   0  0  0  0  0  0  0  0  0  0  0  0
  -26.0500  -38.2940   24.0660 H   0  0  0  0  0  0  0  0  0  0  0  0
  -26.4480  -31.7020   25.1850 C   0  0  1  0  0  0  0  0  0  0  0  0
  -25.3480  -31.4560   26.2470 C   0  0  0  0  0  1  0  0  0  0  0  0
  -27.0400  -30.3320   24.7810 C   0  0  0  0  0  1  0  0  0  0  0  0
  -27.5890  -32.4980   25.8620 C   0  0  0  0  0  1  0  0  0  0  0  0
  1 52  1  0
  2  5  1  0
  2  1  1  0
  3  2  2  0
  4  5  1  0
  6  1  2  0
  7  6  1  0
  9  8  2  0
  9  6  1  0
 10 11  2  0
 10 12  1  0
 11  9  1  0
 12  8  1  0
 13 10  1  0
 13 22  1  0
 14 22  1  0
 15 20  1  0
 16 17  1  0
 16 15  1  0
 18 17  1  0
 18 27  1  0
 18 19  1  0
 20 14  1  0
 20 19  1  0
 21 14  2  0
 22 23  1  0
 24 25  2  0
 25 44  1  0
 26 25  1  0
 26 29  1  0
 27 28  1  0
 27 24  1  0
 28 26  2  0
 29 30  1  0
 30 31  2  0
 32 35  1  0
 32 31  1  0
 33 32  2  0
 34 33  1  0
 34 29  2  0
 35 36  1  0
 36 37  1  0
 37 38  2  0
 39 38  1  0
 39 43  1  0
 40 39  2  0
 41 36  2  0
 41 40  1  0
 42 41  1  0
 44 45  1  0
 45 48  1  0
 45 47  1  0
 46 44  2  0
 49 24  1  0
 49 50  1  0
 51 49  1  0
 52 54  1  0
 54 53  1  0
 55 57  1  0
 55 52  1  0
 56 67  2  0
 57 62  1  0
 58 66  1  0
 58 68  1  0
 59 65  1  0
 59 61  1  0
 60 66  1  0
 61 62  2  0
 61 60  1  0
 63 64  1  0
 63 57  2  0
 64 59  2  0
 65 58  1  0
 66 56  1  0
 68 70  2  0
 69 68  1  0
 71 69  1  0
 72 81  2  0
 72 77  1  0
 73 69  1  0
 73 77  1  0
 74 73  1  0
 75 76  1  0
 75 74  1  0
 76 72  1  0
 77 78  2  0
 78 79  1  0
 80 79  2  0
 81 80  1  0
 82 56  1  0
 82 83  1  0
 82 92  1  0
 83 86  1  0
 84 88  1  0
 84 83  1  0
 85 84  2  0
 88 87  1  0
 90 88  1  0
 90 91  1  0
 90 89  1  0
 92 95  1  1
 92 93  1  0
 94 92  1  0
M  ISO  4  14 100  22 100  52 101  55 101
M  END
>  <TORSDO>  (44) 
F 23

>  <SCORE>  (44) 
-12.803

>  <name>  (44) 
43

>  <ligand_id>  (44) 
43

>  <original_smiles>  (44) 
[H]c1sc(C([H])([H])N([H])C(=O)N2C([H])([H])C([H])([H])C([H])([H])C([H])(n3nc(-c4c([H])c([H])c(Oc5c([H])c([H])c(F)c([H])c5F)c([H])c4[H])c(C(=O)N([H])[H])c3N([H])[H])C2([H])[H])nc1N([H])C([H])(C(=O)C([H])([H])C([H])([H])[H])C([H])(Oc1c([H])c([H])c2c(c1[H])C([H])([H])N(C(=O)C([H])(N([H])C(=O)C([H])(N([H])C([H])([H])[H])C([H])([H])[H])C(C([H])([H])[H])(C([H])([H])[H])C([H])([H])[H])C([H])(C(=O)N([H])C1([H])c3c([H])c([H])c([H])c([H])c3C([H])([H])C([H])([H])C1([H])[H])C2([H])[H])C([H])([H])C([H])([H])[H]

>  <smiles>  (44) 
[H]c1sc(C([H])([H])N([H])C(=O)N2C([H])([H])C([H])([H])C([H])([H])C([H])(n3nc(-c4c([H])c([H])c(Oc5c([H])c([H])c(F)c([H])c5F)c([H])c4[H])c(C(=O)N([H])[H])c3N([H])[H])C2([H])[H])nc1N([H])C([H])(C(=O)C([H])([H])C([H])([H])[H])C([H])(Oc1c([H])c([H])c2c(c1[H])C([H])([H])N(C(=O)C([H])(N([H])C(=O)C([H])(N([H])C([H])([H])[H])C([H])([H])[H])C(C([H])([H])[H])(C([H])([H])[H])C([H])([H])[H])C([H])(C(=O)N([H])C1([H])c3c([H])c([H])c([H])c([H])c3C([H])([H])C([H])([H])C1([H])[H])C2([H])[H])C([H])([H])C([H])([H])[H]

$$$$
44:0:0
     RDKit          3D

 95103  0  0  1  0  0  0  0  0999 V2000
  -30.7420  -17.4390   18.9550 C   0  0  0  0  0  3  0  0  0  0  0  0
  -30.0300  -17.2790   20.1740 C   0  0  0  0  0  0  0  0  0  0  0  0
  -30.4520  -19.7330   18.9440 C   0  0  0  0  0  0  0  0  0  0  0  0
  -29.6910  -19.6970   20.1450 C   0  0  0  0  0  0  0  0  0  0  0  0
  -30.9550  -18.6320   18.3520 N   0  0  0  0  0  0  0  0  0  0  0  0
  -29.4990  -18.4500   20.7470 N   0  0  0  0  0  0  0  0  0  0  0  0
  -30.8180  -20.9320   18.3510 N   0  0  0  0  0  0  0  0  0  0  0  0
  -29.2550  -20.9340   20.7720 N   0  0  0  0  0  0  0  0  0  0  0  0
  -30.7200  -21.7090   18.9950 H   0  0  0  0  0  0  0  0  0  0  0  0
  -31.6930  -20.9340   17.8450 H   0  0  0  0  0  0  0  0  0  0  0  0
  -28.9500  -20.8280   21.7330 H   0  0  0  0  0  0  0  0  0  0  0  0
  -30.5920  -14.7420   20.4000 C   0  0  0  0  0  0  0  0  0  0  0  0
  -30.3860  -12.4640   19.4060 C   0  0  0  0  0  2  0  0  0  0  0  0
  -29.4590  -12.5490   18.1720 C   0  0  0  0  0  2  0  0  0  0  0  0
  -27.9880  -12.3730   18.5930 C   0  0  0  0  0  2  0  0  0  0  0  0
  -27.6060  -13.2570   19.8110 C   0  0  0  0  0  3  0  0  0  0  0  0
  -28.6580  -13.1720   20.9400 C   0  0  0  0  0  2  0  0  0  0  0  0
  -29.9610  -13.5180   20.3580 N   0  0  0  0  0  0  0  0  0  0  0  0
  -31.7770  -14.8200   20.0580 O   0  0  0  0  0  0  0  0  0  0  0  0
  -29.8480  -15.8870   20.6700 N   0  0  0  0  0  0  0  0  0  0  0  0
  -28.9710  -15.7160   21.1370 H   0  0  0  0  0  0  0  0  0  0  0  0
  -25.2110  -13.8390   20.5200 C   0  0  0  0  0  0  0  0  0  0  0  0
  -24.1470  -13.0620   20.8870 C   0  0  0  0  0  0  0  0  0  0  0  0
  -24.6150  -11.7130   20.8630 C   0  0  0  0  0  0  0  0  0  0  0  0
  -26.2600  -12.9630   20.2930 N   0  0  0  0  0  0  0  0  0  0  0  0
  -25.9080  -11.6790   20.5620 N   0  0  0  0  0  0  0  0  0  0  0  0
  -23.8920  -10.4480   21.0530 C   0  0  0  0  0  0  0  0  0  0  0  0
  -24.3280   -9.4800   21.9830 C   0  0  0  0  0  3  0  0  0  0  0  0
  -23.6050   -8.2800   22.1610 C   0  0  0  0  0  3  0  0  0  0  0  0
  -22.4310   -8.0420   21.4080 C   0  0  0  0  0  0  0  0  0  0  0  0
  -22.0140   -8.9980   20.4660 C   0  0  0  0  0  3  0  0  0  0  0  0
  -22.7380  -10.1890   20.2860 C   0  0  0  0  0  3  0  0  0  0  0  0
  -21.6780   -6.8960   21.4950 O   0  0  0  0  0  0  0  0  0  0  0  0
  -21.6380   -6.1470   22.6440 C   0  0  0  0  0  0  0  0  0  0  0  0
  -21.2240   -6.6950   23.8780 C   0  0  0  0  0  3  0  0  0  0  0  0
  -21.1310   -5.8730   25.0180 C   0  0  0  0  0  3  0  0  0  0  0  0
  -21.4430   -4.5030   24.9260 C   0  0  0  0  0  0  0  0  0  0  0  0
  -21.8500   -3.9540   23.6980 C   0  0  0  0  0  3  0  0  0  0  0  0
  -21.9440   -4.7730   22.5600 C   0  0  0  0  0  0  0  0  0  0  0  0
  -22.3170   -4.2350   21.3740 F   0  0  0  0  0  0  0  0  0  0  0  0
  -21.3450   -3.7110   26.0200 F   0  0  0  0  0  0  0  0  0  0  0  0
  -22.7460  -13.5350   21.1450 C   0  0  0  0  0  0  0  0  0  0  0  0
  -22.0130  -12.8400   22.0090 N   0  0  0  0  0  0  0  0  0  0  0  0
  -22.3080  -14.5570   20.6180 O   0  0  0  0  0  0  0  0  0  0  0  0
  -22.3790  -12.0160   22.4610 H   0  0  0  0  0  0  0  0  0  0  0  0
  -21.0720  -13.1390   22.2240 H   0  0  0  0  0  0  0  0  0  0  0  0
  -25.3710  -15.2100   20.3380 N   0  0  0  0  0  0  0  0  0  0  0  0
  -24.5970  -15.8590   20.4350 H   0  0  0  0  0  0  0  0  0  0  0  0
  -26.2140  -15.6510   19.9940 H   0  0  0  0  0  0  0  0  0  0  0  0
  -28.6020  -22.1410   20.1040 C   0  0  0  0  0  2  0  0  0  0  0  0
  -28.9050  -23.6400   20.6600 C   0  0  0  0  0  3  0  0  0  0  0  0
  -28.7040  -23.5400   22.0600 O   0  0  0  0  0  0  0  0  0  0  0  0
  -28.8990  -24.3960   22.4320 H   0  0  0  0  0  0  0  0  0  0  0  0
  -27.9730  -24.8670   20.1340 C   0  0  0  0  0  2  0  0  0  0  0  0
  -28.2530  -26.3330   20.3680 O   0  0  0  0  0  0  0  0  0  0  0  0
  -24.5930  -31.9060   23.2590 C   0  0  0  0  0  0  0  0  0  0  0  0
  -27.1770  -27.2530   20.2670 C   0  0  0  0  0  0  0  0  0  0  0  0
  -23.3910  -30.5040   21.6230 C   0  0  0  0  0  3  0  0  0  0  0  0
  -24.8390  -28.9300   20.2150 C   0  0  0  0  0  0  0  0  0  0  0  0
  -25.9400  -30.7850   21.4600 C   0  0  0  0  0  2  0  0  0  0  0  0
  -26.0120  -29.3980   20.8240 C   0  0  0  0  0  0  0  0  0  0  0  0
  -27.1830  -28.5720   20.8390 C   0  0  0  0  0  3  0  0  0  0  0  0
  -25.9860  -26.8680   19.6080 C   0  0  0  0  0  3  0  0  0  0  0  0
  -24.8330  -27.6740   19.5940 C   0  0  0  0  0  3  0  0  0  0  0  0
  -23.6110  -29.8190   20.2490 C   0  0  0  0  0  2  0  0  0  0  0  0
  -24.6600  -31.0830   22.1710 N   0  0  0  0  0  0  0  0  0  0  0  0
  -23.5060  -32.1970   23.7810 O   0  0  0  0  0  0  0  0  0  0  0  0
  -22.7100  -29.5000   22.5870 C   0  0  0  0  0  0  0  0  0  0  0  0
  -21.3830  -29.3390   22.4580 N   0  0  0  0  0  0  0  0  0  0  0  0
  -23.3790  -28.8710   23.4120 O   0  0  0  0  0  0  0  0  0  0  0  0
  -20.9020  -29.9000   21.7690 H   0  0  0  0  0  0  0  0  0  0  0  0
  -17.9870  -28.1900   22.9680 C   0  0  0  0  0  0  0  0  0  0  0  0
  -20.5500  -28.4160   23.2330 C   0  0  0  0  0  3  0  0  0  0  0  0
  -20.6310  -26.9800   22.6670 C   0  0  0  0  0  2  0  0  0  0  0  0
  -19.5250  -26.6670   21.6540 C   0  0  0  0  0  2  0  0  0  0  0  0
  -18.1450  -26.8350   22.2980 C   0  0  0  0  0  2  0  0  0  0  0  0
  -19.1170  -28.9380   23.3940 C   0  0  0  0  0  0  0  0  0  0  0  0
  -18.9150  -30.2060   23.9820 C   0  0  0  0  0  3  0  0  0  0  0  0
  -17.6180  -30.7260   24.1470 C   0  0  0  0  0  3  0  0  0  0  0  0
  -16.5030  -29.9740   23.7350 C   0  0  0  0  0  3  0  0  0  0  0  0
  -16.6890  -28.7070   23.1530 C   0  0  0  0  0  3  0  0  0  0  0  0
  -25.8730  -32.5360   23.8850 C   0  0  0  0  0  3  0  0  0  0  0  0
  -26.3760  -31.7730   25.1710 C   0  0  1  0  0  0  0  0  0  0  0  0
  -25.2740  -31.5510   26.2350 C   0  0  0  0  0  1  0  0  0  0  0  0
  -26.9510  -30.3870   24.7970 C   0  0  0  0  0  1  0  0  0  0  0  0
  -27.5270  -32.5650   25.8340 C   0  0  0  0  0  1  0  0  0  0  0  0
  -25.5690  -33.9390   24.2030 N   0  0  0  0  0  0  0  0  0  0  0  0
  -25.9030  -34.9850   23.4370 C   0  0  0  0  0  0  0  0  0  0  0  0
  -26.5700  -34.8710   22.4040 O   0  0  0  0  0  0  0  0  0  0  0  0
  -24.9770  -34.1010   25.0050 H   0  0  0  0  0  0  0  0  0  0  0  0
  -24.1790  -36.7830   23.0770 C   0  0  0  0  0  1  0  0  0  0  0  0
  -25.4230  -36.3800   23.8850 C   0  0  0  0  0  3  0  0  0  0  0  0
  -27.5670  -37.2650   24.6940 C   0  0  0  0  0  1  0  0  0  0  0  0
  -26.4600  -37.4280   23.7560 N   0  0  0  0  0  0  0  0  0  0  0  0
  -26.0570  -38.3510   23.8960 H   0  0  0  0  0  0  0  0  0  0  0  0
  1  2  1  0
  2 20  1  0
  2  6  2  0
  3  4  2  0
  4  6  1  0
  4  8  1  0
  5  3  1  0
  5  1  2  0
  7  3  1  0
  7  9  1  0
  8 11  1  0
 10  7  1  0
 12 20  1  0
 13 18  1  0
 14 15  1  0
 14 13  1  0
 16 15  1  0
 16 25  1  0
 16 17  1  0
 18 12  1  0
 18 17  1  0
 19 12  2  0
 20 21  1  0
 22 23  2  0
 23 42  1  0
 24 23  1  0
 24 27  1  0
 25 22  1  0
 25 26  1  0
 26 24  2  0
 27 28  1  0
 28 29  2  0
 30 33  1  0
 30 29  1  0
 31 30  2  0
 32 31  1  0
 32 27  2  0
 33 34  1  0
 34 35  1  0
 35 36  2  0
 37 36  1  0
 37 41  1  0
 38 37  2  0
 39 34  2  0
 39 38  1  0
 40 39  1  0
 42 43  1  0
 43 46  1  0
 43 45  1  0
 44 42  2  0
 47 48  1  0
 47 22  1  0
 49 47  1  0
 50  8  1  0
 51 50  1  0
 51 52  1  0
 52 53  1  0
 54 55  1  0
 54 51  1  0
 56 67  2  0
 57 55  1  0
 57 62  1  0
 58 66  1  0
 58 68  1  0
 59 65  1  0
 59 61  1  0
 60 66  1  0
 61 62  2  0
 61 60  1  0
 63 57  2  0
 64 63  1  0
 64 59  2  0
 65 58  1  0
 66 56  1  0
 68 70  2  0
 69 68  1  0
 71 69  1  0
 72 81  2  0
 72 77  1  0
 73 69  1  0
 73 77  1  0
 74 73  1  0
 75 76  1  0
 75 74  1  0
 76 72  1  0
 77 78  2  0
 78 79  1  0
 80 79  2  0
 81 80  1  0
 82 56  1  0
 82 87  1  0
 82 83  1  0
 83 86  1  1
 83 84  1  0
 85 83  1  0
 87 90  1  0
 88 92  1  0
 88 87  1  0
 89 88  2  0
 92 91  1  0
 94 92  1  0
 94 95  1  0
 94 93  1  0
M  ISO  4  12 100  20 100  54 101  55 101
M  END
>  <TORSDO>  (45) 
F 20

>  <SCORE>  (45) 
-14.174

>  <name>  (45) 
44

>  <ligand_id>  (45) 
44

>  <original_smiles>  (45) 
[H]OC([H])(C([H])([H])Oc1c([H])c([H])c2c(c1[H])C([H])([H])N(C(=O)C([H])(N([H])C(=O)C([H])(N([H])C([H])([H])[H])C([H])([H])[H])C(C([H])([H])[H])(C([H])([H])[H])C([H])([H])[H])C([H])(C(=O)N([H])C1([H])c3c([H])c([H])c([H])c([H])c3C([H])([H])C([H])([H])C1([H])[H])C2([H])[H])C([H])([H])N([H])c1nc(N([H])C(=O)N2C([H])([H])C([H])([H])C([H])([H])C([H])(n3nc(-c4c([H])c([H])c(Oc5c([H])c([H])c(F)c([H])c5F)c([H])c4[H])c(C(=O)N([H])[H])c3N([H])[H])C2([H])[H])c([H])nc1N([H])[H]

>  <smiles>  (45) 
[H]OC([H])(C([H])([H])Oc1c([H])c([H])c2c(c1[H])C([H])([H])N(C(=O)C([H])(N([H])C(=O)C([H])(N([H])C([H])([H])[H])C([H])([H])[H])C(C([H])([H])[H])(C([H])([H])[H])C([H])([H])[H])C([H])(C(=O)N([H])C1([H])c3c([H])c([H])c([H])c([H])c3C([H])([H])C([H])([H])C1([H])[H])C2([H])[H])C([H])([H])N([H])c1nc(N([H])C(=O)N2C([H])([H])C([H])([H])C([H])([H])C([H])(n3nc(-c4c([H])c([H])c(Oc5c([H])c([H])c(F)c([H])c5F)c([H])c4[H])c(C(=O)N([H])[H])c3N([H])[H])C2([H])[H])c([H])nc1N([H])[H]

$$$$
45:0:0
     RDKit          3D

 92100  0  0  1  0  0  0  0  0999 V2000
  -29.8500  -21.9300   20.9280 N   0  0  0  0  0  4  0  0  0  0  0  0
  -29.4530  -21.7270   20.0260 H   0  0  0  0  0  0  0  0  0  0  0  0
  -30.8350  -22.0900   20.7990 H   0  0  0  0  0  0  0  0  0  0  0  0
  -29.7450  -23.5540   22.8570 C   0  0  0  0  0  1  0  0  0  0  0  0
  -29.2070  -23.1820   21.4540 C   0  0  0  0  0  3  0  0  0  0  0  0
  -29.3200  -24.3990   20.4750 C   0  0  0  0  0  2  0  0  0  0  0  0
  -28.4360  -25.6110   20.8870 C   0  0  0  0  0  2  0  0  0  0  0  0
  -28.5420  -26.7680   20.0400 O   0  0  0  0  0  0  0  0  0  0  0  0
  -24.5790  -31.8160   23.1610 C   0  0  0  0  0  0  0  0  0  0  0  0
  -27.3870  -27.5170   20.0240 C   0  0  0  0  0  0  0  0  0  0  0  0
  -23.4360  -30.4190   21.4710 C   0  0  0  0  0  3  0  0  0  0  0  0
  -24.9540  -28.9560   20.0340 C   0  0  0  0  0  0  0  0  0  0  0  0
  -25.9540  -30.8520   21.3180 C   0  0  0  0  0  2  0  0  0  0  0  0
  -26.0900  -29.4980   20.6490 C   0  0  0  0  0  0  0  0  0  0  0  0
  -27.3130  -28.7890   20.6400 C   0  0  0  0  0  3  0  0  0  0  0  0
  -26.2390  -26.9920   19.3970 C   0  0  0  0  0  3  0  0  0  0  0  0
  -25.0240  -27.7020   19.4010 C   0  0  0  0  0  3  0  0  0  0  0  0
  -23.6850  -29.7770   20.0800 C   0  0  0  0  0  2  0  0  0  0  0  0
  -24.6730  -31.0430   22.0430 N   0  0  0  0  0  0  0  0  0  0  0  0
  -23.4820  -32.0460   23.6900 O   0  0  0  0  0  0  0  0  0  0  0  0
  -22.7980  -29.3600   22.3990 C   0  0  0  0  0  0  0  0  0  0  0  0
  -21.4780  -29.1550   22.2570 N   0  0  0  0  0  0  0  0  0  0  0  0
  -23.4880  -28.7280   23.2030 O   0  0  0  0  0  0  0  0  0  0  0  0
  -20.9810  -29.7210   21.5830 H   0  0  0  0  0  0  0  0  0  0  0  0
  -18.1220  -27.8870   22.6950 C   0  0  0  0  0  0  0  0  0  0  0  0
  -20.6730  -28.1830   22.9960 C   0  0  0  0  0  3  0  0  0  0  0  0
  -20.8050  -26.7680   22.3820 C   0  0  0  0  0  2  0  0  0  0  0  0
  -19.7180  -26.4550   21.3500 C   0  0  0  0  0  2  0  0  0  0  0  0
  -18.3290  -26.5580   21.9870 C   0  0  0  0  0  2  0  0  0  0  0  0
  -19.2240  -28.6560   23.1560 C   0  0  0  0  0  0  0  0  0  0  0  0
  -18.9770  -29.8990   23.7760 C   0  0  0  0  0  3  0  0  0  0  0  0
  -17.6630  -30.3730   23.9430 C   0  0  0  0  0  3  0  0  0  0  0  0
  -16.5750  -29.6010   23.4990 C   0  0  0  0  0  3  0  0  0  0  0  0
  -16.8060  -28.3580   22.8810 C   0  0  0  0  0  3  0  0  0  0  0  0
  -25.8380  -32.4680   23.8140 C   0  0  0  0  0  3  0  0  0  0  0  0
  -26.3550  -31.6860   25.0840 C   0  0  1  0  0  0  0  0  0  0  0  0
  -25.2510  -31.3970   26.1290 C   0  0  0  0  0  1  0  0  0  0  0  0
  -26.9800  -30.3330   24.6720 C   0  0  0  0  0  1  0  0  0  0  0  0
  -27.4710  -32.4970   25.7820 C   0  0  0  0  0  1  0  0  0  0  0  0
  -25.4910  -33.8520   24.1610 N   0  0  0  0  0  0  0  0  0  0  0  0
  -25.8130  -34.9230   23.4230 C   0  0  0  0  0  0  0  0  0  0  0  0
  -26.5030  -34.8510   22.4030 O   0  0  0  0  0  0  0  0  0  0  0  0
  -24.8780  -33.9800   24.9530 H   0  0  0  0  0  0  0  0  0  0  0  0
  -24.0520  -36.6820   23.0590 C   0  0  0  0  0  1  0  0  0  0  0  0
  -25.2830  -36.2920   23.8920 C   0  0  0  0  0  3  0  0  0  0  0  0
  -27.3750  -37.2120   24.7920 C   0  0  0  0  0  1  0  0  0  0  0  0
  -26.2950  -37.3690   23.8210 N   0  0  0  0  0  0  0  0  0  0  0  0
  -25.8650  -38.2780   23.9710 H   0  0  0  0  0  0  0  0  0  0  0  0
  -29.6640  -20.7210   21.7830 C   0  0  0  0  0  2  0  0  0  0  0  0
  -30.9080  -14.5890   20.0760 C   0  0  0  0  0  0  0  0  0  0  0  0
  -30.5660  -12.4590   18.8690 C   0  0  0  0  0  2  0  0  0  0  0  0
  -29.5410  -12.6890   17.7380 C   0  0  0  0  0  2  0  0  0  0  0  0
  -28.0960  -12.5390   18.2560 C   0  0  0  0  0  2  0  0  0  0  0  0
  -27.8450  -13.3360   19.5630 C   0  0  0  0  0  3  0  0  0  0  0  0
  -28.9650  -13.0600   20.5910 C   0  0  0  0  0  2  0  0  0  0  0  0
  -30.2530  -13.3990   19.9560 N   0  0  0  0  0  0  0  0  0  0  0  0
  -31.9910  -14.8070   19.5200 O   0  0  0  0  0  0  0  0  0  0  0  0
  -31.2230  -19.0300   20.5240 C   0  0  0  0  0  3  0  0  0  0  0  0
  -30.0830  -19.3800   21.2130 C   0  0  0  0  0  0  0  0  0  0  0  0
  -30.3440  -16.9410   20.8020 C   0  0  0  0  0  0  0  0  0  0  0  0
  -31.3580  -17.6490   20.2880 N   0  0  0  0  0  0  0  0  0  0  0  0
  -30.2210  -15.5210   20.7660 N   0  0  0  0  0  0  0  0  0  0  0  0
  -29.1270  -17.9550   21.5710 S   0  0  0  0  0  0  0  0  0  0  0  0
  -29.3900  -15.1620   21.2060 H   0  0  0  0  0  0  0  0  0  0  0  0
  -25.5020  -13.9390   20.4480 C   0  0  0  0  0  0  0  0  0  0  0  0
  -24.4510  -13.1610   20.8540 C   0  0  0  0  0  0  0  0  0  0  0  0
  -24.8950  -11.8070   20.7390 C   0  0  0  0  0  0  0  0  0  0  0  0
  -26.5200  -13.0580   20.1150 N   0  0  0  0  0  0  0  0  0  0  0  0
  -26.1610  -11.7700   20.3450 N   0  0  0  0  0  0  0  0  0  0  0  0
  -24.1680  -10.5440   20.9240 C   0  0  0  0  0  0  0  0  0  0  0  0
  -24.5900   -9.5840   21.8710 C   0  0  0  0  0  3  0  0  0  0  0  0
  -23.8660   -8.3840   22.0440 C   0  0  0  0  0  3  0  0  0  0  0  0
  -22.7080   -8.1360   21.2690 C   0  0  0  0  0  0  0  0  0  0  0  0
  -22.3060   -9.0850   20.3120 C   0  0  0  0  0  3  0  0  0  0  0  0
  -23.0310  -10.2760   20.1380 C   0  0  0  0  0  3  0  0  0  0  0  0
  -21.9560   -6.9890   21.3500 O   0  0  0  0  0  0  0  0  0  0  0  0
  -21.7970   -6.3150   22.5350 C   0  0  0  0  0  0  0  0  0  0  0  0
  -21.2180   -6.9280   23.6680 C   0  0  0  0  0  3  0  0  0  0  0  0
  -21.0080   -6.1790   24.8430 C   0  0  0  0  0  3  0  0  0  0  0  0
  -21.3700   -4.8190   24.8860 C   0  0  0  0  0  0  0  0  0  0  0  0
  -21.9410   -4.2060   23.7570 C   0  0  0  0  0  3  0  0  0  0  0  0
  -22.1520   -4.9520   22.5850 C   0  0  0  0  0  0  0  0  0  0  0  0
  -22.6840   -4.3530   21.4920 F   0  0  0  0  0  0  0  0  0  0  0  0
  -21.1620   -4.0970   26.0120 F   0  0  0  0  0  0  0  0  0  0  0  0
  -23.0790  -13.6370   21.2370 C   0  0  0  0  0  0  0  0  0  0  0  0
  -22.4020  -12.9100   22.1190 N   0  0  0  0  0  0  0  0  0  0  0  0
  -22.6200  -14.6870   20.7920 O   0  0  0  0  0  0  0  0  0  0  0  0
  -22.7880  -12.0570   22.4990 H   0  0  0  0  0  0  0  0  0  0  0  0
  -21.4850  -13.2090   22.4190 H   0  0  0  0  0  0  0  0  0  0  0  0
  -25.6730  -15.3130   20.3150 N   0  0  0  0  0  0  0  0  0  0  0  0
  -24.9250  -15.9720   20.5020 H   0  0  0  0  0  0  0  0  0  0  0  0
  -26.4970  -15.7520   19.9240 H   0  0  0  0  0  0  0  0  0  0  0  0
  1  5  1  0
  1 49  1  0
  2  1  1  0
  3  1  1  0
  5  4  1  0
  6  7  1  0
  6  5  1  0
  8  7  1  0
  9 20  2  0
 10  8  1  0
 10 15  1  0
 11 19  1  0
 11 21  1  0
 12 18  1  0
 12 14  1  0
 13 19  1  0
 14 13  1  0
 15 14  2  0
 16 17  1  0
 16 10  2  0
 17 12  2  0
 18 11  1  0
 19  9  1  0
 21 23  2  0
 22 21  1  0
 24 22  1  0
 25 34  2  0
 25 30  1  0
 26 22  1  0
 26 30  1  0
 27 26  1  0
 28 29  1  0
 28 27  1  0
 29 25  1  0
 30 31  2  0
 31 32  1  0
 33 32  2  0
 34 33  1  0
 35  9  1  0
 35 40  1  0
 35 36  1  0
 36 39  1  1
 36 37  1  0
 38 36  1  0
 40 43  1  0
 41 45  1  0
 41 40  1  0
 42 41  2  0
 45 44  1  0
 47 45  1  0
 47 48  1  0
 47 46  1  0
 50 62  1  0
 51 56  1  0
 52 53  1  0
 52 51  1  0
 54 53  1  0
 54 68  1  0
 54 55  1  0
 56 50  1  0
 56 55  1  0
 57 50  2  0
 58 59  2  0
 59 63  1  0
 59 49  1  0
 60 63  1  0
 61 58  1  0
 61 60  2  0
 62 60  1  0
 62 64  1  0
 65 66  2  0
 66 85  1  0
 67 66  1  0
 67 70  1  0
 68 69  1  0
 68 65  1  0
 69 67  2  0
 70 71  1  0
 71 72  2  0
 73 76  1  0
 73 72  1  0
 74 73  2  0
 75 74  1  0
 75 70  2  0
 76 77  1  0
 77 82  2  0
 77 78  1  0
 78 79  2  0
 79 80  1  0
 80 84  1  0
 81 80  2  0
 82 81  1  0
 83 82  1  0
 85 86  1  0
 86 89  1  0
 86 88  1  0
 87 85  2  0
 90 65  1  0
 90 91  1  0
 92 90  1  0
M  ISO  4   7 101   8 101  50 100  62 100
M  END
>  <TORSDO>  (46) 
F 20

>  <SCORE>  (46) 
-12.445

>  <name>  (46) 
45

>  <ligand_id>  (46) 
45

>  <original_smiles>  (46) 
[H]c1nc(N([H])C(=O)N2C([H])([H])C([H])([H])C([H])([H])C([H])(n3nc(-c4c([H])c([H])c(Oc5c([H])c([H])c(F)c([H])c5F)c([H])c4[H])c(C(=O)N([H])[H])c3N([H])[H])C2([H])[H])sc1C([H])([H])[N+]([H])([H])C([H])(C([H])([H])[H])C([H])([H])C([H])([H])Oc1c([H])c([H])c2c(c1[H])C([H])([H])N(C(=O)C([H])(N([H])C(=O)C([H])(N([H])C([H])([H])[H])C([H])([H])[H])C(C([H])([H])[H])(C([H])([H])[H])C([H])([H])[H])C([H])(C(=O)N([H])C1([H])c3c([H])c([H])c([H])c([H])c3C([H])([H])C([H])([H])C1([H])[H])C2([H])[H]

>  <smiles>  (46) 
[H]c1nc(N([H])C(=O)N2C([H])([H])C([H])([H])C([H])([H])C([H])(n3nc(-c4c([H])c([H])c(Oc5c([H])c([H])c(F)c([H])c5F)c([H])c4[H])c(C(=O)N([H])[H])c3N([H])[H])C2([H])[H])sc1C([H])([H])[N+]([H])([H])C([H])(C([H])([H])[H])C([H])([H])C([H])([H])Oc1c([H])c([H])c2c(c1[H])C([H])([H])N(C(=O)C([H])(N([H])C(=O)C([H])(N([H])C([H])([H])[H])C([H])([H])[H])C(C([H])([H])[H])(C([H])([H])[H])C([H])([H])[H])C([H])(C(=O)N([H])C1([H])c3c([H])c([H])c([H])c([H])c3C([H])([H])C([H])([H])C1([H])[H])C2([H])[H]

$$$$
46:0:0
     RDKit          3D

 91 99  0  0  1  0  0  0  0  0999 V2000
  -28.8490  -17.7300   19.4070 C   0  0  0  0  0  3  0  0  0  0  0  0
  -29.7020  -18.0020   20.4460 C   0  0  0  0  0  0  0  0  0  0  0  0
  -28.9990  -20.1450   19.9030 C   0  0  0  0  0  0  0  0  0  0  0  0
  -29.7580  -19.3980   20.7330 N   0  0  0  0  0  0  0  0  0  0  0  0
  -28.8120  -21.5420   19.8740 N   0  0  0  0  0  0  0  0  0  0  0  0
  -28.1440  -19.1680   18.7180 S   0  0  0  0  0  0  0  0  0  0  0  0
  -28.3040  -21.7760   19.0270 H   0  0  0  0  0  0  0  0  0  0  0  0
  -30.3220  -22.7760   21.3920 C   0  0  0  0  0  1  0  0  0  0  0  0
  -28.9280  -22.7260   20.7490 C   0  0  0  0  0  3  0  0  0  0  0  0
  -28.5440  -24.0670   20.0050 C   0  0  0  0  0  3  0  0  0  0  0  0
  -28.4900  -25.3730   20.8840 C   0  0  0  0  0  3  0  0  0  0  0  0
  -28.4550  -26.6530   20.2030 O   0  0  0  0  0  0  0  0  0  0  0  0
  -24.6090  -31.8920   23.2530 C   0  0  0  0  0  0  0  0  0  0  0  0
  -27.2870  -27.3910   20.2530 C   0  0  0  0  0  0  0  0  0  0  0  0
  -23.4220  -30.4680   21.6130 C   0  0  0  0  0  3  0  0  0  0  0  0
  -24.8940  -28.9090   20.2260 C   0  0  0  0  0  0  0  0  0  0  0  0
  -25.9490  -30.8290   21.4320 C   0  0  0  0  0  2  0  0  0  0  0  0
  -26.0480  -29.4440   20.8150 C   0  0  0  0  0  0  0  0  0  0  0  0
  -27.2500  -28.6900   20.8260 C   0  0  0  0  0  3  0  0  0  0  0  0
  -26.1170  -26.8780   19.6620 C   0  0  0  0  0  3  0  0  0  0  0  0
  -24.9250  -27.6270   19.6470 C   0  0  0  0  0  3  0  0  0  0  0  0
  -23.6480  -29.7680   20.2460 C   0  0  0  0  0  2  0  0  0  0  0  0
  -24.6770  -31.0800   22.1590 N   0  0  0  0  0  0  0  0  0  0  0  0
  -23.5230  -32.1640   23.7830 O   0  0  0  0  0  0  0  0  0  0  0  0
  -22.7620  -29.4610   22.5810 C   0  0  0  0  0  0  0  0  0  0  0  0
  -21.4360  -29.2830   22.4530 N   0  0  0  0  0  0  0  0  0  0  0  0
  -23.4410  -28.8400   23.4020 O   0  0  0  0  0  0  0  0  0  0  0  0
  -20.9480  -29.8340   21.7610 H   0  0  0  0  0  0  0  0  0  0  0  0
  -18.0590  -28.1020   22.9540 C   0  0  0  0  0  0  0  0  0  0  0  0
  -20.6170  -28.3520   23.2270 C   0  0  0  0  0  3  0  0  0  0  0  0
  -20.7180  -26.9180   22.6570 C   0  0  0  0  0  2  0  0  0  0  0  0
  -19.6140  -26.5960   21.6430 C   0  0  0  0  0  2  0  0  0  0  0  0
  -18.2330  -26.7500   22.2840 C   0  0  0  0  0  2  0  0  0  0  0  0
  -19.1800  -28.8610   23.3820 C   0  0  0  0  0  0  0  0  0  0  0  0
  -18.9670  -30.1290   23.9680 C   0  0  0  0  0  3  0  0  0  0  0  0
  -17.6630  -30.6340   24.1340 C   0  0  0  0  0  3  0  0  0  0  0  0
  -16.5560  -29.8730   23.7200 C   0  0  0  0  0  3  0  0  0  0  0  0
  -16.7550  -28.6090   23.1360 C   0  0  0  0  0  3  0  0  0  0  0  0
  -25.8880  -32.5360   23.8750 C   0  0  0  0  0  3  0  0  0  0  0  0
  -26.4050  -31.7730   25.1570 C   0  0  1  0  0  0  0  0  0  0  0  0
  -25.3090  -31.5390   26.2220 C   0  0  0  0  0  1  0  0  0  0  0  0
  -26.9950  -30.3970   24.7720 C   0  0  0  0  0  1  0  0  0  0  0  0
  -27.5500  -32.5740   25.8200 C   0  0  0  0  0  1  0  0  0  0  0  0
  -25.5740  -33.9330   24.1960 N   0  0  0  0  0  0  0  0  0  0  0  0
  -25.9070  -34.9830   23.4320 C   0  0  0  0  0  0  0  0  0  0  0  0
  -26.5820  -34.8760   22.4050 O   0  0  0  0  0  0  0  0  0  0  0  0
  -24.9820  -34.0910   24.9990 H   0  0  0  0  0  0  0  0  0  0  0  0
  -24.1750  -36.7660   23.0580 C   0  0  0  0  0  1  0  0  0  0  0  0
  -25.4130  -36.3720   23.8790 C   0  0  0  0  0  3  0  0  0  0  0  0
  -27.5390  -37.2670   24.7180 C   0  0  0  0  0  1  0  0  0  0  0  0
  -26.4410  -37.4290   23.7690 N   0  0  0  0  0  0  0  0  0  0  0  0
  -26.0290  -38.3460   23.9180 H   0  0  0  0  0  0  0  0  0  0  0  0
  -30.5170  -16.9610   21.2140 C   0  0  0  0  0  2  0  0  0  0  0  0
  -30.6730  -14.5230   20.5100 C   0  0  0  0  0  0  0  0  0  0  0  0
  -30.3450  -12.3650   19.3460 C   0  0  0  0  0  2  0  0  0  0  0  0
  -29.4120  -12.5730   18.1360 C   0  0  0  0  0  2  0  0  0  0  0  0
  -27.9370  -12.4330   18.5560 C   0  0  0  0  0  2  0  0  0  0  0  0
  -27.5980  -13.2560   19.8280 C   0  0  0  0  0  3  0  0  0  0  0  0
  -28.6530  -13.0550   20.9400 C   0  0  0  0  0  2  0  0  0  0  0  0
  -29.9770  -13.3550   20.3740 N   0  0  0  0  0  0  0  0  0  0  0  0
  -31.7950  -14.6740   20.0200 O   0  0  0  0  0  0  0  0  0  0  0  0
  -30.0290  -15.5610   21.0910 N   0  0  0  0  0  0  0  0  0  0  0  0
  -29.1200  -15.3750   21.4850 H   0  0  0  0  0  0  0  0  0  0  0  0
  -25.1970  -13.8470   20.5360 C   0  0  0  0  0  0  0  0  0  0  0  0
  -24.1300  -13.0710   20.8980 C   0  0  0  0  0  0  0  0  0  0  0  0
  -24.5950  -11.7210   20.8660 C   0  0  0  0  0  0  0  0  0  0  0  0
  -26.2460  -12.9710   20.3050 N   0  0  0  0  0  0  0  0  0  0  0  0
  -25.8880  -11.6860   20.5640 N   0  0  0  0  0  0  0  0  0  0  0  0
  -23.8700  -10.4580   21.0500 C   0  0  0  0  0  0  0  0  0  0  0  0
  -24.3090   -9.4820   21.9730 C   0  0  0  0  0  3  0  0  0  0  0  0
  -23.5840   -8.2840   22.1450 C   0  0  0  0  0  3  0  0  0  0  0  0
  -22.4050   -8.0530   21.3980 C   0  0  0  0  0  0  0  0  0  0  0  0
  -21.9870   -9.0180   20.4620 C   0  0  0  0  0  3  0  0  0  0  0  0
  -22.7130  -10.2070   20.2860 C   0  0  0  0  0  3  0  0  0  0  0  0
  -21.6470   -6.9090   21.4840 O   0  0  0  0  0  0  0  0  0  0  0  0
  -21.6130   -6.1520   22.6280 C   0  0  0  0  0  0  0  0  0  0  0  0
  -21.2070   -6.6920   23.8680 C   0  0  0  0  0  3  0  0  0  0  0  0
  -21.1180   -5.8610   25.0040 C   0  0  0  0  0  3  0  0  0  0  0  0
  -21.4270   -4.4920   24.8990 C   0  0  0  0  0  0  0  0  0  0  0  0
  -21.8270   -3.9500   23.6650 C   0  0  0  0  0  3  0  0  0  0  0  0
  -21.9150   -4.7790   22.5320 C   0  0  0  0  0  0  0  0  0  0  0  0
  -22.2790   -4.2470   21.3400 F   0  0  0  0  0  0  0  0  0  0  0  0
  -21.3350   -3.6920   25.9880 F   0  0  0  0  0  0  0  0  0  0  0  0
  -22.7320  -13.5450   21.1680 C   0  0  0  0  0  0  0  0  0  0  0  0
  -22.0000  -12.8460   22.0290 N   0  0  0  0  0  0  0  0  0  0  0  0
  -22.2940  -14.5730   20.6490 O   0  0  0  0  0  0  0  0  0  0  0  0
  -22.3670  -12.0170   22.4740 H   0  0  0  0  0  0  0  0  0  0  0  0
  -21.0610  -13.1440   22.2500 H   0  0  0  0  0  0  0  0  0  0  0  0
  -25.3610  -15.2190   20.3680 N   0  0  0  0  0  0  0  0  0  0  0  0
  -24.6010  -15.8760   20.5040 H   0  0  0  0  0  0  0  0  0  0  0  0
  -26.2290  -15.6690   20.1020 H   0  0  0  0  0  0  0  0  0  0  0  0
  1  2  2  0
  2  4  1  0
  2 53  1  0
  3  4  2  0
  5  3  1  0
  5  9  1  0
  6  1  1  0
  6  3  1  0
  7  5  1  0
  9  8  1  0
 10  9  1  0
 10 11  2  0
 12 14  1  0
 12 11  1  0
 13 24  2  0
 14 19  1  0
 15 23  1  0
 15 25  1  0
 16 22  1  0
 16 18  1  0
 17 23  1  0
 18 19  2  0
 18 17  1  0
 20 14  2  0
 21 20  1  0
 21 16  2  0
 22 15  1  0
 23 13  1  0
 25 27  2  0
 26 25  1  0
 28 26  1  0
 29 38  2  0
 29 34  1  0
 30 26  1  0
 30 34  1  0
 31 30  1  0
 32 33  1  0
 32 31  1  0
 33 29  1  0
 34 35  2  0
 35 36  1  0
 37 36  2  0
 38 37  1  0
 39 13  1  0
 39 44  1  0
 39 40  1  0
 40 43  1  1
 40 41  1  0
 42 40  1  0
 44 47  1  0
 45 49  1  0
 45 44  1  0
 46 45  2  0
 49 48  1  0
 51 49  1  0
 51 52  1  0
 51 50  1  0
 54 62  1  0
 55 60  1  0
 56 57  1  0
 56 55  1  0
 58 57  1  0
 58 67  1  0
 58 59  1  0
 60 54  1  0
 60 59  1  0
 61 54  2  0
 62 53  1  0
 62 63  1  0
 64 65  2  0
 65 84  1  0
 66 65  1  0
 66 69  1  0
 67 64  1  0
 67 68  1  0
 68 66  2  0
 69 70  1  0
 70 71  2  0
 72 75  1  0
 72 71  1  0
 73 72  2  0
 74 73  1  0
 74 69  2  0
 75 76  1  0
 76 77  1  0
 77 78  2  0
 79 78  1  0
 79 83  1  0
 80 79  2  0
 81 76  2  0
 81 80  1  0
 82 81  1  0
 84 85  1  0
 85 88  1  0
 85 87  1  0
 86 84  2  0
 89 90  1  0
 89 64  1  0
 91 89  1  0
M  ISO  4  11 101  12 101  54 100  62 100
M  END
>  <TORSDO>  (47) 
F 20

>  <SCORE>  (47) 
-14.038

>  <name>  (47) 
46

>  <ligand_id>  (47) 
46

>  <original_smiles>  (47) 
[H]c1sc(N([H])C([H])(C([H])([H])[H])C([H])([H])C([H])([H])Oc2c([H])c([H])c3c(c2[H])C([H])([H])N(C(=O)C([H])(N([H])C(=O)C([H])(N([H])C([H])([H])[H])C([H])([H])[H])C(C([H])([H])[H])(C([H])([H])[H])C([H])([H])[H])C([H])(C(=O)N([H])C2([H])c4c([H])c([H])c([H])c([H])c4C([H])([H])C([H])([H])C2([H])[H])C3([H])[H])nc1C([H])([H])N([H])C(=O)N1C([H])([H])C([H])([H])C([H])([H])C([H])(n2nc(-c3c([H])c([H])c(Oc4c([H])c([H])c(F)c([H])c4F)c([H])c3[H])c(C(=O)N([H])[H])c2N([H])[H])C1([H])[H]

>  <smiles>  (47) 
[H]c1sc(N([H])C([H])(C([H])([H])[H])C([H])([H])C([H])([H])Oc2c([H])c([H])c3c(c2[H])C([H])([H])N(C(=O)C([H])(N([H])C(=O)C([H])(N([H])C([H])([H])[H])C([H])([H])[H])C(C([H])([H])[H])(C([H])([H])[H])C([H])([H])[H])C([H])(C(=O)N([H])C2([H])c4c([H])c([H])c([H])c([H])c4C([H])([H])C([H])([H])C2([H])[H])C3([H])[H])nc1C([H])([H])N([H])C(=O)N1C([H])([H])C([H])([H])C([H])([H])C([H])(n2nc(-c3c([H])c([H])c(Oc4c([H])c([H])c(F)c([H])c4F)c([H])c3[H])c(C(=O)N([H])[H])c2N([H])[H])C1([H])[H]

$$$$
47:0:0
     RDKit          3D

 92100  0  0  1  0  0  0  0  0999 V2000
  -28.8640  -22.2760   20.1890 C   0  0  0  0  0  2  0  0  0  0  0  0
  -29.9170  -21.3550   20.7440 N   0  0  0  0  0  0  0  0  0  0  0  0
  -30.8190  -21.8170   20.8320 H   0  0  0  0  0  0  0  0  0  0  0  0
  -30.5980  -14.7540   20.3540 C   0  0  0  0  0  0  0  0  0  0  0  0
  -30.4000  -12.4860   19.3260 C   0  0  0  0  0  2  0  0  0  0  0  0
  -29.4660  -12.5720   18.0980 C   0  0  0  0  0  2  0  0  0  0  0  0
  -27.9940  -12.3980   18.5210 C   0  0  0  0  0  2  0  0  0  0  0  0
  -27.6150  -13.2830   19.7380 C   0  0  0  0  0  3  0  0  0  0  0  0
  -28.6680  -13.1830   20.8650 C   0  0  0  0  0  2  0  0  0  0  0  0
  -29.9720  -13.5310   20.2830 N   0  0  0  0  0  0  0  0  0  0  0  0
  -31.7820  -14.8540   20.0180 O   0  0  0  0  0  0  0  0  0  0  0  0
  -31.3060  -19.2740   20.5570 C   0  0  0  0  0  0  0  0  0  0  0  0
  -30.0770  -19.9190   20.5980 C   0  0  0  0  0  0  0  0  0  0  0  0
  -30.0580  -17.3140   20.5550 C   0  0  0  0  0  0  0  0  0  0  0  0
  -32.6390  -19.9610   20.5710 C   0  0  0  0  0  1  0  0  0  0  0  0
  -31.2840  -17.8560   20.5280 N   0  0  0  0  0  0  0  0  0  0  0  0
  -29.8020  -15.8590   20.5980 N   0  0  0  0  0  0  0  0  0  0  0  0
  -28.8220  -18.6440   20.5860 S   0  0  0  0  0  0  0  0  0  0  0  0
  -28.8410  -15.6190   20.7850 H   0  0  0  0  0  0  0  0  0  0  0  0
  -25.2170  -13.8730   20.4370 C   0  0  0  0  0  0  0  0  0  0  0  0
  -24.1520  -13.0970   20.8060 C   0  0  0  0  0  0  0  0  0  0  0  0
  -24.6210  -11.7480   20.7940 C   0  0  0  0  0  0  0  0  0  0  0  0
  -26.2670  -12.9950   20.2200 N   0  0  0  0  0  0  0  0  0  0  0  0
  -25.9150  -11.7140   20.4980 N   0  0  0  0  0  0  0  0  0  0  0  0
  -23.9000  -10.4840   20.9910 C   0  0  0  0  0  0  0  0  0  0  0  0
  -24.3280   -9.5270   21.9370 C   0  0  0  0  0  3  0  0  0  0  0  0
  -23.6050   -8.3290   22.1220 C   0  0  0  0  0  3  0  0  0  0  0  0
  -22.4390   -8.0790   21.3590 C   0  0  0  0  0  0  0  0  0  0  0  0
  -22.0300   -9.0250   20.4020 C   0  0  0  0  0  3  0  0  0  0  0  0
  -22.7540  -10.2140   20.2160 C   0  0  0  0  0  3  0  0  0  0  0  0
  -21.6890   -6.9310   21.4520 O   0  0  0  0  0  0  0  0  0  0  0  0
  -21.6300   -6.2020   22.6110 C   0  0  0  0  0  0  0  0  0  0  0  0
  -21.1800   -6.7670   23.8240 C   0  0  0  0  0  3  0  0  0  0  0  0
  -21.0680   -5.9630   24.9770 C   0  0  0  0  0  3  0  0  0  0  0  0
  -21.3990   -4.5960   24.9170 C   0  0  0  0  0  0  0  0  0  0  0  0
  -21.8430   -4.0310   23.7080 C   0  0  0  0  0  3  0  0  0  0  0  0
  -21.9550   -4.8320   22.5590 C   0  0  0  0  0  0  0  0  0  0  0  0
  -22.3640   -4.2770   21.3920 F   0  0  0  0  0  0  0  0  0  0  0  0
  -21.2850   -3.8220   26.0220 F   0  0  0  0  0  0  0  0  0  0  0  0
  -22.7500  -13.5710   21.0600 C   0  0  0  0  0  0  0  0  0  0  0  0
  -22.0190  -12.8810   21.9280 N   0  0  0  0  0  0  0  0  0  0  0  0
  -22.3120  -14.5880   20.5230 O   0  0  0  0  0  0  0  0  0  0  0  0
  -22.3860  -12.0580   22.3820 H   0  0  0  0  0  0  0  0  0  0  0  0
  -21.0790  -13.1830   22.1440 H   0  0  0  0  0  0  0  0  0  0  0  0
  -25.3730  -15.2420   20.2410 N   0  0  0  0  0  0  0  0  0  0  0  0
  -24.5920  -15.8840   20.3210 H   0  0  0  0  0  0  0  0  0  0  0  0
  -26.2010  -15.6780   19.8560 H   0  0  0  0  0  0  0  0  0  0  0  0
  -29.0970  -23.8360   20.5500 C   0  0  0  0  0  3  0  0  0  0  0  0
  -29.1450  -23.7620   21.9610 O   0  0  0  0  0  0  0  0  0  0  0  0
  -29.4190  -22.8620   22.1380 H   0  0  0  0  0  0  0  0  0  0  0  0
  -28.0210  -24.9570   20.1240 C   0  0  0  0  0  2  0  0  0  0  0  0
  -28.2810  -26.4270   20.2880 O   0  0  0  0  0  0  0  0  0  0  0  0
  -24.6020  -31.9170   23.2600 C   0  0  0  0  0  0  0  0  0  0  0  0
  -27.1850  -27.3160   20.2160 C   0  0  0  0  0  0  0  0  0  0  0  0
  -23.3920  -30.5210   21.6240 C   0  0  0  0  0  3  0  0  0  0  0  0
  -24.8360  -28.9660   20.1940 C   0  0  0  0  0  0  0  0  0  0  0  0
  -25.9360  -30.8210   21.4420 C   0  0  0  0  0  2  0  0  0  0  0  0
  -26.0100  -29.4410   20.7940 C   0  0  0  0  0  0  0  0  0  0  0  0
  -27.1870  -28.6280   20.7940 C   0  0  0  0  0  3  0  0  0  0  0  0
  -25.9880  -26.9080   19.5800 C   0  0  0  0  0  3  0  0  0  0  0  0
  -24.8310  -27.7070   19.5770 C   0  0  0  0  0  3  0  0  0  0  0  0
  -23.6040  -29.8470   20.2430 C   0  0  0  0  0  2  0  0  0  0  0  0
  -24.6630  -31.1030   22.1640 N   0  0  0  0  0  0  0  0  0  0  0  0
  -23.5180  -32.2020   23.7920 O   0  0  0  0  0  0  0  0  0  0  0  0
  -22.7240  -29.5080   22.5840 C   0  0  0  0  0  0  0  0  0  0  0  0
  -21.3970  -29.3360   22.4570 N   0  0  0  0  0  0  0  0  0  0  0  0
  -23.3980  -28.8800   23.4050 O   0  0  0  0  0  0  0  0  0  0  0  0
  -20.9120  -29.8930   21.7680 H   0  0  0  0  0  0  0  0  0  0  0  0
  -18.0130  -28.1600   22.9590 C   0  0  0  0  0  0  0  0  0  0  0  0
  -20.5730  -28.4030   23.2280 C   0  0  0  0  0  3  0  0  0  0  0  0
  -20.6660  -26.9710   22.6540 C   0  0  0  0  0  2  0  0  0  0  0  0
  -19.5620  -26.6530   21.6410 C   0  0  0  0  0  2  0  0  0  0  0  0
  -18.1810  -26.8080   22.2840 C   0  0  0  0  0  2  0  0  0  0  0  0
  -19.1360  -28.9140   23.3880 C   0  0  0  0  0  0  0  0  0  0  0  0
  -18.9260  -30.1780   23.9790 C   0  0  0  0  0  3  0  0  0  0  0  0
  -17.6250  -30.6870   24.1470 C   0  0  0  0  0  3  0  0  0  0  0  0
  -16.5150  -29.9290   23.7360 C   0  0  0  0  0  3  0  0  0  0  0  0
  -16.7100  -28.6670   23.1460 C   0  0  0  0  0  3  0  0  0  0  0  0
  -25.8860  -32.5450   23.8810 C   0  0  0  0  0  3  0  0  0  0  0  0
  -26.3970  -31.7740   25.1600 C   0  0  1  0  0  0  0  0  0  0  0  0
  -25.3010  -31.5450   26.2270 C   0  0  0  0  0  1  0  0  0  0  0  0
  -26.9750  -30.3930   24.7740 C   0  0  0  0  0  1  0  0  0  0  0  0
  -27.5480  -32.5660   25.8230 C   0  0  0  0  0  1  0  0  0  0  0  0
  -25.5810  -33.9450   24.2090 N   0  0  0  0  0  0  0  0  0  0  0  0
  -25.9070  -34.9950   23.4420 C   0  0  0  0  0  0  0  0  0  0  0  0
  -26.5630  -34.8860   22.4030 O   0  0  0  0  0  0  0  0  0  0  0  0
  -24.9980  -34.1050   25.0170 H   0  0  0  0  0  0  0  0  0  0  0  0
  -24.1740  -36.7870   23.1080 C   0  0  0  0  0  1  0  0  0  0  0  0
  -25.4280  -36.3860   23.9020 C   0  0  0  0  0  3  0  0  0  0  0  0
  -27.5730  -37.2750   24.6970 C   0  0  0  0  0  1  0  0  0  0  0  0
  -26.4590  -37.4380   23.7680 N   0  0  0  0  0  0  0  0  0  0  0  0
  -26.0560  -38.3590   23.9130 H   0  0  0  0  0  0  0  0  0  0  0  0
  1 48  1  0
  1  2  1  0
  2  3  1  0
  4 17  1  0
  5 10  1  0
  6  7  1  0
  6  5  1  0
  8  7  1  0
  8 23  1  0
  8  9  1  0
 10  4  1  0
 10  9  1  0
 11  4  2  0
 12 15  1  0
 12 13  2  0
 13  2  1  0
 14 18  1  0
 14 17  1  0
 16 14  2  0
 16 12  1  0
 17 19  1  0
 18 13  1  0
 20 21  2  0
 21 40  1  0
 22 21  1  0
 22 25  1  0
 23 20  1  0
 23 24  1  0
 24 22  2  0
 25 26  1  0
 26 27  2  0
 28 31  1  0
 28 27  1  0
 29 28  2  0
 30 29  1  0
 30 25  2  0
 31 32  1  0
 32 33  1  0
 33 34  2  0
 35 34  1  0
 35 39  1  0
 36 35  2  0
 37 32  2  0
 37 36  1  0
 38 37  1  0
 40 41  1  0
 41 44  1  0
 41 43  1  0
 42 40  2  0
 45 46  1  0
 45 20  1  0
 47 45  1  0
 48 51  1  0
 48 49  1  0
 49 50  1  0
 51 52  1  0
 53 64  2  0
 54 52  1  0
 54 59  1  0
 55 63  1  0
 55 65  1  0
 56 62  1  0
 56 58  1  0
 57 63  1  0
 58 57  1  0
 59 58  2  0
 60 54  2  0
 61 60  1  0
 61 56  2  0
 62 55  1  0
 63 53  1  0
 65 67  2  0
 66 65  1  0
 68 66  1  0
 69 78  2  0
 69 74  1  0
 70 66  1  0
 70 74  1  0
 71 70  1  0
 72 73  1  0
 72 71  1  0
 73 69  1  0
 74 75  2  0
 75 76  1  0
 77 76  2  0
 78 77  1  0
 79 53  1  0
 79 84  1  0
 79 80  1  0
 80 83  1  1
 80 81  1  0
 82 80  1  0
 84 87  1  0
 85 89  1  0
 85 84  1  0
 86 85  2  0
 89 88  1  0
 91 89  1  0
 91 92  1  0
 91 90  1  0
M  ISO  4   4 100  17 100  51 101  52 101
M  END
>  <TORSDO>  (48) 
F 20

>  <SCORE>  (48) 
-13.994

>  <name>  (48) 
47

>  <ligand_id>  (48) 
47

>  <original_smiles>  (48) 
[H]OC([H])(C([H])([H])Oc1c([H])c([H])c2c(c1[H])C([H])([H])N(C(=O)C([H])(N([H])C(=O)C([H])(N([H])C([H])([H])[H])C([H])([H])[H])C(C([H])([H])[H])(C([H])([H])[H])C([H])([H])[H])C([H])(C(=O)N([H])C1([H])c3c([H])c([H])c([H])c([H])c3C([H])([H])C([H])([H])C1([H])[H])C2([H])[H])C([H])([H])N([H])c1sc(N([H])C(=O)N2C([H])([H])C([H])([H])C([H])([H])C([H])(n3nc(-c4c([H])c([H])c(Oc5c([H])c([H])c(F)c([H])c5F)c([H])c4[H])c(C(=O)N([H])[H])c3N([H])[H])C2([H])[H])nc1C([H])([H])[H]

>  <smiles>  (48) 
[H]OC([H])(C([H])([H])Oc1c([H])c([H])c2c(c1[H])C([H])([H])N(C(=O)C([H])(N([H])C(=O)C([H])(N([H])C([H])([H])[H])C([H])([H])[H])C(C([H])([H])[H])(C([H])([H])[H])C([H])([H])[H])C([H])(C(=O)N([H])C1([H])c3c([H])c([H])c([H])c([H])c3C([H])([H])C([H])([H])C1([H])[H])C2([H])[H])C([H])([H])N([H])c1sc(N([H])C(=O)N2C([H])([H])C([H])([H])C([H])([H])C([H])(n3nc(-c4c([H])c([H])c(Oc5c([H])c([H])c(F)c([H])c5F)c([H])c4[H])c(C(=O)N([H])[H])c3N([H])[H])C2([H])[H])nc1C([H])([H])[H]

$$$$
48:0:0
     RDKit          3D

 91 99  0  0  1  0  0  0  0  0999 V2000
  -28.8410  -18.2860   20.3340 C   0  0  0  0  0  3  0  0  0  0  0  0
  -29.4880  -19.5950   20.3940 C   0  0  0  0  0  0  0  0  0  0  0  0
  -29.8330  -17.3120   20.5080 C   0  0  0  0  0  0  0  0  0  0  0  0
  -30.7900  -19.4090   20.6150 N   0  0  0  0  0  0  0  0  0  0  0  0
  -30.9960  -18.0450   20.6660 N   0  0  0  0  0  0  0  0  0  0  0  0
  -28.8500  -20.8890   20.1730 N   0  0  0  0  0  0  0  0  0  0  0  0
  -31.9150  -17.6390   20.8170 H   0  0  0  0  0  0  0  0  0  0  0  0
  -27.8770  -20.7970   19.8930 H   0  0  0  0  0  0  0  0  0  0  0  0
  -30.5310  -14.8170   20.3740 C   0  0  0  0  0  0  0  0  0  0  0  0
  -30.3840  -12.5350   19.3460 C   0  0  0  0  0  2  0  0  0  0  0  0
  -29.4330  -12.6010   18.1300 C   0  0  0  0  0  2  0  0  0  0  0  0
  -27.9650  -12.4120   18.5660 C   0  0  0  0  0  2  0  0  0  0  0  0
  -27.5910  -13.2870   19.7920 C   0  0  0  0  0  3  0  0  0  0  0  0
  -28.6560  -13.1890   20.9070 C   0  0  0  0  0  2  0  0  0  0  0  0
  -29.9440  -13.5700   20.3110 N   0  0  0  0  0  0  0  0  0  0  0  0
  -31.7220  -14.9500   20.0690 O   0  0  0  0  0  0  0  0  0  0  0  0
  -29.6800  -15.9070   20.5570 N   0  0  0  0  0  0  0  0  0  0  0  0
  -28.7290  -15.6110   20.7040 H   0  0  0  0  0  0  0  0  0  0  0  0
  -25.2050  -13.8700   20.5340 C   0  0  0  0  0  0  0  0  0  0  0  0
  -24.1440  -13.0920   20.9100 C   0  0  0  0  0  0  0  0  0  0  0  0
  -24.6110  -11.7420   20.8730 C   0  0  0  0  0  0  0  0  0  0  0  0
  -26.2500  -12.9930   20.2880 N   0  0  0  0  0  0  0  0  0  0  0  0
  -25.9000  -11.7080   20.5550 N   0  0  0  0  0  0  0  0  0  0  0  0
  -23.8890  -10.4770   21.0610 C   0  0  0  0  0  0  0  0  0  0  0  0
  -24.3310   -9.5030   21.9840 C   0  0  0  0  0  3  0  0  0  0  0  0
  -23.6080   -8.3040   22.1610 C   0  0  0  0  0  3  0  0  0  0  0  0
  -22.4290   -8.0700   21.4150 C   0  0  0  0  0  0  0  0  0  0  0  0
  -22.0050   -9.0330   20.4810 C   0  0  0  0  0  3  0  0  0  0  0  0
  -22.7290  -10.2240   20.3020 C   0  0  0  0  0  3  0  0  0  0  0  0
  -21.6770   -6.9230   21.5010 O   0  0  0  0  0  0  0  0  0  0  0  0
  -21.6410   -6.1700   22.6480 C   0  0  0  0  0  0  0  0  0  0  0  0
  -21.2260   -6.7140   23.8830 C   0  0  0  0  0  3  0  0  0  0  0  0
  -21.1380   -5.8880   25.0210 C   0  0  0  0  0  3  0  0  0  0  0  0
  -21.4550   -4.5200   24.9250 C   0  0  0  0  0  0  0  0  0  0  0  0
  -21.8640   -3.9760   23.6960 C   0  0  0  0  0  3  0  0  0  0  0  0
  -21.9540   -4.7990   22.5590 C   0  0  0  0  0  0  0  0  0  0  0  0
  -22.3280   -4.2660   21.3710 F   0  0  0  0  0  0  0  0  0  0  0  0
  -21.3630   -3.7250   26.0170 F   0  0  0  0  0  0  0  0  0  0  0  0
  -22.7470  -13.5660   21.1870 C   0  0  0  0  0  0  0  0  0  0  0  0
  -22.0220  -12.8630   22.0510 N   0  0  0  0  0  0  0  0  0  0  0  0
  -22.3060  -14.5930   20.6740 O   0  0  0  0  0  0  0  0  0  0  0  0
  -22.3910  -12.0330   22.4910 H   0  0  0  0  0  0  0  0  0  0  0  0
  -21.0830  -13.1620   22.2770 H   0  0  0  0  0  0  0  0  0  0  0  0
  -25.3610  -15.2410   20.3560 N   0  0  0  0  0  0  0  0  0  0  0  0
  -24.5770  -15.8790   20.4480 H   0  0  0  0  0  0  0  0  0  0  0  0
  -26.1770  -15.6780   19.9510 H   0  0  0  0  0  0  0  0  0  0  0  0
  -30.6960  -22.5380   20.7330 C   0  0  0  0  0  1  0  0  0  0  0  0
  -29.1800  -22.2880   20.7090 C   0  0  0  0  0  3  0  0  0  0  0  0
  -28.4640  -23.6040   20.0280 C   0  0  0  0  0  2  0  0  0  0  0  0
  -28.2740  -25.0090   20.8530 C   0  0  0  0  0  2  0  0  0  0  0  0
  -28.3680  -26.4070   20.2860 O   0  0  0  0  0  0  0  0  0  0  0  0
  -24.6090  -31.9130   23.2610 C   0  0  0  0  0  0  0  0  0  0  0  0
  -27.2550  -27.2790   20.2920 C   0  0  0  0  0  0  0  0  0  0  0  0
  -23.4290  -30.4990   21.6170 C   0  0  0  0  0  3  0  0  0  0  0  0
  -24.8980  -28.9230   20.2280 C   0  0  0  0  0  0  0  0  0  0  0  0
  -25.9740  -30.8050   21.4650 C   0  0  0  0  0  2  0  0  0  0  0  0
  -26.0630  -29.4140   20.8330 C   0  0  0  0  0  0  0  0  0  0  0  0
  -27.2480  -28.6070   20.8440 C   0  0  0  0  0  3  0  0  0  0  0  0
  -26.0650  -26.8470   19.6740 C   0  0  0  0  0  3  0  0  0  0  0  0
  -24.9040  -27.6490   19.6370 C   0  0  0  0  0  3  0  0  0  0  0  0
  -23.6640  -29.8080   20.2470 C   0  0  0  0  0  2  0  0  0  0  0  0
  -24.6900  -31.0930   22.1700 N   0  0  0  0  0  0  0  0  0  0  0  0
  -23.5180  -32.1940   23.7780 O   0  0  0  0  0  0  0  0  0  0  0  0
  -22.7500  -29.4950   22.5790 C   0  0  0  0  0  0  0  0  0  0  0  0
  -21.4230  -29.3260   22.4450 N   0  0  0  0  0  0  0  0  0  0  0  0
  -23.4170  -28.8690   23.4070 O   0  0  0  0  0  0  0  0  0  0  0  0
  -20.9430  -29.8830   21.7520 H   0  0  0  0  0  0  0  0  0  0  0  0
  -18.0320  -28.1600   22.9430 C   0  0  0  0  0  0  0  0  0  0  0  0
  -20.5930  -28.3960   23.2140 C   0  0  0  0  0  3  0  0  0  0  0  0
  -20.6810  -26.9630   22.6370 C   0  0  0  0  0  2  0  0  0  0  0  0
  -19.5780  -26.6520   21.6230 C   0  0  0  0  0  2  0  0  0  0  0  0
  -18.1970  -26.8100   22.2650 C   0  0  0  0  0  2  0  0  0  0  0  0
  -19.1580  -28.9110   23.3750 C   0  0  0  0  0  0  0  0  0  0  0  0
  -18.9500  -30.1750   23.9690 C   0  0  0  0  0  3  0  0  0  0  0  0
  -17.6500  -30.6880   24.1350 C   0  0  0  0  0  3  0  0  0  0  0  0
  -16.5390  -29.9330   23.7190 C   0  0  0  0  0  3  0  0  0  0  0  0
  -16.7310  -28.6720   23.1290 C   0  0  0  0  0  3  0  0  0  0  0  0
  -25.8810  -32.5540   23.8960 C   0  0  0  0  0  3  0  0  0  0  0  0
  -26.3760  -31.8000   25.1910 C   0  0  1  0  0  0  0  0  0  0  0  0
  -25.2660  -31.5790   26.2450 C   0  0  0  0  0  1  0  0  0  0  0  0
  -26.9620  -30.4160   24.8280 C   0  0  0  0  0  1  0  0  0  0  0  0
  -27.5160  -32.6020   25.8610 C   0  0  0  0  0  1  0  0  0  0  0  0
  -25.5670  -33.9560   24.2060 N   0  0  0  0  0  0  0  0  0  0  0  0
  -25.9090  -35.0020   23.4430 C   0  0  0  0  0  0  0  0  0  0  0  0
  -26.5930  -34.8890   22.4210 O   0  0  0  0  0  0  0  0  0  0  0  0
  -24.9630  -34.1190   24.9990 H   0  0  0  0  0  0  0  0  0  0  0  0
  -24.1900  -36.7970   23.0490 C   0  0  0  0  0  1  0  0  0  0  0  0
  -25.4200  -36.3970   23.8810 C   0  0  0  0  0  3  0  0  0  0  0  0
  -27.5430  -37.2870   24.7330 C   0  0  0  0  0  1  0  0  0  0  0  0
  -26.4550  -37.4480   23.7720 N   0  0  0  0  0  0  0  0  0  0  0  0
  -26.0480  -38.3700   23.9050 H   0  0  0  0  0  0  0  0  0  0  0  0
  1  2  1  0
  1  3  2  0
  2  4  2  0
  3 17  1  0
  3  5  1  0
  4  5  1  0
  5  7  1  0
  6  2  1  0
  6 48  1  0
  8  6  1  0
  9 17  1  0
 10 15  1  0
 11 12  1  0
 11 10  1  0
 13 12  1  0
 13 22  1  0
 13 14  1  0
 15  9  1  0
 15 14  1  0
 16  9  2  0
 17 18  1  0
 19 20  2  0
 20 39  1  0
 21 20  1  0
 21 24  1  0
 22 19  1  0
 22 23  1  0
 23 21  2  0
 24 25  1  0
 25 26  2  0
 27 30  1  0
 27 26  1  0
 28 27  2  0
 29 28  1  0
 29 24  2  0
 30 31  1  0
 31 32  1  0
 32 33  2  0
 34 33  1  0
 34 38  1  0
 35 34  2  0
 36 31  2  0
 36 35  1  0
 37 36  1  0
 39 40  1  0
 40 43  1  0
 40 42  1  0
 41 39  2  0
 44 45  1  0
 44 19  1  0
 46 44  1  0
 48 47  1  0
 49 48  1  0
 49 50  1  0
 51 53  1  0
 51 50  1  0
 52 63  2  0
 53 58  1  0
 54 62  1  0
 54 64  1  0
 55 61  1  0
 55 57  1  0
 56 62  1  0
 57 58  2  0
 57 56  1  0
 59 53  2  0
 60 59  1  0
 60 55  2  0
 61 54  1  0
 62 52  1  0
 64 66  2  0
 65 64  1  0
 67 65  1  0
 68 77  2  0
 68 73  1  0
 69 65  1  0
 69 73  1  0
 70 69  1  0
 71 72  1  0
 71 70  1  0
 72 68  1  0
 73 74  2  0
 74 75  1  0
 76 75  2  0
 77 76  1  0
 78 52  1  0
 78 83  1  0
 78 79  1  0
 79 82  1  1
 79 80  1  0
 81 79  1  0
 83 86  1  0
 84 88  1  0
 84 83  1  0
 85 84  2  0
 88 87  1  0
 90 88  1  0
 90 91  1  0
 90 89  1  0
M  ISO  4   9 100  17 100  50 101  51 101
M  END
>  <TORSDO>  (49) 
F 19

>  <SCORE>  (49) 
-14.332

>  <name>  (49) 
48

>  <ligand_id>  (49) 
48

>  <original_smiles>  (49) 
[H]c1c([H])c([H])c2c(c1[H])C([H])([H])C([H])([H])C([H])([H])C2([H])N([H])C(=O)C1([H])N(C(=O)C([H])(N([H])C(=O)C([H])(N([H])C([H])([H])[H])C([H])([H])[H])C(C([H])([H])[H])(C([H])([H])[H])C([H])([H])[H])C([H])([H])c2c([H])c(OC([H])([H])C([H])([H])C([H])(N([H])c3nn([H])c(N([H])C(=O)N4C([H])([H])C([H])([H])C([H])([H])C([H])(n5nc(-c6c([H])c([H])c(Oc7c([H])c([H])c(F)c([H])c7F)c([H])c6[H])c(C(=O)N([H])[H])c5N([H])[H])C4([H])[H])c3[H])C([H])([H])[H])c([H])c([H])c2C1([H])[H]

>  <smiles>  (49) 
[H]c1c([H])c([H])c2c(c1[H])C([H])([H])C([H])([H])C([H])([H])C2([H])N([H])C(=O)C1([H])N(C(=O)C([H])(N([H])C(=O)C([H])(N([H])C([H])([H])[H])C([H])([H])[H])C(C([H])([H])[H])(C([H])([H])[H])C([H])([H])[H])C([H])([H])c2c([H])c(OC([H])([H])C([H])([H])C([H])(N([H])c3nn([H])c(N([H])C(=O)N4C([H])([H])C([H])([H])C([H])([H])C([H])(n5nc(-c6c([H])c([H])c(Oc7c([H])c([H])c(F)c([H])c7F)c([H])c6[H])c(C(=O)N([H])[H])c5N([H])[H])C4([H])[H])c3[H])C([H])([H])[H])c([H])c([H])c2C1([H])[H]

$$$$
49:0:0
     RDKit          3D

 94102  0  0  1  0  0  0  0  0999 V2000
  -28.4370  -17.8890   20.6770 C   0  0  0  0  0  3  0  0  0  0  0  0
  -29.7130  -17.2470   20.5950 C   0  0  0  0  0  0  0  0  0  0  0  0
  -29.3000  -20.0680   20.5230 C   0  0  0  0  0  0  0  0  0  0  0  0
  -30.5900  -19.4440   20.4290 C   0  0  0  0  0  0  0  0  0  0  0  0
  -28.2250  -19.2480   20.6290 N   0  0  0  0  0  0  0  0  0  0  0  0
  -30.7950  -18.0810   20.4520 N   0  0  0  0  0  0  0  0  0  0  0  0
  -31.7260  -20.2360   20.3420 N   0  0  0  0  0  0  0  0  0  0  0  0
  -29.0980  -21.4950   20.6800 N   0  0  0  0  0  0  0  0  0  0  0  0
  -31.5670  -21.1520   19.9380 H   0  0  0  0  0  0  0  0  0  0  0  0
  -32.5640  -19.7880   19.9960 H   0  0  0  0  0  0  0  0  0  0  0  0
  -29.8830  -21.8070   21.2480 H   0  0  0  0  0  0  0  0  0  0  0  0
  -30.5520  -14.7390   20.3610 C   0  0  0  0  0  0  0  0  0  0  0  0
  -30.3890  -12.4870   19.2880 C   0  0  0  0  0  2  0  0  0  0  0  0
  -29.4420  -12.5950   18.0690 C   0  0  0  0  0  2  0  0  0  0  0  0
  -27.9730  -12.4160   18.5000 C   0  0  0  0  0  2  0  0  0  0  0  0
  -27.6050  -13.2830   19.7320 C   0  0  0  0  0  3  0  0  0  0  0  0
  -28.6590  -13.1250   20.8520 C   0  0  0  0  0  2  0  0  0  0  0  0
  -29.9640  -13.4970   20.2810 N   0  0  0  0  0  0  0  0  0  0  0  0
  -31.7170  -14.9040   19.9810 O   0  0  0  0  0  0  0  0  0  0  0  0
  -29.7070  -15.7730   20.7150 N   0  0  0  0  0  0  0  0  0  0  0  0
  -28.8150  -15.4140   21.0130 H   0  0  0  0  0  0  0  0  0  0  0  0
  -25.2140  -13.8930   20.4390 C   0  0  0  0  0  0  0  0  0  0  0  0
  -24.1460  -13.1250   20.8170 C   0  0  0  0  0  0  0  0  0  0  0  0
  -24.6060  -11.7730   20.7950 C   0  0  0  0  0  0  0  0  0  0  0  0
  -26.2550  -13.0070   20.2120 N   0  0  0  0  0  0  0  0  0  0  0  0
  -25.8980  -11.7290   20.4910 N   0  0  0  0  0  0  0  0  0  0  0  0
  -23.8800  -10.5120   20.9920 C   0  0  0  0  0  0  0  0  0  0  0  0
  -24.3040   -9.5520   21.9380 C   0  0  0  0  0  3  0  0  0  0  0  0
  -23.5770   -8.3570   22.1200 C   0  0  0  0  0  3  0  0  0  0  0  0
  -22.4100   -8.1130   21.3590 C   0  0  0  0  0  0  0  0  0  0  0  0
  -22.0040   -9.0620   20.4030 C   0  0  0  0  0  3  0  0  0  0  0  0
  -22.7330  -10.2490   20.2180 C   0  0  0  0  0  3  0  0  0  0  0  0
  -21.6530   -6.9690   21.4510 O   0  0  0  0  0  0  0  0  0  0  0  0
  -21.5920   -6.2410   22.6120 C   0  0  0  0  0  0  0  0  0  0  0  0
  -21.1400   -6.8080   23.8240 C   0  0  0  0  0  3  0  0  0  0  0  0
  -21.0250   -6.0050   24.9760 C   0  0  0  0  0  3  0  0  0  0  0  0
  -21.3500   -4.6360   24.9170 C   0  0  0  0  0  0  0  0  0  0  0  0
  -21.7950   -4.0700   23.7090 C   0  0  0  0  0  3  0  0  0  0  0  0
  -21.9120   -4.8690   22.5600 C   0  0  0  0  0  0  0  0  0  0  0  0
  -22.3210   -4.3140   21.3930 F   0  0  0  0  0  0  0  0  0  0  0  0
  -21.2330   -3.8630   26.0210 F   0  0  0  0  0  0  0  0  0  0  0  0
  -22.7490  -13.6050   21.0810 C   0  0  0  0  0  0  0  0  0  0  0  0
  -22.0170  -12.9150   21.9480 N   0  0  0  0  0  0  0  0  0  0  0  0
  -22.3160  -14.6290   20.5540 O   0  0  0  0  0  0  0  0  0  0  0  0
  -22.3810  -12.0880   22.3950 H   0  0  0  0  0  0  0  0  0  0  0  0
  -21.0790  -13.2180   22.1660 H   0  0  0  0  0  0  0  0  0  0  0  0
  -25.3820  -15.2590   20.2400 N   0  0  0  0  0  0  0  0  0  0  0  0
  -24.5950  -15.8970   20.2900 H   0  0  0  0  0  0  0  0  0  0  0  0
  -26.1760  -15.6540   19.7550 H   0  0  0  0  0  0  0  0  0  0  0  0
  -28.4220  -21.7760   18.2930 C   0  0  0  0  0  1  0  0  0  0  0  0
  -28.9580  -22.4890   19.5540 C   0  0  0  0  0  3  0  0  0  0  0  0
  -28.0940  -23.8580   19.7610 C   0  0  0  0  0  2  0  0  0  0  0  0
  -28.5220  -25.1260   20.6420 C   0  0  0  0  0  2  0  0  0  0  0  0
  -28.4310  -26.5370   20.1630 O   0  0  0  0  0  0  0  0  0  0  0  0
  -24.6010  -31.8860   23.2490 C   0  0  0  0  0  0  0  0  0  0  0  0
  -27.2650  -27.3170   20.2280 C   0  0  0  0  0  0  0  0  0  0  0  0
  -23.4160  -30.4720   21.6060 C   0  0  0  0  0  3  0  0  0  0  0  0
  -24.8830  -28.9110   20.2000 C   0  0  0  0  0  0  0  0  0  0  0  0
  -25.9530  -30.7990   21.4380 C   0  0  0  0  0  2  0  0  0  0  0  0
  -26.0440  -29.4130   20.8030 C   0  0  0  0  0  0  0  0  0  0  0  0
  -27.2360  -28.6300   20.8010 C   0  0  0  0  0  3  0  0  0  0  0  0
  -26.0820  -26.8580   19.6180 C   0  0  0  0  0  3  0  0  0  0  0  0
  -24.9050  -27.6380   19.6010 C   0  0  0  0  0  3  0  0  0  0  0  0
  -23.6410  -29.7830   20.2320 C   0  0  0  0  0  2  0  0  0  0  0  0
  -24.6760  -31.0710   22.1550 N   0  0  0  0  0  0  0  0  0  0  0  0
  -23.5140  -32.1670   23.7750 O   0  0  0  0  0  0  0  0  0  0  0  0
  -22.7510  -29.4600   22.5660 C   0  0  0  0  0  0  0  0  0  0  0  0
  -21.4270  -29.2830   22.4350 N   0  0  0  0  0  0  0  0  0  0  0  0
  -23.4270  -28.8330   23.3880 O   0  0  0  0  0  0  0  0  0  0  0  0
  -20.9420  -29.8430   21.7490 H   0  0  0  0  0  0  0  0  0  0  0  0
  -18.0460  -28.0990   22.9350 C   0  0  0  0  0  0  0  0  0  0  0  0
  -20.6050  -28.3430   23.2020 C   0  0  0  0  0  3  0  0  0  0  0  0
  -20.6980  -26.9150   22.6160 C   0  0  0  0  0  2  0  0  0  0  0  0
  -19.5920  -26.6050   21.6010 C   0  0  0  0  0  2  0  0  0  0  0  0
  -18.2120  -26.7530   22.2520 C   0  0  0  0  0  2  0  0  0  0  0  0
  -19.1710  -28.8530   23.3650 C   0  0  0  0  0  0  0  0  0  0  0  0
  -18.9610  -30.1120   23.9690 C   0  0  0  0  0  3  0  0  0  0  0  0
  -17.6610  -30.6210   24.1430 C   0  0  0  0  0  3  0  0  0  0  0  0
  -16.5510  -29.8620   23.7320 C   0  0  0  0  0  3  0  0  0  0  0  0
  -16.7440  -28.6050   23.1330 C   0  0  0  0  0  3  0  0  0  0  0  0
  -25.8780  -32.5260   23.8770 C   0  0  0  0  0  3  0  0  0  0  0  0
  -26.3840  -31.7680   25.1670 C   0  0  1  0  0  0  0  0  0  0  0  0
  -25.2800  -31.5370   26.2250 C   0  0  0  0  0  1  0  0  0  0  0  0
  -26.9770  -30.3900   24.7910 C   0  0  0  0  0  1  0  0  0  0  0  0
  -27.5270  -32.5690   25.8320 C   0  0  0  0  0  1  0  0  0  0  0  0
  -25.5640  -33.9260   24.1970 N   0  0  0  0  0  0  0  0  0  0  0  0
  -25.8990  -34.9750   23.4320 C   0  0  0  0  0  0  0  0  0  0  0  0
  -26.5730  -34.8660   22.4060 O   0  0  0  0  0  0  0  0  0  0  0  0
  -24.9710  -34.0840   24.9970 H   0  0  0  0  0  0  0  0  0  0  0  0
  -24.1730  -36.7660   23.0500 C   0  0  0  0  0  1  0  0  0  0  0  0
  -25.4050  -36.3660   23.8790 C   0  0  0  0  0  3  0  0  0  0  0  0
  -27.5290  -37.2600   24.7280 C   0  0  0  0  0  1  0  0  0  0  0  0
  -26.4390  -37.4190   23.7700 N   0  0  0  0  0  0  0  0  0  0  0  0
  -26.0300  -38.3410   23.9050 H   0  0  0  0  0  0  0  0  0  0  0  0
  2  1  2  0
  2 20  1  0
  3  5  2  0
  3  8  1  0
  4  6  2  0
  4  3  1  0
  5  1  1  0
  6  2  1  0
  7  4  1  0
  8 11  1  0
  9  7  1  0
 10  7  1  0
 12 20  1  0
 13 18  1  0
 14 15  1  0
 14 13  1  0
 16 15  1  0
 16 25  1  0
 16 17  1  0
 18 12  1  0
 18 17  1  0
 19 12  2  0
 20 21  1  0
 22 23  2  0
 23 42  1  0
 24 23  1  0
 24 27  1  0
 25 22  1  0
 25 26  1  0
 26 24  2  0
 27 28  1  0
 28 29  2  0
 30 33  1  0
 30 29  1  0
 31 30  2  0
 32 31  1  0
 32 27  2  0
 33 34  1  0
 34 35  1  0
 35 36  2  0
 37 36  1  0
 37 41  1  0
 38 37  2  0
 39 34  2  0
 39 38  1  0
 40 39  1  0
 42 43  1  0
 43 46  1  0
 43 45  1  0
 44 42  2  0
 47 48  1  0
 47 22  1  0
 49 47  1  0
 51 50  1  0
 51 52  1  0
 51  8  1  0
 52 53  1  0
 54 56  1  0
 54 53  1  0
 55 66  2  0
 56 61  1  0
 57 65  1  0
 57 67  1  0
 58 64  1  0
 58 60  1  0
 59 65  1  0
 60 59  1  0
 61 60  2  0
 62 56  2  0
 63 62  1  0
 63 58  2  0
 64 57  1  0
 65 55  1  0
 67 69  2  0
 68 67  1  0
 70 68  1  0
 71 80  2  0
 71 76  1  0
 72 68  1  0
 72 76  1  0
 73 72  1  0
 74 75  1  0
 74 73  1  0
 75 71  1  0
 76 77  2  0
 77 78  1  0
 79 78  2  0
 80 79  1  0
 81 55  1  0
 81 86  1  0
 81 82  1  0
 82 85  1  1
 82 83  1  0
 84 82  1  0
 86 89  1  0
 87 91  1  0
 87 86  1  0
 88 87  2  0
 91 90  1  0
 93 91  1  0
 93 94  1  0
 93 92  1  0
M  ISO  4  12 100  20 100  53 101  54 101
M  END
>  <TORSDO>  (50) 
F 19

>  <SCORE>  (50) 
-14.324

>  <name>  (50) 
49

>  <ligand_id>  (50) 
49

>  <original_smiles>  (50) 
[H]c1nc(N([H])C([H])(C([H])([H])[H])C([H])([H])C([H])([H])Oc2c([H])c([H])c3c(c2[H])C([H])([H])N(C(=O)C([H])(N([H])C(=O)C([H])(N([H])C([H])([H])[H])C([H])([H])[H])C(C([H])([H])[H])(C([H])([H])[H])C([H])([H])[H])C([H])(C(=O)N([H])C2([H])c4c([H])c([H])c([H])c([H])c4C([H])([H])C([H])([H])C2([H])[H])C3([H])[H])c(N([H])[H])nc1N([H])C(=O)N1C([H])([H])C([H])([H])C([H])([H])C([H])(n2nc(-c3c([H])c([H])c(Oc4c([H])c([H])c(F)c([H])c4F)c([H])c3[H])c(C(=O)N([H])[H])c2N([H])[H])C1([H])[H]

>  <smiles>  (50) 
[H]c1nc(N([H])C([H])(C([H])([H])[H])C([H])([H])C([H])([H])Oc2c([H])c([H])c3c(c2[H])C([H])([H])N(C(=O)C([H])(N([H])C(=O)C([H])(N([H])C([H])([H])[H])C([H])([H])[H])C(C([H])([H])[H])(C([H])([H])[H])C([H])([H])[H])C([H])(C(=O)N([H])C2([H])c4c([H])c([H])c([H])c([H])c4C([H])([H])C([H])([H])C2([H])[H])C3([H])[H])c(N([H])[H])nc1N([H])C(=O)N1C([H])([H])C([H])([H])C([H])([H])C([H])(n2nc(-c3c([H])c([H])c(Oc4c([H])c([H])c(F)c([H])c4F)c([H])c3[H])c(C(=O)N([H])[H])c2N([H])[H])C1([H])[H]

$$$$
50:0:0
     RDKit          3D

 96104  0  0  1  0  0  0  0  0999 V2000
  -29.3210  -19.3560   20.4540 C   0  0  0  0  0  3  0  0  0  0  0  0
  -30.0780  -18.1540   20.3010 C   0  0  0  0  0  0  0  0  0  0  0  0
  -29.5170  -20.3770   19.4940 C   0  0  0  0  0  0  0  0  0  0  0  0
  -31.0770  -19.0570   18.4600 C   0  0  0  0  0  0  0  0  0  0  0  0
  -32.9760  -17.8620   17.3460 C   0  0  0  0  0  1  0  0  0  0  0  0
  -30.9490  -18.0310   19.2840 N   0  0  0  0  0  0  0  0  0  0  0  0
  -30.4050  -20.1990   18.5030 N   0  0  0  0  0  0  0  0  0  0  0  0
  -28.7750  -21.5770   19.3790 N   0  0  0  0  0  0  0  0  0  0  0  0
  -32.0150  -18.9540   17.4610 N   0  0  0  0  0  0  0  0  0  0  0  0
  -28.9850  -22.0220   18.4900 H   0  0  0  0  0  0  0  0  0  0  0  0
  -32.1520  -19.7780   16.8900 H   0  0  0  0  0  0  0  0  0  0  0  0
  -30.0790  -16.9870   21.3140 C   0  0  0  0  0  2  0  0  0  0  0  0
  -30.5880  -14.6020   20.4470 C   0  0  0  0  0  0  0  0  0  0  0  0
  -30.3780  -12.4060   19.3040 C   0  0  0  0  0  2  0  0  0  0  0  0
  -29.4130  -12.5510   18.1070 C   0  0  0  0  0  2  0  0  0  0  0  0
  -27.9420  -12.3940   18.5490 C   0  0  0  0  0  2  0  0  0  0  0  0
  -27.6010  -13.2400   19.8040 C   0  0  0  0  0  3  0  0  0  0  0  0
  -28.6660  -13.0390   20.9020 C   0  0  0  0  0  2  0  0  0  0  0  0
  -29.9690  -13.3920   20.3170 N   0  0  0  0  0  0  0  0  0  0  0  0
  -31.7590  -14.7810   20.1020 O   0  0  0  0  0  0  0  0  0  0  0  0
  -29.7750  -15.6130   20.8410 N   0  0  0  0  0  0  0  0  0  0  0  0
  -28.8140  -15.3420   20.9680 H   0  0  0  0  0  0  0  0  0  0  0  0
  -25.2100  -13.8510   20.5290 C   0  0  0  0  0  0  0  0  0  0  0  0
  -24.1420  -13.0800   20.9030 C   0  0  0  0  0  0  0  0  0  0  0  0
  -24.6040  -11.7280   20.8720 C   0  0  0  0  0  0  0  0  0  0  0  0
  -26.2520  -12.9680   20.2930 N   0  0  0  0  0  0  0  0  0  0  0  0
  -25.8930  -11.6870   20.5600 N   0  0  0  0  0  0  0  0  0  0  0  0
  -23.8760  -10.4660   21.0640 C   0  0  0  0  0  0  0  0  0  0  0  0
  -24.3210   -9.4940   21.9850 C   0  0  0  0  0  3  0  0  0  0  0  0
  -23.5950   -8.2960   22.1650 C   0  0  0  0  0  3  0  0  0  0  0  0
  -22.4120   -8.0650   21.4250 C   0  0  0  0  0  0  0  0  0  0  0  0
  -21.9880   -9.0270   20.4910 C   0  0  0  0  0  3  0  0  0  0  0  0
  -22.7140  -10.2170   20.3100 C   0  0  0  0  0  3  0  0  0  0  0  0
  -21.6570   -6.9210   21.5170 O   0  0  0  0  0  0  0  0  0  0  0  0
  -21.6340   -6.1650   22.6610 C   0  0  0  0  0  0  0  0  0  0  0  0
  -21.2470   -6.7070   23.9050 C   0  0  0  0  0  3  0  0  0  0  0  0
  -21.1680   -5.8750   25.0400 C   0  0  0  0  0  3  0  0  0  0  0  0
  -21.4680   -4.5050   24.9340 C   0  0  0  0  0  0  0  0  0  0  0  0
  -21.8490   -3.9630   23.6940 C   0  0  0  0  0  3  0  0  0  0  0  0
  -21.9290   -4.7900   22.5600 C   0  0  0  0  0  0  0  0  0  0  0  0
  -22.2740   -4.2570   21.3640 F   0  0  0  0  0  0  0  0  0  0  0  0
  -21.3860   -3.7050   26.0230 F   0  0  0  0  0  0  0  0  0  0  0  0
  -22.7460  -13.5580   21.1770 C   0  0  0  0  0  0  0  0  0  0  0  0
  -22.0210  -12.8610   22.0460 N   0  0  0  0  0  0  0  0  0  0  0  0
  -22.3070  -14.5830   20.6550 O   0  0  0  0  0  0  0  0  0  0  0  0
  -22.3880  -12.0300   22.4860 H   0  0  0  0  0  0  0  0  0  0  0  0
  -21.0840  -13.1630   22.2720 H   0  0  0  0  0  0  0  0  0  0  0  0
  -25.3740  -15.2210   20.3430 N   0  0  0  0  0  0  0  0  0  0  0  0
  -24.5990  -15.8690   20.4290 H   0  0  0  0  0  0  0  0  0  0  0  0
  -26.2030  -15.6550   19.9550 H   0  0  0  0  0  0  0  0  0  0  0  0
  -28.7060  -22.6370   20.4100 C   0  0  0  0  0  2  0  0  0  0  0  0
  -28.5540  -24.0750   19.7630 C   0  0  0  0  0  3  0  0  0  0  0  0
  -29.7440  -24.2590   19.0070 O   0  0  0  0  0  0  0  0  0  0  0  0
  -30.4550  -24.4000   19.6260 H   0  0  0  0  0  0  0  0  0  0  0  0
  -28.4080  -25.2920   20.7570 C   0  0  0  0  0  2  0  0  0  0  0  0
  -28.4220  -26.6350   20.1810 O   0  0  0  0  0  0  0  0  0  0  0  0
  -24.6100  -31.8920   23.2500 C   0  0  0  0  0  0  0  0  0  0  0  0
  -27.2580  -27.3910   20.2040 C   0  0  0  0  0  0  0  0  0  0  0  0
  -23.4100  -30.4880   21.6070 C   0  0  0  0  0  3  0  0  0  0  0  0
  -24.8690  -28.9330   20.1930 C   0  0  0  0  0  0  0  0  0  0  0  0
  -25.9380  -30.8340   21.4170 C   0  0  0  0  0  2  0  0  0  0  0  0
  -26.0280  -29.4550   20.7810 C   0  0  0  0  0  0  0  0  0  0  0  0
  -27.2260  -28.6950   20.7730 C   0  0  0  0  0  3  0  0  0  0  0  0
  -26.0790  -26.8950   19.6110 C   0  0  0  0  0  3  0  0  0  0  0  0
  -24.8930  -27.6560   19.6040 C   0  0  0  0  0  3  0  0  0  0  0  0
  -23.6250  -29.8000   20.2330 C   0  0  0  0  0  2  0  0  0  0  0  0
  -24.6720  -31.0870   22.1500 N   0  0  0  0  0  0  0  0  0  0  0  0
  -23.5270  -32.1660   23.7870 O   0  0  0  0  0  0  0  0  0  0  0  0
  -22.7500  -29.4730   22.5700 C   0  0  0  0  0  0  0  0  0  0  0  0
  -21.4240  -29.2970   22.4430 N   0  0  0  0  0  0  0  0  0  0  0  0
  -23.4300  -28.8460   23.3870 O   0  0  0  0  0  0  0  0  0  0  0  0
  -20.9370  -29.8500   21.7520 H   0  0  0  0  0  0  0  0  0  0  0  0
  -18.0440  -28.1210   22.9490 C   0  0  0  0  0  0  0  0  0  0  0  0
  -20.6040  -28.3610   23.2140 C   0  0  0  0  0  3  0  0  0  0  0  0
  -20.6970  -26.9320   22.6340 C   0  0  0  0  0  2  0  0  0  0  0  0
  -19.5890  -26.6190   21.6230 C   0  0  0  0  0  2  0  0  0  0  0  0
  -18.2090  -26.7710   22.2700 C   0  0  0  0  0  2  0  0  0  0  0  0
  -19.1690  -28.8730   23.3790 C   0  0  0  0  0  0  0  0  0  0  0  0
  -18.9620  -30.1360   23.9750 C   0  0  0  0  0  3  0  0  0  0  0  0
  -17.6620  -30.6480   24.1440 C   0  0  0  0  0  3  0  0  0  0  0  0
  -16.5520  -29.8910   23.7350 C   0  0  0  0  0  3  0  0  0  0  0  0
  -16.7420  -28.6290   23.1430 C   0  0  0  0  0  3  0  0  0  0  0  0
  -25.8920  -32.5240   23.8730 C   0  0  0  0  0  3  0  0  0  0  0  0
  -25.5830  -33.9230   24.2000 N   0  0  0  0  0  0  0  0  0  0  0  0
  -25.9200  -34.9740   23.4390 C   0  0  0  0  0  0  0  0  0  0  0  0
  -26.5920  -34.8680   22.4090 O   0  0  0  0  0  0  0  0  0  0  0  0
  -24.9910  -34.0840   25.0020 H   0  0  0  0  0  0  0  0  0  0  0  0
  -24.1900  -36.7640   23.0790 C   0  0  0  0  0  1  0  0  0  0  0  0
  -25.4290  -36.3610   23.8930 C   0  0  0  0  0  3  0  0  0  0  0  0
  -27.5610  -37.2490   24.7250 C   0  0  0  0  0  1  0  0  0  0  0  0
  -26.4590  -37.4160   23.7810 N   0  0  0  0  0  0  0  0  0  0  0  0
  -26.0510  -38.3330   23.9300 H   0  0  0  0  0  0  0  0  0  0  0  0
  -26.4120  -31.7510   25.1470 C   0  0  1  0  0  0  0  0  0  0  0  0
  -25.3190  -31.5110   26.2130 C   0  0  0  0  0  1  0  0  0  0  0  0
  -26.9960  -30.3750   24.7530 C   0  0  0  0  0  1  0  0  0  0  0  0
  -27.5650  -32.5440   25.8070 C   0  0  0  0  0  1  0  0  0  0  0  0
  2  1  2  0
  2 12  1  0
  3  1  1  0
  4  7  1  0
  4  6  2  0
  5  9  1  0
  6  2  1  0
  7  3  2  0
  8  3  1  0
  8 51  1  0
  9  4  1  0
 10  8  1  0
 11  9  1  0
 13 21  1  0
 14 19  1  0
 15 16  1  0
 15 14  1  0
 17 16  1  0
 17 26  1  0
 17 18  1  0
 19 13  1  0
 19 18  1  0
 20 13  2  0
 21 22  1  0
 21 12  1  0
 23 24  2  0
 24 43  1  0
 25 24  1  0
 25 28  1  0
 26 23  1  0
 26 27  1  0
 27 25  2  0
 28 29  1  0
 29 30  2  0
 31 34  1  0
 31 30  1  0
 32 31  2  0
 33 32  1  0
 33 28  2  0
 34 35  1  0
 35 36  1  0
 36 37  2  0
 38 37  1  0
 38 42  1  0
 39 38  2  0
 40 35  2  0
 40 39  1  0
 41 40  1  0
 43 44  1  0
 44 47  1  0
 44 46  1  0
 45 43  2  0
 48 49  1  0
 48 23  1  0
 50 48  1  0
 52 51  1  0
 52 55  1  0
 53 54  1  0
 53 52  1  0
 56 58  1  0
 56 55  1  0
 57 68  2  0
 58 63  1  0
 59 67  1  0
 59 69  1  0
 60 66  1  0
 60 62  1  0
 61 67  1  0
 62 61  1  0
 63 62  2  0
 64 58  2  0
 65 64  1  0
 65 60  2  0
 66 59  1  0
 67 57  1  0
 69 71  2  0
 70 69  1  0
 72 70  1  0
 73 82  2  0
 73 78  1  0
 74 70  1  0
 74 78  1  0
 75 74  1  0
 76 77  1  0
 76 75  1  0
 77 73  1  0
 78 79  2  0
 79 80  1  0
 81 80  2  0
 82 81  1  0
 83 57  1  0
 83 84  1  0
 83 93  1  0
 84 87  1  0
 85 89  1  0
 85 84  1  0
 86 85  2  0
 89 88  1  0
 91 89  1  0
 91 92  1  0
 91 90  1  0
 93 96  1  1
 93 94  1  0
 95 93  1  0
M  ISO  4  13 100  21 100  55 101  56 101
M  END
>  <TORSDO>  (51) 
F 21

>  <SCORE>  (51) 
-13.831

>  <name>  (51) 
50

>  <ligand_id>  (51) 
50

>  <original_smiles>  (51) 
[H]OC([H])(C([H])([H])Oc1c([H])c([H])c2c(c1[H])C([H])([H])N(C(=O)C([H])(N([H])C(=O)C([H])(N([H])C([H])([H])[H])C([H])([H])[H])C(C([H])([H])[H])(C([H])([H])[H])C([H])([H])[H])C([H])(C(=O)N([H])C1([H])c3c([H])c([H])c([H])c([H])c3C([H])([H])C([H])([H])C1([H])[H])C2([H])[H])C([H])([H])N([H])c1nc(N([H])C([H])([H])[H])nc(C([H])([H])N([H])C(=O)N2C([H])([H])C([H])([H])C([H])([H])C([H])(n3nc(-c4c([H])c([H])c(Oc5c([H])c([H])c(F)c([H])c5F)c([H])c4[H])c(C(=O)N([H])[H])c3N([H])[H])C2([H])[H])c1[H]

>  <smiles>  (51) 
[H]OC([H])(C([H])([H])Oc1c([H])c([H])c2c(c1[H])C([H])([H])N(C(=O)C([H])(N([H])C(=O)C([H])(N([H])C([H])([H])[H])C([H])([H])[H])C(C([H])([H])[H])(C([H])([H])[H])C([H])([H])[H])C([H])(C(=O)N([H])C1([H])c3c([H])c([H])c([H])c([H])c3C([H])([H])C([H])([H])C1([H])[H])C2([H])[H])C([H])([H])N([H])c1nc(N([H])C([H])([H])[H])nc(C([H])([H])N([H])C(=O)N2C([H])([H])C([H])([H])C([H])([H])C([H])(n3nc(-c4c([H])c([H])c(Oc5c([H])c([H])c(F)c([H])c5F)c([H])c4[H])c(C(=O)N([H])[H])c3N([H])[H])C2([H])[H])c1[H]

$$$$
51:0:0
     RDKit          3D

101109  0  0  1  0  0  0  0  0999 V2000
  -28.9220  -22.0520   20.4110 N   0  0  0  0  0  4  0  0  0  0  0  0
  -29.3740  -22.0220   21.3100 H   0  0  0  0  0  0  0  0  0  0  0  0
  -28.0240  -21.6090   20.5280 H   0  0  0  0  0  0  0  0  0  0  0  0
  -29.7310  -21.2030   19.4860 C   0  0  0  0  0  2  0  0  0  0  0  0
  -28.8750  -17.7990   20.8010 C   0  0  0  0  0  3  0  0  0  0  0  0
  -29.7910  -19.6900   19.8050 C   0  0  0  0  0  0  0  0  0  0  0  0
  -29.8950  -16.9560   20.2740 C   0  0  0  0  0  0  0  0  0  0  0  0
  -30.8280  -18.8600   19.2870 C   0  0  0  0  0  0  0  0  0  0  0  0
  -28.8140  -19.1450   20.5770 N   0  0  0  0  0  0  0  0  0  0  0  0
  -30.8750  -17.5270   19.5200 N   0  0  0  0  0  0  0  0  0  0  0  0
  -31.8640  -19.3350   18.4900 N   0  0  0  0  0  0  0  0  0  0  0  0
  -32.0080  -20.3150   18.2820 H   0  0  0  0  0  0  0  0  0  0  0  0
  -32.6060  -18.7170   18.1830 H   0  0  0  0  0  0  0  0  0  0  0  0
  -30.5460  -14.5240   20.0590 C   0  0  0  0  0  0  0  0  0  0  0  0
  -30.3000  -12.2900   19.0340 C   0  0  0  0  0  2  0  0  0  0  0  0
  -29.3030  -12.4050   17.8600 C   0  0  0  0  0  2  0  0  0  0  0  0
  -27.8540  -12.2310   18.3540 C   0  0  0  0  0  2  0  0  0  0  0  0
  -27.5360  -13.1060   19.5980 C   0  0  0  0  0  3  0  0  0  0  0  0
  -28.6440  -12.9750   20.6680 C   0  0  0  0  0  2  0  0  0  0  0  0
  -29.9290  -13.3070   20.0330 N   0  0  0  0  0  0  0  0  0  0  0  0
  -31.6640  -14.6940   19.5630 O   0  0  0  0  0  0  0  0  0  0  0  0
  -29.7970  -15.5450   20.5420 N   0  0  0  0  0  0  0  0  0  0  0  0
  -28.9510  -15.2550   21.0080 H   0  0  0  0  0  0  0  0  0  0  0  0
  -25.1740  -13.6690   20.4450 C   0  0  0  0  0  0  0  0  0  0  0  0
  -24.1370  -12.8770   20.8600 C   0  0  0  0  0  0  0  0  0  0  0  0
  -24.6130  -11.5320   20.7810 C   0  0  0  0  0  0  0  0  0  0  0  0
  -26.2150  -12.8050   20.1430 N   0  0  0  0  0  0  0  0  0  0  0  0
  -25.8840  -11.5140   20.4020 N   0  0  0  0  0  0  0  0  0  0  0  0
  -23.9130  -10.2570   20.9890 C   0  0  0  0  0  0  0  0  0  0  0  0
  -24.3640   -9.3150   21.9390 C   0  0  0  0  0  3  0  0  0  0  0  0
  -23.6640   -8.1040   22.1330 C   0  0  0  0  0  3  0  0  0  0  0  0
  -22.5000   -7.8280   21.3780 C   0  0  0  0  0  0  0  0  0  0  0  0
  -22.0680   -8.7600   20.4180 C   0  0  0  0  0  3  0  0  0  0  0  0
  -22.7690   -9.9620   20.2210 C   0  0  0  0  0  3  0  0  0  0  0  0
  -21.7710   -6.6680   21.4810 O   0  0  0  0  0  0  0  0  0  0  0  0
  -21.6770   -5.9790   22.6640 C   0  0  0  0  0  0  0  0  0  0  0  0
  -21.1460   -6.5710   23.8300 C   0  0  0  0  0  3  0  0  0  0  0  0
  -21.0050   -5.8050   25.0060 C   0  0  0  0  0  3  0  0  0  0  0  0
  -21.3830   -4.4490   25.0140 C   0  0  0  0  0  0  0  0  0  0  0  0
  -21.9070   -3.8570   23.8510 C   0  0  0  0  0  3  0  0  0  0  0  0
  -22.0510   -4.6200   22.6780 C   0  0  0  0  0  0  0  0  0  0  0  0
  -22.5360   -4.0390   21.5540 F   0  0  0  0  0  0  0  0  0  0  0  0
  -21.2400   -3.7120   26.1390 F   0  0  0  0  0  0  0  0  0  0  0  0
  -22.7510  -13.3320   21.2150 C   0  0  0  0  0  0  0  0  0  0  0  0
  -22.0830  -12.6180   22.1140 N   0  0  0  0  0  0  0  0  0  0  0  0
  -22.2690  -14.3550   20.7290 O   0  0  0  0  0  0  0  0  0  0  0  0
  -22.4860  -11.7910   22.5290 H   0  0  0  0  0  0  0  0  0  0  0  0
  -21.1550  -12.9040   22.3930 H   0  0  0  0  0  0  0  0  0  0  0  0
  -25.3120  -15.0440   20.2810 N   0  0  0  0  0  0  0  0  0  0  0  0
  -24.5350  -15.6800   20.4280 H   0  0  0  0  0  0  0  0  0  0  0  0
  -26.1180  -15.4940   19.8680 H   0  0  0  0  0  0  0  0  0  0  0  0
  -28.6660  -23.4910   20.0370 C   0  0  0  0  0  3  0  0  0  0  0  0
  -29.8160  -24.1330   19.2140 C   0  0  0  0  0  2  0  0  0  0  0  0
  -31.2550  -24.9390   21.1850 C   0  0  0  0  0  1  0  0  0  0  0  0
  -32.2830  -24.6390   18.9040 C   0  0  0  0  0  1  0  0  0  0  0  0
  -31.2150  -24.1210   19.8810 C   0  0  0  0  0  3  0  0  0  0  0  0
  -27.2540  -23.6650   19.3860 C   0  0  0  0  0  3  0  0  0  0  0  0
  -26.2670  -23.3180   20.3440 O   0  0  0  0  0  0  0  0  0  0  0  0
  -26.1720  -24.0540   20.9420 H   0  0  0  0  0  0  0  0  0  0  0  0
  -26.8640  -25.0110   18.6710 C   0  0  0  0  0  2  0  0  0  0  0  0
  -27.0350  -26.2640   19.3680 O   0  0  0  0  0  0  0  0  0  0  0  0
  -24.3640  -31.7100   23.1240 C   0  0  0  0  0  0  0  0  0  0  0  0
  -25.9650  -27.1350   19.5200 C   0  0  0  0  0  0  0  0  0  0  0  0
  -22.7710  -30.5480   21.6290 C   0  0  0  0  0  3  0  0  0  0  0  0
  -23.8040  -28.9300   19.9460 C   0  0  0  0  0  0  0  0  0  0  0  0
  -25.2700  -30.6090   21.0760 C   0  0  0  0  0  2  0  0  0  0  0  0
  -25.0900  -29.2720   20.3820 C   0  0  0  0  0  0  0  0  0  0  0  0
  -26.1690  -28.3770   20.1760 C   0  0  0  0  0  3  0  0  0  0  0  0
  -24.6590  -26.8210   19.0800 C   0  0  0  0  0  3  0  0  0  0  0  0
  -23.5840  -27.7060   19.2950 C   0  0  0  0  0  3  0  0  0  0  0  0
  -22.6970  -29.9260   20.2090 C   0  0  0  0  0  2  0  0  0  0  0  0
  -24.1630  -30.9670   21.9980 N   0  0  0  0  0  0  0  0  0  0  0  0
  -23.4130  -32.0780   23.8280 O   0  0  0  0  0  0  0  0  0  0  0  0
  -22.1440  -29.5600   22.6400 C   0  0  0  0  0  0  0  0  0  0  0  0
  -20.8120  -29.4000   22.5740 N   0  0  0  0  0  0  0  0  0  0  0  0
  -22.8510  -28.9390   23.4370 O   0  0  0  0  0  0  0  0  0  0  0  0
  -20.3020  -29.9510   21.8970 H   0  0  0  0  0  0  0  0  0  0  0  0
  -17.4750  -28.1150   23.0940 C   0  0  0  0  0  0  0  0  0  0  0  0
  -20.0130  -28.4950   23.4000 C   0  0  0  0  0  3  0  0  0  0  0  0
  -20.1840  -27.0290   22.9420 C   0  0  0  0  0  2  0  0  0  0  0  0
  -19.1210  -26.5840   21.9320 C   0  0  0  0  0  2  0  0  0  0  0  0
  -17.7190  -26.7250   22.5320 C   0  0  0  0  0  2  0  0  0  0  0  0
  -18.5530  -28.9520   23.4870 C   0  0  0  0  0  0  0  0  0  0  0  0
  -18.2720  -30.2490   23.9690 C   0  0  0  0  0  3  0  0  0  0  0  0
  -16.9460  -30.7100   24.0650 C   0  0  0  0  0  3  0  0  0  0  0  0
  -15.8820  -29.8720   23.6890 C   0  0  0  0  0  3  0  0  0  0  0  0
  -16.1470  -28.5760   23.2100 C   0  0  0  0  0  3  0  0  0  0  0  0
  -25.7920  -32.1540   23.5670 C   0  0  0  0  0  3  0  0  0  0  0  0
  -25.6940  -33.5300   24.0690 N   0  0  0  0  0  0  0  0  0  0  0  0
  -26.0540  -34.6200   23.3780 C   0  0  0  0  0  0  0  0  0  0  0  0
  -26.5790  -34.5630   22.2620 O   0  0  0  0  0  0  0  0  0  0  0  0
  -25.2230  -33.6560   24.9520 H   0  0  0  0  0  0  0  0  0  0  0  0
  -24.5240  -36.6140   23.4210 C   0  0  0  0  0  1  0  0  0  0  0  0
  -25.7910  -35.9930   24.0280 C   0  0  0  0  0  3  0  0  0  0  0  0
  -28.0950  -36.5440   24.6720 C   0  0  0  0  0  1  0  0  0  0  0  0
  -26.9230  -36.9340   23.8920 N   0  0  0  0  0  0  0  0  0  0  0  0
  -26.6490  -37.8700   24.1790 H   0  0  0  0  0  0  0  0  0  0  0  0
  -26.4290  -31.2070   24.6580 C   0  0  1  0  0  0  0  0  0  0  0  0
  -25.5110  -30.9620   25.8770 C   0  0  0  0  0  1  0  0  0  0  0  0
  -26.7810  -29.8300   24.0480 C   0  0  0  0  0  1  0  0  0  0  0  0
  -27.7550  -31.8150   25.1700 C   0  0  0  0  0  1  0  0  0  0  0  0
  1  3  1  0
  1  2  1  0
  4  6  1  0
  4  1  1  0
  6  9  2  0
  7 22  1  0
  7  5  2  0
  8 10  2  0
  8  6  1  0
  9  5  1  0
 10  7  1  0
 11  8  1  0
 12 11  1  0
 13 11  1  0
 14 22  1  0
 15 20  1  0
 16 17  1  0
 16 15  1  0
 18 17  1  0
 18 27  1  0
 18 19  1  0
 20 14  1  0
 20 19  1  0
 21 14  2  0
 22 23  1  0
 24 25  2  0
 25 44  1  0
 26 25  1  0
 26 29  1  0
 27 28  1  0
 27 24  1  0
 28 26  2  0
 29 30  1  0
 30 31  2  0
 32 35  1  0
 32 31  1  0
 33 32  2  0
 34 33  1  0
 34 29  2  0
 35 36  1  0
 36 41  2  0
 36 37  1  0
 37 38  2  0
 38 39  1  0
 39 43  1  0
 40 39  2  0
 41 40  1  0
 42 41  1  0
 44 45  1  0
 45 48  1  0
 45 47  1  0
 46 44  2  0
 49 50  1  0
 49 24  1  0
 51 49  1  0
 52 53  1  0
 52  1  1  0
 53 56  1  0
 55 56  1  0
 56 54  1  0
 57 60  1  0
 57 52  1  0
 57 58  1  0
 58 59  1  0
 60 61  1  0
 61 63  1  0
 62 73  2  0
 63 68  1  0
 64 72  1  0
 64 74  1  0
 65 71  1  0
 65 67  1  0
 66 72  1  0
 67 66  1  0
 68 67  2  0
 69 70  1  0
 69 63  2  0
 70 65  2  0
 71 64  1  0
 72 62  1  0
 74 76  2  0
 75 74  1  0
 77 75  1  0
 78 87  2  0
 78 83  1  0
 79 75  1  0
 79 83  1  0
 80 79  1  0
 81 82  1  0
 81 80  1  0
 82 78  1  0
 83 84  2  0
 84 85  1  0
 86 85  2  0
 87 86  1  0
 88 62  1  0
 88 89  1  0
 88 98  1  0
 89 92  1  0
 90 94  1  0
 90 89  1  0
 91 90  2  0
 94 93  1  0
 96 94  1  0
 96 97  1  0
 96 95  1  0
 98101  1  1
 98 99  1  0
100 98  1  0
M  ISO  4  14 100  22 100  60 101  61 101
M  END
>  <TORSDO>  (52) 
F 24

>  <SCORE>  (52) 
-11.425

>  <name>  (52) 
51

>  <ligand_id>  (52) 
51

>  <original_smiles>  (52) 
[H]OC([H])(C([H])([H])Oc1c([H])c([H])c2c(c1[H])C([H])([H])N(C(=O)C([H])(N([H])C(=O)C([H])(N([H])C([H])([H])[H])C([H])([H])[H])C(C([H])([H])[H])(C([H])([H])[H])C([H])([H])[H])C([H])(C(=O)N([H])C1([H])c3c([H])c([H])c([H])c([H])c3C([H])([H])C([H])([H])C1([H])[H])C2([H])[H])C([H])(C([H])([H])C([H])(C([H])([H])[H])C([H])([H])[H])[N+]([H])([H])C([H])([H])c1nc([H])c(N([H])C(=O)N2C([H])([H])C([H])([H])C([H])([H])C([H])(n3nc(-c4c([H])c([H])c(Oc5c([H])c([H])c(F)c([H])c5F)c([H])c4[H])c(C(=O)N([H])[H])c3N([H])[H])C2([H])[H])nc1N([H])[H]

>  <smiles>  (52) 
[H]OC([H])(C([H])([H])Oc1c([H])c([H])c2c(c1[H])C([H])([H])N(C(=O)C([H])(N([H])C(=O)C([H])(N([H])C([H])([H])[H])C([H])([H])[H])C(C([H])([H])[H])(C([H])([H])[H])C([H])([H])[H])C([H])(C(=O)N([H])C1([H])c3c([H])c([H])c([H])c([H])c3C([H])([H])C([H])([H])C1([H])[H])C2([H])[H])C([H])(C([H])([H])C([H])(C([H])([H])[H])C([H])([H])[H])[N+]([H])([H])C([H])([H])c1nc([H])c(N([H])C(=O)N2C([H])([H])C([H])([H])C([H])([H])C([H])(n3nc(-c4c([H])c([H])c(Oc5c([H])c([H])c(F)c([H])c5F)c([H])c4[H])c(C(=O)N([H])[H])c3N([H])[H])C2([H])[H])nc1N([H])[H]

$$$$
52:0:0
     RDKit          3D

 93101  0  0  1  0  0  0  0  0999 V2000
  -30.5730  -14.8110   20.4230 C   0  0  0  0  0  0  0  0  0  0  0  0
  -30.3600  -12.5130   19.4540 C   0  0  0  0  0  2  0  0  0  0  0  0
  -29.4570  -12.6150   18.2060 C   0  0  0  0  0  2  0  0  0  0  0  0
  -27.9710  -12.4650   18.5990 C   0  0  0  0  0  2  0  0  0  0  0  0
  -27.5880  -13.3330   19.8310 C   0  0  0  0  0  3  0  0  0  0  0  0
  -28.6310  -13.2360   20.9640 C   0  0  0  0  0  2  0  0  0  0  0  0
  -29.9350  -13.5830   20.3900 N   0  0  0  0  0  0  0  0  0  0  0  0
  -31.7760  -14.8420   20.1450 O   0  0  0  0  0  0  0  0  0  0  0  0
  -30.1040  -19.7880   18.8400 C   0  0  0  0  0  0  0  0  0  0  0  0
  -30.7030  -18.6120   18.3320 C   0  0  0  0  0  0  0  0  0  0  0  0
  -29.4790  -19.7020   20.0990 C   0  0  0  0  0  0  0  0  0  0  0  0
  -29.9830  -17.3300   20.1190 C   0  0  0  0  0  0  0  0  0  0  0  0
  -30.0510  -21.0420   17.9720 C   0  0  0  0  0  1  0  0  0  0  0  0
  -31.3950  -18.5680   16.9810 C   0  0  0  0  0  1  0  0  0  0  0  0
  -30.6380  -17.4320   18.9700 N   0  0  0  0  0  0  0  0  0  0  0  0
  -29.3890  -18.4410   20.6900 N   0  0  0  0  0  0  0  0  0  0  0  0
  -28.8000  -20.8580   20.6690 N   0  0  0  0  0  4  0  0  0  0  0  0
  -29.8270  -15.9820   20.6240 N   0  0  0  0  0  0  0  0  0  0  0  0
  -28.1290  -20.5570   21.3660 H   0  0  0  0  0  0  0  0  0  0  0  0
  -28.9260  -15.8200   21.0460 H   0  0  0  0  0  0  0  0  0  0  0  0
  -25.1970  -13.9240   20.5430 C   0  0  0  0  0  0  0  0  0  0  0  0
  -24.1270  -13.1540   20.9070 C   0  0  0  0  0  0  0  0  0  0  0  0
  -24.5880  -11.8010   20.8830 C   0  0  0  0  0  0  0  0  0  0  0  0
  -26.2390  -13.0420   20.3100 N   0  0  0  0  0  0  0  0  0  0  0  0
  -25.8800  -11.7580   20.5800 N   0  0  0  0  0  0  0  0  0  0  0  0
  -23.8550  -10.5410   21.0710 C   0  0  0  0  0  0  0  0  0  0  0  0
  -24.2820   -9.5670   22.0010 C   0  0  0  0  0  3  0  0  0  0  0  0
  -23.5480   -8.3750   22.1760 C   0  0  0  0  0  3  0  0  0  0  0  0
  -22.3710   -8.1500   21.4230 C   0  0  0  0  0  0  0  0  0  0  0  0
  -21.9610   -9.1120   20.4840 C   0  0  0  0  0  3  0  0  0  0  0  0
  -22.6980  -10.2950   20.3060 C   0  0  0  0  0  3  0  0  0  0  0  0
  -21.6060   -7.0130   21.5110 O   0  0  0  0  0  0  0  0  0  0  0  0
  -21.5600   -6.2590   22.6550 C   0  0  0  0  0  0  0  0  0  0  0  0
  -21.1580   -6.8070   23.8920 C   0  0  0  0  0  3  0  0  0  0  0  0
  -21.0580   -5.9820   25.0290 C   0  0  0  0  0  3  0  0  0  0  0  0
  -21.3520   -4.6080   24.9310 C   0  0  0  0  0  0  0  0  0  0  0  0
  -21.7500   -4.0600   23.6990 C   0  0  0  0  0  3  0  0  0  0  0  0
  -21.8490   -4.8820   22.5640 C   0  0  0  0  0  0  0  0  0  0  0  0
  -22.2120   -4.3430   21.3740 F   0  0  0  0  0  0  0  0  0  0  0  0
  -21.2520   -3.8140   26.0220 F   0  0  0  0  0  0  0  0  0  0  0  0
  -22.7290  -13.6390   21.1630 C   0  0  0  0  0  0  0  0  0  0  0  0
  -21.9870  -12.9540   22.0280 N   0  0  0  0  0  0  0  0  0  0  0  0
  -22.3000  -14.6640   20.6320 O   0  0  0  0  0  0  0  0  0  0  0  0
  -22.3450  -12.1270   22.4820 H   0  0  0  0  0  0  0  0  0  0  0  0
  -21.0490  -13.2620   22.2380 H   0  0  0  0  0  0  0  0  0  0  0  0
  -25.3670  -15.2930   20.3640 N   0  0  0  0  0  0  0  0  0  0  0  0
  -24.5980  -15.9460   20.4630 H   0  0  0  0  0  0  0  0  0  0  0  0
  -26.2150  -15.7280   20.0250 H   0  0  0  0  0  0  0  0  0  0  0  0
  -30.7940  -22.3800   21.1790 C   0  0  0  0  0  1  0  0  0  0  0  0
  -29.2720  -22.2940   20.9540 C   0  0  0  0  0  0  0  0  0  0  0  0
  -28.7200  -23.6120   20.1310 C   0  0  0  0  0  2  0  0  0  0  0  0
  -28.3940  -25.0170   20.9140 C   0  0  0  0  0  2  0  0  0  0  0  0
  -28.4770  -26.4180   20.3430 O   0  0  0  0  0  0  0  0  0  0  0  0
  -24.6490  -31.9090   23.2740 C   0  0  0  0  0  0  0  0  0  0  0  0
  -27.3550  -27.2830   20.3400 C   0  0  0  0  0  0  0  0  0  0  0  0
  -23.4870  -30.4800   21.6280 C   0  0  0  0  0  3  0  0  0  0  0  0
  -24.9800  -28.9080   20.2560 C   0  0  0  0  0  0  0  0  0  0  0  0
  -26.0320  -30.8040   21.4920 C   0  0  0  0  0  2  0  0  0  0  0  0
  -26.1360  -29.4090   20.8680 C   0  0  0  0  0  0  0  0  0  0  0  0
  -27.3270  -28.6110   20.8930 C   0  0  0  0  0  3  0  0  0  0  0  0
  -26.1760  -26.8460   19.7040 C   0  0  0  0  0  3  0  0  0  0  0  0
  -25.0060  -27.6350   19.6620 C   0  0  0  0  0  3  0  0  0  0  0  0
  -23.7380  -29.7830   20.2620 C   0  0  0  0  0  2  0  0  0  0  0  0
  -24.7410  -31.0840   22.1880 N   0  0  0  0  0  0  0  0  0  0  0  0
  -23.5530  -32.1850   23.7830 O   0  0  0  0  0  0  0  0  0  0  0  0
  -22.8120  -29.4750   22.5920 C   0  0  0  0  0  0  0  0  0  0  0  0
  -21.4880  -29.2900   22.4470 N   0  0  0  0  0  0  0  0  0  0  0  0
  -23.4800  -28.8610   23.4280 O   0  0  0  0  0  0  0  0  0  0  0  0
  -21.0070  -29.8380   21.7480 H   0  0  0  0  0  0  0  0  0  0  0  0
  -18.1090  -28.0850   22.9190 C   0  0  0  0  0  0  0  0  0  0  0  0
  -20.6630  -28.3570   23.2170 C   0  0  0  0  0  3  0  0  0  0  0  0
  -20.7760  -26.9210   22.6570 C   0  0  0  0  0  2  0  0  0  0  0  0
  -19.6890  -26.5860   21.6310 C   0  0  0  0  0  2  0  0  0  0  0  0
  -18.2970  -26.7320   22.2540 C   0  0  0  0  0  2  0  0  0  0  0  0
  -19.2190  -28.8550   23.3560 C   0  0  0  0  0  0  0  0  0  0  0  0
  -18.9880  -30.1210   23.9370 C   0  0  0  0  0  3  0  0  0  0  0  0
  -17.6800  -30.6160   24.0880 C   0  0  0  0  0  3  0  0  0  0  0  0
  -16.5840  -29.8450   23.6640 C   0  0  0  0  0  3  0  0  0  0  0  0
  -16.7990  -28.5820   23.0830 C   0  0  0  0  0  3  0  0  0  0  0  0
  -25.9140  -32.5590   23.9140 C   0  0  0  0  0  3  0  0  0  0  0  0
  -25.5850  -33.9590   24.2210 N   0  0  0  0  0  0  0  0  0  0  0  0
  -25.9200  -35.0060   23.4550 C   0  0  0  0  0  0  0  0  0  0  0  0
  -26.6060  -34.8960   22.4360 O   0  0  0  0  0  0  0  0  0  0  0  0
  -24.9810  -34.1180   25.0130 H   0  0  0  0  0  0  0  0  0  0  0  0
  -24.1790  -36.7800   23.0600 C   0  0  0  0  0  1  0  0  0  0  0  0
  -25.4140  -36.3960   23.8900 C   0  0  0  0  0  3  0  0  0  0  0  0
  -27.5300  -37.3140   24.7310 C   0  0  0  0  0  1  0  0  0  0  0  0
  -26.4360  -37.4580   23.7730 N   0  0  0  0  0  0  0  0  0  0  0  0
  -26.0190  -38.3760   23.9040 H   0  0  0  0  0  0  0  0  0  0  0  0
  -26.4080  -31.8080   25.2140 C   0  0  1  0  0  0  0  0  0  0  0  0
  -25.2940  -31.5810   26.2620 C   0  0  0  0  0  1  0  0  0  0  0  0
  -27.0060  -30.4280   24.8550 C   0  0  0  0  0  1  0  0  0  0  0  0
  -27.5370  -32.6210   25.8890 C   0  0  0  0  0  1  0  0  0  0  0  0
  1 18  1  0
  2  7  1  0
  3  4  1  0
  3  2  1  0
  5  4  1  0
  5 24  1  0
  5  6  1  0
  7  1  1  0
  7  6  1  0
  8  1  2  0
  9 11  1  0
 10  9  2  0
 10 15  1  0
 11 17  1  0
 11 16  2  0
 12 18  1  0
 12 16  1  0
 13  9  1  0
 14 10  1  0
 15 12  2  0
 17 50  2  3
 17 19  1  0
 18 20  1  0
 21 22  2  0
 22 41  1  0
 23 22  1  0
 23 26  1  0
 24 21  1  0
 24 25  1  0
 25 23  2  0
 26 27  1  0
 27 28  2  0
 29 32  1  0
 29 28  1  0
 30 29  2  0
 31 30  1  0
 31 26  2  0
 32 33  1  0
 33 34  1  0
 34 35  2  0
 36 35  1  0
 36 40  1  0
 37 36  2  0
 38 33  2  0
 38 37  1  0
 39 38  1  0
 41 42  1  0
 42 45  1  0
 42 44  1  0
 43 41  2  0
 46 47  1  0
 46 21  1  0
 48 46  1  0
 50 49  1  0
 51 52  1  0
 51 50  1  0
 53 52  1  0
 54 65  2  0
 55 53  1  0
 55 60  1  0
 56 64  1  0
 56 66  1  0
 57 63  1  0
 57 59  1  0
 58 64  1  0
 59 60  2  0
 59 58  1  0
 61 55  2  0
 62 61  1  0
 62 57  2  0
 63 56  1  0
 64 54  1  0
 66 68  2  0
 67 66  1  0
 69 67  1  0
 70 79  2  0
 70 75  1  0
 71 67  1  0
 71 75  1  0
 72 71  1  0
 73 74  1  0
 73 72  1  0
 74 70  1  0
 75 76  2  0
 76 77  1  0
 78 77  2  0
 79 78  1  0
 80 54  1  0
 80 81  1  0
 80 90  1  0
 81 84  1  0
 82 86  1  0
 82 81  1  0
 83 82  2  0
 86 85  1  0
 88 86  1  0
 88 89  1  0
 88 87  1  0
 90 93  1  1
 90 91  1  0
 92 90  1  0
M  ISO  4   1 100  18 100  52 101  53 101
M  END
>  <TORSDO>  (53) 
F 18

>  <SCORE>  (53) 
-14.907

>  <name>  (53) 
52

>  <ligand_id>  (53) 
52

>  <original_smiles>  (53) 
[H]c1c([H])c([H])c2c(c1[H])C([H])([H])C([H])([H])C([H])([H])C2([H])N([H])C(=O)C1([H])N(C(=O)C([H])(N([H])C(=O)C([H])(N([H])C([H])([H])[H])C([H])([H])[H])C(C([H])([H])[H])(C([H])([H])[H])C([H])([H])[H])C([H])([H])c2c([H])c(OC([H])([H])C([H])([H])C([H])(N([H])c3nc(N([H])C(=O)N4C([H])([H])C([H])([H])C([H])([H])C([H])(n5nc(-c6c([H])c([H])c(Oc7c([H])c([H])c(F)c([H])c7F)c([H])c6[H])c(C(=O)N([H])[H])c5N([H])[H])C4([H])[H])nc(C([H])([H])[H])c3C([H])([H])[H])C([H])([H])[H])c([H])c([H])c2C1([H])[H]

>  <smiles>  (53) 
[H]c1c([H])c([H])c2c(c1[H])C([H])([H])C([H])([H])C([H])([H])C2([H])N([H])C(=O)C1([H])N(C(=O)C([H])(N([H])C(=O)C([H])(N([H])C([H])([H])[H])C([H])([H])[H])C(C([H])([H])[H])(C([H])([H])[H])C([H])([H])[H])C([H])([H])c2c([H])c(OC([H])([H])C([H])([H])C([H])(N([H])c3nc(N([H])C(=O)N4C([H])([H])C([H])([H])C([H])([H])C([H])(n5nc(-c6c([H])c([H])c(Oc7c([H])c([H])c(F)c([H])c7F)c([H])c6[H])c(C(=O)N([H])[H])c5N([H])[H])C4([H])[H])nc(C([H])([H])[H])c3C([H])([H])[H])C([H])([H])[H])c([H])c([H])c2C1([H])[H]

$$$$
53:0:0
     RDKit          3D

 94102  0  0  1  0  0  0  0  0999 V2000
  -27.2320  -19.5640   19.3040 C   0  0  0  0  0  3  0  0  0  0  0  0
  -28.0360  -18.4280   19.5590 C   0  0  0  0  0  0  0  0  0  0  0  0
  -29.2620  -18.6550   20.2330 C   0  0  0  0  0  0  0  0  0  0  0  0
  -28.7500  -21.0120   20.2040 C   0  0  0  0  0  0  0  0  0  0  0  0
  -27.5850  -20.8260   19.6190 N   0  0  0  0  0  0  0  0  0  0  0  0
  -29.5940  -19.9810   20.5200 N   0  0  0  0  0  0  0  0  0  0  0  0
  -29.1280  -22.3850   20.4120 N   0  0  0  0  0  0  0  0  0  0  0  0
  -30.0940  -22.4500   20.7110 H   0  0  0  0  0  0  0  0  0  0  0  0
  -27.6220  -17.1730   19.0900 N   0  0  0  0  0  0  0  0  0  0  0  0
  -26.9030  -17.2040   18.3690 H   0  0  0  0  0  0  0  0  0  0  0  0
  -28.3720  -16.5580   18.7920 H   0  0  0  0  0  0  0  0  0  0  0  0
  -26.9150  -23.4010   21.2410 C   0  0  0  0  0  1  0  0  0  0  0  0
  -28.3550  -23.6660   20.7730 C   0  0  0  0  0  3  0  0  0  0  0  0
  -28.4040  -24.9800   19.8100 C   0  0  0  0  0  2  0  0  0  0  0  0
  -28.3220  -26.3990   20.3330 O   0  0  0  0  0  0  0  0  0  0  0  0
  -24.5910  -31.9040   23.2470 C   0  0  0  0  0  0  0  0  0  0  0  0
  -27.1990  -27.2620   20.2400 C   0  0  0  0  0  0  0  0  0  0  0  0
  -23.3950  -30.4990   21.6080 C   0  0  0  0  0  3  0  0  0  0  0  0
  -24.8480  -28.9290   20.1980 C   0  0  0  0  0  0  0  0  0  0  0  0
  -25.9420  -30.7910   21.4470 C   0  0  0  0  0  2  0  0  0  0  0  0
  -26.0170  -29.4060   20.8010 C   0  0  0  0  0  0  0  0  0  0  0  0
  -27.1910  -28.5860   20.8080 C   0  0  0  0  0  3  0  0  0  0  0  0
  -26.0010  -26.8500   19.6170 C   0  0  0  0  0  3  0  0  0  0  0  0
  -24.8460  -27.6610   19.5940 C   0  0  0  0  0  3  0  0  0  0  0  0
  -23.6180  -29.8150   20.2330 C   0  0  0  0  0  2  0  0  0  0  0  0
  -24.6610  -31.0850   22.1560 N   0  0  0  0  0  0  0  0  0  0  0  0
  -23.5030  -32.1900   23.7720 O   0  0  0  0  0  0  0  0  0  0  0  0
  -22.7180  -29.4940   22.5710 C   0  0  0  0  0  0  0  0  0  0  0  0
  -21.3900  -29.3280   22.4440 N   0  0  0  0  0  0  0  0  0  0  0  0
  -23.3900  -28.8660   23.3940 O   0  0  0  0  0  0  0  0  0  0  0  0
  -20.9080  -29.8840   21.7520 H   0  0  0  0  0  0  0  0  0  0  0  0
  -17.9990  -28.1720   22.9570 C   0  0  0  0  0  0  0  0  0  0  0  0
  -20.5620  -28.4000   23.2170 C   0  0  0  0  0  3  0  0  0  0  0  0
  -20.6440  -26.9680   22.6390 C   0  0  0  0  0  2  0  0  0  0  0  0
  -19.5340  -26.6610   21.6290 C   0  0  0  0  0  2  0  0  0  0  0  0
  -18.1560  -26.8220   22.2770 C   0  0  0  0  0  2  0  0  0  0  0  0
  -19.1290  -28.9200   23.3840 C   0  0  0  0  0  0  0  0  0  0  0  0
  -18.9280  -30.1830   23.9810 C   0  0  0  0  0  3  0  0  0  0  0  0
  -17.6290  -30.7000   24.1540 C   0  0  0  0  0  3  0  0  0  0  0  0
  -16.5150  -29.9490   23.7420 C   0  0  0  0  0  3  0  0  0  0  0  0
  -16.7000  -28.6870   23.1500 C   0  0  0  0  0  3  0  0  0  0  0  0
  -25.8690  -32.5380   23.8750 C   0  0  0  0  0  3  0  0  0  0  0  0
  -26.3700  -31.7790   25.1660 C   0  0  1  0  0  0  0  0  0  0  0  0
  -25.2660  -31.5610   26.2270 C   0  0  0  0  0  1  0  0  0  0  0  0
  -26.9510  -30.3930   24.8000 C   0  0  0  0  0  1  0  0  0  0  0  0
  -27.5180  -32.5770   25.8280 C   0  0  0  0  0  1  0  0  0  0  0  0
  -25.5620  -33.9410   24.1900 N   0  0  0  0  0  0  0  0  0  0  0  0
  -25.9070  -34.9870   23.4270 C   0  0  0  0  0  0  0  0  0  0  0  0
  -26.5860  -34.8730   22.4040 O   0  0  0  0  0  0  0  0  0  0  0  0
  -24.9570  -34.1040   24.9830 H   0  0  0  0  0  0  0  0  0  0  0  0
  -24.1980  -36.7920   23.0400 C   0  0  0  0  0  1  0  0  0  0  0  0
  -25.4240  -36.3820   23.8720 C   0  0  0  0  0  3  0  0  0  0  0  0
  -27.5510  -37.2610   24.7300 C   0  0  0  0  0  1  0  0  0  0  0  0
  -26.4660  -37.4270   23.7660 N   0  0  0  0  0  0  0  0  0  0  0  0
  -26.0630  -38.3510   23.8990 H   0  0  0  0  0  0  0  0  0  0  0  0
  -30.2690  -17.4520   20.5870 C   0  0  0  0  0  2  0  0  0  0  0  0
  -30.6100  -14.8240   20.4080 C   0  0  0  0  0  0  0  0  0  0  0  0
  -30.4250  -12.5450   19.3820 C   0  0  0  0  0  2  0  0  0  0  0  0
  -29.4780  -12.6020   18.1630 C   0  0  0  0  0  2  0  0  0  0  0  0
  -28.0150  -12.3970   18.6040 C   0  0  0  0  0  2  0  0  0  0  0  0
  -27.6320  -13.2840   19.8210 C   0  0  0  0  0  3  0  0  0  0  0  0
  -28.7000  -13.2160   20.9330 C   0  0  0  0  0  2  0  0  0  0  0  0
  -29.9830  -13.5970   20.3300 N   0  0  0  0  0  0  0  0  0  0  0  0
  -31.8040  -14.9130   20.1090 O   0  0  0  0  0  0  0  0  0  0  0  0
  -29.8530  -15.9700   20.6130 N   0  0  0  0  0  0  0  0  0  0  0  0
  -28.8590  -15.8390   20.7480 H   0  0  0  0  0  0  0  0  0  0  0  0
  -25.2460  -13.8440   20.5740 C   0  0  0  0  0  0  0  0  0  0  0  0
  -24.1900  -13.0570   20.9460 C   0  0  0  0  0  0  0  0  0  0  0  0
  -24.6660  -11.7100   20.8980 C   0  0  0  0  0  0  0  0  0  0  0  0
  -26.2970  -12.9770   20.3200 N   0  0  0  0  0  0  0  0  0  0  0  0
  -25.9550  -11.6880   20.5820 N   0  0  0  0  0  0  0  0  0  0  0  0
  -23.9480  -10.4400   21.0760 C   0  0  0  0  0  0  0  0  0  0  0  0
  -24.3870   -9.4660   21.9990 C   0  0  0  0  0  3  0  0  0  0  0  0
  -23.6680   -8.2610   22.1650 C   0  0  0  0  0  3  0  0  0  0  0  0
  -22.4960   -8.0250   21.4070 C   0  0  0  0  0  0  0  0  0  0  0  0
  -22.0750   -8.9900   20.4750 C   0  0  0  0  0  3  0  0  0  0  0  0
  -22.7950  -10.1850   20.3080 C   0  0  0  0  0  3  0  0  0  0  0  0
  -21.7490   -6.8760   21.4830 O   0  0  0  0  0  0  0  0  0  0  0  0
  -21.6990   -6.1240   22.6280 C   0  0  0  0  0  0  0  0  0  0  0  0
  -21.2470   -6.6610   23.8540 C   0  0  0  0  0  3  0  0  0  0  0  0
  -21.1480   -5.8350   24.9910 C   0  0  0  0  0  3  0  0  0  0  0  0
  -21.4900   -4.4720   24.9030 C   0  0  0  0  0  0  0  0  0  0  0  0
  -21.9360   -3.9340   23.6840 C   0  0  0  0  0  3  0  0  0  0  0  0
  -22.0370   -4.7580   22.5480 C   0  0  0  0  0  0  0  0  0  0  0  0
  -22.4470   -4.2290   21.3700 F   0  0  0  0  0  0  0  0  0  0  0  0
  -21.3880   -3.6770   25.9940 F   0  0  0  0  0  0  0  0  0  0  0  0
  -22.7900  -13.5200   21.2250 C   0  0  0  0  0  0  0  0  0  0  0  0
  -22.0650  -12.8090   22.0820 N   0  0  0  0  0  0  0  0  0  0  0  0
  -22.3440  -14.5500   20.7200 O   0  0  0  0  0  0  0  0  0  0  0  0
  -22.4350  -11.9770   22.5180 H   0  0  0  0  0  0  0  0  0  0  0  0
  -21.1280  -13.1070   22.3100 H   0  0  0  0  0  0  0  0  0  0  0  0
  -25.3870  -15.2190   20.4050 N   0  0  0  0  0  0  0  0  0  0  0  0
  -24.5960  -15.8420   20.5270 H   0  0  0  0  0  0  0  0  0  0  0  0
  -26.2040  -15.7020   20.0320 H   0  0  0  0  0  0  0  0  0  0  0  0
  1  2  2  0
  1  5  1  0
  2  3  1  0
  3  6  2  0
  3 56  1  0
  4  7  1  0
  4  6  1  0
  5  4  2  0
  7  8  1  0
  7 13  1  0
  9  2  1  0
 10  9  1  0
 11  9  1  0
 13 12  1  0
 14 15  1  0
 14 13  1  0
 16 27  2  0
 17 15  1  0
 17 22  1  0
 18 26  1  0
 18 28  1  0
 19 25  1  0
 19 21  1  0
 20 26  1  0
 21 22  2  0
 21 20  1  0
 23 17  2  0
 24 23  1  0
 24 19  2  0
 25 18  1  0
 26 16  1  0
 28 30  2  0
 29 28  1  0
 31 29  1  0
 32 41  2  0
 32 37  1  0
 33 29  1  0
 33 37  1  0
 34 33  1  0
 35 36  1  0
 35 34  1  0
 36 32  1  0
 37 38  2  0
 38 39  1  0
 40 39  2  0
 41 40  1  0
 42 16  1  0
 42 47  1  0
 42 43  1  0
 43 46  1  1
 43 44  1  0
 45 43  1  0
 47 50  1  0
 48 52  1  0
 48 47  1  0
 49 48  2  0
 52 51  1  0
 54 52  1  0
 54 55  1  0
 54 53  1  0
 56 65  1  0
 57 65  1  0
 58 63  1  0
 59 60  1  0
 59 58  1  0
 61 60  1  0
 61 70  1  0
 61 62  1  0
 63 57  1  0
 63 62  1  0
 64 57  2  0
 65 66  1  0
 67 68  2  0
 68 87  1  0
 69 68  1  0
 69 72  1  0
 70 67  1  0
 70 71  1  0
 71 69  2  0
 72 73  1  0
 73 74  2  0
 75 78  1  0
 75 74  1  0
 76 75  2  0
 77 76  1  0
 77 72  2  0
 78 79  1  0
 79 80  1  0
 80 81  2  0
 82 81  1  0
 82 86  1  0
 83 82  2  0
 84 79  2  0
 84 83  1  0
 85 84  1  0
 87 88  1  0
 88 91  1  0
 88 90  1  0
 89 87  2  0
 92 93  1  0
 92 67  1  0
 94 92  1  0
M  ISO  4  14 101  15 101  57 100  65 100
M  END
>  <TORSDO>  (54) 
F 20

>  <SCORE>  (54) 
-14.189

>  <name>  (54) 
53

>  <ligand_id>  (54) 
53

>  <original_smiles>  (54) 
[H]c1nc(N([H])C([H])(C([H])([H])[H])C([H])([H])Oc2c([H])c([H])c3c(c2[H])C([H])([H])N(C(=O)C([H])(N([H])C(=O)C([H])(N([H])C([H])([H])[H])C([H])([H])[H])C(C([H])([H])[H])(C([H])([H])[H])C([H])([H])[H])C([H])(C(=O)N([H])C2([H])c4c([H])c([H])c([H])c([H])c4C([H])([H])C([H])([H])C2([H])[H])C3([H])[H])nc(C([H])([H])N([H])C(=O)N2C([H])([H])C([H])([H])C([H])([H])C([H])(n3nc(-c4c([H])c([H])c(Oc5c([H])c([H])c(F)c([H])c5F)c([H])c4[H])c(C(=O)N([H])[H])c3N([H])[H])C2([H])[H])c1N([H])[H]

>  <smiles>  (54) 
[H]c1nc(N([H])C([H])(C([H])([H])[H])C([H])([H])Oc2c([H])c([H])c3c(c2[H])C([H])([H])N(C(=O)C([H])(N([H])C(=O)C([H])(N([H])C([H])([H])[H])C([H])([H])[H])C(C([H])([H])[H])(C([H])([H])[H])C([H])([H])[H])C([H])(C(=O)N([H])C2([H])c4c([H])c([H])c([H])c([H])c4C([H])([H])C([H])([H])C2([H])[H])C3([H])[H])nc(C([H])([H])N([H])C(=O)N2C([H])([H])C([H])([H])C([H])([H])C([H])(n3nc(-c4c([H])c([H])c(Oc5c([H])c([H])c(F)c([H])c5F)c([H])c4[H])c(C(=O)N([H])[H])c3N([H])[H])C2([H])[H])c1N([H])[H]

$$$$
54:0:0
     RDKit          3D

 90 98  0  0  1  0  0  0  0  0999 V2000
  -29.7520  -18.7600   20.4390 C   0  0  0  0  0  0  0  0  0  0  0  0
  -29.2400  -20.9110   20.4920 C   0  0  0  0  0  0  0  0  0  0  0  0
  -29.0270  -19.7270   19.7870 N   0  0  0  0  0  0  0  0  0  0  0  0
  -30.0340  -20.7160   21.5410 N   0  0  0  0  0  0  0  0  0  0  0  0
  -28.6480  -22.2090   20.1120 N   0  0  0  0  0  0  0  0  0  0  0  0
  -30.3710  -19.3340   21.5120 O   0  0  0  0  0  0  0  0  0  0  0  0
  -28.0670  -22.1530   19.2830 H   0  0  0  0  0  0  0  0  0  0  0  0
  -28.8710  -23.7100   22.1360 C   0  0  0  0  0  1  0  0  0  0  0  0
  -28.9400  -23.6320   20.6020 C   0  0  0  0  0  3  0  0  0  0  0  0
  -28.0170  -24.8450   20.0020 C   0  0  0  0  0  2  0  0  0  0  0  0
  -28.2620  -26.3240   20.2560 O   0  0  0  0  0  0  0  0  0  0  0  0
  -24.6080  -31.8760   23.2400 C   0  0  0  0  0  0  0  0  0  0  0  0
  -27.1860  -27.2500   20.1750 C   0  0  0  0  0  0  0  0  0  0  0  0
  -23.4020  -30.4870   21.6010 C   0  0  0  0  0  3  0  0  0  0  0  0
  -24.8440  -28.9330   20.1600 C   0  0  0  0  0  0  0  0  0  0  0  0
  -25.9480  -30.7760   21.4200 C   0  0  0  0  0  2  0  0  0  0  0  0
  -26.0190  -29.3950   20.7660 C   0  0  0  0  0  0  0  0  0  0  0  0
  -27.1920  -28.5660   20.7640 C   0  0  0  0  0  3  0  0  0  0  0  0
  -25.9900  -26.8770   19.5200 C   0  0  0  0  0  3  0  0  0  0  0  0
  -24.8370  -27.6840   19.5230 C   0  0  0  0  0  3  0  0  0  0  0  0
  -23.6130  -29.8210   20.2160 C   0  0  0  0  0  2  0  0  0  0  0  0
  -24.6720  -31.0640   22.1430 N   0  0  0  0  0  0  0  0  0  0  0  0
  -23.5260  -32.1570   23.7750 O   0  0  0  0  0  0  0  0  0  0  0  0
  -22.7330  -29.4690   22.5580 C   0  0  0  0  0  0  0  0  0  0  0  0
  -21.4080  -29.2900   22.4270 N   0  0  0  0  0  0  0  0  0  0  0  0
  -23.4080  -28.8460   23.3820 O   0  0  0  0  0  0  0  0  0  0  0  0
  -20.9190  -29.8440   21.7390 H   0  0  0  0  0  0  0  0  0  0  0  0
  -18.0340  -28.0700   22.9120 C   0  0  0  0  0  0  0  0  0  0  0  0
  -20.5890  -28.3510   23.1990 C   0  0  0  0  0  3  0  0  0  0  0  0
  -20.7050  -26.9170   22.6330 C   0  0  0  0  0  2  0  0  0  0  0  0
  -19.6130  -26.5800   21.6130 C   0  0  0  0  0  2  0  0  0  0  0  0
  -18.2250  -26.7190   22.2450 C   0  0  0  0  0  2  0  0  0  0  0  0
  -19.1430  -28.8440   23.3460 C   0  0  0  0  0  0  0  0  0  0  0  0
  -18.9100  -30.1080   23.9300 C   0  0  0  0  0  3  0  0  0  0  0  0
  -17.6000  -30.5990   24.0840 C   0  0  0  0  0  3  0  0  0  0  0  0
  -16.5040  -29.8230   23.6660 C   0  0  0  0  0  3  0  0  0  0  0  0
  -16.7230  -28.5610   23.0870 C   0  0  0  0  0  3  0  0  0  0  0  0
  -25.8910  -32.5070   23.8620 C   0  0  0  0  0  3  0  0  0  0  0  0
  -26.4050  -31.7370   25.1400 C   0  0  1  0  0  0  0  0  0  0  0  0
  -25.3110  -31.5060   26.2090 C   0  0  0  0  0  1  0  0  0  0  0  0
  -26.9820  -30.3560   24.7530 C   0  0  0  0  0  1  0  0  0  0  0  0
  -27.5580  -32.5280   25.8000 C   0  0  0  0  0  1  0  0  0  0  0  0
  -25.5830  -33.9070   24.1940 N   0  0  0  0  0  0  0  0  0  0  0  0
  -25.9110  -34.9600   23.4340 C   0  0  0  0  0  0  0  0  0  0  0  0
  -26.5740  -34.8570   22.3980 O   0  0  0  0  0  0  0  0  0  0  0  0
  -24.9950  -34.0630   24.9990 H   0  0  0  0  0  0  0  0  0  0  0  0
  -24.1810  -36.7560   23.0980 C   0  0  0  0  0  1  0  0  0  0  0  0
  -25.4300  -36.3510   23.8960 C   0  0  0  0  0  3  0  0  0  0  0  0
  -27.5730  -37.2350   24.7050 C   0  0  0  0  0  1  0  0  0  0  0  0
  -26.4620  -37.4030   23.7730 N   0  0  0  0  0  0  0  0  0  0  0  0
  -26.0570  -38.3230   23.9240 H   0  0  0  0  0  0  0  0  0  0  0  0
  -30.2660  -17.3470   19.9190 C   0  0  0  0  0  2  0  0  0  0  0  0
  -30.5990  -14.8050   20.3480 C   0  0  0  0  0  0  0  0  0  0  0  0
  -30.3740  -12.5140   19.3700 C   0  0  0  0  0  2  0  0  0  0  0  0
  -29.4460  -12.5800   18.1370 C   0  0  0  0  0  2  0  0  0  0  0  0
  -27.9740  -12.4150   18.5600 C   0  0  0  0  0  2  0  0  0  0  0  0
  -27.5960  -13.3100   19.7710 C   0  0  0  0  0  3  0  0  0  0  0  0
  -28.6520  -13.2420   20.8980 C   0  0  0  0  0  2  0  0  0  0  0  0
  -29.9490  -13.5860   20.3040 N   0  0  0  0  0  0  0  0  0  0  0  0
  -31.7830  -14.8600   20.0090 O   0  0  0  0  0  0  0  0  0  0  0  0
  -29.8740  -15.9820   20.5110 N   0  0  0  0  0  0  0  0  0  0  0  0
  -28.9150  -15.8950   20.8080 H   0  0  0  0  0  0  0  0  0  0  0  0
  -25.2070  -13.9040   20.4840 C   0  0  0  0  0  0  0  0  0  0  0  0
  -24.1390  -13.1330   20.8560 C   0  0  0  0  0  0  0  0  0  0  0  0
  -24.6020  -11.7810   20.8370 C   0  0  0  0  0  0  0  0  0  0  0  0
  -26.2510  -13.0220   20.2590 N   0  0  0  0  0  0  0  0  0  0  0  0
  -25.8940  -11.7410   20.5350 N   0  0  0  0  0  0  0  0  0  0  0  0
  -23.8700  -10.5210   21.0300 C   0  0  0  0  0  0  0  0  0  0  0  0
  -24.3000   -9.5540   21.9660 C   0  0  0  0  0  3  0  0  0  0  0  0
  -23.5690   -8.3600   22.1480 C   0  0  0  0  0  3  0  0  0  0  0  0
  -22.3940   -8.1240   21.3940 C   0  0  0  0  0  0  0  0  0  0  0  0
  -21.9840   -9.0810   20.4490 C   0  0  0  0  0  3  0  0  0  0  0  0
  -22.7150  -10.2660   20.2650 C   0  0  0  0  0  3  0  0  0  0  0  0
  -21.6350   -6.9830   21.4870 O   0  0  0  0  0  0  0  0  0  0  0  0
  -21.5910   -6.2390   22.6390 C   0  0  0  0  0  0  0  0  0  0  0  0
  -21.1760   -6.7950   23.8690 C   0  0  0  0  0  3  0  0  0  0  0  0
  -21.0780   -5.9790   25.0130 C   0  0  0  0  0  3  0  0  0  0  0  0
  -21.3830   -4.6070   24.9280 C   0  0  0  0  0  0  0  0  0  0  0  0
  -21.7900   -4.0500   23.7030 C   0  0  0  0  0  3  0  0  0  0  0  0
  -21.8900   -4.8640   22.5610 C   0  0  0  0  0  0  0  0  0  0  0  0
  -22.2620   -4.3180   21.3780 F   0  0  0  0  0  0  0  0  0  0  0  0
  -21.2800   -3.8210   26.0250 F   0  0  0  0  0  0  0  0  0  0  0  0
  -22.7400  -13.6140   21.1130 C   0  0  0  0  0  0  0  0  0  0  0  0
  -22.0060  -12.9270   21.9800 N   0  0  0  0  0  0  0  0  0  0  0  0
  -22.3090  -14.6370   20.5830 O   0  0  0  0  0  0  0  0  0  0  0  0
  -22.3660  -12.1010   22.4340 H   0  0  0  0  0  0  0  0  0  0  0  0
  -21.0670  -13.2320   22.1940 H   0  0  0  0  0  0  0  0  0  0  0  0
  -25.3700  -15.2740   20.2920 N   0  0  0  0  0  0  0  0  0  0  0  0
  -24.5890  -15.9170   20.3650 H   0  0  0  0  0  0  0  0  0  0  0  0
  -26.2010  -15.7030   19.9090 H   0  0  0  0  0  0  0  0  0  0  0  0
  1  6  1  0
  2  4  2  0
  3  1  2  0
  3  2  1  0
  5  2  1  0
  5  9  1  0
  6  4  1  0
  7  5  1  0
  9  8  1  0
 10 11  1  0
 10  9  1  0
 12 23  2  0
 13 11  1  0
 13 18  1  0
 14 22  1  0
 14 24  1  0
 15 21  1  0
 15 17  1  0
 16 22  1  0
 17 16  1  0
 18 17  2  0
 19 20  1  0
 19 13  2  0
 20 15  2  0
 21 14  1  0
 22 12  1  0
 24 26  2  0
 25 24  1  0
 27 25  1  0
 28 37  2  0
 28 33  1  0
 29 25  1  0
 29 33  1  0
 30 29  1  0
 31 32  1  0
 31 30  1  0
 32 28  1  0
 33 34  2  0
 34 35  1  0
 36 35  2  0
 37 36  1  0
 38 12  1  0
 38 43  1  0
 38 39  1  0
 39 42  1  1
 39 40  1  0
 41 39  1  0
 43 46  1  0
 44 48  1  0
 44 43  1  0
 45 44  2  0
 48 47  1  0
 50 48  1  0
 50 51  1  0
 50 49  1  0
 52  1  1  0
 52 61  1  0
 53 61  1  0
 54 59  1  0
 55 56  1  0
 55 54  1  0
 57 56  1  0
 57 66  1  0
 57 58  1  0
 59 53  1  0
 59 58  1  0
 60 53  2  0
 61 62  1  0
 63 64  2  0
 64 83  1  0
 65 64  1  0
 65 68  1  0
 66 63  1  0
 66 67  1  0
 67 65  2  0
 68 69  1  0
 69 70  2  0
 71 74  1  0
 71 70  1  0
 72 71  2  0
 73 72  1  0
 73 68  2  0
 74 75  1  0
 75 76  1  0
 76 77  2  0
 78 77  1  0
 78 82  1  0
 79 78  2  0
 80 75  2  0
 80 79  1  0
 81 80  1  0
 83 84  1  0
 84 87  1  0
 84 86  1  0
 85 83  2  0
 88 89  1  0
 88 63  1  0
 90 88  1  0
M  ISO  4  10 101  11 101  53 100  61 100
M  END
>  <TORSDO>  (55) 
F 19

>  <SCORE>  (55) 
-14.190

>  <name>  (55) 
54

>  <ligand_id>  (55) 
54

>  <original_smiles>  (55) 
[H]c1c([H])c([H])c2c(c1[H])C([H])([H])C([H])([H])C([H])([H])C2([H])N([H])C(=O)C1([H])N(C(=O)C([H])(N([H])C(=O)C([H])(N([H])C([H])([H])[H])C([H])([H])[H])C(C([H])([H])[H])(C([H])([H])[H])C([H])([H])[H])C([H])([H])c2c([H])c(OC([H])([H])C([H])(N([H])c3noc(C([H])([H])N([H])C(=O)N4C([H])([H])C([H])([H])C([H])([H])C([H])(n5nc(-c6c([H])c([H])c(Oc7c([H])c([H])c(F)c([H])c7F)c([H])c6[H])c(C(=O)N([H])[H])c5N([H])[H])C4([H])[H])n3)C([H])([H])[H])c([H])c([H])c2C1([H])[H]

>  <smiles>  (55) 
[H]c1c([H])c([H])c2c(c1[H])C([H])([H])C([H])([H])C([H])([H])C2([H])N([H])C(=O)C1([H])N(C(=O)C([H])(N([H])C(=O)C([H])(N([H])C([H])([H])[H])C([H])([H])[H])C(C([H])([H])[H])(C([H])([H])[H])C([H])([H])[H])C([H])([H])c2c([H])c(OC([H])([H])C([H])(N([H])c3noc(C([H])([H])N([H])C(=O)N4C([H])([H])C([H])([H])C([H])([H])C([H])(n5nc(-c6c([H])c([H])c(Oc7c([H])c([H])c(F)c([H])c7F)c([H])c6[H])c(C(=O)N([H])[H])c5N([H])[H])C4([H])[H])n3)C([H])([H])[H])c([H])c([H])c2C1([H])[H]

$$$$
55:0:0
     RDKit          3D

 93101  0  0  1  0  0  0  0  0999 V2000
  -29.1730  -21.3280   20.9150 C   0  0  0  0  0  0  0  0  0  0  0  0
  -28.9110  -21.4310   22.2260 N   0  0  0  0  0  4  0  0  0  0  0  0
  -29.1110  -22.5080   20.1780 N   0  0  0  0  0  0  0  0  0  0  0  0
  -28.9650  -20.6090   22.8100 H   0  0  0  0  0  0  0  0  0  0  0  0
  -28.6340  -22.2880   22.6710 H   0  0  0  0  0  0  0  0  0  0  0  0
  -29.2570  -22.4150   19.1810 H   0  0  0  0  0  0  0  0  0  0  0  0
  -30.6420  -14.8550   19.9980 C   0  0  0  0  0  0  0  0  0  0  0  0
  -30.4040  -12.6040   18.9380 C   0  0  0  0  0  2  0  0  0  0  0  0
  -29.3870  -12.7220   17.7800 C   0  0  0  0  0  2  0  0  0  0  0  0
  -27.9430  -12.5480   18.2940 C   0  0  0  0  0  2  0  0  0  0  0  0
  -27.6530  -13.4030   19.5560 C   0  0  0  0  0  3  0  0  0  0  0  0
  -28.7760  -13.2480   20.6050 C   0  0  0  0  0  2  0  0  0  0  0  0
  -30.0450  -13.6150   19.9570 N   0  0  0  0  0  0  0  0  0  0  0  0
  -31.7800  -15.0100   19.5390 O   0  0  0  0  0  0  0  0  0  0  0  0
  -30.5200  -19.4950   19.5800 C   0  0  0  0  0  3  0  0  0  0  0  0
  -29.5340  -19.9390   20.4470 C   0  0  0  0  0  0  0  0  0  0  0  0
  -29.9050  -17.3690   20.3130 C   0  0  0  0  0  0  0  0  0  0  0  0
  -30.7230  -18.0800   19.5130 N   0  0  0  0  0  0  0  0  0  0  0  0
  -29.8560  -15.8990   20.4390 N   0  0  0  0  0  0  0  0  0  0  0  0
  -28.7900  -18.4860   21.1700 S   0  0  0  0  0  0  0  0  0  0  0  0
  -29.0130  -15.5720   20.8850 H   0  0  0  0  0  0  0  0  0  0  0  0
  -25.3160  -13.9940   20.4390 C   0  0  0  0  0  0  0  0  0  0  0  0
  -24.2700  -13.2160   20.8600 C   0  0  0  0  0  0  0  0  0  0  0  0
  -24.7210  -11.8640   20.7670 C   0  0  0  0  0  0  0  0  0  0  0  0
  -26.3370  -13.1140   20.1180 N   0  0  0  0  0  0  0  0  0  0  0  0
  -25.9900  -11.8270   20.3750 N   0  0  0  0  0  0  0  0  0  0  0  0
  -24.0010  -10.6000   20.9680 C   0  0  0  0  0  0  0  0  0  0  0  0
  -24.4610   -9.6220   21.8770 C   0  0  0  0  0  3  0  0  0  0  0  0
  -23.7400   -8.4240   22.0660 C   0  0  0  0  0  3  0  0  0  0  0  0
  -22.5430   -8.1940   21.3480 C   0  0  0  0  0  0  0  0  0  0  0  0
  -22.1010   -9.1600   20.4260 C   0  0  0  0  0  3  0  0  0  0  0  0
  -22.8240  -10.3500   20.2340 C   0  0  0  0  0  3  0  0  0  0  0  0
  -21.7890   -7.0510   21.4510 O   0  0  0  0  0  0  0  0  0  0  0  0
  -21.7470   -6.3180   22.6100 C   0  0  0  0  0  0  0  0  0  0  0  0
  -21.2900   -6.8720   23.8250 C   0  0  0  0  0  3  0  0  0  0  0  0
  -21.1970   -6.0640   24.9760 C   0  0  0  0  0  3  0  0  0  0  0  0
  -21.5510   -4.7040   24.9120 C   0  0  0  0  0  0  0  0  0  0  0  0
  -22.0000   -4.1490   23.7020 C   0  0  0  0  0  3  0  0  0  0  0  0
  -22.0960   -4.9530   22.5530 C   0  0  0  0  0  0  0  0  0  0  0  0
  -22.5110   -4.4090   21.3840 F   0  0  0  0  0  0  0  0  0  0  0  0
  -21.4540   -3.9250   26.0150 F   0  0  0  0  0  0  0  0  0  0  0  0
  -22.8950  -13.6920   21.2310 C   0  0  0  0  0  0  0  0  0  0  0  0
  -22.2200  -12.9800   22.1270 N   0  0  0  0  0  0  0  0  0  0  0  0
  -22.4310  -14.7280   20.7600 O   0  0  0  0  0  0  0  0  0  0  0  0
  -22.6100  -12.1410   22.5310 H   0  0  0  0  0  0  0  0  0  0  0  0
  -21.2990  -13.2810   22.4160 H   0  0  0  0  0  0  0  0  0  0  0  0
  -25.4760  -15.3670   20.2790 N   0  0  0  0  0  0  0  0  0  0  0  0
  -24.7080  -16.0140   20.4230 H   0  0  0  0  0  0  0  0  0  0  0  0
  -26.2770  -15.8000   19.8400 H   0  0  0  0  0  0  0  0  0  0  0  0
  -30.5080  -24.4720   20.8580 C   0  0  0  0  0  1  0  0  0  0  0  0
  -29.0710  -23.9680   20.6820 C   0  0  0  0  0  3  0  0  0  0  0  0
  -28.2000  -25.0730   19.8970 C   0  0  0  0  0  2  0  0  0  0  0  0
  -28.3490  -26.5340   20.2310 O   0  0  0  0  0  0  0  0  0  0  0  0
  -24.6340  -31.9500   23.2720 C   0  0  0  0  0  0  0  0  0  0  0  0
  -27.2440  -27.4110   20.1540 C   0  0  0  0  0  0  0  0  0  0  0  0
  -23.4300  -30.5630   21.6210 C   0  0  0  0  0  3  0  0  0  0  0  0
  -24.8830  -29.0440   20.1630 C   0  0  0  0  0  0  0  0  0  0  0  0
  -25.9710  -30.8910   21.4330 C   0  0  0  0  0  2  0  0  0  0  0  0
  -26.0530  -29.5190   20.7680 C   0  0  0  0  0  0  0  0  0  0  0  0
  -27.2350  -28.7130   20.7580 C   0  0  0  0  0  3  0  0  0  0  0  0
  -26.0580  -27.0140   19.4970 C   0  0  0  0  0  3  0  0  0  0  0  0
  -24.8900  -27.8000   19.5150 C   0  0  0  0  0  3  0  0  0  0  0  0
  -23.6420  -29.9130   20.2300 C   0  0  0  0  0  2  0  0  0  0  0  0
  -24.6980  -31.1530   22.1650 N   0  0  0  0  0  0  0  0  0  0  0  0
  -23.5510  -32.2130   23.8150 O   0  0  0  0  0  0  0  0  0  0  0  0
  -22.7800  -29.5290   22.5710 C   0  0  0  0  0  0  0  0  0  0  0  0
  -21.4580  -29.3270   22.4370 N   0  0  0  0  0  0  0  0  0  0  0  0
  -23.4650  -28.9130   23.3930 O   0  0  0  0  0  0  0  0  0  0  0  0
  -20.9620  -29.8810   21.7510 H   0  0  0  0  0  0  0  0  0  0  0  0
  -18.1030  -28.0590   22.9040 C   0  0  0  0  0  0  0  0  0  0  0  0
  -20.6540  -28.3720   23.2000 C   0  0  0  0  0  3  0  0  0  0  0  0
  -20.7910  -26.9430   22.6260 C   0  0  0  0  0  2  0  0  0  0  0  0
  -19.7060  -26.5990   21.5990 C   0  0  0  0  0  2  0  0  0  0  0  0
  -18.3150  -26.7140   22.2310 C   0  0  0  0  0  2  0  0  0  0  0  0
  -19.2020  -28.8430   23.3460 C   0  0  0  0  0  0  0  0  0  0  0  0
  -18.9510  -30.1000   23.9390 C   0  0  0  0  0  3  0  0  0  0  0  0
  -17.6350  -30.5740   24.0930 C   0  0  0  0  0  3  0  0  0  0  0  0
  -16.5500  -29.7870   23.6680 C   0  0  0  0  0  3  0  0  0  0  0  0
  -16.7860  -28.5320   23.0780 C   0  0  0  0  0  3  0  0  0  0  0  0
  -25.9140  -32.5850   23.8950 C   0  0  0  0  0  3  0  0  0  0  0  0
  -25.6050  -33.9870   24.2130 N   0  0  0  0  0  0  0  0  0  0  0  0
  -25.9230  -35.0320   23.4380 C   0  0  0  0  0  0  0  0  0  0  0  0
  -26.5780  -34.9180   22.3990 O   0  0  0  0  0  0  0  0  0  0  0  0
  -25.0200  -34.1500   25.0200 H   0  0  0  0  0  0  0  0  0  0  0  0
  -24.1820  -36.8140   23.0990 C   0  0  0  0  0  1  0  0  0  0  0  0
  -25.4400  -36.4250   23.8880 C   0  0  0  0  0  3  0  0  0  0  0  0
  -27.5840  -37.3340   24.6680 C   0  0  0  0  0  1  0  0  0  0  0  0
  -26.4660  -37.4800   23.7400 N   0  0  0  0  0  0  0  0  0  0  0  0
  -26.0570  -38.4000   23.8780 H   0  0  0  0  0  0  0  0  0  0  0  0
  -26.4250  -31.8220   25.1790 C   0  0  1  0  0  0  0  0  0  0  0  0
  -25.3250  -31.5900   26.2420 C   0  0  0  0  0  1  0  0  0  0  0  0
  -27.0110  -30.4430   24.8000 C   0  0  0  0  0  1  0  0  0  0  0  0
  -27.5700  -32.6210   25.8430 C   0  0  0  0  0  1  0  0  0  0  0  0
  1  2  2  0
  2  5  1  0
  2  4  1  0
  3 51  1  0
  3  1  1  0
  6  3  1  0
  7 19  1  0
  8 13  1  0
  9 10  1  0
  9  8  1  0
 11 10  1  0
 11 25  1  0
 11 12  1  0
 13  7  1  0
 13 12  1  0
 14  7  2  0
 15 16  2  0
 16  1  1  0
 16 20  1  0
 17 19  1  0
 17 20  1  0
 18 15  1  0
 18 17  2  0
 19 21  1  0
 22 23  2  0
 23 42  1  0
 24 23  1  0
 24 27  1  0
 25 26  1  0
 25 22  1  0
 26 24  2  0
 27 28  1  0
 28 29  2  0
 30 33  1  0
 30 29  1  0
 31 30  2  0
 32 31  1  0
 32 27  2  0
 33 34  1  0
 34 35  1  0
 35 36  2  0
 37 36  1  0
 37 41  1  0
 38 37  2  0
 39 34  2  0
 39 38  1  0
 40 39  1  0
 42 43  1  0
 43 46  1  0
 43 45  1  0
 44 42  2  0
 47 48  1  0
 47 22  1  0
 49 47  1  0
 51 50  1  0
 52 53  1  0
 52 51  1  0
 54 65  2  0
 55 53  1  0
 55 60  1  0
 56 64  1  0
 56 66  1  0
 57 63  1  0
 57 59  1  0
 58 64  1  0
 59 58  1  0
 60 59  2  0
 61 62  1  0
 61 55  2  0
 62 57  2  0
 63 56  1  0
 64 54  1  0
 66 68  2  0
 67 66  1  0
 69 67  1  0
 70 79  2  0
 70 75  1  0
 71 67  1  0
 71 75  1  0
 72 71  1  0
 73 74  1  0
 73 72  1  0
 74 70  1  0
 75 76  2  0
 76 77  1  0
 78 77  2  0
 79 78  1  0
 80 54  1  0
 80 81  1  0
 80 90  1  0
 81 84  1  0
 82 86  1  0
 82 81  1  0
 83 82  2  0
 86 85  1  0
 88 89  1  0
 88 86  1  0
 88 87  1  0
 90 93  1  1
 90 91  1  0
 92 90  1  0
M  ISO  4   7 100  19 100  52 101  53 101
M  END
>  <TORSDO>  (56) 
F 18

>  <SCORE>  (56) 
-14.018

>  <name>  (56) 
55

>  <ligand_id>  (56) 
55

>  <original_smiles>  (56) 
[H]c1nc(N([H])C(=O)N2C([H])([H])C([H])([H])C([H])([H])C([H])(n3nc(-c4c([H])c([H])c(Oc5c([H])c([H])c(F)c([H])c5F)c([H])c4[H])c(C(=O)N([H])[H])c3N([H])[H])C2([H])[H])sc1C(N([H])[H])=[N+]([H])C([H])(C([H])([H])[H])C([H])([H])Oc1c([H])c([H])c2c(c1[H])C([H])([H])N(C(=O)C([H])(N([H])C(=O)C([H])(N([H])C([H])([H])[H])C([H])([H])[H])C(C([H])([H])[H])(C([H])([H])[H])C([H])([H])[H])C([H])(C(=O)N([H])C1([H])c3c([H])c([H])c([H])c([H])c3C([H])([H])C([H])([H])C1([H])[H])C2([H])[H]

>  <smiles>  (56) 
[H]c1nc(N([H])C(=O)N2C([H])([H])C([H])([H])C([H])([H])C([H])(n3nc(-c4c([H])c([H])c(Oc5c([H])c([H])c(F)c([H])c5F)c([H])c4[H])c(C(=O)N([H])[H])c3N([H])[H])C2([H])[H])sc1C(N([H])[H])=[N+]([H])C([H])(C([H])([H])[H])C([H])([H])Oc1c([H])c([H])c2c(c1[H])C([H])([H])N(C(=O)C([H])(N([H])C(=O)C([H])(N([H])C([H])([H])[H])C([H])([H])[H])C(C([H])([H])[H])(C([H])([H])[H])C([H])([H])[H])C([H])(C(=O)N([H])C1([H])c3c([H])c([H])c([H])c([H])c3C([H])([H])C([H])([H])C1([H])[H])C2([H])[H]

$$$$
56:0:0
     RDKit          3D

 94102  0  0  1  0  0  0  0  0999 V2000
  -28.8190  -20.3050   20.9030 C   0  0  0  0  0  3  0  0  0  0  0  0
  -30.1980  -21.0140   19.0940 C   0  0  0  0  0  3  0  0  0  0  0  0
  -29.3010  -21.3910   20.1240 C   0  0  0  0  0  0  0  0  0  0  0  0
  -29.2590  -18.9610   20.6890 C   0  0  0  0  0  0  0  0  0  0  0  0
  -30.1890  -18.6940   19.6480 C   0  0  0  0  0  0  0  0  0  0  0  0
  -30.6170  -19.7280   18.8710 N   0  0  0  0  0  0  0  0  0  0  0  0
  -29.1920  -24.0050   19.9740 C   0  0  0  0  0  0  0  0  0  0  0  0
  -28.8630  -22.7590   20.4470 N   0  0  0  0  0  0  0  0  0  0  0  0
  -29.9770  -24.1660   19.0370 O   0  0  0  0  0  0  0  0  0  0  0  0
  -28.1960  -22.8060   21.2070 H   0  0  0  0  0  0  0  0  0  0  0  0
  -28.5170  -25.2520   20.6840 C   0  0  0  0  0  2  0  0  0  0  0  0
  -28.7800  -26.6110   20.1470 O   0  0  0  0  0  0  0  0  0  0  0  0
  -24.8130  -31.7750   23.2690 C   0  0  0  0  0  0  0  0  0  0  0  0
  -27.6640  -27.4540   20.1080 C   0  0  0  0  0  0  0  0  0  0  0  0
  -23.7090  -30.4180   21.5260 C   0  0  0  0  0  3  0  0  0  0  0  0
  -25.2560  -28.9830   20.0810 C   0  0  0  0  0  0  0  0  0  0  0  0
  -26.2400  -30.8260   21.4430 C   0  0  0  0  0  2  0  0  0  0  0  0
  -26.3870  -29.4840   20.7390 C   0  0  0  0  0  0  0  0  0  0  0  0
  -27.5990  -28.7310   20.7420 C   0  0  0  0  0  3  0  0  0  0  0  0
  -26.5170  -27.0100   19.4170 C   0  0  0  0  0  3  0  0  0  0  0  0
  -25.3230  -27.7520   19.4090 C   0  0  0  0  0  3  0  0  0  0  0  0
  -23.9890  -29.8140   20.1250 C   0  0  0  0  0  2  0  0  0  0  0  0
  -24.9370  -31.0210   22.1380 N   0  0  0  0  0  0  0  0  0  0  0  0
  -23.7040  -31.9940   23.7780 O   0  0  0  0  0  0  0  0  0  0  0  0
  -23.0480  -29.3380   22.4160 C   0  0  0  0  0  0  0  0  0  0  0  0
  -21.7300  -29.1390   22.2470 N   0  0  0  0  0  0  0  0  0  0  0  0
  -23.7210  -28.6850   23.2180 O   0  0  0  0  0  0  0  0  0  0  0  0
  -21.2460  -29.7210   21.5770 H   0  0  0  0  0  0  0  0  0  0  0  0
  -18.3610  -27.8840   22.6380 C   0  0  0  0  0  0  0  0  0  0  0  0
  -20.9140  -28.1470   22.9470 C   0  0  0  0  0  3  0  0  0  0  0  0
  -21.0330  -26.7570   22.2810 C   0  0  0  0  0  2  0  0  0  0  0  0
  -19.9430  -26.4920   21.2380 C   0  0  0  0  0  2  0  0  0  0  0  0
  -18.5540  -26.5830   21.8780 C   0  0  0  0  0  2  0  0  0  0  0  0
  -19.4680  -28.6270   23.1260 C   0  0  0  0  0  0  0  0  0  0  0  0
  -19.2330  -29.8460   23.7970 C   0  0  0  0  0  3  0  0  0  0  0  0
  -17.9220  -30.3240   23.9830 C   0  0  0  0  0  3  0  0  0  0  0  0
  -16.8280  -29.5780   23.5110 C   0  0  0  0  0  3  0  0  0  0  0  0
  -17.0480  -28.3600   22.8450 C   0  0  0  0  0  3  0  0  0  0  0  0
  -26.0540  -32.4160   23.9630 C   0  0  0  0  0  3  0  0  0  0  0  0
  -26.5440  -31.6090   25.2280 C   0  0  1  0  0  0  0  0  0  0  0  0
  -25.4150  -31.2780   26.2300 C   0  0  0  0  0  1  0  0  0  0  0  0
  -27.2030  -30.2760   24.8040 C   0  0  0  0  0  1  0  0  0  0  0  0
  -27.6280  -32.4170   25.9770 C   0  0  0  0  0  1  0  0  0  0  0  0
  -25.6940  -33.7910   24.3340 N   0  0  0  0  0  0  0  0  0  0  0  0
  -26.0150  -34.8810   23.6250 C   0  0  0  0  0  0  0  0  0  0  0  0
  -26.7150  -34.8360   22.6090 O   0  0  0  0  0  0  0  0  0  0  0  0
  -25.0740  -33.8990   25.1240 H   0  0  0  0  0  0  0  0  0  0  0  0
  -24.2410  -36.6330   23.2930 C   0  0  0  0  0  1  0  0  0  0  0  0
  -25.4740  -36.2380   24.1190 C   0  0  0  0  0  3  0  0  0  0  0  0
  -27.5540  -37.1600   25.0410 C   0  0  0  0  0  1  0  0  0  0  0  0
  -26.4760  -37.3240   24.0700 N   0  0  0  0  0  0  0  0  0  0  0  0
  -26.0370  -38.2260   24.2340 H   0  0  0  0  0  0  0  0  0  0  0  0
  -28.8110  -17.9470   21.5430 N   0  0  0  0  0  0  0  0  0  0  0  0
  -28.3480  -18.2090   22.4090 H   0  0  0  0  0  0  0  0  0  0  0  0
  -29.3770  -17.1110   21.6450 H   0  0  0  0  0  0  0  0  0  0  0  0
  -30.9450  -17.3260   19.4290 C   0  0  0  0  0  2  0  0  0  0  0  0
  -31.0730  -14.8050   19.4870 C   0  0  0  0  0  0  0  0  0  0  0  0
  -30.7680  -12.4890   18.6510 C   0  0  0  0  0  2  0  0  0  0  0  0
  -29.7090  -12.4860   17.5290 C   0  0  0  0  0  2  0  0  0  0  0  0
  -28.2970  -12.3260   18.1220 C   0  0  0  0  0  2  0  0  0  0  0  0
  -28.0350  -13.2870   19.3140 C   0  0  0  0  0  3  0  0  0  0  0  0
  -29.2060  -13.2940   20.3200 C   0  0  0  0  0  2  0  0  0  0  0  0
  -30.4290  -13.5980   19.5680 N   0  0  0  0  0  0  0  0  0  0  0  0
  -32.2120  -14.8730   19.0210 O   0  0  0  0  0  0  0  0  0  0  0  0
  -30.3710  -15.9610   19.7140 N   0  0  0  0  0  0  0  0  0  0  0  0
  -29.4130  -15.9110   20.0230 H   0  0  0  0  0  0  0  0  0  0  0  0
  -25.7900  -13.8880   20.4030 C   0  0  0  0  0  0  0  0  0  0  0  0
  -24.7550  -13.1170   20.8580 C   0  0  0  0  0  0  0  0  0  0  0  0
  -25.1570  -11.7600   20.6660 C   0  0  0  0  0  0  0  0  0  0  0  0
  -26.7580  -13.0010   19.9640 N   0  0  0  0  0  0  0  0  0  0  0  0
  -26.3920  -11.7110   20.1810 N   0  0  0  0  0  0  0  0  0  0  0  0
  -24.4150  -10.5080   20.8590 C   0  0  0  0  0  0  0  0  0  0  0  0
  -24.8370   -9.5340   21.7900 C   0  0  0  0  0  3  0  0  0  0  0  0
  -24.0940   -8.3480   21.9730 C   0  0  0  0  0  3  0  0  0  0  0  0
  -22.9150   -8.1260   21.2230 C   0  0  0  0  0  0  0  0  0  0  0  0
  -22.5110   -9.0870   20.2800 C   0  0  0  0  0  3  0  0  0  0  0  0
  -23.2540  -10.2650   20.0960 C   0  0  0  0  0  3  0  0  0  0  0  0
  -22.1440   -6.9920   21.3140 O   0  0  0  0  0  0  0  0  0  0  0  0
  -21.9490   -6.3500   22.5110 C   0  0  0  0  0  0  0  0  0  0  0  0
  -21.3300   -6.9890   23.6070 C   0  0  0  0  0  3  0  0  0  0  0  0
  -21.0850   -6.2700   24.7940 C   0  0  0  0  0  3  0  0  0  0  0  0
  -21.4490   -4.9140   24.8840 C   0  0  0  0  0  0  0  0  0  0  0  0
  -22.0600   -4.2740   23.7920 C   0  0  0  0  0  3  0  0  0  0  0  0
  -22.3060   -4.9890   22.6070 C   0  0  0  0  0  0  0  0  0  0  0  0
  -22.8760   -4.3630   21.5490 F   0  0  0  0  0  0  0  0  0  0  0  0
  -21.2070   -4.2200   26.0220 F   0  0  0  0  0  0  0  0  0  0  0  0
  -23.4260  -13.6110   21.3530 C   0  0  0  0  0  0  0  0  0  0  0  0
  -22.8030  -12.8790   22.2690 N   0  0  0  0  0  0  0  0  0  0  0  0
  -22.9560  -14.6790   20.9630 O   0  0  0  0  0  0  0  0  0  0  0  0
  -23.2000  -12.0130   22.6040 H   0  0  0  0  0  0  0  0  0  0  0  0
  -21.9170  -13.1880   22.6420 H   0  0  0  0  0  0  0  0  0  0  0  0
  -25.9800  -15.2620   20.3070 N   0  0  0  0  0  0  0  0  0  0  0  0
  -25.2670  -15.9270   20.5880 H   0  0  0  0  0  0  0  0  0  0  0  0
  -26.8050  -15.7090   19.9280 H   0  0  0  0  0  0  0  0  0  0  0  0
  2  3  1  0
  3  8  1  0
  3  1  2  0
  4  1  1  0
  4 53  1  0
  5  4  2  0
  6  2  2  0
  6  5  1  0
  7  8  1  0
  7 11  1  0
  8 10  1  0
  9  7  2  0
 12 11  1  0
 13 24  2  0
 14 12  1  0
 14 19  1  0
 15 23  1  0
 15 25  1  0
 16 22  1  0
 16 18  1  0
 17 23  1  0
 18 19  2  0
 18 17  1  0
 20 14  2  0
 21 20  1  0
 21 16  2  0
 22 15  1  0
 23 13  1  0
 25 27  2  0
 26 25  1  0
 28 26  1  0
 29 38  2  0
 29 34  1  0
 30 26  1  0
 30 34  1  0
 31 30  1  0
 32 33  1  0
 32 31  1  0
 33 29  1  0
 34 35  2  0
 35 36  1  0
 37 36  2  0
 38 37  1  0
 39 13  1  0
 39 44  1  0
 39 40  1  0
 40 43  1  1
 40 41  1  0
 42 40  1  0
 44 47  1  0
 45 49  1  0
 45 44  1  0
 46 45  2  0
 49 48  1  0
 51 49  1  0
 51 52  1  0
 51 50  1  0
 53 55  1  0
 53 54  1  0
 56  5  1  0
 56 65  1  0
 57 63  1  0
 57 65  1  0
 58 63  1  0
 59 60  1  0
 59 58  1  0
 61 60  1  0
 61 70  1  0
 61 62  1  0
 63 62  1  0
 64 57  2  0
 65 66  1  0
 67 68  2  0
 68 87  1  0
 69 68  1  0
 69 72  1  0
 70 71  1  0
 70 67  1  0
 71 69  2  0
 72 73  1  0
 73 74  2  0
 75 78  1  0
 75 74  1  0
 76 75  2  0
 77 76  1  0
 77 72  2  0
 78 79  1  0
 79 84  2  0
 79 80  1  0
 80 81  2  0
 81 82  1  0
 82 86  1  0
 83 82  2  0
 84 83  1  0
 85 84  1  0
 87 88  1  0
 88 90  1  0
 88 91  1  0
 89 87  2  0
 92 67  1  0
 92 93  1  0
 94 92  1  0
M  ISO  4  11 101  12 101  57 100  65 100
M  END
>  <TORSDO>  (57) 
F 20

>  <SCORE>  (57) 
-12.296

>  <name>  (57) 
56

>  <ligand_id>  (57) 
56

>  <original_smiles>  (57) 
[H]c1nc(C([H])([H])N([H])C(=O)N2C([H])([H])C([H])([H])C([H])([H])C([H])(n3nc(-c4c([H])c([H])c(Oc5c([H])c([H])c(F)c([H])c5F)c([H])c4[H])c(C(=O)N([H])[H])c3N([H])[H])C2([H])[H])c(N([H])[H])c([H])c1N([H])C(=O)C([H])([H])Oc1c([H])c([H])c2c(c1[H])C([H])([H])N(C(=O)C([H])(N([H])C(=O)C([H])(N([H])C([H])([H])[H])C([H])([H])[H])C(C([H])([H])[H])(C([H])([H])[H])C([H])([H])[H])C([H])(C(=O)N([H])C1([H])c3c([H])c([H])c([H])c([H])c3C([H])([H])C([H])([H])C1([H])[H])C2([H])[H]

>  <smiles>  (57) 
[H]c1nc(C([H])([H])N([H])C(=O)N2C([H])([H])C([H])([H])C([H])([H])C([H])(n3nc(-c4c([H])c([H])c(Oc5c([H])c([H])c(F)c([H])c5F)c([H])c4[H])c(C(=O)N([H])[H])c3N([H])[H])C2([H])[H])c(N([H])[H])c([H])c1N([H])C(=O)C([H])([H])Oc1c([H])c([H])c2c(c1[H])C([H])([H])N(C(=O)C([H])(N([H])C(=O)C([H])(N([H])C([H])([H])[H])C([H])([H])[H])C(C([H])([H])[H])(C([H])([H])[H])C([H])([H])[H])C([H])(C(=O)N([H])C1([H])c3c([H])c([H])c([H])c([H])c3C([H])([H])C([H])([H])C1([H])[H])C2([H])[H]

$$$$
57:0:0
     RDKit          3D

 94102  0  0  1  0  0  0  0  0999 V2000
  -30.6090  -14.6990   20.4240 C   0  0  0  0  0  0  0  0  0  0  0  0
  -30.4330  -12.4500   19.3590 C   0  0  0  0  0  2  0  0  0  0  0  0
  -29.5050  -12.5930   18.1290 C   0  0  0  0  0  2  0  0  0  0  0  0
  -28.0220  -12.4480   18.5340 C   0  0  0  0  0  2  0  0  0  0  0  0
  -27.6600  -13.2990   19.7810 C   0  0  0  0  0  3  0  0  0  0  0  0
  -28.7000  -13.1070   20.9070 C   0  0  0  0  0  2  0  0  0  0  0  0
  -30.0150  -13.4600   20.3540 N   0  0  0  0  0  0  0  0  0  0  0  0
  -31.7730  -14.8540   20.0360 O   0  0  0  0  0  0  0  0  0  0  0  0
  -29.6930  -19.3030   21.4570 C   0  0  0  0  0  3  0  0  0  0  0  0
  -29.2810  -19.8860   20.2270 C   0  0  0  0  0  0  0  0  0  0  0  0
  -29.1300  -18.8980   19.2220 C   0  0  0  0  0  0  0  0  0  0  0  0
  -29.7810  -17.1300   20.5810 C   0  0  0  0  0  0  0  0  0  0  0  0
  -29.9170  -17.9610   21.6260 N   0  0  0  0  0  0  0  0  0  0  0  0
  -29.3600  -17.5710   19.3870 N   0  0  0  0  0  0  0  0  0  0  0  0
  -28.6710  -19.2860   17.9690 N   0  0  0  0  0  0  0  0  0  0  0  0
  -29.7990  -15.7380   20.8290 N   0  0  0  0  0  0  0  0  0  0  0  0
  -28.8350  -20.2510   17.7230 H   0  0  0  0  0  0  0  0  0  0  0  0
  -28.8050  -18.6380   17.2060 H   0  0  0  0  0  0  0  0  0  0  0  0
  -28.9350  -15.4080   21.2250 H   0  0  0  0  0  0  0  0  0  0  0  0
  -25.2660  -13.9270   20.4650 C   0  0  0  0  0  0  0  0  0  0  0  0
  -24.1860  -13.1690   20.8290 C   0  0  0  0  0  0  0  0  0  0  0  0
  -24.6330  -11.8120   20.8110 C   0  0  0  0  0  0  0  0  0  0  0  0
  -26.3020  -13.0340   20.2480 N   0  0  0  0  0  0  0  0  0  0  0  0
  -25.9260  -11.7570   20.5150 N   0  0  0  0  0  0  0  0  0  0  0  0
  -23.8920  -10.5590   21.0020 C   0  0  0  0  0  0  0  0  0  0  0  0
  -24.3050   -9.5930   21.9470 C   0  0  0  0  0  3  0  0  0  0  0  0
  -23.5650   -8.4040   22.1240 C   0  0  0  0  0  3  0  0  0  0  0  0
  -22.3980   -8.1740   21.3590 C   0  0  0  0  0  0  0  0  0  0  0  0
  -22.0030   -9.1290   20.4070 C   0  0  0  0  0  3  0  0  0  0  0  0
  -22.7420  -10.3090   20.2260 C   0  0  0  0  0  3  0  0  0  0  0  0
  -21.6290   -7.0380   21.4470 O   0  0  0  0  0  0  0  0  0  0  0  0
  -21.5600   -6.3040   22.6030 C   0  0  0  0  0  0  0  0  0  0  0  0
  -21.1180   -6.8670   23.8200 C   0  0  0  0  0  3  0  0  0  0  0  0
  -20.9970   -6.0580   24.9670 C   0  0  0  0  0  3  0  0  0  0  0  0
  -21.3050   -4.6860   24.8970 C   0  0  0  0  0  0  0  0  0  0  0  0
  -21.7380   -4.1220   23.6830 C   0  0  0  0  0  3  0  0  0  0  0  0
  -21.8600   -4.9280   22.5390 C   0  0  0  0  0  0  0  0  0  0  0  0
  -22.2600   -4.3750   21.3680 F   0  0  0  0  0  0  0  0  0  0  0  0
  -21.1810   -3.9050   25.9950 F   0  0  0  0  0  0  0  0  0  0  0  0
  -22.7910  -13.6650   21.0790 C   0  0  0  0  0  0  0  0  0  0  0  0
  -22.0430  -12.9820   21.9390 N   0  0  0  0  0  0  0  0  0  0  0  0
  -22.3730  -14.6930   20.5480 O   0  0  0  0  0  0  0  0  0  0  0  0
  -22.3940  -12.1540   22.3980 H   0  0  0  0  0  0  0  0  0  0  0  0
  -21.1040  -13.2940   22.1430 H   0  0  0  0  0  0  0  0  0  0  0  0
  -25.4480  -15.2920   20.2750 N   0  0  0  0  0  0  0  0  0  0  0  0
  -24.6750  -15.9450   20.3460 H   0  0  0  0  0  0  0  0  0  0  0  0
  -26.2780  -15.7060   19.8710 H   0  0  0  0  0  0  0  0  0  0  0  0
  -28.9860  -21.2720   19.9200 N   0  0  0  0  0  0  0  0  0  0  0  0
  -28.4570  -21.3840   19.0570 H   0  0  0  0  0  0  0  0  0  0  0  0
  -30.4660  -22.6760   21.3570 C   0  0  0  0  0  1  0  0  0  0  0  0
  -29.0510  -22.5060   20.7720 C   0  0  0  0  0  3  0  0  0  0  0  0
  -28.6360  -23.8630   20.0080 C   0  0  0  0  0  2  0  0  0  0  0  0
  -28.3390  -25.1880   20.8530 C   0  0  0  0  0  2  0  0  0  0  0  0
  -28.4410  -26.5280   20.2310 O   0  0  0  0  0  0  0  0  0  0  0  0
  -24.6160  -31.8680   23.2320 C   0  0  0  0  0  0  0  0  0  0  0  0
  -27.3100  -27.3470   20.2230 C   0  0  0  0  0  0  0  0  0  0  0  0
  -23.4470  -30.4610   21.5730 C   0  0  0  0  0  3  0  0  0  0  0  0
  -24.9290  -28.9160   20.1730 C   0  0  0  0  0  0  0  0  0  0  0  0
  -25.9820  -30.8080   21.4180 C   0  0  0  0  0  2  0  0  0  0  0  0
  -26.0840  -29.4300   20.7780 C   0  0  0  0  0  0  0  0  0  0  0  0
  -27.2820  -28.6570   20.7900 C   0  0  0  0  0  3  0  0  0  0  0  0
  -26.1350  -26.8750   19.6040 C   0  0  0  0  0  3  0  0  0  0  0  0
  -24.9550  -27.6440   19.5780 C   0  0  0  0  0  3  0  0  0  0  0  0
  -23.6850  -29.7820   20.1980 C   0  0  0  0  0  2  0  0  0  0  0  0
  -24.7010  -31.0630   22.1330 N   0  0  0  0  0  0  0  0  0  0  0  0
  -23.5240  -32.1340   23.7550 O   0  0  0  0  0  0  0  0  0  0  0  0
  -22.7800  -29.4390   22.5250 C   0  0  0  0  0  0  0  0  0  0  0  0
  -21.4530  -29.2710   22.3970 N   0  0  0  0  0  0  0  0  0  0  0  0
  -23.4560  -28.8010   23.3370 O   0  0  0  0  0  0  0  0  0  0  0  0
  -20.9690  -29.8370   21.7150 H   0  0  0  0  0  0  0  0  0  0  0  0
  -18.0660  -28.1030   22.9010 C   0  0  0  0  0  0  0  0  0  0  0  0
  -20.6290  -28.3290   23.1580 C   0  0  0  0  0  3  0  0  0  0  0  0
  -20.7110  -26.9060   22.5580 C   0  0  0  0  0  2  0  0  0  0  0  0
  -19.5980  -26.6120   21.5470 C   0  0  0  0  0  2  0  0  0  0  0  0
  -18.2230  -26.7640   22.2030 C   0  0  0  0  0  2  0  0  0  0  0  0
  -19.1960  -28.8450   23.3360 C   0  0  0  0  0  0  0  0  0  0  0  0
  -18.9960  -30.1020   23.9500 C   0  0  0  0  0  3  0  0  0  0  0  0
  -17.6980  -30.6140   24.1340 C   0  0  0  0  0  3  0  0  0  0  0  0
  -16.5820  -29.8680   23.7140 C   0  0  0  0  0  3  0  0  0  0  0  0
  -16.7670  -28.6150   23.1030 C   0  0  0  0  0  3  0  0  0  0  0  0
  -25.8860  -32.5090   23.8740 C   0  0  0  0  0  3  0  0  0  0  0  0
  -26.3750  -31.7530   25.1700 C   0  0  1  0  0  0  0  0  0  0  0  0
  -25.2600  -31.5290   26.2190 C   0  0  0  0  0  1  0  0  0  0  0  0
  -26.9670  -30.3730   24.8040 C   0  0  0  0  0  1  0  0  0  0  0  0
  -27.5110  -32.5560   25.8460 C   0  0  0  0  0  1  0  0  0  0  0  0
  -25.5670  -33.9090   24.1840 N   0  0  0  0  0  0  0  0  0  0  0  0
  -25.9110  -34.9570   23.4220 C   0  0  0  0  0  0  0  0  0  0  0  0
  -26.6000  -34.8450   22.4050 O   0  0  0  0  0  0  0  0  0  0  0  0
  -24.9600  -34.0670   24.9740 H   0  0  0  0  0  0  0  0  0  0  0  0
  -24.1920  -36.7470   23.0140 C   0  0  0  0  0  1  0  0  0  0  0  0
  -25.4130  -36.3490   23.8590 C   0  0  0  0  0  3  0  0  0  0  0  0
  -27.5240  -37.2420   24.7380 C   0  0  0  0  0  1  0  0  0  0  0  0
  -26.4480  -37.4010   23.7650 N   0  0  0  0  0  0  0  0  0  0  0  0
  -26.0380  -38.3230   23.8920 H   0  0  0  0  0  0  0  0  0  0  0  0
  1 16  1  0
  2  7  1  0
  3  4  1  0
  3  2  1  0
  5  4  1  0
  5 23  1  0
  5  6  1  0
  7  1  1  0
  7  6  1  0
  8  1  2  0
  9 13  1  0
 10  9  2  0
 11 14  2  0
 11 10  1  0
 12 16  1  0
 12 13  2  0
 14 12  1  0
 15 11  1  0
 16 19  1  0
 17 15  1  0
 18 15  1  0
 20 21  2  0
 21 40  1  0
 22 21  1  0
 22 25  1  0
 23 20  1  0
 23 24  1  0
 24 22  2  0
 25 26  1  0
 26 27  2  0
 28 31  1  0
 28 27  1  0
 29 28  2  0
 30 29  1  0
 30 25  2  0
 31 32  1  0
 32 33  1  0
 33 34  2  0
 35 34  1  0
 35 39  1  0
 36 35  2  0
 37 32  2  0
 37 36  1  0
 38 37  1  0
 40 41  1  0
 41 44  1  0
 41 43  1  0
 42 40  2  0
 45 46  1  0
 45 20  1  0
 47 45  1  0
 48 10  1  0
 48 51  1  0
 49 48  1  0
 51 50  1  0
 52 51  1  0
 52 53  1  0
 54 53  1  0
 55 66  2  0
 56 54  1  0
 56 61  1  0
 57 65  1  0
 57 67  1  0
 58 64  1  0
 58 60  1  0
 59 65  1  0
 60 61  2  0
 60 59  1  0
 62 56  2  0
 63 62  1  0
 63 58  2  0
 64 57  1  0
 65 55  1  0
 67 69  2  0
 68 67  1  0
 70 68  1  0
 71 80  2  0
 71 76  1  0
 72 68  1  0
 72 76  1  0
 73 72  1  0
 74 75  1  0
 74 73  1  0
 75 71  1  0
 76 77  2  0
 77 78  1  0
 79 78  2  0
 80 79  1  0
 81 55  1  0
 81 86  1  0
 81 82  1  0
 82 85  1  1
 82 83  1  0
 84 82  1  0
 86 89  1  0
 87 91  1  0
 87 86  1  0
 88 87  2  0
 91 90  1  0
 93 91  1  0
 93 94  1  0
 93 92  1  0
M  ISO  4   1 100  16 100  53 101  54 101
M  END
>  <TORSDO>  (58) 
F 19

>  <SCORE>  (58) 
-13.942

>  <name>  (58) 
57

>  <ligand_id>  (58) 
57

>  <original_smiles>  (58) 
[H]c1nc(N([H])C(=O)N2C([H])([H])C([H])([H])C([H])([H])C([H])(n3nc(-c4c([H])c([H])c(Oc5c([H])c([H])c(F)c([H])c5F)c([H])c4[H])c(C(=O)N([H])[H])c3N([H])[H])C2([H])[H])nc(N([H])[H])c1N([H])C([H])(C([H])([H])[H])C([H])([H])C([H])([H])Oc1c([H])c([H])c2c(c1[H])C([H])([H])N(C(=O)C([H])(N([H])C(=O)C([H])(N([H])C([H])([H])[H])C([H])([H])[H])C(C([H])([H])[H])(C([H])([H])[H])C([H])([H])[H])C([H])(C(=O)N([H])C1([H])c3c([H])c([H])c([H])c([H])c3C([H])([H])C([H])([H])C1([H])[H])C2([H])[H]

>  <smiles>  (58) 
[H]c1nc(N([H])C(=O)N2C([H])([H])C([H])([H])C([H])([H])C([H])(n3nc(-c4c([H])c([H])c(Oc5c([H])c([H])c(F)c([H])c5F)c([H])c4[H])c(C(=O)N([H])[H])c3N([H])[H])C2([H])[H])nc(N([H])[H])c1N([H])C([H])(C([H])([H])[H])C([H])([H])C([H])([H])Oc1c([H])c([H])c2c(c1[H])C([H])([H])N(C(=O)C([H])(N([H])C(=O)C([H])(N([H])C([H])([H])[H])C([H])([H])[H])C(C([H])([H])[H])(C([H])([H])[H])C([H])([H])[H])C([H])(C(=O)N([H])C1([H])c3c([H])c([H])c([H])c([H])c3C([H])([H])C([H])([H])C1([H])[H])C2([H])[H]

$$$$
58:0:0
     RDKit          3D

 92100  0  0  1  0  0  0  0  0999 V2000
  -28.8950  -22.8520   20.7370 C   0  0  0  0  0  3  0  0  0  0  0  0
  -28.0670  -24.0490   18.6290 C   0  0  0  0  0  1  0  0  0  0  0  0
  -30.3420  -24.5780   19.5480 C   0  0  0  0  0  1  0  0  0  0  0  0
  -28.8950  -24.1980   19.9190 C   0  0  2  0  0  0  0  0  0  0  0  0
  -28.2680  -25.3660   20.7610 C   0  0  0  0  0  2  0  0  0  0  0  0
  -28.3560  -26.6730   20.1410 O   0  0  0  0  0  0  0  0  0  0  0  0
  -24.5950  -31.8950   23.2380 C   0  0  0  0  0  0  0  0  0  0  0  0
  -27.2050  -27.4380   20.1510 C   0  0  0  0  0  0  0  0  0  0  0  0
  -23.3770  -30.4920   21.6070 C   0  0  0  0  0  3  0  0  0  0  0  0
  -24.8180  -28.9690   20.1550 C   0  0  0  0  0  0  0  0  0  0  0  0
  -25.9010  -30.8540   21.3890 C   0  0  0  0  0  2  0  0  0  0  0  0
  -25.9830  -29.4860   20.7380 C   0  0  0  0  0  0  0  0  0  0  0  0
  -27.1830  -28.7340   20.7250 C   0  0  0  0  0  3  0  0  0  0  0  0
  -26.0270  -26.9420   19.5570 C   0  0  0  0  0  3  0  0  0  0  0  0
  -24.8370  -27.6960   19.5580 C   0  0  0  0  0  3  0  0  0  0  0  0
  -23.5730  -29.8270   20.2180 C   0  0  0  0  0  2  0  0  0  0  0  0
  -24.6420  -31.0940   22.1370 N   0  0  0  0  0  0  0  0  0  0  0  0
  -23.5180  -32.1730   23.7840 O   0  0  0  0  0  0  0  0  0  0  0  0
  -22.7360  -29.4650   22.5690 C   0  0  0  0  0  0  0  0  0  0  0  0
  -21.4120  -29.2790   22.4470 N   0  0  0  0  0  0  0  0  0  0  0  0
  -23.4240  -28.8460   23.3870 O   0  0  0  0  0  0  0  0  0  0  0  0
  -20.9250  -29.8210   21.7490 H   0  0  0  0  0  0  0  0  0  0  0  0
  -18.0380  -28.0840   22.9480 C   0  0  0  0  0  0  0  0  0  0  0  0
  -20.5960  -28.3450   23.2210 C   0  0  0  0  0  3  0  0  0  0  0  0
  -20.7020  -26.9140   22.6450 C   0  0  0  0  0  2  0  0  0  0  0  0
  -19.5990  -26.5880   21.6340 C   0  0  0  0  0  2  0  0  0  0  0  0
  -18.2150  -26.7340   22.2730 C   0  0  0  0  0  2  0  0  0  0  0  0
  -19.1570  -28.8490   23.3760 C   0  0  0  0  0  0  0  0  0  0  0  0
  -18.9340  -30.1140   23.9580 C   0  0  0  0  0  3  0  0  0  0  0  0
  -17.6280  -30.6140   24.1230 C   0  0  0  0  0  3  0  0  0  0  0  0
  -16.5250  -29.8430   23.7140 C   0  0  0  0  0  3  0  0  0  0  0  0
  -16.7320  -28.5810   23.1310 C   0  0  0  0  0  3  0  0  0  0  0  0
  -25.8900  -32.5200   23.8480 C   0  0  0  0  0  3  0  0  0  0  0  0
  -26.4190  -31.7430   25.1150 C   0  0  1  0  0  0  0  0  0  0  0  0
  -25.3370  -31.4970   26.1920 C   0  0  0  0  0  1  0  0  0  0  0  0
  -27.0030  -30.3680   24.7100 C   0  0  0  0  0  1  0  0  0  0  0  0
  -27.5750  -32.5360   25.7700 C   0  0  0  0  0  1  0  0  0  0  0  0
  -25.5860  -33.9170   24.1850 N   0  0  0  0  0  0  0  0  0  0  0  0
  -25.9090  -34.9720   23.4220 C   0  0  0  0  0  0  0  0  0  0  0  0
  -26.5730  -34.8730   22.3880 O   0  0  0  0  0  0  0  0  0  0  0  0
  -25.0000  -34.0680   24.9930 H   0  0  0  0  0  0  0  0  0  0  0  0
  -24.1770  -36.7620   23.0800 C   0  0  0  0  0  1  0  0  0  0  0  0
  -25.4220  -36.3580   23.8840 C   0  0  0  0  0  3  0  0  0  0  0  0
  -27.5580  -37.2390   24.7100 C   0  0  0  0  0  1  0  0  0  0  0  0
  -26.4520  -37.4130   23.7710 N   0  0  0  0  0  0  0  0  0  0  0  0
  -26.0480  -38.3320   23.9250 H   0  0  0  0  0  0  0  0  0  0  0  0
  -29.4320  -21.5690   20.0120 C   0  0  0  0  0  3  0  0  0  0  0  0
  -30.5800  -20.5160   21.9600 C   0  0  0  0  0  1  0  0  0  0  0  0
  -29.6120  -20.3770   20.8710 N   0  0  0  0  0  0  0  0  0  0  0  0
  -30.6350  -14.5020   20.4590 C   0  0  0  0  0  0  0  0  0  0  0  0
  -30.3500  -12.3300   19.3350 C   0  0  0  0  0  2  0  0  0  0  0  0
  -29.4260  -12.5610   18.1220 C   0  0  0  0  0  2  0  0  0  0  0  0
  -27.9470  -12.4250   18.5370 C   0  0  0  0  0  2  0  0  0  0  0  0
  -27.6060  -13.2470   19.8100 C   0  0  0  0  0  3  0  0  0  0  0  0
  -28.6520  -13.0150   20.9260 C   0  0  0  0  0  2  0  0  0  0  0  0
  -29.9840  -13.3090   20.3700 N   0  0  0  0  0  0  0  0  0  0  0  0
  -31.7410  -14.6990   19.9520 O   0  0  0  0  0  0  0  0  0  0  0  0
  -28.9300  -18.6820   19.1380 C   0  0  0  0  0  3  0  0  0  0  0  0
  -29.4520  -19.0480   20.3600 C   0  0  0  0  0  0  0  0  0  0  0  0
  -29.6970  -16.7530   20.4530 C   0  0  0  0  0  0  0  0  0  0  0  0
  -29.8480  -17.9150   21.1100 N   0  0  0  0  0  0  0  0  0  0  0  0
  -29.9510  -15.4920   21.0620 N   0  0  0  0  0  0  0  0  0  0  0  0
  -28.9960  -16.9550   18.8550 S   0  0  0  0  0  0  0  0  0  0  0  0
  -29.1860  -15.1560   21.6220 H   0  0  0  0  0  0  0  0  0  0  0  0
  -25.2080  -13.8610   20.5080 C   0  0  0  0  0  0  0  0  0  0  0  0
  -24.1390  -13.0910   20.8790 C   0  0  0  0  0  0  0  0  0  0  0  0
  -24.5960  -11.7390   20.8560 C   0  0  0  0  0  0  0  0  0  0  0  0
  -26.2510  -12.9760   20.2820 N   0  0  0  0  0  0  0  0  0  0  0  0
  -25.8860  -11.6950   20.5500 N   0  0  0  0  0  0  0  0  0  0  0  0
  -23.8680  -10.4800   21.0510 C   0  0  0  0  0  0  0  0  0  0  0  0
  -24.3140   -9.5090   21.9740 C   0  0  0  0  0  3  0  0  0  0  0  0
  -23.5880   -8.3110   22.1580 C   0  0  0  0  0  3  0  0  0  0  0  0
  -22.4030   -8.0790   21.4210 C   0  0  0  0  0  0  0  0  0  0  0  0
  -21.9780   -9.0400   20.4880 C   0  0  0  0  0  3  0  0  0  0  0  0
  -22.7020  -10.2280   20.3010 C   0  0  0  0  0  3  0  0  0  0  0  0
  -21.6480   -6.9340   21.5140 O   0  0  0  0  0  0  0  0  0  0  0  0
  -21.6280   -6.1760   22.6560 C   0  0  0  0  0  0  0  0  0  0  0  0
  -21.2520   -6.7190   23.9050 C   0  0  0  0  0  3  0  0  0  0  0  0
  -21.1760   -5.8860   25.0390 C   0  0  0  0  0  3  0  0  0  0  0  0
  -21.4680   -4.5130   24.9280 C   0  0  0  0  0  0  0  0  0  0  0  0
  -21.8350   -3.9700   23.6840 C   0  0  0  0  0  3  0  0  0  0  0  0
  -21.9130   -4.8000   22.5510 C   0  0  0  0  0  0  0  0  0  0  0  0
  -22.2470   -4.2680   21.3510 F   0  0  0  0  0  0  0  0  0  0  0  0
  -21.3880   -3.7110   26.0160 F   0  0  0  0  0  0  0  0  0  0  0  0
  -22.7420  -13.5730   21.1470 C   0  0  0  0  0  0  0  0  0  0  0  0
  -22.0140  -12.8820   22.0170 N   0  0  0  0  0  0  0  0  0  0  0  0
  -22.3050  -14.5940   20.6170 O   0  0  0  0  0  0  0  0  0  0  0  0
  -22.3820  -12.0610   22.4730 H   0  0  0  0  0  0  0  0  0  0  0  0
  -21.0710  -13.1800   22.2260 H   0  0  0  0  0  0  0  0  0  0  0  0
  -25.3760  -15.2300   20.3240 N   0  0  0  0  0  0  0  0  0  0  0  0
  -24.6020  -15.8790   20.4030 H   0  0  0  0  0  0  0  0  0  0  0  0
  -26.2230  -15.6710   19.9890 H   0  0  0  0  0  0  0  0  0  0  0  0
  4  2  1  6
  3  4  1  0
  4  1  1  0
  4  5  1  0
  6  8  1  0
  6  5  1  0
  7 18  2  0
  8 13  1  0
  9 17  1  0
  9 19  1  0
 10 16  1  0
 10 12  1  0
 11 17  1  0
 12 11  1  0
 13 12  2  0
 14 15  1  0
 14  8  2  0
 15 10  2  0
 16  9  1  0
 17  7  1  0
 19 21  2  0
 20 19  1  0
 22 20  1  0
 23 32  2  0
 23 28  1  0
 24 20  1  0
 24 28  1  0
 25 24  1  0
 26 27  1  0
 26 25  1  0
 27 23  1  0
 28 29  2  0
 29 30  1  0
 31 30  2  0
 32 31  1  0
 33  7  1  0
 33 38  1  0
 33 34  1  0
 34 37  1  1
 34 35  1  0
 36 34  1  0
 38 41  1  0
 39 43  1  0
 39 38  1  0
 40 39  2  0
 43 42  1  0
 45 43  1  0
 45 46  1  0
 45 44  1  0
 47  1  2  0
 47 49  1  0
 49 48  1  0
 50 62  1  0
 51 56  1  0
 52 53  1  0
 52 51  1  0
 54 53  1  0
 54 68  1  0
 54 55  1  0
 56 50  1  0
 56 55  1  0
 57 50  2  0
 58 59  2  0
 59 49  1  0
 59 61  1  0
 60 62  1  0
 60 61  2  0
 62 64  1  0
 63 58  1  0
 63 60  1  0
 65 66  2  0
 66 85  1  0
 67 66  1  0
 67 70  1  0
 68 65  1  0
 68 69  1  0
 69 67  2  0
 70 71  1  0
 71 72  2  0
 73 76  1  0
 73 72  1  0
 74 73  2  0
 75 74  1  0
 75 70  2  0
 76 77  1  0
 77 78  1  0
 78 79  2  0
 80 79  1  0
 80 84  1  0
 81 80  2  0
 82 77  2  0
 82 81  1  0
 83 82  1  0
 85 86  1  0
 86 89  1  0
 86 88  1  0
 87 85  2  0
 90 91  1  0
 90 65  1  0
 92 90  1  0
M  ISO  4   5 101   6 101  50 100  62 100
M  END
>  <TORSDO>  (59) 
F 20

>  <SCORE>  (59) 
-13.920

>  <name>  (59) 
58

>  <ligand_id>  (59) 
58

>  <original_smiles>  (59) 
[H]c1sc(N([H])C(=O)N2C([H])([H])C([H])([H])C([H])([H])C([H])(n3nc(-c4c([H])c([H])c(Oc5c([H])c([H])c(F)c([H])c5F)c([H])c4[H])c(C(=O)N([H])[H])c3N([H])[H])C2([H])[H])nc1N(C([H])([H])[H])C([H])([H])C([H])([H])C(C([H])([H])[H])(C([H])([H])[H])C([H])([H])Oc1c([H])c([H])c2c(c1[H])C([H])([H])N(C(=O)C([H])(N([H])C(=O)C([H])(N([H])C([H])([H])[H])C([H])([H])[H])C(C([H])([H])[H])(C([H])([H])[H])C([H])([H])[H])C([H])(C(=O)N([H])C1([H])c3c([H])c([H])c([H])c([H])c3C([H])([H])C([H])([H])C1([H])[H])C2([H])[H]

>  <smiles>  (59) 
[H]c1sc(N([H])C(=O)N2C([H])([H])C([H])([H])C([H])([H])C([H])(n3nc(-c4c([H])c([H])c(Oc5c([H])c([H])c(F)c([H])c5F)c([H])c4[H])c(C(=O)N([H])[H])c3N([H])[H])C2([H])[H])nc1N(C([H])([H])[H])C([H])([H])C([H])([H])C(C([H])([H])[H])(C([H])([H])[H])C([H])([H])Oc1c([H])c([H])c2c(c1[H])C([H])([H])N(C(=O)C([H])(N([H])C(=O)C([H])(N([H])C([H])([H])[H])C([H])([H])[H])C(C([H])([H])[H])(C([H])([H])[H])C([H])([H])[H])C([H])(C(=O)N([H])C1([H])c3c([H])c([H])c([H])c([H])c3C([H])([H])C([H])([H])C1([H])[H])C2([H])[H]

$$$$
59:0:0
     RDKit          3D

 95103  0  0  1  0  0  0  0  0999 V2000
  -30.1190  -22.1740   20.6920 C   0  0  0  0  0  3  0  0  0  0  0  0
  -30.9370  -17.5020   21.8310 C   0  0  0  0  0  3  0  0  0  0  0  0
  -29.3970  -19.0860   20.2760 C   0  0  0  0  0  3  0  0  0  0  0  0
  -30.0660  -16.9250   20.8760 C   0  0  0  0  0  0  0  0  0  0  0  0
  -30.2780  -19.6450   21.2380 C   0  0  0  0  0  0  0  0  0  0  0  0
  -29.2900  -17.7380   20.1020 N   0  0  0  0  0  0  0  0  0  0  0  0
  -31.0480  -18.8440   22.0050 N   0  0  0  0  0  0  0  0  0  0  0  0
  -30.4220  -21.0100   21.5430 N   0  0  0  0  0  0  0  0  0  0  0  0
  -31.1480  -21.1910   22.2270 H   0  0  0  0  0  0  0  0  0  0  0  0
  -30.6280  -14.5560   20.2780 C   0  0  0  0  0  0  0  0  0  0  0  0
  -30.3490  -12.4070   19.0710 C   0  0  0  0  0  2  0  0  0  0  0  0
  -29.3600  -12.5990   17.9000 C   0  0  0  0  0  2  0  0  0  0  0  0
  -27.8970  -12.4530   18.3740 C   0  0  0  0  0  2  0  0  0  0  0  0
  -27.6000  -13.2790   19.6510 C   0  0  0  0  0  3  0  0  0  0  0  0
  -28.6820  -13.0240   20.7230 C   0  0  0  0  0  2  0  0  0  0  0  0
  -29.9900  -13.3600   20.1350 N   0  0  0  0  0  0  0  0  0  0  0  0
  -31.7440  -14.7780   19.7940 O   0  0  0  0  0  0  0  0  0  0  0  0
  -29.8900  -15.5110   20.8860 N   0  0  0  0  0  0  0  0  0  0  0  0
  -28.9950  -15.1970   21.2210 H   0  0  0  0  0  0  0  0  0  0  0  0
  -25.2220  -13.8920   20.4190 C   0  0  0  0  0  0  0  0  0  0  0  0
  -24.1650  -13.1160   20.8150 C   0  0  0  0  0  0  0  0  0  0  0  0
  -24.6250  -11.7660   20.7670 C   0  0  0  0  0  0  0  0  0  0  0  0
  -26.2590  -13.0090   20.1590 N   0  0  0  0  0  0  0  0  0  0  0  0
  -25.9060  -11.7270   20.4290 N   0  0  0  0  0  0  0  0  0  0  0  0
  -23.9050  -10.5020   20.9660 C   0  0  0  0  0  0  0  0  0  0  0  0
  -24.3430   -9.5450   21.9090 C   0  0  0  0  0  3  0  0  0  0  0  0
  -23.6230   -8.3450   22.0960 C   0  0  0  0  0  3  0  0  0  0  0  0
  -22.4530   -8.0970   21.3410 C   0  0  0  0  0  0  0  0  0  0  0  0
  -22.0340   -9.0420   20.3880 C   0  0  0  0  0  3  0  0  0  0  0  0
  -22.7530  -10.2340   20.1990 C   0  0  0  0  0  3  0  0  0  0  0  0
  -21.7020   -6.9500   21.4410 O   0  0  0  0  0  0  0  0  0  0  0  0
  -21.6400   -6.2310   22.6070 C   0  0  0  0  0  0  0  0  0  0  0  0
  -21.1610   -6.7960   23.8080 C   0  0  0  0  0  3  0  0  0  0  0  0
  -21.0490   -5.9980   24.9660 C   0  0  0  0  0  3  0  0  0  0  0  0
  -21.4080   -4.6380   24.9210 C   0  0  0  0  0  0  0  0  0  0  0  0
  -21.8800   -4.0720   23.7230 C   0  0  0  0  0  3  0  0  0  0  0  0
  -21.9940   -4.8670   22.5690 C   0  0  0  0  0  0  0  0  0  0  0  0
  -22.4300   -4.3120   21.4130 F   0  0  0  0  0  0  0  0  0  0  0  0
  -21.2910   -3.8680   26.0290 F   0  0  0  0  0  0  0  0  0  0  0  0
  -22.7750  -13.5910   21.1250 C   0  0  0  0  0  0  0  0  0  0  0  0
  -22.0720  -12.8840   22.0040 N   0  0  0  0  0  0  0  0  0  0  0  0
  -22.3230  -14.6200   20.6270 O   0  0  0  0  0  0  0  0  0  0  0  0
  -22.4500  -12.0480   22.4230 H   0  0  0  0  0  0  0  0  0  0  0  0
  -21.1440  -13.1820   22.2630 H   0  0  0  0  0  0  0  0  0  0  0  0
  -25.3770  -15.2630   20.2440 N   0  0  0  0  0  0  0  0  0  0  0  0
  -24.6000  -15.9020   20.3760 H   0  0  0  0  0  0  0  0  0  0  0  0
  -26.2030  -15.7180   19.8740 H   0  0  0  0  0  0  0  0  0  0  0  0
  -31.4510  -21.6250   18.5770 C   0  0  0  0  0  1  0  0  0  0  0  0
  -31.7680  -23.9110   19.5130 C   0  0  0  0  0  1  0  0  0  0  0  0
  -31.4300  -22.4610   19.8730 C   0  0  0  0  0  3  0  0  0  0  0  0
  -28.0700  -22.7730   22.0770 C   0  0  0  0  0  1  0  0  0  0  0  0
  -29.4730  -23.2670   21.6540 C   0  0  0  0  0  3  0  0  0  0  0  0
  -29.3630  -24.7970   21.3080 C   0  0  0  0  0  2  0  0  0  0  0  0
  -28.2950  -25.2910   20.3110 C   0  0  0  0  0  2  0  0  0  0  0  0
  -28.4090  -26.7240   20.2120 O   0  0  0  0  0  0  0  0  0  0  0  0
  -24.5580  -31.8790   23.2410 C   0  0  0  0  0  0  0  0  0  0  0  0
  -27.2370  -27.4510   20.1740 C   0  0  0  0  0  0  0  0  0  0  0  0
  -23.3740  -30.4780   21.5870 C   0  0  0  0  0  3  0  0  0  0  0  0
  -24.8390  -28.9520   20.1630 C   0  0  0  0  0  0  0  0  0  0  0  0
  -25.8940  -30.8520   21.3970 C   0  0  0  0  0  2  0  0  0  0  0  0
  -25.9900  -29.4800   20.7590 C   0  0  0  0  0  0  0  0  0  0  0  0
  -27.1950  -28.7410   20.7510 C   0  0  0  0  0  3  0  0  0  0  0  0
  -26.0680  -26.9400   19.5660 C   0  0  0  0  0  3  0  0  0  0  0  0
  -24.8730  -27.6840   19.5580 C   0  0  0  0  0  3  0  0  0  0  0  0
  -23.5930  -29.8070   20.2050 C   0  0  0  0  0  2  0  0  0  0  0  0
  -24.6280  -31.0850   22.1340 N   0  0  0  0  0  0  0  0  0  0  0  0
  -23.4680  -32.1450   23.7700 O   0  0  0  0  0  0  0  0  0  0  0  0
  -22.7180  -29.4510   22.5360 C   0  0  0  0  0  0  0  0  0  0  0  0
  -21.3940  -29.2730   22.3950 N   0  0  0  0  0  0  0  0  0  0  0  0
  -23.3950  -28.8240   23.3550 O   0  0  0  0  0  0  0  0  0  0  0  0
  -20.9140  -29.8360   21.7070 H   0  0  0  0  0  0  0  0  0  0  0  0
  -18.0020  -28.1070   22.8620 C   0  0  0  0  0  0  0  0  0  0  0  0
  -20.5630  -28.3290   23.1430 C   0  0  0  0  0  3  0  0  0  0  0  0
  -20.6480  -26.9100   22.5370 C   0  0  0  0  0  2  0  0  0  0  0  0
  -19.5440  -26.6190   21.5160 C   0  0  0  0  0  2  0  0  0  0  0  0
  -18.1650  -26.7670   22.1660 C   0  0  0  0  0  2  0  0  0  0  0  0
  -19.1290  -28.8490   23.3050 C   0  0  0  0  0  0  0  0  0  0  0  0
  -18.9270  -30.1060   23.9150 C   0  0  0  0  0  3  0  0  0  0  0  0
  -17.6280  -30.6210   24.0890 C   0  0  0  0  0  3  0  0  0  0  0  0
  -16.5140  -29.8740   23.6640 C   0  0  0  0  0  3  0  0  0  0  0  0
  -16.7030  -28.6190   23.0580 C   0  0  0  0  0  3  0  0  0  0  0  0
  -25.8360  -32.5090   23.8800 C   0  0  0  0  0  3  0  0  0  0  0  0
  -25.5280  -33.9110   24.1970 N   0  0  0  0  0  0  0  0  0  0  0  0
  -25.8760  -34.9560   23.4340 C   0  0  0  0  0  0  0  0  0  0  0  0
  -26.5670  -34.8410   22.4180 O   0  0  0  0  0  0  0  0  0  0  0  0
  -24.9170  -34.0740   24.9820 H   0  0  0  0  0  0  0  0  0  0  0  0
  -24.1710  -36.7600   23.0160 C   0  0  0  0  0  1  0  0  0  0  0  0
  -25.3830  -36.3510   23.8690 C   0  0  0  0  0  3  0  0  0  0  0  0
  -27.4950  -37.2290   24.7630 C   0  0  0  0  0  1  0  0  0  0  0  0
  -26.4270  -37.3960   23.7810 N   0  0  0  0  0  0  0  0  0  0  0  0
  -26.0230  -38.3210   23.9060 H   0  0  0  0  0  0  0  0  0  0  0  0
  -26.3260  -31.7410   25.1680 C   0  0  1  0  0  0  0  0  0  0  0  0
  -25.2190  -31.5090   26.2230 C   0  0  0  0  0  1  0  0  0  0  0  0
  -26.9110  -30.3620   24.7840 C   0  0  0  0  0  1  0  0  0  0  0  0
  -27.4680  -32.5340   25.8490 C   0  0  0  0  0  1  0  0  0  0  0  0
  1 50  1  0
  1  8  1  0
  1 52  1  0
  2  7  1  0
  3  5  1  0
  4 18  1  0
  4  2  2  0
  5  8  1  0
  5  7  2  0
  6  3  2  0
  6  4  1  0
  8  9  1  0
 10 18  1  0
 11 16  1  0
 12 13  1  0
 12 11  1  0
 14 13  1  0
 14 23  1  0
 14 15  1  0
 16 10  1  0
 16 15  1  0
 17 10  2  0
 18 19  1  0
 20 21  2  0
 21 40  1  0
 22 21  1  0
 22 25  1  0
 23 20  1  0
 23 24  1  0
 24 22  2  0
 25 26  1  0
 26 27  2  0
 28 31  1  0
 28 27  1  0
 29 28  2  0
 30 29  1  0
 30 25  2  0
 31 32  1  0
 32 33  1  0
 33 34  2  0
 35 34  1  0
 35 39  1  0
 36 35  2  0
 37 32  2  0
 37 36  1  0
 38 37  1  0
 40 41  1  0
 41 44  1  0
 41 43  1  0
 42 40  2  0
 45 46  1  0
 45 20  1  0
 47 45  1  0
 48 50  1  0
 49 50  1  0
 52 51  1  0
 53 52  1  0
 54 53  1  0
 55 54  1  0
 56 67  2  0
 57 55  1  0
 57 62  1  0
 58 66  1  0
 58 68  1  0
 59 65  1  0
 59 61  1  0
 60 66  1  0
 61 60  1  0
 62 61  2  0
 63 57  2  0
 64 63  1  0
 64 59  2  0
 65 58  1  0
 66 56  1  0
 68 70  2  0
 69 68  1  0
 71 69  1  0
 72 81  2  0
 72 77  1  0
 73 69  1  0
 73 77  1  0
 74 73  1  0
 75 76  1  0
 75 74  1  0
 76 72  1  0
 77 78  2  0
 78 79  1  0
 80 79  2  0
 81 80  1  0
 82 56  1  0
 82 83  1  0
 82 92  1  0
 83 86  1  0
 84 88  1  0
 84 83  1  0
 85 84  2  0
 88 87  1  0
 90 88  1  0
 90 91  1  0
 90 89  1  0
 92 95  1  1
 92 93  1  0
 94 92  1  0
M  ISO  4  10 100  18 100  54 101  55 101
M  END
>  <TORSDO>  (60) 
F 21

>  <SCORE>  (60) 
-13.741

>  <name>  (60) 
59

>  <ligand_id>  (60) 
59

>  <original_smiles>  (60) 
[H]c1nc(N([H])C([H])(C([H])(C([H])([H])[H])C([H])([H])[H])C([H])(C([H])([H])[H])C([H])([H])C([H])([H])Oc2c([H])c([H])c3c(c2[H])C([H])([H])N(C(=O)C([H])(N([H])C(=O)C([H])(N([H])C([H])([H])[H])C([H])([H])[H])C(C([H])([H])[H])(C([H])([H])[H])C([H])([H])[H])C([H])(C(=O)N([H])C2([H])c4c([H])c([H])c([H])c([H])c4C([H])([H])C([H])([H])C2([H])[H])C3([H])[H])c([H])nc1N([H])C(=O)N1C([H])([H])C([H])([H])C([H])([H])C([H])(n2nc(-c3c([H])c([H])c(Oc4c([H])c([H])c(F)c([H])c4F)c([H])c3[H])c(C(=O)N([H])[H])c2N([H])[H])C1([H])[H]

>  <smiles>  (60) 
[H]c1nc(N([H])C([H])(C([H])(C([H])([H])[H])C([H])([H])[H])C([H])(C([H])([H])[H])C([H])([H])C([H])([H])Oc2c([H])c([H])c3c(c2[H])C([H])([H])N(C(=O)C([H])(N([H])C(=O)C([H])(N([H])C([H])([H])[H])C([H])([H])[H])C(C([H])([H])[H])(C([H])([H])[H])C([H])([H])[H])C([H])(C(=O)N([H])C2([H])c4c([H])c([H])c([H])c([H])c4C([H])([H])C([H])([H])C2([H])[H])C3([H])[H])c([H])nc1N([H])C(=O)N1C([H])([H])C([H])([H])C([H])([H])C([H])(n2nc(-c3c([H])c([H])c(Oc4c([H])c([H])c(F)c([H])c4F)c([H])c3[H])c(C(=O)N([H])[H])c2N([H])[H])C1([H])[H]

$$$$
60:0:0
     RDKit          3D

 90 98  0  0  1  0  0  0  0  0999 V2000
  -28.8860  -22.2000   20.1110 C   0  0  0  0  0  3  0  0  0  0  0  0
  -27.5110  -21.8650   19.9990 O   0  0  0  0  0  0  0  0  0  0  0  0
  -27.1330  -21.8540   20.8730 H   0  0  0  0  0  0  0  0  0  0  0  0
  -28.9960  -23.7440   20.6250 C   0  0  0  0  0  3  0  0  0  0  0  0
  -28.1030  -24.9250   19.9680 C   0  0  0  0  0  3  0  0  0  0  0  0
  -28.2900  -26.3860   20.2860 O   0  0  0  0  0  0  0  0  0  0  0  0
  -24.6000  -31.8890   23.2320 C   0  0  0  0  0  0  0  0  0  0  0  0
  -27.1950  -27.2810   20.1930 C   0  0  0  0  0  0  0  0  0  0  0  0
  -23.3940  -30.4930   21.5930 C   0  0  0  0  0  3  0  0  0  0  0  0
  -24.8430  -28.9370   20.1650 C   0  0  0  0  0  0  0  0  0  0  0  0
  -25.9390  -30.7920   21.4190 C   0  0  0  0  0  2  0  0  0  0  0  0
  -26.0140  -29.4100   20.7720 C   0  0  0  0  0  0  0  0  0  0  0  0
  -27.1890  -28.5920   20.7790 C   0  0  0  0  0  3  0  0  0  0  0  0
  -26.0060  -26.8890   19.5340 C   0  0  0  0  0  3  0  0  0  0  0  0
  -24.8450  -27.6860   19.5340 C   0  0  0  0  0  3  0  0  0  0  0  0
  -23.6100  -29.8180   20.2120 C   0  0  0  0  0  2  0  0  0  0  0  0
  -24.6630  -31.0770   22.1370 N   0  0  0  0  0  0  0  0  0  0  0  0
  -23.5160  -32.1730   23.7640 O   0  0  0  0  0  0  0  0  0  0  0  0
  -22.7260  -29.4800   22.5530 C   0  0  0  0  0  0  0  0  0  0  0  0
  -21.3990  -29.3060   22.4260 N   0  0  0  0  0  0  0  0  0  0  0  0
  -23.4010  -28.8540   23.3740 O   0  0  0  0  0  0  0  0  0  0  0  0
  -20.9130  -29.8640   21.7360 H   0  0  0  0  0  0  0  0  0  0  0  0
  -18.0130  -28.1400   22.9430 C   0  0  0  0  0  0  0  0  0  0  0  0
  -20.5750  -28.3730   23.1970 C   0  0  0  0  0  3  0  0  0  0  0  0
  -20.6600  -26.9430   22.6130 C   0  0  0  0  0  2  0  0  0  0  0  0
  -19.5470  -26.6370   21.6040 C   0  0  0  0  0  2  0  0  0  0  0  0
  -18.1710  -26.7920   22.2580 C   0  0  0  0  0  2  0  0  0  0  0  0
  -19.1410  -28.8890   23.3690 C   0  0  0  0  0  0  0  0  0  0  0  0
  -18.9390  -30.1500   23.9700 C   0  0  0  0  0  3  0  0  0  0  0  0
  -17.6400  -30.6620   24.1480 C   0  0  0  0  0  3  0  0  0  0  0  0
  -16.5260  -29.9100   23.7380 C   0  0  0  0  0  3  0  0  0  0  0  0
  -16.7130  -28.6500   23.1410 C   0  0  0  0  0  3  0  0  0  0  0  0
  -25.8820  -32.5200   23.8560 C   0  0  0  0  0  3  0  0  0  0  0  0
  -25.5740  -33.9190   24.1880 N   0  0  0  0  0  0  0  0  0  0  0  0
  -25.9060  -34.9740   23.4320 C   0  0  0  0  0  0  0  0  0  0  0  0
  -26.5730  -34.8710   22.3990 O   0  0  0  0  0  0  0  0  0  0  0  0
  -24.9820  -34.0730   24.9910 H   0  0  0  0  0  0  0  0  0  0  0  0
  -24.1860  -36.7760   23.0800 C   0  0  0  0  0  1  0  0  0  0  0  0
  -25.4230  -36.3620   23.8940 C   0  0  0  0  0  3  0  0  0  0  0  0
  -27.5540  -37.2380   24.7420 C   0  0  0  0  0  1  0  0  0  0  0  0
  -26.4600  -37.4120   23.7900 N   0  0  0  0  0  0  0  0  0  0  0  0
  -26.0550  -38.3330   23.9360 H   0  0  0  0  0  0  0  0  0  0  0  0
  -26.3960  -31.7470   25.1330 C   0  0  1  0  0  0  0  0  0  0  0  0
  -25.3020  -31.5090   26.1980 C   0  0  0  0  0  1  0  0  0  0  0  0
  -26.9800  -30.3700   24.7420 C   0  0  0  0  0  1  0  0  0  0  0  0
  -27.5470  -32.5400   25.7970 C   0  0  0  0  0  1  0  0  0  0  0  0
  -29.6060  -21.0290   20.9710 C   0  0  0  0  0  2  0  0  0  0  0  0
  -30.8260  -17.9570   19.4540 C   0  0  0  0  0  3  0  0  0  0  0  0
  -29.3570  -18.3530   21.0380 C   0  0  0  0  0  3  0  0  0  0  0  0
  -30.0110  -17.2910   20.4180 C   0  0  0  0  0  0  0  0  0  0  0  0
  -30.6910  -19.2950   19.5030 N   0  0  0  0  0  0  0  0  0  0  0  0
  -29.7850  -19.5880   20.4830 N   0  0  0  0  0  0  0  0  0  0  0  0
  -30.6380  -14.7570   20.2380 C   0  0  0  0  0  0  0  0  0  0  0  0
  -30.4320  -12.5000   19.1870 C   0  0  0  0  0  2  0  0  0  0  0  0
  -29.4710  -12.6120   17.9820 C   0  0  0  0  0  2  0  0  0  0  0  0
  -28.0060  -12.4370   18.4330 C   0  0  0  0  0  2  0  0  0  0  0  0
  -27.6620  -13.2920   19.6810 C   0  0  0  0  0  3  0  0  0  0  0  0
  -28.7400  -13.1560   20.7810 C   0  0  0  0  0  2  0  0  0  0  0  0
  -30.0320  -13.5210   20.1820 N   0  0  0  0  0  0  0  0  0  0  0  0
  -31.7850  -14.9080   19.8090 O   0  0  0  0  0  0  0  0  0  0  0  0
  -29.8730  -15.8310   20.6590 N   0  0  0  0  0  0  0  0  0  0  0  0
  -29.0200  -15.5560   21.1210 H   0  0  0  0  0  0  0  0  0  0  0  0
  -25.2820  -13.8750   20.4460 C   0  0  0  0  0  0  0  0  0  0  0  0
  -24.2230  -13.0970   20.8290 C   0  0  0  0  0  0  0  0  0  0  0  0
  -24.6880  -11.7470   20.7810 C   0  0  0  0  0  0  0  0  0  0  0  0
  -26.3230  -12.9990   20.1870 N   0  0  0  0  0  0  0  0  0  0  0  0
  -25.9730  -11.7130   20.4500 N   0  0  0  0  0  0  0  0  0  0  0  0
  -23.9670  -10.4820   20.9750 C   0  0  0  0  0  0  0  0  0  0  0  0
  -24.3980   -9.5220   21.9170 C   0  0  0  0  0  3  0  0  0  0  0  0
  -23.6760   -8.3230   22.1000 C   0  0  0  0  0  3  0  0  0  0  0  0
  -22.5090   -8.0750   21.3390 C   0  0  0  0  0  0  0  0  0  0  0  0
  -22.0970   -9.0220   20.3860 C   0  0  0  0  0  3  0  0  0  0  0  0
  -22.8190  -10.2130   20.2020 C   0  0  0  0  0  3  0  0  0  0  0  0
  -21.7600   -6.9260   21.4290 O   0  0  0  0  0  0  0  0  0  0  0  0
  -21.6830   -6.2070   22.5950 C   0  0  0  0  0  0  0  0  0  0  0  0
  -21.1910   -6.7760   23.7900 C   0  0  0  0  0  3  0  0  0  0  0  0
  -21.0620   -5.9810   24.9470 C   0  0  0  0  0  3  0  0  0  0  0  0
  -21.4160   -4.6200   24.9090 C   0  0  0  0  0  0  0  0  0  0  0  0
  -21.9020   -4.0500   23.7200 C   0  0  0  0  0  3  0  0  0  0  0  0
  -22.0310   -4.8410   22.5650 C   0  0  0  0  0  0  0  0  0  0  0  0
  -22.4790   -4.2830   21.4150 F   0  0  0  0  0  0  0  0  0  0  0  0
  -21.2860   -3.8550   26.0190 F   0  0  0  0  0  0  0  0  0  0  0  0
  -22.8300  -13.5710   21.1260 C   0  0  0  0  0  0  0  0  0  0  0  0
  -22.1130  -12.8640   21.9940 N   0  0  0  0  0  0  0  0  0  0  0  0
  -22.3840  -14.6020   20.6240 O   0  0  0  0  0  0  0  0  0  0  0  0
  -22.4850  -12.0290   22.4230 H   0  0  0  0  0  0  0  0  0  0  0  0
  -21.1790  -13.1640   22.2350 H   0  0  0  0  0  0  0  0  0  0  0  0
  -25.4410  -15.2470   20.2750 N   0  0  0  0  0  0  0  0  0  0  0  0
  -24.6750  -15.8990   20.4010 H   0  0  0  0  0  0  0  0  0  0  0  0
  -26.2770  -15.6870   19.9110 H   0  0  0  0  0  0  0  0  0  0  0  0
  1  4  1  0
  1 47  1  0
  2  1  1  0
  2  3  1  0
  5  6  1  0
  5  4  2  0
  7 18  2  0
  8  6  1  0
  8 13  1  0
  9 17  1  0
  9 19  1  0
 10 16  1  0
 10 12  1  0
 11 17  1  0
 12 13  2  0
 12 11  1  0
 14  8  2  0
 15 14  1  0
 15 10  2  0
 16  9  1  0
 17  7  1  0
 19 21  2  0
 20 19  1  0
 22 20  1  0
 23 32  2  0
 23 28  1  0
 24 20  1  0
 24 28  1  0
 25 24  1  0
 26 27  1  0
 26 25  1  0
 27 23  1  0
 28 29  2  0
 29 30  1  0
 31 30  2  0
 32 31  1  0
 33  7  1  0
 33 34  1  0
 33 43  1  0
 34 37  1  0
 35 39  1  0
 35 34  1  0
 36 35  2  0
 39 38  1  0
 41 39  1  0
 41 42  1  0
 41 40  1  0
 43 46  1  1
 43 44  1  0
 45 43  1  0
 48 51  2  0
 48 50  1  0
 50 61  1  0
 50 49  2  0
 51 52  1  0
 52 47  1  0
 52 49  1  0
 53 61  1  0
 54 59  1  0
 55 56  1  0
 55 54  1  0
 57 56  1  0
 57 66  1  0
 57 58  1  0
 59 53  1  0
 59 58  1  0
 60 53  2  0
 61 62  1  0
 63 64  2  0
 64 83  1  0
 65 64  1  0
 65 68  1  0
 66 63  1  0
 66 67  1  0
 67 65  2  0
 68 69  1  0
 69 70  2  0
 71 74  1  0
 71 70  1  0
 72 71  2  0
 73 72  1  0
 73 68  2  0
 74 75  1  0
 75 76  1  0
 76 77  2  0
 78 77  1  0
 78 82  1  0
 79 78  2  0
 80 75  2  0
 80 79  1  0
 81 80  1  0
 83 84  1  0
 84 87  1  0
 84 86  1  0
 85 83  2  0
 88 89  1  0
 88 63  1  0
 90 88  1  0
M  ISO  4   5 101   6 101  53 100  61 100
M  END
>  <TORSDO>  (61) 
F 21

>  <SCORE>  (61) 
-13.619

>  <name>  (61) 
60

>  <ligand_id>  (61) 
60

>  <original_smiles>  (61) 
[H]OC([H])(C([H])([H])n1nc([H])c(N([H])C(=O)N2C([H])([H])C([H])([H])C([H])([H])C([H])(n3nc(-c4c([H])c([H])c(Oc5c([H])c([H])c(F)c([H])c5F)c([H])c4[H])c(C(=O)N([H])[H])c3N([H])[H])C2([H])[H])c1[H])C([H])([H])C([H])([H])Oc1c([H])c([H])c2c(c1[H])C([H])([H])N(C(=O)C([H])(N([H])C(=O)C([H])(N([H])C([H])([H])[H])C([H])([H])[H])C(C([H])([H])[H])(C([H])([H])[H])C([H])([H])[H])C([H])(C(=O)N([H])C1([H])c3c([H])c([H])c([H])c([H])c3C([H])([H])C([H])([H])C1([H])[H])C2([H])[H]

>  <smiles>  (61) 
[H]OC([H])(C([H])([H])n1nc([H])c(N([H])C(=O)N2C([H])([H])C([H])([H])C([H])([H])C([H])(n3nc(-c4c([H])c([H])c(Oc5c([H])c([H])c(F)c([H])c5F)c([H])c4[H])c(C(=O)N([H])[H])c3N([H])[H])C2([H])[H])c1[H])C([H])([H])C([H])([H])Oc1c([H])c([H])c2c(c1[H])C([H])([H])N(C(=O)C([H])(N([H])C(=O)C([H])(N([H])C([H])([H])[H])C([H])([H])[H])C(C([H])([H])[H])(C([H])([H])[H])C([H])([H])[H])C([H])(C(=O)N([H])C1([H])c3c([H])c([H])c([H])c([H])c3C([H])([H])C([H])([H])C1([H])[H])C2([H])[H]

$$$$
61:0:0
     RDKit          3D

 96104  0  0  1  0  0  0  0  0999 V2000
  -28.4010  -21.6740   20.3780 C   0  0  0  0  0  3  0  0  0  0  0  0
  -29.6820  -21.0400   20.0010 N   0  0  0  0  0  0  0  0  0  0  0  0
  -30.3530  -21.6900   19.6030 H   0  0  0  0  0  0  0  0  0  0  0  0
  -30.8410  -14.6790   20.1950 C   0  0  0  0  0  0  0  0  0  0  0  0
  -30.5280  -12.4940   19.0790 C   0  0  0  0  0  2  0  0  0  0  0  0
  -29.5380  -12.6830   17.9090 C   0  0  0  0  0  2  0  0  0  0  0  0
  -28.0820  -12.5410   18.3940 C   0  0  0  0  0  2  0  0  0  0  0  0
  -27.7900  -13.3720   19.6710 C   0  0  0  0  0  3  0  0  0  0  0  0
  -28.8900  -13.1620   20.7370 C   0  0  0  0  0  2  0  0  0  0  0  0
  -30.1860  -13.4840   20.1180 N   0  0  0  0  0  0  0  0  0  0  0  0
  -31.9780  -14.8170   19.7290 O   0  0  0  0  0  0  0  0  0  0  0  0
  -31.2530  -19.0880   19.6820 C   0  0  0  0  0  0  0  0  0  0  0  0
  -30.0680  -19.6620   20.1340 C   0  0  0  0  0  0  0  0  0  0  0  0
  -30.2830  -17.1470   20.4540 C   0  0  0  0  0  0  0  0  0  0  0  0
  -31.3490  -17.6910   19.8610 N   0  0  0  0  0  0  0  0  0  0  0  0
  -30.1150  -15.7270   20.6720 N   0  0  0  0  0  0  0  0  0  0  0  0
  -29.0900  -18.3920   20.8950 S   0  0  0  0  0  0  0  0  0  0  0  0
  -29.2360  -15.4630   21.0900 H   0  0  0  0  0  0  0  0  0  0  0  0
  -25.4330  -13.9760   20.5040 C   0  0  0  0  0  0  0  0  0  0  0  0
  -24.3760  -13.2010   20.8980 C   0  0  0  0  0  0  0  0  0  0  0  0
  -24.8230  -11.8470   20.8110 C   0  0  0  0  0  0  0  0  0  0  0  0
  -26.4580  -13.0930   20.2030 N   0  0  0  0  0  0  0  0  0  0  0  0
  -26.0980  -11.8060   20.4470 N   0  0  0  0  0  0  0  0  0  0  0  0
  -24.0940  -10.5850   20.9960 C   0  0  0  0  0  0  0  0  0  0  0  0
  -24.5190   -9.6170   21.9320 C   0  0  0  0  0  3  0  0  0  0  0  0
  -23.7900   -8.4210   22.1050 C   0  0  0  0  0  3  0  0  0  0  0  0
  -22.6220   -8.1850   21.3430 C   0  0  0  0  0  0  0  0  0  0  0  0
  -22.2160   -9.1410   20.3940 C   0  0  0  0  0  3  0  0  0  0  0  0
  -22.9460  -10.3290   20.2190 C   0  0  0  0  0  3  0  0  0  0  0  0
  -21.8650   -7.0410   21.4250 O   0  0  0  0  0  0  0  0  0  0  0  0
  -21.7690   -6.3240   22.5910 C   0  0  0  0  0  0  0  0  0  0  0  0
  -21.2450   -6.8910   23.7740 C   0  0  0  0  0  3  0  0  0  0  0  0
  -21.1000   -6.0980   24.9300 C   0  0  0  0  0  3  0  0  0  0  0  0
  -21.4680   -4.7390   24.9040 C   0  0  0  0  0  0  0  0  0  0  0  0
  -21.9850   -4.1730   23.7260 C   0  0  0  0  0  3  0  0  0  0  0  0
  -22.1320   -4.9630   22.5720 C   0  0  0  0  0  0  0  0  0  0  0  0
  -22.6110   -4.4050   21.4330 F   0  0  0  0  0  0  0  0  0  0  0  0
  -21.3220   -3.9760   26.0120 F   0  0  0  0  0  0  0  0  0  0  0  0
  -22.9960  -13.6810   21.2450 C   0  0  0  0  0  0  0  0  0  0  0  0
  -22.2990  -12.9640   22.1200 N   0  0  0  0  0  0  0  0  0  0  0  0
  -22.5460  -14.7240   20.7740 O   0  0  0  0  0  0  0  0  0  0  0  0
  -22.6760  -12.1190   22.5220 H   0  0  0  0  0  0  0  0  0  0  0  0
  -21.3730  -13.2650   22.3930 H   0  0  0  0  0  0  0  0  0  0  0  0
  -25.6020  -15.3490   20.3570 N   0  0  0  0  0  0  0  0  0  0  0  0
  -24.8420  -16.0010   20.5130 H   0  0  0  0  0  0  0  0  0  0  0  0
  -26.4260  -15.7890   19.9660 H   0  0  0  0  0  0  0  0  0  0  0  0
  -32.3340  -19.8710   19.0410 C   0  0  0  0  0  2  0  0  0  0  0  0
  -33.4190  -19.3610   18.6260 N   0  0  0  0  0  2  0  0  0  0  0  0
  -33.4030  -18.3610   18.8110 H   0  0  0  0  0  0  0  0  0  0  0  0
  -27.1720  -21.0370   19.6800 C   0  0  0  0  0  2  0  0  0  0  0  0
  -25.8830  -20.5810   17.5270 C   0  0  0  0  0  1  0  0  0  0  0  0
  -27.2100  -21.0450   18.1400 C   0  0  0  0  0  2  0  0  0  0  0  0
  -28.3800  -23.2320   20.1050 C   0  0  0  0  0  2  0  0  0  0  0  0
  -29.1840  -24.1760   21.0500 C   0  0  0  0  0  2  0  0  0  0  0  0
  -28.4960  -25.5310   21.4510 C   0  0  0  0  0  2  0  0  0  0  0  0
  -28.6490  -26.6750   20.5730 O   0  0  0  0  0  0  0  0  0  0  0  0
  -24.6200  -31.9020   23.3680 C   0  0  0  0  0  0  0  0  0  0  0  0
  -27.5150  -27.4650   20.4860 C   0  0  0  0  0  0  0  0  0  0  0  0
  -23.5440  -30.4800   21.6550 C   0  0  0  0  0  3  0  0  0  0  0  0
  -25.1130  -28.9610   20.3270 C   0  0  0  0  0  0  0  0  0  0  0  0
  -26.0750  -30.8700   21.6220 C   0  0  0  0  0  2  0  0  0  0  0  0
  -26.2250  -29.4960   20.9920 C   0  0  0  0  0  0  0  0  0  0  0  0
  -27.4340  -28.7580   21.0650 C   0  0  0  0  0  3  0  0  0  0  0  0
  -26.3910  -26.9560   19.8080 C   0  0  0  0  0  3  0  0  0  0  0  0
  -25.1930  -27.6920   19.7290 C   0  0  0  0  0  3  0  0  0  0  0  0
  -23.8540  -29.8010   20.2930 C   0  0  0  0  0  2  0  0  0  0  0  0
  -24.7610  -31.1000   22.2740 N   0  0  0  0  0  0  0  0  0  0  0  0
  -23.5020  -32.1570   23.8380 O   0  0  0  0  0  0  0  0  0  0  0  0
  -22.8450  -29.4510   22.5750 C   0  0  0  0  0  0  0  0  0  0  0  0
  -21.5300  -29.2660   22.3820 N   0  0  0  0  0  0  0  0  0  0  0  0
  -23.4900  -28.8210   23.4180 O   0  0  0  0  0  0  0  0  0  0  0  0
  -21.0710  -29.8240   21.6740 H   0  0  0  0  0  0  0  0  0  0  0  0
  -18.1260  -28.1060   22.7560 C   0  0  0  0  0  0  0  0  0  0  0  0
  -20.6790  -28.3200   23.1050 C   0  0  0  0  0  3  0  0  0  0  0  0
  -20.7800  -26.9030   22.4950 C   0  0  0  0  0  2  0  0  0  0  0  0
  -19.7020  -26.6230   21.4410 C   0  0  0  0  0  2  0  0  0  0  0  0
  -18.3040  -26.7730   22.0490 C   0  0  0  0  0  2  0  0  0  0  0  0
  -19.2440  -28.8400   23.2380 C   0  0  0  0  0  0  0  0  0  0  0  0
  -19.0270  -30.0900   23.8540 C   0  0  0  0  0  3  0  0  0  0  0  0
  -17.7250  -30.6080   23.9980 C   0  0  0  0  0  3  0  0  0  0  0  0
  -16.6220  -29.8710   23.5330 C   0  0  0  0  0  3  0  0  0  0  0  0
  -16.8230  -28.6210   22.9170 C   0  0  0  0  0  3  0  0  0  0  0  0
  -25.8520  -32.5560   24.0650 C   0  0  0  0  0  3  0  0  0  0  0  0
  -25.5140  -33.9590   24.3410 N   0  0  0  0  0  0  0  0  0  0  0  0
  -25.8880  -34.9950   23.5780 C   0  0  0  0  0  0  0  0  0  0  0  0
  -26.6260  -34.8710   22.5950 O   0  0  0  0  0  0  0  0  0  0  0  0
  -24.8710  -34.1300   25.1000 H   0  0  0  0  0  0  0  0  0  0  0  0
  -24.1740  -36.7600   23.0660 C   0  0  0  0  0  1  0  0  0  0  0  0
  -25.3630  -36.3890   23.9660 C   0  0  0  0  0  3  0  0  0  0  0  0
  -27.4290  -37.3180   24.9160 C   0  0  0  0  0  1  0  0  0  0  0  0
  -26.3930  -37.4480   23.8930 N   0  0  0  0  0  0  0  0  0  0  0  0
  -25.9710  -38.3680   23.9850 H   0  0  0  0  0  0  0  0  0  0  0  0
  -26.2810  -31.8150   25.3920 C   0  0  1  0  0  0  0  0  0  0  0  0
  -25.1130  -31.5800   26.3770 C   0  0  0  0  0  1  0  0  0  0  0  0
  -26.9130  -30.4410   25.0700 C   0  0  0  0  0  1  0  0  0  0  0  0
  -27.3650  -32.6380   26.1250 C   0  0  0  0  0  1  0  0  0  0  0  0
  1 50  1  0
  2 13  1  0
  2  1  1  0
  3  2  1  0
  4 16  1  0
  5 10  1  0
  6  7  1  0
  6  5  1  0
  8  7  1  0
  8 22  1  0
  8  9  1  0
 10  4  1  0
 10  9  1  0
 11  4  2  0
 12 15  1  0
 12 13  2  0
 13 17  1  0
 14 16  1  0
 14 17  1  0
 15 14  2  0
 16 18  1  0
 19 20  2  0
 20 39  1  0
 21 20  1  0
 21 24  1  0
 22 23  1  0
 22 19  1  0
 23 21  2  0
 24 25  1  0
 25 26  2  0
 27 30  1  0
 27 26  1  0
 28 27  2  0
 29 28  1  0
 29 24  2  0
 30 31  1  0
 31 32  1  0
 32 33  2  0
 34 33  1  0
 34 38  1  0
 35 34  2  0
 36 31  2  0
 36 35  1  0
 37 36  1  0
 39 40  1  0
 40 43  1  0
 40 42  1  0
 41 39  2  0
 44 19  1  0
 44 45  1  0
 46 44  1  0
 47 12  1  0
 48 49  1  0
 48 47  1  0
 51 52  1  0
 52 50  1  0
 53  1  1  0
 53 54  1  0
 54 55  1  0
 56 55  1  0
 57 68  2  0
 58 56  1  0
 58 63  1  0
 59 67  1  0
 59 69  1  0
 60 62  1  0
 61 67  1  0
 62 63  2  0
 62 61  1  0
 64 58  2  0
 65 64  1  0
 65 60  2  0
 66 60  1  0
 66 59  1  0
 67 57  1  0
 69 71  2  0
 70 69  1  0
 72 70  1  0
 73 82  2  0
 73 78  1  0
 74 70  1  0
 74 78  1  0
 75 74  1  0
 76 77  1  0
 76 75  1  0
 77 73  1  0
 78 79  2  0
 79 80  1  0
 81 80  2  0
 82 81  1  0
 83 57  1  0
 83 84  1  0
 83 93  1  0
 84 87  1  0
 85 89  1  0
 85 84  1  0
 86 85  2  0
 89 88  1  0
 91 89  1  0
 91 92  1  0
 91 90  1  0
 93 96  1  1
 93 94  1  0
 95 93  1  0
M  ISO  4   4 100  16 100  55 101  56 101
M  END
>  <TORSDO>  (62) 
F 23

>  <SCORE>  (62) 
-12.532

>  <name>  (62) 
61

>  <ligand_id>  (62) 
61

>  <original_smiles>  (62) 
[H]N=C([H])c1nc(N([H])C(=O)N2C([H])([H])C([H])([H])C([H])([H])C([H])(n3nc(-c4c([H])c([H])c(Oc5c([H])c([H])c(F)c([H])c5F)c([H])c4[H])c(C(=O)N([H])[H])c3N([H])[H])C2([H])[H])sc1N([H])C([H])(C([H])([H])C([H])([H])C([H])([H])[H])C([H])([H])C([H])([H])C([H])([H])Oc1c([H])c([H])c2c(c1[H])C([H])([H])N(C(=O)C([H])(N([H])C(=O)C([H])(N([H])C([H])([H])[H])C([H])([H])[H])C(C([H])([H])[H])(C([H])([H])[H])C([H])([H])[H])C([H])(C(=O)N([H])C1([H])c3c([H])c([H])c([H])c([H])c3C([H])([H])C([H])([H])C1([H])[H])C2([H])[H]

>  <smiles>  (62) 
[H]N=C([H])c1nc(N([H])C(=O)N2C([H])([H])C([H])([H])C([H])([H])C([H])(n3nc(-c4c([H])c([H])c(Oc5c([H])c([H])c(F)c([H])c5F)c([H])c4[H])c(C(=O)N([H])[H])c3N([H])[H])C2([H])[H])sc1N([H])C([H])(C([H])([H])C([H])([H])C([H])([H])[H])C([H])([H])C([H])([H])C([H])([H])Oc1c([H])c([H])c2c(c1[H])C([H])([H])N(C(=O)C([H])(N([H])C(=O)C([H])(N([H])C([H])([H])[H])C([H])([H])[H])C(C([H])([H])[H])(C([H])([H])[H])C([H])([H])[H])C([H])(C(=O)N([H])C1([H])c3c([H])c([H])c([H])c([H])c3C([H])([H])C([H])([H])C1([H])[H])C2([H])[H]

$$$$
62:0:0
     RDKit          3D

 96104  0  0  1  0  0  0  0  0999 V2000
  -29.4980  -22.6090   19.9890 C   0  0  0  0  0  3  0  0  0  0  0  0
  -29.0510  -21.3560   20.7200 N   0  0  0  0  0  0  0  0  0  0  0  0
  -28.0330  -21.3500   20.6750 H   0  0  0  0  0  0  0  0  0  0  0  0
  -30.7260  -14.8930   20.3140 C   0  0  0  0  0  0  0  0  0  0  0  0
  -30.5630  -12.6300   19.2650 C   0  0  0  0  0  2  0  0  0  0  0  0
  -29.5890  -12.7120   18.0670 C   0  0  0  0  0  2  0  0  0  0  0  0
  -28.1300  -12.5180   18.5280 C   0  0  0  0  0  2  0  0  0  0  0  0
  -27.7730  -13.3790   19.7680 C   0  0  0  0  0  3  0  0  0  0  0  0
  -28.8590  -13.2720   20.8610 C   0  0  0  0  0  2  0  0  0  0  0  0
  -30.1380  -13.6520   20.2450 N   0  0  0  0  0  0  0  0  0  0  0  0
  -31.9130  -15.0390   20.0060 O   0  0  0  0  0  0  0  0  0  0  0  0
  -30.6970  -19.4520   21.4640 C   0  0  0  0  0  0  0  0  0  0  0  0
  -29.6570  -20.0200   20.7160 C   0  0  0  0  0  0  0  0  0  0  0  0
  -30.0140  -17.4300   20.5320 C   0  0  0  0  0  0  0  0  0  0  0  0
  -30.9130  -18.0500   21.3060 N   0  0  0  0  0  0  0  0  0  0  0  0
  -29.8590  -15.9610   20.4530 N   0  0  0  0  0  0  0  0  0  0  0  0
  -28.8670  -18.6540   19.8690 S   0  0  0  0  0  0  0  0  0  0  0  0
  -31.6270  -20.2370   22.6540 Cl  0  0  0  0  0  0  0  0  0  0  0  0
  -28.8970  -15.6640   20.4650 H   0  0  0  0  0  0  0  0  0  0  0  0
  -25.3950  -13.9440   20.5510 C   0  0  0  0  0  0  0  0  0  0  0  0
  -24.3420  -13.1550   20.9300 C   0  0  0  0  0  0  0  0  0  0  0  0
  -24.8160  -11.8080   20.8660 C   0  0  0  0  0  0  0  0  0  0  0  0
  -26.4410  -13.0750   20.2800 N   0  0  0  0  0  0  0  0  0  0  0  0
  -26.1000  -11.7850   20.5310 N   0  0  0  0  0  0  0  0  0  0  0  0
  -24.1030  -10.5370   21.0450 C   0  0  0  0  0  0  0  0  0  0  0  0
  -24.5350   -9.5750   21.9860 C   0  0  0  0  0  3  0  0  0  0  0  0
  -23.8230   -8.3690   22.1540 C   0  0  0  0  0  3  0  0  0  0  0  0
  -22.6640   -8.1150   21.3820 C   0  0  0  0  0  0  0  0  0  0  0  0
  -22.2510   -9.0650   20.4320 C   0  0  0  0  0  3  0  0  0  0  0  0
  -22.9640  -10.2630   20.2620 C   0  0  0  0  0  3  0  0  0  0  0  0
  -21.9230   -6.9600   21.4600 O   0  0  0  0  0  0  0  0  0  0  0  0
  -21.8350   -6.2380   22.6240 C   0  0  0  0  0  0  0  0  0  0  0  0
  -21.3030   -6.7950   23.8070 C   0  0  0  0  0  3  0  0  0  0  0  0
  -21.1680   -5.9970   24.9610 C   0  0  0  0  0  3  0  0  0  0  0  0
  -21.5520   -4.6430   24.9310 C   0  0  0  0  0  0  0  0  0  0  0  0
  -22.0770   -4.0860   23.7520 C   0  0  0  0  0  3  0  0  0  0  0  0
  -22.2160   -4.8810   22.6010 C   0  0  0  0  0  0  0  0  0  0  0  0
  -22.7020   -4.3330   21.4610 F   0  0  0  0  0  0  0  0  0  0  0  0
  -21.4150   -3.8750   26.0370 F   0  0  0  0  0  0  0  0  0  0  0  0
  -22.9460  -13.6160   21.2340 C   0  0  0  0  0  0  0  0  0  0  0  0
  -22.2400  -12.8950   22.0980 N   0  0  0  0  0  0  0  0  0  0  0  0
  -22.4910  -14.6470   20.7410 O   0  0  0  0  0  0  0  0  0  0  0  0
  -22.6220  -12.0600   22.5170 H   0  0  0  0  0  0  0  0  0  0  0  0
  -21.3030  -13.1830   22.3440 H   0  0  0  0  0  0  0  0  0  0  0  0
  -25.5410  -15.3180   20.3910 N   0  0  0  0  0  0  0  0  0  0  0  0
  -24.7570  -15.9510   20.5140 H   0  0  0  0  0  0  0  0  0  0  0  0
  -26.3430  -15.7680   19.9730 H   0  0  0  0  0  0  0  0  0  0  0  0
  -30.8420  -23.1950   20.4910 C   0  0  0  0  0  2  0  0  0  0  0  0
  -31.1970  -24.1910   18.0700 C   0  0  0  0  0  1  0  0  0  0  0  0
  -32.4230  -25.1410   20.0520 C   0  0  0  0  0  1  0  0  0  0  0  0
  -31.7860  -23.8750   19.4560 C   0  0  0  0  0  3  0  0  0  0  0  0
  -28.3550  -23.7630   19.7780 C   0  0  0  0  0  3  0  0  0  0  0  0
  -27.1130  -23.0690   19.8270 O   0  0  0  0  0  0  0  0  0  0  0  0
  -26.4940  -23.5550   19.2920 H   0  0  0  0  0  0  0  0  0  0  0  0
  -28.2390  -25.1400   20.6470 C   0  0  0  0  0  2  0  0  0  0  0  0
  -28.3070  -26.5110   20.0550 O   0  0  0  0  0  0  0  0  0  0  0  0
  -24.6080  -31.8990   23.2390 C   0  0  0  0  0  0  0  0  0  0  0  0
  -27.1860  -27.3580   20.1050 C   0  0  0  0  0  0  0  0  0  0  0  0
  -23.3900  -30.5300   21.5840 C   0  0  0  0  0  3  0  0  0  0  0  0
  -24.8280  -28.9870   20.1310 C   0  0  0  0  0  0  0  0  0  0  0  0
  -25.9310  -30.8350   21.3930 C   0  0  0  0  0  2  0  0  0  0  0  0
  -26.0040  -29.4630   20.7270 C   0  0  0  0  0  0  0  0  0  0  0  0
  -27.1890  -28.6650   20.6950 C   0  0  0  0  0  3  0  0  0  0  0  0
  -25.9870  -26.9290   19.5040 C   0  0  0  0  0  3  0  0  0  0  0  0
  -24.8230  -27.7270   19.5120 C   0  0  0  0  0  3  0  0  0  0  0  0
  -23.5970  -29.8710   20.1940 C   0  0  0  0  0  2  0  0  0  0  0  0
  -24.6620  -31.1060   22.1280 N   0  0  0  0  0  0  0  0  0  0  0  0
  -23.5280  -32.1750   23.7830 O   0  0  0  0  0  0  0  0  0  0  0  0
  -22.7270  -29.5030   22.5310 C   0  0  0  0  0  0  0  0  0  0  0  0
  -21.4050  -29.3100   22.3860 N   0  0  0  0  0  0  0  0  0  0  0  0
  -23.4030  -28.8840   23.3580 O   0  0  0  0  0  0  0  0  0  0  0  0
  -20.9180  -29.8610   21.6930 H   0  0  0  0  0  0  0  0  0  0  0  0
  -18.0440  -28.0410   22.8080 C   0  0  0  0  0  0  0  0  0  0  0  0
  -20.5890  -28.3600   23.1430 C   0  0  0  0  0  3  0  0  0  0  0  0
  -20.7380  -26.9270   22.5790 C   0  0  0  0  0  2  0  0  0  0  0  0
  -19.6700  -26.5740   21.5390 C   0  0  0  0  0  2  0  0  0  0  0  0
  -18.2680  -26.6910   22.1480 C   0  0  0  0  0  2  0  0  0  0  0  0
  -19.1350  -28.8310   23.2620 C   0  0  0  0  0  0  0  0  0  0  0  0
  -18.8710  -30.0930   23.8380 C   0  0  0  0  0  3  0  0  0  0  0  0
  -17.5520  -30.5630   23.9690 C   0  0  0  0  0  3  0  0  0  0  0  0
  -16.4760  -29.7710   23.5310 C   0  0  0  0  0  3  0  0  0  0  0  0
  -16.7240  -28.5110   22.9570 C   0  0  0  0  0  3  0  0  0  0  0  0
  -25.8960  -32.5160   23.8670 C   0  0  0  0  0  3  0  0  0  0  0  0
  -25.6000  -33.9160   24.2050 N   0  0  0  0  0  0  0  0  0  0  0  0
  -25.9290  -34.9690   23.4450 C   0  0  0  0  0  0  0  0  0  0  0  0
  -26.5850  -34.8640   22.4060 O   0  0  0  0  0  0  0  0  0  0  0  0
  -25.0150  -34.0710   25.0140 H   0  0  0  0  0  0  0  0  0  0  0  0
  -24.2120  -36.7780   23.1160 C   0  0  0  0  0  1  0  0  0  0  0  0
  -25.4570  -36.3590   23.9140 C   0  0  0  0  0  3  0  0  0  0  0  0
  -27.6010  -37.2290   24.7370 C   0  0  0  0  0  1  0  0  0  0  0  0
  -26.4970  -37.4040   23.7960 N   0  0  0  0  0  0  0  0  0  0  0  0
  -26.0980  -38.3270   23.9440 H   0  0  0  0  0  0  0  0  0  0  0  0
  -26.4020  -31.7340   25.1430 C   0  0  1  0  0  0  0  0  0  0  0  0
  -25.3040  -31.5020   26.2070 C   0  0  0  0  0  1  0  0  0  0  0  0
  -26.9760  -30.3540   24.7470 C   0  0  0  0  0  1  0  0  0  0  0  0
  -27.5560  -32.5170   25.8120 C   0  0  0  0  0  1  0  0  0  0  0  0
  1 48  1  0
  1  2  1  0
  3  2  1  0
  4 16  1  0
  5 10  1  0
  6  7  1  0
  6  5  1  0
  8  7  1  0
  8 23  1  0
  8  9  1  0
 10  4  1  0
 10  9  1  0
 11  4  2  0
 12 18  1  0
 13  2  1  0
 13 12  2  0
 14 15  2  0
 15 12  1  0
 16 19  1  0
 16 14  1  0
 17 14  1  0
 17 13  1  0
 20 21  2  0
 21 40  1  0
 22 21  1  0
 22 25  1  0
 23 24  1  0
 23 20  1  0
 24 22  2  0
 25 26  1  0
 26 27  2  0
 28 31  1  0
 28 27  1  0
 29 28  2  0
 30 29  1  0
 30 25  2  0
 31 32  1  0
 32 33  1  0
 33 34  2  0
 35 34  1  0
 35 39  1  0
 36 35  2  0
 37 32  2  0
 37 36  1  0
 38 37  1  0
 40 41  1  0
 41 44  1  0
 41 43  1  0
 42 40  2  0
 45 46  1  0
 45 20  1  0
 47 45  1  0
 49 51  1  0
 51 50  1  0
 51 48  1  0
 52 53  1  0
 52  1  1  0
 52 55  1  0
 54 53  1  0
 56 58  1  0
 56 55  1  0
 57 68  2  0
 58 63  1  0
 59 67  1  0
 59 69  1  0
 60 66  1  0
 60 62  1  0
 61 67  1  0
 62 61  1  0
 63 62  2  0
 64 65  1  0
 64 58  2  0
 65 60  2  0
 66 59  1  0
 67 57  1  0
 69 71  2  0
 70 69  1  0
 72 70  1  0
 73 82  2  0
 73 78  1  0
 74 70  1  0
 74 78  1  0
 75 74  1  0
 76 77  1  0
 76 75  1  0
 77 73  1  0
 78 79  2  0
 79 80  1  0
 81 80  2  0
 82 81  1  0
 83 57  1  0
 83 84  1  0
 83 93  1  0
 84 87  1  0
 85 89  1  0
 85 84  1  0
 86 85  2  0
 89 88  1  0
 91 89  1  0
 91 92  1  0
 91 90  1  0
 93 96  1  1
 93 94  1  0
 95 93  1  0
M  ISO  4   4 100  16 100  55 101  56 101
M  END
>  <TORSDO>  (63) 
F 22

>  <SCORE>  (63) 
-13.579

>  <name>  (63) 
62

>  <ligand_id>  (63) 
62

>  <original_smiles>  (63) 
[H]OC([H])(C([H])([H])Oc1c([H])c([H])c2c(c1[H])C([H])([H])N(C(=O)C([H])(N([H])C(=O)C([H])(N([H])C([H])([H])[H])C([H])([H])[H])C(C([H])([H])[H])(C([H])([H])[H])C([H])([H])[H])C([H])(C(=O)N([H])C1([H])c3c([H])c([H])c([H])c([H])c3C([H])([H])C([H])([H])C1([H])[H])C2([H])[H])C([H])(N([H])c1sc(N([H])C(=O)N2C([H])([H])C([H])([H])C([H])([H])C([H])(n3nc(-c4c([H])c([H])c(Oc5c([H])c([H])c(F)c([H])c5F)c([H])c4[H])c(C(=O)N([H])[H])c3N([H])[H])C2([H])[H])nc1Cl)C([H])([H])C([H])(C([H])([H])[H])C([H])([H])[H]

>  <smiles>  (63) 
[H]OC([H])(C([H])([H])Oc1c([H])c([H])c2c(c1[H])C([H])([H])N(C(=O)C([H])(N([H])C(=O)C([H])(N([H])C([H])([H])[H])C([H])([H])[H])C(C([H])([H])[H])(C([H])([H])[H])C([H])([H])[H])C([H])(C(=O)N([H])C1([H])c3c([H])c([H])c([H])c([H])c3C([H])([H])C([H])([H])C1([H])[H])C2([H])[H])C([H])(N([H])c1sc(N([H])C(=O)N2C([H])([H])C([H])([H])C([H])([H])C([H])(n3nc(-c4c([H])c([H])c(Oc5c([H])c([H])c(F)c([H])c5F)c([H])c4[H])c(C(=O)N([H])[H])c3N([H])[H])C2([H])[H])nc1Cl)C([H])([H])C([H])(C([H])([H])[H])C([H])([H])[H]

$$$$
63:0:0
     RDKit          3D

 92100  0  0  1  0  0  0  0  0999 V2000
  -28.9170  -21.7940   20.5120 C   0  0  0  0  0  2  0  0  0  0  0  0
  -29.8370  -20.5610   22.5550 C   0  0  0  0  0  1  0  0  0  0  0  0
  -30.0450  -20.8340   21.0530 C   0  0  0  0  0  3  0  0  0  0  0  0
  -30.8460  -14.7410   20.0360 C   0  0  0  0  0  0  0  0  0  0  0  0
  -30.4980  -12.5250   19.0110 C   0  0  0  0  0  2  0  0  0  0  0  0
  -29.5150  -12.6980   17.8320 C   0  0  0  0  0  2  0  0  0  0  0  0
  -28.0570  -12.5930   18.3260 C   0  0  0  0  0  2  0  0  0  0  0  0
  -27.7780  -13.4550   19.5890 C   0  0  0  0  0  3  0  0  0  0  0  0
  -28.8820  -13.2660   20.6540 C   0  0  0  0  0  2  0  0  0  0  0  0
  -30.1730  -13.5520   20.0150 N   0  0  0  0  0  0  0  0  0  0  0  0
  -31.9830  -14.8430   19.5650 O   0  0  0  0  0  0  0  0  0  0  0  0
  -30.2950  -19.5200   20.2890 C   0  0  0  0  0  0  0  0  0  0  0  0
  -30.9950  -19.3720   19.1150 C   0  0  0  0  0  0  0  0  0  0  0  0
  -30.3700  -17.2020   20.0630 C   0  0  0  0  0  0  0  0  0  0  0  0
  -29.8940  -18.2440   20.7840 N   0  0  0  0  0  0  0  0  0  0  0  0
  -30.1540  -15.8320   20.4580 N   0  0  0  0  0  0  0  0  0  0  0  0
  -31.5380  -20.3980   18.4190 F   0  0  0  0  0  0  0  0  0  0  0  0
  -31.2120  -17.7230   18.5950 S   0  0  0  0  0  0  0  0  0  0  0  0
  -29.3160  -15.6570   20.9860 H   0  0  0  0  0  0  0  0  0  0  0  0
  -25.4450  -14.0990   20.4560 C   0  0  0  0  0  0  0  0  0  0  0  0
  -24.3750  -13.3440   20.8510 C   0  0  0  0  0  0  0  0  0  0  0  0
  -24.7910  -11.9820   20.7510 C   0  0  0  0  0  0  0  0  0  0  0  0
  -26.4480  -13.1980   20.1360 N   0  0  0  0  0  0  0  0  0  0  0  0
  -26.0630  -11.9180   20.3750 N   0  0  0  0  0  0  0  0  0  0  0  0
  -24.0390  -10.7340   20.9430 C   0  0  0  0  0  0  0  0  0  0  0  0
  -24.4640   -9.7500   21.8650 C   0  0  0  0  0  3  0  0  0  0  0  0
  -23.7160   -8.5650   22.0420 C   0  0  0  0  0  3  0  0  0  0  0  0
  -22.5290   -8.3570   21.3000 C   0  0  0  0  0  0  0  0  0  0  0  0
  -22.1240   -9.3280   20.3680 C   0  0  0  0  0  3  0  0  0  0  0  0
  -22.8720  -10.5040   20.1880 C   0  0  0  0  0  3  0  0  0  0  0  0
  -21.7500   -7.2300   21.3930 O   0  0  0  0  0  0  0  0  0  0  0  0
  -21.6670   -6.5050   22.5530 C   0  0  0  0  0  0  0  0  0  0  0  0
  -21.1910   -7.0740   23.7550 C   0  0  0  0  0  3  0  0  0  0  0  0
  -21.0570   -6.2740   24.9070 C   0  0  0  0  0  3  0  0  0  0  0  0
  -21.3860   -4.9060   24.8570 C   0  0  0  0  0  0  0  0  0  0  0  0
  -21.8550   -4.3370   23.6600 C   0  0  0  0  0  3  0  0  0  0  0  0
  -21.9910   -5.1340   22.5100 C   0  0  0  0  0  0  0  0  0  0  0  0
  -22.4250   -4.5770   21.3530 F   0  0  0  0  0  0  0  0  0  0  0  0
  -21.2490   -4.1340   25.9600 F   0  0  0  0  0  0  0  0  0  0  0  0
  -23.0080  -13.8480   21.2130 C   0  0  0  0  0  0  0  0  0  0  0  0
  -22.3100  -13.1480   22.0970 N   0  0  0  0  0  0  0  0  0  0  0  0
  -22.5730  -14.9040   20.7510 O   0  0  0  0  0  0  0  0  0  0  0  0
  -22.6750  -12.2950   22.5010 H   0  0  0  0  0  0  0  0  0  0  0  0
  -21.3970  -13.4730   22.3850 H   0  0  0  0  0  0  0  0  0  0  0  0
  -25.6440  -15.4700   20.3240 N   0  0  0  0  0  0  0  0  0  0  0  0
  -24.9100  -16.1420   20.5220 H   0  0  0  0  0  0  0  0  0  0  0  0
  -26.4840  -15.8990   19.9610 H   0  0  0  0  0  0  0  0  0  0  0  0
  -28.5680  -22.7560   18.1690 C   0  0  0  0  0  1  0  0  0  0  0  0
  -29.3400  -22.9110   19.4920 C   0  0  0  0  0  3  0  0  0  0  0  0
  -29.3590  -24.4090   20.0010 C   0  0  0  0  0  3  0  0  0  0  0  0
  -28.0730  -25.2770   19.8370 C   0  0  0  0  0  3  0  0  0  0  0  0
  -28.2480  -26.7040   20.0750 O   0  0  0  0  0  0  0  0  0  0  0  0
  -24.5350  -31.9460   23.2570 C   0  0  0  0  0  0  0  0  0  0  0  0
  -27.0980  -27.4940   20.0690 C   0  0  0  0  0  0  0  0  0  0  0  0
  -23.2990  -30.5750   21.6150 C   0  0  0  0  0  3  0  0  0  0  0  0
  -24.7210  -29.0600   20.1360 C   0  0  0  0  0  0  0  0  0  0  0  0
  -25.8270  -30.9120   21.3880 C   0  0  0  0  0  2  0  0  0  0  0  0
  -25.8960  -29.5490   20.7230 C   0  0  0  0  0  0  0  0  0  0  0  0
  -27.0870  -28.7740   20.6870 C   0  0  0  0  0  3  0  0  0  0  0  0
  -25.8990  -27.0440   19.4650 C   0  0  0  0  0  3  0  0  0  0  0  0
  -24.7230  -27.8140   19.4950 C   0  0  0  0  0  3  0  0  0  0  0  0
  -23.4860  -29.9270   20.2190 C   0  0  0  0  0  2  0  0  0  0  0  0
  -24.5730  -31.1590   22.1450 N   0  0  0  0  0  0  0  0  0  0  0  0
  -23.4640  -32.2120   23.8210 O   0  0  0  0  0  0  0  0  0  0  0  0
  -22.6620  -29.5370   22.5680 C   0  0  0  0  0  0  0  0  0  0  0  0
  -21.3390  -29.3430   22.4490 N   0  0  0  0  0  0  0  0  0  0  0  0
  -23.3570  -28.9100   23.3710 O   0  0  0  0  0  0  0  0  0  0  0  0
  -20.8340  -29.9020   21.7750 H   0  0  0  0  0  0  0  0  0  0  0  0
  -17.9820  -28.1040   22.9610 C   0  0  0  0  0  0  0  0  0  0  0  0
  -20.5380  -28.3880   23.2140 C   0  0  0  0  0  3  0  0  0  0  0  0
  -20.6540  -26.9650   22.6210 C   0  0  0  0  0  2  0  0  0  0  0  0
  -19.5470  -26.6390   21.6140 C   0  0  0  0  0  2  0  0  0  0  0  0
  -18.1690  -26.7640   22.2720 C   0  0  0  0  0  2  0  0  0  0  0  0
  -19.0960  -28.8740   23.3900 C   0  0  0  0  0  0  0  0  0  0  0  0
  -18.8660  -30.1320   23.9920 C   0  0  0  0  0  3  0  0  0  0  0  0
  -17.5560  -30.6190   24.1610 C   0  0  0  0  0  3  0  0  0  0  0  0
  -16.4570  -29.8470   23.7460 C   0  0  0  0  0  3  0  0  0  0  0  0
  -16.6720  -28.5890   23.1570 C   0  0  0  0  0  3  0  0  0  0  0  0
  -25.8320  -32.5690   23.8610 C   0  0  0  0  0  3  0  0  0  0  0  0
  -26.3620  -31.7910   25.1280 C   0  0  1  0  0  0  0  0  0  0  0  0
  -25.2800  -31.5530   26.2050 C   0  0  0  0  0  1  0  0  0  0  0  0
  -26.9350  -30.4140   24.7200 C   0  0  0  0  0  1  0  0  0  0  0  0
  -27.5260  -32.5770   25.7770 C   0  0  0  0  0  1  0  0  0  0  0  0
  -25.5370  -33.9680   24.1960 N   0  0  0  0  0  0  0  0  0  0  0  0
  -25.8870  -35.0210   23.4430 C   0  0  0  0  0  0  0  0  0  0  0  0
  -26.5630  -34.9150   22.4180 O   0  0  0  0  0  0  0  0  0  0  0  0
  -24.9430  -34.1230   24.9970 H   0  0  0  0  0  0  0  0  0  0  0  0
  -24.2040  -36.8490   23.0540 C   0  0  0  0  0  1  0  0  0  0  0  0
  -25.4110  -36.4140   23.9020 C   0  0  0  0  0  3  0  0  0  0  0  0
  -27.5330  -37.2510   24.8130 C   0  0  0  0  0  1  0  0  0  0  0  0
  -26.4680  -37.4470   23.8340 N   0  0  0  0  0  0  0  0  0  0  0  0
  -26.0750  -38.3730   23.9760 H   0  0  0  0  0  0  0  0  0  0  0  0
  1  3  1  0
  3  2  1  0
  4 16  1  0
  5 10  1  0
  6  7  1  0
  6  5  1  0
  8  7  1  0
  8 23  1  0
  8  9  1  0
 10  4  1  0
 10  9  1  0
 11  4  2  0
 12 15  1  0
 12  3  1  0
 13 12  2  0
 14 16  1  0
 14 15  2  0
 16 19  1  0
 17 13  1  0
 18 13  1  0
 18 14  1  0
 20 21  2  0
 21 40  1  0
 22 21  1  0
 22 25  1  0
 23 24  1  0
 23 20  1  0
 24 22  2  0
 25 26  1  0
 26 27  2  0
 28 31  1  0
 28 27  1  0
 29 28  2  0
 30 29  1  0
 30 25  2  0
 31 32  1  0
 32 33  1  0
 33 34  2  0
 35 34  1  0
 35 39  1  0
 36 35  2  0
 37 32  2  0
 37 36  1  0
 38 37  1  0
 40 41  1  0
 41 44  1  0
 41 43  1  0
 42 40  2  0
 45 20  1  0
 45 46  1  0
 47 45  1  0
 49 48  1  0
 49 50  1  0
 49  1  1  0
 51 50  2  0
 51 52  1  0
 53 64  2  0
 54 52  1  0
 54 59  1  0
 55 63  1  0
 55 65  1  0
 56 62  1  0
 56 58  1  0
 57 63  1  0
 58 57  1  0
 59 58  2  0
 60 61  1  0
 60 54  2  0
 61 56  2  0
 62 55  1  0
 63 53  1  0
 65 67  2  0
 66 65  1  0
 68 66  1  0
 69 78  2  0
 69 74  1  0
 70 66  1  0
 70 74  1  0
 71 70  1  0
 72 73  1  0
 72 71  1  0
 73 69  1  0
 74 75  2  0
 75 76  1  0
 77 76  2  0
 78 77  1  0
 79 53  1  0
 79 84  1  0
 79 80  1  0
 80 83  1  1
 80 81  1  0
 82 80  1  0
 84 87  1  0
 85 89  1  0
 85 84  1  0
 86 85  2  0
 89 88  1  0
 91 89  1  0
 91 92  1  0
 91 90  1  0
M  ISO  4   4 100  16 100  51 101  52 101
M  END
>  <TORSDO>  (64) 
F 20

>  <SCORE>  (64) 
-13.305

>  <name>  (64) 
63

>  <ligand_id>  (64) 
63

>  <original_smiles>  (64) 
[H]c1c([H])c([H])c2c(c1[H])C([H])([H])C([H])([H])C([H])([H])C2([H])N([H])C(=O)C1([H])N(C(=O)C([H])(N([H])C(=O)C([H])(N([H])C([H])([H])[H])C([H])([H])[H])C(C([H])([H])[H])(C([H])([H])[H])C([H])([H])[H])C([H])([H])c2c([H])c(OC([H])([H])C([H])([H])C([H])(C([H])([H])[H])C([H])([H])C([H])(c3nc(N([H])C(=O)N4C([H])([H])C([H])([H])C([H])([H])C([H])(n5nc(-c6c([H])c([H])c(Oc7c([H])c([H])c(F)c([H])c7F)c([H])c6[H])c(C(=O)N([H])[H])c5N([H])[H])C4([H])[H])sc3F)C([H])([H])[H])c([H])c([H])c2C1([H])[H]

>  <smiles>  (64) 
[H]c1c([H])c([H])c2c(c1[H])C([H])([H])C([H])([H])C([H])([H])C2([H])N([H])C(=O)C1([H])N(C(=O)C([H])(N([H])C(=O)C([H])(N([H])C([H])([H])[H])C([H])([H])[H])C(C([H])([H])[H])(C([H])([H])[H])C([H])([H])[H])C([H])([H])c2c([H])c(OC([H])([H])C([H])([H])C([H])(C([H])([H])[H])C([H])([H])C([H])(c3nc(N([H])C(=O)N4C([H])([H])C([H])([H])C([H])([H])C([H])(n5nc(-c6c([H])c([H])c(Oc7c([H])c([H])c(F)c([H])c7F)c([H])c6[H])c(C(=O)N([H])[H])c5N([H])[H])C4([H])[H])sc3F)C([H])([H])[H])c([H])c([H])c2C1([H])[H]

$$$$
64:0:0
     RDKit          3D

 84 88  0  0  1  0  0  0  0  0999 V2000
  -28.0610  -23.3310   20.3790 C   0  0  0  0  0 15  0  0  0  0  0  0
  -28.1560  -25.2190   20.2700 O   0  0  0  0  0  1  0  0  0  0  0  0
  -24.6170  -31.8310   23.1580 C   0  0  0  0  0  0  0  0  0  0  0  0
  -27.1890  -26.5310   20.2640 C   0  0  0  0  0  0  0  0  0  0  0  0
  -23.4570  -30.4040   21.5330 C   0  0  0  0  0  3  0  0  0  0  0  0
  -24.9260  -28.7020   20.1650 C   0  0  0  0  0  0  0  0  0  0  0  0
  -26.0480  -30.4950   21.4510 C   0  0  0  0  0  2  0  0  0  0  0  0
  -26.1240  -29.0290   20.8130 C   0  0  0  0  0  0  0  0  0  0  0  0
  -27.2280  -27.9810   20.8160 C   0  0  0  0  0  3  0  0  0  0  0  0
  -25.9480  -26.4780   19.5580 C   0  0  0  0  0  3  0  0  0  0  0  0
  -24.8920  -27.4560   19.5120 C   0  0  0  0  0  3  0  0  0  0  0  0
  -23.7230  -29.6740   20.1810 C   0  0  0  0  0  2  0  0  0  0  0  0
  -24.7340  -30.9500   22.0990 N   0  0  0  0  0  0  0  0  0  0  0  0
  -23.5140  -32.1390   23.6470 O   0  0  0  0  0  0  0  0  0  0  0  0
  -22.7200  -29.4520   22.5150 C   0  0  0  0  0  0  0  0  0  0  0  0
  -21.3850  -29.3040   22.3890 N   0  0  0  0  0  0  0  0  0  0  0  0
  -23.3650  -28.8420   23.3710 O   0  0  0  0  0  0  0  0  0  0  0  0
  -20.9110  -29.8460   21.6810 H   0  0  0  0  0  0  0  0  0  0  0  0
  -17.9950  -28.0810   22.9120 C   0  0  0  0  0  0  0  0  0  0  0  0
  -20.5560  -28.3730   23.1680 C   0  0  0  0  0  3  0  0  0  0  0  0
  -20.6640  -26.9340   22.6110 C   0  0  0  0  0  2  0  0  0  0  0  0
  -19.5660  -26.5960   21.5970 C   0  0  0  0  0  2  0  0  0  0  0  0
  -18.1830  -26.7320   22.2380 C   0  0  0  0  0  2  0  0  0  0  0  0
  -19.1090  -28.8590   23.3330 C   0  0  0  0  0  0  0  0  0  0  0  0
  -18.8750  -30.1170   23.9310 C   0  0  0  0  0  3  0  0  0  0  0  0
  -17.5650  -30.6000   24.1040 C   0  0  0  0  0  3  0  0  0  0  0  0
  -16.4670  -29.8230   23.6950 C   0  0  0  0  0  3  0  0  0  0  0  0
  -16.6840  -28.5650   23.1040 C   0  0  0  0  0  3  0  0  0  0  0  0
  -25.8600  -32.5110   23.8100 C   0  0  0  0  0  3  0  0  0  0  0  0
  -26.3480  -31.7760   25.1210 C   0  0  1  0  0  0  0  0  0  0  0  0
  -25.2300  -31.5570   26.1680 C   0  0  0  0  0  1  0  0  0  0  0  0
  -26.9490  -30.3920   24.7930 C   0  0  0  0  0  1  0  0  0  0  0  0
  -27.4770  -32.5930   25.7910 C   0  0  0  0  0  1  0  0  0  0  0  0
  -25.5150  -33.9120   24.1320 N   0  0  0  0  0  0  0  0  0  0  0  0
  -25.8410  -34.9840   23.3960 C   0  0  0  0  0  0  0  0  0  0  0  0
  -26.5160  -34.8970   22.3680 O   0  0  0  0  0  0  0  0  0  0  0  0
  -24.9110  -34.0500   24.9300 H   0  0  0  0  0  0  0  0  0  0  0  0
  -24.0990  -36.7790   23.0740 C   0  0  0  0  0  1  0  0  0  0  0  0
  -25.3490  -36.3700   23.8700 C   0  0  0  0  0  3  0  0  0  0  0  0
  -27.4780  -37.2780   24.6970 C   0  0  0  0  0  1  0  0  0  0  0  0
  -26.3710  -37.4340   23.7580 N   0  0  0  0  0  0  0  0  0  0  0  0
  -25.9550  -38.3500   23.9070 H   0  0  0  0  0  0  0  0  0  0  0  0
  -28.6290  -21.3440   19.9070 C   0  0  0  0  0  1  0  0  0  0  0  0
  -28.9480  -21.4690   18.5330 O   0  0  0  0  0  0  0  0  0  0  0  0
  -28.3140  -22.0670   18.1440 H   0  0  0  0  0  0  0  0  0  0  0  0
  -29.4930  -19.4760   20.3290 C   0  0  0  0  0  1  0  0  0  0  0  0
  -30.1470  -16.1120   20.0740 C   0  0  0  0  0  0  0  0  0  0  0  0
  -30.3410  -13.4840   19.2480 C   0  0  0  0  0  2  0  0  0  0  0  0
  -29.4650  -12.8880   18.0970 C   0  0  0  0  0  2  0  0  0  0  0  0
  -28.0870  -12.4440   18.6060 C   0  0  0  0  0  2  0  0  0  0  0  0
  -27.5420  -13.4610   19.6270 C   0  0  0  0  0  3  0  0  0  0  0  0
  -28.5780  -13.9330   20.6860 C   0  0  0  0  0  2  0  0  0  0  0  0
  -29.6570  -14.6860   19.9680 N   0  0  0  0  0  0  0  0  0  0  0  0
  -31.3920  -15.9740   19.9820 O   0  0  0  0  0  0  0  0  0  0  0  0
  -27.9570  -17.3680   19.9170 C   0  0  0  0  0  1  0  0  0  0  0  0
  -29.3860  -17.5830   20.1000 N   0  0  0  0  0  0  0  0  0  0  0  0
  -25.2000  -13.9390   20.4620 C   0  0  0  0  0  0  0  0  0  0  0  0
  -24.1600  -13.1450   20.8470 C   0  0  0  0  0  0  0  0  0  0  0  0
  -24.6450  -11.8020   20.7930 C   0  0  0  0  0  0  0  0  0  0  0  0
  -26.2520  -13.0870   20.1890 N   0  0  0  0  0  0  0  0  0  0  0  0
  -25.9330  -11.7890   20.4500 N   0  0  0  0  0  0  0  0  0  0  0  0
  -23.9300  -10.5330   20.9870 C   0  0  0  0  0  0  0  0  0  0  0  0
  -24.3740   -9.5660   21.9160 C   0  0  0  0  0  3  0  0  0  0  0  0
  -23.6520   -8.3670   22.1030 C   0  0  0  0  0  3  0  0  0  0  0  0
  -22.4700   -8.1270   21.3620 C   0  0  0  0  0  0  0  0  0  0  0  0
  -22.0430   -9.0810   20.4230 C   0  0  0  0  0  3  0  0  0  0  0  0
  -22.7670  -10.2720   20.2330 C   0  0  0  0  0  3  0  0  0  0  0  0
  -21.7190   -6.9790   21.4590 O   0  0  0  0  0  0  0  0  0  0  0  0
  -21.6750   -6.2420   22.6160 C   0  0  0  0  0  0  0  0  0  0  0  0
  -21.2300   -6.7970   23.8360 C   0  0  0  0  0  3  0  0  0  0  0  0
  -21.1350   -5.9870   24.9850 C   0  0  0  0  0  3  0  0  0  0  0  0
  -21.4750   -4.6230   24.9140 C   0  0  0  0  0  0  0  0  0  0  0  0
  -21.9120   -4.0670   23.6990 C   0  0  0  0  0  3  0  0  0  0  0  0
  -22.0080   -4.8750   22.5520 C   0  0  0  0  0  0  0  0  0  0  0  0
  -22.4100   -4.3290   21.3790 F   0  0  0  0  0  0  0  0  0  0  0  0
  -21.3760   -3.8410   26.0150 F   0  0  0  0  0  0  0  0  0  0  0  0
  -22.7640  -13.6090   21.1430 C   0  0  0  0  0  0  0  0  0  0  0  0
  -22.0580  -12.9050   22.0170 N   0  0  0  0  0  0  0  0  0  0  0  0
  -22.3120  -14.6350   20.6340 O   0  0  0  0  0  0  0  0  0  0  0  0
  -22.4390  -12.0770   22.4510 H   0  0  0  0  0  0  0  0  0  0  0  0
  -21.1220  -13.1970   22.2600 H   0  0  0  0  0  0  0  0  0  0  0  0
  -25.3310  -15.3110   20.2850 N   0  0  0  0  0  0  0  0  0  0  0  0
  -24.5490  -15.9450   20.4100 H   0  0  0  0  0  0  0  0  0  0  0  0
  -26.1570  -15.7660   19.9220 H   0  0  0  0  0  0  0  0  0  0  0  0
  3 14  2  0
  4  2  1  0
  4  9  1  0
  5 13  1  0
  5 15  1  0
  6 12  1  0
  6  8  1  0
  7 13  1  0
  8  9  2  0
  8  7  1  0
 10  4  2  0
 11 10  1  0
 11  6  2  0
 12  5  1  0
 13  3  1  0
 15 17  2  0
 16 15  1  0
 18 16  1  0
 19 28  2  0
 19 24  1  0
 20 16  1  0
 20 24  1  0
 21 20  1  0
 22 23  1  0
 22 21  1  0
 23 19  1  0
 24 25  2  0
 25 26  1  0
 27 26  2  0
 28 27  1  0
 29  3  1  0
 29 34  1  0
 29 30  1  0
 30 33  1  1
 30 31  1  0
 32 30  1  0
 34 37  1  0
 35 39  1  0
 35 34  1  0
 36 35  2  0
 39 38  1  0
 41 39  1  0
 41 42  1  0
 41 40  1  0
 44 43  1  0
 45 44  1  0
 47 56  1  0
 48 53  1  0
 49 50  1  0
 49 48  1  0
 51 50  1  0
 51 60  1  0
 51 52  1  0
 53 47  1  0
 53 52  1  0
 54 47  2  0
 55 56  1  0
 56 46  1  0
 57 58  2  0
 58 77  1  0
 59 58  1  0
 59 62  1  0
 60 61  1  0
 60 57  1  0
 61 59  2  0
 62 63  1  0
 63 64  2  0
 65 68  1  0
 65 64  1  0
 66 65  2  0
 67 66  1  0
 67 62  2  0
 68 69  1  0
 69 70  1  0
 70 71  2  0
 72 71  1  0
 72 76  1  0
 73 72  2  0
 74 69  2  0
 74 73  1  0
 75 74  1  0
 77 78  1  0
 78 81  1  0
 78 80  1  0
 79 77  2  0
 82 83  1  0
 82 57  1  0
 84 82  1  0
M  ISO  4   1 101   2 101  47 100  56 100
M  END
>  <TORSDO>  (65) 
F 19

>  <SCORE>  (65) 
-16.390

>  <name>  (65) 
64

>  <ligand_id>  (65) 
64

>  <original_smiles>  (65) 
[H]OC([H])(C([H])([H])Oc1c([H])c([H])c2c(c1[H])C([H])([H])N(C(=O)C([H])(N([H])C(=O)C([H])(N([H])C([H])([H])[H])C([H])([H])[H])C(C([H])([H])[H])(C([H])([H])[H])C([H])([H])[H])C([H])(C(=O)N([H])C1([H])c3c([H])c([H])c([H])c([H])c3C([H])([H])C([H])([H])C1([H])[H])C2([H])[H])C([H])([H])N(C(=O)N1C([H])([H])C([H])([H])C([H])([H])C([H])(n2nc(-c3c([H])c([H])c(Oc4c([H])c([H])c(F)c([H])c4F)c([H])c3[H])c(C(=O)N([H])[H])c2N([H])[H])C1([H])[H])C([H])([H])[H]

>  <smiles>  (65) 
[H]OC([H])(C([H])([H])Oc1c([H])c([H])c2c(c1[H])C([H])([H])N(C(=O)C([H])(N([H])C(=O)C([H])(N([H])C([H])([H])[H])C([H])([H])[H])C(C([H])([H])[H])(C([H])([H])[H])C([H])([H])[H])C([H])(C(=O)N([H])C1([H])c3c([H])c([H])c([H])c([H])c3C([H])([H])C([H])([H])C1([H])[H])C2([H])[H])C([H])([H])N(C(=O)N1C([H])([H])C([H])([H])C([H])([H])C([H])(n2nc(-c3c([H])c([H])c(Oc4c([H])c([H])c(F)c([H])c4F)c([H])c3[H])c(C(=O)N([H])[H])c2N([H])[H])C1([H])[H])C([H])([H])[H]

$$$$
65:0:0
     RDKit          3D

 90 98  0  0  1  0  0  0  0  0999 V2000
  -30.1960  -18.9660   21.9940 C   0  0  0  0  0  3  0  0  0  0  0  0
  -30.0410  -20.2060   22.6340 C   0  0  0  0  0  3  0  0  0  0  0  0
  -29.9290  -18.8970   20.6240 C   0  0  0  0  0  0  0  0  0  0  0  0
  -29.4110  -21.2460   20.6900 C   0  0  0  0  0  0  0  0  0  0  0  0
  -29.6530  -21.3270   21.9850 N   0  0  0  0  0  0  0  0  0  0  0  0
  -29.5310  -20.0770   19.9880 N   0  0  0  0  0  0  0  0  0  0  0  0
  -29.0560  -22.4880   20.0600 N   0  0  0  0  0  0  0  0  0  0  0  0
  -28.8880  -22.4280   19.0610 H   0  0  0  0  0  0  0  0  0  0  0  0
  -30.2080  -17.5370   19.8370 C   0  0  0  0  0  2  0  0  0  0  0  0
  -30.7290  -14.9840   20.1720 C   0  0  0  0  0  0  0  0  0  0  0  0
  -30.5020  -12.6890   19.1960 C   0  0  0  0  0  2  0  0  0  0  0  0
  -29.5580  -12.7510   17.9740 C   0  0  0  0  0  2  0  0  0  0  0  0
  -28.1060  -12.5220   18.4290 C   0  0  0  0  0  2  0  0  0  0  0  0
  -27.7240  -13.4400   19.6220 C   0  0  0  0  0  3  0  0  0  0  0  0
  -28.7920  -13.4290   20.7410 C   0  0  0  0  0  2  0  0  0  0  0  0
  -30.0900  -13.7630   20.1380 N   0  0  0  0  0  0  0  0  0  0  0  0
  -31.8890  -15.0710   19.7570 O   0  0  0  0  0  0  0  0  0  0  0  0
  -29.9940  -16.1350   20.4340 N   0  0  0  0  0  0  0  0  0  0  0  0
  -29.0880  -15.9950   20.8490 H   0  0  0  0  0  0  0  0  0  0  0  0
  -25.3590  -14.0180   20.4130 C   0  0  0  0  0  0  0  0  0  0  0  0
  -24.3030  -13.2380   20.8030 C   0  0  0  0  0  0  0  0  0  0  0  0
  -24.7700  -11.8890   20.7560 C   0  0  0  0  0  0  0  0  0  0  0  0
  -26.3970  -13.1420   20.1450 N   0  0  0  0  0  0  0  0  0  0  0  0
  -26.0550  -11.8560   20.4200 N   0  0  0  0  0  0  0  0  0  0  0  0
  -24.0490  -10.6240   20.9560 C   0  0  0  0  0  0  0  0  0  0  0  0
  -24.4810   -9.6690   21.9030 C   0  0  0  0  0  3  0  0  0  0  0  0
  -23.7600   -8.4700   22.0900 C   0  0  0  0  0  3  0  0  0  0  0  0
  -22.5940   -8.2180   21.3300 C   0  0  0  0  0  0  0  0  0  0  0  0
  -22.1810   -9.1620   20.3740 C   0  0  0  0  0  3  0  0  0  0  0  0
  -22.9030  -10.3520   20.1840 C   0  0  0  0  0  3  0  0  0  0  0  0
  -21.8420   -7.0710   21.4260 O   0  0  0  0  0  0  0  0  0  0  0  0
  -21.7800   -6.3480   22.5900 C   0  0  0  0  0  0  0  0  0  0  0  0
  -21.3090   -6.9140   23.7940 C   0  0  0  0  0  3  0  0  0  0  0  0
  -21.1950   -6.1150   24.9500 C   0  0  0  0  0  3  0  0  0  0  0  0
  -21.5420   -4.7520   24.9010 C   0  0  0  0  0  0  0  0  0  0  0  0
  -22.0020   -4.1850   23.7010 C   0  0  0  0  0  3  0  0  0  0  0  0
  -22.1190   -4.9810   22.5480 C   0  0  0  0  0  0  0  0  0  0  0  0
  -22.5450   -4.4250   21.3880 F   0  0  0  0  0  0  0  0  0  0  0  0
  -21.4240   -3.9820   26.0090 F   0  0  0  0  0  0  0  0  0  0  0  0
  -22.9100  -13.7100   21.0990 C   0  0  0  0  0  0  0  0  0  0  0  0
  -22.2050  -13.0080   21.9800 N   0  0  0  0  0  0  0  0  0  0  0  0
  -22.4590  -14.7330   20.5880 O   0  0  0  0  0  0  0  0  0  0  0  0
  -22.5850  -12.1710   22.3990 H   0  0  0  0  0  0  0  0  0  0  0  0
  -21.2760  -13.3040   22.2410 H   0  0  0  0  0  0  0  0  0  0  0  0
  -25.5190  -15.3890   20.2390 N   0  0  0  0  0  0  0  0  0  0  0  0
  -24.7470  -16.0390   20.3450 H   0  0  0  0  0  0  0  0  0  0  0  0
  -26.3420  -15.8270   19.8430 H   0  0  0  0  0  0  0  0  0  0  0  0
  -28.8430  -23.8620   20.6930 C   0  0  0  0  0  3  0  0  0  0  0  0
  -28.6390  -25.1680   19.7500 C   0  0  0  0  0  3  0  0  0  0  0  0
  -28.5440  -26.5740   20.2930 O   0  0  0  0  0  0  0  0  0  0  0  0
  -24.6350  -31.9130   23.2760 C   0  0  0  0  0  0  0  0  0  0  0  0
  -27.4020  -27.4060   20.2040 C   0  0  0  0  0  0  0  0  0  0  0  0
  -23.5040  -30.5240   21.5780 C   0  0  0  0  0  3  0  0  0  0  0  0
  -25.0150  -29.0190   20.1630 C   0  0  0  0  0  0  0  0  0  0  0  0
  -26.0430  -30.8730   21.4750 C   0  0  0  0  0  2  0  0  0  0  0  0
  -26.1620  -29.5050   20.8020 C   0  0  0  0  0  0  0  0  0  0  0  0
  -27.3500  -28.7100   20.8150 C   0  0  0  0  0  3  0  0  0  0  0  0
  -26.2240  -26.9880   19.5440 C   0  0  0  0  0  3  0  0  0  0  0  0
  -25.0520  -27.7700   19.5280 C   0  0  0  0  0  3  0  0  0  0  0  0
  -23.7650  -29.8770   20.1920 C   0  0  0  0  0  2  0  0  0  0  0  0
  -24.7460  -31.1220   22.1650 N   0  0  0  0  0  0  0  0  0  0  0  0
  -23.5320  -32.1590   23.7850 O   0  0  0  0  0  0  0  0  0  0  0  0
  -22.8350  -29.4780   22.5030 C   0  0  0  0  0  0  0  0  0  0  0  0
  -21.5190  -29.2700   22.3350 N   0  0  0  0  0  0  0  0  0  0  0  0
  -23.4980  -28.8590   23.3390 O   0  0  0  0  0  0  0  0  0  0  0  0
  -21.0370  -29.8180   21.6360 H   0  0  0  0  0  0  0  0  0  0  0  0
  -18.1620  -27.9720   22.7130 C   0  0  0  0  0  0  0  0  0  0  0  0
  -20.7020  -28.2990   23.0690 C   0  0  0  0  0  3  0  0  0  0  0  0
  -20.8600  -26.8770   22.4800 C   0  0  0  0  0  2  0  0  0  0  0  0
  -19.8030  -26.5420   21.4240 C   0  0  0  0  0  2  0  0  0  0  0  0
  -18.3970  -26.6380   22.0230 C   0  0  0  0  0  2  0  0  0  0  0  0
  -19.2450  -28.7580   23.1900 C   0  0  0  0  0  0  0  0  0  0  0  0
  -18.9690  -30.0060   23.7950 C   0  0  0  0  0  3  0  0  0  0  0  0
  -17.6460  -30.4660   23.9250 C   0  0  0  0  0  3  0  0  0  0  0  0
  -16.5780  -29.6780   23.4620 C   0  0  0  0  0  3  0  0  0  0  0  0
  -16.8380  -28.4310   22.8650 C   0  0  0  0  0  3  0  0  0  0  0  0
  -25.8860  -32.5620   23.9400 C   0  0  0  0  0  3  0  0  0  0  0  0
  -26.3390  -31.8250   25.2610 C   0  0  1  0  0  0  0  0  0  0  0  0
  -25.1970  -31.6110   26.2800 C   0  0  0  0  0  1  0  0  0  0  0  0
  -26.9450  -30.4400   24.9360 C   0  0  0  0  0  1  0  0  0  0  0  0
  -27.4530  -32.6390   25.9610 C   0  0  0  0  0  1  0  0  0  0  0  0
  -25.5600  -33.9690   24.2230 N   0  0  0  0  0  0  0  0  0  0  0  0
  -25.9060  -35.0040   23.4460 C   0  0  0  0  0  0  0  0  0  0  0  0
  -26.6030  -34.8780   22.4350 O   0  0  0  0  0  0  0  0  0  0  0  0
  -24.9400  -34.1390   25.0010 H   0  0  0  0  0  0  0  0  0  0  0  0
  -24.1790  -36.7830   23.0020 C   0  0  0  0  0  1  0  0  0  0  0  0
  -25.4010  -36.4030   23.8550 C   0  0  0  0  0  3  0  0  0  0  0  0
  -27.5050  -37.3280   24.7210 C   0  0  0  0  0  1  0  0  0  0  0  0
  -26.4330  -37.4590   23.7380 N   0  0  0  0  0  0  0  0  0  0  0  0
  -26.0180  -38.3810   23.8400 H   0  0  0  0  0  0  0  0  0  0  0  0
  1  2  2  0
  3  1  1  0
  4  5  2  0
  5  2  1  0
  6  3  2  0
  6  4  1  0
  7  4  1  0
  7 48  1  0
  8  7  1  0
  9 18  1  0
  9  3  1  0
 10 18  1  0
 11 16  1  0
 12 13  1  0
 12 11  1  0
 14 13  1  0
 14 23  1  0
 14 15  1  0
 16 10  1  0
 16 15  1  0
 17 10  2  0
 18 19  1  0
 20 21  2  0
 21 40  1  0
 22 21  1  0
 22 25  1  0
 23 20  1  0
 23 24  1  0
 24 22  2  0
 25 26  1  0
 26 27  2  0
 28 31  1  0
 28 27  1  0
 29 28  2  0
 30 29  1  0
 30 25  2  0
 31 32  1  0
 32 33  1  0
 33 34  2  0
 35 34  1  0
 35 39  1  0
 36 35  2  0
 37 32  2  0
 37 36  1  0
 38 37  1  0
 40 41  1  0
 41 44  1  0
 41 43  1  0
 42 40  2  0
 45 46  1  0
 45 20  1  0
 47 45  1  0
 49 50  1  0
 49 48  2  0
 51 62  2  0
 52 50  1  0
 52 57  1  0
 53 61  1  0
 53 63  1  0
 54 60  1  0
 54 56  1  0
 55 61  1  0
 56 57  2  0
 56 55  1  0
 58 52  2  0
 59 58  1  0
 59 54  2  0
 60 53  1  0
 61 51  1  0
 63 65  2  0
 64 63  1  0
 66 64  1  0
 67 76  2  0
 67 72  1  0
 68 64  1  0
 68 72  1  0
 69 68  1  0
 70 71  1  0
 70 69  1  0
 71 67  1  0
 72 73  2  0
 73 74  1  0
 75 74  2  0
 76 75  1  0
 77 51  1  0
 77 82  1  0
 77 78  1  0
 78 81  1  1
 78 79  1  0
 80 78  1  0
 82 85  1  0
 83 87  1  0
 83 82  1  0
 84 83  2  0
 87 86  1  0
 89 90  1  0
 89 87  1  0
 89 88  1  0
M  ISO  4  10 100  18 100  49 101  50 101
M  END
>  <TORSDO>  (66) 
F 19

>  <SCORE>  (66) 
-13.309

>  <name>  (66) 
65

>  <ligand_id>  (66) 
65

>  <original_smiles>  (66) 
[H]c1nc(N([H])C([H])([H])C([H])([H])Oc2c([H])c([H])c3c(c2[H])C([H])([H])N(C(=O)C([H])(N([H])C(=O)C([H])(N([H])C([H])([H])[H])C([H])([H])[H])C(C([H])([H])[H])(C([H])([H])[H])C([H])([H])[H])C([H])(C(=O)N([H])C2([H])c4c([H])c([H])c([H])c([H])c4C([H])([H])C([H])([H])C2([H])[H])C3([H])[H])nc(C([H])([H])N([H])C(=O)N2C([H])([H])C([H])([H])C([H])([H])C([H])(n3nc(-c4c([H])c([H])c(Oc5c([H])c([H])c(F)c([H])c5F)c([H])c4[H])c(C(=O)N([H])[H])c3N([H])[H])C2([H])[H])c1[H]

>  <smiles>  (66) 
[H]c1nc(N([H])C([H])([H])C([H])([H])Oc2c([H])c([H])c3c(c2[H])C([H])([H])N(C(=O)C([H])(N([H])C(=O)C([H])(N([H])C([H])([H])[H])C([H])([H])[H])C(C([H])([H])[H])(C([H])([H])[H])C([H])([H])[H])C([H])(C(=O)N([H])C2([H])c4c([H])c([H])c([H])c([H])c4C([H])([H])C([H])([H])C2([H])[H])C3([H])[H])nc(C([H])([H])N([H])C(=O)N2C([H])([H])C([H])([H])C([H])([H])C([H])(n3nc(-c4c([H])c([H])c(Oc5c([H])c([H])c(F)c([H])c5F)c([H])c4[H])c(C(=O)N([H])[H])c3N([H])[H])C2([H])[H])c1[H]

$$$$
66:0:0
     RDKit          3D

 91 99  0  0  1  0  0  0  0  0999 V2000
  -28.9920  -22.8110   20.4000 C   0  0  0  0  0  0  0  0  0  0  0  0
  -29.7230  -21.7950   19.8790 N   0  0  0  0  0  0  0  0  0  0  0  0
  -28.0500  -22.6070   21.1710 O   0  0  0  0  0  0  0  0  0  0  0  0
  -30.5420  -22.0610   19.3450 H   0  0  0  0  0  0  0  0  0  0  0  0
  -30.5500  -19.4220   20.1080 C   0  0  0  0  0  3  0  0  0  0  0  0
  -28.2470  -19.7960   20.0930 C   0  0  0  0  0  3  0  0  0  0  0  0
  -29.4890  -20.3820   20.0290 C   0  0  0  0  0  0  0  0  0  0  0  0
  -30.1080  -18.1320   20.3160 C   0  0  0  0  0  0  0  0  0  0  0  0
  -28.3620  -18.0630   20.2810 S   0  0  0  0  0  0  0  0  0  0  0  0
  -30.9690  -16.9380   20.6570 C   0  0  0  0  0  2  0  0  0  0  0  0
  -30.9580  -14.5060   20.1600 C   0  0  0  0  0  0  0  0  0  0  0  0
  -30.5590  -12.3070   19.1300 C   0  0  0  0  0  2  0  0  0  0  0  0
  -29.5990  -12.4670   17.9380 C   0  0  0  0  0  2  0  0  0  0  0  0
  -28.1370  -12.3750   18.4090 C   0  0  0  0  0  2  0  0  0  0  0  0
  -27.8380  -13.2740   19.6420 C   0  0  0  0  0  3  0  0  0  0  0  0
  -28.9190  -13.1300   20.7360 C   0  0  0  0  0  2  0  0  0  0  0  0
  -30.2290  -13.3570   20.1090 N   0  0  0  0  0  0  0  0  0  0  0  0
  -32.0910  -14.5870   19.6900 O   0  0  0  0  0  0  0  0  0  0  0  0
  -30.3310  -15.6090   20.6090 N   0  0  0  0  0  0  0  0  0  0  0  0
  -29.3810  -15.5160   20.9310 H   0  0  0  0  0  0  0  0  0  0  0  0
  -25.4800  -13.9180   20.4360 C   0  0  0  0  0  0  0  0  0  0  0  0
  -24.4040  -13.1610   20.8220 C   0  0  0  0  0  0  0  0  0  0  0  0
  -24.8350  -11.8000   20.7600 C   0  0  0  0  0  0  0  0  0  0  0  0
  -26.4960  -13.0170   20.1650 N   0  0  0  0  0  0  0  0  0  0  0  0
  -26.1150  -11.7380   20.4180 N   0  0  0  0  0  0  0  0  0  0  0  0
  -24.0890  -10.5500   20.9540 C   0  0  0  0  0  0  0  0  0  0  0  0
  -24.5070   -9.5710   21.8820 C   0  0  0  0  0  3  0  0  0  0  0  0
  -23.7610   -8.3870   22.0620 C   0  0  0  0  0  3  0  0  0  0  0  0
  -22.5800   -8.1710   21.3130 C   0  0  0  0  0  0  0  0  0  0  0  0
  -22.1800   -9.1380   20.3730 C   0  0  0  0  0  3  0  0  0  0  0  0
  -22.9280  -10.3130   20.1910 C   0  0  0  0  0  3  0  0  0  0  0  0
  -21.8050   -7.0390   21.4030 O   0  0  0  0  0  0  0  0  0  0  0  0
  -21.7310   -6.3070   22.5610 C   0  0  0  0  0  0  0  0  0  0  0  0
  -21.2800   -6.8730   23.7730 C   0  0  0  0  0  3  0  0  0  0  0  0
  -21.1530   -6.0650   24.9210 C   0  0  0  0  0  3  0  0  0  0  0  0
  -21.4710   -4.6950   24.8580 C   0  0  0  0  0  0  0  0  0  0  0  0
  -21.9180   -4.1310   23.6510 C   0  0  0  0  0  3  0  0  0  0  0  0
  -22.0450   -4.9340   22.5040 C   0  0  0  0  0  0  0  0  0  0  0  0
  -22.4540   -4.3780   21.3380 F   0  0  0  0  0  0  0  0  0  0  0  0
  -21.3430   -3.9180   25.9610 F   0  0  0  0  0  0  0  0  0  0  0  0
  -23.0270  -13.6640   21.1380 C   0  0  0  0  0  0  0  0  0  0  0  0
  -22.3110  -12.9690   22.0160 N   0  0  0  0  0  0  0  0  0  0  0  0
  -22.5930  -14.7010   20.6410 O   0  0  0  0  0  0  0  0  0  0  0  0
  -22.6740  -12.1260   22.4340 H   0  0  0  0  0  0  0  0  0  0  0  0
  -21.3900  -13.2910   22.2780 H   0  0  0  0  0  0  0  0  0  0  0  0
  -25.6800  -15.2860   20.2720 N   0  0  0  0  0  0  0  0  0  0  0  0
  -24.9580  -15.9810   20.4280 H   0  0  0  0  0  0  0  0  0  0  0  0
  -26.5400  -15.6900   19.9230 H   0  0  0  0  0  0  0  0  0  0  0  0
  -29.3610  -24.2730   20.0380 C   0  0  0  0  0  2  0  0  0  0  0  0
  -28.3250  -25.2970   20.6060 C   0  0  0  0  0  2  0  0  0  0  0  0
  -28.5140  -26.6960   20.2820 O   0  0  0  0  0  0  0  0  0  0  0  0
  -24.5810  -31.8960   23.2760 C   0  0  0  0  0  0  0  0  0  0  0  0
  -27.3540  -27.4550   20.2590 C   0  0  0  0  0  0  0  0  0  0  0  0
  -23.4350  -30.4870   21.6030 C   0  0  0  0  0  3  0  0  0  0  0  0
  -24.9430  -28.9600   20.2190 C   0  0  0  0  0  0  0  0  0  0  0  0
  -25.9700  -30.8540   21.4830 C   0  0  0  0  0  2  0  0  0  0  0  0
  -26.0850  -29.4850   20.8360 C   0  0  0  0  0  0  0  0  0  0  0  0
  -27.2970  -28.7470   20.8420 C   0  0  0  0  0  3  0  0  0  0  0  0
  -26.1950  -26.9620   19.6190 C   0  0  0  0  0  3  0  0  0  0  0  0
  -24.9960  -27.6970   19.6060 C   0  0  0  0  0  3  0  0  0  0  0  0
  -23.6870  -29.8040   20.2340 C   0  0  0  0  0  2  0  0  0  0  0  0
  -24.6790  -31.0960   22.1780 N   0  0  0  0  0  0  0  0  0  0  0  0
  -23.4810  -32.1640   23.7810 O   0  0  0  0  0  0  0  0  0  0  0  0
  -22.7610  -29.4620   22.5430 C   0  0  0  0  0  0  0  0  0  0  0  0
  -21.4420  -29.2720   22.3780 N   0  0  0  0  0  0  0  0  0  0  0  0
  -23.4240  -28.8400   23.3780 O   0  0  0  0  0  0  0  0  0  0  0  0
  -20.9710  -29.8140   21.6690 H   0  0  0  0  0  0  0  0  0  0  0  0
  -18.0620  -28.0680   22.8030 C   0  0  0  0  0  0  0  0  0  0  0  0
  -20.6130  -28.3290   23.1280 C   0  0  0  0  0  3  0  0  0  0  0  0
  -20.7340  -26.9020   22.5440 C   0  0  0  0  0  2  0  0  0  0  0  0
  -19.6490  -26.5830   21.5100 C   0  0  0  0  0  2  0  0  0  0  0  0
  -18.2570  -26.7210   22.1280 C   0  0  0  0  0  2  0  0  0  0  0  0
  -19.1700  -28.8300   23.2610 C   0  0  0  0  0  0  0  0  0  0  0  0
  -18.9380  -30.0890   23.8550 C   0  0  0  0  0  3  0  0  0  0  0  0
  -17.6300  -30.5890   23.9960 C   0  0  0  0  0  3  0  0  0  0  0  0
  -16.5370  -29.8250   23.5560 C   0  0  0  0  0  3  0  0  0  0  0  0
  -16.7530  -28.5670   22.9670 C   0  0  0  0  0  3  0  0  0  0  0  0
  -25.8420  -32.5380   23.9340 C   0  0  0  0  0  3  0  0  0  0  0  0
  -26.3100  -31.7890   25.2420 C   0  0  1  0  0  0  0  0  0  0  0  0
  -25.1730  -31.5590   26.2640 C   0  0  0  0  0  1  0  0  0  0  0  0
  -26.9240  -30.4120   24.8990 C   0  0  0  0  0  1  0  0  0  0  0  0
  -27.4310  -32.6000   25.9350 C   0  0  0  0  0  1  0  0  0  0  0  0
  -25.5220  -33.9410   24.2280 N   0  0  0  0  0  0  0  0  0  0  0  0
  -25.8830  -34.9790   23.4620 C   0  0  0  0  0  0  0  0  0  0  0  0
  -26.5910  -34.8560   22.4580 O   0  0  0  0  0  0  0  0  0  0  0  0
  -24.8970  -34.1110   25.0030 H   0  0  0  0  0  0  0  0  0  0  0  0
  -24.1690  -36.7610   22.9990 C   0  0  0  0  0  1  0  0  0  0  0  0
  -25.3760  -36.3750   23.8710 C   0  0  0  0  0  3  0  0  0  0  0  0
  -27.4720  -37.2770   24.7770 C   0  0  0  0  0  1  0  0  0  0  0  0
  -26.4140  -37.4250   23.7810 N   0  0  0  0  0  0  0  0  0  0  0  0
  -26.0050  -38.3500   23.8870 H   0  0  0  0  0  0  0  0  0  0  0  0
  1  3  2  0
  2  7  1  0
  2  1  1  0
  4  2  1  0
  5  8  2  0
  6  9  1  0
  7  6  2  0
  7  5  1  0
  8 10  1  0
  9  8  1  0
 11 19  1  0
 12 17  1  0
 13 14  1  0
 13 12  1  0
 15 14  1  0
 15 24  1  0
 15 16  1  0
 17 11  1  0
 17 16  1  0
 18 11  2  0
 19 10  1  0
 19 20  1  0
 21 22  2  0
 22 41  1  0
 23 22  1  0
 23 26  1  0
 24 25  1  0
 24 21  1  0
 25 23  2  0
 26 27  1  0
 27 28  2  0
 29 32  1  0
 29 28  1  0
 30 29  2  0
 31 30  1  0
 31 26  2  0
 32 33  1  0
 33 34  1  0
 34 35  2  0
 36 35  1  0
 36 40  1  0
 37 36  2  0
 38 33  2  0
 38 37  1  0
 39 38  1  0
 41 42  1  0
 42 45  1  0
 42 44  1  0
 43 41  2  0
 46 47  1  0
 46 21  1  0
 48 46  1  0
 49  1  1  0
 49 50  1  0
 51 50  1  0
 52 63  2  0
 53 51  1  0
 53 58  1  0
 54 62  1  0
 54 64  1  0
 55 61  1  0
 55 57  1  0
 56 62  1  0
 57 58  2  0
 57 56  1  0
 59 53  2  0
 60 59  1  0
 60 55  2  0
 61 54  1  0
 62 52  1  0
 64 66  2  0
 65 64  1  0
 67 65  1  0
 68 77  2  0
 68 73  1  0
 69 65  1  0
 69 73  1  0
 70 69  1  0
 71 72  1  0
 71 70  1  0
 72 68  1  0
 73 74  2  0
 74 75  1  0
 76 75  2  0
 77 76  1  0
 78 52  1  0
 78 83  1  0
 78 79  1  0
 79 82  1  1
 79 80  1  0
 81 79  1  0
 83 86  1  0
 84 88  1  0
 84 83  1  0
 85 84  2  0
 88 87  1  0
 90 88  1  0
 90 91  1  0
 90 89  1  0
M  ISO  4  11 100  19 100  50 101  51 101
M  END
>  <TORSDO>  (67) 
F 20

>  <SCORE>  (67) 
-13.905

>  <name>  (67) 
66

>  <ligand_id>  (67) 
66

>  <original_smiles>  (67) 
[H]c1sc(C([H])([H])N([H])C(=O)N2C([H])([H])C([H])([H])C([H])([H])C([H])(n3nc(-c4c([H])c([H])c(Oc5c([H])c([H])c(F)c([H])c5F)c([H])c4[H])c(C(=O)N([H])[H])c3N([H])[H])C2([H])[H])c([H])c1N([H])C(=O)C([H])([H])C([H])([H])Oc1c([H])c([H])c2c(c1[H])C([H])([H])N(C(=O)C([H])(N([H])C(=O)C([H])(N([H])C([H])([H])[H])C([H])([H])[H])C(C([H])([H])[H])(C([H])([H])[H])C([H])([H])[H])C([H])(C(=O)N([H])C1([H])c3c([H])c([H])c([H])c([H])c3C([H])([H])C([H])([H])C1([H])[H])C2([H])[H]

>  <smiles>  (67) 
[H]c1sc(C([H])([H])N([H])C(=O)N2C([H])([H])C([H])([H])C([H])([H])C([H])(n3nc(-c4c([H])c([H])c(Oc5c([H])c([H])c(F)c([H])c5F)c([H])c4[H])c(C(=O)N([H])[H])c3N([H])[H])C2([H])[H])c([H])c1N([H])C(=O)C([H])([H])C([H])([H])Oc1c([H])c([H])c2c(c1[H])C([H])([H])N(C(=O)C([H])(N([H])C(=O)C([H])(N([H])C([H])([H])[H])C([H])([H])[H])C(C([H])([H])[H])(C([H])([H])[H])C([H])([H])[H])C([H])(C(=O)N([H])C1([H])c3c([H])c([H])c([H])c([H])c3C([H])([H])C([H])([H])C1([H])[H])C2([H])[H]

$$$$
67:0:0
     RDKit          3D

 97105  0  0  1  0  0  0  0  0999 V2000
  -30.5870  -14.8370   20.4070 C   0  0  0  0  0  0  0  0  0  0  0  0
  -30.3940  -12.5600   19.3920 C   0  0  0  0  0  2  0  0  0  0  0  0
  -29.4640  -12.6690   18.1620 C   0  0  0  0  0  2  0  0  0  0  0  0
  -27.9920  -12.4970   18.5790 C   0  0  0  0  0  2  0  0  0  0  0  0
  -27.6190  -13.3440   19.8250 C   0  0  0  0  0  3  0  0  0  0  0  0
  -28.6770  -13.2270   20.9440 C   0  0  0  0  0  2  0  0  0  0  0  0
  -29.9740  -13.5980   20.3660 N   0  0  0  0  0  0  0  0  0  0  0  0
  -31.7750  -14.9120   20.0620 O   0  0  0  0  0  0  0  0  0  0  0  0
  -29.4300  -19.7190   18.8630 C   0  0  0  0  0  3  0  0  0  0  0  0
  -29.6750  -18.5200   18.1910 C   0  0  0  0  0  0  0  0  0  0  0  0
  -29.3940  -19.6920   20.2570 C   0  0  0  0  0  0  0  0  0  0  0  0
  -29.8010  -17.3060   20.1460 C   0  0  0  0  0  0  0  0  0  0  0  0
  -29.8690  -17.3490   18.8160 N   0  0  0  0  0  0  0  0  0  0  0  0
  -29.5360  -18.4500   20.8800 N   0  0  0  0  0  0  0  0  0  0  0  0
  -29.1070  -20.9030   21.0020 N   0  0  0  0  0  4  0  0  0  0  0  0
  -29.8380  -15.9790   20.7180 N   0  0  0  0  0  0  0  0  0  0  0  0
  -28.9490  -20.6880   21.9810 H   0  0  0  0  0  0  0  0  0  0  0  0
  -29.0150  -15.7710   21.2560 H   0  0  0  0  0  0  0  0  0  0  0  0
  -25.2300  -13.9260   20.5440 C   0  0  0  0  0  0  0  0  0  0  0  0
  -24.1640  -13.1490   20.9090 C   0  0  0  0  0  0  0  0  0  0  0  0
  -24.6300  -11.7990   20.8780 C   0  0  0  0  0  0  0  0  0  0  0  0
  -26.2750  -13.0490   20.3090 N   0  0  0  0  0  0  0  0  0  0  0  0
  -25.9220  -11.7650   20.5720 N   0  0  0  0  0  0  0  0  0  0  0  0
  -23.9040  -10.5340   21.0600 C   0  0  0  0  0  0  0  0  0  0  0  0
  -24.3350   -9.5640   21.9910 C   0  0  0  0  0  3  0  0  0  0  0  0
  -23.6100   -8.3640   22.1630 C   0  0  0  0  0  3  0  0  0  0  0  0
  -22.4400   -8.1250   21.4040 C   0  0  0  0  0  0  0  0  0  0  0  0
  -22.0270   -9.0860   20.4640 C   0  0  0  0  0  3  0  0  0  0  0  0
  -22.7520  -10.2770   20.2890 C   0  0  0  0  0  3  0  0  0  0  0  0
  -21.6860   -6.9810   21.4860 O   0  0  0  0  0  0  0  0  0  0  0  0
  -21.6300   -6.2340   22.6360 C   0  0  0  0  0  0  0  0  0  0  0  0
  -21.1860   -6.7850   23.8590 C   0  0  0  0  0  3  0  0  0  0  0  0
  -21.0790   -5.9660   25.0010 C   0  0  0  0  0  3  0  0  0  0  0  0
  -21.4050   -4.5990   24.9220 C   0  0  0  0  0  0  0  0  0  0  0  0
  -21.8400   -4.0490   23.7030 C   0  0  0  0  0  3  0  0  0  0  0  0
  -21.9510   -4.8640   22.5630 C   0  0  0  0  0  0  0  0  0  0  0  0
  -22.3510   -4.3250   21.3870 F   0  0  0  0  0  0  0  0  0  0  0  0
  -21.2950   -3.8100   26.0160 F   0  0  0  0  0  0  0  0  0  0  0  0
  -22.7630  -13.6210   21.1730 C   0  0  0  0  0  0  0  0  0  0  0  0
  -22.0270  -12.9200   22.0270 N   0  0  0  0  0  0  0  0  0  0  0  0
  -22.3310  -14.6500   20.6560 O   0  0  0  0  0  0  0  0  0  0  0  0
  -22.3840  -12.0870   22.4690 H   0  0  0  0  0  0  0  0  0  0  0  0
  -21.0870  -13.2230   22.2430 H   0  0  0  0  0  0  0  0  0  0  0  0
  -25.3890  -15.2980   20.3700 N   0  0  0  0  0  0  0  0  0  0  0  0
  -24.6200  -15.9480   20.4850 H   0  0  0  0  0  0  0  0  0  0  0  0
  -26.2190  -15.7340   19.9910 H   0  0  0  0  0  0  0  0  0  0  0  0
  -29.7160  -18.4760   16.8070 N   0  0  0  0  0  0  0  0  0  0  0  0
  -29.3170  -19.2400   16.2770 H   0  0  0  0  0  0  0  0  0  0  0  0
  -29.6580  -17.5770   16.3490 H   0  0  0  0  0  0  0  0  0  0  0  0
  -29.4860  -22.3890   20.8260 C   0  0  0  0  0  0  0  0  0  0  0  0
  -32.0070  -21.7560   20.8090 C   0  0  0  0  0  1  0  0  0  0  0  0
  -31.0580  -22.9140   18.7580 C   0  0  0  0  0  1  0  0  0  0  0  0
  -30.9140  -22.6990   20.2790 C   0  0  0  0  0  3  0  0  0  0  0  0
  -28.3760  -23.5220   20.4080 C   0  0  0  0  0  2  0  0  0  0  0  0
  -28.8870  -25.0570   22.4850 C   0  0  0  0  0  1  0  0  0  0  0  0
  -28.2120  -25.0070   21.1070 C   0  0  0  0  0  3  0  0  0  0  0  0
  -28.4450  -26.3620   20.4710 O   0  0  0  0  0  0  0  0  0  0  0  0
  -24.6560  -31.9490   23.2540 C   0  0  0  0  0  0  0  0  0  0  0  0
  -27.3620  -27.2770   20.4020 C   0  0  0  0  0  0  0  0  0  0  0  0
  -23.5050  -30.4950   21.6260 C   0  0  0  0  0  3  0  0  0  0  0  0
  -25.0030  -28.9100   20.2800 C   0  0  0  0  0  0  0  0  0  0  0  0
  -26.0510  -30.8160   21.4990 C   0  0  0  0  0  2  0  0  0  0  0  0
  -26.1580  -29.4160   20.8910 C   0  0  0  0  0  0  0  0  0  0  0  0
  -27.3460  -28.6110   20.9390 C   0  0  0  0  0  3  0  0  0  0  0  0
  -26.1880  -26.8430   19.7570 C   0  0  0  0  0  3  0  0  0  0  0  0
  -25.0220  -27.6300   19.7040 C   0  0  0  0  0  3  0  0  0  0  0  0
  -23.7610  -29.7800   20.2730 C   0  0  0  0  0  2  0  0  0  0  0  0
  -24.7550  -31.1080   22.1820 N   0  0  0  0  0  0  0  0  0  0  0  0
  -23.5580  -32.2320   23.7540 O   0  0  0  0  0  0  0  0  0  0  0  0
  -22.8250  -29.5010   22.5980 C   0  0  0  0  0  0  0  0  0  0  0  0
  -21.5010  -29.3210   22.4570 N   0  0  0  0  0  0  0  0  0  0  0  0
  -23.4910  -28.8930   23.4400 O   0  0  0  0  0  0  0  0  0  0  0  0
  -21.0200  -29.8620   21.7520 H   0  0  0  0  0  0  0  0  0  0  0  0
  -18.1100  -28.1710   22.9770 C   0  0  0  0  0  0  0  0  0  0  0  0
  -20.6730  -28.4010   23.2370 C   0  0  0  0  0  3  0  0  0  0  0  0
  -20.7540  -26.9630   22.6750 C   0  0  0  0  0  2  0  0  0  0  0  0
  -19.6460  -26.6470   21.6650 C   0  0  0  0  0  2  0  0  0  0  0  0
  -18.2690  -26.8140   22.3120 C   0  0  0  0  0  2  0  0  0  0  0  0
  -19.2400  -28.9220   23.3990 C   0  0  0  0  0  0  0  0  0  0  0  0
  -19.0380  -30.1920   23.9820 C   0  0  0  0  0  3  0  0  0  0  0  0
  -17.7400  -30.7100   24.1480 C   0  0  0  0  0  3  0  0  0  0  0  0
  -16.6240  -29.9560   23.7420 C   0  0  0  0  0  3  0  0  0  0  0  0
  -16.8110  -28.6870   23.1630 C   0  0  0  0  0  3  0  0  0  0  0  0
  -25.9150  -32.6140   23.8890 C   0  0  0  0  0  3  0  0  0  0  0  0
  -26.4190  -31.8720   25.1880 C   0  0  1  0  0  0  0  0  0  0  0  0
  -25.3030  -31.6170   26.2290 C   0  0  0  0  0  1  0  0  0  0  0  0
  -27.0530  -30.5070   24.8330 C   0  0  0  0  0  1  0  0  0  0  0  0
  -27.5270  -32.7070   25.8710 C   0  0  0  0  0  1  0  0  0  0  0  0
  -25.5750  -34.0110   24.1940 N   0  0  0  0  0  0  0  0  0  0  0  0
  -25.9150  -35.0620   23.4350 C   0  0  0  0  0  0  0  0  0  0  0  0
  -26.6150  -34.9560   22.4240 O   0  0  0  0  0  0  0  0  0  0  0  0
  -24.9490  -34.1650   24.9710 H   0  0  0  0  0  0  0  0  0  0  0  0
  -24.1810  -36.8330   23.0110 C   0  0  0  0  0  1  0  0  0  0  0  0
  -25.3990  -36.4490   23.8650 C   0  0  0  0  0  3  0  0  0  0  0  0
  -27.4950  -37.3640   24.7600 C   0  0  0  0  0  1  0  0  0  0  0  0
  -26.4230  -37.5130   23.7780 N   0  0  0  0  0  0  0  0  0  0  0  0
  -26.0040  -38.4290   23.9040 H   0  0  0  0  0  0  0  0  0  0  0  0
  1 16  1  0
  2  7  1  0
  3  4  1  0
  3  2  1  0
  5  4  1  0
  5 22  1  0
  5  6  1  0
  7  1  1  0
  7  6  1  0
  8  1  2  0
  9 11  1  0
 10 13  1  0
 10  9  2  0
 11 14  2  0
 11 15  1  0
 12 16  1  0
 12 14  1  0
 13 12  2  0
 15 17  1  0
 16 18  1  0
 19 20  2  0
 20 39  1  0
 21 20  1  0
 21 24  1  0
 22 19  1  0
 22 23  1  0
 23 21  2  0
 24 25  1  0
 25 26  2  0
 27 30  1  0
 27 26  1  0
 28 27  2  0
 29 28  1  0
 29 24  2  0
 30 31  1  0
 31 32  1  0
 32 33  2  0
 34 33  1  0
 34 38  1  0
 35 34  2  0
 36 31  2  0
 36 35  1  0
 37 36  1  0
 39 40  1  0
 40 43  1  0
 40 42  1  0
 41 39  2  0
 44 45  1  0
 44 19  1  0
 46 44  1  0
 47 10  1  0
 48 47  1  0
 49 47  1  0
 50 15  2  3
 52 53  1  0
 53 51  1  0
 53 50  1  0
 54 50  1  0
 54 56  1  0
 56 55  1  0
 57 56  1  0
 58 69  2  0
 59 57  1  0
 59 64  1  0
 60 68  1  0
 60 70  1  0
 61 63  1  0
 62 68  1  0
 63 64  2  0
 63 62  1  0
 65 59  2  0
 66 65  1  0
 66 61  2  0
 67 61  1  0
 67 60  1  0
 68 58  1  0
 70 72  2  0
 71 70  1  0
 73 71  1  0
 74 83  2  0
 74 79  1  0
 75 71  1  0
 75 79  1  0
 76 75  1  0
 77 78  1  0
 77 76  1  0
 78 74  1  0
 79 80  2  0
 80 81  1  0
 82 81  2  0
 83 82  1  0
 84 58  1  0
 84 89  1  0
 84 85  1  0
 85 88  1  1
 85 86  1  0
 87 85  1  0
 89 92  1  0
 90 94  1  0
 90 89  1  0
 91 90  2  0
 94 93  1  0
 96 94  1  0
 96 97  1  0
 96 95  1  0
M  ISO  4   1 100  16 100  56 101  57 101
M  END
>  <TORSDO>  (68) 
F 20

>  <SCORE>  (68) 
-14.513

>  <name>  (68) 
67

>  <ligand_id>  (68) 
67

>  <original_smiles>  (68) 
[H]c1c(N([H])[H])nc(N([H])C(=O)N2C([H])([H])C([H])([H])C([H])([H])C([H])(n3nc(-c4c([H])c([H])c(Oc5c([H])c([H])c(F)c([H])c5F)c([H])c4[H])c(C(=O)N([H])[H])c3N([H])[H])C2([H])[H])nc1N([H])C([H])(C([H])([H])C([H])(Oc1c([H])c([H])c2c(c1[H])C([H])([H])N(C(=O)C([H])(N([H])C(=O)C([H])(N([H])C([H])([H])[H])C([H])([H])[H])C(C([H])([H])[H])(C([H])([H])[H])C([H])([H])[H])C([H])(C(=O)N([H])C1([H])c3c([H])c([H])c([H])c([H])c3C([H])([H])C([H])([H])C1([H])[H])C2([H])[H])C([H])([H])[H])C([H])(C([H])([H])[H])C([H])([H])[H]

>  <smiles>  (68) 
[H]c1c(N([H])[H])nc(N([H])C(=O)N2C([H])([H])C([H])([H])C([H])([H])C([H])(n3nc(-c4c([H])c([H])c(Oc5c([H])c([H])c(F)c([H])c5F)c([H])c4[H])c(C(=O)N([H])[H])c3N([H])[H])C2([H])[H])nc1N([H])C([H])(C([H])([H])C([H])(Oc1c([H])c([H])c2c(c1[H])C([H])([H])N(C(=O)C([H])(N([H])C(=O)C([H])(N([H])C([H])([H])[H])C([H])([H])[H])C(C([H])([H])[H])(C([H])([H])[H])C([H])([H])[H])C([H])(C(=O)N([H])C1([H])c3c([H])c([H])c([H])c([H])c3C([H])([H])C([H])([H])C1([H])[H])C2([H])[H])C([H])([H])[H])C([H])(C([H])([H])[H])C([H])([H])[H]

$$$$
68:0:0
     RDKit          3D

 88 96  0  0  1  0  0  0  0  0999 V2000
  -29.9080  -20.5420   20.4100 C   0  0  0  0  0  3  0  0  0  0  0  0
  -27.8310  -20.8080   20.1600 C   0  0  0  0  0  3  0  0  0  0  0  0
  -29.4140  -19.1880   20.3320 C   0  0  0  0  0  0  0  0  0  0  0  0
  -28.0350  -19.4520   20.1620 N   0  0  0  0  0  0  0  0  0  0  0  0
  -28.9110  -21.6180   20.3040 N   0  0  0  0  0  0  0  0  0  0  0  0
  -30.5280  -15.1280   20.3460 C   0  0  0  0  0  0  0  0  0  0  0  0
  -30.4290  -12.7340   19.4570 C   0  0  0  0  0  2  0  0  0  0  0  0
  -29.5230  -12.6080   18.2100 C   0  0  0  0  0  2  0  0  0  0  0  0
  -28.0630  -12.3690   18.6310 C   0  0  0  0  0  2  0  0  0  0  0  0
  -27.6150  -13.3240   19.7680 C   0  0  0  0  0  3  0  0  0  0  0  0
  -28.6520  -13.4270   20.9070 C   0  0  0  0  0  2  0  0  0  0  0  0
  -29.9120  -13.8650   20.2930 N   0  0  0  0  0  0  0  0  0  0  0  0
  -31.7470  -15.0940   20.1390 O   0  0  0  0  0  0  0  0  0  0  0  0
  -30.2620  -17.7500   20.3600 C   0  0  0  0  0  0  0  0  0  0  0  0
  -29.8000  -16.3820   20.4120 N   0  0  0  0  0  0  0  0  0  0  0  0
  -31.4840  -17.9240   20.3390 O   0  0  0  0  0  0  0  0  0  0  0  0
  -28.8000  -16.3020   20.4810 H   0  0  0  0  0  0  0  0  0  0  0  0
  -25.2270  -13.8790   20.4780 C   0  0  0  0  0  0  0  0  0  0  0  0
  -24.1650  -13.0960   20.8360 C   0  0  0  0  0  0  0  0  0  0  0  0
  -24.6440  -11.7500   20.8240 C   0  0  0  0  0  0  0  0  0  0  0  0
  -26.2810  -13.0100   20.2580 N   0  0  0  0  0  0  0  0  0  0  0  0
  -25.9400  -11.7240   20.5360 N   0  0  0  0  0  0  0  0  0  0  0  0
  -23.9250  -10.4830   21.0100 C   0  0  0  0  0  0  0  0  0  0  0  0
  -24.3430   -9.5280   21.9650 C   0  0  0  0  0  3  0  0  0  0  0  0
  -23.6220   -8.3270   22.1400 C   0  0  0  0  0  3  0  0  0  0  0  0
  -22.4690   -8.0710   21.3600 C   0  0  0  0  0  0  0  0  0  0  0  0
  -22.0710   -9.0140   20.3960 C   0  0  0  0  0  3  0  0  0  0  0  0
  -22.7920  -10.2060   20.2190 C   0  0  0  0  0  3  0  0  0  0  0  0
  -21.7200   -6.9220   21.4430 O   0  0  0  0  0  0  0  0  0  0  0  0
  -21.6430   -6.1970   22.6050 C   0  0  0  0  0  0  0  0  0  0  0  0
  -21.1590   -6.7620   23.8060 C   0  0  0  0  0  3  0  0  0  0  0  0
  -21.0300   -5.9630   24.9580 C   0  0  0  0  0  3  0  0  0  0  0  0
  -21.3740   -4.5980   24.9120 C   0  0  0  0  0  0  0  0  0  0  0  0
  -21.8500   -4.0320   23.7150 C   0  0  0  0  0  3  0  0  0  0  0  0
  -21.9800   -4.8290   22.5650 C   0  0  0  0  0  0  0  0  0  0  0  0
  -22.4190   -4.2730   21.4100 F   0  0  0  0  0  0  0  0  0  0  0  0
  -21.2430   -3.8270   26.0170 F   0  0  0  0  0  0  0  0  0  0  0  0
  -22.7600  -13.5630   21.0760 C   0  0  0  0  0  0  0  0  0  0  0  0
  -22.0260  -12.8740   21.9410 N   0  0  0  0  0  0  0  0  0  0  0  0
  -22.3220  -14.5760   20.5330 O   0  0  0  0  0  0  0  0  0  0  0  0
  -22.3940  -12.0540   22.4020 H   0  0  0  0  0  0  0  0  0  0  0  0
  -21.0820  -13.1710   22.1480 H   0  0  0  0  0  0  0  0  0  0  0  0
  -25.3790  -15.2490   20.2900 N   0  0  0  0  0  0  0  0  0  0  0  0
  -24.5990  -15.8920   20.3800 H   0  0  0  0  0  0  0  0  0  0  0  0
  -26.2150  -15.6960   19.9360 H   0  0  0  0  0  0  0  0  0  0  0  0
  -29.0830  -23.2330   20.4000 C   0  0  0  0  0  3  0  0  0  0  0  0
  -27.9880  -24.5350   20.1220 C   0  0  0  0  0  3  0  0  0  0  0  0
  -28.2380  -26.1000   20.2950 O   0  0  0  0  0  0  0  0  0  0  0  0
  -24.6510  -31.8950   23.2690 C   0  0  0  0  0  0  0  0  0  0  0  0
  -27.1980  -27.1230   20.2330 C   0  0  0  0  0  0  0  0  0  0  0  0
  -23.4470  -30.5070   21.6300 C   0  0  0  0  0  3  0  0  0  0  0  0
  -24.8860  -28.9180   20.2010 C   0  0  0  0  0  0  0  0  0  0  0  0
  -26.0060  -30.7460   21.4670 C   0  0  0  0  0  2  0  0  0  0  0  0
  -26.0710  -29.3490   20.8100 C   0  0  0  0  0  0  0  0  0  0  0  0
  -27.2270  -28.4690   20.8030 C   0  0  0  0  0  3  0  0  0  0  0  0
  -25.9830  -26.8080   19.5850 C   0  0  0  0  0  3  0  0  0  0  0  0
  -24.8590  -27.6650   19.5720 C   0  0  0  0  0  3  0  0  0  0  0  0
  -23.6660  -29.8290   20.2520 C   0  0  0  0  0  2  0  0  0  0  0  0
  -24.7230  -31.0730   22.1770 N   0  0  0  0  0  0  0  0  0  0  0  0
  -23.5650  -32.1850   23.7960 O   0  0  0  0  0  0  0  0  0  0  0  0
  -22.7600  -29.5040   22.5930 C   0  0  0  0  0  0  0  0  0  0  0  0
  -21.4310  -29.3360   22.4630 N   0  0  0  0  0  0  0  0  0  0  0  0
  -23.4260  -28.8800   23.4220 O   0  0  0  0  0  0  0  0  0  0  0  0
  -20.9480  -29.8900   21.7690 H   0  0  0  0  0  0  0  0  0  0  0  0
  -18.0490  -28.1300   22.9570 C   0  0  0  0  0  0  0  0  0  0  0  0
  -20.6060  -28.4010   23.2340 C   0  0  0  0  0  3  0  0  0  0  0  0
  -20.7130  -26.9660   22.6660 C   0  0  0  0  0  2  0  0  0  0  0  0
  -19.6160  -26.6370   21.6480 C   0  0  0  0  0  2  0  0  0  0  0  0
  -18.2310  -26.7800   22.2850 C   0  0  0  0  0  2  0  0  0  0  0  0
  -19.1630  -28.8980   23.3880 C   0  0  0  0  0  0  0  0  0  0  0  0
  -18.9360  -30.1600   23.9790 C   0  0  0  0  0  3  0  0  0  0  0  0
  -17.6280  -30.6560   24.1410 C   0  0  0  0  0  3  0  0  0  0  0  0
  -16.5280  -29.8860   23.7230 C   0  0  0  0  0  3  0  0  0  0  0  0
  -16.7400  -28.6240   23.1380 C   0  0  0  0  0  3  0  0  0  0  0  0
  -25.9290  -32.5280   23.8980 C   0  0  0  0  0  3  0  0  0  0  0  0
  -25.6230  -33.9310   24.2260 N   0  0  0  0  0  0  0  0  0  0  0  0
  -25.9360  -34.9830   23.4590 C   0  0  0  0  0  0  0  0  0  0  0  0
  -26.5780  -34.8750   22.4110 O   0  0  0  0  0  0  0  0  0  0  0  0
  -25.0490  -34.0870   25.0420 H   0  0  0  0  0  0  0  0  0  0  0  0
  -24.1860  -36.7700   23.1650 C   0  0  0  0  0  1  0  0  0  0  0  0
  -25.4640  -36.3760   23.9240 C   0  0  0  0  0  3  0  0  0  0  0  0
  -27.6250  -37.2820   24.6580 C   0  0  0  0  0  1  0  0  0  0  0  0
  -26.4860  -37.4320   23.7570 N   0  0  0  0  0  0  0  0  0  0  0  0
  -26.0820  -38.3530   23.9050 H   0  0  0  0  0  0  0  0  0  0  0  0
  -26.4300  -31.7630   25.1850 C   0  0  1  0  0  0  0  0  0  0  0  0
  -25.3270  -31.5420   26.2470 C   0  0  0  0  0  1  0  0  0  0  0  0
  -27.0050  -30.3770   24.8120 C   0  0  0  0  0  1  0  0  0  0  0  0
  -27.5820  -32.5530   25.8480 C   0  0  0  0  0  1  0  0  0  0  0  0
  2  4  2  0
  2  5  1  0
  3 14  1  0
  3  1  2  0
  4  3  1  0
  5 46  1  0
  5  1  1  0
  6 15  1  0
  7 12  1  0
  8  9  1  0
  8  7  1  0
 10  9  1  0
 10 21  1  0
 10 11  1  0
 12  6  1  0
 12 11  1  0
 13  6  2  0
 14 15  1  0
 15 17  1  0
 16 14  2  0
 18 19  2  0
 19 38  1  0
 20 19  1  0
 20 23  1  0
 21 18  1  0
 21 22  1  0
 22 20  2  0
 23 24  1  0
 24 25  2  0
 26 29  1  0
 26 25  1  0
 27 26  2  0
 28 27  1  0
 28 23  2  0
 29 30  1  0
 30 31  1  0
 31 32  2  0
 33 32  1  0
 33 37  1  0
 34 33  2  0
 35 30  2  0
 35 34  1  0
 36 35  1  0
 38 39  1  0
 39 42  1  0
 39 41  1  0
 40 38  2  0
 43 44  1  0
 43 18  1  0
 45 43  1  0
 47 48  1  0
 47 46  2  0
 49 60  2  0
 50 48  1  0
 50 55  1  0
 51 59  1  0
 51 61  1  0
 52 58  1  0
 52 54  1  0
 53 59  1  0
 54 53  1  0
 55 54  2  0
 56 50  2  0
 57 56  1  0
 57 52  2  0
 58 51  1  0
 59 49  1  0
 61 63  2  0
 62 61  1  0
 64 62  1  0
 65 74  2  0
 65 70  1  0
 66 62  1  0
 66 70  1  0
 67 66  1  0
 68 69  1  0
 68 67  1  0
 69 65  1  0
 70 71  2  0
 71 72  1  0
 73 72  2  0
 74 73  1  0
 75 49  1  0
 75 76  1  0
 75 85  1  0
 76 79  1  0
 77 81  1  0
 77 76  1  0
 78 77  2  0
 81 80  1  0
 83 84  1  0
 83 81  1  0
 83 82  1  0
 85 88  1  1
 85 86  1  0
 87 85  1  0
M  ISO  4   6 100  15 100  47 101  48 101
M  END
>  <TORSDO>  (69) 
F 18

>  <SCORE>  (69) 
-15.310

>  <name>  (69) 
68

>  <ligand_id>  (69) 
68

>  <original_smiles>  (69) 
[H]c1c([H])c([H])c2c(c1[H])C([H])([H])C([H])([H])C([H])([H])C2([H])N([H])C(=O)C1([H])N(C(=O)C([H])(N([H])C(=O)C([H])(N([H])C([H])([H])[H])C([H])([H])[H])C(C([H])([H])[H])(C([H])([H])[H])C([H])([H])[H])C([H])([H])c2c([H])c(OC([H])([H])C([H])([H])n3c([H])nc(C(=O)N([H])C(=O)N4C([H])([H])C([H])([H])C([H])([H])C([H])(n5nc(-c6c([H])c([H])c(Oc7c([H])c([H])c(F)c([H])c7F)c([H])c6[H])c(C(=O)N([H])[H])c5N([H])[H])C4([H])[H])c3[H])c([H])c([H])c2C1([H])[H]

>  <smiles>  (69) 
[H]c1c([H])c([H])c2c(c1[H])C([H])([H])C([H])([H])C([H])([H])C2([H])N([H])C(=O)C1([H])N(C(=O)C([H])(N([H])C(=O)C([H])(N([H])C([H])([H])[H])C([H])([H])[H])C(C([H])([H])[H])(C([H])([H])[H])C([H])([H])[H])C([H])([H])c2c([H])c(OC([H])([H])C([H])([H])n3c([H])nc(C(=O)N([H])C(=O)N4C([H])([H])C([H])([H])C([H])([H])C([H])(n5nc(-c6c([H])c([H])c(Oc7c([H])c([H])c(F)c([H])c7F)c([H])c6[H])c(C(=O)N([H])[H])c5N([H])[H])C4([H])[H])c3[H])c([H])c([H])c2C1([H])[H]

$$$$
69:0:0
     RDKit          3D

 92100  0  0  1  0  0  0  0  0999 V2000
  -28.8860  -23.1220   20.8290 C   0  0  0  0  0  2  0  0  0  0  0  0
  -28.2350  -18.2670   20.4850 C   0  0  0  0  0  3  0  0  0  0  0  0
  -29.5430  -18.2720   20.0580 C   0  0  0  0  0  0  0  0  0  0  0  0
  -29.1300  -20.5560   20.1580 C   0  0  0  0  0  0  0  0  0  0  0  0
  -30.0140  -19.5930   19.8500 N   0  0  0  0  0  0  0  0  0  0  0  0
  -29.3950  -21.9380   20.0850 N   0  0  0  0  0  0  0  0  0  0  0  0
  -27.5980  -19.8880   20.7100 S   0  0  0  0  0  0  0  0  0  0  0  0
  -30.3380  -22.0980   19.7420 H   0  0  0  0  0  0  0  0  0  0  0  0
  -30.4910  -17.0900   19.8450 C   0  0  0  0  0  2  0  0  0  0  0  0
  -30.7280  -14.6150   19.8160 C   0  0  0  0  0  0  0  0  0  0  0  0
  -30.3650  -12.3940   18.8010 C   0  0  0  0  0  2  0  0  0  0  0  0
  -29.3490  -12.5520   17.6500 C   0  0  0  0  0  2  0  0  0  0  0  0
  -27.9080  -12.4280   18.1820 C   0  0  0  0  0  2  0  0  0  0  0  0
  -27.6520  -13.3160   19.4310 C   0  0  0  0  0  3  0  0  0  0  0  0
  -28.7800  -13.1510   20.4750 C   0  0  0  0  0  2  0  0  0  0  0  0
  -30.0550  -13.4310   19.8020 N   0  0  0  0  0  0  0  0  0  0  0  0
  -31.8570  -14.7280   19.3310 O   0  0  0  0  0  0  0  0  0  0  0  0
  -30.0260  -15.7180   20.1680 N   0  0  0  0  0  0  0  0  0  0  0  0
  -29.0860  -15.6010   20.5150 H   0  0  0  0  0  0  0  0  0  0  0  0
  -25.3390  -13.9630   20.3460 C   0  0  0  0  0  0  0  0  0  0  0  0
  -24.2820  -13.2070   20.7780 C   0  0  0  0  0  0  0  0  0  0  0  0
  -24.7010  -11.8470   20.6750 C   0  0  0  0  0  0  0  0  0  0  0  0
  -26.3350  -13.0610   20.0100 N   0  0  0  0  0  0  0  0  0  0  0  0
  -25.9610  -11.7810   20.2670 N   0  0  0  0  0  0  0  0  0  0  0  0
  -23.9570  -10.5970   20.8860 C   0  0  0  0  0  0  0  0  0  0  0  0
  -24.4010   -9.6180   21.8040 C   0  0  0  0  0  3  0  0  0  0  0  0
  -23.6580   -8.4360   22.0030 C   0  0  0  0  0  3  0  0  0  0  0  0
  -22.4570   -8.2220   21.2870 C   0  0  0  0  0  0  0  0  0  0  0  0
  -22.0310   -9.1880   20.3580 C   0  0  0  0  0  3  0  0  0  0  0  0
  -22.7750  -10.3630   20.1560 C   0  0  0  0  0  3  0  0  0  0  0  0
  -21.6840   -7.0910   21.3970 O   0  0  0  0  0  0  0  0  0  0  0  0
  -21.6140   -6.3780   22.5670 C   0  0  0  0  0  0  0  0  0  0  0  0
  -21.1900   -6.9710   23.7760 C   0  0  0  0  0  3  0  0  0  0  0  0
  -21.0650   -6.1860   24.9400 C   0  0  0  0  0  3  0  0  0  0  0  0
  -21.3550   -4.8090   24.8950 C   0  0  0  0  0  0  0  0  0  0  0  0
  -21.7740   -4.2160   23.6920 C   0  0  0  0  0  3  0  0  0  0  0  0
  -21.9000   -4.9990   22.5300 C   0  0  0  0  0  0  0  0  0  0  0  0
  -22.2810   -4.4180   21.3670 F   0  0  0  0  0  0  0  0  0  0  0  0
  -21.2290   -4.0530   26.0110 F   0  0  0  0  0  0  0  0  0  0  0  0
  -22.9240  -13.7120   21.1710 C   0  0  0  0  0  0  0  0  0  0  0  0
  -22.2530  -13.0160   22.0840 N   0  0  0  0  0  0  0  0  0  0  0  0
  -22.4690  -14.7570   20.7060 O   0  0  0  0  0  0  0  0  0  0  0  0
  -22.6330  -12.1690   22.4790 H   0  0  0  0  0  0  0  0  0  0  0  0
  -21.3460  -13.3340   22.3940 H   0  0  0  0  0  0  0  0  0  0  0  0
  -25.5280  -15.3340   20.1910 N   0  0  0  0  0  0  0  0  0  0  0  0
  -24.7810  -16.0010   20.3570 H   0  0  0  0  0  0  0  0  0  0  0  0
  -26.3490  -15.7570   19.7800 H   0  0  0  0  0  0  0  0  0  0  0  0
  -28.0450  -24.1640   20.0040 C   0  0  0  0  0  3  0  0  0  0  0  0
  -27.5610  -23.3890   18.9290 O   0  0  0  0  0  0  0  0  0  0  0  0
  -28.1170  -22.6050   18.9820 H   0  0  0  0  0  0  0  0  0  0  0  0
  -28.7540  -25.4650   19.4640 C   0  0  0  0  0  2  0  0  0  0  0  0
  -28.5530  -26.7180   20.1720 O   0  0  0  0  0  0  0  0  0  0  0  0
  -24.5250  -31.7520   23.2430 C   0  0  0  0  0  0  0  0  0  0  0  0
  -27.3500  -27.4140   20.1150 C   0  0  0  0  0  0  0  0  0  0  0  0
  -23.3820  -30.3300   21.5730 C   0  0  0  0  0  3  0  0  0  0  0  0
  -24.9020  -28.8660   20.1270 C   0  0  0  0  0  0  0  0  0  0  0  0
  -25.8990  -30.7720   21.4020 C   0  0  0  0  0  2  0  0  0  0  0  0
  -26.0380  -29.4130   20.7370 C   0  0  0  0  0  0  0  0  0  0  0  0
  -27.2600  -28.6920   20.7270 C   0  0  0  0  0  3  0  0  0  0  0  0
  -26.1900  -26.8930   19.4950 C   0  0  0  0  0  3  0  0  0  0  0  0
  -24.9770  -27.6110   19.5000 C   0  0  0  0  0  3  0  0  0  0  0  0
  -23.6250  -29.6790   20.1840 C   0  0  0  0  0  2  0  0  0  0  0  0
  -24.6190  -30.9680   22.1300 N   0  0  0  0  0  0  0  0  0  0  0  0
  -23.4310  -31.9760   23.7810 O   0  0  0  0  0  0  0  0  0  0  0  0
  -22.7640  -29.2720   22.5150 C   0  0  0  0  0  0  0  0  0  0  0  0
  -21.4450  -29.0490   22.3840 N   0  0  0  0  0  0  0  0  0  0  0  0
  -23.4670  -28.6580   23.3210 O   0  0  0  0  0  0  0  0  0  0  0  0
  -20.9370  -29.5970   21.7050 H   0  0  0  0  0  0  0  0  0  0  0  0
  -18.1130  -27.7450   22.8820 C   0  0  0  0  0  0  0  0  0  0  0  0
  -20.6640  -28.0720   23.1410 C   0  0  0  0  0  3  0  0  0  0  0  0
  -20.8030  -26.6570   22.5340 C   0  0  0  0  0  2  0  0  0  0  0  0
  -19.7030  -26.3230   21.5220 C   0  0  0  0  0  2  0  0  0  0  0  0
  -18.3220  -26.4160   22.1760 C   0  0  0  0  0  2  0  0  0  0  0  0
  -19.2110  -28.5300   23.3200 C   0  0  0  0  0  0  0  0  0  0  0  0
  -18.9610  -29.7720   23.9420 C   0  0  0  0  0  3  0  0  0  0  0  0
  -17.6440  -30.2310   24.1290 C   0  0  0  0  0  3  0  0  0  0  0  0
  -16.5600  -29.4440   23.7060 C   0  0  0  0  0  3  0  0  0  0  0  0
  -16.7950  -28.2020   23.0890 C   0  0  0  0  0  3  0  0  0  0  0  0
  -25.7830  -32.4220   23.8790 C   0  0  0  0  0  3  0  0  0  0  0  0
  -25.4260  -33.8090   24.2090 N   0  0  0  0  0  0  0  0  0  0  0  0
  -25.7330  -34.8740   23.4560 C   0  0  0  0  0  0  0  0  0  0  0  0
  -26.4160  -34.7950   22.4310 O   0  0  0  0  0  0  0  0  0  0  0  0
  -24.8160  -33.9420   25.0030 H   0  0  0  0  0  0  0  0  0  0  0  0
  -23.9480  -36.6090   23.0900 C   0  0  0  0  0  1  0  0  0  0  0  0
  -25.1950  -36.2450   23.9100 C   0  0  0  0  0  3  0  0  0  0  0  0
  -27.2910  -37.2010   24.7600 C   0  0  0  0  0  1  0  0  0  0  0  0
  -26.1940  -37.3320   23.8060 N   0  0  0  0  0  0  0  0  0  0  0  0
  -25.7570  -38.2380   23.9490 H   0  0  0  0  0  0  0  0  0  0  0  0
  -26.3140  -31.6660   25.1580 C   0  0  1  0  0  0  0  0  0  0  0  0
  -25.2190  -31.3850   26.2130 C   0  0  0  0  0  1  0  0  0  0  0  0
  -26.9500  -30.3120   24.7690 C   0  0  0  0  0  1  0  0  0  0  0  0
  -27.4290  -32.4980   25.8340 C   0  0  0  0  0  1  0  0  0  0  0  0
  2  7  1  0
  3  2  2  0
  4  7  1  0
  5  3  1  0
  5  4  2  0
  6  4  1  0
  6  1  1  0
  8  6  1  0
  9  3  1  0
  9 18  1  0
 10 18  1  0
 11 16  1  0
 12 13  1  0
 12 11  1  0
 14 13  1  0
 14 23  1  0
 14 15  1  0
 16 10  1  0
 16 15  1  0
 17 10  2  0
 18 19  1  0
 20 21  2  0
 21 40  1  0
 22 21  1  0
 22 25  1  0
 23 24  1  0
 23 20  1  0
 24 22  2  0
 25 26  1  0
 26 27  2  0
 28 31  1  0
 28 27  1  0
 29 28  2  0
 30 29  1  0
 30 25  2  0
 31 32  1  0
 32 33  1  0
 33 34  2  0
 35 34  1  0
 35 39  1  0
 36 35  2  0
 37 32  2  0
 37 36  1  0
 38 37  1  0
 40 41  1  0
 41 44  1  0
 41 43  1  0
 42 40  2  0
 45 20  1  0
 45 46  1  0
 47 45  1  0
 48 51  1  0
 48  1  1  0
 49 50  1  0
 49 48  1  0
 51 52  1  0
 53 64  2  0
 54 52  1  0
 54 59  1  0
 55 63  1  0
 55 65  1  0
 56 62  1  0
 56 58  1  0
 57 63  1  0
 58 57  1  0
 59 58  2  0
 60 61  1  0
 60 54  2  0
 61 56  2  0
 62 55  1  0
 63 53  1  0
 65 67  2  0
 66 65  1  0
 68 66  1  0
 69 78  2  0
 69 74  1  0
 70 66  1  0
 70 74  1  0
 71 70  1  0
 72 73  1  0
 72 71  1  0
 73 69  1  0
 74 75  2  0
 75 76  1  0
 77 76  2  0
 78 77  1  0
 79 53  1  0
 79 80  1  0
 79 89  1  0
 80 83  1  0
 81 85  1  0
 81 80  1  0
 82 81  2  0
 85 84  1  0
 87 85  1  0
 87 88  1  0
 87 86  1  0
 89 92  1  1
 89 90  1  0
 91 89  1  0
M  ISO  4  10 100  18 100  51 101  52 101
M  END
>  <TORSDO>  (70) 
F 21

>  <SCORE>  (70) 
-12.364

>  <name>  (70) 
69

>  <ligand_id>  (70) 
69

>  <original_smiles>  (70) 
[H]OC([H])(C([H])([H])Oc1c([H])c([H])c2c(c1[H])C([H])([H])N(C(=O)C([H])(N([H])C(=O)C([H])(N([H])C([H])([H])[H])C([H])([H])[H])C(C([H])([H])[H])(C([H])([H])[H])C([H])([H])[H])C([H])(C(=O)N([H])C1([H])c3c([H])c([H])c([H])c([H])c3C([H])([H])C([H])([H])C1([H])[H])C2([H])[H])C([H])([H])N([H])c1nc(C([H])([H])N([H])C(=O)N2C([H])([H])C([H])([H])C([H])([H])C([H])(n3nc(-c4c([H])c([H])c(Oc5c([H])c([H])c(F)c([H])c5F)c([H])c4[H])c(C(=O)N([H])[H])c3N([H])[H])C2([H])[H])c([H])s1

>  <smiles>  (70) 
[H]OC([H])(C([H])([H])Oc1c([H])c([H])c2c(c1[H])C([H])([H])N(C(=O)C([H])(N([H])C(=O)C([H])(N([H])C([H])([H])[H])C([H])([H])[H])C(C([H])([H])[H])(C([H])([H])[H])C([H])([H])[H])C([H])(C(=O)N([H])C1([H])c3c([H])c([H])c([H])c([H])c3C([H])([H])C([H])([H])C1([H])[H])C2([H])[H])C([H])([H])N([H])c1nc(C([H])([H])N([H])C(=O)N2C([H])([H])C([H])([H])C([H])([H])C([H])(n3nc(-c4c([H])c([H])c(Oc5c([H])c([H])c(F)c([H])c5F)c([H])c4[H])c(C(=O)N([H])[H])c3N([H])[H])C2([H])[H])c([H])s1

$$$$
70:0:0
     RDKit          3D

 97105  0  0  1  0  0  0  0  0999 V2000
  -29.9080  -21.4400   20.7120 C   0  0  0  0  0  3  0  0  0  0  0  0
  -30.6240  -14.5620   20.1230 C   0  0  0  0  0  0  0  0  0  0  0  0
  -30.2810  -12.4130   18.9260 C   0  0  0  0  0  2  0  0  0  0  0  0
  -29.2780  -12.6180   17.7720 C   0  0  0  0  0  2  0  0  0  0  0  0
  -27.8270  -12.4620   18.2740 C   0  0  0  0  0  2  0  0  0  0  0  0
  -27.5460  -13.2720   19.5670 C   0  0  0  0  0  3  0  0  0  0  0  0
  -28.6600  -13.0520   20.6160 C   0  0  0  0  0  2  0  0  0  0  0  0
  -29.9400  -13.3880   19.9760 N   0  0  0  0  0  0  0  0  0  0  0  0
  -31.7710  -14.7000   19.6810 O   0  0  0  0  0  0  0  0  0  0  0  0
  -30.5660  -18.8490   22.9110 C   0  0  0  0  0  3  0  0  0  0  0  0
  -31.1000  -17.5890   23.1820 C   0  0  0  0  0  3  0  0  0  0  0  0
  -29.9330  -19.0370   21.6830 C   0  0  0  0  0  0  0  0  0  0  0  0
  -30.2710  -16.7780   21.2060 C   0  0  0  0  0  0  0  0  0  0  0  0
  -30.9430  -16.5600   22.3330 N   0  0  0  0  0  0  0  0  0  0  0  0
  -29.7580  -17.9780   20.8430 N   0  0  0  0  0  0  0  0  0  0  0  0
  -29.3060  -20.2820   21.4340 N   0  0  0  0  0  0  0  0  0  0  0  0
  -29.8870  -15.6340   20.5210 N   0  0  0  0  0  0  0  0  0  0  0  0
  -28.9130  -20.6220   22.3030 H   0  0  0  0  0  0  0  0  0  0  0  0
  -28.8960  -15.4720   20.5310 H   0  0  0  0  0  0  0  0  0  0  0  0
  -25.1850  -13.8620   20.4020 C   0  0  0  0  0  0  0  0  0  0  0  0
  -24.1360  -13.0840   20.8100 C   0  0  0  0  0  0  0  0  0  0  0  0
  -24.5970  -11.7320   20.7420 C   0  0  0  0  0  0  0  0  0  0  0  0
  -26.2190  -12.9860   20.1090 N   0  0  0  0  0  0  0  0  0  0  0  0
  -25.8720  -11.7000   20.3720 N   0  0  0  0  0  0  0  0  0  0  0  0
  -23.8800  -10.4670   20.9490 C   0  0  0  0  0  0  0  0  0  0  0  0
  -24.3410   -9.5000   21.8690 C   0  0  0  0  0  3  0  0  0  0  0  0
  -23.6250   -8.3000   22.0640 C   0  0  0  0  0  3  0  0  0  0  0  0
  -22.4340   -8.0580   21.3390 C   0  0  0  0  0  0  0  0  0  0  0  0
  -21.9910   -9.0150   20.4090 C   0  0  0  0  0  3  0  0  0  0  0  0
  -22.7080  -10.2070   20.2130 C   0  0  0  0  0  3  0  0  0  0  0  0
  -21.6870   -6.9090   21.4440 O   0  0  0  0  0  0  0  0  0  0  0  0
  -21.6600   -6.1720   22.6010 C   0  0  0  0  0  0  0  0  0  0  0  0
  -21.2500   -6.7290   23.8320 C   0  0  0  0  0  3  0  0  0  0  0  0
  -21.1720   -5.9170   24.9800 C   0  0  0  0  0  3  0  0  0  0  0  0
  -21.4920   -4.5490   24.9010 C   0  0  0  0  0  0  0  0  0  0  0  0
  -21.8950   -3.9900   23.6750 C   0  0  0  0  0  3  0  0  0  0  0  0
  -21.9750   -4.8000   22.5280 C   0  0  0  0  0  0  0  0  0  0  0  0
  -22.3450   -4.2520   21.3440 F   0  0  0  0  0  0  0  0  0  0  0  0
  -21.4080   -3.7670   26.0020 F   0  0  0  0  0  0  0  0  0  0  0  0
  -22.7520  -13.5560   21.1490 C   0  0  0  0  0  0  0  0  0  0  0  0
  -22.0600  -12.8480   22.0360 N   0  0  0  0  0  0  0  0  0  0  0  0
  -22.2930  -14.5890   20.6630 O   0  0  0  0  0  0  0  0  0  0  0  0
  -22.4450  -12.0140   22.4540 H   0  0  0  0  0  0  0  0  0  0  0  0
  -21.1320  -13.1470   22.2990 H   0  0  0  0  0  0  0  0  0  0  0  0
  -25.3340  -15.2360   20.2350 N   0  0  0  0  0  0  0  0  0  0  0  0
  -24.5550  -15.8700   20.3800 H   0  0  0  0  0  0  0  0  0  0  0  0
  -26.1390  -15.6910   19.8250 H   0  0  0  0  0  0  0  0  0  0  0  0
  -31.3500  -22.3310   22.7020 C   0  0  0  0  0  1  0  0  0  0  0  0
  -31.3150  -21.8980   21.2230 C   0  0  0  0  0  3  0  0  0  0  0  0
  -32.6440  -20.6600   19.3800 C   0  0  0  0  0  1  0  0  0  0  0  0
  -32.5080  -20.9780   20.8750 C   0  0  0  0  0  2  0  0  0  0  0  0
  -28.8820  -22.6530   20.6680 C   0  0  0  0  0  2  0  0  0  0  0  0
  -29.3170  -24.1090   20.2130 C   0  0  0  0  0  3  0  0  0  0  0  0
  -29.9510  -24.0190   18.9450 O   0  0  0  0  0  0  0  0  0  0  0  0
  -29.3050  -23.7250   18.3110 H   0  0  0  0  0  0  0  0  0  0  0  0
  -28.1050  -25.1030   20.0750 C   0  0  0  0  0  2  0  0  0  0  0  0
  -28.3350  -26.5470   20.1690 O   0  0  0  0  0  0  0  0  0  0  0  0
  -24.6140  -31.8820   23.2330 C   0  0  0  0  0  0  0  0  0  0  0  0
  -27.1970  -27.3600   20.1430 C   0  0  0  0  0  0  0  0  0  0  0  0
  -23.3910  -30.4880   21.6040 C   0  0  0  0  0  3  0  0  0  0  0  0
  -24.8250  -28.9440   20.1660 C   0  0  0  0  0  0  0  0  0  0  0  0
  -25.9270  -30.8120   21.3940 C   0  0  0  0  0  2  0  0  0  0  0  0
  -25.9980  -29.4380   20.7490 C   0  0  0  0  0  0  0  0  0  0  0  0
  -27.1880  -28.6570   20.7290 C   0  0  0  0  0  3  0  0  0  0  0  0
  -25.9920  -26.9090   19.5470 C   0  0  0  0  0  3  0  0  0  0  0  0
  -24.8200  -27.6820   19.5600 C   0  0  0  0  0  3  0  0  0  0  0  0
  -23.5890  -29.8150   20.2220 C   0  0  0  0  0  2  0  0  0  0  0  0
  -24.6640  -31.0760   22.1340 N   0  0  0  0  0  0  0  0  0  0  0  0
  -23.5360  -32.1620   23.7780 O   0  0  0  0  0  0  0  0  0  0  0  0
  -22.7370  -29.4690   22.5660 C   0  0  0  0  0  0  0  0  0  0  0  0
  -21.4110  -29.2870   22.4420 N   0  0  0  0  0  0  0  0  0  0  0  0
  -23.4190  -28.8460   23.3830 O   0  0  0  0  0  0  0  0  0  0  0  0
  -20.9210  -29.8390   21.7530 H   0  0  0  0  0  0  0  0  0  0  0  0
  -18.0400  -28.0770   22.9340 C   0  0  0  0  0  0  0  0  0  0  0  0
  -20.5950  -28.3520   23.2180 C   0  0  0  0  0  3  0  0  0  0  0  0
  -20.7090  -26.9150   22.6560 C   0  0  0  0  0  2  0  0  0  0  0  0
  -19.6140  -26.5770   21.6400 C   0  0  0  0  0  2  0  0  0  0  0  0
  -18.2280  -26.7210   22.2750 C   0  0  0  0  0  2  0  0  0  0  0  0
  -19.1520  -28.8490   23.3630 C   0  0  0  0  0  0  0  0  0  0  0  0
  -18.9230  -30.1180   23.9390 C   0  0  0  0  0  3  0  0  0  0  0  0
  -17.6150  -30.6150   24.0910 C   0  0  0  0  0  3  0  0  0  0  0  0
  -16.5170  -29.8380   23.6800 C   0  0  0  0  0  3  0  0  0  0  0  0
  -16.7310  -28.5720   23.1070 C   0  0  0  0  0  3  0  0  0  0  0  0
  -25.9050  -32.5070   23.8440 C   0  0  0  0  0  3  0  0  0  0  0  0
  -26.4340  -31.7280   25.1100 C   0  0  1  0  0  0  0  0  0  0  0  0
  -25.3520  -31.4860   26.1870 C   0  0  0  0  0  1  0  0  0  0  0  0
  -27.0100  -30.3520   24.7040 C   0  0  0  0  0  1  0  0  0  0  0  0
  -27.5920  -32.5170   25.7640 C   0  0  0  0  0  1  0  0  0  0  0  0
  -25.6020  -33.9040   24.1830 N   0  0  0  0  0  0  0  0  0  0  0  0
  -25.9320  -34.9610   23.4280 C   0  0  0  0  0  0  0  0  0  0  0  0
  -26.5960  -34.8600   22.3930 O   0  0  0  0  0  0  0  0  0  0  0  0
  -25.0120  -34.0570   24.9890 H   0  0  0  0  0  0  0  0  0  0  0  0
  -24.2120  -36.7620   23.0860 C   0  0  0  0  0  1  0  0  0  0  0  0
  -25.4510  -36.3480   23.8960 C   0  0  0  0  0  3  0  0  0  0  0  0
  -27.5890  -37.2170   24.7310 C   0  0  0  0  0  1  0  0  0  0  0  0
  -26.4880  -37.3970   23.7900 N   0  0  0  0  0  0  0  0  0  0  0  0
  -26.0860  -38.3170   23.9430 H   0  0  0  0  0  0  0  0  0  0  0  0
  1 52  1  0
  1 49  1  0
  1 16  1  0
  2 17  1  0
  3  8  1  0
  4  5  1  0
  4  3  1  0
  6  5  1  0
  6 23  1  0
  6  7  1  0
  8  2  1  0
  8  7  1  0
  9  2  2  0
 10 11  2  0
 12 10  1  0
 13 14  2  0
 14 11  1  0
 15 13  1  0
 15 12  2  0
 16 12  1  0
 16 18  1  0
 17 19  1  0
 17 13  1  0
 20 21  2  0
 21 40  1  0
 22 21  1  0
 22 25  1  0
 23 24  1  0
 23 20  1  0
 24 22  2  0
 25 26  1  0
 26 27  2  0
 28 31  1  0
 28 27  1  0
 29 28  2  0
 30 29  1  0
 30 25  2  0
 31 32  1  0
 32 33  1  0
 33 34  2  0
 35 34  1  0
 35 39  1  0
 36 35  2  0
 37 32  2  0
 37 36  1  0
 38 37  1  0
 40 41  1  0
 41 44  1  0
 41 43  1  0
 42 40  2  0
 45 46  1  0
 45 20  1  0
 47 45  1  0
 49 48  1  0
 50 51  1  0
 51 49  1  0
 53 56  1  0
 53 52  1  0
 54 53  1  0
 55 54  1  0
 56 57  1  0
 58 69  2  0
 59 57  1  0
 59 64  1  0
 60 68  1  0
 60 70  1  0
 61 67  1  0
 61 63  1  0
 62 68  1  0
 63 62  1  0
 64 63  2  0
 65 66  1  0
 65 59  2  0
 66 61  2  0
 67 60  1  0
 68 58  1  0
 70 72  2  0
 71 70  1  0
 73 71  1  0
 74 83  2  0
 74 79  1  0
 75 71  1  0
 75 79  1  0
 76 75  1  0
 77 78  1  0
 77 76  1  0
 78 74  1  0
 79 80  2  0
 80 81  1  0
 82 81  2  0
 83 82  1  0
 84 58  1  0
 84 89  1  0
 84 85  1  0
 85 88  1  1
 85 86  1  0
 87 85  1  0
 89 92  1  0
 90 94  1  0
 90 89  1  0
 91 90  2  0
 94 93  1  0
 96 94  1  0
 96 97  1  0
 96 95  1  0
M  ISO  4   2 100  17 100  56 101  57 101
M  END
>  <TORSDO>  (71) 
F 22

>  <SCORE>  (71) 
-12.153

>  <name>  (71) 
70

>  <ligand_id>  (71) 
70

>  <original_smiles>  (71) 
[H]OC([H])(C([H])([H])Oc1c([H])c([H])c2c(c1[H])C([H])([H])N(C(=O)C([H])(N([H])C(=O)C([H])(N([H])C([H])([H])[H])C([H])([H])[H])C(C([H])([H])[H])(C([H])([H])[H])C([H])([H])[H])C([H])(C(=O)N([H])C1([H])c3c([H])c([H])c([H])c([H])c3C([H])([H])C([H])([H])C1([H])[H])C2([H])[H])C([H])([H])C([H])(N([H])c1nc(N([H])C(=O)N2C([H])([H])C([H])([H])C([H])([H])C([H])(n3nc(-c4c([H])c([H])c(Oc5c([H])c([H])c(F)c([H])c5F)c([H])c4[H])c(C(=O)N([H])[H])c3N([H])[H])C2([H])[H])nc([H])c1[H])C([H])(C([H])([H])[H])C([H])([H])C([H])([H])[H]

>  <smiles>  (71) 
[H]OC([H])(C([H])([H])Oc1c([H])c([H])c2c(c1[H])C([H])([H])N(C(=O)C([H])(N([H])C(=O)C([H])(N([H])C([H])([H])[H])C([H])([H])[H])C(C([H])([H])[H])(C([H])([H])[H])C([H])([H])[H])C([H])(C(=O)N([H])C1([H])c3c([H])c([H])c([H])c([H])c3C([H])([H])C([H])([H])C1([H])[H])C2([H])[H])C([H])([H])C([H])(N([H])c1nc(N([H])C(=O)N2C([H])([H])C([H])([H])C([H])([H])C([H])(n3nc(-c4c([H])c([H])c(Oc5c([H])c([H])c(F)c([H])c5F)c([H])c4[H])c(C(=O)N([H])[H])c3N([H])[H])C2([H])[H])nc([H])c1[H])C([H])(C([H])([H])[H])C([H])([H])C([H])([H])[H]

$$$$
71:0:0
     RDKit          3D

 97105  0  0  1  0  0  0  0  0999 V2000
  -30.6090  -14.7570   20.4480 C   0  0  0  0  0  0  0  0  0  0  0  0
  -30.3780  -12.4810   19.4570 C   0  0  0  0  0  2  0  0  0  0  0  0
  -29.4690  -12.5720   18.2130 C   0  0  0  0  0  2  0  0  0  0  0  0
  -27.9900  -12.4170   18.6150 C   0  0  0  0  0  2  0  0  0  0  0  0
  -27.6040  -13.3070   19.8280 C   0  0  0  0  0  3  0  0  0  0  0  0
  -28.6420  -13.2160   20.9680 C   0  0  0  0  0  2  0  0  0  0  0  0
  -29.9540  -13.5450   20.3990 N   0  0  0  0  0  0  0  0  0  0  0  0
  -31.8090  -14.7920   20.1540 O   0  0  0  0  0  0  0  0  0  0  0  0
  -30.9100  -17.4770   19.0390 C   0  0  0  0  0  3  0  0  0  0  0  0
  -30.5670  -19.8830   19.0610 C   0  0  0  0  0  3  0  0  0  0  0  0
  -31.1420  -18.7460   18.4750 C   0  0  0  0  0  0  0  0  0  0  0  0
  -30.1070  -17.3190   20.1890 C   0  0  0  0  0  0  0  0  0  0  0  0
  -29.7500  -19.7510   20.1900 C   0  0  0  0  0  0  0  0  0  0  0  0
  -29.5360  -18.4820   20.7300 N   0  0  0  0  0  0  0  0  0  0  0  0
  -29.8790  -15.9240   20.6660 N   0  0  0  0  0  0  0  0  0  0  0  0
  -28.9780  -15.7740   21.0910 H   0  0  0  0  0  0  0  0  0  0  0  0
  -25.2050  -13.9100   20.5020 C   0  0  0  0  0  0  0  0  0  0  0  0
  -24.1290  -13.1430   20.8600 C   0  0  0  0  0  0  0  0  0  0  0  0
  -24.5890  -11.7910   20.8550 C   0  0  0  0  0  0  0  0  0  0  0  0
  -26.2500  -13.0250   20.2950 N   0  0  0  0  0  0  0  0  0  0  0  0
  -25.8860  -11.7450   20.5710 N   0  0  0  0  0  0  0  0  0  0  0  0
  -23.8550  -10.5320   21.0460 C   0  0  0  0  0  0  0  0  0  0  0  0
  -24.2780   -9.5650   21.9830 C   0  0  0  0  0  3  0  0  0  0  0  0
  -23.5440   -8.3720   22.1620 C   0  0  0  0  0  3  0  0  0  0  0  0
  -22.3720   -8.1390   21.4040 C   0  0  0  0  0  0  0  0  0  0  0  0
  -21.9670   -9.0960   20.4560 C   0  0  0  0  0  3  0  0  0  0  0  0
  -22.7030  -10.2800   20.2750 C   0  0  0  0  0  3  0  0  0  0  0  0
  -21.6090   -7.0000   21.4930 O   0  0  0  0  0  0  0  0  0  0  0  0
  -21.5610   -6.2530   22.6430 C   0  0  0  0  0  0  0  0  0  0  0  0
  -21.1610   -6.8100   23.8770 C   0  0  0  0  0  3  0  0  0  0  0  0
  -21.0580   -5.9910   25.0180 C   0  0  0  0  0  3  0  0  0  0  0  0
  -21.3460   -4.6160   24.9270 C   0  0  0  0  0  0  0  0  0  0  0  0
  -21.7380   -4.0590   23.6980 C   0  0  0  0  0  3  0  0  0  0  0  0
  -21.8420   -4.8750   22.5580 C   0  0  0  0  0  0  0  0  0  0  0  0
  -22.2000   -4.3280   21.3720 F   0  0  0  0  0  0  0  0  0  0  0  0
  -21.2400   -3.8270   26.0220 F   0  0  0  0  0  0  0  0  0  0  0  0
  -22.7300  -13.6280   21.0960 C   0  0  0  0  0  0  0  0  0  0  0  0
  -21.9830  -12.9490   21.9600 N   0  0  0  0  0  0  0  0  0  0  0  0
  -22.3050  -14.6450   20.5490 O   0  0  0  0  0  0  0  0  0  0  0  0
  -22.3390  -12.1280   22.4270 H   0  0  0  0  0  0  0  0  0  0  0  0
  -21.0410  -13.2560   22.1600 H   0  0  0  0  0  0  0  0  0  0  0  0
  -25.3750  -15.2780   20.3100 N   0  0  0  0  0  0  0  0  0  0  0  0
  -24.6070  -15.9330   20.3980 H   0  0  0  0  0  0  0  0  0  0  0  0
  -26.2250  -15.7090   19.9690 H   0  0  0  0  0  0  0  0  0  0  0  0
  -32.0700  -18.9220   17.2870 C   0  0  0  0  0  3  0  0  0  0  0  0
  -32.3820  -17.7610   16.7100 F   0  0  0  0  0  0  0  0  0  0  0  0
  -33.2960  -19.5630   17.7020 N   0  0  0  0  0  0  0  0  0  0  0  0
  -33.1410  -19.8340   18.6660 H   0  0  0  0  0  0  0  0  0  0  0  0
  -33.3510  -20.4430   17.2070 H   0  0  0  0  0  0  0  0  0  0  0  0
  -29.2140  -20.9550   20.7840 N   0  0  0  0  0  0  0  0  0  0  0  0
  -28.7510  -20.8550   21.6820 H   0  0  0  0  0  0  0  0  0  0  0  0
  -28.7820  -22.2040   20.0270 C   0  0  0  0  0  2  0  0  0  0  0  0
  -28.9120  -23.6670   20.7170 C   0  0  0  0  0  3  0  0  0  0  0  0
  -28.4650  -23.4800   22.0510 O   0  0  0  0  0  0  0  0  0  0  0  0
  -28.6130  -24.3010   22.5140 H   0  0  0  0  0  0  0  0  0  0  0  0
  -28.0510  -24.8960   20.0850 C   0  0  0  0  0  2  0  0  0  0  0  0
  -28.2970  -26.3620   20.3530 O   0  0  0  0  0  0  0  0  0  0  0  0
  -24.6210  -31.9110   23.2570 C   0  0  0  0  0  0  0  0  0  0  0  0
  -27.2170  -27.2780   20.2460 C   0  0  0  0  0  0  0  0  0  0  0  0
  -23.4220  -30.5060   21.6220 C   0  0  0  0  0  3  0  0  0  0  0  0
  -24.8730  -28.9460   20.2020 C   0  0  0  0  0  0  0  0  0  0  0  0
  -25.9670  -30.8010   21.4520 C   0  0  0  0  0  2  0  0  0  0  0  0
  -26.0430  -29.4160   20.8120 C   0  0  0  0  0  0  0  0  0  0  0  0
  -27.2180  -28.5940   20.8260 C   0  0  0  0  0  3  0  0  0  0  0  0
  -26.0310  -26.8960   19.5770 C   0  0  0  0  0  3  0  0  0  0  0  0
  -24.8730  -27.6960   19.5710 C   0  0  0  0  0  3  0  0  0  0  0  0
  -23.6410  -29.8270   20.2440 C   0  0  0  0  0  2  0  0  0  0  0  0
  -24.6890  -31.0920   22.1660 N   0  0  0  0  0  0  0  0  0  0  0  0
  -23.5360  -32.1950   23.7840 O   0  0  0  0  0  0  0  0  0  0  0  0
  -22.7520  -29.4960   22.5850 C   0  0  0  0  0  0  0  0  0  0  0  0
  -21.4240  -29.3240   22.4580 N   0  0  0  0  0  0  0  0  0  0  0  0
  -23.4250  -28.8730   23.4090 O   0  0  0  0  0  0  0  0  0  0  0  0
  -20.9390  -29.8820   21.7690 H   0  0  0  0  0  0  0  0  0  0  0  0
  -18.0420  -28.1380   22.9580 C   0  0  0  0  0  0  0  0  0  0  0  0
  -20.6000  -28.3940   23.2330 C   0  0  0  0  0  3  0  0  0  0  0  0
  -20.7000  -26.9570   22.6700 C   0  0  0  0  0  2  0  0  0  0  0  0
  -19.6010  -26.6290   21.6540 C   0  0  0  0  0  2  0  0  0  0  0  0
  -18.2170  -26.7830   22.2930 C   0  0  0  0  0  2  0  0  0  0  0  0
  -19.1610  -28.9000   23.3860 C   0  0  0  0  0  0  0  0  0  0  0  0
  -18.9430  -30.1680   23.9690 C   0  0  0  0  0  3  0  0  0  0  0  0
  -17.6390  -30.6730   24.1290 C   0  0  0  0  0  3  0  0  0  0  0  0
  -16.5340  -29.9070   23.7170 C   0  0  0  0  0  3  0  0  0  0  0  0
  -16.7360  -28.6420   23.1370 C   0  0  0  0  0  3  0  0  0  0  0  0
  -25.9020  -32.5470   23.8790 C   0  0  0  0  0  3  0  0  0  0  0  0
  -25.5900  -33.9460   24.2060 N   0  0  0  0  0  0  0  0  0  0  0  0
  -25.9160  -34.9980   23.4430 C   0  0  0  0  0  0  0  0  0  0  0  0
  -26.5800  -34.8940   22.4090 O   0  0  0  0  0  0  0  0  0  0  0  0
  -24.9980  -34.0990   25.0090 H   0  0  0  0  0  0  0  0  0  0  0  0
  -24.1780  -36.7860   23.1010 C   0  0  0  0  0  1  0  0  0  0  0  0
  -25.4290  -36.3870   23.9010 C   0  0  0  0  0  3  0  0  0  0  0  0
  -27.5710  -37.2820   24.7030 C   0  0  0  0  0  1  0  0  0  0  0  0
  -26.4570  -37.4440   23.7730 N   0  0  0  0  0  0  0  0  0  0  0  0
  -26.0500  -38.3630   23.9200 H   0  0  0  0  0  0  0  0  0  0  0  0
  -26.4160  -31.7800   25.1590 C   0  0  1  0  0  0  0  0  0  0  0  0
  -25.3210  -31.5480   26.2280 C   0  0  0  0  0  1  0  0  0  0  0  0
  -26.9970  -30.3990   24.7760 C   0  0  0  0  0  1  0  0  0  0  0  0
  -27.5680  -32.5740   25.8190 C   0  0  0  0  0  1  0  0  0  0  0  0
  1 15  1  0
  2  7  1  0
  3  4  1  0
  3  2  1  0
  5  4  1  0
  5 20  1  0
  5  6  1  0
  7  1  1  0
  7  6  1  0
  8  1  2  0
  9 12  1  0
 10 13  2  0
 11  9  2  0
 11 10  1  0
 12 15  1  0
 12 14  2  0
 13 14  1  0
 13 50  1  0
 15 16  1  0
 17 18  2  0
 18 37  1  0
 19 18  1  0
 19 22  1  0
 20 17  1  0
 20 21  1  0
 21 19  2  0
 22 23  1  0
 23 24  2  0
 25 28  1  0
 25 24  1  0
 26 25  2  0
 27 26  1  0
 27 22  2  0
 28 29  1  0
 29 30  1  0
 30 31  2  0
 32 31  1  0
 32 36  1  0
 33 32  2  0
 34 29  2  0
 34 33  1  0
 35 34  1  0
 37 38  1  0
 38 41  1  0
 38 40  1  0
 39 37  2  0
 42 43  1  0
 42 17  1  0
 44 42  1  0
 45 46  1  0
 45 47  1  0
 45 11  1  0
 47 48  1  0
 49 47  1  0
 50 51  1  0
 52 50  1  0
 53 52  1  0
 53 54  1  0
 54 55  1  0
 56 57  1  0
 56 53  1  0
 58 69  2  0
 59 57  1  0
 59 64  1  0
 60 68  1  0
 60 70  1  0
 61 67  1  0
 61 63  1  0
 62 68  1  0
 63 64  2  0
 63 62  1  0
 65 59  2  0
 66 65  1  0
 66 61  2  0
 67 60  1  0
 68 58  1  0
 70 72  2  0
 71 70  1  0
 73 71  1  0
 74 83  2  0
 74 79  1  0
 75 71  1  0
 75 79  1  0
 76 75  1  0
 77 78  1  0
 77 76  1  0
 78 74  1  0
 79 80  2  0
 80 81  1  0
 82 81  2  0
 83 82  1  0
 84 58  1  0
 84 85  1  0
 84 94  1  0
 85 88  1  0
 86 90  1  0
 86 85  1  0
 87 86  2  0
 90 89  1  0
 92 90  1  0
 92 93  1  0
 92 91  1  0
 94 97  1  1
 94 95  1  0
 96 94  1  0
M  ISO  4   1 100  15 100  56 101  57 101
M  END
>  <TORSDO>  (72) 
F 22

>  <SCORE>  (72) 
-13.679

>  <name>  (72) 
71

>  <ligand_id>  (72) 
71

>  <original_smiles>  (72) 
[H]OC([H])(C([H])([H])Oc1c([H])c([H])c2c(c1[H])C([H])([H])N(C(=O)C([H])(N([H])C(=O)C([H])(N([H])C([H])([H])[H])C([H])([H])[H])C(C([H])([H])[H])(C([H])([H])[H])C([H])([H])[H])C([H])(C(=O)N([H])C1([H])c3c([H])c([H])c([H])c([H])c3C([H])([H])C([H])([H])C1([H])[H])C2([H])[H])C([H])([H])N([H])c1nc(N([H])C(=O)N2C([H])([H])C([H])([H])C([H])([H])C([H])(n3nc(-c4c([H])c([H])c(Oc5c([H])c([H])c(F)c([H])c5F)c([H])c4[H])c(C(=O)N([H])[H])c3N([H])[H])C2([H])[H])c([H])c(C([H])(F)N([H])[H])c1[H]

>  <smiles>  (72) 
[H]OC([H])(C([H])([H])Oc1c([H])c([H])c2c(c1[H])C([H])([H])N(C(=O)C([H])(N([H])C(=O)C([H])(N([H])C([H])([H])[H])C([H])([H])[H])C(C([H])([H])[H])(C([H])([H])[H])C([H])([H])[H])C([H])(C(=O)N([H])C1([H])c3c([H])c([H])c([H])c([H])c3C([H])([H])C([H])([H])C1([H])[H])C2([H])[H])C([H])([H])N([H])c1nc(N([H])C(=O)N2C([H])([H])C([H])([H])C([H])([H])C([H])(n3nc(-c4c([H])c([H])c(Oc5c([H])c([H])c(F)c([H])c5F)c([H])c4[H])c(C(=O)N([H])[H])c3N([H])[H])C2([H])[H])c([H])c(C([H])(F)N([H])[H])c1[H]

$$$$
72:0:0
     RDKit          3D

 93101  0  0  1  0  0  0  0  0999 V2000
  -29.5720  -22.4470   19.6470 C   0  0  0  0  0  0  0  0  0  0  0  0
  -29.4600  -21.4090   18.7490 N   0  0  0  0  0  0  0  0  0  0  0  0
  -29.9490  -22.2770   20.8050 O   0  0  0  0  0  0  0  0  0  0  0  0
  -29.0640  -21.7260   17.8780 H   0  0  0  0  0  0  0  0  0  0  0  0
  -29.5620  -17.6700   18.2690 C   0  0  0  0  0  3  0  0  0  0  0  0
  -28.9620  -18.9850   18.4500 C   0  0  0  0  0  3  0  0  0  0  0  0
  -30.9160  -17.5640   18.5030 C   0  0  0  0  0  0  0  0  0  0  0  0
  -29.8060  -20.0390   18.7300 C   0  0  0  0  0  0  0  0  0  0  0  0
  -31.4350  -19.3040   18.7050 S   0  0  0  0  0  0  0  0  0  0  0  0
  -31.8830  -16.2670   18.6380 C   0  0  0  0  0  2  0  0  0  0  0  0
  -31.4040  -13.9780   19.9500 C   0  0  0  0  0  0  0  0  0  0  0  0
  -29.6850  -14.3070   20.9130 C   0  0  0  0  0  2  0  0  0  0  0  0
  -28.7550  -14.6800   19.6660 C   0  0  0  0  0  2  0  0  0  0  0  0
  -27.9940  -13.6340   18.8700 C   0  0  0  0  0  2  0  0  0  0  0  0
  -27.6810  -13.0270   20.1830 C   0  0  0  0  0  3  0  0  0  0  0  0
  -29.0600  -12.2930   20.5760 C   0  0  0  0  0  2  0  0  0  0  0  0
  -30.3440  -13.2230   20.5310 N   0  0  0  0  0  0  0  0  0  0  0  0
  -32.3780  -14.2880   20.6070 O   0  0  0  0  0  0  0  0  0  0  0  0
  -31.3620  -14.7900   18.8080 N   0  0  0  0  0  0  0  0  0  0  0  0
  -30.9100  -14.3840   18.0110 H   0  0  0  0  0  0  0  0  0  0  0  0
  -25.3000  -13.7670   20.5940 C   0  0  0  0  0  0  0  0  0  0  0  0
  -24.1810  -13.0560   20.8690 C   0  0  0  0  0  0  0  0  0  0  0  0
  -24.6150  -11.6780   20.8740 C   0  0  0  0  0  0  0  0  0  0  0  0
  -26.3110  -12.7920   20.4060 N   0  0  0  0  0  0  0  0  0  0  0  0
  -25.9090  -11.5490   20.6440 N   0  0  0  0  0  0  0  0  0  0  0  0
  -23.8630  -10.4540   21.0800 C   0  0  0  0  0  0  0  0  0  0  0  0
  -24.2800   -9.5200   22.0320 C   0  0  0  0  0  3  0  0  0  0  0  0
  -23.5800   -8.3180   22.2030 C   0  0  0  0  0  3  0  0  0  0  0  0
  -22.4420   -8.0490   21.3970 C   0  0  0  0  0  0  0  0  0  0  0  0
  -22.0530   -8.9890   20.4110 C   0  0  0  0  0  3  0  0  0  0  0  0
  -22.7680  -10.1880   20.2470 C   0  0  0  0  0  3  0  0  0  0  0  0
  -21.7090   -6.8970   21.4490 O   0  0  0  0  0  0  0  0  0  0  0  0
  -21.6290   -6.1670   22.6200 C   0  0  0  0  0  0  0  0  0  0  0  0
  -21.1310   -6.7370   23.7990 C   0  0  0  0  0  3  0  0  0  0  0  0
  -20.9800   -5.9380   24.9570 C   0  0  0  0  0  3  0  0  0  0  0  0
  -21.3300   -4.5780   24.9230 C   0  0  0  0  0  0  0  0  0  0  0  0
  -21.8220   -4.0090   23.7290 C   0  0  0  0  0  3  0  0  0  0  0  0
  -21.9680   -4.8090   22.5710 C   0  0  0  0  0  0  0  0  0  0  0  0
  -22.4150   -4.2610   21.4220 F   0  0  0  0  0  0  0  0  0  0  0  0
  -21.1830   -3.7820   26.0160 F   0  0  0  0  0  0  0  0  0  0  0  0
  -22.7820  -13.5770   21.0720 C   0  0  0  0  0  0  0  0  0  0  0  0
  -22.0120  -12.9070   21.9050 N   0  0  0  0  0  0  0  0  0  0  0  0
  -22.3980  -14.6420   20.5650 O   0  0  0  0  0  0  0  0  0  0  0  0
  -22.3800  -12.1260   22.4430 H   0  0  0  0  0  0  0  0  0  0  0  0
  -21.0680  -13.2270   22.0690 H   0  0  0  0  0  0  0  0  0  0  0  0
  -25.5350  -15.1400   20.4470 N   0  0  0  0  0  0  0  0  0  0  0  0
  -24.9730  -15.8890   20.8420 H   0  0  0  0  0  0  0  0  0  0  0  0
  -26.4780  -15.4240   20.1680 H   0  0  0  0  0  0  0  0  0  0  0  0
  -29.3730  -23.9510   19.1320 C   0  0  0  0  0  3  0  0  0  0  0  0
  -30.6770  -24.5120   19.1240 O   0  0  0  0  0  0  0  0  0  0  0  0
  -31.2540  -23.8000   18.8680 H   0  0  0  0  0  0  0  0  0  0  0  0
  -28.1920  -24.9570   19.6440 C   0  0  0  0  0  2  0  0  0  0  0  0
  -28.3380  -26.4330   19.9310 O   0  0  0  0  0  0  0  0  0  0  0  0
  -24.5850  -31.8770   23.1990 C   0  0  0  0  0  0  0  0  0  0  0  0
  -27.1830  -27.2590   20.0490 C   0  0  0  0  0  0  0  0  0  0  0  0
  -23.3970  -30.4780   21.5730 C   0  0  0  0  0  3  0  0  0  0  0  0
  -24.8400  -28.9120   20.1480 C   0  0  0  0  0  0  0  0  0  0  0  0
  -25.9510  -30.7690   21.3670 C   0  0  0  0  0  2  0  0  0  0  0  0
  -26.0160  -29.3890   20.7180 C   0  0  0  0  0  0  0  0  0  0  0  0
  -27.2100  -28.5780   20.6360 C   0  0  0  0  0  3  0  0  0  0  0  0
  -25.9360  -26.8300   19.5310 C   0  0  0  0  0  3  0  0  0  0  0  0
  -24.7890  -27.6390   19.5600 C   0  0  0  0  0  3  0  0  0  0  0  0
  -23.6150  -29.8150   20.1900 C   0  0  0  0  0  2  0  0  0  0  0  0
  -24.6710  -31.0600   22.0980 N   0  0  0  0  0  0  0  0  0  0  0  0
  -23.4940  -32.1520   23.7370 O   0  0  0  0  0  0  0  0  0  0  0  0
  -22.7210  -29.4520   22.5370 C   0  0  0  0  0  0  0  0  0  0  0  0
  -21.3920  -29.2770   22.4120 N   0  0  0  0  0  0  0  0  0  0  0  0
  -23.4070  -28.8210   23.3490 O   0  0  0  0  0  0  0  0  0  0  0  0
  -20.9060  -29.8540   21.7330 H   0  0  0  0  0  0  0  0  0  0  0  0
  -18.0070  -28.0970   22.9370 C   0  0  0  0  0  0  0  0  0  0  0  0
  -20.5660  -28.3420   23.1810 C   0  0  0  0  0  3  0  0  0  0  0  0
  -20.6610  -26.9140   22.5990 C   0  0  0  0  0  2  0  0  0  0  0  0
  -19.5460  -26.6050   21.5920 C   0  0  0  0  0  2  0  0  0  0  0  0
  -18.1670  -26.7520   22.2490 C   0  0  0  0  0  2  0  0  0  0  0  0
  -19.1310  -28.8560   23.3570 C   0  0  0  0  0  0  0  0  0  0  0  0
  -18.9210  -30.1150   23.9650 C   0  0  0  0  0  3  0  0  0  0  0  0
  -17.6200  -30.6160   24.1500 C   0  0  0  0  0  3  0  0  0  0  0  0
  -16.5100  -29.8580   23.7470 C   0  0  0  0  0  3  0  0  0  0  0  0
  -16.7020  -28.6010   23.1430 C   0  0  0  0  0  3  0  0  0  0  0  0
  -25.8530  -32.5120   23.8360 C   0  0  0  0  0  3  0  0  0  0  0  0
  -25.5410  -33.9200   24.1620 N   0  0  0  0  0  0  0  0  0  0  0  0
  -25.8770  -34.9720   23.4000 C   0  0  0  0  0  0  0  0  0  0  0  0
  -26.5500  -34.8730   22.3720 O   0  0  0  0  0  0  0  0  0  0  0  0
  -24.9610  -34.0730   24.9730 H   0  0  0  0  0  0  0  0  0  0  0  0
  -24.1610  -36.7670   23.0440 C   0  0  0  0  0  1  0  0  0  0  0  0
  -25.3940  -36.3590   23.8640 C   0  0  0  0  0  3  0  0  0  0  0  0
  -27.5260  -37.2320   24.7140 C   0  0  0  0  0  1  0  0  0  0  0  0
  -26.4340  -37.4060   23.7610 N   0  0  0  0  0  0  0  0  0  0  0  0
  -26.0280  -38.3250   23.9180 H   0  0  0  0  0  0  0  0  0  0  0  0
  -26.3730  -31.7520   25.1220 C   0  0  1  0  0  0  0  0  0  0  0  0
  -25.2830  -31.5130   26.1920 C   0  0  0  0  0  1  0  0  0  0  0  0
  -26.9550  -30.3750   24.7310 C   0  0  0  0  0  1  0  0  0  0  0  0
  -27.5230  -32.5480   25.7750 C   0  0  0  0  0  1  0  0  0  0  0  0
  1  3  2  0
  2  1  1  0
  4  2  1  0
  5  6  1  0
  5  7  2  0
  6  8  2  0
  7 10  1  0
  7  9  1  0
  8  2  1  0
  9  8  1  0
 10 19  1  0
 11 17  1  0
 11 18  2  0
 13 12  1  0
 14 13  1  0
 15 14  1  0
 15 24  1  0
 15 16  1  0
 17 16  1  0
 17 12  1  0
 19 11  1  0
 20 19  1  0
 21 22  2  0
 22 23  1  0
 22 41  1  0
 23 26  1  0
 24 21  1  0
 24 25  1  0
 25 23  2  0
 26 27  1  0
 27 28  2  0
 29 32  1  0
 29 28  1  0
 30 29  2  0
 31 30  1  0
 31 26  2  0
 32 33  1  0
 33 34  1  0
 34 35  2  0
 36 35  1  0
 36 40  1  0
 37 36  2  0
 38 33  2  0
 38 37  1  0
 39 38  1  0
 41 42  1  0
 42 45  1  0
 42 44  1  0
 43 41  2  0
 46 21  1  0
 46 47  1  0
 48 46  1  0
 49 52  1  0
 49  1  1  0
 50 49  1  0
 51 50  1  0
 52 53  1  0
 53 55  1  0
 54 65  2  0
 55 60  1  0
 56 64  1  0
 56 66  1  0
 57 63  1  0
 57 59  1  0
 58 64  1  0
 59 58  1  0
 60 59  2  0
 61 62  1  0
 61 55  2  0
 62 57  2  0
 63 56  1  0
 64 54  1  0
 66 68  2  0
 67 66  1  0
 69 67  1  0
 70 79  2  0
 70 75  1  0
 71 67  1  0
 71 75  1  0
 72 71  1  0
 73 74  1  0
 73 72  1  0
 74 70  1  0
 75 76  2  0
 76 77  1  0
 78 77  2  0
 79 78  1  0
 80 54  1  0
 80 81  1  0
 80 90  1  0
 81 84  1  0
 82 86  1  0
 82 81  1  0
 83 82  2  0
 86 85  1  0
 88 86  1  0
 88 89  1  0
 88 87  1  0
 90 93  1  1
 90 91  1  0
 92 90  1  0
M  ISO  4  11 100  19 100  52 101  53 101
M  END
>  <TORSDO>  (73) 
F 21

>  <SCORE>  (73) 
-13.368

>  <name>  (73) 
72

>  <ligand_id>  (73) 
72

>  <original_smiles>  (73) 
[H]OC([H])(C(=O)N([H])c1sc(C([H])([H])N([H])C(=O)N2C([H])([H])C([H])([H])C([H])([H])C([H])(n3nc(-c4c([H])c([H])c(Oc5c([H])c([H])c(F)c([H])c5F)c([H])c4[H])c(C(=O)N([H])[H])c3N([H])[H])C2([H])[H])c([H])c1[H])C([H])([H])Oc1c([H])c([H])c2c(c1[H])C([H])([H])N(C(=O)C([H])(N([H])C(=O)C([H])(N([H])C([H])([H])[H])C([H])([H])[H])C(C([H])([H])[H])(C([H])([H])[H])C([H])([H])[H])C([H])(C(=O)N([H])C1([H])c3c([H])c([H])c([H])c([H])c3C([H])([H])C([H])([H])C1([H])[H])C2([H])[H]

>  <smiles>  (73) 
[H]OC([H])(C(=O)N([H])c1sc(C([H])([H])N([H])C(=O)N2C([H])([H])C([H])([H])C([H])([H])C([H])(n3nc(-c4c([H])c([H])c(Oc5c([H])c([H])c(F)c([H])c5F)c([H])c4[H])c(C(=O)N([H])[H])c3N([H])[H])C2([H])[H])c([H])c1[H])C([H])([H])Oc1c([H])c([H])c2c(c1[H])C([H])([H])N(C(=O)C([H])(N([H])C(=O)C([H])(N([H])C([H])([H])[H])C([H])([H])[H])C(C([H])([H])[H])(C([H])([H])[H])C([H])([H])[H])C([H])(C(=O)N([H])C1([H])c3c([H])c([H])c([H])c([H])c3C([H])([H])C([H])([H])C1([H])[H])C2([H])[H]

$$$$
73:0:0
     RDKit          3D

 92100  0  0  1  0  0  0  0  0999 V2000
  -28.8860  -23.1220   20.8290 C   0  0  0  0  0  2  0  0  0  0  0  0
  -28.2350  -18.2670   20.4850 C   0  0  0  0  0  3  0  0  0  0  0  0
  -29.5430  -18.2720   20.0580 C   0  0  0  0  0  0  0  0  0  0  0  0
  -29.1300  -20.5560   20.1580 C   0  0  0  0  0  0  0  0  0  0  0  0
  -30.0140  -19.5930   19.8500 N   0  0  0  0  0  0  0  0  0  0  0  0
  -29.3950  -21.9380   20.0850 N   0  0  0  0  0  0  0  0  0  0  0  0
  -27.5980  -19.8880   20.7100 S   0  0  0  0  0  0  0  0  0  0  0  0
  -30.3380  -22.0980   19.7420 H   0  0  0  0  0  0  0  0  0  0  0  0
  -30.4910  -17.0900   19.8450 C   0  0  0  0  0  2  0  0  0  0  0  0
  -30.7280  -14.6150   19.8160 C   0  0  0  0  0  0  0  0  0  0  0  0
  -30.3650  -12.3940   18.8010 C   0  0  0  0  0  2  0  0  0  0  0  0
  -29.3490  -12.5520   17.6500 C   0  0  0  0  0  2  0  0  0  0  0  0
  -27.9080  -12.4280   18.1820 C   0  0  0  0  0  2  0  0  0  0  0  0
  -27.6520  -13.3160   19.4310 C   0  0  0  0  0  3  0  0  0  0  0  0
  -28.7800  -13.1510   20.4750 C   0  0  0  0  0  2  0  0  0  0  0  0
  -30.0550  -13.4310   19.8020 N   0  0  0  0  0  0  0  0  0  0  0  0
  -31.8570  -14.7280   19.3310 O   0  0  0  0  0  0  0  0  0  0  0  0
  -30.0260  -15.7180   20.1680 N   0  0  0  0  0  0  0  0  0  0  0  0
  -29.0860  -15.6010   20.5150 H   0  0  0  0  0  0  0  0  0  0  0  0
  -25.3390  -13.9630   20.3460 C   0  0  0  0  0  0  0  0  0  0  0  0
  -24.2820  -13.2070   20.7780 C   0  0  0  0  0  0  0  0  0  0  0  0
  -24.7010  -11.8470   20.6750 C   0  0  0  0  0  0  0  0  0  0  0  0
  -26.3350  -13.0610   20.0100 N   0  0  0  0  0  0  0  0  0  0  0  0
  -25.9610  -11.7810   20.2670 N   0  0  0  0  0  0  0  0  0  0  0  0
  -23.9570  -10.5970   20.8860 C   0  0  0  0  0  0  0  0  0  0  0  0
  -24.4010   -9.6180   21.8040 C   0  0  0  0  0  3  0  0  0  0  0  0
  -23.6580   -8.4360   22.0030 C   0  0  0  0  0  3  0  0  0  0  0  0
  -22.4570   -8.2220   21.2870 C   0  0  0  0  0  0  0  0  0  0  0  0
  -22.0310   -9.1880   20.3580 C   0  0  0  0  0  3  0  0  0  0  0  0
  -22.7750  -10.3630   20.1560 C   0  0  0  0  0  3  0  0  0  0  0  0
  -21.6840   -7.0910   21.3970 O   0  0  0  0  0  0  0  0  0  0  0  0
  -21.6140   -6.3780   22.5670 C   0  0  0  0  0  0  0  0  0  0  0  0
  -21.1900   -6.9710   23.7760 C   0  0  0  0  0  3  0  0  0  0  0  0
  -21.0650   -6.1860   24.9400 C   0  0  0  0  0  3  0  0  0  0  0  0
  -21.3550   -4.8090   24.8950 C   0  0  0  0  0  0  0  0  0  0  0  0
  -21.7740   -4.2160   23.6920 C   0  0  0  0  0  3  0  0  0  0  0  0
  -21.9000   -4.9990   22.5300 C   0  0  0  0  0  0  0  0  0  0  0  0
  -22.2810   -4.4180   21.3670 F   0  0  0  0  0  0  0  0  0  0  0  0
  -21.2290   -4.0530   26.0110 F   0  0  0  0  0  0  0  0  0  0  0  0
  -22.9240  -13.7120   21.1710 C   0  0  0  0  0  0  0  0  0  0  0  0
  -22.2530  -13.0160   22.0840 N   0  0  0  0  0  0  0  0  0  0  0  0
  -22.4690  -14.7570   20.7060 O   0  0  0  0  0  0  0  0  0  0  0  0
  -22.6330  -12.1690   22.4790 H   0  0  0  0  0  0  0  0  0  0  0  0
  -21.3460  -13.3340   22.3940 H   0  0  0  0  0  0  0  0  0  0  0  0
  -25.5280  -15.3340   20.1910 N   0  0  0  0  0  0  0  0  0  0  0  0
  -24.7810  -16.0010   20.3570 H   0  0  0  0  0  0  0  0  0  0  0  0
  -26.3490  -15.7570   19.7800 H   0  0  0  0  0  0  0  0  0  0  0  0
  -28.0450  -24.1640   20.0040 C   0  0  0  0  0  3  0  0  0  0  0  0
  -27.5610  -23.3890   18.9290 O   0  0  0  0  0  0  0  0  0  0  0  0
  -28.1170  -22.6050   18.9820 H   0  0  0  0  0  0  0  0  0  0  0  0
  -28.7540  -25.4650   19.4640 C   0  0  0  0  0  2  0  0  0  0  0  0
  -28.5530  -26.7180   20.1720 O   0  0  0  0  0  0  0  0  0  0  0  0
  -24.5250  -31.7520   23.2430 C   0  0  0  0  0  0  0  0  0  0  0  0
  -27.3500  -27.4140   20.1150 C   0  0  0  0  0  0  0  0  0  0  0  0
  -23.3820  -30.3300   21.5730 C   0  0  0  0  0  3  0  0  0  0  0  0
  -24.9020  -28.8660   20.1270 C   0  0  0  0  0  0  0  0  0  0  0  0
  -25.8990  -30.7720   21.4020 C   0  0  0  0  0  2  0  0  0  0  0  0
  -26.0380  -29.4130   20.7370 C   0  0  0  0  0  0  0  0  0  0  0  0
  -27.2600  -28.6920   20.7270 C   0  0  0  0  0  3  0  0  0  0  0  0
  -26.1900  -26.8930   19.4950 C   0  0  0  0  0  3  0  0  0  0  0  0
  -24.9770  -27.6110   19.5000 C   0  0  0  0  0  3  0  0  0  0  0  0
  -23.6250  -29.6790   20.1840 C   0  0  0  0  0  2  0  0  0  0  0  0
  -24.6190  -30.9680   22.1300 N   0  0  0  0  0  0  0  0  0  0  0  0
  -23.4310  -31.9760   23.7810 O   0  0  0  0  0  0  0  0  0  0  0  0
  -22.7640  -29.2720   22.5150 C   0  0  0  0  0  0  0  0  0  0  0  0
  -21.4450  -29.0490   22.3840 N   0  0  0  0  0  0  0  0  0  0  0  0
  -23.4670  -28.6580   23.3210 O   0  0  0  0  0  0  0  0  0  0  0  0
  -20.9370  -29.5970   21.7050 H   0  0  0  0  0  0  0  0  0  0  0  0
  -18.1130  -27.7450   22.8820 C   0  0  0  0  0  0  0  0  0  0  0  0
  -20.6640  -28.0720   23.1410 C   0  0  0  0  0  3  0  0  0  0  0  0
  -20.8030  -26.6570   22.5340 C   0  0  0  0  0  2  0  0  0  0  0  0
  -19.7030  -26.3230   21.5220 C   0  0  0  0  0  2  0  0  0  0  0  0
  -18.3220  -26.4160   22.1760 C   0  0  0  0  0  2  0  0  0  0  0  0
  -19.2110  -28.5300   23.3200 C   0  0  0  0  0  0  0  0  0  0  0  0
  -18.9610  -29.7720   23.9420 C   0  0  0  0  0  3  0  0  0  0  0  0
  -17.6440  -30.2310   24.1290 C   0  0  0  0  0  3  0  0  0  0  0  0
  -16.5600  -29.4440   23.7060 C   0  0  0  0  0  3  0  0  0  0  0  0
  -16.7950  -28.2020   23.0890 C   0  0  0  0  0  3  0  0  0  0  0  0
  -25.7830  -32.4220   23.8790 C   0  0  0  0  0  3  0  0  0  0  0  0
  -25.4260  -33.8090   24.2090 N   0  0  0  0  0  0  0  0  0  0  0  0
  -25.7330  -34.8740   23.4560 C   0  0  0  0  0  0  0  0  0  0  0  0
  -26.4160  -34.7950   22.4310 O   0  0  0  0  0  0  0  0  0  0  0  0
  -24.8160  -33.9420   25.0030 H   0  0  0  0  0  0  0  0  0  0  0  0
  -23.9480  -36.6090   23.0900 C   0  0  0  0  0  1  0  0  0  0  0  0
  -25.1950  -36.2450   23.9100 C   0  0  0  0  0  3  0  0  0  0  0  0
  -27.2910  -37.2010   24.7600 C   0  0  0  0  0  1  0  0  0  0  0  0
  -26.1940  -37.3320   23.8060 N   0  0  0  0  0  0  0  0  0  0  0  0
  -25.7570  -38.2380   23.9490 H   0  0  0  0  0  0  0  0  0  0  0  0
  -26.3140  -31.6660   25.1580 C   0  0  1  0  0  0  0  0  0  0  0  0
  -25.2190  -31.3850   26.2130 C   0  0  0  0  0  1  0  0  0  0  0  0
  -26.9500  -30.3120   24.7690 C   0  0  0  0  0  1  0  0  0  0  0  0
  -27.4290  -32.4980   25.8340 C   0  0  0  0  0  1  0  0  0  0  0  0
  2  7  1  0
  3  2  2  0
  4  7  1  0
  5  3  1  0
  5  4  2  0
  6  4  1  0
  6  1  1  0
  8  6  1  0
  9  3  1  0
  9 18  1  0
 10 18  1  0
 11 16  1  0
 12 13  1  0
 12 11  1  0
 14 13  1  0
 14 23  1  0
 14 15  1  0
 16 10  1  0
 16 15  1  0
 17 10  2  0
 18 19  1  0
 20 21  2  0
 21 40  1  0
 22 21  1  0
 22 25  1  0
 23 24  1  0
 23 20  1  0
 24 22  2  0
 25 26  1  0
 26 27  2  0
 28 31  1  0
 28 27  1  0
 29 28  2  0
 30 29  1  0
 30 25  2  0
 31 32  1  0
 32 33  1  0
 33 34  2  0
 35 34  1  0
 35 39  1  0
 36 35  2  0
 37 32  2  0
 37 36  1  0
 38 37  1  0
 40 41  1  0
 41 44  1  0
 41 43  1  0
 42 40  2  0
 45 20  1  0
 45 46  1  0
 47 45  1  0
 48 51  1  0
 48  1  1  0
 49 50  1  0
 49 48  1  0
 51 52  1  0
 53 64  2  0
 54 52  1  0
 54 59  1  0
 55 63  1  0
 55 65  1  0
 56 62  1  0
 56 58  1  0
 57 63  1  0
 58 57  1  0
 59 58  2  0
 60 61  1  0
 60 54  2  0
 61 56  2  0
 62 55  1  0
 63 53  1  0
 65 67  2  0
 66 65  1  0
 68 66  1  0
 69 78  2  0
 69 74  1  0
 70 66  1  0
 70 74  1  0
 71 70  1  0
 72 73  1  0
 72 71  1  0
 73 69  1  0
 74 75  2  0
 75 76  1  0
 77 76  2  0
 78 77  1  0
 79 53  1  0
 79 80  1  0
 79 89  1  0
 80 83  1  0
 81 85  1  0
 81 80  1  0
 82 81  2  0
 85 84  1  0
 87 85  1  0
 87 88  1  0
 87 86  1  0
 89 92  1  1
 89 90  1  0
 91 89  1  0
M  ISO  4  10 100  18 100  51 101  52 101
M  END
>  <TORSDO>  (74) 
F 21

>  <SCORE>  (74) 
-12.364

>  <name>  (74) 
73

>  <ligand_id>  (74) 
73

>  <original_smiles>  (74) 
[H]OC([H])(C([H])([H])Oc1c([H])c([H])c2c(c1[H])C([H])([H])N(C(=O)C([H])(N([H])C(=O)C([H])(N([H])C([H])([H])[H])C([H])([H])[H])C(C([H])([H])[H])(C([H])([H])[H])C([H])([H])[H])C([H])(C(=O)N([H])C1([H])c3c([H])c([H])c([H])c([H])c3C([H])([H])C([H])([H])C1([H])[H])C2([H])[H])C([H])([H])N([H])c1nc(C([H])([H])N([H])C(=O)N2C([H])([H])C([H])([H])C([H])([H])C([H])(n3nc(-c4c([H])c([H])c(Oc5c([H])c([H])c(F)c([H])c5F)c([H])c4[H])c(C(=O)N([H])[H])c3N([H])[H])C2([H])[H])c([H])s1

>  <smiles>  (74) 
[H]OC([H])(C([H])([H])Oc1c([H])c([H])c2c(c1[H])C([H])([H])N(C(=O)C([H])(N([H])C(=O)C([H])(N([H])C([H])([H])[H])C([H])([H])[H])C(C([H])([H])[H])(C([H])([H])[H])C([H])([H])[H])C([H])(C(=O)N([H])C1([H])c3c([H])c([H])c([H])c([H])c3C([H])([H])C([H])([H])C1([H])[H])C2([H])[H])C([H])([H])N([H])c1nc(C([H])([H])N([H])C(=O)N2C([H])([H])C([H])([H])C([H])([H])C([H])(n3nc(-c4c([H])c([H])c(Oc5c([H])c([H])c(F)c([H])c5F)c([H])c4[H])c(C(=O)N([H])[H])c3N([H])[H])C2([H])[H])c([H])s1

$$$$
74:0:0
     RDKit          3D

 93101  0  0  1  0  0  0  0  0999 V2000
  -29.0650  -21.8620   19.7260 N   0  0  0  0  0  0  0  0  0  0  0  0
  -28.6160  -22.3220   18.9410 H   0  0  0  0  0  0  0  0  0  0  0  0
  -28.5560  -19.9010   18.4380 C   0  0  0  0  0  3  0  0  0  0  0  0
  -29.6390  -19.4850   20.5600 C   0  0  0  0  0  3  0  0  0  0  0  0
  -28.5880  -18.5140   18.1810 C   0  0  0  0  0  2  0  0  0  0  0  0
  -29.1040  -20.4340   19.6250 C   0  0  0  0  0  0  0  0  0  0  0  0
  -29.6650  -18.0810   20.2510 C   0  0  0  0  0  0  0  0  0  0  0  0
  -29.1430  -17.6720   19.0770 N   0  0  0  0  0  0  0  0  0  0  0  0
  -29.1750  -16.6750   18.8570 H   0  0  0  0  0  0  0  0  0  0  0  0
  -30.3070  -16.9990   21.1530 C   0  0  0  0  0  2  0  0  0  0  0  0
  -30.6240  -14.5450   20.4740 C   0  0  0  0  0  0  0  0  0  0  0  0
  -30.3610  -12.3620   19.3380 C   0  0  0  0  0  2  0  0  0  0  0  0
  -29.4140  -12.5380   18.1310 C   0  0  0  0  0  2  0  0  0  0  0  0
  -27.9390  -12.3930   18.5580 C   0  0  0  0  0  2  0  0  0  0  0  0
  -27.5950  -13.2310   19.8190 C   0  0  0  0  0  3  0  0  0  0  0  0
  -28.6560  -13.0320   20.9280 C   0  0  0  0  0  2  0  0  0  0  0  0
  -29.9710  -13.3530   20.3550 N   0  0  0  0  0  0  0  0  0  0  0  0
  -31.7630  -14.7170   20.0370 O   0  0  0  0  0  0  0  0  0  0  0  0
  -29.8870  -15.5820   20.9450 N   0  0  0  0  0  0  0  0  0  0  0  0
  -28.9660  -15.3390   21.2780 H   0  0  0  0  0  0  0  0  0  0  0  0
  -25.1990  -13.8390   20.5350 C   0  0  0  0  0  0  0  0  0  0  0  0
  -24.1300  -13.0680   20.9030 C   0  0  0  0  0  0  0  0  0  0  0  0
  -24.5890  -11.7160   20.8690 C   0  0  0  0  0  0  0  0  0  0  0  0
  -26.2430  -12.9550   20.3000 N   0  0  0  0  0  0  0  0  0  0  0  0
  -25.8790  -11.6730   20.5600 N   0  0  0  0  0  0  0  0  0  0  0  0
  -23.8610  -10.4550   21.0590 C   0  0  0  0  0  0  0  0  0  0  0  0
  -24.3050   -9.4780   21.9770 C   0  0  0  0  0  3  0  0  0  0  0  0
  -23.5820   -8.2800   22.1550 C   0  0  0  0  0  3  0  0  0  0  0  0
  -22.3960   -8.0520   21.4150 C   0  0  0  0  0  0  0  0  0  0  0  0
  -21.9720   -9.0160   20.4840 C   0  0  0  0  0  3  0  0  0  0  0  0
  -22.6960  -10.2070   20.3050 C   0  0  0  0  0  3  0  0  0  0  0  0
  -21.6370   -6.9100   21.5050 O   0  0  0  0  0  0  0  0  0  0  0  0
  -21.6110   -6.1510   22.6460 C   0  0  0  0  0  0  0  0  0  0  0  0
  -21.2280   -6.6910   23.8940 C   0  0  0  0  0  3  0  0  0  0  0  0
  -21.1500   -5.8570   25.0280 C   0  0  0  0  0  3  0  0  0  0  0  0
  -21.4450   -4.4850   24.9150 C   0  0  0  0  0  0  0  0  0  0  0  0
  -21.8190   -3.9450   23.6710 C   0  0  0  0  0  3  0  0  0  0  0  0
  -21.9000   -4.7750   22.5400 C   0  0  0  0  0  0  0  0  0  0  0  0
  -22.2410   -4.2460   21.3400 F   0  0  0  0  0  0  0  0  0  0  0  0
  -21.3630   -3.6810   26.0010 F   0  0  0  0  0  0  0  0  0  0  0  0
  -22.7330  -13.5470   21.1750 C   0  0  0  0  0  0  0  0  0  0  0  0
  -22.0020  -12.8500   22.0400 N   0  0  0  0  0  0  0  0  0  0  0  0
  -22.2960  -14.5730   20.6530 O   0  0  0  0  0  0  0  0  0  0  0  0
  -22.3670  -12.0200   22.4820 H   0  0  0  0  0  0  0  0  0  0  0  0
  -21.0620  -13.1490   22.2610 H   0  0  0  0  0  0  0  0  0  0  0  0
  -25.3670  -15.2110   20.3670 N   0  0  0  0  0  0  0  0  0  0  0  0
  -24.6000  -15.8640   20.4980 H   0  0  0  0  0  0  0  0  0  0  0  0
  -26.2210  -15.6580   20.0640 H   0  0  0  0  0  0  0  0  0  0  0  0
  -31.1360  -22.4700   20.9840 C   0  0  0  0  0  1  0  0  0  0  0  0
  -29.6460  -22.7880   20.7250 C   0  0  0  0  0  3  0  0  0  0  0  0
  -29.5740  -24.3240   20.3070 C   0  0  0  0  0  2  0  0  0  0  0  0
  -28.2160  -25.1050   20.2780 C   0  0  0  0  0  2  0  0  0  0  0  0
  -28.3630  -26.5630   20.1850 O   0  0  0  0  0  0  0  0  0  0  0  0
  -24.5900  -31.8700   23.2230 C   0  0  0  0  0  0  0  0  0  0  0  0
  -27.2090  -27.3470   20.1650 C   0  0  0  0  0  0  0  0  0  0  0  0
  -23.3820  -30.4690   21.5870 C   0  0  0  0  0  3  0  0  0  0  0  0
  -24.8280  -28.9160   20.1670 C   0  0  0  0  0  0  0  0  0  0  0  0
  -25.9170  -30.8000   21.3920 C   0  0  0  0  0  2  0  0  0  0  0  0
  -25.9960  -29.4220   20.7500 C   0  0  0  0  0  0  0  0  0  0  0  0
  -27.1890  -28.6500   20.7360 C   0  0  0  0  0  3  0  0  0  0  0  0
  -26.0130  -26.8740   19.5760 C   0  0  0  0  0  3  0  0  0  0  0  0
  -24.8350  -27.6430   19.5750 C   0  0  0  0  0  3  0  0  0  0  0  0
  -23.5920  -29.7870   20.2090 C   0  0  0  0  0  2  0  0  0  0  0  0
  -24.6490  -31.0630   22.1240 N   0  0  0  0  0  0  0  0  0  0  0  0
  -23.5100  -32.1470   23.7610 O   0  0  0  0  0  0  0  0  0  0  0  0
  -22.7250  -29.4520   22.5500 C   0  0  0  0  0  0  0  0  0  0  0  0
  -21.4000  -29.2710   22.4230 N   0  0  0  0  0  0  0  0  0  0  0  0
  -23.4060  -28.8310   23.3710 O   0  0  0  0  0  0  0  0  0  0  0  0
  -20.9120  -29.8250   21.7320 H   0  0  0  0  0  0  0  0  0  0  0  0
  -18.0250  -28.0680   22.9130 C   0  0  0  0  0  0  0  0  0  0  0  0
  -20.5800  -28.3370   23.1960 C   0  0  0  0  0  3  0  0  0  0  0  0
  -20.6910  -26.9020   22.6300 C   0  0  0  0  0  2  0  0  0  0  0  0
  -19.5940  -26.5680   21.6140 C   0  0  0  0  0  2  0  0  0  0  0  0
  -18.2090  -26.7140   22.2490 C   0  0  0  0  0  2  0  0  0  0  0  0
  -19.1390  -28.8360   23.3440 C   0  0  0  0  0  0  0  0  0  0  0  0
  -18.9130  -30.1040   23.9230 C   0  0  0  0  0  3  0  0  0  0  0  0
  -17.6060  -30.6020   24.0780 C   0  0  0  0  0  3  0  0  0  0  0  0
  -16.5060  -29.8310   23.6640 C   0  0  0  0  0  3  0  0  0  0  0  0
  -16.7170  -28.5660   23.0870 C   0  0  0  0  0  3  0  0  0  0  0  0
  -25.8780  -32.5000   23.8410 C   0  0  0  0  0  3  0  0  0  0  0  0
  -25.5680  -33.8960   24.1780 N   0  0  0  0  0  0  0  0  0  0  0  0
  -25.8980  -34.9530   23.4230 C   0  0  0  0  0  0  0  0  0  0  0  0
  -26.5650  -34.8540   22.3890 O   0  0  0  0  0  0  0  0  0  0  0  0
  -24.9770  -34.0450   24.9810 H   0  0  0  0  0  0  0  0  0  0  0  0
  -24.1670  -36.7460   23.0800 C   0  0  0  0  0  1  0  0  0  0  0  0
  -25.4090  -36.3380   23.8880 C   0  0  0  0  0  3  0  0  0  0  0  0
  -27.5470  -37.2170   24.7160 C   0  0  0  0  0  1  0  0  0  0  0  0
  -26.4400  -37.3930   23.7800 N   0  0  0  0  0  0  0  0  0  0  0  0
  -26.0340  -38.3110   23.9370 H   0  0  0  0  0  0  0  0  0  0  0  0
  -26.4000  -31.7250   25.1120 C   0  0  1  0  0  0  0  0  0  0  0  0
  -25.3130  -31.4880   26.1870 C   0  0  0  0  0  1  0  0  0  0  0  0
  -26.9790  -30.3470   24.7130 C   0  0  0  0  0  1  0  0  0  0  0  0
  -27.5550  -32.5160   25.7690 C   0  0  0  0  0  1  0  0  0  0  0  0
  1 50  1  0
  2  1  1  0
  3  6  2  0
  5  3  1  0
  5  8  1  0
  6  1  1  0
  6  4  1  0
  7  4  2  0
  7 10  1  0
  8  7  1  0
  9  8  1  0
 11 19  1  0
 12 17  1  0
 13 14  1  0
 13 12  1  0
 15 14  1  0
 15 24  1  0
 15 16  1  0
 17 11  1  0
 17 16  1  0
 18 11  2  0
 19 10  1  0
 19 20  1  0
 21 22  2  0
 22 41  1  0
 23 22  1  0
 23 26  1  0
 24 21  1  0
 24 25  1  0
 25 23  2  0
 26 27  1  0
 27 28  2  0
 29 32  1  0
 29 28  1  0
 30 29  2  0
 31 30  1  0
 31 26  2  0
 32 33  1  0
 33 34  1  0
 34 35  2  0
 36 35  1  0
 36 40  1  0
 37 36  2  0
 38 33  2  0
 38 37  1  0
 39 38  1  0
 41 42  1  0
 42 45  1  0
 42 44  1  0
 43 41  2  0
 46 47  1  0
 46 21  1  0
 48 46  1  0
 50 49  1  0
 51 50  1  0
 52 51  1  0
 53 52  1  0
 54 65  2  0
 55 53  1  0
 55 60  1  0
 56 64  1  0
 56 66  1  0
 57 63  1  0
 57 59  1  0
 58 64  1  0
 59 58  1  0
 60 59  2  0
 61 55  2  0
 62 61  1  0
 62 57  2  0
 63 56  1  0
 64 54  1  0
 66 68  2  0
 67 66  1  0
 69 67  1  0
 70 79  2  0
 70 75  1  0
 71 67  1  0
 71 75  1  0
 72 71  1  0
 73 74  1  0
 73 72  1  0
 74 70  1  0
 75 76  2  0
 76 77  1  0
 78 77  2  0
 79 78  1  0
 80 54  1  0
 80 81  1  0
 80 90  1  0
 81 84  1  0
 82 86  1  0
 82 81  1  0
 83 82  2  0
 86 85  1  0
 88 86  1  0
 88 89  1  0
 88 87  1  0
 90 93  1  1
 90 91  1  0
 92 90  1  0
M  ISO  4  11 100  19 100  52 101  53 101
M  END
>  <TORSDO>  (75) 
F 21

>  <SCORE>  (75) 
-13.687

>  <name>  (75) 
74

>  <ligand_id>  (75) 
74

>  <original_smiles>  (75) 
[H]c1c([H])c([H])c2c(c1[H])C([H])([H])C([H])([H])C([H])([H])C2([H])N([H])C(=O)C1([H])N(C(=O)C([H])(N([H])C(=O)C([H])(N([H])C([H])([H])[H])C([H])([H])[H])C(C([H])([H])[H])(C([H])([H])[H])C([H])([H])[H])C([H])([H])c2c([H])c(OC([H])([H])C([H])([H])C([H])(N([H])c3c([H])c([H])[n+]([H])c(C([H])([H])N([H])C(=O)N4C([H])([H])C([H])([H])C([H])([H])C([H])(n5nc(-c6c([H])c([H])c(Oc7c([H])c([H])c(F)c([H])c7F)c([H])c6[H])c(C(=O)N([H])[H])c5N([H])[H])C4([H])[H])c3[H])C([H])([H])[H])c([H])c([H])c2C1([H])[H]

>  <smiles>  (75) 
[H]c1c([H])c([H])c2c(c1[H])C([H])([H])C([H])([H])C([H])([H])C2([H])N([H])C(=O)C1([H])N(C(=O)C([H])(N([H])C(=O)C([H])(N([H])C([H])([H])[H])C([H])([H])[H])C(C([H])([H])[H])(C([H])([H])[H])C([H])([H])[H])C([H])([H])c2c([H])c(OC([H])([H])C([H])([H])C([H])(N([H])c3c([H])c([H])[n+]([H])c(C([H])([H])N([H])C(=O)N4C([H])([H])C([H])([H])C([H])([H])C([H])(n5nc(-c6c([H])c([H])c(Oc7c([H])c([H])c(F)c([H])c7F)c([H])c6[H])c(C(=O)N([H])[H])c5N([H])[H])C4([H])[H])c3[H])C([H])([H])[H])c([H])c([H])c2C1([H])[H]

$$$$
75:0:0
     RDKit          3D

 90 98  0  0  1  0  0  0  0  0999 V2000
  -29.9640  -17.2750   18.7670 C   0  0  0  0  0  3  0  0  0  0  0  0
  -29.7840  -17.2110   20.1700 C   0  0  0  0  0  3  0  0  0  0  0  0
  -29.4290  -19.5790   20.0410 C   0  0  0  0  0  0  0  0  0  0  0  0
  -29.8880  -18.4420   18.0790 N   0  0  0  0  0  0  0  0  0  0  0  0
  -29.4940  -18.4320   20.7970 N   0  0  0  0  0  0  0  0  0  0  0  0
  -29.6220  -19.5940   18.7140 N   0  0  0  0  0  2  0  0  0  0  0  0
  -29.1690  -20.8610   20.6280 N   0  0  0  0  0  0  0  0  0  0  0  0
  -28.9790  -20.8000   21.6200 H   0  0  0  0  0  0  0  0  0  0  0  0
  -30.5490  -14.7460   20.4450 C   0  0  0  0  0  0  0  0  0  0  0  0
  -30.3750  -12.4530   19.4820 C   0  0  0  0  0  2  0  0  0  0  0  0
  -29.4720  -12.5410   18.2300 C   0  0  0  0  0  2  0  0  0  0  0  0
  -27.9900  -12.3800   18.6270 C   0  0  0  0  0  2  0  0  0  0  0  0
  -27.5970  -13.2790   19.8280 C   0  0  0  0  0  3  0  0  0  0  0  0
  -28.6230  -13.1790   20.9780 C   0  0  0  0  0  2  0  0  0  0  0  0
  -29.9400  -13.5120   20.4230 N   0  0  0  0  0  0  0  0  0  0  0  0
  -31.7150  -14.8610   20.0550 O   0  0  0  0  0  0  0  0  0  0  0  0
  -29.7870  -15.8580   20.7820 N   0  0  0  0  0  0  0  0  0  0  0  0
  -28.9560  -15.6420   21.3090 H   0  0  0  0  0  0  0  0  0  0  0  0
  -25.1980  -13.8890   20.4970 C   0  0  0  0  0  0  0  0  0  0  0  0
  -24.1210  -13.1250   20.8520 C   0  0  0  0  0  0  0  0  0  0  0  0
  -24.5790  -11.7710   20.8460 C   0  0  0  0  0  0  0  0  0  0  0  0
  -26.2420  -13.0040   20.2890 N   0  0  0  0  0  0  0  0  0  0  0  0
  -25.8750  -11.7250   20.5630 N   0  0  0  0  0  0  0  0  0  0  0  0
  -23.8450  -10.5150   21.0360 C   0  0  0  0  0  0  0  0  0  0  0  0
  -24.2630   -9.5510   21.9800 C   0  0  0  0  0  3  0  0  0  0  0  0
  -23.5270   -8.3590   22.1570 C   0  0  0  0  0  3  0  0  0  0  0  0
  -22.3630   -8.1230   21.3870 C   0  0  0  0  0  0  0  0  0  0  0  0
  -21.9650   -9.0750   20.4340 C   0  0  0  0  0  3  0  0  0  0  0  0
  -22.7010  -10.2580   20.2550 C   0  0  0  0  0  3  0  0  0  0  0  0
  -21.6020   -6.9830   21.4730 O   0  0  0  0  0  0  0  0  0  0  0  0
  -21.5390   -6.2440   22.6280 C   0  0  0  0  0  0  0  0  0  0  0  0
  -21.1110   -6.8050   23.8500 C   0  0  0  0  0  3  0  0  0  0  0  0
  -20.9940   -5.9940   24.9960 C   0  0  0  0  0  3  0  0  0  0  0  0
  -21.2960   -4.6200   24.9210 C   0  0  0  0  0  0  0  0  0  0  0  0
  -21.7150   -4.0580   23.7030 C   0  0  0  0  0  3  0  0  0  0  0  0
  -21.8350   -4.8670   22.5600 C   0  0  0  0  0  0  0  0  0  0  0  0
  -22.2220   -4.3160   21.3830 F   0  0  0  0  0  0  0  0  0  0  0  0
  -21.1750   -3.8380   26.0180 F   0  0  0  0  0  0  0  0  0  0  0  0
  -22.7230  -13.6140   21.0940 C   0  0  0  0  0  0  0  0  0  0  0  0
  -21.9770  -12.9270   21.9530 N   0  0  0  0  0  0  0  0  0  0  0  0
  -22.3000  -14.6380   20.5590 O   0  0  0  0  0  0  0  0  0  0  0  0
  -22.3310  -12.0980   22.4040 H   0  0  0  0  0  0  0  0  0  0  0  0
  -21.0360  -13.2320   22.1620 H   0  0  0  0  0  0  0  0  0  0  0  0
  -25.3770  -15.2590   20.3120 N   0  0  0  0  0  0  0  0  0  0  0  0
  -24.6180  -15.9240   20.4150 H   0  0  0  0  0  0  0  0  0  0  0  0
  -26.2460  -15.6870   20.0180 H   0  0  0  0  0  0  0  0  0  0  0  0
  -28.6880  -22.1310   19.9320 C   0  0  0  0  0  2  0  0  0  0  0  0
  -28.8600  -23.6070   20.6060 C   0  0  0  0  0  3  0  0  0  0  0  0
  -28.0320  -24.8670   19.9890 C   0  0  0  0  0  3  0  0  0  0  0  0
  -28.2780  -26.3310   20.3000 O   0  0  0  0  0  0  0  0  0  0  0  0
  -24.6240  -31.8760   23.2630 C   0  0  0  0  0  0  0  0  0  0  0  0
  -27.2070  -27.2600   20.2010 C   0  0  0  0  0  0  0  0  0  0  0  0
  -23.4220  -30.4910   21.6140 C   0  0  0  0  0  3  0  0  0  0  0  0
  -24.8700  -28.9440   20.1730 C   0  0  0  0  0  0  0  0  0  0  0  0
  -25.9700  -30.7760   21.4540 C   0  0  0  0  0  2  0  0  0  0  0  0
  -26.0400  -29.3990   20.7930 C   0  0  0  0  0  0  0  0  0  0  0  0
  -27.2080  -28.5640   20.8060 C   0  0  0  0  0  3  0  0  0  0  0  0
  -26.0190  -26.8930   19.5250 C   0  0  0  0  0  3  0  0  0  0  0  0
  -24.8630  -27.6980   19.5320 C   0  0  0  0  0  3  0  0  0  0  0  0
  -23.6380  -29.8300   20.2280 C   0  0  0  0  0  2  0  0  0  0  0  0
  -24.6900  -31.0690   22.1640 N   0  0  0  0  0  0  0  0  0  0  0  0
  -23.5400  -32.1590   23.7950 O   0  0  0  0  0  0  0  0  0  0  0  0
  -22.7550  -29.4730   22.5660 C   0  0  0  0  0  0  0  0  0  0  0  0
  -21.4300  -29.2930   22.4340 N   0  0  0  0  0  0  0  0  0  0  0  0
  -23.4300  -28.8470   23.3900 O   0  0  0  0  0  0  0  0  0  0  0  0
  -20.9440  -29.8390   21.7380 H   0  0  0  0  0  0  0  0  0  0  0  0
  -18.0570  -28.0810   22.9440 C   0  0  0  0  0  0  0  0  0  0  0  0
  -20.6150  -28.3500   23.2020 C   0  0  0  0  0  3  0  0  0  0  0  0
  -20.7270  -26.9220   22.6210 C   0  0  0  0  0  2  0  0  0  0  0  0
  -19.6150  -26.5850   21.6230 C   0  0  0  0  0  2  0  0  0  0  0  0
  -18.2380  -26.7280   22.2790 C   0  0  0  0  0  2  0  0  0  0  0  0
  -19.1740  -28.8460   23.3700 C   0  0  0  0  0  0  0  0  0  0  0  0
  -18.9540  -30.1060   23.9670 C   0  0  0  0  0  3  0  0  0  0  0  0
  -17.6480  -30.6010   24.1410 C   0  0  0  0  0  3  0  0  0  0  0  0
  -16.5460  -29.8370   23.7200 C   0  0  0  0  0  3  0  0  0  0  0  0
  -16.7500  -28.5770   23.1300 C   0  0  0  0  0  3  0  0  0  0  0  0
  -25.9090  -32.5050   23.8880 C   0  0  0  0  0  3  0  0  0  0  0  0
  -26.4150  -31.7390   25.1730 C   0  0  1  0  0  0  0  0  0  0  0  0
  -25.3150  -31.5170   26.2370 C   0  0  0  0  0  1  0  0  0  0  0  0
  -26.9950  -30.3550   24.8020 C   0  0  0  0  0  1  0  0  0  0  0  0
  -27.5680  -32.5310   25.8330 C   0  0  0  0  0  1  0  0  0  0  0  0
  -25.6060  -33.9070   24.2120 N   0  0  0  0  0  0  0  0  0  0  0  0
  -25.9330  -34.9560   23.4440 C   0  0  0  0  0  0  0  0  0  0  0  0
  -26.5930  -34.8430   22.4080 O   0  0  0  0  0  0  0  0  0  0  0  0
  -25.0180  -34.0670   25.0180 H   0  0  0  0  0  0  0  0  0  0  0  0
  -24.2020  -36.7480   23.0930 C   0  0  0  0  0  1  0  0  0  0  0  0
  -25.4490  -36.3480   23.8960 C   0  0  0  0  0  3  0  0  0  0  0  0
  -27.5910  -37.2370   24.7030 C   0  0  0  0  0  1  0  0  0  0  0  0
  -26.4820  -37.3980   23.7660 N   0  0  0  0  0  0  0  0  0  0  0  0
  -26.0790  -38.3210   23.9070 H   0  0  0  0  0  0  0  0  0  0  0  0
  1  2  1  0
  2 17  1  0
  2  5  1  0
  3  7  1  0
  3  5  2  0
  4  6  1  0
  4  1  2  0
  6  3  1  0
  7  8  1  0
  9 17  1  0
 10 15  1  0
 11 12  1  0
 11 10  1  0
 13 12  1  0
 13 22  1  0
 13 14  1  0
 15  9  1  0
 15 14  1  0
 16  9  2  0
 17 18  1  0
 19 20  2  0
 20 39  1  0
 21 20  1  0
 21 24  1  0
 22 19  1  0
 22 23  1  0
 23 21  2  0
 24 25  1  0
 25 26  2  0
 27 30  1  0
 27 26  1  0
 28 27  2  0
 29 28  1  0
 29 24  2  0
 30 31  1  0
 31 32  1  0
 32 33  2  0
 34 33  1  0
 34 38  1  0
 35 34  2  0
 36 31  2  0
 36 35  1  0
 37 36  1  0
 39 40  1  0
 40 43  1  0
 40 42  1  0
 41 39  2  0
 44 45  1  0
 44 19  1  0
 46 44  1  0
 47 48  1  0
 47  7  1  0
 49 50  1  0
 49 48  2  0
 51 62  2  0
 52 50  1  0
 52 57  1  0
 53 61  1  0
 53 63  1  0
 54 60  1  0
 54 56  1  0
 55 61  1  0
 56 57  2  0
 56 55  1  0
 58 59  1  0
 58 52  2  0
 59 54  2  0
 60 53  1  0
 61 51  1  0
 63 65  2  0
 64 63  1  0
 66 64  1  0
 67 76  2  0
 67 72  1  0
 68 64  1  0
 68 72  1  0
 69 68  1  0
 70 71  1  0
 70 69  1  0
 71 67  1  0
 72 73  2  0
 73 74  1  0
 75 74  2  0
 76 75  1  0
 77 51  1  0
 77 82  1  0
 77 78  1  0
 78 81  1  1
 78 79  1  0
 80 78  1  0
 82 85  1  0
 83 87  1  0
 83 82  1  0
 84 83  2  0
 87 86  1  0
 89 87  1  0
 89 90  1  0
 89 88  1  0
M  ISO  4   9 100  17 100  49 101  50 101
M  END
>  <TORSDO>  (76) 
F 19

>  <SCORE>  (76) 
-14.109

>  <name>  (76) 
75

>  <ligand_id>  (76) 
75

>  <original_smiles>  (76) 
[H]c1nnc(N([H])C([H])([H])C([H])([H])C([H])([H])Oc2c([H])c([H])c3c(c2[H])C([H])([H])N(C(=O)C([H])(N([H])C(=O)C([H])(N([H])C([H])([H])[H])C([H])([H])[H])C(C([H])([H])[H])(C([H])([H])[H])C([H])([H])[H])C([H])(C(=O)N([H])C2([H])c4c([H])c([H])c([H])c([H])c4C([H])([H])C([H])([H])C2([H])[H])C3([H])[H])nc1N([H])C(=O)N1C([H])([H])C([H])([H])C([H])([H])C([H])(n2nc(-c3c([H])c([H])c(Oc4c([H])c([H])c(F)c([H])c4F)c([H])c3[H])c(C(=O)N([H])[H])c2N([H])[H])C1([H])[H]

>  <smiles>  (76) 
[H]c1nnc(N([H])C([H])([H])C([H])([H])C([H])([H])Oc2c([H])c([H])c3c(c2[H])C([H])([H])N(C(=O)C([H])(N([H])C(=O)C([H])(N([H])C([H])([H])[H])C([H])([H])[H])C(C([H])([H])[H])(C([H])([H])[H])C([H])([H])[H])C([H])(C(=O)N([H])C2([H])c4c([H])c([H])c([H])c([H])c4C([H])([H])C([H])([H])C2([H])[H])C3([H])[H])nc1N([H])C(=O)N1C([H])([H])C([H])([H])C([H])([H])C([H])(n2nc(-c3c([H])c([H])c(Oc4c([H])c([H])c(F)c([H])c4F)c([H])c3[H])c(C(=O)N([H])[H])c2N([H])[H])C1([H])[H]

$$$$
76:0:0
     RDKit          3D

 97105  0  0  1  0  0  0  0  0999 V2000
  -36.4820  -13.4230   20.2070 C   0  0  0  0  0  0  0  0  0  0  0  0
  -35.2170  -11.2670   20.2250 C   0  0  0  0  0  2  0  0  0  0  0  0
  -34.3860  -11.1510   18.9250 C   0  0  0  0  0  2  0  0  0  0  0  0
  -33.0250  -11.8590   19.0740 C   0  0  0  0  0  2  0  0  0  0  0  0
  -33.1550  -13.2790   19.6810 C   0  0  0  0  0  3  0  0  0  0  0  0
  -34.0530  -13.2640   20.9420 C   0  0  0  0  0  2  0  0  0  0  0  0
  -35.3620  -12.7030   20.5580 N   0  0  0  0  0  0  0  0  0  0  0  0
  -37.5430  -12.8380   19.9360 O   0  0  0  0  0  0  0  0  0  0  0  0
  -36.8370  -17.2130   19.7130 C   0  0  0  0  0  3  0  0  0  0  0  0
  -38.3890  -16.6730   17.4960 C   0  0  0  0  0  2  0  0  0  0  0  0
  -37.4580  -18.2980   19.0140 C   0  0  0  0  0  0  0  0  0  0  0  0
  -38.2480  -18.0440   17.8590 C   0  0  0  0  0  0  0  0  0  0  0  0
  -37.0170  -15.8480   19.3340 C   0  0  0  0  0  0  0  0  0  0  0  0
  -37.8000  -15.6660   18.2240 N   0  0  0  0  0  0  0  0  0  0  0  0
  -36.3220  -14.7850   20.0880 N   0  0  0  0  0  0  0  0  0  0  0  0
  -37.9640  -14.7060   17.9010 H   0  0  0  0  0  0  0  0  0  0  0  0
  -35.4880  -15.0900   20.5600 H   0  0  0  0  0  0  0  0  0  0  0  0
  -31.5330  -15.1910   20.2420 C   0  0  0  0  0  0  0  0  0  0  0  0
  -30.1690  -15.2370   20.3330 C   0  0  0  0  0  0  0  0  0  0  0  0
  -29.7110  -13.9080   20.0770 C   0  0  0  0  0  0  0  0  0  0  0  0
  -31.8490  -13.8730   19.9490 N   0  0  0  0  0  0  0  0  0  0  0  0
  -30.7420  -13.0900   19.9090 N   0  0  0  0  0  0  0  0  0  0  0  0
  -28.3500  -13.3780   19.9280 C   0  0  0  0  0  0  0  0  0  0  0  0
  -27.9280  -12.2170   20.6140 C   0  0  0  0  0  3  0  0  0  0  0  0
  -26.6080  -11.7380   20.4670 C   0  0  0  0  0  3  0  0  0  0  0  0
  -25.6940  -12.4230   19.6320 C   0  0  0  0  0  0  0  0  0  0  0  0
  -26.1250  -13.5640   18.9330 C   0  0  0  0  0  3  0  0  0  0  0  0
  -27.4400  -14.0360   19.0750 C   0  0  0  0  0  3  0  0  0  0  0  0
  -24.4010  -12.0160   19.4100 O   0  0  0  0  0  0  0  0  0  0  0  0
  -23.4990  -11.8920   20.4370 C   0  0  0  0  0  0  0  0  0  0  0  0
  -22.9410  -10.6440   20.7900 C   0  0  0  0  0  3  0  0  0  0  0  0
  -22.0710  -10.5510   21.8950 C   0  0  0  0  0  3  0  0  0  0  0  0
  -21.7670  -11.6990   22.6520 C   0  0  0  0  0  0  0  0  0  0  0  0
  -22.3260  -12.9400   22.3040 C   0  0  0  0  0  3  0  0  0  0  0  0
  -23.1930  -13.0350   21.2010 C   0  0  0  0  0  0  0  0  0  0  0  0
  -23.7460  -14.2310   20.8830 F   0  0  0  0  0  0  0  0  0  0  0  0
  -20.9380  -11.6070   23.7180 F   0  0  0  0  0  0  0  0  0  0  0  0
  -29.3270  -16.4620   20.5460 C   0  0  0  0  0  0  0  0  0  0  0  0
  -28.0270  -16.3650   20.2970 N   0  0  0  0  0  0  0  0  0  0  0  0
  -29.8170  -17.5040   20.9830 O   0  0  0  0  0  0  0  0  0  0  0  0
  -27.6230  -15.5050   19.9560 H   0  0  0  0  0  0  0  0  0  0  0  0
  -27.4240  -17.1610   20.4520 H   0  0  0  0  0  0  0  0  0  0  0  0
  -32.5290  -16.1570   20.3610 N   0  0  0  0  0  0  0  0  0  0  0  0
  -32.3040  -17.1370   20.4880 H   0  0  0  0  0  0  0  0  0  0  0  0
  -33.5000  -16.0060   20.1240 H   0  0  0  0  0  0  0  0  0  0  0  0
  -38.8040  -19.7630   16.0310 C   0  0  0  0  0  0  0  0  0  0  0  0
  -39.0060  -19.1240   17.2220 N   0  0  0  0  0  0  0  0  0  0  0  0
  -37.9240  -19.3860   15.2530 O   0  0  0  0  0  0  0  0  0  0  0  0
  -39.7280  -19.5260   17.8050 H   0  0  0  0  0  0  0  0  0  0  0  0
  -39.7330  -20.9830   15.6250 C   0  0  0  0  0  2  0  0  0  0  0  0
  -39.0730  -22.2250   14.8770 C   0  0  0  0  0  2  0  0  0  0  0  0
  -39.6390  -23.5860   15.0460 O   0  0  0  0  0  0  0  0  0  0  0  0
  -37.5130  -27.6280   20.6290 C   0  0  0  0  0  0  0  0  0  0  0  0
  -38.7980  -24.6070   15.5200 C   0  0  0  0  0  0  0  0  0  0  0  0
  -35.9940  -27.5530   18.6830 C   0  0  0  0  0  3  0  0  0  0  0  0
  -36.9780  -26.5690   16.5400 C   0  0  0  0  0  0  0  0  0  0  0  0
  -38.5260  -27.2580   18.3710 C   0  0  0  0  0  2  0  0  0  0  0  0
  -38.2260  -26.3940   17.1510 C   0  0  0  0  0  0  0  0  0  0  0  0
  -39.1420  -25.4290   16.6370 C   0  0  0  0  0  3  0  0  0  0  0  0
  -37.5400  -24.8440   14.9140 C   0  0  0  0  0  3  0  0  0  0  0  0
  -36.6400  -25.8020   15.4140 C   0  0  0  0  0  3  0  0  0  0  0  0
  -36.0380  -27.5960   17.1340 C   0  0  0  0  0  2  0  0  0  0  0  0
  -37.3660  -27.4610   19.2830 N   0  0  0  0  0  0  0  0  0  0  0  0
  -36.5410  -27.8820   21.3560 O   0  0  0  0  0  0  0  0  0  0  0  0
  -35.0530  -26.4100   19.1300 C   0  0  0  0  0  0  0  0  0  0  0  0
  -33.8350  -26.3700   18.5590 N   0  0  0  0  0  0  0  0  0  0  0  0
  -35.4280  -25.5700   19.9520 O   0  0  0  0  0  0  0  0  0  0  0  0
  -33.5980  -27.1000   17.9020 H   0  0  0  0  0  0  0  0  0  0  0  0
  -31.4610  -24.1830   16.9270 C   0  0  0  0  0  0  0  0  0  0  0  0
  -32.8040  -25.3590   18.7970 C   0  0  0  0  0  3  0  0  0  0  0  0
  -33.4350  -23.9740   19.0740 C   0  0  0  0  0  2  0  0  0  0  0  0
  -33.5770  -23.1120   17.8170 C   0  0  0  0  0  2  0  0  0  0  0  0
  -32.2090  -22.8820   17.1660 C   0  0  0  0  0  2  0  0  0  0  0  0
  -31.7520  -25.3490   17.6820 C   0  0  0  0  0  0  0  0  0  0  0  0
  -31.0550  -26.5420   17.3970 C   0  0  0  0  0  3  0  0  0  0  0  0
  -30.0800  -26.5810   16.3830 C   0  0  0  0  0  3  0  0  0  0  0  0
  -29.7810  -25.4190   15.6510 C   0  0  0  0  0  3  0  0  0  0  0  0
  -30.4700  -24.2230   15.9230 C   0  0  0  0  0  3  0  0  0  0  0  0
  -38.9100  -27.5300   21.3150 C   0  0  0  0  0  3  0  0  0  0  0  0
  -39.1750  -26.1230   21.9780 C   0  0  1  0  0  0  0  0  0  0  0  0
  -38.1160  -25.7210   23.0300 C   0  0  0  0  0  1  0  0  0  0  0  0
  -39.2200  -25.0120   20.9020 C   0  0  0  0  0  1  0  0  0  0  0  0
  -40.5580  -26.1230   22.6710 C   0  0  0  0  0  1  0  0  0  0  0  0
  -38.9860  -28.5980   22.3210 N   0  0  0  0  0  0  0  0  0  0  0  0
  -39.5350  -29.8030   22.1150 C   0  0  0  0  0  0  0  0  0  0  0  0
  -40.1010  -30.1090   21.0620 O   0  0  0  0  0  0  0  0  0  0  0  0
  -38.4980  -28.4350   23.1910 H   0  0  0  0  0  0  0  0  0  0  0  0
  -38.3080  -31.8220   22.9710 C   0  0  0  0  0  1  0  0  0  0  0  0
  -39.4470  -30.8300   23.2590 C   0  0  0  0  0  3  0  0  0  0  0  0
  -41.7640  -30.7490   24.0650 C   0  0  0  0  0  1  0  0  0  0  0  0
  -40.7070  -31.5730   23.4840 N   0  0  0  0  0  0  0  0  0  0  0  0
  -40.5510  -32.3680   24.0980 H   0  0  0  0  0  0  0  0  0  0  0  0
  -37.3580  -19.6380   19.4440 N   0  0  0  0  0  0  0  0  0  0  0  0
  -37.7950  -20.3110   18.8270 H   0  0  0  0  0  0  0  0  0  0  0  0
  -34.9830  -20.3190   19.5000 C   0  0  0  0  0  1  0  0  0  0  0  0
  -36.7150  -21.4420   20.9710 C   0  0  0  0  0  1  0  0  0  0  0  0
  -36.2840  -20.1290   20.2990 C   0  0  0  0  0  3  0  0  0  0  0  0
  1  7  1  0
  2  7  1  0
  3  4  1  0
  3  2  1  0
  5  4  1  0
  5 21  1  0
  5  6  1  0
  7  6  1  0
  8  1  2  0
 10 12  1  0
 10 14  1  0
 11 93  1  0
 11  9  1  0
 12 11  2  0
 13  9  2  0
 13 15  1  0
 14 13  1  0
 15  1  1  0
 15 17  1  0
 16 14  1  0
 18 19  2  0
 18 43  1  0
 19 38  1  0
 20 19  1  0
 21 18  1  0
 22 21  1  0
 22 20  2  0
 23 20  1  0
 23 24  1  0
 25 24  2  0
 26 25  1  0
 27 28  1  0
 27 26  2  0
 28 23  2  0
 29 26  1  0
 29 30  1  0
 30 31  2  0
 30 35  1  0
 31 32  1  0
 32 33  2  0
 33 37  1  0
 34 33  1  0
 35 34  2  0
 36 35  1  0
 38 40  2  0
 39 42  1  0
 39 38  1  0
 41 39  1  0
 43 44  1  0
 45 43  1  0
 46 47  1  0
 47 49  1  0
 47 12  1  0
 48 46  2  0
 50 46  1  0
 51 52  1  0
 51 50  1  0
 52 54  1  0
 53 64  2  0
 54 59  1  0
 55 65  1  0
 55 63  1  0
 56 62  1  0
 56 58  1  0
 57 63  1  0
 58 57  1  0
 59 58  2  0
 60 61  1  0
 60 54  2  0
 61 56  2  0
 62 55  1  0
 63 53  1  0
 65 67  2  0
 66 65  1  0
 68 66  1  0
 69 73  1  0
 69 74  1  0
 70 66  1  0
 70 71  1  0
 72 71  1  0
 73 72  1  0
 74 70  1  0
 75 74  2  0
 76 75  1  0
 77 78  1  0
 77 76  2  0
 78 69  2  0
 79 53  1  0
 79 80  1  0
 79 84  1  0
 80 83  1  1
 80 81  1  0
 82 80  1  0
 84 87  1  0
 85 84  1  0
 85 89  1  0
 86 85  2  0
 89 88  1  0
 89 91  1  0
 91 90  1  0
 91 92  1  0
 93 97  1  0
 94 93  1  0
 95 97  1  0
 97 96  1  0
M  ISO  4   1 100  15 100  51 101  52 101
M  END
>  <TORSDO>  (77) 
F 20

>  <SCORE>  (77) 
-2.792

>  <name>  (77) 
76

>  <ligand_id>  (77) 
76

>  <original_smiles>  (77) 
[H]c1c([H])c([H])c2c(c1[H])C([H])([H])C([H])([H])C([H])([H])C2([H])N([H])C(=O)C1([H])N(C(=O)C([H])(N([H])C(=O)C([H])(N([H])C([H])([H])[H])C([H])([H])[H])C(C([H])([H])[H])(C([H])([H])[H])C([H])([H])[H])C([H])([H])c2c([H])c(OC([H])([H])C([H])([H])C(=O)N([H])c3c(N([H])C([H])(C([H])([H])[H])C([H])([H])[H])c([H])c(N([H])C(=O)N4C([H])([H])C([H])([H])C([H])([H])C([H])(n5nc(-c6c([H])c([H])c(Oc7c([H])c([H])c(F)c([H])c7F)c([H])c6[H])c(C(=O)N([H])[H])c5N([H])[H])C4([H])[H])[n+]([H])c3[H])c([H])c([H])c2C1([H])[H]

>  <smiles>  (77) 
[H]c1c([H])c([H])c2c(c1[H])C([H])([H])C([H])([H])C([H])([H])C2([H])N([H])C(=O)C1([H])N(C(=O)C([H])(N([H])C(=O)C([H])(N([H])C([H])([H])[H])C([H])([H])[H])C(C([H])([H])[H])(C([H])([H])[H])C([H])([H])[H])C([H])([H])c2c([H])c(OC([H])([H])C([H])([H])C(=O)N([H])c3c(N([H])C([H])(C([H])([H])[H])C([H])([H])[H])c([H])c(N([H])C(=O)N4C([H])([H])C([H])([H])C([H])([H])C([H])(n5nc(-c6c([H])c([H])c(Oc7c([H])c([H])c(F)c([H])c7F)c([H])c6[H])c(C(=O)N([H])[H])c5N([H])[H])C4([H])[H])[n+]([H])c3[H])c([H])c([H])c2C1([H])[H]

$$$$
77:0:0
     RDKit          3D

 93101  0  0  1  0  0  0  0  0999 V2000
  -31.2980  -17.3950   22.0600 C   0  0  0  0  0  3  0  0  0  0  0  0
  -30.2570  -17.0590   21.2280 C   0  0  0  0  0  0  0  0  0  0  0  0
  -30.0800  -19.2470   21.6930 C   0  0  0  0  0  3  0  0  0  0  0  0
  -31.9700  -19.5220   23.2810 C   0  0  0  0  0  1  0  0  0  0  0  0
  -31.1400  -18.7340   22.3570 N   0  0  0  0  0  0  0  0  0  0  0  0
  -29.5310  -18.2230   21.0010 N   0  0  0  0  0  0  0  0  0  0  0  0
  -29.6320  -20.5300   21.8400 N   0  0  0  0  0  0  0  0  0  0  0  0
  -28.6850  -18.2950   20.4520 H   0  0  0  0  0  0  0  0  0  0  0  0
  -29.9840  -21.0180   22.6540 H   0  0  0  0  0  0  0  0  0  0  0  0
  -30.6420  -14.7150   20.3050 C   0  0  0  0  0  0  0  0  0  0  0  0
  -30.3850  -12.5620   19.0840 C   0  0  0  0  0  2  0  0  0  0  0  0
  -29.4090  -12.7510   17.9020 C   0  0  0  0  0  2  0  0  0  0  0  0
  -27.9440  -12.5770   18.3550 C   0  0  0  0  0  2  0  0  0  0  0  0
  -27.6170  -13.3750   19.6430 C   0  0  0  0  0  3  0  0  0  0  0  0
  -28.7010  -13.1520   20.7230 C   0  0  0  0  0  2  0  0  0  0  0  0
  -30.0000  -13.5190   20.1360 N   0  0  0  0  0  0  0  0  0  0  0  0
  -31.7710  -14.9230   19.8530 O   0  0  0  0  0  0  0  0  0  0  0  0
  -29.8820  -15.7180   20.8200 N   0  0  0  0  0  0  0  0  0  0  0  0
  -28.9210  -15.4560   20.9810 H   0  0  0  0  0  0  0  0  0  0  0  0
  -25.2200  -13.9300   20.3900 C   0  0  0  0  0  0  0  0  0  0  0  0
  -24.1740  -13.1370   20.7780 C   0  0  0  0  0  0  0  0  0  0  0  0
  -24.6640  -11.7950   20.7410 C   0  0  0  0  0  0  0  0  0  0  0  0
  -26.2790  -13.0700   20.1430 N   0  0  0  0  0  0  0  0  0  0  0  0
  -25.9500  -11.7810   20.4110 N   0  0  0  0  0  0  0  0  0  0  0  0
  -23.9660  -10.5190   20.9440 C   0  0  0  0  0  0  0  0  0  0  0  0
  -24.4160   -9.5730   21.8920 C   0  0  0  0  0  3  0  0  0  0  0  0
  -23.7180   -8.3600   22.0800 C   0  0  0  0  0  3  0  0  0  0  0  0
  -22.5560   -8.0860   21.3200 C   0  0  0  0  0  0  0  0  0  0  0  0
  -22.1260   -9.0190   20.3600 C   0  0  0  0  0  3  0  0  0  0  0  0
  -22.8250  -10.2240   20.1710 C   0  0  0  0  0  3  0  0  0  0  0  0
  -21.8280   -6.9240   21.4170 O   0  0  0  0  0  0  0  0  0  0  0  0
  -21.7700   -6.2070   22.5840 C   0  0  0  0  0  0  0  0  0  0  0  0
  -21.2870   -6.7730   23.7850 C   0  0  0  0  0  3  0  0  0  0  0  0
  -21.1800   -5.9810   24.9440 C   0  0  0  0  0  3  0  0  0  0  0  0
  -21.5450   -4.6210   24.9050 C   0  0  0  0  0  0  0  0  0  0  0  0
  -22.0220   -4.0540   23.7100 C   0  0  0  0  0  3  0  0  0  0  0  0
  -22.1320   -4.8450   22.5530 C   0  0  0  0  0  0  0  0  0  0  0  0
  -22.5700   -4.2880   21.3980 F   0  0  0  0  0  0  0  0  0  0  0  0
  -21.4370   -3.8560   26.0160 F   0  0  0  0  0  0  0  0  0  0  0  0
  -22.7720  -13.5860   21.0720 C   0  0  0  0  0  0  0  0  0  0  0  0
  -22.0700  -12.8720   21.9450 N   0  0  0  0  0  0  0  0  0  0  0  0
  -22.3050  -14.6060   20.5630 O   0  0  0  0  0  0  0  0  0  0  0  0
  -22.4610  -12.0480   22.3790 H   0  0  0  0  0  0  0  0  0  0  0  0
  -21.1290  -13.1500   22.1840 H   0  0  0  0  0  0  0  0  0  0  0  0
  -25.3500  -15.3040   20.2040 N   0  0  0  0  0  0  0  0  0  0  0  0
  -24.5560  -15.9300   20.2950 H   0  0  0  0  0  0  0  0  0  0  0  0
  -26.1590  -15.7510   19.7900 H   0  0  0  0  0  0  0  0  0  0  0  0
  -30.8480  -21.6450   20.0120 C   0  0  0  0  0  1  0  0  0  0  0  0
  -29.4940  -21.4950   20.7210 C   0  0  0  0  0  3  0  0  0  0  0  0
  -28.9580  -22.9010   21.2290 C   0  0  0  0  0  2  0  0  0  0  0  0
  -28.8330  -24.1220   20.2240 C   0  0  0  0  0  3  0  0  0  0  0  0
  -28.2580  -25.4690   20.8220 C   0  0  0  0  0  3  0  0  0  0  0  0
  -28.3140  -26.6750   19.9910 O   0  0  0  0  0  0  0  0  0  0  0  0
  -24.5200  -31.8870   23.1450 C   0  0  0  0  0  0  0  0  0  0  0  0
  -27.1770  -27.4790   19.9890 C   0  0  0  0  0  0  0  0  0  0  0  0
  -23.3270  -30.5220   21.4650 C   0  0  0  0  0  3  0  0  0  0  0  0
  -24.7940  -29.0230   20.0040 C   0  0  0  0  0  0  0  0  0  0  0  0
  -25.8550  -30.8860   21.2830 C   0  0  0  0  0  2  0  0  0  0  0  0
  -25.9520  -29.5280   20.6080 C   0  0  0  0  0  0  0  0  0  0  0  0
  -27.1520  -28.7670   20.5860 C   0  0  0  0  0  3  0  0  0  0  0  0
  -26.0070  -27.0050   19.3650 C   0  0  0  0  0  3  0  0  0  0  0  0
  -24.8210  -27.7690   19.3700 C   0  0  0  0  0  3  0  0  0  0  0  0
  -23.5460  -29.8790   20.0680 C   0  0  0  0  0  2  0  0  0  0  0  0
  -24.5870  -31.1130   22.0240 N   0  0  0  0  0  0  0  0  0  0  0  0
  -23.4350  -32.1350   23.6920 O   0  0  0  0  0  0  0  0  0  0  0  0
  -22.6770  -29.4720   22.4010 C   0  0  0  0  0  0  0  0  0  0  0  0
  -21.3480  -29.3120   22.2950 N   0  0  0  0  0  0  0  0  0  0  0  0
  -23.3680  -28.8090   23.1780 O   0  0  0  0  0  0  0  0  0  0  0  0
  -20.8510  -29.9100   21.6500 H   0  0  0  0  0  0  0  0  0  0  0  0
  -17.9650  -28.1550   22.8340 C   0  0  0  0  0  0  0  0  0  0  0  0
  -20.5340  -28.3500   23.0410 C   0  0  0  0  0  3  0  0  0  0  0  0
  -20.5900  -26.9470   22.3940 C   0  0  0  0  0  2  0  0  0  0  0  0
  -19.4530  -26.6920   21.4000 C   0  0  0  0  0  2  0  0  0  0  0  0
  -18.0930  -26.8360   22.0910 C   0  0  0  0  0  2  0  0  0  0  0  0
  -19.1100  -28.8740   23.2660 C   0  0  0  0  0  0  0  0  0  0  0  0
  -18.9350  -30.1130   23.9210 C   0  0  0  0  0  3  0  0  0  0  0  0
  -17.6450  -30.6270   24.1530 C   0  0  0  0  0  3  0  0  0  0  0  0
  -16.5160  -29.9030   23.7380 C   0  0  0  0  0  3  0  0  0  0  0  0
  -16.6750  -28.6710   23.0800 C   0  0  0  0  0  3  0  0  0  0  0  0
  -25.7970  -32.5140   23.7850 C   0  0  0  0  0  3  0  0  0  0  0  0
  -26.3030  -31.7320   25.0600 C   0  0  1  0  0  0  0  0  0  0  0  0
  -25.1980  -31.4900   26.1170 C   0  0  0  0  0  1  0  0  0  0  0  0
  -26.8860  -30.3600   24.6530 C   0  0  0  0  0  1  0  0  0  0  0  0
  -27.4510  -32.5150   25.7360 C   0  0  0  0  0  1  0  0  0  0  0  0
  -25.4880  -33.9090   24.1280 N   0  0  0  0  0  0  0  0  0  0  0  0
  -25.8380  -34.9680   23.3870 C   0  0  0  0  0  0  0  0  0  0  0  0
  -26.5220  -34.8780   22.3640 O   0  0  0  0  0  0  0  0  0  0  0  0
  -24.8850  -34.0550   24.9240 H   0  0  0  0  0  0  0  0  0  0  0  0
  -24.1340  -36.7770   23.0180 C   0  0  0  0  0  1  0  0  0  0  0  0
  -25.3490  -36.3510   23.8560 C   0  0  0  0  0  3  0  0  0  0  0  0
  -27.4650  -37.2070   24.7610 C   0  0  0  0  0  1  0  0  0  0  0  0
  -26.3900  -37.3990   23.7910 N   0  0  0  0  0  0  0  0  0  0  0  0
  -25.9860  -38.3190   23.9470 H   0  0  0  0  0  0  0  0  0  0  0  0
  1  5  1  0
  2  1  2  0
  3  7  1  0
  3  5  1  0
  5  4  1  0
  6  2  1  0
  6  3  1  0
  7  9  1  0
  8  6  1  0
 10 18  1  0
 11 16  1  0
 12 13  1  0
 12 11  1  0
 14 13  1  0
 14 23  1  0
 14 15  1  0
 16 10  1  0
 16 15  1  0
 17 10  2  0
 18 19  1  0
 18  2  1  0
 20 21  2  0
 21 40  1  0
 22 21  1  0
 22 25  1  0
 23 20  1  0
 23 24  1  0
 24 22  2  0
 25 26  1  0
 26 27  2  0
 28 31  1  0
 28 27  1  0
 29 28  2  0
 30 29  1  0
 30 25  2  0
 31 32  1  0
 32 33  1  0
 33 34  2  0
 35 34  1  0
 35 39  1  0
 36 35  2  0
 37 32  2  0
 37 36  1  0
 38 37  1  0
 40 41  1  0
 41 44  1  0
 41 43  1  0
 42 40  2  0
 45 46  1  0
 45 20  1  0
 47 45  1  0
 49 48  1  0
 49 50  1  0
 49  7  1  0
 51 52  2  0
 51 50  1  0
 53 52  1  0
 54 65  2  0
 55 53  1  0
 55 60  1  0
 56 64  1  0
 56 66  1  0
 57 63  1  0
 57 59  1  0
 58 64  1  0
 59 58  1  0
 60 59  2  0
 61 62  1  0
 61 55  2  0
 62 57  2  0
 63 56  1  0
 64 54  1  0
 66 68  2  0
 67 66  1  0
 69 67  1  0
 70 79  2  0
 70 75  1  0
 71 67  1  0
 71 75  1  0
 72 71  1  0
 73 74  1  0
 73 72  1  0
 74 70  1  0
 75 76  2  0
 76 77  1  0
 78 77  2  0
 79 78  1  0
 80 54  1  0
 80 85  1  0
 80 81  1  0
 81 84  1  1
 81 82  1  0
 83 81  1  0
 85 88  1  0
 86 90  1  0
 86 85  1  0
 87 86  2  0
 90 89  1  0
 92 90  1  0
 92 93  1  0
 92 91  1  0
M  ISO  4  10 100  18 100  52 101  53 101
M  END
>  <TORSDO>  (78) 
F 20

>  <SCORE>  (78) 
-13.547

>  <name>  (78) 
77

>  <ligand_id>  (78) 
77

>  <original_smiles>  (78) 
[H]c1c([H])c([H])c2c(c1[H])C([H])([H])C([H])([H])C([H])([H])C2([H])N([H])C(=O)C1([H])N(C(=O)C([H])(N([H])C(=O)C([H])(N([H])C([H])([H])[H])C([H])([H])[H])C(C([H])([H])[H])(C([H])([H])[H])C([H])([H])[H])C([H])([H])c2c([H])c(OC([H])([H])C([H])([H])C([H])([H])C([H])(N([H])c3n(C([H])([H])[H])c([H])c(N([H])C(=O)N4C([H])([H])C([H])([H])C([H])([H])C([H])(n5nc(-c6c([H])c([H])c(Oc7c([H])c([H])c(F)c([H])c7F)c([H])c6[H])c(C(=O)N([H])[H])c5N([H])[H])C4([H])[H])[n+]3[H])C([H])([H])[H])c([H])c([H])c2C1([H])[H]

>  <smiles>  (78) 
[H]c1c([H])c([H])c2c(c1[H])C([H])([H])C([H])([H])C([H])([H])C2([H])N([H])C(=O)C1([H])N(C(=O)C([H])(N([H])C(=O)C([H])(N([H])C([H])([H])[H])C([H])([H])[H])C(C([H])([H])[H])(C([H])([H])[H])C([H])([H])[H])C([H])([H])c2c([H])c(OC([H])([H])C([H])([H])C([H])([H])C([H])(N([H])c3n(C([H])([H])[H])c([H])c(N([H])C(=O)N4C([H])([H])C([H])([H])C([H])([H])C([H])(n5nc(-c6c([H])c([H])c(Oc7c([H])c([H])c(F)c([H])c7F)c([H])c6[H])c(C(=O)N([H])[H])c5N([H])[H])C4([H])[H])[n+]3[H])C([H])([H])[H])c([H])c([H])c2C1([H])[H]

$$$$
78:0:0
     RDKit          3D

 92100  0  0  1  0  0  0  0  0999 V2000
  -28.6830  -22.8490   20.6820 C   0  0  0  0  0  2  0  0  0  0  0  0
  -28.9010  -18.3140   21.0040 C   0  0  0  0  0  3  0  0  0  0  0  0
  -30.2430  -18.0200   20.9180 C   0  0  0  0  0  0  0  0  0  0  0  0
  -29.6730  -20.4140   20.5550 C   0  0  0  0  0  0  0  0  0  0  0  0
  -28.5920  -19.6750   20.8110 N   0  0  0  0  0  0  0  0  0  0  0  0
  -29.6660  -21.8000   20.3970 N   0  0  0  0  0  0  0  0  0  0  0  0
  -31.1550  -19.4630   20.5020 S   0  0  0  0  0  0  0  0  0  0  0  0
  -30.5830  -22.1990   20.2110 H   0  0  0  0  0  0  0  0  0  0  0  0
  -30.9670  -16.7250   21.2220 C   0  0  0  0  0  2  0  0  0  0  0  0
  -30.8560  -14.4810   20.1120 C   0  0  0  0  0  0  0  0  0  0  0  0
  -30.4580  -12.3380   18.9490 C   0  0  0  0  0  2  0  0  0  0  0  0
  -29.4750  -12.5460   17.7800 C   0  0  0  0  0  2  0  0  0  0  0  0
  -28.0180  -12.4240   18.2670 C   0  0  0  0  0  2  0  0  0  0  0  0
  -27.7390  -13.2720   19.5370 C   0  0  0  0  0  3  0  0  0  0  0  0
  -28.8310  -13.0480   20.6070 C   0  0  0  0  0  2  0  0  0  0  0  0
  -30.1370  -13.3320   19.9870 N   0  0  0  0  0  0  0  0  0  0  0  0
  -31.9390  -14.6470   19.5450 O   0  0  0  0  0  0  0  0  0  0  0  0
  -30.2960  -15.4680   20.8390 N   0  0  0  0  0  0  0  0  0  0  0  0
  -29.4010  -15.2670   21.2590 H   0  0  0  0  0  0  0  0  0  0  0  0
  -25.3790  -13.9110   20.3400 C   0  0  0  0  0  0  0  0  0  0  0  0
  -24.3140  -13.1530   20.7470 C   0  0  0  0  0  0  0  0  0  0  0  0
  -24.7520  -11.7950   20.6920 C   0  0  0  0  0  0  0  0  0  0  0  0
  -26.4010  -13.0160   20.0660 N   0  0  0  0  0  0  0  0  0  0  0  0
  -26.0290  -11.7370   20.3350 N   0  0  0  0  0  0  0  0  0  0  0  0
  -24.0140  -10.5440   20.9050 C   0  0  0  0  0  0  0  0  0  0  0  0
  -24.4460   -9.5810   21.8450 C   0  0  0  0  0  3  0  0  0  0  0  0
  -23.7090   -8.3930   22.0440 C   0  0  0  0  0  3  0  0  0  0  0  0
  -22.5260   -8.1600   21.3030 C   0  0  0  0  0  0  0  0  0  0  0  0
  -22.1140   -9.1100   20.3540 C   0  0  0  0  0  3  0  0  0  0  0  0
  -22.8500  -10.2890   20.1520 C   0  0  0  0  0  3  0  0  0  0  0  0
  -21.7610   -7.0250   21.4120 O   0  0  0  0  0  0  0  0  0  0  0  0
  -21.6920   -6.3110   22.5820 C   0  0  0  0  0  0  0  0  0  0  0  0
  -21.2520   -6.8990   23.7880 C   0  0  0  0  0  3  0  0  0  0  0  0
  -21.1320   -6.1110   24.9510 C   0  0  0  0  0  3  0  0  0  0  0  0
  -21.4410   -4.7380   24.9080 C   0  0  0  0  0  0  0  0  0  0  0  0
  -21.8730   -4.1510   23.7060 C   0  0  0  0  0  3  0  0  0  0  0  0
  -21.9960   -4.9350   22.5460 C   0  0  0  0  0  0  0  0  0  0  0  0
  -22.3930   -4.3600   21.3860 F   0  0  0  0  0  0  0  0  0  0  0  0
  -21.3170   -3.9810   26.0230 F   0  0  0  0  0  0  0  0  0  0  0  0
  -22.9360  -13.6510   21.0750 C   0  0  0  0  0  0  0  0  0  0  0  0
  -22.2300  -12.9620   21.9650 N   0  0  0  0  0  0  0  0  0  0  0  0
  -22.4950  -14.6870   20.5780 O   0  0  0  0  0  0  0  0  0  0  0  0
  -22.6000  -12.1240   22.3890 H   0  0  0  0  0  0  0  0  0  0  0  0
  -21.3070  -13.2770   22.2260 H   0  0  0  0  0  0  0  0  0  0  0  0
  -25.5600  -15.2800   20.1610 N   0  0  0  0  0  0  0  0  0  0  0  0
  -24.8050  -15.9450   20.2900 H   0  0  0  0  0  0  0  0  0  0  0  0
  -26.3980  -15.7000   19.7810 H   0  0  0  0  0  0  0  0  0  0  0  0
  -29.1520  -24.2690   20.2460 C   0  0  0  0  0  3  0  0  0  0  0  0
  -30.4650  -24.4350   20.7640 O   0  0  0  0  0  0  0  0  0  0  0  0
  -30.4100  -24.3400   21.7090 H   0  0  0  0  0  0  0  0  0  0  0  0
  -28.2260  -25.3930   20.8020 C   0  0  0  0  0  2  0  0  0  0  0  0
  -28.4150  -26.6920   20.1960 O   0  0  0  0  0  0  0  0  0  0  0  0
  -24.5970  -31.8740   23.2830 C   0  0  0  0  0  0  0  0  0  0  0  0
  -27.2780  -27.4730   20.1710 C   0  0  0  0  0  0  0  0  0  0  0  0
  -23.4200  -30.5130   21.5860 C   0  0  0  0  0  3  0  0  0  0  0  0
  -24.8960  -29.0010   20.1570 C   0  0  0  0  0  0  0  0  0  0  0  0
  -25.9510  -30.8620   21.4500 C   0  0  0  0  0  2  0  0  0  0  0  0
  -26.0460  -29.5050   20.7810 C   0  0  0  0  0  0  0  0  0  0  0  0
  -27.2430  -28.7500   20.7820 C   0  0  0  0  0  3  0  0  0  0  0  0
  -26.1160  -26.9950   19.5280 C   0  0  0  0  0  3  0  0  0  0  0  0
  -24.9270  -27.7460   19.5250 C   0  0  0  0  0  3  0  0  0  0  0  0
  -23.6550  -29.8640   20.1970 C   0  0  0  0  0  2  0  0  0  0  0  0
  -24.6730  -31.0970   22.1650 N   0  0  0  0  0  0  0  0  0  0  0  0
  -23.5060  -32.1410   23.8050 O   0  0  0  0  0  0  0  0  0  0  0  0
  -22.7430  -29.4750   22.5110 C   0  0  0  0  0  0  0  0  0  0  0  0
  -21.4220  -29.3000   22.3500 N   0  0  0  0  0  0  0  0  0  0  0  0
  -23.4060  -28.8320   23.3280 O   0  0  0  0  0  0  0  0  0  0  0  0
  -20.9480  -29.8710   21.6650 H   0  0  0  0  0  0  0  0  0  0  0  0
  -18.0340  -28.1010   22.7380 C   0  0  0  0  0  0  0  0  0  0  0  0
  -20.5840  -28.3500   23.0820 C   0  0  0  0  0  3  0  0  0  0  0  0
  -20.7000  -26.9290   22.4850 C   0  0  0  0  0  2  0  0  0  0  0  0
  -19.6260  -26.6250   21.4360 C   0  0  0  0  0  2  0  0  0  0  0  0
  -18.2280  -26.7630   22.0450 C   0  0  0  0  0  2  0  0  0  0  0  0
  -19.1410  -28.8540   23.2110 C   0  0  0  0  0  0  0  0  0  0  0  0
  -18.9090  -30.1080   23.8160 C   0  0  0  0  0  3  0  0  0  0  0  0
  -17.6010  -30.6080   23.9540 C   0  0  0  0  0  3  0  0  0  0  0  0
  -16.5080  -29.8520   23.4990 C   0  0  0  0  0  3  0  0  0  0  0  0
  -16.7240  -28.6000   22.8960 C   0  0  0  0  0  3  0  0  0  0  0  0
  -25.8730  -32.4860   23.9420 C   0  0  0  0  0  3  0  0  0  0  0  0
  -25.5690  -33.8820   24.2830 N   0  0  0  0  0  0  0  0  0  0  0  0
  -25.9370  -34.9400   23.5490 C   0  0  0  0  0  0  0  0  0  0  0  0
  -26.6390  -34.8440   22.5380 O   0  0  0  0  0  0  0  0  0  0  0  0
  -24.9520  -34.0320   25.0670 H   0  0  0  0  0  0  0  0  0  0  0  0
  -24.2410  -36.7560   23.1610 C   0  0  0  0  0  1  0  0  0  0  0  0
  -25.4500  -36.3270   24.0090 C   0  0  0  0  0  3  0  0  0  0  0  0
  -27.5640  -37.1760   24.9230 C   0  0  0  0  0  1  0  0  0  0  0  0
  -26.4960  -37.3700   23.9460 N   0  0  0  0  0  0  0  0  0  0  0  0
  -26.0960  -38.2920   24.0930 H   0  0  0  0  0  0  0  0  0  0  0  0
  -26.3540  -31.6920   25.2180 C   0  0  1  0  0  0  0  0  0  0  0  0
  -25.2350  -31.4440   26.2560 C   0  0  0  0  0  1  0  0  0  0  0  0
  -26.9390  -30.3170   24.8160 C   0  0  0  0  0  1  0  0  0  0  0  0
  -27.4940  -32.4680   25.9190 C   0  0  0  0  0  1  0  0  0  0  0  0
  3  2  2  0
  3  9  1  0
  4  5  2  0
  5  2  1  0
  6  4  1  0
  6  1  1  0
  7  4  1  0
  7  3  1  0
  8  6  1  0
 10 18  1  0
 11 16  1  0
 12 13  1  0
 12 11  1  0
 14 13  1  0
 14 23  1  0
 14 15  1  0
 16 10  1  0
 16 15  1  0
 17 10  2  0
 18  9  1  0
 18 19  1  0
 20 21  2  0
 21 40  1  0
 22 21  1  0
 22 25  1  0
 23 24  1  0
 23 20  1  0
 24 22  2  0
 25 26  1  0
 26 27  2  0
 28 31  1  0
 28 27  1  0
 29 28  2  0
 30 29  1  0
 30 25  2  0
 31 32  1  0
 32 33  1  0
 33 34  2  0
 35 34  1  0
 35 39  1  0
 36 35  2  0
 37 32  2  0
 37 36  1  0
 38 37  1  0
 40 41  1  0
 41 44  1  0
 41 43  1  0
 42 40  2  0
 45 46  1  0
 45 20  1  0
 47 45  1  0
 48  1  1  0
 48 49  1  0
 48 51  1  0
 49 50  1  0
 52 51  1  0
 53 64  2  0
 54 52  1  0
 54 59  1  0
 55 63  1  0
 55 65  1  0
 56 62  1  0
 56 58  1  0
 57 63  1  0
 58 59  2  0
 58 57  1  0
 60 54  2  0
 61 60  1  0
 61 56  2  0
 62 55  1  0
 63 53  1  0
 65 67  2  0
 66 65  1  0
 68 66  1  0
 69 78  2  0
 69 74  1  0
 70 66  1  0
 70 74  1  0
 71 70  1  0
 72 73  1  0
 72 71  1  0
 73 69  1  0
 74 75  2  0
 75 76  1  0
 77 76  2  0
 78 77  1  0
 79 53  1  0
 79 80  1  0
 79 89  1  0
 80 83  1  0
 81 85  1  0
 81 80  1  0
 82 81  2  0
 85 84  1  0
 87 85  1  0
 87 88  1  0
 87 86  1  0
 89 92  1  1
 89 90  1  0
 91 89  1  0
M  ISO  4  10 100  18 100  51 101  52 101
M  END
>  <TORSDO>  (79) 
F 21

>  <SCORE>  (79) 
-13.330

>  <name>  (79) 
78

>  <ligand_id>  (79) 
78

>  <original_smiles>  (79) 
[H]OC([H])(C([H])([H])Oc1c([H])c([H])c2c(c1[H])C([H])([H])N(C(=O)C([H])(N([H])C(=O)C([H])(N([H])C([H])([H])[H])C([H])([H])[H])C(C([H])([H])[H])(C([H])([H])[H])C([H])([H])[H])C([H])(C(=O)N([H])C1([H])c3c([H])c([H])c([H])c([H])c3C([H])([H])C([H])([H])C1([H])[H])C2([H])[H])C([H])([H])N([H])c1nc([H])c(C([H])([H])N([H])C(=O)N2C([H])([H])C([H])([H])C([H])([H])C([H])(n3nc(-c4c([H])c([H])c(Oc5c([H])c([H])c(F)c([H])c5F)c([H])c4[H])c(C(=O)N([H])[H])c3N([H])[H])C2([H])[H])s1

>  <smiles>  (79) 
[H]OC([H])(C([H])([H])Oc1c([H])c([H])c2c(c1[H])C([H])([H])N(C(=O)C([H])(N([H])C(=O)C([H])(N([H])C([H])([H])[H])C([H])([H])[H])C(C([H])([H])[H])(C([H])([H])[H])C([H])([H])[H])C([H])(C(=O)N([H])C1([H])c3c([H])c([H])c([H])c([H])c3C([H])([H])C([H])([H])C1([H])[H])C2([H])[H])C([H])([H])N([H])c1nc([H])c(C([H])([H])N([H])C(=O)N2C([H])([H])C([H])([H])C([H])([H])C([H])(n3nc(-c4c([H])c([H])c(Oc5c([H])c([H])c(F)c([H])c5F)c([H])c4[H])c(C(=O)N([H])[H])c3N([H])[H])C2([H])[H])s1

$$$$
79:0:0
     RDKit          3D

 95103  0  0  1  0  0  0  0  0999 V2000
  -31.0520  -18.2400   20.5800 C   0  0  0  0  0  0  0  0  0  0  0  0
  -30.3650  -18.3830   21.7730 C   0  0  0  0  0  0  0  0  0  0  0  0
  -30.3400  -20.4500   20.4040 C   0  0  0  0  0  0  0  0  0  0  0  0
  -31.0420  -19.4490   19.8370 N   0  0  0  0  0  0  0  0  0  0  0  0
  -30.2340  -21.7460   19.8720 N   0  0  0  0  0  0  0  0  0  0  0  0
  -29.6450  -19.9730   21.9400 S   0  0  0  0  0  0  0  0  0  0  0  0
  -30.9520  -21.8630   19.1670 H   0  0  0  0  0  0  0  0  0  0  0  0
  -30.1970  -17.4810   22.8180 N   0  0  0  0  0  0  0  0  0  0  0  0
  -30.4080  -16.4930   22.7890 H   0  0  0  0  0  0  0  0  0  0  0  0
  -29.5300  -17.7110   23.5530 H   0  0  0  0  0  0  0  0  0  0  0  0
  -31.8360  -17.0310   20.0600 C   0  0  0  0  0  2  0  0  0  0  0  0
  -31.7250  -14.5760   19.6100 C   0  0  0  0  0  0  0  0  0  0  0  0
  -31.2290  -12.3090   18.7420 C   0  0  0  0  0  2  0  0  0  0  0  0
  -30.2210  -12.4690   17.5970 C   0  0  0  0  0  2  0  0  0  0  0  0
  -28.7900  -12.4030   18.1630 C   0  0  0  0  0  2  0  0  0  0  0  0
  -28.5850  -13.3530   19.3760 C   0  0  0  0  0  3  0  0  0  0  0  0
  -29.7350  -13.2250   20.4060 C   0  0  0  0  0  2  0  0  0  0  0  0
  -30.9920  -13.4260   19.6790 N   0  0  0  0  0  0  0  0  0  0  0  0
  -32.7760  -14.6300   18.9760 O   0  0  0  0  0  0  0  0  0  0  0  0
  -31.2060  -15.6930   20.1770 N   0  0  0  0  0  0  0  0  0  0  0  0
  -30.3540  -15.6290   20.7130 H   0  0  0  0  0  0  0  0  0  0  0  0
  -26.3670  -14.1130   20.4330 C   0  0  0  0  0  0  0  0  0  0  0  0
  -25.2690  -13.4160   20.8570 C   0  0  0  0  0  0  0  0  0  0  0  0
  -25.5630  -12.0360   20.6300 C   0  0  0  0  0  0  0  0  0  0  0  0
  -27.2690  -13.1610   19.9820 N   0  0  0  0  0  0  0  0  0  0  0  0
  -26.7970  -11.8990   20.1590 N   0  0  0  0  0  0  0  0  0  0  0  0
  -24.7210  -10.8400   20.7800 C   0  0  0  0  0  0  0  0  0  0  0  0
  -25.0600   -9.8010   21.6760 C   0  0  0  0  0  3  0  0  0  0  0  0
  -24.2210   -8.6760   21.8210 C   0  0  0  0  0  3  0  0  0  0  0  0
  -23.0270   -8.5800   21.0680 C   0  0  0  0  0  0  0  0  0  0  0  0
  -22.7050   -9.6040   20.1610 C   0  0  0  0  0  3  0  0  0  0  0  0
  -23.5430  -10.7210   20.0120 C   0  0  0  0  0  3  0  0  0  0  0  0
  -22.1650   -7.5120   21.1270 O   0  0  0  0  0  0  0  0  0  0  0  0
  -21.9380   -6.8320   22.2960 C   0  0  0  0  0  0  0  0  0  0  0  0
  -21.3950   -7.4690   23.4340 C   0  0  0  0  0  3  0  0  0  0  0  0
  -21.1080   -6.7200   24.5910 C   0  0  0  0  0  3  0  0  0  0  0  0
  -21.3570   -5.3340   24.6150 C   0  0  0  0  0  0  0  0  0  0  0  0
  -21.8930   -4.6960   23.4810 C   0  0  0  0  0  3  0  0  0  0  0  0
  -22.1780   -5.4440   22.3250 C   0  0  0  0  0  0  0  0  0  0  0  0
  -22.6740   -4.8180   21.2290 F   0  0  0  0  0  0  0  0  0  0  0  0
  -21.0770   -4.6120   25.7260 F   0  0  0  0  0  0  0  0  0  0  0  0
  -23.9780  -13.9950   21.3610 C   0  0  0  0  0  0  0  0  0  0  0  0
  -23.3000  -13.2840   22.2540 N   0  0  0  0  0  0  0  0  0  0  0  0
  -23.5930  -15.1040   21.0000 O   0  0  0  0  0  0  0  0  0  0  0  0
  -23.6260  -12.3770   22.5500 H   0  0  0  0  0  0  0  0  0  0  0  0
  -22.4440  -13.6490   22.6440 H   0  0  0  0  0  0  0  0  0  0  0  0
  -26.6710  -15.4710   20.3750 N   0  0  0  0  0  0  0  0  0  0  0  0
  -26.0130  -16.1920   20.6500 H   0  0  0  0  0  0  0  0  0  0  0  0
  -27.5210  -15.8550   19.9800 H   0  0  0  0  0  0  0  0  0  0  0  0
  -29.8100  -23.0690   20.3980 C   0  0  0  0  0  2  0  0  0  0  0  0
  -29.6010  -24.1950   19.3130 C   0  0  0  0  0  3  0  0  0  0  0  0
  -30.7780  -24.1790   18.5200 O   0  0  0  0  0  0  0  0  0  0  0  0
  -30.6970  -23.4290   17.9430 H   0  0  0  0  0  0  0  0  0  0  0  0
  -29.4010  -25.6250   19.9310 C   0  0  0  0  0  2  0  0  0  0  0  0
  -29.0750  -26.7000   19.0120 O   0  0  0  0  0  0  0  0  0  0  0  0
  -24.7810  -30.9140   22.9060 C   0  0  0  0  0  0  0  0  0  0  0  0
  -27.8370  -27.2900   19.1810 C   0  0  0  0  0  0  0  0  0  0  0  0
  -23.6940  -29.5710   21.1420 C   0  0  0  0  0  3  0  0  0  0  0  0
  -25.2630  -28.4470   19.4710 C   0  0  0  0  0  0  0  0  0  0  0  0
  -26.1320  -30.3080   20.8960 C   0  0  0  0  0  2  0  0  0  0  0  0
  -26.3720  -29.0550   20.0760 C   0  0  0  0  0  0  0  0  0  0  0  0
  -27.6640  -28.4900   19.9200 C   0  0  0  0  0  3  0  0  0  0  0  0
  -26.7070  -26.7060   18.5700 C   0  0  0  0  0  3  0  0  0  0  0  0
  -25.4270  -27.2760   18.7100 C   0  0  0  0  0  3  0  0  0  0  0  0
  -23.9170  -29.1080   19.6760 C   0  0  0  0  0  2  0  0  0  0  0  0
  -24.8920  -30.2740   21.7070 N   0  0  0  0  0  0  0  0  0  0  0  0
  -23.7000  -30.9600   23.5140 O   0  0  0  0  0  0  0  0  0  0  0  0
  -23.2510  -28.3490   21.9790 C   0  0  0  0  0  0  0  0  0  0  0  0
  -21.9800  -27.9510   21.8150 N   0  0  0  0  0  0  0  0  0  0  0  0
  -24.0390  -27.7710   22.7340 O   0  0  0  0  0  0  0  0  0  0  0  0
  -21.3840  -28.5300   21.2330 H   0  0  0  0  0  0  0  0  0  0  0  0
  -18.9340  -26.0110   21.9710 C   0  0  0  0  0  0  0  0  0  0  0  0
  -21.3510  -26.7920   22.4500 C   0  0  0  0  0  3  0  0  0  0  0  0
  -21.8060  -25.4710   21.7830 C   0  0  0  0  0  2  0  0  0  0  0  0
  -20.8550  -24.9990   20.6790 C   0  0  0  0  0  2  0  0  0  0  0  0
  -19.4350  -24.7930   21.2220 C   0  0  0  0  0  2  0  0  0  0  0  0
  -19.8330  -26.9530   22.5410 C   0  0  0  0  0  0  0  0  0  0  0  0
  -19.3110  -28.0720   23.2190 C   0  0  0  0  0  3  0  0  0  0  0  0
  -17.9220  -28.2720   23.3200 C   0  0  0  0  0  3  0  0  0  0  0  0
  -17.0370  -27.3420   22.7480 C   0  0  0  0  0  3  0  0  0  0  0  0
  -17.5430  -26.2060   22.0890 C   0  0  0  0  0  3  0  0  0  0  0  0
  -25.9980  -31.6420   23.5520 C   0  0  0  0  0  3  0  0  0  0  0  0
  -25.5420  -32.9680   23.9820 N   0  0  0  0  0  0  0  0  0  0  0  0
  -25.7760  -34.1060   23.3160 C   0  0  0  0  0  0  0  0  0  0  0  0
  -26.4750  -34.1520   22.2980 O   0  0  0  0  0  0  0  0  0  0  0  0
  -24.9200  -32.9960   24.7770 H   0  0  0  0  0  0  0  0  0  0  0  0
  -23.8840  -35.7400   23.0520 C   0  0  0  0  0  1  0  0  0  0  0  0
  -25.1400  -35.3940   23.8690 C   0  0  0  0  0  3  0  0  0  0  0  0
  -27.1440  -36.4220   24.8460 C   0  0  0  0  0  1  0  0  0  0  0  0
  -26.0610  -36.5530   23.8770 N   0  0  0  0  0  0  0  0  0  0  0  0
  -25.5550  -37.4100   24.0850 H   0  0  0  0  0  0  0  0  0  0  0  0
  -26.6260  -30.8430   24.7610 C   0  0  1  0  0  0  0  0  0  0  0  0
  -25.5880  -30.4150   25.8250 C   0  0  0  0  0  1  0  0  0  0  0  0
  -27.3460  -29.5690   24.2590 C   0  0  0  0  0  1  0  0  0  0  0  0
  -27.6980  -31.7080   25.4620 C   0  0  0  0  0  1  0  0  0  0  0  0
  1  2  2  0
  2  6  1  0
  2  8  1  0
  3  6  1  0
  4  3  2  0
  4  1  1  0
  5 50  1  0
  5  3  1  0
  7  5  1  0
  8 10  1  0
  9  8  1  0
 11 20  1  0
 11  1  1  0
 12 18  1  0
 12 20  1  0
 13 18  1  0
 14 15  1  0
 14 13  1  0
 16 15  1  0
 16 25  1  0
 16 17  1  0
 18 17  1  0
 19 12  2  0
 20 21  1  0
 22 23  2  0
 23 42  1  0
 24 27  1  0
 24 23  1  0
 25 26  1  0
 25 22  1  0
 26 24  2  0
 27 28  1  0
 28 29  2  0
 30 33  1  0
 30 29  1  0
 31 30  2  0
 32 31  1  0
 32 27  2  0
 33 34  1  0
 34 39  2  0
 34 35  1  0
 35 36  2  0
 36 37  1  0
 37 41  1  0
 38 37  2  0
 39 38  1  0
 40 39  1  0
 42 43  1  0
 43 45  1  0
 43 46  1  0
 44 42  2  0
 47 22  1  0
 47 48  1  0
 49 47  1  0
 51 54  1  0
 51 50  1  0
 52 51  1  0
 53 52  1  0
 55 57  1  0
 55 54  1  0
 56 67  2  0
 57 62  1  0
 58 66  1  0
 58 68  1  0
 59 65  1  0
 59 61  1  0
 60 66  1  0
 61 60  1  0
 62 61  2  0
 63 64  1  0
 63 57  2  0
 64 59  2  0
 65 58  1  0
 66 56  1  0
 68 70  2  0
 69 68  1  0
 71 69  1  0
 72 81  2  0
 72 77  1  0
 73 69  1  0
 73 77  1  0
 74 73  1  0
 75 76  1  0
 75 74  1  0
 76 72  1  0
 77 78  2  0
 78 79  1  0
 80 79  2  0
 81 80  1  0
 82 56  1  0
 82 83  1  0
 82 92  1  0
 83 86  1  0
 84 88  1  0
 84 83  1  0
 85 84  2  0
 88 87  1  0
 88 90  1  0
 90 91  1  0
 90 89  1  0
 92 95  1  1
 92 93  1  0
 94 92  1  0
M  ISO  4  12 100  20 100  54 101  55 101
M  END
>  <TORSDO>  (80) 
F 22

>  <SCORE>  (80) 
-8.854

>  <name>  (80) 
79

>  <ligand_id>  (80) 
79

>  <original_smiles>  (80) 
[H]OC([H])(C([H])([H])Oc1c([H])c([H])c2c(c1[H])C([H])([H])N(C(=O)C([H])(N([H])C(=O)C([H])(N([H])C([H])([H])[H])C([H])([H])[H])C(C([H])([H])[H])(C([H])([H])[H])C([H])([H])[H])C([H])(C(=O)N([H])C1([H])c3c([H])c([H])c([H])c([H])c3C([H])([H])C([H])([H])C1([H])[H])C2([H])[H])C([H])([H])N([H])c1nc(C([H])([H])N([H])C(=O)N2C([H])([H])C([H])([H])C([H])([H])C([H])(n3nc(-c4c([H])c([H])c(Oc5c([H])c([H])c(F)c([H])c5F)c([H])c4[H])c(C(=O)N([H])[H])c3N([H])[H])C2([H])[H])c(N([H])[H])s1

>  <smiles>  (80) 
[H]OC([H])(C([H])([H])Oc1c([H])c([H])c2c(c1[H])C([H])([H])N(C(=O)C([H])(N([H])C(=O)C([H])(N([H])C([H])([H])[H])C([H])([H])[H])C(C([H])([H])[H])(C([H])([H])[H])C([H])([H])[H])C([H])(C(=O)N([H])C1([H])c3c([H])c([H])c([H])c([H])c3C([H])([H])C([H])([H])C1([H])[H])C2([H])[H])C([H])([H])N([H])c1nc(C([H])([H])N([H])C(=O)N2C([H])([H])C([H])([H])C([H])([H])C([H])(n3nc(-c4c([H])c([H])c(Oc5c([H])c([H])c(F)c([H])c5F)c([H])c4[H])c(C(=O)N([H])[H])c3N([H])[H])C2([H])[H])c(N([H])[H])s1

$$$$
80:0:0
     RDKit          3D

 97105  0  0  1  0  0  0  0  0999 V2000
  -28.4470  -19.4260   21.1470 C   0  0  0  0  0  3  0  0  0  0  0  0
  -30.2630  -18.1960   20.4270 C   0  0  0  0  0  0  0  0  0  0  0  0
  -29.2620  -20.5780   21.2900 C   0  0  0  0  0  0  0  0  0  0  0  0
  -31.0940  -19.3410   20.6210 C   0  0  0  0  0  0  0  0  0  0  0  0
  -28.9390  -18.2340   20.7200 N   0  0  0  0  0  0  0  0  0  0  0  0
  -30.5940  -20.5150   21.0520 N   0  0  0  0  0  0  0  0  0  0  0  0
  -32.4570  -19.3650   20.3410 N   0  0  0  0  0  0  0  0  0  0  0  0
  -32.9730  -18.5020   20.2230 H   0  0  0  0  0  0  0  0  0  0  0  0
  -33.0140  -20.1490   20.6580 H   0  0  0  0  0  0  0  0  0  0  0  0
  -30.4080  -17.1110   18.1800 C   0  0  0  0  0  1  0  0  0  0  0  0
  -30.7570  -16.9590   19.6760 C   0  0  0  0  0  3  0  0  0  0  0  0
  -30.9890  -14.5390   20.0300 C   0  0  0  0  0  0  0  0  0  0  0  0
  -30.6840  -12.2480   19.2230 C   0  0  0  0  0  2  0  0  0  0  0  0
  -29.7290  -12.2830   18.0140 C   0  0  0  0  0  2  0  0  0  0  0  0
  -28.2660  -12.1720   18.4840 C   0  0  0  0  0  2  0  0  0  0  0  0
  -27.9250  -13.1620   19.6320 C   0  0  0  0  0  3  0  0  0  0  0  0
  -29.0050  -13.1490   20.7380 C   0  0  0  0  0  2  0  0  0  0  0  0
  -30.3110  -13.3670   20.1010 N   0  0  0  0  0  0  0  0  0  0  0  0
  -32.1430  -14.6090   19.6010 O   0  0  0  0  0  0  0  0  0  0  0  0
  -30.2700  -15.6640   20.1860 N   0  0  0  0  0  0  0  0  0  0  0  0
  -29.3120  -15.6060   20.4990 H   0  0  0  0  0  0  0  0  0  0  0  0
  -25.5860  -13.8110   20.4810 C   0  0  0  0  0  0  0  0  0  0  0  0
  -24.5170  -13.0580   20.8810 C   0  0  0  0  0  0  0  0  0  0  0  0
  -24.9380  -11.6950   20.7970 C   0  0  0  0  0  0  0  0  0  0  0  0
  -26.5930  -12.9090   20.1760 N   0  0  0  0  0  0  0  0  0  0  0  0
  -26.2100  -11.6300   20.4240 N   0  0  0  0  0  0  0  0  0  0  0  0
  -24.1880  -10.4470   20.9910 C   0  0  0  0  0  0  0  0  0  0  0  0
  -24.6020   -9.4750   21.9290 C   0  0  0  0  0  3  0  0  0  0  0  0
  -23.8540   -8.2930   22.1120 C   0  0  0  0  0  3  0  0  0  0  0  0
  -22.6760   -8.0740   21.3580 C   0  0  0  0  0  0  0  0  0  0  0  0
  -22.2810   -9.0350   20.4100 C   0  0  0  0  0  3  0  0  0  0  0  0
  -23.0300  -10.2090   20.2250 C   0  0  0  0  0  3  0  0  0  0  0  0
  -21.9000   -6.9450   21.4490 O   0  0  0  0  0  0  0  0  0  0  0  0
  -21.8040   -6.2290   22.6160 C   0  0  0  0  0  0  0  0  0  0  0  0
  -21.3300   -6.8150   23.8110 C   0  0  0  0  0  3  0  0  0  0  0  0
  -21.1820   -6.0260   24.9700 C   0  0  0  0  0  3  0  0  0  0  0  0
  -21.4960   -4.6540   24.9340 C   0  0  0  0  0  0  0  0  0  0  0  0
  -21.9630   -4.0690   23.7440 C   0  0  0  0  0  3  0  0  0  0  0  0
  -22.1130   -4.8550   22.5870 C   0  0  0  0  0  0  0  0  0  0  0  0
  -22.5420   -4.2820   21.4370 F   0  0  0  0  0  0  0  0  0  0  0  0
  -21.3470   -3.8940   26.0450 F   0  0  0  0  0  0  0  0  0  0  0  0
  -23.1480  -13.5650   21.2370 C   0  0  0  0  0  0  0  0  0  0  0  0
  -22.4480  -12.8700   22.1260 N   0  0  0  0  0  0  0  0  0  0  0  0
  -22.7110  -14.6110   20.7600 O   0  0  0  0  0  0  0  0  0  0  0  0
  -22.8140  -12.0220   22.5330 H   0  0  0  0  0  0  0  0  0  0  0  0
  -21.5310  -13.1900   22.4030 H   0  0  0  0  0  0  0  0  0  0  0  0
  -25.7800  -15.1800   20.3280 N   0  0  0  0  0  0  0  0  0  0  0  0
  -25.0410  -15.8530   20.4980 H   0  0  0  0  0  0  0  0  0  0  0  0
  -26.6320  -15.6090   19.9880 H   0  0  0  0  0  0  0  0  0  0  0  0
  -28.7090  -21.8230   21.6430 N   0  0  0  0  0  0  0  0  0  0  0  0
  -27.7480  -21.8210   21.9740 H   0  0  0  0  0  0  0  0  0  0  0  0
  -30.1690  -22.6710   23.4290 C   0  0  0  0  0  1  0  0  0  0  0  0
  -29.5750  -22.9360   22.0360 C   0  0  0  0  0  3  0  0  0  0  0  0
  -28.8480  -24.2960   22.0060 C   0  0  0  0  0  2  0  0  0  0  0  0
  -28.5660  -24.8760   20.6020 C   0  0  0  0  0  2  0  0  0  0  0  0
  -28.5880  -26.4210   20.6020 C   0  0  0  0  0  2  0  0  0  0  0  0
  -28.1660  -26.9710   19.3500 O   0  0  0  0  0  0  0  0  0  0  0  0
  -24.5380  -31.7700   23.1260 C   0  0  0  0  0  0  0  0  0  0  0  0
  -27.0230  -27.7200   19.4620 C   0  0  0  0  0  0  0  0  0  0  0  0
  -23.2430  -30.5170   21.4290 C   0  0  0  0  0  3  0  0  0  0  0  0
  -24.6190  -29.1590   19.7620 C   0  0  0  0  0  0  0  0  0  0  0  0
  -25.7420  -30.9470   21.1080 C   0  0  0  0  0  2  0  0  0  0  0  0
  -25.8020  -29.6490   20.3310 C   0  0  0  0  0  0  0  0  0  0  0  0
  -27.0100  -28.9350   20.1830 C   0  0  0  0  0  3  0  0  0  0  0  0
  -25.8340  -27.2440   18.8800 C   0  0  0  0  0  3  0  0  0  0  0  0
  -24.6270  -27.9550   19.0350 C   0  0  0  0  0  3  0  0  0  0  0  0
  -23.3680  -29.9790   19.9770 C   0  0  0  0  0  2  0  0  0  0  0  0
  -24.5290  -31.0860   21.9470 N   0  0  0  0  0  0  0  0  0  0  0  0
  -23.4910  -31.9690   23.7580 O   0  0  0  0  0  0  0  0  0  0  0  0
  -22.6680  -29.3940   22.3220 C   0  0  0  0  0  0  0  0  0  0  0  0
  -21.3480  -29.1700   22.2240 N   0  0  0  0  0  0  0  0  0  0  0  0
  -23.4050  -28.7310   23.0580 O   0  0  0  0  0  0  0  0  0  0  0  0
  -20.8130  -29.7600   21.6020 H   0  0  0  0  0  0  0  0  0  0  0  0
  -18.0590  -27.7380   22.6470 C   0  0  0  0  0  0  0  0  0  0  0  0
  -20.5940  -28.1390   22.9380 C   0  0  0  0  0  3  0  0  0  0  0  0
  -20.7880  -26.7530   22.2820 C   0  0  0  0  0  2  0  0  0  0  0  0
  -19.7060  -26.4190   21.2490 C   0  0  0  0  0  2  0  0  0  0  0  0
  -18.3190  -26.4420   21.8960 C   0  0  0  0  0  2  0  0  0  0  0  0
  -19.1280  -28.5420   23.1210 C   0  0  0  0  0  0  0  0  0  0  0  0
  -18.8310  -29.7550   23.7800 C   0  0  0  0  0  3  0  0  0  0  0  0
  -17.4970  -30.1650   23.9690 C   0  0  0  0  0  3  0  0  0  0  0  0
  -16.4430  -29.3550   23.5130 C   0  0  0  0  0  3  0  0  0  0  0  0
  -16.7240  -28.1440   22.8570 C   0  0  0  0  0  3  0  0  0  0  0  0
  -25.8560  -32.3580   23.7210 C   0  0  0  0  0  3  0  0  0  0  0  0
  -25.5650  -33.7220   24.1780 N   0  0  0  0  0  0  0  0  0  0  0  0
  -25.8530  -34.8330   23.4850 C   0  0  0  0  0  0  0  0  0  0  0  0
  -26.4650  -34.8140   22.4140 O   0  0  0  0  0  0  0  0  0  0  0  0
  -25.0170  -33.8120   25.0200 H   0  0  0  0  0  0  0  0  0  0  0  0
  -24.0970  -36.6290   23.3740 C   0  0  0  0  0  1  0  0  0  0  0  0
  -25.3870  -36.1780   24.0760 C   0  0  0  0  0  3  0  0  0  0  0  0
  -27.5620  -37.0200   24.8440 C   0  0  0  0  0  1  0  0  0  0  0  0
  -26.4060  -37.2460   23.9800 N   0  0  0  0  0  0  0  0  0  0  0  0
  -26.0050  -38.1490   24.2190 H   0  0  0  0  0  0  0  0  0  0  0  0
  -26.4480  -31.4890   24.8990 C   0  0  1  0  0  0  0  0  0  0  0  0
  -25.4220  -31.1710   26.0110 C   0  0  0  0  0  1  0  0  0  0  0  0
  -26.9960  -30.1460   24.3630 C   0  0  0  0  0  1  0  0  0  0  0  0
  -27.6420  -32.2270   25.5470 C   0  0  0  0  0  1  0  0  0  0  0  0
  1  3  1  0
  2  4  2  0
  2  5  1  0
  3 50  1  0
  4  6  1  0
  5  1  2  0
  6  3  2  0
  7  4  1  0
  7  9  1  0
  8  7  1  0
 11 10  1  0
 11 20  1  0
 11  2  1  0
 12 18  1  0
 12 20  1  0
 13 18  1  0
 14 15  1  0
 14 13  1  0
 16 15  1  0
 16 25  1  0
 16 17  1  0
 18 17  1  0
 19 12  2  0
 20 21  1  0
 22 23  2  0
 23 42  1  0
 24 23  1  0
 24 27  1  0
 25 26  1  0
 25 22  1  0
 26 24  2  0
 27 28  1  0
 28 29  2  0
 30 33  1  0
 30 29  1  0
 31 30  2  0
 32 31  1  0
 32 27  2  0
 33 34  1  0
 34 35  1  0
 35 36  2  0
 37 36  1  0
 37 41  1  0
 38 37  2  0
 39 34  2  0
 39 38  1  0
 40 39  1  0
 42 43  1  0
 43 46  1  0
 43 45  1  0
 44 42  2  0
 47 22  1  0
 47 48  1  0
 49 47  1  0
 50 51  1  0
 50 53  1  0
 53 52  1  0
 54 53  1  0
 55 54  1  0
 56 55  1  0
 57 59  1  0
 57 56  1  0
 58 69  2  0
 59 64  1  0
 60 68  1  0
 60 70  1  0
 61 67  1  0
 61 63  1  0
 62 68  1  0
 63 62  1  0
 64 63  2  0
 65 66  1  0
 65 59  2  0
 66 61  2  0
 67 60  1  0
 68 58  1  0
 70 72  2  0
 71 70  1  0
 73 71  1  0
 74 83  2  0
 74 79  1  0
 75 71  1  0
 75 79  1  0
 76 75  1  0
 77 78  1  0
 77 76  1  0
 78 74  1  0
 79 80  2  0
 80 81  1  0
 82 81  2  0
 83 82  1  0
 84 58  1  0
 84 85  1  0
 84 94  1  0
 85 88  1  0
 86 90  1  0
 86 85  1  0
 87 86  2  0
 90 89  1  0
 92 90  1  0
 92 93  1  0
 92 91  1  0
 94 97  1  1
 94 95  1  0
 96 94  1  0
M  ISO  4  12 100  20 100  56 101  57 101
M  END
>  <TORSDO>  (81) 
F 22

>  <SCORE>  (81) 
-12.108

>  <name>  (81) 
80

>  <ligand_id>  (81) 
80

>  <original_smiles>  (81) 
[H]c1nc(C([H])(N([H])C(=O)N2C([H])([H])C([H])([H])C([H])([H])C([H])(n3nc(-c4c([H])c([H])c(Oc5c([H])c([H])c(F)c([H])c5F)c([H])c4[H])c(C(=O)N([H])[H])c3N([H])[H])C2([H])[H])C([H])([H])[H])c(N([H])[H])nc1N([H])C([H])(C([H])([H])[H])C([H])([H])C([H])([H])C([H])([H])Oc1c([H])c([H])c2c(c1[H])C([H])([H])N(C(=O)C([H])(N([H])C(=O)C([H])(N([H])C([H])([H])[H])C([H])([H])[H])C(C([H])([H])[H])(C([H])([H])[H])C([H])([H])[H])C([H])(C(=O)N([H])C1([H])c3c([H])c([H])c([H])c([H])c3C([H])([H])C([H])([H])C1([H])[H])C2([H])[H]

>  <smiles>  (81) 
[H]c1nc(C([H])(N([H])C(=O)N2C([H])([H])C([H])([H])C([H])([H])C([H])(n3nc(-c4c([H])c([H])c(Oc5c([H])c([H])c(F)c([H])c5F)c([H])c4[H])c(C(=O)N([H])[H])c3N([H])[H])C2([H])[H])C([H])([H])[H])c(N([H])[H])nc1N([H])C([H])(C([H])([H])[H])C([H])([H])C([H])([H])C([H])([H])Oc1c([H])c([H])c2c(c1[H])C([H])([H])N(C(=O)C([H])(N([H])C(=O)C([H])(N([H])C([H])([H])[H])C([H])([H])[H])C(C([H])([H])[H])(C([H])([H])[H])C([H])([H])[H])C([H])(C(=O)N([H])C1([H])c3c([H])c([H])c([H])c([H])c3C([H])([H])C([H])([H])C1([H])[H])C2([H])[H]

$$$$
81:0:0
     RDKit          3D

 94102  0  0  1  0  0  0  0  0999 V2000
  -28.5110  -21.7310   19.6180 N   0  0  0  0  0  4  0  0  0  0  0  0
  -29.1720  -21.6560   20.3750 H   0  0  0  0  0  0  0  0  0  0  0  0
  -27.5910  -21.7440   20.0270 H   0  0  0  0  0  0  0  0  0  0  0  0
  -27.3180  -20.0450   18.1610 C   0  0  0  0  0  1  0  0  0  0  0  0
  -28.6520  -20.4840   18.8060 C   0  0  0  0  0  3  0  0  0  0  0  0
  -30.6930  -14.4210   20.1300 C   0  0  0  0  0  0  0  0  0  0  0  0
  -30.3200  -12.3030   18.9230 C   0  0  0  0  0  2  0  0  0  0  0  0
  -29.3220  -12.5660   17.7750 C   0  0  0  0  0  2  0  0  0  0  0  0
  -27.8650  -12.4480   18.2680 C   0  0  0  0  0  2  0  0  0  0  0  0
  -27.6060  -13.2390   19.5780 C   0  0  0  0  0  3  0  0  0  0  0  0
  -28.7070  -12.9450   20.6220 C   0  0  0  0  0  2  0  0  0  0  0  0
  -30.0140  -13.2470   20.0110 N   0  0  0  0  0  0  0  0  0  0  0  0
  -31.7830  -14.6180   19.5860 O   0  0  0  0  0  0  0  0  0  0  0  0
  -28.6340  -18.7170   20.7100 C   0  0  0  0  0  3  0  0  0  0  0  0
  -30.5230  -17.3460   19.3580 C   0  0  0  0  0  3  0  0  0  0  0  0
  -29.2400  -19.2700   19.5540 C   0  0  0  0  0  0  0  0  0  0  0  0
  -29.8620  -16.7470   20.4690 C   0  0  0  0  0  0  0  0  0  0  0  0
  -30.2090  -18.5830   18.9010 N   0  0  0  0  0  0  0  0  0  0  0  0
  -28.9440  -17.4730   21.1590 N   0  0  0  0  0  0  0  0  0  0  0  0
  -30.0530  -15.3790   20.8280 N   0  0  0  0  0  0  0  0  0  0  0  0
  -29.3310  -15.0160   21.4300 H   0  0  0  0  0  0  0  0  0  0  0  0
  -25.2450  -13.8630   20.3960 C   0  0  0  0  0  0  0  0  0  0  0  0
  -24.1860  -13.0980   20.8030 C   0  0  0  0  0  0  0  0  0  0  0  0
  -24.6310  -11.7430   20.7370 C   0  0  0  0  0  0  0  0  0  0  0  0
  -26.2700  -12.9750   20.1100 N   0  0  0  0  0  0  0  0  0  0  0  0
  -25.9050  -11.6930   20.3720 N   0  0  0  0  0  0  0  0  0  0  0  0
  -23.9000  -10.4860   20.9470 C   0  0  0  0  0  0  0  0  0  0  0  0
  -24.3480   -9.5180   21.8730 C   0  0  0  0  0  3  0  0  0  0  0  0
  -23.6190   -8.3250   22.0710 C   0  0  0  0  0  3  0  0  0  0  0  0
  -22.4280   -8.0930   21.3440 C   0  0  0  0  0  0  0  0  0  0  0  0
  -21.9980   -9.0480   20.4070 C   0  0  0  0  0  3  0  0  0  0  0  0
  -22.7270  -10.2320   20.2070 C   0  0  0  0  0  3  0  0  0  0  0  0
  -21.6710   -6.9510   21.4510 O   0  0  0  0  0  0  0  0  0  0  0  0
  -21.6250   -6.2230   22.6130 C   0  0  0  0  0  0  0  0  0  0  0  0
  -21.2090   -6.7950   23.8350 C   0  0  0  0  0  3  0  0  0  0  0  0
  -21.1110   -5.9930   24.9900 C   0  0  0  0  0  3  0  0  0  0  0  0
  -21.4180   -4.6210   24.9230 C   0  0  0  0  0  0  0  0  0  0  0  0
  -21.8260   -4.0480   23.7060 C   0  0  0  0  0  3  0  0  0  0  0  0
  -21.9270   -4.8470   22.5540 C   0  0  0  0  0  0  0  0  0  0  0  0
  -22.3000   -4.2860   21.3770 F   0  0  0  0  0  0  0  0  0  0  0  0
  -21.3160   -3.8480   26.0300 F   0  0  0  0  0  0  0  0  0  0  0  0
  -22.8070  -13.5850   21.1440 C   0  0  0  0  0  0  0  0  0  0  0  0
  -22.1130  -12.8880   22.0370 N   0  0  0  0  0  0  0  0  0  0  0  0
  -22.3530  -14.6180   20.6520 O   0  0  0  0  0  0  0  0  0  0  0  0
  -22.4930  -12.0530   22.4570 H   0  0  0  0  0  0  0  0  0  0  0  0
  -21.1880  -13.1950   22.3030 H   0  0  0  0  0  0  0  0  0  0  0  0
  -25.4190  -15.2340   20.2250 N   0  0  0  0  0  0  0  0  0  0  0  0
  -24.6720  -15.9020   20.3820 H   0  0  0  0  0  0  0  0  0  0  0  0
  -26.2710  -15.6660   19.8890 H   0  0  0  0  0  0  0  0  0  0  0  0
  -28.1520  -23.1770   17.5380 C   0  0  0  0  0  1  0  0  0  0  0  0
  -28.7890  -23.0480   18.9440 C   0  0  0  0  0  3  0  0  0  0  0  0
  -28.3830  -24.2530   19.8540 C   0  0  0  0  0  2  0  0  0  0  0  0
  -28.7350  -25.6600   19.2920 C   0  0  0  0  0  2  0  0  0  0  0  0
  -28.4950  -26.7370   20.2130 O   0  0  0  0  0  0  0  0  0  0  0  0
  -24.6210  -31.8930   23.2380 C   0  0  0  0  0  0  0  0  0  0  0  0
  -27.2920  -27.4210   20.1950 C   0  0  0  0  0  0  0  0  0  0  0  0
  -23.4240  -30.4710   21.6070 C   0  0  0  0  0  3  0  0  0  0  0  0
  -24.8830  -28.9170   20.2050 C   0  0  0  0  0  0  0  0  0  0  0  0
  -25.9500  -30.8260   21.4180 C   0  0  0  0  0  2  0  0  0  0  0  0
  -26.0370  -29.4480   20.7920 C   0  0  0  0  0  0  0  0  0  0  0  0
  -27.2380  -28.7020   20.7950 C   0  0  0  0  0  3  0  0  0  0  0  0
  -26.1140  -26.8990   19.6140 C   0  0  0  0  0  3  0  0  0  0  0  0
  -24.9160  -27.6380   19.6180 C   0  0  0  0  0  3  0  0  0  0  0  0
  -23.6380  -29.7740   20.2370 C   0  0  0  0  0  2  0  0  0  0  0  0
  -24.6830  -31.0800   22.1460 N   0  0  0  0  0  0  0  0  0  0  0  0
  -23.5380  -32.1700   23.7720 O   0  0  0  0  0  0  0  0  0  0  0  0
  -22.7700  -29.4600   22.5770 C   0  0  0  0  0  0  0  0  0  0  0  0
  -21.4480  -29.2710   22.4410 N   0  0  0  0  0  0  0  0  0  0  0  0
  -23.4500  -28.8470   23.4040 O   0  0  0  0  0  0  0  0  0  0  0  0
  -20.9620  -29.8160   21.7420 H   0  0  0  0  0  0  0  0  0  0  0  0
  -18.0750  -28.0670   22.9210 C   0  0  0  0  0  0  0  0  0  0  0  0
  -20.6280  -28.3400   23.2150 C   0  0  0  0  0  3  0  0  0  0  0  0
  -20.7440  -26.9010   22.6600 C   0  0  0  0  0  2  0  0  0  0  0  0
  -19.6540  -26.5610   21.6390 C   0  0  0  0  0  2  0  0  0  0  0  0
  -18.2650  -26.7080   22.2660 C   0  0  0  0  0  2  0  0  0  0  0  0
  -19.1860  -28.8400   23.3510 C   0  0  0  0  0  0  0  0  0  0  0  0
  -18.9560  -30.1110   23.9210 C   0  0  0  0  0  3  0  0  0  0  0  0
  -17.6470  -30.6100   24.0650 C   0  0  0  0  0  3  0  0  0  0  0  0
  -16.5510  -29.8330   23.6520 C   0  0  0  0  0  3  0  0  0  0  0  0
  -16.7650  -28.5650   23.0850 C   0  0  0  0  0  3  0  0  0  0  0  0
  -25.9050  -32.5320   23.8540 C   0  0  0  0  0  3  0  0  0  0  0  0
  -26.4280  -31.7670   25.1320 C   0  0  1  0  0  0  0  0  0  0  0  0
  -25.3390  -31.5230   26.2020 C   0  0  0  0  0  1  0  0  0  0  0  0
  -27.0190  -30.3940   24.7400 C   0  0  0  0  0  1  0  0  0  0  0  0
  -27.5740  -32.5710   25.7910 C   0  0  0  0  0  1  0  0  0  0  0  0
  -25.5900  -33.9300   24.1800 N   0  0  0  0  0  0  0  0  0  0  0  0
  -25.9180  -34.9810   23.4170 C   0  0  0  0  0  0  0  0  0  0  0  0
  -26.5880  -34.8770   22.3860 O   0  0  0  0  0  0  0  0  0  0  0  0
  -24.9970  -34.0830   24.9820 H   0  0  0  0  0  0  0  0  0  0  0  0
  -24.1800  -36.7620   23.0540 C   0  0  0  0  0  1  0  0  0  0  0  0
  -25.4230  -36.3690   23.8690 C   0  0  0  0  0  3  0  0  0  0  0  0
  -27.5500  -37.2690   24.6980 C   0  0  0  0  0  1  0  0  0  0  0  0
  -26.4490  -37.4270   23.7510 N   0  0  0  0  0  0  0  0  0  0  0  0
  -26.0380  -38.3450   23.8950 H   0  0  0  0  0  0  0  0  0  0  0  0
  1  3  1  0
  1  2  1  0
  5  4  1  0
  5 16  1  0
  5  1  1  0
  6 20  1  0
  7 12  1  0
  8  9  1  0
  8  7  1  0
 10  9  1  0
 10 25  1  0
 10 11  1  0
 12  6  1  0
 12 11  1  0
 13  6  2  0
 14 19  1  0
 15 17  1  0
 16 14  2  0
 17 20  1  0
 17 19  2  0
 18 15  2  0
 18 16  1  0
 20 21  1  0
 22 23  2  0
 23 42  1  0
 24 23  1  0
 24 27  1  0
 25 26  1  0
 25 22  1  0
 26 24  2  0
 27 28  1  0
 28 29  2  0
 30 33  1  0
 30 29  1  0
 31 30  2  0
 32 31  1  0
 32 27  2  0
 33 34  1  0
 34 35  1  0
 35 36  2  0
 37 36  1  0
 37 41  1  0
 38 37  2  0
 39 34  2  0
 39 38  1  0
 40 39  1  0
 42 43  1  0
 43 46  1  0
 43 45  1  0
 44 42  2  0
 47 48  1  0
 47 22  1  0
 49 47  1  0
 51 50  1  0
 51  1  1  0
 51 52  1  0
 53 52  1  0
 53 54  1  0
 55 66  2  0
 56 54  1  0
 56 61  1  0
 57 65  1  0
 57 67  1  0
 58 64  1  0
 58 60  1  0
 59 65  1  0
 60 61  2  0
 60 59  1  0
 62 63  1  0
 62 56  2  0
 63 58  2  0
 64 57  1  0
 65 55  1  0
 67 69  2  0
 68 67  1  0
 70 68  1  0
 71 80  2  0
 71 76  1  0
 72 68  1  0
 72 76  1  0
 73 72  1  0
 74 75  1  0
 74 73  1  0
 75 71  1  0
 76 77  2  0
 77 78  1  0
 79 78  2  0
 80 79  1  0
 81 55  1  0
 81 86  1  0
 81 82  1  0
 82 85  1  1
 82 83  1  0
 84 82  1  0
 86 89  1  0
 87 91  1  0
 87 86  1  0
 88 87  2  0
 91 90  1  0
 93 91  1  0
 93 94  1  0
 93 92  1  0
M  ISO  4   6 100  20 100  53 101  54 101
M  END
>  <TORSDO>  (82) 
F 20

>  <SCORE>  (82) 
-13.642

>  <name>  (82) 
81

>  <ligand_id>  (82) 
81

>  <original_smiles>  (82) 
[H]c1nc(C([H])(C([H])([H])[H])[N+]([H])([H])C([H])(C([H])([H])[H])C([H])([H])C([H])([H])Oc2c([H])c([H])c3c(c2[H])C([H])([H])N(C(=O)C([H])(N([H])C(=O)C([H])(N([H])C([H])([H])[H])C([H])([H])[H])C(C([H])([H])[H])(C([H])([H])[H])C([H])([H])[H])C([H])(C(=O)N([H])C2([H])c4c([H])c([H])c([H])c([H])c4C([H])([H])C([H])([H])C2([H])[H])C3([H])[H])c([H])nc1N([H])C(=O)N1C([H])([H])C([H])([H])C([H])([H])C([H])(n2nc(-c3c([H])c([H])c(Oc4c([H])c([H])c(F)c([H])c4F)c([H])c3[H])c(C(=O)N([H])[H])c2N([H])[H])C1([H])[H]

>  <smiles>  (82) 
[H]c1nc(C([H])(C([H])([H])[H])[N+]([H])([H])C([H])(C([H])([H])[H])C([H])([H])C([H])([H])Oc2c([H])c([H])c3c(c2[H])C([H])([H])N(C(=O)C([H])(N([H])C(=O)C([H])(N([H])C([H])([H])[H])C([H])([H])[H])C(C([H])([H])[H])(C([H])([H])[H])C([H])([H])[H])C([H])(C(=O)N([H])C2([H])c4c([H])c([H])c([H])c([H])c4C([H])([H])C([H])([H])C2([H])[H])C3([H])[H])c([H])nc1N([H])C(=O)N1C([H])([H])C([H])([H])C([H])([H])C([H])(n2nc(-c3c([H])c([H])c(Oc4c([H])c([H])c(F)c([H])c4F)c([H])c3[H])c(C(=O)N([H])[H])c2N([H])[H])C1([H])[H]

$$$$
82:0:0
     RDKit          3D

 92100  0  0  1  0  0  0  0  0999 V2000
  -30.5820  -14.8210   20.3590 C   0  0  0  0  0  0  0  0  0  0  0  0
  -30.3840  -12.5260   19.4170 C   0  0  0  0  0  2  0  0  0  0  0  0
  -29.4570  -12.5950   18.1820 C   0  0  0  0  0  2  0  0  0  0  0  0
  -27.9770  -12.4370   18.5870 C   0  0  0  0  0  2  0  0  0  0  0  0
  -27.5970  -13.3170   19.8060 C   0  0  0  0  0  3  0  0  0  0  0  0
  -28.6470  -13.2470   20.9340 C   0  0  0  0  0  2  0  0  0  0  0  0
  -29.9450  -13.5960   20.3420 N   0  0  0  0  0  0  0  0  0  0  0  0
  -31.7990  -14.8430   20.1440 O   0  0  0  0  0  0  0  0  0  0  0  0
  -31.1590  -18.8360   18.7640 C   0  0  0  0  0  0  0  0  0  0  0  0
  -30.0320  -17.3600   20.0300 C   0  0  0  0  0  0  0  0  0  0  0  0
  -29.4910  -19.6250   19.9920 C   0  0  0  0  0  0  0  0  0  0  0  0
  -32.2650  -19.1170   17.7710 C   0  0  0  0  0  1  0  0  0  0  0  0
  -31.0110  -17.5730   19.1540 N   0  0  0  0  0  4  0  0  0  0  0  0
  -30.4460  -19.8920   19.1280 N   0  0  0  0  0  0  0  0  0  0  0  0
  -29.2080  -18.3700   20.4620 N   0  0  0  0  0  2  0  0  0  0  0  0
  -29.8090  -15.9850   20.4270 N   0  0  0  0  0  0  0  0  0  0  0  0
  -28.6880  -20.7590   20.3600 N   0  0  0  0  0  4  0  0  0  0  0  0
  -28.8570  -15.8160   20.6980 H   0  0  0  0  0  0  0  0  0  0  0  0
  -27.9210  -20.4200   20.9300 H   0  0  0  0  0  0  0  0  0  0  0  0
  -25.2020  -13.8990   20.5170 C   0  0  0  0  0  0  0  0  0  0  0  0
  -24.1370  -13.1210   20.8760 C   0  0  0  0  0  0  0  0  0  0  0  0
  -24.6120  -11.7710   20.8630 C   0  0  0  0  0  0  0  0  0  0  0  0
  -26.2540  -13.0240   20.2940 N   0  0  0  0  0  0  0  0  0  0  0  0
  -25.9070  -11.7400   20.5710 N   0  0  0  0  0  0  0  0  0  0  0  0
  -23.8860  -10.5060   21.0420 C   0  0  0  0  0  0  0  0  0  0  0  0
  -24.3090   -9.5410   21.9820 C   0  0  0  0  0  3  0  0  0  0  0  0
  -23.5870   -8.3400   22.1530 C   0  0  0  0  0  3  0  0  0  0  0  0
  -22.4190   -8.1010   21.3880 C   0  0  0  0  0  0  0  0  0  0  0  0
  -22.0130   -9.0540   20.4360 C   0  0  0  0  0  3  0  0  0  0  0  0
  -22.7380  -10.2460   20.2630 C   0  0  0  0  0  3  0  0  0  0  0  0
  -21.6620   -6.9580   21.4720 O   0  0  0  0  0  0  0  0  0  0  0  0
  -21.6000   -6.2170   22.6250 C   0  0  0  0  0  0  0  0  0  0  0  0
  -21.1700   -6.7760   23.8490 C   0  0  0  0  0  3  0  0  0  0  0  0
  -21.0590   -5.9610   24.9940 C   0  0  0  0  0  3  0  0  0  0  0  0
  -21.3640   -4.5900   24.9160 C   0  0  0  0  0  0  0  0  0  0  0  0
  -21.7880   -4.0310   23.6980 C   0  0  0  0  0  3  0  0  0  0  0  0
  -21.9030   -4.8420   22.5570 C   0  0  0  0  0  0  0  0  0  0  0  0
  -22.2900   -4.2940   21.3790 F   0  0  0  0  0  0  0  0  0  0  0  0
  -21.2500   -3.8070   26.0130 F   0  0  0  0  0  0  0  0  0  0  0  0
  -22.7330  -13.5920   21.1240 C   0  0  0  0  0  0  0  0  0  0  0  0
  -21.9980  -12.8990   21.9850 N   0  0  0  0  0  0  0  0  0  0  0  0
  -22.2980  -14.6120   20.5890 O   0  0  0  0  0  0  0  0  0  0  0  0
  -22.3610  -12.0780   22.4430 H   0  0  0  0  0  0  0  0  0  0  0  0
  -21.0550  -13.1970   22.1930 H   0  0  0  0  0  0  0  0  0  0  0  0
  -25.3670  -15.2710   20.3290 N   0  0  0  0  0  0  0  0  0  0  0  0
  -24.6000  -15.9290   20.4320 H   0  0  0  0  0  0  0  0  0  0  0  0
  -26.2160  -15.7040   19.9900 H   0  0  0  0  0  0  0  0  0  0  0  0
  -30.5550  -22.3120   21.1120 C   0  0  0  0  0  1  0  0  0  0  0  0
  -29.0540  -22.1950   20.7820 C   0  0  0  0  0  0  0  0  0  0  0  0
  -28.5240  -23.5540   19.9980 C   0  0  0  0  0  2  0  0  0  0  0  0
  -28.1940  -24.9370   20.8370 C   0  0  0  0  0  2  0  0  0  0  0  0
  -28.3830  -26.3730   20.3700 O   0  0  0  0  0  0  0  0  0  0  0  0
  -24.6330  -31.9330   23.2820 C   0  0  0  0  0  0  0  0  0  0  0  0
  -27.2920  -27.2750   20.3410 C   0  0  0  0  0  0  0  0  0  0  0  0
  -23.4590  -30.5050   21.6430 C   0  0  0  0  0  3  0  0  0  0  0  0
  -24.9380  -28.9260   20.2690 C   0  0  0  0  0  0  0  0  0  0  0  0
  -26.0070  -30.8080   21.5040 C   0  0  0  0  0  2  0  0  0  0  0  0
  -26.1030  -29.4160   20.8730 C   0  0  0  0  0  0  0  0  0  0  0  0
  -27.2870  -28.6070   20.8910 C   0  0  0  0  0  3  0  0  0  0  0  0
  -26.1040  -26.8520   19.7120 C   0  0  0  0  0  3  0  0  0  0  0  0
  -24.9470  -27.6560   19.6710 C   0  0  0  0  0  3  0  0  0  0  0  0
  -23.7020  -29.8080   20.2800 C   0  0  0  0  0  2  0  0  0  0  0  0
  -24.7170  -31.1020   22.1980 N   0  0  0  0  0  0  0  0  0  0  0  0
  -23.5380  -32.2140   23.7950 O   0  0  0  0  0  0  0  0  0  0  0  0
  -22.7800  -29.5060   22.6100 C   0  0  0  0  0  0  0  0  0  0  0  0
  -21.4540  -29.3300   22.4720 N   0  0  0  0  0  0  0  0  0  0  0  0
  -23.4470  -28.8860   23.4440 O   0  0  0  0  0  0  0  0  0  0  0  0
  -20.9730  -29.8820   21.7740 H   0  0  0  0  0  0  0  0  0  0  0  0
  -18.0670  -28.1570   22.9660 C   0  0  0  0  0  0  0  0  0  0  0  0
  -20.6250  -28.4040   23.2450 C   0  0  0  0  0  3  0  0  0  0  0  0
  -20.7220  -26.9680   22.6820 C   0  0  0  0  0  2  0  0  0  0  0  0
  -19.6240  -26.6440   21.6640 C   0  0  0  0  0  2  0  0  0  0  0  0
  -18.2390  -26.8010   22.2990 C   0  0  0  0  0  2  0  0  0  0  0  0
  -19.1880  -28.9150   23.3970 C   0  0  0  0  0  0  0  0  0  0  0  0
  -18.9750  -30.1820   23.9830 C   0  0  0  0  0  3  0  0  0  0  0  0
  -17.6730  -30.6920   24.1400 C   0  0  0  0  0  3  0  0  0  0  0  0
  -16.5650  -29.9310   23.7260 C   0  0  0  0  0  3  0  0  0  0  0  0
  -16.7620  -28.6650   23.1460 C   0  0  0  0  0  3  0  0  0  0  0  0
  -25.9000  -32.5780   23.9190 C   0  0  0  0  0  3  0  0  0  0  0  0
  -25.5780  -33.9810   24.2240 N   0  0  0  0  0  0  0  0  0  0  0  0
  -25.9140  -35.0240   23.4550 C   0  0  0  0  0  0  0  0  0  0  0  0
  -26.5960  -34.9120   22.4340 O   0  0  0  0  0  0  0  0  0  0  0  0
  -24.9720  -34.1420   25.0130 H   0  0  0  0  0  0  0  0  0  0  0  0
  -24.1800  -36.8050   23.0610 C   0  0  0  0  0  1  0  0  0  0  0  0
  -25.4150  -36.4180   23.8880 C   0  0  0  0  0  3  0  0  0  0  0  0
  -27.5400  -37.3260   24.7250 C   0  0  0  0  0  1  0  0  0  0  0  0
  -26.4430  -37.4750   23.7700 N   0  0  0  0  0  0  0  0  0  0  0  0
  -26.0280  -38.3940   23.9040 H   0  0  0  0  0  0  0  0  0  0  0  0
  -26.3950  -31.8290   25.2180 C   0  0  1  0  0  0  0  0  0  0  0  0
  -25.2830  -31.6110   26.2700 C   0  0  0  0  0  1  0  0  0  0  0  0
  -26.9870  -30.4440   24.8630 C   0  0  0  0  0  1  0  0  0  0  0  0
  -27.5300  -32.6410   25.8850 C   0  0  0  0  0  1  0  0  0  0  0  0
  1 16  1  0
  2  7  1  0
  3  4  1  0
  3  2  1  0
  5  4  1  0
  5 23  1  0
  5  6  1  0
  7  1  1  0
  7  6  1  0
  8  1  2  0
  9 14  1  0
  9 13  2  0
 10 16  1  0
 10 15  1  0
 11 17  1  0
 11 15  1  0
 12  9  1  0
 13 10  2  0
 14 11  2  0
 16 18  1  0
 17 49  2  3
 17 19  1  0
 20 21  2  0
 21 40  1  0
 22 21  1  0
 22 25  1  0
 23 20  1  0
 23 24  1  0
 24 22  2  0
 25 26  1  0
 26 27  2  0
 28 31  1  0
 28 27  1  0
 29 28  2  0
 30 29  1  0
 30 25  2  0
 31 32  1  0
 32 33  1  0
 33 34  2  0
 35 34  1  0
 35 39  1  0
 36 35  2  0
 37 32  2  0
 37 36  1  0
 38 37  1  0
 40 41  1  0
 41 44  1  0
 41 43  1  0
 42 40  2  0
 45 46  1  0
 45 20  1  0
 47 45  1  0
 49 48  1  0
 50 49  1  0
 50 51  1  0
 52 51  1  0
 53 64  2  0
 54 52  1  0
 54 59  1  0
 55 63  1  0
 55 65  1  0
 56 62  1  0
 56 58  1  0
 57 63  1  0
 58 59  2  0
 58 57  1  0
 60 54  2  0
 61 60  1  0
 61 56  2  0
 62 55  1  0
 63 53  1  0
 65 67  2  0
 66 65  1  0
 68 66  1  0
 69 78  2  0
 69 74  1  0
 70 66  1  0
 70 74  1  0
 71 70  1  0
 72 73  1  0
 72 71  1  0
 73 69  1  0
 74 75  2  0
 75 76  1  0
 77 76  2  0
 78 77  1  0
 79 53  1  0
 79 80  1  0
 79 89  1  0
 80 83  1  0
 81 85  1  0
 81 80  1  0
 82 81  2  0
 85 84  1  0
 87 85  1  0
 87 88  1  0
 87 86  1  0
 89 92  1  1
 89 90  1  0
 91 89  1  0
M  ISO  4   1 100  16 100  51 101  52 101
M  END
>  <TORSDO>  (83) 
F 18

>  <SCORE>  (83) 
-14.766

>  <name>  (83) 
82

>  <ligand_id>  (83) 
82

>  <original_smiles>  (83) 
[H]c1c([H])c([H])c2c(c1[H])C([H])([H])C([H])([H])C([H])([H])C2([H])N([H])C(=O)C1([H])N(C(=O)C([H])(N([H])C(=O)C([H])(N([H])C([H])([H])[H])C([H])([H])[H])C(C([H])([H])[H])(C([H])([H])[H])C([H])([H])[H])C([H])([H])c2c([H])c(OC([H])([H])C([H])([H])C([H])(N([H])c3nc(N([H])C(=O)N4C([H])([H])C([H])([H])C([H])([H])C([H])(n5nc(-c6c([H])c([H])c(Oc7c([H])c([H])c(F)c([H])c7F)c([H])c6[H])c(C(=O)N([H])[H])c5N([H])[H])C4([H])[H])nc(C([H])([H])[H])n3)C([H])([H])[H])c([H])c([H])c2C1([H])[H]

>  <smiles>  (83) 
[H]c1c([H])c([H])c2c(c1[H])C([H])([H])C([H])([H])C([H])([H])C2([H])N([H])C(=O)C1([H])N(C(=O)C([H])(N([H])C(=O)C([H])(N([H])C([H])([H])[H])C([H])([H])[H])C(C([H])([H])[H])(C([H])([H])[H])C([H])([H])[H])C([H])([H])c2c([H])c(OC([H])([H])C([H])([H])C([H])(N([H])c3nc(N([H])C(=O)N4C([H])([H])C([H])([H])C([H])([H])C([H])(n5nc(-c6c([H])c([H])c(Oc7c([H])c([H])c(F)c([H])c7F)c([H])c6[H])c(C(=O)N([H])[H])c5N([H])[H])C4([H])[H])nc(C([H])([H])[H])n3)C([H])([H])[H])c([H])c([H])c2C1([H])[H]

$$$$
83:0:0
     RDKit          3D

 89 97  0  0  1  0  0  0  0  0999 V2000
  -29.4420  -19.1060   21.4200 C   0  0  0  0  0  3  0  0  0  0  0  0
  -29.9190  -18.8850   20.1500 C   0  0  0  0  0  0  0  0  0  0  0  0
  -29.4490  -21.2380   20.0840 C   0  0  0  0  0  0  0  0  0  0  0  0
  -29.8810  -20.1260   19.4110 N   0  0  0  0  0  0  0  0  0  0  0  0
  -29.3290  -22.5880   19.5780 N   0  0  0  0  0  0  0  0  0  0  0  0
  -29.0150  -20.7950   21.7330 S   0  0  0  0  0  0  0  0  0  0  0  0
  -29.4650  -22.5900   18.5720 H   0  0  0  0  0  0  0  0  0  0  0  0
  -30.5290  -17.5430   19.5750 C   0  0  0  0  0  2  0  0  0  0  0  0
  -30.9030  -14.9920   19.8780 C   0  0  0  0  0  0  0  0  0  0  0  0
  -30.6280  -12.7120   18.9050 C   0  0  0  0  0  2  0  0  0  0  0  0
  -29.6480  -12.7940   17.7140 C   0  0  0  0  0  2  0  0  0  0  0  0
  -28.1960  -12.6340   18.2020 C   0  0  0  0  0  2  0  0  0  0  0  0
  -27.8770  -13.5310   19.4290 C   0  0  0  0  0  3  0  0  0  0  0  0
  -28.9770  -13.4470   20.5090 C   0  0  0  0  0  2  0  0  0  0  0  0
  -30.2540  -13.7770   19.8640 N   0  0  0  0  0  0  0  0  0  0  0  0
  -32.0670  -15.0640   19.4760 O   0  0  0  0  0  0  0  0  0  0  0  0
  -30.1750  -16.1510   20.0960 N   0  0  0  0  0  0  0  0  0  0  0  0
  -29.2280  -16.0310   20.4240 H   0  0  0  0  0  0  0  0  0  0  0  0
  -25.5280  -14.1390   20.2590 C   0  0  0  0  0  0  0  0  0  0  0  0
  -24.4720  -13.3730   20.6700 C   0  0  0  0  0  0  0  0  0  0  0  0
  -24.9200  -12.0180   20.6140 C   0  0  0  0  0  0  0  0  0  0  0  0
  -26.5530  -13.2510   19.9740 N   0  0  0  0  0  0  0  0  0  0  0  0
  -26.1960  -11.9700   20.2510 N   0  0  0  0  0  0  0  0  0  0  0  0
  -24.1900  -10.7610   20.8270 C   0  0  0  0  0  0  0  0  0  0  0  0
  -24.6180   -9.8100   21.7800 C   0  0  0  0  0  3  0  0  0  0  0  0
  -23.8880   -8.6200   21.9810 C   0  0  0  0  0  3  0  0  0  0  0  0
  -22.7150   -8.3700   21.2290 C   0  0  0  0  0  0  0  0  0  0  0  0
  -22.3050   -9.3090   20.2660 C   0  0  0  0  0  3  0  0  0  0  0  0
  -23.0370  -10.4910   20.0630 C   0  0  0  0  0  3  0  0  0  0  0  0
  -21.9560   -7.2300   21.3390 O   0  0  0  0  0  0  0  0  0  0  0  0
  -21.8760   -6.5290   22.5160 C   0  0  0  0  0  0  0  0  0  0  0  0
  -21.3530   -7.1080   23.6930 C   0  0  0  0  0  3  0  0  0  0  0  0
  -21.2240   -6.3310   24.8630 C   0  0  0  0  0  3  0  0  0  0  0  0
  -21.6050   -4.9760   24.8540 C   0  0  0  0  0  0  0  0  0  0  0  0
  -22.1210   -4.3970   23.6800 C   0  0  0  0  0  3  0  0  0  0  0  0
  -22.2520   -5.1710   22.5140 C   0  0  0  0  0  0  0  0  0  0  0  0
  -22.7280   -4.6020   21.3810 F   0  0  0  0  0  0  0  0  0  0  0  0
  -21.4750   -4.2280   25.9740 F   0  0  0  0  0  0  0  0  0  0  0  0
  -23.0910  -13.8610   21.0000 C   0  0  0  0  0  0  0  0  0  0  0  0
  -22.3950  -13.1710   21.8950 N   0  0  0  0  0  0  0  0  0  0  0  0
  -22.6420  -14.8910   20.4990 O   0  0  0  0  0  0  0  0  0  0  0  0
  -22.7730  -12.3390   22.3240 H   0  0  0  0  0  0  0  0  0  0  0  0
  -21.4700  -13.4810   22.1580 H   0  0  0  0  0  0  0  0  0  0  0  0
  -25.6950  -15.5090   20.0800 N   0  0  0  0  0  0  0  0  0  0  0  0
  -24.9330  -16.1640   20.2180 H   0  0  0  0  0  0  0  0  0  0  0  0
  -26.5210  -15.9440   19.6910 H   0  0  0  0  0  0  0  0  0  0  0  0
  -29.3630  -24.0100   20.1170 C   0  0  0  0  0  3  0  0  0  0  0  0
  -28.3580  -25.1370   19.5300 C   0  0  0  0  0  3  0  0  0  0  0  0
  -28.4780  -26.5940   19.9020 O   0  0  0  0  0  0  0  0  0  0  0  0
  -24.5380  -31.7530   23.1470 C   0  0  0  0  0  0  0  0  0  0  0  0
  -27.3420  -27.4410   19.8630 C   0  0  0  0  0  0  0  0  0  0  0  0
  -23.3980  -30.3910   21.4360 C   0  0  0  0  0  3  0  0  0  0  0  0
  -24.9150  -28.9840   19.9270 C   0  0  0  0  0  0  0  0  0  0  0  0
  -25.9260  -30.8190   21.2770 C   0  0  0  0  0  2  0  0  0  0  0  0
  -26.0650  -29.4780   20.5570 C   0  0  0  0  0  0  0  0  0  0  0  0
  -27.2780  -28.7180   20.5170 C   0  0  0  0  0  3  0  0  0  0  0  0
  -26.1700  -27.0260   19.1910 C   0  0  0  0  0  3  0  0  0  0  0  0
  -24.9730  -27.7660   19.2340 C   0  0  0  0  0  3  0  0  0  0  0  0
  -23.6420  -29.8010   20.0220 C   0  0  0  0  0  2  0  0  0  0  0  0
  -24.6390  -31.0050   22.0100 N   0  0  0  0  0  0  0  0  0  0  0  0
  -23.4430  -31.9550   23.6930 O   0  0  0  0  0  0  0  0  0  0  0  0
  -22.7810  -29.2970   22.3420 C   0  0  0  0  0  0  0  0  0  0  0  0
  -21.4660  -29.0610   22.1990 N   0  0  0  0  0  0  0  0  0  0  0  0
  -23.4860  -28.6660   23.1330 O   0  0  0  0  0  0  0  0  0  0  0  0
  -20.9520  -29.6250   21.5360 H   0  0  0  0  0  0  0  0  0  0  0  0
  -18.1460  -27.6890   22.6400 C   0  0  0  0  0  0  0  0  0  0  0  0
  -20.6920  -28.0470   22.9190 C   0  0  0  0  0  3  0  0  0  0  0  0
  -20.8540  -26.6550   22.2660 C   0  0  0  0  0  2  0  0  0  0  0  0
  -19.7640  -26.3400   21.2370 C   0  0  0  0  0  2  0  0  0  0  0  0
  -18.3800  -26.3890   21.8910 C   0  0  0  0  0  2  0  0  0  0  0  0
  -19.2310  -28.4760   23.1080 C   0  0  0  0  0  0  0  0  0  0  0  0
  -18.9590  -29.6930   23.7700 C   0  0  0  0  0  3  0  0  0  0  0  0
  -17.6340  -30.1260   23.9660 C   0  0  0  0  0  3  0  0  0  0  0  0
  -16.5630  -29.3360   23.5120 C   0  0  0  0  0  3  0  0  0  0  0  0
  -16.8190  -28.1200   22.8560 C   0  0  0  0  0  3  0  0  0  0  0  0
  -25.7900  -32.4110   23.8040 C   0  0  0  0  0  3  0  0  0  0  0  0
  -26.2900  -31.6480   25.0920 C   0  0  1  0  0  0  0  0  0  0  0  0
  -25.1740  -31.3830   26.1290 C   0  0  0  0  0  1  0  0  0  0  0  0
  -26.9150  -30.2850   24.7140 C   0  0  0  0  0  1  0  0  0  0  0  0
  -27.4060  -32.4660   25.7850 C   0  0  0  0  0  1  0  0  0  0  0  0
  -25.4410  -33.8020   24.1310 N   0  0  0  0  0  0  0  0  0  0  0  0
  -25.7560  -34.8650   23.3790 C   0  0  0  0  0  0  0  0  0  0  0  0
  -26.4390  -34.7800   22.3540 O   0  0  0  0  0  0  0  0  0  0  0  0
  -24.8350  -33.9410   24.9270 H   0  0  0  0  0  0  0  0  0  0  0  0
  -23.9850  -36.6140   23.0160 C   0  0  0  0  0  1  0  0  0  0  0  0
  -25.2320  -36.2410   23.8350 C   0  0  0  0  0  3  0  0  0  0  0  0
  -27.3270  -37.1920   24.6930 C   0  0  0  0  0  1  0  0  0  0  0  0
  -26.2380  -37.3200   23.7280 N   0  0  0  0  0  0  0  0  0  0  0  0
  -25.8050  -38.2300   23.8560 H   0  0  0  0  0  0  0  0  0  0  0  0
  1  6  1  0
  2  1  2  0
  3  6  1  0
  4  3  2  0
  4  2  1  0
  5  3  1  0
  5 47  1  0
  7  5  1  0
  8 17  1  0
  8  2  1  0
  9 17  1  0
 10 15  1  0
 11 12  1  0
 11 10  1  0
 13 12  1  0
 13 22  1  0
 13 14  1  0
 15  9  1  0
 15 14  1  0
 16  9  2  0
 17 18  1  0
 19 20  2  0
 20 39  1  0
 21 20  1  0
 21 24  1  0
 22 23  1  0
 22 19  1  0
 23 21  2  0
 24 25  1  0
 25 26  2  0
 27 30  1  0
 27 26  1  0
 28 27  2  0
 29 28  1  0
 29 24  2  0
 30 31  1  0
 31 32  1  0
 32 33  2  0
 34 33  1  0
 34 38  1  0
 35 34  2  0
 36 31  2  0
 36 35  1  0
 37 36  1  0
 39 40  1  0
 40 43  1  0
 40 42  1  0
 41 39  2  0
 44 45  1  0
 44 19  1  0
 46 44  1  0
 48 49  1  0
 48 47  2  0
 50 61  2  0
 51 49  1  0
 51 56  1  0
 52 60  1  0
 52 62  1  0
 53 59  1  0
 53 55  1  0
 54 60  1  0
 55 54  1  0
 56 55  2  0
 57 58  1  0
 57 51  2  0
 58 53  2  0
 59 52  1  0
 60 50  1  0
 62 64  2  0
 63 62  1  0
 65 63  1  0
 66 75  2  0
 66 71  1  0
 67 63  1  0
 67 71  1  0
 68 67  1  0
 69 70  1  0
 69 68  1  0
 70 66  1  0
 71 72  2  0
 72 73  1  0
 74 73  2  0
 75 74  1  0
 76 50  1  0
 76 81  1  0
 76 77  1  0
 77 80  1  1
 77 78  1  0
 79 77  1  0
 81 84  1  0
 82 86  1  0
 82 81  1  0
 83 82  2  0
 86 85  1  0
 88 86  1  0
 88 89  1  0
 88 87  1  0
M  ISO  4   9 100  17 100  48 101  49 101
M  END
>  <TORSDO>  (84) 
F 19

>  <SCORE>  (84) 
-12.607

>  <name>  (84) 
83

>  <ligand_id>  (84) 
83

>  <original_smiles>  (84) 
[H]c1sc(N([H])C([H])([H])C([H])([H])Oc2c([H])c([H])c3c(c2[H])C([H])([H])N(C(=O)C([H])(N([H])C(=O)C([H])(N([H])C([H])([H])[H])C([H])([H])[H])C(C([H])([H])[H])(C([H])([H])[H])C([H])([H])[H])C([H])(C(=O)N([H])C2([H])c4c([H])c([H])c([H])c([H])c4C([H])([H])C([H])([H])C2([H])[H])C3([H])[H])nc1C([H])([H])N([H])C(=O)N1C([H])([H])C([H])([H])C([H])([H])C([H])(n2nc(-c3c([H])c([H])c(Oc4c([H])c([H])c(F)c([H])c4F)c([H])c3[H])c(C(=O)N([H])[H])c2N([H])[H])C1([H])[H]

>  <smiles>  (84) 
[H]c1sc(N([H])C([H])([H])C([H])([H])Oc2c([H])c([H])c3c(c2[H])C([H])([H])N(C(=O)C([H])(N([H])C(=O)C([H])(N([H])C([H])([H])[H])C([H])([H])[H])C(C([H])([H])[H])(C([H])([H])[H])C([H])([H])[H])C([H])(C(=O)N([H])C2([H])c4c([H])c([H])c([H])c([H])c4C([H])([H])C([H])([H])C2([H])[H])C3([H])[H])nc1C([H])([H])N([H])C(=O)N1C([H])([H])C([H])([H])C([H])([H])C([H])(n2nc(-c3c([H])c([H])c(Oc4c([H])c([H])c(F)c([H])c4F)c([H])c3[H])c(C(=O)N([H])[H])c2N([H])[H])C1([H])[H]

$$$$
84:0:0
     RDKit          3D

 90 98  0  0  1  0  0  0  0  0999 V2000
  -29.2990  -19.2380   21.4230 C   0  0  0  0  0  3  0  0  0  0  0  0
  -29.8290  -18.7310   20.2490 C   0  0  0  0  0  0  0  0  0  0  0  0
  -29.1750  -21.2410   20.2360 C   0  0  0  0  0  0  0  0  0  0  0  0
  -28.9470  -20.6230   21.4050 N   0  0  0  0  0  0  0  0  0  0  0  0
  -28.9600  -22.6320   19.9300 N   0  0  0  0  0  0  0  0  0  0  0  0
  -29.8260  -20.0590   19.0590 S   0  0  0  0  0  0  0  0  0  0  0  0
  -29.2200  -22.8050   18.9630 H   0  0  0  0  0  0  0  0  0  0  0  0
  -27.1880  -23.7580   21.2750 C   0  0  0  0  0  1  0  0  0  0  0  0
  -28.5550  -23.9230   20.6000 C   0  0  0  0  0  3  0  0  0  0  0  0
  -28.5540  -25.2390   19.6680 C   0  0  0  0  0  2  0  0  0  0  0  0
  -28.4490  -26.6150   20.2380 O   0  0  0  0  0  0  0  0  0  0  0  0
  -24.6370  -31.9340   23.2800 C   0  0  0  0  0  0  0  0  0  0  0  0
  -27.2970  -27.4220   20.1740 C   0  0  0  0  0  0  0  0  0  0  0  0
  -23.4490  -30.5440   21.6210 C   0  0  0  0  0  3  0  0  0  0  0  0
  -24.9150  -29.0230   20.1740 C   0  0  0  0  0  0  0  0  0  0  0  0
  -25.9840  -30.8870   21.4420 C   0  0  0  0  0  2  0  0  0  0  0  0
  -26.0760  -29.5150   20.7790 C   0  0  0  0  0  0  0  0  0  0  0  0
  -27.2660  -28.7260   20.7680 C   0  0  0  0  0  3  0  0  0  0  0  0
  -26.1040  -26.9800   19.5590 C   0  0  0  0  0  3  0  0  0  0  0  0
  -24.9330  -27.7620   19.5560 C   0  0  0  0  0  3  0  0  0  0  0  0
  -23.6710  -29.8870   20.2300 C   0  0  0  0  0  2  0  0  0  0  0  0
  -24.7090  -31.1400   22.1700 N   0  0  0  0  0  0  0  0  0  0  0  0
  -23.5520  -32.1920   23.8180 O   0  0  0  0  0  0  0  0  0  0  0  0
  -22.7970  -29.5080   22.5680 C   0  0  0  0  0  0  0  0  0  0  0  0
  -21.4730  -29.3190   22.4390 N   0  0  0  0  0  0  0  0  0  0  0  0
  -23.4820  -28.8760   23.3770 O   0  0  0  0  0  0  0  0  0  0  0  0
  -20.9770  -29.8830   21.7630 H   0  0  0  0  0  0  0  0  0  0  0  0
  -18.1060  -28.0870   22.9250 C   0  0  0  0  0  0  0  0  0  0  0  0
  -20.6620  -28.3640   23.1980 C   0  0  0  0  0  3  0  0  0  0  0  0
  -20.7760  -26.9400   22.6050 C   0  0  0  0  0  2  0  0  0  0  0  0
  -19.6780  -26.6220   21.5860 C   0  0  0  0  0  2  0  0  0  0  0  0
  -18.2940  -26.7480   22.2320 C   0  0  0  0  0  2  0  0  0  0  0  0
  -19.2180  -28.8520   23.3640 C   0  0  0  0  0  0  0  0  0  0  0  0
  -18.9890  -30.1050   23.9730 C   0  0  0  0  0  3  0  0  0  0  0  0
  -17.6810  -30.5910   24.1490 C   0  0  0  0  0  3  0  0  0  0  0  0
  -16.5820  -29.8240   23.7270 C   0  0  0  0  0  3  0  0  0  0  0  0
  -16.7960  -28.5740   23.1180 C   0  0  0  0  0  3  0  0  0  0  0  0
  -25.9130  -32.5720   23.9100 C   0  0  0  0  0  3  0  0  0  0  0  0
  -26.4120  -31.8140   25.2020 C   0  0  1  0  0  0  0  0  0  0  0  0
  -25.3050  -31.5880   26.2580 C   0  0  0  0  0  1  0  0  0  0  0  0
  -27.0020  -30.4330   24.8320 C   0  0  0  0  0  1  0  0  0  0  0  0
  -27.5530  -32.6160   25.8710 C   0  0  0  0  0  1  0  0  0  0  0  0
  -25.6000  -33.9740   24.2220 N   0  0  0  0  0  0  0  0  0  0  0  0
  -25.9350  -35.0190   23.4550 C   0  0  0  0  0  0  0  0  0  0  0  0
  -26.6100  -34.9050   22.4280 O   0  0  0  0  0  0  0  0  0  0  0  0
  -24.9990  -34.1350   25.0170 H   0  0  0  0  0  0  0  0  0  0  0  0
  -24.2110  -36.8110   23.0720 C   0  0  0  0  0  1  0  0  0  0  0  0
  -25.4450  -36.4110   23.8960 C   0  0  0  0  0  3  0  0  0  0  0  0
  -27.5680  -37.3090   24.7440 C   0  0  0  0  0  1  0  0  0  0  0  0
  -26.4780  -37.4640   23.7830 N   0  0  0  0  0  0  0  0  0  0  0  0
  -26.0700  -38.3850   23.9170 H   0  0  0  0  0  0  0  0  0  0  0  0
  -30.5430  -17.3710   19.9280 C   0  0  0  0  0  2  0  0  0  0  0  0
  -30.7210  -14.8300   20.0350 C   0  0  0  0  0  0  0  0  0  0  0  0
  -30.4040  -12.6050   18.9740 C   0  0  0  0  0  2  0  0  0  0  0  0
  -29.4100  -12.7400   17.8010 C   0  0  0  0  0  2  0  0  0  0  0  0
  -27.9620  -12.5810   18.3010 C   0  0  0  0  0  2  0  0  0  0  0  0
  -27.6650  -13.4310   19.5650 C   0  0  0  0  0  3  0  0  0  0  0  0
  -28.7780  -13.2980   20.6270 C   0  0  0  0  0  2  0  0  0  0  0  0
  -30.0490  -13.6340   19.9770 N   0  0  0  0  0  0  0  0  0  0  0  0
  -31.8860  -14.9010   19.6340 O   0  0  0  0  0  0  0  0  0  0  0  0
  -30.0240  -15.9930   20.3010 N   0  0  0  0  0  0  0  0  0  0  0  0
  -29.0600  -15.9080   20.5830 H   0  0  0  0  0  0  0  0  0  0  0  0
  -25.3120  -14.0090   20.4070 C   0  0  0  0  0  0  0  0  0  0  0  0
  -24.2660  -13.2280   20.8180 C   0  0  0  0  0  0  0  0  0  0  0  0
  -24.7310  -11.8790   20.7530 C   0  0  0  0  0  0  0  0  0  0  0  0
  -26.3460  -13.1350   20.1140 N   0  0  0  0  0  0  0  0  0  0  0  0
  -26.0070  -11.8490   20.3860 N   0  0  0  0  0  0  0  0  0  0  0  0
  -24.0160  -10.6130   20.9630 C   0  0  0  0  0  0  0  0  0  0  0  0
  -24.4680   -9.6550   21.8970 C   0  0  0  0  0  3  0  0  0  0  0  0
  -23.7530   -8.4540   22.0950 C   0  0  0  0  0  3  0  0  0  0  0  0
  -22.5710   -8.2020   21.3570 C   0  0  0  0  0  0  0  0  0  0  0  0
  -22.1390   -9.1480   20.4110 C   0  0  0  0  0  3  0  0  0  0  0  0
  -22.8540  -10.3410   20.2120 C   0  0  0  0  0  3  0  0  0  0  0  0
  -21.8270   -7.0520   21.4640 O   0  0  0  0  0  0  0  0  0  0  0  0
  -21.7730   -6.3350   22.6320 C   0  0  0  0  0  0  0  0  0  0  0  0
  -21.2900   -6.8990   23.8320 C   0  0  0  0  0  3  0  0  0  0  0  0
  -21.1880   -6.1070   24.9930 C   0  0  0  0  0  3  0  0  0  0  0  0
  -21.5580   -4.7490   24.9530 C   0  0  0  0  0  0  0  0  0  0  0  0
  -22.0350   -4.1830   23.7580 C   0  0  0  0  0  3  0  0  0  0  0  0
  -22.1390   -4.9740   22.6000 C   0  0  0  0  0  0  0  0  0  0  0  0
  -22.5790   -4.4180   21.4440 F   0  0  0  0  0  0  0  0  0  0  0  0
  -21.4540   -3.9840   26.0650 F   0  0  0  0  0  0  0  0  0  0  0  0
  -22.8820  -13.6980   21.1580 C   0  0  0  0  0  0  0  0  0  0  0  0
  -22.1930  -12.9870   22.0430 N   0  0  0  0  0  0  0  0  0  0  0  0
  -22.4220  -14.7330   20.6760 O   0  0  0  0  0  0  0  0  0  0  0  0
  -22.5790  -12.1490   22.4530 H   0  0  0  0  0  0  0  0  0  0  0  0
  -21.2670  -13.2840   22.3150 H   0  0  0  0  0  0  0  0  0  0  0  0
  -25.4630  -15.3820   20.2330 N   0  0  0  0  0  0  0  0  0  0  0  0
  -24.6950  -16.0300   20.3690 H   0  0  0  0  0  0  0  0  0  0  0  0
  -26.2810  -15.8210   19.8300 H   0  0  0  0  0  0  0  0  0  0  0  0
  2  1  2  0
  3  4  2  0
  4  1  1  0
  5  3  1  0
  5  9  1  0
  6  3  1  0
  6  2  1  0
  7  5  1  0
  9  8  1  0
 10 11  1  0
 10  9  1  0
 12 23  2  0
 13 11  1  0
 13 18  1  0
 14 22  1  0
 14 24  1  0
 15 21  1  0
 15 17  1  0
 16 22  1  0
 17 16  1  0
 18 17  2  0
 19 13  2  0
 20 19  1  0
 20 15  2  0
 21 14  1  0
 22 12  1  0
 24 26  2  0
 25 24  1  0
 27 25  1  0
 28 37  2  0
 28 33  1  0
 29 25  1  0
 29 33  1  0
 30 29  1  0
 31 32  1  0
 31 30  1  0
 32 28  1  0
 33 34  2  0
 34 35  1  0
 36 35  2  0
 37 36  1  0
 38 12  1  0
 38 43  1  0
 38 39  1  0
 39 42  1  1
 39 40  1  0
 41 39  1  0
 43 46  1  0
 44 48  1  0
 44 43  1  0
 45 44  2  0
 48 47  1  0
 50 48  1  0
 50 51  1  0
 50 49  1  0
 52  2  1  0
 52 61  1  0
 53 61  1  0
 54 59  1  0
 55 56  1  0
 55 54  1  0
 57 56  1  0
 57 66  1  0
 57 58  1  0
 59 53  1  0
 59 58  1  0
 60 53  2  0
 61 62  1  0
 63 64  2  0
 64 83  1  0
 65 64  1  0
 65 68  1  0
 66 67  1  0
 66 63  1  0
 67 65  2  0
 68 69  1  0
 69 70  2  0
 71 74  1  0
 71 70  1  0
 72 71  2  0
 73 72  1  0
 73 68  2  0
 74 75  1  0
 75 76  1  0
 76 77  2  0
 78 77  1  0
 78 82  1  0
 79 78  2  0
 80 75  2  0
 80 79  1  0
 81 80  1  0
 83 84  1  0
 84 87  1  0
 84 86  1  0
 85 83  2  0
 88 89  1  0
 88 63  1  0
 90 88  1  0
M  ISO  4  10 101  11 101  53 100  61 100
M  END
>  <TORSDO>  (85) 
F 19

>  <SCORE>  (85) 
-13.492

>  <name>  (85) 
84

>  <ligand_id>  (85) 
84

>  <original_smiles>  (85) 
[H]c1nc(N([H])C([H])(C([H])([H])[H])C([H])([H])Oc2c([H])c([H])c3c(c2[H])C([H])([H])N(C(=O)C([H])(N([H])C(=O)C([H])(N([H])C([H])([H])[H])C([H])([H])[H])C(C([H])([H])[H])(C([H])([H])[H])C([H])([H])[H])C([H])(C(=O)N([H])C2([H])c4c([H])c([H])c([H])c([H])c4C([H])([H])C([H])([H])C2([H])[H])C3([H])[H])sc1C([H])([H])N([H])C(=O)N1C([H])([H])C([H])([H])C([H])([H])C([H])(n2nc(-c3c([H])c([H])c(Oc4c([H])c([H])c(F)c([H])c4F)c([H])c3[H])c(C(=O)N([H])[H])c2N([H])[H])C1([H])[H]

>  <smiles>  (85) 
[H]c1nc(N([H])C([H])(C([H])([H])[H])C([H])([H])Oc2c([H])c([H])c3c(c2[H])C([H])([H])N(C(=O)C([H])(N([H])C(=O)C([H])(N([H])C([H])([H])[H])C([H])([H])[H])C(C([H])([H])[H])(C([H])([H])[H])C([H])([H])[H])C([H])(C(=O)N([H])C2([H])c4c([H])c([H])c([H])c([H])c4C([H])([H])C([H])([H])C2([H])[H])C3([H])[H])sc1C([H])([H])N([H])C(=O)N1C([H])([H])C([H])([H])C([H])([H])C([H])(n2nc(-c3c([H])c([H])c(Oc4c([H])c([H])c(F)c([H])c4F)c([H])c3[H])c(C(=O)N([H])[H])c2N([H])[H])C1([H])[H]

$$$$
85:0:0
     RDKit          3D

 94102  0  0  1  0  0  0  0  0999 V2000
  -28.7980  -21.8390   20.8290 N   0  0  0  0  0  0  0  0  0  0  0  0
  -28.8190  -21.6830   21.8350 H   0  0  0  0  0  0  0  0  0  0  0  0
  -29.4360  -19.4370   18.0020 C   0  0  0  0  0  3  0  0  0  0  0  0
  -29.8540  -18.2840   18.7010 C   0  0  0  0  0  3  0  0  0  0  0  0
  -29.1100  -20.6280   18.6890 C   0  0  0  0  0  3  0  0  0  0  0  0
  -29.9470  -18.2950   20.1090 C   0  0  0  0  0  0  0  0  0  0  0  0
  -29.1690  -20.6760   20.1000 C   0  0  0  0  0  0  0  0  0  0  0  0
  -29.5820  -19.4970   20.7940 C   0  0  0  0  0  0  0  0  0  0  0  0
  -29.6400  -19.5340   22.1480 F   0  0  0  0  0  0  0  0  0  0  0  0
  -30.5390  -17.0750   20.8620 C   0  0  0  0  0  2  0  0  0  0  0  0
  -30.8260  -14.6450   20.1010 C   0  0  0  0  0  0  0  0  0  0  0  0
  -30.5310  -12.4400   19.0170 C   0  0  0  0  0  2  0  0  0  0  0  0
  -29.5340  -12.5820   17.8480 C   0  0  0  0  0  2  0  0  0  0  0  0
  -28.0840  -12.4230   18.3480 C   0  0  0  0  0  2  0  0  0  0  0  0
  -27.7810  -13.3010   19.5910 C   0  0  0  0  0  3  0  0  0  0  0  0
  -28.8820  -13.1380   20.6610 C   0  0  0  0  0  2  0  0  0  0  0  0
  -30.1690  -13.4520   20.0220 N   0  0  0  0  0  0  0  0  0  0  0  0
  -31.9770  -14.7940   19.6850 O   0  0  0  0  0  0  0  0  0  0  0  0
  -30.0800  -15.7030   20.5090 N   0  0  0  0  0  0  0  0  0  0  0  0
  -29.1210  -15.4910   20.7340 H   0  0  0  0  0  0  0  0  0  0  0  0
  -25.4290  -13.9200   20.4230 C   0  0  0  0  0  0  0  0  0  0  0  0
  -24.3690  -13.1530   20.8270 C   0  0  0  0  0  0  0  0  0  0  0  0
  -24.8120  -11.7970   20.7510 C   0  0  0  0  0  0  0  0  0  0  0  0
  -26.4510  -13.0320   20.1300 N   0  0  0  0  0  0  0  0  0  0  0  0
  -26.0870  -11.7490   20.3870 N   0  0  0  0  0  0  0  0  0  0  0  0
  -24.0810  -10.5390   20.9470 C   0  0  0  0  0  0  0  0  0  0  0  0
  -24.5060   -9.5760   21.8880 C   0  0  0  0  0  3  0  0  0  0  0  0
  -23.7740   -8.3830   22.0720 C   0  0  0  0  0  3  0  0  0  0  0  0
  -22.6010   -8.1470   21.3160 C   0  0  0  0  0  0  0  0  0  0  0  0
  -22.1930   -9.0990   20.3670 C   0  0  0  0  0  3  0  0  0  0  0  0
  -22.9260  -10.2840   20.1800 C   0  0  0  0  0  3  0  0  0  0  0  0
  -21.8410   -7.0050   21.4080 O   0  0  0  0  0  0  0  0  0  0  0  0
  -21.7480   -6.2970   22.5780 C   0  0  0  0  0  0  0  0  0  0  0  0
  -21.2510   -6.8790   23.7650 C   0  0  0  0  0  3  0  0  0  0  0  0
  -21.1070   -6.0960   24.9270 C   0  0  0  0  0  3  0  0  0  0  0  0
  -21.4490   -4.7300   24.9030 C   0  0  0  0  0  0  0  0  0  0  0  0
  -21.9390   -4.1470   23.7210 C   0  0  0  0  0  3  0  0  0  0  0  0
  -22.0840   -4.9290   22.5610 C   0  0  0  0  0  0  0  0  0  0  0  0
  -22.5360   -4.3570   21.4190 F   0  0  0  0  0  0  0  0  0  0  0  0
  -21.3040   -3.9740   26.0180 F   0  0  0  0  0  0  0  0  0  0  0  0
  -22.9910  -13.6420   21.1640 C   0  0  0  0  0  0  0  0  0  0  0  0
  -22.2870  -12.9330   22.0400 N   0  0  0  0  0  0  0  0  0  0  0  0
  -22.5460  -14.6850   20.6870 O   0  0  0  0  0  0  0  0  0  0  0  0
  -22.6530  -12.0820   22.4400 H   0  0  0  0  0  0  0  0  0  0  0  0
  -21.3640  -13.2440   22.3110 H   0  0  0  0  0  0  0  0  0  0  0  0
  -25.6040  -15.2920   20.2620 N   0  0  0  0  0  0  0  0  0  0  0  0
  -24.8430  -15.9500   20.3930 H   0  0  0  0  0  0  0  0  0  0  0  0
  -26.4390  -15.7240   19.8870 H   0  0  0  0  0  0  0  0  0  0  0  0
  -29.1330  -23.2290   20.4210 C   0  0  0  0  0  2  0  0  0  0  0  0
  -28.3100  -24.2640   21.2610 C   0  0  0  0  0  3  0  0  0  0  0  0
  -26.9540  -24.0070   20.9750 O   0  0  0  0  0  0  0  0  0  0  0  0
  -26.9240  -23.0650   20.8150 H   0  0  0  0  0  0  0  0  0  0  0  0
  -28.6390  -25.8100   21.2920 C   0  0  0  0  0  2  0  0  0  0  0  0
  -28.4190  -26.6360   20.1250 O   0  0  0  0  0  0  0  0  0  0  0  0
  -24.5900  -31.9160   23.1560 C   0  0  0  0  0  0  0  0  0  0  0  0
  -27.2780  -27.4240   20.1510 C   0  0  0  0  0  0  0  0  0  0  0  0
  -23.4030  -30.4840   21.5260 C   0  0  0  0  0  3  0  0  0  0  0  0
  -24.8790  -28.9380   20.1250 C   0  0  0  0  0  0  0  0  0  0  0  0
  -25.9270  -30.8550   21.3340 C   0  0  0  0  0  2  0  0  0  0  0  0
  -26.0320  -29.4700   20.7190 C   0  0  0  0  0  0  0  0  0  0  0  0
  -27.2370  -28.7190   20.7350 C   0  0  0  0  0  3  0  0  0  0  0  0
  -26.1150  -26.9250   19.5380 C   0  0  0  0  0  3  0  0  0  0  0  0
  -24.9170  -27.6650   19.5300 C   0  0  0  0  0  3  0  0  0  0  0  0
  -23.6250  -29.7860   20.1580 C   0  0  0  0  0  2  0  0  0  0  0  0
  -24.6580  -31.1010   22.0640 N   0  0  0  0  0  0  0  0  0  0  0  0
  -23.5050  -32.1880   23.6880 O   0  0  0  0  0  0  0  0  0  0  0  0
  -22.7520  -29.4720   22.4980 C   0  0  0  0  0  0  0  0  0  0  0  0
  -21.4250  -29.2970   22.3810 N   0  0  0  0  0  0  0  0  0  0  0  0
  -23.4380  -28.8470   23.3110 O   0  0  0  0  0  0  0  0  0  0  0  0
  -20.9340  -29.8590   21.6990 H   0  0  0  0  0  0  0  0  0  0  0  0
  -18.0420  -28.1380   22.9240 C   0  0  0  0  0  0  0  0  0  0  0  0
  -20.6070  -28.3640   23.1570 C   0  0  0  0  0  3  0  0  0  0  0  0
  -20.6840  -26.9350   22.5710 C   0  0  0  0  0  2  0  0  0  0  0  0
  -19.5640  -26.6330   21.5710 C   0  0  0  0  0  2  0  0  0  0  0  0
  -18.1930  -26.7900   22.2380 C   0  0  0  0  0  2  0  0  0  0  0  0
  -19.1770  -28.8840   23.3390 C   0  0  0  0  0  0  0  0  0  0  0  0
  -18.9850  -30.1470   23.9410 C   0  0  0  0  0  3  0  0  0  0  0  0
  -17.6890  -30.6640   24.1280 C   0  0  0  0  0  3  0  0  0  0  0  0
  -16.5690  -29.9160   23.7280 C   0  0  0  0  0  3  0  0  0  0  0  0
  -16.7470  -28.6540   23.1340 C   0  0  0  0  0  3  0  0  0  0  0  0
  -25.8690  -32.5630   23.7750 C   0  0  0  0  0  3  0  0  0  0  0  0
  -25.5450  -33.9570   24.1050 N   0  0  0  0  0  0  0  0  0  0  0  0
  -25.8590  -35.0120   23.3420 C   0  0  0  0  0  0  0  0  0  0  0  0
  -26.5240  -34.9170   22.3060 O   0  0  0  0  0  0  0  0  0  0  0  0
  -24.9500  -34.1050   24.9070 H   0  0  0  0  0  0  0  0  0  0  0  0
  -24.1070  -36.7820   22.9910 C   0  0  0  0  0  1  0  0  0  0  0  0
  -25.3560  -36.3940   23.7980 C   0  0  0  0  0  3  0  0  0  0  0  0
  -27.4800  -37.3090   24.6220 C   0  0  0  0  0  1  0  0  0  0  0  0
  -26.3750  -37.4610   23.6790 N   0  0  0  0  0  0  0  0  0  0  0  0
  -25.9570  -38.3750   23.8290 H   0  0  0  0  0  0  0  0  0  0  0  0
  -26.3990  -31.7960   25.0480 C   0  0  1  0  0  0  0  0  0  0  0  0
  -25.3100  -31.5350   26.1150 C   0  0  0  0  0  1  0  0  0  0  0  0
  -27.0050  -30.4310   24.6470 C   0  0  0  0  0  1  0  0  0  0  0  0
  -27.5350  -32.6080   25.7150 C   0  0  0  0  0  1  0  0  0  0  0  0
  1  2  1  0
  3  5  2  0
  3  4  1  0
  4  6  2  0
  5  7  1  0
  6  8  1  0
  6 10  1  0
  7  8  2  0
  7  1  1  0
  8  9  1  0
 11 19  1  0
 12 17  1  0
 13 14  1  0
 13 12  1  0
 15 14  1  0
 15 24  1  0
 15 16  1  0
 17 11  1  0
 17 16  1  0
 18 11  2  0
 19 20  1  0
 19 10  1  0
 21 22  2  0
 22 41  1  0
 23 22  1  0
 23 26  1  0
 24 25  1  0
 24 21  1  0
 25 23  2  0
 26 27  1  0
 27 28  2  0
 29 32  1  0
 29 28  1  0
 30 29  2  0
 31 30  1  0
 31 26  2  0
 32 33  1  0
 33 34  1  0
 34 35  2  0
 36 35  1  0
 36 40  1  0
 37 36  2  0
 38 33  2  0
 38 37  1  0
 39 38  1  0
 41 42  1  0
 42 45  1  0
 42 44  1  0
 43 41  2  0
 46 47  1  0
 46 21  1  0
 48 46  1  0
 49  1  1  0
 50 49  1  0
 50 53  1  0
 51 50  1  0
 52 51  1  0
 54 56  1  0
 54 53  1  0
 55 66  2  0
 56 61  1  0
 57 65  1  0
 57 67  1  0
 58 64  1  0
 58 60  1  0
 59 65  1  0
 60 61  2  0
 60 59  1  0
 62 56  2  0
 63 62  1  0
 63 58  2  0
 64 57  1  0
 65 55  1  0
 67 69  2  0
 68 67  1  0
 70 68  1  0
 71 80  2  0
 71 76  1  0
 72 68  1  0
 72 76  1  0
 73 72  1  0
 74 75  1  0
 74 73  1  0
 75 71  1  0
 76 77  2  0
 77 78  1  0
 79 78  2  0
 80 79  1  0
 81 55  1  0
 81 82  1  0
 81 91  1  0
 82 85  1  0
 83 87  1  0
 83 82  1  0
 84 83  2  0
 87 86  1  0
 89 87  1  0
 89 90  1  0
 89 88  1  0
 91 94  1  1
 91 92  1  0
 93 91  1  0
M  ISO  4  11 100  19 100  53 101  54 101
M  END
>  <TORSDO>  (86) 
F 22

>  <SCORE>  (86) 
-13.016

>  <name>  (86) 
85

>  <ligand_id>  (86) 
85

>  <original_smiles>  (86) 
[H]OC([H])(C([H])([H])Oc1c([H])c([H])c2c(c1[H])C([H])([H])N(C(=O)C([H])(N([H])C(=O)C([H])(N([H])C([H])([H])[H])C([H])([H])[H])C(C([H])([H])[H])(C([H])([H])[H])C([H])([H])[H])C([H])(C(=O)N([H])C1([H])c3c([H])c([H])c([H])c([H])c3C([H])([H])C([H])([H])C1([H])[H])C2([H])[H])C([H])([H])N([H])c1c([H])c([H])c([H])c(C([H])([H])N([H])C(=O)N2C([H])([H])C([H])([H])C([H])([H])C([H])(n3nc(-c4c([H])c([H])c(Oc5c([H])c([H])c(F)c([H])c5F)c([H])c4[H])c(C(=O)N([H])[H])c3N([H])[H])C2([H])[H])c1F

>  <smiles>  (86) 
[H]OC([H])(C([H])([H])Oc1c([H])c([H])c2c(c1[H])C([H])([H])N(C(=O)C([H])(N([H])C(=O)C([H])(N([H])C([H])([H])[H])C([H])([H])[H])C(C([H])([H])[H])(C([H])([H])[H])C([H])([H])[H])C([H])(C(=O)N([H])C1([H])c3c([H])c([H])c([H])c([H])c3C([H])([H])C([H])([H])C1([H])[H])C2([H])[H])C([H])([H])N([H])c1c([H])c([H])c([H])c(C([H])([H])N([H])C(=O)N2C([H])([H])C([H])([H])C([H])([H])C([H])(n3nc(-c4c([H])c([H])c(Oc5c([H])c([H])c(F)c([H])c5F)c([H])c4[H])c(C(=O)N([H])[H])c3N([H])[H])C2([H])[H])c1F

$$$$
86:0:0
     RDKit          3D

 93101  0  0  1  0  0  0  0  0999 V2000
  -29.2770  -21.6940   20.2720 N   0  0  0  0  0  4  0  0  0  0  0  0
  -28.6580  -21.6900   21.0640 H   0  0  0  0  0  0  0  0  0  0  0  0
  -30.2210  -21.7430   20.6150 H   0  0  0  0  0  0  0  0  0  0  0  0
  -29.1190  -20.4030   19.5420 C   0  0  0  0  0  2  0  0  0  0  0  0
  -30.6260  -14.5450   20.4040 C   0  0  0  0  0  0  0  0  0  0  0  0
  -30.3450  -12.3500   19.3170 C   0  0  0  0  0  2  0  0  0  0  0  0
  -29.3980  -12.5440   18.1150 C   0  0  0  0  0  2  0  0  0  0  0  0
  -27.9260  -12.3960   18.5510 C   0  0  0  0  0  2  0  0  0  0  0  0
  -27.5880  -13.2420   19.8070 C   0  0  0  0  0  3  0  0  0  0  0  0
  -28.6550  -13.0550   20.9100 C   0  0  0  0  0  2  0  0  0  0  0  0
  -29.9700  -13.3530   20.3230 N   0  0  0  0  0  0  0  0  0  0  0  0
  -31.8030  -14.6750   20.0550 O   0  0  0  0  0  0  0  0  0  0  0  0
  -29.8420  -19.1860   20.1480 C   0  0  0  0  0  0  0  0  0  0  0  0
  -30.1770  -17.0030   20.5630 C   0  0  0  0  0  3  0  0  0  0  0  0
  -29.3010  -17.9370   20.1650 N   0  0  0  0  0  0  0  0  0  0  0  0
  -31.1030  -19.2710   20.6260 N   0  0  0  0  0  2  0  0  0  0  0  0
  -29.8310  -15.6160   20.6280 N   0  0  0  0  0  0  0  0  0  0  0  0
  -31.6980  -17.7230   21.0040 S   0  0  0  0  0  0  0  0  0  0  0  0
  -28.8520  -15.4080   20.7370 H   0  0  0  0  0  0  0  0  0  0  0  0
  -25.1970  -13.8510   20.5340 C   0  0  0  0  0  0  0  0  0  0  0  0
  -24.1300  -13.0800   20.9060 C   0  0  0  0  0  0  0  0  0  0  0  0
  -24.5890  -11.7280   20.8760 C   0  0  0  0  0  0  0  0  0  0  0  0
  -26.2400  -12.9680   20.2980 N   0  0  0  0  0  0  0  0  0  0  0  0
  -25.8790  -11.6860   20.5640 N   0  0  0  0  0  0  0  0  0  0  0  0
  -23.8620  -10.4660   21.0680 C   0  0  0  0  0  0  0  0  0  0  0  0
  -24.3080   -9.4870   21.9830 C   0  0  0  0  0  3  0  0  0  0  0  0
  -23.5800   -8.2910   22.1640 C   0  0  0  0  0  3  0  0  0  0  0  0
  -22.3930   -8.0650   21.4270 C   0  0  0  0  0  0  0  0  0  0  0  0
  -21.9670   -9.0320   20.4990 C   0  0  0  0  0  3  0  0  0  0  0  0
  -22.6960  -10.2190   20.3170 C   0  0  0  0  0  3  0  0  0  0  0  0
  -21.6360   -6.9220   21.5190 O   0  0  0  0  0  0  0  0  0  0  0  0
  -21.6180   -6.1600   22.6580 C   0  0  0  0  0  0  0  0  0  0  0  0
  -21.2460   -6.6970   23.9100 C   0  0  0  0  0  3  0  0  0  0  0  0
  -21.1770   -5.8620   25.0420 C   0  0  0  0  0  3  0  0  0  0  0  0
  -21.4670   -4.4890   24.9240 C   0  0  0  0  0  0  0  0  0  0  0  0
  -21.8310   -3.9510   23.6780 C   0  0  0  0  0  3  0  0  0  0  0  0
  -21.9040   -4.7830   22.5470 C   0  0  0  0  0  0  0  0  0  0  0  0
  -22.2350   -4.2560   21.3440 F   0  0  0  0  0  0  0  0  0  0  0  0
  -21.3920   -3.6840   26.0100 F   0  0  0  0  0  0  0  0  0  0  0  0
  -22.7330  -13.5600   21.1820 C   0  0  0  0  0  0  0  0  0  0  0  0
  -22.0080  -12.8620   22.0500 N   0  0  0  0  0  0  0  0  0  0  0  0
  -22.2940  -14.5850   20.6640 O   0  0  0  0  0  0  0  0  0  0  0  0
  -22.3730  -12.0320   22.4920 H   0  0  0  0  0  0  0  0  0  0  0  0
  -21.0710  -13.1660   22.2790 H   0  0  0  0  0  0  0  0  0  0  0  0
  -25.3620  -15.2220   20.3560 N   0  0  0  0  0  0  0  0  0  0  0  0
  -24.5970  -15.8790   20.4750 H   0  0  0  0  0  0  0  0  0  0  0  0
  -26.2060  -15.6630   20.0170 H   0  0  0  0  0  0  0  0  0  0  0  0
  -28.9890  -22.9110   19.4530 C   0  0  0  0  0  2  0  0  0  0  0  0
  -28.6910  -24.1980   20.2870 C   0  0  0  0  0  3  0  0  0  0  0  0
  -27.4730  -23.9700   20.9830 O   0  0  0  0  0  0  0  0  0  0  0  0
  -26.7620  -24.3240   20.4580 H   0  0  0  0  0  0  0  0  0  0  0  0
  -28.5480  -25.4750   19.3960 C   0  0  0  0  0  2  0  0  0  0  0  0
  -28.4100  -26.7130   20.1340 O   0  0  0  0  0  0  0  0  0  0  0  0
  -24.6020  -31.8960   23.2490 C   0  0  0  0  0  0  0  0  0  0  0  0
  -27.2140  -27.4200   20.1400 C   0  0  0  0  0  0  0  0  0  0  0  0
  -23.3820  -30.4980   21.6190 C   0  0  0  0  0  3  0  0  0  0  0  0
  -24.8200  -28.9520   20.1890 C   0  0  0  0  0  0  0  0  0  0  0  0
  -25.9130  -30.8380   21.4090 C   0  0  0  0  0  2  0  0  0  0  0  0
  -25.9870  -29.4650   20.7660 C   0  0  0  0  0  0  0  0  0  0  0  0
  -27.1810  -28.7040   20.7400 C   0  0  0  0  0  3  0  0  0  0  0  0
  -26.0120  -26.9220   19.5780 C   0  0  0  0  0  3  0  0  0  0  0  0
  -24.8280  -27.6790   19.5990 C   0  0  0  0  0  3  0  0  0  0  0  0
  -23.5820  -29.8170   20.2380 C   0  0  0  0  0  2  0  0  0  0  0  0
  -24.6510  -31.0940   22.1480 N   0  0  0  0  0  0  0  0  0  0  0  0
  -23.5240  -32.1700   23.7950 O   0  0  0  0  0  0  0  0  0  0  0  0
  -22.7330  -29.4780   22.5820 C   0  0  0  0  0  0  0  0  0  0  0  0
  -21.4080  -29.2950   22.4580 N   0  0  0  0  0  0  0  0  0  0  0  0
  -23.4190  -28.8530   23.3960 O   0  0  0  0  0  0  0  0  0  0  0  0
  -20.9150  -29.8520   21.7720 H   0  0  0  0  0  0  0  0  0  0  0  0
  -18.0360  -28.0950   22.9600 C   0  0  0  0  0  0  0  0  0  0  0  0
  -20.5920  -28.3590   23.2330 C   0  0  0  0  0  3  0  0  0  0  0  0
  -20.6980  -26.9240   22.6620 C   0  0  0  0  0  2  0  0  0  0  0  0
  -19.5980  -26.5960   21.6490 C   0  0  0  0  0  2  0  0  0  0  0  0
  -18.2160  -26.7420   22.2910 C   0  0  0  0  0  2  0  0  0  0  0  0
  -19.1530  -28.8620   23.3870 C   0  0  0  0  0  0  0  0  0  0  0  0
  -18.9300  -30.1280   23.9690 C   0  0  0  0  0  3  0  0  0  0  0  0
  -17.6240  -30.6270   24.1300 C   0  0  0  0  0  3  0  0  0  0  0  0
  -16.5230  -29.8570   23.7180 C   0  0  0  0  0  3  0  0  0  0  0  0
  -16.7300  -28.5930   23.1390 C   0  0  0  0  0  3  0  0  0  0  0  0
  -25.8920  -32.5250   23.8620 C   0  0  0  0  0  3  0  0  0  0  0  0
  -25.5860  -33.9220   24.1940 N   0  0  0  0  0  0  0  0  0  0  0  0
  -25.9150  -34.9750   23.4320 C   0  0  0  0  0  0  0  0  0  0  0  0
  -26.5790  -34.8710   22.3960 O   0  0  0  0  0  0  0  0  0  0  0  0
  -24.9980  -34.0760   25.0000 H   0  0  0  0  0  0  0  0  0  0  0  0
  -24.1830  -36.7670   23.0860 C   0  0  0  0  0  1  0  0  0  0  0  0
  -25.4290  -36.3630   23.8910 C   0  0  0  0  0  3  0  0  0  0  0  0
  -27.5720  -37.2460   24.7060 C   0  0  0  0  0  1  0  0  0  0  0  0
  -26.4620  -37.4160   23.7710 N   0  0  0  0  0  0  0  0  0  0  0  0
  -26.0570  -38.3360   23.9220 H   0  0  0  0  0  0  0  0  0  0  0  0
  -26.4170  -31.7530   25.1350 C   0  0  1  0  0  0  0  0  0  0  0  0
  -25.3330  -31.5150   26.2120 C   0  0  0  0  0  1  0  0  0  0  0  0
  -26.9950  -30.3740   24.7370 C   0  0  0  0  0  1  0  0  0  0  0  0
  -27.5740  -32.5430   25.7870 C   0  0  0  0  0  1  0  0  0  0  0  0
  1  3  1  0
  1  2  1  0
  4 13  1  0
  4  1  1  0
  5 17  1  0
  6 11  1  0
  7  8  1  0
  7  6  1  0
  9  8  1  0
  9 23  1  0
  9 10  1  0
 11  5  1  0
 11 10  1  0
 12  5  2  0
 13 15  2  0
 13 16  1  0
 14 17  1  0
 14 18  1  0
 15 14  1  0
 16 18  1  0
 17 19  1  0
 20 21  2  0
 21 40  1  0
 22 21  1  0
 22 25  1  0
 23 20  1  0
 23 24  1  0
 24 22  2  0
 25 26  1  0
 26 27  2  0
 28 31  1  0
 28 27  1  0
 29 28  2  0
 30 29  1  0
 30 25  2  0
 31 32  1  0
 32 33  1  0
 33 34  2  0
 35 34  1  0
 35 39  1  0
 36 35  2  0
 37 32  2  0
 37 36  1  0
 38 37  1  0
 40 41  1  0
 41 44  1  0
 41 43  1  0
 42 40  2  0
 45 46  1  0
 45 20  1  0
 47 45  1  0
 48  1  1  0
 48 49  1  0
 49 52  1  0
 49 50  1  0
 51 50  1  0
 52 53  1  0
 53 55  1  0
 54 65  2  0
 55 60  1  0
 56 64  1  0
 56 66  1  0
 57 63  1  0
 57 59  1  0
 58 64  1  0
 59 58  1  0
 60 59  2  0
 61 62  1  0
 61 55  2  0
 62 57  2  0
 63 56  1  0
 64 54  1  0
 66 68  2  0
 67 66  1  0
 69 67  1  0
 70 79  2  0
 70 75  1  0
 71 67  1  0
 71 75  1  0
 72 71  1  0
 73 74  1  0
 73 72  1  0
 74 70  1  0
 75 76  2  0
 76 77  1  0
 78 77  2  0
 79 78  1  0
 80 54  1  0
 80 81  1  0
 80 90  1  0
 81 84  1  0
 82 86  1  0
 82 81  1  0
 83 82  2  0
 86 85  1  0
 88 86  1  0
 88 89  1  0
 88 87  1  0
 90 93  1  1
 90 91  1  0
 92 90  1  0
M  ISO  4   5 100  17 100  52 101  53 101
M  END
>  <TORSDO>  (87) 
F 21

>  <SCORE>  (87) 
-13.649

>  <name>  (87) 
86

>  <ligand_id>  (87) 
86

>  <original_smiles>  (87) 
[H]OC([H])(C([H])([H])Oc1c([H])c([H])c2c(c1[H])C([H])([H])N(C(=O)C([H])(N([H])C(=O)C([H])(N([H])C([H])([H])[H])C([H])([H])[H])C(C([H])([H])[H])(C([H])([H])[H])C([H])([H])[H])C([H])(C(=O)N([H])C1([H])c3c([H])c([H])c([H])c([H])c3C([H])([H])C([H])([H])C1([H])[H])C2([H])[H])C([H])([H])[N+]([H])([H])C([H])([H])c1nsc(N([H])C(=O)N2C([H])([H])C([H])([H])C([H])([H])C([H])(n3nc(-c4c([H])c([H])c(Oc5c([H])c([H])c(F)c([H])c5F)c([H])c4[H])c(C(=O)N([H])[H])c3N([H])[H])C2([H])[H])n1

>  <smiles>  (87) 
[H]OC([H])(C([H])([H])Oc1c([H])c([H])c2c(c1[H])C([H])([H])N(C(=O)C([H])(N([H])C(=O)C([H])(N([H])C([H])([H])[H])C([H])([H])[H])C(C([H])([H])[H])(C([H])([H])[H])C([H])([H])[H])C([H])(C(=O)N([H])C1([H])c3c([H])c([H])c([H])c([H])c3C([H])([H])C([H])([H])C1([H])[H])C2([H])[H])C([H])([H])[N+]([H])([H])C([H])([H])c1nsc(N([H])C(=O)N2C([H])([H])C([H])([H])C([H])([H])C([H])(n3nc(-c4c([H])c([H])c(Oc5c([H])c([H])c(F)c([H])c5F)c([H])c4[H])c(C(=O)N([H])[H])c3N([H])[H])C2([H])[H])n1

$$$$
87:0:0
     RDKit          3D

 93101  0  0  1  0  0  0  0  0999 V2000
  -30.1900  -21.7120   20.3090 N   0  0  0  0  0  4  0  0  0  0  0  0
  -30.9700  -22.2110   19.9140 H   0  0  0  0  0  0  0  0  0  0  0  0
  -30.4370  -21.5880   21.2800 H   0  0  0  0  0  0  0  0  0  0  0  0
  -29.3970  -20.3310   18.2950 C   0  0  0  0  0  1  0  0  0  0  0  0
  -30.2660  -20.3890   19.5670 C   0  0  0  0  0  3  0  0  0  0  0  0
  -30.9000  -14.5890   19.7680 C   0  0  0  0  0  0  0  0  0  0  0  0
  -30.5220  -12.4780   18.4990 C   0  0  0  0  0  2  0  0  0  0  0  0
  -29.4460  -12.7300   17.4170 C   0  0  0  0  0  2  0  0  0  0  0  0
  -28.0260  -12.5590   17.9940 C   0  0  0  0  0  2  0  0  0  0  0  0
  -27.8350  -13.3340   19.3240 C   0  0  0  0  0  3  0  0  0  0  0  0
  -28.9950  -13.0170   20.2950 C   0  0  0  0  0  2  0  0  0  0  0  0
  -30.2610  -13.3850   19.6300 N   0  0  0  0  0  0  0  0  0  0  0  0
  -31.9170  -14.8690   19.1210 O   0  0  0  0  0  0  0  0  0  0  0  0
  -30.1230  -19.0610   20.3660 C   0  0  0  0  0  3  0  0  0  0  0  0
  -30.1550  -16.8410   20.8160 C   0  0  0  0  0  0  0  0  0  0  0  0
  -30.5580  -17.8310   19.9740 N   0  0  0  0  0  0  0  0  0  0  0  0
  -29.4280  -17.2150   21.8820 N   0  0  0  0  0  2  0  0  0  0  0  0
  -30.3310  -15.4160   20.6830 N   0  0  0  0  0  0  0  0  0  0  0  0
  -29.2100  -18.8900   21.8470 S   0  0  0  0  0  0  0  0  0  0  0  0
  -29.7190  -14.9020   21.2970 H   0  0  0  0  0  0  0  0  0  0  0  0
  -25.5290  -13.9450   20.2970 C   0  0  0  0  0  0  0  0  0  0  0  0
  -24.4940  -13.1710   20.7500 C   0  0  0  0  0  0  0  0  0  0  0  0
  -24.9290  -11.8170   20.6210 C   0  0  0  0  0  0  0  0  0  0  0  0
  -26.5330  -13.0600   19.9280 N   0  0  0  0  0  0  0  0  0  0  0  0
  -26.1800  -11.7740   20.1770 N   0  0  0  0  0  0  0  0  0  0  0  0
  -24.2090  -10.5570   20.8380 C   0  0  0  0  0  0  0  0  0  0  0  0
  -24.6670   -9.5940   21.7650 C   0  0  0  0  0  3  0  0  0  0  0  0
  -23.9470   -8.3960   21.9680 C   0  0  0  0  0  3  0  0  0  0  0  0
  -22.7550   -8.1540   21.2440 C   0  0  0  0  0  0  0  0  0  0  0  0
  -22.3180   -9.1050   20.3050 C   0  0  0  0  0  3  0  0  0  0  0  0
  -23.0370  -10.2940   20.1010 C   0  0  0  0  0  3  0  0  0  0  0  0
  -22.0030   -7.0100   21.3600 O   0  0  0  0  0  0  0  0  0  0  0  0
  -21.9140   -6.3240   22.5440 C   0  0  0  0  0  0  0  0  0  0  0  0
  -21.4300   -6.9310   23.7240 C   0  0  0  0  0  3  0  0  0  0  0  0
  -21.2880   -6.1690   24.9000 C   0  0  0  0  0  3  0  0  0  0  0  0
  -21.6190   -4.8010   24.8980 C   0  0  0  0  0  0  0  0  0  0  0  0
  -22.0980   -4.1940   23.7240 C   0  0  0  0  0  3  0  0  0  0  0  0
  -22.2410   -4.9530   22.5490 C   0  0  0  0  0  0  0  0  0  0  0  0
  -22.6800   -4.3570   21.4140 F   0  0  0  0  0  0  0  0  0  0  0  0
  -21.4770   -4.0660   26.0270 F   0  0  0  0  0  0  0  0  0  0  0  0
  -23.1390  -13.6520   21.1880 C   0  0  0  0  0  0  0  0  0  0  0  0
  -22.5130  -12.9490   22.1260 N   0  0  0  0  0  0  0  0  0  0  0  0
  -22.6480  -14.6830   20.7320 O   0  0  0  0  0  0  0  0  0  0  0  0
  -22.9240  -12.1120   22.5120 H   0  0  0  0  0  0  0  0  0  0  0  0
  -21.6100  -13.2510   22.4630 H   0  0  0  0  0  0  0  0  0  0  0  0
  -25.6890  -15.3190   20.1520 N   0  0  0  0  0  0  0  0  0  0  0  0
  -24.9400  -15.9700   20.3620 H   0  0  0  0  0  0  0  0  0  0  0  0
  -26.4940  -15.7680   19.7340 H   0  0  0  0  0  0  0  0  0  0  0  0
  -27.8700  -22.3000   21.1120 C   0  0  0  0  0  1  0  0  0  0  0  0
  -29.0240  -22.6690   20.1450 C   0  0  0  0  0  3  0  0  0  0  0  0
  -29.4200  -24.1960   20.2960 C   0  0  0  0  0  2  0  0  0  0  0  0
  -28.3580  -25.1850   19.7030 C   0  0  0  0  0  2  0  0  0  0  0  0
  -28.4830  -26.5960   20.0130 O   0  0  0  0  0  0  0  0  0  0  0  0
  -24.5130  -31.7120   23.0300 C   0  0  0  0  0  0  0  0  0  0  0  0
  -27.3150  -27.3550   19.9400 C   0  0  0  0  0  0  0  0  0  0  0  0
  -23.3760  -30.3200   21.3370 C   0  0  0  0  0  3  0  0  0  0  0  0
  -24.8920  -28.8490   19.9040 C   0  0  0  0  0  0  0  0  0  0  0  0
  -25.9000  -30.7260   21.2040 C   0  0  0  0  0  2  0  0  0  0  0  0
  -26.0260  -29.3680   20.5410 C   0  0  0  0  0  0  0  0  0  0  0  0
  -27.2390  -28.6290   20.5580 C   0  0  0  0  0  3  0  0  0  0  0  0
  -26.1610  -26.8830   19.2630 C   0  0  0  0  0  3  0  0  0  0  0  0
  -24.9600  -27.6100   19.2540 C   0  0  0  0  0  3  0  0  0  0  0  0
  -23.6290  -29.6840   19.9440 C   0  0  0  0  0  2  0  0  0  0  0  0
  -24.6140  -30.9330   21.9160 N   0  0  0  0  0  0  0  0  0  0  0  0
  -23.4130  -31.9530   23.5480 O   0  0  0  0  0  0  0  0  0  0  0  0
  -22.7240  -29.2630   22.2590 C   0  0  0  0  0  0  0  0  0  0  0  0
  -21.4050  -29.0710   22.1140 N   0  0  0  0  0  0  0  0  0  0  0  0
  -23.4060  -28.6230   23.0640 O   0  0  0  0  0  0  0  0  0  0  0  0
  -20.9150  -29.6410   21.4390 H   0  0  0  0  0  0  0  0  0  0  0  0
  -18.0290  -27.8480   22.5600 C   0  0  0  0  0  0  0  0  0  0  0  0
  -20.5870  -28.1040   22.8480 C   0  0  0  0  0  3  0  0  0  0  0  0
  -20.6930  -26.6930   22.2260 C   0  0  0  0  0  2  0  0  0  0  0  0
  -19.5960  -26.4020   21.1990 C   0  0  0  0  0  2  0  0  0  0  0  0
  -18.2100  -26.5220   21.8420 C   0  0  0  0  0  2  0  0  0  0  0  0
  -19.1470  -28.5970   23.0180 C   0  0  0  0  0  0  0  0  0  0  0  0
  -18.9250  -29.8380   23.6510 C   0  0  0  0  0  3  0  0  0  0  0  0
  -17.6210  -30.3340   23.8310 C   0  0  0  0  0  3  0  0  0  0  0  0
  -16.5170  -29.5820   23.3880 C   0  0  0  0  0  3  0  0  0  0  0  0
  -16.7230  -28.3430   22.7590 C   0  0  0  0  0  3  0  0  0  0  0  0
  -25.7700  -32.3560   23.6890 C   0  0  0  0  0  3  0  0  0  0  0  0
  -26.2780  -31.5680   24.9580 C   0  0  1  0  0  0  0  0  0  0  0  0
  -25.1650  -31.2790   25.9950 C   0  0  0  0  0  1  0  0  0  0  0  0
  -26.9070  -30.2180   24.5420 C   0  0  0  0  0  1  0  0  0  0  0  0
  -27.3940  -32.3740   25.6620 C   0  0  0  0  0  1  0  0  0  0  0  0
  -25.4220  -33.7390   24.0450 N   0  0  0  0  0  0  0  0  0  0  0  0
  -25.7520  -34.8170   23.3250 C   0  0  0  0  0  0  0  0  0  0  0  0
  -26.4570  -34.7550   22.3130 O   0  0  0  0  0  0  0  0  0  0  0  0
  -24.7980  -33.8560   24.8320 H   0  0  0  0  0  0  0  0  0  0  0  0
  -24.0050  -36.5860   22.9460 C   0  0  0  0  0  1  0  0  0  0  0  0
  -25.2180  -36.1820   23.8000 C   0  0  0  0  0  3  0  0  0  0  0  0
  -27.2970  -37.0840   24.7450 C   0  0  0  0  0  1  0  0  0  0  0  0
  -26.2330  -37.2580   23.7590 N   0  0  0  0  0  0  0  0  0  0  0  0
  -25.8050  -38.1670   23.9110 H   0  0  0  0  0  0  0  0  0  0  0  0
  1  3  1  0
  2  1  1  0
  5  4  1  0
  5  1  1  0
  6 18  1  0
  7 12  1  0
  8  9  1  0
  8  7  1  0
 10  9  1  0
 10 24  1  0
 10 11  1  0
 12  6  1  0
 12 11  1  0
 13  6  2  0
 14  5  1  0
 14 19  1  0
 15 17  1  0
 16 14  1  0
 16 15  2  0
 18 15  1  0
 18 20  1  0
 19 17  1  0
 21 22  2  0
 22 41  1  0
 23 22  1  0
 23 26  1  0
 24 25  1  0
 24 21  1  0
 25 23  2  0
 26 27  1  0
 27 28  2  0
 29 32  1  0
 29 28  1  0
 30 29  2  0
 31 30  1  0
 31 26  2  0
 32 33  1  0
 33 38  2  0
 33 34  1  0
 34 35  2  0
 36 35  1  0
 36 40  1  0
 37 36  2  0
 38 37  1  0
 39 38  1  0
 41 42  1  0
 42 45  1  0
 42 44  1  0
 43 41  2  0
 46 21  1  0
 46 47  1  0
 48 46  1  0
 50 51  1  0
 50  1  1  0
 50 49  1  0
 52 53  1  0
 52 51  1  0
 54 65  2  0
 55 53  1  0
 55 60  1  0
 56 64  1  0
 56 66  1  0
 57 63  1  0
 57 59  1  0
 58 64  1  0
 59 60  2  0
 59 58  1  0
 61 55  2  0
 62 61  1  0
 62 57  2  0
 63 56  1  0
 64 54  1  0
 66 68  2  0
 67 66  1  0
 69 67  1  0
 70 79  2  0
 70 75  1  0
 71 67  1  0
 71 75  1  0
 72 71  1  0
 73 74  1  0
 73 72  1  0
 74 70  1  0
 75 76  2  0
 76 77  1  0
 78 77  2  0
 79 78  1  0
 80 54  1  0
 80 85  1  0
 80 81  1  0
 81 84  1  1
 81 82  1  0
 83 81  1  0
 85 88  1  0
 86 90  1  0
 86 85  1  0
 87 86  2  0
 90 89  1  0
 92 90  1  0
 92 93  1  0
 92 91  1  0
M  ISO  4   6 100  18 100  52 101  53 101
M  END
>  <TORSDO>  (88) 
F 20

>  <SCORE>  (88) 
-11.297

>  <name>  (88) 
87

>  <ligand_id>  (88) 
87

>  <original_smiles>  (88) 
[H]c1c([H])c([H])c2c(c1[H])C([H])([H])C([H])([H])C([H])([H])C2([H])N([H])C(=O)C1([H])N(C(=O)C([H])(N([H])C(=O)C([H])(N([H])C([H])([H])[H])C([H])([H])[H])C(C([H])([H])[H])(C([H])([H])[H])C([H])([H])[H])C([H])([H])c2c([H])c(OC([H])([H])C([H])([H])C([H])(C([H])([H])[H])[N+]([H])([H])C([H])(c3nc(N([H])C(=O)N4C([H])([H])C([H])([H])C([H])([H])C([H])(n5nc(-c6c([H])c([H])c(Oc7c([H])c([H])c(F)c([H])c7F)c([H])c6[H])c(C(=O)N([H])[H])c5N([H])[H])C4([H])[H])ns3)C([H])([H])[H])c([H])c([H])c2C1([H])[H]

>  <smiles>  (88) 
[H]c1c([H])c([H])c2c(c1[H])C([H])([H])C([H])([H])C([H])([H])C2([H])N([H])C(=O)C1([H])N(C(=O)C([H])(N([H])C(=O)C([H])(N([H])C([H])([H])[H])C([H])([H])[H])C(C([H])([H])[H])(C([H])([H])[H])C([H])([H])[H])C([H])([H])c2c([H])c(OC([H])([H])C([H])([H])C([H])(C([H])([H])[H])[N+]([H])([H])C([H])(c3nc(N([H])C(=O)N4C([H])([H])C([H])([H])C([H])([H])C([H])(n5nc(-c6c([H])c([H])c(Oc7c([H])c([H])c(F)c([H])c7F)c([H])c6[H])c(C(=O)N([H])[H])c5N([H])[H])C4([H])[H])ns3)C([H])([H])[H])c([H])c([H])c2C1([H])[H]

$$$$
88:0:0
     RDKit          3D

 93101  0  0  1  0  0  0  0  0999 V2000
  -30.9920  -22.2330   21.5750 C   0  0  0  0  0  1  0  0  0  0  0  0
  -29.5970  -21.7830   21.0900 C   0  0  0  0  0  3  0  0  0  0  0  0
  -29.6450  -20.4520   20.4410 N   0  0  0  0  0  0  0  0  0  0  0  0
  -29.1410  -20.3790   19.5610 H   0  0  0  0  0  0  0  0  0  0  0  0
  -30.6150  -14.5640   20.1910 C   0  0  0  0  0  0  0  0  0  0  0  0
  -30.3170  -12.4120   19.0010 C   0  0  0  0  0  2  0  0  0  0  0  0
  -29.3230  -12.6310   17.8400 C   0  0  0  0  0  2  0  0  0  0  0  0
  -27.8670  -12.4760   18.3220 C   0  0  0  0  0  2  0  0  0  0  0  0
  -27.5750  -13.2880   19.6130 C   0  0  0  0  0  3  0  0  0  0  0  0
  -28.6700  -13.0400   20.6750 C   0  0  0  0  0  2  0  0  0  0  0  0
  -29.9670  -13.3740   20.0610 N   0  0  0  0  0  0  0  0  0  0  0  0
  -31.7570  -14.7560   19.7600 O   0  0  0  0  0  0  0  0  0  0  0  0
  -30.7080  -18.9700   22.1820 C   0  0  0  0  0  3  0  0  0  0  0  0
  -30.0270  -19.2030   21.0090 C   0  0  0  0  0  0  0  0  0  0  0  0
  -30.1800  -16.8980   20.9770 C   0  0  0  0  0  0  0  0  0  0  0  0
  -29.6970  -17.9950   20.3600 N   0  0  0  0  0  0  0  0  0  0  0  0
  -29.8160  -15.5810   20.5830 N   0  0  0  0  0  0  0  0  0  0  0  0
  -31.0530  -17.2740   22.4510 S   0  0  0  0  0  0  0  0  0  0  0  0
  -28.8490  -15.3360   20.7270 H   0  0  0  0  0  0  0  0  0  0  0  0
  -25.2070  -13.8990   20.4150 C   0  0  0  0  0  0  0  0  0  0  0  0
  -24.1520  -13.1250   20.8220 C   0  0  0  0  0  0  0  0  0  0  0  0
  -24.6080  -11.7730   20.7660 C   0  0  0  0  0  0  0  0  0  0  0  0
  -26.2400  -13.0160   20.1390 N   0  0  0  0  0  0  0  0  0  0  0  0
  -25.8850  -11.7330   20.4060 N   0  0  0  0  0  0  0  0  0  0  0  0
  -23.8870  -10.5120   20.9750 C   0  0  0  0  0  0  0  0  0  0  0  0
  -24.3530   -9.5410   21.8890 C   0  0  0  0  0  3  0  0  0  0  0  0
  -23.6350   -8.3420   22.0870 C   0  0  0  0  0  3  0  0  0  0  0  0
  -22.4370   -8.1080   21.3700 C   0  0  0  0  0  0  0  0  0  0  0  0
  -21.9900   -9.0670   20.4440 C   0  0  0  0  0  3  0  0  0  0  0  0
  -22.7080  -10.2580   20.2450 C   0  0  0  0  0  3  0  0  0  0  0  0
  -21.6850   -6.9620   21.4790 O   0  0  0  0  0  0  0  0  0  0  0  0
  -21.6770   -6.2120   22.6280 C   0  0  0  0  0  0  0  0  0  0  0  0
  -21.2970   -6.7610   23.8720 C   0  0  0  0  0  3  0  0  0  0  0  0
  -21.2390   -5.9370   25.0160 C   0  0  0  0  0  3  0  0  0  0  0  0
  -21.5470   -4.5670   24.9130 C   0  0  0  0  0  0  0  0  0  0  0  0
  -21.9200   -4.0190   23.6730 C   0  0  0  0  0  3  0  0  0  0  0  0
  -21.9820   -4.8400   22.5340 C   0  0  0  0  0  0  0  0  0  0  0  0
  -22.3220   -4.3030   21.3350 F   0  0  0  0  0  0  0  0  0  0  0  0
  -21.4830   -3.7740   26.0080 F   0  0  0  0  0  0  0  0  0  0  0  0
  -22.7660  -13.6060   21.1500 C   0  0  0  0  0  0  0  0  0  0  0  0
  -22.0690  -12.9030   22.0350 N   0  0  0  0  0  0  0  0  0  0  0  0
  -22.3120  -14.6360   20.6550 O   0  0  0  0  0  0  0  0  0  0  0  0
  -22.4520  -12.0710   22.4560 H   0  0  0  0  0  0  0  0  0  0  0  0
  -21.1380  -13.2000   22.2930 H   0  0  0  0  0  0  0  0  0  0  0  0
  -25.3690  -15.2700   20.2390 N   0  0  0  0  0  0  0  0  0  0  0  0
  -24.6010  -15.9180   20.3790 H   0  0  0  0  0  0  0  0  0  0  0  0
  -26.1930  -15.7110   19.8510 H   0  0  0  0  0  0  0  0  0  0  0  0
  -28.9980  -22.8620   20.1200 C   0  0  0  0  0  2  0  0  0  0  0  0
  -28.5970  -24.2610   20.7190 C   0  0  0  0  0  3  0  0  0  0  0  0
  -27.3180  -24.1120   21.3200 O   0  0  0  0  0  0  0  0  0  0  0  0
  -26.6940  -23.9270   20.6270 H   0  0  0  0  0  0  0  0  0  0  0  0
  -28.5310  -25.3980   19.6500 C   0  0  0  0  0  2  0  0  0  0  0  0
  -28.4340  -26.7410   20.1880 O   0  0  0  0  0  0  0  0  0  0  0  0
  -24.5940  -31.9130   23.2620 C   0  0  0  0  0  0  0  0  0  0  0  0
  -27.2430  -27.4560   20.1670 C   0  0  0  0  0  0  0  0  0  0  0  0
  -23.3920  -30.5200   21.6090 C   0  0  0  0  0  3  0  0  0  0  0  0
  -24.8490  -28.9920   20.1820 C   0  0  0  0  0  0  0  0  0  0  0  0
  -25.9240  -30.8740   21.4210 C   0  0  0  0  0  2  0  0  0  0  0  0
  -26.0100  -29.5040   20.7710 C   0  0  0  0  0  0  0  0  0  0  0  0
  -27.2070  -28.7470   20.7520 C   0  0  0  0  0  3  0  0  0  0  0  0
  -26.0510  -26.9630   19.5830 C   0  0  0  0  0  3  0  0  0  0  0  0
  -24.8670  -27.7230   19.5830 C   0  0  0  0  0  3  0  0  0  0  0  0
  -23.6090  -29.8570   20.2250 C   0  0  0  0  0  2  0  0  0  0  0  0
  -24.6550  -31.1200   22.1540 N   0  0  0  0  0  0  0  0  0  0  0  0
  -23.5120  -32.1780   23.8020 O   0  0  0  0  0  0  0  0  0  0  0  0
  -22.7420  -29.4910   22.5640 C   0  0  0  0  0  0  0  0  0  0  0  0
  -21.4170  -29.3040   22.4380 N   0  0  0  0  0  0  0  0  0  0  0  0
  -23.4250  -28.8630   23.3770 O   0  0  0  0  0  0  0  0  0  0  0  0
  -20.9220  -29.8680   21.7600 H   0  0  0  0  0  0  0  0  0  0  0  0
  -18.0440  -28.0980   22.9260 C   0  0  0  0  0  0  0  0  0  0  0  0
  -20.6020  -28.3580   23.2020 C   0  0  0  0  0  3  0  0  0  0  0  0
  -20.7080  -26.9290   22.6190 C   0  0  0  0  0  2  0  0  0  0  0  0
  -19.6090  -26.6100   21.6010 C   0  0  0  0  0  2  0  0  0  0  0  0
  -18.2250  -26.7520   22.2440 C   0  0  0  0  0  2  0  0  0  0  0  0
  -19.1620  -28.8580   23.3640 C   0  0  0  0  0  0  0  0  0  0  0  0
  -18.9420  -30.1180   23.9610 C   0  0  0  0  0  3  0  0  0  0  0  0
  -17.6370  -30.6200   24.1220 C   0  0  0  0  0  3  0  0  0  0  0  0
  -16.5330  -29.8560   23.7040 C   0  0  0  0  0  3  0  0  0  0  0  0
  -16.7380  -28.5980   23.1120 C   0  0  0  0  0  3  0  0  0  0  0  0
  -25.8780  -32.5440   23.8880 C   0  0  0  0  0  3  0  0  0  0  0  0
  -25.5710  -33.9430   24.2090 N   0  0  0  0  0  0  0  0  0  0  0  0
  -25.9090  -34.9910   23.4460 C   0  0  0  0  0  0  0  0  0  0  0  0
  -26.5860  -34.8810   22.4190 O   0  0  0  0  0  0  0  0  0  0  0  0
  -24.9820  -34.1040   25.0120 H   0  0  0  0  0  0  0  0  0  0  0  0
  -24.1860  -36.7820   23.0740 C   0  0  0  0  0  1  0  0  0  0  0  0
  -25.4220  -36.3810   23.8950 C   0  0  0  0  0  3  0  0  0  0  0  0
  -27.5520  -37.2640   24.7370 C   0  0  0  0  0  1  0  0  0  0  0  0
  -26.4570  -37.4310   23.7870 N   0  0  0  0  0  0  0  0  0  0  0  0
  -26.0520  -38.3530   23.9270 H   0  0  0  0  0  0  0  0  0  0  0  0
  -26.3860  -31.7780   25.1700 C   0  0  1  0  0  0  0  0  0  0  0  0
  -25.2890  -31.5480   26.2360 C   0  0  0  0  0  1  0  0  0  0  0  0
  -26.9690  -30.4000   24.7820 C   0  0  0  0  0  1  0  0  0  0  0  0
  -27.5330  -32.5750   25.8350 C   0  0  0  0  0  1  0  0  0  0  0  0
  2  1  1  0
  3 14  1  0
  3  2  1  0
  4  3  1  0
  5 17  1  0
  6 11  1  0
  7  8  1  0
  7  6  1  0
  9  8  1  0
  9 23  1  0
  9 10  1  0
 11  5  1  0
 11 10  1  0
 12  5  2  0
 13 18  1  0
 14 13  2  0
 15 18  1  0
 16 15  2  0
 16 14  1  0
 17 19  1  0
 17 15  1  0
 20 21  2  0
 21 40  1  0
 22 21  1  0
 22 25  1  0
 23 24  1  0
 23 20  1  0
 24 22  2  0
 25 26  1  0
 26 27  2  0
 28 31  1  0
 28 27  1  0
 29 28  2  0
 30 29  1  0
 30 25  2  0
 31 32  1  0
 32 33  1  0
 33 34  2  0
 35 34  1  0
 35 39  1  0
 36 35  2  0
 37 32  2  0
 37 36  1  0
 38 37  1  0
 40 41  1  0
 41 44  1  0
 41 43  1  0
 42 40  2  0
 45 46  1  0
 45 20  1  0
 47 45  1  0
 48 49  1  0
 48  2  1  0
 49 52  1  0
 49 50  1  0
 51 50  1  0
 52 53  1  0
 54 65  2  0
 55 53  1  0
 55 60  1  0
 56 64  1  0
 56 66  1  0
 57 63  1  0
 57 59  1  0
 58 64  1  0
 59 58  1  0
 60 59  2  0
 61 62  1  0
 61 55  2  0
 62 57  2  0
 63 56  1  0
 64 54  1  0
 66 68  2  0
 67 66  1  0
 69 67  1  0
 70 79  2  0
 70 75  1  0
 71 67  1  0
 71 75  1  0
 72 71  1  0
 73 74  1  0
 73 72  1  0
 74 70  1  0
 75 76  2  0
 76 77  1  0
 78 77  2  0
 79 78  1  0
 80 54  1  0
 80 81  1  0
 80 90  1  0
 81 84  1  0
 82 86  1  0
 82 81  1  0
 83 82  2  0
 86 85  1  0
 88 86  1  0
 88 89  1  0
 88 87  1  0
 90 93  1  1
 90 91  1  0
 92 90  1  0
M  ISO  4   5 100  17 100  52 101  53 101
M  END
>  <TORSDO>  (89) 
F 21

>  <SCORE>  (89) 
-13.348

>  <name>  (89) 
88

>  <ligand_id>  (89) 
88

>  <original_smiles>  (89) 
[H]OC([H])(C([H])([H])Oc1c([H])c([H])c2c(c1[H])C([H])([H])N(C(=O)C([H])(N([H])C(=O)C([H])(N([H])C([H])([H])[H])C([H])([H])[H])C(C([H])([H])[H])(C([H])([H])[H])C([H])([H])[H])C([H])(C(=O)N([H])C1([H])c3c([H])c([H])c([H])c([H])c3C([H])([H])C([H])([H])C1([H])[H])C2([H])[H])C([H])([H])C([H])(N([H])c1nc(N([H])C(=O)N2C([H])([H])C([H])([H])C([H])([H])C([H])(n3nc(-c4c([H])c([H])c(Oc5c([H])c([H])c(F)c([H])c5F)c([H])c4[H])c(C(=O)N([H])[H])c3N([H])[H])C2([H])[H])sc1[H])C([H])([H])[H]

>  <smiles>  (89) 
[H]OC([H])(C([H])([H])Oc1c([H])c([H])c2c(c1[H])C([H])([H])N(C(=O)C([H])(N([H])C(=O)C([H])(N([H])C([H])([H])[H])C([H])([H])[H])C(C([H])([H])[H])(C([H])([H])[H])C([H])([H])[H])C([H])(C(=O)N([H])C1([H])c3c([H])c([H])c([H])c([H])c3C([H])([H])C([H])([H])C1([H])[H])C2([H])[H])C([H])([H])C([H])(N([H])c1nc(N([H])C(=O)N2C([H])([H])C([H])([H])C([H])([H])C([H])(n3nc(-c4c([H])c([H])c(Oc5c([H])c([H])c(F)c([H])c5F)c([H])c4[H])c(C(=O)N([H])[H])c3N([H])[H])C2([H])[H])sc1[H])C([H])([H])[H]

$$$$
89:0:0
     RDKit          3D

 93101  0  0  1  0  0  0  0  0999 V2000
  -30.0120  -22.0670   20.9110 N   0  0  0  0  0  4  0  0  0  0  0  0
  -29.3510  -21.6130   20.3030 H   0  0  0  0  0  0  0  0  0  0  0  0
  -30.7830  -22.3680   20.3390 H   0  0  0  0  0  0  0  0  0  0  0  0
  -30.1020  -23.7260   22.8230 C   0  0  0  0  0  1  0  0  0  0  0  0
  -29.3470  -23.2510   21.5570 C   0  0  0  0  0  3  0  0  0  0  0  0
  -29.1490  -24.4330   20.5580 C   0  0  0  0  0  2  0  0  0  0  0  0
  -28.3060  -25.6310   21.0760 C   0  0  0  0  0  2  0  0  0  0  0  0
  -28.3290  -26.7310   20.1530 O   0  0  0  0  0  0  0  0  0  0  0  0
  -24.5420  -31.9150   23.2430 C   0  0  0  0  0  0  0  0  0  0  0  0
  -27.1850  -27.4920   20.1560 C   0  0  0  0  0  0  0  0  0  0  0  0
  -23.3420  -30.5350   21.5740 C   0  0  0  0  0  3  0  0  0  0  0  0
  -24.8020  -29.0080   20.1430 C   0  0  0  0  0  0  0  0  0  0  0  0
  -25.8700  -30.8900   21.3970 C   0  0  0  0  0  2  0  0  0  0  0  0
  -25.9570  -29.5240   20.7480 C   0  0  0  0  0  0  0  0  0  0  0  0
  -27.1540  -28.7730   20.7510 C   0  0  0  0  0  3  0  0  0  0  0  0
  -26.0190  -26.9840   19.5500 C   0  0  0  0  0  3  0  0  0  0  0  0
  -24.8280  -27.7370   19.5390 C   0  0  0  0  0  3  0  0  0  0  0  0
  -23.5600  -29.8720   20.1870 C   0  0  0  0  0  2  0  0  0  0  0  0
  -24.6030  -31.1290   22.1300 N   0  0  0  0  0  0  0  0  0  0  0  0
  -23.4580  -32.1850   23.7790 O   0  0  0  0  0  0  0  0  0  0  0  0
  -22.6840  -29.5040   22.5180 C   0  0  0  0  0  0  0  0  0  0  0  0
  -21.3570  -29.3370   22.3870 N   0  0  0  0  0  0  0  0  0  0  0  0
  -23.3590  -28.8590   23.3230 O   0  0  0  0  0  0  0  0  0  0  0  0
  -20.8760  -29.9080   21.7080 H   0  0  0  0  0  0  0  0  0  0  0  0
  -17.9620  -28.1960   22.8770 C   0  0  0  0  0  0  0  0  0  0  0  0
  -20.5270  -28.3960   23.1390 C   0  0  0  0  0  3  0  0  0  0  0  0
  -20.5980  -26.9780   22.5280 C   0  0  0  0  0  2  0  0  0  0  0  0
  -19.4840  -26.7040   21.5120 C   0  0  0  0  0  2  0  0  0  0  0  0
  -18.1080  -26.8590   22.1680 C   0  0  0  0  0  2  0  0  0  0  0  0
  -19.0990  -28.9250   23.3170 C   0  0  0  0  0  0  0  0  0  0  0  0
  -18.9120  -30.1780   23.9390 C   0  0  0  0  0  3  0  0  0  0  0  0
  -17.6180  -30.7020   24.1240 C   0  0  0  0  0  3  0  0  0  0  0  0
  -16.4950  -29.9690   23.7020 C   0  0  0  0  0  3  0  0  0  0  0  0
  -16.6680  -28.7190   23.0820 C   0  0  0  0  0  3  0  0  0  0  0  0
  -25.8260  -32.5310   23.8800 C   0  0  0  0  0  3  0  0  0  0  0  0
  -26.3180  -31.7550   25.1620 C   0  0  1  0  0  0  0  0  0  0  0  0
  -25.2080  -31.5280   26.2150 C   0  0  0  0  0  1  0  0  0  0  0  0
  -26.8960  -30.3740   24.7730 C   0  0  0  0  0  1  0  0  0  0  0  0
  -27.4660  -32.5410   25.8400 C   0  0  0  0  0  1  0  0  0  0  0  0
  -25.5320  -33.9330   24.2040 N   0  0  0  0  0  0  0  0  0  0  0  0
  -25.8920  -34.9780   23.4470 C   0  0  0  0  0  0  0  0  0  0  0  0
  -26.5780  -34.8630   22.4270 O   0  0  0  0  0  0  0  0  0  0  0  0
  -24.9230  -34.0980   24.9910 H   0  0  0  0  0  0  0  0  0  0  0  0
  -24.2020  -36.7960   23.0420 C   0  0  0  0  0  1  0  0  0  0  0  0
  -25.4130  -36.3740   23.8910 C   0  0  0  0  0  3  0  0  0  0  0  0
  -27.5280  -37.2280   24.7940 C   0  0  0  0  0  1  0  0  0  0  0  0
  -26.4640  -37.4110   23.8100 N   0  0  0  0  0  0  0  0  0  0  0  0
  -26.0680  -38.3380   23.9420 H   0  0  0  0  0  0  0  0  0  0  0  0
  -30.5180  -21.0240   21.8410 C   0  0  0  0  0  2  0  0  0  0  0  0
  -30.6610  -14.5040   20.2730 C   0  0  0  0  0  0  0  0  0  0  0  0
  -30.3470  -12.3450   19.1250 C   0  0  0  0  0  2  0  0  0  0  0  0
  -29.3780  -12.5550   17.9430 C   0  0  0  0  0  2  0  0  0  0  0  0
  -27.9110  -12.4210   18.4020 C   0  0  0  0  0  2  0  0  0  0  0  0
  -27.6000  -13.2520   19.6740 C   0  0  0  0  0  3  0  0  0  0  0  0
  -28.6790  -13.0200   20.7570 C   0  0  0  0  0  2  0  0  0  0  0  0
  -29.9950  -13.3220   20.1630 N   0  0  0  0  0  0  0  0  0  0  0  0
  -31.7890  -14.6830   19.7990 O   0  0  0  0  0  0  0  0  0  0  0  0
  -31.5600  -18.7400   21.2750 C   0  0  0  0  0  3  0  0  0  0  0  0
  -29.0810  -17.7600   20.8900 C   0  0  0  0  0  3  0  0  0  0  0  0
  -30.4230  -19.5840   21.3350 C   0  0  0  0  0  0  0  0  0  0  0  0
  -30.2040  -16.8920   20.8830 C   0  0  0  0  0  0  0  0  0  0  0  0
  -29.1800  -19.0970   21.1050 N   0  0  0  0  0  0  0  0  0  0  0  0
  -31.4540  -17.4040   21.0510 N   0  0  0  0  0  0  0  0  0  0  0  0
  -29.9160  -15.5050   20.7700 N   0  0  0  0  0  0  0  0  0  0  0  0
  -28.9740  -15.2400   21.0100 H   0  0  0  0  0  0  0  0  0  0  0  0
  -25.2200  -13.8660   20.4380 C   0  0  0  0  0  0  0  0  0  0  0  0
  -24.1560  -13.0950   20.8220 C   0  0  0  0  0  0  0  0  0  0  0  0
  -24.6110  -11.7400   20.7670 C   0  0  0  0  0  0  0  0  0  0  0  0
  -26.2560  -12.9810   20.1770 N   0  0  0  0  0  0  0  0  0  0  0  0
  -25.8940  -11.6980   20.4330 N   0  0  0  0  0  0  0  0  0  0  0  0
  -23.8830  -10.4790   20.9590 C   0  0  0  0  0  0  0  0  0  0  0  0
  -24.3090   -9.5160   21.9000 C   0  0  0  0  0  3  0  0  0  0  0  0
  -23.5820   -8.3190   22.0790 C   0  0  0  0  0  3  0  0  0  0  0  0
  -22.4140   -8.0780   21.3160 C   0  0  0  0  0  0  0  0  0  0  0  0
  -22.0060   -9.0310   20.3660 C   0  0  0  0  0  3  0  0  0  0  0  0
  -22.7350  -10.2180   20.1860 C   0  0  0  0  0  3  0  0  0  0  0  0
  -21.6600   -6.9330   21.4030 O   0  0  0  0  0  0  0  0  0  0  0  0
  -21.5770   -6.2120   22.5670 C   0  0  0  0  0  0  0  0  0  0  0  0
  -21.0740   -6.7790   23.7590 C   0  0  0  0  0  3  0  0  0  0  0  0
  -20.9370   -5.9850   24.9140 C   0  0  0  0  0  3  0  0  0  0  0  0
  -21.2980   -4.6240   24.8790 C   0  0  0  0  0  0  0  0  0  0  0  0
  -21.7960   -4.0570   23.6930 C   0  0  0  0  0  3  0  0  0  0  0  0
  -21.9330   -4.8490   22.5400 C   0  0  0  0  0  0  0  0  0  0  0  0
  -22.3920   -4.2920   21.3930 F   0  0  0  0  0  0  0  0  0  0  0  0
  -21.1620   -3.8580   25.9870 F   0  0  0  0  0  0  0  0  0  0  0  0
  -22.7670  -13.5750   21.1290 C   0  0  0  0  0  0  0  0  0  0  0  0
  -22.0530  -12.8700   21.9990 N   0  0  0  0  0  0  0  0  0  0  0  0
  -22.3220  -14.6090   20.6330 O   0  0  0  0  0  0  0  0  0  0  0  0
  -22.4250  -12.0310   22.4190 H   0  0  0  0  0  0  0  0  0  0  0  0
  -21.1240  -13.1740   22.2510 H   0  0  0  0  0  0  0  0  0  0  0  0
  -25.3890  -15.2370   20.2670 N   0  0  0  0  0  0  0  0  0  0  0  0
  -24.6210  -15.8910   20.3760 H   0  0  0  0  0  0  0  0  0  0  0  0
  -26.2090  -15.6600   19.8510 H   0  0  0  0  0  0  0  0  0  0  0  0
  1  5  1  0
  1 49  1  0
  2  1  1  0
  3  1  1  0
  5  4  1  0
  6  7  1  0
  6  5  1  0
  8 10  1  0
  8  7  1  0
  9 20  2  0
 10 15  1  0
 11 19  1  0
 11 21  1  0
 12 18  1  0
 12 14  1  0
 13 19  1  0
 14 15  2  0
 14 13  1  0
 16 10  2  0
 17 16  1  0
 17 12  2  0
 18 11  1  0
 19  9  1  0
 21 23  2  0
 22 21  1  0
 24 22  1  0
 25 34  2  0
 25 30  1  0
 26 22  1  0
 26 30  1  0
 27 26  1  0
 28 29  1  0
 28 27  1  0
 29 25  1  0
 30 31  2  0
 31 32  1  0
 33 32  2  0
 34 33  1  0
 35  9  1  0
 35 40  1  0
 35 36  1  0
 36 39  1  1
 36 37  1  0
 38 36  1  0
 40 43  1  0
 41 45  1  0
 41 40  1  0
 42 41  2  0
 45 44  1  0
 47 45  1  0
 47 48  1  0
 47 46  1  0
 50 64  1  0
 51 56  1  0
 52 53  1  0
 52 51  1  0
 54 53  1  0
 54 69  1  0
 54 55  1  0
 56 50  1  0
 56 55  1  0
 57 50  2  0
 58 60  1  0
 59 62  1  0
 60 49  1  0
 61 59  2  0
 61 63  1  0
 62 60  2  0
 63 58  2  0
 64 61  1  0
 64 65  1  0
 66 67  2  0
 67 86  1  0
 68 67  1  0
 68 71  1  0
 69 70  1  0
 69 66  1  0
 70 68  2  0
 71 72  1  0
 72 73  2  0
 74 77  1  0
 74 73  1  0
 75 74  2  0
 76 75  1  0
 76 71  2  0
 77 78  1  0
 78 79  1  0
 79 80  2  0
 81 80  1  0
 81 85  1  0
 82 81  2  0
 83 78  2  0
 83 82  1  0
 84 83  1  0
 86 87  1  0
 87 90  1  0
 87 89  1  0
 88 86  2  0
 91 92  1  0
 91 66  1  0
 93 91  1  0
M  ISO  4   7 101   8 101  50 100  64 100
M  END
>  <TORSDO>  (90) 
F 20

>  <SCORE>  (90) 
-13.670

>  <name>  (90) 
89

>  <ligand_id>  (90) 
89

>  <original_smiles>  (90) 
[H]c1nc(C([H])([H])[N+]([H])([H])C([H])(C([H])([H])[H])C([H])([H])C([H])([H])Oc2c([H])c([H])c3c(c2[H])C([H])([H])N(C(=O)C([H])(N([H])C(=O)C([H])(N([H])C([H])([H])[H])C([H])([H])[H])C(C([H])([H])[H])(C([H])([H])[H])C([H])([H])[H])C([H])(C(=O)N([H])C2([H])c4c([H])c([H])c([H])c([H])c4C([H])([H])C([H])([H])C2([H])[H])C3([H])[H])c([H])nc1N([H])C(=O)N1C([H])([H])C([H])([H])C([H])([H])C([H])(n2nc(-c3c([H])c([H])c(Oc4c([H])c([H])c(F)c([H])c4F)c([H])c3[H])c(C(=O)N([H])[H])c2N([H])[H])C1([H])[H]

>  <smiles>  (90) 
[H]c1nc(C([H])([H])[N+]([H])([H])C([H])(C([H])([H])[H])C([H])([H])C([H])([H])Oc2c([H])c([H])c3c(c2[H])C([H])([H])N(C(=O)C([H])(N([H])C(=O)C([H])(N([H])C([H])([H])[H])C([H])([H])[H])C(C([H])([H])[H])(C([H])([H])[H])C([H])([H])[H])C([H])(C(=O)N([H])C2([H])c4c([H])c([H])c([H])c([H])c4C([H])([H])C([H])([H])C2([H])[H])C3([H])[H])c([H])nc1N([H])C(=O)N1C([H])([H])C([H])([H])C([H])([H])C([H])(n2nc(-c3c([H])c([H])c(Oc4c([H])c([H])c(F)c([H])c4F)c([H])c3[H])c(C(=O)N([H])[H])c2N([H])[H])C1([H])[H]

$$$$
90:0:0
     RDKit          3D

 99107  0  0  1  0  0  0  0  0999 V2000
  -29.7680  -23.1670   21.6970 C   0  0  0  0  0  3  0  0  0  0  0  0
  -29.8630  -21.6770   21.6850 N   0  0  0  0  0  4  0  0  0  0  0  0
  -29.2650  -21.2940   22.4000 H   0  0  0  0  0  0  0  0  0  0  0  0
  -29.5050  -21.3290   20.8110 H   0  0  0  0  0  0  0  0  0  0  0  0
  -31.1900  -21.0540   21.9050 C   0  0  0  0  0  2  0  0  0  0  0  0
  -31.2940  -14.5230   20.4780 C   0  0  0  0  0  0  0  0  0  0  0  0
  -30.9730  -12.3240   19.3930 C   0  0  0  0  0  2  0  0  0  0  0  0
  -30.0290  -12.4610   18.1820 C   0  0  0  0  0  2  0  0  0  0  0  0
  -28.5530  -12.3560   18.6150 C   0  0  0  0  0  2  0  0  0  0  0  0
  -28.2210  -13.2670   19.8260 C   0  0  0  0  0  3  0  0  0  0  0  0
  -29.2680  -13.0870   20.9460 C   0  0  0  0  0  2  0  0  0  0  0  0
  -30.6050  -13.3540   20.3780 N   0  0  0  0  0  0  0  0  0  0  0  0
  -32.3590  -14.7220   19.8810 O   0  0  0  0  0  0  0  0  0  0  0  0
  -32.1870  -18.7960   21.1930 C   0  0  0  0  0  3  0  0  0  0  0  0
  -29.8740  -17.6040   21.8960 C   0  0  0  0  0  3  0  0  0  0  0  0
  -31.1060  -19.5440   21.7170 C   0  0  0  0  0  0  0  0  0  0  0  0
  -30.9450  -16.8390   21.3650 C   0  0  0  0  0  0  0  0  0  0  0  0
  -29.9410  -18.9470   22.0670 N   0  0  0  0  0  0  0  0  0  0  0  0
  -32.1070  -17.4530   21.0160 N   0  0  0  0  0  0  0  0  0  0  0  0
  -30.6970  -15.4470   21.2480 N   0  0  0  0  0  0  0  0  0  0  0  0
  -29.8480  -15.1260   21.6850 H   0  0  0  0  0  0  0  0  0  0  0  0
  -25.8530  -13.9450   20.5810 C   0  0  0  0  0  0  0  0  0  0  0  0
  -24.7630  -13.2010   20.9450 C   0  0  0  0  0  0  0  0  0  0  0  0
  -25.1720  -11.8350   20.8680 C   0  0  0  0  0  0  0  0  0  0  0  0
  -26.8610  -13.0320   20.3110 N   0  0  0  0  0  0  0  0  0  0  0  0
  -26.4550  -11.7570   20.5390 N   0  0  0  0  0  0  0  0  0  0  0  0
  -24.4030  -10.5950   21.0330 C   0  0  0  0  0  0  0  0  0  0  0  0
  -24.7610   -9.6260   21.9950 C   0  0  0  0  0  3  0  0  0  0  0  0
  -23.9950   -8.4490   22.1470 C   0  0  0  0  0  3  0  0  0  0  0  0
  -22.8560   -8.2340   21.3350 C   0  0  0  0  0  0  0  0  0  0  0  0
  -22.5160   -9.1920   20.3620 C   0  0  0  0  0  3  0  0  0  0  0  0
  -23.2830  -10.3600   20.2090 C   0  0  0  0  0  3  0  0  0  0  0  0
  -22.0680   -7.1110   21.3940 O   0  0  0  0  0  0  0  0  0  0  0  0
  -21.8500   -6.4470   22.5740 C   0  0  0  0  0  0  0  0  0  0  0  0
  -21.2720   -7.0850   23.6940 C   0  0  0  0  0  3  0  0  0  0  0  0
  -21.0010   -6.3460   24.8630 C   0  0  0  0  0  3  0  0  0  0  0  0
  -21.2980   -4.9700   24.9130 C   0  0  0  0  0  0  0  0  0  0  0  0
  -21.8680   -4.3320   23.7970 C   0  0  0  0  0  3  0  0  0  0  0  0
  -22.1400   -5.0680   22.6300 C   0  0  0  0  0  0  0  0  0  0  0  0
  -22.6700   -4.4440   21.5500 F   0  0  0  0  0  0  0  0  0  0  0  0
  -21.0320   -4.2580   26.0330 F   0  0  0  0  0  0  0  0  0  0  0  0
  -23.3880  -13.7200   21.2560 C   0  0  0  0  0  0  0  0  0  0  0  0
  -22.6610  -13.0440   22.1390 N   0  0  0  0  0  0  0  0  0  0  0  0
  -22.9680  -14.7610   20.7500 O   0  0  0  0  0  0  0  0  0  0  0  0
  -23.0130  -12.2020   22.5700 H   0  0  0  0  0  0  0  0  0  0  0  0
  -21.7390  -13.3740   22.3880 H   0  0  0  0  0  0  0  0  0  0  0  0
  -26.0650  -15.3120   20.4370 N   0  0  0  0  0  0  0  0  0  0  0  0
  -25.3170  -15.9870   20.5520 H   0  0  0  0  0  0  0  0  0  0  0  0
  -26.9150  -15.7260   20.0750 H   0  0  0  0  0  0  0  0  0  0  0  0
  -30.1960  -23.7900   23.0530 C   0  0  0  0  0  2  0  0  0  0  0  0
  -29.5680  -23.9430   25.4970 C   0  0  0  0  0  1  0  0  0  0  0  0
  -28.4300  -25.4570   23.8150 C   0  0  0  0  0  1  0  0  0  0  0  0
  -29.0540  -24.0720   24.0540 C   0  0  0  0  0  3  0  0  0  0  0  0
  -30.5390  -23.8380   20.5230 C   0  0  0  0  0  2  0  0  0  0  0  0
  -29.6970  -24.7450   19.5920 C   0  0  0  0  0  3  0  0  0  0  0  0
  -30.6040  -25.3200   18.6630 O   0  0  0  0  0  0  0  0  0  0  0  0
  -30.1060  -25.9630   18.1650 H   0  0  0  0  0  0  0  0  0  0  0  0
  -28.9470  -25.9150   20.2720 C   0  0  0  0  0  2  0  0  0  0  0  0
  -28.4180  -26.6980   19.2080 O   0  0  0  0  0  0  0  0  0  0  0  0
  -24.5950  -31.4640   22.9330 C   0  0  0  0  0  0  0  0  0  0  0  0
  -27.2380  -27.3600   19.4300 C   0  0  0  0  0  0  0  0  0  0  0  0
  -23.3750  -30.2080   21.1840 C   0  0  0  0  0  3  0  0  0  0  0  0
  -24.8230  -28.8090   19.6200 C   0  0  0  0  0  0  0  0  0  0  0  0
  -25.8940  -30.6040   20.9920 C   0  0  0  0  0  2  0  0  0  0  0  0
  -25.9820  -29.2920   20.2410 C   0  0  0  0  0  0  0  0  0  0  0  0
  -27.1930  -28.5720   20.1520 C   0  0  0  0  0  3  0  0  0  0  0  0
  -26.0640  -26.8770   18.8160 C   0  0  0  0  0  3  0  0  0  0  0  0
  -24.8550  -27.5930   18.9130 C   0  0  0  0  0  3  0  0  0  0  0  0
  -23.5750  -29.6530   19.7490 C   0  0  0  0  0  2  0  0  0  0  0  0
  -24.6400  -30.7690   21.7620 N   0  0  0  0  0  0  0  0  0  0  0  0
  -23.5200  -31.6760   23.5110 O   0  0  0  0  0  0  0  0  0  0  0  0
  -22.7450  -29.0990   22.0570 C   0  0  0  0  0  0  0  0  0  0  0  0
  -21.4220  -28.9100   21.9210 N   0  0  0  0  0  0  0  0  0  0  0  0
  -23.4420  -28.4140   22.8090 O   0  0  0  0  0  0  0  0  0  0  0  0
  -20.9200  -29.5180   21.2910 H   0  0  0  0  0  0  0  0  0  0  0  0
  -18.0710  -27.6190   22.3140 C   0  0  0  0  0  0  0  0  0  0  0  0
  -20.6230  -27.8980   22.6130 C   0  0  0  0  0  3  0  0  0  0  0  0
  -20.7540  -26.5210   21.9230 C   0  0  0  0  0  2  0  0  0  0  0  0
  -19.6580  -26.2620   20.8830 C   0  0  0  0  0  2  0  0  0  0  0  0
  -18.2730  -26.3330   21.5320 C   0  0  0  0  0  2  0  0  0  0  0  0
  -19.1760  -28.3630   22.8070 C   0  0  0  0  0  0  0  0  0  0  0  0
  -18.9340  -29.5730   23.4950 C   0  0  0  0  0  3  0  0  0  0  0  0
  -17.6210  -30.0370   23.6960 C   0  0  0  0  0  3  0  0  0  0  0  0
  -16.5290  -29.2900   23.2180 C   0  0  0  0  0  3  0  0  0  0  0  0
  -16.7570  -28.0820   22.5310 C   0  0  0  0  0  3  0  0  0  0  0  0
  -25.8860  -32.0440   23.5910 C   0  0  0  0  0  3  0  0  0  0  0  0
  -25.5790  -33.4080   24.0400 N   0  0  0  0  0  0  0  0  0  0  0  0
  -25.9080  -34.5210   23.3710 C   0  0  0  0  0  0  0  0  0  0  0  0
  -26.5720  -34.5060   22.3320 O   0  0  0  0  0  0  0  0  0  0  0  0
  -24.9920  -33.4920   24.8590 H   0  0  0  0  0  0  0  0  0  0  0  0
  -24.1770  -36.3320   23.1730 C   0  0  0  0  0  1  0  0  0  0  0  0
  -25.4210  -35.8650   23.9470 C   0  0  0  0  0  3  0  0  0  0  0  0
  -27.5540  -36.6810   24.8470 C   0  0  0  0  0  1  0  0  0  0  0  0
  -26.4520  -36.9250   23.9190 N   0  0  0  0  0  0  0  0  0  0  0  0
  -26.0440  -37.8290   24.1400 H   0  0  0  0  0  0  0  0  0  0  0  0
  -26.4220  -31.1680   24.7890 C   0  0  1  0  0  0  0  0  0  0  0  0
  -25.3470  -30.8490   25.8530 C   0  0  0  0  0  1  0  0  0  0  0  0
  -26.9920  -29.8280   24.2710 C   0  0  0  0  0  1  0  0  0  0  0  0
  -27.5880  -31.9000   25.4930 C   0  0  0  0  0  1  0  0  0  0  0  0
  1 54  1  0
  1 50  1  0
  2  1  1  0
  2  5  1  0
  2  3  1  0
  4  2  1  0
  6 20  1  0
  7 12  1  0
  8  9  1  0
  8  7  1  0
 10  9  1  0
 10 25  1  0
 10 11  1  0
 12  6  1  0
 12 11  1  0
 13  6  2  0
 14 16  1  0
 15 18  1  0
 16  5  1  0
 16 18  2  0
 17 15  2  0
 19 14  2  0
 19 17  1  0
 20 17  1  0
 20 21  1  0
 22 23  2  0
 23 42  1  0
 24 23  1  0
 24 27  1  0
 25 26  1  0
 25 22  1  0
 26 24  2  0
 27 28  1  0
 28 29  2  0
 30 33  1  0
 30 29  1  0
 31 30  2  0
 32 31  1  0
 32 27  2  0
 33 34  1  0
 34 39  2  0
 34 35  1  0
 35 36  2  0
 36 37  1  0
 37 41  1  0
 38 37  2  0
 39 38  1  0
 40 39  1  0
 42 43  1  0
 43 46  1  0
 43 45  1  0
 44 42  2  0
 47 48  1  0
 47 22  1  0
 49 47  1  0
 50 53  1  0
 52 53  1  0
 53 51  1  0
 55 58  1  0
 55 54  1  0
 56 55  1  0
 57 56  1  0
 59 61  1  0
 59 58  1  0
 60 71  2  0
 61 66  1  0
 62 70  1  0
 62 72  1  0
 63 69  1  0
 63 65  1  0
 64 70  1  0
 65 64  1  0
 66 65  2  0
 67 68  1  0
 67 61  2  0
 68 63  2  0
 69 62  1  0
 70 60  1  0
 72 74  2  0
 73 72  1  0
 75 73  1  0
 76 85  2  0
 76 81  1  0
 77 73  1  0
 77 81  1  0
 78 77  1  0
 79 80  1  0
 79 78  1  0
 80 76  1  0
 81 82  2  0
 82 83  1  0
 84 83  2  0
 85 84  1  0
 86 60  1  0
 86 87  1  0
 86 96  1  0
 87 90  1  0
 88 92  1  0
 88 87  1  0
 89 88  2  0
 92 91  1  0
 94 92  1  0
 94 95  1  0
 94 93  1  0
 96 99  1  1
 96 97  1  0
 98 96  1  0
M  ISO  4   6 100  20 100  58 101  59 101
M  END
>  <TORSDO>  (91) 
F 24

>  <SCORE>  (91) 
-8.215

>  <name>  (91) 
90

>  <ligand_id>  (91) 
90

>  <original_smiles>  (91) 
[H]OC([H])(C([H])([H])Oc1c([H])c([H])c2c(c1[H])C([H])([H])N(C(=O)C([H])(N([H])C(=O)C([H])(N([H])C([H])([H])[H])C([H])([H])[H])C(C([H])([H])[H])(C([H])([H])[H])C([H])([H])[H])C([H])(C(=O)N([H])C1([H])c3c([H])c([H])c([H])c([H])c3C([H])([H])C([H])([H])C1([H])[H])C2([H])[H])C([H])([H])C([H])(C([H])([H])C([H])(C([H])([H])[H])C([H])([H])[H])[N+]([H])([H])C([H])([H])c1nc([H])c(N([H])C(=O)N2C([H])([H])C([H])([H])C([H])([H])C([H])(n3nc(-c4c([H])c([H])c(Oc5c([H])c([H])c(F)c([H])c5F)c([H])c4[H])c(C(=O)N([H])[H])c3N([H])[H])C2([H])[H])nc1[H]

>  <smiles>  (91) 
[H]OC([H])(C([H])([H])Oc1c([H])c([H])c2c(c1[H])C([H])([H])N(C(=O)C([H])(N([H])C(=O)C([H])(N([H])C([H])([H])[H])C([H])([H])[H])C(C([H])([H])[H])(C([H])([H])[H])C([H])([H])[H])C([H])(C(=O)N([H])C1([H])c3c([H])c([H])c([H])c([H])c3C([H])([H])C([H])([H])C1([H])[H])C2([H])[H])C([H])([H])C([H])(C([H])([H])C([H])(C([H])([H])[H])C([H])([H])[H])[N+]([H])([H])C([H])([H])c1nc([H])c(N([H])C(=O)N2C([H])([H])C([H])([H])C([H])([H])C([H])(n3nc(-c4c([H])c([H])c(Oc5c([H])c([H])c(F)c([H])c5F)c([H])c4[H])c(C(=O)N([H])[H])c3N([H])[H])C2([H])[H])nc1[H]

$$$$
91:0:0
     RDKit          3D

 97105  0  0  1  0  0  0  0  0999 V2000
  -30.5890  -14.7570   20.4020 C   0  0  0  0  0  0  0  0  0  0  0  0
  -30.3950  -12.4850   19.4230 C   0  0  0  0  0  2  0  0  0  0  0  0
  -29.4660  -12.5360   18.1920 C   0  0  0  0  0  2  0  0  0  0  0  0
  -27.9980  -12.3450   18.6190 C   0  0  0  0  0  2  0  0  0  0  0  0
  -27.5980  -13.2550   19.8120 C   0  0  0  0  0  3  0  0  0  0  0  0
  -28.6520  -13.2080   20.9430 C   0  0  0  0  0  2  0  0  0  0  0  0
  -29.9550  -13.5440   20.3540 N   0  0  0  0  0  0  0  0  0  0  0  0
  -31.7510  -14.8570   19.9940 O   0  0  0  0  0  0  0  0  0  0  0  0
  -30.8380  -19.8620   20.9500 C   0  0  0  0  0  0  0  0  0  0  0  0
  -31.7650  -18.8260   21.1760 C   0  0  0  0  0  0  0  0  0  0  0  0
  -29.5170  -19.4690   20.6500 C   0  0  0  0  0  0  0  0  0  0  0  0
  -30.1570  -17.2210   20.7780 C   0  0  0  0  0  0  0  0  0  0  0  0
  -33.2030  -19.1120   21.5670 C   0  0  0  0  0  1  0  0  0  0  0  0
  -31.4140  -17.5330   21.0920 N   0  0  0  0  0  0  0  0  0  0  0  0
  -29.1870  -18.1470   20.5890 N   0  0  0  0  0  0  0  0  0  0  0  0
  -28.4990  -20.4550   20.5390 N   0  0  0  0  0  0  0  0  0  0  0  0
  -29.8260  -15.8560   20.7060 N   0  0  0  0  0  0  0  0  0  0  0  0
  -27.5860  -20.0160   20.5630 H   0  0  0  0  0  0  0  0  0  0  0  0
  -28.8530  -15.6570   20.8590 H   0  0  0  0  0  0  0  0  0  0  0  0
  -25.2010  -13.7980   20.5600 C   0  0  0  0  0  0  0  0  0  0  0  0
  -24.1510  -12.9990   20.9240 C   0  0  0  0  0  0  0  0  0  0  0  0
  -24.6380  -11.6570   20.8670 C   0  0  0  0  0  0  0  0  0  0  0  0
  -26.2600  -12.9410   20.3030 N   0  0  0  0  0  0  0  0  0  0  0  0
  -25.9270  -11.6480   20.5490 N   0  0  0  0  0  0  0  0  0  0  0  0
  -23.9350  -10.3780   21.0390 C   0  0  0  0  0  0  0  0  0  0  0  0
  -24.3580   -9.4240   21.9900 C   0  0  0  0  0  3  0  0  0  0  0  0
  -23.6560   -8.2110   22.1480 C   0  0  0  0  0  3  0  0  0  0  0  0
  -22.5150   -7.9420   21.3550 C   0  0  0  0  0  0  0  0  0  0  0  0
  -22.1130   -8.8840   20.3920 C   0  0  0  0  0  3  0  0  0  0  0  0
  -22.8160  -10.0900   20.2310 C   0  0  0  0  0  3  0  0  0  0  0  0
  -21.7840   -6.7800   21.4230 O   0  0  0  0  0  0  0  0  0  0  0  0
  -21.6620   -6.0740   22.5930 C   0  0  0  0  0  0  0  0  0  0  0  0
  -21.0870   -6.6430   23.7490 C   0  0  0  0  0  3  0  0  0  0  0  0
  -20.9170   -5.8600   24.9080 C   0  0  0  0  0  3  0  0  0  0  0  0
  -21.3120   -4.5080   24.9120 C   0  0  0  0  0  0  0  0  0  0  0  0
  -21.8800   -3.9390   23.7590 C   0  0  0  0  0  3  0  0  0  0  0  0
  -22.0530   -4.7200   22.6010 C   0  0  0  0  0  0  0  0  0  0  0  0
  -22.5810   -4.1600   21.4870 F   0  0  0  0  0  0  0  0  0  0  0  0
  -21.1430   -3.7530   26.0220 F   0  0  0  0  0  0  0  0  0  0  0  0
  -22.7480  -13.4460   21.2140 C   0  0  0  0  0  0  0  0  0  0  0  0
  -22.0380  -12.7220   22.0730 N   0  0  0  0  0  0  0  0  0  0  0  0
  -22.2880  -14.4720   20.7140 O   0  0  0  0  0  0  0  0  0  0  0  0
  -22.4220  -11.8930   22.5020 H   0  0  0  0  0  0  0  0  0  0  0  0
  -21.0950  -13.0020   22.3070 H   0  0  0  0  0  0  0  0  0  0  0  0
  -25.3380  -15.1740   20.4050 N   0  0  0  0  0  0  0  0  0  0  0  0
  -24.5540  -15.8060   20.5240 H   0  0  0  0  0  0  0  0  0  0  0  0
  -26.1650  -15.6380   20.0520 H   0  0  0  0  0  0  0  0  0  0  0  0
  -31.1790  -21.2110   21.1010 N   0  0  0  0  0  0  0  0  0  0  0  0
  -31.9270  -21.4410   21.7470 H   0  0  0  0  0  0  0  0  0  0  0  0
  -30.3680  -21.8170   21.2030 H   0  0  0  0  0  0  0  0  0  0  0  0
  -28.5670  -21.5280   19.5080 C   0  0  0  0  0  2  0  0  0  0  0  0
  -28.4130  -23.0400   19.9810 C   0  0  0  0  0  2  0  0  0  0  0  0
  -27.8540  -24.0030   18.8600 C   0  0  0  0  0  3  0  0  0  0  0  0
  -26.4700  -23.7480   18.6890 O   0  0  0  0  0  0  0  0  0  0  0  0
  -26.2350  -24.0040   17.8030 H   0  0  0  0  0  0  0  0  0  0  0  0
  -28.2060  -25.5530   18.7130 C   0  0  0  0  0  2  0  0  0  0  0  0
  -28.0300  -26.5930   19.7240 O   0  0  0  0  0  0  0  0  0  0  0  0
  -24.4900  -31.8350   23.1140 C   0  0  0  0  0  0  0  0  0  0  0  0
  -26.9070  -27.4240   19.7290 C   0  0  0  0  0  0  0  0  0  0  0  0
  -23.1960  -30.5290   21.4650 C   0  0  0  0  0  3  0  0  0  0  0  0
  -24.5610  -29.0350   19.9040 C   0  0  0  0  0  0  0  0  0  0  0  0
  -25.7260  -30.8300   21.1900 C   0  0  0  0  0  2  0  0  0  0  0  0
  -25.7550  -29.4840   20.4810 C   0  0  0  0  0  0  0  0  0  0  0  0
  -26.9260  -28.6810   20.3990 C   0  0  0  0  0  3  0  0  0  0  0  0
  -25.6930  -27.0250   19.1320 C   0  0  0  0  0  3  0  0  0  0  0  0
  -24.5290  -27.8080   19.2270 C   0  0  0  0  0  3  0  0  0  0  0  0
  -23.3390  -29.9170   20.0460 C   0  0  0  0  0  2  0  0  0  0  0  0
  -24.4910  -31.0790   21.9800 N   0  0  0  0  0  0  0  0  0  0  0  0
  -23.4340  -32.1010   23.7070 O   0  0  0  0  0  0  0  0  0  0  0  0
  -22.5630  -29.4740   22.4040 C   0  0  0  0  0  0  0  0  0  0  0  0
  -21.2320  -29.3100   22.3150 N   0  0  0  0  0  0  0  0  0  0  0  0
  -23.2660  -28.8110   23.1710 O   0  0  0  0  0  0  0  0  0  0  0  0
  -20.7250  -29.8990   21.6700 H   0  0  0  0  0  0  0  0  0  0  0  0
  -17.8660  -28.1110   22.8650 C   0  0  0  0  0  0  0  0  0  0  0  0
  -20.4320  -28.3480   23.0740 C   0  0  0  0  0  3  0  0  0  0  0  0
  -20.5090  -26.9380   22.4450 C   0  0  0  0  0  2  0  0  0  0  0  0
  -19.3780  -26.6560   21.4520 C   0  0  0  0  0  2  0  0  0  0  0  0
  -18.0160  -26.7850   22.1390 C   0  0  0  0  0  2  0  0  0  0  0  0
  -19.0000  -28.8520   23.2910 C   0  0  0  0  0  0  0  0  0  0  0  0
  -18.8040  -30.0950   23.9320 C   0  0  0  0  0  3  0  0  0  0  0  0
  -17.5070  -30.5960   24.1510 C   0  0  0  0  0  3  0  0  0  0  0  0
  -16.3880  -29.8500   23.7420 C   0  0  0  0  0  3  0  0  0  0  0  0
  -16.5680  -28.6100   23.1050 C   0  0  0  0  0  3  0  0  0  0  0  0
  -25.8090  -32.4190   23.7090 C   0  0  0  0  0  3  0  0  0  0  0  0
  -25.5410  -33.8100   24.0960 N   0  0  0  0  0  0  0  0  0  0  0  0
  -25.8780  -34.8830   23.3680 C   0  0  0  0  0  0  0  0  0  0  0  0
  -26.5200  -34.8020   22.3160 O   0  0  0  0  0  0  0  0  0  0  0  0
  -24.9700  -33.9500   24.9180 H   0  0  0  0  0  0  0  0  0  0  0  0
  -24.2000  -36.7370   23.1050 C   0  0  0  0  0  1  0  0  0  0  0  0
  -25.4350  -36.2640   23.8870 C   0  0  0  0  0  3  0  0  0  0  0  0
  -27.5970  -37.0580   24.7390 C   0  0  0  0  0  1  0  0  0  0  0  0
  -26.4970  -37.2910   23.8080 N   0  0  0  0  0  0  0  0  0  0  0  0
  -26.1180  -38.2160   23.9900 H   0  0  0  0  0  0  0  0  0  0  0  0
  -26.3550  -31.5950   24.9380 C   0  0  1  0  0  0  0  0  0  0  0  0
  -25.2990  -31.3490   26.0410 C   0  0  0  0  0  1  0  0  0  0  0  0
  -26.8870  -30.2160   24.4800 C   0  0  0  0  0  1  0  0  0  0  0  0
  -27.5500  -32.3390   25.5780 C   0  0  0  0  0  1  0  0  0  0  0  0
  1 17  1  0
  2  7  1  0
  3  4  1  0
  3  2  1  0
  5  4  1  0
  5 23  1  0
  5  6  1  0
  7  1  1  0
  7  6  1  0
  8  1  2  0
  9 48  1  0
  9 10  2  0
 10 13  1  0
 11  9  1  0
 12 14  2  0
 14 10  1  0
 15 11  2  0
 15 12  1  0
 16 18  1  0
 16 11  1  0
 17 12  1  0
 17 19  1  0
 20 21  2  0
 21 40  1  0
 22 21  1  0
 22 25  1  0
 23 24  1  0
 23 20  1  0
 24 22  2  0
 25 26  1  0
 26 27  2  0
 28 31  1  0
 28 27  1  0
 29 28  2  0
 30 29  1  0
 30 25  2  0
 31 32  1  0
 32 37  2  0
 32 33  1  0
 33 34  2  0
 34 35  1  0
 35 39  1  0
 36 35  2  0
 37 36  1  0
 38 37  1  0
 40 41  1  0
 41 44  1  0
 41 43  1  0
 42 40  2  0
 45 46  1  0
 45 20  1  0
 47 45  1  0
 48 50  1  0
 48 49  1  0
 51 52  1  0
 51 16  1  0
 53 56  1  0
 53 52  1  0
 54 53  1  0
 55 54  1  0
 56 57  1  0
 57 59  1  0
 58 69  2  0
 59 64  1  0
 60 68  1  0
 60 70  1  0
 61 67  1  0
 61 63  1  0
 62 68  1  0
 63 62  1  0
 64 63  2  0
 65 66  1  0
 65 59  2  0
 66 61  2  0
 67 60  1  0
 68 58  1  0
 70 72  2  0
 71 70  1  0
 73 71  1  0
 74 83  2  0
 74 79  1  0
 75 71  1  0
 75 79  1  0
 76 75  1  0
 77 78  1  0
 77 76  1  0
 78 74  1  0
 79 80  2  0
 80 81  1  0
 82 81  2  0
 83 82  1  0
 84 58  1  0
 84 85  1  0
 84 94  1  0
 85 88  1  0
 86 90  1  0
 86 85  1  0
 87 86  2  0
 90 89  1  0
 92 90  1  0
 92 93  1  0
 92 91  1  0
 94 97  1  1
 94 95  1  0
 96 94  1  0
M  ISO  4   1 100  17 100  56 101  57 101
M  END
>  <TORSDO>  (92) 
F 21

>  <SCORE>  (92) 
-13.862

>  <name>  (92) 
91

>  <ligand_id>  (92) 
91

>  <original_smiles>  (92) 
[H]OC([H])(C([H])([H])Oc1c([H])c([H])c2c(c1[H])C([H])([H])N(C(=O)C([H])(N([H])C(=O)C([H])(N([H])C([H])([H])[H])C([H])([H])[H])C(C([H])([H])[H])(C([H])([H])[H])C([H])([H])[H])C([H])(C(=O)N([H])C1([H])c3c([H])c([H])c([H])c([H])c3C([H])([H])C([H])([H])C1([H])[H])C2([H])[H])C([H])([H])C([H])([H])N([H])c1nc(N([H])C(=O)N2C([H])([H])C([H])([H])C([H])([H])C([H])(n3nc(-c4c([H])c([H])c(Oc5c([H])c([H])c(F)c([H])c5F)c([H])c4[H])c(C(=O)N([H])[H])c3N([H])[H])C2([H])[H])nc(C([H])([H])[H])c1N([H])[H]

>  <smiles>  (92) 
[H]OC([H])(C([H])([H])Oc1c([H])c([H])c2c(c1[H])C([H])([H])N(C(=O)C([H])(N([H])C(=O)C([H])(N([H])C([H])([H])[H])C([H])([H])[H])C(C([H])([H])[H])(C([H])([H])[H])C([H])([H])[H])C([H])(C(=O)N([H])C1([H])c3c([H])c([H])c([H])c([H])c3C([H])([H])C([H])([H])C1([H])[H])C2([H])[H])C([H])([H])C([H])([H])N([H])c1nc(N([H])C(=O)N2C([H])([H])C([H])([H])C([H])([H])C([H])(n3nc(-c4c([H])c([H])c(Oc5c([H])c([H])c(F)c([H])c5F)c([H])c4[H])c(C(=O)N([H])[H])c3N([H])[H])C2([H])[H])nc(C([H])([H])[H])c1N([H])[H]

$$$$
92:0:0
     RDKit          3D

 93101  0  0  1  0  0  0  0  0999 V2000
  -28.9770  -22.1990   19.6680 C   0  0  0  0  0  3  0  0  0  0  0  0
  -29.9860  -18.4120   20.8740 C   0  0  0  0  0  3  0  0  0  0  0  0
  -29.3300  -19.5420   20.1800 C   0  0  0  0  0  0  0  0  0  0  0  0
  -29.6410  -17.1260   20.4110 C   0  0  0  0  0  0  0  0  0  0  0  0
  -28.4850  -19.1380   19.2560 N   0  0  0  0  0  0  0  0  0  0  0  0
  -29.4930  -20.9840   20.4330 N   0  0  0  0  0  0  0  0  0  0  0  0
  -28.5140  -17.4430   19.1200 S   0  0  0  0  0  0  0  0  0  0  0  0
  -30.1360  -21.2230   21.1820 H   0  0  0  0  0  0  0  0  0  0  0  0
  -30.5680  -14.7540   20.3840 C   0  0  0  0  0  0  0  0  0  0  0  0
  -30.3910  -12.4790   19.3610 C   0  0  0  0  0  2  0  0  0  0  0  0
  -29.4530  -12.5650   18.1360 C   0  0  0  0  0  2  0  0  0  0  0  0
  -27.9820  -12.3880   18.5600 C   0  0  0  0  0  2  0  0  0  0  0  0
  -27.6080  -13.2620   19.7860 C   0  0  0  0  0  3  0  0  0  0  0  0
  -28.6640  -13.1500   20.9090 C   0  0  0  0  0  2  0  0  0  0  0  0
  -29.9670  -13.5140   20.3350 N   0  0  0  0  0  0  0  0  0  0  0  0
  -31.7100  -14.9050   19.9350 O   0  0  0  0  0  0  0  0  0  0  0  0
  -29.8420  -15.8190   20.8910 N   0  0  0  0  0  0  0  0  0  0  0  0
  -29.0330  -15.4680   21.3800 H   0  0  0  0  0  0  0  0  0  0  0  0
  -25.2120  -13.8490   20.4940 C   0  0  0  0  0  0  0  0  0  0  0  0
  -24.1470  -13.0740   20.8640 C   0  0  0  0  0  0  0  0  0  0  0  0
  -24.6150  -11.7240   20.8430 C   0  0  0  0  0  0  0  0  0  0  0  0
  -26.2600  -12.9720   20.2680 N   0  0  0  0  0  0  0  0  0  0  0  0
  -25.9080  -11.6890   20.5390 N   0  0  0  0  0  0  0  0  0  0  0  0
  -23.8910  -10.4610   21.0390 C   0  0  0  0  0  0  0  0  0  0  0  0
  -24.3280   -9.4950   21.9730 C   0  0  0  0  0  3  0  0  0  0  0  0
  -23.6040   -8.2980   22.1570 C   0  0  0  0  0  3  0  0  0  0  0  0
  -22.4310   -8.0550   21.4040 C   0  0  0  0  0  0  0  0  0  0  0  0
  -22.0130   -9.0090   20.4600 C   0  0  0  0  0  3  0  0  0  0  0  0
  -22.7370  -10.1990   20.2750 C   0  0  0  0  0  3  0  0  0  0  0  0
  -21.6780   -6.9090   21.4970 O   0  0  0  0  0  0  0  0  0  0  0  0
  -21.6390   -6.1650   22.6490 C   0  0  0  0  0  0  0  0  0  0  0  0
  -21.2200   -6.7170   23.8780 C   0  0  0  0  0  3  0  0  0  0  0  0
  -21.1270   -5.8990   25.0220 C   0  0  0  0  0  3  0  0  0  0  0  0
  -21.4440   -4.5310   24.9380 C   0  0  0  0  0  0  0  0  0  0  0  0
  -21.8570   -3.9780   23.7130 C   0  0  0  0  0  3  0  0  0  0  0  0
  -21.9510   -4.7920   22.5710 C   0  0  0  0  0  0  0  0  0  0  0  0
  -22.3290   -4.2500   21.3890 F   0  0  0  0  0  0  0  0  0  0  0  0
  -21.3470   -3.7430   26.0340 F   0  0  0  0  0  0  0  0  0  0  0  0
  -22.7480  -13.5480   21.1280 C   0  0  0  0  0  0  0  0  0  0  0  0
  -22.0180  -12.8540   21.9950 N   0  0  0  0  0  0  0  0  0  0  0  0
  -22.3090  -14.5690   20.6010 O   0  0  0  0  0  0  0  0  0  0  0  0
  -22.3860  -12.0290   22.4440 H   0  0  0  0  0  0  0  0  0  0  0  0
  -21.0790  -13.1560   22.2140 H   0  0  0  0  0  0  0  0  0  0  0  0
  -25.3700  -15.2190   20.3070 N   0  0  0  0  0  0  0  0  0  0  0  0
  -24.5950  -15.8660   20.4040 H   0  0  0  0  0  0  0  0  0  0  0  0
  -26.2110  -15.6580   19.9550 H   0  0  0  0  0  0  0  0  0  0  0  0
  -29.4610  -21.3300   17.2230 C   0  0  0  0  0  1  0  0  0  0  0  0
  -29.7450  -22.3630   18.3210 C   0  0  0  0  0  2  0  0  0  0  0  0
  -28.9650  -23.6480   20.4470 C   0  0  0  0  0  3  0  0  0  0  0  0
  -30.3280  -24.0030   20.6010 O   0  0  0  0  0  0  0  0  0  0  0  0
  -30.7000  -24.0700   19.7270 H   0  0  0  0  0  0  0  0  0  0  0  0
  -28.1820  -24.9250   19.7850 C   0  0  0  0  0  2  0  0  0  0  0  0
  -28.2770  -26.3510   20.2870 O   0  0  0  0  0  0  0  0  0  0  0  0
  -24.6010  -31.8810   23.2460 C   0  0  0  0  0  0  0  0  0  0  0  0
  -27.1860  -27.2570   20.1890 C   0  0  0  0  0  0  0  0  0  0  0  0
  -23.3970  -30.4920   21.6000 C   0  0  0  0  0  3  0  0  0  0  0  0
  -24.8420  -28.9350   20.1700 C   0  0  0  0  0  0  0  0  0  0  0  0
  -25.9440  -30.7760   21.4360 C   0  0  0  0  0  2  0  0  0  0  0  0
  -26.0140  -29.3950   20.7830 C   0  0  0  0  0  0  0  0  0  0  0  0
  -27.1840  -28.5660   20.7880 C   0  0  0  0  0  3  0  0  0  0  0  0
  -25.9950  -26.8860   19.5220 C   0  0  0  0  0  3  0  0  0  0  0  0
  -24.8400  -27.6880   19.5300 C   0  0  0  0  0  3  0  0  0  0  0  0
  -23.6130  -29.8210   20.2190 C   0  0  0  0  0  2  0  0  0  0  0  0
  -24.6660  -31.0690   22.1490 N   0  0  0  0  0  0  0  0  0  0  0  0
  -23.5160  -32.1660   23.7750 O   0  0  0  0  0  0  0  0  0  0  0  0
  -22.7220  -29.4790   22.5560 C   0  0  0  0  0  0  0  0  0  0  0  0
  -21.3960  -29.3030   22.4170 N   0  0  0  0  0  0  0  0  0  0  0  0
  -23.3910  -28.8550   23.3840 O   0  0  0  0  0  0  0  0  0  0  0  0
  -20.9140  -29.8580   21.7240 H   0  0  0  0  0  0  0  0  0  0  0  0
  -18.0160  -28.0920   22.8790 C   0  0  0  0  0  0  0  0  0  0  0  0
  -20.5700  -28.3670   23.1840 C   0  0  0  0  0  3  0  0  0  0  0  0
  -20.6860  -26.9320   22.6230 C   0  0  0  0  0  2  0  0  0  0  0  0
  -19.6020  -26.5940   21.5960 C   0  0  0  0  0  2  0  0  0  0  0  0
  -18.2100  -26.7380   22.2170 C   0  0  0  0  0  2  0  0  0  0  0  0
  -19.1250  -28.8640   23.3200 C   0  0  0  0  0  0  0  0  0  0  0  0
  -18.8910  -30.1300   23.8990 C   0  0  0  0  0  3  0  0  0  0  0  0
  -17.5810  -30.6250   24.0420 C   0  0  0  0  0  3  0  0  0  0  0  0
  -16.4870  -29.8520   23.6180 C   0  0  0  0  0  3  0  0  0  0  0  0
  -16.7050  -28.5860   23.0420 C   0  0  0  0  0  3  0  0  0  0  0  0
  -25.8840  -32.5070   23.8720 C   0  0  0  0  0  3  0  0  0  0  0  0
  -25.5820  -33.9090   24.1970 N   0  0  0  0  0  0  0  0  0  0  0  0
  -25.9230  -34.9590   23.4380 C   0  0  0  0  0  0  0  0  0  0  0  0
  -26.5940  -34.8480   22.4080 O   0  0  0  0  0  0  0  0  0  0  0  0
  -24.9860  -34.0700   24.9960 H   0  0  0  0  0  0  0  0  0  0  0  0
  -24.2080  -36.7640   23.0780 C   0  0  0  0  0  1  0  0  0  0  0  0
  -25.4450  -36.3510   23.8910 C   0  0  0  0  0  3  0  0  0  0  0  0
  -27.5850  -37.2250   24.7230 C   0  0  0  0  0  1  0  0  0  0  0  0
  -26.4850  -37.3970   23.7760 N   0  0  0  0  0  0  0  0  0  0  0  0
  -26.0860  -38.3210   23.9190 H   0  0  0  0  0  0  0  0  0  0  0  0
  -26.3860  -31.7380   25.1570 C   0  0  1  0  0  0  0  0  0  0  0  0
  -25.2840  -31.5160   26.2190 C   0  0  0  0  0  1  0  0  0  0  0  0
  -26.9590  -30.3530   24.7790 C   0  0  0  0  0  1  0  0  0  0  0  0
  -27.5380  -32.5260   25.8220 C   0  0  0  0  0  1  0  0  0  0  0  0
  1 48  1  0
  1  6  1  0
  1 49  1  0
  3  6  1  0
  3  2  1  0
  4  2  2  0
  4 17  1  0
  5  3  2  0
  6  8  1  0
  7  5  1  0
  7  4  1  0
  9 17  1  0
 10 15  1  0
 11 12  1  0
 11 10  1  0
 13 12  1  0
 13 22  1  0
 13 14  1  0
 15  9  1  0
 15 14  1  0
 16  9  2  0
 17 18  1  0
 19 20  2  0
 20 39  1  0
 21 20  1  0
 21 24  1  0
 22 19  1  0
 22 23  1  0
 23 21  2  0
 24 25  1  0
 25 26  2  0
 27 30  1  0
 27 26  1  0
 28 27  2  0
 29 28  1  0
 29 24  2  0
 30 31  1  0
 31 32  1  0
 32 33  2  0
 34 33  1  0
 34 38  1  0
 35 34  2  0
 36 31  2  0
 36 35  1  0
 37 36  1  0
 39 40  1  0
 40 43  1  0
 40 42  1  0
 41 39  2  0
 44 45  1  0
 44 19  1  0
 46 44  1  0
 47 48  1  0
 49 52  1  0
 49 50  1  0
 51 50  1  0
 52 53  1  0
 54 65  2  0
 55 53  1  0
 55 60  1  0
 56 64  1  0
 56 66  1  0
 57 63  1  0
 57 59  1  0
 58 64  1  0
 59 60  2  0
 59 58  1  0
 61 62  1  0
 61 55  2  0
 62 57  2  0
 63 56  1  0
 64 54  1  0
 66 68  2  0
 67 66  1  0
 69 67  1  0
 70 79  2  0
 70 75  1  0
 71 67  1  0
 71 75  1  0
 72 71  1  0
 73 74  1  0
 73 72  1  0
 74 70  1  0
 75 76  2  0
 76 77  1  0
 78 77  2  0
 79 78  1  0
 80 54  1  0
 80 81  1  0
 80 90  1  0
 81 84  1  0
 82 86  1  0
 82 81  1  0
 83 82  2  0
 86 85  1  0
 88 86  1  0
 88 89  1  0
 88 87  1  0
 90 93  1  1
 90 91  1  0
 92 90  1  0
M  ISO  4   9 100  17 100  52 101  53 101
M  END
>  <TORSDO>  (93) 
F 21

>  <SCORE>  (93) 
-13.795

>  <name>  (93) 
92

>  <ligand_id>  (93) 
92

>  <original_smiles>  (93) 
[H]OC([H])(C([H])([H])Oc1c([H])c([H])c2c(c1[H])C([H])([H])N(C(=O)C([H])(N([H])C(=O)C([H])(N([H])C([H])([H])[H])C([H])([H])[H])C(C([H])([H])[H])(C([H])([H])[H])C([H])([H])[H])C([H])(C(=O)N([H])C1([H])c3c([H])c([H])c([H])c([H])c3C([H])([H])C([H])([H])C1([H])[H])C2([H])[H])C([H])(N([H])c1nsc(N([H])C(=O)N2C([H])([H])C([H])([H])C([H])([H])C([H])(n3nc(-c4c([H])c([H])c(Oc5c([H])c([H])c(F)c([H])c5F)c([H])c4[H])c(C(=O)N([H])[H])c3N([H])[H])C2([H])[H])c1[H])C([H])([H])C([H])([H])[H]

>  <smiles>  (93) 
[H]OC([H])(C([H])([H])Oc1c([H])c([H])c2c(c1[H])C([H])([H])N(C(=O)C([H])(N([H])C(=O)C([H])(N([H])C([H])([H])[H])C([H])([H])[H])C(C([H])([H])[H])(C([H])([H])[H])C([H])([H])[H])C([H])(C(=O)N([H])C1([H])c3c([H])c([H])c([H])c([H])c3C([H])([H])C([H])([H])C1([H])[H])C2([H])[H])C([H])(N([H])c1nsc(N([H])C(=O)N2C([H])([H])C([H])([H])C([H])([H])C([H])(n3nc(-c4c([H])c([H])c(Oc5c([H])c([H])c(F)c([H])c5F)c([H])c4[H])c(C(=O)N([H])[H])c3N([H])[H])C2([H])[H])c1[H])C([H])([H])C([H])([H])[H]

$$$$
93:0:0
     RDKit          3D

 96104  0  0  1  0  0  0  0  0999 V2000
  -31.1140  -20.7370   19.1340 C   0  0  0  0  0  1  0  0  0  0  0  0
  -30.2400  -20.6430   20.3950 C   0  0  0  0  0  3  0  0  0  0  0  0
  -30.6630  -14.5350   20.1020 C   0  0  0  0  0  0  0  0  0  0  0  0
  -30.3420  -12.3840   18.9190 C   0  0  0  0  0  2  0  0  0  0  0  0
  -29.3320  -12.6240   17.7760 C   0  0  0  0  0  2  0  0  0  0  0  0
  -27.8790  -12.4730   18.2770 C   0  0  0  0  0  2  0  0  0  0  0  0
  -27.6180  -13.2610   19.5910 C   0  0  0  0  0  3  0  0  0  0  0  0
  -28.7360  -12.9980   20.6250 C   0  0  0  0  0  2  0  0  0  0  0  0
  -30.0150  -13.3400   19.9870 N   0  0  0  0  0  0  0  0  0  0  0  0
  -31.8210  -14.7000   19.7030 O   0  0  0  0  0  0  0  0  0  0  0  0
  -30.2580  -19.2060   20.9790 C   0  0  0  0  0  0  0  0  0  0  0  0
  -30.6250  -18.8770   22.2730 C   0  0  0  0  0  0  0  0  0  0  0  0
  -30.1980  -16.8830   20.8830 C   0  0  0  0  0  0  0  0  0  0  0  0
  -29.9480  -18.0400   20.2200 N   0  0  0  0  0  0  0  0  0  0  0  0
  -29.8490  -15.5820   20.3960 N   0  0  0  0  0  0  0  0  0  0  0  0
  -30.7160  -17.1480   22.5370 S   0  0  0  0  0  0  0  0  0  0  0  0
  -28.8850  -15.3270   20.5380 H   0  0  0  0  0  0  0  0  0  0  0  0
  -25.2680  -13.8690   20.4410 C   0  0  0  0  0  0  0  0  0  0  0  0
  -24.2160  -13.0950   20.8540 C   0  0  0  0  0  0  0  0  0  0  0  0
  -24.6690  -11.7410   20.7810 C   0  0  0  0  0  0  0  0  0  0  0  0
  -26.2940  -12.9840   20.1400 N   0  0  0  0  0  0  0  0  0  0  0  0
  -25.9410  -11.7000   20.4030 N   0  0  0  0  0  0  0  0  0  0  0  0
  -23.9450  -10.4800   20.9880 C   0  0  0  0  0  0  0  0  0  0  0  0
  -24.4030   -9.5130   21.9100 C   0  0  0  0  0  3  0  0  0  0  0  0
  -23.6840   -8.3150   22.1080 C   0  0  0  0  0  3  0  0  0  0  0  0
  -22.4900   -8.0770   21.3850 C   0  0  0  0  0  0  0  0  0  0  0  0
  -22.0510   -9.0320   20.4500 C   0  0  0  0  0  3  0  0  0  0  0  0
  -22.7710  -10.2210   20.2510 C   0  0  0  0  0  3  0  0  0  0  0  0
  -21.7400   -6.9310   21.4920 O   0  0  0  0  0  0  0  0  0  0  0  0
  -21.6930   -6.2070   22.6560 C   0  0  0  0  0  0  0  0  0  0  0  0
  -21.2670   -6.7800   23.8750 C   0  0  0  0  0  3  0  0  0  0  0  0
  -21.1710   -5.9820   25.0330 C   0  0  0  0  0  3  0  0  0  0  0  0
  -21.4880   -4.6110   24.9710 C   0  0  0  0  0  0  0  0  0  0  0  0
  -21.9080   -4.0380   23.7570 C   0  0  0  0  0  3  0  0  0  0  0  0
  -22.0070   -4.8340   22.6020 C   0  0  0  0  0  0  0  0  0  0  0  0
  -22.3910   -4.2740   21.4310 F   0  0  0  0  0  0  0  0  0  0  0  0
  -21.3880   -3.8410   26.0790 F   0  0  0  0  0  0  0  0  0  0  0  0
  -22.8370  -13.5740   21.2000 C   0  0  0  0  0  0  0  0  0  0  0  0
  -22.1530  -12.8770   22.1000 N   0  0  0  0  0  0  0  0  0  0  0  0
  -22.3770  -14.6030   20.7070 O   0  0  0  0  0  0  0  0  0  0  0  0
  -22.5360  -12.0440   22.5210 H   0  0  0  0  0  0  0  0  0  0  0  0
  -21.2280  -13.1820   22.3700 H   0  0  0  0  0  0  0  0  0  0  0  0
  -25.4240  -15.2410   20.2720 N   0  0  0  0  0  0  0  0  0  0  0  0
  -24.6460  -15.8760   20.4090 H   0  0  0  0  0  0  0  0  0  0  0  0
  -26.2240  -15.6850   19.8400 H   0  0  0  0  0  0  0  0  0  0  0  0
  -30.9300  -19.7110   23.3470 N   0  0  0  0  0  0  0  0  0  0  0  0
  -30.7200  -20.7030   23.3920 H   0  0  0  0  0  0  0  0  0  0  0  0
  -31.1880  -19.3450   24.2610 H   0  0  0  0  0  0  0  0  0  0  0  0
  -28.8860  -21.2310   20.1380 N   0  0  0  0  0  4  0  0  0  0  0  0
  -28.2330  -20.5190   20.4210 H   0  0  0  0  0  0  0  0  0  0  0  0
  -28.7680  -21.3080   19.1410 H   0  0  0  0  0  0  0  0  0  0  0  0
  -28.5950  -22.4560   22.3410 C   0  0  0  0  0  1  0  0  0  0  0  0
  -28.4530  -22.5240   20.8060 C   0  0  0  0  0  3  0  0  0  0  0  0
  -28.9630  -23.8970   20.1890 C   0  0  0  0  0  2  0  0  0  0  0  0
  -28.1880  -25.1640   20.7300 C   0  0  0  0  0  2  0  0  0  0  0  0
  -28.4530  -26.5000   20.1850 O   0  0  0  0  0  0  0  0  0  0  0  0
  -24.5930  -31.7940   23.1730 C   0  0  0  0  0  0  0  0  0  0  0  0
  -27.3350  -27.3320   20.1360 C   0  0  0  0  0  0  0  0  0  0  0  0
  -23.4450  -30.3810   21.5070 C   0  0  0  0  0  3  0  0  0  0  0  0
  -24.9470  -28.8710   20.0980 C   0  0  0  0  0  0  0  0  0  0  0  0
  -25.9810  -30.7480   21.3780 C   0  0  0  0  0  2  0  0  0  0  0  0
  -26.0920  -29.3810   20.7250 C   0  0  0  0  0  0  0  0  0  0  0  0
  -27.2940  -28.6190   20.7410 C   0  0  0  0  0  3  0  0  0  0  0  0
  -26.1790  -26.8760   19.4670 C   0  0  0  0  0  3  0  0  0  0  0  0
  -24.9880  -27.6230   19.4590 C   0  0  0  0  0  3  0  0  0  0  0  0
  -23.6940  -29.7190   20.1260 C   0  0  0  0  0  2  0  0  0  0  0  0
  -24.6900  -30.9890   22.0760 N   0  0  0  0  0  0  0  0  0  0  0  0
  -23.4930  -32.0520   23.6840 O   0  0  0  0  0  0  0  0  0  0  0  0
  -22.7820  -29.3480   22.4470 C   0  0  0  0  0  0  0  0  0  0  0  0
  -21.4600  -29.1560   22.2970 N   0  0  0  0  0  0  0  0  0  0  0  0
  -23.4540  -28.7250   23.2730 O   0  0  0  0  0  0  0  0  0  0  0  0
  -20.9740  -29.7160   21.6090 H   0  0  0  0  0  0  0  0  0  0  0  0
  -18.0910  -27.9270   22.7360 C   0  0  0  0  0  0  0  0  0  0  0  0
  -20.6410  -28.2070   23.0490 C   0  0  0  0  0  3  0  0  0  0  0  0
  -20.7680  -26.7790   22.4670 C   0  0  0  0  0  2  0  0  0  0  0  0
  -19.6840  -26.4520   21.4350 C   0  0  0  0  0  2  0  0  0  0  0  0
  -18.2890  -26.5830   22.0550 C   0  0  0  0  0  2  0  0  0  0  0  0
  -19.1950  -28.6950   23.1880 C   0  0  0  0  0  0  0  0  0  0  0  0
  -18.9570  -29.9550   23.7800 C   0  0  0  0  0  3  0  0  0  0  0  0
  -17.6450  -30.4430   23.9280 C   0  0  0  0  0  3  0  0  0  0  0  0
  -16.5530  -29.6710   23.4910 C   0  0  0  0  0  3  0  0  0  0  0  0
  -16.7770  -28.4150   22.9000 C   0  0  0  0  0  3  0  0  0  0  0  0
  -25.8520  -32.4430   23.8230 C   0  0  0  0  0  3  0  0  0  0  0  0
  -25.5080  -33.8330   24.1590 N   0  0  0  0  0  0  0  0  0  0  0  0
  -25.8390  -34.8970   23.4140 C   0  0  0  0  0  0  0  0  0  0  0  0
  -26.5310  -34.8140   22.3950 O   0  0  0  0  0  0  0  0  0  0  0  0
  -24.8900  -33.9740   24.9440 H   0  0  0  0  0  0  0  0  0  0  0  0
  -24.0850  -36.6600   23.0390 C   0  0  0  0  0  1  0  0  0  0  0  0
  -25.3180  -36.2730   23.8710 C   0  0  0  0  0  3  0  0  0  0  0  0
  -27.4230  -37.1880   24.7460 C   0  0  0  0  0  1  0  0  0  0  0  0
  -26.3350  -37.3450   23.7840 N   0  0  0  0  0  0  0  0  0  0  0  0
  -25.9100  -38.2560   23.9320 H   0  0  0  0  0  0  0  0  0  0  0  0
  -26.3590  -31.6700   25.1020 C   0  0  1  0  0  0  0  0  0  0  0  0
  -25.2510  -31.4070   26.1470 C   0  0  0  0  0  1  0  0  0  0  0  0
  -26.9730  -30.3050   24.7120 C   0  0  0  0  0  1  0  0  0  0  0  0
  -27.4860  -32.4780   25.7890 C   0  0  0  0  0  1  0  0  0  0  0  0
  2  1  1  0
  2 11  1  0
  3 15  1  0
  4  9  1  0
  5  6  1  0
  5  4  1  0
  7  6  1  0
  7 21  1  0
  7  8  1  0
  9  3  1  0
  9  8  1  0
 10  3  2  0
 11 12  2  0
 12 16  1  0
 12 46  1  0
 13 16  1  0
 14 13  2  0
 14 11  1  0
 15 17  1  0
 15 13  1  0
 18 19  2  0
 19 38  1  0
 20 19  1  0
 20 23  1  0
 21 22  1  0
 21 18  1  0
 22 20  2  0
 23 24  1  0
 24 25  2  0
 26 29  1  0
 26 25  1  0
 27 26  2  0
 28 27  1  0
 28 23  2  0
 29 30  1  0
 30 31  1  0
 31 32  2  0
 33 32  1  0
 33 37  1  0
 34 33  2  0
 35 30  2  0
 35 34  1  0
 36 35  1  0
 38 39  1  0
 39 42  1  0
 39 41  1  0
 40 38  2  0
 43 44  1  0
 43 18  1  0
 45 43  1  0
 46 47  1  0
 46 48  1  0
 49  2  1  0
 49 50  1  0
 49 53  1  0
 51 49  1  0
 53 52  1  0
 54 55  1  0
 54 53  1  0
 56 55  1  0
 57 68  2  0
 58 56  1  0
 58 63  1  0
 59 67  1  0
 59 69  1  0
 60 66  1  0
 60 62  1  0
 61 67  1  0
 62 63  2  0
 62 61  1  0
 64 58  2  0
 65 64  1  0
 65 60  2  0
 66 59  1  0
 67 57  1  0
 69 71  2  0
 70 69  1  0
 72 70  1  0
 73 82  2  0
 73 78  1  0
 74 70  1  0
 74 78  1  0
 75 74  1  0
 76 77  1  0
 76 75  1  0
 77 73  1  0
 78 79  2  0
 79 80  1  0
 81 80  2  0
 82 81  1  0
 83 57  1  0
 83 84  1  0
 83 93  1  0
 84 87  1  0
 85 89  1  0
 85 84  1  0
 86 85  2  0
 89 88  1  0
 91 89  1  0
 91 92  1  0
 91 90  1  0
 93 96  1  1
 93 94  1  0
 95 93  1  0
M  ISO  4   3 100  15 100  55 101  56 101
M  END
>  <TORSDO>  (94) 
F 21

>  <SCORE>  (94) 
-13.413

>  <name>  (94) 
93

>  <ligand_id>  (94) 
93

>  <original_smiles>  (94) 
[H]c1c([H])c([H])c2c(c1[H])C([H])([H])C([H])([H])C([H])([H])C2([H])N([H])C(=O)C1([H])N(C(=O)C([H])(N([H])C(=O)C([H])(N([H])C([H])([H])[H])C([H])([H])[H])C(C([H])([H])[H])(C([H])([H])[H])C([H])([H])[H])C([H])([H])c2c([H])c(OC([H])([H])C([H])([H])C([H])(C([H])([H])[H])[N+]([H])([H])C([H])(c3nc(N([H])C(=O)N4C([H])([H])C([H])([H])C([H])([H])C([H])(n5nc(-c6c([H])c([H])c(Oc7c([H])c([H])c(F)c([H])c7F)c([H])c6[H])c(C(=O)N([H])[H])c5N([H])[H])C4([H])[H])sc3N([H])[H])C([H])([H])[H])c([H])c([H])c2C1([H])[H]

>  <smiles>  (94) 
[H]c1c([H])c([H])c2c(c1[H])C([H])([H])C([H])([H])C([H])([H])C2([H])N([H])C(=O)C1([H])N(C(=O)C([H])(N([H])C(=O)C([H])(N([H])C([H])([H])[H])C([H])([H])[H])C(C([H])([H])[H])(C([H])([H])[H])C([H])([H])[H])C([H])([H])c2c([H])c(OC([H])([H])C([H])([H])C([H])(C([H])([H])[H])[N+]([H])([H])C([H])(c3nc(N([H])C(=O)N4C([H])([H])C([H])([H])C([H])([H])C([H])(n5nc(-c6c([H])c([H])c(Oc7c([H])c([H])c(F)c([H])c7F)c([H])c6[H])c(C(=O)N([H])[H])c5N([H])[H])C4([H])[H])sc3N([H])[H])C([H])([H])[H])c([H])c([H])c2C1([H])[H]

$$$$
