0:0:0
     RDKit          3D

 96104  0  0  1  0  0  0  0  0999 V2000
  -30.0790  -20.8030   20.1190 N   0  0  0  0  0  0  0  0  0  0  0  0
  -30.7310  -21.2240   19.4640 H   0  0  0  0  0  0  0  0  0  0  0  0
  -30.6860  -14.5120   20.4360 C   0  0  0  0  0  0  0  0  0  0  0  0
  -30.3550  -12.3570   19.2760 C   0  0  0  0  0  2  0  0  0  0  0  0
  -29.4280  -12.5900   18.0660 C   0  0  0  0  0  2  0  0  0  0  0  0
  -27.9530  -12.4550   18.4860 C   0  0  0  0  0  2  0  0  0  0  0  0
  -27.6180  -13.2790   19.7600 C   0  0  0  0  0  3  0  0  0  0  0  0
  -28.6680  -13.0550   20.8730 C   0  0  0  0  0  2  0  0  0  0  0  0
  -29.9940  -13.3450   20.3100 N   0  0  0  0  0  0  0  0  0  0  0  0
  -31.8200  -14.6250   19.9610 O   0  0  0  0  0  0  0  0  0  0  0  0
  -31.5020  -18.7710   20.0520 C   0  0  0  0  0  0  0  0  0  0  0  0
  -30.3300  -19.4350   20.3810 C   0  0  0  0  0  0  0  0  0  0  0  0
  -30.2880  -16.9610   20.8060 C   0  0  0  0  0  0  0  0  0  0  0  0
  -31.4680  -17.4080   20.3760 N   0  0  0  0  0  0  0  0  0  0  0  0
  -30.0160  -15.5580   20.9840 N   0  0  0  0  0  0  0  0  0  0  0  0
  -29.1440  -18.3010   21.0520 S   0  0  0  0  0  0  0  0  0  0  0  0
  -29.1210  -15.3330   21.3900 H   0  0  0  0  0  0  0  0  0  0  0  0
  -25.2220  -13.8890   20.4650 C   0  0  0  0  0  0  0  0  0  0  0  0
  -24.1520  -13.1160   20.8360 C   0  0  0  0  0  0  0  0  0  0  0  0
  -24.6130  -11.7640   20.8100 C   0  0  0  0  0  0  0  0  0  0  0  0
  -26.2630  -13.0040   20.2360 N   0  0  0  0  0  0  0  0  0  0  0  0
  -25.9030  -11.7220   20.4990 N   0  0  0  0  0  0  0  0  0  0  0  0
  -23.8840  -10.5040   21.0040 C   0  0  0  0  0  0  0  0  0  0  0  0
  -24.3060   -9.5440   21.9500 C   0  0  0  0  0  3  0  0  0  0  0  0
  -23.5780   -8.3500   22.1320 C   0  0  0  0  0  3  0  0  0  0  0  0
  -22.4140   -8.1060   21.3680 C   0  0  0  0  0  0  0  0  0  0  0  0
  -22.0120   -9.0520   20.4080 C   0  0  0  0  0  3  0  0  0  0  0  0
  -22.7400  -10.2400   20.2240 C   0  0  0  0  0  3  0  0  0  0  0  0
  -21.6570   -6.9640   21.4560 O   0  0  0  0  0  0  0  0  0  0  0  0
  -21.5880   -6.2330   22.6160 C   0  0  0  0  0  0  0  0  0  0  0  0
  -21.1270   -6.7940   23.8250 C   0  0  0  0  0  3  0  0  0  0  0  0
  -21.0090   -5.9900   24.9780 C   0  0  0  0  0  3  0  0  0  0  0  0
  -21.3430   -4.6240   24.9190 C   0  0  0  0  0  0  0  0  0  0  0  0
  -21.7960   -4.0600   23.7130 C   0  0  0  0  0  3  0  0  0  0  0  0
  -21.9170   -4.8630   22.5650 C   0  0  0  0  0  0  0  0  0  0  0  0
  -22.3330   -4.3090   21.4010 F   0  0  0  0  0  0  0  0  0  0  0  0
  -21.2220   -3.8490   26.0210 F   0  0  0  0  0  0  0  0  0  0  0  0
  -22.7570  -13.5980   21.1070 C   0  0  0  0  0  0  0  0  0  0  0  0
  -22.0280  -12.8980   21.9700 N   0  0  0  0  0  0  0  0  0  0  0  0
  -22.3240  -14.6260   20.5920 O   0  0  0  0  0  0  0  0  0  0  0  0
  -22.3900  -12.0610   22.4020 H   0  0  0  0  0  0  0  0  0  0  0  0
  -21.0910  -13.1990   22.1970 H   0  0  0  0  0  0  0  0  0  0  0  0
  -25.3900  -15.2570   20.2830 N   0  0  0  0  0  0  0  0  0  0  0  0
  -24.6190  -15.9110   20.3830 H   0  0  0  0  0  0  0  0  0  0  0  0
  -26.2350  -15.6930   19.9360 H   0  0  0  0  0  0  0  0  0  0  0  0
  -33.5150  -20.2260   20.4450 C   0  0  0  0  0  1  0  0  0  0  0  0
  -32.4900  -20.1400   18.1490 C   0  0  0  0  0  1  0  0  0  0  0  0
  -33.7460  -18.1890   19.0210 C   0  0  0  0  0  1  0  0  0  0  0  0
  -32.7830  -19.3300   19.4290 C   0  0  2  0  0  0  0  0  0  0  0  0
  -29.7700  -21.6610   22.4200 C   0  0  0  0  0  1  0  0  0  0  0  0
  -29.3290  -21.7570   20.9460 C   0  0  0  0  0  3  0  0  0  0  0  0
  -29.5540  -23.2070   20.3930 C   0  0  0  0  0  2  0  0  0  0  0  0
  -27.8760  -24.5410   21.8750 C   0  0  0  0  0  1  0  0  0  0  0  0
  -28.3510  -24.2130   20.4400 C   0  0  0  0  0  3  0  0  0  0  0  0
  -28.6300  -25.4860   19.5670 C   0  0  0  0  0  2  0  0  0  0  0  0
  -28.4690  -26.7640   20.2020 O   0  0  0  0  0  0  0  0  0  0  0  0
  -24.6000  -31.8890   23.2240 C   0  0  0  0  0  0  0  0  0  0  0  0
  -27.2700  -27.4500   20.1510 C   0  0  0  0  0  0  0  0  0  0  0  0
  -23.4060  -30.4930   21.5650 C   0  0  0  0  0  3  0  0  0  0  0  0
  -24.8680  -28.9510   20.1540 C   0  0  0  0  0  0  0  0  0  0  0  0
  -25.9340  -30.8490   21.3930 C   0  0  0  0  0  2  0  0  0  0  0  0
  -26.0220  -29.4800   20.7470 C   0  0  0  0  0  0  0  0  0  0  0  0
  -27.2220  -28.7340   20.7410 C   0  0  0  0  0  3  0  0  0  0  0  0
  -26.0930  -26.9340   19.5600 C   0  0  0  0  0  3  0  0  0  0  0  0
  -24.8990  -27.6780   19.5590 C   0  0  0  0  0  3  0  0  0  0  0  0
  -23.6260  -29.8080   20.1890 C   0  0  0  0  0  2  0  0  0  0  0  0
  -24.6640  -31.0930   22.1170 N   0  0  0  0  0  0  0  0  0  0  0  0
  -23.5160  -32.1580   23.7580 O   0  0  0  0  0  0  0  0  0  0  0  0
  -22.7450  -29.4730   22.5210 C   0  0  0  0  0  0  0  0  0  0  0  0
  -21.4180  -29.3030   22.3930 N   0  0  0  0  0  0  0  0  0  0  0  0
  -23.4210  -28.8390   23.3340 O   0  0  0  0  0  0  0  0  0  0  0  0
  -20.9350  -29.8650   21.7070 H   0  0  0  0  0  0  0  0  0  0  0  0
  -18.0390  -28.1390   22.9170 C   0  0  0  0  0  0  0  0  0  0  0  0
  -20.6010  -28.3680   23.1640 C   0  0  0  0  0  3  0  0  0  0  0  0
  -20.6840  -26.9430   22.5710 C   0  0  0  0  0  2  0  0  0  0  0  0
  -19.5680  -26.6420   21.5650 C   0  0  0  0  0  2  0  0  0  0  0  0
  -18.1920  -26.7960   22.2200 C   0  0  0  0  0  2  0  0  0  0  0  0
  -19.1700  -28.8830   23.3450 C   0  0  0  0  0  0  0  0  0  0  0  0
  -18.9720  -30.1390   23.9590 C   0  0  0  0  0  3  0  0  0  0  0  0
  -17.6760  -30.6550   24.1410 C   0  0  0  0  0  3  0  0  0  0  0  0
  -16.5590  -29.9130   23.7220 C   0  0  0  0  0  3  0  0  0  0  0  0
  -16.7410  -28.6530   23.1230 C   0  0  0  0  0  3  0  0  0  0  0  0
  -25.8820  -32.5170   23.8550 C   0  0  0  0  0  3  0  0  0  0  0  0
  -25.5740  -33.9160   24.1760 N   0  0  0  0  0  0  0  0  0  0  0  0
  -25.9250  -34.9650   23.4190 C   0  0  0  0  0  0  0  0  0  0  0  0
  -26.6070  -34.8570   22.3960 O   0  0  0  0  0  0  0  0  0  0  0  0
  -24.9710  -34.0800   24.9690 H   0  0  0  0  0  0  0  0  0  0  0  0
  -24.2100  -36.7640   23.0330 C   0  0  0  0  0  1  0  0  0  0  0  0
  -25.4350  -36.3560   23.8670 C   0  0  0  0  0  3  0  0  0  0  0  0
  -27.5540  -37.2260   24.7440 C   0  0  0  0  0  1  0  0  0  0  0  0
  -26.4730  -37.4050   23.7780 N   0  0  0  0  0  0  0  0  0  0  0  0
  -26.0680  -38.3250   23.9320 H   0  0  0  0  0  0  0  0  0  0  0  0
  -26.3880  -31.7510   25.1390 C   0  0  1  0  0  0  0  0  0  0  0  0
  -25.2800  -31.5020   26.1900 C   0  0  0  0  0  1  0  0  0  0  0  0
  -26.9880  -30.3800   24.7550 C   0  0  0  0  0  1  0  0  0  0  0  0
  -27.5260  -32.5560   25.8140 C   0  0  0  0  0  1  0  0  0  0  0  0
  1 12  1  0
  1 51  1  0
  2  1  1  0
  3 15  1  0
  4  9  1  0
  5  6  1  0
  5  4  1  0
  7  6  1  0
  7 21  1  0
  7  8  1  0
  9  3  1  0
  9  8  1  0
 10  3  2  0
 11 14  1  0
 11 12  2  0
 12 16  1  0
 13 15  1  0
 13 16  1  0
 14 13  2  0
 15 17  1  0
 18 19  2  0
 19 38  1  0
 20 19  1  0
 20 23  1  0
 21 18  1  0
 21 22  1  0
 22 20  2  0
 23 24  1  0
 24 25  2  0
 26 29  1  0
 26 25  1  0
 27 26  2  0
 28 27  1  0
 28 23  2  0
 29 30  1  0
 30 31  1  0
 31 32  2  0
 33 32  1  0
 33 37  1  0
 34 33  2  0
 35 30  2  0
 35 34  1  0
 36 35  1  0
 38 39  1  0
 39 42  1  0
 39 41  1  0
 40 38  2  0
 43 44  1  0
 43 18  1  0
 45 43  1  0
 49 47  1  6
 48 49  1  0
 49 11  1  0
 49 46  1  0
 51 50  1  0
 52 54  1  0
 52 51  1  0
 54 53  1  0
 55 56  1  0
 55 54  1  0
 57 68  2  0
 58 56  1  0
 58 63  1  0
 59 67  1  0
 59 69  1  0
 60 66  1  0
 60 62  1  0
 61 67  1  0
 62 61  1  0
 63 62  2  0
 64 58  2  0
 65 64  1  0
 65 60  2  0
 66 59  1  0
 67 57  1  0
 69 71  2  0
 70 69  1  0
 72 70  1  0
 73 82  2  0
 73 78  1  0
 74 70  1  0
 74 78  1  0
 75 74  1  0
 76 77  1  0
 76 75  1  0
 77 73  1  0
 78 79  2  0
 79 80  1  0
 81 80  2  0
 82 81  1  0
 83 57  1  0
 83 84  1  0
 83 93  1  0
 84 87  1  0
 85 89  1  0
 85 84  1  0
 86 85  2  0
 89 88  1  0
 91 89  1  0
 91 92  1  0
 91 90  1  0
 93 96  1  1
 93 94  1  0
 95 93  1  0
M  ISO  4   3 100  15 100  55 101  56 101
M  END
>  <TORSDO>  (1) 
F 21

>  <SCORE>  (1) 
-13.538

>  <name>  (1) 
0

>  <ligand_id>  (1) 
0

>  <original_smiles>  (1) 
[H]c1c([H])c([H])c2c(c1[H])C([H])([H])C([H])([H])C([H])([H])C2([H])N([H])C(=O)C1([H])N(C(=O)C([H])(N([H])C(=O)C([H])(N([H])C([H])([H])[H])C([H])([H])[H])C(C([H])([H])[H])(C([H])([H])[H])C([H])([H])[H])C([H])([H])c2c([H])c(OC([H])([H])C([H])(C([H])([H])[H])C([H])([H])C([H])(N([H])c3sc(N([H])C(=O)N4C([H])([H])C([H])([H])C([H])([H])C([H])(n5nc(-c6c([H])c([H])c(Oc7c([H])c([H])c(F)c([H])c7F)c([H])c6[H])c(C(=O)N([H])[H])c5N([H])[H])C4([H])[H])nc3C(C([H])([H])[H])(C([H])([H])[H])C([H])([H])[H])C([H])([H])[H])c([H])c([H])c2C1([H])[H]

>  <smiles>  (1) 
[H]c1c([H])c([H])c2c(c1[H])C([H])([H])C([H])([H])C([H])([H])C2([H])N([H])C(=O)C1([H])N(C(=O)C([H])(N([H])C(=O)C([H])(N([H])C([H])([H])[H])C([H])([H])[H])C(C([H])([H])[H])(C([H])([H])[H])C([H])([H])[H])C([H])([H])c2c([H])c(OC([H])([H])C([H])(C([H])([H])[H])C([H])([H])C([H])(N([H])c3sc(N([H])C(=O)N4C([H])([H])C([H])([H])C([H])([H])C([H])(n5nc(-c6c([H])c([H])c(Oc7c([H])c([H])c(F)c([H])c7F)c([H])c6[H])c(C(=O)N([H])[H])c5N([H])[H])C4([H])[H])nc3C(C([H])([H])[H])(C([H])([H])[H])C([H])([H])[H])C([H])([H])[H])c([H])c([H])c2C1([H])[H]

$$$$
1:0:0
     RDKit          3D

 95103  0  0  1  0  0  0  0  0999 V2000
  -29.5890  -22.3100   20.7240 C   0  0  0  0  0  0  0  0  0  0  0  0
  -28.9840  -21.1120   20.8490 N   0  0  0  0  0  0  0  0  0  0  0  0
  -30.7850  -22.4300   20.4450 O   0  0  0  0  0  0  0  0  0  0  0  0
  -27.9860  -21.1390   21.0070 H   0  0  0  0  0  0  0  0  0  0  0  0
  -30.9330  -19.4330   20.9130 C   0  0  0  0  0  3  0  0  0  0  0  0
  -29.5720  -19.8150   20.7420 C   0  0  0  0  0  0  0  0  0  0  0  0
  -28.8960  -18.6610   20.4500 C   0  0  0  0  0  0  0  0  0  0  0  0
  -27.4530  -18.4180   20.1460 C   0  0  0  0  0  1  0  0  0  0  0  0
  -31.0890  -18.1250   20.7300 N   0  0  0  0  0  0  0  0  0  0  0  0
  -29.8480  -17.6470   20.4430 N   0  0  0  0  0  0  0  0  0  0  0  0
  -29.6660  -16.2410   20.0710 C   0  0  0  0  0  2  0  0  0  0  0  0
  -31.2340  -14.3690   19.7540 C   0  0  0  0  0  0  0  0  0  0  0  0
  -30.7720  -12.1110   18.8650 C   0  0  0  0  0  2  0  0  0  0  0  0
  -29.7650  -12.1780   17.7020 C   0  0  0  0  0  2  0  0  0  0  0  0
  -28.3200  -12.1220   18.2330 C   0  0  0  0  0  2  0  0  0  0  0  0
  -28.0720  -13.1360   19.3790 C   0  0  0  0  0  3  0  0  0  0  0  0
  -29.1850  -13.0450   20.4480 C   0  0  0  0  0  2  0  0  0  0  0  0
  -30.4840  -13.2300   19.7790 N   0  0  0  0  0  0  0  0  0  0  0  0
  -32.3000  -14.4490   19.1420 O   0  0  0  0  0  0  0  0  0  0  0  0
  -30.8110  -15.4190   20.4730 N   0  0  0  0  0  0  0  0  0  0  0  0
  -31.5800  -16.0430   20.6760 H   0  0  0  0  0  0  0  0  0  0  0  0
  -25.8120  -13.9400   20.3060 C   0  0  0  0  0  0  0  0  0  0  0  0
  -24.7080  -13.2570   20.7400 C   0  0  0  0  0  0  0  0  0  0  0  0
  -25.0340  -11.8700   20.6270 C   0  0  0  0  0  0  0  0  0  0  0  0
  -26.7450  -12.9740   19.9610 N   0  0  0  0  0  0  0  0  0  0  0  0
  -26.2830  -11.7220   20.2090 N   0  0  0  0  0  0  0  0  0  0  0  0
  -24.2060  -10.6750   20.8330 C   0  0  0  0  0  0  0  0  0  0  0  0
  -24.5920   -9.6570   21.7320 C   0  0  0  0  0  3  0  0  0  0  0  0
  -23.7700   -8.5270   21.9260 C   0  0  0  0  0  3  0  0  0  0  0  0
  -22.5500   -8.4070   21.2220 C   0  0  0  0  0  0  0  0  0  0  0  0
  -22.1830   -9.4130   20.3100 C   0  0  0  0  0  3  0  0  0  0  0  0
  -23.0040  -10.5360   20.1130 C   0  0  0  0  0  3  0  0  0  0  0  0
  -21.6980   -7.3340   21.3310 O   0  0  0  0  0  0  0  0  0  0  0  0
  -21.6070   -6.6040   22.4890 C   0  0  0  0  0  0  0  0  0  0  0  0
  -21.2470   -7.1970   23.7190 C   0  0  0  0  0  3  0  0  0  0  0  0
  -21.0960   -6.3960   24.8690 C   0  0  0  0  0  3  0  0  0  0  0  0
  -21.2960   -5.0050   24.7910 C   0  0  0  0  0  0  0  0  0  0  0  0
  -21.6480   -4.4120   23.5650 C   0  0  0  0  0  3  0  0  0  0  0  0
  -21.8020   -5.2090   22.4180 C   0  0  0  0  0  0  0  0  0  0  0  0
  -22.1210   -4.6300   21.2360 F   0  0  0  0  0  0  0  0  0  0  0  0
  -21.1440   -4.2340   25.8930 F   0  0  0  0  0  0  0  0  0  0  0  0
  -23.3890  -13.8510   21.1420 C   0  0  0  0  0  0  0  0  0  0  0  0
  -22.6780  -13.2030   22.0580 N   0  0  0  0  0  0  0  0  0  0  0  0
  -23.0030  -14.9230   20.6780 O   0  0  0  0  0  0  0  0  0  0  0  0
  -22.9990  -12.3320   22.4530 H   0  0  0  0  0  0  0  0  0  0  0  0
  -21.7960  -13.5860   22.3700 H   0  0  0  0  0  0  0  0  0  0  0  0
  -26.0870  -15.2960   20.1540 N   0  0  0  0  0  0  0  0  0  0  0  0
  -25.3750  -15.9990   20.3160 H   0  0  0  0  0  0  0  0  0  0  0  0
  -26.9020  -15.6620   19.6830 H   0  0  0  0  0  0  0  0  0  0  0  0
  -28.6980  -23.5610   20.9100 C   0  0  0  0  0  2  0  0  0  0  0  0
  -29.4150  -24.8410   21.4280 C   0  0  0  0  0  3  0  0  0  0  0  0
  -29.8500  -24.6440   22.7700 O   0  0  0  0  0  0  0  0  0  0  0  0
  -29.0800  -24.5910   23.3280 H   0  0  0  0  0  0  0  0  0  0  0  0
  -28.5170  -26.1090   21.4400 C   0  0  0  0  0  2  0  0  0  0  0  0
  -28.1900  -26.5820   20.1320 O   0  0  0  0  0  0  0  0  0  0  0  0
  -24.3850  -31.8120   23.1420 C   0  0  0  0  0  0  0  0  0  0  0  0
  -27.0660  -27.3720   20.1060 C   0  0  0  0  0  0  0  0  0  0  0  0
  -23.2030  -30.4180   21.4740 C   0  0  0  0  0  3  0  0  0  0  0  0
  -24.6790  -28.8790   20.0700 C   0  0  0  0  0  0  0  0  0  0  0  0
  -25.7320  -30.7700   21.3230 C   0  0  0  0  0  2  0  0  0  0  0  0
  -25.8240  -29.3990   20.6870 C   0  0  0  0  0  0  0  0  0  0  0  0
  -27.0210  -28.6490   20.7100 C   0  0  0  0  0  3  0  0  0  0  0  0
  -25.9120  -26.8700   19.4720 C   0  0  0  0  0  3  0  0  0  0  0  0
  -24.7160  -27.6120   19.4600 C   0  0  0  0  0  3  0  0  0  0  0  0
  -23.4350  -29.7400   20.0960 C   0  0  0  0  0  2  0  0  0  0  0  0
  -24.4560  -31.0140   22.0390 N   0  0  0  0  0  0  0  0  0  0  0  0
  -23.2960  -32.0870   23.6640 O   0  0  0  0  0  0  0  0  0  0  0  0
  -22.5310  -29.3960   22.4210 C   0  0  0  0  0  0  0  0  0  0  0  0
  -21.2040  -29.2360   22.2830 N   0  0  0  0  0  0  0  0  0  0  0  0
  -23.2000  -28.7530   23.2330 O   0  0  0  0  0  0  0  0  0  0  0  0
  -20.7280  -29.8060   21.5980 H   0  0  0  0  0  0  0  0  0  0  0  0
  -17.8040  -28.1150   22.7670 C   0  0  0  0  0  0  0  0  0  0  0  0
  -20.3680  -28.3040   23.0390 C   0  0  0  0  0  3  0  0  0  0  0  0
  -20.4340  -26.8830   22.4360 C   0  0  0  0  0  2  0  0  0  0  0  0
  -19.3240  -26.6050   21.4180 C   0  0  0  0  0  2  0  0  0  0  0  0
  -17.9470  -26.7740   22.0670 C   0  0  0  0  0  2  0  0  0  0  0  0
  -18.9420  -28.8410   23.2090 C   0  0  0  0  0  0  0  0  0  0  0  0
  -18.7560  -30.0990   23.8220 C   0  0  0  0  0  3  0  0  0  0  0  0
  -17.4640  -30.6300   23.9970 C   0  0  0  0  0  3  0  0  0  0  0  0
  -16.3400  -29.9010   23.5730 C   0  0  0  0  0  3  0  0  0  0  0  0
  -16.5120  -28.6450   22.9640 C   0  0  0  0  0  3  0  0  0  0  0  0
  -25.6630  -32.4350   23.7850 C   0  0  0  0  0  3  0  0  0  0  0  0
  -25.3540  -33.8300   24.1230 N   0  0  0  0  0  0  0  0  0  0  0  0
  -25.7030  -34.8880   23.3770 C   0  0  0  0  0  0  0  0  0  0  0  0
  -26.3900  -34.7910   22.3570 O   0  0  0  0  0  0  0  0  0  0  0  0
  -24.7460  -33.9800   24.9140 H   0  0  0  0  0  0  0  0  0  0  0  0
  -23.9850  -36.6860   23.0070 C   0  0  0  0  0  1  0  0  0  0  0  0
  -25.2110  -36.2730   23.8380 C   0  0  0  0  0  3  0  0  0  0  0  0
  -27.3310  -37.1460   24.7150 C   0  0  0  0  0  1  0  0  0  0  0  0
  -26.2480  -37.3240   23.7520 N   0  0  0  0  0  0  0  0  0  0  0  0
  -25.8410  -38.2440   23.9000 H   0  0  0  0  0  0  0  0  0  0  0  0
  -26.1650  -31.6500   25.0590 C   0  0  1  0  0  0  0  0  0  0  0  0
  -25.0580  -31.3990   26.1090 C   0  0  0  0  0  1  0  0  0  0  0  0
  -26.7530  -30.2770   24.6560 C   0  0  0  0  0  1  0  0  0  0  0  0
  -27.3050  -32.4380   25.7470 C   0  0  0  0  0  1  0  0  0  0  0  0
  1  2  1  0
  1 50  1  0
  2  4  1  0
  3  1  2  0
  6  2  1  0
  6  5  1  0
  7  6  2  0
  8  7  1  0
  9  5  2  0
 10  7  1  0
 10  9  1  0
 11 10  1  0
 11 20  1  0
 12 18  1  0
 12 20  1  0
 13 18  1  0
 14 15  1  0
 14 13  1  0
 16 15  1  0
 16 25  1  0
 16 17  1  0
 18 17  1  0
 19 12  2  0
 20 21  1  0
 22 23  2  0
 23 42  1  0
 24 23  1  0
 24 27  1  0
 25 26  1  0
 25 22  1  0
 26 24  2  0
 27 28  1  0
 28 29  2  0
 30 33  1  0
 30 29  1  0
 31 30  2  0
 32 31  1  0
 32 27  2  0
 33 34  1  0
 34 35  1  0
 35 36  2  0
 37 36  1  0
 37 41  1  0
 38 37  2  0
 39 34  2  0
 39 38  1  0
 40 39  1  0
 42 43  1  0
 43 46  1  0
 43 45  1  0
 44 42  2  0
 47 22  1  0
 47 48  1  0
 49 47  1  0
 51 50  1  0
 51 54  1  0
 51 52  1  0
 52 53  1  0
 55 54  1  0
 56 67  2  0
 57 55  1  0
 57 62  1  0
 58 66  1  0
 58 68  1  0
 59 65  1  0
 59 61  1  0
 60 66  1  0
 61 62  2  0
 61 60  1  0
 63 57  2  0
 64 63  1  0
 64 59  2  0
 65 58  1  0
 66 56  1  0
 68 70  2  0
 69 68  1  0
 71 69  1  0
 72 81  2  0
 72 77  1  0
 73 69  1  0
 73 77  1  0
 74 73  1  0
 75 76  1  0
 75 74  1  0
 76 72  1  0
 77 78  2  0
 78 79  1  0
 80 79  2  0
 81 80  1  0
 82 56  1  0
 82 83  1  0
 82 92  1  0
 83 86  1  0
 84 88  1  0
 84 83  1  0
 85 84  2  0
 88 87  1  0
 90 88  1  0
 90 91  1  0
 90 89  1  0
 92 95  1  1
 92 93  1  0
 94 92  1  0
M  ISO  4  12 100  20 100  54 101  55 101
M  END
>  <TORSDO>  (2) 
F 22

>  <SCORE>  (2) 
-13.350

>  <name>  (2) 
1

>  <ligand_id>  (2) 
1

>  <original_smiles>  (2) 
[H]OC([H])(C([H])([H])Oc1c([H])c([H])c2c(c1[H])C([H])([H])N(C(=O)C([H])(N([H])C(=O)C([H])(N([H])C([H])([H])[H])C([H])([H])[H])C(C([H])([H])[H])(C([H])([H])[H])C([H])([H])[H])C([H])(C(=O)N([H])C1([H])c3c([H])c([H])c([H])c([H])c3C([H])([H])C([H])([H])C1([H])[H])C2([H])[H])C([H])([H])C(=O)N([H])c1c([H])nn(C([H])([H])N([H])C(=O)N2C([H])([H])C([H])([H])C([H])([H])C([H])(n3nc(-c4c([H])c([H])c(Oc5c([H])c([H])c(F)c([H])c5F)c([H])c4[H])c(C(=O)N([H])[H])c3N([H])[H])C2([H])[H])c1C([H])([H])[H]

>  <smiles>  (2) 
[H]OC([H])(C([H])([H])Oc1c([H])c([H])c2c(c1[H])C([H])([H])N(C(=O)C([H])(N([H])C(=O)C([H])(N([H])C([H])([H])[H])C([H])([H])[H])C(C([H])([H])[H])(C([H])([H])[H])C([H])([H])[H])C([H])(C(=O)N([H])C1([H])c3c([H])c([H])c([H])c([H])c3C([H])([H])C([H])([H])C1([H])[H])C2([H])[H])C([H])([H])C(=O)N([H])c1c([H])nn(C([H])([H])N([H])C(=O)N2C([H])([H])C([H])([H])C([H])([H])C([H])(n3nc(-c4c([H])c([H])c(Oc5c([H])c([H])c(F)c([H])c5F)c([H])c4[H])c(C(=O)N([H])[H])c3N([H])[H])C2([H])[H])c1C([H])([H])[H]

$$$$
2:0:0
     RDKit          3D

 97105  0  0  1  0  0  0  0  0999 V2000
  -29.1030  -21.7600   19.9700 C   0  0  0  0  0  3  0  0  0  0  0  0
  -29.8750  -23.0410   20.4940 C   0  0  0  0  0  3  0  0  0  0  0  0
  -29.8510  -23.0130   21.8290 F   0  0  0  0  0  0  0  0  0  0  0  0
  -29.5340  -24.5150   20.0750 C   0  0  0  0  0  2  0  0  0  0  0  0
  -28.3430  -25.2540   20.7290 C   0  0  0  0  0  2  0  0  0  0  0  0
  -28.4440  -26.6720   20.4370 O   0  0  0  0  0  0  0  0  0  0  0  0
  -24.5800  -31.9380   23.3230 C   0  0  0  0  0  0  0  0  0  0  0  0
  -27.2790  -27.4160   20.3960 C   0  0  0  0  0  0  0  0  0  0  0  0
  -23.4160  -30.5180   21.6700 C   0  0  0  0  0  3  0  0  0  0  0  0
  -24.9000  -28.9550   20.3060 C   0  0  0  0  0  0  0  0  0  0  0  0
  -25.9470  -30.8590   21.5310 C   0  0  0  0  0  2  0  0  0  0  0  0
  -26.0450  -29.4750   20.9210 C   0  0  0  0  0  0  0  0  0  0  0  0
  -27.2390  -28.7140   20.9610 C   0  0  0  0  0  3  0  0  0  0  0  0
  -26.1190  -26.9220   19.7590 C   0  0  0  0  0  3  0  0  0  0  0  0
  -24.9320  -27.6790   19.7200 C   0  0  0  0  0  3  0  0  0  0  0  0
  -23.6620  -29.8250   20.3040 C   0  0  0  0  0  2  0  0  0  0  0  0
  -24.6670  -31.1190   22.2360 N   0  0  0  0  0  0  0  0  0  0  0  0
  -23.4840  -32.2190   23.8290 O   0  0  0  0  0  0  0  0  0  0  0  0
  -22.7360  -29.5080   22.6220 C   0  0  0  0  0  0  0  0  0  0  0  0
  -21.4120  -29.3400   22.4690 N   0  0  0  0  0  0  0  0  0  0  0  0
  -23.3960  -28.8780   23.4520 O   0  0  0  0  0  0  0  0  0  0  0  0
  -20.9370  -29.8990   21.7740 H   0  0  0  0  0  0  0  0  0  0  0  0
  -18.0120  -28.2230   22.9390 C   0  0  0  0  0  0  0  0  0  0  0  0
  -20.5730  -28.4160   23.2310 C   0  0  0  0  0  3  0  0  0  0  0  0
  -20.6470  -26.9870   22.6460 C   0  0  0  0  0  2  0  0  0  0  0  0
  -19.5460  -26.6960   21.6230 C   0  0  0  0  0  2  0  0  0  0  0  0
  -18.1630  -26.8720   22.2600 C   0  0  0  0  0  2  0  0  0  0  0  0
  -19.1450  -28.9540   23.3830 C   0  0  0  0  0  0  0  0  0  0  0  0
  -18.9540  -30.2200   23.9780 C   0  0  0  0  0  3  0  0  0  0  0  0
  -17.6630  -30.7530   24.1370 C   0  0  0  0  0  3  0  0  0  0  0  0
  -16.5420  -30.0180   23.7150 C   0  0  0  0  0  3  0  0  0  0  0  0
  -16.7170  -28.7550   23.1190 C   0  0  0  0  0  3  0  0  0  0  0  0
  -25.8480  -32.5780   23.9670 C   0  0  0  0  0  3  0  0  0  0  0  0
  -25.5360  -33.9850   24.2530 N   0  0  0  0  0  0  0  0  0  0  0  0
  -25.9080  -35.0180   23.4870 C   0  0  0  0  0  0  0  0  0  0  0  0
  -26.6210  -34.8880   22.4870 O   0  0  0  0  0  0  0  0  0  0  0  0
  -24.9030  -34.1600   25.0200 H   0  0  0  0  0  0  0  0  0  0  0  0
  -24.2180  -36.8190   23.0130 C   0  0  0  0  0  1  0  0  0  0  0  0
  -25.4150  -36.4200   23.8930 C   0  0  0  0  0  3  0  0  0  0  0  0
  -27.5120  -37.3030   24.8130 C   0  0  0  0  0  1  0  0  0  0  0  0
  -26.4610  -37.4620   23.8120 N   0  0  0  0  0  0  0  0  0  0  0  0
  -26.0570  -38.3870   23.9250 H   0  0  0  0  0  0  0  0  0  0  0  0
  -26.3200  -31.8330   25.2750 C   0  0  1  0  0  0  0  0  0  0  0  0
  -25.1920  -31.6160   26.3100 C   0  0  0  0  0  1  0  0  0  0  0  0
  -26.9120  -30.4480   24.9240 C   0  0  0  0  0  1  0  0  0  0  0  0
  -27.4470  -32.6390   25.9630 C   0  0  0  0  0  1  0  0  0  0  0  0
  -29.4250  -20.5300   20.7620 N   0  0  0  0  0  0  0  0  0  0  0  0
  -28.7050  -20.3010   21.4350 H   0  0  0  0  0  0  0  0  0  0  0  0
  -30.7660  -14.5670   20.9030 C   0  0  0  0  0  0  0  0  0  0  0  0
  -30.5530  -12.3230   19.9290 C   0  0  0  0  0  2  0  0  0  0  0  0
  -29.7350  -12.4610   18.6310 C   0  0  0  0  0  2  0  0  0  0  0  0
  -28.2290  -12.3260   18.9300 C   0  0  0  0  0  2  0  0  0  0  0  0
  -27.7690  -13.2160   20.1190 C   0  0  0  0  0  3  0  0  0  0  0  0
  -28.7310  -13.1120   21.3220 C   0  0  0  0  0  2  0  0  0  0  0  0
  -30.0890  -13.3860   20.8380 N   0  0  0  0  0  0  0  0  0  0  0  0
  -31.9870  -14.5940   20.7530 O   0  0  0  0  0  0  0  0  0  0  0  0
  -31.9690  -18.3400   19.0790 C   0  0  0  0  0  3  0  0  0  0  0  0
  -31.4540  -17.1040   19.4650 C   0  0  0  0  0  3  0  0  0  0  0  0
  -31.3850  -19.5130   19.5730 C   0  0  0  0  0  0  0  0  0  0  0  0
  -30.4100  -17.0240   20.4110 C   0  0  0  0  0  0  0  0  0  0  0  0
  -30.2070  -19.4120   20.3570 C   0  0  0  0  0  0  0  0  0  0  0  0
  -32.1080  -20.8070   19.2580 C   0  0  0  0  0  1  0  0  0  0  0  0
  -29.7770  -18.1850   20.7900 N   0  0  0  0  0  0  0  0  0  0  0  0
  -30.0210  -15.7140   20.9070 N   0  0  0  0  0  0  0  0  0  0  0  0
  -29.0630  -15.6210   21.1990 H   0  0  0  0  0  0  0  0  0  0  0  0
  -25.3240  -13.8110   20.6310 C   0  0  0  0  0  0  0  0  0  0  0  0
  -24.2360  -13.0390   20.9350 C   0  0  0  0  0  0  0  0  0  0  0  0
  -24.7080  -11.6920   20.9770 C   0  0  0  0  0  0  0  0  0  0  0  0
  -26.3890  -12.9340   20.5030 N   0  0  0  0  0  0  0  0  0  0  0  0
  -26.0180  -11.6550   20.7740 N   0  0  0  0  0  0  0  0  0  0  0  0
  -23.9760  -10.4290   21.1390 C   0  0  0  0  0  0  0  0  0  0  0  0
  -24.3490   -9.4810   22.1170 C   0  0  0  0  0  3  0  0  0  0  0  0
  -23.6200   -8.2830   22.2690 C   0  0  0  0  0  3  0  0  0  0  0  0
  -22.5010   -8.0240   21.4410 C   0  0  0  0  0  0  0  0  0  0  0  0
  -22.1470   -8.9600   20.4530 C   0  0  0  0  0  3  0  0  0  0  0  0
  -22.8790  -10.1500   20.3010 C   0  0  0  0  0  3  0  0  0  0  0  0
  -21.7480   -6.8760   21.4980 O   0  0  0  0  0  0  0  0  0  0  0  0
  -21.6410   -6.1390   22.6510 C   0  0  0  0  0  0  0  0  0  0  0  0
  -21.1330   -6.6950   23.8460 C   0  0  0  0  0  3  0  0  0  0  0  0
  -20.9760   -5.8860   24.9890 C   0  0  0  0  0  3  0  0  0  0  0  0
  -21.3160   -4.5200   24.9360 C   0  0  0  0  0  0  0  0  0  0  0  0
  -21.8150   -3.9630   23.7460 C   0  0  0  0  0  3  0  0  0  0  0  0
  -21.9730   -4.7710   22.6050 C   0  0  0  0  0  0  0  0  0  0  0  0
  -22.4350   -4.2240   21.4550 F   0  0  0  0  0  0  0  0  0  0  0  0
  -21.1580   -3.7400   26.0310 F   0  0  0  0  0  0  0  0  0  0  0  0
  -22.8180  -13.5120   21.0810 C   0  0  0  0  0  0  0  0  0  0  0  0
  -22.0290  -12.8360   21.9070 N   0  0  0  0  0  0  0  0  0  0  0  0
  -22.4170  -14.5160   20.4970 O   0  0  0  0  0  0  0  0  0  0  0  0
  -22.3660  -12.0270   22.4080 H   0  0  0  0  0  0  0  0  0  0  0  0
  -21.0730  -13.1310   22.0410 H   0  0  0  0  0  0  0  0  0  0  0  0
  -25.4960  -15.1780   20.4330 N   0  0  0  0  0  0  0  0  0  0  0  0
  -24.7200  -15.8300   20.4560 H   0  0  0  0  0  0  0  0  0  0  0  0
  -26.3640  -15.6120   20.1460 H   0  0  0  0  0  0  0  0  0  0  0  0
  -29.0110  -21.4240   18.4390 C   0  0  0  0  0  2  0  0  0  0  0  0
  -28.1840  -23.4270   17.0360 C   0  0  0  0  0  1  0  0  0  0  0  0
  -29.7860  -21.7570   16.0570 C   0  0  0  0  0  1  0  0  0  0  0  0
  -29.3460  -22.4660   17.3500 C   0  0  0  0  0  3  0  0  0  0  0  0
  1 94  1  0
  1  2  1  0
  1 47  1  0
  2  3  1  0
  4  2  1  0
  4  5  1  0
  6  5  1  0
  7 18  2  0
  8  6  1  0
  8 13  1  0
  9 17  1  0
  9 19  1  0
 10 12  1  0
 11 17  1  0
 12 13  2  0
 12 11  1  0
 14  8  2  0
 15 14  1  0
 15 10  2  0
 16 10  1  0
 16  9  1  0
 17  7  1  0
 19 21  2  0
 20 19  1  0
 22 20  1  0
 23 32  2  0
 23 28  1  0
 24 20  1  0
 24 28  1  0
 25 24  1  0
 26 27  1  0
 26 25  1  0
 27 23  1  0
 28 29  2  0
 29 30  1  0
 31 30  2  0
 32 31  1  0
 33  7  1  0
 33 34  1  0
 33 43  1  0
 34 37  1  0
 35 39  1  0
 35 34  1  0
 36 35  2  0
 39 38  1  0
 41 39  1  0
 41 42  1  0
 41 40  1  0
 43 46  1  1
 43 44  1  0
 45 43  1  0
 47 48  1  0
 49 64  1  0
 50 55  1  0
 51 52  1  0
 51 50  1  0
 53 52  1  0
 53 69  1  0
 53 54  1  0
 55 49  1  0
 55 54  1  0
 56 49  2  0
 57 58  2  0
 57 59  1  0
 58 60  1  0
 59 61  2  0
 60 63  2  0
 60 64  1  0
 61 47  1  0
 61 63  1  0
 62 59  1  0
 64 65  1  0
 66 67  2  0
 67 68  1  0
 67 86  1  0
 68 71  1  0
 69 66  1  0
 69 70  1  0
 70 68  2  0
 71 72  1  0
 72 73  2  0
 74 77  1  0
 74 73  1  0
 75 74  2  0
 76 75  1  0
 76 71  2  0
 77 78  1  0
 78 79  1  0
 79 80  2  0
 81 80  1  0
 81 85  1  0
 82 81  2  0
 83 78  2  0
 83 82  1  0
 84 83  1  0
 86 87  1  0
 87 90  1  0
 87 89  1  0
 88 86  2  0
 91 92  1  0
 91 66  1  0
 93 91  1  0
 95 97  1  0
 96 97  1  0
 97 94  1  0
M  ISO  4   5 101   6 101  49 100  64 100
M  END
>  <TORSDO>  (3) 
F 22

>  <SCORE>  (3) 
-12.958

>  <name>  (3) 
2

>  <ligand_id>  (3) 
2

>  <original_smiles>  (3) 
[H]c1c(N([H])C(=O)N2C([H])([H])C([H])([H])C([H])([H])C([H])(n3nc(-c4c([H])c([H])c(Oc5c([H])c([H])c(F)c([H])c5F)c([H])c4[H])c(C(=O)N([H])[H])c3N([H])[H])C2([H])[H])nc(N([H])C([H])(C([H])([H])C([H])(C([H])([H])[H])C([H])([H])[H])C([H])(F)C([H])([H])C([H])([H])Oc2c([H])c([H])c3c(c2[H])C([H])([H])N(C(=O)C([H])(N([H])C(=O)C([H])(N([H])C([H])([H])[H])C([H])([H])[H])C(C([H])([H])[H])(C([H])([H])[H])C([H])([H])[H])C([H])(C(=O)N([H])C2([H])c4c([H])c([H])c([H])c([H])c4C([H])([H])C([H])([H])C2([H])[H])C3([H])[H])c(C([H])([H])[H])c1[H]

>  <smiles>  (3) 
[H]c1c(N([H])C(=O)N2C([H])([H])C([H])([H])C([H])([H])C([H])(n3nc(-c4c([H])c([H])c(Oc5c([H])c([H])c(F)c([H])c5F)c([H])c4[H])c(C(=O)N([H])[H])c3N([H])[H])C2([H])[H])nc(N([H])C([H])(C([H])([H])C([H])(C([H])([H])[H])C([H])([H])[H])C([H])(F)C([H])([H])C([H])([H])Oc2c([H])c([H])c3c(c2[H])C([H])([H])N(C(=O)C([H])(N([H])C(=O)C([H])(N([H])C([H])([H])[H])C([H])([H])[H])C(C([H])([H])[H])(C([H])([H])[H])C([H])([H])[H])C([H])(C(=O)N([H])C2([H])c4c([H])c([H])c([H])c([H])c4C([H])([H])C([H])([H])C2([H])[H])C3([H])[H])c(C([H])([H])[H])c1[H]

$$$$
3:0:0
     RDKit          3D

 98106  0  0  1  0  0  0  0  0999 V2000
  -28.8240  -22.0940   19.9780 C   0  0  0  0  0  3  0  0  0  0  0  0
  -31.1830  -15.0260   19.2670 C   0  0  0  0  0  0  0  0  0  0  0  0
  -30.8370  -12.7720   18.1840 C   0  0  0  0  0  2  0  0  0  0  0  0
  -29.6100  -12.7860   17.2480 C   0  0  0  0  0  2  0  0  0  0  0  0
  -28.3030  -12.5360   18.0280 C   0  0  0  0  0  2  0  0  0  0  0  0
  -28.2050  -13.3630   19.3360 C   0  0  0  0  0  3  0  0  0  0  0  0
  -29.5230  -13.3110   20.1300 C   0  0  0  0  0  2  0  0  0  0  0  0
  -30.5780  -13.7840   19.2330 N   0  0  0  0  0  0  0  0  0  0  0  0
  -32.3240  -15.1420   18.7990 O   0  0  0  0  0  0  0  0  0  0  0  0
  -30.3190  -19.7810   21.4930 C   0  0  0  0  0  3  0  0  0  0  0  0
  -30.5450  -18.5470   22.1070 C   0  0  0  0  0  0  0  0  0  0  0  0
  -30.1520  -19.8110   20.1150 C   0  0  0  0  0  0  0  0  0  0  0  0
  -30.5290  -17.4340   20.0700 C   0  0  0  0  0  0  0  0  0  0  0  0
  -30.6500  -17.3960   21.4020 N   0  0  0  0  0  0  0  0  0  0  0  0
  -30.2560  -18.6170   19.4150 N   0  0  0  0  0  0  0  0  0  0  0  0
  -29.8490  -21.0770   19.4840 N   0  0  0  0  0  0  0  0  0  0  0  0
  -30.3630  -16.1450   19.4630 N   0  0  0  0  0  0  0  0  0  0  0  0
  -29.7560  -20.9380   18.4820 H   0  0  0  0  0  0  0  0  0  0  0  0
  -29.3860  -15.9130   19.3830 H   0  0  0  0  0  0  0  0  0  0  0  0
  -26.2680  -13.7900   20.9630 C   0  0  0  0  0  0  0  0  0  0  0  0
  -25.2520  -12.9960   21.4130 C   0  0  0  0  0  0  0  0  0  0  0  0
  -25.4730  -11.7080   20.8320 C   0  0  0  0  0  0  0  0  0  0  0  0
  -27.0460  -12.9890   20.1410 N   0  0  0  0  0  0  0  0  0  0  0  0
  -26.5960  -11.7070   20.1220 N   0  0  0  0  0  0  0  0  0  0  0  0
  -24.6460  -10.4960   20.8640 C   0  0  0  0  0  0  0  0  0  0  0  0
  -25.1230   -9.2980   21.4400 C   0  0  0  0  0  3  0  0  0  0  0  0
  -24.3080   -8.1460   21.4790 C   0  0  0  0  0  3  0  0  0  0  0  0
  -23.0010   -8.1810   20.9370 C   0  0  0  0  0  0  0  0  0  0  0  0
  -22.5380   -9.3700   20.3440 C   0  0  0  0  0  3  0  0  0  0  0  0
  -23.3540  -10.5140   20.3030 C   0  0  0  0  0  3  0  0  0  0  0  0
  -22.1480   -7.1040   20.9070 O   0  0  0  0  0  0  0  0  0  0  0  0
  -22.1060   -6.1850   21.9260 C   0  0  0  0  0  0  0  0  0  0  0  0
  -21.8380   -6.5620   23.2590 C   0  0  0  0  0  3  0  0  0  0  0  0
  -21.7400   -5.5790   24.2630 C   0  0  0  0  0  3  0  0  0  0  0  0
  -21.9050   -4.2200   23.9330 C   0  0  0  0  0  0  0  0  0  0  0  0
  -22.1610   -3.8400   22.6040 C   0  0  0  0  0  3  0  0  0  0  0  0
  -22.2640   -4.8220   21.6020 C   0  0  0  0  0  0  0  0  0  0  0  0
  -22.4950   -4.4510   20.3200 F   0  0  0  0  0  0  0  0  0  0  0  0
  -21.8020   -3.2750   24.8960 F   0  0  0  0  0  0  0  0  0  0  0  0
  -24.0850  -13.4240   22.2500 C   0  0  0  0  0  0  0  0  0  0  0  0
  -23.5530  -12.5300   23.0730 N   0  0  0  0  0  0  0  0  0  0  0  0
  -23.6680  -14.5800   22.2150 O   0  0  0  0  0  0  0  0  0  0  0  0
  -23.9110  -11.5890   23.1260 H   0  0  0  0  0  0  0  0  0  0  0  0
  -22.7870  -12.8030   23.6710 H   0  0  0  0  0  0  0  0  0  0  0  0
  -26.5870  -15.1350   21.1590 N   0  0  0  0  0  0  0  0  0  0  0  0
  -26.0150  -15.7630   21.7130 H   0  0  0  0  0  0  0  0  0  0  0  0
  -27.3780  -15.6000   20.7390 H   0  0  0  0  0  0  0  0  0  0  0  0
  -29.3110  -17.8550   24.2270 C   0  0  0  0  0  1  0  0  0  0  0  0
  -30.5830  -18.4800   23.6250 C   0  0  0  0  0  2  0  0  0  0  0  0
  -29.3420  -23.6770   20.0530 C   0  0  0  0  0  2  0  0  0  0  0  0
  -28.6660  -25.1410   18.0830 C   0  0  0  0  0  1  0  0  0  0  0  0
  -28.4700  -24.9990   19.6130 C   0  0  0  0  0  3  0  0  0  0  0  0
  -28.5960  -26.4200   20.1520 O   0  0  0  0  0  0  0  0  0  0  0  0
  -24.7280  -31.8210   23.2360 C   0  0  0  0  0  0  0  0  0  0  0  0
  -27.4750  -27.3110   20.1190 C   0  0  0  0  0  0  0  0  0  0  0  0
  -23.5720  -30.4200   21.5690 C   0  0  0  0  0  3  0  0  0  0  0  0
  -25.0720  -28.9240   20.1330 C   0  0  0  0  0  0  0  0  0  0  0  0
  -26.1140  -30.7850   21.4110 C   0  0  0  0  0  2  0  0  0  0  0  0
  -26.2350  -29.4110   20.7410 C   0  0  0  0  0  0  0  0  0  0  0  0
  -27.4380  -28.6210   20.7210 C   0  0  0  0  0  3  0  0  0  0  0  0
  -26.2650  -26.9050   19.4970 C   0  0  0  0  0  3  0  0  0  0  0  0
  -25.0930  -27.6720   19.5030 C   0  0  0  0  0  3  0  0  0  0  0  0
  -23.8160  -29.7730   20.1810 C   0  0  0  0  0  2  0  0  0  0  0  0
  -24.8240  -31.0270   22.1280 N   0  0  0  0  0  0  0  0  0  0  0  0
  -23.6340  -32.0650   23.7660 O   0  0  0  0  0  0  0  0  0  0  0  0
  -22.9260  -29.3740   22.5080 C   0  0  0  0  0  0  0  0  0  0  0  0
  -21.6180  -29.1250   22.3310 N   0  0  0  0  0  0  0  0  0  0  0  0
  -23.6050  -28.7900   23.3570 O   0  0  0  0  0  0  0  0  0  0  0  0
  -21.1250  -29.6500   21.6230 H   0  0  0  0  0  0  0  0  0  0  0  0
  -18.2980  -27.7160   22.6750 C   0  0  0  0  0  0  0  0  0  0  0  0
  -20.8200  -28.1490   23.0740 C   0  0  0  0  0  3  0  0  0  0  0  0
  -21.0420  -26.7220   22.5220 C   0  0  0  0  0  2  0  0  0  0  0  0
  -20.0200  -26.3290   21.4510 C   0  0  0  0  0  2  0  0  0  0  0  0
  -18.6020  -26.3790   22.0230 C   0  0  0  0  0  2  0  0  0  0  0  0
  -19.3420  -28.5560   23.1490 C   0  0  0  0  0  0  0  0  0  0  0  0
  -19.0080  -29.8100   23.7080 C   0  0  0  0  0  3  0  0  0  0  0  0
  -17.6650  -30.2270   23.7960 C   0  0  0  0  0  3  0  0  0  0  0  0
  -16.6390  -29.3850   23.3370 C   0  0  0  0  0  3  0  0  0  0  0  0
  -16.9540  -28.1330   22.7770 C   0  0  0  0  0  3  0  0  0  0  0  0
  -25.9880  -32.4810   23.8770 C   0  0  0  0  0  3  0  0  0  0  0  0
  -26.4920  -31.7230   25.1680 C   0  0  1  0  0  0  0  0  0  0  0  0
  -25.3790  -31.4670   26.2100 C   0  0  0  0  0  1  0  0  0  0  0  0
  -27.1120  -30.3540   24.8030 C   0  0  0  0  0  1  0  0  0  0  0  0
  -27.6150  -32.5410   25.8480 C   0  0  0  0  0  1  0  0  0  0  0  0
  -25.6490  -33.8760   24.1930 N   0  0  0  0  0  0  0  0  0  0  0  0
  -25.9580  -34.9270   23.4230 C   0  0  0  0  0  0  0  0  0  0  0  0
  -26.6320  -34.8290   22.3970 O   0  0  0  0  0  0  0  0  0  0  0  0
  -25.0630  -34.0260   25.0000 H   0  0  0  0  0  0  0  0  0  0  0  0
  -24.1920  -36.6790   23.0520 C   0  0  0  0  0  1  0  0  0  0  0  0
  -25.4420  -36.3080   23.8670 C   0  0  0  0  0  3  0  0  0  0  0  0
  -27.5570  -37.2480   24.6870 C   0  0  0  0  0  1  0  0  0  0  0  0
  -26.4490  -37.3850   23.7440 N   0  0  0  0  0  0  0  0  0  0  0  0
  -26.0210  -38.2960   23.8930 H   0  0  0  0  0  0  0  0  0  0  0  0
  -27.4510  -21.7700   19.2340 C   0  0  0  0  0  3  0  0  0  0  0  0
  -25.8950  -19.7980   18.4720 C   0  0  0  0  0  1  0  0  0  0  0  0
  -26.9600  -20.3030   19.4540 C   0  0  0  0  0  2  0  0  0  0  0  0
  -25.9540  -22.9450   21.0340 C   0  0  0  0  0  1  0  0  0  0  0  0
  -26.2470  -22.7030   19.5420 C   0  0  0  0  0  2  0  0  0  0  0  0
  1 50  1  0
  2 17  1  0
  3  8  1  0
  4  5  1  0
  4  3  1  0
  6  5  1  0
  6  7  1  0
  6 23  1  0
  8  2  1  0
  8  7  1  0
  9  2  2  0
 10 11  2  0
 11 49  1  0
 12 10  1  0
 13 14  2  0
 14 11  1  0
 15 13  1  0
 15 12  2  0
 16  1  1  0
 16 12  1  0
 17 13  1  0
 18 16  1  0
 19 17  1  0
 20 45  1  0
 20 21  2  0
 21 40  1  0
 22 25  1  0
 22 21  1  0
 23 20  1  0
 24 23  1  0
 24 22  2  0
 25 26  1  0
 26 27  2  0
 28 27  1  0
 29 28  2  0
 30 29  1  0
 30 25  2  0
 31 28  1  0
 31 32  1  0
 32 33  1  0
 33 34  2  0
 35 34  1  0
 35 39  1  0
 36 35  2  0
 37 32  2  0
 37 36  1  0
 38 37  1  0
 40 41  1  0
 41 43  1  0
 41 44  1  0
 42 40  2  0
 45 46  1  0
 47 45  1  0
 49 48  1  0
 52 51  1  0
 52 50  1  0
 52 53  1  0
 54 65  2  0
 55 53  1  0
 55 60  1  0
 56 64  1  0
 56 66  1  0
 57 63  1  0
 57 59  1  0
 58 64  1  0
 59 58  1  0
 60 59  2  0
 61 62  1  0
 61 55  2  0
 62 57  2  0
 63 56  1  0
 64 54  1  0
 66 68  2  0
 67 66  1  0
 69 67  1  0
 70 79  2  0
 70 75  1  0
 71 67  1  0
 71 75  1  0
 72 71  1  0
 73 74  1  0
 73 72  1  0
 74 70  1  0
 75 76  2  0
 76 77  1  0
 78 77  2  0
 79 78  1  0
 80 54  1  0
 80 85  1  0
 80 81  1  0
 81 84  1  1
 81 82  1  0
 83 81  1  0
 85 88  1  0
 86 90  1  0
 86 85  1  0
 87 86  2  0
 90 89  1  0
 92 90  1  0
 92 93  1  0
 92 91  1  0
 94 96  1  0
 94 98  1  0
 94  1  1  0
 95 96  1  0
 98 97  1  0
M  ISO  4   2 100  17 100  52 101  53 101
M  END
>  <TORSDO>  (4) 
F 22

>  <SCORE>  (4) 
-3.499

>  <name>  (4) 
3

>  <ligand_id>  (4) 
3

>  <original_smiles>  (4) 
[H]c1c(N([H])C([H])(C([H])([H])C([H])(Oc2c([H])c([H])c3c(c2[H])C([H])([H])N(C(=O)C([H])(N([H])C(=O)C([H])(N([H])C([H])([H])[H])C([H])([H])[H])C(C([H])([H])[H])(C([H])([H])[H])C([H])([H])[H])C([H])(C(=O)N([H])C2([H])c4c([H])c([H])c([H])c([H])c4C([H])([H])C([H])([H])C2([H])[H])C3([H])[H])C([H])([H])[H])C([H])(C([H])([H])C([H])([H])[H])C([H])([H])C([H])([H])[H])nc(N([H])C(=O)N2C([H])([H])C([H])([H])C([H])([H])C([H])(n3nc(-c4c([H])c([H])c(Oc5c([H])c([H])c(F)c([H])c5F)c([H])c4[H])c(C(=O)N([H])[H])c3N([H])[H])C2([H])[H])nc1C([H])([H])C([H])([H])[H]

>  <smiles>  (4) 
[H]c1c(N([H])C([H])(C([H])([H])C([H])(Oc2c([H])c([H])c3c(c2[H])C([H])([H])N(C(=O)C([H])(N([H])C(=O)C([H])(N([H])C([H])([H])[H])C([H])([H])[H])C(C([H])([H])[H])(C([H])([H])[H])C([H])([H])[H])C([H])(C(=O)N([H])C2([H])c4c([H])c([H])c([H])c([H])c4C([H])([H])C([H])([H])C2([H])[H])C3([H])[H])C([H])([H])[H])C([H])(C([H])([H])C([H])([H])[H])C([H])([H])C([H])([H])[H])nc(N([H])C(=O)N2C([H])([H])C([H])([H])C([H])([H])C([H])(n3nc(-c4c([H])c([H])c(Oc5c([H])c([H])c(F)c([H])c5F)c([H])c4[H])c(C(=O)N([H])[H])c3N([H])[H])C2([H])[H])nc1C([H])([H])C([H])([H])[H]

$$$$
4:0:0
     RDKit          3D

 99107  0  0  1  0  0  0  0  0999 V2000
  -30.8840  -20.8150   19.9420 N   0  0  0  0  0  4  0  0  0  0  0  0
  -31.5860  -21.3160   19.4230 H   0  0  0  0  0  0  0  0  0  0  0  0
  -31.3570  -20.3240   20.6830 H   0  0  0  0  0  0  0  0  0  0  0  0
  -30.4900  -22.2810   21.8950 C   0  0  0  0  0  1  0  0  0  0  0  0
  -29.9310  -21.7940   20.5420 C   0  0  0  0  0  3  0  0  0  0  0  0
  -29.6150  -22.9890   19.5810 C   0  0  0  0  0  2  0  0  0  0  0  0
  -27.3090  -23.6410   20.5190 C   0  0  0  0  0  1  0  0  0  0  0  0
  -28.7170  -24.1360   20.1470 C   0  0  0  0  0  3  0  0  0  0  0  0
  -28.6390  -25.3570   19.1880 C   0  0  0  0  0  2  0  0  0  0  0  0
  -28.4390  -26.5960   19.8920 O   0  0  0  0  0  0  0  0  0  0  0  0
  -24.5680  -31.6320   23.0920 C   0  0  0  0  0  0  0  0  0  0  0  0
  -27.2290  -27.2700   19.8870 C   0  0  0  0  0  0  0  0  0  0  0  0
  -23.3680  -30.2830   21.4010 C   0  0  0  0  0  3  0  0  0  0  0  0
  -24.8260  -28.7790   19.9430 C   0  0  0  0  0  0  0  0  0  0  0  0
  -25.8970  -30.6350   21.2330 C   0  0  0  0  0  2  0  0  0  0  0  0
  -25.9800  -29.2820   20.5540 C   0  0  0  0  0  0  0  0  0  0  0  0
  -27.1780  -28.5310   20.5250 C   0  0  0  0  0  3  0  0  0  0  0  0
  -26.0480  -26.7740   19.2870 C   0  0  0  0  0  3  0  0  0  0  0  0
  -24.8550  -27.5230   19.3120 C   0  0  0  0  0  3  0  0  0  0  0  0
  -23.5850  -29.6400   20.0050 C   0  0  0  0  0  2  0  0  0  0  0  0
  -24.6280  -30.8650   21.9670 N   0  0  0  0  0  0  0  0  0  0  0  0
  -23.4840  -31.8920   23.6340 O   0  0  0  0  0  0  0  0  0  0  0  0
  -22.7070  -29.2380   22.3260 C   0  0  0  0  0  0  0  0  0  0  0  0
  -21.3750  -29.0970   22.2150 N   0  0  0  0  0  0  0  0  0  0  0  0
  -23.3870  -28.5580   23.1000 O   0  0  0  0  0  0  0  0  0  0  0  0
  -20.8890  -29.6970   21.5620 H   0  0  0  0  0  0  0  0  0  0  0  0
  -17.9720  -28.0230   22.7700 C   0  0  0  0  0  0  0  0  0  0  0  0
  -20.5460  -28.1470   22.9560 C   0  0  0  0  0  3  0  0  0  0  0  0
  -20.5600  -26.7550   22.2850 C   0  0  0  0  0  2  0  0  0  0  0  0
  -19.4070  -26.5490   21.2960 C   0  0  0  0  0  2  0  0  0  0  0  0
  -18.0580  -26.7150   22.0020 C   0  0  0  0  0  2  0  0  0  0  0  0
  -19.1400  -28.7040   23.2030 C   0  0  0  0  0  0  0  0  0  0  0  0
  -19.0030  -29.9340   23.8820 C   0  0  0  0  0  3  0  0  0  0  0  0
  -17.7310  -30.4820   24.1300 C   0  0  0  0  0  3  0  0  0  0  0  0
  -16.5780  -29.7960   23.7130 C   0  0  0  0  0  3  0  0  0  0  0  0
  -16.6990  -28.5680   23.0390 C   0  0  0  0  0  3  0  0  0  0  0  0
  -25.8530  -32.2380   23.7400 C   0  0  0  0  0  3  0  0  0  0  0  0
  -25.5490  -33.6280   24.1070 N   0  0  0  0  0  0  0  0  0  0  0  0
  -25.8980  -34.6990   23.3820 C   0  0  0  0  0  0  0  0  0  0  0  0
  -26.5800  -34.6210   22.3570 O   0  0  0  0  0  0  0  0  0  0  0  0
  -24.9450  -33.7640   24.9040 H   0  0  0  0  0  0  0  0  0  0  0  0
  -24.1960  -36.5200   23.0430 C   0  0  0  0  0  1  0  0  0  0  0  0
  -25.4110  -36.0760   23.8730 C   0  0  0  0  0  3  0  0  0  0  0  0
  -27.5270  -36.9160   24.7920 C   0  0  0  0  0  1  0  0  0  0  0  0
  -26.4560  -37.1230   23.8220 N   0  0  0  0  0  0  0  0  0  0  0  0
  -26.0510  -38.0410   23.9860 H   0  0  0  0  0  0  0  0  0  0  0  0
  -26.3580  -31.4280   24.9970 C   0  0  1  0  0  0  0  0  0  0  0  0
  -25.2580  -31.1660   26.0510 C   0  0  0  0  0  1  0  0  0  0  0  0
  -26.9370  -30.0610   24.5680 C   0  0  0  0  0  1  0  0  0  0  0  0
  -27.5080  -32.1980   25.6890 C   0  0  0  0  0  1  0  0  0  0  0  0
  -30.3130  -19.7620   19.0650 C   0  0  0  0  0  3  0  0  0  0  0  0
  -31.0590  -14.3330   20.1510 C   0  0  0  0  0  0  0  0  0  0  0  0
  -30.6740  -12.2360   18.9000 C   0  0  0  0  0  2  0  0  0  0  0  0
  -29.6950  -12.5090   17.7390 C   0  0  0  0  0  2  0  0  0  0  0  0
  -28.2290  -12.4000   18.2060 C   0  0  0  0  0  2  0  0  0  0  0  0
  -27.9550  -13.2020   19.5060 C   0  0  0  0  0  3  0  0  0  0  0  0
  -29.0330  -12.8840   20.5690 C   0  0  0  0  0  2  0  0  0  0  0  0
  -30.3630  -13.1730   19.9920 N   0  0  0  0  0  0  0  0  0  0  0  0
  -32.0980  -14.5880   19.5300 O   0  0  0  0  0  0  0  0  0  0  0  0
  -29.8290  -18.5700   19.8800 C   0  0  0  0  0  0  0  0  0  0  0  0
  -28.6130  -18.4640   20.5270 C   0  0  0  0  0  0  0  0  0  0  0  0
  -30.0340  -16.4740   20.7910 C   0  0  0  0  0  0  0  0  0  0  0  0
  -30.6480  -17.4340   20.0810 N   0  0  0  0  0  0  0  0  0  0  0  0
  -30.5420  -15.1730   21.0590 N   0  0  0  0  0  0  0  0  0  0  0  0
  -28.4650  -16.9640   21.4070 S   0  0  0  0  0  0  0  0  0  0  0  0
  -29.9530  -14.6760   21.7090 H   0  0  0  0  0  0  0  0  0  0  0  0
  -25.5860  -13.8610   20.2790 C   0  0  0  0  0  0  0  0  0  0  0  0
  -24.5110  -13.1140   20.6800 C   0  0  0  0  0  0  0  0  0  0  0  0
  -24.9380  -11.7520   20.6250 C   0  0  0  0  0  0  0  0  0  0  0  0
  -26.6060  -12.9590   20.0150 N   0  0  0  0  0  0  0  0  0  0  0  0
  -26.2160  -11.6820   20.2750 N   0  0  0  0  0  0  0  0  0  0  0  0
  -24.1860  -10.5070   20.8280 C   0  0  0  0  0  0  0  0  0  0  0  0
  -24.5750   -9.5630   21.8040 C   0  0  0  0  0  3  0  0  0  0  0  0
  -23.8270   -8.3800   21.9940 C   0  0  0  0  0  3  0  0  0  0  0  0
  -22.6750   -8.1350   21.2110 C   0  0  0  0  0  0  0  0  0  0  0  0
  -22.3040   -9.0700   20.2280 C   0  0  0  0  0  3  0  0  0  0  0  0
  -23.0520  -10.2430   20.0370 C   0  0  0  0  0  3  0  0  0  0  0  0
  -21.9040   -7.0030   21.3060 O   0  0  0  0  0  0  0  0  0  0  0  0
  -21.7340   -6.3460   22.4980 C   0  0  0  0  0  0  0  0  0  0  0  0
  -21.1680   -6.9820   23.6240 C   0  0  0  0  0  3  0  0  0  0  0  0
  -20.9490   -6.2500   24.8080 C   0  0  0  0  0  3  0  0  0  0  0  0
  -21.2840   -4.8840   24.8660 C   0  0  0  0  0  0  0  0  0  0  0  0
  -21.8420   -4.2480   23.7430 C   0  0  0  0  0  3  0  0  0  0  0  0
  -22.0640   -4.9770   22.5620 C   0  0  0  0  0  0  0  0  0  0  0  0
  -22.5830   -4.3550   21.4760 F   0  0  0  0  0  0  0  0  0  0  0  0
  -21.0660   -4.1790   26.0020 F   0  0  0  0  0  0  0  0  0  0  0  0
  -23.1370  -13.6250   21.0010 C   0  0  0  0  0  0  0  0  0  0  0  0
  -22.4300  -12.9610   21.9080 N   0  0  0  0  0  0  0  0  0  0  0  0
  -22.6980  -14.6530   20.4830 O   0  0  0  0  0  0  0  0  0  0  0  0
  -22.7920  -12.1300   22.3510 H   0  0  0  0  0  0  0  0  0  0  0  0
  -21.5100  -13.2900   22.1630 H   0  0  0  0  0  0  0  0  0  0  0  0
  -25.7710  -15.2260   20.0980 N   0  0  0  0  0  0  0  0  0  0  0  0
  -25.0180  -15.8920   20.2360 H   0  0  0  0  0  0  0  0  0  0  0  0
  -26.6100  -15.6510   19.7270 H   0  0  0  0  0  0  0  0  0  0  0  0
  -27.5510  -19.3650   20.5620 N   0  0  0  0  0  0  0  0  0  0  0  0
  -27.4110  -20.0980   19.8760 H   0  0  0  0  0  0  0  0  0  0  0  0
  -26.6760  -19.1190   21.0190 H   0  0  0  0  0  0  0  0  0  0  0  0
  -30.7240  -18.4490   16.8630 C   0  0  0  0  0  1  0  0  0  0  0  0
  -31.3100  -19.3710   17.9470 C   0  0  0  0  0  2  0  0  0  0  0  0
  1  5  1  0
  1  3  1  0
  2  1  1  0
  5  4  1  0
  6  8  1  0
  6  5  1  0
  8  7  1  0
  9 10  1  0
  9  8  1  0
 11 22  2  0
 12 10  1  0
 12 17  1  0
 13 21  1  0
 13 23  1  0
 14 20  1  0
 14 16  1  0
 15 21  1  0
 16 15  1  0
 17 16  2  0
 18 19  1  0
 18 12  2  0
 19 14  2  0
 20 13  1  0
 21 11  1  0
 23 25  2  0
 24 23  1  0
 26 24  1  0
 27 36  2  0
 27 32  1  0
 28 24  1  0
 28 32  1  0
 29 28  1  0
 30 31  1  0
 30 29  1  0
 31 27  1  0
 32 33  2  0
 33 34  1  0
 35 34  2  0
 36 35  1  0
 37 11  1  0
 37 38  1  0
 37 47  1  0
 38 41  1  0
 39 43  1  0
 39 38  1  0
 40 39  2  0
 43 42  1  0
 45 43  1  0
 45 46  1  0
 45 44  1  0
 47 50  1  1
 47 48  1  0
 49 47  1  0
 51 99  1  0
 51 60  1  0
 51  1  1  0
 52 64  1  0
 53 58  1  0
 54 55  1  0
 54 53  1  0
 56 55  1  0
 56 70  1  0
 56 57  1  0
 58 52  1  0
 58 57  1  0
 59 52  2  0
 60 63  1  0
 60 61  2  0
 61 95  1  0
 61 65  1  0
 62 64  1  0
 62 65  1  0
 63 62  2  0
 64 66  1  0
 67 68  2  0
 68 87  1  0
 69 68  1  0
 69 72  1  0
 70 71  1  0
 70 67  1  0
 71 69  2  0
 72 73  1  0
 73 74  2  0
 75 78  1  0
 75 74  1  0
 76 75  2  0
 77 76  1  0
 77 72  2  0
 78 79  1  0
 79 84  2  0
 79 80  1  0
 80 81  2  0
 81 82  1  0
 82 86  1  0
 83 82  2  0
 84 83  1  0
 85 84  1  0
 87 88  1  0
 88 91  1  0
 88 90  1  0
 89 87  2  0
 92 93  1  0
 92 67  1  0
 94 92  1  0
 95 97  1  0
 96 95  1  0
 98 99  1  0
M  ISO  4   9 101  10 101  52 100  64 100
M  END
>  <TORSDO>  (5) 
F 23

>  <SCORE>  (5) 
-11.844

>  <name>  (5) 
4

>  <ligand_id>  (5) 
4

>  <original_smiles>  (5) 
[H]c1c([H])c([H])c2c(c1[H])C([H])([H])C([H])([H])C([H])([H])C2([H])N([H])C(=O)C1([H])N(C(=O)C([H])(N([H])C(=O)C([H])(N([H])C([H])([H])[H])C([H])([H])[H])C(C([H])([H])[H])(C([H])([H])[H])C([H])([H])[H])C([H])([H])c2c([H])c(OC([H])([H])C([H])(C([H])([H])[H])C([H])([H])C([H])(C([H])([H])[H])[N+]([H])([H])C([H])(c3nc(N([H])C(=O)N4C([H])([H])C([H])([H])C([H])([H])C([H])(n5nc(-c6c([H])c([H])c(Oc7c([H])c([H])c(F)c([H])c7F)c([H])c6[H])c(C(=O)N([H])[H])c5N([H])[H])C4([H])[H])sc3N([H])[H])C([H])([H])C([H])([H])[H])c([H])c([H])c2C1([H])[H]

>  <smiles>  (5) 
[H]c1c([H])c([H])c2c(c1[H])C([H])([H])C([H])([H])C([H])([H])C2([H])N([H])C(=O)C1([H])N(C(=O)C([H])(N([H])C(=O)C([H])(N([H])C([H])([H])[H])C([H])([H])[H])C(C([H])([H])[H])(C([H])([H])[H])C([H])([H])[H])C([H])([H])c2c([H])c(OC([H])([H])C([H])(C([H])([H])[H])C([H])([H])C([H])(C([H])([H])[H])[N+]([H])([H])C([H])(c3nc(N([H])C(=O)N4C([H])([H])C([H])([H])C([H])([H])C([H])(n5nc(-c6c([H])c([H])c(Oc7c([H])c([H])c(F)c([H])c7F)c([H])c6[H])c(C(=O)N([H])[H])c5N([H])[H])C4([H])[H])sc3N([H])[H])C([H])([H])C([H])([H])[H])c([H])c([H])c2C1([H])[H]

$$$$
5:0:0
     RDKit          3D

 97105  0  0  1  0  0  0  0  0999 V2000
  -30.8050  -21.7790   19.8790 N   0  0  0  0  0  4  0  0  0  0  0  0
  -29.8680  -21.5780   19.5710 H   0  0  0  0  0  0  0  0  0  0  0  0
  -31.4130  -21.3670   19.1870 H   0  0  0  0  0  0  0  0  0  0  0  0
  -32.3880  -21.2620   21.7840 C   0  0  0  0  0  1  0  0  0  0  0  0
  -30.9960  -21.0340   21.1590 C   0  0  0  0  0  3  0  0  0  0  0  0
  -30.7390  -14.4430   20.1340 C   0  0  0  0  0  0  0  0  0  0  0  0
  -30.3380  -12.3430   18.8980 C   0  0  0  0  0  2  0  0  0  0  0  0
  -29.3260  -12.6120   17.7640 C   0  0  0  0  0  2  0  0  0  0  0  0
  -27.8800  -12.4590   18.2760 C   0  0  0  0  0  2  0  0  0  0  0  0
  -27.6310  -13.2370   19.5980 C   0  0  0  0  0  3  0  0  0  0  0  0
  -28.7500  -12.9550   20.6280 C   0  0  0  0  0  2  0  0  0  0  0  0
  -30.0450  -13.2760   19.9990 N   0  0  0  0  0  0  0  0  0  0  0  0
  -31.8050  -14.6500   19.5490 O   0  0  0  0  0  0  0  0  0  0  0  0
  -30.0710  -18.8190   22.0610 C   0  0  0  0  0  3  0  0  0  0  0  0
  -31.0080  -17.5140   19.8990 C   0  0  0  0  0  3  0  0  0  0  0  0
  -30.7210  -19.5260   21.0220 C   0  0  0  0  0  0  0  0  0  0  0  0
  -30.3670  -16.7920   20.9520 C   0  0  0  0  0  0  0  0  0  0  0  0
  -31.1880  -18.8670   19.9280 N   0  0  0  0  0  0  0  0  0  0  0  0
  -29.8900  -17.4760   22.0220 N   0  0  0  0  0  0  0  0  0  0  0  0
  -30.1540  -15.3790   20.9050 N   0  0  0  0  0  0  0  0  0  0  0  0
  -29.3950  -15.0430   21.4770 H   0  0  0  0  0  0  0  0  0  0  0  0
  -25.2680  -13.8250   20.4370 C   0  0  0  0  0  0  0  0  0  0  0  0
  -24.2240  -13.0450   20.8520 C   0  0  0  0  0  0  0  0  0  0  0  0
  -24.6840  -11.6940   20.7760 C   0  0  0  0  0  0  0  0  0  0  0  0
  -26.3040  -12.9510   20.1420 N   0  0  0  0  0  0  0  0  0  0  0  0
  -25.9570  -11.6640   20.4030 N   0  0  0  0  0  0  0  0  0  0  0  0
  -23.9720  -10.4270   20.9850 C   0  0  0  0  0  0  0  0  0  0  0  0
  -24.4300   -9.4680   21.9160 C   0  0  0  0  0  3  0  0  0  0  0  0
  -23.7180   -8.2650   22.1140 C   0  0  0  0  0  3  0  0  0  0  0  0
  -22.5350   -8.0140   21.3800 C   0  0  0  0  0  0  0  0  0  0  0  0
  -22.0970   -8.9600   20.4390 C   0  0  0  0  0  3  0  0  0  0  0  0
  -22.8080  -10.1540   20.2390 C   0  0  0  0  0  3  0  0  0  0  0  0
  -21.7920   -6.8630   21.4860 O   0  0  0  0  0  0  0  0  0  0  0  0
  -21.7320   -6.1500   22.6560 C   0  0  0  0  0  0  0  0  0  0  0  0
  -21.2840   -6.7330   23.8620 C   0  0  0  0  0  3  0  0  0  0  0  0
  -21.1730   -5.9460   25.0270 C   0  0  0  0  0  3  0  0  0  0  0  0
  -21.5000   -4.5780   24.9860 C   0  0  0  0  0  0  0  0  0  0  0  0
  -21.9400   -3.9950   23.7850 C   0  0  0  0  0  3  0  0  0  0  0  0
  -22.0530   -4.7790   22.6230 C   0  0  0  0  0  0  0  0  0  0  0  0
  -22.4580   -4.2070   21.4630 F   0  0  0  0  0  0  0  0  0  0  0  0
  -21.3860   -3.8190   26.1020 F   0  0  0  0  0  0  0  0  0  0  0  0
  -22.8420  -13.5130   21.2050 C   0  0  0  0  0  0  0  0  0  0  0  0
  -22.1630  -12.8110   22.1070 N   0  0  0  0  0  0  0  0  0  0  0  0
  -22.3720  -14.5400   20.7170 O   0  0  0  0  0  0  0  0  0  0  0  0
  -22.5580  -11.9800   22.5230 H   0  0  0  0  0  0  0  0  0  0  0  0
  -21.2400  -13.1080   22.3850 H   0  0  0  0  0  0  0  0  0  0  0  0
  -25.4180  -15.1990   20.2620 N   0  0  0  0  0  0  0  0  0  0  0  0
  -24.6500  -15.8460   20.4070 H   0  0  0  0  0  0  0  0  0  0  0  0
  -26.2460  -15.6440   19.8810 H   0  0  0  0  0  0  0  0  0  0  0  0
  -32.4250  -23.6360   19.4300 C   0  0  0  0  0  1  0  0  0  0  0  0
  -31.0100  -23.2660   19.9280 C   0  0  0  0  0  3  0  0  0  0  0  0
  -29.9620  -24.0610   19.1000 C   0  0  0  0  0  2  0  0  0  0  0  0
  -28.5400  -24.1480   19.7030 C   0  0  0  0  0  3  0  0  0  0  0  0
  -27.5800  -24.1800   18.6600 O   0  0  0  0  0  0  0  0  0  0  0  0
  -27.6220  -23.3570   18.1820 H   0  0  0  0  0  0  0  0  0  0  0  0
  -28.2820  -25.3030   20.7180 C   0  0  0  0  0  2  0  0  0  0  0  0
  -28.4420  -26.6490   20.2190 O   0  0  0  0  0  0  0  0  0  0  0  0
  -24.6240  -31.8730   23.2250 C   0  0  0  0  0  0  0  0  0  0  0  0
  -27.2880  -27.4060   20.1990 C   0  0  0  0  0  0  0  0  0  0  0  0
  -23.4310  -30.4620   21.5840 C   0  0  0  0  0  3  0  0  0  0  0  0
  -24.8960  -28.9200   20.1790 C   0  0  0  0  0  0  0  0  0  0  0  0
  -25.9600  -30.8170   21.4070 C   0  0  0  0  0  2  0  0  0  0  0  0
  -26.0520  -29.4430   20.7750 C   0  0  0  0  0  0  0  0  0  0  0  0
  -27.2530  -28.6940   20.7830 C   0  0  0  0  0  3  0  0  0  0  0  0
  -26.1110  -26.9040   19.6000 C   0  0  0  0  0  3  0  0  0  0  0  0
  -24.9210  -27.6480   19.5880 C   0  0  0  0  0  3  0  0  0  0  0  0
  -23.6500  -29.7740   20.2110 C   0  0  0  0  0  2  0  0  0  0  0  0
  -24.6890  -31.0650   22.1290 N   0  0  0  0  0  0  0  0  0  0  0  0
  -23.5380  -32.1500   23.7530 O   0  0  0  0  0  0  0  0  0  0  0  0
  -22.7710  -29.4470   22.5450 C   0  0  0  0  0  0  0  0  0  0  0  0
  -21.4500  -29.2550   22.3960 N   0  0  0  0  0  0  0  0  0  0  0  0
  -23.4430  -28.8370   23.3790 O   0  0  0  0  0  0  0  0  0  0  0  0
  -20.9670  -29.7930   21.6900 H   0  0  0  0  0  0  0  0  0  0  0  0
  -18.0790  -28.0310   22.8390 C   0  0  0  0  0  0  0  0  0  0  0  0
  -20.6270  -28.3200   23.1630 C   0  0  0  0  0  3  0  0  0  0  0  0
  -20.7600  -26.8840   22.6090 C   0  0  0  0  0  2  0  0  0  0  0  0
  -19.6830  -26.5310   21.5800 C   0  0  0  0  0  2  0  0  0  0  0  0
  -18.2860  -26.6730   22.1900 C   0  0  0  0  0  2  0  0  0  0  0  0
  -19.1800  -28.8110   23.2820 C   0  0  0  0  0  0  0  0  0  0  0  0
  -18.9370  -30.0810   23.8490 C   0  0  0  0  0  3  0  0  0  0  0  0
  -17.6250  -30.5720   23.9800 C   0  0  0  0  0  3  0  0  0  0  0  0
  -16.5370  -29.7890   23.5550 C   0  0  0  0  0  3  0  0  0  0  0  0
  -16.7650  -28.5200   22.9930 C   0  0  0  0  0  3  0  0  0  0  0  0
  -25.9070  -32.5090   23.8490 C   0  0  0  0  0  3  0  0  0  0  0  0
  -25.5970  -33.9070   24.1710 N   0  0  0  0  0  0  0  0  0  0  0  0
  -25.9350  -34.9550   23.4080 C   0  0  0  0  0  0  0  0  0  0  0  0
  -26.6110  -34.8450   22.3820 O   0  0  0  0  0  0  0  0  0  0  0  0
  -25.0080  -34.0680   24.9760 H   0  0  0  0  0  0  0  0  0  0  0  0
  -24.2110  -36.7400   23.0240 C   0  0  0  0  0  1  0  0  0  0  0  0
  -25.4410  -36.3420   23.8540 C   0  0  0  0  0  3  0  0  0  0  0  0
  -27.5620  -37.2300   24.7130 C   0  0  0  0  0  1  0  0  0  0  0  0
  -26.4750  -37.3950   23.7520 N   0  0  0  0  0  0  0  0  0  0  0  0
  -26.0660  -38.3160   23.8890 H   0  0  0  0  0  0  0  0  0  0  0  0
  -26.4160  -31.7440   25.1330 C   0  0  1  0  0  0  0  0  0  0  0  0
  -25.3160  -31.5130   26.1940 C   0  0  0  0  0  1  0  0  0  0  0  0
  -27.0060  -30.3650   24.7520 C   0  0  0  0  0  1  0  0  0  0  0  0
  -27.5580  -32.5470   25.8000 C   0  0  0  0  0  1  0  0  0  0  0  0
  1 51  1  0
  1  5  1  0
  2  1  1  0
  3  1  1  0
  5  4  1  0
  6 20  1  0
  7 12  1  0
  8  9  1  0
  8  7  1  0
 10  9  1  0
 10 25  1  0
 10 11  1  0
 12  6  1  0
 12 11  1  0
 13  6  2  0
 15 18  2  0
 15 17  1  0
 16  5  1  0
 16 14  2  0
 17 19  2  0
 18 16  1  0
 19 14  1  0
 20 17  1  0
 20 21  1  0
 22 23  2  0
 23 42  1  0
 24 23  1  0
 24 27  1  0
 25 26  1  0
 25 22  1  0
 26 24  2  0
 27 28  1  0
 28 29  2  0
 30 33  1  0
 30 29  1  0
 31 30  2  0
 32 31  1  0
 32 27  2  0
 33 34  1  0
 34 35  1  0
 35 36  2  0
 37 36  1  0
 37 41  1  0
 38 37  2  0
 39 34  2  0
 39 38  1  0
 40 39  1  0
 42 43  1  0
 43 46  1  0
 43 45  1  0
 44 42  2  0
 47 48  1  0
 47 22  1  0
 49 47  1  0
 51 50  1  0
 52 51  1  0
 53 52  1  0
 53 56  1  0
 54 53  1  0
 55 54  1  0
 57 56  1  0
 58 69  2  0
 59 57  1  0
 59 64  1  0
 60 68  1  0
 60 70  1  0
 61 67  1  0
 61 63  1  0
 62 68  1  0
 63 64  2  0
 63 62  1  0
 65 59  2  0
 66 65  1  0
 66 61  2  0
 67 60  1  0
 68 58  1  0
 70 72  2  0
 71 70  1  0
 73 71  1  0
 74 83  2  0
 74 79  1  0
 75 71  1  0
 75 79  1  0
 76 75  1  0
 77 78  1  0
 77 76  1  0
 78 74  1  0
 79 80  2  0
 80 81  1  0
 82 81  2  0
 83 82  1  0
 84 58  1  0
 84 85  1  0
 84 94  1  0
 85 88  1  0
 86 90  1  0
 86 85  1  0
 87 86  2  0
 90 89  1  0
 92 90  1  0
 92 93  1  0
 92 91  1  0
 94 97  1  1
 94 95  1  0
 96 94  1  0
M  ISO  4   6 100  20 100  56 101  57 101
M  END
>  <TORSDO>  (6) 
F 22

>  <SCORE>  (6) 
-12.675

>  <name>  (6) 
5

>  <ligand_id>  (6) 
5

>  <original_smiles>  (6) 
[H]OC([H])(C([H])([H])Oc1c([H])c([H])c2c(c1[H])C([H])([H])N(C(=O)C([H])(N([H])C(=O)C([H])(N([H])C([H])([H])[H])C([H])([H])[H])C(C([H])([H])[H])(C([H])([H])[H])C([H])([H])[H])C([H])(C(=O)N([H])C1([H])c3c([H])c([H])c([H])c([H])c3C([H])([H])C([H])([H])C1([H])[H])C2([H])[H])C([H])([H])C([H])(C([H])([H])[H])[N+]([H])([H])C([H])(c1nc([H])c(N([H])C(=O)N2C([H])([H])C([H])([H])C([H])([H])C([H])(n3nc(-c4c([H])c([H])c(Oc5c([H])c([H])c(F)c([H])c5F)c([H])c4[H])c(C(=O)N([H])[H])c3N([H])[H])C2([H])[H])nc1[H])C([H])([H])[H]

>  <smiles>  (6) 
[H]OC([H])(C([H])([H])Oc1c([H])c([H])c2c(c1[H])C([H])([H])N(C(=O)C([H])(N([H])C(=O)C([H])(N([H])C([H])([H])[H])C([H])([H])[H])C(C([H])([H])[H])(C([H])([H])[H])C([H])([H])[H])C([H])(C(=O)N([H])C1([H])c3c([H])c([H])c([H])c([H])c3C([H])([H])C([H])([H])C1([H])[H])C2([H])[H])C([H])([H])C([H])(C([H])([H])[H])[N+]([H])([H])C([H])(c1nc([H])c(N([H])C(=O)N2C([H])([H])C([H])([H])C([H])([H])C([H])(n3nc(-c4c([H])c([H])c(Oc5c([H])c([H])c(F)c([H])c5F)c([H])c4[H])c(C(=O)N([H])[H])c3N([H])[H])C2([H])[H])nc1[H])C([H])([H])[H]

$$$$
6:0:0
     RDKit          3D

 91 99  0  0  1  0  0  0  0  0999 V2000
  -28.4660  -18.8310   19.2520 C   0  0  0  0  0  3  0  0  0  0  0  0
  -29.6280  -18.7530   19.9850 C   0  0  0  0  0  0  0  0  0  0  0  0
  -29.1170  -21.1230   20.0860 C   0  0  0  0  0  0  0  0  0  0  0  0
  -28.6010  -23.7160   20.0560 C   0  0  0  0  0  0  0  0  0  0  0  0
  -29.9570  -20.0910   20.4610 N   0  0  0  0  0  0  0  0  0  0  0  0
  -29.2440  -22.5540   20.4920 N   0  0  0  0  0  0  0  0  0  0  0  0
  -27.9160  -23.7140   19.0300 O   0  0  0  0  0  0  0  0  0  0  0  0
  -27.8020  -20.4660   19.1110 S   0  0  0  0  0  0  0  0  0  0  0  0
  -29.8780  -22.7030   21.2630 H   0  0  0  0  0  0  0  0  0  0  0  0
  -27.8870  -25.0950   22.1410 C   0  0  0  0  0  1  0  0  0  0  0  0
  -28.7360  -25.1150   20.8620 C   0  0  0  0  0  3  0  0  0  0  0  0
  -28.6150  -26.4470   20.1450 O   0  0  0  0  0  0  0  0  0  0  0  0
  -24.6650  -31.7790   23.2070 C   0  0  0  0  0  0  0  0  0  0  0  0
  -27.4620  -27.2710   20.1800 C   0  0  0  0  0  0  0  0  0  0  0  0
  -23.5370  -30.3760   21.5180 C   0  0  0  0  0  3  0  0  0  0  0  0
  -25.0590  -28.8550   20.1230 C   0  0  0  0  0  0  0  0  0  0  0  0
  -26.0740  -30.7410   21.4020 C   0  0  0  0  0  2  0  0  0  0  0  0
  -26.2040  -29.3640   20.7490 C   0  0  0  0  0  0  0  0  0  0  0  0
  -27.4100  -28.5880   20.7580 C   0  0  0  0  0  3  0  0  0  0  0  0
  -26.2890  -26.8200   19.5440 C   0  0  0  0  0  3  0  0  0  0  0  0
  -25.1050  -27.5900   19.5130 C   0  0  0  0  0  3  0  0  0  0  0  0
  -23.8050  -29.7130   20.1390 C   0  0  0  0  0  2  0  0  0  0  0  0
  -24.7770  -30.9840   22.1010 N   0  0  0  0  0  0  0  0  0  0  0  0
  -23.5610  -32.0250   23.7150 O   0  0  0  0  0  0  0  0  0  0  0  0
  -22.8660  -29.3390   22.4510 C   0  0  0  0  0  0  0  0  0  0  0  0
  -21.5460  -29.1380   22.2890 N   0  0  0  0  0  0  0  0  0  0  0  0
  -23.5360  -28.7170   23.2800 O   0  0  0  0  0  0  0  0  0  0  0  0
  -21.0650  -29.6930   21.5960 H   0  0  0  0  0  0  0  0  0  0  0  0
  -18.1830  -27.8700   22.6990 C   0  0  0  0  0  0  0  0  0  0  0  0
  -20.7300  -28.1730   23.0270 C   0  0  0  0  0  3  0  0  0  0  0  0
  -20.8690  -26.7540   22.4310 C   0  0  0  0  0  2  0  0  0  0  0  0
  -19.7960  -26.4270   21.3870 C   0  0  0  0  0  2  0  0  0  0  0  0
  -18.3990  -26.5370   22.0030 C   0  0  0  0  0  2  0  0  0  0  0  0
  -19.2770  -28.6460   23.1650 C   0  0  0  0  0  0  0  0  0  0  0  0
  -19.0220  -29.8940   23.7720 C   0  0  0  0  0  3  0  0  0  0  0  0
  -17.7030  -30.3660   23.9200 C   0  0  0  0  0  3  0  0  0  0  0  0
  -16.6240  -29.5880   23.4670 C   0  0  0  0  0  3  0  0  0  0  0  0
  -16.8640  -28.3420   22.8620 C   0  0  0  0  0  3  0  0  0  0  0  0
  -25.9140  -32.4330   23.8740 C   0  0  0  0  0  3  0  0  0  0  0  0
  -25.5700  -33.8250   24.1970 N   0  0  0  0  0  0  0  0  0  0  0  0
  -25.8940  -34.8850   23.4450 C   0  0  0  0  0  0  0  0  0  0  0  0
  -26.5800  -34.7950   22.4240 O   0  0  0  0  0  0  0  0  0  0  0  0
  -24.9610  -33.9670   24.9900 H   0  0  0  0  0  0  0  0  0  0  0  0
  -24.1270  -36.6410   23.0770 C   0  0  0  0  0  1  0  0  0  0  0  0
  -25.3730  -36.2650   23.8960 C   0  0  0  0  0  3  0  0  0  0  0  0
  -27.4790  -37.2030   24.7430 C   0  0  0  0  0  1  0  0  0  0  0  0
  -26.3830  -37.3400   23.7870 N   0  0  0  0  0  0  0  0  0  0  0  0
  -25.9550  -38.2510   23.9250 H   0  0  0  0  0  0  0  0  0  0  0  0
  -26.3990  -31.6690   25.1680 C   0  0  1  0  0  0  0  0  0  0  0  0
  -25.2750  -31.4150   26.1990 C   0  0  0  0  0  1  0  0  0  0  0  0
  -27.0150  -30.3010   24.7940 C   0  0  0  0  0  1  0  0  0  0  0  0
  -27.5130  -32.4800   25.8710 C   0  0  0  0  0  1  0  0  0  0  0  0
  -30.5370  -17.4460   20.1690 C   0  0  0  0  0  2  0  0  0  0  0  0
  -30.6730  -14.8260   20.0680 C   0  0  0  0  0  0  0  0  0  0  0  0
  -30.4090  -12.5900   18.9350 C   0  0  0  0  0  2  0  0  0  0  0  0
  -29.3890  -12.6850   17.7750 C   0  0  0  0  0  2  0  0  0  0  0  0
  -27.9470  -12.4840   18.2880 C   0  0  0  0  0  2  0  0  0  0  0  0
  -27.6590  -13.3090   19.5700 C   0  0  0  0  0  3  0  0  0  0  0  0
  -28.7880  -13.1180   20.6030 C   0  0  0  0  0  2  0  0  0  0  0  0
  -30.0260  -13.5960   19.9630 N   0  0  0  0  0  0  0  0  0  0  0  0
  -31.8170  -14.9010   19.6020 O   0  0  0  0  0  0  0  0  0  0  0  0
  -29.0400  -16.0520   21.5360 C   0  0  0  0  0  1  0  0  0  0  0  0
  -29.9970  -16.0190   20.4260 N   0  0  0  0  0  0  0  0  0  0  0  0
  -25.3170  -13.8930   20.4430 C   0  0  0  0  0  0  0  0  0  0  0  0
  -24.2730  -13.1140   20.8600 C   0  0  0  0  0  0  0  0  0  0  0  0
  -24.7280  -11.7620   20.7680 C   0  0  0  0  0  0  0  0  0  0  0  0
  -26.3440  -13.0170   20.1290 N   0  0  0  0  0  0  0  0  0  0  0  0
  -25.9980  -11.7280   20.3820 N   0  0  0  0  0  0  0  0  0  0  0  0
  -24.0090  -10.4990   20.9680 C   0  0  0  0  0  0  0  0  0  0  0  0
  -24.4670   -9.5220   21.8790 C   0  0  0  0  0  3  0  0  0  0  0  0
  -23.7460   -8.3230   22.0670 C   0  0  0  0  0  3  0  0  0  0  0  0
  -22.5540   -8.0920   21.3420 C   0  0  0  0  0  0  0  0  0  0  0  0
  -22.1140   -9.0560   20.4180 C   0  0  0  0  0  3  0  0  0  0  0  0
  -22.8350  -10.2470   20.2280 C   0  0  0  0  0  3  0  0  0  0  0  0
  -21.8030   -6.9450   21.4390 O   0  0  0  0  0  0  0  0  0  0  0  0
  -21.7490   -6.2170   22.6010 C   0  0  0  0  0  0  0  0  0  0  0  0
  -21.2930   -6.7800   23.8140 C   0  0  0  0  0  3  0  0  0  0  0  0
  -21.1890   -5.9770   24.9670 C   0  0  0  0  0  3  0  0  0  0  0  0
  -21.5310   -4.6130   24.9090 C   0  0  0  0  0  0  0  0  0  0  0  0
  -21.9790   -4.0500   23.7010 C   0  0  0  0  0  3  0  0  0  0  0  0
  -22.0850   -4.8500   22.5510 C   0  0  0  0  0  0  0  0  0  0  0  0
  -22.4980   -4.2970   21.3840 F   0  0  0  0  0  0  0  0  0  0  0  0
  -21.4230   -3.8390   26.0140 F   0  0  0  0  0  0  0  0  0  0  0  0
  -22.8960  -13.5900   21.2270 C   0  0  0  0  0  0  0  0  0  0  0  0
  -22.2200  -12.8770   22.1190 N   0  0  0  0  0  0  0  0  0  0  0  0
  -22.4330  -14.6290   20.7570 O   0  0  0  0  0  0  0  0  0  0  0  0
  -22.6090  -12.0370   22.5200 H   0  0  0  0  0  0  0  0  0  0  0  0
  -21.2990  -13.1760   22.4070 H   0  0  0  0  0  0  0  0  0  0  0  0
  -25.4710  -15.2670   20.2820 N   0  0  0  0  0  0  0  0  0  0  0  0
  -24.7090  -15.9160   20.4400 H   0  0  0  0  0  0  0  0  0  0  0  0
  -26.2990  -15.7120   19.9100 H   0  0  0  0  0  0  0  0  0  0  0  0
  1  2  2  0
  2 53  1  0
  2  5  1  0
  3  5  2  0
  3  6  1  0
  4  6  1  0
  4 11  1  0
  6  9  1  0
  7  4  2  0
  8  1  1  0
  8  3  1  0
 11 10  1  0
 12 14  1  0
 12 11  1  0
 13 24  2  0
 14 19  1  0
 15 23  1  0
 15 25  1  0
 16 22  1  0
 16 18  1  0
 17 23  1  0
 18 19  2  0
 18 17  1  0
 20 14  2  0
 21 20  1  0
 21 16  2  0
 22 15  1  0
 23 13  1  0
 25 27  2  0
 26 25  1  0
 28 26  1  0
 29 38  2  0
 29 34  1  0
 30 26  1  0
 30 34  1  0
 31 30  1  0
 32 33  1  0
 32 31  1  0
 33 29  1  0
 34 35  2  0
 35 36  1  0
 37 36  2  0
 38 37  1  0
 39 13  1  0
 39 40  1  0
 39 49  1  0
 40 43  1  0
 41 45  1  0
 41 40  1  0
 42 41  2  0
 45 44  1  0
 47 45  1  0
 47 48  1  0
 47 46  1  0
 49 52  1  1
 49 50  1  0
 51 49  1  0
 53 63  1  0
 54 63  1  0
 55 60  1  0
 56 57  1  0
 56 55  1  0
 58 57  1  0
 58 67  1  0
 58 59  1  0
 60 54  1  0
 60 59  1  0
 61 54  2  0
 63 62  1  0
 64 65  2  0
 65 84  1  0
 66 65  1  0
 66 69  1  0
 67 68  1  0
 67 64  1  0
 68 66  2  0
 69 70  1  0
 70 71  2  0
 72 75  1  0
 72 71  1  0
 73 72  2  0
 74 73  1  0
 74 69  2  0
 75 76  1  0
 76 77  1  0
 77 78  2  0
 79 78  1  0
 79 83  1  0
 80 79  2  0
 81 76  2  0
 81 80  1  0
 82 81  1  0
 84 85  1  0
 85 88  1  0
 85 87  1  0
 86 84  2  0
 89 90  1  0
 89 64  1  0
 91 89  1  0
M  ISO  4  11 101  12 101  54 100  63 100
M  END
>  <TORSDO>  (7) 
F 18

>  <SCORE>  (7) 
-14.050

>  <name>  (7) 
6

>  <ligand_id>  (7) 
6

>  <original_smiles>  (7) 
[H]c1sc(N([H])C(=O)C([H])(Oc2c([H])c([H])c3c(c2[H])C([H])([H])N(C(=O)C([H])(N([H])C(=O)C([H])(N([H])C([H])([H])[H])C([H])([H])[H])C(C([H])([H])[H])(C([H])([H])[H])C([H])([H])[H])C([H])(C(=O)N([H])C2([H])c4c([H])c([H])c([H])c([H])c4C([H])([H])C([H])([H])C2([H])[H])C3([H])[H])C([H])([H])[H])nc1C([H])([H])N(C(=O)N1C([H])([H])C([H])([H])C([H])([H])C([H])(n2nc(-c3c([H])c([H])c(Oc4c([H])c([H])c(F)c([H])c4F)c([H])c3[H])c(C(=O)N([H])[H])c2N([H])[H])C1([H])[H])C([H])([H])[H]

>  <smiles>  (7) 
[H]c1sc(N([H])C(=O)C([H])(Oc2c([H])c([H])c3c(c2[H])C([H])([H])N(C(=O)C([H])(N([H])C(=O)C([H])(N([H])C([H])([H])[H])C([H])([H])[H])C(C([H])([H])[H])(C([H])([H])[H])C([H])([H])[H])C([H])(C(=O)N([H])C2([H])c4c([H])c([H])c([H])c([H])c4C([H])([H])C([H])([H])C2([H])[H])C3([H])[H])C([H])([H])[H])nc1C([H])([H])N(C(=O)N1C([H])([H])C([H])([H])C([H])([H])C([H])(n2nc(-c3c([H])c([H])c(Oc4c([H])c([H])c(F)c([H])c4F)c([H])c3[H])c(C(=O)N([H])[H])c2N([H])[H])C1([H])[H])C([H])([H])[H]

$$$$
7:0:0
     RDKit          3D

 91 98  0  0  1  0  0  0  0  0999 V2000
  -28.6850  -22.9070   20.5220 C   0  0  0  0  0  0  0  0  0  0  0  0
  -29.1580  -21.5900   20.0290 N   0  0  0  0  0  0  0  0  0  0  0  0
  -28.4300  -22.9780   21.7240 O   0  0  0  0  0  0  0  0  0  0  0  0
  -29.3290  -21.6110   19.0340 H   0  0  0  0  0  0  0  0  0  0  0  0
  -29.8090  -24.6710   19.0460 C   0  0  0  0  0  1  0  0  0  0  0  0
  -28.4180  -24.4000   19.6560 C   0  0  1  0  0  0  0  0  0  0  0  0
  -27.4870  -24.9310   17.2430 C   0  0  0  0  0  1  0  0  0  0  0  0
  -27.4440  -24.0350   18.5000 C   0  0  0  0  0  2  0  0  0  0  0  0
  -28.1770  -25.9130   20.2860 O   0  0  0  0  0  0  0  0  0  0  0  0
  -24.6350  -31.8690   23.2320 C   0  0  0  0  0  0  0  0  0  0  0  0
  -27.1430  -26.9870   20.1730 C   0  0  0  0  0  0  0  0  0  0  0  0
  -23.4160  -30.4760   21.6110 C   0  0  0  0  0  3  0  0  0  0  0  0
  -24.8420  -28.8720   20.1700 C   0  0  0  0  0  0  0  0  0  0  0  0
  -25.9830  -30.6770   21.4360 C   0  0  0  0  0  2  0  0  0  0  0  0
  -26.0390  -29.2700   20.7770 C   0  0  0  0  0  0  0  0  0  0  0  0
  -27.1770  -28.3460   20.7620 C   0  0  0  0  0  3  0  0  0  0  0  0
  -25.9070  -26.7450   19.5300 C   0  0  0  0  0  3  0  0  0  0  0  0
  -24.8010  -27.6280   19.5290 C   0  0  0  0  0  3  0  0  0  0  0  0
  -23.6270  -29.7950   20.2310 C   0  0  0  0  0  2  0  0  0  0  0  0
  -24.7000  -31.0330   22.1460 N   0  0  0  0  0  0  0  0  0  0  0  0
  -23.5540  -32.1640   23.7650 O   0  0  0  0  0  0  0  0  0  0  0  0
  -22.7320  -29.4810   22.5840 C   0  0  0  0  0  0  0  0  0  0  0  0
  -21.4020  -29.3120   22.4680 N   0  0  0  0  0  0  0  0  0  0  0  0
  -23.4040  -28.8600   23.4120 O   0  0  0  0  0  0  0  0  0  0  0  0
  -20.9120  -29.8620   21.7770 H   0  0  0  0  0  0  0  0  0  0  0  0
  -18.0320  -28.0660   22.9720 C   0  0  0  0  0  0  0  0  0  0  0  0
  -20.5850  -28.3770   23.2510 C   0  0  0  0  0  3  0  0  0  0  0  0
  -20.7130  -26.9350   22.7060 C   0  0  0  0  0  2  0  0  0  0  0  0
  -19.6240  -26.5750   21.6900 C   0  0  0  0  0  2  0  0  0  0  0  0
  -18.2350  -26.7100   22.3210 C   0  0  0  0  0  2  0  0  0  0  0  0
  -19.1350  -28.8560   23.3950 C   0  0  0  0  0  0  0  0  0  0  0  0
  -18.8900  -30.1220   23.9680 C   0  0  0  0  0  3  0  0  0  0  0  0
  -17.5750  -30.6020   24.1200 C   0  0  0  0  0  3  0  0  0  0  0  0
  -16.4860  -29.8110   23.7120 C   0  0  0  0  0  3  0  0  0  0  0  0
  -16.7160  -28.5450   23.1440 C   0  0  0  0  0  3  0  0  0  0  0  0
  -25.9170  -32.5080   23.8470 C   0  0  0  0  0  3  0  0  0  0  0  0
  -25.6070  -33.9100   24.1820 N   0  0  0  0  0  0  0  0  0  0  0  0
  -25.9370  -34.9690   23.4300 C   0  0  0  0  0  0  0  0  0  0  0  0
  -26.5980  -34.8690   22.3940 O   0  0  0  0  0  0  0  0  0  0  0  0
  -25.0190  -34.0600   24.9880 H   0  0  0  0  0  0  0  0  0  0  0  0
  -24.2160  -36.7790   23.1060 C   0  0  0  0  0  1  0  0  0  0  0  0
  -25.4620  -36.3590   23.9020 C   0  0  0  0  0  3  0  0  0  0  0  0
  -27.6080  -37.2310   24.7210 C   0  0  0  0  0  1  0  0  0  0  0  0
  -26.5000  -37.4070   23.7860 N   0  0  0  0  0  0  0  0  0  0  0  0
  -26.1000  -38.3290   23.9400 H   0  0  0  0  0  0  0  0  0  0  0  0
  -26.4330  -31.7450   25.1310 C   0  0  1  0  0  0  0  0  0  0  0  0
  -25.3440  -31.5240   26.2070 C   0  0  0  0  0  1  0  0  0  0  0  0
  -27.0090  -30.3600   24.7570 C   0  0  0  0  0  1  0  0  0  0  0  0
  -27.5930  -32.5400   25.7800 C   0  0  0  0  0  1  0  0  0  0  0  0
  -29.5130  -20.1000   20.6860 C   0  0  0  0  0  3  0  0  0  0  0  0
  -31.1120  -19.2720   22.6000 C   0  0  0  0  0  1  0  0  0  0  0  0
  -30.6710  -20.4080   21.6690 C   0  0  0  0  0  2  0  0  0  0  0  0
  -29.1920  -18.5480   18.5400 C   0  0  0  0  0  1  0  0  0  0  0  0
  -29.8920  -18.5250   19.9060 C   0  0  0  0  0  3  0  0  0  0  0  0
  -29.7970  -16.8310   20.5100 C   0  0  0  0  0  2  0  0  0  0  0  0
  -30.5700  -15.3150   20.1040 C   0  0  0  0  0  0  0  0  0  0  0  0
  -30.5110  -12.8830   19.1940 C   0  0  0  0  0  2  0  0  0  0  0  0
  -29.5580  -12.7420   17.9790 C   0  0  0  0  0  2  0  0  0  0  0  0
  -28.1130  -12.4820   18.4450 C   0  0  0  0  0  2  0  0  0  0  0  0
  -27.7050  -13.4270   19.6040 C   0  0  0  0  0  3  0  0  0  0  0  0
  -28.7810  -13.5230   20.7070 C   0  0  0  0  0  2  0  0  0  0  0  0
  -30.0200  -14.0040   20.0750 N   0  0  0  0  0  0  0  0  0  0  0  0
  -31.7580  -15.3290   19.7480 O   0  0  0  0  0  0  0  0  0  0  0  0
  -25.3520  -13.9950   20.4150 C   0  0  0  0  0  0  0  0  0  0  0  0
  -24.2950  -13.2190   20.8070 C   0  0  0  0  0  0  0  0  0  0  0  0
  -24.7560  -11.8680   20.7580 C   0  0  0  0  0  0  0  0  0  0  0  0
  -26.3850  -13.1160   20.1420 N   0  0  0  0  0  0  0  0  0  0  0  0
  -26.0400  -11.8300   20.4180 N   0  0  0  0  0  0  0  0  0  0  0  0
  -24.0270  -10.6070   20.9610 C   0  0  0  0  0  0  0  0  0  0  0  0
  -24.4590   -9.6440   21.8990 C   0  0  0  0  0  3  0  0  0  0  0  0
  -23.7280   -8.4520   22.0910 C   0  0  0  0  0  3  0  0  0  0  0  0
  -22.5500   -8.2130   21.3440 C   0  0  0  0  0  0  0  0  0  0  0  0
  -22.1370   -9.1650   20.3950 C   0  0  0  0  0  3  0  0  0  0  0  0
  -22.8680  -10.3490   20.2010 C   0  0  0  0  0  3  0  0  0  0  0  0
  -21.7920   -7.0700   21.4430 O   0  0  0  0  0  0  0  0  0  0  0  0
  -21.7290   -6.3470   22.6060 C   0  0  0  0  0  0  0  0  0  0  0  0
  -21.2850   -6.9200   23.8180 C   0  0  0  0  0  3  0  0  0  0  0  0
  -21.1690   -6.1240   24.9740 C   0  0  0  0  0  3  0  0  0  0  0  0
  -21.4880   -4.7530   24.9200 C   0  0  0  0  0  0  0  0  0  0  0  0
  -21.9250   -4.1790   23.7130 C   0  0  0  0  0  3  0  0  0  0  0  0
  -22.0420   -4.9730   22.5590 C   0  0  0  0  0  0  0  0  0  0  0  0
  -22.4430   -4.4090   21.3940 F   0  0  0  0  0  0  0  0  0  0  0  0
  -21.3690   -3.9860   26.0280 F   0  0  0  0  0  0  0  0  0  0  0  0
  -22.9050  -13.7020   21.1070 C   0  0  0  0  0  0  0  0  0  0  0  0
  -22.1930  -13.0090   21.9860 N   0  0  0  0  0  0  0  0  0  0  0  0
  -22.4620  -14.7290   20.5950 O   0  0  0  0  0  0  0  0  0  0  0  0
  -22.5680  -12.1790   22.4220 H   0  0  0  0  0  0  0  0  0  0  0  0
  -21.2610  -13.3140   22.2290 H   0  0  0  0  0  0  0  0  0  0  0  0
  -25.5180  -15.3650   20.2390 N   0  0  0  0  0  0  0  0  0  0  0  0
  -24.7600  -16.0270   20.3760 H   0  0  0  0  0  0  0  0  0  0  0  0
  -26.3660  -15.8010   19.8990 H   0  0  0  0  0  0  0  0  0  0  0  0
  1  3  2  0
  2  1  1  0
  2 50  1  0
  4  2  1  0
  6  5  1  6
  6  9  1  0
  6  1  1  0
  7  8  1  0
  8  6  1  0
 10 21  2  0
 11  9  1  0
 11 16  1  0
 12 20  1  0
 12 22  1  0
 13 19  1  0
 13 15  1  0
 14 20  1  0
 15 14  1  0
 16 15  2  0
 17 11  2  0
 18 17  1  0
 18 13  2  0
 19 12  1  0
 20 10  1  0
 22 24  2  0
 23 22  1  0
 25 23  1  0
 26 35  2  0
 26 31  1  0
 27 23  1  0
 27 31  1  0
 28 27  1  0
 29 30  1  0
 29 28  1  0
 30 26  1  0
 31 32  2  0
 32 33  1  0
 34 33  2  0
 35 34  1  0
 36 10  1  0
 36 37  1  0
 36 46  1  0
 37 40  1  0
 38 42  1  0
 38 37  1  0
 39 38  2  0
 42 41  1  0
 44 42  1  0
 44 45  1  0
 44 43  1  0
 46 49  1  1
 46 47  1  0
 48 46  1  0
 50 52  1  0
 52 51  1  0
 54 53  1  0
 54 55  1  0
 54 50  1  0
 56 55  1  0
 57 62  1  0
 58 59  1  0
 58 57  1  0
 60 59  1  0
 60 67  1  0
 60 61  1  0
 62 56  1  0
 62 61  1  0
 63 56  2  0
 64 65  2  0
 65 84  1  0
 66 65  1  0
 66 69  1  0
 67 64  1  0
 67 68  1  0
 68 66  2  0
 69 70  1  0
 70 71  2  0
 72 75  1  0
 72 71  1  0
 73 72  2  0
 74 73  1  0
 74 69  2  0
 75 76  1  0
 76 77  1  0
 77 78  2  0
 79 78  1  0
 79 83  1  0
 80 79  2  0
 81 76  2  0
 81 80  1  0
 82 81  1  0
 84 85  1  0
 85 88  1  0
 85 87  1  0
 86 84  2  0
 89 90  1  0
 89 64  1  0
 91 89  1  0
M  ISO  4   6 101   9 101  55 100  56 100
M  END
>  <TORSDO>  (8) 
F 22

>  <SCORE>  (8) 
-15.312

>  <name>  (8) 
7

>  <ligand_id>  (8) 
7

>  <original_smiles>  (8) 
[H]c1c([H])c([H])c2c(c1[H])C([H])([H])C([H])([H])C([H])([H])C2([H])N([H])C(=O)C1([H])N(C(=O)C([H])(N([H])C(=O)C([H])(N([H])C([H])([H])[H])C([H])([H])[H])C(C([H])([H])[H])(C([H])([H])[H])C([H])([H])[H])C([H])([H])c2c([H])c(OC(C(=O)N([H])C([H])(C([H])([H])C([H])([H])[H])C([H])(C([H])([H])[H])C([H])([H])C(=O)N3C([H])([H])C([H])([H])C([H])([H])C([H])(n4nc(-c5c([H])c([H])c(Oc6c([H])c([H])c(F)c([H])c6F)c([H])c5[H])c(C(=O)N([H])[H])c4N([H])[H])C3([H])[H])(C([H])([H])[H])C([H])([H])C([H])([H])[H])c([H])c([H])c2C1([H])[H]

>  <smiles>  (8) 
[H]c1c([H])c([H])c2c(c1[H])C([H])([H])C([H])([H])C([H])([H])C2([H])N([H])C(=O)C1([H])N(C(=O)C([H])(N([H])C(=O)C([H])(N([H])C([H])([H])[H])C([H])([H])[H])C(C([H])([H])[H])(C([H])([H])[H])C([H])([H])[H])C([H])([H])c2c([H])c(OC(C(=O)N([H])C([H])(C([H])([H])C([H])([H])[H])C([H])(C([H])([H])[H])C([H])([H])C(=O)N3C([H])([H])C([H])([H])C([H])([H])C([H])(n4nc(-c5c([H])c([H])c(Oc6c([H])c([H])c(F)c([H])c6F)c([H])c5[H])c(C(=O)N([H])[H])c4N([H])[H])C3([H])[H])(C([H])([H])[H])C([H])([H])C([H])([H])[H])c([H])c([H])c2C1([H])[H]

$$$$
8:0:0
     RDKit          3D

 97105  0  0  1  0  0  0  0  0999 V2000
  -32.5590  -18.7090   21.5840 C   0  0  0  0  0  3  0  0  0  0  0  0
  -32.6010  -20.0330   21.1350 C   0  0  0  0  0  3  0  0  0  0  0  0
  -31.5850  -17.8770   21.0230 C   0  0  0  0  0  0  0  0  0  0  0  0
  -30.8500  -19.6180   19.7410 C   0  0  0  0  0  0  0  0  0  0  0  0
  -31.7230  -20.4910   20.2230 N   0  0  0  0  0  0  0  0  0  0  0  0
  -30.7520  -18.3330   20.0620 N   0  0  0  0  0  0  0  0  0  0  0  0
  -29.8900  -20.0800   18.8720 N   0  0  0  0  0  0  0  0  0  0  0  0
  -29.4210  -19.3060   18.4170 H   0  0  0  0  0  0  0  0  0  0  0  0
  -28.3240  -20.9770   20.6010 C   0  0  0  0  0  1  0  0  0  0  0  0
  -28.9370  -21.1510   19.2010 C   0  0  0  0  0  3  0  0  0  0  0  0
  -29.4580  -22.5840   18.8960 C   0  0  0  0  0  2  0  0  0  0  0  0
  -28.4530  -23.7200   19.2500 C   0  0  0  0  0  2  0  0  0  0  0  0
  -28.8200  -25.1060   18.6560 C   0  0  0  0  0  2  0  0  0  0  0  0
  -28.5820  -26.2170   19.5340 O   0  0  0  0  0  0  0  0  0  0  0  0
  -24.7390  -31.1290   22.9580 C   0  0  0  0  0  0  0  0  0  0  0  0
  -27.3840  -26.9090   19.5490 C   0  0  0  0  0  0  0  0  0  0  0  0
  -23.5370  -29.8690   21.2040 C   0  0  0  0  0  3  0  0  0  0  0  0
  -24.9910  -28.4290   19.6720 C   0  0  0  0  0  0  0  0  0  0  0  0
  -26.0680  -30.2130   21.0550 C   0  0  0  0  0  2  0  0  0  0  0  0
  -26.1450  -28.8920   20.3120 C   0  0  0  0  0  0  0  0  0  0  0  0
  -27.3380  -28.1380   20.2510 C   0  0  0  0  0  3  0  0  0  0  0  0
  -26.2070  -26.4590   18.9080 C   0  0  0  0  0  3  0  0  0  0  0  0
  -25.0170  -27.2130   18.9660 C   0  0  0  0  0  3  0  0  0  0  0  0
  -23.7550  -29.2960   19.7770 C   0  0  0  0  0  2  0  0  0  0  0  0
  -24.8010  -30.4120   21.8000 N   0  0  0  0  0  0  0  0  0  0  0  0
  -23.6550  -31.3680   23.5090 O   0  0  0  0  0  0  0  0  0  0  0  0
  -22.8620  -28.7860   22.0750 C   0  0  0  0  0  0  0  0  0  0  0  0
  -21.5310  -28.6530   21.9420 N   0  0  0  0  0  0  0  0  0  0  0  0
  -23.5320  -28.0720   22.8260 O   0  0  0  0  0  0  0  0  0  0  0  0
  -21.0520  -29.2870   21.3190 H   0  0  0  0  0  0  0  0  0  0  0  0
  -18.1300  -27.5070   22.3630 C   0  0  0  0  0  0  0  0  0  0  0  0
  -20.6960  -27.6650   22.6240 C   0  0  0  0  0  3  0  0  0  0  0  0
  -20.7560  -26.2980   21.9090 C   0  0  0  0  0  2  0  0  0  0  0  0
  -19.6330  -26.1000   20.8870 C   0  0  0  0  0  2  0  0  0  0  0  0
  -18.2570  -26.2340   21.5440 C   0  0  0  0  0  2  0  0  0  0  0  0
  -19.2750  -28.1890   22.8500 C   0  0  0  0  0  0  0  0  0  0  0  0
  -19.1040  -29.3990   23.5550 C   0  0  0  0  0  3  0  0  0  0  0  0
  -17.8180  -29.9240   23.7840 C   0  0  0  0  0  3  0  0  0  0  0  0
  -16.6860  -29.2320   23.3180 C   0  0  0  0  0  3  0  0  0  0  0  0
  -16.8420  -28.0250   22.6110 C   0  0  0  0  0  3  0  0  0  0  0  0
  -26.0250  -31.6920   23.6390 C   0  0  0  0  0  3  0  0  0  0  0  0
  -25.7290  -33.0670   24.0640 N   0  0  0  0  0  0  0  0  0  0  0  0
  -26.1030  -34.1660   23.3990 C   0  0  0  0  0  0  0  0  0  0  0  0
  -26.8020  -34.1260   22.3810 O   0  0  0  0  0  0  0  0  0  0  0  0
  -25.1040  -33.1740   24.8510 H   0  0  0  0  0  0  0  0  0  0  0  0
  -24.4050  -36.0060   23.1470 C   0  0  0  0  0  1  0  0  0  0  0  0
  -25.6280  -35.5270   23.9460 C   0  0  0  0  0  3  0  0  0  0  0  0
  -27.7620  -36.3200   24.8700 C   0  0  0  0  0  1  0  0  0  0  0  0
  -26.6780  -36.5690   23.9230 N   0  0  0  0  0  0  0  0  0  0  0  0
  -26.2840  -37.4860   24.1220 H   0  0  0  0  0  0  0  0  0  0  0  0
  -26.5140  -30.8190   24.8580 C   0  0  1  0  0  0  0  0  0  0  0  0
  -25.4040  -30.5300   25.8940 C   0  0  0  0  0  1  0  0  0  0  0  0
  -27.0720  -29.4630   24.3660 C   0  0  0  0  0  1  0  0  0  0  0  0
  -27.6710  -31.5430   25.5840 C   0  0  0  0  0  1  0  0  0  0  0  0
  -31.3050  -16.4980   21.6190 C   0  0  0  0  0  3  0  0  0  0  0  0
  -31.7090  -14.4680   20.1410 C   0  0  0  0  0  0  0  0  0  0  0  0
  -31.3600  -12.3260   18.9390 C   0  0  0  0  0  2  0  0  0  0  0  0
  -30.3840  -12.5400   17.7600 C   0  0  0  0  0  2  0  0  0  0  0  0
  -28.9080  -12.4930   18.2190 C   0  0  0  0  0  2  0  0  0  0  0  0
  -28.6380  -13.3450   19.4870 C   0  0  0  0  0  3  0  0  0  0  0  0
  -29.6990  -13.0340   20.5640 C   0  0  0  0  0  2  0  0  0  0  0  0
  -31.0170  -13.3120   19.9690 N   0  0  0  0  0  0  0  0  0  0  0  0
  -32.8710  -14.6310   19.7560 O   0  0  0  0  0  0  0  0  0  0  0  0
  -30.9540  -15.4490   20.6610 N   0  0  0  0  0  0  0  0  0  0  0  0
  -29.9700  -15.2320   20.6700 H   0  0  0  0  0  0  0  0  0  0  0  0
  -26.3050  -14.1200   20.2540 C   0  0  0  0  0  0  0  0  0  0  0  0
  -25.1970  -13.4230   20.6490 C   0  0  0  0  0  0  0  0  0  0  0  0
  -25.5610  -12.0400   20.6030 C   0  0  0  0  0  0  0  0  0  0  0  0
  -27.2810  -13.1680   19.9970 N   0  0  0  0  0  0  0  0  0  0  0  0
  -26.8370  -11.9130   20.2660 N   0  0  0  0  0  0  0  0  0  0  0  0
  -24.7520  -10.8340   20.8080 C   0  0  0  0  0  0  0  0  0  0  0  0
  -25.0680   -9.9010   21.8210 C   0  0  0  0  0  3  0  0  0  0  0  0
  -24.2650   -8.7560   22.0120 C   0  0  0  0  0  3  0  0  0  0  0  0
  -23.1360   -8.5360   21.1890 C   0  0  0  0  0  0  0  0  0  0  0  0
  -22.8390   -9.4560   20.1700 C   0  0  0  0  0  3  0  0  0  0  0  0
  -23.6400  -10.5920   19.9750 C   0  0  0  0  0  3  0  0  0  0  0  0
  -22.3140   -7.4380   21.2840 O   0  0  0  0  0  0  0  0  0  0  0  0
  -22.0450   -6.8410   22.4890 C   0  0  0  0  0  0  0  0  0  0  0  0
  -21.4460   -7.5460   23.5560 C   0  0  0  0  0  3  0  0  0  0  0  0
  -21.1260   -6.8770   24.7550 C   0  0  0  0  0  3  0  0  0  0  0  0
  -21.3940   -5.5010   24.8860 C   0  0  0  0  0  0  0  0  0  0  0  0
  -21.9890   -4.7940   23.8250 C   0  0  0  0  0  3  0  0  0  0  0  0
  -22.3100   -5.4630   22.6300 C   0  0  0  0  0  0  0  0  0  0  0  0
  -22.8600   -4.7710   21.6020 F   0  0  0  0  0  0  0  0  0  0  0  0
  -21.0820   -4.8550   26.0330 F   0  0  0  0  0  0  0  0  0  0  0  0
  -23.8430  -13.9910   20.9610 C   0  0  0  0  0  0  0  0  0  0  0  0
  -23.1050  -13.3490   21.8590 N   0  0  0  0  0  0  0  0  0  0  0  0
  -23.4520  -15.0360   20.4400 O   0  0  0  0  0  0  0  0  0  0  0  0
  -23.4380  -12.4980   22.2850 H   0  0  0  0  0  0  0  0  0  0  0  0
  -22.2020  -13.7090   22.1300 H   0  0  0  0  0  0  0  0  0  0  0  0
  -26.5660  -15.4750   20.0700 N   0  0  0  0  0  0  0  0  0  0  0  0
  -25.8380  -16.1780   20.1500 H   0  0  0  0  0  0  0  0  0  0  0  0
  -27.4050  -15.8230   19.6200 H   0  0  0  0  0  0  0  0  0  0  0  0
  -30.1820  -16.5380   22.7010 C   0  0  0  0  0  2  0  0  0  0  0  0
  -30.1700  -17.7470   23.6210 C   0  0  0  0  0  3  0  0  0  0  0  0
  -30.7890  -17.7990   24.7230 N   0  0  0  0  0  0  0  0  0  0  0  0
  -30.6380  -18.6910   25.1910 H   0  0  0  0  0  0  0  0  0  0  0  0
  2  1  2  0
  3  1  1  0
  3 55  1  0
  4  6  1  0
  4  5  2  0
  5  2  1  0
  6  3  2  0
  7 10  1  0
  7  4  1  0
  8  7  1  0
 10  9  1  0
 11 10  1  0
 11 12  1  0
 13 12  1  0
 13 14  1  0
 14 16  1  0
 15 26  2  0
 16 21  1  0
 17 25  1  0
 17 27  1  0
 18 24  1  0
 18 20  1  0
 19 25  1  0
 20 19  1  0
 21 20  2  0
 22 23  1  0
 22 16  2  0
 23 18  2  0
 24 17  1  0
 25 15  1  0
 27 29  2  0
 28 27  1  0
 30 28  1  0
 31 40  2  0
 31 36  1  0
 32 28  1  0
 32 36  1  0
 33 32  1  0
 34 35  1  0
 34 33  1  0
 35 31  1  0
 36 37  2  0
 37 38  1  0
 39 38  2  0
 40 39  1  0
 41 15  1  0
 41 42  1  0
 41 51  1  0
 42 45  1  0
 43 47  1  0
 43 42  1  0
 44 43  2  0
 47 46  1  0
 49 47  1  0
 49 50  1  0
 49 48  1  0
 51 54  1  1
 51 52  1  0
 53 51  1  0
 55 94  1  0
 56 64  1  0
 57 62  1  0
 58 59  1  0
 58 57  1  0
 60 59  1  0
 60 69  1  0
 60 61  1  0
 62 56  1  0
 62 61  1  0
 63 56  2  0
 64 65  1  0
 64 55  1  0
 66 67  2  0
 67 86  1  0
 68 67  1  0
 68 71  1  0
 69 66  1  0
 69 70  1  0
 70 68  2  0
 71 72  1  0
 72 73  2  0
 74 77  1  0
 74 73  1  0
 75 74  2  0
 76 75  1  0
 76 71  2  0
 77 78  1  0
 78 83  2  0
 78 79  1  0
 79 80  2  0
 80 81  1  0
 81 85  1  0
 82 81  2  0
 83 82  1  0
 84 83  1  0
 86 87  1  0
 87 90  1  0
 87 89  1  0
 88 86  2  0
 91 92  1  0
 91 66  1  0
 93 91  1  0
 94 95  1  0
 95 96  2  0
 96 97  1  0
M  ISO  4  13 101  14 101  56 100  64 100
M  END
>  <TORSDO>  (9) 
F 23

>  <SCORE>  (9) 
-8.699

>  <name>  (9) 
8

>  <ligand_id>  (9) 
8

>  <original_smiles>  (9) 
[H]N=C([H])C([H])([H])C([H])(c1nc(N([H])C([H])(C([H])([H])[H])C([H])([H])C([H])([H])C([H])([H])Oc2c([H])c([H])c3c(c2[H])C([H])([H])N(C(=O)C([H])(N([H])C(=O)C([H])(N([H])C([H])([H])[H])C([H])([H])[H])C(C([H])([H])[H])(C([H])([H])[H])C([H])([H])[H])C([H])(C(=O)N([H])C2([H])c4c([H])c([H])c([H])c([H])c4C([H])([H])C([H])([H])C2([H])[H])C3([H])[H])nc([H])c1[H])N([H])C(=O)N1C([H])([H])C([H])([H])C([H])([H])C([H])(n2nc(-c3c([H])c([H])c(Oc4c([H])c([H])c(F)c([H])c4F)c([H])c3[H])c(C(=O)N([H])[H])c2N([H])[H])C1([H])[H]

>  <smiles>  (9) 
[H]N=C([H])C([H])([H])C([H])(c1nc(N([H])C([H])(C([H])([H])[H])C([H])([H])C([H])([H])C([H])([H])Oc2c([H])c([H])c3c(c2[H])C([H])([H])N(C(=O)C([H])(N([H])C(=O)C([H])(N([H])C([H])([H])[H])C([H])([H])[H])C(C([H])([H])[H])(C([H])([H])[H])C([H])([H])[H])C([H])(C(=O)N([H])C2([H])c4c([H])c([H])c([H])c([H])c4C([H])([H])C([H])([H])C2([H])[H])C3([H])[H])nc([H])c1[H])N([H])C(=O)N1C([H])([H])C([H])([H])C([H])([H])C([H])(n2nc(-c3c([H])c([H])c(Oc4c([H])c([H])c(F)c([H])c4F)c([H])c3[H])c(C(=O)N([H])[H])c2N([H])[H])C1([H])[H]

$$$$
9:0:0
     RDKit          3D

 93101  0  0  1  0  0  0  0  0999 V2000
  -28.8930  -21.9140   21.1170 C   0  0  0  0  0  0  0  0  0  0  0  0
  -28.9730  -20.8930   20.2330 N   0  0  0  0  0  0  0  0  0  0  0  0
  -29.5850  -21.9800   22.1360 O   0  0  0  0  0  0  0  0  0  0  0  0
  -28.4860  -21.0420   19.3610 H   0  0  0  0  0  0  0  0  0  0  0  0
  -30.9340  -14.6010   20.1210 C   0  0  0  0  0  0  0  0  0  0  0  0
  -30.6100  -12.4520   18.9330 C   0  0  0  0  0  2  0  0  0  0  0  0
  -29.5940  -12.6620   17.7890 C   0  0  0  0  0  2  0  0  0  0  0  0
  -28.1480  -12.5060   18.3010 C   0  0  0  0  0  2  0  0  0  0  0  0
  -27.8810  -13.3260   19.5920 C   0  0  0  0  0  3  0  0  0  0  0  0
  -28.9940  -13.0730   20.6350 C   0  0  0  0  0  2  0  0  0  0  0  0
  -30.2910  -13.4040   20.0140 N   0  0  0  0  0  0  0  0  0  0  0  0
  -31.9670  -14.8620   19.4940 O   0  0  0  0  0  0  0  0  0  0  0  0
  -29.7140  -19.0100   21.6830 C   0  0  0  0  0  3  0  0  0  0  0  0
  -30.0750  -17.4860   19.4920 C   0  0  0  0  0  3  0  0  0  0  0  0
  -29.5180  -19.5750   20.3930 C   0  0  0  0  0  0  0  0  0  0  0  0
  -30.2090  -16.9100   20.7850 C   0  0  0  0  0  0  0  0  0  0  0  0
  -29.7210  -18.7880   19.3010 N   0  0  0  0  0  0  0  0  0  0  0  0
  -30.0360  -17.7010   21.8760 N   0  0  0  0  0  0  0  0  0  0  0  0
  -30.3600  -15.4960   20.9520 N   0  0  0  0  0  0  0  0  0  0  0  0
  -29.7360  -15.0860   21.6290 H   0  0  0  0  0  0  0  0  0  0  0  0
  -25.5310  -13.9280   20.4570 C   0  0  0  0  0  0  0  0  0  0  0  0
  -24.4820  -13.1490   20.8700 C   0  0  0  0  0  0  0  0  0  0  0  0
  -24.9310  -11.7980   20.7700 C   0  0  0  0  0  0  0  0  0  0  0  0
  -26.5550  -13.0470   20.1390 N   0  0  0  0  0  0  0  0  0  0  0  0
  -26.2010  -11.7620   20.3850 N   0  0  0  0  0  0  0  0  0  0  0  0
  -24.2110  -10.5330   20.9670 C   0  0  0  0  0  0  0  0  0  0  0  0
  -24.6210   -9.5920   21.9360 C   0  0  0  0  0  3  0  0  0  0  0  0
  -23.9000   -8.3910   22.1190 C   0  0  0  0  0  3  0  0  0  0  0  0
  -22.7540   -8.1250   21.3320 C   0  0  0  0  0  0  0  0  0  0  0  0
  -22.3650   -9.0550   20.3540 C   0  0  0  0  0  3  0  0  0  0  0  0
  -23.0860  -10.2460   20.1690 C   0  0  0  0  0  3  0  0  0  0  0  0
  -22.0070   -6.9770   21.4250 O   0  0  0  0  0  0  0  0  0  0  0  0
  -21.8330   -6.3230   22.6190 C   0  0  0  0  0  0  0  0  0  0  0  0
  -21.2310   -6.9510   23.7320 C   0  0  0  0  0  3  0  0  0  0  0  0
  -21.0100   -6.2210   24.9170 C   0  0  0  0  0  3  0  0  0  0  0  0
  -21.3800   -4.8650   24.9880 C   0  0  0  0  0  0  0  0  0  0  0  0
  -21.9750   -4.2380   23.8790 C   0  0  0  0  0  3  0  0  0  0  0  0
  -22.1980   -4.9650   22.6980 C   0  0  0  0  0  0  0  0  0  0  0  0
  -22.7530   -4.3490   21.6260 F   0  0  0  0  0  0  0  0  0  0  0  0
  -21.1600   -4.1610   26.1240 F   0  0  0  0  0  0  0  0  0  0  0  0
  -23.1070  -13.6250   21.2400 C   0  0  0  0  0  0  0  0  0  0  0  0
  -22.4260  -12.9000   22.1240 N   0  0  0  0  0  0  0  0  0  0  0  0
  -22.6460  -14.6690   20.7840 O   0  0  0  0  0  0  0  0  0  0  0  0
  -22.8140  -12.0560   22.5180 H   0  0  0  0  0  0  0  0  0  0  0  0
  -21.5050  -13.1940   22.4120 H   0  0  0  0  0  0  0  0  0  0  0  0
  -25.6890  -15.3020   20.3070 N   0  0  0  0  0  0  0  0  0  0  0  0
  -24.9220  -15.9460   20.4700 H   0  0  0  0  0  0  0  0  0  0  0  0
  -26.5190  -15.7570   19.9470 H   0  0  0  0  0  0  0  0  0  0  0  0
  -26.5880  -22.6850   21.6430 C   0  0  0  0  0  1  0  0  0  0  0  0
  -27.8480  -23.0270   20.8230 C   0  0  0  0  0  3  0  0  0  0  0  0
  -28.2750  -24.5100   21.1210 C   0  0  0  0  0  2  0  0  0  0  0  0
  -28.6520  -25.3780   19.8890 C   0  0  0  0  0  2  0  0  0  0  0  0
  -28.5850  -26.7980   20.1550 O   0  0  0  0  0  0  0  0  0  0  0  0
  -24.6260  -31.8740   23.2070 C   0  0  0  0  0  0  0  0  0  0  0  0
  -27.3760  -27.4790   20.1260 C   0  0  0  0  0  0  0  0  0  0  0  0
  -23.4580  -30.4570   21.5520 C   0  0  0  0  0  3  0  0  0  0  0  0
  -24.9480  -28.9560   20.1270 C   0  0  0  0  0  0  0  0  0  0  0  0
  -25.9760  -30.8640   21.3710 C   0  0  0  0  0  2  0  0  0  0  0  0
  -26.0930  -29.4970   20.7190 C   0  0  0  0  0  0  0  0  0  0  0  0
  -27.3070  -28.7690   20.7110 C   0  0  0  0  0  3  0  0  0  0  0  0
  -26.2020  -26.9520   19.5390 C   0  0  0  0  0  3  0  0  0  0  0  0
  -24.9960  -27.6810   19.5380 C   0  0  0  0  0  3  0  0  0  0  0  0
  -23.6910  -29.7950   20.1680 C   0  0  0  0  0  2  0  0  0  0  0  0
  -24.7040  -31.0780   22.1040 N   0  0  0  0  0  0  0  0  0  0  0  0
  -23.5360  -32.1240   23.7420 O   0  0  0  0  0  0  0  0  0  0  0  0
  -22.8230  -29.4170   22.5040 C   0  0  0  0  0  0  0  0  0  0  0  0
  -21.5000  -29.2260   22.3870 N   0  0  0  0  0  0  0  0  0  0  0  0
  -23.5180  -28.7870   23.3060 O   0  0  0  0  0  0  0  0  0  0  0  0
  -20.9950  -29.8040   21.7300 H   0  0  0  0  0  0  0  0  0  0  0  0
  -18.1470  -27.9780   22.8900 C   0  0  0  0  0  0  0  0  0  0  0  0
  -20.7020  -28.2630   23.1470 C   0  0  0  0  0  3  0  0  0  0  0  0
  -20.8250  -26.8440   22.5460 C   0  0  0  0  0  2  0  0  0  0  0  0
  -19.7160  -26.5150   21.5400 C   0  0  0  0  0  2  0  0  0  0  0  0
  -18.3370  -26.6420   22.1940 C   0  0  0  0  0  2  0  0  0  0  0  0
  -19.2600  -28.7460   23.3240 C   0  0  0  0  0  0  0  0  0  0  0  0
  -19.0310  -29.9990   23.9310 C   0  0  0  0  0  3  0  0  0  0  0  0
  -17.7220  -30.4850   24.1140 C   0  0  0  0  0  3  0  0  0  0  0  0
  -16.6240  -29.7100   23.7000 C   0  0  0  0  0  3  0  0  0  0  0  0
  -16.8370  -28.4590   23.0940 C   0  0  0  0  0  3  0  0  0  0  0  0
  -25.8970  -32.5270   23.8320 C   0  0  0  0  0  3  0  0  0  0  0  0
  -26.4270  -31.7640   25.1080 C   0  0  1  0  0  0  0  0  0  0  0  0
  -25.3350  -31.5010   26.1680 C   0  0  0  0  0  1  0  0  0  0  0  0
  -27.0430  -30.4000   24.7180 C   0  0  0  0  0  1  0  0  0  0  0  0
  -27.5560  -32.5820   25.7810 C   0  0  0  0  0  1  0  0  0  0  0  0
  -25.5630  -33.9200   24.1580 N   0  0  0  0  0  0  0  0  0  0  0  0
  -25.8810  -34.9770   23.3990 C   0  0  0  0  0  0  0  0  0  0  0  0
  -26.5580  -34.8850   22.3710 O   0  0  0  0  0  0  0  0  0  0  0  0
  -24.9740  -34.0630   24.9640 H   0  0  0  0  0  0  0  0  0  0  0  0
  -24.1350  -36.7430   23.0190 C   0  0  0  0  0  1  0  0  0  0  0  0
  -25.3660  -36.3560   23.8510 C   0  0  0  0  0  3  0  0  0  0  0  0
  -27.4690  -37.2750   24.7250 C   0  0  0  0  0  1  0  0  0  0  0  0
  -26.3850  -37.4250   23.7580 N   0  0  0  0  0  0  0  0  0  0  0  0
  -25.9620  -38.3370   23.8960 H   0  0  0  0  0  0  0  0  0  0  0  0
  1  3  2  0
  2 15  1  0
  2  1  1  0
  4  2  1  0
  5 19  1  0
  6 11  1  0
  7  8  1  0
  7  6  1  0
  9  8  1  0
  9 24  1  0
  9 10  1  0
 11  5  1  0
 11 10  1  0
 12  5  2  0
 13 18  1  0
 14 16  1  0
 15 13  2  0
 16 19  1  0
 16 18  2  0
 17 14  2  0
 17 15  1  0
 19 20  1  0
 21 22  2  0
 22 41  1  0
 23 22  1  0
 23 26  1  0
 24 25  1  0
 24 21  1  0
 25 23  2  0
 26 27  1  0
 27 28  2  0
 29 32  1  0
 29 28  1  0
 30 29  2  0
 31 30  1  0
 31 26  2  0
 32 33  1  0
 33 38  2  0
 33 34  1  0
 34 35  2  0
 35 36  1  0
 36 40  1  0
 37 36  2  0
 38 37  1  0
 39 38  1  0
 41 42  1  0
 42 45  1  0
 42 44  1  0
 43 41  2  0
 46 21  1  0
 46 47  1  0
 48 46  1  0
 50  1  1  0
 50 51  1  0
 50 49  1  0
 52 53  1  0
 52 51  1  0
 54 65  2  0
 55 53  1  0
 55 60  1  0
 56 64  1  0
 56 66  1  0
 57 63  1  0
 57 59  1  0
 58 64  1  0
 59 58  1  0
 60 59  2  0
 61 55  2  0
 62 61  1  0
 62 57  2  0
 63 56  1  0
 64 54  1  0
 66 68  2  0
 67 66  1  0
 69 67  1  0
 70 79  2  0
 70 75  1  0
 71 67  1  0
 71 75  1  0
 72 71  1  0
 73 74  1  0
 73 72  1  0
 74 70  1  0
 75 76  2  0
 76 77  1  0
 78 77  2  0
 79 78  1  0
 80 54  1  0
 80 85  1  0
 80 81  1  0
 81 84  1  1
 81 82  1  0
 83 81  1  0
 85 88  1  0
 86 90  1  0
 86 85  1  0
 87 86  2  0
 90 89  1  0
 92 90  1  0
 92 93  1  0
 92 91  1  0
M  ISO  4   5 100  19 100  52 101  53 101
M  END
>  <TORSDO>  (10) 
F 19

>  <SCORE>  (10) 
-13.255

>  <name>  (10) 
9

>  <ligand_id>  (10) 
9

>  <original_smiles>  (10) 
[H]c1nc(N([H])C(=O)C([H])(C([H])([H])[H])C([H])([H])C([H])([H])Oc2c([H])c([H])c3c(c2[H])C([H])([H])N(C(=O)C([H])(N([H])C(=O)C([H])(N([H])C([H])([H])[H])C([H])([H])[H])C(C([H])([H])[H])(C([H])([H])[H])C([H])([H])[H])C([H])(C(=O)N([H])C2([H])c4c([H])c([H])c([H])c([H])c4C([H])([H])C([H])([H])C2([H])[H])C3([H])[H])c([H])nc1N([H])C(=O)N1C([H])([H])C([H])([H])C([H])([H])C([H])(n2nc(-c3c([H])c([H])c(Oc4c([H])c([H])c(F)c([H])c4F)c([H])c3[H])c(C(=O)N([H])[H])c2N([H])[H])C1([H])[H]

>  <smiles>  (10) 
[H]c1nc(N([H])C(=O)C([H])(C([H])([H])[H])C([H])([H])C([H])([H])Oc2c([H])c([H])c3c(c2[H])C([H])([H])N(C(=O)C([H])(N([H])C(=O)C([H])(N([H])C([H])([H])[H])C([H])([H])[H])C(C([H])([H])[H])(C([H])([H])[H])C([H])([H])[H])C([H])(C(=O)N([H])C2([H])c4c([H])c([H])c([H])c([H])c4C([H])([H])C([H])([H])C2([H])[H])C3([H])[H])c([H])nc1N([H])C(=O)N1C([H])([H])C([H])([H])C([H])([H])C([H])(n2nc(-c3c([H])c([H])c(Oc4c([H])c([H])c(F)c([H])c4F)c([H])c3[H])c(C(=O)N([H])[H])c2N([H])[H])C1([H])[H]

$$$$
10:0:0
     RDKit          3D

 98106  0  0  1  0  0  0  0  0999 V2000
  -32.5580  -23.6290   17.2520 C   0  0  0  0  0  0  0  0  0  0  0  0
  -32.6830  -22.3650   17.7060 N   0  0  0  0  0  0  0  0  0  0  0  0
  -31.9520  -24.5090   17.8700 O   0  0  0  0  0  0  0  0  0  0  0  0
  -33.2340  -21.7430   17.1300 H   0  0  0  0  0  0  0  0  0  0  0  0
  -31.6570  -22.3870   19.9810 C   0  0  0  0  0  3  0  0  0  0  0  0
  -31.2290  -21.4580   20.9850 C   0  0  0  0  0  0  0  0  0  0  0  0
  -31.4240  -20.1520   20.5970 C   0  0  0  0  0  0  0  0  0  0  0  0
  -32.1620  -21.8060   18.8370 C   0  0  0  0  0  0  0  0  0  0  0  0
  -32.0440  -20.0700   18.9680 S   0  0  0  0  0  0  0  0  0  0  0  0
  -30.6900  -21.8760   22.3300 C   0  0  1  0  0  0  0  0  0  0  0  0
  -30.5690  -23.2000   22.4270 F   0  0  0  0  0  0  0  0  0  0  0  0
  -29.4830  -21.3510   22.5550 F   0  0  0  0  0  0  0  0  0  0  0  0
  -31.4950  -21.4760   23.3140 F   0  0  0  0  0  0  0  0  0  0  0  0
  -31.2770  -18.8890   21.3980 C   0  0  0  0  0  2  0  0  0  0  0  0
  -30.8390  -16.4940   21.0290 C   0  0  0  0  0  0  0  0  0  0  0  0
  -30.8360  -14.0430   20.7800 C   0  0  0  0  0  2  0  0  0  0  0  0
  -32.1950  -13.4790   21.2410 C   0  0  0  0  0  2  0  0  0  0  0  0
  -33.2000  -13.4750   20.0730 C   0  0  0  0  0  2  0  0  0  0  0  0
  -33.2600  -14.8350   19.3290 C   0  0  0  0  0  3  0  0  0  0  0  0
  -31.8420  -15.3620   19.0070 C   0  0  0  0  0  2  0  0  0  0  0  0
  -31.0760  -15.3990   20.2620 N   0  0  0  0  0  0  0  0  0  0  0  0
  -30.1700  -16.4480   22.0640 O   0  0  0  0  0  0  0  0  0  0  0  0
  -31.4590  -17.6310   20.6690 N   0  0  0  0  0  0  0  0  0  0  0  0
  -32.0620  -17.6100   19.8630 H   0  0  0  0  0  0  0  0  0  0  0  0
  -35.4130  -15.1290   17.9510 C   0  0  0  0  0  0  0  0  0  0  0  0
  -35.7350  -14.7740   16.6690 C   0  0  0  0  0  0  0  0  0  0  0  0
  -34.5620  -14.1730   16.1200 C   0  0  0  0  0  0  0  0  0  0  0  0
  -34.0910  -14.7530   18.1310 N   0  0  0  0  0  0  0  0  0  0  0  0
  -33.5660  -14.2210   16.9950 N   0  0  0  0  0  0  0  0  0  0  0  0
  -34.3470  -13.5030   14.8310 C   0  0  0  0  0  0  0  0  0  0  0  0
  -33.5880  -14.1060   13.8030 C   0  0  0  0  0  3  0  0  0  0  0  0
  -33.4080  -13.4490   12.5660 C   0  0  0  0  0  3  0  0  0  0  0  0
  -33.9920  -12.1780   12.3450 C   0  0  0  0  0  0  0  0  0  0  0  0
  -34.7250  -11.5720   13.3810 C   0  0  0  0  0  3  0  0  0  0  0  0
  -34.8990  -12.2260   14.6120 C   0  0  0  0  0  3  0  0  0  0  0  0
  -33.8510  -11.4570   11.1840 O   0  0  0  0  0  0  0  0  0  0  0  0
  -34.2480  -11.9600    9.9710 C   0  0  0  0  0  0  0  0  0  0  0  0
  -35.5600  -12.4330    9.7520 C   0  0  0  0  0  3  0  0  0  0  0  0
  -35.9440  -12.8770    8.4710 C   0  0  0  0  0  3  0  0  0  0  0  0
  -35.0230  -12.8380    7.4060 C   0  0  0  0  0  0  0  0  0  0  0  0
  -33.7190  -12.3580    7.6200 C   0  0  0  0  0  3  0  0  0  0  0  0
  -33.3340  -11.9190    8.8990 C   0  0  0  0  0  0  0  0  0  0  0  0
  -32.0800  -11.4400    9.0940 F   0  0  0  0  0  0  0  0  0  0  0  0
  -35.3960  -13.2550    6.1740 F   0  0  0  0  0  0  0  0  0  0  0  0
  -37.0850  -14.8910   16.0190 C   0  0  0  0  0  0  0  0  0  0  0  0
  -37.1500  -15.5170   14.8490 N   0  0  0  0  0  0  0  0  0  0  0  0
  -38.0990  -14.4720   16.5750 O   0  0  0  0  0  0  0  0  0  0  0  0
  -36.3200  -15.8770   14.4000 H   0  0  0  0  0  0  0  0  0  0  0  0
  -38.0430  -15.6350   14.3930 H   0  0  0  0  0  0  0  0  0  0  0  0
  -36.1400  -15.7130   18.9850 N   0  0  0  0  0  0  0  0  0  0  0  0
  -37.1310  -15.9110   18.8950 H   0  0  0  0  0  0  0  0  0  0  0  0
  -35.8040  -15.8180   19.9340 H   0  0  0  0  0  0  0  0  0  0  0  0
  -32.0520  -24.4410   14.9490 C   0  0  0  0  0  1  0  0  0  0  0  0
  -33.1940  -23.9470   15.8740 C   0  0  0  0  0  3  0  0  0  0  0  0
  -34.5310  -25.7390   17.2680 C   0  0  0  0  0  1  0  0  0  0  0  0
  -34.4230  -24.9290   15.9550 C   0  0  0  0  0  3  0  0  0  0  0  0
  -34.6880  -25.7830   14.6750 C   0  0  0  0  0  2  0  0  0  0  0  0
  -33.6430  -26.6660   14.2440 O   0  0  0  0  0  0  0  0  0  0  0  0
  -36.0130  -31.3120   19.1030 C   0  0  0  0  0  0  0  0  0  0  0  0
  -33.3740  -27.7190   15.0790 C   0  0  0  0  0  0  0  0  0  0  0  0
  -33.5630  -31.0190   18.9580 C   0  0  0  0  0  3  0  0  0  0  0  0
  -32.7170  -29.7540   16.9140 C   0  0  0  0  0  0  0  0  0  0  0  0
  -35.0430  -30.6620   16.9040 C   0  0  0  0  0  2  0  0  0  0  0  0
  -34.0260  -29.6500   16.4250 C   0  0  0  0  0  0  0  0  0  0  0  0
  -34.3680  -28.6240   15.5170 C   0  0  0  0  0  3  0  0  0  0  0  0
  -32.0500  -27.8770   15.5280 C   0  0  0  0  0  3  0  0  0  0  0  0
  -31.7210  -28.8670   16.4700 C   0  0  0  0  0  3  0  0  0  0  0  0
  -32.4360  -30.8560   17.9070 C   0  0  0  0  0  2  0  0  0  0  0  0
  -34.9290  -30.9810   18.3460 N   0  0  0  0  0  0  0  0  0  0  0  0
  -35.8850  -31.6840   20.2780 O   0  0  0  0  0  0  0  0  0  0  0  0
  -33.3590  -29.9620   20.0710 C   0  0  0  0  0  0  0  0  0  0  0  0
  -32.0900  -29.6960   20.4190 N   0  0  0  0  0  0  0  0  0  0  0  0
  -34.3270  -29.3860   20.5770 O   0  0  0  0  0  0  0  0  0  0  0  0
  -31.3560  -30.2170   19.9610 H   0  0  0  0  0  0  0  0  0  0  0  0
  -29.3030  -28.6590   22.4740 C   0  0  0  0  0  0  0  0  0  0  0  0
  -31.6600  -28.7160   21.4150 C   0  0  0  0  0  3  0  0  0  0  0  0
  -31.2840  -27.3740   20.7460 C   0  0  0  0  0  2  0  0  0  0  0  0
  -29.7900  -27.2540   20.4260 C   0  0  0  0  0  2  0  0  0  0  0  0
  -28.9540  -27.3990   21.6990 C   0  0  0  0  0  2  0  0  0  0  0  0
  -30.5700  -29.2840   22.3290 C   0  0  0  0  0  0  0  0  0  0  0  0
  -30.8360  -30.4680   23.0510 C   0  0  0  0  0  3  0  0  0  0  0  0
  -29.8660  -31.0260   23.9060 C   0  0  0  0  0  3  0  0  0  0  0  0
  -28.6180  -30.3960   24.0540 C   0  0  0  0  0  3  0  0  0  0  0  0
  -28.3410  -29.2130   23.3440 C   0  0  0  0  0  3  0  0  0  0  0  0
  -37.4600  -31.2610   18.5210 C   0  0  0  0  0  3  0  0  0  0  0  0
  -38.1070  -32.5430   18.8350 N   0  0  0  0  0  0  0  0  0  0  0  0
  -38.0920  -33.6150   18.0350 C   0  0  0  0  0  0  0  0  0  0  0  0
  -37.5870  -33.6050   16.9090 O   0  0  0  0  0  0  0  0  0  0  0  0
  -38.4960  -32.6410   19.7630 H   0  0  0  0  0  0  0  0  0  0  0  0
  -37.6930  -36.0320   18.6040 C   0  0  0  0  0  1  0  0  0  0  0  0
  -38.7400  -34.9060   18.5710 C   0  0  0  0  0  3  0  0  0  0  0  0
  -41.0680  -34.4550   17.9330 C   0  0  0  0  0  1  0  0  0  0  0  0
  -39.9170  -35.3420   17.7860 N   0  0  0  0  0  0  0  0  0  0  0  0
  -40.2030  -36.2800   18.0580 H   0  0  0  0  0  0  0  0  0  0  0  0
  -38.3090  -30.0520   19.0730 C   0  0  1  0  0  0  0  0  0  0  0  0
  -39.0370  -30.3620   20.4010 C   0  0  0  0  0  1  0  0  0  0  0  0
  -37.4100  -28.8130   19.3010 C   0  0  0  0  0  1  0  0  0  0  0  0
  -39.3730  -29.6430   18.0270 C   0  0  0  0  0  1  0  0  0  0  0  0
  1  2  1  0
  1  3  2  0
  2  8  1  0
  4  2  1  0
  5  6  1  0
  6 10  1  0
  7  6  2  0
  7 14  1  0
  8  9  1  0
  8  5  2  0
  9  7  1  0
 10 11  1  6
 10 12  1  0
 10 13  1  0
 15 22  2  0
 16 17  1  0
 18 17  1  0
 19 28  1  0
 19 18  1  0
 20 19  1  0
 20 21  1  0
 21 16  1  0
 21 15  1  0
 23 15  1  0
 23 14  1  0
 24 23  1  0
 25 28  1  0
 25 50  1  0
 26 25  2  0
 27 26  1  0
 27 29  2  0
 29 28  1  0
 30 27  1  0
 31 30  2  0
 32 31  1  0
 33 32  2  0
 33 34  1  0
 34 35  2  0
 35 30  1  0
 36 33  1  0
 37 36  1  0
 38 37  1  0
 39 38  2  0
 40 41  2  0
 40 39  1  0
 41 42  1  0
 42 43  1  0
 42 37  2  0
 44 40  1  0
 45 47  2  0
 45 26  1  0
 46 45  1  0
 48 46  1  0
 49 46  1  0
 50 52  1  0
 51 50  1  0
 54 53  1  0
 54 56  1  0
 54  1  1  0
 56 55  1  0
 57 56  1  0
 58 57  1  0
 58 60  1  0
 59 70  2  0
 60 65  2  0
 60 66  1  0
 61 71  1  0
 62 68  1  0
 63 69  1  0
 64 63  1  0
 64 62  2  0
 65 64  1  0
 66 67  2  0
 67 62  1  0
 68 61  1  0
 69 61  1  0
 69 59  1  0
 71 72  1  0
 71 73  2  0
 74 72  1  0
 75 84  1  0
 76 72  1  0
 76 80  1  0
 77 76  1  0
 78 77  1  0
 78 79  1  0
 79 75  1  0
 80 75  2  0
 80 81  1  0
 81 82  2  0
 82 83  1  0
 84 83  2  0
 85 86  1  0
 85 95  1  0
 85 59  1  0
 86 89  1  0
 87 91  1  0
 87 86  1  0
 88 87  2  0
 91 90  1  0
 93 92  1  0
 93 94  1  0
 93 91  1  0
 95 97  1  1
 95 96  1  0
 98 95  1  0
M  ISO  4  15 100  23 100  57 101  58 101
M  END
>  <TORSDO>  (11) 
F 22

>  <SCORE>  (11) 
-4.818

>  <name>  (11) 
10

>  <ligand_id>  (11) 
10

>  <original_smiles>  (11) 
[H]c1c([H])c([H])c2c(c1[H])C([H])([H])C([H])([H])C([H])([H])C2([H])N([H])C(=O)C1([H])N(C(=O)C([H])(N([H])C(=O)C([H])(N([H])C([H])([H])[H])C([H])([H])[H])C(C([H])([H])[H])(C([H])([H])[H])C([H])([H])[H])C([H])([H])c2c([H])c(OC([H])([H])C([H])(C([H])([H])[H])C([H])(C(=O)N([H])c3sc(C([H])([H])N([H])C(=O)N4C([H])([H])C([H])([H])C([H])([H])C([H])(n5nc(-c6c([H])c([H])c(Oc7c([H])c([H])c(F)c([H])c7F)c([H])c6[H])c(C(=O)N([H])[H])c5N([H])[H])C4([H])[H])c(C(F)(F)F)c3[H])C([H])([H])[H])c([H])c([H])c2C1([H])[H]

>  <smiles>  (11) 
[H]c1c([H])c([H])c2c(c1[H])C([H])([H])C([H])([H])C([H])([H])C2([H])N([H])C(=O)C1([H])N(C(=O)C([H])(N([H])C(=O)C([H])(N([H])C([H])([H])[H])C([H])([H])[H])C(C([H])([H])[H])(C([H])([H])[H])C([H])([H])[H])C([H])([H])c2c([H])c(OC([H])([H])C([H])(C([H])([H])[H])C([H])(C(=O)N([H])c3sc(C([H])([H])N([H])C(=O)N4C([H])([H])C([H])([H])C([H])([H])C([H])(n5nc(-c6c([H])c([H])c(Oc7c([H])c([H])c(F)c([H])c7F)c([H])c6[H])c(C(=O)N([H])[H])c5N([H])[H])C4([H])[H])c(C(F)(F)F)c3[H])C([H])([H])[H])c([H])c([H])c2C1([H])[H]

$$$$
11:0:0
     RDKit          3D

 98106  0  0  1  0  0  0  0  0999 V2000
  -30.0450  -21.4910   20.7060 C   0  0  0  0  0  3  0  0  0  0  0  0
  -30.8820  -17.1040   22.3170 C   0  0  0  0  0  3  0  0  0  0  0  0
  -30.3220  -16.9220   21.0780 C   0  0  0  0  0  0  0  0  0  0  0  0
  -30.1440  -19.0930   21.5880 C   0  0  0  0  0  3  0  0  0  0  0  0
  -31.0530  -19.0860   23.8980 C   0  0  0  0  0  1  0  0  0  0  0  0
  -30.7230  -18.4380   22.6170 N   0  0  0  0  0  0  0  0  0  0  0  0
  -29.8950  -18.1680   20.6350 N   0  0  0  0  0  0  0  0  0  0  0  0
  -29.7630  -20.3980   21.6680 N   0  0  0  0  0  0  0  0  0  0  0  0
  -29.3930  -18.3440   19.7760 H   0  0  0  0  0  0  0  0  0  0  0  0
  -29.7860  -20.7780   22.6060 H   0  0  0  0  0  0  0  0  0  0  0  0
  -30.7180  -14.6040   20.1180 C   0  0  0  0  0  0  0  0  0  0  0  0
  -30.3820  -12.4480   18.9310 C   0  0  0  0  0  2  0  0  0  0  0  0
  -29.3680  -12.6510   17.7810 C   0  0  0  0  0  2  0  0  0  0  0  0
  -27.9200  -12.4990   18.2900 C   0  0  0  0  0  2  0  0  0  0  0  0
  -27.6490  -13.3230   19.5760 C   0  0  0  0  0  3  0  0  0  0  0  0
  -28.7640  -13.0890   20.6210 C   0  0  0  0  0  2  0  0  0  0  0  0
  -30.0500  -13.4220   19.9850 N   0  0  0  0  0  0  0  0  0  0  0  0
  -31.8540  -14.7820   19.6700 O   0  0  0  0  0  0  0  0  0  0  0  0
  -29.9480  -15.6400   20.5350 N   0  0  0  0  0  0  0  0  0  0  0  0
  -28.9830  -15.3860   20.6740 H   0  0  0  0  0  0  0  0  0  0  0  0
  -25.2940  -13.9380   20.4140 C   0  0  0  0  0  0  0  0  0  0  0  0
  -24.2410  -13.1690   20.8300 C   0  0  0  0  0  0  0  0  0  0  0  0
  -24.6900  -11.8140   20.7580 C   0  0  0  0  0  0  0  0  0  0  0  0
  -26.3210  -13.0530   20.1230 N   0  0  0  0  0  0  0  0  0  0  0  0
  -25.9630  -11.7700   20.3870 N   0  0  0  0  0  0  0  0  0  0  0  0
  -23.9640  -10.5550   20.9630 C   0  0  0  0  0  0  0  0  0  0  0  0
  -24.4160   -9.5820   21.8810 C   0  0  0  0  0  3  0  0  0  0  0  0
  -23.6910   -8.3870   22.0720 C   0  0  0  0  0  3  0  0  0  0  0  0
  -22.4980   -8.1570   21.3480 C   0  0  0  0  0  0  0  0  0  0  0  0
  -22.0640   -9.1180   20.4190 C   0  0  0  0  0  3  0  0  0  0  0  0
  -22.7900  -10.3050   20.2240 C   0  0  0  0  0  3  0  0  0  0  0  0
  -21.7400   -7.0150   21.4540 O   0  0  0  0  0  0  0  0  0  0  0  0
  -21.7070   -6.2770   22.6090 C   0  0  0  0  0  0  0  0  0  0  0  0
  -21.2820   -6.8340   23.8360 C   0  0  0  0  0  3  0  0  0  0  0  0
  -21.1970   -6.0220   24.9850 C   0  0  0  0  0  3  0  0  0  0  0  0
  -21.5240   -4.6550   24.9070 C   0  0  0  0  0  0  0  0  0  0  0  0
  -21.9410   -4.0990   23.6870 C   0  0  0  0  0  3  0  0  0  0  0  0
  -22.0290   -4.9070   22.5400 C   0  0  0  0  0  0  0  0  0  0  0  0
  -22.4120   -4.3600   21.3600 F   0  0  0  0  0  0  0  0  0  0  0  0
  -21.4340   -3.8730   26.0090 F   0  0  0  0  0  0  0  0  0  0  0  0
  -22.8620  -13.6540   21.1760 C   0  0  0  0  0  0  0  0  0  0  0  0
  -22.1680  -12.9470   22.0630 N   0  0  0  0  0  0  0  0  0  0  0  0
  -22.4090  -14.6920   20.6970 O   0  0  0  0  0  0  0  0  0  0  0  0
  -22.5440  -12.1030   22.4680 H   0  0  0  0  0  0  0  0  0  0  0  0
  -21.2450  -13.2540   22.3380 H   0  0  0  0  0  0  0  0  0  0  0  0
  -25.4570  -15.3100   20.2380 N   0  0  0  0  0  0  0  0  0  0  0  0
  -24.6820  -15.9550   20.3550 H   0  0  0  0  0  0  0  0  0  0  0  0
  -26.2500  -15.7350   19.7740 H   0  0  0  0  0  0  0  0  0  0  0  0
  -31.5700  -21.8080   20.6620 C   0  0  0  0  0  2  0  0  0  0  0  0
  -31.9560  -20.5670   18.4160 C   0  0  0  0  0  1  0  0  0  0  0  0
  -33.2120  -19.7600   20.4750 C   0  0  0  0  0  1  0  0  0  0  0  0
  -32.5310  -20.9560   19.7840 C   0  0  0  0  0  3  0  0  0  0  0  0
  -29.1830  -22.7670   21.1380 C   0  0  0  0  0  2  0  0  0  0  0  0
  -29.4550  -24.2450   20.6030 C   0  0  0  0  0  3  0  0  0  0  0  0
  -30.5180  -24.8160   21.3480 O   0  0  0  0  0  0  0  0  0  0  0  0
  -30.5570  -25.7390   21.1050 H   0  0  0  0  0  0  0  0  0  0  0  0
  -28.2750  -25.2570   20.8260 C   0  0  0  0  0  2  0  0  0  0  0  0
  -28.5000  -26.6220   20.3430 O   0  0  0  0  0  0  0  0  0  0  0  0
  -24.6070  -31.9150   23.2310 C   0  0  0  0  0  0  0  0  0  0  0  0
  -27.3660  -27.4240   20.2740 C   0  0  0  0  0  0  0  0  0  0  0  0
  -23.4580  -30.4840   21.5780 C   0  0  0  0  0  3  0  0  0  0  0  0
  -24.9660  -28.9520   20.1970 C   0  0  0  0  0  0  0  0  0  0  0  0
  -25.9910  -30.8620   21.4350 C   0  0  0  0  0  2  0  0  0  0  0  0
  -26.1120  -29.4820   20.8080 C   0  0  0  0  0  0  0  0  0  0  0  0
  -27.3190  -28.7310   20.8300 C   0  0  0  0  0  3  0  0  0  0  0  0
  -26.2030  -26.9340   19.6350 C   0  0  0  0  0  3  0  0  0  0  0  0
  -25.0120  -27.6800   19.6040 C   0  0  0  0  0  3  0  0  0  0  0  0
  -23.7130  -29.8030   20.2080 C   0  0  0  0  0  2  0  0  0  0  0  0
  -24.7030  -31.1030   22.1410 N   0  0  0  0  0  0  0  0  0  0  0  0
  -23.5100  -32.1790   23.7430 O   0  0  0  0  0  0  0  0  0  0  0  0
  -22.8020  -29.4590   22.5340 C   0  0  0  0  0  0  0  0  0  0  0  0
  -21.4770  -29.2780   22.4000 N   0  0  0  0  0  0  0  0  0  0  0  0
  -23.4800  -28.8340   23.3530 O   0  0  0  0  0  0  0  0  0  0  0  0
  -20.9970  -29.8430   21.7160 H   0  0  0  0  0  0  0  0  0  0  0  0
  -18.0970  -28.0830   22.8650 C   0  0  0  0  0  0  0  0  0  0  0  0
  -20.6520  -28.3370   23.1600 C   0  0  0  0  0  3  0  0  0  0  0  0
  -20.7570  -26.9060   22.5830 C   0  0  0  0  0  2  0  0  0  0  0  0
  -19.6630  -26.5850   21.5600 C   0  0  0  0  0  2  0  0  0  0  0  0
  -18.2780  -26.7320   22.1920 C   0  0  0  0  0  2  0  0  0  0  0  0
  -19.2130  -28.8440   23.3060 C   0  0  0  0  0  0  0  0  0  0  0  0
  -18.9880  -30.1080   23.8960 C   0  0  0  0  0  3  0  0  0  0  0  0
  -17.6830  -30.6080   24.0490 C   0  0  0  0  0  3  0  0  0  0  0  0
  -16.5810  -29.8430   23.6280 C   0  0  0  0  0  3  0  0  0  0  0  0
  -16.7900  -28.5820   23.0400 C   0  0  0  0  0  3  0  0  0  0  0  0
  -25.8680  -32.5700   23.8750 C   0  0  0  0  0  3  0  0  0  0  0  0
  -25.5350  -33.9680   24.1850 N   0  0  0  0  0  0  0  0  0  0  0  0
  -25.8680  -35.0150   23.4190 C   0  0  0  0  0  0  0  0  0  0  0  0
  -26.5630  -34.9080   22.4040 O   0  0  0  0  0  0  0  0  0  0  0  0
  -24.9260  -34.1220   24.9750 H   0  0  0  0  0  0  0  0  0  0  0  0
  -24.1280  -36.7800   23.0020 C   0  0  0  0  0  1  0  0  0  0  0  0
  -25.3500  -36.4000   23.8540 C   0  0  0  0  0  3  0  0  0  0  0  0
  -27.4490  -37.3200   24.7340 C   0  0  0  0  0  1  0  0  0  0  0  0
  -26.3720  -37.4660   23.7590 N   0  0  0  0  0  0  0  0  0  0  0  0
  -25.9490  -38.3820   23.8870 H   0  0  0  0  0  0  0  0  0  0  0  0
  -26.3630  -31.8210   25.1730 C   0  0  1  0  0  0  0  0  0  0  0  0
  -25.2480  -31.5730   26.2160 C   0  0  0  0  0  1  0  0  0  0  0  0
  -26.9780  -30.4540   24.7970 C   0  0  0  0  0  1  0  0  0  0  0  0
  -27.4910  -32.6380   25.8520 C   0  0  0  0  0  1  0  0  0  0  0  0
  1 49  1  0
  1 53  1  0
  1  8  1  0
  2  6  1  0
  3  2  2  0
  4  8  1  0
  4  6  1  0
  6  5  1  0
  7  3  1  0
  7  4  1  0
  8 10  1  0
  9  7  1  0
 11 19  1  0
 12 17  1  0
 13 14  1  0
 13 12  1  0
 15 14  1  0
 15 24  1  0
 15 16  1  0
 17 11  1  0
 17 16  1  0
 18 11  2  0
 19 20  1  0
 19  3  1  0
 21 22  2  0
 22 41  1  0
 23 22  1  0
 23 26  1  0
 24 25  1  0
 24 21  1  0
 25 23  2  0
 26 27  1  0
 27 28  2  0
 29 32  1  0
 29 28  1  0
 30 29  2  0
 31 30  1  0
 31 26  2  0
 32 33  1  0
 33 34  1  0
 34 35  2  0
 36 35  1  0
 36 40  1  0
 37 36  2  0
 38 33  2  0
 38 37  1  0
 39 38  1  0
 41 42  1  0
 42 45  1  0
 42 44  1  0
 43 41  2  0
 46 47  1  0
 46 21  1  0
 48 46  1  0
 50 52  1  0
 52 51  1  0
 52 49  1  0
 54 57  1  0
 54 53  1  0
 54 55  1  0
 56 55  1  0
 58 57  1  0
 59 70  2  0
 60 58  1  0
 60 65  1  0
 61 69  1  0
 61 71  1  0
 62 68  1  0
 62 64  1  0
 63 69  1  0
 64 65  2  0
 64 63  1  0
 66 60  2  0
 67 66  1  0
 67 62  2  0
 68 61  1  0
 69 59  1  0
 71 73  2  0
 72 71  1  0
 74 72  1  0
 75 84  2  0
 75 80  1  0
 76 72  1  0
 76 80  1  0
 77 76  1  0
 78 79  1  0
 78 77  1  0
 79 75  1  0
 80 81  2  0
 81 82  1  0
 83 82  2  0
 84 83  1  0
 85 59  1  0
 85 86  1  0
 85 95  1  0
 86 89  1  0
 87 91  1  0
 87 86  1  0
 88 87  2  0
 91 90  1  0
 93 91  1  0
 93 94  1  0
 93 92  1  0
 95 98  1  1
 95 96  1  0
 97 95  1  0
M  ISO  4  11 100  19 100  57 101  58 101
M  END
>  <TORSDO>  (12) 
F 23

>  <SCORE>  (12) 
-12.713

>  <name>  (12) 
11

>  <ligand_id>  (12) 
11

>  <original_smiles>  (12) 
[H]OC([H])(C([H])([H])Oc1c([H])c([H])c2c(c1[H])C([H])([H])N(C(=O)C([H])(N([H])C(=O)C([H])(N([H])C([H])([H])[H])C([H])([H])[H])C(C([H])([H])[H])(C([H])([H])[H])C([H])([H])[H])C([H])(C(=O)N([H])C1([H])c3c([H])c([H])c([H])c([H])c3C([H])([H])C([H])([H])C1([H])[H])C2([H])[H])C([H])([H])C([H])(N([H])c1n(C([H])([H])[H])c([H])c(N([H])C(=O)N2C([H])([H])C([H])([H])C([H])([H])C([H])(n3nc(-c4c([H])c([H])c(Oc5c([H])c([H])c(F)c([H])c5F)c([H])c4[H])c(C(=O)N([H])[H])c3N([H])[H])C2([H])[H])[n+]1[H])C([H])([H])C([H])(C([H])([H])[H])C([H])([H])[H]

>  <smiles>  (12) 
[H]OC([H])(C([H])([H])Oc1c([H])c([H])c2c(c1[H])C([H])([H])N(C(=O)C([H])(N([H])C(=O)C([H])(N([H])C([H])([H])[H])C([H])([H])[H])C(C([H])([H])[H])(C([H])([H])[H])C([H])([H])[H])C([H])(C(=O)N([H])C1([H])c3c([H])c([H])c([H])c([H])c3C([H])([H])C([H])([H])C1([H])[H])C2([H])[H])C([H])([H])C([H])(N([H])c1n(C([H])([H])[H])c([H])c(N([H])C(=O)N2C([H])([H])C([H])([H])C([H])([H])C([H])(n3nc(-c4c([H])c([H])c(Oc5c([H])c([H])c(F)c([H])c5F)c([H])c4[H])c(C(=O)N([H])[H])c3N([H])[H])C2([H])[H])[n+]1[H])C([H])([H])C([H])(C([H])([H])[H])C([H])([H])[H]

$$$$
12:0:0
     RDKit          3D

100108  0  0  1  0  0  0  0  0999 V2000
  -29.5410  -18.2830   20.6320 C   0  0  0  0  0  3  0  0  0  0  0  0
  -30.5400  -17.2810   20.7150 C   0  0  0  0  0  0  0  0  0  0  0  0
  -29.9280  -19.6390   20.5960 C   0  0  0  0  0  0  0  0  0  0  0  0
  -32.0770  -18.9760   20.7860 C   0  0  0  0  0  0  0  0  0  0  0  0
  -31.8230  -17.6680   20.8130 N   0  0  0  0  0  0  0  0  0  0  0  0
  -31.2180  -19.9920   20.6790 N   0  0  0  0  0  0  0  0  0  0  0  0
  -28.9530  -20.6510   20.4780 N   0  0  0  0  0  0  0  0  0  0  0  0
  -27.9870  -20.3420   20.4450 H   0  0  0  0  0  0  0  0  0  0  0  0
  -30.9300  -14.8190   20.4860 C   0  0  0  0  0  0  0  0  0  0  0  0
  -30.7820  -12.4650   19.7550 C   0  0  0  0  0  2  0  0  0  0  0  0
  -29.9120  -12.3870   18.4850 C   0  0  0  0  0  2  0  0  0  0  0  0
  -28.4210  -12.2470   18.8510 C   0  0  0  0  0  2  0  0  0  0  0  0
  -27.9660  -13.2850   19.9140 C   0  0  0  0  0  3  0  0  0  0  0  0
  -28.9620  -13.3480   21.0950 C   0  0  0  0  0  2  0  0  0  0  0  0
  -30.3010  -13.6100   20.5450 N   0  0  0  0  0  0  0  0  0  0  0  0
  -32.0850  -14.9290   20.0590 O   0  0  0  0  0  0  0  0  0  0  0  0
  -30.1540  -15.9010   20.7320 N   0  0  0  0  0  0  0  0  0  0  0  0
  -29.1800  -15.7070   20.8870 H   0  0  0  0  0  0  0  0  0  0  0  0
  -25.5700  -13.9270   20.5920 C   0  0  0  0  0  0  0  0  0  0  0  0
  -24.4840  -13.1700   20.9400 C   0  0  0  0  0  0  0  0  0  0  0  0
  -24.9210  -11.8100   20.8990 C   0  0  0  0  0  0  0  0  0  0  0  0
  -26.6030  -13.0290   20.3670 N   0  0  0  0  0  0  0  0  0  0  0  0
  -26.2160  -11.7510   20.6100 N   0  0  0  0  0  0  0  0  0  0  0  0
  -24.1680  -10.5590   21.0590 C   0  0  0  0  0  0  0  0  0  0  0  0
  -24.5400   -9.5930   22.0190 C   0  0  0  0  0  3  0  0  0  0  0  0
  -23.7890   -8.4070   22.1690 C   0  0  0  0  0  3  0  0  0  0  0  0
  -22.6520   -8.1780   21.3590 C   0  0  0  0  0  0  0  0  0  0  0  0
  -22.2990   -9.1330   20.3880 C   0  0  0  0  0  3  0  0  0  0  0  0
  -23.0500  -10.3110   20.2370 C   0  0  0  0  0  3  0  0  0  0  0  0
  -21.8770   -7.0470   21.4170 O   0  0  0  0  0  0  0  0  0  0  0  0
  -21.7100   -6.3470   22.5850 C   0  0  0  0  0  0  0  0  0  0  0  0
  -21.1680   -6.9480   23.7410 C   0  0  0  0  0  3  0  0  0  0  0  0
  -20.9490   -6.1760   24.9000 C   0  0  0  0  0  3  0  0  0  0  0  0
  -21.2600   -4.8020   24.9010 C   0  0  0  0  0  0  0  0  0  0  0  0
  -21.7930   -4.2010   23.7470 C   0  0  0  0  0  3  0  0  0  0  0  0
  -22.0130   -4.9710   22.5920 C   0  0  0  0  0  0  0  0  0  0  0  0
  -22.5060   -4.3820   21.4760 F   0  0  0  0  0  0  0  0  0  0  0  0
  -21.0410   -4.0580   26.0080 F   0  0  0  0  0  0  0  0  0  0  0  0
  -23.0910  -13.6700   21.1960 C   0  0  0  0  0  0  0  0  0  0  0  0
  -22.3420  -12.9870   22.0540 N   0  0  0  0  0  0  0  0  0  0  0  0
  -22.6750  -14.7010   20.6700 O   0  0  0  0  0  0  0  0  0  0  0  0
  -22.6890  -12.1530   22.5050 H   0  0  0  0  0  0  0  0  0  0  0  0
  -21.4050  -13.3030   22.2660 H   0  0  0  0  0  0  0  0  0  0  0  0
  -25.7630  -15.2950   20.4280 N   0  0  0  0  0  0  0  0  0  0  0  0
  -25.0010  -15.9590   20.5120 H   0  0  0  0  0  0  0  0  0  0  0  0
  -26.6090  -15.7100   20.0630 H   0  0  0  0  0  0  0  0  0  0  0  0
  -33.4960  -19.3260   20.9060 C   0  0  0  0  0  0  0  0  0  0  0  0
  -34.4080  -18.3800   20.6650 N   0  0  0  0  0  4  0  0  0  0  0  0
  -33.8450  -20.5630   21.2560 N   0  0  0  0  0  0  0  0  0  0  0  0
  -33.9720  -17.4900   20.4560 H   0  0  0  0  0  0  0  0  0  0  0  0
  -35.4040  -18.4730   20.7390 H   0  0  0  0  0  0  0  0  0  0  0  0
  -33.0510  -21.1760   21.3790 H   0  0  0  0  0  0  0  0  0  0  0  0
  -34.7890  -20.8860   21.3800 H   0  0  0  0  0  0  0  0  0  0  0  0
  -29.6400  -22.3120   18.7630 C   0  0  0  0  0  1  0  0  0  0  0  0
  -29.1820  -22.0870   20.2150 C   0  0  0  0  0  3  0  0  0  0  0  0
  -26.6660  -22.5150   19.7340 C   0  0  0  0  0  1  0  0  0  0  0  0
  -27.8970  -22.9260   20.5670 C   0  0  0  0  0  3  0  0  0  0  0  0
  -28.0240  -24.4930   20.7220 C   0  0  0  0  0  2  0  0  0  0  0  0
  -27.8150  -25.4310   19.4840 C   0  0  0  0  0  2  0  0  0  0  0  0
  -27.8380  -26.8540   19.7970 O   0  0  0  0  0  0  0  0  0  0  0  0
  -24.5610  -32.0920   23.3850 C   0  0  0  0  0  0  0  0  0  0  0  0
  -26.6850  -27.6300   19.9010 C   0  0  0  0  0  0  0  0  0  0  0  0
  -23.1490  -30.8480   21.7820 C   0  0  0  0  0  3  0  0  0  0  0  0
  -24.3900  -29.3010   20.1720 C   0  0  0  0  0  0  0  0  0  0  0  0
  -25.6710  -31.0610   21.4000 C   0  0  0  0  0  2  0  0  0  0  0  0
  -25.6220  -29.7190   20.6890 C   0  0  0  0  0  0  0  0  0  0  0  0
  -26.7650  -28.8920   20.5480 C   0  0  0  0  0  3  0  0  0  0  0  0
  -25.4250  -27.2380   19.3860 C   0  0  0  0  0  3  0  0  0  0  0  0
  -24.2910  -28.0620   19.5170 C   0  0  0  0  0  3  0  0  0  0  0  0
  -23.2080  -30.2280   20.3580 C   0  0  0  0  0  2  0  0  0  0  0  0
  -24.4840  -31.3460   22.2470 N   0  0  0  0  0  0  0  0  0  0  0  0
  -23.5430  -32.3950   24.0240 O   0  0  0  0  0  0  0  0  0  0  0  0
  -22.5130  -29.8190   22.7450 C   0  0  0  0  0  0  0  0  0  0  0  0
  -21.1880  -29.6270   22.6290 N   0  0  0  0  0  0  0  0  0  0  0  0
  -23.2100  -29.1930   23.5480 O   0  0  0  0  0  0  0  0  0  0  0  0
  -20.6880  -30.1850   21.9510 H   0  0  0  0  0  0  0  0  0  0  0  0
  -17.8590  -28.2750   23.0400 C   0  0  0  0  0  0  0  0  0  0  0  0
  -20.3880  -28.6760   23.4020 C   0  0  0  0  0  3  0  0  0  0  0  0
  -20.5850  -27.2310   22.8860 C   0  0  0  0  0  2  0  0  0  0  0  0
  -19.5440  -26.8150   21.8430 C   0  0  0  0  0  2  0  0  0  0  0  0
  -18.1320  -26.9130   22.4250 C   0  0  0  0  0  2  0  0  0  0  0  0
  -18.9200  -29.1090   23.4840 C   0  0  0  0  0  0  0  0  0  0  0  0
  -18.6140  -30.3800   24.0180 C   0  0  0  0  0  3  0  0  0  0  0  0
  -17.2790  -30.8180   24.1150 C   0  0  0  0  0  3  0  0  0  0  0  0
  -16.2330  -29.9840   23.6860 C   0  0  0  0  0  3  0  0  0  0  0  0
  -16.5240  -28.7130   23.1550 C   0  0  0  0  0  3  0  0  0  0  0  0
  -25.9270  -32.6190   23.9290 C   0  0  0  0  0  3  0  0  0  0  0  0
  -25.7320  -34.0190   24.3310 N   0  0  0  0  0  0  0  0  0  0  0  0
  -26.0930  -35.0790   23.5950 C   0  0  0  0  0  0  0  0  0  0  0  0
  -26.6950  -34.9750   22.5230 O   0  0  0  0  0  0  0  0  0  0  0  0
  -25.1970  -34.1780   25.1710 H   0  0  0  0  0  0  0  0  0  0  0  0
  -24.4770  -36.9980   23.4120 C   0  0  0  0  0  1  0  0  0  0  0  0
  -25.7290  -36.4750   24.1340 C   0  0  0  0  0  3  0  0  0  0  0  0
  -27.9620  -37.1790   24.8770 C   0  0  0  0  0  1  0  0  0  0  0  0
  -26.8260  -37.4600   24.0030 N   0  0  0  0  0  0  0  0  0  0  0  0
  -26.4930  -38.3990   24.2060 H   0  0  0  0  0  0  0  0  0  0  0  0
  -26.4870  -31.7670   25.1340 C   0  0  1  0  0  0  0  0  0  0  0  0
  -25.4650  -31.5600   26.2740 C   0  0  0  0  0  1  0  0  0  0  0  0
  -26.9500  -30.3730   24.6520 C   0  0  0  0  0  1  0  0  0  0  0  0
  -27.7320  -32.4640   25.7320 C   0  0  0  0  0  1  0  0  0  0  0  0
  1  2  2  0
  2 17  1  0
  2  5  1  0
  3  1  1  0
  3  6  2  0
  4  5  2  0
  4 47  1  0
  6  4  1  0
  7  3  1  0
  8  7  1  0
  9 15  1  0
  9 17  1  0
 10 15  1  0
 11 12  1  0
 11 10  1  0
 13 12  1  0
 13 22  1  0
 13 14  1  0
 15 14  1  0
 16  9  2  0
 17 18  1  0
 19 20  2  0
 20 39  1  0
 21 20  1  0
 21 24  1  0
 22 19  1  0
 22 23  1  0
 23 21  2  0
 24 25  1  0
 25 26  2  0
 27 30  1  0
 27 26  1  0
 28 27  2  0
 29 28  1  0
 29 24  2  0
 30 31  1  0
 31 36  2  0
 31 32  1  0
 32 33  2  0
 33 34  1  0
 34 38  1  0
 35 34  2  0
 36 35  1  0
 37 36  1  0
 39 40  1  0
 40 43  1  0
 40 42  1  0
 41 39  2  0
 44 45  1  0
 44 19  1  0
 46 44  1  0
 47 49  1  0
 48 51  1  0
 48 47  2  0
 49 52  1  0
 49 53  1  0
 50 48  1  0
 55 54  1  0
 55  7  1  0
 55 57  1  0
 57 56  1  0
 57 58  1  0
 59 60  1  0
 59 58  1  0
 60 62  1  0
 61 72  2  0
 62 67  1  0
 63 71  1  0
 63 73  1  0
 64 70  1  0
 64 66  1  0
 65 71  1  0
 66 65  1  0
 67 66  2  0
 68 69  1  0
 68 62  2  0
 69 64  2  0
 70 63  1  0
 71 61  1  0
 73 75  2  0
 74 73  1  0
 76 74  1  0
 77 86  2  0
 77 82  1  0
 78 74  1  0
 78 82  1  0
 79 78  1  0
 80 81  1  0
 80 79  1  0
 81 77  1  0
 82 83  2  0
 83 84  1  0
 85 84  2  0
 86 85  1  0
 87 61  1  0
 87 88  1  0
 87 97  1  0
 88 91  1  0
 89 93  1  0
 89 88  1  0
 90 89  2  0
 93 92  1  0
 95 93  1  0
 95 96  1  0
 95 94  1  0
 97100  1  1
 97 98  1  0
 99 97  1  0
M  ISO  4   9 100  17 100  59 101  60 101
M  END
>  <TORSDO>  (13) 
F 21

>  <SCORE>  (13) 
-12.777

>  <name>  (13) 
12

>  <ligand_id>  (13) 
12

>  <original_smiles>  (13) 
[H]c1c(N([H])C(=O)N2C([H])([H])C([H])([H])C([H])([H])C([H])(n3nc(-c4c([H])c([H])c(Oc5c([H])c([H])c(F)c([H])c5F)c([H])c4[H])c(C(=O)N([H])[H])c3N([H])[H])C2([H])[H])nc(C(N([H])[H])=[N+]([H])[H])nc1N([H])C([H])(C([H])([H])[H])C([H])(C([H])([H])[H])C([H])([H])C([H])([H])Oc1c([H])c([H])c2c(c1[H])C([H])([H])N(C(=O)C([H])(N([H])C(=O)C([H])(N([H])C([H])([H])[H])C([H])([H])[H])C(C([H])([H])[H])(C([H])([H])[H])C([H])([H])[H])C([H])(C(=O)N([H])C1([H])c3c([H])c([H])c([H])c([H])c3C([H])([H])C([H])([H])C1([H])[H])C2([H])[H]

>  <smiles>  (13) 
[H]c1c(N([H])C(=O)N2C([H])([H])C([H])([H])C([H])([H])C([H])(n3nc(-c4c([H])c([H])c(Oc5c([H])c([H])c(F)c([H])c5F)c([H])c4[H])c(C(=O)N([H])[H])c3N([H])[H])C2([H])[H])nc(C(N([H])[H])=[N+]([H])[H])nc1N([H])C([H])(C([H])([H])[H])C([H])(C([H])([H])[H])C([H])([H])C([H])([H])Oc1c([H])c([H])c2c(c1[H])C([H])([H])N(C(=O)C([H])(N([H])C(=O)C([H])(N([H])C([H])([H])[H])C([H])([H])[H])C(C([H])([H])[H])(C([H])([H])[H])C([H])([H])[H])C([H])(C(=O)N([H])C1([H])c3c([H])c([H])c([H])c([H])c3C([H])([H])C([H])([H])C1([H])[H])C2([H])[H]

$$$$
13:0:0
     RDKit          3D

 94102  0  0  1  0  0  0  0  0999 V2000
  -29.3050  -23.9060   19.7120 C   0  0  0  0  0  3  0  0  0  0  0  0
  -28.4860  -18.7030   20.5450 C   0  0  0  0  0  3  0  0  0  0  0  0
  -29.7250  -18.8720   19.9820 C   0  0  0  0  0  0  0  0  0  0  0  0
  -28.9430  -21.1180   20.0870 C   0  0  0  0  0  0  0  0  0  0  0  0
  -29.9670  -20.2810   19.7270 N   0  0  0  0  0  0  0  0  0  0  0  0
  -28.7370  -22.5410   20.0190 N   0  0  0  0  0  0  0  0  0  0  0  0
  -27.6090  -20.1980   20.7730 S   0  0  0  0  0  0  0  0  0  0  0  0
  -27.8070  -22.6980   20.3900 H   0  0  0  0  0  0  0  0  0  0  0  0
  -30.7100  -17.6850   19.6690 C   0  0  0  0  0  3  0  0  0  0  0  0
  -30.4200  -16.2380   20.3230 C   0  0  0  0  0  3  0  0  0  0  0  0
  -31.2100  -14.9440   19.8220 C   0  0  0  0  0  0  0  0  0  0  0  0
  -31.0340  -12.6350   18.8710 C   0  0  0  0  0  2  0  0  0  0  0  0
  -30.0080  -12.6460   17.7150 C   0  0  0  0  0  2  0  0  0  0  0  0
  -28.5740  -12.4480   18.2460 C   0  0  0  0  0  2  0  0  0  0  0  0
  -28.2580  -13.3610   19.4590 C   0  0  0  0  0  3  0  0  0  0  0  0
  -29.3910  -13.3260   20.5070 C   0  0  0  0  0  2  0  0  0  0  0  0
  -30.6420  -13.6910   19.8310 N   0  0  0  0  0  0  0  0  0  0  0  0
  -32.3270  -15.1010   19.3190 O   0  0  0  0  0  0  0  0  0  0  0  0
  -25.9440  -13.9220   20.4250 C   0  0  0  0  0  0  0  0  0  0  0  0
  -24.9080  -13.1320   20.8430 C   0  0  0  0  0  0  0  0  0  0  0  0
  -25.3550  -11.7840   20.6940 C   0  0  0  0  0  0  0  0  0  0  0  0
  -26.9560  -13.0540   20.0470 N   0  0  0  0  0  0  0  0  0  0  0  0
  -26.6130  -11.7590   20.2690 N   0  0  0  0  0  0  0  0  0  0  0  0
  -24.6380  -10.5150   20.8750 C   0  0  0  0  0  0  0  0  0  0  0  0
  -25.0040   -9.5960   21.8830 C   0  0  0  0  0  3  0  0  0  0  0  0
  -24.2880   -8.3910   22.0480 C   0  0  0  0  0  3  0  0  0  0  0  0
  -23.1890   -8.0980   21.2050 C   0  0  0  0  0  0  0  0  0  0  0  0
  -22.8450   -9.0040   20.1870 C   0  0  0  0  0  3  0  0  0  0  0  0
  -23.5630  -10.2000   20.0210 C   0  0  0  0  0  3  0  0  0  0  0  0
  -22.4500   -6.9410   21.2770 O   0  0  0  0  0  0  0  0  0  0  0  0
  -22.1470   -6.3540   22.4790 C   0  0  0  0  0  0  0  0  0  0  0  0
  -21.4110   -7.0310   23.4740 C   0  0  0  0  0  3  0  0  0  0  0  0
  -21.0620   -6.3660   24.6670 C   0  0  0  0  0  3  0  0  0  0  0  0
  -21.4390   -5.0240   24.8620 C   0  0  0  0  0  0  0  0  0  0  0  0
  -22.1670   -4.3460   23.8680 C   0  0  0  0  0  3  0  0  0  0  0  0
  -22.5170   -5.0080   22.6790 C   0  0  0  0  0  0  0  0  0  0  0  0
  -23.2010   -4.3440   21.7170 F   0  0  0  0  0  0  0  0  0  0  0  0
  -21.0960   -4.3820   26.0030 F   0  0  0  0  0  0  0  0  0  0  0  0
  -23.5450  -13.5980   21.2640 C   0  0  0  0  0  0  0  0  0  0  0  0
  -22.9020  -12.8710   22.1730 N   0  0  0  0  0  0  0  0  0  0  0  0
  -23.0600  -14.6390   20.8220 O   0  0  0  0  0  0  0  0  0  0  0  0
  -23.3110  -12.0290   22.5510 H   0  0  0  0  0  0  0  0  0  0  0  0
  -21.9910  -13.1630   22.4950 H   0  0  0  0  0  0  0  0  0  0  0  0
  -26.1060  -15.3000   20.3120 N   0  0  0  0  0  0  0  0  0  0  0  0
  -25.3590  -15.9520   20.5240 H   0  0  0  0  0  0  0  0  0  0  0  0
  -26.9230  -15.7510   19.9210 H   0  0  0  0  0  0  0  0  0  0  0  0
  -30.7590  -23.7200   21.8300 C   0  0  0  0  0  1  0  0  0  0  0  0
  -30.7170  -24.0730   20.3280 C   0  0  0  0  0  3  0  0  0  0  0  0
  -31.7870  -23.2830   19.5360 C   0  0  0  0  0  2  0  0  0  0  0  0
  -33.2040  -25.1990   18.6080 C   0  0  0  0  0  1  0  0  0  0  0  0
  -34.2350  -22.9340   19.0070 C   0  0  0  0  0  1  0  0  0  0  0  0
  -33.1830  -23.9400   19.4930 C   0  0  0  0  0  3  0  0  0  0  0  0
  -28.3270  -25.1260   20.1390 C   0  0  0  0  0  2  0  0  0  0  0  0
  -28.6520  -26.5800   19.9550 O   0  0  0  0  0  0  0  0  0  0  0  0
  -25.0330  -31.8000   23.4600 C   0  0  0  0  0  0  0  0  0  0  0  0
  -27.5770  -27.4970   19.9870 C   0  0  0  0  0  0  0  0  0  0  0  0
  -23.8220  -30.6110   21.6690 C   0  0  0  0  0  3  0  0  0  0  0  0
  -25.2580  -29.1840   20.1080 C   0  0  0  0  0  0  0  0  0  0  0  0
  -26.3720  -30.8790   21.5520 C   0  0  0  0  0  2  0  0  0  0  0  0
  -26.4310  -29.5720   20.7670 C   0  0  0  0  0  0  0  0  0  0  0  0
  -27.5960  -28.7420   20.6970 C   0  0  0  0  0  3  0  0  0  0  0  0
  -26.3880  -27.1880   19.2870 C   0  0  0  0  0  3  0  0  0  0  0  0
  -25.2420  -28.0010   19.3560 C   0  0  0  0  0  3  0  0  0  0  0  0
  -24.0410  -30.0790   20.2300 C   0  0  0  0  0  2  0  0  0  0  0  0
  -25.0950  -31.1080   22.2850 N   0  0  0  0  0  0  0  0  0  0  0  0
  -23.9490  -32.0470   24.0090 O   0  0  0  0  0  0  0  0  0  0  0  0
  -23.1200  -29.5170   22.5090 C   0  0  0  0  0  0  0  0  0  0  0  0
  -21.7970  -29.3660   22.3280 N   0  0  0  0  0  0  0  0  0  0  0  0
  -23.7670  -28.8110   23.2860 O   0  0  0  0  0  0  0  0  0  0  0  0
  -21.3330  -29.9890   21.6830 H   0  0  0  0  0  0  0  0  0  0  0  0
  -18.4010  -28.1490   22.6030 C   0  0  0  0  0  0  0  0  0  0  0  0
  -20.9480  -28.3710   22.9860 C   0  0  0  0  0  3  0  0  0  0  0  0
  -21.0670  -26.9920   22.2950 C   0  0  0  0  0  2  0  0  0  0  0  0
  -20.0020  -26.7640   21.2160 C   0  0  0  0  0  2  0  0  0  0  0  0
  -18.5990  -26.8610   21.8210 C   0  0  0  0  0  2  0  0  0  0  0  0
  -19.5050  -28.8650   23.1380 C   0  0  0  0  0  0  0  0  0  0  0  0
  -19.2670  -30.0720   23.8290 C   0  0  0  0  0  3  0  0  0  0  0  0
  -17.9580  -30.5650   23.9880 C   0  0  0  0  0  3  0  0  0  0  0  0
  -16.8680  -29.8450   23.4690 C   0  0  0  0  0  3  0  0  0  0  0  0
  -17.0900  -28.6360   22.7830 C   0  0  0  0  0  3  0  0  0  0  0  0
  -26.3200  -32.3340   24.1610 C   0  0  0  0  0  3  0  0  0  0  0  0
  -26.0520  -33.7140   24.5910 N   0  0  0  0  0  0  0  0  0  0  0  0
  -26.4350  -34.8090   23.9220 C   0  0  0  0  0  0  0  0  0  0  0  0
  -27.1210  -34.7610   22.8970 O   0  0  0  0  0  0  0  0  0  0  0  0
  -25.4450  -33.8280   25.3900 H   0  0  0  0  0  0  0  0  0  0  0  0
  -24.7760  -36.6860   23.6800 C   0  0  0  0  0  1  0  0  0  0  0  0
  -25.9880  -36.1760   24.4760 C   0  0  0  0  0  3  0  0  0  0  0  0
  -28.1320  -36.9240   25.4120 C   0  0  0  0  0  1  0  0  0  0  0  0
  -27.0580  -37.1970   24.4600 N   0  0  0  0  0  0  0  0  0  0  0  0
  -26.6800  -38.1180   24.6650 H   0  0  0  0  0  0  0  0  0  0  0  0
  -26.7740  -31.4480   25.3850 C   0  0  1  0  0  0  0  0  0  0  0  0
  -25.6430  -31.1670   26.4030 C   0  0  0  0  0  1  0  0  0  0  0  0
  -27.3220  -30.0850   24.9050 C   0  0  0  0  0  1  0  0  0  0  0  0
  -27.9320  -32.1480   26.1370 C   0  0  0  0  0  1  0  0  0  0  0  0
  1  6  1  0
  1 53  1  0
  1 48  1  0
  2  7  1  0
  3  2  2  0
  4  7  1  0
  5  3  1  0
  5  4  2  0
  6  4  1  0
  6  8  1  0
  9  3  1  0
  9 10  2  0
 11 17  1  0
 11 10  1  0
 12 17  1  0
 13 14  1  0
 13 12  1  0
 15 14  1  0
 15 22  1  0
 15 16  1  0
 17 16  1  0
 18 11  2  0
 19 20  2  0
 20 39  1  0
 21 20  1  0
 21 24  1  0
 22 23  1  0
 22 19  1  0
 23 21  2  0
 24 25  1  0
 25 26  2  0
 27 30  1  0
 27 26  1  0
 28 27  2  0
 29 28  1  0
 29 24  2  0
 30 31  1  0
 31 36  2  0
 31 32  1  0
 32 33  2  0
 33 34  1  0
 34 38  1  0
 35 34  2  0
 36 35  1  0
 37 36  1  0
 39 40  1  0
 40 43  1  0
 40 42  1  0
 41 39  2  0
 44 19  1  0
 44 45  1  0
 46 44  1  0
 48 47  1  0
 49 48  1  0
 50 52  1  0
 51 52  1  0
 52 49  1  0
 54 56  1  0
 54 53  1  0
 55 66  2  0
 56 61  1  0
 57 65  1  0
 57 67  1  0
 58 64  1  0
 58 60  1  0
 59 65  1  0
 60 59  1  0
 61 60  2  0
 62 63  1  0
 62 56  2  0
 63 58  2  0
 64 57  1  0
 65 55  1  0
 67 69  2  0
 68 67  1  0
 70 68  1  0
 71 80  2  0
 71 76  1  0
 72 68  1  0
 72 76  1  0
 73 72  1  0
 74 75  1  0
 74 73  1  0
 75 71  1  0
 76 77  2  0
 77 78  1  0
 79 78  2  0
 80 79  1  0
 81 55  1  0
 81 82  1  0
 81 91  1  0
 82 85  1  0
 83 87  1  0
 83 82  1  0
 84 83  2  0
 87 86  1  0
 89 87  1  0
 89 90  1  0
 89 88  1  0
 91 94  1  1
 91 92  1  0
 93 91  1  0
M  ISO  4  10 100  11 100  53 101  54 101
M  END
>  <TORSDO>  (14) 
F 23

>  <SCORE>  (14) 
-10.098

>  <name>  (14) 
13

>  <ligand_id>  (14) 
13

>  <original_smiles>  (14) 
[H]c1sc(N([H])C([H])(C([H])([H])Oc2c([H])c([H])c3c(c2[H])C([H])([H])N(C(=O)C([H])(N([H])C(=O)C([H])(N([H])C([H])([H])[H])C([H])([H])[H])C(C([H])([H])[H])(C([H])([H])[H])C([H])([H])[H])C([H])(C(=O)N([H])C2([H])c4c([H])c([H])c([H])c([H])c4C([H])([H])C([H])([H])C2([H])[H])C3([H])[H])C([H])(C([H])([H])[H])C([H])([H])C([H])(C([H])([H])[H])C([H])([H])[H])nc1C([H])([H])C([H])([H])C(=O)N1C([H])([H])C([H])([H])C([H])([H])C([H])(n2nc(-c3c([H])c([H])c(Oc4c([H])c([H])c(F)c([H])c4F)c([H])c3[H])c(C(=O)N([H])[H])c2N([H])[H])C1([H])[H]

>  <smiles>  (14) 
[H]c1sc(N([H])C([H])(C([H])([H])Oc2c([H])c([H])c3c(c2[H])C([H])([H])N(C(=O)C([H])(N([H])C(=O)C([H])(N([H])C([H])([H])[H])C([H])([H])[H])C(C([H])([H])[H])(C([H])([H])[H])C([H])([H])[H])C([H])(C(=O)N([H])C2([H])c4c([H])c([H])c([H])c([H])c4C([H])([H])C([H])([H])C2([H])[H])C3([H])[H])C([H])(C([H])([H])[H])C([H])([H])C([H])(C([H])([H])[H])C([H])([H])[H])nc1C([H])([H])C([H])([H])C(=O)N1C([H])([H])C([H])([H])C([H])([H])C([H])(n2nc(-c3c([H])c([H])c(Oc4c([H])c([H])c(F)c([H])c4F)c([H])c3[H])c(C(=O)N([H])[H])c2N([H])[H])C1([H])[H]

$$$$
14:0:0
     RDKit          3D

 99107  0  0  1  0  0  0  0  0999 V2000
  -35.8520  -18.1010   14.5680 C   0  0  0  0  0  3  0  0  0  0  0  0
  -35.4540  -18.3040   15.8730 C   0  0  0  0  0  0  0  0  0  0  0  0
  -33.9270  -19.6890   14.6320 C   0  0  0  0  0  0  0  0  0  0  0  0
  -34.3420  -19.2340   15.8600 N   0  0  0  0  0  0  0  0  0  0  0  0
  -32.8310  -20.5850   14.3400 N   0  0  0  0  0  0  0  0  0  0  0  0
  -34.9680  -19.0440   13.3730 S   0  0  0  0  0  0  0  0  0  0  0  0
  -32.2830  -20.6650   15.1870 H   0  0  0  0  0  0  0  0  0  0  0  0
  -36.0900  -17.5410   17.1430 C   0  0  0  0  0  3  0  0  0  0  0  0
  -33.8860  -16.2050   18.0090 C   0  0  0  0  0  0  0  0  0  0  0  0
  -32.5170  -14.2870   17.1760 C   0  0  0  0  0  2  0  0  0  0  0  0
  -33.3750  -13.2320   16.4510 C   0  0  0  0  0  2  0  0  0  0  0  0
  -33.5280  -13.5940   14.9620 C   0  0  0  0  0  2  0  0  0  0  0  0
  -33.8850  -15.0860   14.7370 C   0  0  0  0  0  3  0  0  0  0  0  0
  -33.0340  -16.0360   15.5980 C   0  0  0  0  0  2  0  0  0  0  0  0
  -33.1970  -15.5950   16.9850 N   0  0  0  0  0  0  0  0  0  0  0  0
  -33.4460  -16.0140   19.1500 O   0  0  0  0  0  0  0  0  0  0  0  0
  -36.0810  -15.9680   19.0430 C   0  0  0  0  0  1  0  0  0  0  0  0
  -35.2720  -16.4830   17.9140 N   0  0  0  0  0  0  0  0  0  0  0  0
  -34.7800  -15.1430   12.3420 C   0  0  0  0  0  0  0  0  0  0  0  0
  -34.2580  -15.6300   11.1740 C   0  0  0  0  0  0  0  0  0  0  0  0
  -33.0050  -16.2230   11.5190 C   0  0  0  0  0  0  0  0  0  0  0  0
  -33.8590  -15.4510   13.3270 N   0  0  0  0  0  0  0  0  0  0  0  0
  -32.8100  -16.1580   12.8330 N   0  0  0  0  0  0  0  0  0  0  0  0
  -31.9490  -16.7840   10.6670 C   0  0  0  0  0  0  0  0  0  0  0  0
  -32.2250  -17.7960    9.7210 C   0  0  0  0  0  3  0  0  0  0  0  0
  -31.1990  -18.3020    8.8940 C   0  0  0  0  0  3  0  0  0  0  0  0
  -29.8810  -17.8000    9.0090 C   0  0  0  0  0  0  0  0  0  0  0  0
  -29.6060  -16.8120    9.9690 C   0  0  0  0  0  3  0  0  0  0  0  0
  -30.6280  -16.3110   10.7940 C   0  0  0  0  0  3  0  0  0  0  0  0
  -28.8170  -18.2480    8.2640 O   0  0  0  0  0  0  0  0  0  0  0  0
  -28.3250  -17.5290    7.2040 C   0  0  0  0  0  0  0  0  0  0  0  0
  -27.2020  -16.6850    7.3350 C   0  0  0  0  0  3  0  0  0  0  0  0
  -26.6870  -16.0190    6.2040 C   0  0  0  0  0  3  0  0  0  0  0  0
  -27.2870  -16.2000    4.9460 C   0  0  0  0  0  0  0  0  0  0  0  0
  -28.4030  -17.0440    4.8120 C   0  0  0  0  0  3  0  0  0  0  0  0
  -28.9190  -17.7090    5.9380 C   0  0  0  0  0  0  0  0  0  0  0  0
  -29.9800  -18.5390    5.8020 F   0  0  0  0  0  0  0  0  0  0  0  0
  -26.7870  -15.5680    3.8560 F   0  0  0  0  0  0  0  0  0  0  0  0
  -34.8310  -15.4580    9.7970 C   0  0  0  0  0  0  0  0  0  0  0  0
  -35.8120  -16.2790    9.4410 N   0  0  0  0  0  0  0  0  0  0  0  0
  -34.4450  -14.5580    9.0540 O   0  0  0  0  0  0  0  0  0  0  0  0
  -36.1360  -17.0020   10.0650 H   0  0  0  0  0  0  0  0  0  0  0  0
  -36.2390  -16.1960    8.5300 H   0  0  0  0  0  0  0  0  0  0  0  0
  -35.9400  -14.4350   12.6450 N   0  0  0  0  0  0  0  0  0  0  0  0
  -36.5650  -14.1030   11.9200 H   0  0  0  0  0  0  0  0  0  0  0  0
  -36.0970  -13.9750   13.5330 H   0  0  0  0  0  0  0  0  0  0  0  0
  -37.5690  -17.0970   16.9310 C   0  0  0  0  0  2  0  0  0  0  0  0
  -38.7110  -16.1780   14.9440 C   0  0  0  0  0  0  0  0  0  0  0  0
  -38.9680  -15.0340   13.9640 C   0  0  0  0  0  1  0  0  0  0  0  0
  -36.9190  -14.8460   15.9750 C   0  0  0  0  0  1  0  0  0  0  0  0
  -37.8170  -16.0100   15.9520 N   0  0  0  0  0  0  0  0  0  0  0  0
  -39.3520  -17.2200   14.7830 O   0  0  0  0  0  0  0  0  0  0  0  0
  -32.5120  -21.7890   13.4590 C   0  0  0  0  0  3  0  0  0  0  0  0
  -31.0490  -21.6980   12.9660 C   0  0  0  0  0  2  0  0  0  0  0  0
  -31.0880  -21.5910   10.3750 C   0  0  0  0  0  1  0  0  0  0  0  0
  -29.4920  -20.1180   11.7030 C   0  0  0  0  0  1  0  0  0  0  0  0
  -30.8500  -20.8260   11.6920 C   0  0  0  0  0  3  0  0  0  0  0  0
  -32.9500  -23.2960   13.9050 C   0  0  0  0  0  2  0  0  0  0  0  0
  -32.3010  -24.5550   13.3360 O   0  0  0  0  0  0  0  0  0  0  0  0
  -34.0160  -31.6350   12.7680 C   0  0  0  0  0  0  0  0  0  0  0  0
  -33.1270  -25.5770   12.7850 C   0  0  0  0  0  0  0  0  0  0  0  0
  -34.7370  -30.1400   10.9460 C   0  0  0  0  0  3  0  0  0  0  0  0
  -34.6390  -27.6260   11.4380 C   0  0  0  0  0  0  0  0  0  0  0  0
  -34.4920  -29.2300   13.3370 C   0  0  0  0  0  2  0  0  0  0  0  0
  -34.1800  -27.8560   12.7420 C   0  0  0  0  0  0  0  0  0  0  0  0
  -33.4390  -26.8290   13.4240 C   0  0  0  0  0  3  0  0  0  0  0  0
  -33.6710  -25.3900   11.4970 C   0  0  0  0  0  3  0  0  0  0  0  0
  -34.4000  -26.3880   10.8270 C   0  0  0  0  0  3  0  0  0  0  0  0
  -35.3830  -28.7470   10.7330 C   0  0  0  0  0  2  0  0  0  0  0  0
  -34.3730  -30.3730   12.3790 N   0  0  0  0  0  0  0  0  0  0  0  0
  -33.9970  -32.5800   11.9630 O   0  0  0  0  0  0  0  0  0  0  0  0
  -33.5400  -30.3000    9.9750 C   0  0  0  0  0  0  0  0  0  0  0  0
  -33.8200  -30.6240    8.7010 N   0  0  0  0  0  0  0  0  0  0  0  0
  -32.3880  -30.1110   10.3710 O   0  0  0  0  0  0  0  0  0  0  0  0
  -34.7850  -30.7800    8.4550 H   0  0  0  0  0  0  0  0  0  0  0  0
  -33.4540  -31.3230    5.1710 C   0  0  0  0  0  0  0  0  0  0  0  0
  -32.8420  -30.7780    7.6210 C   0  0  0  0  0  3  0  0  0  0  0  0
  -32.3720  -29.4030    7.0920 C   0  0  0  0  0  2  0  0  0  0  0  0
  -33.1880  -28.9120    5.8920 C   0  0  0  0  0  2  0  0  0  0  0  0
  -33.0980  -29.9110    4.7340 C   0  0  0  0  0  2  0  0  0  0  0  0
  -33.3490  -31.7240    6.5290 C   0  0  0  0  0  0  0  0  0  0  0  0
  -33.7250  -33.0380    6.8860 C   0  0  0  0  0  3  0  0  0  0  0  0
  -34.1960  -33.9420    5.9160 C   0  0  0  0  0  3  0  0  0  0  0  0
  -34.2850  -33.5430    4.5710 C   0  0  0  0  0  3  0  0  0  0  0  0
  -33.9130  -32.2390    4.2010 C   0  0  0  0  0  3  0  0  0  0  0  0
  -33.6260  -31.9530   14.2410 C   0  0  0  0  0  3  0  0  0  0  0  0
  -34.4440  -33.0950   14.6800 N   0  0  0  0  0  0  0  0  0  0  0  0
  -35.1200  -33.1530   15.8350 C   0  0  0  0  0  0  0  0  0  0  0  0
  -35.0640  -32.2610   16.6870 O   0  0  0  0  0  0  0  0  0  0  0  0
  -34.5790  -33.8330   14.0070 H   0  0  0  0  0  0  0  0  0  0  0  0
  -37.4420  -33.9640   16.3740 C   0  0  0  0  0  1  0  0  0  0  0  0
  -35.9940  -34.3980   16.0890 C   0  0  0  0  0  3  0  0  0  0  0  0
  -34.2460  -35.9190   16.9020 C   0  0  0  0  0  1  0  0  0  0  0  0
  -35.5050  -35.2460   17.2010 N   0  0  0  0  0  0  0  0  0  0  0  0
  -36.1930  -35.9550   17.4400 H   0  0  0  0  0  0  0  0  0  0  0  0
  -32.0890  -32.2730   14.4200 C   0  0  1  0  0  0  0  0  0  0  0  0
  -31.7050  -33.7210   14.0360 C   0  0  0  0  0  1  0  0  0  0  0  0
  -31.2250  -31.3130   13.5690 C   0  0  0  0  0  1  0  0  0  0  0  0
  -31.6820  -32.0550   15.8950 C   0  0  0  0  0  1  0  0  0  0  0  0
  1  2  2  0
  2  8  1  0
  3  4  2  0
  4  2  1  0
  5  3  1  0
  5  7  1  0
  6  1  1  0
  6  3  1  0
  8 47  1  0
  8 18  1  0
  9 16  2  0
 11 10  1  0
 12 11  1  0
 13 22  1  0
 13 12  1  0
 13 14  1  0
 14 15  1  0
 15 10  1  0
 15  9  1  0
 18  9  1  0
 18 17  1  0
 19 44  1  0
 19 22  1  0
 20 21  1  0
 20 19  2  0
 21 23  2  0
 23 22  1  0
 24 29  1  0
 24 21  1  0
 25 24  2  0
 26 27  2  0
 26 25  1  0
 27 28  1  0
 28 29  2  0
 30 27  1  0
 31 32  1  0
 31 30  1  0
 33 32  2  0
 34 33  1  0
 35 34  2  0
 35 36  1  0
 36 31  2  0
 37 36  1  0
 38 34  1  0
 39 20  1  0
 40 39  1  0
 40 42  1  0
 41 39  2  0
 43 40  1  0
 44 46  1  0
 45 44  1  0
 48 51  1  0
 49 48  1  0
 51 50  1  0
 51 47  1  0
 52 48  2  0
 53 54  1  0
 53 58  1  0
 53  5  1  0
 55 57  1  0
 57 56  1  0
 57 54  1  0
 59 58  1  0
 61 59  1  0
 61 66  1  0
 62 72  1  0
 62 70  1  0
 63 65  1  0
 65 64  1  0
 65 66  2  0
 67 61  2  0
 68 63  2  0
 68 67  1  0
 69 62  1  0
 69 63  1  0
 70 60  1  0
 70 64  1  0
 71 60  2  0
 72 74  2  0
 73 72  1  0
 75 73  1  0
 76 81  1  0
 77 73  1  0
 78 77  1  0
 79 78  1  0
 80 76  1  0
 80 79  1  0
 81 82  2  0
 81 77  1  0
 83 82  1  0
 84 83  2  0
 85 84  1  0
 85 76  2  0
 86 60  1  0
 86 96  1  0
 86 87  1  0
 87 88  1  0
 88 92  1  0
 88 89  2  0
 90 87  1  0
 92 91  1  0
 92 94  1  0
 93 94  1  0
 94 95  1  0
 96 99  1  1
 97 96  1  0
 98 96  1  0
M  ISO  4   9 100  18 100  58 101  59 101
M  END
>  <TORSDO>  (15) 
F 23

>  <SCORE>  (15) 
-3.669

>  <name>  (15) 
14

>  <ligand_id>  (15) 
14

>  <original_smiles>  (15) 
[H]c1sc(N([H])C([H])(C([H])([H])Oc2c([H])c([H])c3c(c2[H])C([H])([H])N(C(=O)C([H])(N([H])C(=O)C([H])(N([H])C([H])([H])[H])C([H])([H])[H])C(C([H])([H])[H])(C([H])([H])[H])C([H])([H])[H])C([H])(C(=O)N([H])C2([H])c4c([H])c([H])c([H])c([H])c4C([H])([H])C([H])([H])C2([H])[H])C3([H])[H])C([H])([H])C([H])(C([H])([H])[H])C([H])([H])[H])nc1C([H])(N(C(=O)N1C([H])([H])C([H])([H])C([H])([H])C([H])(n2nc(-c3c([H])c([H])c(Oc4c([H])c([H])c(F)c([H])c4F)c([H])c3[H])c(C(=O)N([H])[H])c2N([H])[H])C1([H])[H])C([H])([H])[H])C([H])([H])N(C(=O)C([H])([H])[H])C([H])([H])[H]

>  <smiles>  (15) 
[H]c1sc(N([H])C([H])(C([H])([H])Oc2c([H])c([H])c3c(c2[H])C([H])([H])N(C(=O)C([H])(N([H])C(=O)C([H])(N([H])C([H])([H])[H])C([H])([H])[H])C(C([H])([H])[H])(C([H])([H])[H])C([H])([H])[H])C([H])(C(=O)N([H])C2([H])c4c([H])c([H])c([H])c([H])c4C([H])([H])C([H])([H])C2([H])[H])C3([H])[H])C([H])([H])C([H])(C([H])([H])[H])C([H])([H])[H])nc1C([H])(N(C(=O)N1C([H])([H])C([H])([H])C([H])([H])C([H])(n2nc(-c3c([H])c([H])c(Oc4c([H])c([H])c(F)c([H])c4F)c([H])c3[H])c(C(=O)N([H])[H])c2N([H])[H])C1([H])[H])C([H])([H])[H])C([H])([H])N(C(=O)C([H])([H])[H])C([H])([H])[H]

$$$$
15:0:0
     RDKit          3D

 91 99  0  0  1  0  0  0  0  0999 V2000
  -28.1650  -18.4830   20.2940 C   0  0  0  0  0  3  0  0  0  0  0  0
  -29.5260  -18.6540   20.2570 C   0  0  0  0  0  0  0  0  0  0  0  0
  -28.7600  -20.9230   20.1550 C   0  0  0  0  0  0  0  0  0  0  0  0
  -29.8420  -20.0750   20.1770 N   0  0  0  0  0  0  0  0  0  0  0  0
  -28.5920  -22.3600   20.0810 N   0  0  0  0  0  0  0  0  0  0  0  0
  -27.2680  -19.9880   20.2320 S   0  0  0  0  0  0  0  0  0  0  0  0
  -27.5890  -22.5080   20.0950 H   0  0  0  0  0  0  0  0  0  0  0  0
  -29.9220  -23.9340   18.6740 C   0  0  0  0  0  1  0  0  0  0  0  0
  -29.2100  -23.7460   20.0190 C   0  0  0  0  0  3  0  0  0  0  0  0
  -27.6550  -24.8900   21.7270 C   0  0  0  0  0  1  0  0  0  0  0  0
  -28.1520  -24.9650   20.2680 C   0  0  0  0  0  3  0  0  0  0  0  0
  -28.4590  -26.4290   20.0140 O   0  0  0  0  0  0  0  0  0  0  0  0
  -24.6670  -31.7400   23.2260 C   0  0  0  0  0  0  0  0  0  0  0  0
  -27.3760  -27.3470   19.9670 C   0  0  0  0  0  0  0  0  0  0  0  0
  -23.5130  -30.4270   21.4870 C   0  0  0  0  0  3  0  0  0  0  0  0
  -25.0090  -28.9820   19.9970 C   0  0  0  0  0  0  0  0  0  0  0  0
  -26.0580  -30.7680   21.3780 C   0  0  0  0  0  2  0  0  0  0  0  0
  -26.1650  -29.4300   20.6490 C   0  0  0  0  0  0  0  0  0  0  0  0
  -27.3540  -28.6260   20.6240 C   0  0  0  0  0  3  0  0  0  0  0  0
  -26.2010  -26.9880   19.2670 C   0  0  0  0  0  3  0  0  0  0  0  0
  -25.0340  -27.7710   19.2950 C   0  0  0  0  0  3  0  0  0  0  0  0
  -23.7630  -29.8430   20.0730 C   0  0  0  0  0  2  0  0  0  0  0  0
  -24.7650  -30.9940   22.0880 N   0  0  0  0  0  0  0  0  0  0  0  0
  -23.5680  -31.9750   23.7520 O   0  0  0  0  0  0  0  0  0  0  0  0
  -22.8420  -29.3480   22.3710 C   0  0  0  0  0  0  0  0  0  0  0  0
  -21.5200  -29.1660   22.2120 N   0  0  0  0  0  0  0  0  0  0  0  0
  -23.5120  -28.6810   23.1640 O   0  0  0  0  0  0  0  0  0  0  0  0
  -21.0370  -29.7590   21.5510 H   0  0  0  0  0  0  0  0  0  0  0  0
  -18.1340  -27.9620   22.6510 C   0  0  0  0  0  0  0  0  0  0  0  0
  -20.6990  -28.1750   22.9130 C   0  0  0  0  0  3  0  0  0  0  0  0
  -20.7800  -26.7950   22.2210 C   0  0  0  0  0  2  0  0  0  0  0  0
  -19.6650  -26.5670   21.1960 C   0  0  0  0  0  2  0  0  0  0  0  0
  -18.2920  -26.6700   21.8660 C   0  0  0  0  0  2  0  0  0  0  0  0
  -19.2650  -28.6760   23.1300 C   0  0  0  0  0  0  0  0  0  0  0  0
  -19.0650  -29.8880   23.8260 C   0  0  0  0  0  3  0  0  0  0  0  0
  -17.7670  -30.3850   24.0470 C   0  0  0  0  0  3  0  0  0  0  0  0
  -16.6500  -29.6680   23.5840 C   0  0  0  0  0  3  0  0  0  0  0  0
  -16.8350  -28.4570   22.8930 C   0  0  0  0  0  3  0  0  0  0  0  0
  -25.9270  -32.3530   23.9090 C   0  0  0  0  0  3  0  0  0  0  0  0
  -26.3770  -31.5670   25.2000 C   0  0  1  0  0  0  0  0  0  0  0  0
  -25.2330  -31.3280   26.2150 C   0  0  0  0  0  1  0  0  0  0  0  0
  -26.9670  -30.1870   24.8260 C   0  0  0  0  0  1  0  0  0  0  0  0
  -27.5010  -32.3460   25.9230 C   0  0  0  0  0  1  0  0  0  0  0  0
  -25.6180  -33.7520   24.2390 N   0  0  0  0  0  0  0  0  0  0  0  0
  -25.9330  -34.8050   23.4740 C   0  0  0  0  0  0  0  0  0  0  0  0
  -26.5850  -34.7020   22.4300 O   0  0  0  0  0  0  0  0  0  0  0  0
  -25.0350  -33.9050   25.0490 H   0  0  0  0  0  0  0  0  0  0  0  0
  -24.1720  -36.5780   23.1760 C   0  0  0  0  0  1  0  0  0  0  0  0
  -25.4500  -36.1930   23.9370 C   0  0  0  0  0  3  0  0  0  0  0  0
  -27.5970  -37.1240   24.6820 C   0  0  0  0  0  1  0  0  0  0  0  0
  -26.4650  -37.2560   23.7700 N   0  0  0  0  0  0  0  0  0  0  0  0
  -26.0510  -38.1740   23.9100 H   0  0  0  0  0  0  0  0  0  0  0  0
  -30.5700  -17.4680   20.3030 C   0  0  0  0  0  2  0  0  0  0  0  0
  -30.8480  -14.8700   20.1390 C   0  0  0  0  0  0  0  0  0  0  0  0
  -30.5930  -12.6130   19.0990 C   0  0  0  0  0  2  0  0  0  0  0  0
  -29.6080  -12.7010   17.9130 C   0  0  0  0  0  2  0  0  0  0  0  0
  -28.1580  -12.5170   18.4010 C   0  0  0  0  0  2  0  0  0  0  0  0
  -27.8320  -13.3860   19.6450 C   0  0  0  0  0  3  0  0  0  0  0  0
  -28.9350  -13.2940   20.7220 C   0  0  0  0  0  2  0  0  0  0  0  0
  -30.2050  -13.6540   20.0800 N   0  0  0  0  0  0  0  0  0  0  0  0
  -32.0180  -14.9630   19.7580 O   0  0  0  0  0  0  0  0  0  0  0  0
  -30.1160  -16.0110   20.4210 N   0  0  0  0  0  0  0  0  0  0  0  0
  -29.1560  -15.8650   20.6860 H   0  0  0  0  0  0  0  0  0  0  0  0
  -25.4840  -13.9580   20.5020 C   0  0  0  0  0  0  0  0  0  0  0  0
  -24.4340  -13.1760   20.8970 C   0  0  0  0  0  0  0  0  0  0  0  0
  -24.8870  -11.8240   20.7970 C   0  0  0  0  0  0  0  0  0  0  0  0
  -26.5100  -13.0840   20.1870 N   0  0  0  0  0  0  0  0  0  0  0  0
  -26.1620  -11.7930   20.4280 N   0  0  0  0  0  0  0  0  0  0  0  0
  -24.1630  -10.5590   20.9720 C   0  0  0  0  0  0  0  0  0  0  0  0
  -24.5730   -9.5990   21.9240 C   0  0  0  0  0  3  0  0  0  0  0  0
  -23.8480   -8.3990   22.0890 C   0  0  0  0  0  3  0  0  0  0  0  0
  -22.6990   -8.1510   21.2990 C   0  0  0  0  0  0  0  0  0  0  0  0
  -22.3090   -9.0990   20.3380 C   0  0  0  0  0  3  0  0  0  0  0  0
  -23.0360  -10.2900   20.1720 C   0  0  0  0  0  3  0  0  0  0  0  0
  -21.9480   -7.0020   21.3710 O   0  0  0  0  0  0  0  0  0  0  0  0
  -21.7730   -6.3290   22.5530 C   0  0  0  0  0  0  0  0  0  0  0  0
  -21.1280   -6.9220   23.6600 C   0  0  0  0  0  3  0  0  0  0  0  0
  -20.9090   -6.1730   24.8330 C   0  0  0  0  0  3  0  0  0  0  0  0
  -21.3240   -4.8280   24.8970 C   0  0  0  0  0  0  0  0  0  0  0  0
  -21.9620   -4.2340   23.7940 C   0  0  0  0  0  3  0  0  0  0  0  0
  -22.1830   -4.9820   22.6240 C   0  0  0  0  0  0  0  0  0  0  0  0
  -22.7780   -4.3980   21.5570 F   0  0  0  0  0  0  0  0  0  0  0  0
  -21.1070   -4.1040   26.0200 F   0  0  0  0  0  0  0  0  0  0  0  0
  -23.0520  -13.6490   21.2460 C   0  0  0  0  0  0  0  0  0  0  0  0
  -22.3630  -12.9320   22.1270 N   0  0  0  0  0  0  0  0  0  0  0  0
  -22.5940  -14.6870   20.7730 O   0  0  0  0  0  0  0  0  0  0  0  0
  -22.7460  -12.0910   22.5310 H   0  0  0  0  0  0  0  0  0  0  0  0
  -21.4370  -13.2290   22.4020 H   0  0  0  0  0  0  0  0  0  0  0  0
  -25.6450  -15.3330   20.3530 N   0  0  0  0  0  0  0  0  0  0  0  0
  -24.8660  -15.9710   20.4780 H   0  0  0  0  0  0  0  0  0  0  0  0
  -26.4160  -15.7480   19.8500 H   0  0  0  0  0  0  0  0  0  0  0  0
  2  1  2  0
  2 53  1  0
  3  4  2  0
  3  6  1  0
  4  2  1  0
  5  7  1  0
  5  3  1  0
  6  1  1  0
  9  8  1  0
  9  5  1  0
  9 11  1  0
 11 10  1  0
 12 11  1  0
 13 24  2  0
 14 12  1  0
 14 19  1  0
 15 23  1  0
 15 25  1  0
 16 22  1  0
 16 18  1  0
 17 23  1  0
 18 17  1  0
 19 18  2  0
 20 21  1  0
 20 14  2  0
 21 16  2  0
 22 15  1  0
 23 13  1  0
 25 27  2  0
 26 25  1  0
 28 26  1  0
 29 38  2  0
 29 34  1  0
 30 26  1  0
 30 34  1  0
 31 30  1  0
 32 33  1  0
 32 31  1  0
 33 29  1  0
 34 35  2  0
 35 36  1  0
 37 36  2  0
 38 37  1  0
 39 13  1  0
 39 44  1  0
 39 40  1  0
 40 43  1  1
 40 41  1  0
 42 40  1  0
 44 47  1  0
 45 49  1  0
 45 44  1  0
 46 45  2  0
 49 48  1  0
 51 52  1  0
 51 49  1  0
 51 50  1  0
 53 62  1  0
 54 62  1  0
 55 60  1  0
 56 57  1  0
 56 55  1  0
 58 57  1  0
 58 67  1  0
 58 59  1  0
 60 54  1  0
 60 59  1  0
 61 54  2  0
 62 63  1  0
 64 65  2  0
 65 84  1  0
 66 65  1  0
 66 69  1  0
 67 68  1  0
 67 64  1  0
 68 66  2  0
 69 70  1  0
 70 71  2  0
 72 75  1  0
 72 71  1  0
 73 72  2  0
 74 73  1  0
 74 69  2  0
 75 76  1  0
 76 81  2  0
 76 77  1  0
 77 78  2  0
 78 79  1  0
 79 83  1  0
 80 79  2  0
 81 80  1  0
 82 81  1  0
 84 85  1  0
 85 88  1  0
 85 87  1  0
 86 84  2  0
 89 90  1  0
 89 64  1  0
 91 89  1  0
M  ISO  4  11 101  12 101  54 100  62 100
M  END
>  <TORSDO>  (16) 
F 19

>  <SCORE>  (16) 
-13.332

>  <name>  (16) 
15

>  <ligand_id>  (16) 
15

>  <original_smiles>  (16) 
[H]c1sc(N([H])C([H])(C([H])([H])[H])C([H])(Oc2c([H])c([H])c3c(c2[H])C([H])([H])N(C(=O)C([H])(N([H])C(=O)C([H])(N([H])C([H])([H])[H])C([H])([H])[H])C(C([H])([H])[H])(C([H])([H])[H])C([H])([H])[H])C([H])(C(=O)N([H])C2([H])c4c([H])c([H])c([H])c([H])c4C([H])([H])C([H])([H])C2([H])[H])C3([H])[H])C([H])([H])[H])nc1C([H])([H])N([H])C(=O)N1C([H])([H])C([H])([H])C([H])([H])C([H])(n2nc(-c3c([H])c([H])c(Oc4c([H])c([H])c(F)c([H])c4F)c([H])c3[H])c(C(=O)N([H])[H])c2N([H])[H])C1([H])[H]

>  <smiles>  (16) 
[H]c1sc(N([H])C([H])(C([H])([H])[H])C([H])(Oc2c([H])c([H])c3c(c2[H])C([H])([H])N(C(=O)C([H])(N([H])C(=O)C([H])(N([H])C([H])([H])[H])C([H])([H])[H])C(C([H])([H])[H])(C([H])([H])[H])C([H])([H])[H])C([H])(C(=O)N([H])C2([H])c4c([H])c([H])c([H])c([H])c4C([H])([H])C([H])([H])C2([H])[H])C3([H])[H])C([H])([H])[H])nc1C([H])([H])N([H])C(=O)N1C([H])([H])C([H])([H])C([H])([H])C([H])(n2nc(-c3c([H])c([H])c(Oc4c([H])c([H])c(F)c([H])c4F)c([H])c3[H])c(C(=O)N([H])[H])c2N([H])[H])C1([H])[H]

$$$$
16:0:0
     RDKit          3D

 94102  0  0  1  0  0  0  0  0999 V2000
  -29.7690  -18.7160   20.0360 C   0  0  0  0  0  0  0  0  0  0  0  0
  -28.4290  -18.6900   20.3710 C   0  0  0  0  0  0  0  0  0  0  0  0
  -29.1920  -21.0370   19.8330 C   0  0  0  0  0  0  0  0  0  0  0  0
  -30.1760  -20.0860   19.7610 N   0  0  0  0  0  0  0  0  0  0  0  0
  -29.1820  -22.4350   19.4540 N   0  0  0  0  0  0  0  0  0  0  0  0
  -27.6710  -20.2790   20.3020 S   0  0  0  0  0  0  0  0  0  0  0  0
  -28.3320  -22.5500   18.9140 H   0  0  0  0  0  0  0  0  0  0  0  0
  -27.6500  -17.6000   20.7520 N   0  0  0  0  0  0  0  0  0  0  0  0
  -28.0810  -16.8560   21.2910 H   0  0  0  0  0  0  0  0  0  0  0  0
  -26.7060  -17.7770   21.0880 H   0  0  0  0  0  0  0  0  0  0  0  0
  -30.7800  -24.3370   19.2150 C   0  0  0  0  0  1  0  0  0  0  0  0
  -29.5330  -23.8280   19.9480 C   0  0  0  0  0  3  0  0  0  0  0  0
  -27.2770  -24.5060   20.8940 C   0  0  0  0  0  1  0  0  0  0  0  0
  -28.3390  -24.9300   19.8500 C   0  0  0  0  0  3  0  0  0  0  0  0
  -28.5700  -26.4240   19.9940 O   0  0  0  0  0  0  0  0  0  0  0  0
  -24.6160  -31.6630   23.1100 C   0  0  0  0  0  0  0  0  0  0  0  0
  -27.4640  -27.3140   19.9090 C   0  0  0  0  0  0  0  0  0  0  0  0
  -23.5070  -30.2940   21.3850 C   0  0  0  0  0  3  0  0  0  0  0  0
  -25.0480  -28.8800   19.9130 C   0  0  0  0  0  0  0  0  0  0  0  0
  -26.0400  -30.7130   21.2750 C   0  0  0  0  0  2  0  0  0  0  0  0
  -26.1890  -29.3680   20.5630 C   0  0  0  0  0  0  0  0  0  0  0  0
  -27.4010  -28.5980   20.5530 C   0  0  0  0  0  3  0  0  0  0  0  0
  -26.3040  -26.9190   19.2010 C   0  0  0  0  0  3  0  0  0  0  0  0
  -25.1130  -27.6650   19.2200 C   0  0  0  0  0  3  0  0  0  0  0  0
  -23.7760  -29.6990   19.9790 C   0  0  0  0  0  2  0  0  0  0  0  0
  -24.7390  -30.9050   21.9800 N   0  0  0  0  0  0  0  0  0  0  0  0
  -23.5100  -31.8700   23.6300 O   0  0  0  0  0  0  0  0  0  0  0  0
  -22.8670  -29.2060   22.2820 C   0  0  0  0  0  0  0  0  0  0  0  0
  -21.5430  -29.0120   22.1520 N   0  0  0  0  0  0  0  0  0  0  0  0
  -23.5610  -28.5430   23.0570 O   0  0  0  0  0  0  0  0  0  0  0  0
  -21.0390  -29.6010   21.5030 H   0  0  0  0  0  0  0  0  0  0  0  0
  -18.1810  -27.7650   22.6500 C   0  0  0  0  0  0  0  0  0  0  0  0
  -20.7470  -28.0130   22.8680 C   0  0  0  0  0  3  0  0  0  0  0  0
  -20.8350  -26.6320   22.1780 C   0  0  0  0  0  2  0  0  0  0  0  0
  -19.7050  -26.3860   21.1730 C   0  0  0  0  0  2  0  0  0  0  0  0
  -18.3420  -26.4740   21.8640 C   0  0  0  0  0  2  0  0  0  0  0  0
  -19.3110  -28.4940   23.1080 C   0  0  0  0  0  0  0  0  0  0  0  0
  -19.1060  -29.7050   23.8050 C   0  0  0  0  0  3  0  0  0  0  0  0
  -17.8060  -30.1850   24.0490 C   0  0  0  0  0  3  0  0  0  0  0  0
  -16.6920  -29.4510   23.6070 C   0  0  0  0  0  3  0  0  0  0  0  0
  -16.8810  -28.2410   22.9130 C   0  0  0  0  0  3  0  0  0  0  0  0
  -25.8560  -32.3210   23.7870 C   0  0  0  0  0  3  0  0  0  0  0  0
  -26.3360  -31.5540   25.0810 C   0  0  1  0  0  0  0  0  0  0  0  0
  -25.2080  -31.2960   26.1070 C   0  0  0  0  0  1  0  0  0  0  0  0
  -26.9570  -30.1880   24.7100 C   0  0  0  0  0  1  0  0  0  0  0  0
  -27.4460  -32.3670   25.7890 C   0  0  0  0  0  1  0  0  0  0  0  0
  -25.5000  -33.7090   24.1130 N   0  0  0  0  0  0  0  0  0  0  0  0
  -25.8170  -34.7750   23.3640 C   0  0  0  0  0  0  0  0  0  0  0  0
  -26.5070  -34.6920   22.3450 O   0  0  0  0  0  0  0  0  0  0  0  0
  -24.8860  -33.8460   24.9040 H   0  0  0  0  0  0  0  0  0  0  0  0
  -24.0380  -36.5150   22.9930 C   0  0  0  0  0  1  0  0  0  0  0  0
  -25.2830  -36.1470   23.8170 C   0  0  0  0  0  3  0  0  0  0  0  0
  -27.3750  -37.1050   24.6740 C   0  0  0  0  0  1  0  0  0  0  0  0
  -26.2830  -37.2310   23.7120 N   0  0  0  0  0  0  0  0  0  0  0  0
  -25.8460  -38.1390   23.8460 H   0  0  0  0  0  0  0  0  0  0  0  0
  -30.7530  -17.4740   19.9840 C   0  0  0  0  0  2  0  0  0  0  0  0
  -31.0060  -14.8780   20.0020 C   0  0  0  0  0  0  0  0  0  0  0  0
  -30.7010  -12.6100   19.0080 C   0  0  0  0  0  2  0  0  0  0  0  0
  -29.7080  -12.7050   17.8280 C   0  0  0  0  0  2  0  0  0  0  0  0
  -28.2590  -12.5510   18.3300 C   0  0  0  0  0  2  0  0  0  0  0  0
  -27.9580  -13.4430   19.5650 C   0  0  0  0  0  3  0  0  0  0  0  0
  -29.0700  -13.3490   20.6330 C   0  0  0  0  0  2  0  0  0  0  0  0
  -30.3410  -13.6730   19.9740 N   0  0  0  0  0  0  0  0  0  0  0  0
  -32.1740  -14.9440   19.6110 O   0  0  0  0  0  0  0  0  0  0  0  0
  -30.2940  -16.0390   20.2430 N   0  0  0  0  0  0  0  0  0  0  0  0
  -29.3250  -15.9360   20.5060 H   0  0  0  0  0  0  0  0  0  0  0  0
  -25.6330  -14.0630   20.4530 C   0  0  0  0  0  0  0  0  0  0  0  0
  -24.5660  -13.3000   20.8450 C   0  0  0  0  0  0  0  0  0  0  0  0
  -24.9910  -11.9410   20.7370 C   0  0  0  0  0  0  0  0  0  0  0  0
  -26.6360  -13.1690   20.1210 N   0  0  0  0  0  0  0  0  0  0  0  0
  -26.2610  -11.8850   20.3570 N   0  0  0  0  0  0  0  0  0  0  0  0
  -24.2420  -10.6910   20.9180 C   0  0  0  0  0  0  0  0  0  0  0  0
  -24.6810   -9.6880   21.8100 C   0  0  0  0  0  3  0  0  0  0  0  0
  -23.9320   -8.5040   21.9830 C   0  0  0  0  0  3  0  0  0  0  0  0
  -22.7270   -8.3150   21.2620 C   0  0  0  0  0  0  0  0  0  0  0  0
  -22.3060   -9.3070   20.3580 C   0  0  0  0  0  3  0  0  0  0  0  0
  -23.0580  -10.4810   20.1840 C   0  0  0  0  0  3  0  0  0  0  0  0
  -21.9490   -7.1860   21.3440 O   0  0  0  0  0  0  0  0  0  0  0  0
  -21.8890   -6.4350   22.4900 C   0  0  0  0  0  0  0  0  0  0  0  0
  -21.4570   -6.9830   23.7190 C   0  0  0  0  0  3  0  0  0  0  0  0
  -21.3450   -6.1590   24.8560 C   0  0  0  0  0  3  0  0  0  0  0  0
  -21.6530   -4.7880   24.7660 C   0  0  0  0  0  0  0  0  0  0  0  0
  -22.0770   -4.2400   23.5430 C   0  0  0  0  0  3  0  0  0  0  0  0
  -22.1910   -5.0600   22.4070 C   0  0  0  0  0  0  0  0  0  0  0  0
  -22.5800   -4.5230   21.2260 F   0  0  0  0  0  0  0  0  0  0  0  0
  -21.5370   -3.9940   25.8560 F   0  0  0  0  0  0  0  0  0  0  0  0
  -23.2000  -13.8020   21.2120 C   0  0  0  0  0  0  0  0  0  0  0  0
  -22.5080  -13.1010   22.1030 N   0  0  0  0  0  0  0  0  0  0  0  0
  -22.7560  -14.8490   20.7430 O   0  0  0  0  0  0  0  0  0  0  0  0
  -22.8800  -12.2520   22.5030 H   0  0  0  0  0  0  0  0  0  0  0  0
  -21.5940  -13.4200   22.3910 H   0  0  0  0  0  0  0  0  0  0  0  0
  -25.8240  -15.4360   20.3330 N   0  0  0  0  0  0  0  0  0  0  0  0
  -25.1110  -16.1000   20.6120 H   0  0  0  0  0  0  0  0  0  0  0  0
  -26.7020  -15.8860   20.1020 H   0  0  0  0  0  0  0  0  0  0  0  0
  1  2  2  0
  2  8  1  0
  3  6  1  0
  4  3  2  0
  4  1  1  0
  5  3  1  0
  5 12  1  0
  6  2  1  0
  7  5  1  0
  8 10  1  0
  8  9  1  0
 12 11  1  0
 14 12  1  0
 14 15  1  0
 14 13  1  0
 16 27  2  0
 17 15  1  0
 17 22  1  0
 18 26  1  0
 18 28  1  0
 19 25  1  0
 19 21  1  0
 20 26  1  0
 21 20  1  0
 22 21  2  0
 23 24  1  0
 23 17  2  0
 24 19  2  0
 25 18  1  0
 26 16  1  0
 28 30  2  0
 29 28  1  0
 31 29  1  0
 32 41  2  0
 32 37  1  0
 33 29  1  0
 33 37  1  0
 34 33  1  0
 35 36  1  0
 35 34  1  0
 36 32  1  0
 37 38  2  0
 38 39  1  0
 40 39  2  0
 41 40  1  0
 42 16  1  0
 42 47  1  0
 42 43  1  0
 43 46  1  1
 43 44  1  0
 45 43  1  0
 47 50  1  0
 48 52  1  0
 48 47  1  0
 49 48  2  0
 52 51  1  0
 54 52  1  0
 54 55  1  0
 54 53  1  0
 56  1  1  0
 56 65  1  0
 57 65  1  0
 58 63  1  0
 59 60  1  0
 59 58  1  0
 61 60  1  0
 61 70  1  0
 61 62  1  0
 63 57  1  0
 63 62  1  0
 64 57  2  0
 65 66  1  0
 67 68  2  0
 68 87  1  0
 69 68  1  0
 69 72  1  0
 70 71  1  0
 70 67  1  0
 71 69  2  0
 72 73  1  0
 73 74  2  0
 75 78  1  0
 75 74  1  0
 76 75  2  0
 77 76  1  0
 77 72  2  0
 78 79  1  0
 79 80  1  0
 80 81  2  0
 82 81  1  0
 82 86  1  0
 83 82  2  0
 84 79  2  0
 84 83  1  0
 85 84  1  0
 87 88  1  0
 88 91  1  0
 88 90  1  0
 89 87  2  0
 92 67  1  0
 92 93  1  0
 94 92  1  0
M  ISO  4  14 101  15 101  57 100  65 100
M  END
>  <TORSDO>  (17) 
F 20

>  <SCORE>  (17) 
-12.967

>  <name>  (17) 
16

>  <ligand_id>  (17) 
16

>  <original_smiles>  (17) 
[H]c1c([H])c([H])c2c(c1[H])C([H])([H])C([H])([H])C([H])([H])C2([H])N([H])C(=O)C1([H])N(C(=O)C([H])(N([H])C(=O)C([H])(N([H])C([H])([H])[H])C([H])([H])[H])C(C([H])([H])[H])(C([H])([H])[H])C([H])([H])[H])C([H])([H])c2c([H])c(OC([H])(C([H])([H])[H])C([H])(N([H])c3nc(C([H])([H])N([H])C(=O)N4C([H])([H])C([H])([H])C([H])([H])C([H])(n5nc(-c6c([H])c([H])c(Oc7c([H])c([H])c(F)c([H])c7F)c([H])c6[H])c(C(=O)N([H])[H])c5N([H])[H])C4([H])[H])c(N([H])[H])s3)C([H])([H])[H])c([H])c([H])c2C1([H])[H]

>  <smiles>  (17) 
[H]c1c([H])c([H])c2c(c1[H])C([H])([H])C([H])([H])C([H])([H])C2([H])N([H])C(=O)C1([H])N(C(=O)C([H])(N([H])C(=O)C([H])(N([H])C([H])([H])[H])C([H])([H])[H])C(C([H])([H])[H])(C([H])([H])[H])C([H])([H])[H])C([H])([H])c2c([H])c(OC([H])(C([H])([H])[H])C([H])(N([H])c3nc(C([H])([H])N([H])C(=O)N4C([H])([H])C([H])([H])C([H])([H])C([H])(n5nc(-c6c([H])c([H])c(Oc7c([H])c([H])c(F)c([H])c7F)c([H])c6[H])c(C(=O)N([H])[H])c5N([H])[H])C4([H])[H])c(N([H])[H])s3)C([H])([H])[H])c([H])c([H])c2C1([H])[H]

$$$$
17:0:0
     RDKit          3D

 98106  0  0  1  0  0  0  0  0999 V2000
  -30.5580  -20.2300   20.2910 C   0  0  0  0  0  3  0  0  0  0  0  0
  -30.4960  -14.1740   20.0850 C   0  0  0  0  0  0  0  0  0  0  0  0
  -30.1010  -12.0370   18.9260 C   0  0  0  0  0  2  0  0  0  0  0  0
  -29.0770  -12.2900   17.8010 C   0  0  0  0  0  2  0  0  0  0  0  0
  -27.6370  -12.1450   18.3290 C   0  0  0  0  0  2  0  0  0  0  0  0
  -27.4030  -12.9160   19.6580 C   0  0  0  0  0  3  0  0  0  0  0  0
  -28.5440  -12.6720   20.6710 C   0  0  0  0  0  2  0  0  0  0  0  0
  -29.8180  -12.9930   20.0130 N   0  0  0  0  0  0  0  0  0  0  0  0
  -31.5970  -14.3230   19.5460 O   0  0  0  0  0  0  0  0  0  0  0  0
  -30.1150  -18.8260   19.8270 C   0  0  0  0  0  0  0  0  0  0  0  0
  -29.8410  -18.4810   18.5160 C   0  0  0  0  0  0  0  0  0  0  0  0
  -29.8490  -16.5330   20.0350 C   0  0  0  0  0  0  0  0  0  0  0  0
  -30.0250  -17.7000   20.6970 N   0  0  0  0  0  0  0  0  0  0  0  0
  -29.8660  -15.2340   20.6470 N   0  0  0  0  0  0  0  0  0  0  0  0
  -29.5730  -16.7670   18.3130 S   0  0  0  0  0  0  0  0  0  0  0  0
  -29.0890  -15.0290   21.2550 H   0  0  0  0  0  0  0  0  0  0  0  0
  -25.0560  -13.4750   20.5390 C   0  0  0  0  0  0  0  0  0  0  0  0
  -24.0270  -12.6830   20.9780 C   0  0  0  0  0  0  0  0  0  0  0  0
  -24.5040  -11.3370   20.9040 C   0  0  0  0  0  0  0  0  0  0  0  0
  -26.0940  -12.6110   20.2300 N   0  0  0  0  0  0  0  0  0  0  0  0
  -25.7710  -11.3210   20.5060 N   0  0  0  0  0  0  0  0  0  0  0  0
  -23.8100  -10.0620   21.1340 C   0  0  0  0  0  0  0  0  0  0  0  0
  -24.2750   -9.1300   22.0880 C   0  0  0  0  0  3  0  0  0  0  0  0
  -23.5770   -7.9230   22.3100 C   0  0  0  0  0  3  0  0  0  0  0  0
  -22.4010   -7.6390   21.5760 C   0  0  0  0  0  0  0  0  0  0  0  0
  -21.9570   -8.5580   20.6100 C   0  0  0  0  0  3  0  0  0  0  0  0
  -22.6560   -9.7570   20.3870 C   0  0  0  0  0  3  0  0  0  0  0  0
  -21.6780   -6.4770   21.6980 O   0  0  0  0  0  0  0  0  0  0  0  0
  -21.6360   -5.7770   22.8780 C   0  0  0  0  0  0  0  0  0  0  0  0
  -21.1060   -6.3380   24.0590 C   0  0  0  0  0  3  0  0  0  0  0  0
  -21.0170   -5.5630   25.2320 C   0  0  0  0  0  3  0  0  0  0  0  0
  -21.4500   -4.2230   25.2240 C   0  0  0  0  0  0  0  0  0  0  0  0
  -21.9730   -3.6590   24.0460 C   0  0  0  0  0  3  0  0  0  0  0  0
  -22.0630   -4.4330   22.8760 C   0  0  0  0  0  0  0  0  0  0  0  0
  -22.5450   -3.8780   21.7380 F   0  0  0  0  0  0  0  0  0  0  0  0
  -21.3600   -3.4740   26.3470 F   0  0  0  0  0  0  0  0  0  0  0  0
  -22.6460  -13.1360   21.3540 C   0  0  0  0  0  0  0  0  0  0  0  0
  -21.9930  -12.4200   22.2630 N   0  0  0  0  0  0  0  0  0  0  0  0
  -22.1570  -14.1600   20.8780 O   0  0  0  0  0  0  0  0  0  0  0  0
  -22.4030  -11.5890   22.6640 H   0  0  0  0  0  0  0  0  0  0  0  0
  -21.0700  -12.7050   22.5590 H   0  0  0  0  0  0  0  0  0  0  0  0
  -25.1890  -14.8470   20.3570 N   0  0  0  0  0  0  0  0  0  0  0  0
  -24.4290  -15.4990   20.5140 H   0  0  0  0  0  0  0  0  0  0  0  0
  -26.0090  -15.2910   19.9640 H   0  0  0  0  0  0  0  0  0  0  0  0
  -29.8080  -19.2940   17.3880 N   0  0  0  0  0  0  0  0  0  0  0  0
  -29.9110  -20.3030   17.4150 H   0  0  0  0  0  0  0  0  0  0  0  0
  -29.5640  -18.9520   16.4640 H   0  0  0  0  0  0  0  0  0  0  0  0
  -29.4140  -21.2880   20.5440 C   0  0  0  0  0  2  0  0  0  0  0  0
  -28.1000  -22.2150   18.5440 C   0  0  0  0  0  1  0  0  0  0  0  0
  -29.2910  -22.4610   19.4870 C   0  0  0  0  0  3  0  0  0  0  0  0
  -29.4040  -23.9710   19.9670 C   0  0  0  0  0  3  0  0  0  0  0  0
  -28.1030  -24.8230   20.1350 C   0  0  0  0  0  3  0  0  0  0  0  0
  -28.2890  -26.2730   20.1850 O   0  0  0  0  0  0  0  0  0  0  0  0
  -24.5250  -31.6530   23.1010 C   0  0  0  0  0  0  0  0  0  0  0  0
  -27.1470  -27.0720   20.1340 C   0  0  0  0  0  0  0  0  0  0  0  0
  -23.3320  -30.2410   21.4620 C   0  0  0  0  0  3  0  0  0  0  0  0
  -24.7890  -28.6640   20.0880 C   0  0  0  0  0  0  0  0  0  0  0  0
  -25.8740  -30.5470   21.3100 C   0  0  0  0  0  2  0  0  0  0  0  0
  -25.9520  -29.1620   20.6860 C   0  0  0  0  0  0  0  0  0  0  0  0
  -27.1370  -28.3780   20.6990 C   0  0  0  0  0  3  0  0  0  0  0  0
  -25.9530  -26.6160   19.5230 C   0  0  0  0  0  3  0  0  0  0  0  0
  -24.7850  -27.3920   19.5040 C   0  0  0  0  0  3  0  0  0  0  0  0
  -23.5610  -29.5450   20.0980 C   0  0  0  0  0  2  0  0  0  0  0  0
  -24.5950  -30.8270   22.0170 N   0  0  0  0  0  0  0  0  0  0  0  0
  -23.4350  -31.9480   23.6120 O   0  0  0  0  0  0  0  0  0  0  0  0
  -22.6490  -29.2420   22.4240 C   0  0  0  0  0  0  0  0  0  0  0  0
  -21.3250  -29.0760   22.2780 N   0  0  0  0  0  0  0  0  0  0  0  0
  -23.3090  -28.6200   23.2620 O   0  0  0  0  0  0  0  0  0  0  0  0
  -20.8550  -29.6310   21.5760 H   0  0  0  0  0  0  0  0  0  0  0  0
  -17.9190  -27.9620   22.7700 C   0  0  0  0  0  0  0  0  0  0  0  0
  -20.4820  -28.1600   23.0480 C   0  0  0  0  0  3  0  0  0  0  0  0
  -20.5500  -26.7260   22.4750 C   0  0  0  0  0  2  0  0  0  0  0  0
  -19.4430  -26.4260   21.4580 C   0  0  0  0  0  2  0  0  0  0  0  0
  -18.0650  -26.6070   22.0990 C   0  0  0  0  0  2  0  0  0  0  0  0
  -19.0550  -28.6990   23.2010 C   0  0  0  0  0  0  0  0  0  0  0  0
  -18.8660  -29.9690   23.7890 C   0  0  0  0  0  3  0  0  0  0  0  0
  -17.5740  -30.5030   23.9480 C   0  0  0  0  0  3  0  0  0  0  0  0
  -16.4530  -29.7640   23.5320 C   0  0  0  0  0  3  0  0  0  0  0  0
  -16.6270  -28.4960   22.9510 C   0  0  0  0  0  3  0  0  0  0  0  0
  -25.8040  -32.2800   23.7320 C   0  0  0  0  0  3  0  0  0  0  0  0
  -25.4920  -33.6730   24.0790 N   0  0  0  0  0  0  0  0  0  0  0  0
  -25.8110  -34.7360   23.3260 C   0  0  0  0  0  0  0  0  0  0  0  0
  -26.4740  -34.6460   22.2880 O   0  0  0  0  0  0  0  0  0  0  0  0
  -24.9030  -33.8190   24.8860 H   0  0  0  0  0  0  0  0  0  0  0  0
  -24.0740  -36.5230   22.9970 C   0  0  0  0  0  1  0  0  0  0  0  0
  -25.3200  -36.1170   23.8000 C   0  0  0  0  0  3  0  0  0  0  0  0
  -27.4470  -37.0060   24.6480 C   0  0  0  0  0  1  0  0  0  0  0  0
  -26.3510  -37.1740   23.6970 N   0  0  0  0  0  0  0  0  0  0  0  0
  -25.9420  -38.0930   23.8420 H   0  0  0  0  0  0  0  0  0  0  0  0
  -26.3200  -31.4930   24.9990 C   0  0  1  0  0  0  0  0  0  0  0  0
  -25.2220  -31.2250   26.0550 C   0  0  0  0  0  1  0  0  0  0  0  0
  -26.9160  -30.1280   24.5880 C   0  0  0  0  0  1  0  0  0  0  0  0
  -27.4600  -32.2860   25.6800 C   0  0  0  0  0  1  0  0  0  0  0  0
  -31.6210  -20.1130   21.4250 C   0  0  0  0  0  2  0  0  0  0  0  0
  -33.8360  -20.7520   22.4270 C   0  0  0  0  0  1  0  0  0  0  0  0
  -31.9220  -22.2720   22.7730 C   0  0  0  0  0  1  0  0  0  0  0  0
  -33.0150  -22.0930   20.5030 C   0  0  0  0  0  1  0  0  0  0  0  0
  -32.5650  -21.3120   21.7550 C   0  0  2  0  0  0  0  0  0  0  0  0
  1 48  1  0
  1 94  1  0
  2 14  1  0
  3  8  1  0
  4  5  1  0
  4  3  1  0
  6  5  1  0
  6 20  1  0
  6  7  1  0
  8  2  1  0
  8  7  1  0
  9  2  2  0
 10  1  1  0
 10 13  1  0
 11 10  2  0
 12 14  1  0
 12 13  2  0
 14 16  1  0
 15 11  1  0
 15 12  1  0
 17 18  2  0
 18 37  1  0
 19 18  1  0
 19 22  1  0
 20 21  1  0
 20 17  1  0
 21 19  2  0
 22 23  1  0
 23 24  2  0
 25 28  1  0
 25 24  1  0
 26 25  2  0
 27 26  1  0
 27 22  2  0
 28 29  1  0
 29 30  1  0
 30 31  2  0
 32 31  1  0
 32 36  1  0
 33 32  2  0
 34 29  2  0
 34 33  1  0
 35 34  1  0
 37 38  1  0
 38 41  1  0
 38 40  1  0
 39 37  2  0
 42 43  1  0
 42 17  1  0
 44 42  1  0
 45 46  1  0
 45 11  1  0
 47 45  1  0
 50 49  1  0
 50 51  1  0
 50 48  1  0
 51 52  2  0
 52 53  1  0
 54 65  2  0
 55 53  1  0
 55 60  1  0
 56 64  1  0
 56 66  1  0
 57 63  1  0
 57 59  1  0
 58 64  1  0
 59 60  2  0
 59 58  1  0
 61 55  2  0
 62 61  1  0
 62 57  2  0
 63 56  1  0
 64 54  1  0
 66 68  2  0
 67 66  1  0
 69 67  1  0
 70 79  2  0
 70 75  1  0
 71 67  1  0
 71 75  1  0
 72 71  1  0
 73 74  1  0
 73 72  1  0
 74 70  1  0
 75 76  2  0
 76 77  1  0
 78 77  2  0
 79 78  1  0
 80 54  1  0
 80 81  1  0
 80 90  1  0
 81 84  1  0
 82 86  1  0
 82 81  1  0
 83 82  2  0
 86 85  1  0
 88 86  1  0
 88 89  1  0
 88 87  1  0
 90 93  1  1
 90 91  1  0
 92 90  1  0
 94 98  1  0
 98 97  1  6
 98 95  1  0
 98 96  1  0
M  ISO  4   2 100  14 100  52 101  53 101
M  END
>  <TORSDO>  (18) 
F 23

>  <SCORE>  (18) 
-11.104

>  <name>  (18) 
17

>  <ligand_id>  (18) 
17

>  <original_smiles>  (18) 
[H]c1c([H])c([H])c2c(c1[H])C([H])([H])C([H])([H])C([H])([H])C2([H])N([H])C(=O)C1([H])N(C(=O)C([H])(N([H])C(=O)C([H])(N([H])C([H])([H])[H])C([H])([H])[H])C(C([H])([H])[H])(C([H])([H])[H])C([H])([H])[H])C([H])([H])c2c([H])c(OC([H])([H])C([H])([H])C([H])(C([H])([H])[H])C([H])([H])C([H])(c3nc(N([H])C(=O)N4C([H])([H])C([H])([H])C([H])([H])C([H])(n5nc(-c6c([H])c([H])c(Oc7c([H])c([H])c(F)c([H])c7F)c([H])c6[H])c(C(=O)N([H])[H])c5N([H])[H])C4([H])[H])sc3N([H])[H])C([H])([H])C(C([H])([H])[H])(C([H])([H])[H])C([H])([H])[H])c([H])c([H])c2C1([H])[H]

>  <smiles>  (18) 
[H]c1c([H])c([H])c2c(c1[H])C([H])([H])C([H])([H])C([H])([H])C2([H])N([H])C(=O)C1([H])N(C(=O)C([H])(N([H])C(=O)C([H])(N([H])C([H])([H])[H])C([H])([H])[H])C(C([H])([H])[H])(C([H])([H])[H])C([H])([H])[H])C([H])([H])c2c([H])c(OC([H])([H])C([H])([H])C([H])(C([H])([H])[H])C([H])([H])C([H])(c3nc(N([H])C(=O)N4C([H])([H])C([H])([H])C([H])([H])C([H])(n5nc(-c6c([H])c([H])c(Oc7c([H])c([H])c(F)c([H])c7F)c([H])c6[H])c(C(=O)N([H])[H])c5N([H])[H])C4([H])[H])sc3N([H])[H])C([H])([H])C(C([H])([H])[H])(C([H])([H])[H])C([H])([H])[H])c([H])c([H])c2C1([H])[H]

$$$$
18:0:0
     RDKit          3D

 94102  0  0  1  0  0  0  0  0999 V2000
  -27.4540  -19.6960   20.0850 C   0  0  0  0  0  3  0  0  0  0  0  0
  -28.2710  -18.5430   20.1540 C   0  0  0  0  0  0  0  0  0  0  0  0
  -29.6700  -18.7360   20.0860 C   0  0  0  0  0  0  0  0  0  0  0  0
  -29.2400  -21.1070   20.1290 C   0  0  0  0  0  0  0  0  0  0  0  0
  -27.9340  -20.9560   20.0640 N   0  0  0  0  0  0  0  0  0  0  0  0
  -30.1210  -20.0580   20.1180 N   0  0  0  0  0  0  0  0  0  0  0  0
  -29.6750  -22.4610   20.3090 N   0  0  0  0  0  0  0  0  0  0  0  0
  -30.6690  -22.5280   20.4850 H   0  0  0  0  0  0  0  0  0  0  0  0
  -27.6770  -17.2940   20.3620 N   0  0  0  0  0  0  0  0  0  0  0  0
  -26.6710  -17.3370   20.5140 H   0  0  0  0  0  0  0  0  0  0  0  0
  -28.0810  -16.7770   21.1400 H   0  0  0  0  0  0  0  0  0  0  0  0
  -30.6900  -17.4920   20.0080 C   0  0  0  0  0  2  0  0  0  0  0  0
  -30.9550  -14.8550   19.8470 C   0  0  0  0  0  0  0  0  0  0  0  0
  -30.6680  -12.5470   18.9070 C   0  0  0  0  0  2  0  0  0  0  0  0
  -29.6410  -12.5730   17.7520 C   0  0  0  0  0  2  0  0  0  0  0  0
  -28.2090  -12.4130   18.2950 C   0  0  0  0  0  2  0  0  0  0  0  0
  -27.9220  -13.3350   19.5110 C   0  0  0  0  0  3  0  0  0  0  0  0
  -29.0640  -13.2920   20.5500 C   0  0  0  0  0  2  0  0  0  0  0  0
  -30.3060  -13.6360   19.8460 N   0  0  0  0  0  0  0  0  0  0  0  0
  -32.1220  -14.9160   19.4530 O   0  0  0  0  0  0  0  0  0  0  0  0
  -30.2390  -16.0220   20.0860 N   0  0  0  0  0  0  0  0  0  0  0  0
  -29.2470  -15.9360   20.2710 H   0  0  0  0  0  0  0  0  0  0  0  0
  -25.6260  -13.9420   20.4760 C   0  0  0  0  0  0  0  0  0  0  0  0
  -24.5730  -13.1810   20.9010 C   0  0  0  0  0  0  0  0  0  0  0  0
  -24.9860  -11.8230   20.7500 C   0  0  0  0  0  0  0  0  0  0  0  0
  -26.6210  -13.0530   20.1090 N   0  0  0  0  0  0  0  0  0  0  0  0
  -26.2450  -11.7650   20.3290 N   0  0  0  0  0  0  0  0  0  0  0  0
  -24.2300  -10.5770   20.9260 C   0  0  0  0  0  0  0  0  0  0  0  0
  -24.6280   -9.5950   21.8590 C   0  0  0  0  0  3  0  0  0  0  0  0
  -23.8700   -8.4160   22.0240 C   0  0  0  0  0  3  0  0  0  0  0  0
  -22.7000   -8.2110   21.2550 C   0  0  0  0  0  0  0  0  0  0  0  0
  -22.3200   -9.1820   20.3110 C   0  0  0  0  0  3  0  0  0  0  0  0
  -23.0790  -10.3520   20.1440 C   0  0  0  0  0  3  0  0  0  0  0  0
  -21.9150   -7.0860   21.3300 O   0  0  0  0  0  0  0  0  0  0  0  0
  -21.7470   -6.4040   22.5090 C   0  0  0  0  0  0  0  0  0  0  0  0
  -21.1390   -7.0010   23.6360 C   0  0  0  0  0  3  0  0  0  0  0  0
  -20.9220   -6.2430   24.8030 C   0  0  0  0  0  3  0  0  0  0  0  0
  -21.3020   -4.8890   24.8450 C   0  0  0  0  0  0  0  0  0  0  0  0
  -21.9040   -4.2910   23.7230 C   0  0  0  0  0  3  0  0  0  0  0  0
  -22.1220   -5.0470   22.5580 C   0  0  0  0  0  0  0  0  0  0  0  0
  -22.6810   -4.4600   21.4720 F   0  0  0  0  0  0  0  0  0  0  0  0
  -21.0870   -4.1570   25.9630 F   0  0  0  0  0  0  0  0  0  0  0  0
  -23.2270  -13.6880   21.3290 C   0  0  0  0  0  0  0  0  0  0  0  0
  -22.5590  -12.9690   22.2220 N   0  0  0  0  0  0  0  0  0  0  0  0
  -22.7830  -14.7570   20.9100 O   0  0  0  0  0  0  0  0  0  0  0  0
  -22.9330  -12.1030   22.5810 H   0  0  0  0  0  0  0  0  0  0  0  0
  -21.6590  -13.2880   22.5510 H   0  0  0  0  0  0  0  0  0  0  0  0
  -25.7970  -15.3140   20.3560 N   0  0  0  0  0  0  0  0  0  0  0  0
  -25.0380  -15.9540   20.5620 H   0  0  0  0  0  0  0  0  0  0  0  0
  -26.6750  -15.7920   20.1580 H   0  0  0  0  0  0  0  0  0  0  0  0
  -29.0760  -23.7780   19.8040 C   0  0  0  0  0  2  0  0  0  0  0  0
  -29.5010  -24.9390   22.1000 C   0  0  0  0  0  1  0  0  0  0  0  0
  -28.6670  -25.0000   20.8130 C   0  0  0  0  0  3  0  0  0  0  0  0
  -28.7590  -26.4530   20.4020 O   0  0  0  0  0  0  0  0  0  0  0  0
  -24.6590  -31.7750   23.2490 C   0  0  0  0  0  0  0  0  0  0  0  0
  -27.6120  -27.2810   20.3640 C   0  0  0  0  0  0  0  0  0  0  0  0
  -23.6070  -30.3370   21.5410 C   0  0  0  0  0  3  0  0  0  0  0  0
  -25.1970  -28.8350   20.2050 C   0  0  0  0  0  0  0  0  0  0  0  0
  -26.1420  -30.7420   21.5050 C   0  0  0  0  0  2  0  0  0  0  0  0
  -26.3140  -29.3620   20.8670 C   0  0  0  0  0  0  0  0  0  0  0  0
  -27.5260  -28.6010   20.9280 C   0  0  0  0  0  3  0  0  0  0  0  0
  -26.4710  -26.8150   19.6810 C   0  0  0  0  0  3  0  0  0  0  0  0
  -25.2810  -27.5680   19.6020 C   0  0  0  0  0  3  0  0  0  0  0  0
  -23.9290  -29.6690   20.1780 C   0  0  0  0  0  2  0  0  0  0  0  0
  -24.8180  -30.9710   22.1560 N   0  0  0  0  0  0  0  0  0  0  0  0
  -23.5370  -32.0100   23.7210 O   0  0  0  0  0  0  0  0  0  0  0  0
  -22.9280  -29.2960   22.4630 C   0  0  0  0  0  0  0  0  0  0  0  0
  -21.6100  -29.0950   22.2850 N   0  0  0  0  0  0  0  0  0  0  0  0
  -23.5860  -28.6730   23.2980 O   0  0  0  0  0  0  0  0  0  0  0  0
  -21.1350  -29.6520   21.5890 H   0  0  0  0  0  0  0  0  0  0  0  0
  -18.2280  -27.8770   22.7070 C   0  0  0  0  0  0  0  0  0  0  0  0
  -20.7840  -28.1280   23.0110 C   0  0  0  0  0  3  0  0  0  0  0  0
  -20.8930  -26.7190   22.3830 C   0  0  0  0  0  2  0  0  0  0  0  0
  -19.8020  -26.4350   21.3460 C   0  0  0  0  0  2  0  0  0  0  0  0
  -18.4130  -26.5550   21.9810 C   0  0  0  0  0  2  0  0  0  0  0  0
  -19.3420  -28.6230   23.1770 C   0  0  0  0  0  0  0  0  0  0  0  0
  -19.1160  -29.8610   23.8170 C   0  0  0  0  0  3  0  0  0  0  0  0
  -17.8090  -30.3540   23.9900 C   0  0  0  0  0  3  0  0  0  0  0  0
  -16.7090  -29.6060   23.5360 C   0  0  0  0  0  3  0  0  0  0  0  0
  -16.9200  -28.3690   22.9000 C   0  0  0  0  0  3  0  0  0  0  0  0
  -25.8760  -32.4580   23.9460 C   0  0  0  0  0  3  0  0  0  0  0  0
  -26.3070  -31.7420   25.2850 C   0  0  1  0  0  0  0  0  0  0  0  0
  -25.1380  -31.5070   26.2690 C   0  0  0  0  0  1  0  0  0  0  0  0
  -26.9550  -30.3690   24.9870 C   0  0  0  0  0  1  0  0  0  0  0  0
  -27.3790  -32.5870   26.0120 C   0  0  0  0  0  1  0  0  0  0  0  0
  -25.5160  -33.8590   24.2060 N   0  0  0  0  0  0  0  0  0  0  0  0
  -25.8680  -34.8950   23.4310 C   0  0  0  0  0  0  0  0  0  0  0  0
  -26.5990  -34.7720   22.4450 O   0  0  0  0  0  0  0  0  0  0  0  0
  -24.8710  -34.0270   24.9650 H   0  0  0  0  0  0  0  0  0  0  0  0
  -24.1230  -36.6330   22.9180 C   0  0  0  0  0  1  0  0  0  0  0  0
  -25.3250  -36.2860   23.8110 C   0  0  0  0  0  3  0  0  0  0  0  0
  -27.3740  -37.2670   24.7440 C   0  0  0  0  0  1  0  0  0  0  0  0
  -26.3380  -37.3600   23.7180 N   0  0  0  0  0  0  0  0  0  0  0  0
  -25.9020  -38.2750   23.7890 H   0  0  0  0  0  0  0  0  0  0  0  0
  1  2  2  0
  2  9  1  0
  3  6  2  0
  3  2  1  0
  4  7  1  0
  5  1  1  0
  5  4  2  0
  6  4  1  0
  7  8  1  0
  9 10  1  0
  9 11  1  0
 12 21  1  0
 12  3  1  0
 13 21  1  0
 14 19  1  0
 15 16  1  0
 15 14  1  0
 17 16  1  0
 17 26  1  0
 17 18  1  0
 19 13  1  0
 19 18  1  0
 20 13  2  0
 21 22  1  0
 23 24  2  0
 24 43  1  0
 25 24  1  0
 25 28  1  0
 26 27  1  0
 26 23  1  0
 27 25  2  0
 28 29  1  0
 29 30  2  0
 31 34  1  0
 31 30  1  0
 32 31  2  0
 33 32  1  0
 33 28  2  0
 34 35  1  0
 35 40  2  0
 35 36  1  0
 36 37  2  0
 37 38  1  0
 38 42  1  0
 39 38  2  0
 40 39  1  0
 41 40  1  0
 43 44  1  0
 44 47  1  0
 44 46  1  0
 45 43  2  0
 48 23  1  0
 48 49  1  0
 50 48  1  0
 51  7  1  0
 51 53  1  0
 53 52  1  0
 54 53  1  0
 55 66  2  0
 56 54  1  0
 56 61  1  0
 57 65  1  0
 57 67  1  0
 58 60  1  0
 59 65  1  0
 60 61  2  0
 60 59  1  0
 62 56  2  0
 63 62  1  0
 63 58  2  0
 64 58  1  0
 64 57  1  0
 65 55  1  0
 67 69  2  0
 68 67  1  0
 70 68  1  0
 71 80  2  0
 71 76  1  0
 72 68  1  0
 72 76  1  0
 73 72  1  0
 74 75  1  0
 74 73  1  0
 75 71  1  0
 76 77  2  0
 77 78  1  0
 79 78  2  0
 80 79  1  0
 81 55  1  0
 81 86  1  0
 81 82  1  0
 82 85  1  1
 82 83  1  0
 84 82  1  0
 86 89  1  0
 87 91  1  0
 87 86  1  0
 88 87  2  0
 91 90  1  0
 93 94  1  0
 93 91  1  0
 93 92  1  0
M  ISO  4  13 100  21 100  53 101  54 101
M  END
>  <TORSDO>  (19) 
F 20

>  <SCORE>  (19) 
-13.448

>  <name>  (19) 
18

>  <ligand_id>  (19) 
18

>  <original_smiles>  (19) 
[H]c1nc(N([H])C([H])([H])C([H])(Oc2c([H])c([H])c3c(c2[H])C([H])([H])N(C(=O)C([H])(N([H])C(=O)C([H])(N([H])C([H])([H])[H])C([H])([H])[H])C(C([H])([H])[H])(C([H])([H])[H])C([H])([H])[H])C([H])(C(=O)N([H])C2([H])c4c([H])c([H])c([H])c([H])c4C([H])([H])C([H])([H])C2([H])[H])C3([H])[H])C([H])([H])[H])nc(C([H])([H])N([H])C(=O)N2C([H])([H])C([H])([H])C([H])([H])C([H])(n3nc(-c4c([H])c([H])c(Oc5c([H])c([H])c(F)c([H])c5F)c([H])c4[H])c(C(=O)N([H])[H])c3N([H])[H])C2([H])[H])c1N([H])[H]

>  <smiles>  (19) 
[H]c1nc(N([H])C([H])([H])C([H])(Oc2c([H])c([H])c3c(c2[H])C([H])([H])N(C(=O)C([H])(N([H])C(=O)C([H])(N([H])C([H])([H])[H])C([H])([H])[H])C(C([H])([H])[H])(C([H])([H])[H])C([H])([H])[H])C([H])(C(=O)N([H])C2([H])c4c([H])c([H])c([H])c([H])c4C([H])([H])C([H])([H])C2([H])[H])C3([H])[H])C([H])([H])[H])nc(C([H])([H])N([H])C(=O)N2C([H])([H])C([H])([H])C([H])([H])C([H])(n3nc(-c4c([H])c([H])c(Oc5c([H])c([H])c(F)c([H])c5F)c([H])c4[H])c(C(=O)N([H])[H])c3N([H])[H])C2([H])[H])c1N([H])[H]

$$$$
19:0:0
     RDKit          3D

 96104  0  0  1  0  0  0  0  0999 V2000
  -29.0640  -20.6530   18.9470 C   0  0  0  0  0  1  0  0  0  0  0  0
  -29.1020  -20.6280   20.4890 C   0  0  0  0  0  3  0  0  0  0  0  0
  -30.6230  -14.6050   20.3380 C   0  0  0  0  0  0  0  0  0  0  0  0
  -30.3650  -12.4150   19.1930 C   0  0  0  0  0  2  0  0  0  0  0  0
  -29.3870  -12.5720   18.0050 C   0  0  0  0  0  2  0  0  0  0  0  0
  -27.9240  -12.4150   18.4670 C   0  0  0  0  0  2  0  0  0  0  0  0
  -27.6010  -13.2600   19.7290 C   0  0  0  0  0  3  0  0  0  0  0  0
  -28.6840  -13.0670   20.8140 C   0  0  0  0  0  2  0  0  0  0  0  0
  -29.9820  -13.4070   20.2130 N   0  0  0  0  0  0  0  0  0  0  0  0
  -31.7850  -14.7680   19.9490 O   0  0  0  0  0  0  0  0  0  0  0  0
  -29.8560  -19.3420   20.9440 C   0  0  0  0  0  0  0  0  0  0  0  0
  -31.0210  -19.2280   21.6950 C   0  0  0  0  0  0  0  0  0  0  0  0
  -30.1630  -17.0220   20.9400 C   0  0  0  0  0  0  0  0  0  0  0  0
  -29.3580  -18.0530   20.5960 N   0  0  0  0  0  0  0  0  0  0  0  0
  -29.8190  -15.6510   20.6690 N   0  0  0  0  0  0  0  0  0  0  0  0
  -31.5700  -17.5620   21.8400 S   0  0  0  0  0  0  0  0  0  0  0  0
  -28.8390  -15.4310   20.7230 H   0  0  0  0  0  0  0  0  0  0  0  0
  -25.2220  -13.8570   20.5000 C   0  0  0  0  0  0  0  0  0  0  0  0
  -24.1640  -13.0780   20.8870 C   0  0  0  0  0  0  0  0  0  0  0  0
  -24.6270  -11.7270   20.8400 C   0  0  0  0  0  0  0  0  0  0  0  0
  -26.2620  -12.9790   20.2400 N   0  0  0  0  0  0  0  0  0  0  0  0
  -25.9110  -11.6920   20.5050 N   0  0  0  0  0  0  0  0  0  0  0  0
  -23.9060  -10.4630   21.0360 C   0  0  0  0  0  0  0  0  0  0  0  0
  -24.3530   -9.4930   21.9620 C   0  0  0  0  0  3  0  0  0  0  0  0
  -23.6300   -8.2950   22.1500 C   0  0  0  0  0  3  0  0  0  0  0  0
  -22.4500   -8.0550   21.4050 C   0  0  0  0  0  0  0  0  0  0  0  0
  -22.0230   -9.0120   20.4690 C   0  0  0  0  0  3  0  0  0  0  0  0
  -22.7450  -10.2030   20.2810 C   0  0  0  0  0  3  0  0  0  0  0  0
  -21.7010   -6.9070   21.4960 O   0  0  0  0  0  0  0  0  0  0  0  0
  -21.6660   -6.1620   22.6480 C   0  0  0  0  0  0  0  0  0  0  0  0
  -21.2230   -6.7070   23.8720 C   0  0  0  0  0  3  0  0  0  0  0  0
  -21.1350   -5.8890   25.0160 C   0  0  0  0  0  3  0  0  0  0  0  0
  -21.4810   -4.5270   24.9370 C   0  0  0  0  0  0  0  0  0  0  0  0
  -21.9150   -3.9800   23.7170 C   0  0  0  0  0  3  0  0  0  0  0  0
  -22.0050   -4.7960   22.5750 C   0  0  0  0  0  0  0  0  0  0  0  0
  -22.4050   -4.2590   21.3960 F   0  0  0  0  0  0  0  0  0  0  0  0
  -21.3890   -3.7400   26.0340 F   0  0  0  0  0  0  0  0  0  0  0  0
  -22.7720  -13.5500   21.1930 C   0  0  0  0  0  0  0  0  0  0  0  0
  -22.0630  -12.8430   22.0650 N   0  0  0  0  0  0  0  0  0  0  0  0
  -22.3220  -14.5810   20.6940 O   0  0  0  0  0  0  0  0  0  0  0  0
  -22.4400  -12.0070   22.4880 H   0  0  0  0  0  0  0  0  0  0  0  0
  -21.1290  -13.1420   22.3150 H   0  0  0  0  0  0  0  0  0  0  0  0
  -25.3760  -15.2280   20.3220 N   0  0  0  0  0  0  0  0  0  0  0  0
  -24.6030  -15.8750   20.4380 H   0  0  0  0  0  0  0  0  0  0  0  0
  -26.1980  -15.6720   19.9360 H   0  0  0  0  0  0  0  0  0  0  0  0
  -31.7940  -20.2190   22.3060 N   0  0  0  0  0  0  0  0  0  0  0  0
  -32.5100  -19.8580   22.9310 H   0  0  0  0  0  0  0  0  0  0  0  0
  -32.2330  -20.9220   21.7180 H   0  0  0  0  0  0  0  0  0  0  0  0
  -29.4760  -23.2260   20.9870 C   0  0  0  0  0  0  0  0  0  0  0  0
  -29.7010  -21.8790   21.0280 N   0  0  0  0  0  0  0  0  0  0  0  0
  -30.2690  -23.9380   21.6040 O   0  0  0  0  0  0  0  0  0  0  0  0
  -30.4810  -21.6320   21.6340 H   0  0  0  0  0  0  0  0  0  0  0  0
  -28.2830  -23.9430   20.2640 C   0  0  0  0  0  2  0  0  0  0  0  0
  -29.9340  -25.3880   18.8420 C   0  0  0  0  0  1  0  0  0  0  0  0
  -28.5420  -25.3240   19.4940 C   0  0  0  0  0  3  0  0  0  0  0  0
  -28.3840  -26.6030   20.2000 O   0  0  0  0  0  0  0  0  0  0  0  0
  -24.5930  -31.9010   23.2240 C   0  0  0  0  0  0  0  0  0  0  0  0
  -27.2140  -27.3700   20.1480 C   0  0  0  0  0  0  0  0  0  0  0  0
  -23.3850  -30.4930   21.5970 C   0  0  0  0  0  3  0  0  0  0  0  0
  -24.8270  -28.9450   20.1630 C   0  0  0  0  0  0  0  0  0  0  0  0
  -25.9180  -30.8290   21.3840 C   0  0  0  0  0  2  0  0  0  0  0  0
  -25.9950  -29.4490   20.7450 C   0  0  0  0  0  0  0  0  0  0  0  0
  -27.1850  -28.6700   20.7280 C   0  0  0  0  0  3  0  0  0  0  0  0
  -26.0100  -26.8980   19.5680 C   0  0  0  0  0  3  0  0  0  0  0  0
  -24.8340  -27.6720   19.5700 C   0  0  0  0  0  3  0  0  0  0  0  0
  -23.5880  -29.8170   20.2150 C   0  0  0  0  0  2  0  0  0  0  0  0
  -24.6520  -31.0900   22.1260 N   0  0  0  0  0  0  0  0  0  0  0  0
  -23.5120  -32.1720   23.7680 O   0  0  0  0  0  0  0  0  0  0  0  0
  -22.7350  -29.4750   22.5640 C   0  0  0  0  0  0  0  0  0  0  0  0
  -21.4090  -29.2920   22.4500 N   0  0  0  0  0  0  0  0  0  0  0  0
  -23.4200  -28.8520   23.3770 O   0  0  0  0  0  0  0  0  0  0  0  0
  -20.9140  -29.8490   21.7700 H   0  0  0  0  0  0  0  0  0  0  0  0
  -18.0350  -28.1040   22.9780 C   0  0  0  0  0  0  0  0  0  0  0  0
  -20.5970  -28.3560   23.2280 C   0  0  0  0  0  3  0  0  0  0  0  0
  -20.6900  -26.9240   22.6520 C   0  0  0  0  0  2  0  0  0  0  0  0
  -19.5780  -26.6050   21.6480 C   0  0  0  0  0  2  0  0  0  0  0  0
  -18.2020  -26.7560   22.3020 C   0  0  0  0  0  2  0  0  0  0  0  0
  -19.1590  -28.8650   23.3980 C   0  0  0  0  0  0  0  0  0  0  0  0
  -18.9440  -30.1300   23.9900 C   0  0  0  0  0  3  0  0  0  0  0  0
  -17.6400  -30.6320   24.1630 C   0  0  0  0  0  3  0  0  0  0  0  0
  -16.5310  -29.8690   23.7570 C   0  0  0  0  0  3  0  0  0  0  0  0
  -16.7310  -28.6060   23.1710 C   0  0  0  0  0  3  0  0  0  0  0  0
  -25.8780  -32.5420   23.8340 C   0  0  0  0  0  3  0  0  0  0  0  0
  -26.4060  -31.7780   25.1080 C   0  0  1  0  0  0  0  0  0  0  0  0
  -25.3220  -31.5350   26.1840 C   0  0  0  0  0  1  0  0  0  0  0  0
  -26.9880  -30.4050   24.7080 C   0  0  0  0  0  1  0  0  0  0  0  0
  -27.5570  -32.5770   25.7600 C   0  0  0  0  0  1  0  0  0  0  0  0
  -25.5660  -33.9400   24.1620 N   0  0  0  0  0  0  0  0  0  0  0  0
  -25.9010  -34.9900   23.4040 C   0  0  0  0  0  0  0  0  0  0  0  0
  -26.5720  -34.8840   22.3740 O   0  0  0  0  0  0  0  0  0  0  0  0
  -24.9660  -34.0920   24.9600 H   0  0  0  0  0  0  0  0  0  0  0  0
  -24.1820  -36.7850   23.0380 C   0  0  0  0  0  1  0  0  0  0  0  0
  -25.4150  -36.3790   23.8610 C   0  0  0  0  0  3  0  0  0  0  0  0
  -27.5400  -37.2550   24.7220 C   0  0  0  0  0  1  0  0  0  0  0  0
  -26.4530  -37.4300   23.7620 N   0  0  0  0  0  0  0  0  0  0  0  0
  -26.0490  -38.3510   23.9050 H   0  0  0  0  0  0  0  0  0  0  0  0
  2  1  1  0
  2 11  1  0
  2 50  1  0
  3 15  1  0
  4  9  1  0
  5  6  1  0
  5  4  1  0
  7  6  1  0
  7 21  1  0
  7  8  1  0
  9  3  1  0
  9  8  1  0
 10  3  2  0
 11 12  2  0
 12 16  1  0
 12 46  1  0
 13 16  1  0
 14 13  2  0
 14 11  1  0
 15 17  1  0
 15 13  1  0
 18 19  2  0
 19 38  1  0
 20 19  1  0
 20 23  1  0
 21 18  1  0
 21 22  1  0
 22 20  2  0
 23 24  1  0
 24 25  2  0
 26 29  1  0
 26 25  1  0
 27 26  2  0
 28 27  1  0
 28 23  2  0
 29 30  1  0
 30 31  1  0
 31 32  2  0
 33 32  1  0
 33 37  1  0
 34 33  2  0
 35 30  2  0
 35 34  1  0
 36 35  1  0
 38 39  1  0
 39 42  1  0
 39 41  1  0
 40 38  2  0
 43 44  1  0
 43 18  1  0
 45 43  1  0
 46 47  1  0
 48 46  1  0
 49 50  1  0
 49 51  2  0
 50 52  1  0
 53 49  1  0
 55 54  1  0
 55 56  1  0
 55 53  1  0
 57 68  2  0
 58 56  1  0
 58 63  1  0
 59 67  1  0
 59 69  1  0
 60 66  1  0
 60 62  1  0
 61 67  1  0
 62 61  1  0
 63 62  2  0
 64 65  1  0
 64 58  2  0
 65 60  2  0
 66 59  1  0
 67 57  1  0
 69 71  2  0
 70 69  1  0
 72 70  1  0
 73 82  2  0
 73 78  1  0
 74 70  1  0
 74 78  1  0
 75 74  1  0
 76 77  1  0
 76 75  1  0
 77 73  1  0
 78 79  2  0
 79 80  1  0
 81 80  2  0
 82 81  1  0
 83 57  1  0
 83 88  1  0
 83 84  1  0
 84 87  1  1
 84 85  1  0
 86 84  1  0
 88 91  1  0
 89 93  1  0
 89 88  1  0
 90 89  2  0
 93 92  1  0
 95 93  1  0
 95 96  1  0
 95 94  1  0
M  ISO  4   3 100  15 100  55 101  56 101
M  END
>  <TORSDO>  (20) 
F 20

>  <SCORE>  (20) 
-14.055

>  <name>  (20) 
19

>  <ligand_id>  (20) 
19

>  <original_smiles>  (20) 
[H]c1c([H])c([H])c2c(c1[H])C([H])([H])C([H])([H])C([H])([H])C2([H])N([H])C(=O)C1([H])N(C(=O)C([H])(N([H])C(=O)C([H])(N([H])C([H])([H])[H])C([H])([H])[H])C(C([H])([H])[H])(C([H])([H])[H])C([H])([H])[H])C([H])([H])c2c([H])c(OC([H])(C([H])([H])[H])C([H])([H])C(=O)N([H])C([H])(c3nc(N([H])C(=O)N4C([H])([H])C([H])([H])C([H])([H])C([H])(n5nc(-c6c([H])c([H])c(Oc7c([H])c([H])c(F)c([H])c7F)c([H])c6[H])c(C(=O)N([H])[H])c5N([H])[H])C4([H])[H])sc3N([H])[H])C([H])([H])[H])c([H])c([H])c2C1([H])[H]

>  <smiles>  (20) 
[H]c1c([H])c([H])c2c(c1[H])C([H])([H])C([H])([H])C([H])([H])C2([H])N([H])C(=O)C1([H])N(C(=O)C([H])(N([H])C(=O)C([H])(N([H])C([H])([H])[H])C([H])([H])[H])C(C([H])([H])[H])(C([H])([H])[H])C([H])([H])[H])C([H])([H])c2c([H])c(OC([H])(C([H])([H])[H])C([H])([H])C(=O)N([H])C([H])(c3nc(N([H])C(=O)N4C([H])([H])C([H])([H])C([H])([H])C([H])(n5nc(-c6c([H])c([H])c(Oc7c([H])c([H])c(F)c([H])c7F)c([H])c6[H])c(C(=O)N([H])[H])c5N([H])[H])C4([H])[H])sc3N([H])[H])C([H])([H])[H])c([H])c([H])c2C1([H])[H]

$$$$
20:0:0
     RDKit          3D

 93101  0  0  1  0  0  0  0  0999 V2000
  -29.2730  -23.8810   22.0090 C   0  0  0  0  0  1  0  0  0  0  0  0
  -29.2770  -23.7370   20.4800 C   0  0  0  0  0  3  0  0  0  0  0  0
  -28.3940  -18.4960   19.7230 C   0  0  0  0  0  3  0  0  0  0  0  0
  -29.6450  -18.6640   20.2620 C   0  0  0  0  0  0  0  0  0  0  0  0
  -28.8920  -20.9330   20.1020 C   0  0  0  0  0  0  0  0  0  0  0  0
  -29.8990  -20.0810   20.4840 N   0  0  0  0  0  0  0  0  0  0  0  0
  -28.7230  -22.3740   20.1120 N   0  0  0  0  0  0  0  0  0  0  0  0
  -27.5380  -20.0030   19.4580 S   0  0  0  0  0  0  0  0  0  0  0  0
  -27.8300  -22.5380   19.6600 H   0  0  0  0  0  0  0  0  0  0  0  0
  -30.6460  -17.4840   20.5870 C   0  0  0  0  0  2  0  0  0  0  0  0
  -30.9340  -14.8840   20.3460 C   0  0  0  0  0  0  0  0  0  0  0  0
  -30.7330  -12.5910   19.3700 C   0  0  0  0  0  2  0  0  0  0  0  0
  -29.8160  -12.6370   18.1260 C   0  0  0  0  0  2  0  0  0  0  0  0
  -28.3360  -12.4950   18.5300 C   0  0  0  0  0  2  0  0  0  0  0  0
  -27.9530  -13.4160   19.7200 C   0  0  0  0  0  3  0  0  0  0  0  0
  -28.9850  -13.3360   20.8640 C   0  0  0  0  0  2  0  0  0  0  0  0
  -30.2950  -13.6680   20.2910 N   0  0  0  0  0  0  0  0  0  0  0  0
  -32.1160  -14.9720   20.0020 O   0  0  0  0  0  0  0  0  0  0  0  0
  -30.1900  -16.0240   20.6050 N   0  0  0  0  0  0  0  0  0  0  0  0
  -29.2280  -15.8670   20.8650 H   0  0  0  0  0  0  0  0  0  0  0  0
  -25.5650  -14.0610   20.4060 C   0  0  0  0  0  0  0  0  0  0  0  0
  -24.4800  -13.3120   20.7790 C   0  0  0  0  0  0  0  0  0  0  0  0
  -24.9180  -11.9520   20.7650 C   0  0  0  0  0  0  0  0  0  0  0  0
  -26.5940  -13.1590   20.1920 N   0  0  0  0  0  0  0  0  0  0  0  0
  -26.2120  -11.8870   20.4720 N   0  0  0  0  0  0  0  0  0  0  0  0
  -24.1670  -10.7060   20.9590 C   0  0  0  0  0  0  0  0  0  0  0  0
  -24.5510   -9.7520   21.9260 C   0  0  0  0  0  3  0  0  0  0  0  0
  -23.7990   -8.5700   22.1020 C   0  0  0  0  0  3  0  0  0  0  0  0
  -22.6520   -8.3310   21.3100 C   0  0  0  0  0  0  0  0  0  0  0  0
  -22.2870   -9.2730   20.3320 C   0  0  0  0  0  3  0  0  0  0  0  0
  -23.0390  -10.4480   20.1550 C   0  0  0  0  0  3  0  0  0  0  0  0
  -21.8750   -7.2000   21.3940 O   0  0  0  0  0  0  0  0  0  0  0  0
  -21.7440   -6.5040   22.5680 C   0  0  0  0  0  0  0  0  0  0  0  0
  -21.2350   -7.1080   23.7380 C   0  0  0  0  0  3  0  0  0  0  0  0
  -21.0510   -6.3400   24.9040 C   0  0  0  0  0  3  0  0  0  0  0  0
  -21.3660   -4.9670   24.9010 C   0  0  0  0  0  0  0  0  0  0  0  0
  -21.8680   -4.3620   23.7360 C   0  0  0  0  0  3  0  0  0  0  0  0
  -22.0540   -5.1290   22.5720 C   0  0  0  0  0  0  0  0  0  0  0  0
  -22.5190   -4.5380   21.4440 F   0  0  0  0  0  0  0  0  0  0  0  0
  -21.1820   -4.2260   26.0200 F   0  0  0  0  0  0  0  0  0  0  0  0
  -23.0900  -13.8190   21.0240 C   0  0  0  0  0  0  0  0  0  0  0  0
  -22.3410  -13.1540   21.8960 N   0  0  0  0  0  0  0  0  0  0  0  0
  -22.6760  -14.8400   20.4750 O   0  0  0  0  0  0  0  0  0  0  0  0
  -22.6910  -12.3300   22.3630 H   0  0  0  0  0  0  0  0  0  0  0  0
  -21.4080  -13.4780   22.1070 H   0  0  0  0  0  0  0  0  0  0  0  0
  -25.7560  -15.4220   20.2030 N   0  0  0  0  0  0  0  0  0  0  0  0
  -24.9630  -16.0530   20.2010 H   0  0  0  0  0  0  0  0  0  0  0  0
  -26.5280  -15.7580   19.6440 H   0  0  0  0  0  0  0  0  0  0  0  0
  -28.5580  -25.0310   19.7440 C   0  0  0  0  0  3  0  0  0  0  0  0
  -30.5550  -25.3810   18.1320 C   0  0  0  0  0  1  0  0  0  0  0  0
  -28.5920  -23.9970   17.3300 C   0  0  0  0  0  1  0  0  0  0  0  0
  -29.0380  -25.1460   18.2580 C   0  0  0  0  0  3  0  0  0  0  0  0
  -28.6010  -26.4600   20.2820 O   0  0  0  0  0  0  0  0  0  0  0  0
  -24.6100  -31.8090   23.2550 C   0  0  0  0  0  0  0  0  0  0  0  0
  -27.4770  -27.3410   20.1900 C   0  0  0  0  0  0  0  0  0  0  0  0
  -23.5140  -30.4060   21.5510 C   0  0  0  0  0  3  0  0  0  0  0  0
  -25.0670  -28.9360   20.1390 C   0  0  0  0  0  0  0  0  0  0  0  0
  -26.0550  -30.7940   21.4670 C   0  0  0  0  0  2  0  0  0  0  0  0
  -26.2030  -29.4290   20.7890 C   0  0  0  0  0  0  0  0  0  0  0  0
  -27.4080  -28.6440   20.8020 C   0  0  0  0  0  3  0  0  0  0  0  0
  -26.3070  -26.9360   19.5050 C   0  0  0  0  0  3  0  0  0  0  0  0
  -25.1260  -27.6990   19.4840 C   0  0  0  0  0  3  0  0  0  0  0  0
  -23.8000  -29.7700   20.1650 C   0  0  0  0  0  2  0  0  0  0  0  0
  -24.7430  -31.0200   22.1470 N   0  0  0  0  0  0  0  0  0  0  0  0
  -23.4980  -32.0380   23.7550 O   0  0  0  0  0  0  0  0  0  0  0  0
  -22.8520  -29.3480   22.4660 C   0  0  0  0  0  0  0  0  0  0  0  0
  -21.5360  -29.1240   22.2900 N   0  0  0  0  0  0  0  0  0  0  0  0
  -23.5240  -28.7280   23.2950 O   0  0  0  0  0  0  0  0  0  0  0  0
  -21.0520  -29.6690   21.5910 H   0  0  0  0  0  0  0  0  0  0  0  0
  -18.1890  -27.8060   22.6730 C   0  0  0  0  0  0  0  0  0  0  0  0
  -20.7310  -28.1440   23.0150 C   0  0  0  0  0  3  0  0  0  0  0  0
  -20.8930  -26.7320   22.4060 C   0  0  0  0  0  2  0  0  0  0  0  0
  -19.8300  -26.4010   21.3550 C   0  0  0  0  0  2  0  0  0  0  0  0
  -18.4280  -26.4840   21.9650 C   0  0  0  0  0  2  0  0  0  0  0  0
  -19.2700  -28.5950   23.1500 C   0  0  0  0  0  0  0  0  0  0  0  0
  -18.9940  -29.8330   23.7720 C   0  0  0  0  0  3  0  0  0  0  0  0
  -17.6690  -30.2870   23.9140 C   0  0  0  0  0  3  0  0  0  0  0  0
  -16.6020  -29.4970   23.4510 C   0  0  0  0  0  3  0  0  0  0  0  0
  -16.8620  -28.2570   22.8390 C   0  0  0  0  0  3  0  0  0  0  0  0
  -25.8450  -32.4770   23.9330 C   0  0  0  0  0  3  0  0  0  0  0  0
  -26.3050  -31.7370   25.2490 C   0  0  1  0  0  0  0  0  0  0  0  0
  -25.1580  -31.4990   26.2590 C   0  0  0  0  0  1  0  0  0  0  0  0
  -26.9320  -30.3650   24.9190 C   0  0  0  0  0  1  0  0  0  0  0  0
  -27.4010  -32.5630   25.9620 C   0  0  0  0  0  1  0  0  0  0  0  0
  -25.4920  -33.8750   24.2250 N   0  0  0  0  0  0  0  0  0  0  0  0
  -25.8340  -34.9210   23.4610 C   0  0  0  0  0  0  0  0  0  0  0  0
  -26.5460  -34.8150   22.4600 O   0  0  0  0  0  0  0  0  0  0  0  0
  -24.8580  -34.0300   24.9960 H   0  0  0  0  0  0  0  0  0  0  0  0
  -24.0770  -36.6640   23.0150 C   0  0  0  0  0  1  0  0  0  0  0  0
  -25.2990  -36.3060   23.8750 C   0  0  0  0  0  3  0  0  0  0  0  0
  -27.3820  -37.2580   24.7610 C   0  0  0  0  0  1  0  0  0  0  0  0
  -26.3120  -37.3800   23.7750 N   0  0  0  0  0  0  0  0  0  0  0  0
  -25.8810  -38.2940   23.8880 H   0  0  0  0  0  0  0  0  0  0  0  0
  2  1  1  0
  3  4  2  0
  4  6  1  0
  4 10  1  0
  5  7  1  0
  5  6  2  0
  7  2  1  0
  8  3  1  0
  8  5  1  0
  9  7  1  0
 10 19  1  0
 11 19  1  0
 12 17  1  0
 13 14  1  0
 13 12  1  0
 15 14  1  0
 15 24  1  0
 15 16  1  0
 17 11  1  0
 17 16  1  0
 18 11  2  0
 19 20  1  0
 21 22  2  0
 22 41  1  0
 23 22  1  0
 23 26  1  0
 24 21  1  0
 24 25  1  0
 25 23  2  0
 26 27  1  0
 27 28  2  0
 29 32  1  0
 29 28  1  0
 30 29  2  0
 31 30  1  0
 31 26  2  0
 32 33  1  0
 33 38  2  0
 33 34  1  0
 34 35  2  0
 36 35  1  0
 36 40  1  0
 37 36  2  0
 38 37  1  0
 39 38  1  0
 41 42  1  0
 42 45  1  0
 42 44  1  0
 43 41  2  0
 46 21  1  0
 47 46  1  0
 48 46  1  0
 49 52  1  0
 49 53  1  0
 49  2  1  0
 50 52  1  0
 51 52  1  0
 54 65  2  0
 55 53  1  0
 55 60  1  0
 56 64  1  0
 56 66  1  0
 57 63  1  0
 57 59  1  0
 58 64  1  0
 59 60  2  0
 59 58  1  0
 61 55  2  0
 62 61  1  0
 62 57  2  0
 63 56  1  0
 64 54  1  0
 66 68  2  0
 67 66  1  0
 69 67  1  0
 70 79  2  0
 70 75  1  0
 71 67  1  0
 71 75  1  0
 72 71  1  0
 73 74  1  0
 73 72  1  0
 74 70  1  0
 75 76  2  0
 76 77  1  0
 78 77  2  0
 79 78  1  0
 80 54  1  0
 80 85  1  0
 80 81  1  0
 81 84  1  1
 81 82  1  0
 83 81  1  0
 85 88  1  0
 86 90  1  0
 86 85  1  0
 87 86  2  0
 90 89  1  0
 92 90  1  0
 92 93  1  0
 92 91  1  0
M  ISO  4  11 100  19 100  49 101  53 101
M  END
>  <TORSDO>  (21) 
F 20

>  <SCORE>  (21) 
-13.579

>  <name>  (21) 
20

>  <ligand_id>  (21) 
20

>  <original_smiles>  (21) 
[H]c1sc(N([H])C([H])(C([H])([H])[H])C([H])(Oc2c([H])c([H])c3c(c2[H])C([H])([H])N(C(=O)C([H])(N([H])C(=O)C([H])(N([H])C([H])([H])[H])C([H])([H])[H])C(C([H])([H])[H])(C([H])([H])[H])C([H])([H])[H])C([H])(C(=O)N([H])C2([H])c4c([H])c([H])c([H])c([H])c4C([H])([H])C([H])([H])C2([H])[H])C3([H])[H])C([H])(C([H])([H])[H])C([H])([H])[H])nc1C([H])([H])N([H])C(=O)N1C([H])([H])C([H])([H])C([H])([H])C([H])(n2nc(-c3c([H])c([H])c(Oc4c([H])c([H])c(F)c([H])c4F)c([H])c3[H])c(C(=O)N([H])[H])c2N([H])[H])C1([H])[H]

>  <smiles>  (21) 
[H]c1sc(N([H])C([H])(C([H])([H])[H])C([H])(Oc2c([H])c([H])c3c(c2[H])C([H])([H])N(C(=O)C([H])(N([H])C(=O)C([H])(N([H])C([H])([H])[H])C([H])([H])[H])C(C([H])([H])[H])(C([H])([H])[H])C([H])([H])[H])C([H])(C(=O)N([H])C2([H])c4c([H])c([H])c([H])c([H])c4C([H])([H])C([H])([H])C2([H])[H])C3([H])[H])C([H])(C([H])([H])[H])C([H])([H])[H])nc1C([H])([H])N([H])C(=O)N1C([H])([H])C([H])([H])C([H])([H])C([H])(n2nc(-c3c([H])c([H])c(Oc4c([H])c([H])c(F)c([H])c4F)c([H])c3[H])c(C(=O)N([H])[H])c2N([H])[H])C1([H])[H]

$$$$
21:0:0
     RDKit          3D

 93101  0  0  1  0  0  0  0  0999 V2000
  -27.4020  -21.1520   20.2800 C   0  0  0  0  0  1  0  0  0  0  0  0
  -28.6860  -21.6160   20.9730 C   0  0  0  0  0  3  0  0  0  0  0  0
  -31.7390  -17.4420   20.8990 C   0  0  0  0  0  3  0  0  0  0  0  0
  -30.4100  -17.0900   20.8230 C   0  0  0  0  0  0  0  0  0  0  0  0
  -30.2580  -19.4010   20.7460 C   0  0  0  0  0  0  0  0  0  0  0  0
  -29.5620  -18.2380   20.7810 N   0  0  0  0  0  0  0  0  0  0  0  0
  -29.8180  -20.7340   20.6530 N   0  0  0  0  0  0  0  0  0  0  0  0
  -31.9920  -19.1590   20.8220 S   0  0  0  0  0  0  0  0  0  0  0  0
  -30.6180  -21.3610   20.6300 H   0  0  0  0  0  0  0  0  0  0  0  0
  -30.6670  -14.5920   20.4510 C   0  0  0  0  0  0  0  0  0  0  0  0
  -30.3640  -12.4090   19.3350 C   0  0  0  0  0  2  0  0  0  0  0  0
  -29.4340  -12.6120   18.1220 C   0  0  0  0  0  2  0  0  0  0  0  0
  -27.9650  -12.4420   18.5520 C   0  0  0  0  0  2  0  0  0  0  0  0
  -27.6130  -13.2880   19.8050 C   0  0  0  0  0  3  0  0  0  0  0  0
  -28.6680  -13.1070   20.9200 C   0  0  0  0  0  2  0  0  0  0  0  0
  -29.9820  -13.4150   20.3430 N   0  0  0  0  0  0  0  0  0  0  0  0
  -31.8330  -14.6700   20.0550 O   0  0  0  0  0  0  0  0  0  0  0  0
  -29.9600  -15.7080   20.8130 N   0  0  0  0  0  0  0  0  0  0  0  0
  -28.9830  -15.5570   21.0100 H   0  0  0  0  0  0  0  0  0  0  0  0
  -25.2160  -13.8850   20.5140 C   0  0  0  0  0  0  0  0  0  0  0  0
  -24.1480  -13.1100   20.8740 C   0  0  0  0  0  0  0  0  0  0  0  0
  -24.6110  -11.7590   20.8440 C   0  0  0  0  0  0  0  0  0  0  0  0
  -26.2610  -13.0060   20.2800 N   0  0  0  0  0  0  0  0  0  0  0  0
  -25.9030  -11.7230   20.5400 N   0  0  0  0  0  0  0  0  0  0  0  0
  -23.8860  -10.4950   21.0260 C   0  0  0  0  0  0  0  0  0  0  0  0
  -24.3010   -9.5380   21.9780 C   0  0  0  0  0  3  0  0  0  0  0  0
  -23.5760   -8.3380   22.1500 C   0  0  0  0  0  3  0  0  0  0  0  0
  -22.4240   -8.0880   21.3690 C   0  0  0  0  0  0  0  0  0  0  0  0
  -22.0280   -9.0340   20.4070 C   0  0  0  0  0  3  0  0  0  0  0  0
  -22.7530  -10.2250   20.2330 C   0  0  0  0  0  3  0  0  0  0  0  0
  -21.6730   -6.9400   21.4450 O   0  0  0  0  0  0  0  0  0  0  0  0
  -21.5830   -6.2190   22.6080 C   0  0  0  0  0  0  0  0  0  0  0  0
  -21.0770   -6.7830   23.7980 C   0  0  0  0  0  3  0  0  0  0  0  0
  -20.9350   -5.9850   24.9510 C   0  0  0  0  0  3  0  0  0  0  0  0
  -21.2920   -4.6240   24.9150 C   0  0  0  0  0  0  0  0  0  0  0  0
  -21.7920   -4.0590   23.7270 C   0  0  0  0  0  3  0  0  0  0  0  0
  -21.9360   -4.8550   22.5770 C   0  0  0  0  0  0  0  0  0  0  0  0
  -22.3980   -4.3000   21.4300 F   0  0  0  0  0  0  0  0  0  0  0  0
  -21.1500   -3.8540   26.0190 F   0  0  0  0  0  0  0  0  0  0  0  0
  -22.7470  -13.5870   21.1400 C   0  0  0  0  0  0  0  0  0  0  0  0
  -22.0130  -12.8870   21.9960 N   0  0  0  0  0  0  0  0  0  0  0  0
  -22.3150  -14.6150   20.6230 O   0  0  0  0  0  0  0  0  0  0  0  0
  -22.3760  -12.0570   22.4400 H   0  0  0  0  0  0  0  0  0  0  0  0
  -21.0760  -13.1920   22.2170 H   0  0  0  0  0  0  0  0  0  0  0  0
  -25.3810  -15.2550   20.3400 N   0  0  0  0  0  0  0  0  0  0  0  0
  -24.6190  -15.9120   20.4650 H   0  0  0  0  0  0  0  0  0  0  0  0
  -26.2210  -15.6940   19.9880 H   0  0  0  0  0  0  0  0  0  0  0  0
  -29.0620  -23.1210   20.6460 C   0  0  0  0  0  3  0  0  0  0  0  0
  -30.3690  -23.3150   21.1660 O   0  0  0  0  0  0  0  0  0  0  0  0
  -30.7310  -24.0790   20.7310 H   0  0  0  0  0  0  0  0  0  0  0  0
  -28.0850  -24.2160   21.2160 C   0  0  0  0  0  2  0  0  0  0  0  0
  -28.5400  -25.7210   21.3610 C   0  0  0  0  0  2  0  0  0  0  0  0
  -28.4290  -26.6240   20.2330 O   0  0  0  0  0  0  0  0  0  0  0  0
  -24.6050  -31.9080   23.2190 C   0  0  0  0  0  0  0  0  0  0  0  0
  -27.2970  -27.4200   20.2220 C   0  0  0  0  0  0  0  0  0  0  0  0
  -23.4300  -30.4900   21.5680 C   0  0  0  0  0  3  0  0  0  0  0  0
  -24.9120  -28.9480   20.1710 C   0  0  0  0  0  0  0  0  0  0  0  0
  -25.9630  -30.8460   21.4140 C   0  0  0  0  0  2  0  0  0  0  0  0
  -26.0610  -29.4710   20.7770 C   0  0  0  0  0  0  0  0  0  0  0  0
  -27.2610  -28.7160   20.7980 C   0  0  0  0  0  3  0  0  0  0  0  0
  -26.1370  -26.9210   19.6010 C   0  0  0  0  0  3  0  0  0  0  0  0
  -24.9450  -27.6730   19.5790 C   0  0  0  0  0  3  0  0  0  0  0  0
  -23.6650  -29.8060   20.1940 C   0  0  0  0  0  2  0  0  0  0  0  0
  -24.6830  -31.0980   22.1230 N   0  0  0  0  0  0  0  0  0  0  0  0
  -23.5130  -32.1810   23.7380 O   0  0  0  0  0  0  0  0  0  0  0  0
  -22.7670  -29.4720   22.5240 C   0  0  0  0  0  0  0  0  0  0  0  0
  -21.4430  -29.2960   22.3920 N   0  0  0  0  0  0  0  0  0  0  0  0
  -23.4440  -28.8450   23.3450 O   0  0  0  0  0  0  0  0  0  0  0  0
  -20.9580  -29.8560   21.7040 H   0  0  0  0  0  0  0  0  0  0  0  0
  -18.0570  -28.1420   22.9000 C   0  0  0  0  0  0  0  0  0  0  0  0
  -20.6190  -28.3610   23.1570 C   0  0  0  0  0  3  0  0  0  0  0  0
  -20.6980  -26.9350   22.5660 C   0  0  0  0  0  2  0  0  0  0  0  0
  -19.5860  -26.6400   21.5540 C   0  0  0  0  0  2  0  0  0  0  0  0
  -18.2100  -26.7980   22.2080 C   0  0  0  0  0  2  0  0  0  0  0  0
  -19.1880  -28.8830   23.3300 C   0  0  0  0  0  0  0  0  0  0  0  0
  -18.9910  -30.1430   23.9370 C   0  0  0  0  0  3  0  0  0  0  0  0
  -17.6960  -30.6610   24.1160 C   0  0  0  0  0  3  0  0  0  0  0  0
  -16.5780  -29.9150   23.7030 C   0  0  0  0  0  3  0  0  0  0  0  0
  -16.7590  -28.6580   23.1000 C   0  0  0  0  0  3  0  0  0  0  0  0
  -25.8790  -32.5490   23.8530 C   0  0  0  0  0  3  0  0  0  0  0  0
  -25.5570  -33.9460   24.1710 N   0  0  0  0  0  0  0  0  0  0  0  0
  -25.8920  -34.9970   23.4110 C   0  0  0  0  0  0  0  0  0  0  0  0
  -26.5750  -34.8930   22.3880 O   0  0  0  0  0  0  0  0  0  0  0  0
  -24.9490  -34.1010   24.9610 H   0  0  0  0  0  0  0  0  0  0  0  0
  -24.1610  -36.7790   23.0180 C   0  0  0  0  0  1  0  0  0  0  0  0
  -25.3890  -36.3840   23.8550 C   0  0  0  0  0  3  0  0  0  0  0  0
  -27.4990  -37.2800   24.7290 C   0  0  0  0  0  1  0  0  0  0  0  0
  -26.4180  -37.4420   23.7610 N   0  0  0  0  0  0  0  0  0  0  0  0
  -26.0040  -38.3590   23.8970 H   0  0  0  0  0  0  0  0  0  0  0  0
  -26.3870  -31.7870   25.1380 C   0  0  1  0  0  0  0  0  0  0  0  0
  -25.2850  -31.5440   26.1950 C   0  0  0  0  0  1  0  0  0  0  0  0
  -26.9910  -30.4140   24.7630 C   0  0  0  0  0  1  0  0  0  0  0  0
  -27.5220  -32.5970   25.8100 C   0  0  0  0  0  1  0  0  0  0  0  0
  2  1  1  0
  4  3  2  0
  5  6  2  0
  5  8  1  0
  6  4  1  0
  7  5  1  0
  7  2  1  0
  8  3  1  0
  9  7  1  0
 10 18  1  0
 11 16  1  0
 12 13  1  0
 12 11  1  0
 14 13  1  0
 14 23  1  0
 14 15  1  0
 16 10  1  0
 16 15  1  0
 17 10  2  0
 18  4  1  0
 18 19  1  0
 20 21  2  0
 21 40  1  0
 22 21  1  0
 22 25  1  0
 23 20  1  0
 23 24  1  0
 24 22  2  0
 25 26  1  0
 26 27  2  0
 28 31  1  0
 28 27  1  0
 29 28  2  0
 30 29  1  0
 30 25  2  0
 31 32  1  0
 32 33  1  0
 33 34  2  0
 35 34  1  0
 35 39  1  0
 36 35  2  0
 37 32  2  0
 37 36  1  0
 38 37  1  0
 40 41  1  0
 41 44  1  0
 41 43  1  0
 42 40  2  0
 45 46  1  0
 45 20  1  0
 47 45  1  0
 48  2  1  0
 48 49  1  0
 48 51  1  0
 50 49  1  0
 51 52  1  0
 53 52  1  0
 54 65  2  0
 55 53  1  0
 55 60  1  0
 56 64  1  0
 56 66  1  0
 57 63  1  0
 57 59  1  0
 58 64  1  0
 59 60  2  0
 59 58  1  0
 61 55  2  0
 62 61  1  0
 62 57  2  0
 63 56  1  0
 64 54  1  0
 66 68  2  0
 67 66  1  0
 69 67  1  0
 70 79  2  0
 70 75  1  0
 71 67  1  0
 71 75  1  0
 72 71  1  0
 73 74  1  0
 73 72  1  0
 74 70  1  0
 75 76  2  0
 76 77  1  0
 78 77  2  0
 79 78  1  0
 80 54  1  0
 80 81  1  0
 80 90  1  0
 81 84  1  0
 82 86  1  0
 82 81  1  0
 83 82  2  0
 86 85  1  0
 88 86  1  0
 88 89  1  0
 88 87  1  0
 90 93  1  1
 90 91  1  0
 92 90  1  0
M  ISO  4  10 100  18 100  52 101  53 101
M  END
>  <TORSDO>  (22) 
F 21

>  <SCORE>  (22) 
-13.664

>  <name>  (22) 
21

>  <ligand_id>  (22) 
21

>  <original_smiles>  (22) 
[H]OC([H])(C([H])([H])C([H])([H])Oc1c([H])c([H])c2c(c1[H])C([H])([H])N(C(=O)C([H])(N([H])C(=O)C([H])(N([H])C([H])([H])[H])C([H])([H])[H])C(C([H])([H])[H])(C([H])([H])[H])C([H])([H])[H])C([H])(C(=O)N([H])C1([H])c3c([H])c([H])c([H])c([H])c3C([H])([H])C([H])([H])C1([H])[H])C2([H])[H])C([H])(N([H])c1nc(N([H])C(=O)N2C([H])([H])C([H])([H])C([H])([H])C([H])(n3nc(-c4c([H])c([H])c(Oc5c([H])c([H])c(F)c([H])c5F)c([H])c4[H])c(C(=O)N([H])[H])c3N([H])[H])C2([H])[H])c([H])s1)C([H])([H])[H]

>  <smiles>  (22) 
[H]OC([H])(C([H])([H])C([H])([H])Oc1c([H])c([H])c2c(c1[H])C([H])([H])N(C(=O)C([H])(N([H])C(=O)C([H])(N([H])C([H])([H])[H])C([H])([H])[H])C(C([H])([H])[H])(C([H])([H])[H])C([H])([H])[H])C([H])(C(=O)N([H])C1([H])c3c([H])c([H])c([H])c([H])c3C([H])([H])C([H])([H])C1([H])[H])C2([H])[H])C([H])(N([H])c1nc(N([H])C(=O)N2C([H])([H])C([H])([H])C([H])([H])C([H])(n3nc(-c4c([H])c([H])c(Oc5c([H])c([H])c(F)c([H])c5F)c([H])c4[H])c(C(=O)N([H])[H])c3N([H])[H])C2([H])[H])c([H])s1)C([H])([H])[H]

$$$$
22:0:0
     RDKit          3D

 95103  0  0  1  0  0  0  0  0999 V2000
  -30.4030  -17.8990   22.2500 C   0  0  0  0  0  3  0  0  0  0  0  0
  -30.4300  -19.5720   20.5040 C   0  0  0  0  0  3  0  0  0  0  0  0
  -30.2390  -18.9500   23.1630 C   0  0  0  0  0  3  0  0  0  0  0  0
  -30.5040  -18.2100   20.8830 C   0  0  0  0  0  0  0  0  0  0  0  0
  -30.2270  -20.5750   21.4810 C   0  0  0  0  0  0  0  0  0  0  0  0
  -29.2860  -22.8720   21.4930 C   0  0  0  0  0  0  0  0  0  0  0  0
  -30.1500  -20.2430   22.7920 N   0  0  0  0  0  0  0  0  0  0  0  0
  -30.1510  -21.9330   21.0510 N   0  0  0  0  0  0  0  0  0  0  0  0
  -28.3260  -22.5990   22.2210 O   0  0  0  0  0  0  0  0  0  0  0  0
  -30.8480  -22.2370   20.3830 H   0  0  0  0  0  0  0  0  0  0  0  0
  -30.7150  -17.1170   19.8410 C   0  0  0  0  0  2  0  0  0  0  0  0
  -31.0840  -14.6710   19.8850 C   0  0  0  0  0  0  0  0  0  0  0  0
  -30.6630  -12.4800   18.8680 C   0  0  0  0  0  2  0  0  0  0  0  0
  -29.6250  -12.6700   17.7430 C   0  0  0  0  0  2  0  0  0  0  0  0
  -28.1960  -12.5450   18.3040 C   0  0  0  0  0  2  0  0  0  0  0  0
  -27.9690  -13.4320   19.5600 C   0  0  0  0  0  3  0  0  0  0  0  0
  -29.1180  -13.2460   20.5800 C   0  0  0  0  0  2  0  0  0  0  0  0
  -30.3920  -13.5000   19.8900 N   0  0  0  0  0  0  0  0  0  0  0  0
  -32.1820  -14.7980   19.3380 O   0  0  0  0  0  0  0  0  0  0  0  0
  -30.3980  -15.7510   20.2860 N   0  0  0  0  0  0  0  0  0  0  0  0
  -29.5030  -15.6030   20.7230 H   0  0  0  0  0  0  0  0  0  0  0  0
  -25.7080  -14.0840   20.6110 C   0  0  0  0  0  0  0  0  0  0  0  0
  -24.6380  -13.3300   21.0190 C   0  0  0  0  0  0  0  0  0  0  0  0
  -25.0040  -11.9700   20.7880 C   0  0  0  0  0  0  0  0  0  0  0  0
  -26.6610  -13.1800   20.1630 N   0  0  0  0  0  0  0  0  0  0  0  0
  -26.2470  -11.8980   20.3270 N   0  0  0  0  0  0  0  0  0  0  0  0
  -24.2210  -10.7340   20.9230 C   0  0  0  0  0  0  0  0  0  0  0  0
  -24.6400   -9.6830   21.7660 C   0  0  0  0  0  3  0  0  0  0  0  0
  -23.8590   -8.5140   21.8930 C   0  0  0  0  0  3  0  0  0  0  0  0
  -22.6450   -8.3890   21.1780 C   0  0  0  0  0  0  0  0  0  0  0  0
  -22.2450   -9.4290   20.3210 C   0  0  0  0  0  3  0  0  0  0  0  0
  -23.0260  -10.5900   20.1900 C   0  0  0  0  0  3  0  0  0  0  0  0
  -21.8350   -7.2810   21.2200 O   0  0  0  0  0  0  0  0  0  0  0  0
  -21.7260   -6.5100   22.3500 C   0  0  0  0  0  0  0  0  0  0  0  0
  -21.2740   -7.0450   23.5770 C   0  0  0  0  0  3  0  0  0  0  0  0
  -21.1100   -6.2030   24.6950 C   0  0  0  0  0  3  0  0  0  0  0  0
  -21.3910   -4.8270   24.5870 C   0  0  0  0  0  0  0  0  0  0  0  0
  -21.8370   -4.2930   23.3660 C   0  0  0  0  0  3  0  0  0  0  0  0
  -22.0010   -5.1320   22.2500 C   0  0  0  0  0  0  0  0  0  0  0  0
  -22.4110   -4.6070   21.0700 F   0  0  0  0  0  0  0  0  0  0  0  0
  -21.2280   -4.0180   25.6590 F   0  0  0  0  0  0  0  0  0  0  0  0
  -23.3160  -13.8450   21.5080 C   0  0  0  0  0  0  0  0  0  0  0  0
  -22.6540  -13.0950   22.3830 N   0  0  0  0  0  0  0  0  0  0  0  0
  -22.8860  -14.9410   21.1520 O   0  0  0  0  0  0  0  0  0  0  0  0
  -23.0190  -12.2050   22.6860 H   0  0  0  0  0  0  0  0  0  0  0  0
  -21.7710  -13.4170   22.7560 H   0  0  0  0  0  0  0  0  0  0  0  0
  -25.9390  -15.4560   20.5680 N   0  0  0  0  0  0  0  0  0  0  0  0
  -25.2320  -16.1250   20.8470 H   0  0  0  0  0  0  0  0  0  0  0  0
  -26.7730  -15.8940   20.1940 H   0  0  0  0  0  0  0  0  0  0  0  0
  -29.4480  -24.3530   21.0750 C   0  0  0  0  0  2  0  0  0  0  0  0
  -30.4560  -24.7070   19.9580 C   0  0  0  0  0  3  0  0  0  0  0  0
  -31.7880  -24.6730   20.4520 O   0  0  0  0  0  0  0  0  0  0  0  0
  -32.3680  -24.9120   19.7340 H   0  0  0  0  0  0  0  0  0  0  0  0
  -30.1910  -26.0910   19.3010 C   0  0  0  0  0  2  0  0  0  0  0  0
  -29.7270  -27.0730   20.2410 O   0  0  0  0  0  0  0  0  0  0  0  0
  -24.9700  -31.3400   23.3520 C   0  0  0  0  0  0  0  0  0  0  0  0
  -28.4280  -27.5430   20.1970 C   0  0  0  0  0  0  0  0  0  0  0  0
  -24.0710  -29.8450   21.5980 C   0  0  0  0  0  3  0  0  0  0  0  0
  -25.8090  -28.6270   20.1850 C   0  0  0  0  0  0  0  0  0  0  0  0
  -26.5130  -30.6110   21.5380 C   0  0  0  0  0  2  0  0  0  0  0  0
  -26.8410  -29.3030   20.8470 C   0  0  0  0  0  0  0  0  0  0  0  0
  -28.1460  -28.7600   20.8610 C   0  0  0  0  0  3  0  0  0  0  0  0
  -27.3650  -26.8660   19.5500 C   0  0  0  0  0  3  0  0  0  0  0  0
  -26.0650  -27.4050   19.5410 C   0  0  0  0  0  3  0  0  0  0  0  0
  -24.4420  -29.2670   20.2050 C   0  0  0  0  0  2  0  0  0  0  0  0
  -25.1970  -30.6160   22.2200 N   0  0  0  0  0  0  0  0  0  0  0  0
  -23.8380  -31.4080   23.8510 O   0  0  0  0  0  0  0  0  0  0  0  0
  -23.5540  -28.6900   22.4870 C   0  0  0  0  0  0  0  0  0  0  0  0
  -22.3080  -28.2500   22.2350 N   0  0  0  0  0  0  0  0  0  0  0  0
  -24.2720  -28.1910   23.3550 O   0  0  0  0  0  0  0  0  0  0  0  0
  -21.7800  -28.7160   21.5130 H   0  0  0  0  0  0  0  0  0  0  0  0
  -19.2590  -26.3180   22.3350 C   0  0  0  0  0  0  0  0  0  0  0  0
  -21.6390  -27.1400   22.9160 C   0  0  0  0  0  3  0  0  0  0  0  0
  -22.1300  -25.7750   22.3780 C   0  0  0  0  0  2  0  0  0  0  0  0
  -21.2620  -25.2260   21.2420 C   0  0  0  0  0  2  0  0  0  0  0  0
  -19.8160  -25.0500   21.7090 C   0  0  0  0  0  2  0  0  0  0  0  0
  -20.1170  -27.3040   22.8870 C   0  0  0  0  0  0  0  0  0  0  0  0
  -19.5510  -28.4820   23.4230 C   0  0  0  0  0  3  0  0  0  0  0  0
  -18.1580  -28.6790   23.4150 C   0  0  0  0  0  3  0  0  0  0  0  0
  -17.3120  -27.6900   22.8810 C   0  0  0  0  0  3  0  0  0  0  0  0
  -17.8620  -26.5120   22.3450 C   0  0  0  0  0  3  0  0  0  0  0  0
  -26.1090  -32.1370   24.0590 C   0  0  0  0  0  3  0  0  0  0  0  0
  -25.6150  -33.4990   24.2940 N   0  0  0  0  0  0  0  0  0  0  0  0
  -25.8910  -34.5530   23.5130 C   0  0  0  0  0  0  0  0  0  0  0  0
  -26.6570  -34.4880   22.5470 O   0  0  0  0  0  0  0  0  0  0  0  0
  -24.9360  -33.6130   25.0330 H   0  0  0  0  0  0  0  0  0  0  0  0
  -23.9980  -36.1020   22.9410 C   0  0  0  0  0  1  0  0  0  0  0  0
  -25.2130  -35.8930   23.8580 C   0  0  0  0  0  3  0  0  0  0  0  0
  -27.1590  -37.0680   24.7830 C   0  0  0  0  0  1  0  0  0  0  0  0
  -26.1220  -37.0550   23.7550 N   0  0  0  0  0  0  0  0  0  0  0  0
  -25.6040  -37.9270   23.8120 H   0  0  0  0  0  0  0  0  0  0  0  0
  -26.5860  -31.4750   25.4100 C   0  0  1  0  0  0  0  0  0  0  0  0
  -25.4320  -31.1640   26.3910 C   0  0  0  0  0  1  0  0  0  0  0  0
  -27.3420  -30.1540   25.1370 C   0  0  0  0  0  1  0  0  0  0  0  0
  -27.5820  -32.4150   26.1280 C   0  0  0  0  0  1  0  0  0  0  0  0
  1  3  1  0
  2  4  1  0
  2  5  2  0
  4  1  2  0
  5  7  1  0
  6  9  2  0
  7  3  2  0
  8  5  1  0
  8  6  1  0
 10  8  1  0
 11 20  1  0
 11  4  1  0
 12 18  1  0
 12 20  1  0
 13 18  1  0
 14 15  1  0
 14 13  1  0
 16 15  1  0
 16 25  1  0
 16 17  1  0
 18 17  1  0
 19 12  2  0
 20 21  1  0
 22 23  2  0
 23 42  1  0
 24 27  1  0
 24 23  1  0
 25 26  1  0
 25 22  1  0
 26 24  2  0
 27 28  1  0
 28 29  2  0
 30 33  1  0
 30 29  1  0
 31 30  2  0
 32 31  1  0
 32 27  2  0
 33 34  1  0
 34 35  1  0
 35 36  2  0
 37 36  1  0
 37 41  1  0
 38 37  2  0
 39 34  2  0
 39 38  1  0
 40 39  1  0
 42 43  1  0
 43 45  1  0
 43 46  1  0
 44 42  2  0
 47 22  1  0
 47 48  1  0
 49 47  1  0
 50  6  1  0
 51 54  1  0
 51 52  1  0
 51 50  1  0
 53 52  1  0
 54 55  1  0
 56 67  2  0
 57 55  1  0
 57 62  1  0
 58 66  1  0
 58 68  1  0
 59 65  1  0
 59 61  1  0
 60 66  1  0
 61 62  2  0
 61 60  1  0
 63 57  2  0
 64 63  1  0
 64 59  2  0
 65 58  1  0
 66 56  1  0
 68 70  2  0
 69 68  1  0
 71 69  1  0
 72 81  2  0
 72 77  1  0
 73 69  1  0
 74 73  1  0
 75 76  1  0
 75 74  1  0
 76 72  1  0
 77 73  1  0
 77 78  2  0
 79 78  1  0
 80 79  2  0
 81 80  1  0
 82 56  1  0
 82 83  1  0
 82 92  1  0
 83 86  1  0
 84 88  1  0
 84 83  1  0
 85 84  2  0
 88 87  1  0
 90 91  1  0
 90 88  1  0
 90 89  1  0
 92 95  1  1
 92 93  1  0
 94 92  1  0
M  ISO  4  12 100  20 100  54 101  55 101
M  END
>  <TORSDO>  (23) 
F 21

>  <SCORE>  (23) 
-9.714

>  <name>  (23) 
22

>  <ligand_id>  (23) 
22

>  <original_smiles>  (23) 
[H]OC([H])(C([H])([H])Oc1c([H])c([H])c2c(c1[H])C([H])([H])N(C(=O)C([H])(N([H])C(=O)C([H])(N([H])C([H])([H])[H])C([H])([H])[H])C(C([H])([H])[H])(C([H])([H])[H])C([H])([H])[H])C([H])(C(=O)N([H])C1([H])c3c([H])c([H])c([H])c([H])c3C([H])([H])C([H])([H])C1([H])[H])C2([H])[H])C([H])([H])C(=O)N([H])c1nc([H])c([H])c(C([H])([H])N([H])C(=O)N2C([H])([H])C([H])([H])C([H])([H])C([H])(n3nc(-c4c([H])c([H])c(Oc5c([H])c([H])c(F)c([H])c5F)c([H])c4[H])c(C(=O)N([H])[H])c3N([H])[H])C2([H])[H])c1[H]

>  <smiles>  (23) 
[H]OC([H])(C([H])([H])Oc1c([H])c([H])c2c(c1[H])C([H])([H])N(C(=O)C([H])(N([H])C(=O)C([H])(N([H])C([H])([H])[H])C([H])([H])[H])C(C([H])([H])[H])(C([H])([H])[H])C([H])([H])[H])C([H])(C(=O)N([H])C1([H])c3c([H])c([H])c([H])c([H])c3C([H])([H])C([H])([H])C1([H])[H])C2([H])[H])C([H])([H])C(=O)N([H])c1nc([H])c([H])c(C([H])([H])N([H])C(=O)N2C([H])([H])C([H])([H])C([H])([H])C([H])(n3nc(-c4c([H])c([H])c(Oc5c([H])c([H])c(F)c([H])c5F)c([H])c4[H])c(C(=O)N([H])[H])c3N([H])[H])C2([H])[H])c1[H]

$$$$
23:0:0
     RDKit          3D

 98106  0  0  1  0  0  0  0  0999 V2000
  -29.9000  -20.7240   19.8760 N   0  0  0  0  0  0  0  0  0  0  0  0
  -29.6220  -20.4840   18.9320 H   0  0  0  0  0  0  0  0  0  0  0  0
  -31.2960  -14.9390   19.5190 C   0  0  0  0  0  0  0  0  0  0  0  0
  -30.9280  -12.7530   18.4040 C   0  0  0  0  0  2  0  0  0  0  0  0
  -29.7900  -12.9190   17.3750 C   0  0  0  0  0  2  0  0  0  0  0  0
  -28.4070  -12.7380   18.0350 C   0  0  0  0  0  2  0  0  0  0  0  0
  -28.2560  -13.5530   19.3450 C   0  0  0  0  0  3  0  0  0  0  0  0
  -29.4850  -13.3670   20.2620 C   0  0  0  0  0  2  0  0  0  0  0  0
  -30.6750  -13.7250   19.4780 N   0  0  0  0  0  0  0  0  0  0  0  0
  -32.4240  -15.1200   19.0510 O   0  0  0  0  0  0  0  0  0  0  0  0
  -30.8750  -17.1240   21.8180 C   0  0  0  0  0  3  0  0  0  0  0  0
  -30.6430  -19.5560   22.0350 C   0  0  0  0  0  0  0  0  0  0  0  0
  -30.8300  -18.2730   22.6180 C   0  0  0  0  0  0  0  0  0  0  0  0
  -30.6350  -17.2190   20.4430 C   0  0  0  0  0  0  0  0  0  0  0  0
  -30.3330  -19.5930   20.6350 C   0  0  0  0  0  0  0  0  0  0  0  0
  -30.3300  -18.4400   19.8980 N   0  0  0  0  0  0  0  0  0  0  0  0
  -30.4430  -15.9750   19.7540 N   0  0  0  0  0  0  0  0  0  0  0  0
  -29.4820  -15.6840   19.7290 H   0  0  0  0  0  0  0  0  0  0  0  0
  -26.0690  -14.1160   20.5690 C   0  0  0  0  0  0  0  0  0  0  0  0
  -25.0540  -13.3290   21.0420 C   0  0  0  0  0  0  0  0  0  0  0  0
  -25.4400  -11.9820   20.7650 C   0  0  0  0  0  0  0  0  0  0  0  0
  -27.0100  -13.2470   20.0400 N   0  0  0  0  0  0  0  0  0  0  0  0
  -26.6470  -11.9510   20.2150 N   0  0  0  0  0  0  0  0  0  0  0  0
  -24.7050  -10.7220   20.9370 C   0  0  0  0  0  0  0  0  0  0  0  0
  -25.0980   -9.7640   21.8950 C   0  0  0  0  0  3  0  0  0  0  0  0
  -24.3660   -8.5680   22.0530 C   0  0  0  0  0  3  0  0  0  0  0  0
  -23.2270   -8.3240   21.2490 C   0  0  0  0  0  0  0  0  0  0  0  0
  -22.8550   -9.2700   20.2790 C   0  0  0  0  0  3  0  0  0  0  0  0
  -23.5870  -10.4580   20.1210 C   0  0  0  0  0  3  0  0  0  0  0  0
  -22.4700   -7.1800   21.3140 O   0  0  0  0  0  0  0  0  0  0  0  0
  -22.1570   -6.5900   22.5110 C   0  0  0  0  0  0  0  0  0  0  0  0
  -21.4450   -7.2780   23.5190 C   0  0  0  0  0  3  0  0  0  0  0  0
  -21.0850   -6.6120   24.7070 C   0  0  0  0  0  3  0  0  0  0  0  0
  -21.4260   -5.2590   24.8880 C   0  0  0  0  0  0  0  0  0  0  0  0
  -22.1290   -4.5700   23.8830 C   0  0  0  0  0  3  0  0  0  0  0  0
  -22.4910   -5.2330   22.6980 C   0  0  0  0  0  0  0  0  0  0  0  0
  -23.1510   -4.5600   21.7250 F   0  0  0  0  0  0  0  0  0  0  0  0
  -21.0750   -4.6150   26.0250 F   0  0  0  0  0  0  0  0  0  0  0  0
  -23.7530  -13.8020   21.6240 C   0  0  0  0  0  0  0  0  0  0  0  0
  -23.1800  -13.0410   22.5510 N   0  0  0  0  0  0  0  0  0  0  0  0
  -23.2580  -14.8790   21.2930 O   0  0  0  0  0  0  0  0  0  0  0  0
  -23.5950  -12.1680   22.8390 H   0  0  0  0  0  0  0  0  0  0  0  0
  -22.3150  -13.3400   22.9790 H   0  0  0  0  0  0  0  0  0  0  0  0
  -26.2600  -15.4940   20.5250 N   0  0  0  0  0  0  0  0  0  0  0  0
  -25.5410  -16.1390   20.8370 H   0  0  0  0  0  0  0  0  0  0  0  0
  -27.0170  -15.9560   20.0390 H   0  0  0  0  0  0  0  0  0  0  0  0
  -29.7750  -18.5500   24.6850 C   0  0  0  0  0  1  0  0  0  0  0  0
  -30.9120  -18.0730   23.9700 O   0  0  0  0  0  0  0  0  0  0  0  0
  -32.0120  -20.9580   23.7730 C   0  0  0  0  0  1  0  0  0  0  0  0
  -30.7180  -20.7930   22.9510 C   0  0  0  0  0  2  0  0  0  0  0  0
  -31.6670  -22.4310   20.1160 C   0  0  0  0  0  1  0  0  0  0  0  0
  -30.1450  -22.1780   20.0890 C   0  0  0  0  0  3  0  0  0  0  0  0
  -29.4060  -23.0830   19.0280 C   0  0  0  0  0  2  0  0  0  0  0  0
  -29.4850  -24.6700   19.0350 C   0  0  0  0  0  3  0  0  0  0  0  0
  -30.8210  -25.1230   18.9380 O   0  0  0  0  0  0  0  0  0  0  0  0
  -30.7780  -26.0750   18.9250 H   0  0  0  0  0  0  0  0  0  0  0  0
  -28.7990  -25.4950   20.1700 C   0  0  0  0  0  2  0  0  0  0  0  0
  -28.8010  -26.9270   19.8780 O   0  0  0  0  0  0  0  0  0  0  0  0
  -24.6540  -31.8130   23.0700 C   0  0  0  0  0  0  0  0  0  0  0  0
  -27.5960  -27.6150   19.8840 C   0  0  0  0  0  0  0  0  0  0  0  0
  -23.5610  -30.4040   21.3570 C   0  0  0  0  0  3  0  0  0  0  0  0
  -25.1230  -29.0120   19.8950 C   0  0  0  0  0  0  0  0  0  0  0  0
  -26.0630  -30.9200   21.2060 C   0  0  0  0  0  2  0  0  0  0  0  0
  -26.2410  -29.5730   20.5250 C   0  0  0  0  0  0  0  0  0  0  0  0
  -27.4800  -28.8860   20.5110 C   0  0  0  0  0  3  0  0  0  0  0  0
  -26.4570  -27.0850   19.2380 C   0  0  0  0  0  3  0  0  0  0  0  0
  -25.2290  -27.7730   19.2420 C   0  0  0  0  0  3  0  0  0  0  0  0
  -23.8320  -29.8000   19.9530 C   0  0  0  0  0  2  0  0  0  0  0  0
  -24.7770  -31.0580   21.9390 N   0  0  0  0  0  0  0  0  0  0  0  0
  -23.5480  -31.9960   23.6020 O   0  0  0  0  0  0  0  0  0  0  0  0
  -22.9560  -29.3080   22.2670 C   0  0  0  0  0  0  0  0  0  0  0  0
  -21.6390  -29.0770   22.1340 N   0  0  0  0  0  0  0  0  0  0  0  0
  -23.6670  -28.6720   23.0470 O   0  0  0  0  0  0  0  0  0  0  0  0
  -21.1210  -29.6510   21.4840 H   0  0  0  0  0  0  0  0  0  0  0  0
  -18.3090  -27.7590   22.6370 C   0  0  0  0  0  0  0  0  0  0  0  0
  -20.8660  -28.0680   22.8610 C   0  0  0  0  0  3  0  0  0  0  0  0
  -20.9880  -26.6810   22.1860 C   0  0  0  0  0  2  0  0  0  0  0  0
  -19.8660  -26.4000   21.1800 C   0  0  0  0  0  2  0  0  0  0  0  0
  -18.5000  -26.4640   21.8670 C   0  0  0  0  0  2  0  0  0  0  0  0
  -19.4200  -28.5210   23.0900 C   0  0  0  0  0  0  0  0  0  0  0  0
  -19.1840  -29.7330   23.7710 C   0  0  0  0  0  3  0  0  0  0  0  0
  -17.8720  -30.1870   24.0020 C   0  0  0  0  0  3  0  0  0  0  0  0
  -16.7770  -29.4250   23.5620 C   0  0  0  0  0  3  0  0  0  0  0  0
  -16.9960  -28.2110   22.8860 C   0  0  0  0  0  3  0  0  0  0  0  0
  -25.8870  -32.5000   23.7370 C   0  0  0  0  0  3  0  0  0  0  0  0
  -25.4740  -33.8460   24.1570 N   0  0  0  0  0  0  0  0  0  0  0  0
  -25.7230  -34.9660   23.4660 C   0  0  0  0  0  0  0  0  0  0  0  0
  -26.3940  -34.9820   22.4310 O   0  0  0  0  0  0  0  0  0  0  0  0
  -24.8830  -33.9070   24.9740 H   0  0  0  0  0  0  0  0  0  0  0  0
  -23.8640  -36.6390   23.2140 C   0  0  0  0  0  1  0  0  0  0  0  0
  -25.1290  -36.2800   24.0090 C   0  0  0  0  0  3  0  0  0  0  0  0
  -27.1890  -37.2620   24.9150 C   0  0  0  0  0  1  0  0  0  0  0  0
  -26.0790  -37.4140   23.9750 N   0  0  0  0  0  0  0  0  0  0  0  0
  -25.6040  -38.2880   24.1860 H   0  0  0  0  0  0  0  0  0  0  0  0
  -26.4640  -31.6880   24.9610 C   0  0  1  0  0  0  0  0  0  0  0  0
  -25.3920  -31.2560   25.9860 C   0  0  0  0  0  1  0  0  0  0  0  0
  -27.1920  -30.4170   24.4700 C   0  0  0  0  0  1  0  0  0  0  0  0
  -27.5190  -32.5430   25.7050 C   0  0  0  0  0  1  0  0  0  0  0  0
  1 52  1  0
  1 15  1  0
  2  1  1  0
  3 17  1  0
  4  9  1  0
  5  6  1  0
  5  4  1  0
  7  6  1  0
  7 22  1  0
  7  8  1  0
  9  3  1  0
  9  8  1  0
 10  3  2  0
 11 13  1  0
 12 13  2  0
 12 50  1  0
 13 48  1  0
 14 11  2  0
 15 12  1  0
 16 14  1  0
 16 15  2  0
 17 14  1  0
 18 17  1  0
 19 20  2  0
 20 39  1  0
 21 24  1  0
 21 20  1  0
 22 23  1  0
 22 19  1  0
 23 21  2  0
 24 25  1  0
 25 26  2  0
 27 30  1  0
 27 26  1  0
 28 27  2  0
 29 28  1  0
 29 24  2  0
 30 31  1  0
 31 36  2  0
 31 32  1  0
 32 33  2  0
 33 34  1  0
 34 38  1  0
 35 34  2  0
 36 35  1  0
 37 36  1  0
 39 40  1  0
 40 42  1  0
 40 43  1  0
 41 39  2  0
 44 19  1  0
 44 45  1  0
 46 44  1  0
 48 47  1  0
 50 49  1  0
 52 51  1  0
 53 52  1  0
 54 53  1  0
 54 57  1  0
 55 54  1  0
 56 55  1  0
 58 60  1  0
 58 57  1  0
 59 70  2  0
 60 65  1  0
 61 69  1  0
 61 71  1  0
 62 68  1  0
 62 64  1  0
 63 69  1  0
 64 63  1  0
 65 64  2  0
 66 67  1  0
 66 60  2  0
 67 62  2  0
 68 61  1  0
 69 59  1  0
 71 73  2  0
 72 71  1  0
 74 72  1  0
 75 84  2  0
 75 80  1  0
 76 72  1  0
 76 80  1  0
 77 76  1  0
 78 79  1  0
 78 77  1  0
 79 75  1  0
 80 81  2  0
 81 82  1  0
 83 82  2  0
 84 83  1  0
 85 59  1  0
 85 86  1  0
 85 95  1  0
 86 89  1  0
 87 91  1  0
 87 86  1  0
 88 87  2  0
 91 90  1  0
 93 91  1  0
 93 94  1  0
 93 92  1  0
 95 98  1  1
 95 96  1  0
 97 95  1  0
M  ISO  4   3 100  17 100  57 101  58 101
M  END
>  <TORSDO>  (24) 
F 23

>  <SCORE>  (24) 
-8.741

>  <name>  (24) 
23

>  <ligand_id>  (24) 
23

>  <original_smiles>  (24) 
[H]OC([H])(C([H])([H])Oc1c([H])c([H])c2c(c1[H])C([H])([H])N(C(=O)C([H])(N([H])C(=O)C([H])(N([H])C([H])([H])[H])C([H])([H])[H])C(C([H])([H])[H])(C([H])([H])[H])C([H])([H])[H])C([H])(C(=O)N([H])C1([H])c3c([H])c([H])c([H])c([H])c3C([H])([H])C([H])([H])C1([H])[H])C2([H])[H])C([H])([H])C([H])(N([H])c1nc(N([H])C(=O)N2C([H])([H])C([H])([H])C([H])([H])C([H])(n3nc(-c4c([H])c([H])c(Oc5c([H])c([H])c(F)c([H])c5F)c([H])c4[H])c(C(=O)N([H])[H])c3N([H])[H])C2([H])[H])c([H])c(OC([H])([H])[H])c1C([H])([H])C([H])([H])[H])C([H])([H])[H]

>  <smiles>  (24) 
[H]OC([H])(C([H])([H])Oc1c([H])c([H])c2c(c1[H])C([H])([H])N(C(=O)C([H])(N([H])C(=O)C([H])(N([H])C([H])([H])[H])C([H])([H])[H])C(C([H])([H])[H])(C([H])([H])[H])C([H])([H])[H])C([H])(C(=O)N([H])C1([H])c3c([H])c([H])c([H])c([H])c3C([H])([H])C([H])([H])C1([H])[H])C2([H])[H])C([H])([H])C([H])(N([H])c1nc(N([H])C(=O)N2C([H])([H])C([H])([H])C([H])([H])C([H])(n3nc(-c4c([H])c([H])c(Oc5c([H])c([H])c(F)c([H])c5F)c([H])c4[H])c(C(=O)N([H])[H])c3N([H])[H])C2([H])[H])c([H])c(OC([H])([H])[H])c1C([H])([H])C([H])([H])[H])C([H])([H])[H]

$$$$
24:0:0
     RDKit          3D

 88 95  0  0  1  0  0  0  0  0999 V2000
  -28.9930  -22.7780   18.4250 C   0  0  0  0  0  1  0  0  0  0  0  0
  -30.4780  -23.2720   20.3900 C   0  0  0  0  0  1  0  0  0  0  0  0
  -29.0520  -22.8880   19.9620 C   0  0  2  0  0  0  0  0  0  0  0  0
  -28.9210  -21.2430   20.5440 C   0  0  0  0  0  0  0  0  0  0  0  0
  -29.4580  -19.9770   20.0080 N   0  0  0  0  0  4  0  0  0  0  0  0
  -28.3190  -21.1410   21.6120 O   0  0  0  0  0  0  0  0  0  0  0  0
  -29.8670  -20.1190   19.0940 H   0  0  0  0  0  0  0  0  0  0  0  0
  -31.1120  -18.5530   21.3570 C   0  0  0  0  0  1  0  0  0  0  0  0
  -29.7830  -18.4530   20.6000 C   0  0  0  0  0  0  0  0  0  0  0  0
  -29.7030  -16.8280   19.8650 C   0  0  0  0  0  2  0  0  0  0  0  0
  -30.5520  -15.3030   20.0190 C   0  0  0  0  0  0  0  0  0  0  0  0
  -30.5090  -12.8730   19.1350 C   0  0  0  0  0  2  0  0  0  0  0  0
  -29.5460  -12.7230   17.9300 C   0  0  0  0  0  2  0  0  0  0  0  0
  -28.1040  -12.4730   18.4100 C   0  0  0  0  0  2  0  0  0  0  0  0
  -27.7010  -13.4250   19.5640 C   0  0  0  0  0  3  0  0  0  0  0  0
  -28.7820  -13.5180   20.6570 C   0  0  0  0  0  2  0  0  0  0  0  0
  -30.0090  -13.9930   20.0070 N   0  0  0  0  0  0  0  0  0  0  0  0
  -31.7790  -15.3010   19.8290 O   0  0  0  0  0  0  0  0  0  0  0  0
  -25.3520  -13.9890   20.3860 C   0  0  0  0  0  0  0  0  0  0  0  0
  -24.3010  -13.2120   20.7870 C   0  0  0  0  0  0  0  0  0  0  0  0
  -24.7690  -11.8620   20.7510 C   0  0  0  0  0  0  0  0  0  0  0  0
  -26.3870  -13.1130   20.1130 N   0  0  0  0  0  0  0  0  0  0  0  0
  -26.0510  -11.8290   20.4010 N   0  0  0  0  0  0  0  0  0  0  0  0
  -24.0490  -10.5990   20.9640 C   0  0  0  0  0  0  0  0  0  0  0  0
  -24.4880   -9.6470   21.9100 C   0  0  0  0  0  3  0  0  0  0  0  0
  -23.7620   -8.4520   22.1100 C   0  0  0  0  0  3  0  0  0  0  0  0
  -22.5870   -8.2020   21.3640 C   0  0  0  0  0  0  0  0  0  0  0  0
  -22.1670   -9.1430   20.4080 C   0  0  0  0  0  3  0  0  0  0  0  0
  -22.8930  -10.3280   20.2050 C   0  0  0  0  0  3  0  0  0  0  0  0
  -21.8320   -7.0580   21.4730 O   0  0  0  0  0  0  0  0  0  0  0  0
  -21.7720   -6.3450   22.6450 C   0  0  0  0  0  0  0  0  0  0  0  0
  -21.3010   -6.9220   23.8430 C   0  0  0  0  0  3  0  0  0  0  0  0
  -21.1870   -6.1350   25.0070 C   0  0  0  0  0  3  0  0  0  0  0  0
  -21.5380   -4.7710   24.9720 C   0  0  0  0  0  0  0  0  0  0  0  0
  -22.0020   -4.1940   23.7780 C   0  0  0  0  0  3  0  0  0  0  0  0
  -22.1150   -4.9780   22.6160 C   0  0  0  0  0  0  0  0  0  0  0  0
  -22.5420   -4.4110   21.4620 F   0  0  0  0  0  0  0  0  0  0  0  0
  -21.4240   -4.0130   26.0880 F   0  0  0  0  0  0  0  0  0  0  0  0
  -22.9100  -13.6890   21.0890 C   0  0  0  0  0  0  0  0  0  0  0  0
  -22.2030  -12.9950   21.9740 N   0  0  0  0  0  0  0  0  0  0  0  0
  -22.4620  -14.7140   20.5780 O   0  0  0  0  0  0  0  0  0  0  0  0
  -22.5750  -12.1630   22.4040 H   0  0  0  0  0  0  0  0  0  0  0  0
  -21.2720  -13.3010   22.2210 H   0  0  0  0  0  0  0  0  0  0  0  0
  -25.5090  -15.3600   20.2010 N   0  0  0  0  0  0  0  0  0  0  0  0
  -24.7470  -16.0140   20.3400 H   0  0  0  0  0  0  0  0  0  0  0  0
  -26.3460  -15.8010   19.8470 H   0  0  0  0  0  0  0  0  0  0  0  0
  -28.1000  -24.3520   20.3690 C   0  0  0  0  0  2  0  0  0  0  0  0
  -28.3470  -25.9690   20.2190 O   0  0  0  0  0  0  0  0  0  0  0  0
  -24.6720  -31.8730   23.1380 C   0  0  0  0  0  0  0  0  0  0  0  0
  -27.3190  -27.0380   20.1730 C   0  0  0  0  0  0  0  0  0  0  0  0
  -23.5180  -30.4640   21.4830 C   0  0  0  0  0  3  0  0  0  0  0  0
  -25.0020  -28.8810   20.0830 C   0  0  0  0  0  0  0  0  0  0  0  0
  -26.0840  -30.7110   21.3690 C   0  0  0  0  0  2  0  0  0  0  0  0
  -26.1770  -29.3030   20.7190 C   0  0  0  0  0  0  0  0  0  0  0  0
  -27.3330  -28.4050   20.7370 C   0  0  0  0  0  3  0  0  0  0  0  0
  -26.1130  -26.7610   19.4910 C   0  0  0  0  0  3  0  0  0  0  0  0
  -24.9960  -27.6280   19.4480 C   0  0  0  0  0  3  0  0  0  0  0  0
  -23.7730  -29.7840   20.1100 C   0  0  0  0  0  2  0  0  0  0  0  0
  -24.7790  -31.0420   22.0500 N   0  0  0  0  0  0  0  0  0  0  0  0
  -23.5730  -32.1490   23.6440 O   0  0  0  0  0  0  0  0  0  0  0  0
  -22.8250  -29.4580   22.4410 C   0  0  0  0  0  0  0  0  0  0  0  0
  -21.4960  -29.2960   22.3210 N   0  0  0  0  0  0  0  0  0  0  0  0
  -23.4940  -28.8230   23.2620 O   0  0  0  0  0  0  0  0  0  0  0  0
  -21.0110  -29.8620   21.6380 H   0  0  0  0  0  0  0  0  0  0  0  0
  -18.1080  -28.1020   22.8310 C   0  0  0  0  0  0  0  0  0  0  0  0
  -20.6720  -28.3520   23.0850 C   0  0  0  0  0  3  0  0  0  0  0  0
  -20.7640  -26.9270   22.4930 C   0  0  0  0  0  2  0  0  0  0  0  0
  -19.6560  -26.6220   21.4810 C   0  0  0  0  0  2  0  0  0  0  0  0
  -18.2760  -26.7640   22.1340 C   0  0  0  0  0  2  0  0  0  0  0  0
  -19.2330  -28.8560   23.2630 C   0  0  0  0  0  0  0  0  0  0  0  0
  -19.0210  -30.1090   23.8770 C   0  0  0  0  0  3  0  0  0  0  0  0
  -17.7190  -30.6090   24.0640 C   0  0  0  0  0  3  0  0  0  0  0  0
  -16.6090  -29.8530   23.6460 C   0  0  0  0  0  3  0  0  0  0  0  0
  -16.8050  -28.6020   23.0340 C   0  0  0  0  0  3  0  0  0  0  0  0
  -25.9280  -32.5310   23.7860 C   0  0  0  0  0  3  0  0  0  0  0  0
  -26.4280  -31.7710   25.0770 C   0  0  1  0  0  0  0  0  0  0  0  0
  -25.3160  -31.5270   26.1240 C   0  0  0  0  0  1  0  0  0  0  0  0
  -27.0370  -30.3990   24.7090 C   0  0  0  0  0  1  0  0  0  0  0  0
  -27.5570  -32.5810   25.7550 C   0  0  0  0  0  1  0  0  0  0  0  0
  -25.5890  -33.9270   24.1190 N   0  0  0  0  0  0  0  0  0  0  0  0
  -25.9140  -34.9950   23.3780 C   0  0  0  0  0  0  0  0  0  0  0  0
  -26.5990  -34.9110   22.3540 O   0  0  0  0  0  0  0  0  0  0  0  0
  -24.9850  -34.0660   24.9160 H   0  0  0  0  0  0  0  0  0  0  0  0
  -24.1700  -36.7740   23.0250 C   0  0  0  0  0  1  0  0  0  0  0  0
  -25.4060  -36.3730   23.8470 C   0  0  0  0  0  3  0  0  0  0  0  0
  -27.5160  -37.2820   24.7150 C   0  0  0  0  0  1  0  0  0  0  0  0
  -26.4260  -37.4410   23.7550 N   0  0  0  0  0  0  0  0  0  0  0  0
  -26.0050  -38.3530   23.9040 H   0  0  0  0  0  0  0  0  0  0  0  0
  3  1  1  6
  3 47  1  0
  3  2  1  0
  3  4  1  0
  4  6  2  0
  5  4  1  0
  5  9  2  3
  7  5  1  0
  9  8  1  0
 10 11  1  0
 10  9  1  0
 12 17  1  0
 13 14  1  0
 13 12  1  0
 15 14  1  0
 15 22  1  0
 15 16  1  0
 17 11  1  0
 17 16  1  0
 18 11  2  0
 19 20  2  0
 20 39  1  0
 21 20  1  0
 21 24  1  0
 22 19  1  0
 22 23  1  0
 23 21  2  0
 24 25  1  0
 25 26  2  0
 27 30  1  0
 27 26  1  0
 28 27  2  0
 29 28  1  0
 29 24  2  0
 30 31  1  0
 31 32  1  0
 32 33  2  0
 34 33  1  0
 34 38  1  0
 35 34  2  0
 36 31  2  0
 36 35  1  0
 37 36  1  0
 39 40  1  0
 40 43  1  0
 40 42  1  0
 41 39  2  0
 44 45  1  0
 44 19  1  0
 46 44  1  0
 48 47  1  0
 49 60  2  0
 50 48  1  0
 50 55  1  0
 51 59  1  0
 51 61  1  0
 52 58  1  0
 52 54  1  0
 53 59  1  0
 54 55  2  0
 54 53  1  0
 56 50  2  0
 57 56  1  0
 57 52  2  0
 58 51  1  0
 59 49  1  0
 61 63  2  0
 62 61  1  0
 64 62  1  0
 65 74  2  0
 65 70  1  0
 66 62  1  0
 66 70  1  0
 67 66  1  0
 68 69  1  0
 68 67  1  0
 69 65  1  0
 70 71  2  0
 71 72  1  0
 73 72  2  0
 74 73  1  0
 75 49  1  0
 75 80  1  0
 75 76  1  0
 76 79  1  1
 76 77  1  0
 78 76  1  0
 80 83  1  0
 81 85  1  0
 81 80  1  0
 82 81  2  0
 85 84  1  0
 87 85  1  0
 87 88  1  0
 87 86  1  0
M  ISO  4  10 100  11 100  47 101  48 101
M  END
>  <TORSDO>  (25) 
F 20

>  <SCORE>  (25) 
-15.653

>  <name>  (25) 
24

>  <ligand_id>  (25) 
24

>  <original_smiles>  (25) 
[H]c1c([H])c([H])c2c(c1[H])C([H])([H])C([H])([H])C([H])([H])C2([H])N([H])C(=O)C1([H])N(C(=O)C([H])(N([H])C(=O)C([H])(N([H])C([H])([H])[H])C([H])([H])[H])C(C([H])([H])[H])(C([H])([H])[H])C([H])([H])[H])C([H])([H])c2c([H])c(OC([H])([H])C(C(=O)N([H])C([H])(C([H])([H])[H])C([H])([H])C(=O)N3C([H])([H])C([H])([H])C([H])([H])C([H])(n4nc(-c5c([H])c([H])c(Oc6c([H])c([H])c(F)c([H])c6F)c([H])c5[H])c(C(=O)N([H])[H])c4N([H])[H])C3([H])[H])(C([H])([H])[H])C([H])([H])[H])c([H])c([H])c2C1([H])[H]

>  <smiles>  (25) 
[H]c1c([H])c([H])c2c(c1[H])C([H])([H])C([H])([H])C([H])([H])C2([H])N([H])C(=O)C1([H])N(C(=O)C([H])(N([H])C(=O)C([H])(N([H])C([H])([H])[H])C([H])([H])[H])C(C([H])([H])[H])(C([H])([H])[H])C([H])([H])[H])C([H])([H])c2c([H])c(OC([H])([H])C(C(=O)N([H])C([H])(C([H])([H])[H])C([H])([H])C(=O)N3C([H])([H])C([H])([H])C([H])([H])C([H])(n4nc(-c5c([H])c([H])c(Oc6c([H])c([H])c(F)c([H])c6F)c([H])c5[H])c(C(=O)N([H])[H])c4N([H])[H])C3([H])[H])(C([H])([H])[H])C([H])([H])[H])c([H])c([H])c2C1([H])[H]

$$$$
25:0:0
     RDKit          3D

 93101  0  0  1  0  0  0  0  0999 V2000
  -27.7800  -23.0530   20.1110 C   0  0  0  0  0  0  0  0  0  0  0  0
  -27.8780  -21.6900   20.0430 N   0  0  0  0  0  0  0  0  0  0  0  0
  -26.7250  -23.5440   19.7120 O   0  0  0  0  0  0  0  0  0  0  0  0
  -27.0500  -21.3250   19.5940 H   0  0  0  0  0  0  0  0  0  0  0  0
  -28.6670  -19.3260   19.8110 C   0  0  0  0  0  3  0  0  0  0  0  0
  -29.8430  -20.6920   21.2960 C   0  0  0  0  0  3  0  0  0  0  0  0
  -28.8160  -20.6420   20.3900 C   0  0  0  0  0  0  0  0  0  0  0  0
  -29.5840  -18.3780   20.2390 C   0  0  0  0  0  0  0  0  0  0  0  0
  -30.6540  -19.1240   21.4130 S   0  0  0  0  0  0  0  0  0  0  0  0
  -30.8290  -17.0270   18.5020 C   0  0  0  0  0  1  0  0  0  0  0  0
  -29.7850  -16.9710   19.6350 C   0  0  0  0  0  0  0  0  0  0  0  0
  -30.6980  -14.6650   20.4030 C   0  0  0  0  0  0  0  0  0  0  0  0
  -30.4740  -12.4290   19.3840 C   0  0  0  0  0  2  0  0  0  0  0  0
  -29.5610  -12.5860   18.1470 C   0  0  0  0  0  2  0  0  0  0  0  0
  -28.0780  -12.4450   18.5470 C   0  0  0  0  0  2  0  0  0  0  0  0
  -27.7060  -13.3050   19.7850 C   0  0  0  0  0  3  0  0  0  0  0  0
  -28.7430  -13.1460   20.9210 C   0  0  0  0  0  2  0  0  0  0  0  0
  -30.0690  -13.4530   20.3660 N   0  0  0  0  0  0  0  0  0  0  0  0
  -31.8820  -14.7790   20.0750 O   0  0  0  0  0  0  0  0  0  0  0  0
  -29.8800  -15.7550   20.5250 N   0  0  0  0  0  4  0  0  0  0  0  0
  -28.9970  -15.5160   20.9510 H   0  0  0  0  0  0  0  0  0  0  0  0
  -25.2980  -13.9150   20.4410 C   0  0  0  0  0  0  0  0  0  0  0  0
  -24.2250  -13.1480   20.8030 C   0  0  0  0  0  0  0  0  0  0  0  0
  -24.6880  -11.7970   20.8030 C   0  0  0  0  0  0  0  0  0  0  0  0
  -26.3480  -13.0320   20.2450 N   0  0  0  0  0  0  0  0  0  0  0  0
  -25.9840  -11.7540   20.5230 N   0  0  0  0  0  0  0  0  0  0  0  0
  -23.9590  -10.5370   20.9970 C   0  0  0  0  0  0  0  0  0  0  0  0
  -24.3720   -9.5830   21.9510 C   0  0  0  0  0  3  0  0  0  0  0  0
  -23.6420   -8.3880   22.1330 C   0  0  0  0  0  3  0  0  0  0  0  0
  -22.4830   -8.1420   21.3570 C   0  0  0  0  0  0  0  0  0  0  0  0
  -22.0890   -9.0850   20.3920 C   0  0  0  0  0  3  0  0  0  0  0  0
  -22.8210  -10.2700   20.2090 C   0  0  0  0  0  3  0  0  0  0  0  0
  -21.7250   -6.9990   21.4480 O   0  0  0  0  0  0  0  0  0  0  0  0
  -21.6520   -6.2720   22.6090 C   0  0  0  0  0  0  0  0  0  0  0  0
  -21.1930   -6.8430   23.8170 C   0  0  0  0  0  3  0  0  0  0  0  0
  -21.0670   -6.0420   24.9700 C   0  0  0  0  0  3  0  0  0  0  0  0
  -21.3900   -4.6730   24.9170 C   0  0  0  0  0  0  0  0  0  0  0  0
  -21.8430   -4.1030   23.7150 C   0  0  0  0  0  3  0  0  0  0  0  0
  -21.9700   -4.9000   22.5630 C   0  0  0  0  0  0  0  0  0  0  0  0
  -22.3860   -4.3400   21.4020 F   0  0  0  0  0  0  0  0  0  0  0  0
  -21.2620   -3.9020   26.0230 F   0  0  0  0  0  0  0  0  0  0  0  0
  -22.8230  -13.6290   21.0370 C   0  0  0  0  0  0  0  0  0  0  0  0
  -22.0740  -12.9480   21.8980 N   0  0  0  0  0  0  0  0  0  0  0  0
  -22.3970  -14.6460   20.4910 O   0  0  0  0  0  0  0  0  0  0  0  0
  -22.4310  -12.1260   22.3630 H   0  0  0  0  0  0  0  0  0  0  0  0
  -21.1320  -13.2560   22.0940 H   0  0  0  0  0  0  0  0  0  0  0  0
  -25.4620  -15.2840   20.2450 N   0  0  0  0  0  0  0  0  0  0  0  0
  -24.6830  -15.9310   20.3230 H   0  0  0  0  0  0  0  0  0  0  0  0
  -26.3090  -15.7260   19.9110 H   0  0  0  0  0  0  0  0  0  0  0  0
  -28.8760  -24.0380   20.6100 C   0  0  0  0  0  2  0  0  0  0  0  0
  -27.3600  -25.4630   22.2080 C   0  0  0  0  0  1  0  0  0  0  0  0
  -28.4460  -25.4940   21.1080 C   0  0  0  0  0  3  0  0  0  0  0  0
  -28.3150  -26.5850   20.1280 O   0  0  0  0  0  0  0  0  0  0  0  0
  -24.5740  -31.8870   23.2330 C   0  0  0  0  0  0  0  0  0  0  0  0
  -27.1850  -27.3980   20.1460 C   0  0  0  0  0  0  0  0  0  0  0  0
  -23.3620  -30.4960   21.5880 C   0  0  0  0  0  3  0  0  0  0  0  0
  -24.8090  -28.9560   20.1520 C   0  0  0  0  0  0  0  0  0  0  0  0
  -25.8920  -30.8380   21.3850 C   0  0  0  0  0  2  0  0  0  0  0  0
  -25.9750  -29.4650   20.7410 C   0  0  0  0  0  0  0  0  0  0  0  0
  -27.1700  -28.6940   20.7330 C   0  0  0  0  0  3  0  0  0  0  0  0
  -26.0090  -26.9280   19.5330 C   0  0  0  0  0  3  0  0  0  0  0  0
  -24.8240  -27.6900   19.5420 C   0  0  0  0  0  3  0  0  0  0  0  0
  -23.5670  -29.8230   20.2040 C   0  0  0  0  0  2  0  0  0  0  0  0
  -24.6280  -31.0910   22.1260 N   0  0  0  0  0  0  0  0  0  0  0  0
  -23.4950  -32.1570   23.7790 O   0  0  0  0  0  0  0  0  0  0  0  0
  -22.7110  -29.4710   22.5470 C   0  0  0  0  0  0  0  0  0  0  0  0
  -21.3850  -29.2920   22.4280 N   0  0  0  0  0  0  0  0  0  0  0  0
  -23.3980  -28.8410   23.3560 O   0  0  0  0  0  0  0  0  0  0  0  0
  -20.8890  -29.8510   21.7470 H   0  0  0  0  0  0  0  0  0  0  0  0
  -18.0130  -28.0930   22.9410 C   0  0  0  0  0  0  0  0  0  0  0  0
  -20.5730  -28.3480   23.1980 C   0  0  0  0  0  3  0  0  0  0  0  0
  -20.6710  -26.9210   22.6110 C   0  0  0  0  0  2  0  0  0  0  0  0
  -19.5620  -26.6080   21.6000 C   0  0  0  0  0  2  0  0  0  0  0  0
  -18.1840  -26.7490   22.2530 C   0  0  0  0  0  2  0  0  0  0  0  0
  -19.1350  -28.8520   23.3700 C   0  0  0  0  0  0  0  0  0  0  0  0
  -18.9200  -30.1120   23.9690 C   0  0  0  0  0  3  0  0  0  0  0  0
  -17.6160  -30.6130   24.1450 C   0  0  0  0  0  3  0  0  0  0  0  0
  -16.5090  -29.8510   23.7320 C   0  0  0  0  0  3  0  0  0  0  0  0
  -16.7090  -28.5940   23.1350 C   0  0  0  0  0  3  0  0  0  0  0  0
  -25.8620  -32.5160   23.8500 C   0  0  0  0  0  3  0  0  0  0  0  0
  -26.3790  -31.7420   25.1250 C   0  0  1  0  0  0  0  0  0  0  0  0
  -25.2870  -31.5080   26.1950 C   0  0  0  0  0  1  0  0  0  0  0  0
  -26.9540  -30.3630   24.7280 C   0  0  0  0  0  1  0  0  0  0  0  0
  -27.5330  -32.5320   25.7890 C   0  0  0  0  0  1  0  0  0  0  0  0
  -25.5590  -33.9160   24.1810 N   0  0  0  0  0  0  0  0  0  0  0  0
  -25.8970  -34.9680   23.4220 C   0  0  0  0  0  0  0  0  0  0  0  0
  -26.5690  -34.8630   22.3920 O   0  0  0  0  0  0  0  0  0  0  0  0
  -24.9710  -34.0740   24.9850 H   0  0  0  0  0  0  0  0  0  0  0  0
  -24.1850  -36.7710   23.0530 C   0  0  0  0  0  1  0  0  0  0  0  0
  -25.4140  -36.3570   23.8790 C   0  0  0  0  0  3  0  0  0  0  0  0
  -27.5440  -37.2270   24.7370 C   0  0  0  0  0  1  0  0  0  0  0  0
  -26.4550  -37.4050   23.7800 N   0  0  0  0  0  0  0  0  0  0  0  0
  -26.0530  -38.3290   23.9240 H   0  0  0  0  0  0  0  0  0  0  0  0
  1 50  1  0
  2  1  1  0
  2  7  1  0
  3  1  2  0
  4  2  1  0
  5  8  2  0
  5  7  1  0
  6  9  1  0
  7  6  2  0
  8  9  1  0
 10 11  1  0
 11  8  1  0
 11 20  2  0
 12 20  1  0
 13 18  1  0
 14 15  1  0
 14 13  1  0
 16 15  1  0
 16 25  1  0
 16 17  1  0
 18 12  1  0
 18 17  1  0
 19 12  2  0
 20 21  1  0
 22 23  2  0
 23 24  1  0
 23 42  1  0
 24 27  1  0
 25 22  1  0
 25 26  1  0
 26 24  2  0
 27 28  1  0
 28 29  2  0
 30 33  1  0
 30 29  1  0
 31 30  2  0
 32 31  1  0
 32 27  2  0
 33 34  1  0
 34 35  1  0
 35 36  2  0
 37 36  1  0
 37 41  1  0
 38 37  2  0
 39 34  2  0
 39 38  1  0
 40 39  1  0
 42 43  1  0
 43 46  1  0
 43 45  1  0
 44 42  2  0
 47 48  1  0
 47 22  1  0
 49 47  1  0
 50 52  1  0
 52 51  1  0
 53 55  1  0
 53 52  1  0
 54 65  2  0
 55 60  1  0
 56 64  1  0
 56 66  1  0
 57 63  1  0
 57 59  1  0
 58 64  1  0
 59 58  1  0
 60 59  2  0
 61 62  1  0
 61 55  2  0
 62 57  2  0
 63 56  1  0
 64 54  1  0
 66 68  2  0
 67 66  1  0
 69 67  1  0
 70 79  2  0
 70 75  1  0
 71 67  1  0
 71 75  1  0
 72 71  1  0
 73 74  1  0
 73 72  1  0
 74 70  1  0
 75 76  2  0
 76 77  1  0
 78 77  2  0
 79 78  1  0
 80 54  1  0
 80 85  1  0
 80 81  1  0
 81 84  1  1
 81 82  1  0
 83 81  1  0
 85 88  1  0
 86 90  1  0
 86 85  1  0
 87 86  2  0
 90 89  1  0
 92 90  1  0
 92 93  1  0
 92 91  1  0
M  ISO  4  12 100  20 100  52 101  53 101
M  END
>  <TORSDO>  (26) 
F 20

>  <SCORE>  (26) 
-14.073

>  <name>  (26) 
25

>  <ligand_id>  (26) 
25

>  <original_smiles>  (26) 
[H]c1sc(C([H])(N([H])C(=O)N2C([H])([H])C([H])([H])C([H])([H])C([H])(n3nc(-c4c([H])c([H])c(Oc5c([H])c([H])c(F)c([H])c5F)c([H])c4[H])c(C(=O)N([H])[H])c3N([H])[H])C2([H])[H])C([H])([H])[H])c([H])c1N([H])C(=O)C([H])([H])C([H])(Oc1c([H])c([H])c2c(c1[H])C([H])([H])N(C(=O)C([H])(N([H])C(=O)C([H])(N([H])C([H])([H])[H])C([H])([H])[H])C(C([H])([H])[H])(C([H])([H])[H])C([H])([H])[H])C([H])(C(=O)N([H])C1([H])c3c([H])c([H])c([H])c([H])c3C([H])([H])C([H])([H])C1([H])[H])C2([H])[H])C([H])([H])[H]

>  <smiles>  (26) 
[H]c1sc(C([H])(N([H])C(=O)N2C([H])([H])C([H])([H])C([H])([H])C([H])(n3nc(-c4c([H])c([H])c(Oc5c([H])c([H])c(F)c([H])c5F)c([H])c4[H])c(C(=O)N([H])[H])c3N([H])[H])C2([H])[H])C([H])([H])[H])c([H])c1N([H])C(=O)C([H])([H])C([H])(Oc1c([H])c([H])c2c(c1[H])C([H])([H])N(C(=O)C([H])(N([H])C(=O)C([H])(N([H])C([H])([H])[H])C([H])([H])[H])C(C([H])([H])[H])(C([H])([H])[H])C([H])([H])[H])C([H])(C(=O)N([H])C1([H])c3c([H])c([H])c([H])c([H])c3C([H])([H])C([H])([H])C1([H])[H])C2([H])[H])C([H])([H])[H]

$$$$
26:0:0
     RDKit          3D

 99107  0  0  1  0  0  0  0  0999 V2000
  -30.0750  -21.0120   20.0350 C   0  0  0  0  0  0  0  0  0  0  0  0
  -29.2280  -21.8280   20.6940 N   0  0  0  0  0  4  0  0  0  0  0  0
  -30.7820  -21.4510   19.1240 O   0  0  0  0  0  0  0  0  0  0  0  0
  -28.6510  -21.3750   21.3940 H   0  0  0  0  0  0  0  0  0  0  0  0
  -30.6570  -14.6320   20.8970 C   0  0  0  0  0  0  0  0  0  0  0  0
  -30.5220  -12.3270   19.9960 C   0  0  0  0  0  2  0  0  0  0  0  0
  -29.6940  -12.3510   18.6950 C   0  0  0  0  0  2  0  0  0  0  0  0
  -28.1920  -12.1970   19.0090 C   0  0  0  0  0  2  0  0  0  0  0  0
  -27.7140  -13.1550   20.1310 C   0  0  0  0  0  3  0  0  0  0  0  0
  -28.6710  -13.1300   21.3440 C   0  0  0  0  0  2  0  0  0  0  0  0
  -30.0270  -13.4200   20.8530 N   0  0  0  0  0  0  0  0  0  0  0  0
  -31.8520  -14.7410   20.6060 O   0  0  0  0  0  0  0  0  0  0  0  0
  -30.3110  -19.6100   20.5380 C   0  0  0  0  0  0  0  0  0  0  0  0
  -31.4600  -19.0210   21.0340 C   0  0  0  0  0  0  0  0  0  0  0  0
  -30.1700  -17.1250   20.9350 C   0  0  0  0  0  0  0  0  0  0  0  0
  -31.3610  -17.6420   21.2690 N   0  0  0  0  0  0  0  0  0  0  0  0
  -29.8510  -15.7190   21.0560 N   0  0  0  0  0  0  0  0  0  0  0  0
  -29.0410  -18.3910   20.3790 S   0  0  0  0  0  0  0  0  0  0  0  0
  -28.8710  -15.5080   21.1370 H   0  0  0  0  0  0  0  0  0  0  0  0
  -25.2760  -13.7700   20.6660 C   0  0  0  0  0  0  0  0  0  0  0  0
  -24.1830  -13.0020   20.9650 C   0  0  0  0  0  0  0  0  0  0  0  0
  -24.6430  -11.6500   20.9840 C   0  0  0  0  0  0  0  0  0  0  0  0
  -26.3320  -12.8840   20.5200 N   0  0  0  0  0  0  0  0  0  0  0  0
  -25.9520  -11.6050   20.7710 N   0  0  0  0  0  0  0  0  0  0  0  0
  -23.9010  -10.3900   21.1340 C   0  0  0  0  0  0  0  0  0  0  0  0
  -24.2790   -9.4200   22.0870 C   0  0  0  0  0  3  0  0  0  0  0  0
  -23.5400   -8.2250   22.2250 C   0  0  0  0  0  3  0  0  0  0  0  0
  -22.4070   -7.9930   21.4080 C   0  0  0  0  0  0  0  0  0  0  0  0
  -22.0480   -8.9530   20.4450 C   0  0  0  0  0  3  0  0  0  0  0  0
  -22.7890  -10.1380   20.3060 C   0  0  0  0  0  3  0  0  0  0  0  0
  -21.6440   -6.8520   21.4540 O   0  0  0  0  0  0  0  0  0  0  0  0
  -21.5440   -6.0990   22.5960 C   0  0  0  0  0  0  0  0  0  0  0  0
  -21.0610   -6.6430   23.8060 C   0  0  0  0  0  3  0  0  0  0  0  0
  -20.9080   -5.8170   24.9370 C   0  0  0  0  0  3  0  0  0  0  0  0
  -21.2270   -4.4480   24.8590 C   0  0  0  0  0  0  0  0  0  0  0  0
  -21.7010   -3.9030   23.6530 C   0  0  0  0  0  3  0  0  0  0  0  0
  -21.8550   -4.7260   22.5230 C   0  0  0  0  0  0  0  0  0  0  0  0
  -22.2930   -4.1920   21.3580 F   0  0  0  0  0  0  0  0  0  0  0  0
  -21.0720   -3.6510   25.9430 F   0  0  0  0  0  0  0  0  0  0  0  0
  -22.7700  -13.4840   21.1280 C   0  0  0  0  0  0  0  0  0  0  0  0
  -21.9830  -12.8050   21.9570 N   0  0  0  0  0  0  0  0  0  0  0  0
  -22.3690  -14.4970   20.5570 O   0  0  0  0  0  0  0  0  0  0  0  0
  -22.3180  -11.9870   22.4420 H   0  0  0  0  0  0  0  0  0  0  0  0
  -21.0320  -13.1110   22.1090 H   0  0  0  0  0  0  0  0  0  0  0  0
  -25.4550  -15.1380   20.4820 N   0  0  0  0  0  0  0  0  0  0  0  0
  -24.6770  -15.7880   20.5150 H   0  0  0  0  0  0  0  0  0  0  0  0
  -26.3140  -15.5670   20.1640 H   0  0  0  0  0  0  0  0  0  0  0  0
  -32.6740  -19.6590   21.3080 N   0  0  0  0  0  0  0  0  0  0  0  0
  -32.8530  -20.5860   20.9370 H   0  0  0  0  0  0  0  0  0  0  0  0
  -33.5100  -19.1110   21.4820 H   0  0  0  0  0  0  0  0  0  0  0  0
  -29.5250  -23.2430   21.0520 C   0  0  0  0  0  0  0  0  0  0  0  0
  -29.1490  -23.4810   22.5270 C   0  0  0  0  0  0  0  0  0  0  0  0
  -28.6770  -22.5790   23.2290 O   0  0  0  0  0  0  0  0  0  0  0  0
  -28.7910  -25.0670   24.5240 C   0  0  0  0  0  1  0  0  0  0  0  0
  -29.4030  -24.8710   23.1230 C   0  0  0  0  0  2  0  0  0  0  0  0
  -29.1900  -24.4170   20.0320 C   0  0  0  0  0  2  0  0  0  0  0  0
  -26.8460  -24.9600   21.0830 C   0  0  0  0  0  1  0  0  0  0  0  0
  -27.7820  -25.1020   19.8640 C   0  0  0  0  0  3  0  0  0  0  0  0
  -27.9570  -26.5220   19.5430 O   0  0  0  0  0  0  0  0  0  0  0  0
  -24.4920  -31.6960   23.0430 C   0  0  0  0  0  0  0  0  0  0  0  0
  -26.8390  -27.3480   19.5760 C   0  0  0  0  0  0  0  0  0  0  0  0
  -23.1710  -30.4380   21.3760 C   0  0  0  0  0  3  0  0  0  0  0  0
  -24.5080  -28.9590   19.7820 C   0  0  0  0  0  0  0  0  0  0  0  0
  -25.6990  -30.7280   21.0830 C   0  0  0  0  0  2  0  0  0  0  0  0
  -25.7120  -29.3990   20.3470 C   0  0  0  0  0  0  0  0  0  0  0  0
  -26.8820  -28.6060   20.2320 C   0  0  0  0  0  3  0  0  0  0  0  0
  -25.6220  -26.9460   18.9850 C   0  0  0  0  0  3  0  0  0  0  0  0
  -24.4620  -27.7370   19.0920 C   0  0  0  0  0  3  0  0  0  0  0  0
  -23.2960  -29.8480   19.9460 C   0  0  0  0  0  2  0  0  0  0  0  0
  -24.4760  -30.9650   21.8920 N   0  0  0  0  0  0  0  0  0  0  0  0
  -23.4430  -31.9660   23.6480 O   0  0  0  0  0  0  0  0  0  0  0  0
  -22.5300  -29.3750   22.3000 C   0  0  0  0  0  0  0  0  0  0  0  0
  -21.1960  -29.2390   22.2230 N   0  0  0  0  0  0  0  0  0  0  0  0
  -23.2280  -28.6790   23.0410 O   0  0  0  0  0  0  0  0  0  0  0  0
  -20.6930  -29.8530   21.5970 H   0  0  0  0  0  0  0  0  0  0  0  0
  -17.8130  -28.0970   22.7820 C   0  0  0  0  0  0  0  0  0  0  0  0
  -20.3850  -28.2770   22.9690 C   0  0  0  0  0  3  0  0  0  0  0  0
  -20.4290  -26.8820   22.3040 C   0  0  0  0  0  2  0  0  0  0  0  0
  -19.2820  -26.6470   21.3160 C   0  0  0  0  0  2  0  0  0  0  0  0
  -17.9300  -26.7860   22.0210 C   0  0  0  0  0  2  0  0  0  0  0  0
  -18.9660  -28.8030   23.2120 C   0  0  0  0  0  0  0  0  0  0  0  0
  -18.8030  -30.0340   23.8840 C   0  0  0  0  0  3  0  0  0  0  0  0
  -17.5190  -30.5560   24.1310 C   0  0  0  0  0  3  0  0  0  0  0  0
  -16.3800  -29.8420   23.7200 C   0  0  0  0  0  3  0  0  0  0  0  0
  -16.5280  -28.6150   23.0500 C   0  0  0  0  0  3  0  0  0  0  0  0
  -25.8230  -32.2500   23.6410 C   0  0  0  0  0  3  0  0  0  0  0  0
  -25.5760  -33.6350   24.0630 N   0  0  0  0  0  0  0  0  0  0  0  0
  -25.9110  -34.7200   23.3530 C   0  0  0  0  0  0  0  0  0  0  0  0
  -26.5350  -34.6570   22.2890 O   0  0  0  0  0  0  0  0  0  0  0  0
  -25.0240  -33.7600   24.8980 H   0  0  0  0  0  0  0  0  0  0  0  0
  -24.2260  -36.5790   23.1900 C   0  0  0  0  0  1  0  0  0  0  0  0
  -25.4910  -36.0940   23.9130 C   0  0  0  0  0  3  0  0  0  0  0  0
  -27.6890  -36.8680   24.6840 C   0  0  0  0  0  1  0  0  0  0  0  0
  -26.5490  -37.1220   23.8070 N   0  0  0  0  0  0  0  0  0  0  0  0
  -26.1810  -38.0440   24.0240 H   0  0  0  0  0  0  0  0  0  0  0  0
  -26.3710  -31.3880   24.8440 C   0  0  1  0  0  0  0  0  0  0  0  0
  -25.3210  -31.1290   25.9500 C   0  0  0  0  0  1  0  0  0  0  0  0
  -26.8830  -30.0170   24.3440 C   0  0  0  0  0  1  0  0  0  0  0  0
  -27.5800  -32.1030   25.4920 C   0  0  0  0  0  1  0  0  0  0  0  0
  1 13  1  0
  1  2  1  0
  2 51  2  0
  2  4  1  0
  3  1  2  0
  5 17  1  0
  6 11  1  0
  7  8  1  0
  7  6  1  0
  9  8  1  0
  9 23  1  0
  9 10  1  0
 11  5  1  0
 11 10  1  0
 12  5  2  0
 13 14  2  0
 14 16  1  0
 14 48  1  0
 15 17  1  0
 15 16  2  0
 17 19  1  0
 18 13  1  0
 18 15  1  0
 20 21  2  0
 21 22  1  0
 21 40  1  0
 22 25  1  0
 23 20  1  0
 23 24  1  0
 24 22  2  0
 25 26  1  0
 26 27  2  0
 28 31  1  0
 28 27  1  0
 29 28  2  0
 30 29  1  0
 30 25  2  0
 31 32  1  0
 32 33  1  0
 33 34  2  0
 35 34  1  0
 35 39  1  0
 36 35  2  0
 37 32  2  0
 37 36  1  0
 38 37  1  0
 40 41  1  0
 41 44  1  0
 41 43  1  0
 42 40  2  0
 45 46  1  0
 45 20  1  0
 47 45  1  0
 48 50  1  0
 49 48  1  0
 51 52  1  0
 52 55  1  0
 52 53  2  0
 55 54  1  0
 56 51  1  0
 58 56  1  0
 58 57  1  0
 59 61  1  0
 59 58  1  0
 60 71  2  0
 61 66  1  0
 62 70  1  0
 62 72  1  0
 63 69  1  0
 63 65  1  0
 64 70  1  0
 65 64  1  0
 66 65  2  0
 67 68  1  0
 67 61  2  0
 68 63  2  0
 69 62  1  0
 70 60  1  0
 72 74  2  0
 73 72  1  0
 75 73  1  0
 76 85  2  0
 76 81  1  0
 77 73  1  0
 77 81  1  0
 78 77  1  0
 79 80  1  0
 79 78  1  0
 80 76  1  0
 81 82  2  0
 82 83  1  0
 84 83  2  0
 85 84  1  0
 86 60  1  0
 86 87  1  0
 86 96  1  0
 87 90  1  0
 88 92  1  0
 88 87  1  0
 89 88  2  0
 92 91  1  0
 94 92  1  0
 94 95  1  0
 94 93  1  0
 96 99  1  1
 96 97  1  0
 98 96  1  0
M  ISO  4   5 100  17 100  58 101  59 101
M  END
>  <TORSDO>  (27) 
F 22

>  <SCORE>  (27) 
-12.065

>  <name>  (27) 
26

>  <ligand_id>  (27) 
26

>  <original_smiles>  (27) 
[H]c1c([H])c([H])c2c(c1[H])C([H])([H])C([H])([H])C([H])([H])C2([H])N([H])C(=O)C1([H])N(C(=O)C([H])(N([H])C(=O)C([H])(N([H])C([H])([H])[H])C([H])([H])[H])C(C([H])([H])[H])(C([H])([H])[H])C([H])([H])[H])C([H])([H])c2c([H])c(OC([H])(C([H])([H])[H])C([H])([H])C([H])(C(=O)C([H])([H])C([H])([H])[H])N([H])C(=O)c3sc(N([H])C(=O)N4C([H])([H])C([H])([H])C([H])([H])C([H])(n5nc(-c6c([H])c([H])c(Oc7c([H])c([H])c(F)c([H])c7F)c([H])c6[H])c(C(=O)N([H])[H])c5N([H])[H])C4([H])[H])nc3N([H])[H])c([H])c([H])c2C1([H])[H]

>  <smiles>  (27) 
[H]c1c([H])c([H])c2c(c1[H])C([H])([H])C([H])([H])C([H])([H])C2([H])N([H])C(=O)C1([H])N(C(=O)C([H])(N([H])C(=O)C([H])(N([H])C([H])([H])[H])C([H])([H])[H])C(C([H])([H])[H])(C([H])([H])[H])C([H])([H])[H])C([H])([H])c2c([H])c(OC([H])(C([H])([H])[H])C([H])([H])C([H])(C(=O)C([H])([H])C([H])([H])[H])N([H])C(=O)c3sc(N([H])C(=O)N4C([H])([H])C([H])([H])C([H])([H])C([H])(n5nc(-c6c([H])c([H])c(Oc7c([H])c([H])c(F)c([H])c7F)c([H])c6[H])c(C(=O)N([H])[H])c5N([H])[H])C4([H])[H])nc3N([H])[H])c([H])c([H])c2C1([H])[H]

$$$$
27:0:0
     RDKit          3D

 93101  0  0  1  0  0  0  0  0999 V2000
  -28.3940  -22.4660   22.7440 C   0  0  0  0  0  1  0  0  0  0  0  0
  -29.2680  -22.6870   21.4990 C   0  0  0  0  0  3  0  0  0  0  0  0
  -29.2680  -18.1870   20.8040 C   0  0  0  0  0  3  0  0  0  0  0  0
  -30.5180  -17.7830   21.2190 C   0  0  0  0  0  0  0  0  0  0  0  0
  -30.1760  -20.2310   21.2070 C   0  0  0  0  0  0  0  0  0  0  0  0
  -29.0830  -19.5780   20.8100 N   0  0  0  0  0  0  0  0  0  0  0  0
  -30.2530  -21.6090   21.3960 N   0  0  0  0  0  0  0  0  0  0  0  0
  -31.5310  -19.1680   21.5730 S   0  0  0  0  0  0  0  0  0  0  0  0
  -31.1940  -21.9040   21.6330 H   0  0  0  0  0  0  0  0  0  0  0  0
  -31.0220  -16.3770   21.3940 C   0  0  0  0  0  2  0  0  0  0  0  0
  -31.6430  -14.4890   19.9370 C   0  0  0  0  0  0  0  0  0  0  0  0
  -31.1700  -12.3080   18.9050 C   0  0  0  0  0  2  0  0  0  0  0  0
  -30.1770  -12.5260   17.7430 C   0  0  0  0  0  2  0  0  0  0  0  0
  -28.7230  -12.4990   18.2540 C   0  0  0  0  0  2  0  0  0  0  0  0
  -28.5020  -13.4070   19.4950 C   0  0  0  0  0  3  0  0  0  0  0  0
  -29.5990  -13.1620   20.5570 C   0  0  0  0  0  2  0  0  0  0  0  0
  -30.9040  -13.3510   19.9060 N   0  0  0  0  0  0  0  0  0  0  0  0
  -32.7740  -14.5790   19.4560 O   0  0  0  0  0  0  0  0  0  0  0  0
  -30.9360  -15.6060   20.1570 N   0  0  0  0  0  0  0  0  0  0  0  0
  -31.0310  -16.2300   19.3710 H   0  0  0  0  0  0  0  0  0  0  0  0
  -26.2190  -14.2030   20.3730 C   0  0  0  0  0  0  0  0  0  0  0  0
  -25.1070  -13.5160   20.7830 C   0  0  0  0  0  0  0  0  0  0  0  0
  -25.4380  -12.1300   20.6760 C   0  0  0  0  0  0  0  0  0  0  0  0
  -27.1610  -13.2390   20.0480 N   0  0  0  0  0  0  0  0  0  0  0  0
  -26.6970  -11.9860   20.2850 N   0  0  0  0  0  0  0  0  0  0  0  0
  -24.6110  -10.9320   20.8660 C   0  0  0  0  0  0  0  0  0  0  0  0
  -24.9630   -9.9330   21.8010 C   0  0  0  0  0  3  0  0  0  0  0  0
  -24.1410   -8.7990   21.9800 C   0  0  0  0  0  3  0  0  0  0  0  0
  -22.9550   -8.6560   21.2230 C   0  0  0  0  0  0  0  0  0  0  0  0
  -22.6210   -9.6420   20.2770 C   0  0  0  0  0  3  0  0  0  0  0  0
  -23.4410  -10.7680   20.0970 C   0  0  0  0  0  3  0  0  0  0  0  0
  -22.1100   -7.5760   21.3100 O   0  0  0  0  0  0  0  0  0  0  0  0
  -21.9310   -6.8970   22.4880 C   0  0  0  0  0  0  0  0  0  0  0  0
  -21.4830   -7.5430   23.6600 C   0  0  0  0  0  3  0  0  0  0  0  0
  -21.2440   -6.7960   24.8300 C   0  0  0  0  0  3  0  0  0  0  0  0
  -21.4440   -5.4020   24.8290 C   0  0  0  0  0  0  0  0  0  0  0  0
  -21.8860   -4.7550   23.6610 C   0  0  0  0  0  3  0  0  0  0  0  0
  -22.1250   -5.5000   22.4930 C   0  0  0  0  0  0  0  0  0  0  0  0
  -22.5290   -4.8680   21.3650 F   0  0  0  0  0  0  0  0  0  0  0  0
  -21.2080   -4.6820   25.9500 F   0  0  0  0  0  0  0  0  0  0  0  0
  -23.7790  -14.1070   21.1620 C   0  0  0  0  0  0  0  0  0  0  0  0
  -23.0560  -13.4570   22.0670 N   0  0  0  0  0  0  0  0  0  0  0  0
  -23.3980  -15.1780   20.6900 O   0  0  0  0  0  0  0  0  0  0  0  0
  -23.3780  -12.5880   22.4670 H   0  0  0  0  0  0  0  0  0  0  0  0
  -22.1680  -13.8370   22.3640 H   0  0  0  0  0  0  0  0  0  0  0  0
  -26.5010  -15.5590   20.2310 N   0  0  0  0  0  0  0  0  0  0  0  0
  -25.8030  -16.2770   20.3880 H   0  0  0  0  0  0  0  0  0  0  0  0
  -27.3620  -15.9170   19.8390 H   0  0  0  0  0  0  0  0  0  0  0  0
  -29.9780  -24.0720   21.4610 C   0  0  0  0  0  2  0  0  0  0  0  0
  -29.2960  -25.6620   23.3620 C   0  0  0  0  0  1  0  0  0  0  0  0
  -29.1490  -25.3330   21.8600 C   0  0  0  0  0  3  0  0  0  0  0  0
  -29.5670  -26.5910   21.0530 C   0  0  0  0  0  2  0  0  0  0  0  0
  -28.7920  -26.7540   19.8640 O   0  0  0  0  0  0  0  0  0  0  0  0
  -24.7770  -31.6430   23.2090 C   0  0  0  0  0  0  0  0  0  0  0  0
  -27.6170  -27.4670   19.9590 C   0  0  0  0  0  0  0  0  0  0  0  0
  -23.6280  -30.2590   21.5090 C   0  0  0  0  0  3  0  0  0  0  0  0
  -25.1470  -28.8460   20.0240 C   0  0  0  0  0  0  0  0  0  0  0  0
  -26.1300  -30.7450   21.3200 C   0  0  0  0  0  2  0  0  0  0  0  0
  -26.2770  -29.4040   20.6340 C   0  0  0  0  0  0  0  0  0  0  0  0
  -27.5130  -28.7240   20.6020 C   0  0  0  0  0  3  0  0  0  0  0  0
  -26.4740  -26.9260   19.3360 C   0  0  0  0  0  3  0  0  0  0  0  0
  -25.2390  -27.6020   19.3730 C   0  0  0  0  0  3  0  0  0  0  0  0
  -23.8650  -29.6420   20.1020 C   0  0  0  0  0  2  0  0  0  0  0  0
  -24.8630  -30.8950   22.0720 N   0  0  0  0  0  0  0  0  0  0  0  0
  -23.6880  -31.8450   23.7620 O   0  0  0  0  0  0  0  0  0  0  0  0
  -23.0250  -29.1730   22.4270 C   0  0  0  0  0  0  0  0  0  0  0  0
  -21.7160  -28.9210   22.2740 N   0  0  0  0  0  0  0  0  0  0  0  0
  -23.7330  -28.5600   23.2290 O   0  0  0  0  0  0  0  0  0  0  0  0
  -21.2050  -29.4720   21.5980 H   0  0  0  0  0  0  0  0  0  0  0  0
  -18.4080  -27.5240   22.6720 C   0  0  0  0  0  0  0  0  0  0  0  0
  -20.9420  -27.9160   23.0000 C   0  0  0  0  0  3  0  0  0  0  0  0
  -21.1340  -26.5120   22.3800 C   0  0  0  0  0  2  0  0  0  0  0  0
  -20.0690  -26.1620   21.3360 C   0  0  0  0  0  2  0  0  0  0  0  0
  -18.6710  -26.2090   21.9590 C   0  0  0  0  0  2  0  0  0  0  0  0
  -19.4750  -28.3330   23.1460 C   0  0  0  0  0  0  0  0  0  0  0  0
  -19.1760  -29.5640   23.7700 C   0  0  0  0  0  3  0  0  0  0  0  0
  -17.8420  -29.9870   23.9270 C   0  0  0  0  0  3  0  0  0  0  0  0
  -16.7900  -29.1750   23.4690 C   0  0  0  0  0  3  0  0  0  0  0  0
  -17.0740  -27.9450   22.8470 C   0  0  0  0  0  3  0  0  0  0  0  0
  -26.0390  -32.2990   23.8530 C   0  0  0  0  0  3  0  0  0  0  0  0
  -25.6940  -33.6900   24.1800 N   0  0  0  0  0  0  0  0  0  0  0  0
  -26.0400  -34.7520   23.4390 C   0  0  0  0  0  0  0  0  0  0  0  0
  -26.7520  -34.6660   22.4360 O   0  0  0  0  0  0  0  0  0  0  0  0
  -25.0620  -33.8300   24.9540 H   0  0  0  0  0  0  0  0  0  0  0  0
  -24.3020  -36.5210   23.0150 C   0  0  0  0  0  1  0  0  0  0  0  0
  -25.5100  -36.1290   23.8830 C   0  0  0  0  0  3  0  0  0  0  0  0
  -27.5910  -37.0340   24.8190 C   0  0  0  0  0  1  0  0  0  0  0  0
  -26.5310  -37.1980   23.8280 N   0  0  0  0  0  0  0  0  0  0  0  0
  -26.1060  -38.1110   23.9670 H   0  0  0  0  0  0  0  0  0  0  0  0
  -26.5530  -31.5340   25.1340 C   0  0  1  0  0  0  0  0  0  0  0  0
  -25.4430  -31.2360   26.1690 C   0  0  0  0  0  1  0  0  0  0  0  0
  -27.2050  -30.1870   24.7390 C   0  0  0  0  0  1  0  0  0  0  0  0
  -27.6520  -32.3670   25.8360 C   0  0  0  0  0  1  0  0  0  0  0  0
  2  1  1  0
  3  6  1  0
  3  4  2  0
  4 10  1  0
  4  8  1  0
  5  7  1  0
  5  8  1  0
  6  5  2  0
  7  2  1  0
  7  9  1  0
 11 19  1  0
 12 17  1  0
 13 14  1  0
 13 12  1  0
 15 14  1  0
 15 24  1  0
 15 16  1  0
 17 11  1  0
 17 16  1  0
 18 11  2  0
 19 10  1  0
 20 19  1  0
 21 22  2  0
 22 41  1  0
 23 22  1  0
 23 26  1  0
 24 25  1  0
 24 21  1  0
 25 23  2  0
 26 27  1  0
 27 28  2  0
 29 32  1  0
 29 28  1  0
 30 29  2  0
 31 30  1  0
 31 26  2  0
 32 33  1  0
 33 38  2  0
 33 34  1  0
 34 35  2  0
 36 35  1  0
 36 40  1  0
 37 36  2  0
 38 37  1  0
 39 38  1  0
 41 42  1  0
 42 45  1  0
 42 44  1  0
 43 41  2  0
 46 21  1  0
 46 47  1  0
 48 46  1  0
 49  2  1  0
 49 51  1  0
 51 50  1  0
 52 51  1  0
 53 55  1  0
 53 52  1  0
 54 65  2  0
 55 60  1  0
 56 64  1  0
 56 66  1  0
 57 63  1  0
 57 59  1  0
 58 64  1  0
 59 58  1  0
 60 59  2  0
 61 62  1  0
 61 55  2  0
 62 57  2  0
 63 56  1  0
 64 54  1  0
 66 68  2  0
 67 66  1  0
 69 67  1  0
 70 79  2  0
 70 75  1  0
 71 67  1  0
 71 75  1  0
 72 71  1  0
 73 74  1  0
 73 72  1  0
 74 70  1  0
 75 76  2  0
 76 77  1  0
 78 77  2  0
 79 78  1  0
 80 54  1  0
 80 81  1  0
 80 90  1  0
 81 84  1  0
 82 86  1  0
 82 81  1  0
 83 82  2  0
 86 85  1  0
 88 86  1  0
 88 89  1  0
 88 87  1  0
 90 93  1  1
 90 91  1  0
 92 90  1  0
M  ISO  4  11 100  19 100  52 101  53 101
M  END
>  <TORSDO>  (28) 
F 21

>  <SCORE>  (28) 
-11.637

>  <name>  (28) 
27

>  <ligand_id>  (28) 
27

>  <original_smiles>  (28) 
[H]c1nc(N([H])C([H])(C([H])([H])[H])C([H])([H])C([H])(C([H])([H])[H])C([H])([H])Oc2c([H])c([H])c3c(c2[H])C([H])([H])N(C(=O)C([H])(N([H])C(=O)C([H])(N([H])C([H])([H])[H])C([H])([H])[H])C(C([H])([H])[H])(C([H])([H])[H])C([H])([H])[H])C([H])(C(=O)N([H])C2([H])c4c([H])c([H])c([H])c([H])c4C([H])([H])C([H])([H])C2([H])[H])C3([H])[H])sc1C([H])([H])N([H])C(=O)N1C([H])([H])C([H])([H])C([H])([H])C([H])(n2nc(-c3c([H])c([H])c(Oc4c([H])c([H])c(F)c([H])c4F)c([H])c3[H])c(C(=O)N([H])[H])c2N([H])[H])C1([H])[H]

>  <smiles>  (28) 
[H]c1nc(N([H])C([H])(C([H])([H])[H])C([H])([H])C([H])(C([H])([H])[H])C([H])([H])Oc2c([H])c([H])c3c(c2[H])C([H])([H])N(C(=O)C([H])(N([H])C(=O)C([H])(N([H])C([H])([H])[H])C([H])([H])[H])C(C([H])([H])[H])(C([H])([H])[H])C([H])([H])[H])C([H])(C(=O)N([H])C2([H])c4c([H])c([H])c([H])c([H])c4C([H])([H])C([H])([H])C2([H])[H])C3([H])[H])sc1C([H])([H])N([H])C(=O)N1C([H])([H])C([H])([H])C([H])([H])C([H])(n2nc(-c3c([H])c([H])c(Oc4c([H])c([H])c(F)c([H])c4F)c([H])c3[H])c(C(=O)N([H])[H])c2N([H])[H])C1([H])[H]

$$$$
28:0:0
     RDKit          3D

 94102  0  0  1  0  0  0  0  0999 V2000
  -29.0500  -22.9140   19.3900 C   0  0  0  0  0  0  0  0  0  0  0  0
  -28.6980  -21.7560   20.0080 N   0  0  0  0  0  0  0  0  0  0  0  0
  -30.1300  -23.0300   18.8040 O   0  0  0  0  0  0  0  0  0  0  0  0
  -27.8660  -21.8000   20.5830 H   0  0  0  0  0  0  0  0  0  0  0  0
  -30.4360  -18.6190   19.0640 C   0  0  0  0  0  3  0  0  0  0  0  0
  -29.9460  -19.9490   18.8340 C   0  0  0  0  0  3  0  0  0  0  0  0
  -30.1900  -18.1450   20.3270 C   0  0  0  0  0  0  0  0  0  0  0  0
  -29.2920  -20.5190   19.9070 C   0  0  0  0  0  0  0  0  0  0  0  0
  -29.2520  -19.3420   21.2180 S   0  0  0  0  0  0  0  0  0  0  0  0
  -30.7440  -16.8880   20.9900 C   0  0  0  0  0  2  0  0  0  0  0  0
  -30.8840  -14.5350   20.0510 C   0  0  0  0  0  0  0  0  0  0  0  0
  -30.5320  -12.3520   18.9380 C   0  0  0  0  0  2  0  0  0  0  0  0
  -29.5230  -12.5320   17.7860 C   0  0  0  0  0  2  0  0  0  0  0  0
  -28.0750  -12.3960   18.3020 C   0  0  0  0  0  2  0  0  0  0  0  0
  -27.8110  -13.2540   19.5690 C   0  0  0  0  0  3  0  0  0  0  0  0
  -28.9260  -13.0510   20.6170 C   0  0  0  0  0  2  0  0  0  0  0  0
  -30.2090  -13.3550   19.9650 N   0  0  0  0  0  0  0  0  0  0  0  0
  -32.0080  -14.6880   19.5650 O   0  0  0  0  0  0  0  0  0  0  0  0
  -30.2000  -15.5720   20.5850 N   0  0  0  0  0  0  0  0  0  0  0  0
  -29.2640  -15.3630   20.8980 H   0  0  0  0  0  0  0  0  0  0  0  0
  -25.4800  -13.8930   20.4460 C   0  0  0  0  0  0  0  0  0  0  0  0
  -24.4180  -13.1330   20.8580 C   0  0  0  0  0  0  0  0  0  0  0  0
  -24.8440  -11.7730   20.7600 C   0  0  0  0  0  0  0  0  0  0  0  0
  -26.4870  -12.9950   20.1270 N   0  0  0  0  0  0  0  0  0  0  0  0
  -26.1120  -11.7140   20.3730 N   0  0  0  0  0  0  0  0  0  0  0  0
  -24.1010  -10.5220   20.9560 C   0  0  0  0  0  0  0  0  0  0  0  0
  -24.5310   -9.5450   21.8810 C   0  0  0  0  0  3  0  0  0  0  0  0
  -23.7910   -8.3580   22.0650 C   0  0  0  0  0  3  0  0  0  0  0  0
  -22.6070   -8.1390   21.3240 C   0  0  0  0  0  0  0  0  0  0  0  0
  -22.1940   -9.1030   20.3890 C   0  0  0  0  0  3  0  0  0  0  0  0
  -22.9350  -10.2830   20.2020 C   0  0  0  0  0  3  0  0  0  0  0  0
  -21.8370   -7.0040   21.4180 O   0  0  0  0  0  0  0  0  0  0  0  0
  -21.7540   -6.2860   22.5830 C   0  0  0  0  0  0  0  0  0  0  0  0
  -21.2590   -6.8540   23.7770 C   0  0  0  0  0  3  0  0  0  0  0  0
  -21.1270   -6.0600   24.9340 C   0  0  0  0  0  3  0  0  0  0  0  0
  -21.4790   -4.6970   24.8970 C   0  0  0  0  0  0  0  0  0  0  0  0
  -21.9680   -4.1280   23.7080 C   0  0  0  0  0  3  0  0  0  0  0  0
  -22.1020   -4.9190   22.5540 C   0  0  0  0  0  0  0  0  0  0  0  0
  -22.5520   -4.3600   21.4050 F   0  0  0  0  0  0  0  0  0  0  0  0
  -21.3450   -3.9320   26.0060 F   0  0  0  0  0  0  0  0  0  0  0  0
  -23.0520  -13.6320   21.2290 C   0  0  0  0  0  0  0  0  0  0  0  0
  -22.3600  -12.9210   22.1130 N   0  0  0  0  0  0  0  0  0  0  0  0
  -22.6100  -14.6860   20.7730 O   0  0  0  0  0  0  0  0  0  0  0  0
  -22.7340  -12.0660   22.5000 H   0  0  0  0  0  0  0  0  0  0  0  0
  -21.4470  -13.2340   22.4070 H   0  0  0  0  0  0  0  0  0  0  0  0
  -25.6700  -15.2630   20.2970 N   0  0  0  0  0  0  0  0  0  0  0  0
  -24.9280  -15.9340   20.4670 H   0  0  0  0  0  0  0  0  0  0  0  0
  -26.5060  -15.6880   19.9160 H   0  0  0  0  0  0  0  0  0  0  0  0
  -28.0390  -24.1200   19.3950 C   0  0  0  0  0  3  0  0  0  0  0  0
  -25.7760  -23.0370   18.6720 C   0  0  0  0  0  1  0  0  0  0  0  0
  -27.0190  -23.8350   18.2430 C   0  0  0  0  0  2  0  0  0  0  0  0
  -28.9310  -26.1450   17.8940 C   0  0  0  0  0  1  0  0  0  0  0  0
  -28.7160  -25.5660   19.3070 C   0  0  0  0  0  3  0  0  0  0  0  0
  -28.3550  -26.6410   20.2290 O   0  0  0  0  0  0  0  0  0  0  0  0
  -24.5220  -31.8890   23.2060 C   0  0  0  0  0  0  0  0  0  0  0  0
  -27.1820  -27.3850   20.1670 C   0  0  0  0  0  0  0  0  0  0  0  0
  -23.3260  -30.4720   21.5730 C   0  0  0  0  0  3  0  0  0  0  0  0
  -24.7880  -28.9230   20.1670 C   0  0  0  0  0  0  0  0  0  0  0  0
  -25.8600  -30.8190   21.3880 C   0  0  0  0  0  2  0  0  0  0  0  0
  -25.9460  -29.4410   20.7540 C   0  0  0  0  0  0  0  0  0  0  0  0
  -27.1440  -28.6790   20.7500 C   0  0  0  0  0  3  0  0  0  0  0  0
  -25.9920  -26.8890   19.6020 C   0  0  0  0  0  3  0  0  0  0  0  0
  -24.8070  -27.6440   19.5890 C   0  0  0  0  0  3  0  0  0  0  0  0
  -23.5420  -29.7790   20.2010 C   0  0  0  0  0  2  0  0  0  0  0  0
  -24.5880  -31.0760   22.1140 N   0  0  0  0  0  0  0  0  0  0  0  0
  -23.4370  -32.1680   23.7350 O   0  0  0  0  0  0  0  0  0  0  0  0
  -22.6720  -29.4580   22.5390 C   0  0  0  0  0  0  0  0  0  0  0  0
  -21.3510  -29.2610   22.3970 N   0  0  0  0  0  0  0  0  0  0  0  0
  -23.3510  -28.8490   23.3700 O   0  0  0  0  0  0  0  0  0  0  0  0
  -20.8660  -29.8080   21.6990 H   0  0  0  0  0  0  0  0  0  0  0  0
  -17.9810  -28.0420   22.8730 C   0  0  0  0  0  0  0  0  0  0  0  0
  -20.5340  -28.3270   23.1680 C   0  0  0  0  0  3  0  0  0  0  0  0
  -20.6530  -26.8890   22.6110 C   0  0  0  0  0  2  0  0  0  0  0  0
  -19.5660  -26.5430   21.5890 C   0  0  0  0  0  2  0  0  0  0  0  0
  -18.1760  -26.6860   22.2150 C   0  0  0  0  0  2  0  0  0  0  0  0
  -19.0890  -28.8200   23.3050 C   0  0  0  0  0  0  0  0  0  0  0  0
  -18.8530  -30.0890   23.8770 C   0  0  0  0  0  3  0  0  0  0  0  0
  -17.5430  -30.5820   24.0200 C   0  0  0  0  0  3  0  0  0  0  0  0
  -16.4500  -29.8010   23.6050 C   0  0  0  0  0  3  0  0  0  0  0  0
  -16.6690  -28.5340   23.0370 C   0  0  0  0  0  3  0  0  0  0  0  0
  -25.8030  -32.5280   23.8280 C   0  0  0  0  0  3  0  0  0  0  0  0
  -25.4860  -33.9250   24.1540 N   0  0  0  0  0  0  0  0  0  0  0  0
  -25.8230  -34.9770   23.3970 C   0  0  0  0  0  0  0  0  0  0  0  0
  -26.5060  -34.8760   22.3730 O   0  0  0  0  0  0  0  0  0  0  0  0
  -24.8910  -34.0820   24.9530 H   0  0  0  0  0  0  0  0  0  0  0  0
  -24.1100  -36.7760   23.0060 C   0  0  0  0  0  1  0  0  0  0  0  0
  -25.3270  -36.3630   23.8500 C   0  0  0  0  0  3  0  0  0  0  0  0
  -27.4290  -37.2430   24.7600 C   0  0  0  0  0  1  0  0  0  0  0  0
  -26.3630  -37.4150   23.7760 N   0  0  0  0  0  0  0  0  0  0  0  0
  -25.9540  -38.3350   23.9100 H   0  0  0  0  0  0  0  0  0  0  0  0
  -26.3250  -31.7640   25.1080 C   0  0  1  0  0  0  0  0  0  0  0  0
  -25.2280  -31.5160   26.1700 C   0  0  0  0  0  1  0  0  0  0  0  0
  -26.9280  -30.3950   24.7180 C   0  0  0  0  0  1  0  0  0  0  0  0
  -27.4670  -32.5740   25.7680 C   0  0  0  0  0  1  0  0  0  0  0  0
  1 49  1  0
  1  2  1  0
  2  4  1  0
  3  1  2  0
  5  7  2  0
  6  5  1  0
  6  8  2  0
  7 10  1  0
  7  9  1  0
  8  2  1  0
  8  9  1  0
 11 19  1  0
 12 17  1  0
 13 14  1  0
 13 12  1  0
 15 14  1  0
 15 24  1  0
 15 16  1  0
 17 11  1  0
 17 16  1  0
 18 11  2  0
 19 20  1  0
 19 10  1  0
 21 22  2  0
 22 41  1  0
 23 22  1  0
 23 26  1  0
 24 25  1  0
 24 21  1  0
 25 23  2  0
 26 27  1  0
 27 28  2  0
 29 32  1  0
 29 28  1  0
 30 29  2  0
 31 30  1  0
 31 26  2  0
 32 33  1  0
 33 34  1  0
 34 35  2  0
 36 35  1  0
 36 40  1  0
 37 36  2  0
 38 33  2  0
 38 37  1  0
 39 38  1  0
 41 42  1  0
 42 45  1  0
 42 44  1  0
 43 41  2  0
 46 21  1  0
 46 47  1  0
 48 46  1  0
 49 51  1  0
 51 50  1  0
 53 52  1  0
 53 49  1  0
 53 54  1  0
 55 66  2  0
 56 54  1  0
 56 61  1  0
 57 65  1  0
 57 67  1  0
 58 64  1  0
 58 60  1  0
 59 65  1  0
 60 59  1  0
 61 60  2  0
 62 56  2  0
 63 62  1  0
 63 58  2  0
 64 57  1  0
 65 55  1  0
 67 69  2  0
 68 67  1  0
 70 68  1  0
 71 80  2  0
 71 76  1  0
 72 68  1  0
 72 76  1  0
 73 72  1  0
 74 75  1  0
 74 73  1  0
 75 71  1  0
 76 77  2  0
 77 78  1  0
 79 78  2  0
 80 79  1  0
 81 55  1  0
 81 82  1  0
 81 91  1  0
 82 85  1  0
 83 87  1  0
 83 82  1  0
 84 83  2  0
 87 86  1  0
 89 87  1  0
 89 90  1  0
 89 88  1  0
 91 94  1  1
 91 92  1  0
 93 91  1  0
M  ISO  4  11 100  19 100  53 101  54 101
M  END
>  <TORSDO>  (29) 
F 21

>  <SCORE>  (29) 
-13.009

>  <name>  (29) 
28

>  <ligand_id>  (29) 
28

>  <original_smiles>  (29) 
[H]c1c(N([H])C(=O)C([H])(C([H])([H])C([H])([H])[H])C([H])(Oc2c([H])c([H])c3c(c2[H])C([H])([H])N(C(=O)C([H])(N([H])C(=O)C([H])(N([H])C([H])([H])[H])C([H])([H])[H])C(C([H])([H])[H])(C([H])([H])[H])C([H])([H])[H])C([H])(C(=O)N([H])C2([H])c4c([H])c([H])c([H])c([H])c4C([H])([H])C([H])([H])C2([H])[H])C3([H])[H])C([H])([H])[H])sc(C([H])([H])N([H])C(=O)N2C([H])([H])C([H])([H])C([H])([H])C([H])(n3nc(-c4c([H])c([H])c(Oc5c([H])c([H])c(F)c([H])c5F)c([H])c4[H])c(C(=O)N([H])[H])c3N([H])[H])C2([H])[H])c1[H]

>  <smiles>  (29) 
[H]c1c(N([H])C(=O)C([H])(C([H])([H])C([H])([H])[H])C([H])(Oc2c([H])c([H])c3c(c2[H])C([H])([H])N(C(=O)C([H])(N([H])C(=O)C([H])(N([H])C([H])([H])[H])C([H])([H])[H])C(C([H])([H])[H])(C([H])([H])[H])C([H])([H])[H])C([H])(C(=O)N([H])C2([H])c4c([H])c([H])c([H])c([H])c4C([H])([H])C([H])([H])C2([H])[H])C3([H])[H])C([H])([H])[H])sc(C([H])([H])N([H])C(=O)N2C([H])([H])C([H])([H])C([H])([H])C([H])(n3nc(-c4c([H])c([H])c(Oc5c([H])c([H])c(F)c([H])c5F)c([H])c4[H])c(C(=O)N([H])[H])c3N([H])[H])C2([H])[H])c1[H]

$$$$
29:0:0
     RDKit          3D

101109  0  0  1  0  0  0  0  0999 V2000
  -28.2980  -20.1030   20.1530 C   0  0  0  0  0  3  0  0  0  0  0  0
  -30.6650  -14.4710   20.5220 C   0  0  0  0  0  0  0  0  0  0  0  0
  -30.4310  -12.2810   19.4160 C   0  0  0  0  0  2  0  0  0  0  0  0
  -29.4910  -12.4720   18.2040 C   0  0  0  0  0  2  0  0  0  0  0  0
  -28.0120  -12.3270   18.6230 C   0  0  0  0  0  2  0  0  0  0  0  0
  -27.6630  -13.1750   19.8750 C   0  0  0  0  0  3  0  0  0  0  0  0
  -28.7100  -12.9470   20.9910 C   0  0  0  0  0  2  0  0  0  0  0  0
  -30.0370  -13.2670   20.4310 N   0  0  0  0  0  0  0  0  0  0  0  0
  -31.8370  -14.6570   20.1770 O   0  0  0  0  0  0  0  0  0  0  0  0
  -29.3540  -19.0570   20.5430 C   0  0  0  0  0  0  0  0  0  0  0  0
  -30.4790  -19.2330   21.3290 C   0  0  0  0  0  0  0  0  0  0  0  0
  -30.0650  -16.8810   20.7360 C   0  0  0  0  0  0  0  0  0  0  0  0
  -29.1880  -17.7100   20.1580 N   0  0  0  0  0  0  0  0  0  0  0  0
  -29.8170  -15.4840   20.7500 N   0  0  0  0  0  0  0  0  0  0  0  0
  -31.3240  -17.7230   21.6310 S   0  0  0  0  0  0  0  0  0  0  0  0
  -28.8520  -15.2110   20.8260 H   0  0  0  0  0  0  0  0  0  0  0  0
  -25.2640  -13.8110   20.5660 C   0  0  0  0  0  0  0  0  0  0  0  0
  -24.1840  -13.0420   20.9200 C   0  0  0  0  0  0  0  0  0  0  0  0
  -24.6370  -11.6890   20.8780 C   0  0  0  0  0  0  0  0  0  0  0  0
  -26.3000  -12.9190   20.3360 N   0  0  0  0  0  0  0  0  0  0  0  0
  -25.9280  -11.6400   20.5820 N   0  0  0  0  0  0  0  0  0  0  0  0
  -23.9020  -10.4290   21.0430 C   0  0  0  0  0  0  0  0  0  0  0  0
  -24.3600   -9.4210   21.9190 C   0  0  0  0  0  3  0  0  0  0  0  0
  -23.6280   -8.2260   22.0780 C   0  0  0  0  0  3  0  0  0  0  0  0
  -22.4280   -8.0280   21.3560 C   0  0  0  0  0  0  0  0  0  0  0  0
  -21.9890   -9.0240   20.4660 C   0  0  0  0  0  3  0  0  0  0  0  0
  -22.7210  -10.2130   20.3060 C   0  0  0  0  0  3  0  0  0  0  0  0
  -21.6660   -6.8890   21.4240 O   0  0  0  0  0  0  0  0  0  0  0  0
  -21.6860   -6.0750   22.5280 C   0  0  0  0  0  0  0  0  0  0  0  0
  -21.4020   -6.5660   23.8200 C   0  0  0  0  0  3  0  0  0  0  0  0
  -21.3640   -5.6810   24.9160 C   0  0  0  0  0  3  0  0  0  0  0  0
  -21.6040   -4.3080   24.7230 C   0  0  0  0  0  0  0  0  0  0  0  0
  -21.8820   -3.8170   23.4350 C   0  0  0  0  0  3  0  0  0  0  0  0
  -21.9190   -4.6980   22.3400 C   0  0  0  0  0  0  0  0  0  0  0  0
  -22.1680   -4.2160   21.0980 F   0  0  0  0  0  0  0  0  0  0  0  0
  -21.5620   -3.4550   25.7730 F   0  0  0  0  0  0  0  0  0  0  0  0
  -22.7870  -13.5250   21.1880 C   0  0  0  0  0  0  0  0  0  0  0  0
  -22.0530  -12.8190   22.0430 N   0  0  0  0  0  0  0  0  0  0  0  0
  -22.3540  -14.5550   20.6750 O   0  0  0  0  0  0  0  0  0  0  0  0
  -22.4130  -11.9820   22.4740 H   0  0  0  0  0  0  0  0  0  0  0  0
  -21.1140  -13.1200   22.2670 H   0  0  0  0  0  0  0  0  0  0  0  0
  -25.4440  -15.1810   20.4110 N   0  0  0  0  0  0  0  0  0  0  0  0
  -24.6920  -15.8430   20.5490 H   0  0  0  0  0  0  0  0  0  0  0  0
  -26.2910  -15.6190   20.0680 H   0  0  0  0  0  0  0  0  0  0  0  0
  -30.9460  -20.4220   21.8950 N   0  0  0  0  0  0  0  0  0  0  0  0
  -31.1570  -20.3150   22.8870 H   0  0  0  0  0  0  0  0  0  0  0  0
  -31.8390  -20.7010   21.4950 H   0  0  0  0  0  0  0  0  0  0  0  0
  -28.9230  -21.4770   20.2620 N   0  0  0  0  0  4  0  0  0  0  0  0
  -29.6930  -21.4390   19.6130 H   0  0  0  0  0  0  0  0  0  0  0  0
  -29.3820  -21.4850   21.1680 H   0  0  0  0  0  0  0  0  0  0  0  0
  -27.4390  -22.7760   18.6420 C   0  0  0  0  0  1  0  0  0  0  0  0
  -28.1990  -22.7710   19.9880 C   0  0  0  0  0  3  0  0  0  0  0  0
  -29.9380  -24.4390   18.9900 C   0  0  0  0  0  1  0  0  0  0  0  0
  -29.0540  -24.0780   20.1980 C   0  0  0  0  0  3  0  0  0  0  0  0
  -28.1560  -25.2790   20.6780 C   0  0  0  0  0  2  0  0  0  0  0  0
  -28.3700  -26.6020   20.1140 O   0  0  0  0  0  0  0  0  0  0  0  0
  -24.6190  -31.8630   23.2100 C   0  0  0  0  0  0  0  0  0  0  0  0
  -27.2360  -27.4020   20.0970 C   0  0  0  0  0  0  0  0  0  0  0  0
  -23.4130  -30.4880   21.5500 C   0  0  0  0  0  3  0  0  0  0  0  0
  -24.8600  -28.9540   20.1150 C   0  0  0  0  0  0  0  0  0  0  0  0
  -25.9500  -30.8190   21.3730 C   0  0  0  0  0  2  0  0  0  0  0  0
  -26.0250  -29.4540   20.7100 C   0  0  0  0  0  0  0  0  0  0  0  0
  -27.2200  -28.6880   20.6930 C   0  0  0  0  0  3  0  0  0  0  0  0
  -26.0540  -26.9360   19.4800 C   0  0  0  0  0  3  0  0  0  0  0  0
  -24.8690  -27.6940   19.4980 C   0  0  0  0  0  3  0  0  0  0  0  0
  -23.6250  -29.8250   20.1660 C   0  0  0  0  0  2  0  0  0  0  0  0
  -24.6800  -31.0710   22.1020 N   0  0  0  0  0  0  0  0  0  0  0  0
  -23.5360  -32.1410   23.7450 O   0  0  0  0  0  0  0  0  0  0  0  0
  -22.7440  -29.4650   22.4970 C   0  0  0  0  0  0  0  0  0  0  0  0
  -21.4180  -29.3000   22.3700 N   0  0  0  0  0  0  0  0  0  0  0  0
  -23.4200  -28.8170   23.2970 O   0  0  0  0  0  0  0  0  0  0  0  0
  -20.9360  -29.8750   21.6950 H   0  0  0  0  0  0  0  0  0  0  0  0
  -18.0300  -28.1370   22.8490 C   0  0  0  0  0  0  0  0  0  0  0  0
  -20.5890  -28.3650   23.1290 C   0  0  0  0  0  3  0  0  0  0  0  0
  -20.6780  -26.9380   22.5410 C   0  0  0  0  0  2  0  0  0  0  0  0
  -19.5760  -26.6370   21.5210 C   0  0  0  0  0  2  0  0  0  0  0  0
  -18.1940  -26.7930   22.1600 C   0  0  0  0  0  2  0  0  0  0  0  0
  -19.1550  -28.8830   23.2890 C   0  0  0  0  0  0  0  0  0  0  0  0
  -18.9470  -30.1430   23.8890 C   0  0  0  0  0  3  0  0  0  0  0  0
  -17.6460  -30.6570   24.0550 C   0  0  0  0  0  3  0  0  0  0  0  0
  -16.5350  -29.9070   23.6330 C   0  0  0  0  0  3  0  0  0  0  0  0
  -16.7280  -28.6490   23.0350 C   0  0  0  0  0  3  0  0  0  0  0  0
  -25.9050  -32.4810   23.8410 C   0  0  0  0  0  3  0  0  0  0  0  0
  -25.5900  -33.8610   24.2340 N   0  0  0  0  0  0  0  0  0  0  0  0
  -25.9040  -34.9450   23.5130 C   0  0  0  0  0  0  0  0  0  0  0  0
  -26.5580  -34.8890   22.4680 O   0  0  0  0  0  0  0  0  0  0  0  0
  -25.0080  -33.9740   25.0500 H   0  0  0  0  0  0  0  0  0  0  0  0
  -24.1490  -36.7310   23.2650 C   0  0  0  0  0  1  0  0  0  0  0  0
  -25.4110  -36.3090   24.0340 C   0  0  0  0  0  3  0  0  0  0  0  0
  -27.5580  -37.1800   24.8470 C   0  0  0  0  0  1  0  0  0  0  0  0
  -26.4300  -37.3760   23.9410 N   0  0  0  0  0  0  0  0  0  0  0  0
  -26.0200  -38.2850   24.1380 H   0  0  0  0  0  0  0  0  0  0  0  0
  -26.4460  -31.6620   25.0760 C   0  0  1  0  0  0  0  0  0  0  0  0
  -25.3720  -31.3720   26.1520 C   0  0  0  0  0  1  0  0  0  0  0  0
  -27.0300  -30.3040   24.6190 C   0  0  0  0  0  1  0  0  0  0  0  0
  -27.6030  -32.4360   25.7520 C   0  0  0  0  0  1  0  0  0  0  0  0
  -26.2380  -20.9890   21.6380 C   0  0  0  0  0  1  0  0  0  0  0  0
  -26.9120  -18.6530   21.9130 C   0  0  0  0  0  1  0  0  0  0  0  0
  -26.8750  -19.8100   20.8600 C   0  0  2  0  0  0  0  0  0  0  0  0
  -24.4570  -19.0560   20.1190 C   0  0  0  0  0  1  0  0  0  0  0  0
  -25.9120  -19.3550   19.7160 C   0  0  0  0  0  2  0  0  0  0  0  0
  1 48  1  0
  1 10  1  0
  1 99  1  0
  2 14  1  0
  3  8  1  0
  4  5  1  0
  4  3  1  0
  6  5  1  0
  6 20  1  0
  6  7  1  0
  8  2  1  0
  8  7  1  0
  9  2  2  0
 10 11  2  0
 11 15  1  0
 11 45  1  0
 12 14  1  0
 12 15  1  0
 13 10  1  0
 13 12  2  0
 14 16  1  0
 17 18  2  0
 18 37  1  0
 19 18  1  0
 19 22  1  0
 20 17  1  0
 20 21  1  0
 21 19  2  0
 22 23  1  0
 23 24  2  0
 25 28  1  0
 25 24  1  0
 26 25  2  0
 27 26  1  0
 27 22  2  0
 28 29  1  0
 29 30  1  0
 30 31  2  0
 32 31  1  0
 32 36  1  0
 33 32  2  0
 34 29  2  0
 34 33  1  0
 35 34  1  0
 37 38  1  0
 38 41  1  0
 38 40  1  0
 39 37  2  0
 42 43  1  0
 42 17  1  0
 44 42  1  0
 45 46  1  0
 47 45  1  0
 48 50  1  0
 49 48  1  0
 52 51  1  0
 52 54  1  0
 52 48  1  0
 54 53  1  0
 54 55  1  0
 56 55  1  0
 57 68  2  0
 58 56  1  0
 58 63  1  0
 59 67  1  0
 59 69  1  0
 60 66  1  0
 60 62  1  0
 61 67  1  0
 62 61  1  0
 63 62  2  0
 64 65  1  0
 64 58  2  0
 65 60  2  0
 66 59  1  0
 67 57  1  0
 69 71  2  0
 70 69  1  0
 72 70  1  0
 73 82  2  0
 73 78  1  0
 74 70  1  0
 74 78  1  0
 75 74  1  0
 76 77  1  0
 76 75  1  0
 77 73  1  0
 78 79  2  0
 79 80  1  0
 81 80  2  0
 82 81  1  0
 83 57  1  0
 83 84  1  0
 83 93  1  0
 84 87  1  0
 85 89  1  0
 85 84  1  0
 86 85  2  0
 89 88  1  0
 91 89  1  0
 91 92  1  0
 91 90  1  0
 93 96  1  1
 93 94  1  0
 95 93  1  0
 99 97  1  1
 99 98  1  0
101100  1  0
101 99  1  0
M  ISO  4   2 100  14 100  55 101  56 101
M  END
>  <TORSDO>  (30) 
F 23

>  <SCORE>  (30) 
0.427

>  <name>  (30) 
29

>  <ligand_id>  (30) 
29

>  <original_smiles>  (30) 
[H]c1c([H])c([H])c2c(c1[H])C([H])([H])C([H])([H])C([H])([H])C2([H])N([H])C(=O)C1([H])N(C(=O)C([H])(N([H])C(=O)C([H])(N([H])C([H])([H])[H])C([H])([H])[H])C(C([H])([H])[H])(C([H])([H])[H])C([H])([H])[H])C([H])([H])c2c([H])c(OC([H])([H])C([H])(C([H])([H])[H])C([H])(C([H])([H])[H])[N+]([H])([H])C([H])(c3nc(N([H])C(=O)N4C([H])([H])C([H])([H])C([H])([H])C([H])(n5nc(-c6c([H])c([H])c(Oc7c([H])c([H])c(F)c([H])c7F)c([H])c6[H])c(C(=O)N([H])[H])c5N([H])[H])C4([H])[H])sc3N([H])[H])C(C([H])([H])[H])(C([H])([H])[H])C([H])([H])C([H])([H])[H])c([H])c([H])c2C1([H])[H]

>  <smiles>  (30) 
[H]c1c([H])c([H])c2c(c1[H])C([H])([H])C([H])([H])C([H])([H])C2([H])N([H])C(=O)C1([H])N(C(=O)C([H])(N([H])C(=O)C([H])(N([H])C([H])([H])[H])C([H])([H])[H])C(C([H])([H])[H])(C([H])([H])[H])C([H])([H])[H])C([H])([H])c2c([H])c(OC([H])([H])C([H])(C([H])([H])[H])C([H])(C([H])([H])[H])[N+]([H])([H])C([H])(c3nc(N([H])C(=O)N4C([H])([H])C([H])([H])C([H])([H])C([H])(n5nc(-c6c([H])c([H])c(Oc7c([H])c([H])c(F)c([H])c7F)c([H])c6[H])c(C(=O)N([H])[H])c5N([H])[H])C4([H])[H])sc3N([H])[H])C(C([H])([H])[H])(C([H])([H])[H])C([H])([H])C([H])([H])[H])c([H])c([H])c2C1([H])[H]

$$$$
30:0:0
     RDKit          3D

 94102  0  0  1  0  0  0  0  0999 V2000
  -29.5110  -22.7390   20.6980 C   0  0  0  0  0  2  0  0  0  0  0  0
  -29.4890  -21.5080   18.2530 O   0  0  0  0  0  0  0  0  0  0  0  0
  -27.5700  -21.0070   19.8120 O   0  0  0  0  0  0  0  0  0  0  0  0
  -29.0130  -21.2400   19.6210 S   0  0  2  0  0  0  0  0  0  0  0  0
  -30.7360  -17.9360   21.5110 C   0  0  0  0  0  3  0  0  0  0  0  0
  -30.3960  -19.3330   21.3700 C   0  0  0  0  0  0  0  0  0  0  0  0
  -30.4450  -17.1120   20.4450 C   0  0  0  0  0  0  0  0  0  0  0  0
  -29.8440  -19.6480   20.1430 C   0  0  0  0  0  0  0  0  0  0  0  0
  -30.5860  -20.2940   22.5060 C   0  0  0  0  0  1  0  0  0  0  0  0
  -29.8040  -18.1570   19.1550 S   0  0  0  0  0  0  0  0  0  0  0  0
  -31.1880  -14.7220   19.9300 C   0  0  0  0  0  0  0  0  0  0  0  0
  -30.9450  -12.4390   18.9490 C   0  0  0  0  0  2  0  0  0  0  0  0
  -29.9620  -12.5310   17.7590 C   0  0  0  0  0  2  0  0  0  0  0  0
  -28.5000  -12.4120   18.2350 C   0  0  0  0  0  2  0  0  0  0  0  0
  -28.1980  -13.3350   19.4450 C   0  0  0  0  0  3  0  0  0  0  0  0
  -29.2800  -13.1780   20.5360 C   0  0  0  0  0  2  0  0  0  0  0  0
  -30.5810  -13.4910   19.9200 N   0  0  0  0  0  0  0  0  0  0  0  0
  -32.2910  -14.9040   19.4020 O   0  0  0  0  0  0  0  0  0  0  0  0
  -30.4590  -15.7240   20.5130 N   0  0  0  0  0  0  0  0  0  0  0  0
  -29.7140  -15.3420   21.0750 H   0  0  0  0  0  0  0  0  0  0  0  0
  -25.8580  -14.0380   20.2430 C   0  0  0  0  0  0  0  0  0  0  0  0
  -24.7720  -13.3100   20.6500 C   0  0  0  0  0  0  0  0  0  0  0  0
  -25.1740  -11.9400   20.5970 C   0  0  0  0  0  0  0  0  0  0  0  0
  -26.8540  -13.1140   19.9720 N   0  0  0  0  0  0  0  0  0  0  0  0
  -26.4490  -11.8460   20.2410 N   0  0  0  0  0  0  0  0  0  0  0  0
  -24.4030  -10.7090   20.8100 C   0  0  0  0  0  0  0  0  0  0  0  0
  -24.7710   -9.7670   21.7940 C   0  0  0  0  0  3  0  0  0  0  0  0
  -24.0020   -8.6000   21.9930 C   0  0  0  0  0  3  0  0  0  0  0  0
  -22.8490   -8.3680   21.2050 C   0  0  0  0  0  0  0  0  0  0  0  0
  -22.5000   -9.2990   20.2110 C   0  0  0  0  0  3  0  0  0  0  0  0
  -23.2690  -10.4570   20.0110 C   0  0  0  0  0  3  0  0  0  0  0  0
  -22.0590   -7.2500   21.3090 O   0  0  0  0  0  0  0  0  0  0  0  0
  -21.8660   -6.6130   22.5090 C   0  0  0  0  0  0  0  0  0  0  0  0
  -21.3290   -7.2840   23.6290 C   0  0  0  0  0  3  0  0  0  0  0  0
  -21.0830   -6.5750   24.8230 C   0  0  0  0  0  3  0  0  0  0  0  0
  -21.3620   -5.1960   24.8930 C   0  0  0  0  0  0  0  0  0  0  0  0
  -21.8920   -4.5270   23.7760 C   0  0  0  0  0  3  0  0  0  0  0  0
  -22.1400   -5.2340   22.5860 C   0  0  0  0  0  0  0  0  0  0  0  0
  -22.6300   -4.5780   21.5060 F   0  0  0  0  0  0  0  0  0  0  0  0
  -21.1170   -4.5120   26.0360 F   0  0  0  0  0  0  0  0  0  0  0  0
  -23.4080  -13.8450   20.9780 C   0  0  0  0  0  0  0  0  0  0  0  0
  -22.6960  -13.1900   21.8870 N   0  0  0  0  0  0  0  0  0  0  0  0
  -22.9840  -14.8780   20.4600 O   0  0  0  0  0  0  0  0  0  0  0  0
  -23.0530  -12.3510   22.3210 H   0  0  0  0  0  0  0  0  0  0  0  0
  -21.7830  -13.5300   22.1520 H   0  0  0  0  0  0  0  0  0  0  0  0
  -26.0750  -15.4010   20.0640 N   0  0  0  0  0  0  0  0  0  0  0  0
  -25.3420  -16.0880   20.2040 H   0  0  0  0  0  0  0  0  0  0  0  0
  -26.9310  -15.8070   19.7070 H   0  0  0  0  0  0  0  0  0  0  0  0
  -28.6670  -24.1060   20.8010 C   0  0  0  0  0  3  0  0  0  0  0  0
  -27.3230  -23.9020   21.3160 N   0  0  0  0  0  0  0  0  0  0  0  0
  -26.9120  -24.8190   21.4710 H   0  0  0  0  0  0  0  0  0  0  0  0
  -26.7440  -23.4960   20.5870 H   0  0  0  0  0  0  0  0  0  0  0  0
  -28.6470  -25.2250   19.6800 C   0  0  0  0  0  2  0  0  0  0  0  0
  -28.5080  -26.6170   20.1640 O   0  0  0  0  0  0  0  0  0  0  0  0
  -24.5740  -31.8320   23.1770 C   0  0  0  0  0  0  0  0  0  0  0  0
  -27.3230  -27.3620   20.1150 C   0  0  0  0  0  0  0  0  0  0  0  0
  -23.4190  -30.4250   21.5080 C   0  0  0  0  0  3  0  0  0  0  0  0
  -24.9160  -28.9100   20.0900 C   0  0  0  0  0  0  0  0  0  0  0  0
  -25.9500  -30.7960   21.3600 C   0  0  0  0  0  2  0  0  0  0  0  0
  -26.0630  -29.4240   20.7070 C   0  0  0  0  0  0  0  0  0  0  0  0
  -27.2640  -28.6610   20.7080 C   0  0  0  0  0  3  0  0  0  0  0  0
  -26.1450  -26.8850   19.4950 C   0  0  0  0  0  3  0  0  0  0  0  0
  -24.9580  -27.6450   19.4790 C   0  0  0  0  0  3  0  0  0  0  0  0
  -23.6620  -29.7600   20.1270 C   0  0  0  0  0  2  0  0  0  0  0  0
  -24.6650  -31.0350   22.0720 N   0  0  0  0  0  0  0  0  0  0  0  0
  -23.4790  -32.0870   23.6980 O   0  0  0  0  0  0  0  0  0  0  0  0
  -22.7610  -29.3910   22.4510 C   0  0  0  0  0  0  0  0  0  0  0  0
  -21.4420  -29.1860   22.2930 N   0  0  0  0  0  0  0  0  0  0  0  0
  -23.4350  -28.7770   23.2820 O   0  0  0  0  0  0  0  0  0  0  0  0
  -20.9600  -29.7330   21.5940 H   0  0  0  0  0  0  0  0  0  0  0  0
  -18.0820  -27.9130   22.7000 C   0  0  0  0  0  0  0  0  0  0  0  0
  -20.6250  -28.2280   23.0390 C   0  0  0  0  0  3  0  0  0  0  0  0
  -20.7750  -26.8010   22.4610 C   0  0  0  0  0  2  0  0  0  0  0  0
  -19.7070  -26.4580   21.4180 C   0  0  0  0  0  2  0  0  0  0  0  0
  -18.3060  -26.5690   22.0270 C   0  0  0  0  0  2  0  0  0  0  0  0
  -19.1720  -28.6990   23.1610 C   0  0  0  0  0  0  0  0  0  0  0  0
  -18.9090  -29.9550   23.7490 C   0  0  0  0  0  3  0  0  0  0  0  0
  -17.5890  -30.4270   23.8810 C   0  0  0  0  0  3  0  0  0  0  0  0
  -16.5130  -29.6370   23.4390 C   0  0  0  0  0  3  0  0  0  0  0  0
  -16.7600  -28.3820   22.8540 C   0  0  0  0  0  3  0  0  0  0  0  0
  -25.8370  -32.4780   23.8270 C   0  0  0  0  0  3  0  0  0  0  0  0
  -25.5030  -33.8710   24.1580 N   0  0  0  0  0  0  0  0  0  0  0  0
  -25.8420  -34.9330   23.4160 C   0  0  0  0  0  0  0  0  0  0  0  0
  -26.5390  -34.8450   22.4010 O   0  0  0  0  0  0  0  0  0  0  0  0
  -24.8860  -34.0120   24.9450 H   0  0  0  0  0  0  0  0  0  0  0  0
  -24.1070  -36.7110   23.0270 C   0  0  0  0  0  1  0  0  0  0  0  0
  -25.3290  -36.3140   23.8700 C   0  0  0  0  0  3  0  0  0  0  0  0
  -27.4300  -37.2130   24.7670 C   0  0  0  0  0  1  0  0  0  0  0  0
  -26.3540  -37.3770   23.7940 N   0  0  0  0  0  0  0  0  0  0  0  0
  -25.9370  -38.2930   23.9320 H   0  0  0  0  0  0  0  0  0  0  0  0
  -26.3400  -31.7060   25.1080 C   0  0  1  0  0  0  0  0  0  0  0  0
  -25.2290  -31.4380   26.1510 C   0  0  0  0  0  1  0  0  0  0  0  0
  -26.9570  -30.3430   24.7150 C   0  0  0  0  0  1  0  0  0  0  0  0
  -27.4620  -32.5170   25.8000 C   0  0  0  0  0  1  0  0  0  0  0  0
  1 49  1  0
  2  4  2  0
  4  3  2  0
  4  8  1  0
  4  1  1  1
  6  5  1  0
  6  9  1  0
  7 19  1  0
  7  5  2  0
  8  6  2  0
 10  8  1  0
 10  7  1  0
 11 19  1  0
 12 17  1  0
 13 14  1  0
 13 12  1  0
 15 14  1  0
 15 24  1  0
 15 16  1  0
 17 11  1  0
 17 16  1  0
 18 11  2  0
 19 20  1  0
 21 22  2  0
 22 41  1  0
 23 22  1  0
 23 26  1  0
 24 25  1  0
 24 21  1  0
 25 23  2  0
 26 27  1  0
 27 28  2  0
 29 32  1  0
 29 28  1  0
 30 29  2  0
 31 30  1  0
 31 26  2  0
 32 33  1  0
 33 38  2  0
 33 34  1  0
 34 35  2  0
 35 36  1  0
 36 40  1  0
 37 36  2  0
 38 37  1  0
 39 38  1  0
 41 42  1  0
 42 45  1  0
 42 44  1  0
 43 41  2  0
 46 47  1  0
 46 21  1  0
 48 46  1  0
 49 53  1  0
 49 50  1  0
 50 51  1  0
 52 50  1  0
 53 54  1  0
 55 66  2  0
 56 54  1  0
 56 61  1  0
 57 65  1  0
 57 67  1  0
 58 64  1  0
 58 60  1  0
 59 65  1  0
 60 61  2  0
 60 59  1  0
 62 56  2  0
 63 62  1  0
 63 58  2  0
 64 57  1  0
 65 55  1  0
 67 69  2  0
 68 67  1  0
 70 68  1  0
 71 80  2  0
 71 76  1  0
 72 68  1  0
 72 76  1  0
 73 72  1  0
 74 75  1  0
 74 73  1  0
 75 71  1  0
 76 77  2  0
 77 78  1  0
 79 78  2  0
 80 79  1  0
 81 55  1  0
 81 82  1  0
 81 91  1  0
 82 85  1  0
 83 87  1  0
 83 82  1  0
 84 83  2  0
 87 86  1  0
 89 87  1  0
 89 90  1  0
 89 88  1  0
 91 94  1  1
 91 92  1  0
 93 91  1  0
M  ISO  4  11 100  19 100  53 101  54 101
M  END
>  <TORSDO>  (31) 
F 21

>  <SCORE>  (31) 
-13.067

>  <name>  (31) 
30

>  <ligand_id>  (31) 
30

>  <original_smiles>  (31) 
[H]c1c([H])c([H])c2c(c1[H])C([H])([H])C([H])([H])C([H])([H])C2([H])N([H])C(=O)C1([H])N(C(=O)C([H])(N([H])C(=O)C([H])(N([H])C([H])([H])[H])C([H])([H])[H])C(C([H])([H])[H])(C([H])([H])[H])C([H])([H])[H])C([H])([H])c2c([H])c(OC([H])([H])C([H])(N([H])[H])C([H])([H])S(=O)(=O)c3sc(N([H])C(=O)N4C([H])([H])C([H])([H])C([H])([H])C([H])(n5nc(-c6c([H])c([H])c(Oc7c([H])c([H])c(F)c([H])c7F)c([H])c6[H])c(C(=O)N([H])[H])c5N([H])[H])C4([H])[H])c([H])c3C([H])([H])[H])c([H])c([H])c2C1([H])[H]

>  <smiles>  (31) 
[H]c1c([H])c([H])c2c(c1[H])C([H])([H])C([H])([H])C([H])([H])C2([H])N([H])C(=O)C1([H])N(C(=O)C([H])(N([H])C(=O)C([H])(N([H])C([H])([H])[H])C([H])([H])[H])C(C([H])([H])[H])(C([H])([H])[H])C([H])([H])[H])C([H])([H])c2c([H])c(OC([H])([H])C([H])(N([H])[H])C([H])([H])S(=O)(=O)c3sc(N([H])C(=O)N4C([H])([H])C([H])([H])C([H])([H])C([H])(n5nc(-c6c([H])c([H])c(Oc7c([H])c([H])c(F)c([H])c7F)c([H])c6[H])c(C(=O)N([H])[H])c5N([H])[H])C4([H])[H])c([H])c3C([H])([H])[H])c([H])c([H])c2C1([H])[H]

$$$$
31:0:0
     RDKit          3D

 99107  0  0  1  0  0  0  0  0999 V2000
  -29.0040  -22.3450   19.9570 C   0  0  0  0  0  3  0  0  0  0  0  0
  -29.6220  -21.3010   20.8550 N   0  0  0  0  0  0  0  0  0  0  0  0
  -30.2820  -21.7210   21.5040 H   0  0  0  0  0  0  0  0  0  0  0  0
  -30.5910  -14.7520   20.3310 C   0  0  0  0  0  0  0  0  0  0  0  0
  -30.4020  -12.4890   19.2950 C   0  0  0  0  0  2  0  0  0  0  0  0
  -29.4650  -12.5800   18.0720 C   0  0  0  0  0  2  0  0  0  0  0  0
  -27.9930  -12.4040   18.4980 C   0  0  0  0  0  2  0  0  0  0  0  0
  -27.6180  -13.2780   19.7250 C   0  0  0  0  0  3  0  0  0  0  0  0
  -28.6740  -13.1650   20.8450 C   0  0  0  0  0  2  0  0  0  0  0  0
  -29.9770  -13.5230   20.2640 N   0  0  0  0  0  0  0  0  0  0  0  0
  -31.7650  -14.8730   19.9690 O   0  0  0  0  0  0  0  0  0  0  0  0
  -31.1340  -19.3090   20.2730 C   0  0  0  0  0  0  0  0  0  0  0  0
  -29.9070  -19.9020   20.5760 C   0  0  0  0  0  0  0  0  0  0  0  0
  -29.9960  -17.2970   20.5510 C   0  0  0  0  0  0  0  0  0  0  0  0
  -31.1600  -17.8860   20.2510 N   0  0  0  0  0  0  0  0  0  0  0  0
  -29.7900  -15.8370   20.6330 N   0  0  0  0  0  0  0  0  0  0  0  0
  -28.7470  -18.5700   20.8540 S   0  0  0  0  0  0  0  0  0  0  0  0
  -28.8520  -15.5730   20.8920 H   0  0  0  0  0  0  0  0  0  0  0  0
  -25.2210  -13.8570   20.4380 C   0  0  0  0  0  0  0  0  0  0  0  0
  -24.1610  -13.0770   20.8100 C   0  0  0  0  0  0  0  0  0  0  0  0
  -24.6350  -11.7290   20.7890 C   0  0  0  0  0  0  0  0  0  0  0  0
  -26.2720  -12.9840   20.2110 N   0  0  0  0  0  0  0  0  0  0  0  0
  -25.9270  -11.7000   20.4840 N   0  0  0  0  0  0  0  0  0  0  0  0
  -23.9200  -10.4620   20.9850 C   0  0  0  0  0  0  0  0  0  0  0  0
  -24.3510   -9.5080   21.9330 C   0  0  0  0  0  3  0  0  0  0  0  0
  -23.6340   -8.3060   22.1160 C   0  0  0  0  0  3  0  0  0  0  0  0
  -22.4720   -8.0490   21.3510 C   0  0  0  0  0  0  0  0  0  0  0  0
  -22.0590   -8.9910   20.3930 C   0  0  0  0  0  3  0  0  0  0  0  0
  -22.7770  -10.1850   20.2080 C   0  0  0  0  0  3  0  0  0  0  0  0
  -21.7270   -6.8980   21.4430 O   0  0  0  0  0  0  0  0  0  0  0  0
  -21.6610   -6.1730   22.6060 C   0  0  0  0  0  0  0  0  0  0  0  0
  -21.1610   -6.7300   23.8020 C   0  0  0  0  0  3  0  0  0  0  0  0
  -21.0460   -5.9300   24.9570 C   0  0  0  0  0  3  0  0  0  0  0  0
  -21.4210   -4.5750   24.9150 C   0  0  0  0  0  0  0  0  0  0  0  0
  -21.9150   -4.0170   23.7230 C   0  0  0  0  0  3  0  0  0  0  0  0
  -22.0310   -4.8130   22.5710 C   0  0  0  0  0  0  0  0  0  0  0  0
  -22.4880   -4.2650   21.4180 F   0  0  0  0  0  0  0  0  0  0  0  0
  -21.3040   -3.8030   26.0220 F   0  0  0  0  0  0  0  0  0  0  0  0
  -22.7580  -13.5440   21.0740 C   0  0  0  0  0  0  0  0  0  0  0  0
  -22.0340  -12.8490   21.9440 N   0  0  0  0  0  0  0  0  0  0  0  0
  -22.3130  -14.5610   20.5450 O   0  0  0  0  0  0  0  0  0  0  0  0
  -22.4040  -12.0260   22.3950 H   0  0  0  0  0  0  0  0  0  0  0  0
  -21.0930  -13.1450   22.1630 H   0  0  0  0  0  0  0  0  0  0  0  0
  -25.3730  -15.2280   20.2490 N   0  0  0  0  0  0  0  0  0  0  0  0
  -24.5920  -15.8690   20.3350 H   0  0  0  0  0  0  0  0  0  0  0  0
  -26.2000  -15.6680   19.8670 H   0  0  0  0  0  0  0  0  0  0  0  0
  -32.3470  -20.1170   20.0210 C   0  0  0  0  0  2  0  0  0  0  0  0
  -33.4900  -19.6150   19.8040 N   0  0  0  0  0  2  0  0  0  0  0  0
  -33.4120  -18.6030   19.8380 H   0  0  0  0  0  0  0  0  0  0  0  0
  -29.6120  -22.3350   18.5160 C   0  0  0  0  0  2  0  0  0  0  0  0
  -29.2240  -22.2220   16.0430 C   0  0  0  0  0  1  0  0  0  0  0  0
  -29.6970  -20.1060   17.2430 C   0  0  0  0  0  1  0  0  0  0  0  0
  -27.4780  -21.2440   17.5300 C   0  0  0  0  0  1  0  0  0  0  0  0
  -28.9920  -21.4690   17.3710 C   0  0  1  0  0  0  0  0  0  0  0  0
  -29.0570  -23.8670   20.5550 C   0  0  0  0  0  3  0  0  0  0  0  0
  -31.2670  -24.1800   21.8840 C   0  0  0  0  0  1  0  0  0  0  0  0
  -30.5030  -24.4310   20.5750 C   0  0  0  0  0  2  0  0  0  0  0  0
  -28.0400  -24.9710   19.9440 C   0  0  0  0  0  2  0  0  0  0  0  0
  -28.2120  -26.4410   20.1960 O   0  0  0  0  0  0  0  0  0  0  0  0
  -24.5390  -31.8890   23.2100 C   0  0  0  0  0  0  0  0  0  0  0  0
  -27.1010  -27.3090   20.1220 C   0  0  0  0  0  0  0  0  0  0  0  0
  -23.3110  -30.4880   21.5910 C   0  0  0  0  0  3  0  0  0  0  0  0
  -24.7390  -28.9410   20.1380 C   0  0  0  0  0  0  0  0  0  0  0  0
  -25.8480  -30.8080   21.3650 C   0  0  0  0  0  2  0  0  0  0  0  0
  -25.9190  -29.4270   20.7150 C   0  0  0  0  0  0  0  0  0  0  0  0
  -27.1020  -28.6240   20.6950 C   0  0  0  0  0  3  0  0  0  0  0  0
  -25.8980  -26.8910   19.5070 C   0  0  0  0  0  3  0  0  0  0  0  0
  -24.7330  -27.6800   19.5230 C   0  0  0  0  0  3  0  0  0  0  0  0
  -23.5010  -29.8140   20.2070 C   0  0  0  0  0  2  0  0  0  0  0  0
  -24.5860  -31.0790   22.1120 N   0  0  0  0  0  0  0  0  0  0  0  0
  -23.4640  -32.1630   23.7640 O   0  0  0  0  0  0  0  0  0  0  0  0
  -22.6650  -29.4710   22.5620 C   0  0  0  0  0  0  0  0  0  0  0  0
  -21.3390  -29.2790   22.4490 N   0  0  0  0  0  0  0  0  0  0  0  0
  -23.3570  -28.8560   23.3790 O   0  0  0  0  0  0  0  0  0  0  0  0
  -20.8420  -29.8260   21.7590 H   0  0  0  0  0  0  0  0  0  0  0  0
  -17.9770  -28.0460   22.9770 C   0  0  0  0  0  0  0  0  0  0  0  0
  -20.5340  -28.3390   23.2310 C   0  0  0  0  0  3  0  0  0  0  0  0
  -20.6510  -26.9030   22.6680 C   0  0  0  0  0  2  0  0  0  0  0  0
  -19.5480  -26.5580   21.6640 C   0  0  0  0  0  2  0  0  0  0  0  0
  -18.1670  -26.6920   22.3140 C   0  0  0  0  0  2  0  0  0  0  0  0
  -19.0890  -28.8250   23.3930 C   0  0  0  0  0  0  0  0  0  0  0  0
  -18.8590  -30.0900   23.9770 C   0  0  0  0  0  3  0  0  0  0  0  0
  -17.5490  -30.5770   24.1450 C   0  0  0  0  0  3  0  0  0  0  0  0
  -16.4520  -29.7960   23.7450 C   0  0  0  0  0  3  0  0  0  0  0  0
  -16.6660  -28.5320   23.1670 C   0  0  0  0  0  3  0  0  0  0  0  0
  -25.8300  -32.5260   23.8100 C   0  0  0  0  0  3  0  0  0  0  0  0
  -25.5250  -33.9280   24.1290 N   0  0  0  0  0  0  0  0  0  0  0  0
  -25.8790  -34.9780   23.3740 C   0  0  0  0  0  0  0  0  0  0  0  0
  -26.5640  -34.8640   22.3540 O   0  0  0  0  0  0  0  0  0  0  0  0
  -24.9150  -34.0890   24.9160 H   0  0  0  0  0  0  0  0  0  0  0  0
  -24.2020  -36.8070   22.9560 C   0  0  0  0  0  1  0  0  0  0  0  0
  -25.3970  -36.3720   23.8200 C   0  0  0  0  0  3  0  0  0  0  0  0
  -27.5000  -37.2160   24.7630 C   0  0  0  0  0  1  0  0  0  0  0  0
  -26.4530  -37.4070   23.7640 N   0  0  0  0  0  0  0  0  0  0  0  0
  -26.0560  -38.3350   23.8920 H   0  0  0  0  0  0  0  0  0  0  0  0
  -26.3590  -31.7680   25.0890 C   0  0  1  0  0  0  0  0  0  0  0  0
  -25.2750  -31.5420   26.1690 C   0  0  0  0  0  1  0  0  0  0  0  0
  -26.9370  -30.3860   24.7080 C   0  0  0  0  0  1  0  0  0  0  0  0
  -27.5170  -32.5700   25.7320 C   0  0  0  0  0  1  0  0  0  0  0  0
  1 50  1  0
  1 55  1  0
  1  2  1  0
  2  3  1  0
  4 16  1  0
  5 10  1  0
  6  7  1  0
  6  5  1  0
  8  7  1  0
  8 22  1  0
  8  9  1  0
 10  4  1  0
 10  9  1  0
 11  4  2  0
 12 13  2  0
 13 17  1  0
 13  2  1  0
 14 16  1  0
 14 17  1  0
 15 12  1  0
 15 14  2  0
 16 18  1  0
 19 20  2  0
 20 39  1  0
 21 20  1  0
 21 24  1  0
 22 19  1  0
 22 23  1  0
 23 21  2  0
 24 25  1  0
 25 26  2  0
 27 30  1  0
 27 26  1  0
 28 27  2  0
 29 28  1  0
 29 24  2  0
 30 31  1  0
 31 32  1  0
 32 33  2  0
 34 33  1  0
 34 38  1  0
 35 34  2  0
 36 31  2  0
 36 35  1  0
 37 36  1  0
 39 40  1  0
 40 43  1  0
 40 42  1  0
 41 39  2  0
 44 45  1  0
 44 19  1  0
 46 44  1  0
 47 12  1  0
 48 49  1  0
 48 47  1  0
 54 51  1  6
 52 54  1  0
 54 53  1  0
 54 50  1  0
 55 58  1  0
 55 57  1  0
 57 56  1  0
 58 59  1  0
 60 71  2  0
 61 59  1  0
 61 66  1  0
 62 70  1  0
 62 72  1  0
 63 69  1  0
 63 65  1  0
 64 70  1  0
 65 64  1  0
 66 65  2  0
 67 68  1  0
 67 61  2  0
 68 63  2  0
 69 62  1  0
 70 60  1  0
 72 74  2  0
 73 72  1  0
 75 73  1  0
 76 85  2  0
 76 81  1  0
 77 73  1  0
 77 81  1  0
 78 77  1  0
 79 80  1  0
 79 78  1  0
 80 76  1  0
 81 82  2  0
 82 83  1  0
 84 83  2  0
 85 84  1  0
 86 60  1  0
 86 87  1  0
 86 96  1  0
 87 90  1  0
 88 92  1  0
 88 87  1  0
 89 88  2  0
 92 91  1  0
 94 92  1  0
 94 95  1  0
 94 93  1  0
 96 99  1  1
 96 97  1  0
 98 96  1  0
M  ISO  4   4 100  16 100  58 101  59 101
M  END
>  <TORSDO>  (32) 
F 23

>  <SCORE>  (32) 
-11.635

>  <name>  (32) 
31

>  <ligand_id>  (32) 
31

>  <original_smiles>  (32) 
[H]N=C([H])c1nc(N([H])C(=O)N2C([H])([H])C([H])([H])C([H])([H])C([H])(n3nc(-c4c([H])c([H])c(Oc5c([H])c([H])c(F)c([H])c5F)c([H])c4[H])c(C(=O)N([H])[H])c3N([H])[H])C2([H])[H])sc1N([H])C([H])(C([H])([H])C(C([H])([H])[H])(C([H])([H])[H])C([H])([H])[H])C([H])(C([H])([H])Oc1c([H])c([H])c2c(c1[H])C([H])([H])N(C(=O)C([H])(N([H])C(=O)C([H])(N([H])C([H])([H])[H])C([H])([H])[H])C(C([H])([H])[H])(C([H])([H])[H])C([H])([H])[H])C([H])(C(=O)N([H])C1([H])c3c([H])c([H])c([H])c([H])c3C([H])([H])C([H])([H])C1([H])[H])C2([H])[H])C([H])([H])C([H])([H])[H]

>  <smiles>  (32) 
[H]N=C([H])c1nc(N([H])C(=O)N2C([H])([H])C([H])([H])C([H])([H])C([H])(n3nc(-c4c([H])c([H])c(Oc5c([H])c([H])c(F)c([H])c5F)c([H])c4[H])c(C(=O)N([H])[H])c3N([H])[H])C2([H])[H])sc1N([H])C([H])(C([H])([H])C(C([H])([H])[H])(C([H])([H])[H])C([H])([H])[H])C([H])(C([H])([H])Oc1c([H])c([H])c2c(c1[H])C([H])([H])N(C(=O)C([H])(N([H])C(=O)C([H])(N([H])C([H])([H])[H])C([H])([H])[H])C(C([H])([H])[H])(C([H])([H])[H])C([H])([H])[H])C([H])(C(=O)N([H])C1([H])c3c([H])c([H])c([H])c([H])c3C([H])([H])C([H])([H])C1([H])[H])C2([H])[H])C([H])([H])C([H])([H])[H]

$$$$
32:0:0
     RDKit          3D

 99107  0  0  1  0  0  0  0  0999 V2000
  -30.0000  -21.7710   21.1130 C   0  0  0  0  0  3  0  0  0  0  0  0
  -29.0720  -21.2430   20.0890 N   0  0  0  0  0  4  0  0  0  0  0  0
  -28.1940  -20.9650   20.4890 H   0  0  0  0  0  0  0  0  0  0  0  0
  -29.4840  -20.4480   19.6310 H   0  0  0  0  0  0  0  0  0  0  0  0
  -28.8970  -21.9350   19.3820 H   0  0  0  0  0  0  0  0  0  0  0  0
  -27.9740  -22.9550   22.2400 C   0  0  0  0  0  1  0  0  0  0  0  0
  -29.4290  -23.0950   21.7360 C   0  0  0  0  0  3  0  0  0  0  0  0
  -29.6020  -24.3370   20.8080 C   0  0  0  0  0  2  0  0  0  0  0  0
  -29.3390  -25.7170   21.4720 C   0  0  0  0  0  3  0  0  0  0  0  0
  -30.2500  -25.9030   22.5440 O   0  0  0  0  0  0  0  0  0  0  0  0
  -31.1240  -25.9880   22.1770 H   0  0  0  0  0  0  0  0  0  0  0  0
  -29.5000  -26.9090   20.4990 C   0  0  0  0  0  2  0  0  0  0  0  0
  -28.4790  -26.8950   19.5020 O   0  0  0  0  0  0  0  0  0  0  0  0
  -24.5730  -31.7300   23.0880 C   0  0  0  0  0  0  0  0  0  0  0  0
  -27.3180  -27.6140   19.6830 C   0  0  0  0  0  0  0  0  0  0  0  0
  -23.3780  -30.3960   21.3780 C   0  0  0  0  0  3  0  0  0  0  0  0
  -24.8560  -29.0020   19.8370 C   0  0  0  0  0  0  0  0  0  0  0  0
  -25.8800  -30.8630   21.1540 C   0  0  0  0  0  2  0  0  0  0  0  0
  -26.0020  -29.5360   20.4390 C   0  0  0  0  0  0  0  0  0  0  0  0
  -27.2330  -28.8510   20.3670 C   0  0  0  0  0  3  0  0  0  0  0  0
  -26.1560  -27.0940   19.0770 C   0  0  0  0  0  3  0  0  0  0  0  0
  -24.9250  -27.7740   19.1550 C   0  0  0  0  0  3  0  0  0  0  0  0
  -23.5830  -29.8090   19.9550 C   0  0  0  0  0  2  0  0  0  0  0  0
  -24.6290  -31.0080   21.9340 N   0  0  0  0  0  0  0  0  0  0  0  0
  -23.4960  -31.9280   23.6670 O   0  0  0  0  0  0  0  0  0  0  0  0
  -22.7830  -29.2940   22.2830 C   0  0  0  0  0  0  0  0  0  0  0  0
  -21.4630  -29.0740   22.1660 N   0  0  0  0  0  0  0  0  0  0  0  0
  -23.5030  -28.6410   23.0440 O   0  0  0  0  0  0  0  0  0  0  0  0
  -20.9420  -29.6560   21.5250 H   0  0  0  0  0  0  0  0  0  0  0  0
  -18.1390  -27.7490   22.6500 C   0  0  0  0  0  0  0  0  0  0  0  0
  -20.6930  -28.0610   22.8860 C   0  0  0  0  0  3  0  0  0  0  0  0
  -20.8230  -26.6780   22.2070 C   0  0  0  0  0  2  0  0  0  0  0  0
  -19.7060  -26.3950   21.1970 C   0  0  0  0  0  2  0  0  0  0  0  0
  -18.3370  -26.4550   21.8790 C   0  0  0  0  0  2  0  0  0  0  0  0
  -19.2460  -28.5110   23.1090 C   0  0  0  0  0  0  0  0  0  0  0  0
  -19.0070  -29.7240   23.7910 C   0  0  0  0  0  3  0  0  0  0  0  0
  -17.6930  -30.1760   24.0180 C   0  0  0  0  0  3  0  0  0  0  0  0
  -16.6010  -29.4100   23.5750 C   0  0  0  0  0  3  0  0  0  0  0  0
  -16.8250  -28.1980   22.8990 C   0  0  0  0  0  3  0  0  0  0  0  0
  -25.8540  -32.3590   23.7230 C   0  0  0  0  0  3  0  0  0  0  0  0
  -26.3960  -31.5490   24.9640 C   0  0  1  0  0  0  0  0  0  0  0  0
  -25.3170  -31.2520   26.0320 C   0  0  0  0  0  1  0  0  0  0  0  0
  -26.9980  -30.1980   24.5110 C   0  0  0  0  0  1  0  0  0  0  0  0
  -27.5390  -32.3370   25.6450 C   0  0  0  0  0  1  0  0  0  0  0  0
  -25.5250  -33.7380   24.1050 N   0  0  0  0  0  0  0  0  0  0  0  0
  -25.8470  -34.8220   23.3850 C   0  0  0  0  0  0  0  0  0  0  0  0
  -26.5240  -34.7660   22.3550 O   0  0  0  0  0  0  0  0  0  0  0  0
  -24.9230  -33.8550   24.9060 H   0  0  0  0  0  0  0  0  0  0  0  0
  -24.0950  -36.6000   23.0840 C   0  0  0  0  0  1  0  0  0  0  0  0
  -25.3360  -36.1850   23.8900 C   0  0  0  0  0  3  0  0  0  0  0  0
  -27.4480  -37.0720   24.7730 C   0  0  0  0  0  1  0  0  0  0  0  0
  -26.3540  -37.2560   23.8230 N   0  0  0  0  0  0  0  0  0  0  0  0
  -25.9330  -38.1640   23.9950 H   0  0  0  0  0  0  0  0  0  0  0  0
  -30.4030  -20.6650   22.1560 C   0  0  0  0  0  3  0  0  0  0  0  0
  -31.7770  -17.6680   20.4050 C   0  0  0  0  0  3  0  0  0  0  0  0
  -30.7900  -16.8890   20.9720 C   0  0  0  0  0  0  0  0  0  0  0  0
  -30.6740  -19.3090   21.5470 C   0  0  0  0  0  0  0  0  0  0  0  0
  -31.6970  -19.0300   20.7330 N   0  0  0  0  0  0  0  0  0  0  0  0
  -29.7170  -17.8810   21.9320 S   0  0  0  0  0  0  0  0  0  0  0  0
  -31.1390  -14.6370   20.0890 C   0  0  0  0  0  0  0  0  0  0  0  0
  -30.7620  -12.4890   18.9320 C   0  0  0  0  0  2  0  0  0  0  0  0
  -29.7580  -12.6930   17.7790 C   0  0  0  0  0  2  0  0  0  0  0  0
  -28.3060  -12.5740   18.2840 C   0  0  0  0  0  2  0  0  0  0  0  0
  -28.0430  -13.4270   19.5530 C   0  0  0  0  0  3  0  0  0  0  0  0
  -29.1450  -13.1790   20.6070 C   0  0  0  0  0  2  0  0  0  0  0  0
  -30.4510  -13.4680   19.9830 N   0  0  0  0  0  0  0  0  0  0  0  0
  -32.1860  -14.8610   19.4730 O   0  0  0  0  0  0  0  0  0  0  0  0
  -30.5530  -15.5510   20.8820 N   0  0  0  0  0  0  0  0  0  0  0  0
  -29.7390  -15.2150   21.3730 H   0  0  0  0  0  0  0  0  0  0  0  0
  -25.7180  -14.0870   20.4470 C   0  0  0  0  0  0  0  0  0  0  0  0
  -24.6430  -13.3360   20.8380 C   0  0  0  0  0  0  0  0  0  0  0  0
  -25.0410  -11.9730   20.6940 C   0  0  0  0  0  0  0  0  0  0  0  0
  -26.7090  -13.1820   20.0970 N   0  0  0  0  0  0  0  0  0  0  0  0
  -26.3060  -11.9010   20.2990 N   0  0  0  0  0  0  0  0  0  0  0  0
  -24.2750  -10.7310   20.8560 C   0  0  0  0  0  0  0  0  0  0  0  0
  -24.6610   -9.7410   21.7860 C   0  0  0  0  0  3  0  0  0  0  0  0
  -23.8990   -8.5620   21.9350 C   0  0  0  0  0  3  0  0  0  0  0  0
  -22.7350   -8.3660   21.1540 C   0  0  0  0  0  0  0  0  0  0  0  0
  -22.3680   -9.3450   20.2130 C   0  0  0  0  0  3  0  0  0  0  0  0
  -23.1320  -10.5140   20.0610 C   0  0  0  0  0  3  0  0  0  0  0  0
  -21.9470   -7.2420   21.2110 O   0  0  0  0  0  0  0  0  0  0  0  0
  -21.7430   -6.5660   22.3880 C   0  0  0  0  0  0  0  0  0  0  0  0
  -21.1650   -7.1910   23.5150 C   0  0  0  0  0  3  0  0  0  0  0  0
  -20.9090   -6.4410   24.6800 C   0  0  0  0  0  3  0  0  0  0  0  0
  -21.2190   -5.0690   24.7190 C   0  0  0  0  0  0  0  0  0  0  0  0
  -21.7890   -4.4440   23.5950 C   0  0  0  0  0  3  0  0  0  0  0  0
  -22.0470   -5.1910   22.4330 C   0  0  0  0  0  0  0  0  0  0  0  0
  -22.5770   -4.5800   21.3460 F   0  0  0  0  0  0  0  0  0  0  0  0
  -20.9660   -4.3470   25.8360 F   0  0  0  0  0  0  0  0  0  0  0  0
  -23.2870  -13.8500   21.2320 C   0  0  0  0  0  0  0  0  0  0  0  0
  -22.5950  -13.1400   22.1160 N   0  0  0  0  0  0  0  0  0  0  0  0
  -22.8540  -14.9150   20.7920 O   0  0  0  0  0  0  0  0  0  0  0  0
  -22.9590  -12.2770   22.4930 H   0  0  0  0  0  0  0  0  0  0  0  0
  -21.6880  -13.4630   22.4210 H   0  0  0  0  0  0  0  0  0  0  0  0
  -25.9320  -15.4590   20.3420 N   0  0  0  0  0  0  0  0  0  0  0  0
  -25.2030  -16.1370   20.5380 H   0  0  0  0  0  0  0  0  0  0  0  0
  -26.7820  -15.8820   19.9900 H   0  0  0  0  0  0  0  0  0  0  0  0
  -31.9770  -20.0150   24.1330 C   0  0  0  0  0  1  0  0  0  0  0  0
  -31.5570  -21.0830   23.1060 C   0  0  0  0  0  2  0  0  0  0  0  0
  1  2  1  0
  1  7  1  0
  1 54  1  0
  2  3  1  0
  4  2  1  0
  5  2  1  0
  7  6  1  0
  8  9  1  0
  8  7  1  0
  9 12  1  0
  9 10  1  0
 11 10  1  0
 13 15  1  0
 13 12  1  0
 14 25  2  0
 15 20  1  0
 16 24  1  0
 16 26  1  0
 17 23  1  0
 17 19  1  0
 18 24  1  0
 19 18  1  0
 20 19  2  0
 21 22  1  0
 21 15  2  0
 22 17  2  0
 23 16  1  0
 24 14  1  0
 26 28  2  0
 27 26  1  0
 29 27  1  0
 30 39  2  0
 30 35  1  0
 31 27  1  0
 31 35  1  0
 32 31  1  0
 33 34  1  0
 33 32  1  0
 34 30  1  0
 35 36  2  0
 36 37  1  0
 38 37  2  0
 39 38  1  0
 40 14  1  0
 40 45  1  0
 40 41  1  0
 41 44  1  1
 41 42  1  0
 43 41  1  0
 45 48  1  0
 46 50  1  0
 46 45  1  0
 47 46  2  0
 50 49  1  0
 52 50  1  0
 52 53  1  0
 52 51  1  0
 54 99  1  0
 55 58  1  0
 55 56  2  0
 56 59  1  0
 57 59  1  0
 57 54  1  0
 58 57  2  0
 60 68  1  0
 61 66  1  0
 62 63  1  0
 62 61  1  0
 64 63  1  0
 64 73  1  0
 64 65  1  0
 66 60  1  0
 66 65  1  0
 67 60  2  0
 68 56  1  0
 68 69  1  0
 70 71  2  0
 71 90  1  0
 72 71  1  0
 72 75  1  0
 73 74  1  0
 73 70  1  0
 74 72  2  0
 75 76  1  0
 76 77  2  0
 78 81  1  0
 78 77  1  0
 79 78  2  0
 80 79  1  0
 80 75  2  0
 81 82  1  0
 82 87  2  0
 82 83  1  0
 83 84  2  0
 84 85  1  0
 85 89  1  0
 86 85  2  0
 87 86  1  0
 88 87  1  0
 90 91  1  0
 91 94  1  0
 91 93  1  0
 92 90  2  0
 95 70  1  0
 95 96  1  0
 97 95  1  0
 99 98  1  0
M  ISO  4  12 101  13 101  60 100  68 100
M  END
>  <TORSDO>  (33) 
F 25

>  <SCORE>  (33) 
-10.920

>  <name>  (33) 
32

>  <ligand_id>  (33) 
32

>  <original_smiles>  (33) 
[H]OC([H])(C([H])([H])Oc1c([H])c([H])c2c(c1[H])C([H])([H])N(C(=O)C([H])(N([H])C(=O)C([H])(N([H])C([H])([H])[H])C([H])([H])[H])C(C([H])([H])[H])(C([H])([H])[H])C([H])([H])[H])C([H])(C(=O)N([H])C1([H])c3c([H])c([H])c([H])c([H])c3C([H])([H])C([H])([H])C1([H])[H])C2([H])[H])C([H])([H])C([H])(C([H])([H])[H])C([H])(C([H])(c1nc([H])c(N([H])C(=O)N2C([H])([H])C([H])([H])C([H])([H])C([H])(n3nc(-c4c([H])c([H])c(Oc5c([H])c([H])c(F)c([H])c5F)c([H])c4[H])c(C(=O)N([H])[H])c3N([H])[H])C2([H])[H])s1)C([H])([H])C([H])([H])[H])[N+]([H])([H])[H]

>  <smiles>  (33) 
[H]OC([H])(C([H])([H])Oc1c([H])c([H])c2c(c1[H])C([H])([H])N(C(=O)C([H])(N([H])C(=O)C([H])(N([H])C([H])([H])[H])C([H])([H])[H])C(C([H])([H])[H])(C([H])([H])[H])C([H])([H])[H])C([H])(C(=O)N([H])C1([H])c3c([H])c([H])c([H])c([H])c3C([H])([H])C([H])([H])C1([H])[H])C2([H])[H])C([H])([H])C([H])(C([H])([H])[H])C([H])(C([H])(c1nc([H])c(N([H])C(=O)N2C([H])([H])C([H])([H])C([H])([H])C([H])(n3nc(-c4c([H])c([H])c(Oc5c([H])c([H])c(F)c([H])c5F)c([H])c4[H])c(C(=O)N([H])[H])c3N([H])[H])C2([H])[H])s1)C([H])([H])C([H])([H])[H])[N+]([H])([H])[H]

$$$$
33:0:0
     RDKit          3D

 93101  0  0  1  0  0  0  0  0999 V2000
  -30.7470  -22.2700   20.7770 C   0  0  0  0  0  1  0  0  0  0  0  0
  -29.2680  -21.9760   21.0720 C   0  0  0  0  0  3  0  0  0  0  0  0
  -30.5490  -17.4960   19.2420 C   0  0  0  0  0  0  0  0  0  0  0  0
  -29.9520  -17.0340   20.4000 C   0  0  0  0  0  0  0  0  0  0  0  0
  -29.5020  -19.3090   20.5910 C   0  0  0  0  0  0  0  0  0  0  0  0
  -31.2210  -16.7510   18.1320 C   0  0  0  0  0  1  0  0  0  0  0  0
  -29.3160  -18.0790   21.1230 N   0  0  0  0  0  0  0  0  0  0  0  0
  -28.9940  -20.5140   21.1300 N   0  0  0  0  0  0  0  0  0  0  0  0
  -30.4430  -19.2440   19.1140 S   0  0  0  0  0  0  0  0  0  0  0  0
  -28.3070  -20.3110   21.8490 H   0  0  0  0  0  0  0  0  0  0  0  0
  -30.6410  -14.5780   20.4630 C   0  0  0  0  0  0  0  0  0  0  0  0
  -30.4070  -12.3630   19.3900 C   0  0  0  0  0  2  0  0  0  0  0  0
  -29.4920  -12.5230   18.1570 C   0  0  0  0  0  2  0  0  0  0  0  0
  -28.0020  -12.4160   18.5500 C   0  0  0  0  0  2  0  0  0  0  0  0
  -27.6390  -13.2660   19.7980 C   0  0  0  0  0  3  0  0  0  0  0  0
  -28.6720  -13.0680   20.9270 C   0  0  0  0  0  2  0  0  0  0  0  0
  -29.9990  -13.3750   20.3800 N   0  0  0  0  0  0  0  0  0  0  0  0
  -31.8190  -14.7030   20.1220 O   0  0  0  0  0  0  0  0  0  0  0  0
  -29.8520  -15.6410   20.7920 N   0  0  0  0  0  0  0  0  0  0  0  0
  -28.9880  -15.3870   21.2430 H   0  0  0  0  0  0  0  0  0  0  0  0
  -25.2340  -13.8880   20.4540 C   0  0  0  0  0  0  0  0  0  0  0  0
  -24.1560  -13.1240   20.8130 C   0  0  0  0  0  0  0  0  0  0  0  0
  -24.6130  -11.7710   20.8100 C   0  0  0  0  0  0  0  0  0  0  0  0
  -26.2790  -12.9980   20.2570 N   0  0  0  0  0  0  0  0  0  0  0  0
  -25.9090  -11.7210   20.5340 N   0  0  0  0  0  0  0  0  0  0  0  0
  -23.8780  -10.5140   21.0070 C   0  0  0  0  0  0  0  0  0  0  0  0
  -24.2970   -9.5550   21.9550 C   0  0  0  0  0  3  0  0  0  0  0  0
  -23.5630   -8.3650   22.1390 C   0  0  0  0  0  3  0  0  0  0  0  0
  -22.3950   -8.1250   21.3750 C   0  0  0  0  0  0  0  0  0  0  0  0
  -21.9970   -9.0720   20.4160 C   0  0  0  0  0  3  0  0  0  0  0  0
  -22.7320  -10.2540   20.2300 C   0  0  0  0  0  3  0  0  0  0  0  0
  -21.6330   -6.9860   21.4660 O   0  0  0  0  0  0  0  0  0  0  0  0
  -21.5750   -6.2520   22.6230 C   0  0  0  0  0  0  0  0  0  0  0  0
  -21.1560   -6.8180   23.8470 C   0  0  0  0  0  3  0  0  0  0  0  0
  -21.0490   -6.0080   24.9950 C   0  0  0  0  0  3  0  0  0  0  0  0
  -21.3430   -4.6340   24.9190 C   0  0  0  0  0  0  0  0  0  0  0  0
  -21.7550   -4.0680   23.7000 C   0  0  0  0  0  3  0  0  0  0  0  0
  -21.8690   -4.8750   22.5540 C   0  0  0  0  0  0  0  0  0  0  0  0
  -22.2470   -4.3220   21.3770 F   0  0  0  0  0  0  0  0  0  0  0  0
  -21.2300   -3.8560   26.0210 F   0  0  0  0  0  0  0  0  0  0  0  0
  -22.7560  -13.6150   21.0500 C   0  0  0  0  0  0  0  0  0  0  0  0
  -22.0060  -12.9380   21.9110 N   0  0  0  0  0  0  0  0  0  0  0  0
  -22.3380  -14.6370   20.5050 O   0  0  0  0  0  0  0  0  0  0  0  0
  -22.3600  -12.1170   22.3800 H   0  0  0  0  0  0  0  0  0  0  0  0
  -21.0690  -13.2540   22.1150 H   0  0  0  0  0  0  0  0  0  0  0  0
  -25.4030  -15.2550   20.2620 N   0  0  0  0  0  0  0  0  0  0  0  0
  -24.6240  -15.8980   20.3510 H   0  0  0  0  0  0  0  0  0  0  0  0
  -26.2630  -15.7120   19.9880 H   0  0  0  0  0  0  0  0  0  0  0  0
  -28.3150  -22.8100   20.1370 C   0  0  0  0  0  2  0  0  0  0  0  0
  -26.8220  -23.9320   21.8930 C   0  0  0  0  0  1  0  0  0  0  0  0
  -27.6690  -24.1740   20.6310 C   0  0  0  0  0  3  0  0  0  0  0  0
  -28.5370  -25.4870   20.8140 C   0  0  0  0  0  2  0  0  0  0  0  0
  -28.3520  -26.6350   19.9350 O   0  0  0  0  0  0  0  0  0  0  0  0
  -24.6140  -31.8750   23.1830 C   0  0  0  0  0  0  0  0  0  0  0  0
  -27.2010  -27.4060   20.0430 C   0  0  0  0  0  0  0  0  0  0  0  0
  -23.3890  -30.4930   21.5420 C   0  0  0  0  0  3  0  0  0  0  0  0
  -24.8260  -28.9640   20.0870 C   0  0  0  0  0  0  0  0  0  0  0  0
  -25.9190  -30.8320   21.3260 C   0  0  0  0  0  2  0  0  0  0  0  0
  -25.9940  -29.4610   20.6780 C   0  0  0  0  0  0  0  0  0  0  0  0
  -27.1880  -28.6900   20.6530 C   0  0  0  0  0  3  0  0  0  0  0  0
  -26.0210  -26.9500   19.4240 C   0  0  0  0  0  3  0  0  0  0  0  0
  -24.8370  -27.7090   19.4550 C   0  0  0  0  0  3  0  0  0  0  0  0
  -23.5860  -29.8290   20.1540 C   0  0  0  0  0  2  0  0  0  0  0  0
  -24.6600  -31.0830   22.0730 N   0  0  0  0  0  0  0  0  0  0  0  0
  -23.5380  -32.1440   23.7350 O   0  0  0  0  0  0  0  0  0  0  0  0
  -22.7470  -29.4600   22.4970 C   0  0  0  0  0  0  0  0  0  0  0  0
  -21.4180  -29.2890   22.3900 N   0  0  0  0  0  0  0  0  0  0  0  0
  -23.4380  -28.8190   23.2920 O   0  0  0  0  0  0  0  0  0  0  0  0
  -20.9200  -29.8620   21.7250 H   0  0  0  0  0  0  0  0  0  0  0  0
  -18.0450  -28.1020   22.9240 C   0  0  0  0  0  0  0  0  0  0  0  0
  -20.6080  -28.3430   23.1580 C   0  0  0  0  0  3  0  0  0  0  0  0
  -20.6950  -26.9200   22.5580 C   0  0  0  0  0  2  0  0  0  0  0  0
  -19.5740  -26.6160   21.5590 C   0  0  0  0  0  2  0  0  0  0  0  0
  -18.2030  -26.7620   22.2270 C   0  0  0  0  0  2  0  0  0  0  0  0
  -19.1740  -28.8510   23.3470 C   0  0  0  0  0  0  0  0  0  0  0  0
  -18.9740  -30.1060   23.9600 C   0  0  0  0  0  3  0  0  0  0  0  0
  -17.6760  -30.6140   24.1540 C   0  0  0  0  0  3  0  0  0  0  0  0
  -16.5590  -29.8610   23.7500 C   0  0  0  0  0  3  0  0  0  0  0  0
  -16.7450  -28.6060   23.1400 C   0  0  0  0  0  3  0  0  0  0  0  0
  -25.9040  -32.5020   23.7970 C   0  0  0  0  0  3  0  0  0  0  0  0
  -26.4390  -31.7130   25.0550 C   0  0  1  0  0  0  0  0  0  0  0  0
  -25.3590  -31.4580   26.1330 C   0  0  0  0  0  1  0  0  0  0  0  0
  -27.0220  -30.3450   24.6330 C   0  0  0  0  0  1  0  0  0  0  0  0
  -27.5980  -32.5000   25.7130 C   0  0  0  0  0  1  0  0  0  0  0  0
  -25.5970  -33.8950   24.1500 N   0  0  0  0  0  0  0  0  0  0  0  0
  -25.9170  -34.9570   23.3990 C   0  0  0  0  0  0  0  0  0  0  0  0
  -26.5720  -34.8670   22.3560 O   0  0  0  0  0  0  0  0  0  0  0  0
  -25.0210  -34.0390   24.9660 H   0  0  0  0  0  0  0  0  0  0  0  0
  -24.1810  -36.7510   23.0910 C   0  0  0  0  0  1  0  0  0  0  0  0
  -25.4330  -36.3390   23.8800 C   0  0  0  0  0  3  0  0  0  0  0  0
  -27.5780  -37.2140   24.6940 C   0  0  0  0  0  1  0  0  0  0  0  0
  -26.4630  -37.3950   23.7670 N   0  0  0  0  0  0  0  0  0  0  0  0
  -26.0590  -38.3120   23.9330 H   0  0  0  0  0  0  0  0  0  0  0  0
  2  1  1  0
  2  8  1  0
  3  4  2  0
  4 19  1  0
  4  7  1  0
  5  7  2  0
  5  8  1  0
  6  3  1  0
  8 10  1  0
  9  3  1  0
  9  5  1  0
 11 19  1  0
 12 17  1  0
 13 14  1  0
 13 12  1  0
 15 14  1  0
 15 24  1  0
 15 16  1  0
 17 11  1  0
 17 16  1  0
 18 11  2  0
 19 20  1  0
 21 22  2  0
 22 41  1  0
 23 22  1  0
 23 26  1  0
 24 21  1  0
 24 25  1  0
 25 23  2  0
 26 27  1  0
 27 28  2  0
 29 32  1  0
 29 28  1  0
 30 29  2  0
 31 30  1  0
 31 26  2  0
 32 33  1  0
 33 34  1  0
 34 35  2  0
 36 35  1  0
 36 40  1  0
 37 36  2  0
 38 33  2  0
 38 37  1  0
 39 38  1  0
 41 42  1  0
 42 45  1  0
 42 44  1  0
 43 41  2  0
 46 47  1  0
 46 21  1  0
 48 46  1  0
 49 51  1  0
 49  2  1  0
 51 52  1  0
 51 50  1  0
 53 55  1  0
 53 52  1  0
 54 65  2  0
 55 60  1  0
 56 64  1  0
 56 66  1  0
 57 63  1  0
 57 59  1  0
 58 64  1  0
 59 58  1  0
 60 59  2  0
 61 62  1  0
 61 55  2  0
 62 57  2  0
 63 56  1  0
 64 54  1  0
 66 68  2  0
 67 66  1  0
 69 67  1  0
 70 79  2  0
 70 75  1  0
 71 67  1  0
 71 75  1  0
 72 71  1  0
 73 74  1  0
 73 72  1  0
 74 70  1  0
 75 76  2  0
 76 77  1  0
 78 77  2  0
 79 78  1  0
 80 54  1  0
 80 85  1  0
 80 81  1  0
 81 84  1  1
 81 82  1  0
 83 81  1  0
 85 88  1  0
 86 90  1  0
 86 85  1  0
 87 86  2  0
 90 89  1  0
 92 90  1  0
 92 93  1  0
 92 91  1  0
M  ISO  4  11 100  19 100  52 101  53 101
M  END
>  <TORSDO>  (34) 
F 20

>  <SCORE>  (34) 
-13.849

>  <name>  (34) 
33

>  <ligand_id>  (34) 
33

>  <original_smiles>  (34) 
[H]c1c([H])c([H])c2c(c1[H])C([H])([H])C([H])([H])C([H])([H])C2([H])N([H])C(=O)C1([H])N(C(=O)C([H])(N([H])C(=O)C([H])(N([H])C([H])([H])[H])C([H])([H])[H])C(C([H])([H])[H])(C([H])([H])[H])C([H])([H])[H])C([H])([H])c2c([H])c(OC([H])([H])C([H])(C([H])([H])[H])C([H])([H])C([H])(N([H])c3nc(N([H])C(=O)N4C([H])([H])C([H])([H])C([H])([H])C([H])(n5nc(-c6c([H])c([H])c(Oc7c([H])c([H])c(F)c([H])c7F)c([H])c6[H])c(C(=O)N([H])[H])c5N([H])[H])C4([H])[H])c(C([H])([H])[H])s3)C([H])([H])[H])c([H])c([H])c2C1([H])[H]

>  <smiles>  (34) 
[H]c1c([H])c([H])c2c(c1[H])C([H])([H])C([H])([H])C([H])([H])C2([H])N([H])C(=O)C1([H])N(C(=O)C([H])(N([H])C(=O)C([H])(N([H])C([H])([H])[H])C([H])([H])[H])C(C([H])([H])[H])(C([H])([H])[H])C([H])([H])[H])C([H])([H])c2c([H])c(OC([H])([H])C([H])(C([H])([H])[H])C([H])([H])C([H])(N([H])c3nc(N([H])C(=O)N4C([H])([H])C([H])([H])C([H])([H])C([H])(n5nc(-c6c([H])c([H])c(Oc7c([H])c([H])c(F)c([H])c7F)c([H])c6[H])c(C(=O)N([H])[H])c5N([H])[H])C4([H])[H])c(C([H])([H])[H])s3)C([H])([H])[H])c([H])c([H])c2C1([H])[H]

$$$$
34:0:0
     RDKit          3D

 98106  0  0  1  0  0  0  0  0999 V2000
  -30.9270  -17.6180   22.1170 C   0  0  0  0  0  0  0  0  0  0  0  0
  -30.8510  -18.1530   23.3850 C   0  0  0  0  0  0  0  0  0  0  0  0
  -30.1580  -19.7030   21.5980 C   0  0  0  0  0  0  0  0  0  0  0  0
  -29.5840  -22.0450   20.9210 C   0  0  0  0  0  0  0  0  0  0  0  0
  -30.5010  -18.5020   21.1130 N   0  0  0  0  0  0  0  0  0  0  0  0
  -29.7380  -20.7220   20.6990 N   0  0  0  0  0  0  0  0  0  0  0  0
  -29.8880  -22.5800   21.9860 O   0  0  0  0  0  0  0  0  0  0  0  0
  -30.2640  -19.8000   23.3590 S   0  0  0  0  0  0  0  0  0  0  0  0
  -29.5240  -20.4120   19.7650 H   0  0  0  0  0  0  0  0  0  0  0  0
  -31.2150  -17.5610   24.5930 N   0  0  0  0  0  0  0  0  0  0  0  0
  -31.6540  -16.6470   24.6540 H   0  0  0  0  0  0  0  0  0  0  0  0
  -31.2090  -18.0390   25.4880 H   0  0  0  0  0  0  0  0  0  0  0  0
  -29.0550  -22.2120   18.3930 C   0  0  0  0  0  1  0  0  0  0  0  0
  -28.9680  -22.9030   19.7750 C   0  0  0  0  0  3  0  0  0  0  0  0
  -29.4300  -24.4110   19.7300 C   0  0  0  0  0  3  0  0  0  0  0  0
  -30.6290  -24.5190   18.9640 O   0  0  0  0  0  0  0  0  0  0  0  0
  -30.4440  -24.1870   18.0900 H   0  0  0  0  0  0  0  0  0  0  0  0
  -28.3520  -25.3590   19.1210 C   0  0  0  0  0  2  0  0  0  0  0  0
  -28.4730  -26.7730   19.4440 O   0  0  0  0  0  0  0  0  0  0  0  0
  -24.5960  -31.6090   23.0150 C   0  0  0  0  0  0  0  0  0  0  0  0
  -27.2920  -27.5050   19.4970 C   0  0  0  0  0  0  0  0  0  0  0  0
  -23.3910  -30.2780   21.3150 C   0  0  0  0  0  3  0  0  0  0  0  0
  -24.8480  -28.9350   19.7150 C   0  0  0  0  0  0  0  0  0  0  0  0
  -25.8930  -30.7590   21.0590 C   0  0  0  0  0  2  0  0  0  0  0  0
  -26.0100  -29.4470   20.3060 C   0  0  0  0  0  0  0  0  0  0  0  0
  -27.2330  -28.7360   20.1990 C   0  0  0  0  0  3  0  0  0  0  0  0
  -26.1080  -27.0410   18.8750 C   0  0  0  0  0  3  0  0  0  0  0  0
  -24.8930  -27.7330   18.9950 C   0  0  0  0  0  3  0  0  0  0  0  0
  -23.5720  -29.7270   19.8790 C   0  0  0  0  0  2  0  0  0  0  0  0
  -24.6470  -30.8960   21.8540 N   0  0  0  0  0  0  0  0  0  0  0  0
  -23.5250  -31.7860   23.6140 O   0  0  0  0  0  0  0  0  0  0  0  0
  -22.8280  -29.1560   22.2190 C   0  0  0  0  0  0  0  0  0  0  0  0
  -21.5110  -28.9100   22.1200 N   0  0  0  0  0  0  0  0  0  0  0  0
  -23.5720  -28.5150   22.9650 O   0  0  0  0  0  0  0  0  0  0  0  0
  -20.9650  -29.4850   21.4940 H   0  0  0  0  0  0  0  0  0  0  0  0
  -18.2220  -27.5000   22.6350 C   0  0  0  0  0  0  0  0  0  0  0  0
  -20.7710  -27.8750   22.8390 C   0  0  0  0  0  3  0  0  0  0  0  0
  -20.9230  -26.4990   22.1490 C   0  0  0  0  0  2  0  0  0  0  0  0
  -19.7990  -26.1960   21.1530 C   0  0  0  0  0  2  0  0  0  0  0  0
  -18.4410  -26.2130   21.8550 C   0  0  0  0  0  2  0  0  0  0  0  0
  -19.3140  -28.2900   23.0830 C   0  0  0  0  0  0  0  0  0  0  0  0
  -19.0530  -29.4910   23.7740 C   0  0  0  0  0  3  0  0  0  0  0  0
  -17.7300  -29.9040   24.0250 C   0  0  0  0  0  3  0  0  0  0  0  0
  -16.6530  -29.1110   23.5950 C   0  0  0  0  0  3  0  0  0  0  0  0
  -16.8990  -27.9110   22.9010 C   0  0  0  0  0  3  0  0  0  0  0  0
  -25.8760  -32.2540   23.6300 C   0  0  0  0  0  3  0  0  0  0  0  0
  -25.5310  -33.6260   24.0300 N   0  0  0  0  0  0  0  0  0  0  0  0
  -25.8190  -34.7220   23.3170 C   0  0  0  0  0  0  0  0  0  0  0  0
  -26.4760  -34.6890   22.2740 O   0  0  0  0  0  0  0  0  0  0  0  0
  -24.9480  -33.7250   24.8480 H   0  0  0  0  0  0  0  0  0  0  0  0
  -24.0330  -36.4740   23.0700 C   0  0  0  0  0  1  0  0  0  0  0  0
  -25.2970  -36.0710   23.8460 C   0  0  0  0  0  3  0  0  0  0  0  0
  -27.4060  -36.9880   24.7070 C   0  0  0  0  0  1  0  0  0  0  0  0
  -26.2950  -37.1600   23.7740 N   0  0  0  0  0  0  0  0  0  0  0  0
  -25.8610  -38.0590   23.9600 H   0  0  0  0  0  0  0  0  0  0  0  0
  -26.4540  -31.4440   24.8550 C   0  0  1  0  0  0  0  0  0  0  0  0
  -25.3980  -31.1240   25.9370 C   0  0  0  0  0  1  0  0  0  0  0  0
  -27.0720  -30.1050   24.3870 C   0  0  0  0  0  1  0  0  0  0  0  0
  -27.5950  -32.2490   25.5240 C   0  0  0  0  0  1  0  0  0  0  0  0
  -31.5090  -16.2840   21.7390 C   0  0  0  0  0  2  0  0  0  0  0  0
  -30.7170  -14.5900   20.1400 C   0  0  0  0  0  0  0  0  0  0  0  0
  -30.2170  -12.5590   18.8540 C   0  0  0  0  0  2  0  0  0  0  0  0
  -29.1910  -12.8190   17.7390 C   0  0  0  0  0  2  0  0  0  0  0  0
  -27.7630  -12.6350   18.2740 C   0  0  0  0  0  2  0  0  0  0  0  0
  -27.5140  -13.4210   19.5900 C   0  0  0  0  0  3  0  0  0  0  0  0
  -28.6520  -13.1930   20.6150 C   0  0  0  0  0  2  0  0  0  0  0  0
  -29.9460  -13.4860   19.9660 N   0  0  0  0  0  0  0  0  0  0  0  0
  -31.6350  -14.8840   19.3720 O   0  0  0  0  0  0  0  0  0  0  0  0
  -30.5340  -15.2950   21.2620 N   0  0  0  0  0  0  0  0  0  0  0  0
  -29.7820  -15.0350   21.8810 H   0  0  0  0  0  0  0  0  0  0  0  0
  -25.1580  -13.9510   20.4880 C   0  0  0  0  0  0  0  0  0  0  0  0
  -24.1310  -13.1430   20.9000 C   0  0  0  0  0  0  0  0  0  0  0  0
  -24.6160  -11.8050   20.7900 C   0  0  0  0  0  0  0  0  0  0  0  0
  -26.2020  -13.1010   20.1550 N   0  0  0  0  0  0  0  0  0  0  0  0
  -25.8840  -11.8030   20.3940 N   0  0  0  0  0  0  0  0  0  0  0  0
  -23.9300  -10.5210   20.9860 C   0  0  0  0  0  0  0  0  0  0  0  0
  -24.3950   -9.5690   21.9210 C   0  0  0  0  0  3  0  0  0  0  0  0
  -23.7070   -8.3500   22.1040 C   0  0  0  0  0  3  0  0  0  0  0  0
  -22.5410   -8.0730   21.3520 C   0  0  0  0  0  0  0  0  0  0  0  0
  -22.0960   -9.0140   20.4070 C   0  0  0  0  0  3  0  0  0  0  0  0
  -22.7830  -10.2240   20.2220 C   0  0  0  0  0  3  0  0  0  0  0  0
  -21.8200   -6.9050   21.4480 O   0  0  0  0  0  0  0  0  0  0  0  0
  -21.7560   -6.1910   22.6160 C   0  0  0  0  0  0  0  0  0  0  0  0
  -21.2270   -6.7490   23.8000 C   0  0  0  0  0  3  0  0  0  0  0  0
  -21.1120   -5.9590   24.9610 C   0  0  0  0  0  3  0  0  0  0  0  0
  -21.5170   -4.6100   24.9380 C   0  0  0  0  0  0  0  0  0  0  0  0
  -22.0370   -4.0510   23.7570 C   0  0  0  0  0  3  0  0  0  0  0  0
  -22.1530   -4.8390   22.5990 C   0  0  0  0  0  0  0  0  0  0  0  0
  -22.6360   -4.2890   21.4590 F   0  0  0  0  0  0  0  0  0  0  0  0
  -21.3990   -3.8490   26.0500 F   0  0  0  0  0  0  0  0  0  0  0  0
  -22.7480  -13.5820   21.2850 C   0  0  0  0  0  0  0  0  0  0  0  0
  -22.0950  -12.8440   22.1750 N   0  0  0  0  0  0  0  0  0  0  0  0
  -22.2540  -14.6130   20.8320 O   0  0  0  0  0  0  0  0  0  0  0  0
  -22.5090  -12.0090   22.5630 H   0  0  0  0  0  0  0  0  0  0  0  0
  -21.1680  -13.1130   22.4710 H   0  0  0  0  0  0  0  0  0  0  0  0
  -25.2870  -15.3300   20.3560 N   0  0  0  0  0  0  0  0  0  0  0  0
  -24.5340  -15.9740   20.5710 H   0  0  0  0  0  0  0  0  0  0  0  0
  -26.1270  -15.7970   20.0420 H   0  0  0  0  0  0  0  0  0  0  0  0
  1  2  2  0
  2 10  1  0
  3  8  1  0
  4  7  2  0
  5  3  2  0
  5  1  1  0
  6  4  1  0
  6  3  1  0
  8  2  1  0
  9  6  1  0
 10 11  1  0
 10 12  1  0
 14 13  1  0
 14  4  1  0
 15 18  1  0
 15 14  1  0
 16 15  1  0
 17 16  1  0
 18 19  1  0
 19 21  1  0
 20 31  2  0
 21 26  1  0
 22 30  1  0
 22 32  1  0
 23 29  1  0
 23 25  1  0
 24 30  1  0
 25 24  1  0
 26 25  2  0
 27 28  1  0
 27 21  2  0
 28 23  2  0
 29 22  1  0
 30 20  1  0
 32 34  2  0
 33 32  1  0
 35 33  1  0
 36 45  2  0
 36 41  1  0
 37 33  1  0
 37 41  1  0
 38 37  1  0
 39 40  1  0
 39 38  1  0
 40 36  1  0
 41 42  2  0
 42 43  1  0
 44 43  2  0
 45 44  1  0
 46 20  1  0
 46 47  1  0
 46 56  1  0
 47 50  1  0
 48 52  1  0
 48 47  1  0
 49 48  2  0
 52 51  1  0
 54 52  1  0
 54 55  1  0
 54 53  1  0
 56 59  1  1
 56 57  1  0
 58 56  1  0
 60  1  1  0
 61 69  1  0
 62 67  1  0
 63 64  1  0
 63 62  1  0
 65 64  1  0
 65 74  1  0
 65 66  1  0
 67 61  1  0
 67 66  1  0
 68 61  2  0
 69 60  1  0
 69 70  1  0
 71 72  2  0
 72 91  1  0
 73 72  1  0
 73 76  1  0
 74 75  1  0
 74 71  1  0
 75 73  2  0
 76 77  1  0
 77 78  2  0
 79 82  1  0
 79 78  1  0
 80 79  2  0
 81 80  1  0
 81 76  2  0
 82 83  1  0
 83 84  1  0
 84 85  2  0
 86 85  1  0
 86 90  1  0
 87 86  2  0
 88 83  2  0
 88 87  1  0
 89 88  1  0
 91 92  1  0
 92 95  1  0
 92 94  1  0
 93 91  2  0
 96 71  1  0
 96 97  1  0
 98 96  1  0
M  ISO  4  18 101  19 101  61 100  69 100
M  END
>  <TORSDO>  (35) 
F 22

>  <SCORE>  (35) 
-9.805

>  <name>  (35) 
34

>  <ligand_id>  (35) 
34

>  <original_smiles>  (35) 
[H]OC([H])(C([H])([H])Oc1c([H])c([H])c2c(c1[H])C([H])([H])N(C(=O)C([H])(N([H])C(=O)C([H])(N([H])C([H])([H])[H])C([H])([H])[H])C(C([H])([H])[H])(C([H])([H])[H])C([H])([H])[H])C([H])(C(=O)N([H])C1([H])c3c([H])c([H])c([H])c([H])c3C([H])([H])C([H])([H])C1([H])[H])C2([H])[H])C([H])(C(=O)N([H])c1nc(C([H])([H])N([H])C(=O)N2C([H])([H])C([H])([H])C([H])([H])C([H])(n3nc(-c4c([H])c([H])c(Oc5c([H])c([H])c(F)c([H])c5F)c([H])c4[H])c(C(=O)N([H])[H])c3N([H])[H])C2([H])[H])c(N([H])[H])s1)C([H])([H])[H]

>  <smiles>  (35) 
[H]OC([H])(C([H])([H])Oc1c([H])c([H])c2c(c1[H])C([H])([H])N(C(=O)C([H])(N([H])C(=O)C([H])(N([H])C([H])([H])[H])C([H])([H])[H])C(C([H])([H])[H])(C([H])([H])[H])C([H])([H])[H])C([H])(C(=O)N([H])C1([H])c3c([H])c([H])c([H])c([H])c3C([H])([H])C([H])([H])C1([H])[H])C2([H])[H])C([H])(C(=O)N([H])c1nc(C([H])([H])N([H])C(=O)N2C([H])([H])C([H])([H])C([H])([H])C([H])(n3nc(-c4c([H])c([H])c(Oc5c([H])c([H])c(F)c([H])c5F)c([H])c4[H])c(C(=O)N([H])[H])c3N([H])[H])C2([H])[H])c(N([H])[H])s1)C([H])([H])[H]

$$$$
35:0:0
     RDKit          3D

 96104  0  0  1  0  0  0  0  0999 V2000
  -30.6110  -20.1260   21.6200 C   0  0  0  0  0  3  0  0  0  0  0  0
  -29.8150  -19.7240   20.5740 C   0  0  0  0  0  0  0  0  0  0  0  0
  -29.5080  -22.0460   20.5110 C   0  0  0  0  0  0  0  0  0  0  0  0
  -29.2510  -20.8580   19.9090 N   0  0  0  0  0  0  0  0  0  0  0  0
  -29.0640  -23.3500   20.1810 N   0  0  0  0  0  0  0  0  0  0  0  0
  -30.5790  -21.8530   21.8910 S   0  0  0  0  0  0  0  0  0  0  0  0
  -29.3060  -24.0000   20.9240 H   0  0  0  0  0  0  0  0  0  0  0  0
  -29.5270  -18.2550   20.1560 C   0  0  0  0  0  3  0  0  0  0  0  0
  -29.7530  -18.1110   18.7140 N   0  0  0  0  0  4  0  0  0  0  0  0
  -30.7330  -18.1500   18.5000 H   0  0  0  0  0  0  0  0  0  0  0  0
  -29.2970  -18.8770   18.2490 H   0  0  0  0  0  0  0  0  0  0  0  0
  -29.3720  -17.2490   18.3710 H   0  0  0  0  0  0  0  0  0  0  0  0
  -30.2980  -17.1150   20.9570 C   0  0  0  0  0  2  0  0  0  0  0  0
  -30.6260  -14.6080   20.4460 C   0  0  0  0  0  0  0  0  0  0  0  0
  -30.3690  -12.4070   19.3430 C   0  0  0  0  0  2  0  0  0  0  0  0
  -29.4210  -12.5750   18.1350 C   0  0  0  0  0  2  0  0  0  0  0  0
  -27.9500  -12.4180   18.5690 C   0  0  0  0  0  2  0  0  0  0  0  0
  -27.6030  -13.2620   19.8260 C   0  0  0  0  0  3  0  0  0  0  0  0
  -28.6660  -13.0870   20.9340 C   0  0  0  0  0  2  0  0  0  0  0  0
  -29.9740  -13.4110   20.3470 N   0  0  0  0  0  0  0  0  0  0  0  0
  -31.8010  -14.7450   20.0960 O   0  0  0  0  0  0  0  0  0  0  0  0
  -29.8610  -15.6930   20.7430 N   0  0  0  0  0  0  0  0  0  0  0  0
  -28.8930  -15.4910   20.9480 H   0  0  0  0  0  0  0  0  0  0  0  0
  -25.2080  -13.8520   20.5520 C   0  0  0  0  0  0  0  0  0  0  0  0
  -24.1460  -13.0700   20.9250 C   0  0  0  0  0  0  0  0  0  0  0  0
  -24.6160  -11.7220   20.8890 C   0  0  0  0  0  0  0  0  0  0  0  0
  -26.2570  -12.9750   20.3130 N   0  0  0  0  0  0  0  0  0  0  0  0
  -25.9040  -11.6900   20.5760 N   0  0  0  0  0  0  0  0  0  0  0  0
  -23.8970  -10.4560   21.0770 C   0  0  0  0  0  0  0  0  0  0  0  0
  -24.3450   -9.4830   21.9980 C   0  0  0  0  0  3  0  0  0  0  0  0
  -23.6290   -8.2800   22.1730 C   0  0  0  0  0  3  0  0  0  0  0  0
  -22.4480   -8.0440   21.4290 C   0  0  0  0  0  0  0  0  0  0  0  0
  -22.0190   -9.0050   20.4970 C   0  0  0  0  0  3  0  0  0  0  0  0
  -22.7380  -10.2000   20.3190 C   0  0  0  0  0  3  0  0  0  0  0  0
  -21.6970   -6.8960   21.5170 O   0  0  0  0  0  0  0  0  0  0  0  0
  -21.6690   -6.1410   22.6620 C   0  0  0  0  0  0  0  0  0  0  0  0
  -21.2600   -6.6780   23.9010 C   0  0  0  0  0  3  0  0  0  0  0  0
  -21.1800   -5.8480   25.0370 C   0  0  0  0  0  3  0  0  0  0  0  0
  -21.5010   -4.4810   24.9350 C   0  0  0  0  0  0  0  0  0  0  0  0
  -21.9040   -3.9430   23.7000 C   0  0  0  0  0  3  0  0  0  0  0  0
  -21.9860   -4.7710   22.5670 C   0  0  0  0  0  0  0  0  0  0  0  0
  -22.3550   -4.2430   21.3740 F   0  0  0  0  0  0  0  0  0  0  0  0
  -21.4170   -3.6800   26.0220 F   0  0  0  0  0  0  0  0  0  0  0  0
  -22.7480  -13.5400   21.2040 C   0  0  0  0  0  0  0  0  0  0  0  0
  -22.0250  -12.8330   22.0670 N   0  0  0  0  0  0  0  0  0  0  0  0
  -22.3040  -14.5650   20.6900 O   0  0  0  0  0  0  0  0  0  0  0  0
  -22.3960  -12.0010   22.5030 H   0  0  0  0  0  0  0  0  0  0  0  0
  -21.0880  -13.1270   22.2980 H   0  0  0  0  0  0  0  0  0  0  0  0
  -25.3620  -15.2210   20.3720 N   0  0  0  0  0  0  0  0  0  0  0  0
  -24.5830  -15.8630   20.4710 H   0  0  0  0  0  0  0  0  0  0  0  0
  -26.1900  -15.6630   19.9930 H   0  0  0  0  0  0  0  0  0  0  0  0
  -28.4190  -24.0850   19.0730 C   0  0  0  0  0  3  0  0  0  0  0  0
  -26.8430  -22.2770   18.0480 C   0  0  0  0  0  1  0  0  0  0  0  0
  -26.9660  -23.6140   18.7930 C   0  0  0  0  0  2  0  0  0  0  0  0
  -28.6410  -25.6710   19.0480 C   0  0  0  0  0  2  0  0  0  0  0  0
  -28.3600  -26.5840   20.1610 O   0  0  0  0  0  0  0  0  0  0  0  0
  -24.6270  -31.9500   23.2460 C   0  0  0  0  0  0  0  0  0  0  0  0
  -27.2280  -27.4050   20.1480 C   0  0  0  0  0  0  0  0  0  0  0  0
  -23.4110  -30.5330   21.6350 C   0  0  0  0  0  3  0  0  0  0  0  0
  -24.8480  -28.9810   20.2070 C   0  0  0  0  0  0  0  0  0  0  0  0
  -25.9500  -30.8520   21.4280 C   0  0  0  0  0  2  0  0  0  0  0  0
  -26.0190  -29.4700   20.7990 C   0  0  0  0  0  0  0  0  0  0  0  0
  -27.2060  -28.6860   20.7830 C   0  0  0  0  0  3  0  0  0  0  0  0
  -26.0300  -26.9630   19.5510 C   0  0  0  0  0  3  0  0  0  0  0  0
  -24.8520  -27.7290   19.5800 C   0  0  0  0  0  3  0  0  0  0  0  0
  -23.6050  -29.8380   20.2620 C   0  0  0  0  0  2  0  0  0  0  0  0
  -24.6820  -31.1310   22.1570 N   0  0  0  0  0  0  0  0  0  0  0  0
  -23.5470  -32.2360   23.7830 O   0  0  0  0  0  0  0  0  0  0  0  0
  -22.7590  -29.5230   22.6090 C   0  0  0  0  0  0  0  0  0  0  0  0
  -21.4360  -29.3250   22.4810 N   0  0  0  0  0  0  0  0  0  0  0  0
  -23.4470  -28.9160   23.4350 O   0  0  0  0  0  0  0  0  0  0  0  0
  -20.9410  -29.8750   21.7930 H   0  0  0  0  0  0  0  0  0  0  0  0
  -18.0730  -28.0840   22.9520 C   0  0  0  0  0  0  0  0  0  0  0  0
  -20.6220  -28.3900   23.2580 C   0  0  0  0  0  3  0  0  0  0  0  0
  -20.7520  -26.9480   22.7160 C   0  0  0  0  0  2  0  0  0  0  0  0
  -19.6720  -26.5850   21.6920 C   0  0  0  0  0  2  0  0  0  0  0  0
  -18.2810  -26.7200   22.3150 C   0  0  0  0  0  2  0  0  0  0  0  0
  -19.1730  -28.8730   23.3810 C   0  0  0  0  0  0  0  0  0  0  0  0
  -18.9250  -30.1470   23.9340 C   0  0  0  0  0  3  0  0  0  0  0  0
  -17.6100  -30.6330   24.0690 C   0  0  0  0  0  3  0  0  0  0  0  0
  -16.5240  -29.8360   23.6660 C   0  0  0  0  0  3  0  0  0  0  0  0
  -16.7560  -28.5660   23.1090 C   0  0  0  0  0  3  0  0  0  0  0  0
  -25.9130  -32.5870   23.8540 C   0  0  0  0  0  3  0  0  0  0  0  0
  -25.6030  -33.9870   24.1860 N   0  0  0  0  0  0  0  0  0  0  0  0
  -25.9250  -35.0400   23.4240 C   0  0  0  0  0  0  0  0  0  0  0  0
  -26.5880  -34.9380   22.3880 O   0  0  0  0  0  0  0  0  0  0  0  0
  -25.0000  -34.1400   24.9830 H   0  0  0  0  0  0  0  0  0  0  0  0
  -24.1840  -36.8290   23.0900 C   0  0  0  0  0  1  0  0  0  0  0  0
  -25.4340  -36.4240   23.8850 C   0  0  0  0  0  3  0  0  0  0  0  0
  -27.5740  -37.3130   24.7040 C   0  0  0  0  0  1  0  0  0  0  0  0
  -26.4620  -37.4830   23.7710 N   0  0  0  0  0  0  0  0  0  0  0  0
  -26.0500  -38.4000   23.9240 H   0  0  0  0  0  0  0  0  0  0  0  0
  -26.4480  -31.8200   25.1260 C   0  0  1  0  0  0  0  0  0  0  0  0
  -25.3670  -31.5740   26.2070 C   0  0  0  0  0  1  0  0  0  0  0  0
  -27.0330  -30.4460   24.7300 C   0  0  0  0  0  1  0  0  0  0  0  0
  -27.6030  -32.6230   25.7710 C   0  0  0  0  0  1  0  0  0  0  0  0
  1  6  1  0
  2  1  2  0
  3  6  1  0
  4  3  2  0
  4  2  1  0
  5  3  1  0
  5  7  1  0
  8  2  1  0
  8 13  1  0
  9  8  1  0
 10  9  1  0
 11  9  1  0
 12  9  1  0
 14 22  1  0
 15 20  1  0
 16 17  1  0
 16 15  1  0
 18 17  1  0
 18 27  1  0
 18 19  1  0
 20 14  1  0
 20 19  1  0
 21 14  2  0
 22 23  1  0
 22 13  1  0
 24 25  2  0
 25 44  1  0
 26 25  1  0
 26 29  1  0
 27 24  1  0
 27 28  1  0
 28 26  2  0
 29 30  1  0
 30 31  2  0
 32 35  1  0
 32 31  1  0
 33 32  2  0
 34 33  1  0
 34 29  2  0
 35 36  1  0
 36 37  1  0
 37 38  2  0
 39 38  1  0
 39 43  1  0
 40 39  2  0
 41 36  2  0
 41 40  1  0
 42 41  1  0
 44 45  1  0
 45 48  1  0
 45 47  1  0
 46 44  2  0
 49 50  1  0
 49 24  1  0
 51 49  1  0
 52 54  1  0
 52  5  1  0
 53 54  1  0
 55 52  1  0
 55 56  1  0
 57 68  2  0
 58 56  1  0
 58 63  1  0
 59 67  1  0
 59 69  1  0
 60 66  1  0
 60 62  1  0
 61 67  1  0
 62 61  1  0
 63 62  2  0
 64 65  1  0
 64 58  2  0
 65 60  2  0
 66 59  1  0
 67 57  1  0
 69 71  2  0
 70 69  1  0
 72 70  1  0
 73 82  2  0
 73 78  1  0
 74 70  1  0
 74 78  1  0
 75 74  1  0
 76 77  1  0
 76 75  1  0
 77 73  1  0
 78 79  2  0
 79 80  1  0
 81 80  2  0
 82 81  1  0
 83 57  1  0
 83 84  1  0
 83 93  1  0
 84 87  1  0
 85 89  1  0
 85 84  1  0
 86 85  2  0
 89 88  1  0
 91 89  1  0
 91 92  1  0
 91 90  1  0
 93 96  1  1
 93 94  1  0
 95 93  1  0
M  ISO  4  14 100  22 100  55 101  56 101
M  END
>  <TORSDO>  (36) 
F 22

>  <SCORE>  (36) 
-13.478

>  <name>  (36) 
35

>  <ligand_id>  (36) 
35

>  <original_smiles>  (36) 
[H]c1sc(N([H])C([H])(C([H])([H])Oc2c([H])c([H])c3c(c2[H])C([H])([H])N(C(=O)C([H])(N([H])C(=O)C([H])(N([H])C([H])([H])[H])C([H])([H])[H])C(C([H])([H])[H])(C([H])([H])[H])C([H])([H])[H])C([H])(C(=O)N([H])C2([H])c4c([H])c([H])c([H])c([H])c4C([H])([H])C([H])([H])C2([H])[H])C3([H])[H])C([H])([H])C([H])([H])[H])nc1C([H])(C([H])([H])N([H])C(=O)N1C([H])([H])C([H])([H])C([H])([H])C([H])(n2nc(-c3c([H])c([H])c(Oc4c([H])c([H])c(F)c([H])c4F)c([H])c3[H])c(C(=O)N([H])[H])c2N([H])[H])C1([H])[H])[N+]([H])([H])[H]

>  <smiles>  (36) 
[H]c1sc(N([H])C([H])(C([H])([H])Oc2c([H])c([H])c3c(c2[H])C([H])([H])N(C(=O)C([H])(N([H])C(=O)C([H])(N([H])C([H])([H])[H])C([H])([H])[H])C(C([H])([H])[H])(C([H])([H])[H])C([H])([H])[H])C([H])(C(=O)N([H])C2([H])c4c([H])c([H])c([H])c([H])c4C([H])([H])C([H])([H])C2([H])[H])C3([H])[H])C([H])([H])C([H])([H])[H])nc1C([H])(C([H])([H])N([H])C(=O)N1C([H])([H])C([H])([H])C([H])([H])C([H])(n2nc(-c3c([H])c([H])c(Oc4c([H])c([H])c(F)c([H])c4F)c([H])c3[H])c(C(=O)N([H])[H])c2N([H])[H])C1([H])[H])[N+]([H])([H])[H]

$$$$
36:0:0
     RDKit          3D

 94102  0  0  1  0  0  0  0  0999 V2000
  -30.8970  -18.0670   21.2800 C   0  0  0  0  0  0  0  0  0  0  0  0
  -30.5650  -18.4350   22.5640 C   0  0  0  0  0  0  0  0  0  0  0  0
  -29.6430  -19.9110   20.8290 C   0  0  0  0  0  0  0  0  0  0  0  0
  -28.4840  -22.0330   20.2690 C   0  0  0  0  0  0  0  0  0  0  0  0
  -30.9950  -17.7840   23.8380 C   0  0  0  0  0  1  0  0  0  0  0  0
  -30.3380  -18.9000   20.3040 N   0  0  0  0  0  0  0  0  0  0  0  0
  -29.0920  -20.8780   19.9590 N   0  0  0  0  0  0  0  0  0  0  0  0
  -28.2590  -22.4190   21.4200 O   0  0  0  0  0  0  0  0  0  0  0  0
  -29.5630  -19.8660   22.5890 S   0  0  0  0  0  0  0  0  0  0  0  0
  -29.2020  -20.6870   18.9750 H   0  0  0  0  0  0  0  0  0  0  0  0
  -26.6230  -22.5020   18.6450 C   0  0  0  0  0  1  0  0  0  0  0  0
  -28.0470  -22.9000   19.0770 C   0  0  0  0  0  3  0  0  0  0  0  0
  -28.1590  -24.4120   19.3950 C   0  0  0  0  0  2  0  0  0  0  0  0
  -28.2150  -25.3010   18.1370 C   0  0  0  0  0  2  0  0  0  0  0  0
  -28.2030  -26.6880   18.4770 O   0  0  0  0  0  0  0  0  0  0  0  0
  -24.6410  -31.1620   22.6960 C   0  0  0  0  0  0  0  0  0  0  0  0
  -26.9970  -27.3190   18.7080 C   0  0  0  0  0  0  0  0  0  0  0  0
  -23.2840  -29.9810   20.9990 C   0  0  0  0  0  3  0  0  0  0  0  0
  -24.5920  -28.7190   19.2180 C   0  0  0  0  0  0  0  0  0  0  0  0
  -25.7660  -30.4480   20.5900 C   0  0  0  0  0  2  0  0  0  0  0  0
  -25.7990  -29.1900   19.7460 C   0  0  0  0  0  0  0  0  0  0  0  0
  -27.0020  -28.4950   19.4920 C   0  0  0  0  0  3  0  0  0  0  0  0
  -25.7620  -26.8550   18.1910 C   0  0  0  0  0  3  0  0  0  0  0  0
  -24.5660  -27.5490   18.4430 C   0  0  0  0  0  3  0  0  0  0  0  0
  -23.3510  -29.5230   19.5190 C   0  0  0  0  0  2  0  0  0  0  0  0
  -24.5880  -30.5370   21.4870 N   0  0  0  0  0  0  0  0  0  0  0  0
  -23.6210  -31.3180   23.3840 O   0  0  0  0  0  0  0  0  0  0  0  0
  -22.7590  -28.8080   21.8580 C   0  0  0  0  0  0  0  0  0  0  0  0
  -21.4420  -28.5570   21.7860 N   0  0  0  0  0  0  0  0  0  0  0  0
  -23.5290  -28.1320   22.5460 O   0  0  0  0  0  0  0  0  0  0  0  0
  -20.8770  -29.1620   21.2050 H   0  0  0  0  0  0  0  0  0  0  0  0
  -18.2020  -27.0220   22.2210 C   0  0  0  0  0  0  0  0  0  0  0  0
  -20.7330  -27.4820   22.4760 C   0  0  0  0  0  3  0  0  0  0  0  0
  -20.9480  -26.1280   21.7600 C   0  0  0  0  0  2  0  0  0  0  0  0
  -19.8510  -25.8030   20.7410 C   0  0  0  0  0  2  0  0  0  0  0  0
  -18.4790  -25.7610   21.4210 C   0  0  0  0  0  2  0  0  0  0  0  0
  -19.2600  -27.8370   22.7050 C   0  0  0  0  0  0  0  0  0  0  0  0
  -18.9450  -29.0170   23.4130 C   0  0  0  0  0  3  0  0  0  0  0  0
  -17.6060  -29.3840   23.6450 C   0  0  0  0  0  3  0  0  0  0  0  0
  -16.5630  -28.5650   23.1770 C   0  0  0  0  0  3  0  0  0  0  0  0
  -16.8630  -27.3870   22.4720 C   0  0  0  0  0  3  0  0  0  0  0  0
  -25.9770  -31.7320   23.2630 C   0  0  0  0  0  3  0  0  0  0  0  0
  -26.6630  -30.7800   24.3170 C   0  0  1  0  0  0  0  0  0  0  0  0
  -25.7150  -30.3200   25.4500 C   0  0  0  0  0  1  0  0  0  0  0  0
  -27.2200  -29.5140   23.6250 C   0  0  0  0  0  1  0  0  0  0  0  0
  -27.8700  -31.4980   24.9650 C   0  0  0  0  0  1  0  0  0  0  0  0
  -25.6800  -33.0410   23.8600 N   0  0  0  0  0  0  0  0  0  0  0  0
  -25.9530  -34.2190   23.2810 C   0  0  0  0  0  0  0  0  0  0  0  0
  -26.5530  -34.3150   22.2090 O   0  0  0  0  0  0  0  0  0  0  0  0
  -25.1350  -33.0380   24.7100 H   0  0  0  0  0  0  0  0  0  0  0  0
  -24.2010  -36.0220   23.3460 C   0  0  0  0  0  1  0  0  0  0  0  0
  -25.4830  -35.4920   24.0090 C   0  0  0  0  0  3  0  0  0  0  0  0
  -27.6550  -36.2360   24.8830 C   0  0  0  0  0  1  0  0  0  0  0  0
  -26.5050  -36.5620   24.0420 N   0  0  0  0  0  0  0  0  0  0  0  0
  -26.1020  -37.4330   24.3760 H   0  0  0  0  0  0  0  0  0  0  0  0
  -31.7890  -16.9370   20.8520 C   0  0  0  0  0  2  0  0  0  0  0  0
  -31.5350  -14.6650   19.9320 C   0  0  0  0  0  0  0  0  0  0  0  0
  -30.9880  -12.5230   18.8510 C   0  0  0  0  0  2  0  0  0  0  0  0
  -29.9910  -12.7410   17.6970 C   0  0  0  0  0  2  0  0  0  0  0  0
  -28.5430  -12.7040   18.2210 C   0  0  0  0  0  2  0  0  0  0  0  0
  -28.3330  -13.6180   19.4590 C   0  0  0  0  0  3  0  0  0  0  0  0
  -29.4370  -13.3840   20.5160 C   0  0  0  0  0  2  0  0  0  0  0  0
  -30.7450  -13.5620   19.8620 N   0  0  0  0  0  0  0  0  0  0  0  0
  -32.5910  -14.7750   19.3050 O   0  0  0  0  0  0  0  0  0  0  0  0
  -31.0800  -15.6700   20.6890 N   0  0  0  0  0  0  0  0  0  0  0  0
  -30.1900  -15.5630   21.1480 H   0  0  0  0  0  0  0  0  0  0  0  0
  -26.0750  -14.4100   20.4050 C   0  0  0  0  0  0  0  0  0  0  0  0
  -24.9580  -13.7240   20.8000 C   0  0  0  0  0  0  0  0  0  0  0  0
  -25.2610  -12.3390   20.6240 C   0  0  0  0  0  0  0  0  0  0  0  0
  -26.9960  -13.4480   20.0220 N   0  0  0  0  0  0  0  0  0  0  0  0
  -26.5120  -12.1910   20.2060 N   0  0  0  0  0  0  0  0  0  0  0  0
  -24.4160  -11.1480   20.7750 C   0  0  0  0  0  0  0  0  0  0  0  0
  -24.7910  -10.0800   21.6200 C   0  0  0  0  0  3  0  0  0  0  0  0
  -23.9540   -8.9530   21.7630 C   0  0  0  0  0  3  0  0  0  0  0  0
  -22.7260   -8.8870   21.0610 C   0  0  0  0  0  0  0  0  0  0  0  0
  -22.3690   -9.9420   20.2030 C   0  0  0  0  0  3  0  0  0  0  0  0
  -23.2060  -11.0630   20.0580 C   0  0  0  0  0  3  0  0  0  0  0  0
  -21.8610   -7.8210   21.1190 O   0  0  0  0  0  0  0  0  0  0  0  0
  -21.7710   -7.0270   22.2330 C   0  0  0  0  0  0  0  0  0  0  0  0
  -21.4290   -7.5540   23.4980 C   0  0  0  0  0  3  0  0  0  0  0  0
  -21.2780   -6.6930   24.6030 C   0  0  0  0  0  3  0  0  0  0  0  0
  -21.4600   -5.3060   24.4450 C   0  0  0  0  0  0  0  0  0  0  0  0
  -21.7940   -4.7780   23.1860 C   0  0  0  0  0  3  0  0  0  0  0  0
  -21.9480   -5.6360   22.0820 C   0  0  0  0  0  0  0  0  0  0  0  0
  -22.2490   -5.1210   20.8670 F   0  0  0  0  0  0  0  0  0  0  0  0
  -21.3090   -4.4760   25.5040 F   0  0  0  0  0  0  0  0  0  0  0  0
  -23.6470  -14.3190   21.2280 C   0  0  0  0  0  0  0  0  0  0  0  0
  -22.9190  -13.6280   22.0990 N   0  0  0  0  0  0  0  0  0  0  0  0
  -23.2830  -15.4230   20.8260 O   0  0  0  0  0  0  0  0  0  0  0  0
  -23.2300  -12.7310   22.4420 H   0  0  0  0  0  0  0  0  0  0  0  0
  -22.0390  -14.0000   22.4290 H   0  0  0  0  0  0  0  0  0  0  0  0
  -26.3810  -15.7650   20.3220 N   0  0  0  0  0  0  0  0  0  0  0  0
  -25.7060  -16.4880   20.5450 H   0  0  0  0  0  0  0  0  0  0  0  0
  -27.2530  -16.1350   19.9660 H   0  0  0  0  0  0  0  0  0  0  0  0
  1  2  2  0
  2  9  1  0
  2  5  1  0
  3  9  1  0
  4  8  2  0
  6  3  2  0
  6  1  1  0
  7  4  1  0
  7  3  1  0
 10  7  1  0
 12 11  1  0
 12 13  1  0
 12  4  1  0
 14 15  1  0
 14 13  1  0
 15 17  1  0
 16 27  2  0
 17 22  1  0
 18 26  1  0
 18 28  1  0
 19 25  1  0
 19 21  1  0
 20 26  1  0
 21 20  1  0
 22 21  2  0
 23 24  1  0
 23 17  2  0
 24 19  2  0
 25 18  1  0
 26 16  1  0
 28 30  2  0
 29 28  1  0
 31 29  1  0
 32 41  2  0
 32 37  1  0
 33 29  1  0
 33 37  1  0
 34 33  1  0
 35 36  1  0
 35 34  1  0
 36 32  1  0
 37 38  2  0
 38 39  1  0
 40 39  2  0
 41 40  1  0
 42 16  1  0
 42 47  1  0
 42 43  1  0
 43 46  1  1
 43 44  1  0
 45 43  1  0
 47 50  1  0
 48 47  1  0
 48 52  1  0
 49 48  2  0
 52 51  1  0
 52 54  1  0
 54 55  1  0
 54 53  1  0
 56  1  1  0
 57 65  1  0
 58 63  1  0
 59 60  1  0
 59 58  1  0
 61 60  1  0
 61 70  1  0
 61 62  1  0
 63 57  1  0
 63 62  1  0
 64 57  2  0
 65 56  1  0
 65 66  1  0
 67 68  2  0
 68 87  1  0
 69 72  1  0
 69 68  1  0
 70 71  1  0
 70 67  1  0
 71 69  2  0
 72 73  1  0
 73 74  2  0
 75 78  1  0
 75 74  1  0
 76 75  2  0
 77 76  1  0
 77 72  2  0
 78 79  1  0
 79 80  1  0
 80 81  2  0
 82 81  1  0
 82 86  1  0
 83 82  2  0
 84 79  2  0
 84 83  1  0
 85 84  1  0
 87 88  1  0
 88 91  1  0
 88 90  1  0
 89 87  2  0
 92 67  1  0
 92 93  1  0
 94 92  1  0
M  ISO  4  14 101  15 101  57 100  65 100
M  END
>  <TORSDO>  (37) 
F 20

>  <SCORE>  (37) 
-8.183

>  <name>  (37) 
36

>  <ligand_id>  (37) 
36

>  <original_smiles>  (37) 
[H]c1c([H])c([H])c2c(c1[H])C([H])([H])C([H])([H])C([H])([H])C2([H])N([H])C(=O)C1([H])N(C(=O)C([H])(N([H])C(=O)C([H])(N([H])C([H])([H])[H])C([H])([H])[H])C(C([H])([H])[H])(C([H])([H])[H])C([H])([H])[H])C([H])([H])c2c([H])c(OC([H])([H])C([H])([H])C([H])(C(=O)N([H])c3nc(C([H])([H])N([H])C(=O)N4C([H])([H])C([H])([H])C([H])([H])C([H])(n5nc(-c6c([H])c([H])c(Oc7c([H])c([H])c(F)c([H])c7F)c([H])c6[H])c(C(=O)N([H])[H])c5N([H])[H])C4([H])[H])c(C([H])([H])[H])s3)C([H])([H])[H])c([H])c([H])c2C1([H])[H]

>  <smiles>  (37) 
[H]c1c([H])c([H])c2c(c1[H])C([H])([H])C([H])([H])C([H])([H])C2([H])N([H])C(=O)C1([H])N(C(=O)C([H])(N([H])C(=O)C([H])(N([H])C([H])([H])[H])C([H])([H])[H])C(C([H])([H])[H])(C([H])([H])[H])C([H])([H])[H])C([H])([H])c2c([H])c(OC([H])([H])C([H])([H])C([H])(C(=O)N([H])c3nc(C([H])([H])N([H])C(=O)N4C([H])([H])C([H])([H])C([H])([H])C([H])(n5nc(-c6c([H])c([H])c(Oc7c([H])c([H])c(F)c([H])c7F)c([H])c6[H])c(C(=O)N([H])[H])c5N([H])[H])C4([H])[H])c(C([H])([H])[H])s3)C([H])([H])[H])c([H])c([H])c2C1([H])[H]

$$$$
37:0:0
     RDKit          3D

 96105  0  0  1  0  0  0  0  0999 V2000
  -30.5090  -23.6050   20.1320 C   0  0  0  0  0  0  0  0  0  0  0  0
  -28.7080  -22.2870   20.7970 C   0  0  0  0  0  2  0  0  0  0  0  0
  -29.1360  -23.8350   20.7670 C   0  0  0  0  0  3  0  0  0  0  0  0
  -30.0310  -21.4060   20.9810 C   0  0  2  0  0  0  0  0  0  0  0  0
  -30.9290  -22.3340   20.2740 N   0  0  0  0  0  0  0  0  0  0  0  0
  -31.1510  -24.4880   19.5620 O   0  0  0  0  0  0  0  0  0  0  0  0
  -31.8300  -22.0180   19.9510 H   0  0  0  0  0  0  0  0  0  0  0  0
  -31.2080  -17.8930   19.2300 C   0  0  0  0  0  3  0  0  0  0  0  0
  -30.3810  -17.5240   20.2630 C   0  0  0  0  0  0  0  0  0  0  0  0
  -30.2170  -19.9310   20.3720 C   0  0  0  0  0  0  0  0  0  0  0  0
  -29.7750  -18.7070   20.8460 N   0  0  0  0  0  0  0  0  0  0  0  0
  -31.2940  -19.6330   18.9950 S   0  0  0  0  0  0  0  0  0  0  0  0
  -30.8900  -14.9560   20.3600 C   0  0  0  0  0  0  0  0  0  0  0  0
  -30.6990  -12.6640   19.3860 C   0  0  0  0  0  2  0  0  0  0  0  0
  -29.7900  -12.7290   18.1380 C   0  0  0  0  0  2  0  0  0  0  0  0
  -28.3110  -12.5610   18.5400 C   0  0  0  0  0  2  0  0  0  0  0  0
  -27.9140  -13.4580   19.7430 C   0  0  0  0  0  3  0  0  0  0  0  0
  -28.9500  -13.3850   20.8860 C   0  0  0  0  0  2  0  0  0  0  0  0
  -30.2590  -13.7290   20.3180 N   0  0  0  0  0  0  0  0  0  0  0  0
  -32.0760  -15.0280   20.0250 O   0  0  0  0  0  0  0  0  0  0  0  0
  -30.1380  -16.1000   20.6190 N   0  0  0  0  0  0  0  0  0  0  0  0
  -29.2370  -15.9170   21.0280 H   0  0  0  0  0  0  0  0  0  0  0  0
  -25.5090  -14.0500   20.4080 C   0  0  0  0  0  0  0  0  0  0  0  0
  -24.4380  -13.2780   20.7680 C   0  0  0  0  0  0  0  0  0  0  0  0
  -24.9050  -11.9280   20.7700 C   0  0  0  0  0  0  0  0  0  0  0  0
  -26.5600  -13.1710   20.2090 N   0  0  0  0  0  0  0  0  0  0  0  0
  -26.2030  -11.8910   20.4900 N   0  0  0  0  0  0  0  0  0  0  0  0
  -24.1780  -10.6670   20.9650 C   0  0  0  0  0  0  0  0  0  0  0  0
  -24.5840   -9.7230   21.9340 C   0  0  0  0  0  3  0  0  0  0  0  0
  -23.8560   -8.5260   22.1160 C   0  0  0  0  0  3  0  0  0  0  0  0
  -22.7100   -8.2660   21.3280 C   0  0  0  0  0  0  0  0  0  0  0  0
  -22.3250   -9.1980   20.3480 C   0  0  0  0  0  3  0  0  0  0  0  0
  -23.0530  -10.3850   20.1650 C   0  0  0  0  0  3  0  0  0  0  0  0
  -21.9560   -7.1200   21.4180 O   0  0  0  0  0  0  0  0  0  0  0  0
  -21.8600   -6.4110   22.5880 C   0  0  0  0  0  0  0  0  0  0  0  0
  -21.3350   -6.9850   23.7670 C   0  0  0  0  0  3  0  0  0  0  0  0
  -21.1910   -6.2000   24.9290 C   0  0  0  0  0  3  0  0  0  0  0  0
  -21.5610   -4.8430   24.9120 C   0  0  0  0  0  0  0  0  0  0  0  0
  -22.0790   -4.2680   23.7370 C   0  0  0  0  0  3  0  0  0  0  0  0
  -22.2250   -5.0500   22.5780 C   0  0  0  0  0  0  0  0  0  0  0  0
  -22.7050   -4.4850   21.4440 F   0  0  0  0  0  0  0  0  0  0  0  0
  -21.4140   -4.0860   26.0250 F   0  0  0  0  0  0  0  0  0  0  0  0
  -23.0330  -13.7550   21.0000 C   0  0  0  0  0  0  0  0  0  0  0  0
  -22.2900  -13.0770   21.8680 N   0  0  0  0  0  0  0  0  0  0  0  0
  -22.6020  -14.7670   20.4480 O   0  0  0  0  0  0  0  0  0  0  0  0
  -22.6520  -12.2600   22.3380 H   0  0  0  0  0  0  0  0  0  0  0  0
  -21.3470  -13.3800   22.0660 H   0  0  0  0  0  0  0  0  0  0  0  0
  -25.6710  -15.4190   20.2120 N   0  0  0  0  0  0  0  0  0  0  0  0
  -24.8990  -16.0690   20.3030 H   0  0  0  0  0  0  0  0  0  0  0  0
  -26.5210  -15.8580   19.8840 H   0  0  0  0  0  0  0  0  0  0  0  0
  -30.4910  -21.3660   22.4750 C   0  0  1  0  0  0  0  0  0  0  0  0
  -31.6180  -20.6610   22.5980 F   0  0  0  0  0  0  0  0  0  0  0  0
  -30.7300  -22.5760   22.9820 F   0  0  0  0  0  0  0  0  0  0  0  0
  -29.5520  -20.7960   23.2310 F   0  0  0  0  0  0  0  0  0  0  0  0
  -28.1760  -25.0020   20.1660 C   0  0  0  0  0  2  0  0  0  0  0  0
  -28.3700  -26.4840   20.4110 O   0  0  0  0  0  0  0  0  0  0  0  0
  -24.5560  -31.9690   23.2690 C   0  0  0  0  0  0  0  0  0  0  0  0
  -27.2720  -27.3770   20.2950 C   0  0  0  0  0  0  0  0  0  0  0  0
  -23.4060  -30.5530   21.6100 C   0  0  0  0  0  3  0  0  0  0  0  0
  -24.9040  -29.0120   20.2170 C   0  0  0  0  0  0  0  0  0  0  0  0
  -25.9510  -30.8800   21.4900 C   0  0  0  0  0  2  0  0  0  0  0  0
  -26.0570  -29.4970   20.8460 C   0  0  0  0  0  0  0  0  0  0  0  0
  -27.2430  -28.6920   20.8780 C   0  0  0  0  0  3  0  0  0  0  0  0
  -26.1010  -26.9750   19.6130 C   0  0  0  0  0  3  0  0  0  0  0  0
  -24.9330  -27.7600   19.5890 C   0  0  0  0  0  3  0  0  0  0  0  0
  -23.6600  -29.8780   20.2370 C   0  0  0  0  0  2  0  0  0  0  0  0
  -24.6560  -31.1530   22.1780 N   0  0  0  0  0  0  0  0  0  0  0  0
  -23.4570  -32.2390   23.7770 O   0  0  0  0  0  0  0  0  0  0  0  0
  -22.7300  -29.5330   22.5580 C   0  0  0  0  0  0  0  0  0  0  0  0
  -21.4150  -29.3160   22.3800 N   0  0  0  0  0  0  0  0  0  0  0  0
  -23.3910  -28.9390   23.4150 O   0  0  0  0  0  0  0  0  0  0  0  0
  -20.9410  -29.8480   21.6650 H   0  0  0  0  0  0  0  0  0  0  0  0
  -18.0570  -28.0180   22.7530 C   0  0  0  0  0  0  0  0  0  0  0  0
  -20.5910  -28.3690   23.1340 C   0  0  0  0  0  3  0  0  0  0  0  0
  -20.7650  -26.9290   22.5960 C   0  0  0  0  0  2  0  0  0  0  0  0
  -19.7230  -26.5500   21.5390 C   0  0  0  0  0  2  0  0  0  0  0  0
  -18.3080  -26.6630   22.1150 C   0  0  0  0  0  2  0  0  0  0  0  0
  -19.1300  -28.8270   23.2170 C   0  0  0  0  0  0  0  0  0  0  0  0
  -18.8430  -30.0930   23.7710 C   0  0  0  0  0  3  0  0  0  0  0  0
  -17.5160  -30.5530   23.8670 C   0  0  0  0  0  3  0  0  0  0  0  0
  -16.4580  -29.7440   23.4190 C   0  0  0  0  0  3  0  0  0  0  0  0
  -16.7290  -28.4790   22.8680 C   0  0  0  0  0  3  0  0  0  0  0  0
  -25.8160  -32.6200   23.9180 C   0  0  0  0  0  3  0  0  0  0  0  0
  -26.3040  -31.8660   25.2160 C   0  0  1  0  0  0  0  0  0  0  0  0
  -25.1820  -31.6150   26.2500 C   0  0  0  0  0  1  0  0  0  0  0  0
  -26.9250  -30.4970   24.8550 C   0  0  0  0  0  1  0  0  0  0  0  0
  -27.4190  -32.6850   25.9090 C   0  0  0  0  0  1  0  0  0  0  0  0
  -25.4840  -34.0180   24.2280 N   0  0  0  0  0  0  0  0  0  0  0  0
  -25.8310  -35.0700   23.4750 C   0  0  0  0  0  0  0  0  0  0  0  0
  -26.5340  -34.9650   22.4650 O   0  0  0  0  0  0  0  0  0  0  0  0
  -24.8630  -34.1720   25.0080 H   0  0  0  0  0  0  0  0  0  0  0  0
  -24.1130  -36.8570   23.0470 C   0  0  0  0  0  1  0  0  0  0  0  0
  -25.3210  -36.4580   23.9090 C   0  0  0  0  0  3  0  0  0  0  0  0
  -27.4100  -37.3580   24.8330 C   0  0  0  0  0  1  0  0  0  0  0  0
  -26.3530  -37.5150   23.8380 N   0  0  0  0  0  0  0  0  0  0  0  0
  -25.9370  -38.4340   23.9590 H   0  0  0  0  0  0  0  0  0  0  0  0
  1  5  1  0
  1  3  1  0
  2  4  1  0
  3 55  1  0
  3  2  1  0
  4 51  1  0
  5  4  1  0
  6  1  2  0
  7  5  1  0
  8  9  2  0
  9 21  1  0
  9 11  1  0
 10 11  2  0
  4 10  1  6
 12  8  1  0
 12 10  1  0
 13 21  1  0
 14 19  1  0
 15 16  1  0
 15 14  1  0
 17 16  1  0
 17 26  1  0
 17 18  1  0
 19 13  1  0
 19 18  1  0
 20 13  2  0
 21 22  1  0
 23 24  2  0
 24 25  1  0
 24 43  1  0
 25 28  1  0
 26 23  1  0
 26 27  1  0
 27 25  2  0
 28 29  1  0
 29 30  2  0
 31 34  1  0
 31 30  1  0
 32 31  2  0
 33 32  1  0
 33 28  2  0
 34 35  1  0
 35 36  1  0
 36 37  2  0
 38 37  1  0
 38 42  1  0
 39 38  2  0
 40 35  2  0
 40 39  1  0
 41 40  1  0
 43 44  1  0
 44 47  1  0
 44 46  1  0
 45 43  2  0
 48 49  1  0
 48 23  1  0
 50 48  1  0
 51 52  1  6
 51 53  1  0
 51 54  1  0
 55 56  1  0
 57 68  2  0
 58 56  1  0
 58 63  1  0
 59 67  1  0
 59 69  1  0
 60 66  1  0
 60 62  1  0
 61 67  1  0
 62 63  2  0
 62 61  1  0
 64 58  2  0
 65 64  1  0
 65 60  2  0
 66 59  1  0
 67 57  1  0
 69 71  2  0
 70 69  1  0
 72 70  1  0
 73 82  2  0
 73 78  1  0
 74 70  1  0
 74 78  1  0
 75 74  1  0
 76 77  1  0
 76 75  1  0
 77 73  1  0
 78 79  2  0
 79 80  1  0
 81 80  2  0
 82 81  1  0
 83 57  1  0
 83 88  1  0
 83 84  1  0
 84 87  1  1
 84 85  1  0
 86 84  1  0
 88 91  1  0
 89 93  1  0
 89 88  1  0
 90 89  2  0
 93 92  1  0
 95 93  1  0
 95 96  1  0
 95 94  1  0
M  ISO  4  13 100  21 100  55 101  56 101
M  END
>  <TORSDO>  (38) 
F 19

>  <SCORE>  (38) 
-14.328

>  <name>  (38) 
37

>  <ligand_id>  (38) 
37

>  <original_smiles>  (38) 
[H]c1sc(C2(C(F)(F)F)N([H])C(=O)C([H])(C([H])([H])Oc3c([H])c([H])c4c(c3[H])C([H])([H])N(C(=O)C([H])(N([H])C(=O)C([H])(N([H])C([H])([H])[H])C([H])([H])[H])C(C([H])([H])[H])(C([H])([H])[H])C([H])([H])[H])C([H])(C(=O)N([H])C3([H])c5c([H])c([H])c([H])c([H])c5C([H])([H])C([H])([H])C3([H])[H])C4([H])[H])C2([H])[H])nc1N([H])C(=O)N1C([H])([H])C([H])([H])C([H])([H])C([H])(n2nc(-c3c([H])c([H])c(Oc4c([H])c([H])c(F)c([H])c4F)c([H])c3[H])c(C(=O)N([H])[H])c2N([H])[H])C1([H])[H]

>  <smiles>  (38) 
[H]c1sc(C2(C(F)(F)F)N([H])C(=O)C([H])(C([H])([H])Oc3c([H])c([H])c4c(c3[H])C([H])([H])N(C(=O)C([H])(N([H])C(=O)C([H])(N([H])C([H])([H])[H])C([H])([H])[H])C(C([H])([H])[H])(C([H])([H])[H])C([H])([H])[H])C([H])(C(=O)N([H])C3([H])c5c([H])c([H])c([H])c([H])c5C([H])([H])C([H])([H])C3([H])[H])C4([H])[H])C2([H])[H])nc1N([H])C(=O)N1C([H])([H])C([H])([H])C([H])([H])C([H])(n2nc(-c3c([H])c([H])c(Oc4c([H])c([H])c(F)c([H])c4F)c([H])c3[H])c(C(=O)N([H])[H])c2N([H])[H])C1([H])[H]

$$$$
38:0:0
     RDKit          3D

 95103  0  0  1  0  0  0  0  0999 V2000
  -29.6990  -22.3000   20.3270 C   0  0  0  0  0  3  0  0  0  0  0  0
  -30.8870  -22.0250   21.2860 C   0  0  0  0  0  0  0  0  0  0  0  0
  -32.0020  -22.5270   21.1300 O   0  0  0  0  0  0  0  0  0  0  0  0
  -31.2220  -21.5510   23.7930 C   0  0  0  0  0  1  0  0  0  0  0  0
  -30.6200  -21.0770   22.4650 C   0  0  0  0  0  2  0  0  0  0  0  0
  -28.8370  -21.0520   20.2670 N   0  0  0  0  0  0  0  0  0  0  0  0
  -28.0030  -21.0960   20.8470 H   0  0  0  0  0  0  0  0  0  0  0  0
  -30.5220  -14.6030   19.9380 C   0  0  0  0  0  0  0  0  0  0  0  0
  -30.2790  -12.3270   18.9290 C   0  0  0  0  0  2  0  0  0  0  0  0
  -29.2660  -12.4370   17.7700 C   0  0  0  0  0  2  0  0  0  0  0  0
  -27.8250  -12.2560   18.2830 C   0  0  0  0  0  2  0  0  0  0  0  0
  -27.5350  -13.1160   19.5450 C   0  0  0  0  0  3  0  0  0  0  0  0
  -28.6630  -12.9920   20.5940 C   0  0  0  0  0  2  0  0  0  0  0  0
  -29.9230  -13.3580   19.9300 N   0  0  0  0  0  0  0  0  0  0  0  0
  -31.6450  -14.7450   19.4430 O   0  0  0  0  0  0  0  0  0  0  0  0
  -30.1380  -19.1550   19.0390 C   0  0  0  0  0  0  0  0  0  0  0  0
  -29.3250  -19.6970   20.0320 C   0  0  0  0  0  0  0  0  0  0  0  0
  -29.7850  -17.1280   20.1650 C   0  0  0  0  0  0  0  0  0  0  0  0
  -30.7080  -19.8880   17.8520 C   0  0  0  0  0  1  0  0  0  0  0  0
  -30.4070  -17.7550   19.1470 N   0  0  0  0  0  0  0  0  0  0  0  0
  -29.7740  -15.6630   20.4130 N   0  0  0  0  0  0  0  0  0  0  0  0
  -28.8300  -18.3420   21.0920 S   0  0  0  0  0  0  0  0  0  0  0  0
  -28.9890  -15.3570   20.9650 H   0  0  0  0  0  0  0  0  0  0  0  0
  -25.2090  -13.6960   20.4640 C   0  0  0  0  0  0  0  0  0  0  0  0
  -24.1690  -12.9140   20.8920 C   0  0  0  0  0  0  0  0  0  0  0  0
  -24.6180  -11.5650   20.7740 C   0  0  0  0  0  0  0  0  0  0  0  0
  -26.2280  -12.8220   20.1210 N   0  0  0  0  0  0  0  0  0  0  0  0
  -25.8810  -11.5320   20.3660 N   0  0  0  0  0  0  0  0  0  0  0  0
  -23.8990  -10.3000   20.9680 C   0  0  0  0  0  0  0  0  0  0  0  0
  -24.3610   -9.3240   21.8770 C   0  0  0  0  0  3  0  0  0  0  0  0
  -23.6450   -8.1220   22.0660 C   0  0  0  0  0  3  0  0  0  0  0  0
  -22.4490   -7.8890   21.3470 C   0  0  0  0  0  0  0  0  0  0  0  0
  -22.0060   -8.8510   20.4210 C   0  0  0  0  0  3  0  0  0  0  0  0
  -22.7220  -10.0450   20.2300 C   0  0  0  0  0  3  0  0  0  0  0  0
  -21.6970   -6.7400   21.4460 O   0  0  0  0  0  0  0  0  0  0  0  0
  -21.6460   -6.0130   22.6090 C   0  0  0  0  0  0  0  0  0  0  0  0
  -21.1850   -6.5750   23.8220 C   0  0  0  0  0  3  0  0  0  0  0  0
  -21.0840   -5.7700   24.9750 C   0  0  0  0  0  3  0  0  0  0  0  0
  -21.4320   -4.4050   24.9160 C   0  0  0  0  0  0  0  0  0  0  0  0
  -21.8860   -3.8470   23.7090 C   0  0  0  0  0  3  0  0  0  0  0  0
  -21.9910   -4.6490   22.5580 C   0  0  0  0  0  0  0  0  0  0  0  0
  -22.4050   -4.0980   21.3930 F   0  0  0  0  0  0  0  0  0  0  0  0
  -21.3280   -3.6330   26.0210 F   0  0  0  0  0  0  0  0  0  0  0  0
  -22.8020  -13.3850   21.2900 C   0  0  0  0  0  0  0  0  0  0  0  0
  -22.1390  -12.6590   22.1830 N   0  0  0  0  0  0  0  0  0  0  0  0
  -22.3320  -14.4310   20.8450 O   0  0  0  0  0  0  0  0  0  0  0  0
  -22.5390  -11.8130   22.5630 H   0  0  0  0  0  0  0  0  0  0  0  0
  -21.2190  -12.9440   22.4830 H   0  0  0  0  0  0  0  0  0  0  0  0
  -25.3680  -15.0730   20.3200 N   0  0  0  0  0  0  0  0  0  0  0  0
  -24.5920  -15.7110   20.4600 H   0  0  0  0  0  0  0  0  0  0  0  0
  -26.1690  -15.5160   19.8880 H   0  0  0  0  0  0  0  0  0  0  0  0
  -29.1060  -23.7480   20.8140 C   0  0  0  0  0  2  0  0  0  0  0  0
  -26.6810  -24.1110   20.4130 C   0  0  0  0  0  1  0  0  0  0  0  0
  -28.0690  -24.6980   20.0300 C   0  0  0  0  0  3  0  0  0  0  0  0
  -28.2310  -26.1930   20.2780 O   0  0  0  0  0  0  0  0  0  0  0  0
  -24.6420  -31.7580   23.2110 C   0  0  0  0  0  0  0  0  0  0  0  0
  -27.1790  -27.1340   20.1410 C   0  0  0  0  0  0  0  0  0  0  0  0
  -23.4300  -30.4020   21.5430 C   0  0  0  0  0  3  0  0  0  0  0  0
  -24.8660  -28.8430   20.1030 C   0  0  0  0  0  0  0  0  0  0  0  0
  -25.9820  -30.6500   21.4100 C   0  0  0  0  0  2  0  0  0  0  0  0
  -26.0370  -29.2790   20.7370 C   0  0  0  0  0  0  0  0  0  0  0  0
  -27.1910  -28.4330   20.7560 C   0  0  0  0  0  3  0  0  0  0  0  0
  -26.0160  -26.8090   19.4100 C   0  0  0  0  0  3  0  0  0  0  0  0
  -24.8620  -27.6170   19.4250 C   0  0  0  0  0  3  0  0  0  0  0  0
  -23.6460  -29.7420   20.1550 C   0  0  0  0  0  2  0  0  0  0  0  0
  -24.7010  -30.9600   22.1030 N   0  0  0  0  0  0  0  0  0  0  0  0
  -23.5590  -32.0490   23.7380 O   0  0  0  0  0  0  0  0  0  0  0  0
  -22.7450  -29.3860   22.4890 C   0  0  0  0  0  0  0  0  0  0  0  0
  -21.4160  -29.2320   22.3530 N   0  0  0  0  0  0  0  0  0  0  0  0
  -23.4050  -28.7430   23.3100 O   0  0  0  0  0  0  0  0  0  0  0  0
  -20.9400  -29.7910   21.6580 H   0  0  0  0  0  0  0  0  0  0  0  0
  -18.0160  -28.1000   22.8390 C   0  0  0  0  0  0  0  0  0  0  0  0
  -20.5780  -28.3000   23.1090 C   0  0  0  0  0  3  0  0  0  0  0  0
  -20.6530  -26.8770   22.5070 C   0  0  0  0  0  2  0  0  0  0  0  0
  -19.5420  -26.5920   21.4900 C   0  0  0  0  0  2  0  0  0  0  0  0
  -18.1650  -26.7610   22.1370 C   0  0  0  0  0  2  0  0  0  0  0  0
  -19.1510  -28.8310   23.2800 C   0  0  0  0  0  0  0  0  0  0  0  0
  -18.9620  -30.0880   23.8920 C   0  0  0  0  0  3  0  0  0  0  0  0
  -17.6670  -30.6110   24.0760 C   0  0  0  0  0  3  0  0  0  0  0  0
  -16.5470  -29.8770   23.6480 C   0  0  0  0  0  3  0  0  0  0  0  0
  -16.7220  -28.6240   23.0350 C   0  0  0  0  0  3  0  0  0  0  0  0
  -25.9320  -32.3610   23.8500 C   0  0  0  0  0  3  0  0  0  0  0  0
  -25.6510  -33.7660   24.1760 N   0  0  0  0  0  0  0  0  0  0  0  0
  -25.9950  -34.8130   23.4140 C   0  0  0  0  0  0  0  0  0  0  0  0
  -26.6540  -34.6960   22.3770 O   0  0  0  0  0  0  0  0  0  0  0  0
  -25.0830  -33.9360   24.9930 H   0  0  0  0  0  0  0  0  0  0  0  0
  -24.2890  -36.6290   23.0800 C   0  0  0  0  0  1  0  0  0  0  0  0
  -25.5350  -36.2080   23.8770 C   0  0  0  0  0  3  0  0  0  0  0  0
  -27.6810  -37.0710   24.6920 C   0  0  0  0  0  1  0  0  0  0  0  0
  -26.5790  -37.2480   23.7520 N   0  0  0  0  0  0  0  0  0  0  0  0
  -26.1780  -38.1710   23.8950 H   0  0  0  0  0  0  0  0  0  0  0  0
  -26.4160  -31.5860   25.1380 C   0  0  1  0  0  0  0  0  0  0  0  0
  -25.2980  -31.3720   26.1830 C   0  0  0  0  0  1  0  0  0  0  0  0
  -26.9870  -30.1980   24.7680 C   0  0  0  0  0  1  0  0  0  0  0  0
  -27.5690  -32.3630   25.8180 C   0  0  0  0  0  1  0  0  0  0  0  0
  1 52  1  0
  1  2  1  0
  2  5  1  0
  3  2  2  0
  5  4  1  0
  6  1  1  0
  6  7  1  0
  8 21  1  0
  9 14  1  0
 10 11  1  0
 10  9  1  0
 12 11  1  0
 12 27  1  0
 12 13  1  0
 14  8  1  0
 14 13  1  0
 15  8  2  0
 16 20  1  0
 16 17  2  0
 17  6  1  0
 17 22  1  0
 18 21  1  0
 18 22  1  0
 19 16  1  0
 20 18  2  0
 21 23  1  0
 24 25  2  0
 25 44  1  0
 26 25  1  0
 26 29  1  0
 27 28  1  0
 27 24  1  0
 28 26  2  0
 29 30  1  0
 30 31  2  0
 32 35  1  0
 32 31  1  0
 33 32  2  0
 34 33  1  0
 34 29  2  0
 35 36  1  0
 36 37  1  0
 37 38  2  0
 39 38  1  0
 39 43  1  0
 40 39  2  0
 41 36  2  0
 41 40  1  0
 42 41  1  0
 44 45  1  0
 45 48  1  0
 45 47  1  0
 46 44  2  0
 49 50  1  0
 49 24  1  0
 51 49  1  0
 54 55  1  0
 54 53  1  0
 54 52  1  0
 56 67  2  0
 57 55  1  0
 57 62  1  0
 58 66  1  0
 58 68  1  0
 59 65  1  0
 59 61  1  0
 60 66  1  0
 61 62  2  0
 61 60  1  0
 63 64  1  0
 63 57  2  0
 64 59  2  0
 65 58  1  0
 66 56  1  0
 68 70  2  0
 69 68  1  0
 71 69  1  0
 72 81  2  0
 72 77  1  0
 73 69  1  0
 73 77  1  0
 74 73  1  0
 75 76  1  0
 75 74  1  0
 76 72  1  0
 77 78  2  0
 78 79  1  0
 80 79  2  0
 81 80  1  0
 82 56  1  0
 82 83  1  0
 82 92  1  0
 83 86  1  0
 84 88  1  0
 84 83  1  0
 85 84  2  0
 88 87  1  0
 90 88  1  0
 90 91  1  0
 90 89  1  0
 92 95  1  1
 92 93  1  0
 94 92  1  0
M  ISO  4   8 100  21 100  54 101  55 101
M  END
>  <TORSDO>  (39) 
F 21

>  <SCORE>  (39) 
-13.002

>  <name>  (39) 
38

>  <ligand_id>  (39) 
38

>  <original_smiles>  (39) 
[H]c1c([H])c([H])c2c(c1[H])C([H])([H])C([H])([H])C([H])([H])C2([H])N([H])C(=O)C1([H])N(C(=O)C([H])(N([H])C(=O)C([H])(N([H])C([H])([H])[H])C([H])([H])[H])C(C([H])([H])[H])(C([H])([H])[H])C([H])([H])[H])C([H])([H])c2c([H])c(OC([H])(C([H])([H])[H])C([H])([H])C([H])(C(=O)C([H])([H])C([H])([H])[H])N([H])c3sc(N([H])C(=O)N4C([H])([H])C([H])([H])C([H])([H])C([H])(n5nc(-c6c([H])c([H])c(Oc7c([H])c([H])c(F)c([H])c7F)c([H])c6[H])c(C(=O)N([H])[H])c5N([H])[H])C4([H])[H])nc3C([H])([H])[H])c([H])c([H])c2C1([H])[H]

>  <smiles>  (39) 
[H]c1c([H])c([H])c2c(c1[H])C([H])([H])C([H])([H])C([H])([H])C2([H])N([H])C(=O)C1([H])N(C(=O)C([H])(N([H])C(=O)C([H])(N([H])C([H])([H])[H])C([H])([H])[H])C(C([H])([H])[H])(C([H])([H])[H])C([H])([H])[H])C([H])([H])c2c([H])c(OC([H])(C([H])([H])[H])C([H])([H])C([H])(C(=O)C([H])([H])C([H])([H])[H])N([H])c3sc(N([H])C(=O)N4C([H])([H])C([H])([H])C([H])([H])C([H])(n5nc(-c6c([H])c([H])c(Oc7c([H])c([H])c(F)c([H])c7F)c([H])c6[H])c(C(=O)N([H])[H])c5N([H])[H])C4([H])[H])nc3C([H])([H])[H])c([H])c([H])c2C1([H])[H]

$$$$
39:0:0
     RDKit          3D

 97105  0  0  1  0  0  0  0  0999 V2000
  -30.1930  -21.7770   21.3960 N   0  0  0  0  0  4  0  0  0  0  0  0
  -30.4920  -22.4690   20.7130 H   0  0  0  0  0  0  0  0  0  0  0  0
  -31.0190  -21.4400   21.8610 H   0  0  0  0  0  0  0  0  0  0  0  0
  -29.4560  -21.9980   23.7710 C   0  0  0  0  0  1  0  0  0  0  0  0
  -29.3360  -22.5470   22.3390 C   0  0  0  0  0  3  0  0  0  0  0  0
  -29.6470  -24.0670   22.2840 C   0  0  0  0  0  2  0  0  0  0  0  0
  -29.3030  -24.7050   20.9200 C   0  0  0  0  0  3  0  0  0  0  0  0
  -30.2920  -24.2510   20.0060 O   0  0  0  0  0  0  0  0  0  0  0  0
  -30.1430  -24.7070   19.1790 H   0  0  0  0  0  0  0  0  0  0  0  0
  -29.2520  -26.2560   20.9270 C   0  0  0  0  0  2  0  0  0  0  0  0
  -28.5440  -26.6580   19.7530 O   0  0  0  0  0  0  0  0  0  0  0  0
  -24.6520  -31.6670   23.0940 C   0  0  0  0  0  0  0  0  0  0  0  0
  -27.3640  -27.3460   19.9100 C   0  0  0  0  0  0  0  0  0  0  0  0
  -23.4560  -30.2710   21.4320 C   0  0  0  0  0  3  0  0  0  0  0  0
  -24.9290  -28.7800   19.9750 C   0  0  0  0  0  0  0  0  0  0  0  0
  -25.9700  -30.6820   21.2220 C   0  0  0  0  0  2  0  0  0  0  0  0
  -26.0780  -29.3180   20.5740 C   0  0  0  0  0  0  0  0  0  0  0  0
  -27.2960  -28.6030   20.5550 C   0  0  0  0  0  3  0  0  0  0  0  0
  -26.2040  -26.8190   19.3100 C   0  0  0  0  0  3  0  0  0  0  0  0
  -24.9840  -27.5220   19.3480 C   0  0  0  0  0  3  0  0  0  0  0  0
  -23.6700  -29.6150   20.0400 C   0  0  0  0  0  2  0  0  0  0  0  0
  -24.7110  -30.8880   21.9760 N   0  0  0  0  0  0  0  0  0  0  0  0
  -23.5710  -31.9040   23.6490 O   0  0  0  0  0  0  0  0  0  0  0  0
  -22.8310  -29.2230   22.3790 C   0  0  0  0  0  0  0  0  0  0  0  0
  -21.5090  -29.0170   22.2550 N   0  0  0  0  0  0  0  0  0  0  0  0
  -23.5320  -28.5970   23.1790 O   0  0  0  0  0  0  0  0  0  0  0  0
  -21.0050  -29.5800   21.5840 H   0  0  0  0  0  0  0  0  0  0  0  0
  -18.1610  -27.7430   22.7300 C   0  0  0  0  0  0  0  0  0  0  0  0
  -20.7120  -28.0480   23.0080 C   0  0  0  0  0  3  0  0  0  0  0  0
  -20.8450  -26.6290   22.4080 C   0  0  0  0  0  2  0  0  0  0  0  0
  -19.7490  -26.3010   21.3870 C   0  0  0  0  0  2  0  0  0  0  0  0
  -18.3650  -26.4080   22.0320 C   0  0  0  0  0  2  0  0  0  0  0  0
  -19.2630  -28.5200   23.1740 C   0  0  0  0  0  0  0  0  0  0  0  0
  -19.0190  -29.7700   23.7820 C   0  0  0  0  0  3  0  0  0  0  0  0
  -17.7060  -30.2430   23.9560 C   0  0  0  0  0  3  0  0  0  0  0  0
  -16.6170  -29.4620   23.5290 C   0  0  0  0  0  3  0  0  0  0  0  0
  -16.8450  -28.2150   22.9220 C   0  0  0  0  0  3  0  0  0  0  0  0
  -25.9310  -32.3030   23.7190 C   0  0  0  0  0  3  0  0  0  0  0  0
  -25.5990  -33.6830   24.0930 N   0  0  0  0  0  0  0  0  0  0  0  0
  -25.9140  -34.7640   23.3640 C   0  0  0  0  0  0  0  0  0  0  0  0
  -26.5870  -34.7030   22.3310 O   0  0  0  0  0  0  0  0  0  0  0  0
  -25.0060  -33.8050   24.8990 H   0  0  0  0  0  0  0  0  0  0  0  0
  -24.1670  -36.5420   23.0540 C   0  0  0  0  0  1  0  0  0  0  0  0
  -25.4070  -36.1300   23.8630 C   0  0  0  0  0  3  0  0  0  0  0  0
  -27.5190  -37.0180   24.7420 C   0  0  0  0  0  1  0  0  0  0  0  0
  -26.4260  -37.2010   23.7920 N   0  0  0  0  0  0  0  0  0  0  0  0
  -26.0060  -38.1110   23.9630 H   0  0  0  0  0  0  0  0  0  0  0  0
  -26.4810  -31.5030   24.9630 C   0  0  1  0  0  0  0  0  0  0  0  0
  -25.4090  -31.2140   26.0400 C   0  0  0  0  0  1  0  0  0  0  0  0
  -27.0870  -30.1550   24.5120 C   0  0  0  0  0  1  0  0  0  0  0  0
  -27.6270  -32.2990   25.6320 C   0  0  0  0  0  1  0  0  0  0  0  0
  -29.5210  -20.6840   20.6380 C   0  0  0  0  0  3  0  0  0  0  0  0
  -30.9450  -14.5120   20.1820 C   0  0  0  0  0  0  0  0  0  0  0  0
  -30.5680  -12.4120   18.9360 C   0  0  0  0  0  2  0  0  0  0  0  0
  -29.5880  -12.6730   17.7730 C   0  0  0  0  0  2  0  0  0  0  0  0
  -28.1260  -12.5320   18.2440 C   0  0  0  0  0  2  0  0  0  0  0  0
  -27.8420  -13.3230   19.5490 C   0  0  0  0  0  3  0  0  0  0  0  0
  -28.9300  -13.0460   20.6130 C   0  0  0  0  0  2  0  0  0  0  0  0
  -30.2460  -13.3540   20.0230 N   0  0  0  0  0  0  0  0  0  0  0  0
  -32.0170  -14.7140   19.6010 O   0  0  0  0  0  0  0  0  0  0  0  0
  -31.3940  -18.8860   20.3760 C   0  0  0  0  0  3  0  0  0  0  0  0
  -30.1550  -19.3140   20.7910 C   0  0  0  0  0  0  0  0  0  0  0  0
  -30.4970  -16.8550   20.9090 C   0  0  0  0  0  0  0  0  0  0  0  0
  -31.5850  -17.4990   20.4610 N   0  0  0  0  0  0  0  0  0  0  0  0
  -30.3630  -15.4350   20.9750 N   0  0  0  0  0  0  0  0  0  0  0  0
  -29.1970  -17.9550   21.3630 S   0  0  0  0  0  0  0  0  0  0  0  0
  -29.5440  -15.1060   21.4590 H   0  0  0  0  0  0  0  0  0  0  0  0
  -25.4640  -13.9230   20.3290 C   0  0  0  0  0  0  0  0  0  0  0  0
  -24.4060  -13.1490   20.7220 C   0  0  0  0  0  0  0  0  0  0  0  0
  -24.8620  -11.7960   20.6580 C   0  0  0  0  0  0  0  0  0  0  0  0
  -26.5010  -13.0450   20.0600 N   0  0  0  0  0  0  0  0  0  0  0  0
  -26.1430  -11.7590   20.3130 N   0  0  0  0  0  0  0  0  0  0  0  0
  -24.1390  -10.5320   20.8560 C   0  0  0  0  0  0  0  0  0  0  0  0
  -24.5270   -9.6080   21.8510 C   0  0  0  0  0  3  0  0  0  0  0  0
  -23.8050   -8.4080   22.0330 C   0  0  0  0  0  3  0  0  0  0  0  0
  -22.6820   -8.1250   21.2210 C   0  0  0  0  0  0  0  0  0  0  0  0
  -22.3140   -9.0370   20.2180 C   0  0  0  0  0  3  0  0  0  0  0  0
  -23.0350  -10.2280   20.0330 C   0  0  0  0  0  3  0  0  0  0  0  0
  -21.9370   -6.9720   21.3100 O   0  0  0  0  0  0  0  0  0  0  0  0
  -21.7440   -6.3310   22.5070 C   0  0  0  0  0  0  0  0  0  0  0  0
  -21.1310   -6.9730   23.6060 C   0  0  0  0  0  3  0  0  0  0  0  0
  -20.8880   -6.2550   24.7950 C   0  0  0  0  0  3  0  0  0  0  0  0
  -21.2470   -4.8970   24.8840 C   0  0  0  0  0  0  0  0  0  0  0  0
  -21.8500   -4.2540   23.7890 C   0  0  0  0  0  3  0  0  0  0  0  0
  -22.0950   -4.9690   22.6030 C   0  0  0  0  0  0  0  0  0  0  0  0
  -22.6580   -4.3400   21.5430 F   0  0  0  0  0  0  0  0  0  0  0  0
  -21.0060   -4.2050   26.0210 F   0  0  0  0  0  0  0  0  0  0  0  0
  -23.0190  -13.6240   21.0440 C   0  0  0  0  0  0  0  0  0  0  0  0
  -22.3180  -12.9200   21.9300 N   0  0  0  0  0  0  0  0  0  0  0  0
  -22.5650  -14.6530   20.5490 O   0  0  0  0  0  0  0  0  0  0  0  0
  -22.6990  -12.0860   22.3530 H   0  0  0  0  0  0  0  0  0  0  0  0
  -21.3890  -13.2190   22.1870 H   0  0  0  0  0  0  0  0  0  0  0  0
  -25.6270  -15.2950   20.1580 N   0  0  0  0  0  0  0  0  0  0  0  0
  -24.8610  -15.9490   20.2750 H   0  0  0  0  0  0  0  0  0  0  0  0
  -26.4600  -15.7260   19.7780 H   0  0  0  0  0  0  0  0  0  0  0  0
  -28.8900  -20.0010   18.1990 C   0  0  0  0  0  1  0  0  0  0  0  0
  -29.3310  -21.1160   19.1610 C   0  0  0  0  0  2  0  0  0  0  0  0
  1  3  1  0
  1  5  1  0
  2  1  1  0
  5  4  1  0
  6  5  1  0
  7 10  1  0
  7  6  1  0
  8  7  1  0
  9  8  1  0
 11 13  1  0
 11 10  1  0
 12 23  2  0
 13 18  1  0
 14 22  1  0
 14 24  1  0
 15 21  1  0
 15 17  1  0
 16 22  1  0
 17 16  1  0
 18 17  2  0
 19 20  1  0
 19 13  2  0
 20 15  2  0
 21 14  1  0
 22 12  1  0
 24 26  2  0
 25 24  1  0
 27 25  1  0
 28 37  2  0
 28 33  1  0
 29 25  1  0
 29 33  1  0
 30 29  1  0
 31 32  1  0
 31 30  1  0
 32 28  1  0
 33 34  2  0
 34 35  1  0
 36 35  2  0
 37 36  1  0
 38 12  1  0
 38 39  1  0
 38 48  1  0
 39 42  1  0
 40 44  1  0
 40 39  1  0
 41 40  2  0
 44 43  1  0
 46 44  1  0
 46 47  1  0
 46 45  1  0
 48 51  1  1
 48 49  1  0
 50 48  1  0
 52 97  1  0
 52 62  1  0
 52  1  1  0
 53 65  1  0
 54 59  1  0
 55 56  1  0
 55 54  1  0
 57 56  1  0
 57 71  1  0
 57 58  1  0
 59 53  1  0
 59 58  1  0
 60 53  2  0
 61 64  1  0
 61 62  2  0
 62 66  1  0
 63 65  1  0
 63 66  1  0
 64 63  2  0
 65 67  1  0
 68 69  2  0
 69 88  1  0
 70 69  1  0
 70 73  1  0
 71 72  1  0
 71 68  1  0
 72 70  2  0
 73 74  1  0
 74 75  2  0
 76 79  1  0
 76 75  1  0
 77 76  2  0
 78 77  1  0
 78 73  2  0
 79 80  1  0
 80 85  2  0
 80 81  1  0
 81 82  2  0
 82 83  1  0
 83 87  1  0
 84 83  2  0
 85 84  1  0
 86 85  1  0
 88 89  1  0
 89 92  1  0
 89 91  1  0
 90 88  2  0
 93 94  1  0
 93 68  1  0
 95 93  1  0
 96 97  1  0
M  ISO  4  10 101  11 101  53 100  65 100
M  END
>  <TORSDO>  (40) 
F 23

>  <SCORE>  (40) 
-12.082

>  <name>  (40) 
39

>  <ligand_id>  (40) 
39

>  <original_smiles>  (40) 
[H]OC([H])(C([H])([H])Oc1c([H])c([H])c2c(c1[H])C([H])([H])N(C(=O)C([H])(N([H])C(=O)C([H])(N([H])C([H])([H])[H])C([H])([H])[H])C(C([H])([H])[H])(C([H])([H])[H])C([H])([H])[H])C([H])(C(=O)N([H])C1([H])c3c([H])c([H])c([H])c([H])c3C([H])([H])C([H])([H])C1([H])[H])C2([H])[H])C([H])([H])C([H])(C([H])([H])[H])[N+]([H])([H])C([H])(c1sc(N([H])C(=O)N2C([H])([H])C([H])([H])C([H])([H])C([H])(n3nc(-c4c([H])c([H])c(Oc5c([H])c([H])c(F)c([H])c5F)c([H])c4[H])c(C(=O)N([H])[H])c3N([H])[H])C2([H])[H])nc1[H])C([H])([H])C([H])([H])[H]

>  <smiles>  (40) 
[H]OC([H])(C([H])([H])Oc1c([H])c([H])c2c(c1[H])C([H])([H])N(C(=O)C([H])(N([H])C(=O)C([H])(N([H])C([H])([H])[H])C([H])([H])[H])C(C([H])([H])[H])(C([H])([H])[H])C([H])([H])[H])C([H])(C(=O)N([H])C1([H])c3c([H])c([H])c([H])c([H])c3C([H])([H])C([H])([H])C1([H])[H])C2([H])[H])C([H])([H])C([H])(C([H])([H])[H])[N+]([H])([H])C([H])(c1sc(N([H])C(=O)N2C([H])([H])C([H])([H])C([H])([H])C([H])(n3nc(-c4c([H])c([H])c(Oc5c([H])c([H])c(F)c([H])c5F)c([H])c4[H])c(C(=O)N([H])[H])c3N([H])[H])C2([H])[H])nc1[H])C([H])([H])C([H])([H])[H]

$$$$
40:0:0
     RDKit          3D

 93101  0  0  1  0  0  0  0  0999 V2000
  -29.1060  -17.8550   20.3960 C   0  0  0  0  0  3  0  0  0  0  0  0
  -30.2260  -17.7230   21.1910 C   0  0  0  0  0  0  0  0  0  0  0  0
  -29.2510  -19.9740   21.1750 C   0  0  0  0  0  0  0  0  0  0  0  0
  -29.2030  -22.3410   20.6440 C   0  0  0  0  0  0  0  0  0  0  0  0
  -28.5510  -19.1440   20.3950 N   0  0  0  0  0  0  0  0  0  0  0  0
  -28.8720  -21.3050   21.4240 N   0  0  0  0  0  0  0  0  0  0  0  0
  -29.2960  -22.2740   19.4150 O   0  0  0  0  0  0  0  0  0  0  0  0
  -30.6250  -19.2300   21.9710 S   0  0  0  0  0  0  0  0  0  0  0  0
  -28.7990  -21.5390   22.4030 H   0  0  0  0  0  0  0  0  0  0  0  0
  -30.7430  -23.5370   22.2060 C   0  0  0  0  0  1  0  0  0  0  0  0
  -29.4430  -23.6650   21.3900 C   0  0  0  0  0  3  0  0  0  0  0  0
  -29.5070  -24.9230   20.4870 C   0  0  0  0  0  2  0  0  0  0  0  0
  -28.1560  -25.3900   19.9290 C   0  0  0  0  0  2  0  0  0  0  0  0
  -28.2660  -26.7720   19.5780 O   0  0  0  0  0  0  0  0  0  0  0  0
  -24.5080  -31.6890   23.0560 C   0  0  0  0  0  0  0  0  0  0  0  0
  -27.0900  -27.4800   19.6390 C   0  0  0  0  0  0  0  0  0  0  0  0
  -23.2600  -30.3660   21.3800 C   0  0  0  0  0  3  0  0  0  0  0  0
  -24.6790  -28.9340   19.8190 C   0  0  0  0  0  0  0  0  0  0  0  0
  -25.7710  -30.7780   21.1110 C   0  0  0  0  0  2  0  0  0  0  0  0
  -25.8510  -29.4480   20.3890 C   0  0  0  0  0  0  0  0  0  0  0  0
  -27.0630  -28.7310   20.2890 C   0  0  0  0  0  3  0  0  0  0  0  0
  -25.9010  -26.9730   19.0670 C   0  0  0  0  0  3  0  0  0  0  0  0
  -24.6980  -27.6960   19.1550 C   0  0  0  0  0  3  0  0  0  0  0  0
  -23.4250  -29.7660   19.9580 C   0  0  0  0  0  2  0  0  0  0  0  0
  -24.5340  -30.9540   21.9070 N   0  0  0  0  0  0  0  0  0  0  0  0
  -23.4430  -31.9160   23.6470 O   0  0  0  0  0  0  0  0  0  0  0  0
  -22.6570  -29.2830   22.3020 C   0  0  0  0  0  0  0  0  0  0  0  0
  -21.3350  -29.0710   22.1910 N   0  0  0  0  0  0  0  0  0  0  0  0
  -23.3730  -28.6360   23.0710 O   0  0  0  0  0  0  0  0  0  0  0  0
  -20.8160  -29.6490   21.5450 H   0  0  0  0  0  0  0  0  0  0  0  0
  -18.0080  -27.7520   22.6760 C   0  0  0  0  0  0  0  0  0  0  0  0
  -20.5590  -28.0780   22.9320 C   0  0  0  0  0  3  0  0  0  0  0  0
  -20.6980  -26.6760   22.2970 C   0  0  0  0  0  2  0  0  0  0  0  0
  -19.5950  -26.3600   21.2810 C   0  0  0  0  0  2  0  0  0  0  0  0
  -18.2170  -26.4380   21.9440 C   0  0  0  0  0  2  0  0  0  0  0  0
  -19.1070  -28.5300   23.1260 C   0  0  0  0  0  0  0  0  0  0  0  0
  -18.8570  -29.7620   23.7690 C   0  0  0  0  0  3  0  0  0  0  0  0
  -17.5400  -30.2170   23.9650 C   0  0  0  0  0  3  0  0  0  0  0  0
  -16.4560  -29.4360   23.5310 C   0  0  0  0  0  3  0  0  0  0  0  0
  -16.6900  -28.2050   22.8930 C   0  0  0  0  0  3  0  0  0  0  0  0
  -25.8080  -32.3010   23.6650 C   0  0  0  0  0  3  0  0  0  0  0  0
  -26.3660  -31.4830   24.8930 C   0  0  1  0  0  0  0  0  0  0  0  0
  -25.3070  -31.2010   25.9860 C   0  0  0  0  0  1  0  0  0  0  0  0
  -26.9380  -30.1220   24.4290 C   0  0  0  0  0  1  0  0  0  0  0  0
  -27.5380  -32.2530   25.5480 C   0  0  0  0  0  1  0  0  0  0  0  0
  -25.5050  -33.6830   24.0570 N   0  0  0  0  0  0  0  0  0  0  0  0
  -25.8240  -34.7650   23.3350 C   0  0  0  0  0  0  0  0  0  0  0  0
  -26.4790  -34.7040   22.2910 O   0  0  0  0  0  0  0  0  0  0  0  0
  -24.9210  -33.8060   24.8720 H   0  0  0  0  0  0  0  0  0  0  0  0
  -24.0970  -36.5740   23.0680 C   0  0  0  0  0  1  0  0  0  0  0  0
  -25.3420  -36.1330   23.8550 C   0  0  0  0  0  3  0  0  0  0  0  0
  -27.4770  -36.9820   24.7210 C   0  0  0  0  0  1  0  0  0  0  0  0
  -26.3760  -37.1880   23.7820 N   0  0  0  0  0  0  0  0  0  0  0  0
  -25.9710  -38.1020   23.9660 H   0  0  0  0  0  0  0  0  0  0  0  0
  -31.0820  -16.5200   21.4580 C   0  0  0  0  0  2  0  0  0  0  0  0
  -30.9650  -14.4210   20.0970 C   0  0  0  0  0  0  0  0  0  0  0  0
  -30.5730  -12.2830   18.9280 C   0  0  0  0  0  2  0  0  0  0  0  0
  -29.5560  -12.4580   17.7830 C   0  0  0  0  0  2  0  0  0  0  0  0
  -28.1090  -12.3320   18.3040 C   0  0  0  0  0  2  0  0  0  0  0  0
  -27.8510  -13.2050   19.5600 C   0  0  0  0  0  3  0  0  0  0  0  0
  -28.9600  -12.9790   20.6070 C   0  0  0  0  0  2  0  0  0  0  0  0
  -30.2600  -13.2680   19.9700 N   0  0  0  0  0  0  0  0  0  0  0  0
  -31.9640  -14.6870   19.4200 O   0  0  0  0  0  0  0  0  0  0  0  0
  -30.4910  -15.2570   21.0300 N   0  0  0  0  0  0  0  0  0  0  0  0
  -29.6820  -14.9370   21.5400 H   0  0  0  0  0  0  0  0  0  0  0  0
  -25.5280  -13.8640   20.4610 C   0  0  0  0  0  0  0  0  0  0  0  0
  -24.4640  -13.1120   20.8770 C   0  0  0  0  0  0  0  0  0  0  0  0
  -24.8740  -11.7480   20.7580 C   0  0  0  0  0  0  0  0  0  0  0  0
  -26.5240  -12.9610   20.1190 N   0  0  0  0  0  0  0  0  0  0  0  0
  -26.1350  -11.6810   20.3500 N   0  0  0  0  0  0  0  0  0  0  0  0
  -24.1210  -10.5020   20.9500 C   0  0  0  0  0  0  0  0  0  0  0  0
  -24.5570   -9.5070   21.8520 C   0  0  0  0  0  3  0  0  0  0  0  0
  -23.8050   -8.3270   22.0330 C   0  0  0  0  0  3  0  0  0  0  0  0
  -22.6030   -8.1340   21.3110 C   0  0  0  0  0  0  0  0  0  0  0  0
  -22.1870   -9.1170   20.3960 C   0  0  0  0  0  3  0  0  0  0  0  0
  -22.9390  -10.2890   20.2130 C   0  0  0  0  0  3  0  0  0  0  0  0
  -21.8240   -7.0040   21.3990 O   0  0  0  0  0  0  0  0  0  0  0  0
  -21.7400   -6.2780   22.5590 C   0  0  0  0  0  0  0  0  0  0  0  0
  -21.2710   -6.8470   23.7640 C   0  0  0  0  0  3  0  0  0  0  0  0
  -21.1330   -6.0470   24.9140 C   0  0  0  0  0  3  0  0  0  0  0  0
  -21.4560   -4.6780   24.8640 C   0  0  0  0  0  0  0  0  0  0  0  0
  -21.9210   -4.1080   23.6650 C   0  0  0  0  0  3  0  0  0  0  0  0
  -22.0590   -4.9060   22.5160 C   0  0  0  0  0  0  0  0  0  0  0  0
  -22.4850   -4.3470   21.3570 F   0  0  0  0  0  0  0  0  0  0  0  0
  -21.3190   -3.9070   25.9680 F   0  0  0  0  0  0  0  0  0  0  0  0
  -23.1070  -13.6210   21.2730 C   0  0  0  0  0  0  0  0  0  0  0  0
  -22.4250  -12.9150   22.1680 N   0  0  0  0  0  0  0  0  0  0  0  0
  -22.6670  -14.6790   20.8260 O   0  0  0  0  0  0  0  0  0  0  0  0
  -22.7970  -12.0620   22.5570 H   0  0  0  0  0  0  0  0  0  0  0  0
  -21.5170  -13.2390   22.4750 H   0  0  0  0  0  0  0  0  0  0  0  0
  -25.7290  -15.2360   20.3280 N   0  0  0  0  0  0  0  0  0  0  0  0
  -24.9960  -15.9090   20.5210 H   0  0  0  0  0  0  0  0  0  0  0  0
  -26.5640  -15.6590   19.9440 H   0  0  0  0  0  0  0  0  0  0  0  0
  1  2  2  0
  2 55  1  0
  2  8  1  0
  3  6  1  0
  3  8  1  0
  4 11  1  0
  4  6  1  0
  5  1  1  0
  5  3  2  0
  6  9  1  0
  7  4  2  0
 11 10  1  0
 12 11  1  0
 13 12  1  0
 14 16  1  0
 14 13  1  0
 15 26  2  0
 16 21  1  0
 17 25  1  0
 17 27  1  0
 18 24  1  0
 18 20  1  0
 19 25  1  0
 20 19  1  0
 21 20  2  0
 22 23  1  0
 22 16  2  0
 23 18  2  0
 24 17  1  0
 25 15  1  0
 27 29  2  0
 28 27  1  0
 30 28  1  0
 31 40  2  0
 31 36  1  0
 32 28  1  0
 32 36  1  0
 33 32  1  0
 34 35  1  0
 34 33  1  0
 35 31  1  0
 36 37  2  0
 37 38  1  0
 39 38  2  0
 40 39  1  0
 41 15  1  0
 41 46  1  0
 41 42  1  0
 42 45  1  1
 42 43  1  0
 44 42  1  0
 46 49  1  0
 47 51  1  0
 47 46  1  0
 48 47  2  0
 51 50  1  0
 53 51  1  0
 53 54  1  0
 53 52  1  0
 56 64  1  0
 57 62  1  0
 58 59  1  0
 58 57  1  0
 60 59  1  0
 60 69  1  0
 60 61  1  0
 62 56  1  0
 62 61  1  0
 63 56  2  0
 64 55  1  0
 64 65  1  0
 66 67  2  0
 67 86  1  0
 68 67  1  0
 68 71  1  0
 69 70  1  0
 69 66  1  0
 70 68  2  0
 71 72  1  0
 72 73  2  0
 74 77  1  0
 74 73  1  0
 75 74  2  0
 76 75  1  0
 76 71  2  0
 77 78  1  0
 78 79  1  0
 79 80  2  0
 81 80  1  0
 81 85  1  0
 82 81  2  0
 83 78  2  0
 83 82  1  0
 84 83  1  0
 86 87  1  0
 87 90  1  0
 87 89  1  0
 88 86  2  0
 91 66  1  0
 91 92  1  0
 93 91  1  0
M  ISO  4  13 101  14 101  56 100  64 100
M  END
>  <TORSDO>  (41) 
F 20

>  <SCORE>  (41) 
-12.992

>  <name>  (41) 
40

>  <ligand_id>  (41) 
40

>  <original_smiles>  (41) 
[H]c1nc(N([H])C(=O)C([H])(C([H])([H])[H])C([H])([H])C([H])([H])Oc2c([H])c([H])c3c(c2[H])C([H])([H])N(C(=O)C([H])(N([H])C(=O)C([H])(N([H])C([H])([H])[H])C([H])([H])[H])C(C([H])([H])[H])(C([H])([H])[H])C([H])([H])[H])C([H])(C(=O)N([H])C2([H])c4c([H])c([H])c([H])c([H])c4C([H])([H])C([H])([H])C2([H])[H])C3([H])[H])sc1C([H])([H])N([H])C(=O)N1C([H])([H])C([H])([H])C([H])([H])C([H])(n2nc(-c3c([H])c([H])c(Oc4c([H])c([H])c(F)c([H])c4F)c([H])c3[H])c(C(=O)N([H])[H])c2N([H])[H])C1([H])[H]

>  <smiles>  (41) 
[H]c1nc(N([H])C(=O)C([H])(C([H])([H])[H])C([H])([H])C([H])([H])Oc2c([H])c([H])c3c(c2[H])C([H])([H])N(C(=O)C([H])(N([H])C(=O)C([H])(N([H])C([H])([H])[H])C([H])([H])[H])C(C([H])([H])[H])(C([H])([H])[H])C([H])([H])[H])C([H])(C(=O)N([H])C2([H])c4c([H])c([H])c([H])c([H])c4C([H])([H])C([H])([H])C2([H])[H])C3([H])[H])sc1C([H])([H])N([H])C(=O)N1C([H])([H])C([H])([H])C([H])([H])C([H])(n2nc(-c3c([H])c([H])c(Oc4c([H])c([H])c(F)c([H])c4F)c([H])c3[H])c(C(=O)N([H])[H])c2N([H])[H])C1([H])[H]

$$$$
41:0:0
     RDKit          3D

 93101  0  0  1  0  0  0  0  0999 V2000
  -29.9280  -18.7830   19.9640 C   0  0  0  0  0  0  0  0  0  0  0  0
  -28.6230  -18.8800   20.4120 C   0  0  0  0  0  0  0  0  0  0  0  0
  -29.6090  -21.1660   19.9930 C   0  0  0  0  0  0  0  0  0  0  0  0
  -30.4400  -20.1140   19.7130 N   0  0  0  0  0  0  0  0  0  0  0  0
  -29.8820  -22.5790   19.8370 N   0  0  0  0  0  0  0  0  0  0  0  0
  -28.0650  -20.5530   20.5810 S   0  0  0  0  0  0  0  0  0  0  0  0
  -30.7480  -22.7000   19.3250 H   0  0  0  0  0  0  0  0  0  0  0  0
  -27.7510  -17.8540   20.7680 N   0  0  0  0  0  0  0  0  0  0  0  0
  -28.1090  -16.9690   21.1130 H   0  0  0  0  0  0  0  0  0  0  0  0
  -26.8620  -18.0820   21.2020 H   0  0  0  0  0  0  0  0  0  0  0  0
  -30.8170  -17.4790   19.7870 C   0  0  0  0  0  2  0  0  0  0  0  0
  -31.0760  -14.8970   19.9530 C   0  0  0  0  0  0  0  0  0  0  0  0
  -30.8210  -12.5900   19.0360 C   0  0  0  0  0  2  0  0  0  0  0  0
  -29.8590  -12.6270   17.8280 C   0  0  0  0  0  2  0  0  0  0  0  0
  -28.4010  -12.4720   18.3000 C   0  0  0  0  0  2  0  0  0  0  0  0
  -28.0550  -13.4050   19.4920 C   0  0  0  0  0  3  0  0  0  0  0  0
  -29.1420  -13.3650   20.5900 C   0  0  0  0  0  2  0  0  0  0  0  0
  -30.4250  -13.6830   19.9540 N   0  0  0  0  0  0  0  0  0  0  0  0
  -32.2500  -14.9590   19.5820 O   0  0  0  0  0  0  0  0  0  0  0  0
  -30.3520  -16.0630   20.1350 N   0  0  0  0  0  0  0  0  0  0  0  0
  -29.3850  -15.9650   20.4040 H   0  0  0  0  0  0  0  0  0  0  0  0
  -25.6960  -14.0220   20.2820 C   0  0  0  0  0  0  0  0  0  0  0  0
  -24.6330  -13.2600   20.6870 C   0  0  0  0  0  0  0  0  0  0  0  0
  -25.0810  -11.9040   20.6520 C   0  0  0  0  0  0  0  0  0  0  0  0
  -26.7230  -13.1310   20.0230 N   0  0  0  0  0  0  0  0  0  0  0  0
  -26.3630  -11.8520   20.3090 N   0  0  0  0  0  0  0  0  0  0  0  0
  -24.3470  -10.6520   20.8710 C   0  0  0  0  0  0  0  0  0  0  0  0
  -24.7580   -9.7130   21.8420 C   0  0  0  0  0  3  0  0  0  0  0  0
  -24.0240   -8.5240   22.0450 C   0  0  0  0  0  3  0  0  0  0  0  0
  -22.8650   -8.2650   21.2770 C   0  0  0  0  0  0  0  0  0  0  0  0
  -22.4710   -9.1930   20.2950 C   0  0  0  0  0  3  0  0  0  0  0  0
  -23.2060  -10.3720   20.0900 C   0  0  0  0  0  3  0  0  0  0  0  0
  -22.1040   -7.1270   21.3880 O   0  0  0  0  0  0  0  0  0  0  0  0
  -21.9840   -6.4540   22.5780 C   0  0  0  0  0  0  0  0  0  0  0  0
  -21.4600   -7.0750   23.7340 C   0  0  0  0  0  3  0  0  0  0  0  0
  -21.2890   -6.3280   24.9160 C   0  0  0  0  0  3  0  0  0  0  0  0
  -21.6300   -4.9630   24.9440 C   0  0  0  0  0  0  0  0  0  0  0  0
  -22.1450   -4.3420   23.7920 C   0  0  0  0  0  3  0  0  0  0  0  0
  -22.3180   -5.0860   22.6120 C   0  0  0  0  0  0  0  0  0  0  0  0
  -22.7950   -4.4790   21.4990 F   0  0  0  0  0  0  0  0  0  0  0  0
  -21.4580   -4.2420   26.0770 F   0  0  0  0  0  0  0  0  0  0  0  0
  -23.2500  -13.7540   20.9950 C   0  0  0  0  0  0  0  0  0  0  0  0
  -22.5430  -13.0770   21.8920 N   0  0  0  0  0  0  0  0  0  0  0  0
  -22.8050  -14.7750   20.4740 O   0  0  0  0  0  0  0  0  0  0  0  0
  -22.9150  -12.2510   22.3370 H   0  0  0  0  0  0  0  0  0  0  0  0
  -21.6150  -13.3920   22.1420 H   0  0  0  0  0  0  0  0  0  0  0  0
  -25.8640  -15.3890   20.0890 N   0  0  0  0  0  0  0  0  0  0  0  0
  -25.1090  -16.0490   20.2320 H   0  0  0  0  0  0  0  0  0  0  0  0
  -26.7200  -15.8320   19.7790 H   0  0  0  0  0  0  0  0  0  0  0  0
  -29.4810  -23.9040   20.4680 C   0  0  0  0  0  2  0  0  0  0  0  0
  -29.6150  -25.2010   18.2160 C   0  0  0  0  0  1  0  0  0  0  0  0
  -28.8800  -25.1110   19.5620 C   0  0  0  0  0  3  0  0  0  0  0  0
  -28.8560  -26.5240   20.1000 O   0  0  0  0  0  0  0  0  0  0  0  0
  -24.7630  -31.6850   23.1520 C   0  0  0  0  0  0  0  0  0  0  0  0
  -27.7190  -27.3670   19.9960 C   0  0  0  0  0  0  0  0  0  0  0  0
  -23.7080  -30.3280   21.3820 C   0  0  0  0  0  3  0  0  0  0  0  0
  -25.2930  -28.9190   19.9490 C   0  0  0  0  0  0  0  0  0  0  0  0
  -26.2410  -30.7500   21.3510 C   0  0  0  0  0  2  0  0  0  0  0  0
  -26.4120  -29.4100   20.6340 C   0  0  0  0  0  0  0  0  0  0  0  0
  -27.6230  -28.6430   20.6530 C   0  0  0  0  0  3  0  0  0  0  0  0
  -26.5770  -26.9610   19.2670 C   0  0  0  0  0  3  0  0  0  0  0  0
  -25.3820  -27.7040   19.2550 C   0  0  0  0  0  3  0  0  0  0  0  0
  -24.0210  -29.7410   19.9800 C   0  0  0  0  0  2  0  0  0  0  0  0
  -24.9200  -30.9370   22.0190 N   0  0  0  0  0  0  0  0  0  0  0  0
  -23.6430  -31.8880   23.6440 O   0  0  0  0  0  0  0  0  0  0  0  0
  -23.0420  -29.2360   22.2530 C   0  0  0  0  0  0  0  0  0  0  0  0
  -21.7220  -29.0440   22.0840 N   0  0  0  0  0  0  0  0  0  0  0  0
  -23.7140  -28.5670   23.0410 O   0  0  0  0  0  0  0  0  0  0  0  0
  -21.2360  -29.6390   21.4280 H   0  0  0  0  0  0  0  0  0  0  0  0
  -18.3490  -27.7890   22.4710 C   0  0  0  0  0  0  0  0  0  0  0  0
  -20.9070  -28.0400   22.7690 C   0  0  0  0  0  3  0  0  0  0  0  0
  -21.0190  -26.6640   22.0730 C   0  0  0  0  0  2  0  0  0  0  0  0
  -19.9210  -26.4230   21.0310 C   0  0  0  0  0  2  0  0  0  0  0  0
  -18.5360  -26.5050   21.6810 C   0  0  0  0  0  2  0  0  0  0  0  0
  -19.4630  -28.5170   22.9690 C   0  0  0  0  0  0  0  0  0  0  0  0
  -19.2350  -29.7220   23.6680 C   0  0  0  0  0  3  0  0  0  0  0  0
  -17.9280  -30.2000   23.8740 C   0  0  0  0  0  3  0  0  0  0  0  0
  -16.8280  -29.4680   23.3910 C   0  0  0  0  0  3  0  0  0  0  0  0
  -17.0400  -28.2640   22.6960 C   0  0  0  0  0  3  0  0  0  0  0  0
  -25.9820  -32.3390   23.8710 C   0  0  0  0  0  3  0  0  0  0  0  0
  -26.4530  -31.5390   25.1470 C   0  0  1  0  0  0  0  0  0  0  0  0
  -25.3110  -31.2360   26.1470 C   0  0  0  0  0  1  0  0  0  0  0  0
  -27.0940  -30.1910   24.7440 C   0  0  0  0  0  1  0  0  0  0  0  0
  -27.5450  -32.3390   25.8950 C   0  0  0  0  0  1  0  0  0  0  0  0
  -25.6020  -33.7120   24.2370 N   0  0  0  0  0  0  0  0  0  0  0  0
  -25.9480  -34.8080   23.5480 C   0  0  0  0  0  0  0  0  0  0  0  0
  -26.6900  -34.7720   22.5620 O   0  0  0  0  0  0  0  0  0  0  0  0
  -24.9510  -33.8110   25.0020 H   0  0  0  0  0  0  0  0  0  0  0  0
  -24.1820  -36.5560   23.1550 C   0  0  0  0  0  1  0  0  0  0  0  0
  -25.3830  -36.1590   24.0290 C   0  0  0  0  0  3  0  0  0  0  0  0
  -27.4200  -37.0840   25.0400 C   0  0  0  0  0  1  0  0  0  0  0  0
  -26.3820  -37.2500   24.0260 N   0  0  0  0  0  0  0  0  0  0  0  0
  -25.9340  -38.1500   24.1730 H   0  0  0  0  0  0  0  0  0  0  0  0
  1  2  2  0
  2  6  1  0
  2  8  1  0
  3  6  1  0
  4  1  1  0
  4  3  2  0
  5  3  1  0
  5 50  1  0
  7  5  1  0
  8  9  1  0
  8 10  1  0
 11  1  1  0
 11 20  1  0
 12 18  1  0
 12 20  1  0
 13 18  1  0
 14 15  1  0
 14 13  1  0
 16 15  1  0
 16 25  1  0
 16 17  1  0
 18 17  1  0
 19 12  2  0
 20 21  1  0
 22 23  2  0
 23 42  1  0
 24 23  1  0
 24 27  1  0
 25 22  1  0
 25 26  1  0
 26 24  2  0
 27 28  1  0
 28 29  2  0
 30 33  1  0
 30 29  1  0
 31 30  2  0
 32 31  1  0
 32 27  2  0
 33 34  1  0
 34 39  2  0
 34 35  1  0
 35 36  2  0
 36 37  1  0
 37 41  1  0
 38 37  2  0
 39 38  1  0
 40 39  1  0
 42 43  1  0
 43 46  1  0
 43 45  1  0
 44 42  2  0
 47 48  1  0
 47 22  1  0
 49 47  1  0
 52 51  1  0
 52 53  1  0
 52 50  1  0
 54 65  2  0
 55 53  1  0
 55 60  1  0
 56 64  1  0
 56 66  1  0
 57 63  1  0
 57 59  1  0
 58 64  1  0
 59 60  2  0
 59 58  1  0
 61 55  2  0
 62 61  1  0
 62 57  2  0
 63 56  1  0
 64 54  1  0
 66 68  2  0
 67 66  1  0
 69 67  1  0
 70 79  2  0
 70 75  1  0
 71 67  1  0
 71 75  1  0
 72 71  1  0
 73 74  1  0
 73 72  1  0
 74 70  1  0
 75 76  2  0
 76 77  1  0
 78 77  2  0
 79 78  1  0
 80 54  1  0
 80 85  1  0
 80 81  1  0
 81 84  1  1
 81 82  1  0
 83 81  1  0
 85 88  1  0
 86 90  1  0
 86 85  1  0
 87 86  2  0
 90 89  1  0
 92 90  1  0
 92 93  1  0
 92 91  1  0
M  ISO  4  12 100  20 100  52 101  53 101
M  END
>  <TORSDO>  (42) 
F 20

>  <SCORE>  (42) 
-12.874

>  <name>  (42) 
41

>  <ligand_id>  (42) 
41

>  <original_smiles>  (42) 
[H]c1c([H])c([H])c2c(c1[H])C([H])([H])C([H])([H])C([H])([H])C2([H])N([H])C(=O)C1([H])N(C(=O)C([H])(N([H])C(=O)C([H])(N([H])C([H])([H])[H])C([H])([H])[H])C(C([H])([H])[H])(C([H])([H])[H])C([H])([H])[H])C([H])([H])c2c([H])c(OC([H])(C([H])([H])[H])C([H])([H])N([H])c3nc(C([H])([H])N([H])C(=O)N4C([H])([H])C([H])([H])C([H])([H])C([H])(n5nc(-c6c([H])c([H])c(Oc7c([H])c([H])c(F)c([H])c7F)c([H])c6[H])c(C(=O)N([H])[H])c5N([H])[H])C4([H])[H])c(N([H])[H])s3)c([H])c([H])c2C1([H])[H]

>  <smiles>  (42) 
[H]c1c([H])c([H])c2c(c1[H])C([H])([H])C([H])([H])C([H])([H])C2([H])N([H])C(=O)C1([H])N(C(=O)C([H])(N([H])C(=O)C([H])(N([H])C([H])([H])[H])C([H])([H])[H])C(C([H])([H])[H])(C([H])([H])[H])C([H])([H])[H])C([H])([H])c2c([H])c(OC([H])(C([H])([H])[H])C([H])([H])N([H])c3nc(C([H])([H])N([H])C(=O)N4C([H])([H])C([H])([H])C([H])([H])C([H])(n5nc(-c6c([H])c([H])c(Oc7c([H])c([H])c(F)c([H])c7F)c([H])c6[H])c(C(=O)N([H])[H])c5N([H])[H])C4([H])[H])c(N([H])[H])s3)c([H])c([H])c2C1([H])[H]

$$$$
42:0:0
     RDKit          3D

 98106  0  0  1  0  0  0  0  0999 V2000
  -29.4180  -20.8130   20.5130 C   0  0  0  0  0  3  0  0  0  0  0  0
  -30.4200  -14.5740   20.0780 C   0  0  0  0  0  0  0  0  0  0  0  0
  -30.2000  -12.3210   19.0580 C   0  0  0  0  0  2  0  0  0  0  0  0
  -29.1810  -12.4320   17.9010 C   0  0  0  0  0  2  0  0  0  0  0  0
  -27.7400  -12.2480   18.4160 C   0  0  0  0  0  2  0  0  0  0  0  0
  -27.4490  -13.0890   19.6880 C   0  0  0  0  0  3  0  0  0  0  0  0
  -28.5770  -12.9500   20.7350 C   0  0  0  0  0  2  0  0  0  0  0  0
  -29.8350  -13.3300   20.0790 N   0  0  0  0  0  0  0  0  0  0  0  0
  -31.5430  -14.7270   19.5880 O   0  0  0  0  0  0  0  0  0  0  0  0
  -29.2970  -19.3750   19.8560 C   0  0  0  0  0  0  0  0  0  0  0  0
  -29.3400  -19.0550   18.5100 C   0  0  0  0  0  0  0  0  0  0  0  0
  -29.5970  -17.0050   19.9400 C   0  0  0  0  0  0  0  0  0  0  0  0
  -29.3950  -18.1630   20.6390 N   0  0  0  0  0  0  0  0  0  0  0  0
  -29.6800  -15.6540   20.5170 N   0  0  0  0  0  0  0  0  0  0  0  0
  -29.5910  -17.3340   18.2110 S   0  0  0  0  0  0  0  0  0  0  0  0
  -28.9170  -15.4220   21.1350 H   0  0  0  0  0  0  0  0  0  0  0  0
  -25.1000  -13.6470   20.5520 C   0  0  0  0  0  0  0  0  0  0  0  0
  -24.0680  -12.8580   20.9790 C   0  0  0  0  0  0  0  0  0  0  0  0
  -24.5460  -11.5120   20.9110 C   0  0  0  0  0  0  0  0  0  0  0  0
  -26.1400  -12.7810   20.2510 N   0  0  0  0  0  0  0  0  0  0  0  0
  -25.8160  -11.4910   20.5240 N   0  0  0  0  0  0  0  0  0  0  0  0
  -23.8470  -10.2400   21.1320 C   0  0  0  0  0  0  0  0  0  0  0  0
  -24.3270   -9.2860   22.0570 C   0  0  0  0  0  3  0  0  0  0  0  0
  -23.6300   -8.0770   22.2650 C   0  0  0  0  0  3  0  0  0  0  0  0
  -22.4340   -7.8150   21.5540 C   0  0  0  0  0  0  0  0  0  0  0  0
  -21.9750   -8.7560   20.6170 C   0  0  0  0  0  3  0  0  0  0  0  0
  -22.6730   -9.9570   20.4050 C   0  0  0  0  0  3  0  0  0  0  0  0
  -21.7010   -6.6600   21.6770 O   0  0  0  0  0  0  0  0  0  0  0  0
  -21.6880   -5.9370   22.8430 C   0  0  0  0  0  0  0  0  0  0  0  0
  -21.2310   -6.4860   24.0610 C   0  0  0  0  0  3  0  0  0  0  0  0
  -21.1710   -5.6860   25.2180 C   0  0  0  0  0  3  0  0  0  0  0  0
  -21.5560   -4.3340   25.1590 C   0  0  0  0  0  0  0  0  0  0  0  0
  -22.0070   -3.7820   23.9480 C   0  0  0  0  0  3  0  0  0  0  0  0
  -22.0710   -4.5820   22.7930 C   0  0  0  0  0  0  0  0  0  0  0  0
  -22.4850   -4.0380   21.6250 F   0  0  0  0  0  0  0  0  0  0  0  0
  -21.4920   -3.5630   26.2700 F   0  0  0  0  0  0  0  0  0  0  0  0
  -22.6860  -13.3160   21.3420 C   0  0  0  0  0  0  0  0  0  0  0  0
  -22.0180  -12.5980   22.2380 N   0  0  0  0  0  0  0  0  0  0  0  0
  -22.2070  -14.3420   20.8620 O   0  0  0  0  0  0  0  0  0  0  0  0
  -22.4240  -11.7670   22.6440 H   0  0  0  0  0  0  0  0  0  0  0  0
  -21.0910  -12.8790   22.5220 H   0  0  0  0  0  0  0  0  0  0  0  0
  -25.2410  -15.0190   20.3700 N   0  0  0  0  0  0  0  0  0  0  0  0
  -24.4780  -15.6670   20.5260 H   0  0  0  0  0  0  0  0  0  0  0  0
  -26.0570  -15.4600   19.9670 H   0  0  0  0  0  0  0  0  0  0  0  0
  -29.2790  -19.9080   17.4120 N   0  0  0  0  0  0  0  0  0  0  0  0
  -29.0630  -20.8970   17.4850 H   0  0  0  0  0  0  0  0  0  0  0  0
  -29.4330  -19.6150   16.4520 H   0  0  0  0  0  0  0  0  0  0  0  0
  -28.8050  -22.1240   19.7610 C   0  0  0  0  0  2  0  0  0  0  0  0
  -28.5310  -23.5490   20.5080 C   0  0  0  0  0  3  0  0  0  0  0  0
  -27.4680  -23.3440   21.4220 O   0  0  0  0  0  0  0  0  0  0  0  0
  -27.3620  -24.1570   21.9100 H   0  0  0  0  0  0  0  0  0  0  0  0
  -28.1180  -24.8480   19.6430 C   0  0  0  0  0  2  0  0  0  0  0  0
  -28.1390  -26.2430   20.2200 O   0  0  0  0  0  0  0  0  0  0  0  0
  -24.5430  -31.7950   23.2440 C   0  0  0  0  0  0  0  0  0  0  0  0
  -27.0370  -27.1370   20.1650 C   0  0  0  0  0  0  0  0  0  0  0  0
  -23.3100  -30.4300   21.6020 C   0  0  0  0  0  3  0  0  0  0  0  0
  -24.7200  -28.8500   20.1700 C   0  0  0  0  0  0  0  0  0  0  0  0
  -25.8590  -30.6770   21.4250 C   0  0  0  0  0  2  0  0  0  0  0  0
  -25.9060  -29.2940   20.7690 C   0  0  0  0  0  0  0  0  0  0  0  0
  -27.0640  -28.4500   20.7580 C   0  0  0  0  0  3  0  0  0  0  0  0
  -25.8190  -26.7680   19.5460 C   0  0  0  0  0  3  0  0  0  0  0  0
  -24.6820  -27.5950   19.5550 C   0  0  0  0  0  3  0  0  0  0  0  0
  -23.5070  -29.7560   20.2210 C   0  0  0  0  0  2  0  0  0  0  0  0
  -24.5910  -30.9850   22.1450 N   0  0  0  0  0  0  0  0  0  0  0  0
  -23.4640  -32.0930   23.7770 O   0  0  0  0  0  0  0  0  0  0  0  0
  -22.6230  -29.4250   22.5560 C   0  0  0  0  0  0  0  0  0  0  0  0
  -21.2940  -29.2750   22.4280 N   0  0  0  0  0  0  0  0  0  0  0  0
  -23.2860  -28.7840   23.3750 O   0  0  0  0  0  0  0  0  0  0  0  0
  -20.8140  -29.8430   21.7440 H   0  0  0  0  0  0  0  0  0  0  0  0
  -17.8910  -28.1570   22.9350 C   0  0  0  0  0  0  0  0  0  0  0  0
  -20.4560  -28.3510   23.1950 C   0  0  0  0  0  3  0  0  0  0  0  0
  -20.5170  -26.9200   22.6130 C   0  0  0  0  0  2  0  0  0  0  0  0
  -19.4040  -26.6290   21.6000 C   0  0  0  0  0  2  0  0  0  0  0  0
  -18.0310  -26.8080   22.2500 C   0  0  0  0  0  2  0  0  0  0  0  0
  -19.0300  -28.8890   23.3650 C   0  0  0  0  0  0  0  0  0  0  0  0
  -18.8430  -30.1530   23.9650 C   0  0  0  0  0  3  0  0  0  0  0  0
  -17.5510  -30.6850   24.1410 C   0  0  0  0  0  3  0  0  0  0  0  0
  -16.4270  -29.9490   23.7270 C   0  0  0  0  0  3  0  0  0  0  0  0
  -16.5980  -28.6860   23.1300 C   0  0  0  0  0  3  0  0  0  0  0  0
  -25.8360  -32.4020   23.8680 C   0  0  0  0  0  3  0  0  0  0  0  0
  -25.5620  -33.8100   24.1850 N   0  0  0  0  0  0  0  0  0  0  0  0
  -25.9190  -34.8470   23.4170 C   0  0  0  0  0  0  0  0  0  0  0  0
  -26.5860  -34.7180   22.3860 O   0  0  0  0  0  0  0  0  0  0  0  0
  -24.9780  -33.9860   24.9900 H   0  0  0  0  0  0  0  0  0  0  0  0
  -24.2430  -36.6830   23.0440 C   0  0  0  0  0  1  0  0  0  0  0  0
  -25.4660  -36.2490   23.8650 C   0  0  0  0  0  3  0  0  0  0  0  0
  -27.6130  -37.0830   24.7200 C   0  0  0  0  0  1  0  0  0  0  0  0
  -26.5270  -37.2740   23.7600 N   0  0  0  0  0  0  0  0  0  0  0  0
  -26.1420  -38.2030   23.9010 H   0  0  0  0  0  0  0  0  0  0  0  0
  -26.3240  -31.6320   25.1570 C   0  0  1  0  0  0  0  0  0  0  0  0
  -25.2160  -31.4230   26.2170 C   0  0  0  0  0  1  0  0  0  0  0  0
  -26.8790  -30.2400   24.7830 C   0  0  0  0  0  1  0  0  0  0  0  0
  -27.4940  -32.4010   25.8180 C   0  0  0  0  0  1  0  0  0  0  0  0
  -30.9590  -20.9540   20.7480 C   0  0  0  0  0  2  0  0  0  0  0  0
  -32.7920  -21.1260   22.4580 C   0  0  0  0  0  1  0  0  0  0  0  0
  -31.9900  -23.2010   21.3420 C   0  0  0  0  0  1  0  0  0  0  0  0
  -30.5490  -21.9910   23.0670 C   0  0  0  0  0  1  0  0  0  0  0  0
  -31.5370  -21.8310   21.8950 C   0  0  1  0  0  0  0  0  0  0  0  0
  1 48  1  0
  1 94  1  0
  2  8  1  0
  2 14  1  0
  3  8  1  0
  4  5  1  0
  4  3  1  0
  6  5  1  0
  6 20  1  0
  6  7  1  0
  8  7  1  0
  9  2  2  0
 10  1  1  0
 10 13  1  0
 11 10  2  0
 12 14  1  0
 12 13  2  0
 14 16  1  0
 15 11  1  0
 15 12  1  0
 17 18  2  0
 18 37  1  0
 19 18  1  0
 19 22  1  0
 20 21  1  0
 20 17  1  0
 21 19  2  0
 22 23  1  0
 23 24  2  0
 25 28  1  0
 25 24  1  0
 26 25  2  0
 27 26  1  0
 27 22  2  0
 28 29  1  0
 29 30  1  0
 30 31  2  0
 32 31  1  0
 32 36  1  0
 33 32  2  0
 34 29  2  0
 34 33  1  0
 35 34  1  0
 37 38  1  0
 38 41  1  0
 38 40  1  0
 39 37  2  0
 42 43  1  0
 42 17  1  0
 44 42  1  0
 45 46  1  0
 45 11  1  0
 47 45  1  0
 48 49  1  0
 49 52  1  0
 49 50  1  0
 50 51  1  0
 52 53  1  0
 54 65  2  0
 55 53  1  0
 55 60  1  0
 56 64  1  0
 56 66  1  0
 57 63  1  0
 57 59  1  0
 58 64  1  0
 59 58  1  0
 60 59  2  0
 61 62  1  0
 61 55  2  0
 62 57  2  0
 63 56  1  0
 64 54  1  0
 66 68  2  0
 67 66  1  0
 69 67  1  0
 70 79  2  0
 70 75  1  0
 71 67  1  0
 71 75  1  0
 72 71  1  0
 73 74  1  0
 73 72  1  0
 74 70  1  0
 75 76  2  0
 76 77  1  0
 78 77  2  0
 79 78  1  0
 80 54  1  0
 80 81  1  0
 80 90  1  0
 81 84  1  0
 82 86  1  0
 82 81  1  0
 83 82  2  0
 86 85  1  0
 88 86  1  0
 88 89  1  0
 88 87  1  0
 90 93  1  1
 90 91  1  0
 92 90  1  0
 94 98  1  0
 98 96  1  6
 98 95  1  0
 98 97  1  0
M  ISO  4   2 100  14 100  52 101  53 101
M  END
>  <TORSDO>  (43) 
F 23

>  <SCORE>  (43) 
-12.266

>  <name>  (43) 
42

>  <ligand_id>  (43) 
42

>  <original_smiles>  (43) 
[H]OC([H])(C([H])([H])Oc1c([H])c([H])c2c(c1[H])C([H])([H])N(C(=O)C([H])(N([H])C(=O)C([H])(N([H])C([H])([H])[H])C([H])([H])[H])C(C([H])([H])[H])(C([H])([H])[H])C([H])([H])[H])C([H])(C(=O)N([H])C1([H])c3c([H])c([H])c([H])c([H])c3C([H])([H])C([H])([H])C1([H])[H])C2([H])[H])C([H])([H])C([H])(c1nc(N([H])C(=O)N2C([H])([H])C([H])([H])C([H])([H])C([H])(n3nc(-c4c([H])c([H])c(Oc5c([H])c([H])c(F)c([H])c5F)c([H])c4[H])c(C(=O)N([H])[H])c3N([H])[H])C2([H])[H])sc1N([H])[H])C([H])([H])C(C([H])([H])[H])(C([H])([H])[H])C([H])([H])[H]

>  <smiles>  (43) 
[H]OC([H])(C([H])([H])Oc1c([H])c([H])c2c(c1[H])C([H])([H])N(C(=O)C([H])(N([H])C(=O)C([H])(N([H])C([H])([H])[H])C([H])([H])[H])C(C([H])([H])[H])(C([H])([H])[H])C([H])([H])[H])C([H])(C(=O)N([H])C1([H])c3c([H])c([H])c([H])c([H])c3C([H])([H])C([H])([H])C1([H])[H])C2([H])[H])C([H])([H])C([H])(c1nc(N([H])C(=O)N2C([H])([H])C([H])([H])C([H])([H])C([H])(n3nc(-c4c([H])c([H])c(Oc5c([H])c([H])c(F)c([H])c5F)c([H])c4[H])c(C(=O)N([H])[H])c3N([H])[H])C2([H])[H])sc1N([H])[H])C([H])([H])C(C([H])([H])[H])(C([H])([H])[H])C([H])([H])[H]

$$$$
43:0:0
     RDKit          3D

 92100  0  0  1  0  0  0  0  0999 V2000
  -29.5100  -23.1830   20.9490 C   0  0  0  0  0  0  0  0  0  0  0  0
  -30.3680  -21.3520   22.3030 C   0  0  0  0  0  1  0  0  0  0  0  0
  -29.5090  -21.8230   21.2010 N   0  0  0  0  0  0  0  0  0  0  0  0
  -30.4120  -23.8800   21.4290 O   0  0  0  0  0  0  0  0  0  0  0  0
  -28.7180  -20.7300   20.5480 C   0  0  0  0  0  2  0  0  0  0  0  0
  -31.0510  -17.6100   19.5710 C   0  0  0  0  0  3  0  0  0  0  0  0
  -30.0330  -17.1270   20.3610 C   0  0  0  0  0  0  0  0  0  0  0  0
  -29.4950  -19.4100   20.3150 C   0  0  0  0  0  0  0  0  0  0  0  0
  -29.1570  -18.1730   20.7720 N   0  0  0  0  0  0  0  0  0  0  0  0
  -30.9470  -19.3410   19.3170 S   0  0  0  0  0  0  0  0  0  0  0  0
  -30.5990  -14.6290   20.3440 C   0  0  0  0  0  0  0  0  0  0  0  0
  -30.3440  -12.4060   19.2870 C   0  0  0  0  0  2  0  0  0  0  0  0
  -29.4080  -12.5600   18.0700 C   0  0  0  0  0  2  0  0  0  0  0  0
  -27.9330  -12.4140   18.4950 C   0  0  0  0  0  2  0  0  0  0  0  0
  -27.5800  -13.2730   19.7410 C   0  0  0  0  0  3  0  0  0  0  0  0
  -28.6370  -13.1110   20.8570 C   0  0  0  0  0  2  0  0  0  0  0  0
  -29.9520  -13.4260   20.2800 N   0  0  0  0  0  0  0  0  0  0  0  0
  -31.7670  -14.7370   19.9610 O   0  0  0  0  0  0  0  0  0  0  0  0
  -29.8410  -15.7190   20.6860 N   0  0  0  0  0  0  0  0  0  0  0  0
  -28.9480  -15.4900   21.0930 H   0  0  0  0  0  0  0  0  0  0  0  0
  -25.1870  -13.8740   20.4590 C   0  0  0  0  0  0  0  0  0  0  0  0
  -24.1210  -13.1000   20.8330 C   0  0  0  0  0  0  0  0  0  0  0  0
  -24.5830  -11.7490   20.8020 C   0  0  0  0  0  0  0  0  0  0  0  0
  -26.2320  -12.9920   20.2260 N   0  0  0  0  0  0  0  0  0  0  0  0
  -25.8740  -11.7100   20.4940 N   0  0  0  0  0  0  0  0  0  0  0  0
  -23.8570  -10.4860   20.9930 C   0  0  0  0  0  0  0  0  0  0  0  0
  -24.2880   -9.5210   21.9290 C   0  0  0  0  0  3  0  0  0  0  0  0
  -23.5630   -8.3230   22.1080 C   0  0  0  0  0  3  0  0  0  0  0  0
  -22.3920   -8.0830   21.3510 C   0  0  0  0  0  0  0  0  0  0  0  0
  -21.9790   -9.0370   20.4040 C   0  0  0  0  0  3  0  0  0  0  0  0
  -22.7050  -10.2260   20.2230 C   0  0  0  0  0  3  0  0  0  0  0  0
  -21.6370   -6.9380   21.4390 O   0  0  0  0  0  0  0  0  0  0  0  0
  -21.5840   -6.1970   22.5920 C   0  0  0  0  0  0  0  0  0  0  0  0
  -21.1480   -6.7520   23.8150 C   0  0  0  0  0  3  0  0  0  0  0  0
  -21.0460   -5.9370   24.9610 C   0  0  0  0  0  3  0  0  0  0  0  0
  -21.3660   -4.5680   24.8840 C   0  0  0  0  0  0  0  0  0  0  0  0
  -21.7940   -4.0130   23.6650 C   0  0  0  0  0  3  0  0  0  0  0  0
  -21.8990   -4.8250   22.5220 C   0  0  0  0  0  0  0  0  0  0  0  0
  -22.2920   -4.2810   21.3460 F   0  0  0  0  0  0  0  0  0  0  0  0
  -21.2590   -3.7840   25.9820 F   0  0  0  0  0  0  0  0  0  0  0  0
  -22.7230  -13.5780   21.1040 C   0  0  0  0  0  0  0  0  0  0  0  0
  -21.9920  -12.8820   21.9660 N   0  0  0  0  0  0  0  0  0  0  0  0
  -22.2860  -14.6030   20.5840 O   0  0  0  0  0  0  0  0  0  0  0  0
  -22.3560  -12.0530   22.4130 H   0  0  0  0  0  0  0  0  0  0  0  0
  -21.0530  -13.1820   22.1850 H   0  0  0  0  0  0  0  0  0  0  0  0
  -25.3530  -15.2440   20.2770 N   0  0  0  0  0  0  0  0  0  0  0  0
  -24.5880  -15.9010   20.3820 H   0  0  0  0  0  0  0  0  0  0  0  0
  -26.2000  -15.6780   19.9330 H   0  0  0  0  0  0  0  0  0  0  0  0
  -28.3840  -23.9570   20.1750 C   0  0  0  0  0  2  0  0  0  0  0  0
  -28.5610  -25.4690   18.0320 C   0  0  0  0  0  1  0  0  0  0  0  0
  -28.7620  -25.3840   19.5550 C   0  0  0  0  0  3  0  0  0  0  0  0
  -28.4620  -26.6490   20.2450 O   0  0  0  0  0  0  0  0  0  0  0  0
  -24.6210  -31.8950   23.2290 C   0  0  0  0  0  0  0  0  0  0  0  0
  -27.2710  -27.3810   20.1780 C   0  0  0  0  0  0  0  0  0  0  0  0
  -23.4180  -30.4890   21.5890 C   0  0  0  0  0  3  0  0  0  0  0  0
  -24.8740  -28.9380   20.1680 C   0  0  0  0  0  0  0  0  0  0  0  0
  -25.9490  -30.8320   21.3970 C   0  0  0  0  0  2  0  0  0  0  0  0
  -26.0340  -29.4550   20.7540 C   0  0  0  0  0  0  0  0  0  0  0  0
  -27.2280  -28.6850   20.7500 C   0  0  0  0  0  3  0  0  0  0  0  0
  -26.0790  -26.8840   19.6060 C   0  0  0  0  0  3  0  0  0  0  0  0
  -24.8960  -27.6550   19.5890 C   0  0  0  0  0  3  0  0  0  0  0  0
  -23.6310  -29.8030   20.2120 C   0  0  0  0  0  2  0  0  0  0  0  0
  -24.6800  -31.0890   22.1300 N   0  0  0  0  0  0  0  0  0  0  0  0
  -23.5380  -32.1690   23.7670 O   0  0  0  0  0  0  0  0  0  0  0  0
  -22.7630  -29.4730   22.5560 C   0  0  0  0  0  0  0  0  0  0  0  0
  -21.4380  -29.2890   22.4280 N   0  0  0  0  0  0  0  0  0  0  0  0
  -23.4450  -28.8540   23.3750 O   0  0  0  0  0  0  0  0  0  0  0  0
  -20.9460  -29.8420   21.7410 H   0  0  0  0  0  0  0  0  0  0  0  0
  -18.0660  -28.0840   22.9320 C   0  0  0  0  0  0  0  0  0  0  0  0
  -20.6230  -28.3510   23.2020 C   0  0  0  0  0  3  0  0  0  0  0  0
  -20.7300  -26.9200   22.6290 C   0  0  0  0  0  2  0  0  0  0  0  0
  -19.6290  -26.5910   21.6150 C   0  0  0  0  0  2  0  0  0  0  0  0
  -18.2460  -26.7340   22.2570 C   0  0  0  0  0  2  0  0  0  0  0  0
  -19.1820  -28.8500   23.3610 C   0  0  0  0  0  0  0  0  0  0  0  0
  -18.9610  -30.1130   23.9500 C   0  0  0  0  0  3  0  0  0  0  0  0
  -17.6560  -30.6120   24.1160 C   0  0  0  0  0  3  0  0  0  0  0  0
  -16.5530  -29.8430   23.7040 C   0  0  0  0  0  3  0  0  0  0  0  0
  -16.7590  -28.5820   23.1180 C   0  0  0  0  0  3  0  0  0  0  0  0
  -25.9040  -32.5330   23.8490 C   0  0  0  0  0  3  0  0  0  0  0  0
  -26.4290  -31.7620   25.1230 C   0  0  1  0  0  0  0  0  0  0  0  0
  -25.3400  -31.5200   26.1950 C   0  0  0  0  0  1  0  0  0  0  0  0
  -27.0170  -30.3870   24.7290 C   0  0  0  0  0  1  0  0  0  0  0  0
  -27.5780  -32.5610   25.7840 C   0  0  0  0  0  1  0  0  0  0  0  0
  -25.5910  -33.9290   24.1830 N   0  0  0  0  0  0  0  0  0  0  0  0
  -25.9210  -34.9860   23.4270 C   0  0  0  0  0  0  0  0  0  0  0  0
  -26.5900  -34.8870   22.3950 O   0  0  0  0  0  0  0  0  0  0  0  0
  -24.9970  -34.0790   24.9860 H   0  0  0  0  0  0  0  0  0  0  0  0
  -24.1900  -36.7770   23.0750 C   0  0  0  0  0  1  0  0  0  0  0  0
  -25.4300  -36.3720   23.8890 C   0  0  0  0  0  3  0  0  0  0  0  0
  -27.5590  -37.2570   24.7290 C   0  0  0  0  0  1  0  0  0  0  0  0
  -26.4610  -37.4270   23.7830 N   0  0  0  0  0  0  0  0  0  0  0  0
  -26.0530  -38.3460   23.9310 H   0  0  0  0  0  0  0  0  0  0  0  0
  1  3  1  0
  1  4  2  0
  3  2  1  0
  5  3  1  0
  6  7  2  0
  7 19  1  0
  7  9  1  0
  8  5  1  0
  8  9  2  0
 10  6  1  0
 10  8  1  0
 11 19  1  0
 12 17  1  0
 13 14  1  0
 13 12  1  0
 15 14  1  0
 15 24  1  0
 15 16  1  0
 17 11  1  0
 17 16  1  0
 18 11  2  0
 19 20  1  0
 21 22  2  0
 22 41  1  0
 23 22  1  0
 23 26  1  0
 24 21  1  0
 24 25  1  0
 25 23  2  0
 26 27  1  0
 27 28  2  0
 29 32  1  0
 29 28  1  0
 30 29  2  0
 31 30  1  0
 31 26  2  0
 32 33  1  0
 33 34  1  0
 34 35  2  0
 36 35  1  0
 36 40  1  0
 37 36  2  0
 38 33  2  0
 38 37  1  0
 39 38  1  0
 41 42  1  0
 42 45  1  0
 42 44  1  0
 43 41  2  0
 46 47  1  0
 46 21  1  0
 48 46  1  0
 49  1  1  0
 51 50  1  0
 51 49  1  0
 51 52  1  0
 53 64  2  0
 54 52  1  0
 54 59  1  0
 55 63  1  0
 55 65  1  0
 56 62  1  0
 56 58  1  0
 57 63  1  0
 58 57  1  0
 59 58  2  0
 60 54  2  0
 61 60  1  0
 61 56  2  0
 62 55  1  0
 63 53  1  0
 65 67  2  0
 66 65  1  0
 68 66  1  0
 69 78  2  0
 69 74  1  0
 70 66  1  0
 70 74  1  0
 71 70  1  0
 72 73  1  0
 72 71  1  0
 73 69  1  0
 74 75  2  0
 75 76  1  0
 77 76  2  0
 78 77  1  0
 79 53  1  0
 79 84  1  0
 79 80  1  0
 80 83  1  1
 80 81  1  0
 82 80  1  0
 84 87  1  0
 85 89  1  0
 85 84  1  0
 86 85  2  0
 89 88  1  0
 91 89  1  0
 91 92  1  0
 91 90  1  0
M  ISO  4  11 100  19 100  51 101  52 101
M  END
>  <TORSDO>  (44) 
F 20

>  <SCORE>  (44) 
-14.105

>  <name>  (44) 
43

>  <ligand_id>  (44) 
43

>  <original_smiles>  (44) 
[H]c1sc(C([H])([H])N(C(=O)C([H])([H])C([H])(Oc2c([H])c([H])c3c(c2[H])C([H])([H])N(C(=O)C([H])(N([H])C(=O)C([H])(N([H])C([H])([H])[H])C([H])([H])[H])C(C([H])([H])[H])(C([H])([H])[H])C([H])([H])[H])C([H])(C(=O)N([H])C2([H])c4c([H])c([H])c([H])c([H])c4C([H])([H])C([H])([H])C2([H])[H])C3([H])[H])C([H])([H])[H])C([H])([H])[H])nc1N([H])C(=O)N1C([H])([H])C([H])([H])C([H])([H])C([H])(n2nc(-c3c([H])c([H])c(Oc4c([H])c([H])c(F)c([H])c4F)c([H])c3[H])c(C(=O)N([H])[H])c2N([H])[H])C1([H])[H]

>  <smiles>  (44) 
[H]c1sc(C([H])([H])N(C(=O)C([H])([H])C([H])(Oc2c([H])c([H])c3c(c2[H])C([H])([H])N(C(=O)C([H])(N([H])C(=O)C([H])(N([H])C([H])([H])[H])C([H])([H])[H])C(C([H])([H])[H])(C([H])([H])[H])C([H])([H])[H])C([H])(C(=O)N([H])C2([H])c4c([H])c([H])c([H])c([H])c4C([H])([H])C([H])([H])C2([H])[H])C3([H])[H])C([H])([H])[H])C([H])([H])[H])nc1N([H])C(=O)N1C([H])([H])C([H])([H])C([H])([H])C([H])(n2nc(-c3c([H])c([H])c(Oc4c([H])c([H])c(F)c([H])c4F)c([H])c3[H])c(C(=O)N([H])[H])c2N([H])[H])C1([H])[H]

$$$$
44:0:0
     RDKit          3D

 96104  0  0  1  0  0  0  0  0999 V2000
  -29.9880  -18.6680   20.3120 C   0  0  0  0  0  0  0  0  0  0  0  0
  -30.4000  -19.4860   19.2610 C   0  0  0  0  0  0  0  0  0  0  0  0
  -29.2280  -21.1700   20.3760 C   0  0  0  0  0  0  0  0  0  0  0  0
  -28.8820  -23.7870   20.1130 C   0  0  0  0  0  0  0  0  0  0  0  0
  -29.9110  -20.8290   19.2750 N   0  0  0  0  0  0  0  0  0  0  0  0
  -28.7060  -22.5260   20.6740 N   0  0  0  0  0  0  0  0  0  0  0  0
  -29.6470  -23.9820   19.1630 O   0  0  0  0  0  0  0  0  0  0  0  0
  -29.0390  -19.7040   21.4210 S   0  0  0  0  0  0  0  0  0  0  0  0
  -28.0900  -22.5360   21.4740 H   0  0  0  0  0  0  0  0  0  0  0  0
  -30.6790  -14.8310   20.3270 C   0  0  0  0  0  0  0  0  0  0  0  0
  -30.4250  -12.5740   19.2690 C   0  0  0  0  0  2  0  0  0  0  0  0
  -29.4850  -12.6060   18.0480 C   0  0  0  0  0  2  0  0  0  0  0  0
  -28.0230  -12.4200   18.4930 C   0  0  0  0  0  2  0  0  0  0  0  0
  -27.6350  -13.3350   19.6860 C   0  0  0  0  0  3  0  0  0  0  0  0
  -28.7000  -13.2940   20.8040 C   0  0  0  0  0  2  0  0  0  0  0  0
  -29.9840  -13.6480   20.1870 N   0  0  0  0  0  0  0  0  0  0  0  0
  -31.8910  -14.8280   20.1020 O   0  0  0  0  0  0  0  0  0  0  0  0
  -30.5090  -17.2810   20.7850 C   0  0  0  0  0  0  0  0  0  0  0  0
  -29.9900  -16.0420   20.4220 N   0  0  0  0  0  0  0  0  0  0  0  0
  -31.4820  -17.3380   21.5420 O   0  0  0  0  0  0  0  0  0  0  0  0
  -29.0210  -16.0290   20.1490 H   0  0  0  0  0  0  0  0  0  0  0  0
  -25.2450  -13.9080   20.4120 C   0  0  0  0  0  0  0  0  0  0  0  0
  -24.1840  -13.1310   20.7850 C   0  0  0  0  0  0  0  0  0  0  0  0
  -24.6570  -11.7830   20.7680 C   0  0  0  0  0  0  0  0  0  0  0  0
  -26.2950  -13.0370   20.1850 N   0  0  0  0  0  0  0  0  0  0  0  0
  -25.9490  -11.7530   20.4660 N   0  0  0  0  0  0  0  0  0  0  0  0
  -23.9350  -10.5160   20.9630 C   0  0  0  0  0  0  0  0  0  0  0  0
  -24.3580   -9.5640   21.9180 C   0  0  0  0  0  3  0  0  0  0  0  0
  -23.6360   -8.3660   22.1050 C   0  0  0  0  0  3  0  0  0  0  0  0
  -22.4770   -8.1070   21.3350 C   0  0  0  0  0  0  0  0  0  0  0  0
  -22.0720   -9.0470   20.3710 C   0  0  0  0  0  3  0  0  0  0  0  0
  -22.7960  -10.2370   20.1830 C   0  0  0  0  0  3  0  0  0  0  0  0
  -21.7310   -6.9570   21.4260 O   0  0  0  0  0  0  0  0  0  0  0  0
  -21.6620   -6.2350   22.5910 C   0  0  0  0  0  0  0  0  0  0  0  0
  -21.1870   -6.8040   23.7920 C   0  0  0  0  0  3  0  0  0  0  0  0
  -21.0700   -6.0100   24.9500 C   0  0  0  0  0  3  0  0  0  0  0  0
  -21.4120   -4.6450   24.9070 C   0  0  0  0  0  0  0  0  0  0  0  0
  -21.8770   -4.0740   23.7090 C   0  0  0  0  0  3  0  0  0  0  0  0
  -21.9990   -4.8670   22.5530 C   0  0  0  0  0  0  0  0  0  0  0  0
  -22.4290   -4.3060   21.3980 F   0  0  0  0  0  0  0  0  0  0  0  0
  -21.2890   -3.8800   26.0160 F   0  0  0  0  0  0  0  0  0  0  0  0
  -22.7800  -13.6010   21.0340 C   0  0  0  0  0  0  0  0  0  0  0  0
  -22.0440  -12.9130   21.8980 N   0  0  0  0  0  0  0  0  0  0  0  0
  -22.3440  -14.6210   20.4990 O   0  0  0  0  0  0  0  0  0  0  0  0
  -22.4080  -12.0930   22.3600 H   0  0  0  0  0  0  0  0  0  0  0  0
  -21.0990  -13.2110   22.0950 H   0  0  0  0  0  0  0  0  0  0  0  0
  -25.3960  -15.2790   20.2180 N   0  0  0  0  0  0  0  0  0  0  0  0
  -24.6170  -15.9190   20.3150 H   0  0  0  0  0  0  0  0  0  0  0  0
  -26.2320  -15.7250   19.8660 H   0  0  0  0  0  0  0  0  0  0  0  0
  -31.3740  -19.1210   18.1660 C   0  0  0  0  0  2  0  0  0  0  0  0
  -33.4930  -20.0050   17.0950 C   0  0  0  0  0  1  0  0  0  0  0  0
  -33.1100  -20.5350   19.5150 C   0  0  0  0  0  1  0  0  0  0  0  0
  -33.6770  -18.2200   18.8040 C   0  0  0  0  0  1  0  0  0  0  0  0
  -32.8830  -19.4780   18.4090 C   0  0  1  0  0  0  0  0  0  0  0  0
  -28.0730  -25.0390   20.7070 C   0  0  0  0  0  2  0  0  0  0  0  0
  -28.3490  -26.4310   20.1960 O   0  0  0  0  0  0  0  0  0  0  0  0
  -24.6070  -31.8890   23.2260 C   0  0  0  0  0  0  0  0  0  0  0  0
  -27.2610  -27.3290   20.1660 C   0  0  0  0  0  0  0  0  0  0  0  0
  -23.4210  -30.4890   21.5720 C   0  0  0  0  0  3  0  0  0  0  0  0
  -24.8890  -28.9510   20.1450 C   0  0  0  0  0  0  0  0  0  0  0  0
  -25.9620  -30.8120   21.4140 C   0  0  0  0  0  2  0  0  0  0  0  0
  -26.0530  -29.4340   20.7580 C   0  0  0  0  0  0  0  0  0  0  0  0
  -27.2430  -28.6340   20.7600 C   0  0  0  0  0  3  0  0  0  0  0  0
  -26.0830  -26.9220   19.5040 C   0  0  0  0  0  3  0  0  0  0  0  0
  -24.9100  -27.7000   19.5060 C   0  0  0  0  0  3  0  0  0  0  0  0
  -23.6480  -29.8200   20.1910 C   0  0  0  0  0  2  0  0  0  0  0  0
  -24.6800  -31.0840   22.1260 N   0  0  0  0  0  0  0  0  0  0  0  0
  -23.5190  -32.1580   23.7570 O   0  0  0  0  0  0  0  0  0  0  0  0
  -22.7580  -29.4670   22.5260 C   0  0  0  0  0  0  0  0  0  0  0  0
  -21.4340  -29.2820   22.3940 N   0  0  0  0  0  0  0  0  0  0  0  0
  -23.4370  -28.8440   23.3480 O   0  0  0  0  0  0  0  0  0  0  0  0
  -20.9430  -29.8380   21.7070 H   0  0  0  0  0  0  0  0  0  0  0  0
  -18.0620  -28.0650   22.8890 C   0  0  0  0  0  0  0  0  0  0  0  0
  -20.6200  -28.3350   23.1570 C   0  0  0  0  0  3  0  0  0  0  0  0
  -20.7260  -26.9080   22.5710 C   0  0  0  0  0  2  0  0  0  0  0  0
  -19.6240  -26.5890   21.5550 C   0  0  0  0  0  2  0  0  0  0  0  0
  -18.2430  -26.7230   22.2010 C   0  0  0  0  0  2  0  0  0  0  0  0
  -19.1780  -28.8280   23.3250 C   0  0  0  0  0  0  0  0  0  0  0  0
  -18.9550  -30.0850   23.9290 C   0  0  0  0  0  3  0  0  0  0  0  0
  -17.6470  -30.5770   24.1030 C   0  0  0  0  0  3  0  0  0  0  0  0
  -16.5460  -29.8130   23.6810 C   0  0  0  0  0  3  0  0  0  0  0  0
  -16.7550  -28.5580   23.0810 C   0  0  0  0  0  3  0  0  0  0  0  0
  -25.8820  -32.5280   23.8570 C   0  0  0  0  0  3  0  0  0  0  0  0
  -26.3870  -31.7640   25.1440 C   0  0  1  0  0  0  0  0  0  0  0  0
  -25.2850  -31.5300   26.2030 C   0  0  0  0  0  1  0  0  0  0  0  0
  -26.9780  -30.3850   24.7680 C   0  0  0  0  0  1  0  0  0  0  0  0
  -27.5270  -32.5670   25.8140 C   0  0  0  0  0  1  0  0  0  0  0  0
  -25.5670  -33.9270   24.1810 N   0  0  0  0  0  0  0  0  0  0  0  0
  -25.9000  -34.9790   23.4220 C   0  0  0  0  0  0  0  0  0  0  0  0
  -26.5760  -34.8740   22.3950 O   0  0  0  0  0  0  0  0  0  0  0  0
  -24.9790  -34.0820   24.9870 H   0  0  0  0  0  0  0  0  0  0  0  0
  -24.1770  -36.7710   23.0410 C   0  0  0  0  0  1  0  0  0  0  0  0
  -25.4060  -36.3690   23.8720 C   0  0  0  0  0  3  0  0  0  0  0  0
  -27.5250  -37.2580   24.7360 C   0  0  0  0  0  1  0  0  0  0  0  0
  -26.4400  -37.4220   23.7730 N   0  0  0  0  0  0  0  0  0  0  0  0
  -26.0310  -38.3430   23.9100 H   0  0  0  0  0  0  0  0  0  0  0  0
  1 18  1  0
  1  8  1  0
  2  5  1  0
  2  1  2  0
  3  6  1  0
  3  8  1  0
  4  6  1  0
  4 55  1  0
  5  3  2  0
  6  9  1  0
  7  4  2  0
 10 19  1  0
 11 16  1  0
 12 13  1  0
 12 11  1  0
 14 13  1  0
 14 25  1  0
 14 15  1  0
 16 10  1  0
 16 15  1  0
 17 10  2  0
 18 20  2  0
 19 18  1  0
 21 19  1  0
 22 23  2  0
 23 42  1  0
 24 23  1  0
 24 27  1  0
 25 22  1  0
 25 26  1  0
 26 24  2  0
 27 28  1  0
 28 29  2  0
 30 33  1  0
 30 29  1  0
 31 30  2  0
 32 31  1  0
 32 27  2  0
 33 34  1  0
 34 35  1  0
 35 36  2  0
 37 36  1  0
 37 41  1  0
 38 37  2  0
 39 34  2  0
 39 38  1  0
 40 39  1  0
 42 43  1  0
 43 46  1  0
 43 45  1  0
 44 42  2  0
 47 48  1  0
 47 22  1  0
 49 47  1  0
 50 54  1  0
 50  2  1  0
 54 51  1  6
 54 53  1  0
 54 52  1  0
 56 55  1  0
 57 68  2  0
 58 56  1  0
 58 63  1  0
 59 67  1  0
 59 69  1  0
 60 66  1  0
 60 62  1  0
 61 67  1  0
 62 63  2  0
 62 61  1  0
 64 65  1  0
 64 58  2  0
 65 60  2  0
 66 59  1  0
 67 57  1  0
 69 71  2  0
 70 69  1  0
 72 70  1  0
 73 82  2  0
 73 78  1  0
 74 70  1  0
 74 78  1  0
 75 74  1  0
 76 77  1  0
 76 75  1  0
 77 73  1  0
 78 79  2  0
 79 80  1  0
 81 80  2  0
 82 81  1  0
 83 57  1  0
 83 88  1  0
 83 84  1  0
 84 87  1  1
 84 85  1  0
 86 84  1  0
 88 91  1  0
 89 93  1  0
 89 88  1  0
 90 89  2  0
 93 92  1  0
 95 93  1  0
 95 96  1  0
 95 94  1  0
M  ISO  4  10 100  19 100  55 101  56 101
M  END
>  <TORSDO>  (45) 
F 19

>  <SCORE>  (45) 
-13.732

>  <name>  (45) 
44

>  <ligand_id>  (45) 
44

>  <original_smiles>  (45) 
[H]c1c([H])c([H])c2c(c1[H])C([H])([H])C([H])([H])C([H])([H])C2([H])N([H])C(=O)C1([H])N(C(=O)C([H])(N([H])C(=O)C([H])(N([H])C([H])([H])[H])C([H])([H])[H])C(C([H])([H])[H])(C([H])([H])[H])C([H])([H])[H])C([H])([H])c2c([H])c(OC([H])([H])C(=O)N([H])c3nc(C([H])([H])C(C([H])([H])[H])(C([H])([H])[H])C([H])([H])[H])c(C(=O)N([H])C(=O)N4C([H])([H])C([H])([H])C([H])([H])C([H])(n5nc(-c6c([H])c([H])c(Oc7c([H])c([H])c(F)c([H])c7F)c([H])c6[H])c(C(=O)N([H])[H])c5N([H])[H])C4([H])[H])s3)c([H])c([H])c2C1([H])[H]

>  <smiles>  (45) 
[H]c1c([H])c([H])c2c(c1[H])C([H])([H])C([H])([H])C([H])([H])C2([H])N([H])C(=O)C1([H])N(C(=O)C([H])(N([H])C(=O)C([H])(N([H])C([H])([H])[H])C([H])([H])[H])C(C([H])([H])[H])(C([H])([H])[H])C([H])([H])[H])C([H])([H])c2c([H])c(OC([H])([H])C(=O)N([H])c3nc(C([H])([H])C(C([H])([H])[H])(C([H])([H])[H])C([H])([H])[H])c(C(=O)N([H])C(=O)N4C([H])([H])C([H])([H])C([H])([H])C([H])(n5nc(-c6c([H])c([H])c(Oc7c([H])c([H])c(F)c([H])c7F)c([H])c6[H])c(C(=O)N([H])[H])c5N([H])[H])C4([H])[H])s3)c([H])c([H])c2C1([H])[H]

$$$$
45:0:0
     RDKit          3D

 94102  0  0  1  0  0  0  0  0999 V2000
  -29.6640  -21.1450   19.9530 C   0  0  0  0  0  2  0  0  0  0  0  0
  -30.6840  -14.8140   20.2550 C   0  0  0  0  0  0  0  0  0  0  0  0
  -30.4700  -12.5570   19.2020 C   0  0  0  0  0  2  0  0  0  0  0  0
  -29.5010  -12.6310   18.0030 C   0  0  0  0  0  2  0  0  0  0  0  0
  -28.0360  -12.4610   18.4550 C   0  0  0  0  0  2  0  0  0  0  0  0
  -27.6830  -13.3340   19.6870 C   0  0  0  0  0  3  0  0  0  0  0  0
  -28.7670  -13.2410   20.7840 C   0  0  0  0  0  2  0  0  0  0  0  0
  -30.0490  -13.5980   20.1630 N   0  0  0  0  0  0  0  0  0  0  0  0
  -31.8830  -14.9100   19.9740 O   0  0  0  0  0  0  0  0  0  0  0  0
  -30.0190  -19.7270   20.5750 C   0  0  0  0  0  0  0  0  0  0  0  0
  -30.9370  -19.5330   21.5900 C   0  0  0  0  0  0  0  0  0  0  0  0
  -30.2080  -17.3430   20.6260 C   0  0  0  0  0  0  0  0  0  0  0  0
  -29.5870  -18.4400   20.0750 N   0  0  0  0  0  0  0  0  0  0  0  0
  -29.8810  -15.9350   20.3500 N   0  0  0  0  0  0  0  0  0  0  0  0
  -31.3420  -17.8410   21.8740 S   0  0  0  0  0  0  0  0  0  0  0  0
  -28.8970  -15.7420   20.2830 H   0  0  0  0  0  0  0  0  0  0  0  0
  -25.3070  -13.9140   20.4660 C   0  0  0  0  0  0  0  0  0  0  0  0
  -24.2500  -13.1360   20.8480 C   0  0  0  0  0  0  0  0  0  0  0  0
  -24.7160  -11.7860   20.7980 C   0  0  0  0  0  0  0  0  0  0  0  0
  -26.3480  -13.0400   20.2020 N   0  0  0  0  0  0  0  0  0  0  0  0
  -26.0010  -11.7540   20.4670 N   0  0  0  0  0  0  0  0  0  0  0  0
  -23.9950  -10.5200   20.9880 C   0  0  0  0  0  0  0  0  0  0  0  0
  -24.4250   -9.5560   21.9270 C   0  0  0  0  0  3  0  0  0  0  0  0
  -23.7020   -8.3570   22.1050 C   0  0  0  0  0  3  0  0  0  0  0  0
  -22.5340   -8.1120   21.3430 C   0  0  0  0  0  0  0  0  0  0  0  0
  -22.1230   -9.0650   20.3930 C   0  0  0  0  0  3  0  0  0  0  0  0
  -22.8470  -10.2550   20.2130 C   0  0  0  0  0  3  0  0  0  0  0  0
  -21.7830   -6.9660   21.4300 O   0  0  0  0  0  0  0  0  0  0  0  0
  -21.7190   -6.2340   22.5900 C   0  0  0  0  0  0  0  0  0  0  0  0
  -21.2410   -6.7910   23.7980 C   0  0  0  0  0  3  0  0  0  0  0  0
  -21.1250   -5.9840   24.9480 C   0  0  0  0  0  3  0  0  0  0  0  0
  -21.4770   -4.6210   24.8910 C   0  0  0  0  0  0  0  0  0  0  0  0
  -21.9470   -4.0650   23.6890 C   0  0  0  0  0  3  0  0  0  0  0  0
  -22.0650   -4.8690   22.5430 C   0  0  0  0  0  0  0  0  0  0  0  0
  -22.4990   -4.3220   21.3810 F   0  0  0  0  0  0  0  0  0  0  0  0
  -21.3590   -3.8450   25.9920 F   0  0  0  0  0  0  0  0  0  0  0  0
  -22.8540  -13.6070   21.1420 C   0  0  0  0  0  0  0  0  0  0  0  0
  -22.1350  -12.8970   22.0040 N   0  0  0  0  0  0  0  0  0  0  0  0
  -22.4120  -14.6420   20.6450 O   0  0  0  0  0  0  0  0  0  0  0  0
  -22.5040  -12.0590   22.4300 H   0  0  0  0  0  0  0  0  0  0  0  0
  -21.2010  -13.1970   22.2440 H   0  0  0  0  0  0  0  0  0  0  0  0
  -25.4590  -15.2880   20.2970 N   0  0  0  0  0  0  0  0  0  0  0  0
  -24.6780  -15.9260   20.4230 H   0  0  0  0  0  0  0  0  0  0  0  0
  -26.2800  -15.7450   19.9230 H   0  0  0  0  0  0  0  0  0  0  0  0
  -31.5740  -20.5020   22.3520 N   0  0  0  0  0  0  0  0  0  0  0  0
  -31.9120  -20.2160   23.2660 H   0  0  0  0  0  0  0  0  0  0  0  0
  -31.1130  -21.4060   22.4030 H   0  0  0  0  0  0  0  0  0  0  0  0
  -27.2870  -21.9880   19.8060 C   0  0  0  0  0  1  0  0  0  0  0  0
  -28.3540  -21.8780   22.0560 C   0  0  0  0  0  1  0  0  0  0  0  0
  -28.6080  -22.2200   20.5700 C   0  0  1  0  0  0  0  0  0  0  0  0
  -29.0200  -23.8020   20.3840 C   0  0  0  0  0  2  0  0  0  0  0  0
  -27.9440  -25.2780   22.2720 C   0  0  0  0  0  1  0  0  0  0  0  0
  -28.0410  -25.0540   20.7480 C   0  0  0  0  0  3  0  0  0  0  0  0
  -28.3340  -26.4400   20.2360 O   0  0  0  0  0  0  0  0  0  0  0  0
  -24.5990  -31.8850   23.2310 C   0  0  0  0  0  0  0  0  0  0  0  0
  -27.2530  -27.3450   20.1680 C   0  0  0  0  0  0  0  0  0  0  0  0
  -23.4230  -30.5020   21.5640 C   0  0  0  0  0  3  0  0  0  0  0  0
  -24.8950  -28.9720   20.1350 C   0  0  0  0  0  0  0  0  0  0  0  0
  -25.9660  -30.8260   21.4140 C   0  0  0  0  0  2  0  0  0  0  0  0
  -26.0610  -29.4530   20.7500 C   0  0  0  0  0  0  0  0  0  0  0  0
  -27.2470  -28.6530   20.7530 C   0  0  0  0  0  3  0  0  0  0  0  0
  -26.0750  -26.9350   19.5100 C   0  0  0  0  0  3  0  0  0  0  0  0
  -24.9080  -27.7220   19.5020 C   0  0  0  0  0  3  0  0  0  0  0  0
  -23.6560  -29.8440   20.1780 C   0  0  0  0  0  2  0  0  0  0  0  0
  -24.6810  -31.0860   22.1280 N   0  0  0  0  0  0  0  0  0  0  0  0
  -23.5060  -32.1520   23.7540 O   0  0  0  0  0  0  0  0  0  0  0  0
  -22.7510  -29.4710   22.5040 C   0  0  0  0  0  0  0  0  0  0  0  0
  -21.4260  -29.2920   22.3560 N   0  0  0  0  0  0  0  0  0  0  0  0
  -23.4210  -28.8370   23.3240 O   0  0  0  0  0  0  0  0  0  0  0  0
  -20.9470  -29.8460   21.6600 H   0  0  0  0  0  0  0  0  0  0  0  0
  -18.0410  -28.1010   22.8220 C   0  0  0  0  0  0  0  0  0  0  0  0
  -20.5990  -28.3440   23.1080 C   0  0  0  0  0  3  0  0  0  0  0  0
  -20.7020  -26.9230   22.5090 C   0  0  0  0  0  2  0  0  0  0  0  0
  -19.6030  -26.6230   21.4850 C   0  0  0  0  0  2  0  0  0  0  0  0
  -18.2180  -26.7620   22.1240 C   0  0  0  0  0  2  0  0  0  0  0  0
  -19.1610  -28.8500   23.2710 C   0  0  0  0  0  0  0  0  0  0  0  0
  -18.9440  -30.1030   23.8840 C   0  0  0  0  0  3  0  0  0  0  0  0
  -17.6400  -30.6060   24.0530 C   0  0  0  0  0  3  0  0  0  0  0  0
  -16.5350  -29.8520   23.6240 C   0  0  0  0  0  3  0  0  0  0  0  0
  -16.7350  -28.6020   23.0110 C   0  0  0  0  0  3  0  0  0  0  0  0
  -25.8680  -32.5200   23.8760 C   0  0  0  0  0  3  0  0  0  0  0  0
  -26.3600  -31.7450   25.1590 C   0  0  1  0  0  0  0  0  0  0  0  0
  -25.2480  -31.5010   26.2060 C   0  0  0  0  0  1  0  0  0  0  0  0
  -26.9550  -30.3700   24.7750 C   0  0  0  0  0  1  0  0  0  0  0  0
  -27.4970  -32.5390   25.8470 C   0  0  0  0  0  1  0  0  0  0  0  0
  -25.5490  -33.9160   24.2050 N   0  0  0  0  0  0  0  0  0  0  0  0
  -25.8910  -34.9720   23.4570 C   0  0  0  0  0  0  0  0  0  0  0  0
  -26.5780  -34.8730   22.4360 O   0  0  0  0  0  0  0  0  0  0  0  0
  -24.9380  -34.0630   24.9950 H   0  0  0  0  0  0  0  0  0  0  0  0
  -24.1750  -36.7710   23.0730 C   0  0  0  0  0  1  0  0  0  0  0  0
  -25.3950  -36.3590   23.9120 C   0  0  0  0  0  3  0  0  0  0  0  0
  -27.5050  -37.2390   24.8070 C   0  0  0  0  0  1  0  0  0  0  0  0
  -26.4320  -37.4110   23.8310 N   0  0  0  0  0  0  0  0  0  0  0  0
  -26.0220  -38.3310   23.9700 H   0  0  0  0  0  0  0  0  0  0  0  0
  1 50  1  0
  1 10  1  0
  2 14  1  0
  3  8  1  0
  4  5  1  0
  4  3  1  0
  6  5  1  0
  6 20  1  0
  6  7  1  0
  8  2  1  0
  8  7  1  0
  9  2  2  0
 10 11  2  0
 11 15  1  0
 11 45  1  0
 12 15  1  0
 13 10  1  0
 13 12  2  0
 14 12  1  0
 16 14  1  0
 17 18  2  0
 18 37  1  0
 19 18  1  0
 19 22  1  0
 20 17  1  0
 20 21  1  0
 21 19  2  0
 22 23  1  0
 23 24  2  0
 25 28  1  0
 25 24  1  0
 26 25  2  0
 27 26  1  0
 27 22  2  0
 28 29  1  0
 29 30  1  0
 30 31  2  0
 32 31  1  0
 32 36  1  0
 33 32  2  0
 34 29  2  0
 34 33  1  0
 35 34  1  0
 37 38  1  0
 38 41  1  0
 38 40  1  0
 39 37  2  0
 42 43  1  0
 42 17  1  0
 44 42  1  0
 45 47  1  0
 45 46  1  0
 50 48  1  6
 50 49  1  0
 51 50  1  0
 51 53  1  0
 53 52  1  0
 54 53  1  0
 55 66  2  0
 56 54  1  0
 56 61  1  0
 57 65  1  0
 57 67  1  0
 58 64  1  0
 58 60  1  0
 59 65  1  0
 60 61  2  0
 60 59  1  0
 62 56  2  0
 63 62  1  0
 63 58  2  0
 64 57  1  0
 65 55  1  0
 67 69  2  0
 68 67  1  0
 70 68  1  0
 71 80  2  0
 71 76  1  0
 72 68  1  0
 72 76  1  0
 73 72  1  0
 74 75  1  0
 74 73  1  0
 75 71  1  0
 76 77  2  0
 77 78  1  0
 79 78  2  0
 80 79  1  0
 81 55  1  0
 81 86  1  0
 81 82  1  0
 82 85  1  1
 82 83  1  0
 84 82  1  0
 86 89  1  0
 87 91  1  0
 87 86  1  0
 88 87  2  0
 91 90  1  0
 93 91  1  0
 93 94  1  0
 93 92  1  0
M  ISO  4   2 100  14 100  53 101  54 101
M  END
>  <TORSDO>  (46) 
F 20

>  <SCORE>  (46) 
-14.111

>  <name>  (46) 
45

>  <ligand_id>  (46) 
45

>  <original_smiles>  (46) 
[H]c1c([H])c([H])c2c(c1[H])C([H])([H])C([H])([H])C([H])([H])C2([H])N([H])C(=O)C1([H])N(C(=O)C([H])(N([H])C(=O)C([H])(N([H])C([H])([H])[H])C([H])([H])[H])C(C([H])([H])[H])(C([H])([H])[H])C([H])([H])[H])C([H])([H])c2c([H])c(OC([H])(C([H])([H])[H])C([H])([H])C(C([H])([H])[H])(C([H])([H])[H])C([H])([H])c3nc(N([H])C(=O)N4C([H])([H])C([H])([H])C([H])([H])C([H])(n5nc(-c6c([H])c([H])c(Oc7c([H])c([H])c(F)c([H])c7F)c([H])c6[H])c(C(=O)N([H])[H])c5N([H])[H])C4([H])[H])sc3N([H])[H])c([H])c([H])c2C1([H])[H]

>  <smiles>  (46) 
[H]c1c([H])c([H])c2c(c1[H])C([H])([H])C([H])([H])C([H])([H])C2([H])N([H])C(=O)C1([H])N(C(=O)C([H])(N([H])C(=O)C([H])(N([H])C([H])([H])[H])C([H])([H])[H])C(C([H])([H])[H])(C([H])([H])[H])C([H])([H])[H])C([H])([H])c2c([H])c(OC([H])(C([H])([H])[H])C([H])([H])C(C([H])([H])[H])(C([H])([H])[H])C([H])([H])c3nc(N([H])C(=O)N4C([H])([H])C([H])([H])C([H])([H])C([H])(n5nc(-c6c([H])c([H])c(Oc7c([H])c([H])c(F)c([H])c7F)c([H])c6[H])c(C(=O)N([H])[H])c5N([H])[H])C4([H])[H])sc3N([H])[H])c([H])c([H])c2C1([H])[H]

$$$$
46:0:0
     RDKit          3D

 91 99  0  0  1  0  0  0  0  0999 V2000
  -29.0150  -23.7370   20.5440 C   0  0  0  0  0  0  0  0  0  0  0  0
  -28.7130  -22.4090   20.2520 N   0  0  0  0  0  0  0  0  0  0  0  0
  -30.1440  -24.0770   20.9100 O   0  0  0  0  0  0  0  0  0  0  0  0
  -27.8210  -22.3050   19.7900 H   0  0  0  0  0  0  0  0  0  0  0  0
  -29.1610  -19.8290   19.9090 C   0  0  0  0  0  3  0  0  0  0  0  0
  -30.2410  -20.9560   21.6380 C   0  0  0  0  0  3  0  0  0  0  0  0
  -29.3780  -21.1200   20.5820 C   0  0  0  0  0  0  0  0  0  0  0  0
  -29.8720  -18.7210   20.4170 C   0  0  0  0  0  0  0  0  0  0  0  0
  -30.7840  -19.2820   21.8050 S   0  0  0  0  0  0  0  0  0  0  0  0
  -30.1180  -17.2850   19.7940 C   0  0  0  0  0  2  0  0  0  0  0  0
  -30.6350  -14.7830   20.3000 C   0  0  0  0  0  0  0  0  0  0  0  0
  -30.4110  -12.5010   19.3160 C   0  0  0  0  0  2  0  0  0  0  0  0
  -29.4840  -12.5830   18.0810 C   0  0  0  0  0  2  0  0  0  0  0  0
  -28.0130  -12.4160   18.5030 C   0  0  0  0  0  2  0  0  0  0  0  0
  -27.6350  -13.3060   19.7170 C   0  0  0  0  0  3  0  0  0  0  0  0
  -28.6880  -13.2280   20.8460 C   0  0  0  0  0  2  0  0  0  0  0  0
  -29.9920  -13.5640   20.2630 N   0  0  0  0  0  0  0  0  0  0  0  0
  -31.8110  -14.8570   19.9330 O   0  0  0  0  0  0  0  0  0  0  0  0
  -29.8920  -15.9400   20.4930 N   0  0  0  0  0  0  0  0  0  0  0  0
  -28.9590  -15.7930   20.8470 H   0  0  0  0  0  0  0  0  0  0  0  0
  -25.2430  -13.8990   20.4200 C   0  0  0  0  0  0  0  0  0  0  0  0
  -24.1750  -13.1280   20.7920 C   0  0  0  0  0  0  0  0  0  0  0  0
  -24.6400  -11.7770   20.7790 C   0  0  0  0  0  0  0  0  0  0  0  0
  -26.2890  -13.0190   20.2010 N   0  0  0  0  0  0  0  0  0  0  0  0
  -25.9320  -11.7380   20.4790 N   0  0  0  0  0  0  0  0  0  0  0  0
  -23.9120  -10.5150   20.9760 C   0  0  0  0  0  0  0  0  0  0  0  0
  -24.3380   -9.5580   21.9240 C   0  0  0  0  0  3  0  0  0  0  0  0
  -23.6100   -8.3630   22.1090 C   0  0  0  0  0  3  0  0  0  0  0  0
  -22.4420   -8.1160   21.3500 C   0  0  0  0  0  0  0  0  0  0  0  0
  -22.0350   -9.0630   20.3930 C   0  0  0  0  0  3  0  0  0  0  0  0
  -22.7640  -10.2490   20.2050 C   0  0  0  0  0  3  0  0  0  0  0  0
  -21.6870   -6.9730   21.4450 O   0  0  0  0  0  0  0  0  0  0  0  0
  -21.6300   -6.2430   22.6050 C   0  0  0  0  0  0  0  0  0  0  0  0
  -21.1960   -6.8110   23.8220 C   0  0  0  0  0  3  0  0  0  0  0  0
  -21.0860   -6.0070   24.9750 C   0  0  0  0  0  3  0  0  0  0  0  0
  -21.3990   -4.6370   24.9100 C   0  0  0  0  0  0  0  0  0  0  0  0
  -21.8240   -4.0670   23.6960 C   0  0  0  0  0  3  0  0  0  0  0  0
  -21.9350   -4.8680   22.5470 C   0  0  0  0  0  0  0  0  0  0  0  0
  -22.3250   -4.3110   21.3750 F   0  0  0  0  0  0  0  0  0  0  0  0
  -21.2850   -3.8620   26.0140 F   0  0  0  0  0  0  0  0  0  0  0  0
  -22.7740  -13.6070   21.0460 C   0  0  0  0  0  0  0  0  0  0  0  0
  -22.0410  -12.9210   21.9150 N   0  0  0  0  0  0  0  0  0  0  0  0
  -22.3400  -14.6250   20.5080 O   0  0  0  0  0  0  0  0  0  0  0  0
  -22.4050  -12.0990   22.3730 H   0  0  0  0  0  0  0  0  0  0  0  0
  -21.1010  -13.2240   22.1280 H   0  0  0  0  0  0  0  0  0  0  0  0
  -25.4040  -15.2680   20.2260 N   0  0  0  0  0  0  0  0  0  0  0  0
  -24.6310  -15.9180   20.3160 H   0  0  0  0  0  0  0  0  0  0  0  0
  -26.2480  -15.7030   19.8750 H   0  0  0  0  0  0  0  0  0  0  0  0
  -27.0200  -24.7300   21.7110 C   0  0  0  0  0  1  0  0  0  0  0  0
  -27.8720  -24.8620   20.4250 C   0  0  0  0  0  3  0  0  0  0  0  0
  -28.2500  -26.3280   20.2620 O   0  0  0  0  0  0  0  0  0  0  0  0
  -24.5860  -31.8750   23.2010 C   0  0  0  0  0  0  0  0  0  0  0  0
  -27.1910  -27.2700   20.1530 C   0  0  0  0  0  0  0  0  0  0  0  0
  -23.3850  -30.4720   21.5650 C   0  0  0  0  0  3  0  0  0  0  0  0
  -24.8390  -28.9300   20.1290 C   0  0  0  0  0  0  0  0  0  0  0  0
  -25.9290  -30.7830   21.3840 C   0  0  0  0  0  2  0  0  0  0  0  0
  -26.0120  -29.4020   20.7340 C   0  0  0  0  0  0  0  0  0  0  0  0
  -27.1900  -28.5830   20.7390 C   0  0  0  0  0  3  0  0  0  0  0  0
  -26.0030  -26.8930   19.4800 C   0  0  0  0  0  3  0  0  0  0  0  0
  -24.8420  -27.6840   19.4880 C   0  0  0  0  0  3  0  0  0  0  0  0
  -23.6000  -29.8020   20.1830 C   0  0  0  0  0  2  0  0  0  0  0  0
  -24.6530  -31.0600   22.1070 N   0  0  0  0  0  0  0  0  0  0  0  0
  -23.5010  -32.1490   23.7360 O   0  0  0  0  0  0  0  0  0  0  0  0
  -22.7230  -29.4530   22.5260 C   0  0  0  0  0  0  0  0  0  0  0  0
  -21.3960  -29.2800   22.4110 N   0  0  0  0  0  0  0  0  0  0  0  0
  -23.4060  -28.8220   23.3380 O   0  0  0  0  0  0  0  0  0  0  0  0
  -20.9030  -29.8420   21.7300 H   0  0  0  0  0  0  0  0  0  0  0  0
  -18.0180  -28.0940   22.9430 C   0  0  0  0  0  0  0  0  0  0  0  0
  -20.5800  -28.3440   23.1880 C   0  0  0  0  0  3  0  0  0  0  0  0
  -20.6710  -26.9130   22.6070 C   0  0  0  0  0  2  0  0  0  0  0  0
  -19.5580  -26.5980   21.6030 C   0  0  0  0  0  2  0  0  0  0  0  0
  -18.1830  -26.7460   22.2610 C   0  0  0  0  0  2  0  0  0  0  0  0
  -19.1430  -28.8510   23.3650 C   0  0  0  0  0  0  0  0  0  0  0  0
  -18.9340  -30.1120   23.9640 C   0  0  0  0  0  3  0  0  0  0  0  0
  -17.6330  -30.6160   24.1460 C   0  0  0  0  0  3  0  0  0  0  0  0
  -16.5220  -29.8560   23.7390 C   0  0  0  0  0  3  0  0  0  0  0  0
  -16.7160  -28.5970   23.1440 C   0  0  0  0  0  3  0  0  0  0  0  0
  -25.8650  -32.5150   23.8190 C   0  0  0  0  0  3  0  0  0  0  0  0
  -26.3940  -31.7400   25.0890 C   0  0  1  0  0  0  0  0  0  0  0  0
  -25.3070  -31.4870   26.1600 C   0  0  0  0  0  1  0  0  0  0  0  0
  -26.9830  -30.3690   24.6850 C   0  0  0  0  0  1  0  0  0  0  0  0
  -27.5440  -32.5360   25.7470 C   0  0  0  0  0  1  0  0  0  0  0  0
  -25.5430  -33.9080   24.1620 N   0  0  0  0  0  0  0  0  0  0  0  0
  -25.8630  -34.9720   23.4140 C   0  0  0  0  0  0  0  0  0  0  0  0
  -26.5270  -34.8830   22.3770 O   0  0  0  0  0  0  0  0  0  0  0  0
  -24.9530  -34.0500   24.9700 H   0  0  0  0  0  0  0  0  0  0  0  0
  -24.1220  -36.7570   23.0820 C   0  0  0  0  0  1  0  0  0  0  0  0
  -25.3690  -36.3530   23.8860 C   0  0  0  0  0  3  0  0  0  0  0  0
  -27.5000  -37.2410   24.7200 C   0  0  0  0  0  1  0  0  0  0  0  0
  -26.3950  -37.4140   23.7810 N   0  0  0  0  0  0  0  0  0  0  0  0
  -25.9840  -38.3300   23.9400 H   0  0  0  0  0  0  0  0  0  0  0  0
  1  3  2  0
  2  1  1  0
  2  7  1  0
  4  2  1  0
  5  8  2  0
  5  7  1  0
  6  9  1  0
  7  6  2  0
  8  9  1  0
 10  8  1  0
 10 19  1  0
 11 19  1  0
 12 17  1  0
 13 14  1  0
 13 12  1  0
 15 14  1  0
 15 24  1  0
 15 16  1  0
 17 11  1  0
 17 16  1  0
 18 11  2  0
 19 20  1  0
 21 22  2  0
 22 41  1  0
 23 22  1  0
 23 26  1  0
 24 21  1  0
 24 25  1  0
 25 23  2  0
 26 27  1  0
 27 28  2  0
 29 32  1  0
 29 28  1  0
 30 29  2  0
 31 30  1  0
 31 26  2  0
 32 33  1  0
 33 34  1  0
 34 35  2  0
 36 35  1  0
 36 40  1  0
 37 36  2  0
 38 33  2  0
 38 37  1  0
 39 38  1  0
 41 42  1  0
 42 45  1  0
 42 44  1  0
 43 41  2  0
 46 47  1  0
 46 21  1  0
 48 46  1  0
 50  1  1  0
 50 49  1  0
 51 50  1  0
 52 63  2  0
 53 51  1  0
 53 58  1  0
 54 62  1  0
 54 64  1  0
 55 61  1  0
 55 57  1  0
 56 62  1  0
 57 58  2  0
 57 56  1  0
 59 60  1  0
 59 53  2  0
 60 55  2  0
 61 54  1  0
 62 52  1  0
 64 66  2  0
 65 64  1  0
 67 65  1  0
 68 77  2  0
 68 73  1  0
 69 65  1  0
 69 73  1  0
 70 69  1  0
 71 72  1  0
 71 70  1  0
 72 68  1  0
 73 74  2  0
 74 75  1  0
 76 75  2  0
 77 76  1  0
 78 52  1  0
 78 83  1  0
 78 79  1  0
 79 82  1  1
 79 80  1  0
 81 79  1  0
 83 86  1  0
 84 88  1  0
 84 83  1  0
 85 84  2  0
 88 87  1  0
 90 88  1  0
 90 91  1  0
 90 89  1  0
M  ISO  4  11 100  19 100  50 101  51 101
M  END
>  <TORSDO>  (47) 
F 19

>  <SCORE>  (47) 
-14.216

>  <name>  (47) 
46

>  <ligand_id>  (47) 
46

>  <original_smiles>  (47) 
[H]c1sc(C([H])([H])N([H])C(=O)N2C([H])([H])C([H])([H])C([H])([H])C([H])(n3nc(-c4c([H])c([H])c(Oc5c([H])c([H])c(F)c([H])c5F)c([H])c4[H])c(C(=O)N([H])[H])c3N([H])[H])C2([H])[H])c([H])c1N([H])C(=O)C([H])(Oc1c([H])c([H])c2c(c1[H])C([H])([H])N(C(=O)C([H])(N([H])C(=O)C([H])(N([H])C([H])([H])[H])C([H])([H])[H])C(C([H])([H])[H])(C([H])([H])[H])C([H])([H])[H])C([H])(C(=O)N([H])C1([H])c3c([H])c([H])c([H])c([H])c3C([H])([H])C([H])([H])C1([H])[H])C2([H])[H])C([H])([H])[H]

>  <smiles>  (47) 
[H]c1sc(C([H])([H])N([H])C(=O)N2C([H])([H])C([H])([H])C([H])([H])C([H])(n3nc(-c4c([H])c([H])c(Oc5c([H])c([H])c(F)c([H])c5F)c([H])c4[H])c(C(=O)N([H])[H])c3N([H])[H])C2([H])[H])c([H])c1N([H])C(=O)C([H])(Oc1c([H])c([H])c2c(c1[H])C([H])([H])N(C(=O)C([H])(N([H])C(=O)C([H])(N([H])C([H])([H])[H])C([H])([H])[H])C(C([H])([H])[H])(C([H])([H])[H])C([H])([H])[H])C([H])(C(=O)N([H])C1([H])c3c([H])c([H])c([H])c([H])c3C([H])([H])C([H])([H])C1([H])[H])C2([H])[H])C([H])([H])[H]

$$$$
47:0:0
     RDKit          3D

100108  0  0  1  0  0  0  0  0999 V2000
  -28.4840  -22.2270   23.6850 C   0  0  0  0  0  1  0  0  0  0  0  0
  -27.8670  -22.5000   21.2640 C   0  0  0  0  0  1  0  0  0  0  0  0
  -29.0490  -22.2850   22.2430 C   0  0  2  0  0  0  0  0  0  0  0  0
  -29.6690  -20.9920   21.8590 N   0  0  0  0  0  4  0  0  0  0  0  0
  -28.9660  -20.2740   21.8350 H   0  0  0  0  0  0  0  0  0  0  0  0
  -29.9840  -21.1690   20.9130 H   0  0  0  0  0  0  0  0  0  0  0  0
  -30.8370  -20.4980   22.6220 C   0  0  0  0  0  2  0  0  0  0  0  0
  -32.4010  -17.5030   20.8970 C   0  0  0  0  0  3  0  0  0  0  0  0
  -32.3490  -18.8600   21.3210 C   0  0  0  0  0  0  0  0  0  0  0  0
  -31.2610  -19.1690   22.0910 C   0  0  0  0  0  0  0  0  0  0  0  0
  -31.3290  -16.7660   21.3480 C   0  0  0  0  0  0  0  0  0  0  0  0
  -33.2570  -19.7370   20.9640 F   0  0  0  0  0  0  0  0  0  0  0  0
  -30.3030  -17.7420   22.3720 S   0  0  0  0  0  0  0  0  0  0  0  0
  -31.3830  -14.6850   20.1090 C   0  0  0  0  0  0  0  0  0  0  0  0
  -30.9340  -12.5620   18.9340 C   0  0  0  0  0  2  0  0  0  0  0  0
  -29.9730  -12.7680   17.7490 C   0  0  0  0  0  2  0  0  0  0  0  0
  -28.5060  -12.6950   18.2140 C   0  0  0  0  0  2  0  0  0  0  0  0
  -28.2280  -13.5950   19.4450 C   0  0  0  0  0  3  0  0  0  0  0  0
  -29.2870  -13.3520   20.5430 C   0  0  0  0  0  2  0  0  0  0  0  0
  -30.6280  -13.5680   19.9610 N   0  0  0  0  0  0  0  0  0  0  0  0
  -32.3780  -14.9310   19.4180 O   0  0  0  0  0  0  0  0  0  0  0  0
  -30.9910  -15.4740   21.1200 N   0  0  0  0  0  0  0  0  0  0  0  0
  -30.1870  -15.1290   21.6230 H   0  0  0  0  0  0  0  0  0  0  0  0
  -25.8810  -14.3370   20.2110 C   0  0  0  0  0  0  0  0  0  0  0  0
  -24.7810  -13.6240   20.6050 C   0  0  0  0  0  0  0  0  0  0  0  0
  -25.1650  -12.2500   20.5590 C   0  0  0  0  0  0  0  0  0  0  0  0
  -26.8710  -13.4010   19.9540 N   0  0  0  0  0  0  0  0  0  0  0  0
  -26.4420  -12.1390   20.2150 N   0  0  0  0  0  0  0  0  0  0  0  0
  -24.3750  -11.0280   20.7650 C   0  0  0  0  0  0  0  0  0  0  0  0
  -24.7560  -10.0560   21.7160 C   0  0  0  0  0  3  0  0  0  0  0  0
  -23.9720   -8.8980   21.9090 C   0  0  0  0  0  3  0  0  0  0  0  0
  -22.7930   -8.7050   21.1490 C   0  0  0  0  0  0  0  0  0  0  0  0
  -22.4310   -9.6650   20.1890 C   0  0  0  0  0  3  0  0  0  0  0  0
  -23.2160  -10.8140   19.9940 C   0  0  0  0  0  3  0  0  0  0  0  0
  -21.9830   -7.6000   21.2500 O   0  0  0  0  0  0  0  0  0  0  0  0
  -21.8490   -6.9100   22.4290 C   0  0  0  0  0  0  0  0  0  0  0  0
  -21.4190   -7.5420   23.6160 C   0  0  0  0  0  3  0  0  0  0  0  0
  -21.2280   -6.7820   24.7880 C   0  0  0  0  0  3  0  0  0  0  0  0
  -21.4580   -5.3920   24.7730 C   0  0  0  0  0  0  0  0  0  0  0  0
  -21.8810   -4.7610   23.5900 C   0  0  0  0  0  3  0  0  0  0  0  0
  -22.0730   -5.5190   22.4200 C   0  0  0  0  0  0  0  0  0  0  0  0
  -22.4600   -4.9030   21.2780 F   0  0  0  0  0  0  0  0  0  0  0  0
  -21.2670   -4.6610   25.8950 F   0  0  0  0  0  0  0  0  0  0  0  0
  -23.4200  -14.1760   20.9180 C   0  0  0  0  0  0  0  0  0  0  0  0
  -22.6900  -13.5330   21.8230 N   0  0  0  0  0  0  0  0  0  0  0  0
  -23.0140  -15.2140   20.3950 O   0  0  0  0  0  0  0  0  0  0  0  0
  -23.0310  -12.6940   22.2680 H   0  0  0  0  0  0  0  0  0  0  0  0
  -21.7770  -13.8850   22.0750 H   0  0  0  0  0  0  0  0  0  0  0  0
  -26.1180  -15.6980   20.0330 N   0  0  0  0  0  0  0  0  0  0  0  0
  -25.3920  -16.3950   20.1600 H   0  0  0  0  0  0  0  0  0  0  0  0
  -26.9870  -16.0880   19.6900 H   0  0  0  0  0  0  0  0  0  0  0  0
  -30.1560  -23.3820   22.0750 C   0  0  0  0  0  3  0  0  0  0  0  0
  -30.9040  -23.0790   20.8970 O   0  0  0  0  0  0  0  0  0  0  0  0
  -31.6480  -23.6710   20.8630 H   0  0  0  0  0  0  0  0  0  0  0  0
  -29.7090  -24.8650   22.0740 C   0  0  0  0  0  0  0  0  0  0  0  0
  -28.6160  -25.2090   22.5300 O   0  0  0  0  0  0  0  0  0  0  0  0
  -30.7000  -25.8930   21.4950 C   0  0  0  0  0  2  0  0  0  0  0  0
  -29.9470  -27.9290   22.8480 C   0  0  0  0  0  1  0  0  0  0  0  0
  -30.2010  -27.3560   21.4280 C   0  0  0  0  0  3  0  0  0  0  0  0
  -29.1580  -27.3250   20.4360 O   0  0  0  0  0  0  0  0  0  0  0  0
  -25.0210  -32.0920   23.7700 C   0  0  0  0  0  0  0  0  0  0  0  0
  -27.9930  -28.0570   20.5040 C   0  0  0  0  0  0  0  0  0  0  0  0
  -23.9320  -30.7660   21.9850 C   0  0  0  0  0  3  0  0  0  0  0  0
  -25.5050  -29.4040   20.5130 C   0  0  0  0  0  0  0  0  0  0  0  0
  -26.4340  -31.2750   21.8930 C   0  0  0  0  0  2  0  0  0  0  0  0
  -26.6100  -29.9620   21.1650 C   0  0  0  0  0  0  0  0  0  0  0  0
  -27.8570  -29.3120   21.1370 C   0  0  0  0  0  3  0  0  0  0  0  0
  -26.8720  -27.5110   19.8430 C   0  0  0  0  0  3  0  0  0  0  0  0
  -25.6310  -28.1760   19.8390 C   0  0  0  0  0  3  0  0  0  0  0  0
  -24.2170  -30.1910   20.5700 C   0  0  0  0  0  2  0  0  0  0  0  0
  -25.1440  -31.3870   22.6110 N   0  0  0  0  0  0  0  0  0  0  0  0
  -23.9130  -32.2730   24.2930 O   0  0  0  0  0  0  0  0  0  0  0  0
  -23.3010  -29.6500   22.8460 C   0  0  0  0  0  0  0  0  0  0  0  0
  -21.9950  -29.4080   22.6420 N   0  0  0  0  0  0  0  0  0  0  0  0
  -23.9820  -29.0080   23.6500 O   0  0  0  0  0  0  0  0  0  0  0  0
  -21.5070  -29.9830   21.9700 H   0  0  0  0  0  0  0  0  0  0  0  0
  -18.6830  -27.9870   22.8560 C   0  0  0  0  0  0  0  0  0  0  0  0
  -21.1970  -28.3790   23.3080 C   0  0  0  0  0  3  0  0  0  0  0  0
  -21.4250  -26.9940   22.6620 C   0  0  0  0  0  2  0  0  0  0  0  0
  -20.4100  -26.6650   21.5620 C   0  0  0  0  0  2  0  0  0  0  0  0
  -18.9850  -26.6920   22.1220 C   0  0  0  0  0  2  0  0  0  0  0  0
  -19.7230  -28.7880   23.3980 C   0  0  0  0  0  0  0  0  0  0  0  0
  -19.3910  -30.0010   24.0390 C   0  0  0  0  0  3  0  0  0  0  0  0
  -18.0500  -30.4160   24.1440 C   0  0  0  0  0  3  0  0  0  0  0  0
  -17.0240  -29.6110   23.6190 C   0  0  0  0  0  3  0  0  0  0  0  0
  -17.3400  -28.3990   22.9820 C   0  0  0  0  0  3  0  0  0  0  0  0
  -26.2580  -32.7260   24.4810 C   0  0  0  0  0  3  0  0  0  0  0  0
  -25.9080  -34.1090   24.8260 N   0  0  0  0  0  0  0  0  0  0  0  0
  -26.2770  -35.1840   24.1180 C   0  0  0  0  0  0  0  0  0  0  0  0
  -27.0170  -35.1170   23.1330 O   0  0  0  0  0  0  0  0  0  0  0  0
  -25.2530  -34.2330   25.5840 H   0  0  0  0  0  0  0  0  0  0  0  0
  -24.5460  -36.9580   23.6930 C   0  0  0  0  0  1  0  0  0  0  0  0
  -25.7390  -36.5530   24.5750 C   0  0  0  0  0  3  0  0  0  0  0  0
  -27.8040  -37.4440   25.5590 C   0  0  0  0  0  1  0  0  0  0  0  0
  -26.7590  -37.6230   24.5540 N   0  0  0  0  0  0  0  0  0  0  0  0
  -26.3300  -38.5330   24.6990 H   0  0  0  0  0  0  0  0  0  0  0  0
  -26.7180  -31.9270   25.7620 C   0  0  1  0  0  0  0  0  0  0  0  0
  -25.5680  -31.6220   26.7500 C   0  0  0  0  0  1  0  0  0  0  0  0
  -27.3660  -30.5810   25.3590 C   0  0  0  0  0  1  0  0  0  0  0  0
  -27.7970  -32.7310   26.5220 C   0  0  0  0  0  1  0  0  0  0  0  0
  3  2  1  6
  3  1  1  0
  4  3  1  0
  4  7  1  0
  5  4  1  0
  6  4  1  0
  8  9  1  0
  8 11  2  0
  9 10  2  0
 10 13  1  0
 10  7  1  0
 11 13  1  0
 12  9  1  0
 14 22  1  0
 15 20  1  0
 16 17  1  0
 16 15  1  0
 18 17  1  0
 18 27  1  0
 18 19  1  0
 20 14  1  0
 20 19  1  0
 21 14  2  0
 22 11  1  0
 22 23  1  0
 24 25  2  0
 25 44  1  0
 26 25  1  0
 26 29  1  0
 27 24  1  0
 27 28  1  0
 28 26  2  0
 29 30  1  0
 30 31  2  0
 32 35  1  0
 32 31  1  0
 33 32  2  0
 34 33  1  0
 34 29  2  0
 35 36  1  0
 36 37  1  0
 37 38  2  0
 39 38  1  0
 39 43  1  0
 40 39  2  0
 41 36  2  0
 41 40  1  0
 42 41  1  0
 44 45  1  0
 45 48  1  0
 45 47  1  0
 46 44  2  0
 49 50  1  0
 49 24  1  0
 51 49  1  0
 52 53  1  0
 52  3  1  0
 54 53  1  0
 55 52  1  0
 55 56  2  0
 57 55  1  0
 59 57  1  0
 59 58  1  0
 60 62  1  0
 60 59  1  0
 61 72  2  0
 62 67  1  0
 63 71  1  0
 63 73  1  0
 64 70  1  0
 64 66  1  0
 65 71  1  0
 66 65  1  0
 67 66  2  0
 68 62  2  0
 69 68  1  0
 69 64  2  0
 70 63  1  0
 71 61  1  0
 73 75  2  0
 74 73  1  0
 76 74  1  0
 77 86  2  0
 77 82  1  0
 78 74  1  0
 78 82  1  0
 79 78  1  0
 80 81  1  0
 80 79  1  0
 81 77  1  0
 82 83  2  0
 83 84  1  0
 85 84  2  0
 86 85  1  0
 87 61  1  0
 87 88  1  0
 87 97  1  0
 88 91  1  0
 89 93  1  0
 89 88  1  0
 90 89  2  0
 93 92  1  0
 95 93  1  0
 95 96  1  0
 95 94  1  0
 97100  1  1
 97 98  1  0
 99 97  1  0
M  ISO  4  14 100  22 100  59 101  60 101
M  END
>  <TORSDO>  (48) 
F 24

>  <SCORE>  (48) 
-9.464

>  <name>  (48) 
47

>  <ligand_id>  (48) 
47

>  <original_smiles>  (48) 
[H]OC([H])(C(=O)C([H])([H])C([H])(Oc1c([H])c([H])c2c(c1[H])C([H])([H])N(C(=O)C([H])(N([H])C(=O)C([H])(N([H])C([H])([H])[H])C([H])([H])[H])C(C([H])([H])[H])(C([H])([H])[H])C([H])([H])[H])C([H])(C(=O)N([H])C1([H])c3c([H])c([H])c([H])c([H])c3C([H])([H])C([H])([H])C1([H])[H])C2([H])[H])C([H])([H])[H])C(C([H])([H])[H])(C([H])([H])[H])[N+]([H])([H])C([H])([H])c1sc(N([H])C(=O)N2C([H])([H])C([H])([H])C([H])([H])C([H])(n3nc(-c4c([H])c([H])c(Oc5c([H])c([H])c(F)c([H])c5F)c([H])c4[H])c(C(=O)N([H])[H])c3N([H])[H])C2([H])[H])c([H])c1F

>  <smiles>  (48) 
[H]OC([H])(C(=O)C([H])([H])C([H])(Oc1c([H])c([H])c2c(c1[H])C([H])([H])N(C(=O)C([H])(N([H])C(=O)C([H])(N([H])C([H])([H])[H])C([H])([H])[H])C(C([H])([H])[H])(C([H])([H])[H])C([H])([H])[H])C([H])(C(=O)N([H])C1([H])c3c([H])c([H])c([H])c([H])c3C([H])([H])C([H])([H])C1([H])[H])C2([H])[H])C([H])([H])[H])C(C([H])([H])[H])(C([H])([H])[H])[N+]([H])([H])C([H])([H])c1sc(N([H])C(=O)N2C([H])([H])C([H])([H])C([H])([H])C([H])(n3nc(-c4c([H])c([H])c(Oc5c([H])c([H])c(F)c([H])c5F)c([H])c4[H])c(C(=O)N([H])[H])c3N([H])[H])C2([H])[H])c([H])c1F

$$$$
48:0:0
     RDKit          3D

 97105  0  0  1  0  0  0  0  0999 V2000
  -30.7250  -18.2190   20.6000 C   0  0  0  0  0  0  0  0  0  0  0  0
  -30.4310  -18.7730   21.8310 C   0  0  0  0  0  0  0  0  0  0  0  0
  -29.3370  -19.8940   19.9290 C   0  0  0  0  0  0  0  0  0  0  0  0
  -28.2920  -21.9980   19.1730 C   0  0  0  0  0  0  0  0  0  0  0  0
  -30.0620  -18.8480   19.5340 N   0  0  0  0  0  0  0  0  0  0  0  0
  -28.7110  -20.7330   18.9770 N   0  0  0  0  0  0  0  0  0  0  0  0
  -28.5550  -22.6450   20.1870 O   0  0  0  0  0  0  0  0  0  0  0  0
  -29.2440  -20.0490   21.6790 S   0  0  0  0  0  0  0  0  0  0  0  0
  -28.5730  -20.3300   18.0610 H   0  0  0  0  0  0  0  0  0  0  0  0
  -31.3040  -17.0570   23.5470 C   0  0  0  0  0  1  0  0  0  0  0  0
  -31.0250  -18.5260   23.1940 C   0  0  0  0  0  3  0  0  0  0  0  0
  -32.0850  -20.8850   23.0580 C   0  0  0  0  0  1  0  0  0  0  0  0
  -32.2490  -19.4190   23.4900 C   0  0  0  0  0  2  0  0  0  0  0  0
  -25.9390  -22.4500   18.4210 C   0  0  0  0  0  1  0  0  0  0  0  0
  -27.4280  -22.6430   18.0720 C   0  0  0  0  0  3  0  0  0  0  0  0
  -27.7440  -24.1360   17.7580 C   0  0  0  0  0  2  0  0  0  0  0  0
  -27.7480  -25.1340   18.9400 C   0  0  0  0  0  2  0  0  0  0  0  0
  -27.7420  -26.4940   18.4860 O   0  0  0  0  0  0  0  0  0  0  0  0
  -24.6520  -31.2330   22.7900 C   0  0  0  0  0  0  0  0  0  0  0  0
  -26.6090  -27.2360   18.7430 C   0  0  0  0  0  0  0  0  0  0  0  0
  -23.1560  -30.1400   21.1500 C   0  0  0  0  0  3  0  0  0  0  0  0
  -24.3140  -28.7900   19.3220 C   0  0  0  0  0  0  0  0  0  0  0  0
  -25.6450  -30.4420   20.6470 C   0  0  0  0  0  2  0  0  0  0  0  0
  -25.5660  -29.1850   19.8060 C   0  0  0  0  0  0  0  0  0  0  0  0
  -26.7170  -28.4200   19.5080 C   0  0  0  0  0  3  0  0  0  0  0  0
  -25.3390  -26.8620   18.2490 C   0  0  0  0  0  3  0  0  0  0  0  0
  -24.1960  -27.6300   18.5350 C   0  0  0  0  0  3  0  0  0  0  0  0
  -23.1350  -29.6670   19.6700 C   0  0  0  0  0  2  0  0  0  0  0  0
  -24.5100  -30.6090   21.5860 N   0  0  0  0  0  0  0  0  0  0  0  0
  -23.6720  -31.4610   23.5130 O   0  0  0  0  0  0  0  0  0  0  0  0
  -22.5840  -29.0130   22.0360 C   0  0  0  0  0  0  0  0  0  0  0  0
  -21.2540  -28.8410   21.9980 N   0  0  0  0  0  0  0  0  0  0  0  0
  -23.3310  -28.3000   22.7120 O   0  0  0  0  0  0  0  0  0  0  0  0
  -20.7130  -29.4740   21.4270 H   0  0  0  0  0  0  0  0  0  0  0  0
  -17.9410  -27.4920   22.5140 C   0  0  0  0  0  0  0  0  0  0  0  0
  -20.4970  -27.8150   22.7170 C   0  0  0  0  0  3  0  0  0  0  0  0
  -20.6220  -26.4410   22.0180 C   0  0  0  0  0  2  0  0  0  0  0  0
  -19.4920  -26.1630   21.0210 C   0  0  0  0  0  2  0  0  0  0  0  0
  -18.1340  -26.2080   21.7240 C   0  0  0  0  0  2  0  0  0  0  0  0
  -19.0510  -28.2540   22.9660 C   0  0  0  0  0  0  0  0  0  0  0  0
  -18.8150  -29.4580   23.6650 C   0  0  0  0  0  3  0  0  0  0  0  0
  -17.5030  -29.8970   23.9210 C   0  0  0  0  0  3  0  0  0  0  0  0
  -16.4080  -29.1300   23.4850 C   0  0  0  0  0  3  0  0  0  0  0  0
  -16.6290  -27.9300   22.7860 C   0  0  0  0  0  3  0  0  0  0  0  0
  -26.0460  -31.7140   23.3070 C   0  0  0  0  0  3  0  0  0  0  0  0
  -25.8580  -33.0220   23.9450 N   0  0  0  0  0  0  0  0  0  0  0  0
  -26.1900  -34.1950   23.3880 C   0  0  0  0  0  0  0  0  0  0  0  0
  -26.7620  -34.2800   22.2980 O   0  0  0  0  0  0  0  0  0  0  0  0
  -25.3520  -33.0330   24.8180 H   0  0  0  0  0  0  0  0  0  0  0  0
  -24.5610  -36.1020   23.5600 C   0  0  0  0  0  1  0  0  0  0  0  0
  -25.8270  -35.4750   24.1630 C   0  0  0  0  0  3  0  0  0  0  0  0
  -28.0650  -36.0580   24.9850 C   0  0  0  0  0  1  0  0  0  0  0  0
  -26.9160  -36.4740   24.1860 N   0  0  0  0  0  0  0  0  0  0  0  0
  -26.5830  -37.3620   24.5490 H   0  0  0  0  0  0  0  0  0  0  0  0
  -26.7220  -30.6960   24.3060 C   0  0  1  0  0  0  0  0  0  0  0  0
  -25.8040  -30.2690   25.4740 C   0  0  0  0  0  1  0  0  0  0  0  0
  -27.1670  -29.4150   23.5620 C   0  0  0  0  0  1  0  0  0  0  0  0
  -28.0010  -31.3250   24.9090 C   0  0  0  0  0  1  0  0  0  0  0  0
  -31.6900  -17.1110   20.2810 C   0  0  0  0  0  2  0  0  0  0  0  0
  -31.6380  -14.6820   19.7980 C   0  0  0  0  0  0  0  0  0  0  0  0
  -31.2100  -12.3930   19.0030 C   0  0  0  0  0  2  0  0  0  0  0  0
  -30.2400  -12.4350   17.8060 C   0  0  0  0  0  2  0  0  0  0  0  0
  -28.7770  -12.4090   18.2880 C   0  0  0  0  0  2  0  0  0  0  0  0
  -28.4960  -13.4500   19.4060 C   0  0  0  0  0  3  0  0  0  0  0  0
  -29.5830  -13.3970   20.5060 C   0  0  0  0  0  2  0  0  0  0  0  0
  -30.8980  -13.5470   19.8600 N   0  0  0  0  0  0  0  0  0  0  0  0
  -32.7490  -14.7330   19.2670 O   0  0  0  0  0  0  0  0  0  0  0  0
  -31.0520  -15.7950   20.2500 N   0  0  0  0  0  0  0  0  0  0  0  0
  -30.1040  -15.7290   20.5850 H   0  0  0  0  0  0  0  0  0  0  0  0
  -26.2100  -14.2470   20.2830 C   0  0  0  0  0  0  0  0  0  0  0  0
  -25.0940  -13.5630   20.6790 C   0  0  0  0  0  0  0  0  0  0  0  0
  -25.4180  -12.1770   20.5650 C   0  0  0  0  0  0  0  0  0  0  0  0
  -27.1520  -13.2850   19.9570 N   0  0  0  0  0  0  0  0  0  0  0  0
  -26.6810  -12.0310   20.1850 N   0  0  0  0  0  0  0  0  0  0  0  0
  -24.5820  -10.9810   20.7400 C   0  0  0  0  0  0  0  0  0  0  0  0
  -24.9310   -9.9660   21.6570 C   0  0  0  0  0  3  0  0  0  0  0  0
  -24.1000   -8.8370   21.8230 C   0  0  0  0  0  3  0  0  0  0  0  0
  -22.9060   -8.7170   21.0730 C   0  0  0  0  0  0  0  0  0  0  0  0
  -22.5770   -9.7190   20.1440 C   0  0  0  0  0  3  0  0  0  0  0  0
  -23.4070  -10.8400   19.9750 C   0  0  0  0  0  3  0  0  0  0  0  0
  -22.0520   -7.6430   21.1500 O   0  0  0  0  0  0  0  0  0  0  0  0
  -21.8770   -6.9440   22.3170 C   0  0  0  0  0  0  0  0  0  0  0  0
  -21.4160   -7.5670   23.4970 C   0  0  0  0  0  3  0  0  0  0  0  0
  -21.1870   -6.7990   24.6560 C   0  0  0  0  0  3  0  0  0  0  0  0
  -21.4050   -5.4090   24.6330 C   0  0  0  0  0  0  0  0  0  0  0  0
  -21.8550   -4.7850   23.4550 C   0  0  0  0  0  3  0  0  0  0  0  0
  -22.0870   -5.5510   22.2990 C   0  0  0  0  0  0  0  0  0  0  0  0
  -22.5020   -4.9420   21.1630 F   0  0  0  0  0  0  0  0  0  0  0  0
  -21.1740   -4.6650   25.7410 F   0  0  0  0  0  0  0  0  0  0  0  0
  -23.7650  -14.1570   21.0490 C   0  0  0  0  0  0  0  0  0  0  0  0
  -23.0300  -13.5070   21.9440 N   0  0  0  0  0  0  0  0  0  0  0  0
  -23.3940  -15.2320   20.5770 O   0  0  0  0  0  0  0  0  0  0  0  0
  -23.3430  -12.6350   22.3460 H   0  0  0  0  0  0  0  0  0  0  0  0
  -22.1400  -13.8890   22.2310 H   0  0  0  0  0  0  0  0  0  0  0  0
  -26.4970  -15.6040   20.1560 N   0  0  0  0  0  0  0  0  0  0  0  0
  -25.7990  -16.3130   20.3500 H   0  0  0  0  0  0  0  0  0  0  0  0
  -27.3660  -15.9890   19.8110 H   0  0  0  0  0  0  0  0  0  0  0  0
  1  2  2  0
  2 11  1  0
  3  8  1  0
  4  7  2  0
  5  3  2  0
  5  1  1  0
  6  4  1  0
  6  3  1  0
  8  2  1  0
  9  6  1  0
 11 13  1  0
 11 10  1  0
 12 13  1  0
 15 14  1  0
 15  4  1  0
 16 15  1  0
 16 17  1  0
 18 20  1  0
 18 17  1  0
 19 30  2  0
 20 25  1  0
 21 29  1  0
 21 31  1  0
 22 28  1  0
 22 24  1  0
 23 29  1  0
 24 23  1  0
 25 24  2  0
 26 27  1  0
 26 20  2  0
 27 22  2  0
 28 21  1  0
 29 19  1  0
 31 33  2  0
 32 31  1  0
 34 32  1  0
 35 44  2  0
 35 40  1  0
 36 32  1  0
 36 40  1  0
 37 36  1  0
 38 39  1  0
 38 37  1  0
 39 35  1  0
 40 41  2  0
 41 42  1  0
 43 42  2  0
 44 43  1  0
 45 19  1  0
 45 46  1  0
 45 55  1  0
 46 49  1  0
 47 46  1  0
 47 51  1  0
 48 47  2  0
 51 50  1  0
 51 53  1  0
 53 54  1  0
 53 52  1  0
 55 58  1  1
 55 56  1  0
 57 55  1  0
 59  1  1  0
 60 66  1  0
 60 68  1  0
 61 66  1  0
 62 63  1  0
 62 61  1  0
 64 63  1  0
 64 73  1  0
 64 65  1  0
 66 65  1  0
 67 60  2  0
 68 59  1  0
 68 69  1  0
 70 71  2  0
 71 90  1  0
 72 71  1  0
 72 75  1  0
 73 74  1  0
 73 70  1  0
 74 72  2  0
 75 76  1  0
 76 77  2  0
 78 81  1  0
 78 77  1  0
 79 78  2  0
 80 79  1  0
 80 75  2  0
 81 82  1  0
 82 83  1  0
 83 84  2  0
 85 84  1  0
 85 89  1  0
 86 85  2  0
 87 82  2  0
 87 86  1  0
 88 87  1  0
 90 91  1  0
 91 94  1  0
 91 93  1  0
 92 90  2  0
 95 70  1  0
 95 96  1  0
 97 95  1  0
M  ISO  4  17 101  18 101  60 100  68 100
M  END
>  <TORSDO>  (49) 
F 22

>  <SCORE>  (49) 
-8.410

>  <name>  (49) 
48

>  <ligand_id>  (49) 
48

>  <original_smiles>  (49) 
[H]c1c([H])c([H])c2c(c1[H])C([H])([H])C([H])([H])C([H])([H])C2([H])N([H])C(=O)C1([H])N(C(=O)C([H])(N([H])C(=O)C([H])(N([H])C([H])([H])[H])C([H])([H])[H])C(C([H])([H])[H])(C([H])([H])[H])C([H])([H])[H])C([H])([H])c2c([H])c(OC([H])([H])C([H])([H])C([H])(C(=O)N([H])c3nc(C([H])([H])N([H])C(=O)N4C([H])([H])C([H])([H])C([H])([H])C([H])(n5nc(-c6c([H])c([H])c(Oc7c([H])c([H])c(F)c([H])c7F)c([H])c6[H])c(C(=O)N([H])[H])c5N([H])[H])C4([H])[H])c(C([H])(C([H])([H])[H])C([H])([H])C([H])([H])[H])s3)C([H])([H])[H])c([H])c([H])c2C1([H])[H]

>  <smiles>  (49) 
[H]c1c([H])c([H])c2c(c1[H])C([H])([H])C([H])([H])C([H])([H])C2([H])N([H])C(=O)C1([H])N(C(=O)C([H])(N([H])C(=O)C([H])(N([H])C([H])([H])[H])C([H])([H])[H])C(C([H])([H])[H])(C([H])([H])[H])C([H])([H])[H])C([H])([H])c2c([H])c(OC([H])([H])C([H])([H])C([H])(C(=O)N([H])c3nc(C([H])([H])N([H])C(=O)N4C([H])([H])C([H])([H])C([H])([H])C([H])(n5nc(-c6c([H])c([H])c(Oc7c([H])c([H])c(F)c([H])c7F)c([H])c6[H])c(C(=O)N([H])[H])c5N([H])[H])C4([H])[H])c(C([H])(C([H])([H])[H])C([H])([H])C([H])([H])[H])s3)C([H])([H])[H])c([H])c([H])c2C1([H])[H]

$$$$
49:0:0
     RDKit          3D

 94102  0  0  1  0  0  0  0  0999 V2000
  -29.1370  -22.7780   19.6500 C   0  0  0  0  0  0  0  0  0  0  0  0
  -29.3710  -21.8790   20.6390 N   0  0  0  0  0  0  0  0  0  0  0  0
  -28.7490  -22.4570   18.5260 O   0  0  0  0  0  0  0  0  0  0  0  0
  -29.7460  -22.2700   21.4930 H   0  0  0  0  0  0  0  0  0  0  0  0
  -28.7070  -18.2470   20.3440 C   0  0  0  0  0  3  0  0  0  0  0  0
  -28.3550  -19.6380   20.1650 C   0  0  0  0  0  0  0  0  0  0  0  0
  -29.9210  -18.0280   20.9510 C   0  0  0  0  0  0  0  0  0  0  0  0
  -29.3460  -20.5080   20.5810 C   0  0  0  0  0  0  0  0  0  0  0  0
  -27.0070  -20.0680   19.6520 C   0  0  0  0  0  1  0  0  0  0  0  0
  -30.6790  -19.5860   21.2540 S   0  0  0  0  0  0  0  0  0  0  0  0
  -32.0570  -16.7730   21.7170 C   0  0  0  0  0  1  0  0  0  0  0  0
  -30.5290  -16.7250   21.4930 C   0  0  0  0  0  0  0  0  0  0  0  0
  -30.6180  -14.4910   20.1520 C   0  0  0  0  0  0  0  0  0  0  0  0
  -30.2370  -12.3650   18.9250 C   0  0  0  0  0  2  0  0  0  0  0  0
  -29.2370  -12.5950   17.7720 C   0  0  0  0  0  2  0  0  0  0  0  0
  -27.7870  -12.4340   18.2700 C   0  0  0  0  0  2  0  0  0  0  0  0
  -27.5150  -13.2420   19.5660 C   0  0  0  0  0  3  0  0  0  0  0  0
  -28.6230  -13.0060   20.6190 C   0  0  0  0  0  2  0  0  0  0  0  0
  -29.9180  -13.3310   19.9940 N   0  0  0  0  0  0  0  0  0  0  0  0
  -31.6910  -14.6840   19.5730 O   0  0  0  0  0  0  0  0  0  0  0  0
  -30.0310  -15.4380   20.9290 N   0  0  0  0  0  4  0  0  0  0  0  0
  -29.1500  -15.1450   21.3140 H   0  0  0  0  0  0  0  0  0  0  0  0
  -25.1590  -13.8460   20.4040 C   0  0  0  0  0  0  0  0  0  0  0  0
  -24.1060  -13.0730   20.8120 C   0  0  0  0  0  0  0  0  0  0  0  0
  -24.5570  -11.7180   20.7430 C   0  0  0  0  0  0  0  0  0  0  0  0
  -26.1870  -12.9640   20.1090 N   0  0  0  0  0  0  0  0  0  0  0  0
  -25.8310  -11.6780   20.3690 N   0  0  0  0  0  0  0  0  0  0  0  0
  -23.8330  -10.4560   20.9530 C   0  0  0  0  0  0  0  0  0  0  0  0
  -24.2840   -9.4920   21.8790 C   0  0  0  0  0  3  0  0  0  0  0  0
  -23.5630   -8.2950   22.0770 C   0  0  0  0  0  3  0  0  0  0  0  0
  -22.3740   -8.0540   21.3460 C   0  0  0  0  0  0  0  0  0  0  0  0
  -21.9410   -9.0100   20.4090 C   0  0  0  0  0  3  0  0  0  0  0  0
  -22.6640  -10.1970   20.2100 C   0  0  0  0  0  3  0  0  0  0  0  0
  -21.6210   -6.9100   21.4520 O   0  0  0  0  0  0  0  0  0  0  0  0
  -21.5800   -6.1810   22.6140 C   0  0  0  0  0  0  0  0  0  0  0  0
  -21.1590   -6.7500   23.8360 C   0  0  0  0  0  3  0  0  0  0  0  0
  -21.0650   -5.9460   24.9910 C   0  0  0  0  0  3  0  0  0  0  0  0
  -21.3820   -4.5760   24.9230 C   0  0  0  0  0  0  0  0  0  0  0  0
  -21.7970   -4.0090   23.7060 C   0  0  0  0  0  3  0  0  0  0  0  0
  -21.8910   -4.8080   22.5540 C   0  0  0  0  0  0  0  0  0  0  0  0
  -22.2710   -4.2510   21.3790 F   0  0  0  0  0  0  0  0  0  0  0  0
  -21.2830   -3.8020   26.0290 F   0  0  0  0  0  0  0  0  0  0  0  0
  -22.7260  -13.5540   21.1600 C   0  0  0  0  0  0  0  0  0  0  0  0
  -22.0330  -12.8490   22.0470 N   0  0  0  0  0  0  0  0  0  0  0  0
  -22.2730  -14.5910   20.6760 O   0  0  0  0  0  0  0  0  0  0  0  0
  -22.4120  -12.0100   22.4610 H   0  0  0  0  0  0  0  0  0  0  0  0
  -21.1090  -13.1590   22.3170 H   0  0  0  0  0  0  0  0  0  0  0  0
  -25.3250  -15.2180   20.2390 N   0  0  0  0  0  0  0  0  0  0  0  0
  -24.5710  -15.8780   20.3960 H   0  0  0  0  0  0  0  0  0  0  0  0
  -26.1650  -15.6500   19.8800 H   0  0  0  0  0  0  0  0  0  0  0  0
  -29.4120  -24.2820   19.9300 C   0  0  0  0  0  2  0  0  0  0  0  0
  -27.6580  -24.8310   21.6870 C   0  0  0  0  0  1  0  0  0  0  0  0
  -28.1490  -25.1360   20.2580 C   0  0  0  0  0  3  0  0  0  0  0  0
  -28.3440  -26.5800   20.1280 O   0  0  0  0  0  0  0  0  0  0  0  0
  -24.5790  -31.8710   23.1860 C   0  0  0  0  0  0  0  0  0  0  0  0
  -27.1990  -27.3750   20.1010 C   0  0  0  0  0  0  0  0  0  0  0  0
  -23.3740  -30.4730   21.5450 C   0  0  0  0  0  3  0  0  0  0  0  0
  -24.8220  -28.9370   20.1210 C   0  0  0  0  0  0  0  0  0  0  0  0
  -25.9070  -30.8110   21.3540 C   0  0  0  0  0  2  0  0  0  0  0  0
  -25.9880  -29.4390   20.7100 C   0  0  0  0  0  0  0  0  0  0  0  0
  -27.1800  -28.6660   20.6960 C   0  0  0  0  0  3  0  0  0  0  0  0
  -26.0050  -26.9160   19.4930 C   0  0  0  0  0  3  0  0  0  0  0  0
  -24.8260  -27.6740   19.5150 C   0  0  0  0  0  3  0  0  0  0  0  0
  -23.5850  -29.8040   20.1650 C   0  0  0  0  0  2  0  0  0  0  0  0
  -24.6380  -31.0680   22.0850 N   0  0  0  0  0  0  0  0  0  0  0  0
  -23.4980  -32.1430   23.7240 O   0  0  0  0  0  0  0  0  0  0  0  0
  -22.7220  -29.4470   22.5010 C   0  0  0  0  0  0  0  0  0  0  0  0
  -21.3960  -29.2750   22.3800 N   0  0  0  0  0  0  0  0  0  0  0  0
  -23.4050  -28.8130   23.3110 O   0  0  0  0  0  0  0  0  0  0  0  0
  -20.9070  -29.8540   21.7130 H   0  0  0  0  0  0  0  0  0  0  0  0
  -18.0220  -28.0530   22.8900 C   0  0  0  0  0  0  0  0  0  0  0  0
  -20.5780  -28.3280   23.1390 C   0  0  0  0  0  3  0  0  0  0  0  0
  -20.6950  -26.9020   22.5480 C   0  0  0  0  0  2  0  0  0  0  0  0
  -19.5700  -26.5530   21.5720 C   0  0  0  0  0  2  0  0  0  0  0  0
  -18.2060  -26.6860   22.2540 C   0  0  0  0  0  2  0  0  0  0  0  0
  -19.1380  -28.8280   23.3000 C   0  0  0  0  0  0  0  0  0  0  0  0
  -18.9150  -30.1010   23.8710 C   0  0  0  0  0  3  0  0  0  0  0  0
  -17.6070  -30.5980   24.0340 C   0  0  0  0  0  3  0  0  0  0  0  0
  -16.5060  -29.8210   23.6360 C   0  0  0  0  0  3  0  0  0  0  0  0
  -16.7130  -28.5500   23.0700 C   0  0  0  0  0  3  0  0  0  0  0  0
  -25.8650  -32.4990   23.8060 C   0  0  0  0  0  3  0  0  0  0  0  0
  -26.3890  -31.7180   25.0720 C   0  0  1  0  0  0  0  0  0  0  0  0
  -25.3020  -31.4670   26.1440 C   0  0  0  0  0  1  0  0  0  0  0  0
  -26.9750  -30.3470   24.6630 C   0  0  0  0  0  1  0  0  0  0  0  0
  -27.5370  -32.5130   25.7380 C   0  0  0  0  0  1  0  0  0  0  0  0
  -25.5510  -33.8930   24.1500 N   0  0  0  0  0  0  0  0  0  0  0  0
  -25.8770  -34.9520   23.3980 C   0  0  0  0  0  0  0  0  0  0  0  0
  -26.5460  -34.8590   22.3630 O   0  0  0  0  0  0  0  0  0  0  0  0
  -24.9610  -34.0400   24.9560 H   0  0  0  0  0  0  0  0  0  0  0  0
  -24.1450  -36.7430   23.0460 C   0  0  0  0  0  1  0  0  0  0  0  0
  -25.3810  -36.3350   23.8640 C   0  0  0  0  0  3  0  0  0  0  0  0
  -27.5070  -37.2150   24.7210 C   0  0  0  0  0  1  0  0  0  0  0  0
  -26.4120  -37.3920   23.7720 N   0  0  0  0  0  0  0  0  0  0  0  0
  -26.0000  -38.3090   23.9290 H   0  0  0  0  0  0  0  0  0  0  0  0
  1 51  1  0
  1  2  1  0
  2  4  1  0
  3  1  2  0
  5  7  2  0
  6  5  1  0
  6  8  2  0
  7 10  1  0
  7 12  1  0
  8  2  1  0
  8 10  1  0
  9  6  1  0
 12 11  1  0
 13 21  1  0
 14 19  1  0
 15 16  1  0
 15 14  1  0
 17 16  1  0
 17 26  1  0
 17 18  1  0
 19 13  1  0
 19 18  1  0
 20 13  2  0
 21 22  1  0
 21 12  2  0
 23 24  2  0
 24 43  1  0
 25 24  1  0
 25 28  1  0
 26 27  1  0
 26 23  1  0
 27 25  2  0
 28 29  1  0
 29 30  2  0
 31 34  1  0
 31 30  1  0
 32 31  2  0
 33 32  1  0
 33 28  2  0
 34 35  1  0
 35 36  1  0
 36 37  2  0
 38 37  1  0
 38 42  1  0
 39 38  2  0
 40 35  2  0
 40 39  1  0
 41 40  1  0
 43 44  1  0
 44 47  1  0
 44 46  1  0
 45 43  2  0
 48 49  1  0
 48 23  1  0
 50 48  1  0
 51 53  1  0
 53 52  1  0
 54 53  1  0
 55 66  2  0
 56 54  1  0
 56 61  1  0
 57 65  1  0
 57 67  1  0
 58 64  1  0
 58 60  1  0
 59 65  1  0
 60 59  1  0
 61 60  2  0
 62 63  1  0
 62 56  2  0
 63 58  2  0
 64 57  1  0
 65 55  1  0
 67 69  2  0
 68 67  1  0
 70 68  1  0
 71 80  2  0
 71 76  1  0
 72 68  1  0
 72 76  1  0
 73 72  1  0
 74 75  1  0
 74 73  1  0
 75 71  1  0
 76 77  2  0
 77 78  1  0
 79 78  2  0
 80 79  1  0
 81 55  1  0
 81 86  1  0
 81 82  1  0
 82 85  1  1
 82 83  1  0
 84 82  1  0
 86 89  1  0
 87 91  1  0
 87 86  1  0
 88 87  2  0
 91 90  1  0
 93 91  1  0
 93 94  1  0
 93 92  1  0
M  ISO  4  13 100  21 100  53 101  54 101
M  END
>  <TORSDO>  (50) 
F 20

>  <SCORE>  (50) 
-12.832

>  <name>  (50) 
49

>  <ligand_id>  (50) 
49

>  <original_smiles>  (50) 
[H]c1c([H])c([H])c2c(c1[H])C([H])([H])C([H])([H])C([H])([H])C2([H])N([H])C(=O)C1([H])N(C(=O)C([H])(N([H])C(=O)C([H])(N([H])C([H])([H])[H])C([H])([H])[H])C(C([H])([H])[H])(C([H])([H])[H])C([H])([H])[H])C([H])([H])c2c([H])c(OC([H])(C([H])([H])[H])C([H])([H])C(=O)N([H])c3sc(C([H])(N([H])C(=O)N4C([H])([H])C([H])([H])C([H])([H])C([H])(n5nc(-c6c([H])c([H])c(Oc7c([H])c([H])c(F)c([H])c7F)c([H])c6[H])c(C(=O)N([H])[H])c5N([H])[H])C4([H])[H])C([H])([H])[H])c([H])c3C([H])([H])[H])c([H])c([H])c2C1([H])[H]

>  <smiles>  (50) 
[H]c1c([H])c([H])c2c(c1[H])C([H])([H])C([H])([H])C([H])([H])C2([H])N([H])C(=O)C1([H])N(C(=O)C([H])(N([H])C(=O)C([H])(N([H])C([H])([H])[H])C([H])([H])[H])C(C([H])([H])[H])(C([H])([H])[H])C([H])([H])[H])C([H])([H])c2c([H])c(OC([H])(C([H])([H])[H])C([H])([H])C(=O)N([H])c3sc(C([H])(N([H])C(=O)N4C([H])([H])C([H])([H])C([H])([H])C([H])(n5nc(-c6c([H])c([H])c(Oc7c([H])c([H])c(F)c([H])c7F)c([H])c6[H])c(C(=O)N([H])[H])c5N([H])[H])C4([H])[H])C([H])([H])[H])c([H])c3C([H])([H])[H])c([H])c([H])c2C1([H])[H]

$$$$
50:0:0
     RDKit          3D

 97105  0  0  1  0  0  0  0  0999 V2000
  -29.8130  -22.9690   19.4880 C   0  0  0  0  0  3  0  0  0  0  0  0
  -28.4830  -18.1350   20.0790 C   0  0  0  0  0  3  0  0  0  0  0  0
  -29.7950  -18.3820   19.7430 C   0  0  0  0  0  0  0  0  0  0  0  0
  -29.0050  -20.5230   19.9960 C   0  0  0  0  0  0  0  0  0  0  0  0
  -30.0650  -19.7690   19.6650 N   0  0  0  0  0  0  0  0  0  0  0  0
  -28.9590  -21.9120   20.0300 N   0  0  0  0  0  0  0  0  0  0  0  0
  -27.5760  -19.5900   20.3890 S   0  0  0  0  0  0  0  0  0  0  0  0
  -28.0420  -22.2460   20.2970 H   0  0  0  0  0  0  0  0  0  0  0  0
  -30.8650  -17.3340   19.4450 C   0  0  0  0  0  2  0  0  0  0  0  0
  -31.5070  -14.4020   19.6890 C   0  0  0  0  0  0  0  0  0  0  0  0
  -30.9480  -12.2570   18.5820 C   0  0  0  0  0  2  0  0  0  0  0  0
  -29.9310  -12.4350   17.4380 C   0  0  0  0  0  2  0  0  0  0  0  0
  -28.4940  -12.3760   17.9840 C   0  0  0  0  0  2  0  0  0  0  0  0
  -28.2830  -13.3260   19.1900 C   0  0  0  0  0  3  0  0  0  0  0  0
  -29.3940  -13.1330   20.2460 C   0  0  0  0  0  2  0  0  0  0  0  0
  -30.7110  -13.2970   19.6000 N   0  0  0  0  0  0  0  0  0  0  0  0
  -32.4010  -14.6340   18.8690 O   0  0  0  0  0  0  0  0  0  0  0  0
  -31.3140  -16.5620   20.7200 C   0  0  0  0  0  0  0  0  0  0  0  0
  -31.6090  -14.5900   22.0960 C   0  0  0  0  0  1  0  0  0  0  0  0
  -31.3250  -15.1960   20.7770 N   0  0  0  0  0  0  0  0  0  0  0  0
  -31.6170  -17.2340   21.7180 O   0  0  0  0  0  0  0  0  0  0  0  0
  -26.0140  -14.1230   20.1120 C   0  0  0  0  0  0  0  0  0  0  0  0
  -24.9160  -13.4400   20.5640 C   0  0  0  0  0  0  0  0  0  0  0  0
  -25.2520  -12.0550   20.4740 C   0  0  0  0  0  0  0  0  0  0  0  0
  -26.9530  -13.1610   19.7770 N   0  0  0  0  0  0  0  0  0  0  0  0
  -26.5010  -11.9100   20.0510 N   0  0  0  0  0  0  0  0  0  0  0  0
  -24.4350  -10.8570   20.7140 C   0  0  0  0  0  0  0  0  0  0  0  0
  -24.8050   -9.8910   21.6740 C   0  0  0  0  0  3  0  0  0  0  0  0
  -23.9960   -8.7560   21.8990 C   0  0  0  0  0  3  0  0  0  0  0  0
  -22.8010   -8.5800   21.1630 C   0  0  0  0  0  0  0  0  0  0  0  0
  -22.4460   -9.5340   20.1930 C   0  0  0  0  0  3  0  0  0  0  0  0
  -23.2560  -10.6600   19.9660 C   0  0  0  0  0  3  0  0  0  0  0  0
  -21.9660   -7.4940   21.2950 O   0  0  0  0  0  0  0  0  0  0  0  0
  -21.8170   -6.8430   22.4930 C   0  0  0  0  0  0  0  0  0  0  0  0
  -21.3890   -7.5150   23.6600 C   0  0  0  0  0  3  0  0  0  0  0  0
  -21.1810   -6.7950   24.8510 C   0  0  0  0  0  3  0  0  0  0  0  0
  -21.3900   -5.4020   24.8800 C   0  0  0  0  0  0  0  0  0  0  0  0
  -21.8100   -4.7300   23.7190 C   0  0  0  0  0  3  0  0  0  0  0  0
  -22.0210   -5.4490   22.5290 C   0  0  0  0  0  0  0  0  0  0  0  0
  -22.4060   -4.7940   21.4070 F   0  0  0  0  0  0  0  0  0  0  0  0
  -21.1820   -4.7080   26.0210 F   0  0  0  0  0  0  0  0  0  0  0  0
  -23.5940  -14.0330   20.9620 C   0  0  0  0  0  0  0  0  0  0  0  0
  -22.9030  -13.4080   21.9090 N   0  0  0  0  0  0  0  0  0  0  0  0
  -23.1890  -15.0830   20.4650 O   0  0  0  0  0  0  0  0  0  0  0  0
  -23.2450  -12.5610   22.3360 H   0  0  0  0  0  0  0  0  0  0  0  0
  -22.0170  -13.7870   22.2140 H   0  0  0  0  0  0  0  0  0  0  0  0
  -26.2840  -15.4770   19.9400 N   0  0  0  0  0  0  0  0  0  0  0  0
  -25.5870  -16.1900   20.1190 H   0  0  0  0  0  0  0  0  0  0  0  0
  -27.1310  -15.8440   19.5250 H   0  0  0  0  0  0  0  0  0  0  0  0
  -29.6240  -23.0910   17.9600 C   0  0  0  0  0  0  0  0  0  0  0  0
  -28.5620  -22.7920   17.4020 O   0  0  0  0  0  0  0  0  0  0  0  0
  -30.5150  -23.7470   15.6390 C   0  0  0  0  0  1  0  0  0  0  0  0
  -30.8010  -23.6310   17.1480 C   0  0  0  0  0  2  0  0  0  0  0  0
  -29.6960  -24.1890   21.7510 C   0  0  0  0  0  1  0  0  0  0  0  0
  -29.6340  -24.3500   20.2190 C   0  0  0  0  0  3  0  0  0  0  0  0
  -28.3850  -25.1750   19.8060 C   0  0  0  0  0  2  0  0  0  0  0  0
  -28.4570  -26.5470   20.2350 O   0  0  0  0  0  0  0  0  0  0  0  0
  -24.5780  -31.7440   23.1990 C   0  0  0  0  0  0  0  0  0  0  0  0
  -27.2860  -27.2830   20.1850 C   0  0  0  0  0  0  0  0  0  0  0  0
  -23.4130  -30.3460   21.5290 C   0  0  0  0  0  3  0  0  0  0  0  0
  -24.8960  -28.8080   20.1430 C   0  0  0  0  0  0  0  0  0  0  0  0
  -25.9460  -30.6940   21.4000 C   0  0  0  0  0  2  0  0  0  0  0  0
  -26.0440  -29.3230   20.7590 C   0  0  0  0  0  0  0  0  0  0  0  0
  -27.2410  -28.5690   20.7760 C   0  0  0  0  0  3  0  0  0  0  0  0
  -26.1140  -26.7900   19.5630 C   0  0  0  0  0  3  0  0  0  0  0  0
  -24.9260  -27.5400   19.5450 C   0  0  0  0  0  3  0  0  0  0  0  0
  -23.6560  -29.6700   20.1550 C   0  0  0  0  0  2  0  0  0  0  0  0
  -24.6620  -30.9430   22.1000 N   0  0  0  0  0  0  0  0  0  0  0  0
  -23.4830  -32.0200   23.7100 O   0  0  0  0  0  0  0  0  0  0  0  0
  -22.7350  -29.3240   22.4700 C   0  0  0  0  0  0  0  0  0  0  0  0
  -21.4120  -29.1500   22.3130 N   0  0  0  0  0  0  0  0  0  0  0  0
  -23.3960  -28.6900   23.2970 O   0  0  0  0  0  0  0  0  0  0  0  0
  -20.9390  -29.7120   21.6190 H   0  0  0  0  0  0  0  0  0  0  0  0
  -18.0180  -27.9840   22.7380 C   0  0  0  0  0  0  0  0  0  0  0  0
  -20.5720  -28.2160   23.0620 C   0  0  0  0  0  3  0  0  0  0  0  0
  -20.6730  -26.7860   22.4820 C   0  0  0  0  0  2  0  0  0  0  0  0
  -19.5880  -26.4780   21.4440 C   0  0  0  0  0  2  0  0  0  0  0  0
  -18.1950  -26.6350   22.0600 C   0  0  0  0  0  2  0  0  0  0  0  0
  -19.1350  -28.7330   23.1940 C   0  0  0  0  0  0  0  0  0  0  0  0
  -18.9180  -29.9960   23.7850 C   0  0  0  0  0  3  0  0  0  0  0  0
  -17.6150  -30.5110   23.9260 C   0  0  0  0  0  3  0  0  0  0  0  0
  -16.5110  -29.7580   23.4870 C   0  0  0  0  0  3  0  0  0  0  0  0
  -16.7140  -28.4960   22.9000 C   0  0  0  0  0  3  0  0  0  0  0  0
  -25.8480  -32.3730   23.8520 C   0  0  0  0  0  3  0  0  0  0  0  0
  -25.5320  -33.7690   24.1750 N   0  0  0  0  0  0  0  0  0  0  0  0
  -25.8960  -34.8240   23.4330 C   0  0  0  0  0  0  0  0  0  0  0  0
  -26.6060  -34.7220   22.4280 O   0  0  0  0  0  0  0  0  0  0  0  0
  -24.9090  -33.9240   24.9540 H   0  0  0  0  0  0  0  0  0  0  0  0
  -24.1940  -36.6260   23.0130 C   0  0  0  0  0  1  0  0  0  0  0  0
  -25.3960  -36.2110   23.8770 C   0  0  0  0  0  3  0  0  0  0  0  0
  -27.4970  -37.0810   24.8030 C   0  0  0  0  0  1  0  0  0  0  0  0
  -26.4370  -37.2600   23.8140 N   0  0  0  0  0  0  0  0  0  0  0  0
  -26.0280  -38.1810   23.9490 H   0  0  0  0  0  0  0  0  0  0  0  0
  -26.3370  -31.5980   25.1380 C   0  0  1  0  0  0  0  0  0  0  0  0
  -25.2180  -31.3500   26.1760 C   0  0  0  0  0  1  0  0  0  0  0  0
  -26.9350  -30.2240   24.7530 C   0  0  0  0  0  1  0  0  0  0  0  0
  -27.4660  -32.3940   25.8320 C   0  0  0  0  0  1  0  0  0  0  0  0
  1 50  1  0
  1  6  1  0
  1 55  1  0
  2  7  1  0
  3  2  2  0
  4  6  1  0
  4  7  1  0
  5  3  1  0
  5  4  2  0
  6  8  1  0
  9  3  1  0
  9 18  1  0
 10 20  1  0
 11 16  1  0
 12 13  1  0
 12 11  1  0
 14 13  1  0
 14 25  1  0
 14 15  1  0
 16 10  1  0
 16 15  1  0
 17 10  2  0
 18 20  1  0
 18 21  2  0
 20 19  1  0
 22 23  2  0
 23 42  1  0
 24 23  1  0
 24 27  1  0
 25 26  1  0
 25 22  1  0
 26 24  2  0
 27 28  1  0
 28 29  2  0
 30 33  1  0
 30 29  1  0
 31 30  2  0
 32 31  1  0
 32 27  2  0
 33 34  1  0
 34 39  2  0
 34 35  1  0
 35 36  2  0
 36 37  1  0
 37 41  1  0
 38 37  2  0
 39 38  1  0
 40 39  1  0
 42 43  1  0
 43 46  1  0
 43 45  1  0
 44 42  2  0
 47 22  1  0
 47 48  1  0
 49 47  1  0
 51 50  2  0
 52 53  1  0
 53 50  1  0
 55 54  1  0
 56 55  1  0
 56 57  1  0
 58 69  2  0
 59 57  1  0
 59 64  1  0
 60 68  1  0
 60 70  1  0
 61 67  1  0
 61 63  1  0
 62 68  1  0
 63 64  2  0
 63 62  1  0
 65 59  2  0
 66 65  1  0
 66 61  2  0
 67 60  1  0
 68 58  1  0
 70 72  2  0
 71 70  1  0
 73 71  1  0
 74 83  2  0
 74 79  1  0
 75 71  1  0
 75 79  1  0
 76 75  1  0
 77 78  1  0
 77 76  1  0
 78 74  1  0
 79 80  2  0
 80 81  1  0
 82 81  2  0
 83 82  1  0
 84 58  1  0
 84 85  1  0
 84 94  1  0
 85 88  1  0
 86 90  1  0
 86 85  1  0
 87 86  2  0
 90 89  1  0
 92 90  1  0
 92 93  1  0
 92 91  1  0
 94 97  1  1
 94 95  1  0
 96 94  1  0
M  ISO  4  10 100  20 100  56 101  57 101
M  END
>  <TORSDO>  (51) 
F 22

>  <SCORE>  (51) 
-11.545

>  <name>  (51) 
50

>  <ligand_id>  (51) 
50

>  <original_smiles>  (51) 
[H]c1sc(N([H])C([H])(C(=O)C([H])([H])C([H])([H])[H])C([H])(C([H])([H])[H])C([H])([H])Oc2c([H])c([H])c3c(c2[H])C([H])([H])N(C(=O)C([H])(N([H])C(=O)C([H])(N([H])C([H])([H])[H])C([H])([H])[H])C(C([H])([H])[H])(C([H])([H])[H])C([H])([H])[H])C([H])(C(=O)N([H])C2([H])c4c([H])c([H])c([H])c([H])c4C([H])([H])C([H])([H])C2([H])[H])C3([H])[H])nc1C([H])([H])C(=O)N(C(=O)N1C([H])([H])C([H])([H])C([H])([H])C([H])(n2nc(-c3c([H])c([H])c(Oc4c([H])c([H])c(F)c([H])c4F)c([H])c3[H])c(C(=O)N([H])[H])c2N([H])[H])C1([H])[H])C([H])([H])[H]

>  <smiles>  (51) 
[H]c1sc(N([H])C([H])(C(=O)C([H])([H])C([H])([H])[H])C([H])(C([H])([H])[H])C([H])([H])Oc2c([H])c([H])c3c(c2[H])C([H])([H])N(C(=O)C([H])(N([H])C(=O)C([H])(N([H])C([H])([H])[H])C([H])([H])[H])C(C([H])([H])[H])(C([H])([H])[H])C([H])([H])[H])C([H])(C(=O)N([H])C2([H])c4c([H])c([H])c([H])c([H])c4C([H])([H])C([H])([H])C2([H])[H])C3([H])[H])nc1C([H])([H])C(=O)N(C(=O)N1C([H])([H])C([H])([H])C([H])([H])C([H])(n2nc(-c3c([H])c([H])c(Oc4c([H])c([H])c(F)c([H])c4F)c([H])c3[H])c(C(=O)N([H])[H])c2N([H])[H])C1([H])[H])C([H])([H])[H]

$$$$
51:0:0
     RDKit          3D

 94102  0  0  1  0  0  0  0  0999 V2000
  -29.4230  -23.0250   19.6070 C   0  0  0  0  0  0  0  0  0  0  0  0
  -29.4300  -21.8670   20.3100 N   0  0  0  0  0  0  0  0  0  0  0  0
  -29.4340  -23.0360   18.3740 O   0  0  0  0  0  0  0  0  0  0  0  0
  -29.5630  -21.9480   21.3120 H   0  0  0  0  0  0  0  0  0  0  0  0
  -30.0080  -19.4540   20.3950 C   0  0  0  0  0  3  0  0  0  0  0  0
  -28.5950  -20.2440   18.6110 C   0  0  0  0  0  3  0  0  0  0  0  0
  -29.9610  -18.1660   19.8050 C   0  0  0  0  0  0  0  0  0  0  0  0
  -29.3430  -20.5370   19.7720 C   0  0  0  0  0  0  0  0  0  0  0  0
  -29.1700  -18.0020   18.6500 C   0  0  0  0  0  0  0  0  0  0  0  0
  -28.4930  -19.0120   18.0740 N   0  0  0  0  0  0  0  0  0  0  0  0
  -29.1000  -16.7870   18.0580 F   0  0  0  0  0  0  0  0  0  0  0  0
  -30.8850  -17.0380   20.3030 C   0  0  0  0  0  2  0  0  0  0  0  0
  -30.8560  -14.5460   20.0880 C   0  0  0  0  0  0  0  0  0  0  0  0
  -30.4490  -12.3950   18.9280 C   0  0  0  0  0  2  0  0  0  0  0  0
  -29.4430  -12.5930   17.7760 C   0  0  0  0  0  2  0  0  0  0  0  0
  -27.9930  -12.4540   18.2800 C   0  0  0  0  0  2  0  0  0  0  0  0
  -27.7290  -13.2750   19.5670 C   0  0  0  0  0  3  0  0  0  0  0  0
  -28.8420  -13.0130   20.5980 C   0  0  0  0  0  2  0  0  0  0  0  0
  -30.1250  -13.3870   19.9770 N   0  0  0  0  0  0  0  0  0  0  0  0
  -31.9510  -14.6260   19.5220 O   0  0  0  0  0  0  0  0  0  0  0  0
  -29.4390  -15.7850   21.7840 C   0  0  0  0  0  1  0  0  0  0  0  0
  -30.2860  -15.6990   20.5880 N   0  0  0  0  0  0  0  0  0  0  0  0
  -25.3860  -13.8810   20.4460 C   0  0  0  0  0  0  0  0  0  0  0  0
  -24.3380  -13.1050   20.8650 C   0  0  0  0  0  0  0  0  0  0  0  0
  -24.7830  -11.7510   20.7640 C   0  0  0  0  0  0  0  0  0  0  0  0
  -26.4040  -12.9970   20.1200 N   0  0  0  0  0  0  0  0  0  0  0  0
  -26.0480  -11.7100   20.3730 N   0  0  0  0  0  0  0  0  0  0  0  0
  -24.0560  -10.4890   20.9620 C   0  0  0  0  0  0  0  0  0  0  0  0
  -24.5070   -9.5090   21.8740 C   0  0  0  0  0  3  0  0  0  0  0  0
  -23.7750   -8.3150   22.0630 C   0  0  0  0  0  3  0  0  0  0  0  0
  -22.5790   -8.0940   21.3390 C   0  0  0  0  0  0  0  0  0  0  0  0
  -22.1470   -9.0630   20.4150 C   0  0  0  0  0  3  0  0  0  0  0  0
  -22.8810  -10.2460   20.2220 C   0  0  0  0  0  3  0  0  0  0  0  0
  -21.8200   -6.9530   21.4380 O   0  0  0  0  0  0  0  0  0  0  0  0
  -21.7600   -6.2260   22.5990 C   0  0  0  0  0  0  0  0  0  0  0  0
  -21.3270   -6.7990   23.8150 C   0  0  0  0  0  3  0  0  0  0  0  0
  -21.2090   -5.9980   24.9680 C   0  0  0  0  0  3  0  0  0  0  0  0
  -21.5160   -4.6260   24.9080 C   0  0  0  0  0  0  0  0  0  0  0  0
  -21.9480   -4.0540   23.6980 C   0  0  0  0  0  3  0  0  0  0  0  0
  -22.0630   -4.8500   22.5460 C   0  0  0  0  0  0  0  0  0  0  0  0
  -22.4530   -4.2870   21.3780 F   0  0  0  0  0  0  0  0  0  0  0  0
  -21.3980   -3.8570   26.0160 F   0  0  0  0  0  0  0  0  0  0  0  0
  -22.9660  -13.5870   21.2380 C   0  0  0  0  0  0  0  0  0  0  0  0
  -22.2880  -12.8770   22.1350 N   0  0  0  0  0  0  0  0  0  0  0  0
  -22.5050  -14.6280   20.7730 O   0  0  0  0  0  0  0  0  0  0  0  0
  -22.6760  -12.0300   22.5240 H   0  0  0  0  0  0  0  0  0  0  0  0
  -21.3760  -13.1860   22.4390 H   0  0  0  0  0  0  0  0  0  0  0  0
  -25.5570  -15.2550   20.3010 N   0  0  0  0  0  0  0  0  0  0  0  0
  -24.8240  -15.9260   20.5080 H   0  0  0  0  0  0  0  0  0  0  0  0
  -26.3880  -15.6860   19.9140 H   0  0  0  0  0  0  0  0  0  0  0  0
  -30.8100  -25.0630   20.1940 C   0  0  0  0  0  1  0  0  0  0  0  0
  -29.4380  -24.3810   20.3600 C   0  0  0  0  0  3  0  0  0  0  0  0
  -28.2780  -25.2920   19.8650 C   0  0  0  0  0  2  0  0  0  0  0  0
  -28.3520  -26.6640   20.2960 O   0  0  0  0  0  0  0  0  0  0  0  0
  -24.5810  -31.9030   23.3070 C   0  0  0  0  0  0  0  0  0  0  0  0
  -27.1890  -27.4170   20.2440 C   0  0  0  0  0  0  0  0  0  0  0  0
  -23.3660  -30.5110   21.6650 C   0  0  0  0  0  3  0  0  0  0  0  0
  -24.8100  -28.9660   20.2390 C   0  0  0  0  0  0  0  0  0  0  0  0
  -25.8970  -30.8440   21.4730 C   0  0  0  0  0  2  0  0  0  0  0  0
  -25.9720  -29.4690   20.8370 C   0  0  0  0  0  0  0  0  0  0  0  0
  -27.1590  -28.6990   20.8450 C   0  0  0  0  0  3  0  0  0  0  0  0
  -26.0070  -26.9450   19.6210 C   0  0  0  0  0  3  0  0  0  0  0  0
  -24.8250  -27.7040   19.6270 C   0  0  0  0  0  3  0  0  0  0  0  0
  -23.5720  -29.8320   20.2850 C   0  0  0  0  0  2  0  0  0  0  0  0
  -24.6340  -31.1000   22.2070 N   0  0  0  0  0  0  0  0  0  0  0  0
  -23.5010  -32.1830   23.8450 O   0  0  0  0  0  0  0  0  0  0  0  0
  -22.7070  -29.4910   22.6240 C   0  0  0  0  0  0  0  0  0  0  0  0
  -21.3860  -29.3000   22.4790 N   0  0  0  0  0  0  0  0  0  0  0  0
  -23.3820  -28.8770   23.4540 O   0  0  0  0  0  0  0  0  0  0  0  0
  -20.9020  -29.8490   21.7830 H   0  0  0  0  0  0  0  0  0  0  0  0
  -18.0150  -28.0720   22.9160 C   0  0  0  0  0  0  0  0  0  0  0  0
  -20.5630  -28.3640   23.2460 C   0  0  0  0  0  3  0  0  0  0  0  0
  -20.6950  -26.9240   22.6970 C   0  0  0  0  0  2  0  0  0  0  0  0
  -19.6220  -26.5710   21.6620 C   0  0  0  0  0  2  0  0  0  0  0  0
  -18.2230  -26.7120   22.2690 C   0  0  0  0  0  2  0  0  0  0  0  0
  -19.1140  -28.8540   23.3590 C   0  0  0  0  0  0  0  0  0  0  0  0
  -18.8660  -30.1250   23.9200 C   0  0  0  0  0  3  0  0  0  0  0  0
  -17.5520  -30.6150   24.0420 C   0  0  0  0  0  3  0  0  0  0  0  0
  -16.4670  -29.8300   23.6150 C   0  0  0  0  0  3  0  0  0  0  0  0
  -16.6990  -28.5600   23.0580 C   0  0  0  0  0  3  0  0  0  0  0  0
  -25.8720  -32.5250   23.9290 C   0  0  0  0  0  3  0  0  0  0  0  0
  -26.3790  -31.7530   25.2090 C   0  0  1  0  0  0  0  0  0  0  0  0
  -25.2810  -31.5340   26.2750 C   0  0  0  0  0  1  0  0  0  0  0  0
  -26.9490  -30.3690   24.8210 C   0  0  0  0  0  1  0  0  0  0  0  0
  -27.5360  -32.5410   25.8680 C   0  0  0  0  0  1  0  0  0  0  0  0
  -25.5770  -33.9260   24.2470 N   0  0  0  0  0  0  0  0  0  0  0  0
  -25.9060  -34.9690   23.4710 C   0  0  0  0  0  0  0  0  0  0  0  0
  -26.5600  -34.8470   22.4310 O   0  0  0  0  0  0  0  0  0  0  0  0
  -24.9970  -34.0950   25.0570 H   0  0  0  0  0  0  0  0  0  0  0  0
  -24.1800  -36.7630   23.1250 C   0  0  0  0  0  1  0  0  0  0  0  0
  -25.4340  -36.3640   23.9190 C   0  0  0  0  0  3  0  0  0  0  0  0
  -27.5880  -37.2490   24.6950 C   0  0  0  0  0  1  0  0  0  0  0  0
  -26.4700  -37.4110   23.7710 N   0  0  0  0  0  0  0  0  0  0  0  0
  -26.0720  -38.3350   23.9130 H   0  0  0  0  0  0  0  0  0  0  0  0
  1  2  1  0
  1 52  1  0
  2  4  1  0
  3  1  2  0
  6  8  1  0
  7 12  1  0
  7  5  1  0
  8  2  1  0
  8  5  2  0
  9  7  2  0
 10  6  2  0
 10  9  1  0
 11  9  1  0
 12 22  1  0
 13 22  1  0
 14 19  1  0
 15 16  1  0
 15 14  1  0
 17 16  1  0
 17 26  1  0
 17 18  1  0
 19 13  1  0
 19 18  1  0
 20 13  2  0
 22 21  1  0
 23 24  2  0
 24 43  1  0
 25 24  1  0
 25 28  1  0
 26 27  1  0
 26 23  1  0
 27 25  2  0
 28 29  1  0
 29 30  2  0
 31 34  1  0
 31 30  1  0
 32 31  2  0
 33 32  1  0
 33 28  2  0
 34 35  1  0
 35 36  1  0
 36 37  2  0
 38 37  1  0
 38 42  1  0
 39 38  2  0
 40 35  2  0
 40 39  1  0
 41 40  1  0
 43 44  1  0
 44 47  1  0
 44 46  1  0
 45 43  2  0
 48 23  1  0
 48 49  1  0
 50 48  1  0
 52 51  1  0
 53 54  1  0
 53 52  1  0
 55 66  2  0
 56 54  1  0
 56 61  1  0
 57 65  1  0
 57 67  1  0
 58 64  1  0
 58 60  1  0
 59 65  1  0
 60 61  2  0
 60 59  1  0
 62 63  1  0
 62 56  2  0
 63 58  2  0
 64 57  1  0
 65 55  1  0
 67 69  2  0
 68 67  1  0
 70 68  1  0
 71 80  2  0
 71 76  1  0
 72 68  1  0
 72 76  1  0
 73 72  1  0
 74 75  1  0
 74 73  1  0
 75 71  1  0
 76 77  2  0
 77 78  1  0
 79 78  2  0
 80 79  1  0
 81 55  1  0
 81 86  1  0
 81 82  1  0
 82 85  1  1
 82 83  1  0
 84 82  1  0
 86 89  1  0
 87 91  1  0
 87 86  1  0
 88 87  2  0
 91 90  1  0
 93 94  1  0
 93 91  1  0
 93 92  1  0
M  ISO  4  13 100  22 100  53 101  54 101
M  END
>  <TORSDO>  (52) 
F 20

>  <SCORE>  (52) 
-13.190

>  <name>  (52) 
51

>  <ligand_id>  (52) 
51

>  <original_smiles>  (52) 
[H]c1nc(F)c(C([H])([H])N(C(=O)N2C([H])([H])C([H])([H])C([H])([H])C([H])(n3nc(-c4c([H])c([H])c(Oc5c([H])c([H])c(F)c([H])c5F)c([H])c4[H])c(C(=O)N([H])[H])c3N([H])[H])C2([H])[H])C([H])([H])[H])c([H])c1N([H])C(=O)C([H])(C([H])([H])[H])C([H])([H])Oc1c([H])c([H])c2c(c1[H])C([H])([H])N(C(=O)C([H])(N([H])C(=O)C([H])(N([H])C([H])([H])[H])C([H])([H])[H])C(C([H])([H])[H])(C([H])([H])[H])C([H])([H])[H])C([H])(C(=O)N([H])C1([H])c3c([H])c([H])c([H])c([H])c3C([H])([H])C([H])([H])C1([H])[H])C2([H])[H]

>  <smiles>  (52) 
[H]c1nc(F)c(C([H])([H])N(C(=O)N2C([H])([H])C([H])([H])C([H])([H])C([H])(n3nc(-c4c([H])c([H])c(Oc5c([H])c([H])c(F)c([H])c5F)c([H])c4[H])c(C(=O)N([H])[H])c3N([H])[H])C2([H])[H])C([H])([H])[H])c([H])c1N([H])C(=O)C([H])(C([H])([H])[H])C([H])([H])Oc1c([H])c([H])c2c(c1[H])C([H])([H])N(C(=O)C([H])(N([H])C(=O)C([H])(N([H])C([H])([H])[H])C([H])([H])[H])C(C([H])([H])[H])(C([H])([H])[H])C([H])([H])[H])C([H])(C(=O)N([H])C1([H])c3c([H])c([H])c([H])c([H])c3C([H])([H])C([H])([H])C1([H])[H])C2([H])[H]

$$$$
52:0:0
     RDKit          3D

 95103  0  0  1  0  0  0  0  0999 V2000
  -29.3750  -20.9020   21.2230 C   0  0  0  0  0  0  0  0  0  0  0  0
  -28.6090  -20.9280   22.3270 N   0  0  0  0  0  4  0  0  0  0  0  0
  -29.6770  -22.0820   20.6100 N   0  0  0  0  0  0  0  0  0  0  0  0
  -28.4110  -20.0720   22.8260 H   0  0  0  0  0  0  0  0  0  0  0  0
  -28.1390  -21.7580   22.6480 H   0  0  0  0  0  0  0  0  0  0  0  0
  -30.2320  -22.0400   19.7660 H   0  0  0  0  0  0  0  0  0  0  0  0
  -30.9640  -14.7720   19.9040 C   0  0  0  0  0  0  0  0  0  0  0  0
  -30.6640  -12.5810   18.7900 C   0  0  0  0  0  2  0  0  0  0  0  0
  -29.6370  -12.7540   17.6510 C   0  0  0  0  0  2  0  0  0  0  0  0
  -28.1940  -12.6080   18.1740 C   0  0  0  0  0  2  0  0  0  0  0  0
  -27.9280  -13.4550   19.4480 C   0  0  0  0  0  3  0  0  0  0  0  0
  -29.0540  -13.2290   20.4840 C   0  0  0  0  0  2  0  0  0  0  0  0
  -30.3380  -13.5620   19.8400 N   0  0  0  0  0  0  0  0  0  0  0  0
  -32.0490  -14.9860   19.3490 O   0  0  0  0  0  0  0  0  0  0  0  0
  -31.0010  -19.2770   20.0520 C   0  0  0  0  0  3  0  0  0  0  0  0
  -29.8660  -19.5990   20.7690 C   0  0  0  0  0  0  0  0  0  0  0  0
  -30.2820  -17.1510   20.4930 C   0  0  0  0  0  0  0  0  0  0  0  0
  -31.2230  -17.8920   19.8940 N   0  0  0  0  0  0  0  0  0  0  0  0
  -30.2440  -15.7220   20.5390 N   0  0  0  0  0  0  0  0  0  0  0  0
  -29.0180  -18.1310   21.2390 S   0  0  0  0  0  0  0  0  0  0  0  0
  -29.4270  -15.3490   20.9960 H   0  0  0  0  0  0  0  0  0  0  0  0
  -25.6080  -14.0730   20.3780 C   0  0  0  0  0  0  0  0  0  0  0  0
  -24.5560  -13.3020   20.7930 C   0  0  0  0  0  0  0  0  0  0  0  0
  -24.9810  -11.9460   20.6550 C   0  0  0  0  0  0  0  0  0  0  0  0
  -26.6090  -13.1850   20.0160 N   0  0  0  0  0  0  0  0  0  0  0  0
  -26.2400  -11.8980   20.2380 N   0  0  0  0  0  0  0  0  0  0  0  0
  -24.2440  -10.6890   20.8380 C   0  0  0  0  0  0  0  0  0  0  0  0
  -24.6610   -9.7190   21.7770 C   0  0  0  0  0  3  0  0  0  0  0  0
  -23.9260   -8.5260   21.9470 C   0  0  0  0  0  3  0  0  0  0  0  0
  -22.7620   -8.2930   21.1780 C   0  0  0  0  0  0  0  0  0  0  0  0
  -22.3630   -9.2530   20.2300 C   0  0  0  0  0  3  0  0  0  0  0  0
  -23.0990  -10.4370   20.0570 C   0  0  0  0  0  3  0  0  0  0  0  0
  -22.0000   -7.1530   21.2570 O   0  0  0  0  0  0  0  0  0  0  0  0
  -21.8420   -6.4720   22.4370 C   0  0  0  0  0  0  0  0  0  0  0  0
  -21.2630   -7.0780   23.5740 C   0  0  0  0  0  3  0  0  0  0  0  0
  -21.0550   -6.3220   24.7450 C   0  0  0  0  0  3  0  0  0  0  0  0
  -21.4140   -4.9610   24.7800 C   0  0  0  0  0  0  0  0  0  0  0  0
  -21.9860   -4.3560   23.6480 C   0  0  0  0  0  3  0  0  0  0  0  0
  -22.1960   -5.1080   22.4790 C   0  0  0  0  0  0  0  0  0  0  0  0
  -22.7270   -4.5130   21.3840 F   0  0  0  0  0  0  0  0  0  0  0  0
  -21.2070   -4.2340   25.9020 F   0  0  0  0  0  0  0  0  0  0  0  0
  -23.1950  -13.7910   21.2010 C   0  0  0  0  0  0  0  0  0  0  0  0
  -22.5310  -13.0780   22.1050 N   0  0  0  0  0  0  0  0  0  0  0  0
  -22.7310  -14.8380   20.7520 O   0  0  0  0  0  0  0  0  0  0  0  0
  -22.9160  -12.2290   22.4910 H   0  0  0  0  0  0  0  0  0  0  0  0
  -21.6210  -13.3890   22.4170 H   0  0  0  0  0  0  0  0  0  0  0  0
  -25.7880  -15.4490   20.2620 N   0  0  0  0  0  0  0  0  0  0  0  0
  -25.0420  -16.1050   20.4680 H   0  0  0  0  0  0  0  0  0  0  0  0
  -26.6000  -15.8910   19.8520 H   0  0  0  0  0  0  0  0  0  0  0  0
  -30.5380  -23.6680   22.2880 C   0  0  0  0  0  1  0  0  0  0  0  0
  -29.4740  -23.4450   21.1950 C   0  0  0  0  0  3  0  0  0  0  0  0
  -29.3980  -24.6180   20.1530 C   0  0  0  0  0  2  0  0  0  0  0  0
  -29.8180  -26.7530   21.6110 C   0  0  0  0  0  1  0  0  0  0  0  0
  -28.8550  -25.9980   20.6740 C   0  0  0  0  0  3  0  0  0  0  0  0
  -28.6090  -26.9100   19.5850 O   0  0  0  0  0  0  0  0  0  0  0  0
  -24.6160  -31.7270   23.0430 C   0  0  0  0  0  0  0  0  0  0  0  0
  -27.4280  -27.6180   19.6700 C   0  0  0  0  0  0  0  0  0  0  0  0
  -23.4560  -30.3820   21.3200 C   0  0  0  0  0  3  0  0  0  0  0  0
  -24.9660  -29.0050   19.7880 C   0  0  0  0  0  0  0  0  0  0  0  0
  -25.9570  -30.8760   21.1180 C   0  0  0  0  0  2  0  0  0  0  0  0
  -26.1040  -29.5490   20.3990 C   0  0  0  0  0  0  0  0  0  0  0  0
  -27.3400  -28.8670   20.3300 C   0  0  0  0  0  3  0  0  0  0  0  0
  -26.2750  -27.0870   19.0590 C   0  0  0  0  0  3  0  0  0  0  0  0
  -25.0450  -27.7740   19.1140 C   0  0  0  0  0  3  0  0  0  0  0  0
  -23.6850  -29.8010   19.8990 C   0  0  0  0  0  2  0  0  0  0  0  0
  -24.6960  -31.0060   21.8880 N   0  0  0  0  0  0  0  0  0  0  0  0
  -23.5300  -31.9120   23.6090 O   0  0  0  0  0  0  0  0  0  0  0  0
  -22.8620  -29.2720   22.2180 C   0  0  0  0  0  0  0  0  0  0  0  0
  -21.5420  -29.0550   22.1080 N   0  0  0  0  0  0  0  0  0  0  0  0
  -23.5860  -28.6110   22.9670 O   0  0  0  0  0  0  0  0  0  0  0  0
  -21.0130  -29.6470   21.4830 H   0  0  0  0  0  0  0  0  0  0  0  0
  -18.2150  -27.7450   22.6280 C   0  0  0  0  0  0  0  0  0  0  0  0
  -20.7760  -28.0350   22.8250 C   0  0  0  0  0  3  0  0  0  0  0  0
  -20.8830  -26.6600   22.1260 C   0  0  0  0  0  2  0  0  0  0  0  0
  -19.7500  -26.4030   21.1280 C   0  0  0  0  0  2  0  0  0  0  0  0
  -18.3920  -26.4620   21.8330 C   0  0  0  0  0  2  0  0  0  0  0  0
  -19.3350  -28.4910   23.0820 C   0  0  0  0  0  0  0  0  0  0  0  0
  -19.1150  -29.6950   23.7870 C   0  0  0  0  0  3  0  0  0  0  0  0
  -17.8080  -30.1540   24.0390 C   0  0  0  0  0  3  0  0  0  0  0  0
  -16.7050  -29.4040   23.5990 C   0  0  0  0  0  3  0  0  0  0  0  0
  -16.9080  -28.2000   22.9010 C   0  0  0  0  0  3  0  0  0  0  0  0
  -25.8790  -32.3730   23.6950 C   0  0  0  0  0  3  0  0  0  0  0  0
  -26.4160  -31.5670   24.9390 C   0  0  1  0  0  0  0  0  0  0  0  0
  -25.3270  -31.2490   25.9900 C   0  0  0  0  0  1  0  0  0  0  0  0
  -27.0480  -30.2290   24.4890 C   0  0  0  0  0  1  0  0  0  0  0  0
  -27.5390  -32.3700   25.6390 C   0  0  0  0  0  1  0  0  0  0  0  0
  -25.5250  -33.7490   24.0720 N   0  0  0  0  0  0  0  0  0  0  0  0
  -25.8530  -34.8370   23.3640 C   0  0  0  0  0  0  0  0  0  0  0  0
  -26.5520  -34.7900   22.3470 O   0  0  0  0  0  0  0  0  0  0  0  0
  -24.8960  -33.8570   24.8550 H   0  0  0  0  0  0  0  0  0  0  0  0
  -24.0960  -36.6040   23.0270 C   0  0  0  0  0  1  0  0  0  0  0  0
  -25.3200  -36.1940   23.8610 C   0  0  0  0  0  3  0  0  0  0  0  0
  -27.4030  -37.0930   24.8020 C   0  0  0  0  0  1  0  0  0  0  0  0
  -26.3320  -37.2720   23.8250 N   0  0  0  0  0  0  0  0  0  0  0  0
  -25.9010  -38.1770   23.9910 H   0  0  0  0  0  0  0  0  0  0  0  0
  1  2  2  0
  2  5  1  0
  2  4  1  0
  3 51  1  0
  3  1  1  0
  6  3  1  0
  7 19  1  0
  8 13  1  0
  9 10  1  0
  9  8  1  0
 11 10  1  0
 11 25  1  0
 11 12  1  0
 13  7  1  0
 13 12  1  0
 14  7  2  0
 15 16  2  0
 16  1  1  0
 16 20  1  0
 17 19  1  0
 17 20  1  0
 18 15  1  0
 18 17  2  0
 19 21  1  0
 22 23  2  0
 23 42  1  0
 24 23  1  0
 24 27  1  0
 25 26  1  0
 25 22  1  0
 26 24  2  0
 27 28  1  0
 28 29  2  0
 30 33  1  0
 30 29  1  0
 31 30  2  0
 32 31  1  0
 32 27  2  0
 33 34  1  0
 34 39  2  0
 34 35  1  0
 35 36  2  0
 36 37  1  0
 37 41  1  0
 38 37  2  0
 39 38  1  0
 40 39  1  0
 42 43  1  0
 43 46  1  0
 43 45  1  0
 44 42  2  0
 47 22  1  0
 47 48  1  0
 49 47  1  0
 51 50  1  0
 52 54  1  0
 52 51  1  0
 54 53  1  0
 55 57  1  0
 55 54  1  0
 56 67  2  0
 57 62  1  0
 58 66  1  0
 58 68  1  0
 59 65  1  0
 59 61  1  0
 60 66  1  0
 61 60  1  0
 62 61  2  0
 63 64  1  0
 63 57  2  0
 64 59  2  0
 65 58  1  0
 66 56  1  0
 68 70  2  0
 69 68  1  0
 71 69  1  0
 72 81  2  0
 72 77  1  0
 73 69  1  0
 73 77  1  0
 74 73  1  0
 75 76  1  0
 75 74  1  0
 76 72  1  0
 77 78  2  0
 78 79  1  0
 80 79  2  0
 81 80  1  0
 82 56  1  0
 82 87  1  0
 82 83  1  0
 83 86  1  1
 83 84  1  0
 85 83  1  0
 87 90  1  0
 88 92  1  0
 88 87  1  0
 89 88  2  0
 92 91  1  0
 94 92  1  0
 94 95  1  0
 94 93  1  0
M  ISO  4   7 100  19 100  54 101  55 101
M  END
>  <TORSDO>  (53) 
F 19

>  <SCORE>  (53) 
-12.011

>  <name>  (53) 
52

>  <ligand_id>  (53) 
52

>  <original_smiles>  (53) 
[H]c1nc(N([H])C(=O)N2C([H])([H])C([H])([H])C([H])([H])C([H])(n3nc(-c4c([H])c([H])c(Oc5c([H])c([H])c(F)c([H])c5F)c([H])c4[H])c(C(=O)N([H])[H])c3N([H])[H])C2([H])[H])sc1C(N([H])[H])=[N+]([H])C([H])(C([H])([H])[H])C([H])([H])C([H])(Oc1c([H])c([H])c2c(c1[H])C([H])([H])N(C(=O)C([H])(N([H])C(=O)C([H])(N([H])C([H])([H])[H])C([H])([H])[H])C(C([H])([H])[H])(C([H])([H])[H])C([H])([H])[H])C([H])(C(=O)N([H])C1([H])c3c([H])c([H])c([H])c([H])c3C([H])([H])C([H])([H])C1([H])[H])C2([H])[H])C([H])([H])[H]

>  <smiles>  (53) 
[H]c1nc(N([H])C(=O)N2C([H])([H])C([H])([H])C([H])([H])C([H])(n3nc(-c4c([H])c([H])c(Oc5c([H])c([H])c(F)c([H])c5F)c([H])c4[H])c(C(=O)N([H])[H])c3N([H])[H])C2([H])[H])sc1C(N([H])[H])=[N+]([H])C([H])(C([H])([H])[H])C([H])([H])C([H])(Oc1c([H])c([H])c2c(c1[H])C([H])([H])N(C(=O)C([H])(N([H])C(=O)C([H])(N([H])C([H])([H])[H])C([H])([H])[H])C(C([H])([H])[H])(C([H])([H])[H])C([H])([H])[H])C([H])(C(=O)N([H])C1([H])c3c([H])c([H])c([H])c([H])c3C([H])([H])C([H])([H])C1([H])[H])C2([H])[H])C([H])([H])[H]

$$$$
53:0:0
     RDKit          3D

 98106  0  0  1  0  0  0  0  0999 V2000
  -29.7170  -21.9920   20.2230 C   0  0  0  0  0  3  0  0  0  0  0  0
  -28.8890  -21.9830   21.5220 C   0  0  0  0  0  0  0  0  0  0  0  0
  -27.4310  -21.5420   21.4590 C   0  0  0  0  0  1  0  0  0  0  0  0
  -29.3910  -22.3120   22.6000 O   0  0  0  0  0  0  0  0  0  0  0  0
  -30.0410  -23.4730   19.7720 C   0  0  0  0  0  2  0  0  0  0  0  0
  -28.8510  -24.4800   19.6410 C   0  0  0  0  0  3  0  0  0  0  0  0
  -27.8800  -23.9030   18.7820 O   0  0  0  0  0  0  0  0  0  0  0  0
  -28.2340  -23.8750   17.8990 H   0  0  0  0  0  0  0  0  0  0  0  0
  -29.2500  -25.8940   19.0910 C   0  0  0  0  0  2  0  0  0  0  0  0
  -28.9700  -27.0010   19.9660 O   0  0  0  0  0  0  0  0  0  0  0  0
  -24.7870  -31.7090   23.2850 C   0  0  0  0  0  0  0  0  0  0  0  0
  -27.7420  -27.6400   19.9500 C   0  0  0  0  0  0  0  0  0  0  0  0
  -23.7010  -30.3890   21.4950 C   0  0  0  0  0  3  0  0  0  0  0  0
  -25.2690  -29.0330   20.0040 C   0  0  0  0  0  0  0  0  0  0  0  0
  -26.2120  -30.8700   21.4180 C   0  0  0  0  0  2  0  0  0  0  0  0
  -26.3820  -29.5620   20.6670 C   0  0  0  0  0  0  0  0  0  0  0  0
  -27.6150  -28.8710   20.6410 C   0  0  0  0  0  3  0  0  0  0  0  0
  -26.6040  -27.1190   19.2950 C   0  0  0  0  0  3  0  0  0  0  0  0
  -25.3730  -27.8060   19.3230 C   0  0  0  0  0  3  0  0  0  0  0  0
  -23.9830  -29.8290   20.0750 C   0  0  0  0  0  2  0  0  0  0  0  0
  -24.9150  -31.0020   22.1260 N   0  0  0  0  0  0  0  0  0  0  0  0
  -23.6760  -31.8890   23.8060 O   0  0  0  0  0  0  0  0  0  0  0  0
  -23.0730  -29.2670   22.3520 C   0  0  0  0  0  0  0  0  0  0  0  0
  -21.7600  -29.0480   22.1840 N   0  0  0  0  0  0  0  0  0  0  0  0
  -23.7680  -28.6000   23.1210 O   0  0  0  0  0  0  0  0  0  0  0  0
  -21.2610  -29.6460   21.5410 H   0  0  0  0  0  0  0  0  0  0  0  0
  -18.4160  -27.7340   22.5540 C   0  0  0  0  0  0  0  0  0  0  0  0
  -20.9660  -28.0210   22.8560 C   0  0  0  0  0  3  0  0  0  0  0  0
  -21.1010  -26.6570   22.1410 C   0  0  0  0  0  2  0  0  0  0  0  0
  -20.0080  -26.4120   21.0940 C   0  0  0  0  0  2  0  0  0  0  0  0
  -18.6220  -26.4650   21.7420 C   0  0  0  0  0  2  0  0  0  0  0  0
  -19.5160  -28.4720   23.0610 C   0  0  0  0  0  0  0  0  0  0  0  0
  -19.2710  -29.6640   23.7760 C   0  0  0  0  0  3  0  0  0  0  0  0
  -17.9570  -30.1170   23.9900 C   0  0  0  0  0  3  0  0  0  0  0  0
  -16.8670  -29.3770   23.4970 C   0  0  0  0  0  3  0  0  0  0  0  0
  -17.0980  -28.1860   22.7850 C   0  0  0  0  0  3  0  0  0  0  0  0
  -26.0220  -32.3470   23.9950 C   0  0  0  0  0  3  0  0  0  0  0  0
  -25.6670  -33.7280   24.3490 N   0  0  0  0  0  0  0  0  0  0  0  0
  -26.0140  -34.8090   23.6380 C   0  0  0  0  0  0  0  0  0  0  0  0
  -26.7330  -34.7530   22.6360 O   0  0  0  0  0  0  0  0  0  0  0  0
  -25.0360  -33.8490   25.1270 H   0  0  0  0  0  0  0  0  0  0  0  0
  -24.2540  -36.5590   23.2610 C   0  0  0  0  0  1  0  0  0  0  0  0
  -25.4710  -36.1710   24.1140 C   0  0  0  0  0  3  0  0  0  0  0  0
  -27.5390  -37.0870   25.0600 C   0  0  0  0  0  1  0  0  0  0  0  0
  -26.4760  -37.2510   24.0730 N   0  0  0  0  0  0  0  0  0  0  0  0
  -26.0390  -38.1550   24.2270 H   0  0  0  0  0  0  0  0  0  0  0  0
  -26.4860  -31.5530   25.2770 C   0  0  1  0  0  0  0  0  0  0  0  0
  -25.3420  -31.2630   26.2760 C   0  0  0  0  0  1  0  0  0  0  0  0
  -27.1250  -30.2040   24.8770 C   0  0  0  0  0  1  0  0  0  0  0  0
  -27.5820  -32.3550   26.0200 C   0  0  0  0  0  1  0  0  0  0  0  0
  -30.9850  -21.0760   20.4200 C   0  0  0  0  0  3  0  0  0  0  0  0
  -30.8160  -17.5650   19.1020 C   0  0  0  0  0  3  0  0  0  0  0  0
  -30.6010  -17.0620   20.3670 C   0  0  0  0  0  0  0  0  0  0  0  0
  -30.7880  -19.5730   20.2150 C   0  0  0  0  0  0  0  0  0  0  0  0
  -30.8910  -18.9650   19.0240 N   0  0  0  0  0  0  0  0  0  0  0  0
  -30.4620  -18.3970   21.5080 S   0  0  0  0  0  0  0  0  0  0  0  0
  -31.0770  -14.7020   20.1270 C   0  0  0  0  0  0  0  0  0  0  0  0
  -30.7060  -12.5120   19.0530 C   0  0  0  0  0  2  0  0  0  0  0  0
  -29.7290  -12.7170   17.8760 C   0  0  0  0  0  2  0  0  0  0  0  0
  -28.2690  -12.6070   18.3560 C   0  0  0  0  0  2  0  0  0  0  0  0
  -27.9870  -13.4660   19.6190 C   0  0  0  0  0  3  0  0  0  0  0  0
  -29.0820  -13.2550   20.6940 C   0  0  0  0  0  2  0  0  0  0  0  0
  -30.3890  -13.5270   20.0760 N   0  0  0  0  0  0  0  0  0  0  0  0
  -32.1710  -14.8520   19.5750 O   0  0  0  0  0  0  0  0  0  0  0  0
  -30.4620  -15.7440   20.7270 N   0  0  0  0  0  0  0  0  0  0  0  0
  -29.6980  -15.5200   21.3470 H   0  0  0  0  0  0  0  0  0  0  0  0
  -25.6470  -14.1150   20.4700 C   0  0  0  0  0  0  0  0  0  0  0  0
  -24.5720  -13.3630   20.8580 C   0  0  0  0  0  0  0  0  0  0  0  0
  -24.9850  -12.0000   20.7500 C   0  0  0  0  0  0  0  0  0  0  0  0
  -26.6490  -13.2130   20.1500 N   0  0  0  0  0  0  0  0  0  0  0  0
  -26.2560  -11.9320   20.3770 N   0  0  0  0  0  0  0  0  0  0  0  0
  -24.2250  -10.7560   20.9280 C   0  0  0  0  0  0  0  0  0  0  0  0
  -24.6260   -9.7750   21.8620 C   0  0  0  0  0  3  0  0  0  0  0  0
  -23.8700   -8.5940   22.0290 C   0  0  0  0  0  3  0  0  0  0  0  0
  -22.6980   -8.3880   21.2610 C   0  0  0  0  0  0  0  0  0  0  0  0
  -22.3170   -9.3570   20.3160 C   0  0  0  0  0  3  0  0  0  0  0  0
  -23.0740  -10.5280   20.1480 C   0  0  0  0  0  3  0  0  0  0  0  0
  -21.9160   -7.2600   21.3370 O   0  0  0  0  0  0  0  0  0  0  0  0
  -21.7880   -6.5490   22.5030 C   0  0  0  0  0  0  0  0  0  0  0  0
  -21.2510   -7.1270   23.6740 C   0  0  0  0  0  3  0  0  0  0  0  0
  -21.0730   -6.3410   24.8290 C   0  0  0  0  0  3  0  0  0  0  0  0
  -21.4220   -4.9770   24.8120 C   0  0  0  0  0  0  0  0  0  0  0  0
  -21.9510   -4.3980   23.6460 C   0  0  0  0  0  3  0  0  0  0  0  0
  -22.1310   -5.1820   22.4950 C   0  0  0  0  0  0  0  0  0  0  0  0
  -22.6210   -4.6150   21.3660 F   0  0  0  0  0  0  0  0  0  0  0  0
  -21.2450   -4.2170   25.9200 F   0  0  0  0  0  0  0  0  0  0  0  0
  -23.2070  -13.8740   21.2190 C   0  0  0  0  0  0  0  0  0  0  0  0
  -22.5020  -13.1710   22.1000 N   0  0  0  0  0  0  0  0  0  0  0  0
  -22.7740  -14.9280   20.7560 O   0  0  0  0  0  0  0  0  0  0  0  0
  -22.8650  -12.3170   22.4990 H   0  0  0  0  0  0  0  0  0  0  0  0
  -21.5850  -13.4910   22.3790 H   0  0  0  0  0  0  0  0  0  0  0  0
  -25.8500  -15.4870   20.3470 N   0  0  0  0  0  0  0  0  0  0  0  0
  -25.1150  -16.1560   20.5460 H   0  0  0  0  0  0  0  0  0  0  0  0
  -26.7080  -15.9210   20.0330 H   0  0  0  0  0  0  0  0  0  0  0  0
  -32.0760  -21.3670   19.4680 N   0  0  0  0  0  4  0  0  0  0  0  0
  -31.7890  -21.0720   18.5500 H   0  0  0  0  0  0  0  0  0  0  0  0
  -32.8790  -20.8160   19.7150 H   0  0  0  0  0  0  0  0  0  0  0  0
  -32.3360  -22.3360   19.4640 H   0  0  0  0  0  0  0  0  0  0  0  0
  1  5  1  0
  1 51  1  0
  1  2  1  0
  2  4  2  0
  3  2  1  0
  6  9  1  0
  6  5  1  0
  7  6  1  0
  8  7  1  0
  9 10  1  0
 11 22  2  0
 12 10  1  0
 12 17  1  0
 13 21  1  0
 13 23  1  0
 14 20  1  0
 14 16  1  0
 15 21  1  0
 16 15  1  0
 17 16  2  0
 18 19  1  0
 18 12  2  0
 19 14  2  0
 20 13  1  0
 21 11  1  0
 23 25  2  0
 24 23  1  0
 26 24  1  0
 27 36  2  0
 27 32  1  0
 28 24  1  0
 28 32  1  0
 29 28  1  0
 30 31  1  0
 30 29  1  0
 31 27  1  0
 32 33  2  0
 33 34  1  0
 35 34  2  0
 36 35  1  0
 37 11  1  0
 37 38  1  0
 37 47  1  0
 38 41  1  0
 39 43  1  0
 39 38  1  0
 40 39  2  0
 43 42  1  0
 45 43  1  0
 45 46  1  0
 45 44  1  0
 47 50  1  1
 47 48  1  0
 49 47  1  0
 51 95  1  0
 52 53  2  0
 53 65  1  0
 53 56  1  0
 54 51  1  0
 54 56  1  0
 55 52  1  0
 55 54  2  0
 57 65  1  0
 58 63  1  0
 59 60  1  0
 59 58  1  0
 61 60  1  0
 61 70  1  0
 61 62  1  0
 63 57  1  0
 63 62  1  0
 64 57  2  0
 65 66  1  0
 67 68  2  0
 68 87  1  0
 69 68  1  0
 69 72  1  0
 70 71  1  0
 70 67  1  0
 71 69  2  0
 72 73  1  0
 73 74  2  0
 75 78  1  0
 75 74  1  0
 76 75  2  0
 77 76  1  0
 77 72  2  0
 78 79  1  0
 79 80  1  0
 80 81  2  0
 82 81  1  0
 82 86  1  0
 83 82  2  0
 84 79  2  0
 84 83  1  0
 85 84  1  0
 87 88  1  0
 88 91  1  0
 88 90  1  0
 89 87  2  0
 92 67  1  0
 92 93  1  0
 94 92  1  0
 95 97  1  0
 96 95  1  0
 98 95  1  0
M  ISO  4   9 101  10 101  57 100  65 100
M  END
>  <TORSDO>  (54) 
F 24

>  <SCORE>  (54) 
-11.566

>  <name>  (54) 
53

>  <ligand_id>  (54) 
53

>  <original_smiles>  (54) 
[H]OC([H])(C([H])([H])Oc1c([H])c([H])c2c(c1[H])C([H])([H])N(C(=O)C([H])(N([H])C(=O)C([H])(N([H])C([H])([H])[H])C([H])([H])[H])C(C([H])([H])[H])(C([H])([H])[H])C([H])([H])[H])C([H])(C(=O)N([H])C1([H])c3c([H])c([H])c([H])c([H])c3C([H])([H])C([H])([H])C1([H])[H])C2([H])[H])C([H])([H])C([H])(C(=O)C([H])([H])[H])C([H])(c1nc([H])c(N([H])C(=O)N2C([H])([H])C([H])([H])C([H])([H])C([H])(n3nc(-c4c([H])c([H])c(Oc5c([H])c([H])c(F)c([H])c5F)c([H])c4[H])c(C(=O)N([H])[H])c3N([H])[H])C2([H])[H])s1)[N+]([H])([H])[H]

>  <smiles>  (54) 
[H]OC([H])(C([H])([H])Oc1c([H])c([H])c2c(c1[H])C([H])([H])N(C(=O)C([H])(N([H])C(=O)C([H])(N([H])C([H])([H])[H])C([H])([H])[H])C(C([H])([H])[H])(C([H])([H])[H])C([H])([H])[H])C([H])(C(=O)N([H])C1([H])c3c([H])c([H])c([H])c([H])c3C([H])([H])C([H])([H])C1([H])[H])C2([H])[H])C([H])([H])C([H])(C(=O)C([H])([H])[H])C([H])(c1nc([H])c(N([H])C(=O)N2C([H])([H])C([H])([H])C([H])([H])C([H])(n3nc(-c4c([H])c([H])c(Oc5c([H])c([H])c(F)c([H])c5F)c([H])c4[H])c(C(=O)N([H])[H])c3N([H])[H])C2([H])[H])s1)[N+]([H])([H])[H]

$$$$
54:0:0
     RDKit          3D

 93101  0  0  1  0  0  0  0  0999 V2000
  -25.7580  -21.1940   22.1020 C   0  0  0  0  0  1  0  0  0  0  0  0
  -26.6420  -22.0100   21.1370 C   0  0  0  0  0  3  0  0  0  0  0  0
  -29.7010  -18.0010   20.9050 C   0  0  0  0  0  0  0  0  0  0  0  0
  -28.3100  -19.9810   20.7840 C   0  0  0  0  0  0  0  0  0  0  0  0
  -28.8630  -18.1020   21.9430 N   0  0  0  0  0  0  0  0  0  0  0  0
  -28.0860  -19.2530   21.8850 N   0  0  0  0  0  0  0  0  0  0  0  0
  -27.6340  -21.1630   20.4700 N   0  0  0  0  0  0  0  0  0  0  0  0
  -29.5410  -19.3050   19.7190 S   0  0  0  0  0  0  0  0  0  0  0  0
  -27.8440  -21.4800   19.5290 H   0  0  0  0  0  0  0  0  0  0  0  0
  -30.7290  -16.9100   20.8030 C   0  0  0  0  0  2  0  0  0  0  0  0
  -30.7540  -14.4600   20.5360 C   0  0  0  0  0  0  0  0  0  0  0  0
  -30.3960  -12.2910   19.4360 C   0  0  0  0  0  2  0  0  0  0  0  0
  -29.4940  -12.4870   18.2030 C   0  0  0  0  0  2  0  0  0  0  0  0
  -28.0120  -12.3630   18.6030 C   0  0  0  0  0  2  0  0  0  0  0  0
  -27.6450  -13.2240   19.8430 C   0  0  0  0  0  3  0  0  0  0  0  0
  -28.6820  -13.0680   20.9770 C   0  0  0  0  0  2  0  0  0  0  0  0
  -30.0200  -13.3190   20.4190 N   0  0  0  0  0  0  0  0  0  0  0  0
  -31.9060  -14.5500   20.1110 O   0  0  0  0  0  0  0  0  0  0  0  0
  -30.1190  -15.5710   20.9420 N   0  0  0  0  0  0  0  0  0  0  0  0
  -29.1540  -15.5190   21.2300 H   0  0  0  0  0  0  0  0  0  0  0  0
  -25.2460  -13.8160   20.5490 C   0  0  0  0  0  0  0  0  0  0  0  0
  -24.1790  -13.0440   20.9150 C   0  0  0  0  0  0  0  0  0  0  0  0
  -24.6380  -11.6910   20.8660 C   0  0  0  0  0  0  0  0  0  0  0  0
  -26.2910  -12.9370   20.3160 N   0  0  0  0  0  0  0  0  0  0  0  0
  -25.9320  -11.6530   20.5650 N   0  0  0  0  0  0  0  0  0  0  0  0
  -23.9030  -10.4300   21.0360 C   0  0  0  0  0  0  0  0  0  0  0  0
  -24.3600   -9.4220   21.9130 C   0  0  0  0  0  3  0  0  0  0  0  0
  -23.6290   -8.2260   22.0700 C   0  0  0  0  0  3  0  0  0  0  0  0
  -22.4250   -8.0280   21.3530 C   0  0  0  0  0  0  0  0  0  0  0  0
  -21.9860   -9.0240   20.4640 C   0  0  0  0  0  3  0  0  0  0  0  0
  -22.7170  -10.2140   20.3050 C   0  0  0  0  0  3  0  0  0  0  0  0
  -21.6680   -6.8860   21.4230 O   0  0  0  0  0  0  0  0  0  0  0  0
  -21.6870   -6.0720   22.5270 C   0  0  0  0  0  0  0  0  0  0  0  0
  -21.4020   -6.5620   23.8230 C   0  0  0  0  0  3  0  0  0  0  0  0
  -21.3650   -5.6790   24.9180 C   0  0  0  0  0  3  0  0  0  0  0  0
  -21.6060   -4.3050   24.7260 C   0  0  0  0  0  0  0  0  0  0  0  0
  -21.8810   -3.8130   23.4370 C   0  0  0  0  0  3  0  0  0  0  0  0
  -21.9190   -4.6930   22.3430 C   0  0  0  0  0  0  0  0  0  0  0  0
  -22.1650   -4.2100   21.1000 F   0  0  0  0  0  0  0  0  0  0  0  0
  -21.5630   -3.4550   25.7770 F   0  0  0  0  0  0  0  0  0  0  0  0
  -22.7800  -13.5210   21.1880 C   0  0  0  0  0  0  0  0  0  0  0  0
  -22.0430  -12.8210   22.0440 N   0  0  0  0  0  0  0  0  0  0  0  0
  -22.3480  -14.5500   20.6720 O   0  0  0  0  0  0  0  0  0  0  0  0
  -22.3930  -11.9880   22.4880 H   0  0  0  0  0  0  0  0  0  0  0  0
  -21.1040  -13.1290   22.2600 H   0  0  0  0  0  0  0  0  0  0  0  0
  -25.4080  -15.1850   20.3610 N   0  0  0  0  0  0  0  0  0  0  0  0
  -24.6090  -15.8100   20.3670 H   0  0  0  0  0  0  0  0  0  0  0  0
  -26.2350  -15.6020   19.9520 H   0  0  0  0  0  0  0  0  0  0  0  0
  -26.3970  -23.9250   22.8340 C   0  0  0  0  0  1  0  0  0  0  0  0
  -27.3040  -23.2730   21.7650 C   0  0  0  0  0  3  0  0  0  0  0  0
  -27.6850  -24.2880   20.6480 C   0  0  0  0  0  2  0  0  0  0  0  0
  -28.2930  -25.6380   21.1170 C   0  0  0  0  0  2  0  0  0  0  0  0
  -28.3510  -26.6560   20.1050 O   0  0  0  0  0  0  0  0  0  0  0  0
  -24.6190  -31.8730   23.2150 C   0  0  0  0  0  0  0  0  0  0  0  0
  -27.2290  -27.4510   20.0820 C   0  0  0  0  0  0  0  0  0  0  0  0
  -23.4060  -30.5010   21.5540 C   0  0  0  0  0  3  0  0  0  0  0  0
  -24.8550  -28.9730   20.1100 C   0  0  0  0  0  0  0  0  0  0  0  0
  -25.9360  -30.8390   21.3720 C   0  0  0  0  0  2  0  0  0  0  0  0
  -26.0140  -29.4740   20.7180 C   0  0  0  0  0  0  0  0  0  0  0  0
  -27.2040  -28.7150   20.7140 C   0  0  0  0  0  3  0  0  0  0  0  0
  -26.0710  -26.9810   19.4380 C   0  0  0  0  0  3  0  0  0  0  0  0
  -24.8770  -27.7220   19.4680 C   0  0  0  0  0  3  0  0  0  0  0  0
  -23.6160  -29.8350   20.1670 C   0  0  0  0  0  2  0  0  0  0  0  0
  -24.6730  -31.0790   22.1080 N   0  0  0  0  0  0  0  0  0  0  0  0
  -23.5370  -32.1500   23.7500 O   0  0  0  0  0  0  0  0  0  0  0  0
  -22.7440  -29.4710   22.4970 C   0  0  0  0  0  0  0  0  0  0  0  0
  -21.4180  -29.3040   22.3680 N   0  0  0  0  0  0  0  0  0  0  0  0
  -23.4200  -28.8250   23.3030 O   0  0  0  0  0  0  0  0  0  0  0  0
  -20.9360  -29.8750   21.6870 H   0  0  0  0  0  0  0  0  0  0  0  0
  -18.0310  -28.1430   22.8540 C   0  0  0  0  0  0  0  0  0  0  0  0
  -20.5890  -28.3690   23.1320 C   0  0  0  0  0  3  0  0  0  0  0  0
  -20.6770  -26.9420   22.5420 C   0  0  0  0  0  2  0  0  0  0  0  0
  -19.5720  -26.6430   21.5250 C   0  0  0  0  0  2  0  0  0  0  0  0
  -18.1920  -26.8000   22.1670 C   0  0  0  0  0  2  0  0  0  0  0  0
  -19.1550  -28.8890   23.2960 C   0  0  0  0  0  0  0  0  0  0  0  0
  -18.9470  -30.1500   23.8960 C   0  0  0  0  0  3  0  0  0  0  0  0
  -17.6450  -30.6630   24.0610 C   0  0  0  0  0  3  0  0  0  0  0  0
  -16.5360  -29.9130   23.6340 C   0  0  0  0  0  3  0  0  0  0  0  0
  -16.7300  -28.6550   23.0380 C   0  0  0  0  0  3  0  0  0  0  0  0
  -25.9090  -32.4870   23.8450 C   0  0  0  0  0  3  0  0  0  0  0  0
  -25.5940  -33.8660   24.2440 N   0  0  0  0  0  0  0  0  0  0  0  0
  -25.8990  -34.9500   23.5190 C   0  0  0  0  0  0  0  0  0  0  0  0
  -26.5510  -34.8910   22.4720 O   0  0  0  0  0  0  0  0  0  0  0  0
  -25.0210  -33.9840   25.0680 H   0  0  0  0  0  0  0  0  0  0  0  0
  -24.1440  -36.7280   23.2640 C   0  0  0  0  0  1  0  0  0  0  0  0
  -25.4060  -36.3140   24.0380 C   0  0  0  0  0  3  0  0  0  0  0  0
  -27.5570  -37.1790   24.8480 C   0  0  0  0  0  1  0  0  0  0  0  0
  -26.4260  -37.3820   23.9470 N   0  0  0  0  0  0  0  0  0  0  0  0
  -26.0150  -38.2910   24.1510 H   0  0  0  0  0  0  0  0  0  0  0  0
  -26.4500  -31.6630   25.0780 C   0  0  1  0  0  0  0  0  0  0  0  0
  -25.3740  -31.3720   26.1490 C   0  0  0  0  0  1  0  0  0  0  0  0
  -27.0310  -30.3070   24.6140 C   0  0  0  0  0  1  0  0  0  0  0  0
  -27.6100  -32.4300   25.7560 C   0  0  0  0  0  1  0  0  0  0  0  0
  2 50  1  0
  2  1  1  0
  3  5  2  0
  4  6  2  0
  6  5  1  0
  7  4  1  0
  7  2  1  0
  8  4  1  0
  8  3  1  0
  9  7  1  0
 10  3  1  0
 10 19  1  0
 11 19  1  0
 12 17  1  0
 13 14  1  0
 13 12  1  0
 15 14  1  0
 15 24  1  0
 15 16  1  0
 17 11  1  0
 17 16  1  0
 18 11  2  0
 19 20  1  0
 21 22  2  0
 22 41  1  0
 23 22  1  0
 23 26  1  0
 24 21  1  0
 24 25  1  0
 25 23  2  0
 26 27  1  0
 27 28  2  0
 29 32  1  0
 29 28  1  0
 30 29  2  0
 31 30  1  0
 31 26  2  0
 32 33  1  0
 33 34  1  0
 34 35  2  0
 36 35  1  0
 36 40  1  0
 37 36  2  0
 38 33  2  0
 38 37  1  0
 39 38  1  0
 41 42  1  0
 42 45  1  0
 42 44  1  0
 43 41  2  0
 46 47  1  0
 46 21  1  0
 48 46  1  0
 50 49  1  0
 51 52  1  0
 51 50  1  0
 53 52  1  0
 54 65  2  0
 55 53  1  0
 55 60  1  0
 56 64  1  0
 56 66  1  0
 57 63  1  0
 57 59  1  0
 58 64  1  0
 59 58  1  0
 60 59  2  0
 61 62  1  0
 61 55  2  0
 62 57  2  0
 63 56  1  0
 64 54  1  0
 66 68  2  0
 67 66  1  0
 69 67  1  0
 70 79  2  0
 70 75  1  0
 71 67  1  0
 71 75  1  0
 72 71  1  0
 73 74  1  0
 73 72  1  0
 74 70  1  0
 75 76  2  0
 76 77  1  0
 78 77  2  0
 79 78  1  0
 80 54  1  0
 80 81  1  0
 80 90  1  0
 81 84  1  0
 82 86  1  0
 82 81  1  0
 83 82  2  0
 86 85  1  0
 88 86  1  0
 88 89  1  0
 88 87  1  0
 90 93  1  1
 90 91  1  0
 92 90  1  0
M  ISO  4  11 100  19 100  52 101  53 101
M  END
>  <TORSDO>  (55) 
F 21

>  <SCORE>  (55) 
-2.647

>  <name>  (55) 
54

>  <ligand_id>  (55) 
54

>  <original_smiles>  (55) 
[H]c1c([H])c([H])c2c(c1[H])C([H])([H])C([H])([H])C([H])([H])C2([H])N([H])C(=O)C1([H])N(C(=O)C([H])(N([H])C(=O)C([H])(N([H])C([H])([H])[H])C([H])([H])[H])C(C([H])([H])[H])(C([H])([H])[H])C([H])([H])[H])C([H])([H])c2c([H])c(OC([H])([H])C([H])([H])C([H])(C([H])([H])[H])C([H])(N([H])c3nnc(C([H])([H])N([H])C(=O)N4C([H])([H])C([H])([H])C([H])([H])C([H])(n5nc(-c6c([H])c([H])c(Oc7c([H])c([H])c(F)c([H])c7F)c([H])c6[H])c(C(=O)N([H])[H])c5N([H])[H])C4([H])[H])s3)C([H])([H])[H])c([H])c([H])c2C1([H])[H]

>  <smiles>  (55) 
[H]c1c([H])c([H])c2c(c1[H])C([H])([H])C([H])([H])C([H])([H])C2([H])N([H])C(=O)C1([H])N(C(=O)C([H])(N([H])C(=O)C([H])(N([H])C([H])([H])[H])C([H])([H])[H])C(C([H])([H])[H])(C([H])([H])[H])C([H])([H])[H])C([H])([H])c2c([H])c(OC([H])([H])C([H])([H])C([H])(C([H])([H])[H])C([H])(N([H])c3nnc(C([H])([H])N([H])C(=O)N4C([H])([H])C([H])([H])C([H])([H])C([H])(n5nc(-c6c([H])c([H])c(Oc7c([H])c([H])c(F)c([H])c7F)c([H])c6[H])c(C(=O)N([H])[H])c5N([H])[H])C4([H])[H])s3)C([H])([H])[H])c([H])c([H])c2C1([H])[H]

$$$$
55:0:0
     RDKit          3D

 90 98  0  0  1  0  0  0  0  0999 V2000
  -29.2120  -23.0570   20.7300 C   0  0  0  0  0  0  0  0  0  0  0  0
  -30.1280  -23.3450   21.9220 C   0  0  0  0  0  1  0  0  0  0  0  0
  -29.0510  -21.8860   20.2140 N   0  0  0  0  0  0  0  0  0  0  0  0
  -30.4820  -19.0620   21.9960 C   0  0  0  0  0  3  0  0  0  0  0  0
  -30.6130  -18.4410   20.7790 C   0  0  0  0  0  0  0  0  0  0  0  0
  -29.6070  -20.7320   20.6720 C   0  0  0  0  0  0  0  0  0  0  0  0
  -29.8950  -20.3360   21.9200 N   0  0  0  0  0  0  0  0  0  0  0  0
  -29.9390  -19.4410   19.5120 S   0  0  0  0  0  0  0  0  0  0  0  0
  -31.2840  -17.1290   20.4520 C   0  0  0  0  0  2  0  0  0  0  0  0
  -30.4760  -15.8270   20.7210 C   0  0  0  0  0  2  0  0  0  0  0  0
  -31.1280  -14.5540   20.1150 C   0  0  0  0  0  0  0  0  0  0  0  0
  -30.7340  -12.3890   18.9960 C   0  0  0  0  0  2  0  0  0  0  0  0
  -29.7760  -12.6110   17.8070 C   0  0  0  0  0  2  0  0  0  0  0  0
  -28.3090  -12.5170   18.2680 C   0  0  0  0  0  2  0  0  0  0  0  0
  -28.0210  -13.3850   19.5210 C   0  0  0  0  0  3  0  0  0  0  0  0
  -29.0930  -13.1670   20.6120 C   0  0  0  0  0  2  0  0  0  0  0  0
  -30.4140  -13.4000   20.0160 N   0  0  0  0  0  0  0  0  0  0  0  0
  -32.2500  -14.6610   19.6130 O   0  0  0  0  0  0  0  0  0  0  0  0
  -25.6630  -14.0730   20.2880 C   0  0  0  0  0  0  0  0  0  0  0  0
  -24.5790  -13.3360   20.6830 C   0  0  0  0  0  0  0  0  0  0  0  0
  -24.9940  -11.9700   20.6450 C   0  0  0  0  0  0  0  0  0  0  0  0
  -26.6720  -13.1570   20.0340 N   0  0  0  0  0  0  0  0  0  0  0  0
  -26.2740  -11.8880   20.3070 N   0  0  0  0  0  0  0  0  0  0  0  0
  -24.2320  -10.7320   20.8540 C   0  0  0  0  0  0  0  0  0  0  0  0
  -24.6200   -9.7800   21.8220 C   0  0  0  0  0  3  0  0  0  0  0  0
  -23.8600   -8.6070   22.0170 C   0  0  0  0  0  3  0  0  0  0  0  0
  -22.6970   -8.3780   21.2440 C   0  0  0  0  0  0  0  0  0  0  0  0
  -22.3260   -9.3200   20.2680 C   0  0  0  0  0  3  0  0  0  0  0  0
  -23.0870  -10.4840   20.0700 C   0  0  0  0  0  3  0  0  0  0  0  0
  -21.9110   -7.2560   21.3470 O   0  0  0  0  0  0  0  0  0  0  0  0
  -21.7710   -6.5810   22.5340 C   0  0  0  0  0  0  0  0  0  0  0  0
  -21.2640   -7.2090   23.6920 C   0  0  0  0  0  3  0  0  0  0  0  0
  -21.0710   -6.4600   24.8720 C   0  0  0  0  0  3  0  0  0  0  0  0
  -21.3740   -5.0860   24.8900 C   0  0  0  0  0  0  0  0  0  0  0  0
  -21.8740   -4.4580   23.7350 C   0  0  0  0  0  3  0  0  0  0  0  0
  -22.0690   -5.2040   22.5600 C   0  0  0  0  0  0  0  0  0  0  0  0
  -22.5290   -4.5890   21.4440 F   0  0  0  0  0  0  0  0  0  0  0  0
  -21.1830   -4.3650   26.0200 F   0  0  0  0  0  0  0  0  0  0  0  0
  -23.2050  -13.8610   20.9880 C   0  0  0  0  0  0  0  0  0  0  0  0
  -22.4800  -13.1940   21.8820 N   0  0  0  0  0  0  0  0  0  0  0  0
  -22.7840  -14.8940   20.4710 O   0  0  0  0  0  0  0  0  0  0  0  0
  -22.8340  -12.3580   22.3220 H   0  0  0  0  0  0  0  0  0  0  0  0
  -21.5590  -13.5270   22.1290 H   0  0  0  0  0  0  0  0  0  0  0  0
  -25.8730  -15.4360   20.1050 N   0  0  0  0  0  0  0  0  0  0  0  0
  -25.1360  -16.1200   20.2340 H   0  0  0  0  0  0  0  0  0  0  0  0
  -26.7390  -15.8450   19.7730 H   0  0  0  0  0  0  0  0  0  0  0  0
  -28.5220  -24.2930   20.1330 C   0  0  0  0  0  0  0  0  0  0  0  0
  -28.0060  -24.2580   19.0070 O   0  0  0  0  0  0  0  0  0  0  0  0
  -28.4340  -25.5960   20.9660 C   0  0  0  0  0  2  0  0  0  0  0  0
  -28.3940  -26.7690   20.1360 O   0  0  0  0  0  0  0  0  0  0  0  0
  -24.5760  -31.9110   23.2640 C   0  0  0  0  0  0  0  0  0  0  0  0
  -27.2210  -27.4810   20.1810 C   0  0  0  0  0  0  0  0  0  0  0  0
  -23.3660  -30.5080   21.6230 C   0  0  0  0  0  3  0  0  0  0  0  0
  -24.8190  -28.9680   20.1990 C   0  0  0  0  0  0  0  0  0  0  0  0
  -25.8890  -30.8750   21.4170 C   0  0  0  0  0  2  0  0  0  0  0  0
  -25.9770  -29.5030   20.7800 C   0  0  0  0  0  0  0  0  0  0  0  0
  -27.1830  -28.7670   20.7640 C   0  0  0  0  0  3  0  0  0  0  0  0
  -26.0470  -26.9530   19.6040 C   0  0  0  0  0  3  0  0  0  0  0  0
  -24.8470  -27.6910   19.6100 C   0  0  0  0  0  3  0  0  0  0  0  0
  -23.5730  -29.8250   20.2450 C   0  0  0  0  0  2  0  0  0  0  0  0
  -24.6290  -31.1130   22.1590 N   0  0  0  0  0  0  0  0  0  0  0  0
  -23.4960  -32.1800   23.8070 O   0  0  0  0  0  0  0  0  0  0  0  0
  -22.7180  -29.4870   22.5850 C   0  0  0  0  0  0  0  0  0  0  0  0
  -21.4030  -29.2670   22.4250 N   0  0  0  0  0  0  0  0  0  0  0  0
  -23.3960  -28.8960   23.4280 O   0  0  0  0  0  0  0  0  0  0  0  0
  -20.9180  -29.7990   21.7160 H   0  0  0  0  0  0  0  0  0  0  0  0
  -18.0660  -27.9350   22.7950 C   0  0  0  0  0  0  0  0  0  0  0  0
  -20.5910  -28.3210   23.1890 C   0  0  0  0  0  3  0  0  0  0  0  0
  -20.7880  -26.8770   22.6750 C   0  0  0  0  0  2  0  0  0  0  0  0
  -19.7570  -26.4650   21.6180 C   0  0  0  0  0  2  0  0  0  0  0  0
  -18.3370  -26.5720   22.1820 C   0  0  0  0  0  2  0  0  0  0  0  0
  -19.1240  -28.7630   23.2520 C   0  0  0  0  0  0  0  0  0  0  0  0
  -18.8190  -30.0370   23.7810 C   0  0  0  0  0  3  0  0  0  0  0  0
  -17.4860  -30.4820   23.8590 C   0  0  0  0  0  3  0  0  0  0  0  0
  -16.4400  -29.6510   23.4200 C   0  0  0  0  0  3  0  0  0  0  0  0
  -16.7310  -28.3800   22.8930 C   0  0  0  0  0  3  0  0  0  0  0  0
  -25.8640  -32.5410   23.8830 C   0  0  0  0  0  3  0  0  0  0  0  0
  -25.5610  -33.9410   24.2050 N   0  0  0  0  0  0  0  0  0  0  0  0
  -25.8970  -34.9880   23.4390 C   0  0  0  0  0  0  0  0  0  0  0  0
  -26.5680  -34.8770   22.4090 O   0  0  0  0  0  0  0  0  0  0  0  0
  -24.9690  -34.1030   25.0080 H   0  0  0  0  0  0  0  0  0  0  0  0
  -24.1750  -36.7810   23.0700 C   0  0  0  0  0  1  0  0  0  0  0  0
  -25.4130  -36.3790   23.8870 C   0  0  0  0  0  3  0  0  0  0  0  0
  -27.5450  -37.2650   24.7200 C   0  0  0  0  0  1  0  0  0  0  0  0
  -26.4490  -37.4290   23.7700 N   0  0  0  0  0  0  0  0  0  0  0  0
  -26.0430  -38.3510   23.9110 H   0  0  0  0  0  0  0  0  0  0  0  0
  -26.3800  -31.7730   25.1620 C   0  0  1  0  0  0  0  0  0  0  0  0
  -25.2860  -31.5390   26.2290 C   0  0  0  0  0  1  0  0  0  0  0  0
  -26.9630  -30.3950   24.7710 C   0  0  0  0  0  1  0  0  0  0  0  0
  -27.5300  -32.5700   25.8220 C   0  0  0  0  0  1  0  0  0  0  0  0
  1  2  1  0
  3  6  1  0
  3  1  2  0
  5  4  2  0
  6  7  2  0
  7  4  1  0
  8  6  1  0
  8  5  1  0
  9 10  1  0
  9  5  1  0
 11 10  1  0
 12 17  1  0
 13 14  1  0
 13 12  1  0
 15 14  1  0
 15 22  1  0
 15 16  1  0
 17 11  1  0
 17 16  1  0
 18 11  2  0
 19 20  2  0
 20 39  1  0
 21 20  1  0
 21 24  1  0
 22 19  1  0
 22 23  1  0
 23 21  2  0
 24 25  1  0
 25 26  2  0
 27 30  1  0
 27 26  1  0
 28 27  2  0
 29 28  1  0
 29 24  2  0
 30 31  1  0
 31 36  2  0
 31 32  1  0
 32 33  2  0
 33 34  1  0
 34 38  1  0
 35 34  2  0
 36 35  1  0
 37 36  1  0
 39 40  1  0
 40 43  1  0
 40 42  1  0
 41 39  2  0
 44 45  1  0
 44 19  1  0
 46 44  1  0
 47  1  1  0
 47 49  1  0
 48 47  2  0
 50 52  1  0
 50 49  1  0
 51 62  2  0
 52 57  1  0
 53 61  1  0
 53 63  1  0
 54 60  1  0
 54 56  1  0
 55 61  1  0
 56 55  1  0
 57 56  2  0
 58 59  1  0
 58 52  2  0
 59 54  2  0
 60 53  1  0
 61 51  1  0
 63 65  2  0
 64 63  1  0
 66 64  1  0
 67 76  2  0
 67 72  1  0
 68 64  1  0
 68 72  1  0
 69 68  1  0
 70 71  1  0
 70 69  1  0
 71 67  1  0
 72 73  2  0
 73 74  1  0
 75 74  2  0
 76 75  1  0
 77 51  1  0
 77 78  1  0
 77 87  1  0
 78 81  1  0
 79 83  1  0
 79 78  1  0
 80 79  2  0
 83 82  1  0
 85 83  1  0
 85 86  1  0
 85 84  1  0
 87 90  1  1
 87 88  1  0
 89 87  1  0
M  ISO  4  10 100  11 100  49 101  50 101
M  END
>  <TORSDO>  (56) 
F 21

>  <SCORE>  (56) 
-12.975

>  <name>  (56) 
55

>  <ligand_id>  (56) 
55

>  <original_smiles>  (56) 
[H]c1nc(N=C(C(=O)C([H])([H])Oc2c([H])c([H])c3c(c2[H])C([H])([H])N(C(=O)C([H])(N([H])C(=O)C([H])(N([H])C([H])([H])[H])C([H])([H])[H])C(C([H])([H])[H])(C([H])([H])[H])C([H])([H])[H])C([H])(C(=O)N([H])C2([H])c4c([H])c([H])c([H])c([H])c4C([H])([H])C([H])([H])C2([H])[H])C3([H])[H])C([H])([H])[H])sc1C([H])([H])C([H])([H])C(=O)N1C([H])([H])C([H])([H])C([H])([H])C([H])(n2nc(-c3c([H])c([H])c(Oc4c([H])c([H])c(F)c([H])c4F)c([H])c3[H])c(C(=O)N([H])[H])c2N([H])[H])C1([H])[H]

>  <smiles>  (56) 
[H]c1nc(N=C(C(=O)C([H])([H])Oc2c([H])c([H])c3c(c2[H])C([H])([H])N(C(=O)C([H])(N([H])C(=O)C([H])(N([H])C([H])([H])[H])C([H])([H])[H])C(C([H])([H])[H])(C([H])([H])[H])C([H])([H])[H])C([H])(C(=O)N([H])C2([H])c4c([H])c([H])c([H])c([H])c4C([H])([H])C([H])([H])C2([H])[H])C3([H])[H])C([H])([H])[H])sc1C([H])([H])C([H])([H])C(=O)N1C([H])([H])C([H])([H])C([H])([H])C([H])(n2nc(-c3c([H])c([H])c(Oc4c([H])c([H])c(F)c([H])c4F)c([H])c3[H])c(C(=O)N([H])[H])c2N([H])[H])C1([H])[H]

$$$$
56:0:0
     RDKit          3D

 91 99  0  0  1  0  0  0  0  0999 V2000
  -29.0400  -23.6580   20.4450 C   0  0  0  0  0  0  0  0  0  0  0  0
  -28.6250  -22.3200   20.4740 N   0  0  0  0  0  0  0  0  0  0  0  0
  -30.2010  -23.9470   20.1420 O   0  0  0  0  0  0  0  0  0  0  0  0
  -27.6200  -22.2370   20.5350 H   0  0  0  0  0  0  0  0  0  0  0  0
  -28.8650  -19.7430   20.0870 C   0  0  0  0  0  3  0  0  0  0  0  0
  -30.8120  -19.4350   20.9440 C   0  0  0  0  0  3  0  0  0  0  0  0
  -29.3360  -21.0050   20.5170 C   0  0  0  0  0  0  0  0  0  0  0  0
  -30.5920  -20.7590   21.0820 N   0  0  0  0  0  0  0  0  0  0  0  0
  -29.8530  -18.7220   20.3150 N   0  0  0  0  0  0  0  0  0  0  0  0
  -29.9770  -17.2880   19.7510 C   0  0  0  0  0  2  0  0  0  0  0  0
  -30.5850  -14.8110   20.3400 C   0  0  0  0  0  0  0  0  0  0  0  0
  -30.3860  -12.5110   19.3750 C   0  0  0  0  0  2  0  0  0  0  0  0
  -29.4570  -12.5690   18.1420 C   0  0  0  0  0  2  0  0  0  0  0  0
  -27.9880  -12.3890   18.5670 C   0  0  0  0  0  2  0  0  0  0  0  0
  -27.6040  -13.2840   19.7750 C   0  0  0  0  0  3  0  0  0  0  0  0
  -28.6610  -13.2230   20.9030 C   0  0  0  0  0  2  0  0  0  0  0  0
  -29.9570  -13.5800   20.3130 N   0  0  0  0  0  0  0  0  0  0  0  0
  -31.7570  -14.8890   19.9630 O   0  0  0  0  0  0  0  0  0  0  0  0
  -29.8400  -15.9740   20.5440 N   0  0  0  0  0  0  0  0  0  0  0  0
  -28.9220  -15.8190   20.9330 H   0  0  0  0  0  0  0  0  0  0  0  0
  -25.2130  -13.8610   20.4960 C   0  0  0  0  0  0  0  0  0  0  0  0
  -24.1510  -13.0850   20.8690 C   0  0  0  0  0  0  0  0  0  0  0  0
  -24.6210  -11.7340   20.8450 C   0  0  0  0  0  0  0  0  0  0  0  0
  -26.2610  -12.9880   20.2650 N   0  0  0  0  0  0  0  0  0  0  0  0
  -25.9120  -11.7030   20.5380 N   0  0  0  0  0  0  0  0  0  0  0  0
  -23.8980  -10.4690   21.0380 C   0  0  0  0  0  0  0  0  0  0  0  0
  -24.3390   -9.5020   21.9680 C   0  0  0  0  0  3  0  0  0  0  0  0
  -23.6150   -8.3030   22.1500 C   0  0  0  0  0  3  0  0  0  0  0  0
  -22.4370   -8.0640   21.4030 C   0  0  0  0  0  0  0  0  0  0  0  0
  -22.0160   -9.0210   20.4620 C   0  0  0  0  0  3  0  0  0  0  0  0
  -22.7400  -10.2110   20.2780 C   0  0  0  0  0  3  0  0  0  0  0  0
  -21.6850   -6.9180   21.4960 O   0  0  0  0  0  0  0  0  0  0  0  0
  -21.6550   -6.1660   22.6430 C   0  0  0  0  0  0  0  0  0  0  0  0
  -21.2550   -6.7130   23.8820 C   0  0  0  0  0  3  0  0  0  0  0  0
  -21.1730   -5.8890   25.0220 C   0  0  0  0  0  3  0  0  0  0  0  0
  -21.4810   -4.5180   24.9250 C   0  0  0  0  0  0  0  0  0  0  0  0
  -21.8740   -3.9700   23.6910 C   0  0  0  0  0  3  0  0  0  0  0  0
  -21.9580   -4.7920   22.5530 C   0  0  0  0  0  0  0  0  0  0  0  0
  -22.3170   -4.2550   21.3620 F   0  0  0  0  0  0  0  0  0  0  0  0
  -21.3940   -3.7240   26.0170 F   0  0  0  0  0  0  0  0  0  0  0  0
  -22.7500  -13.5560   21.1330 C   0  0  0  0  0  0  0  0  0  0  0  0
  -22.0220  -12.8630   22.0010 N   0  0  0  0  0  0  0  0  0  0  0  0
  -22.3110  -14.5770   20.6060 O   0  0  0  0  0  0  0  0  0  0  0  0
  -22.3890  -12.0360   22.4500 H   0  0  0  0  0  0  0  0  0  0  0  0
  -21.0820  -13.1630   22.2200 H   0  0  0  0  0  0  0  0  0  0  0  0
  -25.3700  -15.2320   20.3100 N   0  0  0  0  0  0  0  0  0  0  0  0
  -24.5970  -15.8820   20.4130 H   0  0  0  0  0  0  0  0  0  0  0  0
  -26.2090  -15.6710   19.9520 H   0  0  0  0  0  0  0  0  0  0  0  0
  -26.5790  -24.3470   20.8890 C   0  0  0  0  0  1  0  0  0  0  0  0
  -28.0300  -24.8790   20.8180 C   0  0  0  0  0  3  0  0  0  0  0  0
  -28.2480  -26.2760   20.2100 O   0  0  0  0  0  0  0  0  0  0  0  0
  -24.6160  -31.8720   23.2270 C   0  0  0  0  0  0  0  0  0  0  0  0
  -27.1910  -27.2330   20.1780 C   0  0  0  0  0  0  0  0  0  0  0  0
  -23.4100  -30.4770   21.5890 C   0  0  0  0  0  3  0  0  0  0  0  0
  -24.8560  -28.9270   20.1500 C   0  0  0  0  0  0  0  0  0  0  0  0
  -25.9560  -30.7650   21.4130 C   0  0  0  0  0  2  0  0  0  0  0  0
  -26.0280  -29.3800   20.7680 C   0  0  0  0  0  0  0  0  0  0  0  0
  -27.1980  -28.5430   20.7800 C   0  0  0  0  0  3  0  0  0  0  0  0
  -26.0200  -26.8980   19.4670 C   0  0  0  0  0  3  0  0  0  0  0  0
  -24.8590  -27.6940   19.4840 C   0  0  0  0  0  3  0  0  0  0  0  0
  -23.6240  -29.8090   20.2060 C   0  0  0  0  0  2  0  0  0  0  0  0
  -24.6800  -31.0590   22.1310 N   0  0  0  0  0  0  0  0  0  0  0  0
  -23.5340  -32.1530   23.7620 O   0  0  0  0  0  0  0  0  0  0  0  0
  -22.7430  -29.4630   22.5500 C   0  0  0  0  0  0  0  0  0  0  0  0
  -21.4150  -29.2890   22.4290 N   0  0  0  0  0  0  0  0  0  0  0  0
  -23.4220  -28.8340   23.3680 O   0  0  0  0  0  0  0  0  0  0  0  0
  -20.9260  -29.8470   21.7430 H   0  0  0  0  0  0  0  0  0  0  0  0
  -18.0390  -28.0860   22.9390 C   0  0  0  0  0  0  0  0  0  0  0  0
  -20.5980  -28.3530   23.2040 C   0  0  0  0  0  3  0  0  0  0  0  0
  -20.7030  -26.9200   22.6330 C   0  0  0  0  0  2  0  0  0  0  0  0
  -19.6000  -26.5920   21.6210 C   0  0  0  0  0  2  0  0  0  0  0  0
  -18.2200  -26.7350   22.2650 C   0  0  0  0  0  2  0  0  0  0  0  0
  -19.1570  -28.8520   23.3650 C   0  0  0  0  0  0  0  0  0  0  0  0
  -18.9350  -30.1150   23.9550 C   0  0  0  0  0  3  0  0  0  0  0  0
  -17.6290  -30.6120   24.1240 C   0  0  0  0  0  3  0  0  0  0  0  0
  -16.5260  -29.8430   23.7120 C   0  0  0  0  0  3  0  0  0  0  0  0
  -16.7330  -28.5820   23.1250 C   0  0  0  0  0  3  0  0  0  0  0  0
  -25.8990  -32.5060   23.8460 C   0  0  0  0  0  3  0  0  0  0  0  0
  -26.4180  -31.7370   25.1220 C   0  0  1  0  0  0  0  0  0  0  0  0
  -25.3270  -31.5050   26.1940 C   0  0  0  0  0  1  0  0  0  0  0  0
  -26.9960  -30.3570   24.7350 C   0  0  0  0  0  1  0  0  0  0  0  0
  -27.5710  -32.5300   25.7800 C   0  0  0  0  0  1  0  0  0  0  0  0
  -25.5910  -33.9060   24.1780 N   0  0  0  0  0  0  0  0  0  0  0  0
  -25.9190  -34.9600   23.4190 C   0  0  0  0  0  0  0  0  0  0  0  0
  -26.5830  -34.8580   22.3850 O   0  0  0  0  0  0  0  0  0  0  0  0
  -25.0050  -34.0580   24.9850 H   0  0  0  0  0  0  0  0  0  0  0  0
  -24.1900  -36.7560   23.0800 C   0  0  0  0  0  1  0  0  0  0  0  0
  -25.4360  -36.3490   23.8830 C   0  0  0  0  0  3  0  0  0  0  0  0
  -27.5760  -37.2310   24.7030 C   0  0  0  0  0  1  0  0  0  0  0  0
  -26.4680  -37.4020   23.7660 N   0  0  0  0  0  0  0  0  0  0  0  0
  -26.0630  -38.3210   23.9190 H   0  0  0  0  0  0  0  0  0  0  0  0
  1  2  1  0
  1 50  1  0
  2  7  1  0
  2  4  1  0
  3  1  2  0
  5  9  1  0
  5  7  2  0
  6  8  2  0
  7  8  1  0
  9  6  1  0
 10  9  1  0
 10 19  1  0
 11 19  1  0
 12 17  1  0
 13 14  1  0
 13 12  1  0
 15 14  1  0
 15 24  1  0
 15 16  1  0
 17 11  1  0
 17 16  1  0
 18 11  2  0
 19 20  1  0
 21 22  2  0
 22 41  1  0
 23 22  1  0
 23 26  1  0
 24 21  1  0
 24 25  1  0
 25 23  2  0
 26 27  1  0
 27 28  2  0
 29 32  1  0
 29 28  1  0
 30 29  2  0
 31 30  1  0
 31 26  2  0
 32 33  1  0
 33 34  1  0
 34 35  2  0
 36 35  1  0
 36 40  1  0
 37 36  2  0
 38 33  2  0
 38 37  1  0
 39 38  1  0
 41 42  1  0
 42 45  1  0
 42 44  1  0
 43 41  2  0
 46 47  1  0
 46 21  1  0
 48 46  1  0
 50 49  1  0
 51 50  1  0
 52 63  2  0
 53 51  1  0
 53 58  1  0
 54 62  1  0
 54 64  1  0
 55 61  1  0
 55 57  1  0
 56 62  1  0
 57 58  2  0
 57 56  1  0
 59 60  1  0
 59 53  2  0
 60 55  2  0
 61 54  1  0
 62 52  1  0
 64 66  2  0
 65 64  1  0
 67 65  1  0
 68 77  2  0
 68 73  1  0
 69 65  1  0
 69 73  1  0
 70 69  1  0
 71 72  1  0
 71 70  1  0
 72 68  1  0
 73 74  2  0
 74 75  1  0
 76 75  2  0
 77 76  1  0
 78 52  1  0
 78 83  1  0
 78 79  1  0
 79 82  1  1
 79 80  1  0
 81 79  1  0
 83 86  1  0
 84 88  1  0
 84 83  1  0
 85 84  2  0
 88 87  1  0
 90 88  1  0
 90 91  1  0
 90 89  1  0
M  ISO  4  11 100  19 100  50 101  51 101
M  END
>  <TORSDO>  (57) 
F 19

>  <SCORE>  (57) 
-14.297

>  <name>  (57) 
56

>  <ligand_id>  (57) 
56

>  <original_smiles>  (57) 
[H]c1c([H])c([H])c2c(c1[H])C([H])([H])C([H])([H])C([H])([H])C2([H])N([H])C(=O)C1([H])N(C(=O)C([H])(N([H])C(=O)C([H])(N([H])C([H])([H])[H])C([H])([H])[H])C(C([H])([H])[H])(C([H])([H])[H])C([H])([H])[H])C([H])([H])c2c([H])c(OC([H])(C(=O)N([H])c3nc([H])n(C([H])([H])N([H])C(=O)N4C([H])([H])C([H])([H])C([H])([H])C([H])(n5nc(-c6c([H])c([H])c(Oc7c([H])c([H])c(F)c([H])c7F)c([H])c6[H])c(C(=O)N([H])[H])c5N([H])[H])C4([H])[H])c3[H])C([H])([H])[H])c([H])c([H])c2C1([H])[H]

>  <smiles>  (57) 
[H]c1c([H])c([H])c2c(c1[H])C([H])([H])C([H])([H])C([H])([H])C2([H])N([H])C(=O)C1([H])N(C(=O)C([H])(N([H])C(=O)C([H])(N([H])C([H])([H])[H])C([H])([H])[H])C(C([H])([H])[H])(C([H])([H])[H])C([H])([H])[H])C([H])([H])c2c([H])c(OC([H])(C(=O)N([H])c3nc([H])n(C([H])([H])N([H])C(=O)N4C([H])([H])C([H])([H])C([H])([H])C([H])(n5nc(-c6c([H])c([H])c(Oc7c([H])c([H])c(F)c([H])c7F)c([H])c6[H])c(C(=O)N([H])[H])c5N([H])[H])C4([H])[H])c3[H])C([H])([H])[H])c([H])c([H])c2C1([H])[H]

$$$$
57:0:0
     RDKit          3D

 99107  0  0  1  0  0  0  0  0999 V2000
  -28.8720  -20.8190   20.2800 N   0  0  0  0  0  0  0  0  0  0  0  0
  -28.1480  -20.5660   20.9400 H   0  0  0  0  0  0  0  0  0  0  0  0
  -30.5330  -14.7230   19.9770 C   0  0  0  0  0  0  0  0  0  0  0  0
  -30.2480  -12.4600   18.9600 C   0  0  0  0  0  2  0  0  0  0  0  0
  -29.2420  -12.5700   17.7940 C   0  0  0  0  0  2  0  0  0  0  0  0
  -27.8050  -12.3660   18.3120 C   0  0  0  0  0  2  0  0  0  0  0  0
  -27.5030  -13.2090   19.5810 C   0  0  0  0  0  3  0  0  0  0  0  0
  -28.6370  -13.1270   20.6270 C   0  0  0  0  0  2  0  0  0  0  0  0
  -29.8850  -13.5020   19.9510 N   0  0  0  0  0  0  0  0  0  0  0  0
  -31.7220  -14.7440   19.6380 O   0  0  0  0  0  0  0  0  0  0  0  0
  -30.3960  -19.7380   18.5900 C   0  0  0  0  0  0  0  0  0  0  0  0
  -29.5520  -19.6400   19.7260 C   0  0  0  0  0  0  0  0  0  0  0  0
  -31.0490  -18.5650   18.1610 C   0  0  0  0  0  0  0  0  0  0  0  0
  -30.0220  -17.2610   19.7530 C   0  0  0  0  0  0  0  0  0  0  0  0
  -29.3630  -18.3650   20.2630 N   0  0  0  0  0  0  0  0  0  0  0  0
  -30.8570  -17.3740   18.7350 N   0  0  0  0  0  0  0  0  0  0  0  0
  -29.8100  -15.9030   20.2070 N   0  0  0  0  0  0  0  0  0  0  0  0
  -32.1540  -18.6280   16.8280 Cl  0  0  0  0  0  0  0  0  0  0  0  0
  -28.9120  -15.7530   20.6300 H   0  0  0  0  0  0  0  0  0  0  0  0
  -25.1690  -13.7380   20.4960 C   0  0  0  0  0  0  0  0  0  0  0  0
  -24.1400  -12.9350   20.9100 C   0  0  0  0  0  0  0  0  0  0  0  0
  -24.6170  -11.5940   20.8020 C   0  0  0  0  0  0  0  0  0  0  0  0
  -26.2040  -12.8830   20.1560 N   0  0  0  0  0  0  0  0  0  0  0  0
  -25.8850  -11.5870   20.4060 N   0  0  0  0  0  0  0  0  0  0  0  0
  -23.9190  -10.3150   20.9950 C   0  0  0  0  0  0  0  0  0  0  0  0
  -24.3900   -9.3460   21.9080 C   0  0  0  0  0  3  0  0  0  0  0  0
  -23.6890   -8.1340   22.0920 C   0  0  0  0  0  3  0  0  0  0  0  0
  -22.5010   -7.8850   21.3630 C   0  0  0  0  0  0  0  0  0  0  0  0
  -22.0480   -8.8430   20.4410 C   0  0  0  0  0  3  0  0  0  0  0  0
  -22.7520  -10.0450   20.2540 C   0  0  0  0  0  3  0  0  0  0  0  0
  -21.7680   -6.7250   21.4580 O   0  0  0  0  0  0  0  0  0  0  0  0
  -21.7320   -5.9880   22.6150 C   0  0  0  0  0  0  0  0  0  0  0  0
  -21.2490   -6.5270   23.8280 C   0  0  0  0  0  3  0  0  0  0  0  0
  -21.1620   -5.7130   24.9740 C   0  0  0  0  0  3  0  0  0  0  0  0
  -21.5490   -4.3600   24.9100 C   0  0  0  0  0  0  0  0  0  0  0  0
  -22.0240   -3.8210   23.7030 C   0  0  0  0  0  3  0  0  0  0  0  0
  -22.1110   -4.6320   22.5580 C   0  0  0  0  0  0  0  0  0  0  0  0
  -22.5500   -4.1000   21.3900 F   0  0  0  0  0  0  0  0  0  0  0  0
  -21.4560   -3.5770   26.0090 F   0  0  0  0  0  0  0  0  0  0  0  0
  -22.7600  -13.3840   21.2880 C   0  0  0  0  0  0  0  0  0  0  0  0
  -22.1020  -12.6550   22.1830 N   0  0  0  0  0  0  0  0  0  0  0  0
  -22.2780  -14.4200   20.8310 O   0  0  0  0  0  0  0  0  0  0  0  0
  -22.5060  -11.8170   22.5750 H   0  0  0  0  0  0  0  0  0  0  0  0
  -21.1790  -12.9420   22.4810 H   0  0  0  0  0  0  0  0  0  0  0  0
  -25.3010  -15.1160   20.3550 N   0  0  0  0  0  0  0  0  0  0  0  0
  -24.5210  -15.7390   20.5350 H   0  0  0  0  0  0  0  0  0  0  0  0
  -26.1000  -15.5930   19.9600 H   0  0  0  0  0  0  0  0  0  0  0  0
  -30.6000  -20.9200   17.8700 N   0  0  0  0  0  0  0  0  0  0  0  0
  -30.4790  -21.7680   18.4080 H   0  0  0  0  0  0  0  0  0  0  0  0
  -31.4200  -20.9420   17.2730 H   0  0  0  0  0  0  0  0  0  0  0  0
  -29.3740  -22.2690   20.4260 C   0  0  0  0  0  3  0  0  0  0  0  0
  -31.8080  -22.7720   21.1280 C   0  0  0  0  0  1  0  0  0  0  0  0
  -30.3910  -22.4180   21.6130 C   0  0  0  0  0  3  0  0  0  0  0  0
  -31.1130  -21.5290   23.9460 C   0  0  0  0  0  1  0  0  0  0  0  0
  -30.3990  -21.2370   22.6170 C   0  0  0  0  0  2  0  0  0  0  0  0
  -28.3330  -23.5390   20.4710 C   0  0  0  0  0  2  0  0  0  0  0  0
  -29.0440  -25.1390   18.5030 C   0  0  0  0  0  1  0  0  0  0  0  0
  -28.8720  -25.0250   20.0250 C   0  0  0  0  0  3  0  0  0  0  0  0
  -28.5340  -26.3750   20.6190 O   0  0  0  0  0  0  0  0  0  0  0  0
  -24.6660  -31.8780   23.2610 C   0  0  0  0  0  0  0  0  0  0  0  0
  -27.3920  -27.1920   20.4420 C   0  0  0  0  0  0  0  0  0  0  0  0
  -23.5200  -30.4220   21.6260 C   0  0  0  0  0  3  0  0  0  0  0  0
  -25.0210  -28.8200   20.2940 C   0  0  0  0  0  0  0  0  0  0  0  0
  -26.0660  -30.7320   21.5220 C   0  0  0  0  0  2  0  0  0  0  0  0
  -26.1670  -29.3320   20.9110 C   0  0  0  0  0  0  0  0  0  0  0  0
  -27.3500  -28.5290   20.9700 C   0  0  0  0  0  3  0  0  0  0  0  0
  -26.2160  -26.7350   19.8100 C   0  0  0  0  0  3  0  0  0  0  0  0
  -25.0490  -27.5300   19.7320 C   0  0  0  0  0  3  0  0  0  0  0  0
  -23.7800  -29.6960   20.2780 C   0  0  0  0  0  2  0  0  0  0  0  0
  -24.7660  -31.0330   22.1910 N   0  0  0  0  0  0  0  0  0  0  0  0
  -23.5650  -32.1700   23.7530 O   0  0  0  0  0  0  0  0  0  0  0  0
  -22.8270  -29.4390   22.6010 C   0  0  0  0  0  0  0  0  0  0  0  0
  -21.5020  -29.2690   22.4530 N   0  0  0  0  0  0  0  0  0  0  0  0
  -23.4830  -28.8270   23.4480 O   0  0  0  0  0  0  0  0  0  0  0  0
  -21.0320  -29.8120   21.7410 H   0  0  0  0  0  0  0  0  0  0  0  0
  -18.0960  -28.1540   22.9630 C   0  0  0  0  0  0  0  0  0  0  0  0
  -20.6620  -28.3560   23.2300 C   0  0  0  0  0  3  0  0  0  0  0  0
  -20.7290  -26.9190   22.6630 C   0  0  0  0  0  2  0  0  0  0  0  0
  -19.6190  -26.6170   21.6510 C   0  0  0  0  0  2  0  0  0  0  0  0
  -18.2400  -26.7980   22.2930 C   0  0  0  0  0  2  0  0  0  0  0  0
  -19.2330  -28.8920   23.3890 C   0  0  0  0  0  0  0  0  0  0  0  0
  -19.0440  -30.1630   23.9750 C   0  0  0  0  0  3  0  0  0  0  0  0
  -17.7520  -30.6950   24.1370 C   0  0  0  0  0  3  0  0  0  0  0  0
  -16.6290  -29.9540   23.7290 C   0  0  0  0  0  3  0  0  0  0  0  0
  -16.8030  -28.6850   23.1470 C   0  0  0  0  0  3  0  0  0  0  0  0
  -25.9260  -32.5380   23.9080 C   0  0  0  0  0  3  0  0  0  0  0  0
  -25.5910  -33.9390   24.2090 N   0  0  0  0  0  0  0  0  0  0  0  0
  -25.9140  -34.9850   23.4370 C   0  0  0  0  0  0  0  0  0  0  0  0
  -26.5930  -34.8760   22.4130 O   0  0  0  0  0  0  0  0  0  0  0  0
  -24.9880  -34.0990   25.0030 H   0  0  0  0  0  0  0  0  0  0  0  0
  -24.1560  -36.7400   23.0430 C   0  0  0  0  0  1  0  0  0  0  0  0
  -25.4010  -36.3740   23.8680 C   0  0  0  0  0  3  0  0  0  0  0  0
  -27.5090  -37.3110   24.7010 C   0  0  0  0  0  1  0  0  0  0  0  0
  -26.4170  -37.4430   23.7410 N   0  0  0  0  0  0  0  0  0  0  0  0
  -25.9940  -38.3590   23.8620 H   0  0  0  0  0  0  0  0  0  0  0  0
  -26.4180  -31.7980   25.2130 C   0  0  1  0  0  0  0  0  0  0  0  0
  -25.2970  -31.5600   26.2520 C   0  0  0  0  0  1  0  0  0  0  0  0
  -27.0350  -30.4240   24.8670 C   0  0  0  0  0  1  0  0  0  0  0  0
  -27.5370  -32.6210   25.8940 C   0  0  0  0  0  1  0  0  0  0  0  0
  1 51  1  0
  1  2  1  0
  3 17  1  0
  4  9  1  0
  5  6  1  0
  5  4  1  0
  7  6  1  0
  7 23  1  0
  7  8  1  0
  9  3  1  0
  9  8  1  0
 10  3  2  0
 11 12  2  0
 12 15  1  0
 12  1  1  0
 13 11  1  0
 13 16  2  0
 14 17  1  0
 14 15  2  0
 16 14  1  0
 17 19  1  0
 18 13  1  0
 20 21  2  0
 21 40  1  0
 22 21  1  0
 22 25  1  0
 23 24  1  0
 23 20  1  0
 24 22  2  0
 25 26  1  0
 26 27  2  0
 28 31  1  0
 28 27  1  0
 29 28  2  0
 30 29  1  0
 30 25  2  0
 31 32  1  0
 32 33  1  0
 33 34  2  0
 35 34  1  0
 35 39  1  0
 36 35  2  0
 37 32  2  0
 37 36  1  0
 38 37  1  0
 40 41  1  0
 41 44  1  0
 41 43  1  0
 42 40  2  0
 45 20  1  0
 45 46  1  0
 47 45  1  0
 48 49  1  0
 48 11  1  0
 50 48  1  0
 51 56  1  0
 51 53  1  0
 53 52  1  0
 53 55  1  0
 55 54  1  0
 58 57  1  0
 58 56  1  0
 58 59  1  0
 60 71  2  0
 61 59  1  0
 61 66  1  0
 62 70  1  0
 62 72  1  0
 63 65  1  0
 64 70  1  0
 65 66  2  0
 65 64  1  0
 67 61  2  0
 68 67  1  0
 68 63  2  0
 69 63  1  0
 69 62  1  0
 70 60  1  0
 72 74  2  0
 73 72  1  0
 75 73  1  0
 76 85  2  0
 76 81  1  0
 77 73  1  0
 77 81  1  0
 78 77  1  0
 79 80  1  0
 79 78  1  0
 80 76  1  0
 81 82  2  0
 82 83  1  0
 84 83  2  0
 85 84  1  0
 86 60  1  0
 86 87  1  0
 86 96  1  0
 87 90  1  0
 88 92  1  0
 88 87  1  0
 89 88  2  0
 92 91  1  0
 94 95  1  0
 94 92  1  0
 94 93  1  0
 96 99  1  1
 96 97  1  0
 98 96  1  0
M  ISO  4   3 100  17 100  58 101  59 101
M  END
>  <TORSDO>  (58) 
F 22

>  <SCORE>  (58) 
-13.488

>  <name>  (58) 
57

>  <ligand_id>  (58) 
57

>  <original_smiles>  (58) 
[H]c1c([H])c([H])c2c(c1[H])C([H])([H])C([H])([H])C([H])([H])C2([H])N([H])C(=O)C1([H])N(C(=O)C([H])(N([H])C(=O)C([H])(N([H])C([H])([H])[H])C([H])([H])[H])C(C([H])([H])[H])(C([H])([H])[H])C([H])([H])[H])C([H])([H])c2c([H])c(OC([H])(C([H])([H])[H])C([H])([H])C([H])(N([H])c3nc(N([H])C(=O)N4C([H])([H])C([H])([H])C([H])([H])C([H])(n5nc(-c6c([H])c([H])c(Oc7c([H])c([H])c(F)c([H])c7F)c([H])c6[H])c(C(=O)N([H])[H])c5N([H])[H])C4([H])[H])nc(Cl)c3N([H])[H])C([H])(C([H])([H])[H])C([H])([H])C([H])([H])[H])c([H])c([H])c2C1([H])[H]

>  <smiles>  (58) 
[H]c1c([H])c([H])c2c(c1[H])C([H])([H])C([H])([H])C([H])([H])C2([H])N([H])C(=O)C1([H])N(C(=O)C([H])(N([H])C(=O)C([H])(N([H])C([H])([H])[H])C([H])([H])[H])C(C([H])([H])[H])(C([H])([H])[H])C([H])([H])[H])C([H])([H])c2c([H])c(OC([H])(C([H])([H])[H])C([H])([H])C([H])(N([H])c3nc(N([H])C(=O)N4C([H])([H])C([H])([H])C([H])([H])C([H])(n5nc(-c6c([H])c([H])c(Oc7c([H])c([H])c(F)c([H])c7F)c([H])c6[H])c(C(=O)N([H])[H])c5N([H])[H])C4([H])[H])nc(Cl)c3N([H])[H])C([H])(C([H])([H])[H])C([H])([H])C([H])([H])[H])c([H])c([H])c2C1([H])[H]

$$$$
58:0:0
     RDKit          3D

 94102  0  0  1  0  0  0  0  0999 V2000
  -27.8340  -23.5820   20.4930 C   0  0  0  0  0  0  0  0  0  0  0  0
  -27.9530  -18.5830   20.6850 C   0  0  0  0  0  3  0  0  0  0  0  0
  -29.1830  -18.6380   20.0760 C   0  0  0  0  0  0  0  0  0  0  0  0
  -28.6880  -20.9820   20.3370 C   0  0  0  0  0  0  0  0  0  0  0  0
  -29.5700  -20.0260   19.9080 N   0  0  0  0  0  0  0  0  0  0  0  0
  -28.8030  -22.4300   20.2490 N   0  0  0  0  0  4  0  0  0  0  0  0
  -27.2750  -20.1790   21.0370 S   0  0  0  0  0  0  0  0  0  0  0  0
  -29.6430  -22.7360   19.7760 H   0  0  0  0  0  0  0  0  0  0  0  0
  -30.0900  -17.4370   19.5880 C   0  0  0  0  0  2  0  0  0  0  0  0
  -30.5710  -14.8630   19.4950 C   0  0  0  0  0  0  0  0  0  0  0  0
  -30.3080  -12.6200   18.4280 C   0  0  0  0  0  2  0  0  0  0  0  0
  -29.2080  -12.6980   17.3450 C   0  0  0  0  0  2  0  0  0  0  0  0
  -27.8030  -12.4950   17.9540 C   0  0  0  0  0  2  0  0  0  0  0  0
  -27.5810  -13.3410   19.2380 C   0  0  0  0  0  3  0  0  0  0  0  0
  -28.7780  -13.2210   20.2080 C   0  0  0  0  0  2  0  0  0  0  0  0
  -29.9770  -13.6200   19.4660 N   0  0  0  0  0  0  0  0  0  0  0  0
  -31.6960  -15.0100   19.0060 O   0  0  0  0  0  0  0  0  0  0  0  0
  -29.8030  -15.9590   19.8720 N   0  0  0  0  0  0  0  0  0  0  0  0
  -28.8780  -15.7500   20.2100 H   0  0  0  0  0  0  0  0  0  0  0  0
  -25.3490  -13.9050   20.3750 C   0  0  0  0  0  0  0  0  0  0  0  0
  -24.3310  -13.1220   20.8440 C   0  0  0  0  0  0  0  0  0  0  0  0
  -24.7360  -11.7680   20.6230 C   0  0  0  0  0  0  0  0  0  0  0  0
  -26.3140  -13.0310   19.8970 N   0  0  0  0  0  0  0  0  0  0  0  0
  -25.9600  -11.7350   20.1050 N   0  0  0  0  0  0  0  0  0  0  0  0
  -24.0060  -10.5090   20.8120 C   0  0  0  0  0  0  0  0  0  0  0  0
  -24.4850   -9.5060   21.6810 C   0  0  0  0  0  3  0  0  0  0  0  0
  -23.7620   -8.3090   21.8640 C   0  0  0  0  0  3  0  0  0  0  0  0
  -22.5400   -8.1090   21.1790 C   0  0  0  0  0  0  0  0  0  0  0  0
  -22.0750   -9.1040   20.3000 C   0  0  0  0  0  3  0  0  0  0  0  0
  -22.8020  -10.2940   20.1150 C   0  0  0  0  0  3  0  0  0  0  0  0
  -21.7810   -6.9690   21.2700 O   0  0  0  0  0  0  0  0  0  0  0  0
  -21.7100   -6.2400   22.4320 C   0  0  0  0  0  0  0  0  0  0  0  0
  -21.2640   -6.8140   23.6410 C   0  0  0  0  0  3  0  0  0  0  0  0
  -21.1380   -6.0150   24.7960 C   0  0  0  0  0  3  0  0  0  0  0  0
  -21.4510   -4.6430   24.7400 C   0  0  0  0  0  0  0  0  0  0  0  0
  -21.8880   -4.0690   23.5330 C   0  0  0  0  0  3  0  0  0  0  0  0
  -22.0140   -4.8640   22.3820 C   0  0  0  0  0  0  0  0  0  0  0  0
  -22.4160   -4.3030   21.2150 F   0  0  0  0  0  0  0  0  0  0  0  0
  -21.3270   -3.8730   25.8440 F   0  0  0  0  0  0  0  0  0  0  0  0
  -23.0040  -13.6020   21.3640 C   0  0  0  0  0  0  0  0  0  0  0  0
  -22.3910  -12.8670   22.2840 N   0  0  0  0  0  0  0  0  0  0  0  0
  -22.5180  -14.6680   20.9870 O   0  0  0  0  0  0  0  0  0  0  0  0
  -22.7880  -12.0060   22.6290 H   0  0  0  0  0  0  0  0  0  0  0  0
  -21.5030  -13.1840   22.6510 H   0  0  0  0  0  0  0  0  0  0  0  0
  -25.5330  -15.2830   20.2810 N   0  0  0  0  0  0  0  0  0  0  0  0
  -24.8080  -15.9460   20.5330 H   0  0  0  0  0  0  0  0  0  0  0  0
  -26.2580  -15.6980   19.7130 H   0  0  0  0  0  0  0  0  0  0  0  0
  -26.5560  -23.4940   19.6560 C   0  0  0  0  0  0  0  0  0  0  0  0
  -26.5370  -23.0860   18.4900 O   0  0  0  0  0  0  0  0  0  0  0  0
  -23.9650  -23.6500   19.6110 C   0  0  0  0  0  1  0  0  0  0  0  0
  -25.2660  -23.8910   20.3870 C   0  0  0  0  0  2  0  0  0  0  0  0
  -29.4920  -25.0470   21.7960 C   0  0  0  0  0  1  0  0  0  0  0  0
  -28.2630  -25.1260   20.8890 C   0  0  0  0  0  3  0  0  0  0  0  0
  -28.4080  -26.3760   20.0420 O   0  0  0  0  0  0  0  0  0  0  0  0
  -24.6550  -31.8450   23.0560 C   0  0  0  0  0  0  0  0  0  0  0  0
  -27.3460  -27.3110   20.0010 C   0  0  0  0  0  0  0  0  0  0  0  0
  -23.4950  -30.4400   21.3980 C   0  0  0  0  0  3  0  0  0  0  0  0
  -24.9850  -28.9460   19.9500 C   0  0  0  0  0  0  0  0  0  0  0  0
  -26.0320  -30.8050   21.2310 C   0  0  0  0  0  2  0  0  0  0  0  0
  -26.1430  -29.4280   20.5770 C   0  0  0  0  0  0  0  0  0  0  0  0
  -27.3310  -28.6220   20.5920 C   0  0  0  0  0  3  0  0  0  0  0  0
  -26.1840  -26.9230   19.3050 C   0  0  0  0  0  3  0  0  0  0  0  0
  -25.0150  -27.7070   19.2930 C   0  0  0  0  0  3  0  0  0  0  0  0
  -23.7340  -29.8030   20.0030 C   0  0  0  0  0  2  0  0  0  0  0  0
  -24.7470  -31.0480   21.9520 N   0  0  0  0  0  0  0  0  0  0  0  0
  -23.5590  -32.0850   23.5890 O   0  0  0  0  0  0  0  0  0  0  0  0
  -22.8560  -29.3890   22.3390 C   0  0  0  0  0  0  0  0  0  0  0  0
  -21.5300  -29.1920   22.2210 N   0  0  0  0  0  0  0  0  0  0  0  0
  -23.5510  -28.7560   23.1390 O   0  0  0  0  0  0  0  0  0  0  0  0
  -21.0260  -29.7590   21.5540 H   0  0  0  0  0  0  0  0  0  0  0  0
  -18.1720  -27.9470   22.7510 C   0  0  0  0  0  0  0  0  0  0  0  0
  -20.7350  -28.2260   22.9810 C   0  0  0  0  0  3  0  0  0  0  0  0
  -20.8380  -26.8120   22.3640 C   0  0  0  0  0  2  0  0  0  0  0  0
  -19.7200  -26.5060   21.3600 C   0  0  0  0  0  2  0  0  0  0  0  0
  -18.3490  -26.6190   22.0330 C   0  0  0  0  0  2  0  0  0  0  0  0
  -19.2910  -28.7080   23.1790 C   0  0  0  0  0  0  0  0  0  0  0  0
  -19.0710  -29.9510   23.8120 C   0  0  0  0  0  3  0  0  0  0  0  0
  -17.7660  -30.4370   24.0120 C   0  0  0  0  0  3  0  0  0  0  0  0
  -16.6610  -29.6750   23.5960 C   0  0  0  0  0  3  0  0  0  0  0  0
  -16.8650  -28.4300   22.9750 C   0  0  0  0  0  3  0  0  0  0  0  0
  -25.9140  -32.5090   23.6900 C   0  0  0  0  0  3  0  0  0  0  0  0
  -25.5710  -33.9050   23.9960 N   0  0  0  0  0  0  0  0  0  0  0  0
  -25.8980  -34.9560   23.2310 C   0  0  0  0  0  0  0  0  0  0  0  0
  -26.5900  -34.8530   22.2150 O   0  0  0  0  0  0  0  0  0  0  0  0
  -24.9460  -34.0540   24.7750 H   0  0  0  0  0  0  0  0  0  0  0  0
  -24.1470  -36.7180   22.8310 C   0  0  0  0  0  1  0  0  0  0  0  0
  -25.3830  -36.3420   23.6640 C   0  0  0  0  0  3  0  0  0  0  0  0
  -27.4890  -37.2790   24.5120 C   0  0  0  0  0  1  0  0  0  0  0  0
  -26.3980  -37.4140   23.5500 N   0  0  0  0  0  0  0  0  0  0  0  0
  -25.9740  -38.3290   23.6750 H   0  0  0  0  0  0  0  0  0  0  0  0
  -26.4150  -31.7610   24.9860 C   0  0  1  0  0  0  0  0  0  0  0  0
  -25.3060  -31.5200   26.0380 C   0  0  0  0  0  1  0  0  0  0  0  0
  -27.0250  -30.3880   24.6230 C   0  0  0  0  0  1  0  0  0  0  0  0
  -27.5430  -32.5790   25.6570 C   0  0  0  0  0  1  0  0  0  0  0  0
  1 53  1  0
  2  7  1  0
  3  2  2  0
  4  7  1  0
  5  3  1  0
  5  4  2  0
  6  4  1  0
  6  1  2  0
  8  6  1  0
  9 18  1  0
  9  3  1  0
 10 18  1  0
 11 16  1  0
 12 13  1  0
 12 11  1  0
 14 13  1  0
 14 23  1  0
 14 15  1  0
 16 10  1  0
 16 15  1  0
 17 10  2  0
 18 19  1  0
 20 21  2  0
 21 40  1  0
 22 25  1  0
 22 21  1  0
 23 24  1  0
 23 20  1  0
 24 22  2  0
 25 26  1  0
 26 27  2  0
 28 31  1  0
 28 27  1  0
 29 28  2  0
 30 29  1  0
 30 25  2  0
 31 32  1  0
 32 33  1  0
 33 34  2  0
 35 34  1  0
 35 39  1  0
 36 35  2  0
 37 32  2  0
 37 36  1  0
 38 37  1  0
 40 41  1  0
 41 43  1  0
 41 44  1  0
 42 40  2  0
 45 20  1  0
 45 46  1  0
 47 45  1  0
 48 51  1  0
 48  1  1  0
 49 48  2  0
 50 51  1  0
 53 52  1  0
 54 53  1  0
 55 66  2  0
 56 54  1  0
 56 61  1  0
 57 65  1  0
 57 67  1  0
 58 64  1  0
 58 60  1  0
 59 65  1  0
 60 61  2  0
 60 59  1  0
 62 56  2  0
 63 62  1  0
 63 58  2  0
 64 57  1  0
 65 55  1  0
 67 69  2  0
 68 67  1  0
 70 68  1  0
 71 80  2  0
 71 76  1  0
 72 68  1  0
 72 76  1  0
 73 72  1  0
 74 75  1  0
 74 73  1  0
 75 71  1  0
 76 77  2  0
 77 78  1  0
 79 78  2  0
 80 79  1  0
 81 55  1  0
 81 82  1  0
 81 91  1  0
 82 85  1  0
 83 87  1  0
 83 82  1  0
 84 83  2  0
 87 86  1  0
 89 87  1  0
 89 90  1  0
 89 88  1  0
 91 94  1  1
 91 92  1  0
 93 91  1  0
M  ISO  4  10 100  18 100  53 101  54 101
M  END
>  <TORSDO>  (59) 
F 21

>  <SCORE>  (59) 
-10.579

>  <name>  (59) 
58

>  <ligand_id>  (59) 
58

>  <original_smiles>  (59) 
[H]c1sc(N([H])C([H])(C(=O)C([H])([H])C([H])([H])[H])C([H])(Oc2c([H])c([H])c3c(c2[H])C([H])([H])N(C(=O)C([H])(N([H])C(=O)C([H])(N([H])C([H])([H])[H])C([H])([H])[H])C(C([H])([H])[H])(C([H])([H])[H])C([H])([H])[H])C([H])(C(=O)N([H])C2([H])c4c([H])c([H])c([H])c([H])c4C([H])([H])C([H])([H])C2([H])[H])C3([H])[H])C([H])([H])[H])nc1C([H])([H])N([H])C(=O)N1C([H])([H])C([H])([H])C([H])([H])C([H])(n2nc(-c3c([H])c([H])c(Oc4c([H])c([H])c(F)c([H])c4F)c([H])c3[H])c(C(=O)N([H])[H])c2N([H])[H])C1([H])[H]

>  <smiles>  (59) 
[H]c1sc(N([H])C([H])(C(=O)C([H])([H])C([H])([H])[H])C([H])(Oc2c([H])c([H])c3c(c2[H])C([H])([H])N(C(=O)C([H])(N([H])C(=O)C([H])(N([H])C([H])([H])[H])C([H])([H])[H])C(C([H])([H])[H])(C([H])([H])[H])C([H])([H])[H])C([H])(C(=O)N([H])C2([H])c4c([H])c([H])c([H])c([H])c4C([H])([H])C([H])([H])C2([H])[H])C3([H])[H])C([H])([H])[H])nc1C([H])([H])N([H])C(=O)N1C([H])([H])C([H])([H])C([H])([H])C([H])(n2nc(-c3c([H])c([H])c(Oc4c([H])c([H])c(F)c([H])c4F)c([H])c3[H])c(C(=O)N([H])[H])c2N([H])[H])C1([H])[H]

$$$$
59:0:0
     RDKit          3D

 92100  0  0  1  0  0  0  0  0999 V2000
  -31.2420  -22.5210   21.9400 C   0  0  0  0  0  1  0  0  0  0  0  0
  -31.1050  -21.8810   19.4530 C   0  0  0  0  0  1  0  0  0  0  0  0
  -30.3510  -21.9650   20.8020 C   0  0  1  0  0  0  0  0  0  0  0  0
  -29.7910  -20.5470   21.2190 C   0  0  0  0  0  2  0  0  0  0  0  0
  -30.6370  -14.5580   20.0770 C   0  0  0  0  0  0  0  0  0  0  0  0
  -30.2020  -12.4180   18.9190 C   0  0  0  0  0  2  0  0  0  0  0  0
  -29.1980  -12.6370   17.7690 C   0  0  0  0  0  2  0  0  0  0  0  0
  -27.7560  -12.4810   18.2890 C   0  0  0  0  0  2  0  0  0  0  0  0
  -27.4870  -13.3090   19.5730 C   0  0  0  0  0  3  0  0  0  0  0  0
  -28.6120  -13.1240   20.6200 C   0  0  0  0  0  2  0  0  0  0  0  0
  -29.8970  -13.4140   19.9640 N   0  0  0  0  0  0  0  0  0  0  0  0
  -31.7460  -14.6580   19.5540 O   0  0  0  0  0  0  0  0  0  0  0  0
  -30.6090  -19.2460   21.0700 C   0  0  0  0  0  0  0  0  0  0  0  0
  -31.9600  -18.9720   21.2540 C   0  0  0  0  0  0  0  0  0  0  0  0
  -30.6130  -16.9360   20.7990 C   0  0  0  0  0  0  0  0  0  0  0  0
  -33.1210  -19.8520   21.6170 C   0  0  0  0  0  1  0  0  0  0  0  0
  -29.8720  -18.0540   20.8400 N   0  0  0  0  0  0  0  0  0  0  0  0
  -30.0290  -15.6400   20.6170 N   0  0  0  0  0  0  0  0  0  0  0  0
  -32.3170  -17.2670   21.0670 S   0  0  0  0  0  0  0  0  0  0  0  0
  -29.0640  -15.5390   20.8820 H   0  0  0  0  0  0  0  0  0  0  0  0
  -25.1340  -13.8890   20.4420 C   0  0  0  0  0  0  0  0  0  0  0  0
  -24.0910  -13.1050   20.8570 C   0  0  0  0  0  0  0  0  0  0  0  0
  -24.5520  -11.7550   20.7690 C   0  0  0  0  0  0  0  0  0  0  0  0
  -26.1660  -13.0180   20.1300 N   0  0  0  0  0  0  0  0  0  0  0  0
  -25.8240  -11.7290   20.3860 N   0  0  0  0  0  0  0  0  0  0  0  0
  -23.8390  -10.4880   20.9740 C   0  0  0  0  0  0  0  0  0  0  0  0
  -24.2920   -9.5250   21.9040 C   0  0  0  0  0  3  0  0  0  0  0  0
  -23.5760   -8.3240   22.0980 C   0  0  0  0  0  3  0  0  0  0  0  0
  -22.3930   -8.0770   21.3630 C   0  0  0  0  0  0  0  0  0  0  0  0
  -21.9590   -9.0270   20.4220 C   0  0  0  0  0  3  0  0  0  0  0  0
  -22.6750  -10.2180   20.2260 C   0  0  0  0  0  3  0  0  0  0  0  0
  -21.6510   -6.9240   21.4630 O   0  0  0  0  0  0  0  0  0  0  0  0
  -21.5930   -6.2070   22.6300 C   0  0  0  0  0  0  0  0  0  0  0  0
  -21.1510   -6.7870   23.8400 C   0  0  0  0  0  3  0  0  0  0  0  0
  -21.0390   -5.9960   25.0010 C   0  0  0  0  0  3  0  0  0  0  0  0
  -21.3570   -4.6260   24.9550 C   0  0  0  0  0  0  0  0  0  0  0  0
  -21.7890   -4.0450   23.7480 C   0  0  0  0  0  3  0  0  0  0  0  0
  -21.9050   -4.8330   22.5910 C   0  0  0  0  0  0  0  0  0  0  0  0
  -22.3020   -4.2630   21.4270 F   0  0  0  0  0  0  0  0  0  0  0  0
  -21.2420   -3.8640   26.0650 F   0  0  0  0  0  0  0  0  0  0  0  0
  -22.7100  -13.5730   21.2170 C   0  0  0  0  0  0  0  0  0  0  0  0
  -22.0320  -12.8590   22.1090 N   0  0  0  0  0  0  0  0  0  0  0  0
  -22.2430  -14.6100   20.7470 O   0  0  0  0  0  0  0  0  0  0  0  0
  -22.4250  -12.0240   22.5160 H   0  0  0  0  0  0  0  0  0  0  0  0
  -21.1090  -13.1570   22.3940 H   0  0  0  0  0  0  0  0  0  0  0  0
  -25.2800  -15.2630   20.2850 N   0  0  0  0  0  0  0  0  0  0  0  0
  -24.5050  -15.9010   20.4390 H   0  0  0  0  0  0  0  0  0  0  0  0
  -26.1020  -15.7190   19.9080 H   0  0  0  0  0  0  0  0  0  0  0  0
  -29.1630  -22.9780   20.6420 C   0  0  0  0  0  2  0  0  0  0  0  0
  -29.4830  -24.4710   20.2900 C   0  0  0  0  0  2  0  0  0  0  0  0
  -28.2180  -25.3490   20.4310 C   0  0  0  0  0  2  0  0  0  0  0  0
  -28.3690  -26.7370   20.0740 O   0  0  0  0  0  0  0  0  0  0  0  0
  -24.5750  -31.9170   23.2100 C   0  0  0  0  0  0  0  0  0  0  0  0
  -27.1990  -27.4770   20.0890 C   0  0  0  0  0  0  0  0  0  0  0  0
  -23.3540  -30.5200   21.5770 C   0  0  0  0  0  3  0  0  0  0  0  0
  -24.7970  -28.9860   20.1400 C   0  0  0  0  0  0  0  0  0  0  0  0
  -25.8820  -30.8760   21.3610 C   0  0  0  0  0  2  0  0  0  0  0  0
  -25.9640  -29.5070   20.7140 C   0  0  0  0  0  0  0  0  0  0  0  0
  -27.1690  -28.7640   20.6810 C   0  0  0  0  0  3  0  0  0  0  0  0
  -26.0120  -26.9800   19.5050 C   0  0  0  0  0  3  0  0  0  0  0  0
  -24.8150  -27.7190   19.5370 C   0  0  0  0  0  3  0  0  0  0  0  0
  -23.5540  -29.8450   20.1950 C   0  0  0  0  0  2  0  0  0  0  0  0
  -24.6220  -31.1190   22.1070 N   0  0  0  0  0  0  0  0  0  0  0  0
  -23.4990  -32.1880   23.7610 O   0  0  0  0  0  0  0  0  0  0  0  0
  -22.7110  -29.4950   22.5400 C   0  0  0  0  0  0  0  0  0  0  0  0
  -21.3870  -29.3030   22.4130 N   0  0  0  0  0  0  0  0  0  0  0  0
  -23.3990  -28.8780   23.3570 O   0  0  0  0  0  0  0  0  0  0  0  0
  -20.8900  -29.8530   21.7260 H   0  0  0  0  0  0  0  0  0  0  0  0
  -18.0250  -28.0740   22.9100 C   0  0  0  0  0  0  0  0  0  0  0  0
  -20.5780  -28.3620   23.1890 C   0  0  0  0  0  3  0  0  0  0  0  0
  -20.6990  -26.9270   22.6260 C   0  0  0  0  0  2  0  0  0  0  0  0
  -19.6060  -26.5850   21.6090 C   0  0  0  0  0  2  0  0  0  0  0  0
  -18.2190  -26.7200   22.2460 C   0  0  0  0  0  2  0  0  0  0  0  0
  -19.1340  -28.8500   23.3380 C   0  0  0  0  0  0  0  0  0  0  0  0
  -18.9000  -30.1150   23.9190 C   0  0  0  0  0  3  0  0  0  0  0  0
  -17.5890  -30.6060   24.0730 C   0  0  0  0  0  3  0  0  0  0  0  0
  -16.4950  -29.8260   23.6610 C   0  0  0  0  0  3  0  0  0  0  0  0
  -16.7130  -28.5620   23.0850 C   0  0  0  0  0  3  0  0  0  0  0  0
  -25.8660  -32.5480   23.8180 C   0  0  0  0  0  3  0  0  0  0  0  0
  -26.3980  -31.7730   25.0870 C   0  0  1  0  0  0  0  0  0  0  0  0
  -25.3160  -31.5350   26.1650 C   0  0  0  0  0  1  0  0  0  0  0  0
  -26.9780  -30.3970   24.6850 C   0  0  0  0  0  1  0  0  0  0  0  0
  -27.5560  -32.5670   25.7380 C   0  0  0  0  0  1  0  0  0  0  0  0
  -25.5600  -33.9450   24.1530 N   0  0  0  0  0  0  0  0  0  0  0  0
  -25.8930  -34.9980   23.3950 C   0  0  0  0  0  0  0  0  0  0  0  0
  -26.5600  -34.8960   22.3620 O   0  0  0  0  0  0  0  0  0  0  0  0
  -24.9680  -34.0980   24.9560 H   0  0  0  0  0  0  0  0  0  0  0  0
  -24.1680  -36.7950   23.0440 C   0  0  0  0  0  1  0  0  0  0  0  0
  -25.4070  -36.3850   23.8560 C   0  0  0  0  0  3  0  0  0  0  0  0
  -27.5440  -37.2590   24.6930 C   0  0  0  0  0  1  0  0  0  0  0  0
  -26.4430  -37.4360   23.7490 N   0  0  0  0  0  0  0  0  0  0  0  0
  -26.0390  -38.3570   23.9020 H   0  0  0  0  0  0  0  0  0  0  0  0
  3  2  1  6
  3  4  1  0
  3  1  1  0
  5 18  1  0
  6 11  1  0
  7  8  1  0
  7  6  1  0
  9  8  1  0
  9 24  1  0
  9 10  1  0
 11  5  1  0
 11 10  1  0
 12  5  2  0
 13  4  1  0
 13 14  2  0
 14 16  1  0
 15 17  2  0
 15 19  1  0
 17 13  1  0
 18 15  1  0
 18 20  1  0
 19 14  1  0
 21 22  2  0
 22 41  1  0
 23 22  1  0
 23 26  1  0
 24 25  1  0
 24 21  1  0
 25 23  2  0
 26 27  1  0
 27 28  2  0
 29 32  1  0
 29 28  1  0
 30 29  2  0
 31 30  1  0
 31 26  2  0
 32 33  1  0
 33 34  1  0
 34 35  2  0
 36 35  1  0
 36 40  1  0
 37 36  2  0
 38 33  2  0
 38 37  1  0
 39 38  1  0
 41 42  1  0
 42 45  1  0
 42 44  1  0
 43 41  2  0
 46 47  1  0
 46 21  1  0
 48 46  1  0
 49  3  1  0
 50 51  1  0
 50 49  1  0
 52 54  1  0
 52 51  1  0
 53 64  2  0
 54 59  1  0
 55 63  1  0
 55 65  1  0
 56 62  1  0
 56 58  1  0
 57 63  1  0
 58 57  1  0
 59 58  2  0
 60 61  1  0
 60 54  2  0
 61 56  2  0
 62 55  1  0
 63 53  1  0
 65 67  2  0
 66 65  1  0
 68 66  1  0
 69 78  2  0
 69 74  1  0
 70 66  1  0
 70 74  1  0
 71 70  1  0
 72 73  1  0
 72 71  1  0
 73 69  1  0
 74 75  2  0
 75 76  1  0
 77 76  2  0
 78 77  1  0
 79 53  1  0
 79 84  1  0
 79 80  1  0
 80 83  1  1
 80 81  1  0
 82 80  1  0
 84 87  1  0
 85 89  1  0
 85 84  1  0
 86 85  2  0
 89 88  1  0
 91 89  1  0
 91 92  1  0
 91 90  1  0
M  ISO  4   5 100  18 100  51 101  52 101
M  END
>  <TORSDO>  (60) 
F 20

>  <SCORE>  (60) 
-13.241

>  <name>  (60) 
59

>  <ligand_id>  (60) 
59

>  <original_smiles>  (60) 
[H]c1c([H])c([H])c2c(c1[H])C([H])([H])C([H])([H])C([H])([H])C2([H])N([H])C(=O)C1([H])N(C(=O)C([H])(N([H])C(=O)C([H])(N([H])C([H])([H])[H])C([H])([H])[H])C(C([H])([H])[H])(C([H])([H])[H])C([H])([H])[H])C([H])([H])c2c([H])c(OC([H])([H])C([H])([H])C([H])([H])C(C([H])([H])[H])(C([H])([H])[H])C([H])([H])c3nc(N([H])C(=O)N4C([H])([H])C([H])([H])C([H])([H])C([H])(n5nc(-c6c([H])c([H])c(Oc7c([H])c([H])c(F)c([H])c7F)c([H])c6[H])c(C(=O)N([H])[H])c5N([H])[H])C4([H])[H])sc3C([H])([H])[H])c([H])c([H])c2C1([H])[H]

>  <smiles>  (60) 
[H]c1c([H])c([H])c2c(c1[H])C([H])([H])C([H])([H])C([H])([H])C2([H])N([H])C(=O)C1([H])N(C(=O)C([H])(N([H])C(=O)C([H])(N([H])C([H])([H])[H])C([H])([H])[H])C(C([H])([H])[H])(C([H])([H])[H])C([H])([H])[H])C([H])([H])c2c([H])c(OC([H])([H])C([H])([H])C([H])([H])C(C([H])([H])[H])(C([H])([H])[H])C([H])([H])c3nc(N([H])C(=O)N4C([H])([H])C([H])([H])C([H])([H])C([H])(n5nc(-c6c([H])c([H])c(Oc7c([H])c([H])c(F)c([H])c7F)c([H])c6[H])c(C(=O)N([H])[H])c5N([H])[H])C4([H])[H])sc3C([H])([H])[H])c([H])c([H])c2C1([H])[H]

$$$$
60:0:0
     RDKit          3D

 96104  0  0  1  0  0  0  0  0999 V2000
  -27.7540  -17.9420   20.2090 C   0  0  0  0  0  3  0  0  0  0  0  0
  -28.9950  -17.5590   19.7530 C   0  0  0  0  0  0  0  0  0  0  0  0
  -29.1310  -19.8780   19.6010 C   0  0  0  0  0  0  0  0  0  0  0  0
  -29.7690  -18.6970   19.3850 N   0  0  0  0  0  0  0  0  0  0  0  0
  -29.6350  -21.1820   19.4090 N   0  0  0  0  0  0  0  0  0  0  0  0
  -27.5200  -19.6640   20.2530 S   0  0  0  0  0  0  0  0  0  0  0  0
  -30.5590  -21.1730   18.9920 H   0  0  0  0  0  0  0  0  0  0  0  0
  -29.3060  -22.4620   20.0970 C   0  0  0  0  0  2  0  0  0  0  0  0
  -29.4650  -23.8130   19.2960 C   0  0  0  0  0  3  0  0  0  0  0  0
  -30.8640  -23.9910   19.1380 O   0  0  0  0  0  0  0  0  0  0  0  0
  -31.1570  -23.3570   18.4900 H   0  0  0  0  0  0  0  0  0  0  0  0
  -28.8780  -25.0620   20.0740 C   0  0  0  0  0  2  0  0  0  0  0  0
  -28.9930  -26.3980   19.4830 O   0  0  0  0  0  0  0  0  0  0  0  0
  -25.2100  -31.2940   23.1440 C   0  0  0  0  0  0  0  0  0  0  0  0
  -27.8570  -27.1960   19.5770 C   0  0  0  0  0  0  0  0  0  0  0  0
  -24.0010  -30.0570   21.3770 C   0  0  0  0  0  3  0  0  0  0  0  0
  -25.4570  -28.7090   19.7670 C   0  0  0  0  0  0  0  0  0  0  0  0
  -26.5240  -30.4650   21.1860 C   0  0  0  0  0  2  0  0  0  0  0  0
  -26.6200  -29.1690   20.3980 C   0  0  0  0  0  0  0  0  0  0  0  0
  -27.8280  -28.4220   20.2980 C   0  0  0  0  0  3  0  0  0  0  0  0
  -26.6780  -26.7820   18.9200 C   0  0  0  0  0  3  0  0  0  0  0  0
  -25.4830  -27.5200   19.0200 C   0  0  0  0  0  3  0  0  0  0  0  0
  -24.2010  -29.5390   19.9290 C   0  0  0  0  0  2  0  0  0  0  0  0
  -25.2650  -30.6150   21.9620 N   0  0  0  0  0  0  0  0  0  0  0  0
  -24.1300  -31.4870   23.7220 O   0  0  0  0  0  0  0  0  0  0  0  0
  -23.3770  -28.9260   22.2290 C   0  0  0  0  0  0  0  0  0  0  0  0
  -22.0580  -28.7120   22.0720 N   0  0  0  0  0  0  0  0  0  0  0  0
  -24.0770  -28.2480   22.9860 O   0  0  0  0  0  0  0  0  0  0  0  0
  -21.5510  -29.3130   21.4370 H   0  0  0  0  0  0  0  0  0  0  0  0
  -18.7380  -27.3270   22.3860 C   0  0  0  0  0  0  0  0  0  0  0  0
  -21.2730  -27.6730   22.7400 C   0  0  0  0  0  3  0  0  0  0  0  0
  -21.4570  -26.3060   22.0440 C   0  0  0  0  0  2  0  0  0  0  0  0
  -20.3910  -26.0230   20.9830 C   0  0  0  0  0  2  0  0  0  0  0  0
  -18.9900  -26.0500   21.6030 C   0  0  0  0  0  2  0  0  0  0  0  0
  -19.8110  -28.0970   22.9060 C   0  0  0  0  0  0  0  0  0  0  0  0
  -19.5210  -29.2950   23.5970 C   0  0  0  0  0  3  0  0  0  0  0  0
  -18.1900  -29.7210   23.7730 C   0  0  0  0  0  3  0  0  0  0  0  0
  -17.1320  -28.9440   23.2710 C   0  0  0  0  0  3  0  0  0  0  0  0
  -17.4070  -27.7490   22.5830 C   0  0  0  0  0  3  0  0  0  0  0  0
  -26.4940  -31.8760   23.8110 C   0  0  0  0  0  3  0  0  0  0  0  0
  -26.1720  -33.2300   24.2800 N   0  0  0  0  0  0  0  0  0  0  0  0
  -26.5070  -34.3570   23.6390 C   0  0  0  0  0  0  0  0  0  0  0  0
  -27.1890  -34.3660   22.6110 O   0  0  0  0  0  0  0  0  0  0  0  0
  -25.5680  -33.2980   25.0870 H   0  0  0  0  0  0  0  0  0  0  0  0
  -24.7750  -36.1710   23.4530 C   0  0  0  0  0  1  0  0  0  0  0  0
  -26.0070  -35.6860   24.2350 C   0  0  0  0  0  3  0  0  0  0  0  0
  -28.1240  -36.4870   25.1870 C   0  0  0  0  0  1  0  0  0  0  0  0
  -27.0360  -36.7480   24.2490 N   0  0  0  0  0  0  0  0  0  0  0  0
  -26.6210  -37.6460   24.4850 H   0  0  0  0  0  0  0  0  0  0  0  0
  -27.0350  -30.9890   24.9990 C   0  0  1  0  0  0  0  0  0  0  0  0
  -25.9560  -30.6480   26.0530 C   0  0  0  0  0  1  0  0  0  0  0  0
  -27.6180  -29.6580   24.4700 C   0  0  0  0  0  1  0  0  0  0  0  0
  -28.1880  -31.7250   25.7200 C   0  0  0  0  0  1  0  0  0  0  0  0
  -29.4640  -16.0790   19.7790 C   0  0  0  0  0  3  0  0  0  0  0  0
  -30.7500  -14.4490   18.1560 C   0  0  0  0  0  0  0  0  0  0  0  0
  -30.0730  -12.2660   17.1940 C   0  0  0  0  0  2  0  0  0  0  0  0
  -28.7340  -12.3790   16.4360 C   0  0  0  0  0  2  0  0  0  0  0  0
  -27.5460  -12.1750   17.3920 C   0  0  0  0  0  2  0  0  0  0  0  0
  -27.6830  -13.0040   18.6930 C   0  0  0  0  0  3  0  0  0  0  0  0
  -29.0920  -12.8570   19.3080 C   0  0  0  0  0  2  0  0  0  0  0  0
  -30.0560  -13.2710   18.2820 N   0  0  0  0  0  0  0  0  0  0  0  0
  -31.6760  -14.5410   17.3500 O   0  0  0  0  0  0  0  0  0  0  0  0
  -30.2790  -15.6400   18.6310 N   0  0  0  0  0  0  0  0  0  0  0  0
  -30.7860  -16.4170   18.2330 H   0  0  0  0  0  0  0  0  0  0  0  0
  -25.9360  -13.5190   20.5040 C   0  0  0  0  0  0  0  0  0  0  0  0
  -25.0030  -12.7390   21.1290 C   0  0  0  0  0  0  0  0  0  0  0  0
  -25.1650  -11.4270   20.5900 C   0  0  0  0  0  0  0  0  0  0  0  0
  -26.6260  -12.6790   19.6470 N   0  0  0  0  0  0  0  0  0  0  0  0
  -26.1900  -11.3960   19.7470 N   0  0  0  0  0  0  0  0  0  0  0  0
  -24.3660  -10.2100   20.7800 C   0  0  0  0  0  0  0  0  0  0  0  0
  -24.9060   -9.0700   21.4160 C   0  0  0  0  0  3  0  0  0  0  0  0
  -24.1170   -7.9160   21.6010 C   0  0  0  0  0  3  0  0  0  0  0  0
  -22.7720   -7.8920   21.1600 C   0  0  0  0  0  0  0  0  0  0  0  0
  -22.2470   -9.0200   20.5050 C   0  0  0  0  0  3  0  0  0  0  0  0
  -23.0370  -10.1680   20.3140 C   0  0  0  0  0  3  0  0  0  0  0  0
  -21.9320   -6.8120   21.2870 O   0  0  0  0  0  0  0  0  0  0  0  0
  -21.9650   -6.0040   22.3950 C   0  0  0  0  0  0  0  0  0  0  0  0
  -21.7060   -6.5080   23.6880 C   0  0  0  0  0  3  0  0  0  0  0  0
  -21.6800   -5.6320   24.7920 C   0  0  0  0  0  3  0  0  0  0  0  0
  -21.8980   -4.2520   24.6040 C   0  0  0  0  0  0  0  0  0  0  0  0
  -22.1490   -3.7500   23.3160 C   0  0  0  0  0  3  0  0  0  0  0  0
  -22.1810   -4.6240   22.2140 C   0  0  0  0  0  0  0  0  0  0  0  0
  -22.4120   -4.1330   20.9710 F   0  0  0  0  0  0  0  0  0  0  0  0
  -21.8620   -3.4070   25.6620 F   0  0  0  0  0  0  0  0  0  0  0  0
  -23.9450  -13.2080   22.0840 C   0  0  0  0  0  0  0  0  0  0  0  0
  -23.5410  -12.3490   23.0160 N   0  0  0  0  0  0  0  0  0  0  0  0
  -23.5020  -14.3550   22.0350 O   0  0  0  0  0  0  0  0  0  0  0  0
  -23.9080  -11.4080   23.0530 H   0  0  0  0  0  0  0  0  0  0  0  0
  -22.8550  -12.6380   23.6980 H   0  0  0  0  0  0  0  0  0  0  0  0
  -26.2300  -14.8720   20.5720 N   0  0  0  0  0  0  0  0  0  0  0  0
  -25.6060  -15.4960   21.0750 H   0  0  0  0  0  0  0  0  0  0  0  0
  -26.7510  -15.3420   19.8450 H   0  0  0  0  0  0  0  0  0  0  0  0
  -30.1850  -15.7280   21.1050 C   0  0  0  0  0  2  0  0  0  0  0  0
  -29.8440  -16.5120   23.5190 C   0  0  0  0  0  1  0  0  0  0  0  0
  -28.9260  -14.2790   22.7910 C   0  0  0  0  0  1  0  0  0  0  0  0
  -29.2580  -15.7110   22.3450 C   0  0  0  0  0  3  0  0  0  0  0  0
  1  6  1  0
  2 54  1  0
  2  1  2  0
  3  6  1  0
  4  3  2  0
  4  2  1  0
  5  3  1  0
  5  8  1  0
  7  5  1  0
  9 12  1  0
  9  8  1  0
 10  9  1  0
 11 10  1  0
 13 15  1  0
 13 12  1  0
 14 25  2  0
 15 20  1  0
 16 24  1  0
 16 26  1  0
 17 23  1  0
 17 19  1  0
 18 24  1  0
 19 18  1  0
 20 19  2  0
 21 22  1  0
 21 15  2  0
 22 17  2  0
 23 16  1  0
 24 14  1  0
 26 28  2  0
 27 26  1  0
 29 27  1  0
 30 39  2  0
 30 35  1  0
 31 27  1  0
 31 35  1  0
 32 31  1  0
 33 34  1  0
 33 32  1  0
 34 30  1  0
 35 36  2  0
 36 37  1  0
 38 37  2  0
 39 38  1  0
 40 14  1  0
 40 41  1  0
 40 50  1  0
 41 44  1  0
 42 46  1  0
 42 41  1  0
 43 42  2  0
 46 45  1  0
 46 48  1  0
 48 49  1  0
 48 47  1  0
 50 53  1  1
 50 51  1  0
 52 50  1  0
 54 93  1  0
 55 61  1  0
 55 63  1  0
 56 61  1  0
 57 56  1  0
 57 58  1  0
 59 58  1  0
 59 60  1  0
 59 68  1  0
 61 60  1  0
 62 55  2  0
 63 54  1  0
 64 63  1  0
 65 90  1  0
 65 66  2  0
 66 85  1  0
 67 70  1  0
 67 66  1  0
 68 69  1  0
 68 65  1  0
 69 67  2  0
 70 71  1  0
 71 72  2  0
 73 76  1  0
 73 72  1  0
 74 73  2  0
 75 74  1  0
 75 70  2  0
 76 77  1  0
 77 78  1  0
 78 79  2  0
 80 79  1  0
 80 84  1  0
 81 80  2  0
 82 77  2  0
 82 81  1  0
 83 82  1  0
 85 86  1  0
 86 88  1  0
 86 89  1  0
 87 85  2  0
 90 91  1  0
 92 90  1  0
 93 96  1  0
 96 95  1  0
 96 94  1  0
M  ISO  4  12 101  13 101  55 100  63 100
M  END
>  <TORSDO>  (61) 
F 23

>  <SCORE>  (61) 
3.730

>  <name>  (61) 
60

>  <ligand_id>  (61) 
60

>  <original_smiles>  (61) 
[H]OC([H])(C([H])([H])Oc1c([H])c([H])c2c(c1[H])C([H])([H])N(C(=O)C([H])(N([H])C(=O)C([H])(N([H])C([H])([H])[H])C([H])([H])[H])C(C([H])([H])[H])(C([H])([H])[H])C([H])([H])[H])C([H])(C(=O)N([H])C1([H])c3c([H])c([H])c([H])c([H])c3C([H])([H])C([H])([H])C1([H])[H])C2([H])[H])C([H])([H])N([H])c1nc(C([H])(N([H])C(=O)N2C([H])([H])C([H])([H])C([H])([H])C([H])(n3nc(-c4c([H])c([H])c(Oc5c([H])c([H])c(F)c([H])c5F)c([H])c4[H])c(C(=O)N([H])[H])c3N([H])[H])C2([H])[H])C([H])([H])C([H])(C([H])([H])[H])C([H])([H])[H])c([H])s1

>  <smiles>  (61) 
[H]OC([H])(C([H])([H])Oc1c([H])c([H])c2c(c1[H])C([H])([H])N(C(=O)C([H])(N([H])C(=O)C([H])(N([H])C([H])([H])[H])C([H])([H])[H])C(C([H])([H])[H])(C([H])([H])[H])C([H])([H])[H])C([H])(C(=O)N([H])C1([H])c3c([H])c([H])c([H])c([H])c3C([H])([H])C([H])([H])C1([H])[H])C2([H])[H])C([H])([H])N([H])c1nc(C([H])(N([H])C(=O)N2C([H])([H])C([H])([H])C([H])([H])C([H])(n3nc(-c4c([H])c([H])c(Oc5c([H])c([H])c(F)c([H])c5F)c([H])c4[H])c(C(=O)N([H])[H])c3N([H])[H])C2([H])[H])C([H])([H])C([H])(C([H])([H])[H])C([H])([H])[H])c([H])s1

$$$$
61:0:0
     RDKit          3D

 93101  0  0  1  0  0  0  0  0999 V2000
  -28.5710  -23.8150   20.0630 C   0  0  0  0  0  0  0  0  0  0  0  0
  -28.8040  -22.6360   20.7590 N   0  0  0  0  0  0  0  0  0  0  0  0
  -28.6150  -23.8450   18.8300 O   0  0  0  0  0  0  0  0  0  0  0  0
  -28.8170  -22.7820   21.7600 H   0  0  0  0  0  0  0  0  0  0  0  0
  -29.1480  -19.1920   19.2240 C   0  0  0  0  0  3  0  0  0  0  0  0
  -28.7740  -20.6010   19.2270 C   0  0  0  0  0  3  0  0  0  0  0  0
  -29.7490  -18.7260   20.3770 C   0  0  0  0  0  0  0  0  0  0  0  0
  -29.0470  -21.3030   20.3870 C   0  0  0  0  0  0  0  0  0  0  0  0
  -29.7800  -20.1140   21.5020 S   0  0  0  0  0  0  0  0  0  0  0  0
  -30.5020  -17.3730   20.6930 C   0  0  0  0  0  2  0  0  0  0  0  0
  -30.6700  -14.8170   20.2340 C   0  0  0  0  0  0  0  0  0  0  0  0
  -30.4410  -12.5330   19.2460 C   0  0  0  0  0  2  0  0  0  0  0  0
  -29.4900  -12.5830   18.0320 C   0  0  0  0  0  2  0  0  0  0  0  0
  -28.0270  -12.4160   18.4830 C   0  0  0  0  0  2  0  0  0  0  0  0
  -27.6650  -13.3240   19.6890 C   0  0  0  0  0  3  0  0  0  0  0  0
  -28.7360  -13.2640   20.7980 C   0  0  0  0  0  2  0  0  0  0  0  0
  -30.0210  -13.6050   20.1770 N   0  0  0  0  0  0  0  0  0  0  0  0
  -31.8580  -14.8880   19.9090 O   0  0  0  0  0  0  0  0  0  0  0  0
  -29.9410  -15.9720   20.4730 N   0  0  0  0  0  0  0  0  0  0  0  0
  -28.9560  -15.8490   20.6500 H   0  0  0  0  0  0  0  0  0  0  0  0
  -25.2940  -13.9210   20.4660 C   0  0  0  0  0  0  0  0  0  0  0  0
  -24.2310  -13.1490   20.8470 C   0  0  0  0  0  0  0  0  0  0  0  0
  -24.6860  -11.7960   20.7960 C   0  0  0  0  0  0  0  0  0  0  0  0
  -26.3290  -13.0380   20.2020 N   0  0  0  0  0  0  0  0  0  0  0  0
  -25.9710  -11.7540   20.4650 N   0  0  0  0  0  0  0  0  0  0  0  0
  -23.9550  -10.5360   20.9850 C   0  0  0  0  0  0  0  0  0  0  0  0
  -24.3740   -9.5740   21.9310 C   0  0  0  0  0  3  0  0  0  0  0  0
  -23.6420   -8.3800   22.1080 C   0  0  0  0  0  3  0  0  0  0  0  0
  -22.4790   -8.1380   21.3380 C   0  0  0  0  0  0  0  0  0  0  0  0
  -22.0810   -9.0880   20.3820 C   0  0  0  0  0  3  0  0  0  0  0  0
  -22.8130  -10.2740   20.2020 C   0  0  0  0  0  3  0  0  0  0  0  0
  -21.7210   -6.9950   21.4240 O   0  0  0  0  0  0  0  0  0  0  0  0
  -21.6230   -6.2830   22.5930 C   0  0  0  0  0  0  0  0  0  0  0  0
  -21.1130   -6.8590   23.7760 C   0  0  0  0  0  3  0  0  0  0  0  0
  -20.9640   -6.0710   24.9350 C   0  0  0  0  0  3  0  0  0  0  0  0
  -21.3140   -4.7080   24.9110 C   0  0  0  0  0  0  0  0  0  0  0  0
  -21.8180   -4.1320   23.7310 C   0  0  0  0  0  3  0  0  0  0  0  0
  -21.9680   -4.9160   22.5750 C   0  0  0  0  0  0  0  0  0  0  0  0
  -22.4330   -4.3500   21.4350 F   0  0  0  0  0  0  0  0  0  0  0  0
  -21.1650   -3.9490   26.0220 F   0  0  0  0  0  0  0  0  0  0  0  0
  -22.8410  -13.6320   21.1450 C   0  0  0  0  0  0  0  0  0  0  0  0
  -22.1210  -12.9290   22.0120 N   0  0  0  0  0  0  0  0  0  0  0  0
  -22.4030  -14.6670   20.6430 O   0  0  0  0  0  0  0  0  0  0  0  0
  -22.4900  -12.0920   22.4400 H   0  0  0  0  0  0  0  0  0  0  0  0
  -21.1880  -13.2340   22.2530 H   0  0  0  0  0  0  0  0  0  0  0  0
  -25.4620  -15.2930   20.2980 N   0  0  0  0  0  0  0  0  0  0  0  0
  -24.6960  -15.9460   20.4240 H   0  0  0  0  0  0  0  0  0  0  0  0
  -26.2980  -15.7300   19.9340 H   0  0  0  0  0  0  0  0  0  0  0  0
  -28.2010  -25.1690   20.8640 C   0  0  0  0  0  3  0  0  0  0  0  0
  -30.4640  -25.6080   22.0350 C   0  0  0  0  0  1  0  0  0  0  0  0
  -28.3160  -26.2620   23.2050 C   0  0  0  0  0  1  0  0  0  0  0  0
  -28.9690  -25.2800   22.2160 C   0  0  0  0  0  3  0  0  0  0  0  0
  -28.3440  -26.4860   20.1520 O   0  0  0  0  0  0  0  0  0  0  0  0
  -24.5980  -31.9230   23.1720 C   0  0  0  0  0  0  0  0  0  0  0  0
  -27.2390  -27.3620   20.1340 C   0  0  0  0  0  0  0  0  0  0  0  0
  -23.4040  -30.5140   21.5330 C   0  0  0  0  0  3  0  0  0  0  0  0
  -24.8670  -28.9680   20.1090 C   0  0  0  0  0  0  0  0  0  0  0  0
  -25.9420  -30.8500   21.3450 C   0  0  0  0  0  2  0  0  0  0  0  0
  -26.0350  -29.4700   20.7000 C   0  0  0  0  0  0  0  0  0  0  0  0
  -27.2280  -28.6830   20.6900 C   0  0  0  0  0  3  0  0  0  0  0  0
  -26.0530  -26.9170   19.5190 C   0  0  0  0  0  3  0  0  0  0  0  0
  -24.8800  -27.7000   19.5050 C   0  0  0  0  0  3  0  0  0  0  0  0
  -23.6240  -29.8340   20.1550 C   0  0  0  0  0  2  0  0  0  0  0  0
  -24.6670  -31.1140   22.0730 N   0  0  0  0  0  0  0  0  0  0  0  0
  -23.5130  -32.1920   23.7070 O   0  0  0  0  0  0  0  0  0  0  0  0
  -22.7490  -29.4950   22.4970 C   0  0  0  0  0  0  0  0  0  0  0  0
  -21.4210  -29.3250   22.3860 N   0  0  0  0  0  0  0  0  0  0  0  0
  -23.4350  -28.8610   23.3030 O   0  0  0  0  0  0  0  0  0  0  0  0
  -20.9260  -29.8890   21.7080 H   0  0  0  0  0  0  0  0  0  0  0  0
  -18.0420  -28.1510   22.9330 C   0  0  0  0  0  0  0  0  0  0  0  0
  -20.6070  -28.3860   23.1610 C   0  0  0  0  0  3  0  0  0  0  0  0
  -20.6860  -26.9600   22.5660 C   0  0  0  0  0  2  0  0  0  0  0  0
  -19.5630  -26.6590   21.5680 C   0  0  0  0  0  2  0  0  0  0  0  0
  -18.1940  -26.8080   22.2390 C   0  0  0  0  0  2  0  0  0  0  0  0
  -19.1740  -28.8990   23.3520 C   0  0  0  0  0  0  0  0  0  0  0  0
  -18.9760  -30.1560   23.9630 C   0  0  0  0  0  3  0  0  0  0  0  0
  -17.6790  -30.6660   24.1590 C   0  0  0  0  0  3  0  0  0  0  0  0
  -16.5610  -29.9140   23.7560 C   0  0  0  0  0  3  0  0  0  0  0  0
  -16.7440  -28.6590   23.1490 C   0  0  0  0  0  3  0  0  0  0  0  0
  -25.8760  -32.5670   23.7940 C   0  0  0  0  0  3  0  0  0  0  0  0
  -26.4080  -31.7900   25.0600 C   0  0  1  0  0  0  0  0  0  0  0  0
  -25.3240  -31.5260   26.1300 C   0  0  0  0  0  1  0  0  0  0  0  0
  -27.0080  -30.4230   24.6520 C   0  0  0  0  0  1  0  0  0  0  0  0
  -27.5510  -32.5930   25.7240 C   0  0  0  0  0  1  0  0  0  0  0  0
  -25.5500  -33.9580   24.1410 N   0  0  0  0  0  0  0  0  0  0  0  0
  -25.8630  -35.0240   23.3930 C   0  0  0  0  0  0  0  0  0  0  0  0
  -26.5260  -34.9410   22.3550 O   0  0  0  0  0  0  0  0  0  0  0  0
  -24.9580  -34.0950   24.9470 H   0  0  0  0  0  0  0  0  0  0  0  0
  -24.1170  -36.8060   23.0640 C   0  0  0  0  0  1  0  0  0  0  0  0
  -25.3620  -36.4020   23.8700 C   0  0  0  0  0  3  0  0  0  0  0  0
  -27.4840  -37.3000   24.7180 C   0  0  0  0  0  1  0  0  0  0  0  0
  -26.3840  -37.4660   23.7720 N   0  0  0  0  0  0  0  0  0  0  0  0
  -25.9690  -38.3800   23.9280 H   0  0  0  0  0  0  0  0  0  0  0  0
  1  2  1  0
  2  4  1  0
  3  1  2  0
  5  6  1  0
  5  7  2  0
  6  8  2  0
  7 10  1  0
  7  9  1  0
  8  2  1  0
  8  9  1  0
 11 19  1  0
 12 17  1  0
 13 14  1  0
 13 12  1  0
 15 14  1  0
 15 24  1  0
 15 16  1  0
 17 11  1  0
 17 16  1  0
 18 11  2  0
 19 20  1  0
 19 10  1  0
 21 22  2  0
 22 41  1  0
 23 22  1  0
 23 26  1  0
 24 25  1  0
 24 21  1  0
 25 23  2  0
 26 27  1  0
 27 28  2  0
 29 32  1  0
 29 28  1  0
 30 29  2  0
 31 30  1  0
 31 26  2  0
 32 33  1  0
 33 34  1  0
 34 35  2  0
 36 35  1  0
 36 40  1  0
 37 36  2  0
 38 33  2  0
 38 37  1  0
 39 38  1  0
 41 42  1  0
 42 45  1  0
 42 44  1  0
 43 41  2  0
 46 47  1  0
 46 21  1  0
 48 46  1  0
 49  1  1  0
 49 52  1  0
 50 52  1  0
 52 51  1  0
 53 49  1  0
 54 65  2  0
 55 53  1  0
 55 60  1  0
 56 64  1  0
 56 66  1  0
 57 63  1  0
 57 59  1  0
 58 64  1  0
 59 58  1  0
 60 59  2  0
 61 55  2  0
 62 61  1  0
 62 57  2  0
 63 56  1  0
 64 54  1  0
 66 68  2  0
 67 66  1  0
 69 67  1  0
 70 79  2  0
 70 75  1  0
 71 67  1  0
 71 75  1  0
 72 71  1  0
 73 74  1  0
 73 72  1  0
 74 70  1  0
 75 76  2  0
 76 77  1  0
 78 77  2  0
 79 78  1  0
 80 54  1  0
 80 85  1  0
 80 81  1  0
 81 84  1  1
 81 82  1  0
 83 81  1  0
 85 88  1  0
 86 90  1  0
 86 85  1  0
 87 86  2  0
 90 89  1  0
 92 90  1  0
 92 93  1  0
 92 91  1  0
M  ISO  4  11 100  19 100  49 101  53 101
M  END
>  <TORSDO>  (62) 
F 20

>  <SCORE>  (62) 
-13.735

>  <name>  (62) 
61

>  <ligand_id>  (62) 
61

>  <original_smiles>  (62) 
[H]c1c(N([H])C(=O)C([H])(Oc2c([H])c([H])c3c(c2[H])C([H])([H])N(C(=O)C([H])(N([H])C(=O)C([H])(N([H])C([H])([H])[H])C([H])([H])[H])C(C([H])([H])[H])(C([H])([H])[H])C([H])([H])[H])C([H])(C(=O)N([H])C2([H])c4c([H])c([H])c([H])c([H])c4C([H])([H])C([H])([H])C2([H])[H])C3([H])[H])C([H])(C([H])([H])[H])C([H])([H])[H])sc(C([H])([H])N([H])C(=O)N2C([H])([H])C([H])([H])C([H])([H])C([H])(n3nc(-c4c([H])c([H])c(Oc5c([H])c([H])c(F)c([H])c5F)c([H])c4[H])c(C(=O)N([H])[H])c3N([H])[H])C2([H])[H])c1[H]

>  <smiles>  (62) 
[H]c1c(N([H])C(=O)C([H])(Oc2c([H])c([H])c3c(c2[H])C([H])([H])N(C(=O)C([H])(N([H])C(=O)C([H])(N([H])C([H])([H])[H])C([H])([H])[H])C(C([H])([H])[H])(C([H])([H])[H])C([H])([H])[H])C([H])(C(=O)N([H])C2([H])c4c([H])c([H])c([H])c([H])c4C([H])([H])C([H])([H])C2([H])[H])C3([H])[H])C([H])(C([H])([H])[H])C([H])([H])[H])sc(C([H])([H])N([H])C(=O)N2C([H])([H])C([H])([H])C([H])([H])C([H])(n3nc(-c4c([H])c([H])c(Oc5c([H])c([H])c(F)c([H])c5F)c([H])c4[H])c(C(=O)N([H])[H])c3N([H])[H])C2([H])[H])c1[H]

$$$$
62:0:0
     RDKit          3D

 95103  0  0  1  0  0  0  0  0999 V2000
  -30.1960  -21.1080   20.6510 C   0  0  0  0  0  3  0  0  0  0  0  0
  -30.5840  -14.7030   20.3700 C   0  0  0  0  0  0  0  0  0  0  0  0
  -30.3030  -12.4570   19.3170 C   0  0  0  0  0  2  0  0  0  0  0  0
  -29.3540  -12.6220   18.1120 C   0  0  0  0  0  2  0  0  0  0  0  0
  -27.8920  -12.4540   18.5570 C   0  0  0  0  0  2  0  0  0  0  0  0
  -27.5580  -13.2940   19.8180 C   0  0  0  0  0  3  0  0  0  0  0  0
  -28.6350  -13.1380   20.9170 C   0  0  0  0  0  2  0  0  0  0  0  0
  -29.9360  -13.4850   20.3230 N   0  0  0  0  0  0  0  0  0  0  0  0
  -31.7050  -14.8140   19.8740 O   0  0  0  0  0  0  0  0  0  0  0  0
  -29.9110  -19.5830   20.2570 C   0  0  0  0  0  0  0  0  0  0  0  0
  -29.6080  -19.2070   18.9690 C   0  0  0  0  0  0  0  0  0  0  0  0
  -29.9180  -17.1780   20.3480 C   0  0  0  0  0  0  0  0  0  0  0  0
  -30.0370  -18.3660   21.0490 N   0  0  0  0  0  0  0  0  0  0  0  0
  -29.9440  -15.8070   20.8970 N   0  0  0  0  0  0  0  0  0  0  0  0
  -29.4300  -20.0940   17.9620 F   0  0  0  0  0  0  0  0  0  0  0  0
  -29.5470  -17.4840   18.6510 S   0  0  0  0  0  0  0  0  0  0  0  0
  -29.1720  -15.5860   21.5070 H   0  0  0  0  0  0  0  0  0  0  0  0
  -25.1750  -13.8740   20.5710 C   0  0  0  0  0  0  0  0  0  0  0  0
  -24.1120  -13.0940   20.9440 C   0  0  0  0  0  0  0  0  0  0  0  0
  -24.5710  -11.7420   20.8850 C   0  0  0  0  0  0  0  0  0  0  0  0
  -26.2170  -12.9970   20.3150 N   0  0  0  0  0  0  0  0  0  0  0  0
  -25.8580  -11.7090   20.5580 N   0  0  0  0  0  0  0  0  0  0  0  0
  -23.8440  -10.4770   21.0690 C   0  0  0  0  0  0  0  0  0  0  0  0
  -24.2700   -9.5030   22.0020 C   0  0  0  0  0  3  0  0  0  0  0  0
  -23.5380   -8.3090   22.1760 C   0  0  0  0  0  3  0  0  0  0  0  0
  -22.3690   -8.0770   21.4120 C   0  0  0  0  0  0  0  0  0  0  0  0
  -21.9630   -9.0380   20.4680 C   0  0  0  0  0  3  0  0  0  0  0  0
  -22.6940  -10.2240   20.2940 C   0  0  0  0  0  3  0  0  0  0  0  0
  -21.6090   -6.9340   21.4940 O   0  0  0  0  0  0  0  0  0  0  0  0
  -21.5440   -6.1940   22.6470 C   0  0  0  0  0  0  0  0  0  0  0  0
  -21.0590   -6.7450   23.8540 C   0  0  0  0  0  3  0  0  0  0  0  0
  -20.9400   -5.9340   24.9990 C   0  0  0  0  0  3  0  0  0  0  0  0
  -21.2960   -4.5730   24.9400 C   0  0  0  0  0  0  0  0  0  0  0  0
  -21.7780   -4.0220   23.7380 C   0  0  0  0  0  3  0  0  0  0  0  0
  -21.8980   -4.8300   22.5940 C   0  0  0  0  0  0  0  0  0  0  0  0
  -22.3400   -4.2910   21.4340 F   0  0  0  0  0  0  0  0  0  0  0  0
  -21.1730   -3.7910   26.0370 F   0  0  0  0  0  0  0  0  0  0  0  0
  -22.7210  -13.5670   21.2470 C   0  0  0  0  0  0  0  0  0  0  0  0
  -22.0130  -12.8540   22.1150 N   0  0  0  0  0  0  0  0  0  0  0  0
  -22.2710  -14.5990   20.7530 O   0  0  0  0  0  0  0  0  0  0  0  0
  -22.3970  -12.0140   22.5230 H   0  0  0  0  0  0  0  0  0  0  0  0
  -21.0780  -13.1410   22.3720 H   0  0  0  0  0  0  0  0  0  0  0  0
  -25.3350  -15.2450   20.4100 N   0  0  0  0  0  0  0  0  0  0  0  0
  -24.5590  -15.8920   20.4920 H   0  0  0  0  0  0  0  0  0  0  0  0
  -26.1680  -15.6760   20.0280 H   0  0  0  0  0  0  0  0  0  0  0  0
  -31.1170  -21.1090   21.8930 C   0  0  0  0  0  0  0  0  0  0  0  0
  -30.6910  -21.3840   23.0200 O   0  0  0  0  0  0  0  0  0  0  0  0
  -33.4910  -20.7120   22.9330 C   0  0  0  0  0  1  0  0  0  0  0  0
  -32.5980  -20.7290   21.6690 C   0  0  0  0  0  2  0  0  0  0  0  0
  -29.0150  -22.2400   20.6440 C   0  0  0  0  0  2  0  0  0  0  0  0
  -29.3200  -23.8500   20.7140 C   0  0  0  0  0  3  0  0  0  0  0  0
  -29.7030  -24.1190   22.0480 O   0  0  0  0  0  0  0  0  0  0  0  0
  -30.0920  -24.9920   22.0710 H   0  0  0  0  0  0  0  0  0  0  0  0
  -28.1500  -24.9250   20.3440 C   0  0  0  0  0  2  0  0  0  0  0  0
  -28.3550  -26.4140   20.4310 O   0  0  0  0  0  0  0  0  0  0  0  0
  -24.5920  -31.9200   23.2870 C   0  0  0  0  0  0  0  0  0  0  0  0
  -27.2410  -27.2860   20.3350 C   0  0  0  0  0  0  0  0  0  0  0  0
  -23.4070  -30.5080   21.6440 C   0  0  0  0  0  3  0  0  0  0  0  0
  -24.8740  -28.9290   20.2560 C   0  0  0  0  0  0  0  0  0  0  0  0
  -25.9530  -30.8090   21.4930 C   0  0  0  0  0  2  0  0  0  0  0  0
  -26.0370  -29.4190   20.8610 C   0  0  0  0  0  0  0  0  0  0  0  0
  -27.2230  -28.6140   20.8820 C   0  0  0  0  0  3  0  0  0  0  0  0
  -26.0490  -26.8610   19.7040 C   0  0  0  0  0  3  0  0  0  0  0  0
  -24.8840  -27.6550   19.6680 C   0  0  0  0  0  3  0  0  0  0  0  0
  -23.6360  -29.8050   20.2800 C   0  0  0  0  0  2  0  0  0  0  0  0
  -24.6700  -31.0960   22.2000 N   0  0  0  0  0  0  0  0  0  0  0  0
  -23.5000  -32.2130   23.7990 O   0  0  0  0  0  0  0  0  0  0  0  0
  -22.7150  -29.5140   22.6080 C   0  0  0  0  0  0  0  0  0  0  0  0
  -21.3880  -29.3490   22.4610 N   0  0  0  0  0  0  0  0  0  0  0  0
  -23.3720  -28.8890   23.4450 O   0  0  0  0  0  0  0  0  0  0  0  0
  -20.9150  -29.9020   21.7570 H   0  0  0  0  0  0  0  0  0  0  0  0
  -17.9900  -28.2020   22.9410 C   0  0  0  0  0  0  0  0  0  0  0  0
  -20.5500  -28.4240   23.2270 C   0  0  0  0  0  3  0  0  0  0  0  0
  -20.6360  -26.9910   22.6510 C   0  0  0  0  0  2  0  0  0  0  0  0
  -19.5350  -26.6830   21.6320 C   0  0  0  0  0  2  0  0  0  0  0  0
  -18.1490  -26.8520   22.2640 C   0  0  0  0  0  2  0  0  0  0  0  0
  -19.1170  -28.9470   23.3760 C   0  0  0  0  0  0  0  0  0  0  0  0
  -18.9140  -30.2140   23.9650 C   0  0  0  0  0  3  0  0  0  0  0  0
  -17.6150  -30.7330   24.1260 C   0  0  0  0  0  3  0  0  0  0  0  0
  -16.5020  -29.9830   23.7080 C   0  0  0  0  0  3  0  0  0  0  0  0
  -16.6900  -28.7200   23.1210 C   0  0  0  0  0  3  0  0  0  0  0  0
  -25.8680  -32.5500   23.9280 C   0  0  0  0  0  3  0  0  0  0  0  0
  -26.3540  -31.7900   25.2240 C   0  0  1  0  0  0  0  0  0  0  0  0
  -25.2350  -31.5670   26.2700 C   0  0  0  0  0  1  0  0  0  0  0  0
  -26.9430  -30.4070   24.8600 C   0  0  0  0  0  1  0  0  0  0  0  0
  -27.4870  -32.5920   25.9060 C   0  0  0  0  0  1  0  0  0  0  0  0
  -25.5640  -33.9530   24.2380 N   0  0  0  0  0  0  0  0  0  0  0  0
  -25.8820  -34.9930   23.4560 C   0  0  0  0  0  0  0  0  0  0  0  0
  -26.5260  -34.8700   22.4110 O   0  0  0  0  0  0  0  0  0  0  0  0
  -24.9890  -34.1240   25.0510 H   0  0  0  0  0  0  0  0  0  0  0  0
  -24.1350  -36.7730   23.1290 C   0  0  0  0  0  1  0  0  0  0  0  0
  -25.4060  -36.3900   23.9020 C   0  0  0  0  0  3  0  0  0  0  0  0
  -27.5590  -37.3050   24.6460 C   0  0  0  0  0  1  0  0  0  0  0  0
  -26.4290  -37.4440   23.7300 N   0  0  0  0  0  0  0  0  0  0  0  0
  -26.0220  -38.3650   23.8650 H   0  0  0  0  0  0  0  0  0  0  0  0
  1 50  1  0
  1 46  1  0
  2 14  1  0
  3  8  1  0
  4  5  1  0
  4  3  1  0
  6  5  1  0
  6 21  1  0
  6  7  1  0
  8  2  1  0
  8  7  1  0
  9  2  2  0
 10  1  1  0
 10 13  1  0
 11 10  2  0
 12 14  1  0
 12 13  2  0
 14 17  1  0
 15 11  1  0
 16 11  1  0
 16 12  1  0
 18 19  2  0
 19 38  1  0
 20 19  1  0
 20 23  1  0
 21 22  1  0
 21 18  1  0
 22 20  2  0
 23 24  1  0
 24 25  2  0
 26 29  1  0
 26 25  1  0
 27 26  2  0
 28 27  1  0
 28 23  2  0
 29 30  1  0
 30 31  1  0
 31 32  2  0
 33 32  1  0
 33 37  1  0
 34 33  2  0
 35 30  2  0
 35 34  1  0
 36 35  1  0
 38 39  1  0
 39 42  1  0
 39 41  1  0
 40 38  2  0
 43 44  1  0
 43 18  1  0
 45 43  1  0
 46 47  2  0
 49 46  1  0
 49 48  1  0
 50 51  1  0
 51 54  1  0
 51 52  1  0
 52 53  1  0
 54 55  1  0
 56 67  2  0
 57 55  1  0
 57 62  1  0
 58 66  1  0
 58 68  1  0
 59 65  1  0
 59 61  1  0
 60 66  1  0
 61 62  2  0
 61 60  1  0
 63 57  2  0
 64 63  1  0
 64 59  2  0
 65 58  1  0
 66 56  1  0
 68 70  2  0
 69 68  1  0
 71 69  1  0
 72 81  2  0
 72 77  1  0
 73 69  1  0
 73 77  1  0
 74 73  1  0
 75 76  1  0
 75 74  1  0
 76 72  1  0
 77 78  2  0
 78 79  1  0
 80 79  2  0
 81 80  1  0
 82 56  1  0
 82 87  1  0
 82 83  1  0
 83 86  1  1
 83 84  1  0
 85 83  1  0
 87 90  1  0
 88 92  1  0
 88 87  1  0
 89 88  2  0
 92 91  1  0
 94 95  1  0
 94 92  1  0
 94 93  1  0
M  ISO  4   2 100  14 100  54 101  55 101
M  END
>  <TORSDO>  (63) 
F 22

>  <SCORE>  (63) 
-13.695

>  <name>  (63) 
62

>  <ligand_id>  (63) 
62

>  <original_smiles>  (63) 
[H]OC([H])(C([H])([H])Oc1c([H])c([H])c2c(c1[H])C([H])([H])N(C(=O)C([H])(N([H])C(=O)C([H])(N([H])C([H])([H])[H])C([H])([H])[H])C(C([H])([H])[H])(C([H])([H])[H])C([H])([H])[H])C([H])(C(=O)N([H])C1([H])c3c([H])c([H])c([H])c([H])c3C([H])([H])C([H])([H])C1([H])[H])C2([H])[H])C([H])([H])C([H])(C(=O)C([H])([H])C([H])([H])[H])c1nc(N([H])C(=O)N2C([H])([H])C([H])([H])C([H])([H])C([H])(n3nc(-c4c([H])c([H])c(Oc5c([H])c([H])c(F)c([H])c5F)c([H])c4[H])c(C(=O)N([H])[H])c3N([H])[H])C2([H])[H])sc1F

>  <smiles>  (63) 
[H]OC([H])(C([H])([H])Oc1c([H])c([H])c2c(c1[H])C([H])([H])N(C(=O)C([H])(N([H])C(=O)C([H])(N([H])C([H])([H])[H])C([H])([H])[H])C(C([H])([H])[H])(C([H])([H])[H])C([H])([H])[H])C([H])(C(=O)N([H])C1([H])c3c([H])c([H])c([H])c([H])c3C([H])([H])C([H])([H])C1([H])[H])C2([H])[H])C([H])([H])C([H])(C(=O)C([H])([H])C([H])([H])[H])c1nc(N([H])C(=O)N2C([H])([H])C([H])([H])C([H])([H])C([H])(n3nc(-c4c([H])c([H])c(Oc5c([H])c([H])c(F)c([H])c5F)c([H])c4[H])c(C(=O)N([H])[H])c3N([H])[H])C2([H])[H])sc1F

$$$$
63:0:0
     RDKit          3D

 97105  0  0  1  0  0  0  0  0999 V2000
  -29.1610  -22.3590   20.8060 C   0  0  0  0  0  0  0  0  0  0  0  0
  -31.1770  -18.8990   18.4010 C   0  0  0  0  0  3  0  0  0  0  0  0
  -30.5280  -20.0050   18.9720 C   0  0  0  0  0  3  0  0  0  0  0  0
  -30.8780  -17.5910   18.8240 C   0  0  0  0  0  0  0  0  0  0  0  0
  -29.5570  -19.8120   19.9610 C   0  0  0  0  0  0  0  0  0  0  0  0
  -29.9800  -17.3750   19.9040 C   0  0  0  0  0  0  0  0  0  0  0  0
  -29.3020  -18.5090   20.4030 N   0  0  0  0  0  0  0  0  0  0  0  0
  -28.7480  -20.9430   20.3590 N   0  0  0  0  0  4  0  0  0  0  0  0
  -31.4150  -16.5690   18.1180 F   0  0  0  0  0  0  0  0  0  0  0  0
  -27.8420  -20.7020   20.7440 H   0  0  0  0  0  0  0  0  0  0  0  0
  -30.5510  -14.8160   20.2840 C   0  0  0  0  0  0  0  0  0  0  0  0
  -30.4040  -12.4940   19.3820 C   0  0  0  0  0  2  0  0  0  0  0  0
  -29.4940  -12.5120   18.1360 C   0  0  0  0  0  2  0  0  0  0  0  0
  -28.0010  -12.3930   18.5270 C   0  0  0  0  0  2  0  0  0  0  0  0
  -27.6070  -13.2670   19.7510 C   0  0  0  0  0  3  0  0  0  0  0  0
  -28.6570  -13.2150   20.8780 C   0  0  0  0  0  2  0  0  0  0  0  0
  -29.9450  -13.5760   20.2780 N   0  0  0  0  0  0  0  0  0  0  0  0
  -31.7690  -14.8660   20.0960 O   0  0  0  0  0  0  0  0  0  0  0  0
  -29.7480  -15.9600   20.3400 N   0  0  0  0  0  0  0  0  0  0  0  0
  -28.8030  -15.7790   20.6320 H   0  0  0  0  0  0  0  0  0  0  0  0
  -25.2110  -13.8210   20.4830 C   0  0  0  0  0  0  0  0  0  0  0  0
  -24.1560  -13.0340   20.8550 C   0  0  0  0  0  0  0  0  0  0  0  0
  -24.6390  -11.6900   20.8340 C   0  0  0  0  0  0  0  0  0  0  0  0
  -26.2680  -12.9580   20.2460 N   0  0  0  0  0  0  0  0  0  0  0  0
  -25.9310  -11.6700   20.5210 N   0  0  0  0  0  0  0  0  0  0  0  0
  -23.9290  -10.4170   21.0260 C   0  0  0  0  0  0  0  0  0  0  0  0
  -24.3670   -9.4580   21.9650 C   0  0  0  0  0  3  0  0  0  0  0  0
  -23.6550   -8.2540   22.1450 C   0  0  0  0  0  3  0  0  0  0  0  0
  -22.4870   -7.9990   21.3840 C   0  0  0  0  0  0  0  0  0  0  0  0
  -22.0690   -8.9480   20.4340 C   0  0  0  0  0  3  0  0  0  0  0  0
  -22.7840  -10.1430   20.2510 C   0  0  0  0  0  3  0  0  0  0  0  0
  -21.7440   -6.8480   21.4760 O   0  0  0  0  0  0  0  0  0  0  0  0
  -21.6980   -6.1090   22.6300 C   0  0  0  0  0  0  0  0  0  0  0  0
  -21.2470   -6.6580   23.8510 C   0  0  0  0  0  3  0  0  0  0  0  0
  -21.1480   -5.8430   24.9950 C   0  0  0  0  0  3  0  0  0  0  0  0
  -21.4910   -4.4810   24.9220 C   0  0  0  0  0  0  0  0  0  0  0  0
  -21.9350   -3.9300   23.7070 C   0  0  0  0  0  3  0  0  0  0  0  0
  -22.0350   -4.7420   22.5630 C   0  0  0  0  0  0  0  0  0  0  0  0
  -22.4410   -4.2020   21.3900 F   0  0  0  0  0  0  0  0  0  0  0  0
  -21.3920   -3.6930   26.0200 F   0  0  0  0  0  0  0  0  0  0  0  0
  -22.7510  -13.4950   21.1180 C   0  0  0  0  0  0  0  0  0  0  0  0
  -22.0210  -12.7920   21.9780 N   0  0  0  0  0  0  0  0  0  0  0  0
  -22.3050  -14.5120   20.5900 O   0  0  0  0  0  0  0  0  0  0  0  0
  -22.3920  -11.9680   22.4300 H   0  0  0  0  0  0  0  0  0  0  0  0
  -21.0790  -13.0910   22.1900 H   0  0  0  0  0  0  0  0  0  0  0  0
  -25.3550  -15.1940   20.2990 N   0  0  0  0  0  0  0  0  0  0  0  0
  -24.5760  -15.8320   20.4180 H   0  0  0  0  0  0  0  0  0  0  0  0
  -26.1840  -15.6480   19.9410 H   0  0  0  0  0  0  0  0  0  0  0  0
  -30.6760  -22.5090   21.1430 C   0  0  1  0  0  0  0  0  0  0  0  0
  -31.0960  -21.5130   21.9260 F   0  0  0  0  0  0  0  0  0  0  0  0
  -31.4450  -22.5580   20.0580 F   0  0  0  0  0  0  0  0  0  0  0  0
  -30.8870  -23.6420   21.8090 F   0  0  0  0  0  0  0  0  0  0  0  0
  -28.5880  -23.6670   20.0040 C   0  0  0  0  0  3  0  0  0  0  0  0
  -27.3700  -23.2770   19.3800 O   0  0  0  0  0  0  0  0  0  0  0  0
  -27.2930  -23.7810   18.5750 H   0  0  0  0  0  0  0  0  0  0  0  0
  -28.2750  -25.0700   20.7970 C   0  0  0  0  0  2  0  0  0  0  0  0
  -28.3530  -26.4400   20.1830 O   0  0  0  0  0  0  0  0  0  0  0  0
  -24.6080  -31.8950   23.2200 C   0  0  0  0  0  0  0  0  0  0  0  0
  -27.2320  -27.2980   20.2030 C   0  0  0  0  0  0  0  0  0  0  0  0
  -23.4130  -30.4950   21.5760 C   0  0  0  0  0  3  0  0  0  0  0  0
  -24.8710  -28.9310   20.1650 C   0  0  0  0  0  0  0  0  0  0  0  0
  -25.9510  -30.8130   21.3940 C   0  0  0  0  0  2  0  0  0  0  0  0
  -26.0390  -29.4210   20.7640 C   0  0  0  0  0  0  0  0  0  0  0  0
  -27.2230  -28.6180   20.7690 C   0  0  0  0  0  3  0  0  0  0  0  0
  -26.0400  -26.8640   19.5870 C   0  0  0  0  0  3  0  0  0  0  0  0
  -24.8760  -27.6610   19.5650 C   0  0  0  0  0  3  0  0  0  0  0  0
  -23.6400  -29.8190   20.1980 C   0  0  0  0  0  2  0  0  0  0  0  0
  -24.6770  -31.0840   22.1230 N   0  0  0  0  0  0  0  0  0  0  0  0
  -23.5220  -32.1710   23.7510 O   0  0  0  0  0  0  0  0  0  0  0  0
  -22.7450  -29.4790   22.5370 C   0  0  0  0  0  0  0  0  0  0  0  0
  -21.4180  -29.3090   22.4140 N   0  0  0  0  0  0  0  0  0  0  0  0
  -23.4210  -28.8460   23.3510 O   0  0  0  0  0  0  0  0  0  0  0  0
  -20.9280  -29.8750   21.7370 H   0  0  0  0  0  0  0  0  0  0  0  0
  -18.0350  -28.1230   22.9270 C   0  0  0  0  0  0  0  0  0  0  0  0
  -20.5960  -28.3720   23.1860 C   0  0  0  0  0  3  0  0  0  0  0  0
  -20.6900  -26.9430   22.6040 C   0  0  0  0  0  2  0  0  0  0  0  0
  -19.5800  -26.6270   21.5940 C   0  0  0  0  0  2  0  0  0  0  0  0
  -18.2020  -26.7770   22.2440 C   0  0  0  0  0  2  0  0  0  0  0  0
  -19.1580  -28.8790   23.3560 C   0  0  0  0  0  0  0  0  0  0  0  0
  -18.9470  -30.1380   23.9580 C   0  0  0  0  0  3  0  0  0  0  0  0
  -17.6460  -30.6430   24.1330 C   0  0  0  0  0  3  0  0  0  0  0  0
  -16.5370  -29.8880   23.7160 C   0  0  0  0  0  3  0  0  0  0  0  0
  -16.7330  -28.6290   23.1200 C   0  0  0  0  0  3  0  0  0  0  0  0
  -25.8860  -32.5330   23.8500 C   0  0  0  0  0  3  0  0  0  0  0  0
  -25.5760  -33.9310   24.1820 N   0  0  0  0  0  0  0  0  0  0  0  0
  -25.9010  -34.9840   23.4200 C   0  0  0  0  0  0  0  0  0  0  0  0
  -26.5700  -34.8820   22.3880 O   0  0  0  0  0  0  0  0  0  0  0  0
  -24.9970  -34.0880   24.9950 H   0  0  0  0  0  0  0  0  0  0  0  0
  -24.1800  -36.7830   23.0560 C   0  0  0  0  0  1  0  0  0  0  0  0
  -25.4140  -36.3740   23.8770 C   0  0  0  0  0  3  0  0  0  0  0  0
  -27.5440  -37.2540   24.7260 C   0  0  0  0  0  1  0  0  0  0  0  0
  -26.4490  -37.4250   23.7740 N   0  0  0  0  0  0  0  0  0  0  0  0
  -26.0430  -38.3460   23.9180 H   0  0  0  0  0  0  0  0  0  0  0  0
  -26.3970  -31.7620   25.1270 C   0  0  1  0  0  0  0  0  0  0  0  0
  -25.2990  -31.5240   26.1920 C   0  0  0  0  0  1  0  0  0  0  0  0
  -26.9810  -30.3870   24.7310 C   0  0  0  0  0  1  0  0  0  0  0  0
  -27.5450  -32.5560   25.7970 C   0  0  0  0  0  1  0  0  0  0  0  0
  1 49  1  0
  2  4  2  0
  2  3  1  0
  3  5  2  0
  4  6  1  0
  5  8  1  0
  5  7  1  0
  6 19  1  0
  6  7  2  0
  8 10  1  0
  8  1  2  0
  9  4  1  0
 11 19  1  0
 12 17  1  0
 13 14  1  0
 13 12  1  0
 15 14  1  0
 15 24  1  0
 15 16  1  0
 17 11  1  0
 17 16  1  0
 18 11  2  0
 19 20  1  0
 21 22  2  0
 22 41  1  0
 23 22  1  0
 23 26  1  0
 24 21  1  0
 24 25  1  0
 25 23  2  0
 26 27  1  0
 27 28  2  0
 29 32  1  0
 29 28  1  0
 30 29  2  0
 31 30  1  0
 31 26  2  0
 32 33  1  0
 33 34  1  0
 34 35  2  0
 36 35  1  0
 36 40  1  0
 37 36  2  0
 38 33  2  0
 38 37  1  0
 39 38  1  0
 41 42  1  0
 42 45  1  0
 42 44  1  0
 43 41  2  0
 46 47  1  0
 46 21  1  0
 48 46  1  0
 49 52  1  1
 49 50  1  0
 51 49  1  0
 53 56  1  0
 53  1  1  0
 54 53  1  0
 55 54  1  0
 57 59  1  0
 57 56  1  0
 58 69  2  0
 59 64  1  0
 60 68  1  0
 60 70  1  0
 61 67  1  0
 61 63  1  0
 62 68  1  0
 63 64  2  0
 63 62  1  0
 65 59  2  0
 66 65  1  0
 66 61  2  0
 67 60  1  0
 68 58  1  0
 70 72  2  0
 71 70  1  0
 73 71  1  0
 74 83  2  0
 74 79  1  0
 75 71  1  0
 75 79  1  0
 76 75  1  0
 77 78  1  0
 77 76  1  0
 78 74  1  0
 79 80  2  0
 80 81  1  0
 82 81  2  0
 83 82  1  0
 84 58  1  0
 84 85  1  0
 84 94  1  0
 85 88  1  0
 86 90  1  0
 86 85  1  0
 87 86  2  0
 90 89  1  0
 92 90  1  0
 92 93  1  0
 92 91  1  0
 94 97  1  1
 94 95  1  0
 96 94  1  0
M  ISO  4  11 100  19 100  56 101  57 101
M  END
>  <TORSDO>  (64) 
F 21

>  <SCORE>  (64) 
-14.092

>  <name>  (64) 
63

>  <ligand_id>  (64) 
63

>  <original_smiles>  (64) 
[H]OC([H])(C([H])([H])Oc1c([H])c([H])c2c(c1[H])C([H])([H])N(C(=O)C([H])(N([H])C(=O)C([H])(N([H])C([H])([H])[H])C([H])([H])[H])C(C([H])([H])[H])(C([H])([H])[H])C([H])([H])[H])C([H])(C(=O)N([H])C1([H])c3c([H])c([H])c([H])c([H])c3C([H])([H])C([H])([H])C1([H])[H])C2([H])[H])C([H])(N([H])c1nc(N([H])C(=O)N2C([H])([H])C([H])([H])C([H])([H])C([H])(n3nc(-c4c([H])c([H])c(Oc5c([H])c([H])c(F)c([H])c5F)c([H])c4[H])c(C(=O)N([H])[H])c3N([H])[H])C2([H])[H])c(F)c([H])c1[H])C(F)(F)F

>  <smiles>  (64) 
[H]OC([H])(C([H])([H])Oc1c([H])c([H])c2c(c1[H])C([H])([H])N(C(=O)C([H])(N([H])C(=O)C([H])(N([H])C([H])([H])[H])C([H])([H])[H])C(C([H])([H])[H])(C([H])([H])[H])C([H])([H])[H])C([H])(C(=O)N([H])C1([H])c3c([H])c([H])c([H])c([H])c3C([H])([H])C([H])([H])C1([H])[H])C2([H])[H])C([H])(N([H])c1nc(N([H])C(=O)N2C([H])([H])C([H])([H])C([H])([H])C([H])(n3nc(-c4c([H])c([H])c(Oc5c([H])c([H])c(F)c([H])c5F)c([H])c4[H])c(C(=O)N([H])[H])c3N([H])[H])C2([H])[H])c(F)c([H])c1[H])C(F)(F)F

$$$$
64:0:0
     RDKit          3D

 93101  0  0  1  0  0  0  0  0999 V2000
  -31.2090  -23.3210   21.6270 C   0  0  0  0  0  1  0  0  0  0  0  0
  -29.8690  -23.2160   20.8220 C   0  0  0  0  0  3  0  0  0  0  0  0
  -30.1550  -19.4940   20.0200 C   0  0  0  0  0  3  0  0  0  0  0  0
  -29.1410  -19.4090   22.4870 C   0  0  0  0  0  3  0  0  0  0  0  0
  -30.0520  -18.2630   20.7250 C   0  0  0  0  0  0  0  0  0  0  0  0
  -29.7420  -20.6740   20.6690 C   0  0  0  0  0  0  0  0  0  0  0  0
  -29.5430  -18.2480   21.9760 N   0  0  0  0  0  0  0  0  0  0  0  0
  -29.2240  -20.6070   21.9060 N   0  0  0  0  0  0  0  0  0  0  0  0
  -29.8520  -21.9470   20.0400 N   0  0  0  0  0  0  0  0  0  0  0  0
  -30.3300  -21.9610   19.1410 H   0  0  0  0  0  0  0  0  0  0  0  0
  -30.5430  -16.9740   20.1200 C   0  0  0  0  0  3  0  0  0  0  0  0
  -30.4040  -15.7680   20.5690 N   0  0  0  0  0  0  0  0  0  0  0  0
  -31.0300  -14.7500   19.8260 C   0  0  0  0  0  0  0  0  0  0  0  0
  -30.6120  -12.6160   18.6290 C   0  0  0  0  0  2  0  0  0  0  0  0
  -29.5620  -12.8670   17.5320 C   0  0  0  0  0  2  0  0  0  0  0  0
  -28.1410  -12.6820   18.1020 C   0  0  0  0  0  2  0  0  0  0  0  0
  -27.9280  -13.4600   19.4330 C   0  0  0  0  0  3  0  0  0  0  0  0
  -29.0970  -13.2210   20.4120 C   0  0  0  0  0  2  0  0  0  0  0  0
  -30.3470  -13.5750   19.7230 N   0  0  0  0  0  0  0  0  0  0  0  0
  -32.0770  -14.9080   19.1840 O   0  0  0  0  0  0  0  0  0  0  0  0
  -25.6560  -14.0170   20.4940 C   0  0  0  0  0  0  0  0  0  0  0  0
  -24.6180  -13.2190   20.9120 C   0  0  0  0  0  0  0  0  0  0  0  0
  -25.0380  -11.8750   20.6760 C   0  0  0  0  0  0  0  0  0  0  0  0
  -26.6390  -13.1480   20.0420 N   0  0  0  0  0  0  0  0  0  0  0  0
  -26.2820  -11.8490   20.2110 N   0  0  0  0  0  0  0  0  0  0  0  0
  -24.3040  -10.6090   20.8250 C   0  0  0  0  0  0  0  0  0  0  0  0
  -24.7540   -9.5960   21.7000 C   0  0  0  0  0  3  0  0  0  0  0  0
  -24.0240   -8.3970   21.8400 C   0  0  0  0  0  3  0  0  0  0  0  0
  -22.8340   -8.1990   21.1020 C   0  0  0  0  0  0  0  0  0  0  0  0
  -22.4000   -9.2000   20.2140 C   0  0  0  0  0  3  0  0  0  0  0  0
  -23.1300  -10.3940   20.0700 C   0  0  0  0  0  3  0  0  0  0  0  0
  -22.0730   -7.0530   21.1540 O   0  0  0  0  0  0  0  0  0  0  0  0
  -21.9300   -6.3360   22.3150 C   0  0  0  0  0  0  0  0  0  0  0  0
  -21.4120   -6.9170   23.4920 C   0  0  0  0  0  3  0  0  0  0  0  0
  -21.2160   -6.1270   24.6430 C   0  0  0  0  0  3  0  0  0  0  0  0
  -21.5290   -4.7540   24.6150 C   0  0  0  0  0  0  0  0  0  0  0  0
  -22.0390   -4.1710   23.4400 C   0  0  0  0  0  3  0  0  0  0  0  0
  -22.2360   -4.9610   22.2950 C   0  0  0  0  0  0  0  0  0  0  0  0
  -22.7060   -4.3890   21.1600 F   0  0  0  0  0  0  0  0  0  0  0  0
  -21.3330   -3.9920   25.7160 F   0  0  0  0  0  0  0  0  0  0  0  0
  -23.2810  -13.6810   21.4090 C   0  0  0  0  0  0  0  0  0  0  0  0
  -22.6690  -12.9170   22.3090 N   0  0  0  0  0  0  0  0  0  0  0  0
  -22.7910  -14.7440   21.0350 O   0  0  0  0  0  0  0  0  0  0  0  0
  -23.0740  -12.0510   22.6250 H   0  0  0  0  0  0  0  0  0  0  0  0
  -21.7730  -13.1990   22.6780 H   0  0  0  0  0  0  0  0  0  0  0  0
  -25.8450  -15.3950   20.4360 N   0  0  0  0  0  0  0  0  0  0  0  0
  -25.1410  -16.0710   20.7070 H   0  0  0  0  0  0  0  0  0  0  0  0
  -26.6780  -15.8270   20.0490 H   0  0  0  0  0  0  0  0  0  0  0  0
  -29.6160  -24.4930   19.9160 C   0  0  0  0  0  3  0  0  0  0  0  0
  -28.6530  -24.1000   18.9540 O   0  0  0  0  0  0  0  0  0  0  0  0
  -28.9840  -23.2890   18.5770 H   0  0  0  0  0  0  0  0  0  0  0  0
  -29.0510  -25.7870   20.6300 C   0  0  0  0  0  2  0  0  0  0  0  0
  -28.7940  -26.9120   19.7450 O   0  0  0  0  0  0  0  0  0  0  0  0
  -24.7490  -31.7830   23.1120 C   0  0  0  0  0  0  0  0  0  0  0  0
  -27.5750  -27.5690   19.8490 C   0  0  0  0  0  0  0  0  0  0  0  0
  -23.5860  -30.4140   21.4050 C   0  0  0  0  0  3  0  0  0  0  0  0
  -25.1000  -28.9780   19.9260 C   0  0  0  0  0  0  0  0  0  0  0  0
  -26.0980  -30.8680   21.2270 C   0  0  0  0  0  2  0  0  0  0  0  0
  -26.2390  -29.5290   20.5230 C   0  0  0  0  0  0  0  0  0  0  0  0
  -27.4730  -28.8400   20.4720 C   0  0  0  0  0  3  0  0  0  0  0  0
  -26.4120  -27.0220   19.2650 C   0  0  0  0  0  3  0  0  0  0  0  0
  -25.1830  -27.7190   19.2960 C   0  0  0  0  0  3  0  0  0  0  0  0
  -23.8190  -29.7830   20.0040 C   0  0  0  0  0  2  0  0  0  0  0  0
  -24.8260  -31.0370   21.9700 N   0  0  0  0  0  0  0  0  0  0  0  0
  -23.6640  -31.9850   23.6750 O   0  0  0  0  0  0  0  0  0  0  0  0
  -22.9800  -29.3320   22.3330 C   0  0  0  0  0  0  0  0  0  0  0  0
  -21.6550  -29.1300   22.2380 N   0  0  0  0  0  0  0  0  0  0  0  0
  -23.6980  -28.6790   23.0940 O   0  0  0  0  0  0  0  0  0  0  0  0
  -21.1320  -29.7180   21.6060 H   0  0  0  0  0  0  0  0  0  0  0  0
  -18.3120  -27.8600   22.8040 C   0  0  0  0  0  0  0  0  0  0  0  0
  -20.8780  -28.1310   22.9740 C   0  0  0  0  0  3  0  0  0  0  0  0
  -20.9690  -26.7440   22.2990 C   0  0  0  0  0  2  0  0  0  0  0  0
  -19.8260  -26.4760   21.3140 C   0  0  0  0  0  2  0  0  0  0  0  0
  -18.4730  -26.5640   22.0240 C   0  0  0  0  0  2  0  0  0  0  0  0
  -19.4430  -28.6080   23.2290 C   0  0  0  0  0  0  0  0  0  0  0  0
  -19.2390  -29.8280   23.9130 C   0  0  0  0  0  3  0  0  0  0  0  0
  -17.9380  -30.2950   24.1780 C   0  0  0  0  0  3  0  0  0  0  0  0
  -16.8220  -29.5460   23.7590 C   0  0  0  0  0  3  0  0  0  0  0  0
  -17.0120  -28.3290   23.0790 C   0  0  0  0  0  3  0  0  0  0  0  0
  -26.0210  -32.4360   23.7470 C   0  0  0  0  0  3  0  0  0  0  0  0
  -25.6820  -33.8220   24.1070 N   0  0  0  0  0  0  0  0  0  0  0  0
  -25.9900  -34.8970   23.3660 C   0  0  0  0  0  0  0  0  0  0  0  0
  -26.6600  -34.8300   22.3310 O   0  0  0  0  0  0  0  0  0  0  0  0
  -25.1240  -33.9490   24.9370 H   0  0  0  0  0  0  0  0  0  0  0  0
  -24.2310  -36.6610   23.0200 C   0  0  0  0  0  1  0  0  0  0  0  0
  -25.4660  -36.2660   23.8490 C   0  0  0  0  0  3  0  0  0  0  0  0
  -27.5650  -37.1720   24.7350 C   0  0  0  0  0  1  0  0  0  0  0  0
  -26.4760  -37.3440   23.7750 N   0  0  0  0  0  0  0  0  0  0  0  0
  -26.0500  -38.2530   23.9370 H   0  0  0  0  0  0  0  0  0  0  0  0
  -26.5600  -31.6540   25.0090 C   0  0  1  0  0  0  0  0  0  0  0  0
  -25.4740  -31.3410   26.0630 C   0  0  0  0  0  1  0  0  0  0  0  0
  -27.2030  -30.3140   24.5890 C   0  0  0  0  0  1  0  0  0  0  0  0
  -27.6790  -32.4710   25.6940 C   0  0  0  0  0  1  0  0  0  0  0  0
  2  1  1  0
  3  6  2  0
  3  5  1  0
  5  7  2  0
  6  8  1  0
  7  4  1  0
  8  4  2  0
  9  6  1  0
  9  2  1  0
 10  9  1  0
 11 12  2  0
 11  5  1  0
 13 12  1  0
 14 19  1  0
 15 16  1  0
 15 14  1  0
 17 16  1  0
 17 24  1  0
 17 18  1  0
 19 13  1  0
 19 18  1  0
 20 13  2  0
 21 22  2  0
 22 41  1  0
 23 26  1  0
 23 22  1  0
 24 25  1  0
 24 21  1  0
 25 23  2  0
 26 27  1  0
 27 28  2  0
 29 32  1  0
 29 28  1  0
 30 29  2  0
 31 30  1  0
 31 26  2  0
 32 33  1  0
 33 34  1  0
 34 35  2  0
 36 35  1  0
 36 40  1  0
 37 36  2  0
 38 33  2  0
 38 37  1  0
 39 38  1  0
 41 42  1  0
 42 44  1  0
 42 45  1  0
 43 41  2  0
 46 21  1  0
 46 47  1  0
 48 46  1  0
 49 52  1  0
 49  2  1  0
 50 49  1  0
 51 50  1  0
 53 55  1  0
 53 52  1  0
 54 65  2  0
 55 60  1  0
 56 64  1  0
 56 66  1  0
 57 63  1  0
 57 59  1  0
 58 64  1  0
 59 58  1  0
 60 59  2  0
 61 62  1  0
 61 55  2  0
 62 57  2  0
 63 56  1  0
 64 54  1  0
 66 68  2  0
 67 66  1  0
 69 67  1  0
 70 79  2  0
 70 75  1  0
 71 67  1  0
 71 75  1  0
 72 71  1  0
 73 74  1  0
 73 72  1  0
 74 70  1  0
 75 76  2  0
 76 77  1  0
 78 77  2  0
 79 78  1  0
 80 54  1  0
 80 81  1  0
 80 90  1  0
 81 84  1  0
 82 86  1  0
 82 81  1  0
 83 82  2  0
 86 85  1  0
 88 86  1  0
 88 89  1  0
 88 87  1  0
 90 93  1  1
 90 91  1  0
 92 90  1  0
M  ISO  4  12 100  13 100  52 101  53 101
M  END
>  <TORSDO>  (65) 
F 21

>  <SCORE>  (65) 
-8.764

>  <name>  (65) 
64

>  <ligand_id>  (65) 
64

>  <original_smiles>  (65) 
[H]OC([H])(C([H])([H])Oc1c([H])c([H])c2c(c1[H])C([H])([H])N(C(=O)C([H])(N([H])C(=O)C([H])(N([H])C([H])([H])[H])C([H])([H])[H])C(C([H])([H])[H])(C([H])([H])[H])C([H])([H])[H])C([H])(C(=O)N([H])C1([H])c3c([H])c([H])c([H])c([H])c3C([H])([H])C([H])([H])C1([H])[H])C2([H])[H])C([H])(N([H])c1nc([H])nc(C([H])=NC(=O)N2C([H])([H])C([H])([H])C([H])([H])C([H])(n3nc(-c4c([H])c([H])c(Oc5c([H])c([H])c(F)c([H])c5F)c([H])c4[H])c(C(=O)N([H])[H])c3N([H])[H])C2([H])[H])c1[H])C([H])([H])[H]

>  <smiles>  (65) 
[H]OC([H])(C([H])([H])Oc1c([H])c([H])c2c(c1[H])C([H])([H])N(C(=O)C([H])(N([H])C(=O)C([H])(N([H])C([H])([H])[H])C([H])([H])[H])C(C([H])([H])[H])(C([H])([H])[H])C([H])([H])[H])C([H])(C(=O)N([H])C1([H])c3c([H])c([H])c([H])c([H])c3C([H])([H])C([H])([H])C1([H])[H])C2([H])[H])C([H])(N([H])c1nc([H])nc(C([H])=NC(=O)N2C([H])([H])C([H])([H])C([H])([H])C([H])(n3nc(-c4c([H])c([H])c(Oc5c([H])c([H])c(F)c([H])c5F)c([H])c4[H])c(C(=O)N([H])[H])c3N([H])[H])C2([H])[H])c1[H])C([H])([H])[H]

$$$$
65:0:0
     RDKit          3D

103111  0  0  1  0  0  0  0  0999 V2000
  -30.5530  -21.1350   20.7700 C   0  0  0  0  0  0  0  0  0  0  0  0
  -30.6570  -20.0390   21.5550 N   0  0  0  0  0  0  0  0  0  0  0  0
  -30.3600  -21.0530   19.5550 O   0  0  0  0  0  0  0  0  0  0  0  0
  -30.9190  -20.1690   22.5200 H   0  0  0  0  0  0  0  0  0  0  0  0
  -31.3740  -14.2080   21.1200 C   0  0  0  0  0  0  0  0  0  0  0  0
  -31.2010  -11.9140   20.1990 C   0  0  0  0  0  2  0  0  0  0  0  0
  -30.4780  -11.9350   18.8370 C   0  0  0  0  0  2  0  0  0  0  0  0
  -28.9500  -11.8700   19.0210 C   0  0  0  0  0  2  0  0  0  0  0  0
  -28.4350  -12.8990   20.0580 C   0  0  0  0  0  3  0  0  0  0  0  0
  -29.2710  -12.8270   21.3560 C   0  0  0  0  0  2  0  0  0  0  0  0
  -30.6940  -13.0290   21.0170 N   0  0  0  0  0  0  0  0  0  0  0  0
  -32.5000  -14.3760   20.6420 O   0  0  0  0  0  0  0  0  0  0  0  0
  -29.0620  -18.4110   20.6380 C   0  0  0  0  0  0  0  0  0  0  0  0
  -30.2860  -18.7080   21.2110 C   0  0  0  0  0  0  0  0  0  0  0  0
  -30.3910  -16.4340   21.3350 C   0  0  0  0  0  0  0  0  0  0  0  0
  -31.0130  -17.5820   21.6540 N   0  0  0  0  0  0  0  0  0  0  0  0
  -30.7590  -15.1590   21.8430 N   0  0  0  0  0  0  0  0  0  0  0  0
  -28.8710  -16.6800   20.4990 S   0  0  0  0  0  0  0  0  0  0  0  0
  -30.0110  -14.7410   22.3730 H   0  0  0  0  0  0  0  0  0  0  0  0
  -25.9800  -13.6580   20.2780 C   0  0  0  0  0  0  0  0  0  0  0  0
  -24.8290  -12.9710   20.5440 C   0  0  0  0  0  0  0  0  0  0  0  0
  -25.2200  -11.6120   20.7310 C   0  0  0  0  0  0  0  0  0  0  0  0
  -27.0070  -12.7260   20.3220 N   0  0  0  0  0  0  0  0  0  0  0  0
  -26.5410  -11.4940   20.6490 N   0  0  0  0  0  0  0  0  0  0  0  0
  -24.4080  -10.4050   20.9230 C   0  0  0  0  0  0  0  0  0  0  0  0
  -24.7660   -9.4190   21.8670 C   0  0  0  0  0  3  0  0  0  0  0  0
  -23.9580   -8.2760   22.0470 C   0  0  0  0  0  3  0  0  0  0  0  0
  -22.7780   -8.1130   21.2830 C   0  0  0  0  0  0  0  0  0  0  0  0
  -22.4390   -9.0880   20.3280 C   0  0  0  0  0  3  0  0  0  0  0  0
  -23.2480  -10.2220   20.1460 C   0  0  0  0  0  3  0  0  0  0  0  0
  -21.9470   -7.0230   21.3720 O   0  0  0  0  0  0  0  0  0  0  0  0
  -21.8550   -6.2810   22.5220 C   0  0  0  0  0  0  0  0  0  0  0  0
  -21.4860   -6.8620   23.7550 C   0  0  0  0  0  3  0  0  0  0  0  0
  -21.3360   -6.0520   24.8980 C   0  0  0  0  0  3  0  0  0  0  0  0
  -21.5420   -4.6620   24.8080 C   0  0  0  0  0  0  0  0  0  0  0  0
  -21.9050   -4.0820   23.5800 C   0  0  0  0  0  3  0  0  0  0  0  0
  -22.0580   -4.8890   22.4400 C   0  0  0  0  0  0  0  0  0  0  0  0
  -22.3870   -4.3230   21.2540 F   0  0  0  0  0  0  0  0  0  0  0  0
  -21.3900   -3.8800   25.9030 F   0  0  0  0  0  0  0  0  0  0  0  0
  -23.4340  -13.5280   20.5320 C   0  0  0  0  0  0  0  0  0  0  0  0
  -22.5520  -12.9920   21.3670 N   0  0  0  0  0  0  0  0  0  0  0  0
  -23.1300  -14.4780   19.8100 O   0  0  0  0  0  0  0  0  0  0  0  0
  -22.8050  -12.2250   21.9740 H   0  0  0  0  0  0  0  0  0  0  0  0
  -21.6100  -13.3530   21.4030 H   0  0  0  0  0  0  0  0  0  0  0  0
  -26.2250  -14.9890   19.9810 N   0  0  0  0  0  0  0  0  0  0  0  0
  -25.4770  -15.6670   19.8970 H   0  0  0  0  0  0  0  0  0  0  0  0
  -27.1360  -15.3700   19.7560 H   0  0  0  0  0  0  0  0  0  0  0  0
  -26.5730  -18.7580   20.7820 C   0  0  0  0  0  1  0  0  0  0  0  0
  -27.9140  -19.3360   20.2900 C   0  0  0  0  0  3  0  0  0  0  0  0
  -29.2560  -19.8790   18.1480 C   0  0  0  0  0  1  0  0  0  0  0  0
  -27.3950  -21.3740   18.8730 C   0  0  0  0  0  1  0  0  0  0  0  0
  -26.9000  -19.1240   17.9170 C   0  0  0  0  0  1  0  0  0  0  0  0
  -27.8710  -19.9060   18.8260 C   0  0  2  0  0  0  0  0  0  0  0  0
  -30.7620  -22.5250   21.4310 C   0  0  0  0  0  3  0  0  0  0  0  0
  -31.9780  -22.4970   22.2670 N   0  0  0  0  0  4  0  0  0  0  0  0
  -31.9030  -21.8220   23.0060 H   0  0  0  0  0  0  0  0  0  0  0  0
  -32.1420  -23.3930   22.6900 H   0  0  0  0  0  0  0  0  0  0  0  0
  -32.7750  -22.2570   21.7030 H   0  0  0  0  0  0  0  0  0  0  0  0
  -30.8290  -23.7390   20.4410 C   0  0  0  0  0  2  0  0  0  0  0  0
  -29.6260  -24.3870   18.2960 C   0  0  0  0  0  1  0  0  0  0  0  0
  -29.4980  -24.2970   19.8310 C   0  0  0  0  0  3  0  0  0  0  0  0
  -29.0230  -25.6560   20.4520 C   0  0  0  0  0  2  0  0  0  0  0  0
  -28.6790  -26.6330   19.4580 O   0  0  0  0  0  0  0  0  0  0  0  0
  -25.0520  -31.4700   23.2740 C   0  0  0  0  0  0  0  0  0  0  0  0
  -27.5210  -27.3490   19.6590 C   0  0  0  0  0  0  0  0  0  0  0  0
  -23.7700  -30.2770   21.5260 C   0  0  0  0  0  3  0  0  0  0  0  0
  -25.1530  -28.8750   19.9030 C   0  0  0  0  0  0  0  0  0  0  0  0
  -26.2950  -30.6120   21.2920 C   0  0  0  0  0  2  0  0  0  0  0  0
  -26.3360  -29.3140   20.5120 C   0  0  0  0  0  0  0  0  0  0  0  0
  -27.5250  -28.5590   20.3890 C   0  0  0  0  0  3  0  0  0  0  0  0
  -26.3260  -26.9170   19.0490 C   0  0  0  0  0  3  0  0  0  0  0  0
  -25.1420  -27.6730   19.1700 C   0  0  0  0  0  3  0  0  0  0  0  0
  -23.9280  -29.7460   20.0760 C   0  0  0  0  0  2  0  0  0  0  0  0
  -25.0580  -30.7950   22.0900 N   0  0  0  0  0  0  0  0  0  0  0  0
  -23.9920  -31.7010   23.8740 O   0  0  0  0  0  0  0  0  0  0  0  0
  -23.1260  -29.1690   22.3900 C   0  0  0  0  0  0  0  0  0  0  0  0
  -21.8030  -28.9930   22.2490 N   0  0  0  0  0  0  0  0  0  0  0  0
  -23.8160  -28.4740   23.1410 O   0  0  0  0  0  0  0  0  0  0  0  0
  -21.3090  -29.6090   21.6180 H   0  0  0  0  0  0  0  0  0  0  0  0
  -18.4450  -27.7050   22.5880 C   0  0  0  0  0  0  0  0  0  0  0  0
  -20.9920  -27.9830   22.9280 C   0  0  0  0  0  3  0  0  0  0  0  0
  -21.1310  -26.6050   22.2430 C   0  0  0  0  0  2  0  0  0  0  0  0
  -20.0540  -26.3430   21.1860 C   0  0  0  0  0  2  0  0  0  0  0  0
  -18.6580  -26.4150   21.8140 C   0  0  0  0  0  2  0  0  0  0  0  0
  -19.5410  -28.4490   23.0970 C   0  0  0  0  0  0  0  0  0  0  0  0
  -19.2900  -29.6610   23.7780 C   0  0  0  0  0  3  0  0  0  0  0  0
  -17.9740  -30.1260   23.9570 C   0  0  0  0  0  3  0  0  0  0  0  0
  -16.8910  -29.3760   23.4660 C   0  0  0  0  0  3  0  0  0  0  0  0
  -17.1270  -28.1680   22.7860 C   0  0  0  0  0  3  0  0  0  0  0  0
  -26.3690  -32.0040   23.9200 C   0  0  0  0  0  3  0  0  0  0  0  0
  -26.8720  -31.1250   25.1300 C   0  0  1  0  0  0  0  0  0  0  0  0
  -25.7890  -30.8660   26.2030 C   0  0  0  0  0  1  0  0  0  0  0  0
  -27.3810  -29.7520   24.6300 C   0  0  0  0  0  1  0  0  0  0  0  0
  -28.0730  -31.8170   25.8180 C   0  0  0  0  0  1  0  0  0  0  0  0
  -26.1230  -33.3860   24.3510 N   0  0  0  0  0  0  0  0  0  0  0  0
  -26.5070  -34.4740   23.6710 C   0  0  0  0  0  0  0  0  0  0  0  0
  -27.1790  -34.4150   22.6370 O   0  0  0  0  0  0  0  0  0  0  0  0
  -25.5320  -33.5110   25.1600 H   0  0  0  0  0  0  0  0  0  0  0  0
  -24.8710  -36.3680   23.4310 C   0  0  0  0  0  1  0  0  0  0  0  0
  -26.0780  -35.8450   24.2270 C   0  0  0  0  0  3  0  0  0  0  0  0
  -28.2330  -36.5640   25.1560 C   0  0  0  0  0  1  0  0  0  0  0  0
  -27.1610  -36.8520   24.2070 N   0  0  0  0  0  0  0  0  0  0  0  0
  -26.7970  -37.7780   24.4150 H   0  0  0  0  0  0  0  0  0  0  0  0
  1 54  1  0
  1  2  1  0
  2  4  1  0
  3  1  2  0
  5 17  1  0
  6 11  1  0
  7  8  1  0
  7  6  1  0
  9  8  1  0
  9 23  1  0
  9 10  1  0
 11  5  1  0
 11 10  1  0
 12  5  2  0
 13 14  2  0
 14  2  1  0
 14 16  1  0
 15 16  2  0
 15 17  1  0
 17 19  1  0
 18 13  1  0
 18 15  1  0
 20 23  1  0
 20 21  2  0
 21 22  1  0
 22 25  1  0
 23 24  1  0
 24 22  2  0
 25 26  1  0
 26 27  2  0
 28 31  1  0
 28 27  1  0
 29 28  2  0
 30 29  1  0
 30 25  2  0
 31 32  1  0
 32 33  1  0
 33 34  2  0
 35 34  1  0
 35 39  1  0
 36 35  2  0
 37 32  2  0
 37 36  1  0
 38 37  1  0
 40 21  1  0
 40 41  1  0
 41 44  1  0
 41 43  1  0
 42 40  2  0
 45 20  1  0
 46 45  1  0
 47 45  1  0
 49 13  1  0
 49 48  1  0
 53 50  1  6
 52 53  1  0
 53 51  1  0
 53 49  1  0
 54 59  1  0
 54 55  1  0
 55 57  1  0
 55 56  1  0
 58 55  1  0
 61 60  1  0
 61 59  1  0
 61 62  1  0
 63 65  1  0
 63 62  1  0
 64 75  2  0
 65 70  1  0
 66 74  1  0
 66 76  1  0
 67 73  1  0
 67 69  1  0
 68 74  1  0
 69 68  1  0
 70 69  2  0
 71 72  1  0
 71 65  2  0
 72 67  2  0
 73 66  1  0
 74 64  1  0
 76 78  2  0
 77 76  1  0
 79 77  1  0
 80 89  2  0
 80 85  1  0
 81 77  1  0
 81 85  1  0
 82 81  1  0
 83 84  1  0
 83 82  1  0
 84 80  1  0
 85 86  2  0
 86 87  1  0
 88 87  2  0
 89 88  1  0
 90 64  1  0
 90 95  1  0
 90 91  1  0
 91 94  1  1
 91 92  1  0
 93 91  1  0
 95 98  1  0
 96100  1  0
 96 95  1  0
 97 96  2  0
100 99  1  0
102100  1  0
102103  1  0
102101  1  0
M  ISO  4   5 100  17 100  62 101  63 101
M  END
>  <TORSDO>  (66) 
F 23

>  <SCORE>  (66) 
-9.637

>  <name>  (66) 
65

>  <ligand_id>  (66) 
65

>  <original_smiles>  (66) 
[H]c1c([H])c([H])c2c(c1[H])C([H])([H])C([H])([H])C([H])([H])C2([H])N([H])C(=O)C1([H])N(C(=O)C([H])(N([H])C(=O)C([H])(N([H])C([H])([H])[H])C([H])([H])[H])C(C([H])([H])[H])(C([H])([H])[H])C([H])([H])[H])C([H])([H])c2c([H])c(OC([H])([H])C([H])(C([H])([H])[H])C([H])([H])C([H])(C(=O)N([H])c3nc(N([H])C(=O)N4C([H])([H])C([H])([H])C([H])([H])C([H])(n5nc(-c6c([H])c([H])c(Oc7c([H])c([H])c(F)c([H])c7F)c([H])c6[H])c(C(=O)N([H])[H])c5N([H])[H])C4([H])[H])sc3C([H])(C([H])([H])[H])C(C([H])([H])[H])(C([H])([H])[H])C([H])([H])[H])[N+]([H])([H])[H])c([H])c([H])c2C1([H])[H]

>  <smiles>  (66) 
[H]c1c([H])c([H])c2c(c1[H])C([H])([H])C([H])([H])C([H])([H])C2([H])N([H])C(=O)C1([H])N(C(=O)C([H])(N([H])C(=O)C([H])(N([H])C([H])([H])[H])C([H])([H])[H])C(C([H])([H])[H])(C([H])([H])[H])C([H])([H])[H])C([H])([H])c2c([H])c(OC([H])([H])C([H])(C([H])([H])[H])C([H])([H])C([H])(C(=O)N([H])c3nc(N([H])C(=O)N4C([H])([H])C([H])([H])C([H])([H])C([H])(n5nc(-c6c([H])c([H])c(Oc7c([H])c([H])c(F)c([H])c7F)c([H])c6[H])c(C(=O)N([H])[H])c5N([H])[H])C4([H])[H])sc3C([H])(C([H])([H])[H])C(C([H])([H])[H])(C([H])([H])[H])C([H])([H])[H])[N+]([H])([H])[H])c([H])c([H])c2C1([H])[H]

$$$$
66:0:0
     RDKit          3D

 96104  0  0  1  0  0  0  0  0999 V2000
  -28.9620  -20.8620   19.4670 C   0  0  0  0  0  3  0  0  0  0  0  0
  -31.1390  -14.8720   19.4790 C   0  0  0  0  0  0  0  0  0  0  0  0
  -30.8660  -12.5490   18.6070 C   0  0  0  0  0  2  0  0  0  0  0  0
  -29.8420  -12.5810   17.4430 C   0  0  0  0  0  2  0  0  0  0  0  0
  -28.4130  -12.3980   17.9870 C   0  0  0  0  0  2  0  0  0  0  0  0
  -28.1250  -13.3310   19.1870 C   0  0  0  0  0  3  0  0  0  0  0  0
  -29.2590  -13.2620   20.2270 C   0  0  0  0  0  2  0  0  0  0  0  0
  -30.5180  -13.6350   19.5690 N   0  0  0  0  0  0  0  0  0  0  0  0
  -32.2460  -14.9240   18.9200 O   0  0  0  0  0  0  0  0  0  0  0  0
  -30.0340  -18.4010   19.6220 C   0  0  0  0  0  0  0  0  0  0  0  0
  -29.7930  -16.6830   20.8260 C   0  0  0  0  0  3  0  0  0  0  0  0
  -29.3350  -17.9460   20.7050 N   0  0  0  0  0  0  0  0  0  0  0  0
  -30.7750  -17.4330   19.0410 N   0  0  0  0  0  2  0  0  0  0  0  0
  -30.5370  -16.2600   19.7720 N   0  0  0  0  0  0  0  0  0  0  0  0
  -29.6680  -16.0320   22.0360 N   0  0  0  0  0  0  0  0  0  0  0  0
  -30.0380  -19.8130   19.2290 N   0  0  0  0  0  0  0  0  0  0  0  0
  -29.3610  -16.5980   22.8230 H   0  0  0  0  0  0  0  0  0  0  0  0
  -30.4590  -15.4650   22.3060 H   0  0  0  0  0  0  0  0  0  0  0  0
  -30.8690  -20.0760   18.6420 H   0  0  0  0  0  0  0  0  0  0  0  0
  -25.8760  -13.9590   20.2250 C   0  0  0  0  0  0  0  0  0  0  0  0
  -24.8210  -13.1970   20.6550 C   0  0  0  0  0  0  0  0  0  0  0  0
  -25.2130  -11.8390   20.4650 C   0  0  0  0  0  0  0  0  0  0  0  0
  -26.8360  -13.0600   19.7960 N   0  0  0  0  0  0  0  0  0  0  0  0
  -26.4560  -11.7740   20.0120 N   0  0  0  0  0  0  0  0  0  0  0  0
  -24.4550  -10.5930   20.6440 C   0  0  0  0  0  0  0  0  0  0  0  0
  -24.8300   -9.6280   21.6070 C   0  0  0  0  0  3  0  0  0  0  0  0
  -24.0740   -8.4480   21.7670 C   0  0  0  0  0  3  0  0  0  0  0  0
  -22.9290   -8.2240   20.9670 C   0  0  0  0  0  0  0  0  0  0  0  0
  -22.5720   -9.1770   19.9970 C   0  0  0  0  0  3  0  0  0  0  0  0
  -23.3250  -10.3510   19.8350 C   0  0  0  0  0  3  0  0  0  0  0  0
  -22.1480   -7.0990   21.0410 O   0  0  0  0  0  0  0  0  0  0  0  0
  -21.8620   -6.4950   22.2390 C   0  0  0  0  0  0  0  0  0  0  0  0
  -21.1930   -7.1770   23.2760 C   0  0  0  0  0  3  0  0  0  0  0  0
  -20.8630   -6.4940   24.4700 C   0  0  0  0  0  3  0  0  0  0  0  0
  -21.1880   -5.1360   24.6150 C   0  0  0  0  0  0  0  0  0  0  0  0
  -21.8520   -4.4540   23.5800 C   0  0  0  0  0  3  0  0  0  0  0  0
  -22.1870   -5.1290   22.3980 C   0  0  0  0  0  0  0  0  0  0  0  0
  -22.8060   -4.4620   21.3930 F   0  0  0  0  0  0  0  0  0  0  0  0
  -20.8640   -4.4800   25.7570 F   0  0  0  0  0  0  0  0  0  0  0  0
  -23.4870  -13.7050   21.1140 C   0  0  0  0  0  0  0  0  0  0  0  0
  -22.8510  -12.9920   22.0400 N   0  0  0  0  0  0  0  0  0  0  0  0
  -23.0250  -14.7650   20.6980 O   0  0  0  0  0  0  0  0  0  0  0  0
  -23.2400  -12.1340   22.3990 H   0  0  0  0  0  0  0  0  0  0  0  0
  -21.9540  -13.3100   22.3910 H   0  0  0  0  0  0  0  0  0  0  0  0
  -26.0850  -15.3270   20.1250 N   0  0  0  0  0  0  0  0  0  0  0  0
  -25.3570  -16.0030   20.3550 H   0  0  0  0  0  0  0  0  0  0  0  0
  -26.9160  -15.7490   19.7370 H   0  0  0  0  0  0  0  0  0  0  0  0
  -27.7220  -20.6190   18.5130 C   0  0  0  0  0  0  0  0  0  0  0  0
  -26.3070  -20.2910   19.0620 C   0  0  0  0  0  1  0  0  0  0  0  0
  -27.8300  -20.7150   17.2850 O   0  0  0  0  0  0  0  0  0  0  0  0
  -29.4490  -22.4410   19.4210 C   0  0  0  0  0  2  0  0  0  0  0  0
  -27.2190  -23.7520   19.0810 C   0  0  0  0  0  1  0  0  0  0  0  0
  -28.2500  -23.5560   21.3640 C   0  0  0  0  0  1  0  0  0  0  0  0
  -28.5470  -23.7410   19.8750 C   0  0  1  0  0  0  0  0  0  0  0  0
  -29.2120  -25.2170   19.6240 C   0  0  0  0  0  2  0  0  0  0  0  0
  -28.8860  -26.5080   20.3190 O   0  0  0  0  0  0  0  0  0  0  0  0
  -24.7040  -31.6420   23.1980 C   0  0  0  0  0  0  0  0  0  0  0  0
  -27.7420  -27.3100   20.1500 C   0  0  0  0  0  0  0  0  0  0  0  0
  -23.6890  -30.2570   21.4180 C   0  0  0  0  0  3  0  0  0  0  0  0
  -25.3130  -28.8280   20.0390 C   0  0  0  0  0  0  0  0  0  0  0  0
  -26.2230  -30.6800   21.4510 C   0  0  0  0  0  2  0  0  0  0  0  0
  -26.4070  -29.3330   20.7480 C   0  0  0  0  0  0  0  0  0  0  0  0
  -27.6200  -28.5780   20.8070 C   0  0  0  0  0  3  0  0  0  0  0  0
  -26.6320  -26.8780   19.3990 C   0  0  0  0  0  3  0  0  0  0  0  0
  -25.4210  -27.6000   19.3660 C   0  0  0  0  0  3  0  0  0  0  0  0
  -24.0300  -29.6310   20.0380 C   0  0  0  0  0  2  0  0  0  0  0  0
  -24.8840  -30.8770   22.0770 N   0  0  0  0  0  0  0  0  0  0  0  0
  -23.5670  -31.8500   23.6490 O   0  0  0  0  0  0  0  0  0  0  0  0
  -23.0040  -29.1790   22.2890 C   0  0  0  0  0  0  0  0  0  0  0  0
  -21.7000  -28.9570   22.0640 N   0  0  0  0  0  0  0  0  0  0  0  0
  -23.6550  -28.5460   23.1270 O   0  0  0  0  0  0  0  0  0  0  0  0
  -21.2340  -29.5140   21.3620 H   0  0  0  0  0  0  0  0  0  0  0  0
  -18.3310  -27.6670   22.3350 C   0  0  0  0  0  0  0  0  0  0  0  0
  -20.8700  -27.9560   22.7360 C   0  0  0  0  0  3  0  0  0  0  0  0
  -21.0290  -26.5680   22.0720 C   0  0  0  0  0  2  0  0  0  0  0  0
  -19.9810  -26.2910   20.9890 C   0  0  0  0  0  2  0  0  0  0  0  0
  -18.5690  -26.3720   21.5770 C   0  0  0  0  0  2  0  0  0  0  0  0
  -19.4150  -28.4200   22.8640 C   0  0  0  0  0  0  0  0  0  0  0  0
  -19.1410  -29.6360   23.5270 C   0  0  0  0  0  3  0  0  0  0  0  0
  -17.8240  -30.1060   23.6570 C   0  0  0  0  0  3  0  0  0  0  0  0
  -16.7540  -29.3450   23.1590 C   0  0  0  0  0  3  0  0  0  0  0  0
  -17.0060  -28.1290   22.5020 C   0  0  0  0  0  3  0  0  0  0  0  0
  -25.9050  -32.3040   23.9370 C   0  0  0  0  0  3  0  0  0  0  0  0
  -26.3400  -31.5290   25.2440 C   0  0  1  0  0  0  0  0  0  0  0  0
  -25.1610  -31.2040   26.1980 C   0  0  0  0  0  1  0  0  0  0  0  0
  -27.0470  -30.2010   24.8950 C   0  0  0  0  0  1  0  0  0  0  0  0
  -27.3760  -32.3710   26.0240 C   0  0  0  0  0  1  0  0  0  0  0  0
  -25.5180  -33.6830   24.2610 N   0  0  0  0  0  0  0  0  0  0  0  0
  -25.8710  -34.7620   23.5460 C   0  0  0  0  0  0  0  0  0  0  0  0
  -26.6170  -34.6990   22.5660 O   0  0  0  0  0  0  0  0  0  0  0  0
  -24.8440  -33.7930   25.0060 H   0  0  0  0  0  0  0  0  0  0  0  0
  -24.1070  -36.4940   23.1120 C   0  0  0  0  0  1  0  0  0  0  0  0
  -25.3120  -36.1230   23.9910 C   0  0  0  0  0  3  0  0  0  0  0  0
  -27.3560  -37.0730   24.9690 C   0  0  0  0  0  1  0  0  0  0  0  0
  -26.3150  -37.2110   23.9530 N   0  0  0  0  0  0  0  0  0  0  0  0
  -25.8700  -38.1180   24.0710 H   0  0  0  0  0  0  0  0  0  0  0  0
  1 51  1  0
  2  8  1  0
  2 14  1  0
  3  8  1  0
  4  5  1  0
  4  3  1  0
  6  5  1  0
  6 23  1  0
  6  7  1  0
  8  7  1  0
  9  2  2  0
 10 12  2  0
 11 15  1  0
 12 11  1  0
 13 10  1  0
 13 14  1  0
 14 11  1  0
 15 18  1  0
 15 17  1  0
 16  1  1  0
 16 10  1  0
 19 16  1  0
 20 21  2  0
 21 40  1  0
 22 25  1  0
 22 21  1  0
 23 24  1  0
 23 20  1  0
 24 22  2  0
 25 26  1  0
 26 27  2  0
 28 31  1  0
 28 27  1  0
 29 28  2  0
 30 29  1  0
 30 25  2  0
 31 32  1  0
 32 37  2  0
 32 33  1  0
 33 34  2  0
 34 35  1  0
 35 39  1  0
 36 35  2  0
 37 36  1  0
 38 37  1  0
 40 41  1  0
 41 44  1  0
 41 43  1  0
 42 40  2  0
 45 20  1  0
 45 46  1  0
 47 45  1  0
 48 49  1  0
 48  1  1  0
 50 48  2  0
 51 54  1  0
 54 52  1  6
 54 53  1  0
 55 54  1  0
 55 56  1  0
 57 68  2  0
 58 56  1  0
 58 63  1  0
 59 67  1  0
 59 69  1  0
 60 62  1  0
 61 67  1  0
 62 63  2  0
 62 61  1  0
 64 58  2  0
 65 64  1  0
 65 60  2  0
 66 60  1  0
 66 59  1  0
 67 57  1  0
 69 71  2  0
 70 69  1  0
 72 70  1  0
 73 82  2  0
 73 78  1  0
 74 70  1  0
 74 78  1  0
 75 74  1  0
 76 77  1  0
 76 75  1  0
 77 73  1  0
 78 79  2  0
 79 80  1  0
 81 80  2  0
 82 81  1  0
 83 57  1  0
 83 88  1  0
 83 84  1  0
 84 87  1  1
 84 85  1  0
 86 84  1  0
 88 91  1  0
 89 93  1  0
 89 88  1  0
 90 89  2  0
 93 92  1  0
 95 93  1  0
 95 96  1  0
 95 94  1  0
M  ISO  4   2 100  14 100  55 101  56 101
M  END
>  <TORSDO>  (67) 
F 20

>  <SCORE>  (67) 
-11.687

>  <name>  (67) 
66

>  <ligand_id>  (67) 
66

>  <original_smiles>  (67) 
[H]c1c([H])c([H])c2c(c1[H])C([H])([H])C([H])([H])C([H])([H])C2([H])N([H])C(=O)C1([H])N(C(=O)C([H])(N([H])C(=O)C([H])(N([H])C([H])([H])[H])C([H])([H])[H])C(C([H])([H])[H])(C([H])([H])[H])C([H])([H])[H])C([H])([H])c2c([H])c(OC([H])([H])C(C([H])([H])[H])(C([H])([H])[H])C([H])([H])C([H])(C(=O)C([H])([H])[H])N([H])c3nc(N([H])[H])n(C(=O)N4C([H])([H])C([H])([H])C([H])([H])C([H])(n5nc(-c6c([H])c([H])c(Oc7c([H])c([H])c(F)c([H])c7F)c([H])c6[H])c(C(=O)N([H])[H])c5N([H])[H])C4([H])[H])n3)c([H])c([H])c2C1([H])[H]

>  <smiles>  (67) 
[H]c1c([H])c([H])c2c(c1[H])C([H])([H])C([H])([H])C([H])([H])C2([H])N([H])C(=O)C1([H])N(C(=O)C([H])(N([H])C(=O)C([H])(N([H])C([H])([H])[H])C([H])([H])[H])C(C([H])([H])[H])(C([H])([H])[H])C([H])([H])[H])C([H])([H])c2c([H])c(OC([H])([H])C(C([H])([H])[H])(C([H])([H])[H])C([H])([H])C([H])(C(=O)C([H])([H])[H])N([H])c3nc(N([H])[H])n(C(=O)N4C([H])([H])C([H])([H])C([H])([H])C([H])(n5nc(-c6c([H])c([H])c(Oc7c([H])c([H])c(F)c([H])c7F)c([H])c6[H])c(C(=O)N([H])[H])c5N([H])[H])C4([H])[H])n3)c([H])c([H])c2C1([H])[H]

$$$$
67:0:0
     RDKit          3D

 93101  0  0  1  0  0  0  0  0999 V2000
  -29.4420  -22.1490   20.2240 C   0  0  0  0  0  0  0  0  0  0  0  0
  -29.6450  -20.8640   19.8770 N   0  0  0  0  0  0  0  0  0  0  0  0
  -29.6640  -22.5940   21.3520 O   0  0  0  0  0  0  0  0  0  0  0  0
  -29.5050  -20.6520   18.8980 H   0  0  0  0  0  0  0  0  0  0  0  0
  -30.6190  -18.4570   22.4740 C   0  0  0  0  0  3  0  0  0  0  0  0
  -30.1160  -19.7130   22.0210 C   0  0  0  0  0  3  0  0  0  0  0  0
  -30.9470  -17.6020   21.4560 C   0  0  0  0  0  0  0  0  0  0  0  0
  -30.0610  -19.8260   20.6510 C   0  0  0  0  0  0  0  0  0  0  0  0
  -30.6020  -18.3340   19.9080 S   0  0  0  0  0  0  0  0  0  0  0  0
  -31.5950  -16.2520   21.5800 C   0  0  0  0  0  2  0  0  0  0  0  0
  -31.1540  -14.3380   20.0410 C   0  0  0  0  0  0  0  0  0  0  0  0
  -30.6560  -12.2590   18.8040 C   0  0  0  0  0  2  0  0  0  0  0  0
  -29.6660  -12.5020   17.6490 C   0  0  0  0  0  2  0  0  0  0  0  0
  -28.2130  -12.4060   18.1520 C   0  0  0  0  0  2  0  0  0  0  0  0
  -27.9670  -13.2620   19.4220 C   0  0  0  0  0  3  0  0  0  0  0  0
  -29.0580  -12.9970   20.4840 C   0  0  0  0  0  2  0  0  0  0  0  0
  -30.3760  -13.2360   19.8670 N   0  0  0  0  0  0  0  0  0  0  0  0
  -32.1550  -14.5680   19.3570 O   0  0  0  0  0  0  0  0  0  0  0  0
  -30.7960  -15.1460   21.0490 N   0  0  0  0  0  0  0  0  0  0  0  0
  -29.9680  -14.8890   21.5640 H   0  0  0  0  0  0  0  0  0  0  0  0
  -25.6280  -13.9630   20.2380 C   0  0  0  0  0  0  0  0  0  0  0  0
  -24.5470  -13.2320   20.6540 C   0  0  0  0  0  0  0  0  0  0  0  0
  -24.9520  -11.8630   20.5990 C   0  0  0  0  0  0  0  0  0  0  0  0
  -26.6260  -13.0420   19.9610 N   0  0  0  0  0  0  0  0  0  0  0  0
  -26.2250  -11.7740   20.2330 N   0  0  0  0  0  0  0  0  0  0  0  0
  -24.1870  -10.6290   20.8190 C   0  0  0  0  0  0  0  0  0  0  0  0
  -24.5910   -9.6690   21.7730 C   0  0  0  0  0  3  0  0  0  0  0  0
  -23.8270   -8.5000   21.9800 C   0  0  0  0  0  3  0  0  0  0  0  0
  -22.6450   -8.2830   21.2330 C   0  0  0  0  0  0  0  0  0  0  0  0
  -22.2590   -9.2310   20.2680 C   0  0  0  0  0  3  0  0  0  0  0  0
  -23.0230  -10.3910   20.0600 C   0  0  0  0  0  3  0  0  0  0  0  0
  -21.8550   -7.1650   21.3480 O   0  0  0  0  0  0  0  0  0  0  0  0
  -21.7430   -6.4820   22.5320 C   0  0  0  0  0  0  0  0  0  0  0  0
  -21.2850   -7.1060   23.7130 C   0  0  0  0  0  3  0  0  0  0  0  0
  -21.1180   -6.3500   24.8900 C   0  0  0  0  0  3  0  0  0  0  0  0
  -21.4000   -4.9700   24.8870 C   0  0  0  0  0  0  0  0  0  0  0  0
  -21.8500   -4.3450   23.7100 C   0  0  0  0  0  3  0  0  0  0  0  0
  -22.0180   -5.0990   22.5360 C   0  0  0  0  0  0  0  0  0  0  0  0
  -22.4310   -4.4880   21.3990 F   0  0  0  0  0  0  0  0  0  0  0  0
  -21.2320   -4.2410   26.0150 F   0  0  0  0  0  0  0  0  0  0  0  0
  -23.1840  -13.7630   20.9920 C   0  0  0  0  0  0  0  0  0  0  0  0
  -22.4740  -13.0990   21.8990 N   0  0  0  0  0  0  0  0  0  0  0  0
  -22.7580  -14.8010   20.4870 O   0  0  0  0  0  0  0  0  0  0  0  0
  -22.8330  -12.2600   22.3300 H   0  0  0  0  0  0  0  0  0  0  0  0
  -21.5610  -13.4360   22.1670 H   0  0  0  0  0  0  0  0  0  0  0  0
  -25.8400  -15.3250   20.0560 N   0  0  0  0  0  0  0  0  0  0  0  0
  -25.1100  -16.0150   20.2060 H   0  0  0  0  0  0  0  0  0  0  0  0
  -26.7020  -15.7290   19.7120 H   0  0  0  0  0  0  0  0  0  0  0  0
  -28.9110  -23.0610   19.1050 C   0  0  0  0  0  2  0  0  0  0  0  0
  -28.9600  -25.2410   17.8410 C   0  0  0  0  0  1  0  0  0  0  0  0
  -29.1810  -24.5910   19.2220 C   0  0  0  0  0  3  0  0  0  0  0  0
  -28.3270  -25.2950   20.3050 C   0  0  0  0  0  2  0  0  0  0  0  0
  -28.3910  -26.7260   20.1830 O   0  0  0  0  0  0  0  0  0  0  0  0
  -24.5790  -31.8940   23.2290 C   0  0  0  0  0  0  0  0  0  0  0  0
  -27.2070  -27.4330   20.1690 C   0  0  0  0  0  0  0  0  0  0  0  0
  -23.3650  -30.4860   21.5970 C   0  0  0  0  0  3  0  0  0  0  0  0
  -24.8110  -28.9400   20.1770 C   0  0  0  0  0  0  0  0  0  0  0  0
  -25.8890  -30.8420   21.3880 C   0  0  0  0  0  2  0  0  0  0  0  0
  -25.9700  -29.4660   20.7590 C   0  0  0  0  0  0  0  0  0  0  0  0
  -27.1700  -28.7200   20.7510 C   0  0  0  0  0  3  0  0  0  0  0  0
  -26.0310  -26.9280   19.5640 C   0  0  0  0  0  3  0  0  0  0  0  0
  -24.8360  -27.6700   19.5760 C   0  0  0  0  0  3  0  0  0  0  0  0
  -23.5680  -29.7980   20.2220 C   0  0  0  0  0  2  0  0  0  0  0  0
  -24.6300  -31.0880   22.1300 N   0  0  0  0  0  0  0  0  0  0  0  0
  -23.5010  -32.1710   23.7720 O   0  0  0  0  0  0  0  0  0  0  0  0
  -22.7170  -29.4700   22.5650 C   0  0  0  0  0  0  0  0  0  0  0  0
  -21.3950  -29.2760   22.4300 N   0  0  0  0  0  0  0  0  0  0  0  0
  -23.4000  -28.8590   23.3910 O   0  0  0  0  0  0  0  0  0  0  0  0
  -20.9050  -29.8210   21.7350 H   0  0  0  0  0  0  0  0  0  0  0  0
  -18.0290  -28.0520   22.9040 C   0  0  0  0  0  0  0  0  0  0  0  0
  -20.5800  -28.3400   23.2050 C   0  0  0  0  0  3  0  0  0  0  0  0
  -20.7060  -26.9020   22.6510 C   0  0  0  0  0  2  0  0  0  0  0  0
  -19.6200  -26.5520   21.6290 C   0  0  0  0  0  2  0  0  0  0  0  0
  -18.2280  -26.6940   22.2530 C   0  0  0  0  0  2  0  0  0  0  0  0
  -19.1340  -28.8320   23.3380 C   0  0  0  0  0  0  0  0  0  0  0  0
  -18.8950  -30.1020   23.9040 C   0  0  0  0  0  3  0  0  0  0  0  0
  -17.5830  -30.5940   24.0440 C   0  0  0  0  0  3  0  0  0  0  0  0
  -16.4920  -29.8110   23.6290 C   0  0  0  0  0  3  0  0  0  0  0  0
  -16.7160  -28.5420   23.0640 C   0  0  0  0  0  3  0  0  0  0  0  0
  -25.8690  -32.5250   23.8410 C   0  0  0  0  0  3  0  0  0  0  0  0
  -25.5620  -33.9220   24.1760 N   0  0  0  0  0  0  0  0  0  0  0  0
  -25.8950  -34.9760   23.4180 C   0  0  0  0  0  0  0  0  0  0  0  0
  -26.5670  -34.8740   22.3880 O   0  0  0  0  0  0  0  0  0  0  0  0
  -24.9680  -34.0750   24.9770 H   0  0  0  0  0  0  0  0  0  0  0  0
  -24.1740  -36.7730   23.0550 C   0  0  0  0  0  1  0  0  0  0  0  0
  -25.4070  -36.3630   23.8780 C   0  0  0  0  0  3  0  0  0  0  0  0
  -27.5350  -37.2390   24.7310 C   0  0  0  0  0  1  0  0  0  0  0  0
  -26.4430  -37.4150   23.7790 N   0  0  0  0  0  0  0  0  0  0  0  0
  -26.0370  -38.3350   23.9250 H   0  0  0  0  0  0  0  0  0  0  0  0
  -26.3990  -31.7500   25.1090 C   0  0  1  0  0  0  0  0  0  0  0  0
  -25.3160  -31.5050   26.1840 C   0  0  0  0  0  1  0  0  0  0  0  0
  -26.9830  -30.3760   24.7040 C   0  0  0  0  0  1  0  0  0  0  0  0
  -27.5520  -32.5440   25.7650 C   0  0  0  0  0  1  0  0  0  0  0  0
  1  3  2  0
  2  1  1  0
  2  8  1  0
  4  2  1  0
  6  5  1  0
  7 10  1  0
  7  5  2  0
  8  6  2  0
  9  8  1  0
  9  7  1  0
 11 19  1  0
 12 17  1  0
 13 14  1  0
 13 12  1  0
 15 14  1  0
 15 24  1  0
 15 16  1  0
 17 11  1  0
 17 16  1  0
 18 11  2  0
 19 20  1  0
 19 10  1  0
 21 22  2  0
 22 41  1  0
 23 22  1  0
 23 26  1  0
 24 25  1  0
 24 21  1  0
 25 23  2  0
 26 27  1  0
 27 28  2  0
 29 32  1  0
 29 28  1  0
 30 29  2  0
 31 30  1  0
 31 26  2  0
 32 33  1  0
 33 38  2  0
 33 34  1  0
 34 35  2  0
 36 35  1  0
 36 40  1  0
 37 36  2  0
 38 37  1  0
 39 38  1  0
 41 42  1  0
 42 45  1  0
 42 44  1  0
 43 41  2  0
 46 47  1  0
 46 21  1  0
 48 46  1  0
 49 51  1  0
 49  1  1  0
 51 50  1  0
 51 52  1  0
 53 52  1  0
 54 65  2  0
 55 53  1  0
 55 60  1  0
 56 64  1  0
 56 66  1  0
 57 63  1  0
 57 59  1  0
 58 64  1  0
 59 58  1  0
 60 59  2  0
 61 62  1  0
 61 55  2  0
 62 57  2  0
 63 56  1  0
 64 54  1  0
 66 68  2  0
 67 66  1  0
 69 67  1  0
 70 79  2  0
 70 75  1  0
 71 67  1  0
 71 75  1  0
 72 71  1  0
 73 74  1  0
 73 72  1  0
 74 70  1  0
 75 76  2  0
 76 77  1  0
 78 77  2  0
 79 78  1  0
 80 54  1  0
 80 81  1  0
 80 90  1  0
 81 84  1  0
 82 86  1  0
 82 81  1  0
 83 82  2  0
 86 85  1  0
 88 86  1  0
 88 89  1  0
 88 87  1  0
 90 93  1  1
 90 91  1  0
 92 90  1  0
M  ISO  4  11 100  19 100  52 101  53 101
M  END
>  <TORSDO>  (68) 
F 21

>  <SCORE>  (68) 
-12.522

>  <name>  (68) 
67

>  <ligand_id>  (68) 
67

>  <original_smiles>  (68) 
[H]c1c(N([H])C(=O)C([H])([H])C([H])(C([H])([H])[H])C([H])([H])Oc2c([H])c([H])c3c(c2[H])C([H])([H])N(C(=O)C([H])(N([H])C(=O)C([H])(N([H])C([H])([H])[H])C([H])([H])[H])C(C([H])([H])[H])(C([H])([H])[H])C([H])([H])[H])C([H])(C(=O)N([H])C2([H])c4c([H])c([H])c([H])c([H])c4C([H])([H])C([H])([H])C2([H])[H])C3([H])[H])sc(C([H])([H])N([H])C(=O)N2C([H])([H])C([H])([H])C([H])([H])C([H])(n3nc(-c4c([H])c([H])c(Oc5c([H])c([H])c(F)c([H])c5F)c([H])c4[H])c(C(=O)N([H])[H])c3N([H])[H])C2([H])[H])c1[H]

>  <smiles>  (68) 
[H]c1c(N([H])C(=O)C([H])([H])C([H])(C([H])([H])[H])C([H])([H])Oc2c([H])c([H])c3c(c2[H])C([H])([H])N(C(=O)C([H])(N([H])C(=O)C([H])(N([H])C([H])([H])[H])C([H])([H])[H])C(C([H])([H])[H])(C([H])([H])[H])C([H])([H])[H])C([H])(C(=O)N([H])C2([H])c4c([H])c([H])c([H])c([H])c4C([H])([H])C([H])([H])C2([H])[H])C3([H])[H])sc(C([H])([H])N([H])C(=O)N2C([H])([H])C([H])([H])C([H])([H])C([H])(n3nc(-c4c([H])c([H])c(Oc5c([H])c([H])c(F)c([H])c5F)c([H])c4[H])c(C(=O)N([H])[H])c3N([H])[H])C2([H])[H])c1[H]

$$$$
68:0:0
     RDKit          3D

 98106  0  0  1  0  0  0  0  0999 V2000
  -28.2340  -18.5380   20.7610 C   0  0  0  0  0  3  0  0  0  0  0  0
  -29.5760  -18.3870   20.9950 C   0  0  0  0  0  0  0  0  0  0  0  0
  -29.4270  -20.6960   20.8280 C   0  0  0  0  0  0  0  0  0  0  0  0
  -30.2350  -19.6420   21.0430 N   0  0  0  0  0  0  0  0  0  0  0  0
  -29.8210  -22.0460   20.8300 N   0  0  0  0  0  0  0  0  0  0  0  0
  -27.7570  -20.2090   20.5670 S   0  0  0  0  0  0  0  0  0  0  0  0
  -30.8120  -22.1580   21.0040 H   0  0  0  0  0  0  0  0  0  0  0  0
  -28.8770  -23.8090   22.3010 C   0  0  0  0  0  1  0  0  0  0  0  0
  -29.0680  -23.3190   20.8600 C   0  0  0  0  0  3  0  0  0  0  0  0
  -29.6280  -24.4310   19.9040 C   0  0  0  0  0  3  0  0  0  0  0  0
  -30.8490  -24.9760   20.3720 O   0  0  0  0  0  0  0  0  0  0  0  0
  -31.4940  -24.2780   20.3560 H   0  0  0  0  0  0  0  0  0  0  0  0
  -28.6330  -25.5730   19.4840 C   0  0  0  0  0  2  0  0  0  0  0  0
  -28.6040  -26.8420   20.2040 O   0  0  0  0  0  0  0  0  0  0  0  0
  -24.6540  -31.9930   23.2630 C   0  0  0  0  0  0  0  0  0  0  0  0
  -27.4380  -27.6110   20.1450 C   0  0  0  0  0  0  0  0  0  0  0  0
  -23.5130  -30.5940   21.5800 C   0  0  0  0  0  3  0  0  0  0  0  0
  -25.0220  -29.1250   20.1490 C   0  0  0  0  0  0  0  0  0  0  0  0
  -26.0420  -30.9960   21.4420 C   0  0  0  0  0  2  0  0  0  0  0  0
  -26.1660  -29.6360   20.7770 C   0  0  0  0  0  0  0  0  0  0  0  0
  -27.3720  -28.8820   20.7810 C   0  0  0  0  0  3  0  0  0  0  0  0
  -26.2670  -27.1560   19.4860 C   0  0  0  0  0  3  0  0  0  0  0  0
  -25.0700  -27.8860   19.5030 C   0  0  0  0  0  3  0  0  0  0  0  0
  -23.7630  -29.9570   20.1930 C   0  0  0  0  0  2  0  0  0  0  0  0
  -24.7540  -31.2100   22.1500 N   0  0  0  0  0  0  0  0  0  0  0  0
  -23.5550  -32.2290   23.7860 O   0  0  0  0  0  0  0  0  0  0  0  0
  -22.8730  -29.5340   22.5090 C   0  0  0  0  0  0  0  0  0  0  0  0
  -21.5530  -29.3350   22.3690 N   0  0  0  0  0  0  0  0  0  0  0  0
  -23.5590  -28.8960   23.3120 O   0  0  0  0  0  0  0  0  0  0  0  0
  -21.0600  -29.9030   21.6950 H   0  0  0  0  0  0  0  0  0  0  0  0
  -18.1810  -28.1150   22.8520 C   0  0  0  0  0  0  0  0  0  0  0  0
  -20.7420  -28.3670   23.1100 C   0  0  0  0  0  3  0  0  0  0  0  0
  -20.8390  -26.9600   22.4750 C   0  0  0  0  0  2  0  0  0  0  0  0
  -19.7270  -26.6750   21.4610 C   0  0  0  0  0  2  0  0  0  0  0  0
  -18.3520  -26.7930   22.1250 C   0  0  0  0  0  2  0  0  0  0  0  0
  -19.3030  -28.8620   23.2990 C   0  0  0  0  0  0  0  0  0  0  0  0
  -19.0880  -30.1040   23.9380 C   0  0  0  0  0  3  0  0  0  0  0  0
  -17.7840  -30.5950   24.1350 C   0  0  0  0  0  3  0  0  0  0  0  0
  -16.6770  -29.8430   23.7040 C   0  0  0  0  0  3  0  0  0  0  0  0
  -16.8770  -28.6060   23.0690 C   0  0  0  0  0  3  0  0  0  0  0  0
  -25.9120  -32.6470   23.9140 C   0  0  0  0  0  3  0  0  0  0  0  0
  -25.5710  -34.0420   24.2290 N   0  0  0  0  0  0  0  0  0  0  0  0
  -25.9120  -35.0960   23.4760 C   0  0  0  0  0  0  0  0  0  0  0  0
  -26.6180  -34.9990   22.4670 O   0  0  0  0  0  0  0  0  0  0  0  0
  -24.9480  -34.1890   25.0090 H   0  0  0  0  0  0  0  0  0  0  0  0
  -24.1740  -36.8650   23.0530 C   0  0  0  0  0  1  0  0  0  0  0  0
  -25.3900  -36.4790   23.9120 C   0  0  0  0  0  3  0  0  0  0  0  0
  -27.4760  -37.4000   24.8230 C   0  0  0  0  0  1  0  0  0  0  0  0
  -26.4130  -37.5440   23.8320 N   0  0  0  0  0  0  0  0  0  0  0  0
  -25.9900  -38.4610   23.9520 H   0  0  0  0  0  0  0  0  0  0  0  0
  -26.4040  -31.8860   25.2040 C   0  0  1  0  0  0  0  0  0  0  0  0
  -25.2810  -31.6280   26.2380 C   0  0  0  0  0  1  0  0  0  0  0  0
  -27.0270  -30.5220   24.8320 C   0  0  0  0  0  1  0  0  0  0  0  0
  -27.5190  -32.7030   25.8960 C   0  0  0  0  0  1  0  0  0  0  0  0
  -30.3070  -17.0650   21.2660 C   0  0  0  0  0  2  0  0  0  0  0  0
  -31.0020  -14.8470   20.5190 C   0  0  0  0  0  0  0  0  0  0  0  0
  -30.7050  -12.6180   19.5260 C   0  0  0  0  0  2  0  0  0  0  0  0
  -29.8120  -12.7250   18.2730 C   0  0  0  0  0  2  0  0  0  0  0  0
  -28.3270  -12.6010   18.6620 C   0  0  0  0  0  2  0  0  0  0  0  0
  -27.9340  -13.4970   19.8640 C   0  0  0  0  0  3  0  0  0  0  0  0
  -28.9620  -13.4280   21.0140 C   0  0  0  0  0  2  0  0  0  0  0  0
  -30.2860  -13.6910   20.4370 N   0  0  0  0  0  0  0  0  0  0  0  0
  -32.2300  -14.8430   20.4120 O   0  0  0  0  0  0  0  0  0  0  0  0
  -30.3510  -16.0100   20.2030 N   0  0  0  0  0  0  0  0  0  0  0  0
  -25.5270  -14.1400   20.4900 C   0  0  0  0  0  0  0  0  0  0  0  0
  -24.4360  -13.3770   20.8160 C   0  0  0  0  0  0  0  0  0  0  0  0
  -24.8800  -12.0220   20.7960 C   0  0  0  0  0  0  0  0  0  0  0  0
  -26.5680  -13.2410   20.3050 N   0  0  0  0  0  0  0  0  0  0  0  0
  -26.1820  -11.9650   20.5490 N   0  0  0  0  0  0  0  0  0  0  0  0
  -24.1310  -10.7660   20.9450 C   0  0  0  0  0  0  0  0  0  0  0  0
  -24.5030   -9.7970   21.9010 C   0  0  0  0  0  3  0  0  0  0  0  0
  -23.7590   -8.6060   22.0420 C   0  0  0  0  0  3  0  0  0  0  0  0
  -22.6300   -8.3740   21.2230 C   0  0  0  0  0  0  0  0  0  0  0  0
  -22.2750   -9.3310   20.2560 C   0  0  0  0  0  3  0  0  0  0  0  0
  -23.0200  -10.5150   20.1150 C   0  0  0  0  0  3  0  0  0  0  0  0
  -21.8620   -7.2360   21.2720 O   0  0  0  0  0  0  0  0  0  0  0  0
  -21.7200   -6.5140   22.4300 C   0  0  0  0  0  0  0  0  0  0  0  0
  -21.1900   -7.0870   23.6060 C   0  0  0  0  0  3  0  0  0  0  0  0
  -20.9970   -6.2900   24.7510 C   0  0  0  0  0  3  0  0  0  0  0  0
  -21.3240   -4.9200   24.7200 C   0  0  0  0  0  0  0  0  0  0  0  0
  -21.8470   -4.3470   23.5470 C   0  0  0  0  0  3  0  0  0  0  0  0
  -22.0430   -5.1420   22.4050 C   0  0  0  0  0  0  0  0  0  0  0  0
  -22.5260   -4.5810   21.2700 F   0  0  0  0  0  0  0  0  0  0  0  0
  -21.1310   -4.1520   25.8180 F   0  0  0  0  0  0  0  0  0  0  0  0
  -23.0340  -13.8710   21.0290 C   0  0  0  0  0  0  0  0  0  0  0  0
  -22.2740  -13.1840   21.8760 N   0  0  0  0  0  0  0  0  0  0  0  0
  -22.6220  -14.8920   20.4860 O   0  0  0  0  0  0  0  0  0  0  0  0
  -22.6260  -12.3570   22.3350 H   0  0  0  0  0  0  0  0  0  0  0  0
  -21.3300  -13.4900   22.0690 H   0  0  0  0  0  0  0  0  0  0  0  0
  -25.7140  -15.5050   20.3060 N   0  0  0  0  0  0  0  0  0  0  0  0
  -24.9210  -16.1390   20.2830 H   0  0  0  0  0  0  0  0  0  0  0  0
  -26.5250  -15.8690   19.8160 H   0  0  0  0  0  0  0  0  0  0  0  0
  -32.0320  -17.1570   18.6630 C   0  0  0  0  0  1  0  0  0  0  0  0
  -30.6280  -16.5060   18.8170 C   0  0  0  0  0  3  0  0  0  0  0  0
  -29.4470  -17.2850   18.1960 C   0  0  0  0  0  0  0  0  0  0  0  0
  -28.2730  -17.0640   18.4940 O   0  0  0  0  0  0  0  0  0  0  0  0
  -29.8800  -19.7500   17.6840 C   0  0  0  0  0  1  0  0  0  0  0  0
  -29.7320  -18.3300   17.1140 C   0  0  0  0  0  2  0  0  0  0  0  0
  1  2  2  0
  2  4  1  0
  2 55  1  0
  3  5  1  0
  3  4  2  0
  5  9  1  0
  5  7  1  0
  6  1  1  0
  6  3  1  0
  9  8  1  0
 10 13  1  0
 10 11  1  0
 10  9  1  0
 12 11  1  0
 13 14  1  0
 15 26  2  0
 16 14  1  0
 16 21  1  0
 17 25  1  0
 17 27  1  0
 18 24  1  0
 18 20  1  0
 19 25  1  0
 20 21  2  0
 20 19  1  0
 22 23  1  0
 22 16  2  0
 23 18  2  0
 24 17  1  0
 25 15  1  0
 27 29  2  0
 28 27  1  0
 30 28  1  0
 31 40  2  0
 31 36  1  0
 32 28  1  0
 32 36  1  0
 33 32  1  0
 34 35  1  0
 34 33  1  0
 35 31  1  0
 36 37  2  0
 37 38  1  0
 39 38  2  0
 40 39  1  0
 41 15  1  0
 41 42  1  0
 41 51  1  0
 42 45  1  0
 43 47  1  0
 43 42  1  0
 44 43  2  0
 47 46  1  0
 49 47  1  0
 49 50  1  0
 49 48  1  0
 51 54  1  1
 51 52  1  0
 53 51  1  0
 57 62  1  0
 58 59  1  0
 58 57  1  0
 60 59  1  0
 60 68  1  0
 60 61  1  0
 62 56  1  0
 62 61  1  0
 63 56  2  0
 64 56  1  0
 64 55  1  0
 65 66  2  0
 66 85  1  0
 67 66  1  0
 67 70  1  0
 68 65  1  0
 68 69  1  0
 69 67  2  0
 70 71  1  0
 71 72  2  0
 73 76  1  0
 73 72  1  0
 74 73  2  0
 75 74  1  0
 75 70  2  0
 76 77  1  0
 77 78  1  0
 78 79  2  0
 80 79  1  0
 80 84  1  0
 81 80  2  0
 82 77  2  0
 82 81  1  0
 83 82  1  0
 85 86  1  0
 86 89  1  0
 86 88  1  0
 87 85  2  0
 90 65  1  0
 91 90  1  0
 92 90  1  0
 94 93  1  0
 94 64  1  0
 95 96  2  0
 95 94  1  0
 98 97  1  0
 98 95  1  0
M  ISO  4  13 101  14 101  56 100  64 100
M  END
>  <TORSDO>  (69) 
F 24

>  <SCORE>  (69) 
-11.949

>  <name>  (69) 
68

>  <ligand_id>  (69) 
68

>  <original_smiles>  (69) 
[H]OC([H])(C([H])([H])Oc1c([H])c([H])c2c(c1[H])C([H])([H])N(C(=O)C([H])(N([H])C(=O)C([H])(N([H])C([H])([H])[H])C([H])([H])[H])C(C([H])([H])[H])(C([H])([H])[H])C([H])([H])[H])C([H])(C(=O)N([H])C1([H])c3c([H])c([H])c([H])c([H])c3C([H])([H])C([H])([H])C1([H])[H])C2([H])[H])C([H])(N([H])c1nc(C([H])([H])N(C(=O)N2C([H])([H])C([H])([H])C([H])([H])C([H])(n3nc(-c4c([H])c([H])c(Oc5c([H])c([H])c(F)c([H])c5F)c([H])c4[H])c(C(=O)N([H])[H])c3N([H])[H])C2([H])[H])C([H])(C(=O)C([H])([H])C([H])([H])[H])C([H])([H])[H])c([H])s1)C([H])([H])[H]

>  <smiles>  (69) 
[H]OC([H])(C([H])([H])Oc1c([H])c([H])c2c(c1[H])C([H])([H])N(C(=O)C([H])(N([H])C(=O)C([H])(N([H])C([H])([H])[H])C([H])([H])[H])C(C([H])([H])[H])(C([H])([H])[H])C([H])([H])[H])C([H])(C(=O)N([H])C1([H])c3c([H])c([H])c([H])c([H])c3C([H])([H])C([H])([H])C1([H])[H])C2([H])[H])C([H])(N([H])c1nc(C([H])([H])N(C(=O)N2C([H])([H])C([H])([H])C([H])([H])C([H])(n3nc(-c4c([H])c([H])c(Oc5c([H])c([H])c(F)c([H])c5F)c([H])c4[H])c(C(=O)N([H])[H])c3N([H])[H])C2([H])[H])C([H])(C(=O)C([H])([H])C([H])([H])[H])C([H])([H])[H])c([H])s1)C([H])([H])[H]

$$$$
69:0:0
     RDKit          3D

102110  0  0  1  0  0  0  0  0999 V2000
  -29.1920  -22.9770   21.3410 C   0  0  0  0  0  3  0  0  0  0  0  0
  -29.8130  -21.7550   20.6980 N   0  0  0  0  0  4  0  0  0  0  0  0
  -29.3230  -21.5260   19.8500 H   0  0  0  0  0  0  0  0  0  0  0  0
  -30.7490  -22.0590   20.4840 H   0  0  0  0  0  0  0  0  0  0  0  0
  -29.9230  -20.5240   21.5510 C   0  0  0  0  0  2  0  0  0  0  0  0
  -30.4160  -14.3390   19.5910 C   0  0  0  0  0  0  0  0  0  0  0  0
  -30.0120  -12.1900   18.4370 C   0  0  0  0  0  2  0  0  0  0  0  0
  -28.8730  -12.3810   17.4140 C   0  0  0  0  0  2  0  0  0  0  0  0
  -27.5030  -12.1550   18.0820 C   0  0  0  0  0  2  0  0  0  0  0  0
  -27.3480  -12.9410   19.4130 C   0  0  0  0  0  3  0  0  0  0  0  0
  -28.5870  -12.7500   20.3190 C   0  0  0  0  0  2  0  0  0  0  0  0
  -29.7780  -13.1340   19.5420 N   0  0  0  0  0  0  0  0  0  0  0  0
  -31.4500  -14.5460   18.9470 O   0  0  0  0  0  0  0  0  0  0  0  0
  -31.3900  -18.6070   20.3960 C   0  0  0  0  0  0  0  0  0  0  0  0
  -30.2180  -19.1690   20.9010 C   0  0  0  0  0  0  0  0  0  0  0  0
  -30.0700  -16.7150   20.3680 C   0  0  0  0  0  0  0  0  0  0  0  0
  -31.2580  -17.2430   20.0780 N   0  0  0  0  0  0  0  0  0  0  0  0
  -29.7540  -15.3210   20.2440 N   0  0  0  0  0  0  0  0  0  0  0  0
  -28.9570  -17.9330   20.9830 S   0  0  0  0  0  0  0  0  0  0  0  0
  -28.8810  -15.0380   20.6600 H   0  0  0  0  0  0  0  0  0  0  0  0
  -25.1120  -13.4170   20.5910 C   0  0  0  0  0  0  0  0  0  0  0  0
  -24.1420  -12.5860   21.0830 C   0  0  0  0  0  0  0  0  0  0  0  0
  -24.6090  -11.2550   20.8570 C   0  0  0  0  0  0  0  0  0  0  0  0
  -26.1100  -12.5880   20.1030 N   0  0  0  0  0  0  0  0  0  0  0  0
  -25.8220  -11.2790   20.3190 N   0  0  0  0  0  0  0  0  0  0  0  0
  -23.9490   -9.9600   21.0700 C   0  0  0  0  0  0  0  0  0  0  0  0
  -24.4460   -9.0230   22.0020 C   0  0  0  0  0  3  0  0  0  0  0  0
  -23.7820   -7.7920   22.2020 C   0  0  0  0  0  3  0  0  0  0  0  0
  -22.6090   -7.4920   21.4700 C   0  0  0  0  0  0  0  0  0  0  0  0
  -22.1330   -8.4190   20.5280 C   0  0  0  0  0  3  0  0  0  0  0  0
  -22.7960   -9.6400   20.3250 C   0  0  0  0  0  3  0  0  0  0  0  0
  -21.9150   -6.3110   21.5800 O   0  0  0  0  0  0  0  0  0  0  0  0
  -21.7680   -5.6700   22.7840 C   0  0  0  0  0  0  0  0  0  0  0  0
  -21.1420   -6.2900   23.8870 C   0  0  0  0  0  3  0  0  0  0  0  0
  -20.9510   -5.5710   25.0830 C   0  0  0  0  0  3  0  0  0  0  0  0
  -21.3760   -4.2320   25.1770 C   0  0  0  0  0  0  0  0  0  0  0  0
  -21.9960   -3.6120   24.0770 C   0  0  0  0  0  3  0  0  0  0  0  0
  -22.1880   -4.3290   22.8830 C   0  0  0  0  0  0  0  0  0  0  0  0
  -22.7670   -3.7190   21.8210 F   0  0  0  0  0  0  0  0  0  0  0  0
  -21.1860   -3.5390   26.3230 F   0  0  0  0  0  0  0  0  0  0  0  0
  -22.8100  -12.9990   21.6420 C   0  0  0  0  0  0  0  0  0  0  0  0
  -22.2720  -12.2260   22.5790 N   0  0  0  0  0  0  0  0  0  0  0  0
  -22.2610  -14.0390   21.2810 O   0  0  0  0  0  0  0  0  0  0  0  0
  -22.7330  -11.3820   22.8890 H   0  0  0  0  0  0  0  0  0  0  0  0
  -21.3870  -12.4820   22.9940 H   0  0  0  0  0  0  0  0  0  0  0  0
  -25.2200  -14.8010   20.5000 N   0  0  0  0  0  0  0  0  0  0  0  0
  -24.4710  -15.4200   20.7910 H   0  0  0  0  0  0  0  0  0  0  0  0
  -25.9750  -15.2890   20.0350 H   0  0  0  0  0  0  0  0  0  0  0  0
  -33.0650  -20.5760   20.6220 C   0  0  0  0  0  1  0  0  0  0  0  0
  -32.7930  -19.1430   20.1800 C   0  0  2  0  0  0  0  0  0  0  0  0
  -33.1190  -19.0810   18.8880 F   0  0  0  0  0  0  0  0  0  0  0  0
  -33.6780  -18.3960   20.8420 F   0  0  0  0  0  0  0  0  0  0  0  0
  -29.9920  -24.8220   23.1140 C   0  0  0  0  0  1  0  0  0  0  0  0
  -29.9620  -23.3360   22.6850 C   0  0  2  0  0  0  0  0  0  0  0  0
  -31.3370  -23.0740   22.4750 O   0  0  0  0  0  0  0  0  0  0  0  0
  -31.8020  -23.3460   23.2600 H   0  0  0  0  0  0  0  0  0  0  0  0
  -30.5130  -22.0350   24.9000 C   0  0  0  0  0  1  0  0  0  0  0  0
  -29.4540  -22.4620   23.8650 C   0  0  0  0  0  2  0  0  0  0  0  0
  -29.0380  -24.1900   20.3380 C   0  0  0  0  0  2  0  0  0  0  0  0
  -27.0740  -25.2770   21.8010 C   0  0  0  0  0  1  0  0  0  0  0  0
  -27.7700  -25.1220   20.4230 C   0  0  0  0  0  3  0  0  0  0  0  0
  -28.0230  -26.4500   19.8760 O   0  0  0  0  0  0  0  0  0  0  0  0
  -24.4830  -31.7080   23.1250 C   0  0  0  0  0  0  0  0  0  0  0  0
  -26.9220  -27.2900   19.8400 C   0  0  0  0  0  0  0  0  0  0  0  0
  -23.2070  -30.4130   21.4490 C   0  0  0  0  0  3  0  0  0  0  0  0
  -24.5880  -28.8920   19.9340 C   0  0  0  0  0  0  0  0  0  0  0  0
  -25.7420  -30.6950   21.2240 C   0  0  0  0  0  2  0  0  0  0  0  0
  -25.7740  -29.3510   20.5240 C   0  0  0  0  0  0  0  0  0  0  0  0
  -26.9490  -28.5600   20.4670 C   0  0  0  0  0  3  0  0  0  0  0  0
  -25.7250  -26.8610   19.2260 C   0  0  0  0  0  3  0  0  0  0  0  0
  -24.5600  -27.6500   19.2760 C   0  0  0  0  0  3  0  0  0  0  0  0
  -23.3720  -29.7850   20.0390 C   0  0  0  0  0  2  0  0  0  0  0  0
  -24.4970  -30.9500   21.9910 N   0  0  0  0  0  0  0  0  0  0  0  0
  -23.4190  -31.9930   23.6930 O   0  0  0  0  0  0  0  0  0  0  0  0
  -22.5360  -29.3760   22.3800 C   0  0  0  0  0  0  0  0  0  0  0  0
  -21.2030  -29.2490   22.2700 N   0  0  0  0  0  0  0  0  0  0  0  0
  -23.2100  -28.6910   23.1530 O   0  0  0  0  0  0  0  0  0  0  0  0
  -20.7240  -29.8480   21.6140 H   0  0  0  0  0  0  0  0  0  0  0  0
  -17.7900  -28.1910   22.8240 C   0  0  0  0  0  0  0  0  0  0  0  0
  -20.3650  -28.3100   23.0170 C   0  0  0  0  0  3  0  0  0  0  0  0
  -20.3770  -26.9100   22.3590 C   0  0  0  0  0  2  0  0  0  0  0  0
  -19.2260  -26.7000   21.3700 C   0  0  0  0  0  2  0  0  0  0  0  0
  -17.8760  -26.8760   22.0700 C   0  0  0  0  0  2  0  0  0  0  0  0
  -18.9590  -28.8730   23.2560 C   0  0  0  0  0  0  0  0  0  0  0  0
  -18.8250  -30.1100   23.9230 C   0  0  0  0  0  3  0  0  0  0  0  0
  -17.5540  -30.6640   24.1600 C   0  0  0  0  0  3  0  0  0  0  0  0
  -16.4000  -29.9780   23.7460 C   0  0  0  0  0  3  0  0  0  0  0  0
  -16.5180  -28.7430   23.0840 C   0  0  0  0  0  3  0  0  0  0  0  0
  -25.7980  -32.2710   23.7480 C   0  0  0  0  0  3  0  0  0  0  0  0
  -25.5440  -33.6680   24.1250 N   0  0  0  0  0  0  0  0  0  0  0  0
  -25.8930  -34.7310   23.3870 C   0  0  0  0  0  0  0  0  0  0  0  0
  -26.5340  -34.6340   22.3370 O   0  0  0  0  0  0  0  0  0  0  0  0
  -24.9730  -33.8180   24.9430 H   0  0  0  0  0  0  0  0  0  0  0  0
  -24.2040  -36.5780   23.1400 C   0  0  0  0  0  1  0  0  0  0  0  0
  -25.4630  -36.1200   23.8950 C   0  0  0  0  0  3  0  0  0  0  0  0
  -27.6490  -36.9290   24.6680 C   0  0  0  0  0  1  0  0  0  0  0  0
  -26.5210  -37.1460   23.7660 N   0  0  0  0  0  0  0  0  0  0  0  0
  -26.1470  -38.0750   23.9430 H   0  0  0  0  0  0  0  0  0  0  0  0
  -26.3030  -31.4400   24.9920 C   0  0  1  0  0  0  0  0  0  0  0  0
  -25.2110  -31.1910   26.0580 C   0  0  0  0  0  1  0  0  0  0  0  0
  -26.8450  -30.0620   24.5440 C   0  0  0  0  0  1  0  0  0  0  0  0
  -27.4780  -32.1790   25.6730 C   0  0  0  0  0  1  0  0  0  0  0  0
  1 59  1  0
  1 54  1  0
  2  1  1  0
  2  5  1  0
  3  2  1  0
  4  2  1  0
  6 18  1  0
  7 12  1  0
  8  9  1  0
  8  7  1  0
 10  9  1  0
 10 24  1  0
 10 11  1  0
 12  6  1  0
 12 11  1  0
 13  6  2  0
 14 15  2  0
 15 19  1  0
 15  5  1  0
 16 19  1  0
 17 16  2  0
 17 14  1  0
 18 16  1  0
 18 20  1  0
 21 22  2  0
 22 41  1  0
 23 26  1  0
 23 22  1  0
 24 25  1  0
 24 21  1  0
 25 23  2  0
 26 27  1  0
 27 28  2  0
 29 32  1  0
 29 28  1  0
 30 29  2  0
 31 30  1  0
 31 26  2  0
 32 33  1  0
 33 38  2  0
 33 34  1  0
 34 35  2  0
 35 36  1  0
 36 40  1  0
 37 36  2  0
 38 37  1  0
 39 38  1  0
 41 42  1  0
 42 44  1  0
 42 45  1  0
 43 41  2  0
 46 21  1  0
 46 47  1  0
 48 46  1  0
 50 14  1  0
 50 49  1  1
 50 52  1  0
 51 50  1  0
 54 53  1  1
 54 58  1  0
 55 54  1  0
 55 56  1  0
 58 57  1  0
 59 61  1  0
 61 60  1  0
 62 61  1  0
 63 74  2  0
 64 62  1  0
 64 69  1  0
 65 73  1  0
 65 75  1  0
 66 72  1  0
 66 68  1  0
 67 73  1  0
 68 67  1  0
 69 68  2  0
 70 71  1  0
 70 64  2  0
 71 66  2  0
 72 65  1  0
 73 63  1  0
 75 77  2  0
 76 75  1  0
 78 76  1  0
 79 88  2  0
 79 84  1  0
 80 76  1  0
 80 84  1  0
 81 80  1  0
 82 83  1  0
 82 81  1  0
 83 79  1  0
 84 85  2  0
 85 86  1  0
 87 86  2  0
 88 87  1  0
 89 63  1  0
 89 90  1  0
 89 99  1  0
 90 93  1  0
 91 95  1  0
 91 90  1  0
 92 91  2  0
 95 94  1  0
 97 95  1  0
 97 98  1  0
 97 96  1  0
 99102  1  1
 99100  1  0
101 99  1  0
M  ISO  4   6 100  18 100  61 101  62 101
M  END
>  <TORSDO>  (70) 
F 24

>  <SCORE>  (70) 
-10.736

>  <name>  (70) 
69

>  <ligand_id>  (70) 
69

>  <original_smiles>  (70) 
[H]OC(C([H])([H])[H])(C([H])([H])C([H])([H])[H])C([H])(C([H])([H])C([H])(Oc1c([H])c([H])c2c(c1[H])C([H])([H])N(C(=O)C([H])(N([H])C(=O)C([H])(N([H])C([H])([H])[H])C([H])([H])[H])C(C([H])([H])[H])(C([H])([H])[H])C([H])([H])[H])C([H])(C(=O)N([H])C1([H])c3c([H])c([H])c([H])c([H])c3C([H])([H])C([H])([H])C1([H])[H])C2([H])[H])C([H])([H])[H])[N+]([H])([H])C([H])([H])c1sc(N([H])C(=O)N2C([H])([H])C([H])([H])C([H])([H])C([H])(n3nc(-c4c([H])c([H])c(Oc5c([H])c([H])c(F)c([H])c5F)c([H])c4[H])c(C(=O)N([H])[H])c3N([H])[H])C2([H])[H])nc1C(F)(F)C([H])([H])[H]

>  <smiles>  (70) 
[H]OC(C([H])([H])[H])(C([H])([H])C([H])([H])[H])C([H])(C([H])([H])C([H])(Oc1c([H])c([H])c2c(c1[H])C([H])([H])N(C(=O)C([H])(N([H])C(=O)C([H])(N([H])C([H])([H])[H])C([H])([H])[H])C(C([H])([H])[H])(C([H])([H])[H])C([H])([H])[H])C([H])(C(=O)N([H])C1([H])c3c([H])c([H])c([H])c([H])c3C([H])([H])C([H])([H])C1([H])[H])C2([H])[H])C([H])([H])[H])[N+]([H])([H])C([H])([H])c1sc(N([H])C(=O)N2C([H])([H])C([H])([H])C([H])([H])C([H])(n3nc(-c4c([H])c([H])c(Oc5c([H])c([H])c(F)c([H])c5F)c([H])c4[H])c(C(=O)N([H])[H])c3N([H])[H])C2([H])[H])nc1C(F)(F)C([H])([H])[H]

$$$$
70:0:0
     RDKit          3D

 86 93  0  0  1  0  0  0  0  0999 V2000
  -30.3290  -23.2430   20.7800 C   0  0  0  0  0  1  0  0  0  0  0  0
  -28.8550  -22.8440   20.6110 C   0  0  0  0  0  3  0  0  0  0  0  0
  -28.8980  -21.2230   19.9650 C   0  0  0  0  0  0  0  0  0  0  0  0
  -29.3090  -19.9360   20.5570 N   0  0  0  0  0  0  0  0  0  0  0  0
  -28.5700  -21.1610   18.7800 O   0  0  0  0  0  0  0  0  0  0  0  0
  -29.5140  -20.0330   21.5440 H   0  0  0  0  0  0  0  0  0  0  0  0
  -29.7240  -18.4270   19.9830 C   0  0  0  0  0  3  0  0  0  0  0  0
  -29.6680  -16.7820   20.6820 C   0  0  0  0  0  3  0  0  0  0  0  0
  -30.4340  -15.2660   20.2700 C   0  0  0  0  0  0  0  0  0  0  0  0
  -30.3980  -12.8370   19.3590 C   0  0  0  0  0  2  0  0  0  0  0  0
  -29.4620  -12.7010   18.1310 C   0  0  0  0  0  2  0  0  0  0  0  0
  -28.0110  -12.4390   18.5740 C   0  0  0  0  0  2  0  0  0  0  0  0
  -27.5850  -13.3740   19.7340 C   0  0  0  0  0  3  0  0  0  0  0  0
  -28.6450  -13.4660   20.8510 C   0  0  0  0  0  2  0  0  0  0  0  0
  -29.8910  -13.9530   20.2380 N   0  0  0  0  0  0  0  0  0  0  0  0
  -31.6230  -15.2850   19.9190 O   0  0  0  0  0  0  0  0  0  0  0  0
  -25.2210  -13.9290   20.5100 C   0  0  0  0  0  0  0  0  0  0  0  0
  -24.1620  -13.1500   20.8860 C   0  0  0  0  0  0  0  0  0  0  0  0
  -24.6290  -11.8000   20.8440 C   0  0  0  0  0  0  0  0  0  0  0  0
  -26.2610  -13.0560   20.2500 N   0  0  0  0  0  0  0  0  0  0  0  0
  -25.9180  -11.7680   20.5190 N   0  0  0  0  0  0  0  0  0  0  0  0
  -23.9040  -10.5360   21.0360 C   0  0  0  0  0  0  0  0  0  0  0  0
  -24.3400   -9.5680   21.9670 C   0  0  0  0  0  3  0  0  0  0  0  0
  -23.6120   -8.3700   22.1480 C   0  0  0  0  0  3  0  0  0  0  0  0
  -22.4350   -8.1350   21.3980 C   0  0  0  0  0  0  0  0  0  0  0  0
  -22.0180   -9.0930   20.4570 C   0  0  0  0  0  3  0  0  0  0  0  0
  -22.7470  -10.2810   20.2750 C   0  0  0  0  0  3  0  0  0  0  0  0
  -21.6790   -6.9910   21.4890 O   0  0  0  0  0  0  0  0  0  0  0  0
  -21.6310   -6.2490   22.6430 C   0  0  0  0  0  0  0  0  0  0  0  0
  -21.1890   -6.8000   23.8660 C   0  0  0  0  0  3  0  0  0  0  0  0
  -21.0890   -5.9850   25.0110 C   0  0  0  0  0  3  0  0  0  0  0  0
  -21.4200   -4.6180   24.9330 C   0  0  0  0  0  0  0  0  0  0  0  0
  -21.8540   -4.0670   23.7150 C   0  0  0  0  0  3  0  0  0  0  0  0
  -21.9560   -4.8800   22.5730 C   0  0  0  0  0  0  0  0  0  0  0  0
  -22.3540   -4.3370   21.3970 F   0  0  0  0  0  0  0  0  0  0  0  0
  -21.3170   -3.8330   26.0300 F   0  0  0  0  0  0  0  0  0  0  0  0
  -22.7670  -13.6250   21.1690 C   0  0  0  0  0  0  0  0  0  0  0  0
  -22.0430  -12.9230   22.0320 N   0  0  0  0  0  0  0  0  0  0  0  0
  -22.3290  -14.6560   20.6600 O   0  0  0  0  0  0  0  0  0  0  0  0
  -22.4110  -12.0890   22.4660 H   0  0  0  0  0  0  0  0  0  0  0  0
  -21.1060  -13.2230   22.2620 H   0  0  0  0  0  0  0  0  0  0  0  0
  -25.3810  -15.3010   20.3380 N   0  0  0  0  0  0  0  0  0  0  0  0
  -24.6170  -15.9550   20.4670 H   0  0  0  0  0  0  0  0  0  0  0  0
  -26.2280  -15.7430   20.0050 H   0  0  0  0  0  0  0  0  0  0  0  0
  -28.0350  -24.3330   20.0440 C   0  0  0  0  0  2  0  0  0  0  0  0
  -28.1980  -25.9300   20.3780 O   0  0  0  0  0  0  0  0  0  0  0  0
  -24.6240  -31.8770   23.2610 C   0  0  0  0  0  0  0  0  0  0  0  0
  -27.1860  -27.0100   20.2710 C   0  0  0  0  0  0  0  0  0  0  0  0
  -23.4350  -30.4830   21.6160 C   0  0  0  0  0  3  0  0  0  0  0  0
  -24.8890  -28.8750   20.2030 C   0  0  0  0  0  0  0  0  0  0  0  0
  -26.0010  -30.6920   21.4860 C   0  0  0  0  0  2  0  0  0  0  0  0
  -26.0710  -29.2840   20.8330 C   0  0  0  0  0  0  0  0  0  0  0  0
  -27.2120  -28.3710   20.8450 C   0  0  0  0  0  3  0  0  0  0  0  0
  -25.9790  -26.7470   19.5860 C   0  0  0  0  0  3  0  0  0  0  0  0
  -24.8660  -27.6270   19.5600 C   0  0  0  0  0  3  0  0  0  0  0  0
  -23.6700  -29.7960   20.2410 C   0  0  0  0  0  2  0  0  0  0  0  0
  -24.7080  -31.0430   22.1750 N   0  0  0  0  0  0  0  0  0  0  0  0
  -23.5330  -32.1720   23.7750 O   0  0  0  0  0  0  0  0  0  0  0  0
  -22.7320  -29.4910   22.5780 C   0  0  0  0  0  0  0  0  0  0  0  0
  -21.4030  -29.3280   22.4410 N   0  0  0  0  0  0  0  0  0  0  0  0
  -23.3890  -28.8680   23.4160 O   0  0  0  0  0  0  0  0  0  0  0  0
  -20.9280  -29.8820   21.7420 H   0  0  0  0  0  0  0  0  0  0  0  0
  -18.0120  -28.1310   22.9200 C   0  0  0  0  0  0  0  0  0  0  0  0
  -20.5700  -28.3960   23.2070 C   0  0  0  0  0  3  0  0  0  0  0  0
  -20.6740  -26.9610   22.6390 C   0  0  0  0  0  2  0  0  0  0  0  0
  -19.5820  -26.6360   21.6160 C   0  0  0  0  0  2  0  0  0  0  0  0
  -18.1950  -26.7810   22.2460 C   0  0  0  0  0  2  0  0  0  0  0  0
  -19.1270  -28.8960   23.3560 C   0  0  0  0  0  0  0  0  0  0  0  0
  -18.9010  -30.1570   23.9490 C   0  0  0  0  0  3  0  0  0  0  0  0
  -17.5930  -30.6540   24.1080 C   0  0  0  0  0  3  0  0  0  0  0  0
  -16.4940  -29.8870   23.6840 C   0  0  0  0  0  3  0  0  0  0  0  0
  -16.7040  -28.6270   23.0970 C   0  0  0  0  0  3  0  0  0  0  0  0
  -25.8940  -32.5140   23.9030 C   0  0  0  0  0  3  0  0  0  0  0  0
  -26.3710  -31.7640   25.2090 C   0  0  1  0  0  0  0  0  0  0  0  0
  -25.2500  -31.5640   26.2570 C   0  0  0  0  0  1  0  0  0  0  0  0
  -26.9450  -30.3700   24.8660 C   0  0  0  0  0  1  0  0  0  0  0  0
  -27.5180  -32.5570   25.8790 C   0  0  0  0  0  1  0  0  0  0  0  0
  -25.5880  -33.9220   24.2110 N   0  0  0  0  0  0  0  0  0  0  0  0
  -25.9410  -34.9680   23.4510 C   0  0  0  0  0  0  0  0  0  0  0  0
  -26.6210  -34.8480   22.4280 O   0  0  0  0  0  0  0  0  0  0  0  0
  -24.9840  -34.0890   25.0020 H   0  0  0  0  0  0  0  0  0  0  0  0
  -24.2390  -36.7850   23.0700 C   0  0  0  0  0  1  0  0  0  0  0  0
  -25.4680  -36.3680   23.8940 C   0  0  0  0  0  3  0  0  0  0  0  0
  -27.6040  -37.2400   24.7390 C   0  0  0  0  0  1  0  0  0  0  0  0
  -26.5150  -37.4080   23.7810 N   0  0  0  0  0  0  0  0  0  0  0  0
  -26.1180  -38.3360   23.9100 H   0  0  0  0  0  0  0  0  0  0  0  0
  2  1  1  0
  3  4  1  0
  3  2  1  0
  4  6  1  0
  5  3  2  0
  7  4  1  0
  7  8  2  0
  9  8  1  0
 10 15  1  0
 11 12  1  0
 11 10  1  0
 13 12  1  0
 13 20  1  0
 13 14  1  0
 15  9  1  0
 15 14  1  0
 16  9  2  0
 17 18  2  0
 18 37  1  0
 19 18  1  0
 19 22  1  0
 20 17  1  0
 20 21  1  0
 21 19  2  0
 22 23  1  0
 23 24  2  0
 25 28  1  0
 25 24  1  0
 26 25  2  0
 27 26  1  0
 27 22  2  0
 28 29  1  0
 29 30  1  0
 30 31  2  0
 32 31  1  0
 32 36  1  0
 33 32  2  0
 34 29  2  0
 34 33  1  0
 35 34  1  0
 37 38  1  0
 38 41  1  0
 38 40  1  0
 39 37  2  0
 42 43  1  0
 42 17  1  0
 44 42  1  0
 45 46  1  0
 45  2  1  0
 47 58  2  0
 48 46  1  0
 48 53  1  0
 49 57  1  0
 49 59  1  0
 50 56  1  0
 50 52  1  0
 51 57  1  0
 52 53  2  0
 52 51  1  0
 54 48  2  0
 55 54  1  0
 55 50  2  0
 56 49  1  0
 57 47  1  0
 59 61  2  0
 60 59  1  0
 62 60  1  0
 63 72  2  0
 63 68  1  0
 64 60  1  0
 64 68  1  0
 65 64  1  0
 66 67  1  0
 66 65  1  0
 67 63  1  0
 68 69  2  0
 69 70  1  0
 71 70  2  0
 72 71  1  0
 73 47  1  0
 73 78  1  0
 73 74  1  0
 74 77  1  1
 74 75  1  0
 76 74  1  0
 78 81  1  0
 79 83  1  0
 79 78  1  0
 80 79  2  0
 83 82  1  0
 85 83  1  0
 85 86  1  0
 85 84  1  0
M  ISO  4   8 100   9 100  45 101  46 101
M  END
>  <TORSDO>  (71) 
F 20

>  <SCORE>  (71) 
-15.773

>  <name>  (71) 
70

>  <ligand_id>  (71) 
70

>  <original_smiles>  (71) 
[H]c1c([H])c([H])c2c(c1[H])C([H])([H])C([H])([H])C([H])([H])C2([H])N([H])C(=O)C1([H])N(C(=O)C([H])(N([H])C(=O)C([H])(N([H])C([H])([H])[H])C([H])([H])[H])C(C([H])([H])[H])(C([H])([H])[H])C([H])([H])[H])C([H])([H])c2c([H])c(OC([H])([H])C([H])(C(=O)N([H])C([H])([H])C([H])([H])C(=O)N3C([H])([H])C([H])([H])C([H])([H])C([H])(n4nc(-c5c([H])c([H])c(Oc6c([H])c([H])c(F)c([H])c6F)c([H])c5[H])c(C(=O)N([H])[H])c4N([H])[H])C3([H])[H])C([H])([H])[H])c([H])c([H])c2C1([H])[H]

>  <smiles>  (71) 
[H]c1c([H])c([H])c2c(c1[H])C([H])([H])C([H])([H])C([H])([H])C2([H])N([H])C(=O)C1([H])N(C(=O)C([H])(N([H])C(=O)C([H])(N([H])C([H])([H])[H])C([H])([H])[H])C(C([H])([H])[H])(C([H])([H])[H])C([H])([H])[H])C([H])([H])c2c([H])c(OC([H])([H])C([H])(C(=O)N([H])C([H])([H])C([H])([H])C(=O)N3C([H])([H])C([H])([H])C([H])([H])C([H])(n4nc(-c5c([H])c([H])c(Oc6c([H])c([H])c(F)c([H])c6F)c([H])c5[H])c(C(=O)N([H])[H])c4N([H])[H])C3([H])[H])C([H])([H])[H])c([H])c([H])c2C1([H])[H]

$$$$
71:0:0
     RDKit          3D

 95103  0  0  1  0  0  0  0  0999 V2000
  -28.9740  -23.2000   20.0860 C   0  0  0  0  0  3  0  0  0  0  0  0
  -30.0690  -21.1140   19.2250 C   0  0  0  0  0  0  0  0  0  0  0  0
  -29.9030  -22.0380   20.1900 N   0  0  0  0  0  0  0  0  0  0  0  0
  -29.8320  -21.3670   18.0430 O   0  0  0  0  0  0  0  0  0  0  0  0
  -30.0630  -21.6810   21.1250 H   0  0  0  0  0  0  0  0  0  0  0  0
  -29.8940  -18.5300   19.1560 C   0  0  0  0  0  3  0  0  0  0  0  0
  -31.1760  -18.0130   20.8220 C   0  0  0  0  0  3  0  0  0  0  0  0
  -30.4030  -19.7020   19.6910 C   0  0  0  0  0  0  0  0  0  0  0  0
  -31.2690  -19.3470   20.7320 N   0  0  0  0  0  0  0  0  0  0  0  0
  -30.3080  -17.4520   19.9650 N   0  0  0  0  0  0  0  0  0  0  0  0
  -29.7480  -16.0750   19.9500 C   0  0  0  0  0  2  0  0  0  0  0  0
  -30.6840  -14.8230   20.1290 C   0  0  0  0  0  0  0  0  0  0  0  0
  -30.4660  -12.5760   19.1880 C   0  0  0  0  0  2  0  0  0  0  0  0
  -29.4820  -12.7270   18.0080 C   0  0  0  0  0  2  0  0  0  0  0  0
  -28.0260  -12.5670   18.4900 C   0  0  0  0  0  2  0  0  0  0  0  0
  -27.6900  -13.4320   19.7320 C   0  0  0  0  0  3  0  0  0  0  0  0
  -28.7930  -13.3090   20.8060 C   0  0  0  0  0  2  0  0  0  0  0  0
  -30.0990  -13.5930   20.1850 N   0  0  0  0  0  0  0  0  0  0  0  0
  -31.8890  -14.9560   19.9060 O   0  0  0  0  0  0  0  0  0  0  0  0
  -25.3260  -14.0090   20.5610 C   0  0  0  0  0  0  0  0  0  0  0  0
  -24.2740  -13.2250   20.9410 C   0  0  0  0  0  0  0  0  0  0  0  0
  -24.7400  -11.8740   20.8690 C   0  0  0  0  0  0  0  0  0  0  0  0
  -26.3640  -13.1350   20.2660 N   0  0  0  0  0  0  0  0  0  0  0  0
  -26.0170  -11.8470   20.5180 N   0  0  0  0  0  0  0  0  0  0  0  0
  -24.0240  -10.6050   21.0530 C   0  0  0  0  0  0  0  0  0  0  0  0
  -24.4660   -9.6300   21.9770 C   0  0  0  0  0  3  0  0  0  0  0  0
  -23.7450   -8.4280   22.1490 C   0  0  0  0  0  3  0  0  0  0  0  0
  -22.5710   -8.1910   21.3960 C   0  0  0  0  0  0  0  0  0  0  0  0
  -22.1490   -9.1530   20.4620 C   0  0  0  0  0  3  0  0  0  0  0  0
  -22.8690  -10.3460   20.2880 C   0  0  0  0  0  3  0  0  0  0  0  0
  -21.8260   -7.0370   21.4740 O   0  0  0  0  0  0  0  0  0  0  0  0
  -21.7740   -6.2890   22.6220 C   0  0  0  0  0  0  0  0  0  0  0  0
  -21.3090   -6.8290   23.8410 C   0  0  0  0  0  3  0  0  0  0  0  0
  -21.2040   -6.0080   24.9810 C   0  0  0  0  0  3  0  0  0  0  0  0
  -21.5560   -4.6470   24.9040 C   0  0  0  0  0  0  0  0  0  0  0  0
  -22.0180   -4.1070   23.6910 C   0  0  0  0  0  3  0  0  0  0  0  0
  -22.1210   -4.9240   22.5530 C   0  0  0  0  0  0  0  0  0  0  0  0
  -22.5440   -4.3920   21.3790 F   0  0  0  0  0  0  0  0  0  0  0  0
  -21.4490   -3.8580   25.9970 F   0  0  0  0  0  0  0  0  0  0  0  0
  -22.8800  -13.6870   21.2610 C   0  0  0  0  0  0  0  0  0  0  0  0
  -22.1780  -12.9670   22.1270 N   0  0  0  0  0  0  0  0  0  0  0  0
  -22.4230  -14.7260   20.7830 O   0  0  0  0  0  0  0  0  0  0  0  0
  -22.5570  -12.1250   22.5380 H   0  0  0  0  0  0  0  0  0  0  0  0
  -21.2490  -13.2640   22.3860 H   0  0  0  0  0  0  0  0  0  0  0  0
  -25.4840  -15.3880   20.4120 N   0  0  0  0  0  0  0  0  0  0  0  0
  -24.7370  -16.0530   20.5890 H   0  0  0  0  0  0  0  0  0  0  0  0
  -26.3370  -15.8350   20.1010 H   0  0  0  0  0  0  0  0  0  0  0  0
  -27.6810  -22.7430   20.7920 C   0  0  0  0  0  0  0  0  0  0  0  0
  -27.6570  -21.9460   21.7370 O   0  0  0  0  0  0  0  0  0  0  0  0
  -25.3260  -23.0240   20.8000 C   0  0  0  0  0  1  0  0  0  0  0  0
  -26.5990  -23.3090   20.2440 O   0  0  0  0  0  0  0  0  0  0  0  0
  -29.5260  -24.4810   20.8260 C   0  0  0  0  0  2  0  0  0  0  0  0
  -29.0670  -26.4570   22.4140 C   0  0  0  0  0  1  0  0  0  0  0  0
  -28.5900  -25.7360   21.1320 C   0  0  0  0  0  3  0  0  0  0  0  0
  -28.4920  -26.7900   20.1270 O   0  0  0  0  0  0  0  0  0  0  0  0
  -24.6080  -31.9760   23.2560 C   0  0  0  0  0  0  0  0  0  0  0  0
  -27.3350  -27.5670   20.1560 C   0  0  0  0  0  0  0  0  0  0  0  0
  -23.4260  -30.5750   21.5990 C   0  0  0  0  0  3  0  0  0  0  0  0
  -24.9140  -29.0660   20.1710 C   0  0  0  0  0  0  0  0  0  0  0  0
  -25.9520  -30.9710   21.4070 C   0  0  0  0  0  2  0  0  0  0  0  0
  -26.0670  -29.5990   20.7620 C   0  0  0  0  0  0  0  0  0  0  0  0
  -27.2800  -28.8610   20.7480 C   0  0  0  0  0  3  0  0  0  0  0  0
  -26.1620  -27.0590   19.5630 C   0  0  0  0  0  3  0  0  0  0  0  0
  -24.9590  -27.7960   19.5670 C   0  0  0  0  0  3  0  0  0  0  0  0
  -23.6520  -29.9080   20.2180 C   0  0  0  0  0  2  0  0  0  0  0  0
  -24.6830  -31.1850   22.1490 N   0  0  0  0  0  0  0  0  0  0  0  0
  -23.5210  -32.2280   23.7920 O   0  0  0  0  0  0  0  0  0  0  0  0
  -22.7840  -29.5350   22.5490 C   0  0  0  0  0  0  0  0  0  0  0  0
  -21.4620  -29.3410   22.4210 N   0  0  0  0  0  0  0  0  0  0  0  0
  -23.4730  -28.9070   23.3540 O   0  0  0  0  0  0  0  0  0  0  0  0
  -20.9710  -29.9000   21.7390 H   0  0  0  0  0  0  0  0  0  0  0  0
  -18.1050  -28.0940   22.9160 C   0  0  0  0  0  0  0  0  0  0  0  0
  -20.6620  -28.3780   23.1790 C   0  0  0  0  0  3  0  0  0  0  0  0
  -20.7870  -26.9650   22.5700 C   0  0  0  0  0  2  0  0  0  0  0  0
  -19.6800  -26.6450   21.5580 C   0  0  0  0  0  2  0  0  0  0  0  0
  -18.3000  -26.7590   22.2130 C   0  0  0  0  0  2  0  0  0  0  0  0
  -19.2160  -28.8620   23.3540 C   0  0  0  0  0  0  0  0  0  0  0  0
  -18.9870  -30.1130   23.9740 C   0  0  0  0  0  3  0  0  0  0  0  0
  -17.6780  -30.5970   24.1480 C   0  0  0  0  0  3  0  0  0  0  0  0
  -16.5800  -29.8260   23.7230 C   0  0  0  0  0  3  0  0  0  0  0  0
  -16.7960  -28.5780   23.1150 C   0  0  0  0  0  3  0  0  0  0  0  0
  -25.8830  -32.6240   23.8870 C   0  0  0  0  0  3  0  0  0  0  0  0
  -26.3950  -31.8620   25.1720 C   0  0  1  0  0  0  0  0  0  0  0  0
  -25.2930  -31.6120   26.2280 C   0  0  0  0  0  1  0  0  0  0  0  0
  -27.0000  -30.4900   24.7850 C   0  0  0  0  0  1  0  0  0  0  0  0
  -27.5280  -32.6740   25.8430 C   0  0  0  0  0  1  0  0  0  0  0  0
  -25.5560  -34.0210   24.2060 N   0  0  0  0  0  0  0  0  0  0  0  0
  -25.8970  -35.0720   23.4470 C   0  0  0  0  0  0  0  0  0  0  0  0
  -26.5890  -34.9650   22.4310 O   0  0  0  0  0  0  0  0  0  0  0  0
  -24.9450  -34.1730   24.9950 H   0  0  0  0  0  0  0  0  0  0  0  0
  -24.1740  -36.8610   23.0370 C   0  0  0  0  0  1  0  0  0  0  0  0
  -25.3920  -36.4620   23.8860 C   0  0  0  0  0  3  0  0  0  0  0  0
  -27.4960  -37.3570   24.7790 C   0  0  0  0  0  1  0  0  0  0  0  0
  -26.4240  -37.5150   23.7990 N   0  0  0  0  0  0  0  0  0  0  0  0
  -26.0080  -38.4330   23.9260 H   0  0  0  0  0  0  0  0  0  0  0  0
  1  3  1  0
  1 48  1  0
  1 52  1  0
  2  8  1  0
  2  3  1  0
  3  5  1  0
  4  2  2  0
  6  8  2  0
  6 10  1  0
  8  9  1  0
  9  7  2  0
 10  7  1  0
 11 10  1  0
 11 12  1  0
 12 18  1  0
 13 18  1  0
 14 15  1  0
 14 13  1  0
 16 15  1  0
 16 23  1  0
 16 17  1  0
 18 17  1  0
 19 12  2  0
 20 21  2  0
 21 40  1  0
 22 21  1  0
 22 25  1  0
 23 24  1  0
 23 20  1  0
 24 22  2  0
 25 26  1  0
 26 27  2  0
 28 31  1  0
 28 27  1  0
 29 28  2  0
 30 29  1  0
 30 25  2  0
 31 32  1  0
 32 33  1  0
 33 34  2  0
 35 34  1  0
 35 39  1  0
 36 35  2  0
 37 32  2  0
 37 36  1  0
 38 37  1  0
 40 41  1  0
 41 44  1  0
 41 43  1  0
 42 40  2  0
 45 20  1  0
 45 46  1  0
 47 45  1  0
 48 49  2  0
 51 48  1  0
 51 50  1  0
 52 54  1  0
 54 53  1  0
 55 57  1  0
 55 54  1  0
 56 67  2  0
 57 62  1  0
 58 66  1  0
 58 68  1  0
 59 65  1  0
 59 61  1  0
 60 66  1  0
 61 60  1  0
 62 61  2  0
 63 64  1  0
 63 57  2  0
 64 59  2  0
 65 58  1  0
 66 56  1  0
 68 70  2  0
 69 68  1  0
 71 69  1  0
 72 81  2  0
 72 77  1  0
 73 69  1  0
 73 77  1  0
 74 73  1  0
 75 76  1  0
 75 74  1  0
 76 72  1  0
 77 78  2  0
 78 79  1  0
 80 79  2  0
 81 80  1  0
 82 56  1  0
 82 87  1  0
 82 83  1  0
 83 86  1  1
 83 84  1  0
 85 83  1  0
 87 90  1  0
 88 92  1  0
 88 87  1  0
 89 88  2  0
 92 91  1  0
 94 92  1  0
 94 95  1  0
 94 93  1  0
M  ISO  4  11 100  12 100  54 101  55 101
M  END
>  <TORSDO>  (72) 
F 23

>  <SCORE>  (72) 
-12.752

>  <name>  (72) 
71

>  <ligand_id>  (72) 
71

>  <original_smiles>  (72) 
[H]c1c([H])c([H])c2c(c1[H])C([H])([H])C([H])([H])C([H])([H])C2([H])N([H])C(=O)C1([H])N(C(=O)C([H])(N([H])C(=O)C([H])(N([H])C([H])([H])[H])C([H])([H])[H])C(C([H])([H])[H])(C([H])([H])[H])C([H])([H])[H])C([H])([H])c2c([H])c(OC([H])(C([H])([H])[H])C([H])([H])C([H])(C(=O)OC([H])([H])[H])N([H])C(=O)c3nc([H])n(C([H])([H])C(=O)N4C([H])([H])C([H])([H])C([H])([H])C([H])(n5nc(-c6c([H])c([H])c(Oc7c([H])c([H])c(F)c([H])c7F)c([H])c6[H])c(C(=O)N([H])[H])c5N([H])[H])C4([H])[H])c3[H])c([H])c([H])c2C1([H])[H]

>  <smiles>  (72) 
[H]c1c([H])c([H])c2c(c1[H])C([H])([H])C([H])([H])C([H])([H])C2([H])N([H])C(=O)C1([H])N(C(=O)C([H])(N([H])C(=O)C([H])(N([H])C([H])([H])[H])C([H])([H])[H])C(C([H])([H])[H])(C([H])([H])[H])C([H])([H])[H])C([H])([H])c2c([H])c(OC([H])(C([H])([H])[H])C([H])([H])C([H])(C(=O)OC([H])([H])[H])N([H])C(=O)c3nc([H])n(C([H])([H])C(=O)N4C([H])([H])C([H])([H])C([H])([H])C([H])(n5nc(-c6c([H])c([H])c(Oc7c([H])c([H])c(F)c([H])c7F)c([H])c6[H])c(C(=O)N([H])[H])c5N([H])[H])C4([H])[H])c3[H])c([H])c([H])c2C1([H])[H]

$$$$
72:0:0
     RDKit          3D

 95103  0  0  1  0  0  0  0  0999 V2000
  -28.2860  -22.9870   19.6400 C   0  0  0  0  0  0  0  0  0  0  0  0
  -29.7330  -21.0160   19.0660 C   0  0  0  0  0  0  0  0  0  0  0  0
  -29.2120  -21.8650   19.9820 N   0  0  0  0  0  4  0  0  0  0  0  0
  -30.0280  -21.4220   17.9400 O   0  0  0  0  0  0  0  0  0  0  0  0
  -29.0750  -21.4590   20.8940 H   0  0  0  0  0  0  0  0  0  0  0  0
  -31.0110  -14.8910   20.2370 C   0  0  0  0  0  0  0  0  0  0  0  0
  -30.6780  -12.7040   19.1510 C   0  0  0  0  0  2  0  0  0  0  0  0
  -29.7250  -12.9160   17.9570 C   0  0  0  0  0  2  0  0  0  0  0  0
  -28.2590  -12.7850   18.4110 C   0  0  0  0  0  2  0  0  0  0  0  0
  -27.9480  -13.6210   19.6820 C   0  0  0  0  0  3  0  0  0  0  0  0
  -29.0260  -13.4200   20.7760 C   0  0  0  0  0  2  0  0  0  0  0  0
  -30.3420  -13.7040   20.1800 N   0  0  0  0  0  0  0  0  0  0  0  0
  -32.1150  -15.0520   19.7050 O   0  0  0  0  0  0  0  0  0  0  0  0
  -29.5920  -18.5270   18.4030 C   0  0  0  0  0  3  0  0  0  0  0  0
  -29.7910  -19.5340   19.3220 C   0  0  0  0  0  0  0  0  0  0  0  0
  -30.1730  -17.2000   20.1600 C   0  0  0  0  0  0  0  0  0  0  0  0
  -29.8000  -17.2270   18.8760 N   0  0  0  0  0  0  0  0  0  0  0  0
  -30.3580  -15.9350   20.8070 N   0  0  0  0  0  0  0  0  0  0  0  0
  -30.2270  -18.8310   20.8860 S   0  0  0  0  0  0  0  0  0  0  0  0
  -29.6190  -15.6790   21.4430 H   0  0  0  0  0  0  0  0  0  0  0  0
  -25.5710  -14.2310   20.4590 C   0  0  0  0  0  0  0  0  0  0  0  0
  -24.5070  -13.4650   20.8370 C   0  0  0  0  0  0  0  0  0  0  0  0
  -24.9490  -12.1050   20.7610 C   0  0  0  0  0  0  0  0  0  0  0  0
  -26.6020  -13.3460   20.1830 N   0  0  0  0  0  0  0  0  0  0  0  0
  -26.2330  -12.0600   20.4180 N   0  0  0  0  0  0  0  0  0  0  0  0
  -24.2130  -10.8490   20.9490 C   0  0  0  0  0  0  0  0  0  0  0  0
  -24.6070   -9.8920   21.9100 C   0  0  0  0  0  3  0  0  0  0  0  0
  -23.8660   -8.7050   22.0870 C   0  0  0  0  0  3  0  0  0  0  0  0
  -22.7160   -8.4610   21.3000 C   0  0  0  0  0  0  0  0  0  0  0  0
  -22.3390   -9.4060   20.3290 C   0  0  0  0  0  3  0  0  0  0  0  0
  -23.0810  -10.5850   20.1520 C   0  0  0  0  0  3  0  0  0  0  0  0
  -21.9520   -7.3210   21.3830 O   0  0  0  0  0  0  0  0  0  0  0  0
  -21.8140   -6.6280   22.5590 C   0  0  0  0  0  0  0  0  0  0  0  0
  -21.2540   -7.2220   23.7120 C   0  0  0  0  0  3  0  0  0  0  0  0
  -21.0730   -6.4570   24.8820 C   0  0  0  0  0  3  0  0  0  0  0  0
  -21.4350   -5.0950   24.8950 C   0  0  0  0  0  0  0  0  0  0  0  0
  -21.9830   -4.4980   23.7470 C   0  0  0  0  0  3  0  0  0  0  0  0
  -22.1710   -5.2640   22.5820 C   0  0  0  0  0  0  0  0  0  0  0  0
  -22.6830   -4.6790   21.4700 F   0  0  0  0  0  0  0  0  0  0  0  0
  -21.2490   -4.3570   26.0150 F   0  0  0  0  0  0  0  0  0  0  0  0
  -23.1220  -13.9470   21.1570 C   0  0  0  0  0  0  0  0  0  0  0  0
  -22.4190  -13.2430   22.0370 N   0  0  0  0  0  0  0  0  0  0  0  0
  -22.6790  -14.9840   20.6650 O   0  0  0  0  0  0  0  0  0  0  0  0
  -22.8000  -12.3990   22.4380 H   0  0  0  0  0  0  0  0  0  0  0  0
  -21.4940  -13.5440   22.3090 H   0  0  0  0  0  0  0  0  0  0  0  0
  -25.7470  -15.6040   20.3030 N   0  0  0  0  0  0  0  0  0  0  0  0
  -24.9840  -16.2530   20.4670 H   0  0  0  0  0  0  0  0  0  0  0  0
  -26.5810  -16.0520   19.9480 H   0  0  0  0  0  0  0  0  0  0  0  0
  -25.8000  -23.5460   19.7220 C   0  0  0  0  0  1  0  0  0  0  0  0
  -26.6100  -21.5030   20.9690 C   0  0  0  0  0  1  0  0  0  0  0  0
  -26.9800  -22.9230   20.4940 C   0  0  0  0  0  3  0  0  0  0  0  0
  -28.9080  -24.4310   19.4050 C   0  0  0  0  0  2  0  0  0  0  0  0
  -29.7090  -25.5200   21.5610 C   0  0  0  0  0  1  0  0  0  0  0  0
  -28.6570  -25.5880   20.4540 C   0  0  0  0  0  3  0  0  0  0  0  0
  -28.6990  -26.9640   19.9670 O   0  0  0  0  0  0  0  0  0  0  0  0
  -24.6750  -31.9700   23.2270 C   0  0  0  0  0  0  0  0  0  0  0  0
  -27.5160  -27.6980   20.0090 C   0  0  0  0  0  0  0  0  0  0  0  0
  -23.5360  -30.5800   21.5220 C   0  0  0  0  0  3  0  0  0  0  0  0
  -25.0680  -29.1560   20.0450 C   0  0  0  0  0  0  0  0  0  0  0  0
  -26.0580  -31.0170   21.3810 C   0  0  0  0  0  2  0  0  0  0  0  0
  -26.1960  -29.6730   20.6910 C   0  0  0  0  0  0  0  0  0  0  0  0
  -27.4200  -28.9500   20.6790 C   0  0  0  0  0  3  0  0  0  0  0  0
  -26.3750  -27.2240   19.3270 C   0  0  0  0  0  3  0  0  0  0  0  0
  -25.1620  -27.9390   19.3450 C   0  0  0  0  0  3  0  0  0  0  0  0
  -23.7780  -29.9490   20.1210 C   0  0  0  0  0  2  0  0  0  0  0  0
  -24.7720  -31.2070   22.0980 N   0  0  0  0  0  0  0  0  0  0  0  0
  -23.5810  -32.1810   23.7700 O   0  0  0  0  0  0  0  0  0  0  0  0
  -22.9160  -29.5070   22.4430 C   0  0  0  0  0  0  0  0  0  0  0  0
  -21.6010  -29.2860   22.3020 N   0  0  0  0  0  0  0  0  0  0  0  0
  -23.6190  -28.8770   23.2360 O   0  0  0  0  0  0  0  0  0  0  0  0
  -21.1010  -29.8470   21.6270 H   0  0  0  0  0  0  0  0  0  0  0  0
  -18.2600  -27.9820   22.7410 C   0  0  0  0  0  0  0  0  0  0  0  0
  -20.8090  -28.2970   23.0290 C   0  0  0  0  0  3  0  0  0  0  0  0
  -20.9490  -26.8970   22.3890 C   0  0  0  0  0  2  0  0  0  0  0  0
  -19.8570  -26.5910   21.3590 C   0  0  0  0  0  2  0  0  0  0  0  0
  -18.4730  -26.6690   22.0080 C   0  0  0  0  0  2  0  0  0  0  0  0
  -19.3570  -28.7550   23.2040 C   0  0  0  0  0  0  0  0  0  0  0  0
  -19.1050  -29.9860   23.8460 C   0  0  0  0  0  3  0  0  0  0  0  0
  -17.7860  -30.4400   24.0420 C   0  0  0  0  0  3  0  0  0  0  0  0
  -16.7020  -29.6620   23.5990 C   0  0  0  0  0  3  0  0  0  0  0  0
  -16.9400  -28.4390   22.9470 C   0  0  0  0  0  3  0  0  0  0  0  0
  -25.9330  -32.6240   23.8780 C   0  0  0  0  0  3  0  0  0  0  0  0
  -26.4420  -31.8560   25.1580 C   0  0  1  0  0  0  0  0  0  0  0  0
  -25.3350  -31.5780   26.2000 C   0  0  0  0  0  1  0  0  0  0  0  0
  -27.0780  -30.5020   24.7670 C   0  0  0  0  0  1  0  0  0  0  0  0
  -27.5560  -32.6780   25.8500 C   0  0  0  0  0  1  0  0  0  0  0  0
  -25.5790  -34.0110   24.2120 N   0  0  0  0  0  0  0  0  0  0  0  0
  -25.9080  -35.0810   23.4750 C   0  0  0  0  0  0  0  0  0  0  0  0
  -26.6070  -35.0060   22.4610 O   0  0  0  0  0  0  0  0  0  0  0  0
  -24.9460  -34.1410   24.9870 H   0  0  0  0  0  0  0  0  0  0  0  0
  -24.1440  -36.8400   23.1020 C   0  0  0  0  0  1  0  0  0  0  0  0
  -25.3750  -36.4520   23.9360 C   0  0  0  0  0  3  0  0  0  0  0  0
  -27.4590  -37.3860   24.8390 C   0  0  0  0  0  1  0  0  0  0  0  0
  -26.3840  -37.5300   23.8610 N   0  0  0  0  0  0  0  0  0  0  0  0
  -25.9490  -38.4380   23.9990 H   0  0  0  0  0  0  0  0  0  0  0  0
  1  3  2  3
  1 51  1  0
  2 15  1  0
  2  3  1  0
  3  5  1  0
  4  2  2  0
  6 18  1  0
  7 12  1  0
  8  9  1  0
  8  7  1  0
 10  9  1  0
 10 24  1  0
 10 11  1  0
 12  6  1  0
 12 11  1  0
 13  6  2  0
 14 17  1  0
 14 15  2  0
 15 19  1  0
 16 18  1  0
 16 19  1  0
 17 16  2  0
 18 20  1  0
 21 22  2  0
 22 41  1  0
 23 22  1  0
 23 26  1  0
 24 25  1  0
 24 21  1  0
 25 23  2  0
 26 27  1  0
 27 28  2  0
 29 32  1  0
 29 28  1  0
 30 29  2  0
 31 30  1  0
 31 26  2  0
 32 33  1  0
 33 38  2  0
 33 34  1  0
 34 35  2  0
 35 36  1  0
 36 40  1  0
 37 36  2  0
 38 37  1  0
 39 38  1  0
 41 42  1  0
 42 45  1  0
 42 44  1  0
 43 41  2  0
 46 21  1  0
 46 47  1  0
 48 46  1  0
 49 51  1  0
 51 50  1  0
 52  1  1  0
 52 54  1  0
 54 53  1  0
 55 57  1  0
 55 54  1  0
 56 67  2  0
 57 62  1  0
 58 66  1  0
 58 68  1  0
 59 65  1  0
 59 61  1  0
 60 66  1  0
 61 60  1  0
 62 61  2  0
 63 64  1  0
 63 57  2  0
 64 59  2  0
 65 58  1  0
 66 56  1  0
 68 70  2  0
 69 68  1  0
 71 69  1  0
 72 81  2  0
 72 77  1  0
 73 69  1  0
 73 77  1  0
 74 73  1  0
 75 76  1  0
 75 74  1  0
 76 72  1  0
 77 78  2  0
 78 79  1  0
 80 79  2  0
 81 80  1  0
 82 56  1  0
 82 87  1  0
 82 83  1  0
 83 86  1  1
 83 84  1  0
 85 83  1  0
 87 90  1  0
 88 92  1  0
 88 87  1  0
 89 88  2  0
 92 91  1  0
 94 92  1  0
 94 95  1  0
 94 93  1  0
M  ISO  4   6 100  18 100  54 101  55 101
M  END
>  <TORSDO>  (73) 
F 20

>  <SCORE>  (73) 
-12.185

>  <name>  (73) 
72

>  <ligand_id>  (73) 
72

>  <original_smiles>  (73) 
[H]c1nc(N([H])C(=O)N2C([H])([H])C([H])([H])C([H])([H])C([H])(n3nc(-c4c([H])c([H])c(Oc5c([H])c([H])c(F)c([H])c5F)c([H])c4[H])c(C(=O)N([H])[H])c3N([H])[H])C2([H])[H])sc1C(=O)N([H])C([H])(C([H])([H])C([H])(Oc1c([H])c([H])c2c(c1[H])C([H])([H])N(C(=O)C([H])(N([H])C(=O)C([H])(N([H])C([H])([H])[H])C([H])([H])[H])C(C([H])([H])[H])(C([H])([H])[H])C([H])([H])[H])C([H])(C(=O)N([H])C1([H])c3c([H])c([H])c([H])c([H])c3C([H])([H])C([H])([H])C1([H])[H])C2([H])[H])C([H])([H])[H])C([H])(C([H])([H])[H])C([H])([H])[H]

>  <smiles>  (73) 
[H]c1nc(N([H])C(=O)N2C([H])([H])C([H])([H])C([H])([H])C([H])(n3nc(-c4c([H])c([H])c(Oc5c([H])c([H])c(F)c([H])c5F)c([H])c4[H])c(C(=O)N([H])[H])c3N([H])[H])C2([H])[H])sc1C(=O)N([H])C([H])(C([H])([H])C([H])(Oc1c([H])c([H])c2c(c1[H])C([H])([H])N(C(=O)C([H])(N([H])C(=O)C([H])(N([H])C([H])([H])[H])C([H])([H])[H])C(C([H])([H])[H])(C([H])([H])[H])C([H])([H])[H])C([H])(C(=O)N([H])C1([H])c3c([H])c([H])c([H])c([H])c3C([H])([H])C([H])([H])C1([H])[H])C2([H])[H])C([H])([H])[H])C([H])(C([H])([H])[H])C([H])([H])[H]

$$$$
73:0:0
     RDKit          3D

 96104  0  0  1  0  0  0  0  0999 V2000
  -28.1250  -19.6230   19.8710 C   0  0  0  0  0  3  0  0  0  0  0  0
  -29.3240  -19.1590   20.3610 C   0  0  0  0  0  0  0  0  0  0  0  0
  -29.3460  -21.3240   21.1460 C   0  0  0  0  0  0  0  0  0  0  0  0
  -29.4680  -23.6480   22.2000 C   0  0  0  0  0  0  0  0  0  0  0  0
  -30.0130  -20.1550   21.0810 N   0  0  0  0  0  0  0  0  0  0  0  0
  -29.8690  -22.3790   21.9440 N   0  0  0  0  0  0  0  0  0  0  0  0
  -29.9180  -24.2010   23.2040 O   0  0  0  0  0  0  0  0  0  0  0  0
  -27.8150  -21.2910   20.2830 S   0  0  0  0  0  0  0  0  0  0  0  0
  -30.6350  -22.0870   22.5300 H   0  0  0  0  0  0  0  0  0  0  0  0
  -29.8910  -17.7660   20.1060 C   0  0  0  0  0  2  0  0  0  0  0  0
  -30.1480  -16.8870   21.3610 C   0  0  0  0  0  2  0  0  0  0  0  0
  -30.6480  -14.4980   20.5580 C   0  0  0  0  0  0  0  0  0  0  0  0
  -30.3990  -12.3590   19.3390 C   0  0  0  0  0  2  0  0  0  0  0  0
  -29.4640  -12.5810   18.1300 C   0  0  0  0  0  2  0  0  0  0  0  0
  -27.9820  -12.4440   18.5380 C   0  0  0  0  0  2  0  0  0  0  0  0
  -27.6340  -13.2550   19.8140 C   0  0  0  0  0  3  0  0  0  0  0  0
  -28.6710  -12.9800   20.9260 C   0  0  0  0  0  2  0  0  0  0  0  0
  -30.0050  -13.3100   20.3890 N   0  0  0  0  0  0  0  0  0  0  0  0
  -31.7650  -14.7390   20.0920 O   0  0  0  0  0  0  0  0  0  0  0  0
  -29.8990  -15.4450   21.1560 N   0  0  0  0  0  0  0  0  0  0  0  0
  -29.0030  -15.1120   21.4840 H   0  0  0  0  0  0  0  0  0  0  0  0
  -25.2220  -13.8780   20.4640 C   0  0  0  0  0  0  0  0  0  0  0  0
  -24.1460  -13.1130   20.8230 C   0  0  0  0  0  0  0  0  0  0  0  0
  -24.6060  -11.7600   20.8200 C   0  0  0  0  0  0  0  0  0  0  0  0
  -26.2700  -12.9920   20.2660 N   0  0  0  0  0  0  0  0  0  0  0  0
  -25.9010  -11.7140   20.5360 N   0  0  0  0  0  0  0  0  0  0  0  0
  -23.8760  -10.5010   21.0140 C   0  0  0  0  0  0  0  0  0  0  0  0
  -24.2940   -9.5430   21.9630 C   0  0  0  0  0  3  0  0  0  0  0  0
  -23.5670   -8.3470   22.1430 C   0  0  0  0  0  3  0  0  0  0  0  0
  -22.4050   -8.1010   21.3720 C   0  0  0  0  0  0  0  0  0  0  0  0
  -22.0060   -9.0470   20.4130 C   0  0  0  0  0  3  0  0  0  0  0  0
  -22.7340  -10.2340   20.2310 C   0  0  0  0  0  3  0  0  0  0  0  0
  -21.6500   -6.9570   21.4610 O   0  0  0  0  0  0  0  0  0  0  0  0
  -21.5850   -6.2240   22.6190 C   0  0  0  0  0  0  0  0  0  0  0  0
  -21.1440   -6.7900   23.8350 C   0  0  0  0  0  3  0  0  0  0  0  0
  -21.0270   -5.9840   24.9850 C   0  0  0  0  0  3  0  0  0  0  0  0
  -21.3420   -4.6130   24.9200 C   0  0  0  0  0  0  0  0  0  0  0  0
  -21.7760   -4.0470   23.7090 C   0  0  0  0  0  3  0  0  0  0  0  0
  -21.8950   -4.8500   22.5610 C   0  0  0  0  0  0  0  0  0  0  0  0
  -22.2940   -4.2960   21.3910 F   0  0  0  0  0  0  0  0  0  0  0  0
  -21.2220   -3.8370   26.0220 F   0  0  0  0  0  0  0  0  0  0  0  0
  -22.7440  -13.5940   21.0640 C   0  0  0  0  0  0  0  0  0  0  0  0
  -21.9980  -12.9090   21.9240 N   0  0  0  0  0  0  0  0  0  0  0  0
  -22.3160  -14.6130   20.5230 O   0  0  0  0  0  0  0  0  0  0  0  0
  -22.3550  -12.0860   22.3840 H   0  0  0  0  0  0  0  0  0  0  0  0
  -21.0560  -13.2140   22.1260 H   0  0  0  0  0  0  0  0  0  0  0  0
  -25.3940  -15.2460   20.2700 N   0  0  0  0  0  0  0  0  0  0  0  0
  -24.6280  -15.9040   20.3520 H   0  0  0  0  0  0  0  0  0  0  0  0
  -26.2520  -15.6740   19.9480 H   0  0  0  0  0  0  0  0  0  0  0  0
  -28.4340  -24.4380   21.3560 C   0  0  0  0  0  3  0  0  0  0  0  0
  -27.0890  -24.2410   21.9370 N   0  0  0  0  0  4  0  0  0  0  0  0
  -26.3910  -24.7560   21.4290 H   0  0  0  0  0  0  0  0  0  0  0  0
  -27.0810  -24.5500   22.8950 H   0  0  0  0  0  0  0  0  0  0  0  0
  -26.8330  -23.2700   21.9300 H   0  0  0  0  0  0  0  0  0  0  0  0
  -28.7810  -25.9710   21.3200 C   0  0  0  0  0  2  0  0  0  0  0  0
  -28.3240  -26.6470   20.1380 O   0  0  0  0  0  0  0  0  0  0  0  0
  -24.5520  -31.9070   23.2420 C   0  0  0  0  0  0  0  0  0  0  0  0
  -27.1770  -27.4070   20.2260 C   0  0  0  0  0  0  0  0  0  0  0  0
  -23.3430  -30.4990   21.6060 C   0  0  0  0  0  3  0  0  0  0  0  0
  -24.7950  -28.9320   20.2100 C   0  0  0  0  0  0  0  0  0  0  0  0
  -25.8740  -30.8320   21.4210 C   0  0  0  0  0  2  0  0  0  0  0  0
  -25.9540  -29.4490   20.8070 C   0  0  0  0  0  0  0  0  0  0  0  0
  -27.1490  -28.6920   20.8210 C   0  0  0  0  0  3  0  0  0  0  0  0
  -26.0100  -26.9100   19.6130 C   0  0  0  0  0  3  0  0  0  0  0  0
  -24.8170  -27.6590   19.6140 C   0  0  0  0  0  3  0  0  0  0  0  0
  -23.5580  -29.8020   20.2350 C   0  0  0  0  0  2  0  0  0  0  0  0
  -24.6080  -31.0960   22.1480 N   0  0  0  0  0  0  0  0  0  0  0  0
  -23.4700  -32.1920   23.7750 O   0  0  0  0  0  0  0  0  0  0  0  0
  -22.6800  -29.4920   22.5740 C   0  0  0  0  0  0  0  0  0  0  0  0
  -21.3540  -29.3220   22.4450 N   0  0  0  0  0  0  0  0  0  0  0  0
  -23.3560  -28.8630   23.3920 O   0  0  0  0  0  0  0  0  0  0  0  0
  -20.8700  -29.8800   21.7550 H   0  0  0  0  0  0  0  0  0  0  0  0
  -17.9630  -28.1840   22.9610 C   0  0  0  0  0  0  0  0  0  0  0  0
  -20.5260  -28.3980   23.2190 C   0  0  0  0  0  3  0  0  0  0  0  0
  -20.6010  -26.9650   22.6420 C   0  0  0  0  0  2  0  0  0  0  0  0
  -19.4880  -26.6630   21.6340 C   0  0  0  0  0  2  0  0  0  0  0  0
  -18.1120  -26.8320   22.2850 C   0  0  0  0  0  2  0  0  0  0  0  0
  -19.0970  -28.9260   23.3860 C   0  0  0  0  0  0  0  0  0  0  0  0
  -18.9030  -30.1950   23.9760 C   0  0  0  0  0  3  0  0  0  0  0  0
  -17.6080  -30.7190   24.1480 C   0  0  0  0  0  3  0  0  0  0  0  0
  -16.4880  -29.9730   23.7400 C   0  0  0  0  0  3  0  0  0  0  0  0
  -16.6670  -28.7070   23.1520 C   0  0  0  0  0  3  0  0  0  0  0  0
  -25.8390  -32.5340   23.8620 C   0  0  0  0  0  3  0  0  0  0  0  0
  -25.5400  -33.9350   24.1830 N   0  0  0  0  0  0  0  0  0  0  0  0
  -25.8890  -34.9800   23.4210 C   0  0  0  0  0  0  0  0  0  0  0  0
  -26.5680  -34.8660   22.3980 O   0  0  0  0  0  0  0  0  0  0  0  0
  -24.9410  -34.0980   24.9780 H   0  0  0  0  0  0  0  0  0  0  0  0
  -24.1860  -36.7890   23.0300 C   0  0  0  0  0  1  0  0  0  0  0  0
  -25.4080  -36.3750   23.8670 C   0  0  0  0  0  3  0  0  0  0  0  0
  -27.5350  -37.2380   24.7350 C   0  0  0  0  0  1  0  0  0  0  0  0
  -26.4530  -37.4160   23.7710 N   0  0  0  0  0  0  0  0  0  0  0  0
  -26.0530  -38.3410   23.9090 H   0  0  0  0  0  0  0  0  0  0  0  0
  -26.3510  -31.7650   25.1420 C   0  0  1  0  0  0  0  0  0  0  0  0
  -25.2580  -31.5430   26.2120 C   0  0  0  0  0  1  0  0  0  0  0  0
  -26.9220  -30.3800   24.7550 C   0  0  0  0  0  1  0  0  0  0  0  0
  -27.5100  -32.5530   25.7980 C   0  0  0  0  0  1  0  0  0  0  0  0
  1  8  1  0
  1  2  2  0
  2  5  1  0
  3  6  1  0
  4  7  2  0
  5  3  2  0
  6  4  1  0
  6  9  1  0
  8  3  1  0
 10  2  1  0
 10 11  1  0
 12 20  1  0
 13 18  1  0
 14 15  1  0
 14 13  1  0
 16 15  1  0
 16 25  1  0
 16 17  1  0
 18 12  1  0
 18 17  1  0
 19 12  2  0
 20 11  1  0
 20 21  1  0
 22 23  2  0
 23 42  1  0
 24 23  1  0
 24 27  1  0
 25 22  1  0
 25 26  1  0
 26 24  2  0
 27 28  1  0
 28 29  2  0
 30 33  1  0
 30 29  1  0
 31 30  2  0
 32 31  1  0
 32 27  2  0
 33 34  1  0
 34 35  1  0
 35 36  2  0
 37 36  1  0
 37 41  1  0
 38 37  2  0
 39 34  2  0
 39 38  1  0
 40 39  1  0
 42 43  1  0
 43 46  1  0
 43 45  1  0
 44 42  2  0
 47 48  1  0
 47 22  1  0
 49 47  1  0
 50 55  1  0
 50 51  1  0
 50  4  1  0
 51 53  1  0
 52 51  1  0
 54 51  1  0
 56 58  1  0
 56 55  1  0
 57 68  2  0
 58 63  1  0
 59 67  1  0
 59 69  1  0
 60 66  1  0
 60 62  1  0
 61 67  1  0
 62 63  2  0
 62 61  1  0
 64 65  1  0
 64 58  2  0
 65 60  2  0
 66 59  1  0
 67 57  1  0
 69 71  2  0
 70 69  1  0
 72 70  1  0
 73 82  2  0
 73 78  1  0
 74 70  1  0
 74 78  1  0
 75 74  1  0
 76 77  1  0
 76 75  1  0
 77 73  1  0
 78 79  2  0
 79 80  1  0
 81 80  2  0
 82 81  1  0
 83 57  1  0
 83 84  1  0
 83 93  1  0
 84 87  1  0
 85 89  1  0
 85 84  1  0
 86 85  2  0
 89 88  1  0
 91 89  1  0
 91 92  1  0
 91 90  1  0
 93 96  1  1
 93 94  1  0
 95 93  1  0
M  ISO  4  12 100  20 100  55 101  56 101
M  END
>  <TORSDO>  (74) 
F 21

>  <SCORE>  (74) 
-13.980

>  <name>  (74) 
73

>  <ligand_id>  (74) 
73

>  <original_smiles>  (74) 
[H]c1sc(N([H])C(=O)C([H])(C([H])([H])Oc2c([H])c([H])c3c(c2[H])C([H])([H])N(C(=O)C([H])(N([H])C(=O)C([H])(N([H])C([H])([H])[H])C([H])([H])[H])C(C([H])([H])[H])(C([H])([H])[H])C([H])([H])[H])C([H])(C(=O)N([H])C2([H])c4c([H])c([H])c([H])c([H])c4C([H])([H])C([H])([H])C2([H])[H])C3([H])[H])[N+]([H])([H])[H])nc1C([H])([H])C([H])([H])N([H])C(=O)N1C([H])([H])C([H])([H])C([H])([H])C([H])(n2nc(-c3c([H])c([H])c(Oc4c([H])c([H])c(F)c([H])c4F)c([H])c3[H])c(C(=O)N([H])[H])c2N([H])[H])C1([H])[H]

>  <smiles>  (74) 
[H]c1sc(N([H])C(=O)C([H])(C([H])([H])Oc2c([H])c([H])c3c(c2[H])C([H])([H])N(C(=O)C([H])(N([H])C(=O)C([H])(N([H])C([H])([H])[H])C([H])([H])[H])C(C([H])([H])[H])(C([H])([H])[H])C([H])([H])[H])C([H])(C(=O)N([H])C2([H])c4c([H])c([H])c([H])c([H])c4C([H])([H])C([H])([H])C2([H])[H])C3([H])[H])[N+]([H])([H])[H])nc1C([H])([H])C([H])([H])N([H])C(=O)N1C([H])([H])C([H])([H])C([H])([H])C([H])(n2nc(-c3c([H])c([H])c(Oc4c([H])c([H])c(F)c([H])c4F)c([H])c3[H])c(C(=O)N([H])[H])c2N([H])[H])C1([H])[H]

$$$$
74:0:0
     RDKit          3D

100108  0  0  1  0  0  0  0  0999 V2000
  -27.3610  -19.7230   20.1050 C   0  0  0  0  0  3  0  0  0  0  0  0
  -28.7290  -19.7080   20.1210 C   0  0  0  0  0  0  0  0  0  0  0  0
  -28.2760  -17.4020   19.9540 C   0  0  0  0  0  0  0  0  0  0  0  0
  -29.2350  -18.3720   20.0220 N   0  0  0  0  0  0  0  0  0  0  0  0
  -26.6690  -18.1280   19.9870 S   0  0  0  0  0  0  0  0  0  0  0  0
  -29.5390  -20.8870   20.2110 N   0  0  0  0  0  0  0  0  0  0  0  0
  -30.5360  -20.7110   20.3150 H   0  0  0  0  0  0  0  0  0  0  0  0
  -29.0860  -22.1550   20.8590 C   0  0  0  0  0  2  0  0  0  0  0  0
  -30.8750  -23.7430   19.8260 C   0  0  0  0  0  1  0  0  0  0  0  0
  -29.3810  -23.5420   20.1380 C   0  0  0  0  0  3  0  0  0  0  0  0
  -28.8350  -24.7730   20.9720 C   0  0  0  0  0  2  0  0  0  0  0  0
  -29.0410  -26.1320   20.4730 O   0  0  0  0  0  0  0  0  0  0  0  0
  -25.1060  -31.4730   23.2530 C   0  0  0  0  0  0  0  0  0  0  0  0
  -27.9100  -26.9350   20.4030 C   0  0  0  0  0  0  0  0  0  0  0  0
  -24.0000  -30.0460   21.5670 C   0  0  0  0  0  3  0  0  0  0  0  0
  -25.5330  -28.4840   20.2530 C   0  0  0  0  0  0  0  0  0  0  0  0
  -26.5410  -30.3870   21.5170 C   0  0  0  0  0  2  0  0  0  0  0  0
  -26.6610  -29.0040   20.9000 C   0  0  0  0  0  0  0  0  0  0  0  0
  -27.8560  -28.2390   20.9690 C   0  0  0  0  0  3  0  0  0  0  0  0
  -26.7660  -26.4470   19.7400 C   0  0  0  0  0  3  0  0  0  0  0  0
  -25.5820  -27.2070   19.6720 C   0  0  0  0  0  3  0  0  0  0  0  0
  -24.2930  -29.3500   20.2120 C   0  0  0  0  0  2  0  0  0  0  0  0
  -25.2310  -30.6530   22.1710 N   0  0  0  0  0  0  0  0  0  0  0  0
  -23.9940  -31.7520   23.7240 O   0  0  0  0  0  0  0  0  0  0  0  0
  -23.2930  -29.0360   22.5020 C   0  0  0  0  0  0  0  0  0  0  0  0
  -21.9730  -28.8650   22.3160 N   0  0  0  0  0  0  0  0  0  0  0  0
  -23.9300  -28.4110   23.3540 O   0  0  0  0  0  0  0  0  0  0  0  0
  -21.5190  -29.4170   21.6010 H   0  0  0  0  0  0  0  0  0  0  0  0
  -18.5630  -27.7430   22.7120 C   0  0  0  0  0  0  0  0  0  0  0  0
  -21.1160  -27.9410   23.0570 C   0  0  0  0  0  3  0  0  0  0  0  0
  -21.2040  -26.5110   22.4750 C   0  0  0  0  0  2  0  0  0  0  0  0
  -20.1250  -26.2210   21.4280 C   0  0  0  0  0  2  0  0  0  0  0  0
  -18.7290  -26.3940   22.0340 C   0  0  0  0  0  2  0  0  0  0  0  0
  -19.6850  -28.4750   23.1790 C   0  0  0  0  0  0  0  0  0  0  0  0
  -19.4770  -29.7380   23.7750 C   0  0  0  0  0  3  0  0  0  0  0  0
  -18.1800  -30.2680   23.9090 C   0  0  0  0  0  3  0  0  0  0  0  0
  -17.0710  -29.5310   23.4600 C   0  0  0  0  0  3  0  0  0  0  0  0
  -17.2630  -28.2720   22.8640 C   0  0  0  0  0  3  0  0  0  0  0  0
  -26.3530  -32.1170   23.9340 C   0  0  0  0  0  3  0  0  0  0  0  0
  -26.8100  -31.3580   25.2410 C   0  0  1  0  0  0  0  0  0  0  0  0
  -25.6640  -31.1200   26.2500 C   0  0  0  0  0  1  0  0  0  0  0  0
  -27.4220  -29.9820   24.8910 C   0  0  0  0  0  1  0  0  0  0  0  0
  -27.9200  -32.1650   25.9540 C   0  0  0  0  0  1  0  0  0  0  0  0
  -26.0160  -33.5160   24.2360 N   0  0  0  0  0  0  0  0  0  0  0  0
  -26.3860  -34.5660   23.4900 C   0  0  0  0  0  0  0  0  0  0  0  0
  -27.1140  -34.4590   22.5010 O   0  0  0  0  0  0  0  0  0  0  0  0
  -25.3650  -33.6740   24.9910 H   0  0  0  0  0  0  0  0  0  0  0  0
  -24.6640  -36.3420   23.0350 C   0  0  0  0  0  1  0  0  0  0  0  0
  -25.8640  -35.9530   23.9120 C   0  0  0  0  0  3  0  0  0  0  0  0
  -27.9480  -36.8600   24.8440 C   0  0  0  0  0  1  0  0  0  0  0  0
  -26.8930  -37.0130   23.8460 N   0  0  0  0  0  0  0  0  0  0  0  0
  -26.4740  -37.9320   23.9670 H   0  0  0  0  0  0  0  0  0  0  0  0
  -28.4210  -15.8560   20.0480 C   0  0  0  0  0  3  0  0  0  0  0  0
  -30.2440  -14.1170   19.1460 C   0  0  0  0  0  0  0  0  0  0  0  0
  -30.0420  -11.7500   18.4590 C   0  0  0  0  0  2  0  0  0  0  0  0
  -29.0110  -11.5920   17.3240 C   0  0  0  0  0  2  0  0  0  0  0  0
  -27.6030  -11.3790   17.9090 C   0  0  0  0  0  2  0  0  0  0  0  0
  -27.2640  -12.4110   19.0200 C   0  0  0  0  0  3  0  0  0  0  0  0
  -28.4150  -12.5390   20.0420 C   0  0  0  0  0  2  0  0  0  0  0  0
  -29.6270  -12.8990   19.2970 N   0  0  0  0  0  0  0  0  0  0  0  0
  -31.3470  -14.1870   18.6060 O   0  0  0  0  0  0  0  0  0  0  0  0
  -29.6560  -15.3270   19.4080 N   0  0  0  0  0  0  0  0  0  0  0  0
  -30.2370  -16.0860   19.0800 H   0  0  0  0  0  0  0  0  0  0  0  0
  -24.9600  -12.9730   20.0070 C   0  0  0  0  0  0  0  0  0  0  0  0
  -23.9650  -12.1880   20.5260 C   0  0  0  0  0  0  0  0  0  0  0  0
  -24.4570  -10.8490   20.4670 C   0  0  0  0  0  0  0  0  0  0  0  0
  -25.9910  -12.1130   19.6680 N   0  0  0  0  0  0  0  0  0  0  0  0
  -25.7030  -10.8320   20.0100 N   0  0  0  0  0  0  0  0  0  0  0  0
  -23.7910   -9.5740   20.7620 C   0  0  0  0  0  0  0  0  0  0  0  0
  -24.3050   -8.6790   21.7260 C   0  0  0  0  0  3  0  0  0  0  0  0
  -23.6340   -7.4710   22.0110 C   0  0  0  0  0  3  0  0  0  0  0  0
  -22.4380   -7.1480   21.3290 C   0  0  0  0  0  0  0  0  0  0  0  0
  -21.9400   -8.0310   20.3540 C   0  0  0  0  0  3  0  0  0  0  0  0
  -22.6110   -9.2340   20.0700 C   0  0  0  0  0  3  0  0  0  0  0  0
  -21.7330   -5.9830   21.5200 O   0  0  0  0  0  0  0  0  0  0  0  0
  -21.7090   -5.3470   22.7340 C   0  0  0  0  0  0  0  0  0  0  0  0
  -21.2330   -5.9900   23.8990 C   0  0  0  0  0  3  0  0  0  0  0  0
  -21.1600   -5.2830   25.1150 C   0  0  0  0  0  3  0  0  0  0  0  0
  -21.5470   -3.9290   25.1660 C   0  0  0  0  0  0  0  0  0  0  0  0
  -22.0140   -3.2850   24.0060 C   0  0  0  0  0  3  0  0  0  0  0  0
  -22.0920   -3.9930   22.7940 C   0  0  0  0  0  0  0  0  0  0  0  0
  -22.5200   -3.3610   21.6750 F   0  0  0  0  0  0  0  0  0  0  0  0
  -21.4720   -3.2450   26.3300 F   0  0  0  0  0  0  0  0  0  0  0  0
  -22.5960  -12.6450   20.9430 C   0  0  0  0  0  0  0  0  0  0  0  0
  -21.9760  -11.9500   21.8900 N   0  0  0  0  0  0  0  0  0  0  0  0
  -22.0870  -13.6550   20.4590 O   0  0  0  0  0  0  0  0  0  0  0  0
  -22.4000  -11.1300   22.2960 H   0  0  0  0  0  0  0  0  0  0  0  0
  -21.0580  -12.2420   22.2020 H   0  0  0  0  0  0  0  0  0  0  0  0
  -25.0600  -14.3340   19.7620 N   0  0  0  0  0  0  0  0  0  0  0  0
  -24.2200  -14.8930   19.8590 H   0  0  0  0  0  0  0  0  0  0  0  0
  -25.6430  -14.6560   19.0000 H   0  0  0  0  0  0  0  0  0  0  0  0
  -28.2330  -15.3930   21.5410 C   0  0  0  0  0  3  0  0  0  0  0  0
  -29.4780  -14.9590   22.2180 N   0  0  0  0  0  4  0  0  0  0  0  0
  -29.8230  -14.0780   21.8840 H   0  0  0  0  0  0  0  0  0  0  0  0
  -29.3010  -14.8670   23.2040 H   0  0  0  0  0  0  0  0  0  0  0  0
  -30.1920  -15.6580   22.1130 H   0  0  0  0  0  0  0  0  0  0  0  0
  -27.4980  -12.9530   22.2380 C   0  0  0  0  0  1  0  0  0  0  0  0
  -27.0610  -14.3570   21.7330 C   0  0  0  0  0  3  0  0  0  0  0  0
  -24.6830  -14.0600   22.7370 C   0  0  0  0  0  1  0  0  0  0  0  0
  -25.9300  -14.9500   22.6090 C   0  0  0  0  0  2  0  0  0  0  0  0
  1  2  2  0
  2  6  1  0
  3  5  1  0
  3  4  2  0
  3 53  1  0
  4  2  1  0
  5  1  1  0
  6  7  1  0
  6  8  1  0
 10  9  1  0
 10  8  1  0
 10 11  1  0
 12 11  1  0
 13 24  2  0
 14 12  1  0
 14 19  1  0
 15 23  1  0
 15 25  1  0
 16 18  1  0
 17 23  1  0
 18 19  2  0
 18 17  1  0
 20 14  2  0
 21 20  1  0
 21 16  2  0
 22 16  1  0
 22 15  1  0
 23 13  1  0
 25 27  2  0
 26 25  1  0
 28 26  1  0
 29 38  2  0
 29 34  1  0
 30 26  1  0
 30 34  1  0
 31 30  1  0
 32 33  1  0
 32 31  1  0
 33 29  1  0
 34 35  2  0
 35 36  1  0
 37 36  2  0
 38 37  1  0
 39 13  1  0
 39 44  1  0
 39 40  1  0
 40 43  1  1
 40 41  1  0
 42 40  1  0
 44 47  1  0
 45 49  1  0
 45 44  1  0
 46 45  2  0
 49 48  1  0
 51 49  1  0
 51 52  1  0
 51 50  1  0
 53 62  1  0
 53 92  1  0
 54 60  1  0
 54 62  1  0
 55 60  1  0
 56 57  1  0
 56 55  1  0
 58 57  1  0
 58 67  1  0
 58 59  1  0
 60 59  1  0
 61 54  2  0
 63 62  1  0
 64 65  2  0
 65 84  1  0
 66 65  1  0
 66 69  1  0
 67 64  1  0
 67 68  1  0
 68 66  2  0
 69 70  1  0
 70 71  2  0
 72 75  1  0
 72 71  1  0
 73 72  2  0
 74 73  1  0
 74 69  2  0
 75 76  1  0
 76 81  2  0
 76 77  1  0
 77 78  2  0
 78 79  1  0
 79 83  1  0
 80 79  2  0
 81 80  1  0
 82 81  1  0
 84 85  1  0
 85 88  1  0
 85 87  1  0
 86 84  2  0
 89 90  1  0
 89 64  1  0
 91 89  1  0
 92 98  1  0
 92 93  1  0
 93 95  1  0
 94 93  1  0
 96 93  1  0
 98 97  1  0
 98100  1  0
100 99  1  0
M  ISO  4  11 101  12 101  54 100  62 100
M  END
>  <TORSDO>  (75) 
F 25

>  <SCORE>  (75) 
-3.331

>  <name>  (75) 
74

>  <ligand_id>  (75) 
74

>  <original_smiles>  (75) 
[H]c1sc(C([H])(N([H])C(=O)N2C([H])([H])C([H])([H])C([H])([H])C([H])(n3nc(-c4c([H])c([H])c(Oc5c([H])c([H])c(F)c([H])c5F)c([H])c4[H])c(C(=O)N([H])[H])c3N([H])[H])C2([H])[H])C([H])(C([H])(C([H])([H])[H])C([H])([H])C([H])([H])[H])[N+]([H])([H])[H])nc1N([H])C([H])([H])C([H])(C([H])([H])[H])C([H])([H])Oc1c([H])c([H])c2c(c1[H])C([H])([H])N(C(=O)C([H])(N([H])C(=O)C([H])(N([H])C([H])([H])[H])C([H])([H])[H])C(C([H])([H])[H])(C([H])([H])[H])C([H])([H])[H])C([H])(C(=O)N([H])C1([H])c3c([H])c([H])c([H])c([H])c3C([H])([H])C([H])([H])C1([H])[H])C2([H])[H]

>  <smiles>  (75) 
[H]c1sc(C([H])(N([H])C(=O)N2C([H])([H])C([H])([H])C([H])([H])C([H])(n3nc(-c4c([H])c([H])c(Oc5c([H])c([H])c(F)c([H])c5F)c([H])c4[H])c(C(=O)N([H])[H])c3N([H])[H])C2([H])[H])C([H])(C([H])(C([H])([H])[H])C([H])([H])C([H])([H])[H])[N+]([H])([H])[H])nc1N([H])C([H])([H])C([H])(C([H])([H])[H])C([H])([H])Oc1c([H])c([H])c2c(c1[H])C([H])([H])N(C(=O)C([H])(N([H])C(=O)C([H])(N([H])C([H])([H])[H])C([H])([H])[H])C(C([H])([H])[H])(C([H])([H])[H])C([H])([H])[H])C([H])(C(=O)N([H])C1([H])c3c([H])c([H])c([H])c([H])c3C([H])([H])C([H])([H])C1([H])[H])C2([H])[H]

$$$$
75:0:0
     RDKit          3D

 93101  0  0  1  0  0  0  0  0999 V2000
  -29.9820  -22.7490   21.9760 C   0  0  0  0  0  1  0  0  0  0  0  0
  -28.9400  -22.7380   20.8510 C   0  0  0  0  0  3  0  0  0  0  0  0
  -29.7480  -17.9260   19.0660 C   0  0  0  0  0  3  0  0  0  0  0  0
  -29.9740  -18.0640   20.4120 C   0  0  0  0  0  0  0  0  0  0  0  0
  -29.4190  -20.2450   19.8550 C   0  0  0  0  0  0  0  0  0  0  0  0
  -29.7600  -19.4010   20.8510 N   0  0  0  0  0  0  0  0  0  0  0  0
  -29.1870  -21.6330   19.9060 N   0  0  0  0  0  0  0  0  0  0  0  0
  -29.2990  -19.4280   18.3010 S   0  0  0  0  0  0  0  0  0  0  0  0
  -28.9330  -21.9990   18.9880 H   0  0  0  0  0  0  0  0  0  0  0  0
  -30.4500  -16.9520   21.3460 C   0  0  0  0  0  2  0  0  0  0  0  0
  -30.6490  -14.5620   20.4770 C   0  0  0  0  0  0  0  0  0  0  0  0
  -30.3570  -12.3880   19.3240 C   0  0  0  0  0  2  0  0  0  0  0  0
  -29.4040  -12.5650   18.1240 C   0  0  0  0  0  2  0  0  0  0  0  0
  -27.9340  -12.4120   18.5630 C   0  0  0  0  0  2  0  0  0  0  0  0
  -27.5970  -13.2550   19.8220 C   0  0  0  0  0  3  0  0  0  0  0  0
  -28.6620  -13.0630   20.9240 C   0  0  0  0  0  2  0  0  0  0  0  0
  -29.9760  -13.3830   20.3420 N   0  0  0  0  0  0  0  0  0  0  0  0
  -31.7780  -14.7320   20.0120 O   0  0  0  0  0  0  0  0  0  0  0  0
  -29.9630  -15.5820   21.0390 N   0  0  0  0  0  0  0  0  0  0  0  0
  -29.0230  -15.3750   21.3370 H   0  0  0  0  0  0  0  0  0  0  0  0
  -25.2080  -13.8570   20.5580 C   0  0  0  0  0  0  0  0  0  0  0  0
  -24.1440  -13.0810   20.9360 C   0  0  0  0  0  0  0  0  0  0  0  0
  -24.6060  -11.7300   20.8980 C   0  0  0  0  0  0  0  0  0  0  0  0
  -26.2500  -12.9760   20.3140 N   0  0  0  0  0  0  0  0  0  0  0  0
  -25.8940  -11.6930   20.5770 N   0  0  0  0  0  0  0  0  0  0  0  0
  -23.8820  -10.4660   21.0910 C   0  0  0  0  0  0  0  0  0  0  0  0
  -24.3400   -9.4840   21.9950 C   0  0  0  0  0  3  0  0  0  0  0  0
  -23.6170   -8.2850   22.1760 C   0  0  0  0  0  3  0  0  0  0  0  0
  -22.4220   -8.0610   21.4540 C   0  0  0  0  0  0  0  0  0  0  0  0
  -21.9820   -9.0320   20.5370 C   0  0  0  0  0  3  0  0  0  0  0  0
  -22.7050  -10.2220   20.3530 C   0  0  0  0  0  3  0  0  0  0  0  0
  -21.6670   -6.9160   21.5460 O   0  0  0  0  0  0  0  0  0  0  0  0
  -21.6710   -6.1410   22.6790 C   0  0  0  0  0  0  0  0  0  0  0  0
  -21.3230   -6.6670   23.9430 C   0  0  0  0  0  3  0  0  0  0  0  0
  -21.2720   -5.8190   25.0680 C   0  0  0  0  0  3  0  0  0  0  0  0
  -21.5580   -4.4480   24.9310 C   0  0  0  0  0  0  0  0  0  0  0  0
  -21.8980   -3.9220   23.6710 C   0  0  0  0  0  3  0  0  0  0  0  0
  -21.9510   -4.7660   22.5490 C   0  0  0  0  0  0  0  0  0  0  0  0
  -22.2590   -4.2510   21.3350 F   0  0  0  0  0  0  0  0  0  0  0  0
  -21.5020   -3.6320   26.0080 F   0  0  0  0  0  0  0  0  0  0  0  0
  -22.7480  -13.5560   21.2220 C   0  0  0  0  0  0  0  0  0  0  0  0
  -22.0290  -12.8570   22.0940 N   0  0  0  0  0  0  0  0  0  0  0  0
  -22.3030  -14.5810   20.7060 O   0  0  0  0  0  0  0  0  0  0  0  0
  -22.3990  -12.0280   22.5330 H   0  0  0  0  0  0  0  0  0  0  0  0
  -21.0920  -13.1580   22.3250 H   0  0  0  0  0  0  0  0  0  0  0  0
  -25.3730  -15.2270   20.3820 N   0  0  0  0  0  0  0  0  0  0  0  0
  -24.6120  -15.8870   20.4930 H   0  0  0  0  0  0  0  0  0  0  0  0
  -26.2230  -15.6620   20.0470 H   0  0  0  0  0  0  0  0  0  0  0  0
  -28.8790  -24.1220   20.0860 C   0  0  0  0  0  3  0  0  0  0  0  0
  -28.1260  -23.8960   18.9070 O   0  0  0  0  0  0  0  0  0  0  0  0
  -28.0430  -24.7410   18.4760 H   0  0  0  0  0  0  0  0  0  0  0  0
  -28.1990  -25.3180   20.8430 C   0  0  0  0  0  2  0  0  0  0  0  0
  -28.3530  -26.6210   20.2040 O   0  0  0  0  0  0  0  0  0  0  0  0
  -24.6050  -31.8990   23.2410 C   0  0  0  0  0  0  0  0  0  0  0  0
  -27.2160  -27.4120   20.1790 C   0  0  0  0  0  0  0  0  0  0  0  0
  -23.3880  -30.4950   21.6100 C   0  0  0  0  0  3  0  0  0  0  0  0
  -24.8330  -28.9530   20.1760 C   0  0  0  0  0  0  0  0  0  0  0  0
  -25.9150  -30.8460   21.3940 C   0  0  0  0  0  2  0  0  0  0  0  0
  -25.9980  -29.4710   20.7560 C   0  0  0  0  0  0  0  0  0  0  0  0
  -27.1970  -28.7120   20.7460 C   0  0  0  0  0  3  0  0  0  0  0  0
  -26.0360  -26.9230   19.5790 C   0  0  0  0  0  3  0  0  0  0  0  0
  -24.8500  -27.6810   19.5780 C   0  0  0  0  0  3  0  0  0  0  0  0
  -23.5900  -29.8150   20.2300 C   0  0  0  0  0  2  0  0  0  0  0  0
  -24.6550  -31.0950   22.1400 N   0  0  0  0  0  0  0  0  0  0  0  0
  -23.5260  -32.1730   23.7870 O   0  0  0  0  0  0  0  0  0  0  0  0
  -22.7410  -29.4770   22.5780 C   0  0  0  0  0  0  0  0  0  0  0  0
  -21.4150  -29.2940   22.4600 N   0  0  0  0  0  0  0  0  0  0  0  0
  -23.4290  -28.8530   23.3910 O   0  0  0  0  0  0  0  0  0  0  0  0
  -20.9200  -29.8510   21.7770 H   0  0  0  0  0  0  0  0  0  0  0  0
  -18.0460  -28.0880   22.9690 C   0  0  0  0  0  0  0  0  0  0  0  0
  -20.6030  -28.3560   23.2340 C   0  0  0  0  0  3  0  0  0  0  0  0
  -20.7090  -26.9220   22.6650 C   0  0  0  0  0  2  0  0  0  0  0  0
  -19.6050  -26.5920   21.6550 C   0  0  0  0  0  2  0  0  0  0  0  0
  -18.2250  -26.7360   22.3000 C   0  0  0  0  0  2  0  0  0  0  0  0
  -19.1620  -28.8550   23.3940 C   0  0  0  0  0  0  0  0  0  0  0  0
  -18.9410  -30.1220   23.9790 C   0  0  0  0  0  3  0  0  0  0  0  0
  -17.6360  -30.6200   24.1420 C   0  0  0  0  0  3  0  0  0  0  0  0
  -16.5340  -29.8510   23.7350 C   0  0  0  0  0  3  0  0  0  0  0  0
  -16.7390  -28.5860   23.1540 C   0  0  0  0  0  3  0  0  0  0  0  0
  -25.8930  -32.5310   23.8510 C   0  0  0  0  0  3  0  0  0  0  0  0
  -25.5850  -33.9280   24.1890 N   0  0  0  0  0  0  0  0  0  0  0  0
  -25.9120  -34.9830   23.4310 C   0  0  0  0  0  0  0  0  0  0  0  0
  -26.5760  -34.8830   22.3950 O   0  0  0  0  0  0  0  0  0  0  0  0
  -24.9940  -34.0780   24.9930 H   0  0  0  0  0  0  0  0  0  0  0  0
  -24.1780  -36.7720   23.0930 C   0  0  0  0  0  1  0  0  0  0  0  0
  -25.4250  -36.3690   23.8950 C   0  0  0  0  0  3  0  0  0  0  0  0
  -27.5680  -37.2530   24.7080 C   0  0  0  0  0  1  0  0  0  0  0  0
  -26.4560  -37.4240   23.7760 N   0  0  0  0  0  0  0  0  0  0  0  0
  -26.0500  -38.3430   23.9320 H   0  0  0  0  0  0  0  0  0  0  0  0
  -26.4250  -31.7560   25.1180 C   0  0  1  0  0  0  0  0  0  0  0  0
  -25.3450  -31.5140   26.1990 C   0  0  0  0  0  1  0  0  0  0  0  0
  -27.0030  -30.3800   24.7130 C   0  0  0  0  0  1  0  0  0  0  0  0
  -27.5820  -32.5480   25.7700 C   0  0  0  0  0  1  0  0  0  0  0  0
  2  1  1  0
  3  4  2  0
  4  6  1  0
  4 10  1  0
  5  7  1  0
  5  6  2  0
  7  2  1  0
  8  3  1  0
  8  5  1  0
  9  7  1  0
 11 19  1  0
 12 17  1  0
 13 14  1  0
 13 12  1  0
 15 14  1  0
 15 24  1  0
 15 16  1  0
 17 11  1  0
 17 16  1  0
 18 11  2  0
 19 20  1  0
 19 10  1  0
 21 22  2  0
 22 41  1  0
 23 22  1  0
 23 26  1  0
 24 21  1  0
 24 25  1  0
 25 23  2  0
 26 27  1  0
 27 28  2  0
 29 32  1  0
 29 28  1  0
 30 29  2  0
 31 30  1  0
 31 26  2  0
 32 33  1  0
 33 34  1  0
 34 35  2  0
 36 35  1  0
 36 40  1  0
 37 36  2  0
 38 33  2  0
 38 37  1  0
 39 38  1  0
 41 42  1  0
 42 45  1  0
 42 44  1  0
 43 41  2  0
 46 47  1  0
 46 21  1  0
 48 46  1  0
 49 52  1  0
 49  2  1  0
 50 49  1  0
 51 50  1  0
 53 52  1  0
 54 65  2  0
 55 53  1  0
 55 60  1  0
 56 64  1  0
 56 66  1  0
 57 63  1  0
 57 59  1  0
 58 64  1  0
 59 58  1  0
 60 59  2  0
 61 55  2  0
 62 61  1  0
 62 57  2  0
 63 56  1  0
 64 54  1  0
 66 68  2  0
 67 66  1  0
 69 67  1  0
 70 79  2  0
 70 75  1  0
 71 67  1  0
 71 75  1  0
 72 71  1  0
 73 74  1  0
 73 72  1  0
 74 70  1  0
 75 76  2  0
 76 77  1  0
 78 77  2  0
 79 78  1  0
 80 54  1  0
 80 81  1  0
 80 90  1  0
 81 84  1  0
 82 86  1  0
 82 81  1  0
 83 82  2  0
 86 85  1  0
 88 86  1  0
 88 89  1  0
 88 87  1  0
 90 93  1  1
 90 91  1  0
 92 90  1  0
M  ISO  4  11 100  19 100  52 101  53 101
M  END
>  <TORSDO>  (76) 
F 21

>  <SCORE>  (76) 
-13.791

>  <name>  (76) 
75

>  <ligand_id>  (76) 
75

>  <original_smiles>  (76) 
[H]OC([H])(C([H])([H])Oc1c([H])c([H])c2c(c1[H])C([H])([H])N(C(=O)C([H])(N([H])C(=O)C([H])(N([H])C([H])([H])[H])C([H])([H])[H])C(C([H])([H])[H])(C([H])([H])[H])C([H])([H])[H])C([H])(C(=O)N([H])C1([H])c3c([H])c([H])c([H])c([H])c3C([H])([H])C([H])([H])C1([H])[H])C2([H])[H])C([H])(N([H])c1nc(C([H])([H])N([H])C(=O)N2C([H])([H])C([H])([H])C([H])([H])C([H])(n3nc(-c4c([H])c([H])c(Oc5c([H])c([H])c(F)c([H])c5F)c([H])c4[H])c(C(=O)N([H])[H])c3N([H])[H])C2([H])[H])c([H])s1)C([H])([H])[H]

>  <smiles>  (76) 
[H]OC([H])(C([H])([H])Oc1c([H])c([H])c2c(c1[H])C([H])([H])N(C(=O)C([H])(N([H])C(=O)C([H])(N([H])C([H])([H])[H])C([H])([H])[H])C(C([H])([H])[H])(C([H])([H])[H])C([H])([H])[H])C([H])(C(=O)N([H])C1([H])c3c([H])c([H])c([H])c([H])c3C([H])([H])C([H])([H])C1([H])[H])C2([H])[H])C([H])(N([H])c1nc(C([H])([H])N([H])C(=O)N2C([H])([H])C([H])([H])C([H])([H])C([H])(n3nc(-c4c([H])c([H])c(Oc5c([H])c([H])c(F)c([H])c5F)c([H])c4[H])c(C(=O)N([H])[H])c3N([H])[H])C2([H])[H])c([H])s1)C([H])([H])[H]

$$$$
76:0:0
     RDKit          3D

 92100  0  0  1  0  0  0  0  0999 V2000
  -27.8790  -22.3490   21.8160 C   0  0  0  0  0  1  0  0  0  0  0  0
  -28.9100  -22.7130   20.7350 C   0  0  0  0  0  3  0  0  0  0  0  0
  -31.5100  -18.2620   21.1590 C   0  0  0  0  0  3  0  0  0  0  0  0
  -30.2230  -18.1400   20.7020 C   0  0  0  0  0  0  0  0  0  0  0  0
  -30.3740  -20.4410   20.8930 C   0  0  0  0  0  0  0  0  0  0  0  0
  -29.5800  -19.4010   20.5780 N   0  0  0  0  0  0  0  0  0  0  0  0
  -30.0730  -21.8140   20.8640 N   0  0  0  0  0  0  0  0  0  0  0  0
  -31.9790  -19.9260   21.3990 S   0  0  0  0  0  0  0  0  0  0  0  0
  -30.9130  -22.3370   21.0970 H   0  0  0  0  0  0  0  0  0  0  0  0
  -29.5320  -16.8540   20.2590 C   0  0  0  0  0  2  0  0  0  0  0  0
  -30.6080  -14.5840   20.4900 C   0  0  0  0  0  0  0  0  0  0  0  0
  -30.3910  -12.3900   19.3700 C   0  0  0  0  0  2  0  0  0  0  0  0
  -29.4660  -12.5880   18.1490 C   0  0  0  0  0  2  0  0  0  0  0  0
  -27.9820  -12.4510   18.5470 C   0  0  0  0  0  2  0  0  0  0  0  0
  -27.6240  -13.2740   19.8130 C   0  0  0  0  0  3  0  0  0  0  0  0
  -28.6650  -13.0400   20.9360 C   0  0  0  0  0  2  0  0  0  0  0  0
  -29.9970  -13.3660   20.4010 N   0  0  0  0  0  0  0  0  0  0  0  0
  -31.7170  -14.8070   19.9940 O   0  0  0  0  0  0  0  0  0  0  0  0
  -29.8310  -15.5830   20.9630 N   0  0  0  0  0  0  0  0  0  0  0  0
  -29.0640  -15.2580   21.5320 H   0  0  0  0  0  0  0  0  0  0  0  0
  -25.2140  -13.8930   20.4690 C   0  0  0  0  0  0  0  0  0  0  0  0
  -24.1360  -13.1270   20.8290 C   0  0  0  0  0  0  0  0  0  0  0  0
  -24.5930  -11.7740   20.8160 C   0  0  0  0  0  0  0  0  0  0  0  0
  -26.2610  -13.0060   20.2660 N   0  0  0  0  0  0  0  0  0  0  0  0
  -25.8890  -11.7280   20.5320 N   0  0  0  0  0  0  0  0  0  0  0  0
  -23.8580  -10.5170   21.0080 C   0  0  0  0  0  0  0  0  0  0  0  0
  -24.2740   -9.5560   21.9560 C   0  0  0  0  0  3  0  0  0  0  0  0
  -23.5420   -8.3620   22.1340 C   0  0  0  0  0  3  0  0  0  0  0  0
  -22.3790   -8.1220   21.3640 C   0  0  0  0  0  0  0  0  0  0  0  0
  -21.9820   -9.0710   20.4060 C   0  0  0  0  0  3  0  0  0  0  0  0
  -22.7140  -10.2560   20.2250 C   0  0  0  0  0  3  0  0  0  0  0  0
  -21.6190   -6.9790   21.4510 O   0  0  0  0  0  0  0  0  0  0  0  0
  -21.5570   -6.2430   22.6060 C   0  0  0  0  0  0  0  0  0  0  0  0
  -21.1150   -6.8030   23.8250 C   0  0  0  0  0  3  0  0  0  0  0  0
  -21.0010   -5.9920   24.9730 C   0  0  0  0  0  3  0  0  0  0  0  0
  -21.3170   -4.6220   24.9020 C   0  0  0  0  0  0  0  0  0  0  0  0
  -21.7490   -4.0610   23.6870 C   0  0  0  0  0  3  0  0  0  0  0  0
  -21.8660   -4.8690   22.5430 C   0  0  0  0  0  0  0  0  0  0  0  0
  -22.2650   -4.3180   21.3710 F   0  0  0  0  0  0  0  0  0  0  0  0
  -21.1980   -3.8410   26.0010 F   0  0  0  0  0  0  0  0  0  0  0  0
  -22.7360  -13.6130   21.0720 C   0  0  0  0  0  0  0  0  0  0  0  0
  -21.9890  -12.9260   21.9310 N   0  0  0  0  0  0  0  0  0  0  0  0
  -22.3090  -14.6340   20.5350 O   0  0  0  0  0  0  0  0  0  0  0  0
  -22.3450  -12.1000   22.3890 H   0  0  0  0  0  0  0  0  0  0  0  0
  -21.0480  -13.2330   22.1320 H   0  0  0  0  0  0  0  0  0  0  0  0
  -25.3830  -15.2610   20.2790 N   0  0  0  0  0  0  0  0  0  0  0  0
  -24.6110  -15.9140   20.3560 H   0  0  0  0  0  0  0  0  0  0  0  0
  -26.2320  -15.6960   19.9400 H   0  0  0  0  0  0  0  0  0  0  0  0
  -29.3340  -24.2440   20.7300 C   0  0  0  0  0  2  0  0  0  0  0  0
  -28.0830  -25.6500   22.4700 C   0  0  0  0  0  1  0  0  0  0  0  0
  -28.2140  -25.3330   20.9620 C   0  0  0  0  0  3  0  0  0  0  0  0
  -28.4040  -26.6230   20.2920 O   0  0  0  0  0  0  0  0  0  0  0  0
  -24.5960  -31.8970   23.2430 C   0  0  0  0  0  0  0  0  0  0  0  0
  -27.2680  -27.4240   20.2170 C   0  0  0  0  0  0  0  0  0  0  0  0
  -23.4010  -30.4880   21.5980 C   0  0  0  0  0  3  0  0  0  0  0  0
  -24.8720  -28.9550   20.1780 C   0  0  0  0  0  0  0  0  0  0  0  0
  -25.9270  -30.8550   21.4080 C   0  0  0  0  0  2  0  0  0  0  0  0
  -26.0270  -29.4790   20.7750 C   0  0  0  0  0  0  0  0  0  0  0  0
  -27.2280  -28.7250   20.7850 C   0  0  0  0  0  3  0  0  0  0  0  0
  -26.1000  -26.9360   19.5910 C   0  0  0  0  0  3  0  0  0  0  0  0
  -24.9090  -27.6880   19.5710 C   0  0  0  0  0  3  0  0  0  0  0  0
  -23.6200  -29.8080   20.2190 C   0  0  0  0  0  2  0  0  0  0  0  0
  -24.6600  -31.0940   22.1430 N   0  0  0  0  0  0  0  0  0  0  0  0
  -23.5120  -32.1660   23.7800 O   0  0  0  0  0  0  0  0  0  0  0  0
  -22.7470  -29.4680   22.5590 C   0  0  0  0  0  0  0  0  0  0  0  0
  -21.4230  -29.2830   22.4290 N   0  0  0  0  0  0  0  0  0  0  0  0
  -23.4300  -28.8480   23.3780 O   0  0  0  0  0  0  0  0  0  0  0  0
  -20.9310  -29.8360   21.7400 H   0  0  0  0  0  0  0  0  0  0  0  0
  -18.0520  -28.0770   22.9210 C   0  0  0  0  0  0  0  0  0  0  0  0
  -20.6080  -28.3430   23.1990 C   0  0  0  0  0  3  0  0  0  0  0  0
  -20.7160  -26.9100   22.6260 C   0  0  0  0  0  2  0  0  0  0  0  0
  -19.6170  -26.5850   21.6100 C   0  0  0  0  0  2  0  0  0  0  0  0
  -18.2340  -26.7260   22.2490 C   0  0  0  0  0  2  0  0  0  0  0  0
  -19.1670  -28.8420   23.3540 C   0  0  0  0  0  0  0  0  0  0  0  0
  -18.9450  -30.1060   23.9430 C   0  0  0  0  0  3  0  0  0  0  0  0
  -17.6390  -30.6060   24.1040 C   0  0  0  0  0  3  0  0  0  0  0  0
  -16.5370  -29.8370   23.6890 C   0  0  0  0  0  3  0  0  0  0  0  0
  -16.7440  -28.5760   23.1030 C   0  0  0  0  0  3  0  0  0  0  0  0
  -25.8770  -32.5370   23.8640 C   0  0  0  0  0  3  0  0  0  0  0  0
  -26.3950  -31.7710   25.1430 C   0  0  1  0  0  0  0  0  0  0  0  0
  -25.3030  -31.5330   26.2110 C   0  0  0  0  0  1  0  0  0  0  0  0
  -26.9830  -30.3940   24.7550 C   0  0  0  0  0  1  0  0  0  0  0  0
  -27.5390  -32.5720   25.8070 C   0  0  0  0  0  1  0  0  0  0  0  0
  -25.5610  -33.9350   24.1860 N   0  0  0  0  0  0  0  0  0  0  0  0
  -25.8950  -34.9860   23.4250 C   0  0  0  0  0  0  0  0  0  0  0  0
  -26.5720  -34.8820   22.3990 O   0  0  0  0  0  0  0  0  0  0  0  0
  -24.9620  -34.0910   24.9830 H   0  0  0  0  0  0  0  0  0  0  0  0
  -24.1680  -36.7780   23.0460 C   0  0  0  0  0  1  0  0  0  0  0  0
  -25.4000  -36.3750   23.8730 C   0  0  0  0  0  3  0  0  0  0  0  0
  -27.5230  -37.2670   24.7270 C   0  0  0  0  0  1  0  0  0  0  0  0
  -26.4320  -37.4300   23.7700 N   0  0  0  0  0  0  0  0  0  0  0  0
  -26.0220  -38.3500   23.9100 H   0  0  0  0  0  0  0  0  0  0  0  0
  2  7  1  0
  2  1  1  0
  3  8  1  0
  4  3  2  0
  5  8  1  0
  6  4  1  0
  6  5  2  0
  7  5  1  0
  7  9  1  0
 10  4  1  0
 10 19  1  0
 11 19  1  0
 12 17  1  0
 13 14  1  0
 13 12  1  0
 15 14  1  0
 15 24  1  0
 15 16  1  0
 17 11  1  0
 17 16  1  0
 18 11  2  0
 19 20  1  0
 21 22  2  0
 22 41  1  0
 23 22  1  0
 23 26  1  0
 24 21  1  0
 24 25  1  0
 25 23  2  0
 26 27  1  0
 27 28  2  0
 29 32  1  0
 29 28  1  0
 30 29  2  0
 31 30  1  0
 31 26  2  0
 32 33  1  0
 33 34  1  0
 34 35  2  0
 36 35  1  0
 36 40  1  0
 37 36  2  0
 38 33  2  0
 38 37  1  0
 39 38  1  0
 41 42  1  0
 42 45  1  0
 42 44  1  0
 43 41  2  0
 46 47  1  0
 46 21  1  0
 48 46  1  0
 49  2  1  0
 49 51  1  0
 51 50  1  0
 52 51  1  0
 53 64  2  0
 54 52  1  0
 54 59  1  0
 55 63  1  0
 55 65  1  0
 56 62  1  0
 56 58  1  0
 57 63  1  0
 58 59  2  0
 58 57  1  0
 60 54  2  0
 61 60  1  0
 61 56  2  0
 62 55  1  0
 63 53  1  0
 65 67  2  0
 66 65  1  0
 68 66  1  0
 69 78  2  0
 69 74  1  0
 70 66  1  0
 70 74  1  0
 71 70  1  0
 72 73  1  0
 72 71  1  0
 73 69  1  0
 74 75  2  0
 75 76  1  0
 77 76  2  0
 78 77  1  0
 79 53  1  0
 79 84  1  0
 79 80  1  0
 80 83  1  1
 80 81  1  0
 82 80  1  0
 84 87  1  0
 85 89  1  0
 85 84  1  0
 86 85  2  0
 89 88  1  0
 91 89  1  0
 91 92  1  0
 91 90  1  0
M  ISO  4  11 100  19 100  51 101  52 101
M  END
>  <TORSDO>  (77) 
F 20

>  <SCORE>  (77) 
-14.031

>  <name>  (77) 
76

>  <ligand_id>  (77) 
76

>  <original_smiles>  (77) 
[H]c1sc(N([H])C([H])(C([H])([H])[H])C([H])([H])C([H])(Oc2c([H])c([H])c3c(c2[H])C([H])([H])N(C(=O)C([H])(N([H])C(=O)C([H])(N([H])C([H])([H])[H])C([H])([H])[H])C(C([H])([H])[H])(C([H])([H])[H])C([H])([H])[H])C([H])(C(=O)N([H])C2([H])c4c([H])c([H])c([H])c([H])c4C([H])([H])C([H])([H])C2([H])[H])C3([H])[H])C([H])([H])[H])nc1C([H])([H])N([H])C(=O)N1C([H])([H])C([H])([H])C([H])([H])C([H])(n2nc(-c3c([H])c([H])c(Oc4c([H])c([H])c(F)c([H])c4F)c([H])c3[H])c(C(=O)N([H])[H])c2N([H])[H])C1([H])[H]

>  <smiles>  (77) 
[H]c1sc(N([H])C([H])(C([H])([H])[H])C([H])([H])C([H])(Oc2c([H])c([H])c3c(c2[H])C([H])([H])N(C(=O)C([H])(N([H])C(=O)C([H])(N([H])C([H])([H])[H])C([H])([H])[H])C(C([H])([H])[H])(C([H])([H])[H])C([H])([H])[H])C([H])(C(=O)N([H])C2([H])c4c([H])c([H])c([H])c([H])c4C([H])([H])C([H])([H])C2([H])[H])C3([H])[H])C([H])([H])[H])nc1C([H])([H])N([H])C(=O)N1C([H])([H])C([H])([H])C([H])([H])C([H])(n2nc(-c3c([H])c([H])c(Oc4c([H])c([H])c(F)c([H])c4F)c([H])c3[H])c(C(=O)N([H])[H])c2N([H])[H])C1([H])[H]

$$$$
77:0:0
     RDKit          3D

 94102  0  0  1  0  0  0  0  0999 V2000
  -29.9850  -21.4940   20.3860 C   0  0  0  0  0  2  0  0  0  0  0  0
  -29.6700  -20.0810   19.7590 C   0  0  0  0  0  2  0  0  0  0  0  0
  -30.8790  -14.4980   19.7750 C   0  0  0  0  0  0  0  0  0  0  0  0
  -30.4290  -12.4040   18.5170 C   0  0  0  0  0  2  0  0  0  0  0  0
  -29.3500  -12.6830   17.4480 C   0  0  0  0  0  2  0  0  0  0  0  0
  -27.9320  -12.5390   18.0370 C   0  0  0  0  0  2  0  0  0  0  0  0
  -27.7660  -13.3060   19.3760 C   0  0  0  0  0  3  0  0  0  0  0  0
  -28.9330  -12.9820   20.3350 C   0  0  0  0  0  2  0  0  0  0  0  0
  -30.1980  -13.3190   19.6510 N   0  0  0  0  0  0  0  0  0  0  0  0
  -31.8860  -14.7530   19.1050 O   0  0  0  0  0  0  0  0  0  0  0  0
  -30.3950  -16.7690   20.8380 C   0  0  0  0  0  0  0  0  0  0  0  0
  -29.9990  -18.5530   21.8100 C   0  0  0  0  0  3  0  0  0  0  0  0
  -30.2180  -17.2770   22.0940 N   0  0  0  0  0  0  0  0  0  0  0  0
  -30.3210  -17.6680   19.8420 N   0  0  0  0  0  2  0  0  0  0  0  0
  -30.0660  -18.8540   20.5010 N   0  0  0  0  0  0  0  0  0  0  0  0
  -29.6510  -19.4810   22.7660 N   0  0  0  0  0  0  0  0  0  0  0  0
  -30.3720  -15.3440   20.7000 N   0  0  0  0  0  0  0  0  0  0  0  0
  -29.5090  -19.2220   23.7350 H   0  0  0  0  0  0  0  0  0  0  0  0
  -29.3770  -20.4210   22.5130 H   0  0  0  0  0  0  0  0  0  0  0  0
  -29.7420  -14.8900   21.3400 H   0  0  0  0  0  0  0  0  0  0  0  0
  -25.4790  -13.9340   20.3780 C   0  0  0  0  0  0  0  0  0  0  0  0
  -24.4380  -13.1700   20.8320 C   0  0  0  0  0  0  0  0  0  0  0  0
  -24.8530  -11.8110   20.6860 C   0  0  0  0  0  0  0  0  0  0  0  0
  -26.4660  -13.0400   19.9890 N   0  0  0  0  0  0  0  0  0  0  0  0
  -26.0980  -11.7550   20.2290 N   0  0  0  0  0  0  0  0  0  0  0  0
  -24.1170  -10.5590   20.9000 C   0  0  0  0  0  0  0  0  0  0  0  0
  -24.5750   -9.5790   21.8080 C   0  0  0  0  0  3  0  0  0  0  0  0
  -23.8410   -8.3900   22.0110 C   0  0  0  0  0  3  0  0  0  0  0  0
  -22.6330   -8.1740   21.3050 C   0  0  0  0  0  0  0  0  0  0  0  0
  -22.1930   -9.1430   20.3850 C   0  0  0  0  0  3  0  0  0  0  0  0
  -22.9280  -10.3230   20.1820 C   0  0  0  0  0  3  0  0  0  0  0  0
  -21.8660   -7.0390   21.4190 O   0  0  0  0  0  0  0  0  0  0  0  0
  -21.7810   -6.3450   22.5980 C   0  0  0  0  0  0  0  0  0  0  0  0
  -21.3290   -6.9520   23.7910 C   0  0  0  0  0  3  0  0  0  0  0  0
  -21.1880   -6.1840   24.9620 C   0  0  0  0  0  3  0  0  0  0  0  0
  -21.4880   -4.8080   24.9440 C   0  0  0  0  0  0  0  0  0  0  0  0
  -21.9340   -4.2010   23.7570 C   0  0  0  0  0  3  0  0  0  0  0  0
  -22.0750   -4.9670   22.5870 C   0  0  0  0  0  0  0  0  0  0  0  0
  -22.4840   -4.3710   21.4400 F   0  0  0  0  0  0  0  0  0  0  0  0
  -21.3470   -4.0680   26.0690 F   0  0  0  0  0  0  0  0  0  0  0  0
  -23.0950  -13.6670   21.2870 C   0  0  0  0  0  0  0  0  0  0  0  0
  -22.4630  -12.9590   22.2160 N   0  0  0  0  0  0  0  0  0  0  0  0
  -22.6210  -14.7160   20.8530 O   0  0  0  0  0  0  0  0  0  0  0  0
  -22.8630  -12.1100   22.5900 H   0  0  0  0  0  0  0  0  0  0  0  0
  -21.5670  -13.2720   22.5620 H   0  0  0  0  0  0  0  0  0  0  0  0
  -25.6600  -15.3080   20.2430 N   0  0  0  0  0  0  0  0  0  0  0  0
  -24.9210  -15.9690   20.4530 H   0  0  0  0  0  0  0  0  0  0  0  0
  -26.4720  -15.7410   19.8220 H   0  0  0  0  0  0  0  0  0  0  0  0
  -29.2330  -22.6870   19.6940 C   0  0  0  0  0  3  0  0  0  0  0  0
  -29.6380  -22.7120   18.3350 O   0  0  0  0  0  0  0  0  0  0  0  0
  -29.0150  -23.2420   17.8440 H   0  0  0  0  0  0  0  0  0  0  0  0
  -29.4170  -24.1310   20.2990 C   0  0  0  0  0  2  0  0  0  0  0  0
  -28.3370  -25.1590   19.8220 C   0  0  0  0  0  2  0  0  0  0  0  0
  -28.4780  -26.5610   20.2040 O   0  0  0  0  0  0  0  0  0  0  0  0
  -24.6870  -31.8380   23.2380 C   0  0  0  0  0  0  0  0  0  0  0  0
  -27.3300  -27.3540   20.1510 C   0  0  0  0  0  0  0  0  0  0  0  0
  -23.4880  -30.4440   21.5890 C   0  0  0  0  0  3  0  0  0  0  0  0
  -24.9450  -28.9140   20.1590 C   0  0  0  0  0  0  0  0  0  0  0  0
  -26.0230  -30.7850   21.4090 C   0  0  0  0  0  2  0  0  0  0  0  0
  -26.1080  -29.4150   20.7570 C   0  0  0  0  0  0  0  0  0  0  0  0
  -27.3020  -28.6450   20.7480 C   0  0  0  0  0  3  0  0  0  0  0  0
  -26.1420  -26.8980   19.5270 C   0  0  0  0  0  3  0  0  0  0  0  0
  -24.9610  -27.6570   19.5390 C   0  0  0  0  0  3  0  0  0  0  0  0
  -23.7040  -29.7770   20.2060 C   0  0  0  0  0  2  0  0  0  0  0  0
  -24.7510  -31.0380   22.1360 N   0  0  0  0  0  0  0  0  0  0  0  0
  -23.6030  -32.1090   23.7730 O   0  0  0  0  0  0  0  0  0  0  0  0
  -22.8310  -29.4170   22.5420 C   0  0  0  0  0  0  0  0  0  0  0  0
  -21.5100  -29.2220   22.3970 N   0  0  0  0  0  0  0  0  0  0  0  0
  -23.5080  -28.8010   23.3690 O   0  0  0  0  0  0  0  0  0  0  0  0
  -21.0230  -29.7710   21.7020 H   0  0  0  0  0  0  0  0  0  0  0  0
  -18.1450  -27.9720   22.8380 C   0  0  0  0  0  0  0  0  0  0  0  0
  -20.6920  -28.2780   23.1600 C   0  0  0  0  0  3  0  0  0  0  0  0
  -20.8310  -26.8420   22.6040 C   0  0  0  0  0  2  0  0  0  0  0  0
  -19.7570  -26.4890   21.5700 C   0  0  0  0  0  2  0  0  0  0  0  0
  -18.3590  -26.6180   22.1820 C   0  0  0  0  0  2  0  0  0  0  0  0
  -19.2420  -28.7580   23.2840 C   0  0  0  0  0  0  0  0  0  0  0  0
  -18.9880  -30.0230   23.8550 C   0  0  0  0  0  3  0  0  0  0  0  0
  -17.6730  -30.5050   23.9860 C   0  0  0  0  0  3  0  0  0  0  0  0
  -16.5900  -29.7160   23.5580 C   0  0  0  0  0  3  0  0  0  0  0  0
  -16.8270  -28.4520   22.9900 C   0  0  0  0  0  3  0  0  0  0  0  0
  -25.9700  -32.4710   23.8630 C   0  0  0  0  0  3  0  0  0  0  0  0
  -25.6470  -33.8570   24.2240 N   0  0  0  0  0  0  0  0  0  0  0  0
  -25.9560  -34.9280   23.4800 C   0  0  0  0  0  0  0  0  0  0  0  0
  -26.6120  -34.8520   22.4380 O   0  0  0  0  0  0  0  0  0  0  0  0
  -25.0640  -33.9890   25.0380 H   0  0  0  0  0  0  0  0  0  0  0  0
  -24.1990  -36.7030   23.1850 C   0  0  0  0  0  1  0  0  0  0  0  0
  -25.4570  -36.3010   23.9710 C   0  0  0  0  0  3  0  0  0  0  0  0
  -27.5930  -37.1980   24.7850 C   0  0  0  0  0  1  0  0  0  0  0  0
  -26.4740  -37.3700   23.8610 N   0  0  0  0  0  0  0  0  0  0  0  0
  -26.0590  -38.2820   24.0320 H   0  0  0  0  0  0  0  0  0  0  0  0
  -26.5040  -31.6780   25.1190 C   0  0  1  0  0  0  0  0  0  0  0  0
  -25.4210  -31.4020   26.1880 C   0  0  0  0  0  1  0  0  0  0  0  0
  -27.1040  -30.3180   24.6940 C   0  0  0  0  0  1  0  0  0  0  0  0
  -27.6480  -32.4730   25.7920 C   0  0  0  0  0  1  0  0  0  0  0  0
  2  1  1  0
  2 15  1  0
  3 17  1  0
  4  9  1  0
  5  6  1  0
  5  4  1  0
  7  6  1  0
  7 24  1  0
  7  8  1  0
  9  3  1  0
  9  8  1  0
 10  3  2  0
 11 13  2  0
 12 13  1  0
 12 16  1  0
 14 15  1  0
 14 11  1  0
 15 12  1  0
 16 18  1  0
 17 11  1  0
 17 20  1  0
 19 16  1  0
 21 22  2  0
 22 41  1  0
 23 22  1  0
 23 26  1  0
 24 25  1  0
 24 21  1  0
 25 23  2  0
 26 27  1  0
 27 28  2  0
 29 32  1  0
 29 28  1  0
 30 29  2  0
 31 30  1  0
 31 26  2  0
 32 33  1  0
 33 34  1  0
 34 35  2  0
 36 35  1  0
 36 40  1  0
 37 36  2  0
 38 33  2  0
 38 37  1  0
 39 38  1  0
 41 42  1  0
 42 45  1  0
 42 44  1  0
 43 41  2  0
 46 21  1  0
 46 47  1  0
 48 46  1  0
 49 52  1  0
 49  1  1  0
 50 49  1  0
 51 50  1  0
 53 54  1  0
 53 52  1  0
 55 66  2  0
 56 54  1  0
 56 61  1  0
 57 65  1  0
 57 67  1  0
 58 64  1  0
 58 60  1  0
 59 65  1  0
 60 59  1  0
 61 60  2  0
 62 63  1  0
 62 56  2  0
 63 58  2  0
 64 57  1  0
 65 55  1  0
 67 69  2  0
 68 67  1  0
 70 68  1  0
 71 80  2  0
 71 76  1  0
 72 68  1  0
 72 76  1  0
 73 72  1  0
 74 75  1  0
 74 73  1  0
 75 71  1  0
 76 77  2  0
 77 78  1  0
 79 78  2  0
 80 79  1  0
 81 55  1  0
 81 82  1  0
 81 91  1  0
 82 85  1  0
 83 87  1  0
 83 82  1  0
 84 83  2  0
 87 86  1  0
 89 87  1  0
 89 90  1  0
 89 88  1  0
 91 94  1  1
 91 92  1  0
 93 91  1  0
M  ISO  4   3 100  17 100  53 101  54 101
M  END
>  <TORSDO>  (78) 
F 21

>  <SCORE>  (78) 
-11.567

>  <name>  (78) 
77

>  <ligand_id>  (78) 
77

>  <original_smiles>  (78) 
[H]OC([H])(C([H])([H])C([H])([H])Oc1c([H])c([H])c2c(c1[H])C([H])([H])N(C(=O)C([H])(N([H])C(=O)C([H])(N([H])C([H])([H])[H])C([H])([H])[H])C(C([H])([H])[H])(C([H])([H])[H])C([H])([H])[H])C([H])(C(=O)N([H])C1([H])c3c([H])c([H])c([H])c([H])c3C([H])([H])C([H])([H])C1([H])[H])C2([H])[H])C([H])([H])C([H])([H])n1nc(N([H])C(=O)N2C([H])([H])C([H])([H])C([H])([H])C([H])(n3nc(-c4c([H])c([H])c(Oc5c([H])c([H])c(F)c([H])c5F)c([H])c4[H])c(C(=O)N([H])[H])c3N([H])[H])C2([H])[H])nc1N([H])[H]

>  <smiles>  (78) 
[H]OC([H])(C([H])([H])C([H])([H])Oc1c([H])c([H])c2c(c1[H])C([H])([H])N(C(=O)C([H])(N([H])C(=O)C([H])(N([H])C([H])([H])[H])C([H])([H])[H])C(C([H])([H])[H])(C([H])([H])[H])C([H])([H])[H])C([H])(C(=O)N([H])C1([H])c3c([H])c([H])c([H])c([H])c3C([H])([H])C([H])([H])C1([H])[H])C2([H])[H])C([H])([H])C([H])([H])n1nc(N([H])C(=O)N2C([H])([H])C([H])([H])C([H])([H])C([H])(n3nc(-c4c([H])c([H])c(Oc5c([H])c([H])c(F)c([H])c5F)c([H])c4[H])c(C(=O)N([H])[H])c3N([H])[H])C2([H])[H])nc1N([H])[H]

$$$$
78:0:0
     RDKit          3D

 98106  0  0  1  0  0  0  0  0999 V2000
  -29.4680  -23.1880   19.8970 C   0  0  0  0  0  3  0  0  0  0  0  0
  -29.9780  -21.8610   20.3870 N   0  0  0  0  0  4  0  0  0  0  0  0
  -30.7540  -21.6790   19.7590 H   0  0  0  0  0  0  0  0  0  0  0  0
  -30.3730  -21.9270   21.3090 H   0  0  0  0  0  0  0  0  0  0  0  0
  -29.0990  -20.6570   20.2850 C   0  0  0  0  0  2  0  0  0  0  0  0
  -29.2530  -18.0200   20.6480 C   0  0  0  0  0  3  0  0  0  0  0  0
  -29.8470  -19.3200   20.4050 C   0  0  0  0  0  0  0  0  0  0  0  0
  -30.1470  -16.9660   20.6410 C   0  0  0  0  0  0  0  0  0  0  0  0
  -31.1590  -19.2860   20.2550 N   0  0  0  0  0  0  0  0  0  0  0  0
  -31.7110  -17.6960   20.3760 S   0  0  0  0  0  0  0  0  0  0  0  0
  -30.6530  -14.5560   20.4300 C   0  0  0  0  0  0  0  0  0  0  0  0
  -30.3810  -12.3620   19.3300 C   0  0  0  0  0  2  0  0  0  0  0  0
  -29.4430  -12.5420   18.1180 C   0  0  0  0  0  2  0  0  0  0  0  0
  -27.9680  -12.3960   18.5450 C   0  0  0  0  0  2  0  0  0  0  0  0
  -27.6180  -13.2450   19.7980 C   0  0  0  0  0  3  0  0  0  0  0  0
  -28.6740  -13.0540   20.9110 C   0  0  0  0  0  2  0  0  0  0  0  0
  -29.9950  -13.3640   20.3380 N   0  0  0  0  0  0  0  0  0  0  0  0
  -31.8130  -14.6850   20.0290 O   0  0  0  0  0  0  0  0  0  0  0  0
  -29.8950  -15.6210   20.8010 N   0  0  0  0  0  0  0  0  0  0  0  0
  -28.9610  -15.3790   21.0920 H   0  0  0  0  0  0  0  0  0  0  0  0
  -25.2180  -13.8470   20.5000 C   0  0  0  0  0  0  0  0  0  0  0  0
  -24.1510  -13.0740   20.8700 C   0  0  0  0  0  0  0  0  0  0  0  0
  -24.6150  -11.7240   20.8480 C   0  0  0  0  0  0  0  0  0  0  0  0
  -26.2660  -12.9660   20.2750 N   0  0  0  0  0  0  0  0  0  0  0  0
  -25.9050  -11.6850   20.5410 N   0  0  0  0  0  0  0  0  0  0  0  0
  -23.8920  -10.4610   21.0400 C   0  0  0  0  0  0  0  0  0  0  0  0
  -24.3270   -9.4950   21.9750 C   0  0  0  0  0  3  0  0  0  0  0  0
  -23.6030   -8.2970   22.1560 C   0  0  0  0  0  3  0  0  0  0  0  0
  -22.4300   -8.0540   21.4010 C   0  0  0  0  0  0  0  0  0  0  0  0
  -22.0150   -9.0070   20.4560 C   0  0  0  0  0  3  0  0  0  0  0  0
  -22.7390  -10.1980   20.2730 C   0  0  0  0  0  3  0  0  0  0  0  0
  -21.6810   -6.9050   21.4890 O   0  0  0  0  0  0  0  0  0  0  0  0
  -21.6410   -6.1590   22.6400 C   0  0  0  0  0  0  0  0  0  0  0  0
  -21.2190   -6.7080   23.8700 C   0  0  0  0  0  3  0  0  0  0  0  0
  -21.1260   -5.8870   25.0120 C   0  0  0  0  0  3  0  0  0  0  0  0
  -21.4450   -4.5200   24.9250 C   0  0  0  0  0  0  0  0  0  0  0  0
  -21.8620   -3.9700   23.7000 C   0  0  0  0  0  3  0  0  0  0  0  0
  -21.9560   -4.7890   22.5600 C   0  0  0  0  0  0  0  0  0  0  0  0
  -22.3380   -4.2490   21.3780 F   0  0  0  0  0  0  0  0  0  0  0  0
  -21.3500   -3.7310   26.0200 F   0  0  0  0  0  0  0  0  0  0  0  0
  -22.7510  -13.5490   21.1330 C   0  0  0  0  0  0  0  0  0  0  0  0
  -22.0180  -12.8540   21.9960 N   0  0  0  0  0  0  0  0  0  0  0  0
  -22.3130  -14.5730   20.6100 O   0  0  0  0  0  0  0  0  0  0  0  0
  -22.3810  -12.0270   22.4460 H   0  0  0  0  0  0  0  0  0  0  0  0
  -21.0780  -13.1570   22.2110 H   0  0  0  0  0  0  0  0  0  0  0  0
  -25.3830  -15.2170   20.3160 N   0  0  0  0  0  0  0  0  0  0  0  0
  -24.6110  -15.8700   20.4070 H   0  0  0  0  0  0  0  0  0  0  0  0
  -26.2200  -15.6480   19.9470 H   0  0  0  0  0  0  0  0  0  0  0  0
  -30.5560  -23.6540   18.9000 C   0  0  0  0  0  0  0  0  0  0  0  0
  -31.4460  -22.8840   18.5150 O   0  0  0  0  0  0  0  0  0  0  0  0
  -30.5020  -25.0950   18.3640 C   0  0  0  0  0  2  0  0  0  0  0  0
  -33.0070  -25.7010   18.5700 C   0  0  0  0  0  1  0  0  0  0  0  0
  -31.5050  -26.9750   17.0000 C   0  0  0  0  0  1  0  0  0  0  0  0
  -31.7770  -25.6050   17.6430 C   0  0  0  0  0  3  0  0  0  0  0  0
  -29.2400  -24.2510   21.0350 C   0  0  0  0  0  2  0  0  0  0  0  0
  -27.4460  -25.5020   22.3080 C   0  0  0  0  0  1  0  0  0  0  0  0
  -28.0400  -25.2650   20.8960 C   0  0  0  0  0  3  0  0  0  0  0  0
  -28.3270  -26.5690   20.2840 O   0  0  0  0  0  0  0  0  0  0  0  0
  -24.5750  -31.8670   23.2220 C   0  0  0  0  0  0  0  0  0  0  0  0
  -27.2220  -27.4040   20.1540 C   0  0  0  0  0  0  0  0  0  0  0  0
  -23.3770  -30.4700   21.5740 C   0  0  0  0  0  3  0  0  0  0  0  0
  -24.8370  -28.9440   20.1380 C   0  0  0  0  0  0  0  0  0  0  0  0
  -25.9080  -30.8250   21.3850 C   0  0  0  0  0  2  0  0  0  0  0  0
  -25.9980  -29.4590   20.7330 C   0  0  0  0  0  0  0  0  0  0  0  0
  -27.1960  -28.7000   20.7290 C   0  0  0  0  0  3  0  0  0  0  0  0
  -26.0520  -26.9290   19.5210 C   0  0  0  0  0  3  0  0  0  0  0  0
  -24.8640  -27.6810   19.5230 C   0  0  0  0  0  3  0  0  0  0  0  0
  -23.5910  -29.8000   20.1910 C   0  0  0  0  0  2  0  0  0  0  0  0
  -24.6380  -31.0700   22.1180 N   0  0  0  0  0  0  0  0  0  0  0  0
  -23.4930  -32.1370   23.7600 O   0  0  0  0  0  0  0  0  0  0  0  0
  -22.7240  -29.4450   22.5300 C   0  0  0  0  0  0  0  0  0  0  0  0
  -21.3980  -29.2700   22.4090 N   0  0  0  0  0  0  0  0  0  0  0  0
  -23.4070  -28.8120   23.3390 O   0  0  0  0  0  0  0  0  0  0  0  0
  -20.9060  -29.8330   21.7290 H   0  0  0  0  0  0  0  0  0  0  0  0
  -18.0210  -28.0880   22.9250 C   0  0  0  0  0  0  0  0  0  0  0  0
  -20.5820  -28.3310   23.1780 C   0  0  0  0  0  3  0  0  0  0  0  0
  -20.6700  -26.9030   22.5910 C   0  0  0  0  0  2  0  0  0  0  0  0
  -19.5580  -26.5950   21.5820 C   0  0  0  0  0  2  0  0  0  0  0  0
  -18.1820  -26.7440   22.2360 C   0  0  0  0  0  2  0  0  0  0  0  0
  -19.1470  -28.8400   23.3530 C   0  0  0  0  0  0  0  0  0  0  0  0
  -18.9390  -30.1010   23.9550 C   0  0  0  0  0  3  0  0  0  0  0  0
  -17.6370  -30.6070   24.1340 C   0  0  0  0  0  3  0  0  0  0  0  0
  -16.5270  -29.8520   23.7190 C   0  0  0  0  0  3  0  0  0  0  0  0
  -16.7190  -28.5940   23.1210 C   0  0  0  0  0  3  0  0  0  0  0  0
  -25.8580  -32.5000   23.8460 C   0  0  0  0  0  3  0  0  0  0  0  0
  -25.5480  -33.8990   24.1690 N   0  0  0  0  0  0  0  0  0  0  0  0
  -25.8950  -34.9500   23.4140 C   0  0  0  0  0  0  0  0  0  0  0  0
  -26.5790  -34.8420   22.3920 O   0  0  0  0  0  0  0  0  0  0  0  0
  -24.9360  -34.0550   24.9580 H   0  0  0  0  0  0  0  0  0  0  0  0
  -24.1840  -36.7520   23.0230 C   0  0  0  0  0  1  0  0  0  0  0  0
  -25.4040  -36.3400   23.8600 C   0  0  0  0  0  3  0  0  0  0  0  0
  -27.5270  -37.2120   24.7360 C   0  0  0  0  0  1  0  0  0  0  0  0
  -26.4450  -37.3870   23.7700 N   0  0  0  0  0  0  0  0  0  0  0  0
  -26.0400  -38.3100   23.9070 H   0  0  0  0  0  0  0  0  0  0  0  0
  -26.3690  -31.7310   25.1260 C   0  0  1  0  0  0  0  0  0  0  0  0
  -25.2740  -31.4980   26.1930 C   0  0  0  0  0  1  0  0  0  0  0  0
  -26.9520  -30.3520   24.7390 C   0  0  0  0  0  1  0  0  0  0  0  0
  -27.5200  -32.5270   25.7870 C   0  0  0  0  0  1  0  0  0  0  0  0
  1  2  1  0
  1 55  1  0
  2  4  1  0
  3  2  1  0
  5  2  1  0
  5  7  1  0
  7  6  1  0
  8  6  2  0
  8 19  1  0
  9 10  1  0
  9  7  2  0
 10  8  1  0
 11 19  1  0
 12 17  1  0
 13 14  1  0
 13 12  1  0
 15 14  1  0
 15 24  1  0
 15 16  1  0
 17 11  1  0
 17 16  1  0
 18 11  2  0
 19 20  1  0
 21 22  2  0
 22 41  1  0
 23 22  1  0
 23 26  1  0
 24 21  1  0
 24 25  1  0
 25 23  2  0
 26 27  1  0
 27 28  2  0
 29 32  1  0
 29 28  1  0
 30 29  2  0
 31 30  1  0
 31 26  2  0
 32 33  1  0
 33 34  1  0
 34 35  2  0
 36 35  1  0
 36 40  1  0
 37 36  2  0
 38 33  2  0
 38 37  1  0
 39 38  1  0
 41 42  1  0
 42 45  1  0
 42 44  1  0
 43 41  2  0
 46 47  1  0
 46 21  1  0
 48 46  1  0
 49  1  1  0
 50 49  2  0
 51 49  1  0
 53 54  1  0
 54 51  1  0
 54 52  1  0
 57 55  1  0
 57 56  1  0
 58 57  1  0
 59 70  2  0
 60 58  1  0
 60 65  1  0
 61 69  1  0
 61 71  1  0
 62 68  1  0
 62 64  1  0
 63 69  1  0
 64 63  1  0
 65 64  2  0
 66 67  1  0
 66 60  2  0
 67 62  2  0
 68 61  1  0
 69 59  1  0
 71 73  2  0
 72 71  1  0
 74 72  1  0
 75 84  2  0
 75 80  1  0
 76 72  1  0
 76 80  1  0
 77 76  1  0
 78 79  1  0
 78 77  1  0
 79 75  1  0
 80 81  2  0
 81 82  1  0
 83 82  2  0
 84 83  1  0
 85 59  1  0
 85 86  1  0
 85 95  1  0
 86 89  1  0
 87 91  1  0
 87 86  1  0
 88 87  2  0
 91 90  1  0
 93 91  1  0
 93 94  1  0
 93 92  1  0
 95 98  1  1
 95 96  1  0
 97 95  1  0
M  ISO  4  11 100  19 100  57 101  58 101
M  END
>  <TORSDO>  (79) 
F 24

>  <SCORE>  (79) 
-12.681

>  <name>  (79) 
78

>  <ligand_id>  (79) 
78

>  <original_smiles>  (79) 
[H]c1c(C([H])([H])[N+]([H])([H])C([H])(C(=O)C([H])([H])C([H])(C([H])([H])[H])C([H])([H])[H])C([H])([H])C([H])(Oc2c([H])c([H])c3c(c2[H])C([H])([H])N(C(=O)C([H])(N([H])C(=O)C([H])(N([H])C([H])([H])[H])C([H])([H])[H])C(C([H])([H])[H])(C([H])([H])[H])C([H])([H])[H])C([H])(C(=O)N([H])C2([H])c4c([H])c([H])c([H])c([H])c4C([H])([H])C([H])([H])C2([H])[H])C3([H])[H])C([H])([H])[H])nsc1N([H])C(=O)N1C([H])([H])C([H])([H])C([H])([H])C([H])(n2nc(-c3c([H])c([H])c(Oc4c([H])c([H])c(F)c([H])c4F)c([H])c3[H])c(C(=O)N([H])[H])c2N([H])[H])C1([H])[H]

>  <smiles>  (79) 
[H]c1c(C([H])([H])[N+]([H])([H])C([H])(C(=O)C([H])([H])C([H])(C([H])([H])[H])C([H])([H])[H])C([H])([H])C([H])(Oc2c([H])c([H])c3c(c2[H])C([H])([H])N(C(=O)C([H])(N([H])C(=O)C([H])(N([H])C([H])([H])[H])C([H])([H])[H])C(C([H])([H])[H])(C([H])([H])[H])C([H])([H])[H])C([H])(C(=O)N([H])C2([H])c4c([H])c([H])c([H])c([H])c4C([H])([H])C([H])([H])C2([H])[H])C3([H])[H])C([H])([H])[H])nsc1N([H])C(=O)N1C([H])([H])C([H])([H])C([H])([H])C([H])(n2nc(-c3c([H])c([H])c(Oc4c([H])c([H])c(F)c([H])c4F)c([H])c3[H])c(C(=O)N([H])[H])c2N([H])[H])C1([H])[H]

$$$$
79:0:0
     RDKit          3D

 96104  0  0  1  0  0  0  0  0999 V2000
  -28.9230  -22.7390   20.0960 C   0  0  0  0  0  3  0  0  0  0  0  0
  -28.1000  -21.4960   20.3720 N   0  0  0  0  0  4  0  0  0  0  0  0
  -27.3450  -21.8210   20.9550 H   0  0  0  0  0  0  0  0  0  0  0  0
  -27.6740  -21.1730   19.5190 H   0  0  0  0  0  0  0  0  0  0  0  0
  -28.6070  -20.2960   21.1310 C   0  0  0  0  0  2  0  0  0  0  0  0
  -30.6420  -14.5280   20.0130 C   0  0  0  0  0  0  0  0  0  0  0  0
  -30.3760  -12.3280   18.9230 C   0  0  0  0  0  2  0  0  0  0  0  0
  -29.3510  -12.4910   17.7800 C   0  0  0  0  0  2  0  0  0  0  0  0
  -27.9090  -12.3250   18.2990 C   0  0  0  0  0  2  0  0  0  0  0  0
  -27.6370  -13.1550   19.5820 C   0  0  0  0  0  3  0  0  0  0  0  0
  -28.7650  -12.9570   20.6200 C   0  0  0  0  0  2  0  0  0  0  0  0
  -30.0390  -13.3050   19.9710 N   0  0  0  0  0  0  0  0  0  0  0  0
  -31.7410  -14.7310   19.4850 O   0  0  0  0  0  0  0  0  0  0  0  0
  -29.8870  -19.1510   19.1470 C   0  0  0  0  0  3  0  0  0  0  0  0
  -29.2170  -19.1270   20.3490 C   0  0  0  0  0  0  0  0  0  0  0  0
  -29.8700  -16.9010   20.1800 C   0  0  0  0  0  0  0  0  0  0  0  0
  -29.1980  -17.8200   20.9020 N   0  0  0  0  0  0  0  0  0  0  0  0
  -29.9110  -15.5230   20.5710 N   0  0  0  0  0  0  0  0  0  0  0  0
  -30.5560  -17.5900   18.7090 S   0  0  0  0  0  0  0  0  0  0  0  0
  -29.1490  -15.2220   21.1550 H   0  0  0  0  0  0  0  0  0  0  0  0
  -25.2930  -13.7180   20.4820 C   0  0  0  0  0  0  0  0  0  0  0  0
  -24.2600  -12.9230   20.9060 C   0  0  0  0  0  0  0  0  0  0  0  0
  -24.7310  -11.5780   20.8040 C   0  0  0  0  0  0  0  0  0  0  0  0
  -26.3250  -12.8530   20.1490 N   0  0  0  0  0  0  0  0  0  0  0  0
  -25.9950  -11.5600   20.4020 N   0  0  0  0  0  0  0  0  0  0  0  0
  -24.0320  -10.3030   21.0090 C   0  0  0  0  0  0  0  0  0  0  0  0
  -24.4670   -9.3670   21.9740 C   0  0  0  0  0  3  0  0  0  0  0  0
  -23.7650   -8.1580   22.1660 C   0  0  0  0  0  3  0  0  0  0  0  0
  -22.6140   -7.8750   21.3940 C   0  0  0  0  0  0  0  0  0  0  0  0
  -22.1980   -8.7990   20.4200 C   0  0  0  0  0  3  0  0  0  0  0  0
  -22.9000  -10.0000   20.2260 C   0  0  0  0  0  3  0  0  0  0  0  0
  -21.8850   -6.7160   21.4950 O   0  0  0  0  0  0  0  0  0  0  0  0
  -21.7580   -6.0450   22.6860 C   0  0  0  0  0  0  0  0  0  0  0  0
  -21.1610   -6.6430   23.8170 C   0  0  0  0  0  3  0  0  0  0  0  0
  -20.9900   -5.8950   24.9990 C   0  0  0  0  0  3  0  0  0  0  0  0
  -21.4040   -4.5500   25.0490 C   0  0  0  0  0  0  0  0  0  0  0  0
  -21.9940   -3.9520   23.9220 C   0  0  0  0  0  3  0  0  0  0  0  0
  -22.1670   -4.6970   22.7430 C   0  0  0  0  0  0  0  0  0  0  0  0
  -22.7160   -4.1100   21.6520 F   0  0  0  0  0  0  0  0  0  0  0  0
  -21.2320   -3.8290   26.1820 F   0  0  0  0  0  0  0  0  0  0  0  0
  -22.8830  -13.3790   21.2900 C   0  0  0  0  0  0  0  0  0  0  0  0
  -22.2260  -12.6490   22.1860 N   0  0  0  0  0  0  0  0  0  0  0  0
  -22.4010  -14.4150   20.8350 O   0  0  0  0  0  0  0  0  0  0  0  0
  -22.6310  -11.8100   22.5710 H   0  0  0  0  0  0  0  0  0  0  0  0
  -21.3050  -12.9320   22.4880 H   0  0  0  0  0  0  0  0  0  0  0  0
  -25.4370  -15.0940   20.3330 N   0  0  0  0  0  0  0  0  0  0  0  0
  -24.6840  -15.7440   20.5250 H   0  0  0  0  0  0  0  0  0  0  0  0
  -26.2640  -15.5450   19.9610 H   0  0  0  0  0  0  0  0  0  0  0  0
  -30.1710  -22.7830   21.0050 C   0  0  0  0  0  0  0  0  0  0  0  0
  -30.1510  -23.2700   22.1390 O   0  0  0  0  0  0  0  0  0  0  0  0
  -32.3570  -21.5430   21.5670 C   0  0  0  0  0  1  0  0  0  0  0  0
  -31.4480  -22.1230   20.4700 C   0  0  0  0  0  2  0  0  0  0  0  0
  -28.1000  -24.0940   20.2280 C   0  0  0  0  0  2  0  0  0  0  0  0
  -28.8230  -25.5010   18.1470 C   0  0  0  0  0  1  0  0  0  0  0  0
  -28.7980  -25.3990   19.6800 C   0  0  0  0  0  3  0  0  0  0  0  0
  -28.5090  -26.6850   20.3050 O   0  0  0  0  0  0  0  0  0  0  0  0
  -24.5780  -31.8590   23.2450 C   0  0  0  0  0  0  0  0  0  0  0  0
  -27.3150  -27.3940   20.2190 C   0  0  0  0  0  0  0  0  0  0  0  0
  -23.4230  -30.4680   21.5560 C   0  0  0  0  0  3  0  0  0  0  0  0
  -24.9190  -28.9310   20.1660 C   0  0  0  0  0  0  0  0  0  0  0  0
  -25.9570  -30.8180   21.4390 C   0  0  0  0  0  2  0  0  0  0  0  0
  -26.0600  -29.4460   20.7900 C   0  0  0  0  0  0  0  0  0  0  0  0
  -27.2540  -28.6830   20.8130 C   0  0  0  0  0  3  0  0  0  0  0  0
  -26.1470  -26.8960   19.6020 C   0  0  0  0  0  3  0  0  0  0  0  0
  -24.9590  -27.6570   19.5700 C   0  0  0  0  0  3  0  0  0  0  0  0
  -23.6750  -29.7930   20.1800 C   0  0  0  0  0  2  0  0  0  0  0  0
  -24.6700  -31.0640   22.1390 N   0  0  0  0  0  0  0  0  0  0  0  0
  -23.4810  -32.1240   23.7570 O   0  0  0  0  0  0  0  0  0  0  0  0
  -22.7420  -29.4420   22.4910 C   0  0  0  0  0  0  0  0  0  0  0  0
  -21.4200  -29.2650   22.3310 N   0  0  0  0  0  0  0  0  0  0  0  0
  -23.4030  -28.8050   23.3170 O   0  0  0  0  0  0  0  0  0  0  0  0
  -20.9460  -29.8340   21.6440 H   0  0  0  0  0  0  0  0  0  0  0  0
  -18.0250  -28.1100   22.7740 C   0  0  0  0  0  0  0  0  0  0  0  0
  -20.5840  -28.3210   23.0730 C   0  0  0  0  0  3  0  0  0  0  0  0
  -20.6680  -26.9020   22.4630 C   0  0  0  0  0  2  0  0  0  0  0  0
  -19.5720  -26.6220   21.4320 C   0  0  0  0  0  2  0  0  0  0  0  0
  -18.1880  -26.7740   22.0670 C   0  0  0  0  0  2  0  0  0  0  0  0
  -19.1510  -28.8420   23.2330 C   0  0  0  0  0  0  0  0  0  0  0  0
  -18.9500  -30.0950   23.8530 C   0  0  0  0  0  3  0  0  0  0  0  0
  -17.6520  -30.6140   24.0210 C   0  0  0  0  0  3  0  0  0  0  0  0
  -16.5390  -29.8770   23.5810 C   0  0  0  0  0  3  0  0  0  0  0  0
  -16.7260  -28.6270   22.9620 C   0  0  0  0  0  3  0  0  0  0  0  0
  -25.8430  -32.4890   23.9060 C   0  0  0  0  0  3  0  0  0  0  0  0
  -26.3130  -31.7250   25.2050 C   0  0  1  0  0  0  0  0  0  0  0  0
  -25.1840  -31.4910   26.2350 C   0  0  0  0  0  1  0  0  0  0  0  0
  -26.9100  -30.3470   24.8380 C   0  0  0  0  0  1  0  0  0  0  0  0
  -27.4400  -32.5210   25.9050 C   0  0  0  0  0  1  0  0  0  0  0  0
  -25.5290  -33.8900   24.2190 N   0  0  0  0  0  0  0  0  0  0  0  0
  -25.8820  -34.9380   23.4610 C   0  0  0  0  0  0  0  0  0  0  0  0
  -26.5760  -34.8260   22.4470 O   0  0  0  0  0  0  0  0  0  0  0  0
  -24.9190  -34.0490   25.0060 H   0  0  0  0  0  0  0  0  0  0  0  0
  -24.1700  -36.7330   23.0490 C   0  0  0  0  0  1  0  0  0  0  0  0
  -25.3860  -36.3300   23.8970 C   0  0  0  0  0  3  0  0  0  0  0  0
  -27.4910  -37.2220   24.7910 C   0  0  0  0  0  1  0  0  0  0  0  0
  -26.4250  -37.3800   23.8060 N   0  0  0  0  0  0  0  0  0  0  0  0
  -26.0160  -38.3020   23.9300 H   0  0  0  0  0  0  0  0  0  0  0  0
  1 53  1  0
  1  2  1  0
  1 49  1  0
  2  3  1  0
  2  5  1  0
  4  2  1  0
  6 18  1  0
  7 12  1  0
  8  9  1  0
  8  7  1  0
 10  9  1  0
 10 24  1  0
 10 11  1  0
 12  6  1  0
 12 11  1  0
 13  6  2  0
 14 15  2  0
 15 17  1  0
 15  5  1  0
 16 18  1  0
 16 17  2  0
 18 20  1  0
 19 14  1  0
 19 16  1  0
 21 22  2  0
 22 41  1  0
 23 22  1  0
 23 26  1  0
 24 25  1  0
 24 21  1  0
 25 23  2  0
 26 27  1  0
 27 28  2  0
 29 32  1  0
 29 28  1  0
 30 29  2  0
 31 30  1  0
 31 26  2  0
 32 33  1  0
 33 38  2  0
 33 34  1  0
 34 35  2  0
 35 36  1  0
 36 40  1  0
 37 36  2  0
 38 37  1  0
 39 38  1  0
 41 42  1  0
 42 45  1  0
 42 44  1  0
 43 41  2  0
 46 21  1  0
 46 47  1  0
 48 46  1  0
 49 50  2  0
 52 49  1  0
 52 51  1  0
 55 54  1  0
 55 53  1  0
 55 56  1  0
 57 68  2  0
 58 56  1  0
 58 63  1  0
 59 67  1  0
 59 69  1  0
 60 66  1  0
 60 62  1  0
 61 67  1  0
 62 63  2  0
 62 61  1  0
 64 58  2  0
 65 64  1  0
 65 60  2  0
 66 59  1  0
 67 57  1  0
 69 71  2  0
 70 69  1  0
 72 70  1  0
 73 82  2  0
 73 78  1  0
 74 70  1  0
 74 78  1  0
 75 74  1  0
 76 77  1  0
 76 75  1  0
 77 73  1  0
 78 79  2  0
 79 80  1  0
 81 80  2  0
 82 81  1  0
 83 57  1  0
 83 88  1  0
 83 84  1  0
 84 87  1  1
 84 85  1  0
 86 84  1  0
 88 91  1  0
 89 93  1  0
 89 88  1  0
 90 89  2  0
 93 92  1  0
 95 93  1  0
 95 96  1  0
 95 94  1  0
M  ISO  4   6 100  18 100  55 101  56 101
M  END
>  <TORSDO>  (80) 
F 22

>  <SCORE>  (80) 
-12.957

>  <name>  (80) 
79

>  <ligand_id>  (80) 
79

>  <original_smiles>  (80) 
[H]c1sc(N([H])C(=O)N2C([H])([H])C([H])([H])C([H])([H])C([H])(n3nc(-c4c([H])c([H])c(Oc5c([H])c([H])c(F)c([H])c5F)c([H])c4[H])c(C(=O)N([H])[H])c3N([H])[H])C2([H])[H])nc1C([H])([H])[N+]([H])([H])C([H])(C(=O)C([H])([H])C([H])([H])[H])C([H])([H])C([H])(Oc1c([H])c([H])c2c(c1[H])C([H])([H])N(C(=O)C([H])(N([H])C(=O)C([H])(N([H])C([H])([H])[H])C([H])([H])[H])C(C([H])([H])[H])(C([H])([H])[H])C([H])([H])[H])C([H])(C(=O)N([H])C1([H])c3c([H])c([H])c([H])c([H])c3C([H])([H])C([H])([H])C1([H])[H])C2([H])[H])C([H])([H])[H]

>  <smiles>  (80) 
[H]c1sc(N([H])C(=O)N2C([H])([H])C([H])([H])C([H])([H])C([H])(n3nc(-c4c([H])c([H])c(Oc5c([H])c([H])c(F)c([H])c5F)c([H])c4[H])c(C(=O)N([H])[H])c3N([H])[H])C2([H])[H])nc1C([H])([H])[N+]([H])([H])C([H])(C(=O)C([H])([H])C([H])([H])[H])C([H])([H])C([H])(Oc1c([H])c([H])c2c(c1[H])C([H])([H])N(C(=O)C([H])(N([H])C(=O)C([H])(N([H])C([H])([H])[H])C([H])([H])[H])C(C([H])([H])[H])(C([H])([H])[H])C([H])([H])[H])C([H])(C(=O)N([H])C1([H])c3c([H])c([H])c([H])c([H])c3C([H])([H])C([H])([H])C1([H])[H])C2([H])[H])C([H])([H])[H]

$$$$
80:0:0
     RDKit          3D

 96104  0  0  1  0  0  0  0  0999 V2000
  -31.6040  -23.3360   22.2380 C   0  0  0  0  0  1  0  0  0  0  0  0
  -30.3030  -22.9080   21.5210 C   0  0  0  0  0  3  0  0  0  0  0  0
  -30.3600  -21.4870   21.0670 N   0  0  0  0  0  4  0  0  0  0  0  0
  -29.7300  -21.3830   20.2870 H   0  0  0  0  0  0  0  0  0  0  0  0
  -31.2800  -21.2870   20.7120 H   0  0  0  0  0  0  0  0  0  0  0  0
  -30.6310  -20.4520   23.3960 C   0  0  0  0  0  1  0  0  0  0  0  0
  -29.9820  -20.3870   22.0010 C   0  0  0  0  0  3  0  0  0  0  0  0
  -31.7150  -17.3860   20.1100 C   0  0  0  0  0  3  0  0  0  0  0  0
  -30.5510  -16.9200   20.6800 C   0  0  0  0  0  0  0  0  0  0  0  0
  -30.4390  -19.1390   21.2730 C   0  0  0  0  0  0  0  0  0  0  0  0
  -29.8230  -17.9380   21.3240 N   0  0  0  0  0  0  0  0  0  0  0  0
  -31.9750  -19.0740   20.4100 S   0  0  0  0  0  0  0  0  0  0  0  0
  -30.7360  -14.4870   20.0960 C   0  0  0  0  0  0  0  0  0  0  0  0
  -30.3280  -12.3580   18.9380 C   0  0  0  0  0  2  0  0  0  0  0  0
  -29.3410  -12.6140   17.7830 C   0  0  0  0  0  2  0  0  0  0  0  0
  -27.8870  -12.4760   18.2800 C   0  0  0  0  0  2  0  0  0  0  0  0
  -27.6220  -13.2750   19.5860 C   0  0  0  0  0  3  0  0  0  0  0  0
  -28.7340  -13.0380   20.6360 C   0  0  0  0  0  2  0  0  0  0  0  0
  -30.0220  -13.3320   19.9970 N   0  0  0  0  0  0  0  0  0  0  0  0
  -31.8530  -14.5850   19.5860 O   0  0  0  0  0  0  0  0  0  0  0  0
  -30.1010  -15.5560   20.6360 N   0  0  0  0  0  0  0  0  0  0  0  0
  -29.1830  -15.3810   21.0150 H   0  0  0  0  0  0  0  0  0  0  0  0
  -25.2560  -13.8650   20.4140 C   0  0  0  0  0  0  0  0  0  0  0  0
  -24.2100  -13.0850   20.8220 C   0  0  0  0  0  0  0  0  0  0  0  0
  -24.6770  -11.7350   20.7660 C   0  0  0  0  0  0  0  0  0  0  0  0
  -26.2930  -12.9910   20.1270 N   0  0  0  0  0  0  0  0  0  0  0  0
  -25.9500  -11.7050   20.3980 N   0  0  0  0  0  0  0  0  0  0  0  0
  -23.9660  -10.4690   20.9900 C   0  0  0  0  0  0  0  0  0  0  0  0
  -24.4230   -9.5240   21.9350 C   0  0  0  0  0  3  0  0  0  0  0  0
  -23.7120   -8.3230   22.1470 C   0  0  0  0  0  3  0  0  0  0  0  0
  -22.5320   -8.0580   21.4130 C   0  0  0  0  0  0  0  0  0  0  0  0
  -22.0940   -8.9930   20.4580 C   0  0  0  0  0  3  0  0  0  0  0  0
  -22.8050  -10.1850   20.2450 C   0  0  0  0  0  3  0  0  0  0  0  0
  -21.7900   -6.9080   21.5310 O   0  0  0  0  0  0  0  0  0  0  0  0
  -21.7380   -6.2010   22.7040 C   0  0  0  0  0  0  0  0  0  0  0  0
  -21.2800   -6.7850   23.9060 C   0  0  0  0  0  3  0  0  0  0  0  0
  -21.1780   -6.0060   25.0750 C   0  0  0  0  0  3  0  0  0  0  0  0
  -21.5240   -4.6420   25.0450 C   0  0  0  0  0  0  0  0  0  0  0  0
  -21.9770   -4.0570   23.8490 C   0  0  0  0  0  3  0  0  0  0  0  0
  -22.0800   -4.8340   22.6820 C   0  0  0  0  0  0  0  0  0  0  0  0
  -22.4970   -4.2600   21.5270 F   0  0  0  0  0  0  0  0  0  0  0  0
  -21.4180   -3.8910   26.1660 F   0  0  0  0  0  0  0  0  0  0  0  0
  -22.8210  -13.5500   21.1600 C   0  0  0  0  0  0  0  0  0  0  0  0
  -22.1400  -12.8460   22.0570 N   0  0  0  0  0  0  0  0  0  0  0  0
  -22.3530  -14.5750   20.6660 O   0  0  0  0  0  0  0  0  0  0  0  0
  -22.5410  -12.0190   22.4770 H   0  0  0  0  0  0  0  0  0  0  0  0
  -21.2100  -13.1320   22.3270 H   0  0  0  0  0  0  0  0  0  0  0  0
  -25.4100  -15.2380   20.2460 N   0  0  0  0  0  0  0  0  0  0  0  0
  -24.6650  -15.8900   20.4670 H   0  0  0  0  0  0  0  0  0  0  0  0
  -26.2550  -15.6950   19.9270 H   0  0  0  0  0  0  0  0  0  0  0  0
  -30.0370  -23.8540   20.3120 C   0  0  0  0  0  2  0  0  0  0  0  0
  -28.5390  -24.1050   20.0550 C   0  0  0  0  0  3  0  0  0  0  0  0
  -28.2330  -24.2250   18.6760 O   0  0  0  0  0  0  0  0  0  0  0  0
  -28.3540  -25.1450   18.4480 H   0  0  0  0  0  0  0  0  0  0  0  0
  -27.9960  -25.3410   20.7980 C   0  0  0  0  0  2  0  0  0  0  0  0
  -28.2790  -26.5750   20.1050 O   0  0  0  0  0  0  0  0  0  0  0  0
  -24.5360  -31.7530   23.1920 C   0  0  0  0  0  0  0  0  0  0  0  0
  -27.1620  -27.3740   20.0360 C   0  0  0  0  0  0  0  0  0  0  0  0
  -23.3280  -30.3730   21.5350 C   0  0  0  0  0  3  0  0  0  0  0  0
  -24.7790  -28.8740   20.0730 C   0  0  0  0  0  0  0  0  0  0  0  0
  -25.8520  -30.7480   21.3290 C   0  0  0  0  0  2  0  0  0  0  0  0
  -25.9400  -29.3900   20.6650 C   0  0  0  0  0  0  0  0  0  0  0  0
  -27.1420  -28.6480   20.6410 C   0  0  0  0  0  3  0  0  0  0  0  0
  -25.9940  -26.8820   19.4180 C   0  0  0  0  0  3  0  0  0  0  0  0
  -24.7990  -27.6190   19.4440 C   0  0  0  0  0  3  0  0  0  0  0  0
  -23.5320  -29.7250   20.1430 C   0  0  0  0  0  2  0  0  0  0  0  0
  -24.5930  -30.9690   22.0800 N   0  0  0  0  0  0  0  0  0  0  0  0
  -23.4540  -32.0140   23.7370 O   0  0  0  0  0  0  0  0  0  0  0  0
  -22.6860  -29.3300   22.4790 C   0  0  0  0  0  0  0  0  0  0  0  0
  -21.3660  -29.1300   22.3340 N   0  0  0  0  0  0  0  0  0  0  0  0
  -23.3710  -28.7070   23.2940 O   0  0  0  0  0  0  0  0  0  0  0  0
  -20.8780  -29.6840   21.6460 H   0  0  0  0  0  0  0  0  0  0  0  0
  -18.0090  -27.8700   22.7660 C   0  0  0  0  0  0  0  0  0  0  0  0
  -20.5550  -28.1750   23.0870 C   0  0  0  0  0  3  0  0  0  0  0  0
  -20.6980  -26.7480   22.5070 C   0  0  0  0  0  2  0  0  0  0  0  0
  -19.6210  -26.4060   21.4730 C   0  0  0  0  0  2  0  0  0  0  0  0
  -18.2240  -26.5260   22.0900 C   0  0  0  0  0  2  0  0  0  0  0  0
  -19.1040  -28.6500   23.2190 C   0  0  0  0  0  0  0  0  0  0  0  0
  -18.8520  -29.9090   23.8080 C   0  0  0  0  0  3  0  0  0  0  0  0
  -17.5350  -30.3870   23.9480 C   0  0  0  0  0  3  0  0  0  0  0  0
  -16.4530  -29.6020   23.5140 C   0  0  0  0  0  3  0  0  0  0  0  0
  -16.6900  -28.3460   22.9280 C   0  0  0  0  0  3  0  0  0  0  0  0
  -25.8200  -32.3780   23.8210 C   0  0  0  0  0  3  0  0  0  0  0  0
  -25.5150  -33.7760   24.1500 N   0  0  0  0  0  0  0  0  0  0  0  0
  -25.8620  -34.8260   23.3940 C   0  0  0  0  0  0  0  0  0  0  0  0
  -26.5420  -34.7190   22.3700 O   0  0  0  0  0  0  0  0  0  0  0  0
  -24.9150  -33.9360   24.9460 H   0  0  0  0  0  0  0  0  0  0  0  0
  -24.1550  -36.6310   23.0110 C   0  0  0  0  0  1  0  0  0  0  0  0
  -25.3780  -36.2170   23.8460 C   0  0  0  0  0  3  0  0  0  0  0  0
  -27.5000  -37.0850   24.7230 C   0  0  0  0  0  1  0  0  0  0  0  0
  -26.4190  -37.2620   23.7550 N   0  0  0  0  0  0  0  0  0  0  0  0
  -26.0180  -38.1860   23.8940 H   0  0  0  0  0  0  0  0  0  0  0  0
  -26.3270  -31.6020   25.0970 C   0  0  1  0  0  0  0  0  0  0  0  0
  -25.2250  -31.3650   26.1570 C   0  0  0  0  0  1  0  0  0  0  0  0
  -26.9100  -30.2250   24.7000 C   0  0  0  0  0  1  0  0  0  0  0  0
  -27.4770  -32.3910   25.7680 C   0  0  0  0  0  1  0  0  0  0  0  0
  2  1  1  0
  3  2  1  0
  3  7  1  0
  4  3  1  0
  5  3  1  0
  7  6  1  0
  8 12  1  0
  8  9  2  0
  9 11  1  0
 10 11  2  0
 10  7  1  0
 12 10  1  0
 13 21  1  0
 14 19  1  0
 15 16  1  0
 15 14  1  0
 17 16  1  0
 17 26  1  0
 17 18  1  0
 19 13  1  0
 19 18  1  0
 20 13  2  0
 21  9  1  0
 21 22  1  0
 23 24  2  0
 24 43  1  0
 25 24  1  0
 25 28  1  0
 26 27  1  0
 26 23  1  0
 27 25  2  0
 28 29  1  0
 29 30  2  0
 31 34  1  0
 31 30  1  0
 32 31  2  0
 33 32  1  0
 33 28  2  0
 34 35  1  0
 35 36  1  0
 36 37  2  0
 38 37  1  0
 38 42  1  0
 39 38  2  0
 40 35  2  0
 40 39  1  0
 41 40  1  0
 43 44  1  0
 44 47  1  0
 44 46  1  0
 45 43  2  0
 48 23  1  0
 48 49  1  0
 50 48  1  0
 51  2  1  0
 52 51  1  0
 52 55  1  0
 53 52  1  0
 54 53  1  0
 56 55  1  0
 57 68  2  0
 58 56  1  0
 58 63  1  0
 59 67  1  0
 59 69  1  0
 60 66  1  0
 60 62  1  0
 61 67  1  0
 62 61  1  0
 63 62  2  0
 64 65  1  0
 64 58  2  0
 65 60  2  0
 66 59  1  0
 67 57  1  0
 69 71  2  0
 70 69  1  0
 72 70  1  0
 73 82  2  0
 73 78  1  0
 74 70  1  0
 74 78  1  0
 75 74  1  0
 76 77  1  0
 76 75  1  0
 77 73  1  0
 78 79  2  0
 79 80  1  0
 81 80  2  0
 82 81  1  0
 83 57  1  0
 83 84  1  0
 83 93  1  0
 84 87  1  0
 85 89  1  0
 85 84  1  0
 86 85  2  0
 89 88  1  0
 91 89  1  0
 91 92  1  0
 91 90  1  0
 93 96  1  1
 93 94  1  0
 95 93  1  0
M  ISO  4  13 100  21 100  55 101  56 101
M  END
>  <TORSDO>  (81) 
F 23

>  <SCORE>  (81) 
-11.296

>  <name>  (81) 
80

>  <ligand_id>  (81) 
80

>  <original_smiles>  (81) 
[H]OC([H])(C([H])([H])Oc1c([H])c([H])c2c(c1[H])C([H])([H])N(C(=O)C([H])(N([H])C(=O)C([H])(N([H])C([H])([H])[H])C([H])([H])[H])C(C([H])([H])[H])(C([H])([H])[H])C([H])([H])[H])C([H])(C(=O)N([H])C1([H])c3c([H])c([H])c([H])c([H])c3C([H])([H])C([H])([H])C1([H])[H])C2([H])[H])C([H])([H])C([H])(C([H])([H])[H])[N+]([H])([H])C([H])(c1nc(N([H])C(=O)N2C([H])([H])C([H])([H])C([H])([H])C([H])(n3nc(-c4c([H])c([H])c(Oc5c([H])c([H])c(F)c([H])c5F)c([H])c4[H])c(C(=O)N([H])[H])c3N([H])[H])C2([H])[H])c([H])s1)C([H])([H])[H]

>  <smiles>  (81) 
[H]OC([H])(C([H])([H])Oc1c([H])c([H])c2c(c1[H])C([H])([H])N(C(=O)C([H])(N([H])C(=O)C([H])(N([H])C([H])([H])[H])C([H])([H])[H])C(C([H])([H])[H])(C([H])([H])[H])C([H])([H])[H])C([H])(C(=O)N([H])C1([H])c3c([H])c([H])c([H])c([H])c3C([H])([H])C([H])([H])C1([H])[H])C2([H])[H])C([H])([H])C([H])(C([H])([H])[H])[N+]([H])([H])C([H])(c1nc(N([H])C(=O)N2C([H])([H])C([H])([H])C([H])([H])C([H])(n3nc(-c4c([H])c([H])c(Oc5c([H])c([H])c(F)c([H])c5F)c([H])c4[H])c(C(=O)N([H])[H])c3N([H])[H])C2([H])[H])c([H])s1)C([H])([H])[H]

$$$$
81:0:0
     RDKit          3D

101109  0  0  1  0  0  0  0  0999 V2000
  -30.1930  -23.6020   20.7810 C   0  0  0  0  0  0  0  0  0  0  0  0
  -29.7260  -22.3610   21.0050 N   0  0  0  0  0  0  0  0  0  0  0  0
  -31.2780  -23.8430   20.2430 O   0  0  0  0  0  0  0  0  0  0  0  0
  -28.8330  -22.2970   21.4760 H   0  0  0  0  0  0  0  0  0  0  0  0
  -31.5790  -20.9040   20.0100 C   0  0  0  0  0  3  0  0  0  0  0  0
  -29.6900  -19.9240   20.7810 C   0  0  0  0  0  3  0  0  0  0  0  0
  -30.3120  -21.1250   20.6170 C   0  0  0  0  0  0  0  0  0  0  0  0
  -31.6850  -19.5600   19.7660 C   0  0  0  0  0  0  0  0  0  0  0  0
  -30.5020  -18.9540   20.2050 N   0  0  0  0  0  0  0  0  0  0  0  0
  -32.8120  -18.8050   19.1150 C   0  0  1  0  0  0  0  0  0  0  0  0
  -33.8510  -19.6020   18.8670 F   0  0  0  0  0  0  0  0  0  0  0  0
  -33.2540  -17.8160   19.8910 F   0  0  0  0  0  0  0  0  0  0  0  0
  -32.4400  -18.2760   17.9500 F   0  0  0  0  0  0  0  0  0  0  0  0
  -28.7010  -17.3910   19.5890 C   0  0  0  0  0  1  0  0  0  0  0  0
  -30.1520  -17.5390   20.0790 C   0  0  0  0  0  3  0  0  0  0  0  0
  -30.4370  -16.7470   21.3800 C   0  0  0  0  0  2  0  0  0  0  0  0
  -30.6820  -14.4170   20.5150 C   0  0  0  0  0  0  0  0  0  0  0  0
  -30.3510  -12.3220   19.2590 C   0  0  0  0  0  2  0  0  0  0  0  0
  -29.4010  -12.5740   18.0720 C   0  0  0  0  0  2  0  0  0  0  0  0
  -27.9270  -12.4380   18.5040 C   0  0  0  0  0  2  0  0  0  0  0  0
  -27.6060  -13.2390   19.7950 C   0  0  0  0  0  3  0  0  0  0  0  0
  -28.6600  -12.9600   20.8900 C   0  0  0  0  0  2  0  0  0  0  0  0
  -29.9930  -13.2610   20.3330 N   0  0  0  0  0  0  0  0  0  0  0  0
  -31.7550  -14.6650   19.9600 O   0  0  0  0  0  0  0  0  0  0  0  0
  -30.0570  -15.3350   21.2660 N   0  0  0  0  0  0  0  0  0  0  0  0
  -29.1830  -15.0570   21.6860 H   0  0  0  0  0  0  0  0  0  0  0  0
  -25.2030  -13.8570   20.4940 C   0  0  0  0  0  0  0  0  0  0  0  0
  -24.1350  -13.0880   20.8690 C   0  0  0  0  0  0  0  0  0  0  0  0
  -24.5960  -11.7360   20.8460 C   0  0  0  0  0  0  0  0  0  0  0  0
  -26.2490  -12.9730   20.2700 N   0  0  0  0  0  0  0  0  0  0  0  0
  -25.8870  -11.6930   20.5380 N   0  0  0  0  0  0  0  0  0  0  0  0
  -23.8720  -10.4750   21.0430 C   0  0  0  0  0  0  0  0  0  0  0  0
  -24.3170   -9.5050   21.9680 C   0  0  0  0  0  3  0  0  0  0  0  0
  -23.5930   -8.3080   22.1520 C   0  0  0  0  0  3  0  0  0  0  0  0
  -22.4090   -8.0720   21.4140 C   0  0  0  0  0  0  0  0  0  0  0  0
  -21.9850   -9.0300   20.4760 C   0  0  0  0  0  3  0  0  0  0  0  0
  -22.7090  -10.2200   20.2890 C   0  0  0  0  0  3  0  0  0  0  0  0
  -21.6540   -6.9290   21.5100 O   0  0  0  0  0  0  0  0  0  0  0  0
  -21.6320   -6.1740   22.6550 C   0  0  0  0  0  0  0  0  0  0  0  0
  -21.2500   -6.7190   23.9010 C   0  0  0  0  0  3  0  0  0  0  0  0
  -21.1770   -5.8900   25.0390 C   0  0  0  0  0  3  0  0  0  0  0  0
  -21.4740   -4.5180   24.9310 C   0  0  0  0  0  0  0  0  0  0  0  0
  -21.8490   -3.9740   23.6910 C   0  0  0  0  0  3  0  0  0  0  0  0
  -21.9250   -4.7990   22.5550 C   0  0  0  0  0  0  0  0  0  0  0  0
  -22.2670   -4.2650   21.3570 F   0  0  0  0  0  0  0  0  0  0  0  0
  -21.3960   -3.7190   26.0220 F   0  0  0  0  0  0  0  0  0  0  0  0
  -22.7370  -13.5660   21.1370 C   0  0  0  0  0  0  0  0  0  0  0  0
  -22.0080  -12.8760   22.0060 N   0  0  0  0  0  0  0  0  0  0  0  0
  -22.2990  -14.5870   20.6090 O   0  0  0  0  0  0  0  0  0  0  0  0
  -22.3710  -12.0480   22.4570 H   0  0  0  0  0  0  0  0  0  0  0  0
  -21.0680  -13.1780   22.2210 H   0  0  0  0  0  0  0  0  0  0  0  0
  -25.3690  -15.2260   20.3050 N   0  0  0  0  0  0  0  0  0  0  0  0
  -24.6050  -15.8830   20.4090 H   0  0  0  0  0  0  0  0  0  0  0  0
  -26.2200  -15.6600   19.9730 H   0  0  0  0  0  0  0  0  0  0  0  0
  -29.3410  -24.7880   21.2530 C   0  0  0  0  0  3  0  0  0  0  0  0
  -30.2680  -25.8220   21.7550 N   0  0  0  0  0  4  0  0  0  0  0  0
  -31.0450  -25.8550   21.1150 H   0  0  0  0  0  0  0  0  0  0  0  0
  -30.6200  -25.5770   22.6630 H   0  0  0  0  0  0  0  0  0  0  0  0
  -29.8110  -26.7160   21.7810 H   0  0  0  0  0  0  0  0  0  0  0  0
  -28.4520  -25.3490   20.1110 C   0  0  0  0  0  2  0  0  0  0  0  0
  -28.4270  -26.7850   20.1730 O   0  0  0  0  0  0  0  0  0  0  0  0
  -24.5890  -31.8910   23.2380 C   0  0  0  0  0  0  0  0  0  0  0  0
  -27.2250  -27.4570   20.1550 C   0  0  0  0  0  0  0  0  0  0  0  0
  -23.3780  -30.4950   21.5930 C   0  0  0  0  0  3  0  0  0  0  0  0
  -24.8260  -28.9560   20.1650 C   0  0  0  0  0  0  0  0  0  0  0  0
  -25.9000  -30.8540   21.3910 C   0  0  0  0  0  2  0  0  0  0  0  0
  -25.9810  -29.4820   20.7540 C   0  0  0  0  0  0  0  0  0  0  0  0
  -27.1810  -28.7400   20.7460 C   0  0  0  0  0  3  0  0  0  0  0  0
  -26.0540  -26.9450   19.5500 C   0  0  0  0  0  3  0  0  0  0  0  0
  -24.8570  -27.6860   19.5600 C   0  0  0  0  0  3  0  0  0  0  0  0
  -23.5820  -29.8140   20.2120 C   0  0  0  0  0  2  0  0  0  0  0  0
  -24.6400  -31.0950   22.1330 N   0  0  0  0  0  0  0  0  0  0  0  0
  -23.5090  -32.1640   23.7800 O   0  0  0  0  0  0  0  0  0  0  0  0
  -22.7270  -29.4720   22.5520 C   0  0  0  0  0  0  0  0  0  0  0  0
  -21.4030  -29.2940   22.4280 N   0  0  0  0  0  0  0  0  0  0  0  0
  -23.4120  -28.8430   23.3650 O   0  0  0  0  0  0  0  0  0  0  0  0
  -20.9120  -29.8540   21.7430 H   0  0  0  0  0  0  0  0  0  0  0  0
  -18.0260  -28.1130   22.9260 C   0  0  0  0  0  0  0  0  0  0  0  0
  -20.5850  -28.3570   23.1960 C   0  0  0  0  0  3  0  0  0  0  0  0
  -20.6800  -26.9270   22.6130 C   0  0  0  0  0  2  0  0  0  0  0  0
  -19.5740  -26.6150   21.5990 C   0  0  0  0  0  2  0  0  0  0  0  0
  -18.1950  -26.7640   22.2470 C   0  0  0  0  0  2  0  0  0  0  0  0
  -19.1490  -28.8670   23.3590 C   0  0  0  0  0  0  0  0  0  0  0  0
  -18.9380  -30.1310   23.9520 C   0  0  0  0  0  3  0  0  0  0  0  0
  -17.6360  -30.6380   24.1200 C   0  0  0  0  0  3  0  0  0  0  0  0
  -16.5270  -29.8810   23.7050 C   0  0  0  0  0  3  0  0  0  0  0  0
  -16.7230  -28.6190   23.1140 C   0  0  0  0  0  3  0  0  0  0  0  0
  -25.8780  -32.5170   23.8570 C   0  0  0  0  0  3  0  0  0  0  0  0
  -26.3990  -31.7400   25.1280 C   0  0  1  0  0  0  0  0  0  0  0  0
  -25.3080  -31.5010   26.1990 C   0  0  0  0  0  1  0  0  0  0  0  0
  -26.9770  -30.3630   24.7270 C   0  0  0  0  0  1  0  0  0  0  0  0
  -27.5540  -32.5280   25.7870 C   0  0  0  0  0  1  0  0  0  0  0  0
  -25.5740  -33.9150   24.1900 N   0  0  0  0  0  0  0  0  0  0  0  0
  -25.9080  -34.9670   23.4310 C   0  0  0  0  0  0  0  0  0  0  0  0
  -26.5780  -34.8620   22.3990 O   0  0  0  0  0  0  0  0  0  0  0  0
  -24.9770  -34.0710   24.9890 H   0  0  0  0  0  0  0  0  0  0  0  0
  -24.1830  -36.7610   23.0790 C   0  0  0  0  0  1  0  0  0  0  0  0
  -25.4250  -36.3560   23.8890 C   0  0  0  0  0  3  0  0  0  0  0  0
  -27.5650  -37.2360   24.7120 C   0  0  0  0  0  1  0  0  0  0  0  0
  -26.4590  -37.4070   23.7730 N   0  0  0  0  0  0  0  0  0  0  0  0
  -26.0560  -38.3290   23.9220 H   0  0  0  0  0  0  0  0  0  0  0  0
  1  2  1  0
  1 55  1  0
  2  4  1  0
  3  1  2  0
  5  7  1  0
  7  6  2  0
  7  2  1  0
  8  5  2  0
  8  9  1  0
  9  6  1  0
 10  8  1  0
 10 12  1  1
 11 10  1  0
 13 10  1  0
 15 14  1  0
 15  9  1  0
 15 16  1  0
 17 25  1  0
 18 23  1  0
 19 20  1  0
 19 18  1  0
 21 20  1  0
 21 30  1  0
 21 22  1  0
 23 17  1  0
 23 22  1  0
 24 17  2  0
 25 16  1  0
 25 26  1  0
 27 28  2  0
 28 47  1  0
 29 28  1  0
 29 32  1  0
 30 27  1  0
 30 31  1  0
 31 29  2  0
 32 33  1  0
 33 34  2  0
 35 38  1  0
 35 34  1  0
 36 35  2  0
 37 36  1  0
 37 32  2  0
 38 39  1  0
 39 40  1  0
 40 41  2  0
 42 41  1  0
 42 46  1  0
 43 42  2  0
 44 39  2  0
 44 43  1  0
 45 44  1  0
 47 48  1  0
 48 51  1  0
 48 50  1  0
 49 47  2  0
 52 53  1  0
 52 27  1  0
 54 52  1  0
 55 60  1  0
 55 56  1  0
 56 59  1  0
 56 58  1  0
 57 56  1  0
 60 61  1  0
 62 73  2  0
 63 61  1  0
 63 68  1  0
 64 72  1  0
 64 74  1  0
 65 71  1  0
 65 67  1  0
 66 72  1  0
 67 66  1  0
 68 67  2  0
 69 70  1  0
 69 63  2  0
 70 65  2  0
 71 64  1  0
 72 62  1  0
 74 76  2  0
 75 74  1  0
 77 75  1  0
 78 87  2  0
 78 83  1  0
 79 75  1  0
 79 83  1  0
 80 79  1  0
 81 82  1  0
 81 80  1  0
 82 78  1  0
 83 84  2  0
 84 85  1  0
 86 85  2  0
 87 86  1  0
 88 62  1  0
 88 93  1  0
 88 89  1  0
 89 92  1  1
 89 90  1  0
 91 89  1  0
 93 96  1  0
 94 98  1  0
 94 93  1  0
 95 94  2  0
 98 97  1  0
100 98  1  0
100101  1  0
100 99  1  0
M  ISO  4  17 100  25 100  60 101  61 101
M  END
>  <TORSDO>  (82) 
F 23

>  <SCORE>  (82) 
-13.495

>  <name>  (82) 
81

>  <ligand_id>  (82) 
81

>  <original_smiles>  (82) 
[H]c1c([H])c([H])c2c(c1[H])C([H])([H])C([H])([H])C([H])([H])C2([H])N([H])C(=O)C1([H])N(C(=O)C([H])(N([H])C(=O)C([H])(N([H])C([H])([H])[H])C([H])([H])[H])C(C([H])([H])[H])(C([H])([H])[H])C([H])([H])[H])C([H])([H])c2c([H])c(OC([H])([H])C([H])(C(=O)N([H])c3c([H])c(C(F)(F)F)n(C([H])(C([H])([H])[H])C([H])([H])N([H])C(=O)N4C([H])([H])C([H])([H])C([H])([H])C([H])(n5nc(-c6c([H])c([H])c(Oc7c([H])c([H])c(F)c([H])c7F)c([H])c6[H])c(C(=O)N([H])[H])c5N([H])[H])C4([H])[H])c3[H])[N+]([H])([H])[H])c([H])c([H])c2C1([H])[H]

>  <smiles>  (82) 
[H]c1c([H])c([H])c2c(c1[H])C([H])([H])C([H])([H])C([H])([H])C2([H])N([H])C(=O)C1([H])N(C(=O)C([H])(N([H])C(=O)C([H])(N([H])C([H])([H])[H])C([H])([H])[H])C(C([H])([H])[H])(C([H])([H])[H])C([H])([H])[H])C([H])([H])c2c([H])c(OC([H])([H])C([H])(C(=O)N([H])c3c([H])c(C(F)(F)F)n(C([H])(C([H])([H])[H])C([H])([H])N([H])C(=O)N4C([H])([H])C([H])([H])C([H])([H])C([H])(n5nc(-c6c([H])c([H])c(Oc7c([H])c([H])c(F)c([H])c7F)c([H])c6[H])c(C(=O)N([H])[H])c5N([H])[H])C4([H])[H])c3[H])[N+]([H])([H])[H])c([H])c([H])c2C1([H])[H]

$$$$
82:0:0
     RDKit          3D

 91 99  0  0  1  0  0  0  0  0999 V2000
  -30.8840  -22.6830   19.6220 C   0  0  0  0  0  1  0  0  0  0  0  0
  -29.5910  -22.3960   20.4180 C   0  0  0  0  0  0  0  0  0  0  0  0
  -30.5740  -14.8160   20.4200 C   0  0  0  0  0  0  0  0  0  0  0  0
  -30.3800  -12.5200   19.4210 C   0  0  0  0  0  2  0  0  0  0  0  0
  -29.4490  -12.5410   18.1910 C   0  0  0  0  0  2  0  0  0  0  0  0
  -27.9770  -12.3660   18.6160 C   0  0  0  0  0  2  0  0  0  0  0  0
  -27.5850  -13.2780   19.8060 C   0  0  0  0  0  3  0  0  0  0  0  0
  -28.6370  -13.2400   20.9380 C   0  0  0  0  0  2  0  0  0  0  0  0
  -29.9320  -13.5940   20.3400 N   0  0  0  0  0  0  0  0  0  0  0  0
  -31.7780  -14.8710   20.1480 O   0  0  0  0  0  0  0  0  0  0  0  0
  -30.1510  -17.4130   20.6380 C   0  0  0  0  0  0  0  0  0  0  0  0
  -29.8070  -19.6990   20.5210 C   0  0  0  0  0  3  0  0  0  0  0  0
  -29.2840  -18.4480   20.3210 N   0  0  0  0  0  0  0  0  0  0  0  0
  -31.3530  -17.8100   21.1100 N   0  0  0  0  0  2  0  0  0  0  0  0
  -29.8020  -15.9680   20.5430 N   0  0  0  0  0  0  0  0  0  0  0  0
  -29.1180  -20.9510   20.2380 N   0  0  0  0  0  4  0  0  0  0  0  0
  -31.4220  -19.5240   21.1690 S   0  0  0  0  0  0  0  0  0  0  0  0
  -28.8120  -15.7960   20.5430 H   0  0  0  0  0  0  0  0  0  0  0  0
  -28.1840  -20.8480   19.8520 H   0  0  0  0  0  0  0  0  0  0  0  0
  -25.1890  -13.8700   20.4940 C   0  0  0  0  0  0  0  0  0  0  0  0
  -24.1200  -13.0990   20.8610 C   0  0  0  0  0  0  0  0  0  0  0  0
  -24.5830  -11.7490   20.8480 C   0  0  0  0  0  0  0  0  0  0  0  0
  -26.2360  -12.9900   20.2850 N   0  0  0  0  0  0  0  0  0  0  0  0
  -25.8790  -11.7090   20.5630 N   0  0  0  0  0  0  0  0  0  0  0  0
  -23.8530  -10.4870   21.0350 C   0  0  0  0  0  0  0  0  0  0  0  0
  -24.2760   -9.5260   21.9790 C   0  0  0  0  0  3  0  0  0  0  0  0
  -23.5500   -8.3290   22.1590 C   0  0  0  0  0  3  0  0  0  0  0  0
  -22.3840   -8.0840   21.3930 C   0  0  0  0  0  0  0  0  0  0  0  0
  -21.9790   -9.0350   20.4390 C   0  0  0  0  0  3  0  0  0  0  0  0
  -22.7050  -10.2240   20.2570 C   0  0  0  0  0  3  0  0  0  0  0  0
  -21.6300   -6.9410   21.4820 O   0  0  0  0  0  0  0  0  0  0  0  0
  -21.5730   -6.2030   22.6360 C   0  0  0  0  0  0  0  0  0  0  0  0
  -21.1390   -6.7620   23.8590 C   0  0  0  0  0  3  0  0  0  0  0  0
  -21.0290   -5.9490   25.0040 C   0  0  0  0  0  3  0  0  0  0  0  0
  -21.3440   -4.5790   24.9280 C   0  0  0  0  0  0  0  0  0  0  0  0
  -21.7740   -4.0200   23.7120 C   0  0  0  0  0  3  0  0  0  0  0  0
  -21.8840   -4.8300   22.5690 C   0  0  0  0  0  0  0  0  0  0  0  0
  -22.2750   -4.2800   21.3940 F   0  0  0  0  0  0  0  0  0  0  0  0
  -21.2340   -3.7980   26.0300 F   0  0  0  0  0  0  0  0  0  0  0  0
  -22.7190  -13.5760   21.1040 C   0  0  0  0  0  0  0  0  0  0  0  0
  -21.9740  -12.8900   21.9620 N   0  0  0  0  0  0  0  0  0  0  0  0
  -22.2900  -14.5950   20.5640 O   0  0  0  0  0  0  0  0  0  0  0  0
  -22.3340  -12.0680   22.4230 H   0  0  0  0  0  0  0  0  0  0  0  0
  -21.0300  -13.1890   22.1610 H   0  0  0  0  0  0  0  0  0  0  0  0
  -25.3600  -15.2370   20.3000 N   0  0  0  0  0  0  0  0  0  0  0  0
  -24.5940  -15.8970   20.3800 H   0  0  0  0  0  0  0  0  0  0  0  0
  -26.1990  -15.6520   19.9130 H   0  0  0  0  0  0  0  0  0  0  0  0
  -28.4480  -23.5940   20.3690 C   0  0  0  0  0  2  0  0  0  0  0  0
  -29.4250  -25.2090   18.4220 C   0  0  0  0  0  1  0  0  0  0  0  0
  -28.4130  -25.0410   19.5620 C   0  0  0  0  0  3  0  0  0  0  0  0
  -28.3220  -26.4020   20.2230 O   0  0  0  0  0  0  0  0  0  0  0  0
  -24.6170  -31.8810   23.2580 C   0  0  0  0  0  0  0  0  0  0  0  0
  -27.1980  -27.2760   20.1600 C   0  0  0  0  0  0  0  0  0  0  0  0
  -23.4020  -30.4860   21.6300 C   0  0  0  0  0  3  0  0  0  0  0  0
  -24.8380  -28.9420   20.1830 C   0  0  0  0  0  0  0  0  0  0  0  0
  -25.9480  -30.7890   21.4310 C   0  0  0  0  0  2  0  0  0  0  0  0
  -26.0200  -29.4120   20.7670 C   0  0  0  0  0  0  0  0  0  0  0  0
  -27.1990  -28.5950   20.7410 C   0  0  0  0  0  3  0  0  0  0  0  0
  -25.9750  -26.8740   19.5670 C   0  0  0  0  0  3  0  0  0  0  0  0
  -24.8230  -27.6820   19.5750 C   0  0  0  0  0  3  0  0  0  0  0  0
  -23.6060  -29.8250   20.2430 C   0  0  0  0  0  2  0  0  0  0  0  0
  -24.6760  -31.0680   22.1610 N   0  0  0  0  0  0  0  0  0  0  0  0
  -23.5360  -32.1610   23.7970 O   0  0  0  0  0  0  0  0  0  0  0  0
  -22.7440  -29.4630   22.5900 C   0  0  0  0  0  0  0  0  0  0  0  0
  -21.4190  -29.2790   22.4660 N   0  0  0  0  0  0  0  0  0  0  0  0
  -23.4280  -28.8410   23.4090 O   0  0  0  0  0  0  0  0  0  0  0  0
  -20.9260  -29.8330   21.7810 H   0  0  0  0  0  0  0  0  0  0  0  0
  -18.0500  -28.0630   22.9650 C   0  0  0  0  0  0  0  0  0  0  0  0
  -20.6050  -28.3370   23.2380 C   0  0  0  0  0  3  0  0  0  0  0  0
  -20.7160  -26.9060   22.6650 C   0  0  0  0  0  2  0  0  0  0  0  0
  -19.6190  -26.5740   21.6510 C   0  0  0  0  0  2  0  0  0  0  0  0
  -18.2350  -26.7130   22.2920 C   0  0  0  0  0  2  0  0  0  0  0  0
  -19.1630  -28.8340   23.3930 C   0  0  0  0  0  0  0  0  0  0  0  0
  -18.9350  -30.0970   23.9780 C   0  0  0  0  0  3  0  0  0  0  0  0
  -17.6260  -30.5930   24.1400 C   0  0  0  0  0  3  0  0  0  0  0  0
  -16.5280  -29.8170   23.7320 C   0  0  0  0  0  3  0  0  0  0  0  0
  -16.7400  -28.5550   23.1500 C   0  0  0  0  0  3  0  0  0  0  0  0
  -25.9020  -32.5150   23.8720 C   0  0  0  0  0  3  0  0  0  0  0  0
  -25.5960  -33.9160   24.1940 N   0  0  0  0  0  0  0  0  0  0  0  0
  -25.9240  -34.9640   23.4290 C   0  0  0  0  0  0  0  0  0  0  0  0
  -26.5860  -34.8540   22.3940 O   0  0  0  0  0  0  0  0  0  0  0  0
  -25.0050  -34.0760   24.9980 H   0  0  0  0  0  0  0  0  0  0  0  0
  -24.1970  -36.7590   23.0730 C   0  0  0  0  0  1  0  0  0  0  0  0
  -25.4390  -36.3560   23.8810 C   0  0  0  0  0  3  0  0  0  0  0  0
  -27.5810  -37.2420   24.6970 C   0  0  0  0  0  1  0  0  0  0  0  0
  -26.4730  -37.4070   23.7600 N   0  0  0  0  0  0  0  0  0  0  0  0
  -26.0680  -38.3280   23.9060 H   0  0  0  0  0  0  0  0  0  0  0  0
  -26.4160  -31.7500   25.1540 C   0  0  1  0  0  0  0  0  0  0  0  0
  -25.3230  -31.5230   26.2240 C   0  0  0  0  0  1  0  0  0  0  0  0
  -26.9940  -30.3670   24.7740 C   0  0  0  0  0  1  0  0  0  0  0  0
  -27.5710  -32.5420   25.8090 C   0  0  0  0  0  1  0  0  0  0  0  0
  1  2  1  0
  3 15  1  0
  4  9  1  0
  5  6  1  0
  5  4  1  0
  7  6  1  0
  7 23  1  0
  7  8  1  0
  9  3  1  0
  9  8  1  0
 10  3  2  0
 11 14  1  0
 12 16  1  0
 12 17  1  0
 13 12  1  0
 13 11  2  0
 14 17  1  0
 15 18  1  0
 15 11  1  0
 16  2  2  0
 19 16  1  0
 20 21  2  0
 21 40  1  0
 22 21  1  0
 22 25  1  0
 23 20  1  0
 23 24  1  0
 24 22  2  0
 25 26  1  0
 26 27  2  0
 28 31  1  0
 28 27  1  0
 29 28  2  0
 30 29  1  0
 30 25  2  0
 31 32  1  0
 32 33  1  0
 33 34  2  0
 35 34  1  0
 35 39  1  0
 36 35  2  0
 37 32  2  0
 37 36  1  0
 38 37  1  0
 40 41  1  0
 41 44  1  0
 41 43  1  0
 42 40  2  0
 45 46  1  0
 45 20  1  0
 47 45  1  0
 48  2  1  0
 50 49  1  0
 50 51  1  0
 50 48  1  0
 52 63  2  0
 53 51  1  0
 53 58  1  0
 54 62  1  0
 54 64  1  0
 55 61  1  0
 55 57  1  0
 56 62  1  0
 57 56  1  0
 58 57  2  0
 59 60  1  0
 59 53  2  0
 60 55  2  0
 61 54  1  0
 62 52  1  0
 64 66  2  0
 65 64  1  0
 67 65  1  0
 68 77  2  0
 68 73  1  0
 69 65  1  0
 69 73  1  0
 70 69  1  0
 71 72  1  0
 71 70  1  0
 72 68  1  0
 73 74  2  0
 74 75  1  0
 76 75  2  0
 77 76  1  0
 78 52  1  0
 78 79  1  0
 78 88  1  0
 79 82  1  0
 80 84  1  0
 80 79  1  0
 81 80  2  0
 84 83  1  0
 86 84  1  0
 86 87  1  0
 86 85  1  0
 88 91  1  1
 88 89  1  0
 90 88  1  0
M  ISO  4   3 100  15 100  50 101  51 101
M  END
>  <TORSDO>  (83) 
F 18

>  <SCORE>  (83) 
-14.591

>  <name>  (83) 
82

>  <ligand_id>  (83) 
82

>  <original_smiles>  (83) 
[H]c1c([H])c([H])c2c(c1[H])C([H])([H])C([H])([H])C([H])([H])C2([H])N([H])C(=O)C1([H])N(C(=O)C([H])(N([H])C(=O)C([H])(N([H])C([H])([H])[H])C([H])([H])[H])C(C([H])([H])[H])(C([H])([H])[H])C([H])([H])[H])C([H])([H])c2c([H])c(OC([H])(C([H])([H])[H])C([H])([H])C([H])(N([H])c3nc(N([H])C(=O)N4C([H])([H])C([H])([H])C([H])([H])C([H])(n5nc(-c6c([H])c([H])c(Oc7c([H])c([H])c(F)c([H])c7F)c([H])c6[H])c(C(=O)N([H])[H])c5N([H])[H])C4([H])[H])ns3)C([H])([H])[H])c([H])c([H])c2C1([H])[H]

>  <smiles>  (83) 
[H]c1c([H])c([H])c2c(c1[H])C([H])([H])C([H])([H])C([H])([H])C2([H])N([H])C(=O)C1([H])N(C(=O)C([H])(N([H])C(=O)C([H])(N([H])C([H])([H])[H])C([H])([H])[H])C(C([H])([H])[H])(C([H])([H])[H])C([H])([H])[H])C([H])([H])c2c([H])c(OC([H])(C([H])([H])[H])C([H])([H])C([H])(N([H])c3nc(N([H])C(=O)N4C([H])([H])C([H])([H])C([H])([H])C([H])(n5nc(-c6c([H])c([H])c(Oc7c([H])c([H])c(F)c([H])c7F)c([H])c6[H])c(C(=O)N([H])[H])c5N([H])[H])C4([H])[H])ns3)C([H])([H])[H])c([H])c([H])c2C1([H])[H]

$$$$
83:0:0
     RDKit          3D

 97105  0  0  1  0  0  0  0  0999 V2000
  -27.6060  -22.7130   21.7060 C   0  0  0  0  0  1  0  0  0  0  0  0
  -28.7310  -23.1640   20.7530 C   0  0  0  0  0  3  0  0  0  0  0  0
  -29.4920  -21.9320   20.1400 C   0  0  0  0  0  0  0  0  0  0  0  0
  -29.2510  -20.6830   20.6360 N   0  0  0  0  0  0  0  0  0  0  0  0
  -30.2830  -22.1250   19.2160 O   0  0  0  0  0  0  0  0  0  0  0  0
  -28.4710  -20.6360   21.2780 H   0  0  0  0  0  0  0  0  0  0  0  0
  -31.3020  -19.4060   20.0900 C   0  0  0  0  0  3  0  0  0  0  0  0
  -29.4140  -18.1250   20.6520 C   0  0  0  0  0  0  0  0  0  0  0  0
  -29.9790  -19.4460   20.4360 C   0  0  0  0  0  0  0  0  0  0  0  0
  -30.3200  -17.0820   20.4520 C   0  0  0  0  0  0  0  0  0  0  0  0
  -27.9760  -17.9090   21.0260 C   0  0  0  0  0  1  0  0  0  0  0  0
  -31.8850  -17.7670   20.0140 S   0  0  0  0  0  0  0  0  0  0  0  0
  -30.8020  -14.6560   20.0950 C   0  0  0  0  0  0  0  0  0  0  0  0
  -30.4600  -12.5050   18.9250 C   0  0  0  0  0  2  0  0  0  0  0  0
  -29.4510  -12.7250   17.7790 C   0  0  0  0  0  2  0  0  0  0  0  0
  -28.0090  -12.5470   18.2910 C   0  0  0  0  0  2  0  0  0  0  0  0
  -27.7340  -13.3490   19.5920 C   0  0  0  0  0  3  0  0  0  0  0  0
  -28.8550  -13.1310   20.6330 C   0  0  0  0  0  2  0  0  0  0  0  0
  -30.1350  -13.4690   19.9940 N   0  0  0  0  0  0  0  0  0  0  0  0
  -31.9420  -14.7800   19.6420 O   0  0  0  0  0  0  0  0  0  0  0  0
  -30.0770  -15.7210   20.5510 N   0  0  0  0  0  0  0  0  0  0  0  0
  -29.1670  -15.4680   20.9060 H   0  0  0  0  0  0  0  0  0  0  0  0
  -25.3840  -13.9120   20.4650 C   0  0  0  0  0  0  0  0  0  0  0  0
  -24.3410  -13.1210   20.8670 C   0  0  0  0  0  0  0  0  0  0  0  0
  -24.8050  -11.7740   20.7620 C   0  0  0  0  0  0  0  0  0  0  0  0
  -26.4150  -13.0460   20.1410 N   0  0  0  0  0  0  0  0  0  0  0  0
  -26.0760  -11.7530   20.3800 N   0  0  0  0  0  0  0  0  0  0  0  0
  -24.0940  -10.5020   20.9440 C   0  0  0  0  0  0  0  0  0  0  0  0
  -24.5390   -9.5350   21.8720 C   0  0  0  0  0  3  0  0  0  0  0  0
  -23.8290   -8.3280   22.0440 C   0  0  0  0  0  3  0  0  0  0  0  0
  -22.6590   -8.0780   21.2880 C   0  0  0  0  0  0  0  0  0  0  0  0
  -22.2320   -9.0350   20.3490 C   0  0  0  0  0  3  0  0  0  0  0  0
  -22.9430  -10.2340   20.1760 C   0  0  0  0  0  3  0  0  0  0  0  0
  -21.9190   -6.9230   21.3710 O   0  0  0  0  0  0  0  0  0  0  0  0
  -21.8300   -6.2070   22.5360 C   0  0  0  0  0  0  0  0  0  0  0  0
  -21.3420   -6.7840   23.7300 C   0  0  0  0  0  3  0  0  0  0  0  0
  -21.2030   -5.9910   24.8890 C   0  0  0  0  0  3  0  0  0  0  0  0
  -21.5410   -4.6250   24.8530 C   0  0  0  0  0  0  0  0  0  0  0  0
  -22.0190   -4.0490   23.6630 C   0  0  0  0  0  3  0  0  0  0  0  0
  -22.1630   -4.8380   22.5090 C   0  0  0  0  0  0  0  0  0  0  0  0
  -22.6050   -4.2720   21.3590 F   0  0  0  0  0  0  0  0  0  0  0  0
  -21.4000   -3.8630   25.9630 F   0  0  0  0  0  0  0  0  0  0  0  0
  -22.9600  -13.5820   21.2340 C   0  0  0  0  0  0  0  0  0  0  0  0
  -22.2830  -12.8500   22.1090 N   0  0  0  0  0  0  0  0  0  0  0  0
  -22.4930  -14.6250   20.7790 O   0  0  0  0  0  0  0  0  0  0  0  0
  -22.6770  -12.0050   22.4980 H   0  0  0  0  0  0  0  0  0  0  0  0
  -21.3570  -13.1380   22.3970 H   0  0  0  0  0  0  0  0  0  0  0  0
  -25.5330  -15.2870   20.3240 N   0  0  0  0  0  0  0  0  0  0  0  0
  -24.7600  -15.9260   20.4710 H   0  0  0  0  0  0  0  0  0  0  0  0
  -26.3380  -15.7300   19.8970 H   0  0  0  0  0  0  0  0  0  0  0  0
  -28.1610  -24.2280   19.7270 C   0  0  0  0  0  2  0  0  0  0  0  0
  -30.4310  -25.4780   19.6990 C   0  0  0  0  0  1  0  0  0  0  0  0
  -28.9270  -25.5750   19.3510 C   0  0  1  0  0  0  0  0  0  0  0  0
  -29.2770  -27.3070   17.4050 C   0  0  0  0  0  1  0  0  0  0  0  0
  -29.4490  -24.8700   16.8830 C   0  0  0  0  0  1  0  0  0  0  0  0
  -28.7790  -25.9040   17.8170 C   0  0  0  0  0  3  0  0  0  0  0  0
  -28.5490  -26.7320   20.1660 O   0  0  0  0  0  0  0  0  0  0  0  0
  -24.6330  -31.8820   23.2110 C   0  0  0  0  0  0  0  0  0  0  0  0
  -27.3430  -27.4320   20.1260 C   0  0  0  0  0  0  0  0  0  0  0  0
  -23.4590  -30.4850   21.5450 C   0  0  0  0  0  3  0  0  0  0  0  0
  -24.9370  -28.9600   20.1250 C   0  0  0  0  0  0  0  0  0  0  0  0
  -25.9880  -30.8430   21.3860 C   0  0  0  0  0  2  0  0  0  0  0  0
  -26.0870  -29.4730   20.7370 C   0  0  0  0  0  0  0  0  0  0  0  0
  -27.2840  -28.7120   20.7390 C   0  0  0  0  0  3  0  0  0  0  0  0
  -26.1630  -26.9440   19.5170 C   0  0  0  0  0  3  0  0  0  0  0  0
  -24.9730  -27.6960   19.5130 C   0  0  0  0  0  3  0  0  0  0  0  0
  -23.6910  -29.8180   20.1620 C   0  0  0  0  0  2  0  0  0  0  0  0
  -24.7120  -31.0850   22.1050 N   0  0  0  0  0  0  0  0  0  0  0  0
  -23.5440  -32.1430   23.7400 O   0  0  0  0  0  0  0  0  0  0  0  0
  -22.8030  -29.4530   22.4880 C   0  0  0  0  0  0  0  0  0  0  0  0
  -21.4790  -29.2670   22.3460 N   0  0  0  0  0  0  0  0  0  0  0  0
  -23.4780  -28.8250   23.3080 O   0  0  0  0  0  0  0  0  0  0  0  0
  -20.9930  -29.8270   21.6600 H   0  0  0  0  0  0  0  0  0  0  0  0
  -18.1030  -28.0610   22.8030 C   0  0  0  0  0  0  0  0  0  0  0  0
  -20.6580  -28.3190   23.0990 C   0  0  0  0  0  3  0  0  0  0  0  0
  -20.7680  -26.8950   22.5060 C   0  0  0  0  0  2  0  0  0  0  0  0
  -19.6750  -26.5820   21.4810 C   0  0  0  0  0  2  0  0  0  0  0  0
  -18.2870  -26.7190   22.1140 C   0  0  0  0  0  2  0  0  0  0  0  0
  -19.2160  -28.8190   23.2530 C   0  0  0  0  0  0  0  0  0  0  0  0
  -18.9930  -30.0750   23.8560 C   0  0  0  0  0  3  0  0  0  0  0  0
  -17.6870  -30.5750   24.0170 C   0  0  0  0  0  3  0  0  0  0  0  0
  -16.5860  -29.8150   23.5850 C   0  0  0  0  0  3  0  0  0  0  0  0
  -16.7950  -28.5610   22.9840 C   0  0  0  0  0  3  0  0  0  0  0  0
  -25.9070  -32.5170   23.8500 C   0  0  0  0  0  3  0  0  0  0  0  0
  -25.5920  -33.9160   24.1700 N   0  0  0  0  0  0  0  0  0  0  0  0
  -25.9500  -34.9680   23.4220 C   0  0  0  0  0  0  0  0  0  0  0  0
  -26.6510  -34.8630   22.4120 O   0  0  0  0  0  0  0  0  0  0  0  0
  -24.9780  -34.0740   24.9570 H   0  0  0  0  0  0  0  0  0  0  0  0
  -24.2470  -36.7670   23.0030 C   0  0  0  0  0  1  0  0  0  0  0  0
  -25.4510  -36.3560   23.8650 C   0  0  0  0  0  3  0  0  0  0  0  0
  -27.5530  -37.2280   24.7860 C   0  0  0  0  0  1  0  0  0  0  0  0
  -26.4920  -37.4050   23.7990 N   0  0  0  0  0  0  0  0  0  0  0  0
  -26.0840  -38.3260   23.9350 H   0  0  0  0  0  0  0  0  0  0  0  0
  -26.4040  -31.7510   25.1360 C   0  0  1  0  0  0  0  0  0  0  0  0
  -25.2950  -31.5090   26.1850 C   0  0  0  0  0  1  0  0  0  0  0  0
  -27.0000  -30.3770   24.7520 C   0  0  0  0  0  1  0  0  0  0  0  0
  -27.5410  -32.5510   25.8160 C   0  0  0  0  0  1  0  0  0  0  0  0
  2  1  1  0
  3  4  1  0
  3  2  1  0
  4  6  1  0
  5  3  2  0
  7  9  2  0
  8 11  1  0
  9  4  1  0
  9  8  1  0
 10 21  1  0
 10  8  2  0
 12  7  1  0
 12 10  1  0
 13 21  1  0
 14 19  1  0
 15 16  1  0
 15 14  1  0
 17 16  1  0
 17 26  1  0
 17 18  1  0
 19 13  1  0
 19 18  1  0
 20 13  2  0
 21 22  1  0
 23 24  2  0
 24 43  1  0
 25 24  1  0
 25 28  1  0
 26 27  1  0
 26 23  1  0
 27 25  2  0
 28 29  1  0
 29 30  2  0
 31 34  1  0
 31 30  1  0
 32 31  2  0
 33 32  1  0
 33 28  2  0
 34 35  1  0
 35 36  1  0
 36 37  2  0
 38 37  1  0
 38 42  1  0
 39 38  2  0
 40 35  2  0
 40 39  1  0
 41 40  1  0
 43 44  1  0
 44 47  1  0
 44 46  1  0
 45 43  2  0
 48 23  1  0
 48 49  1  0
 50 48  1  0
 51  2  1  0
 53 52  1  6
 53 51  1  0
 53 57  1  0
 54 56  1  0
 55 56  1  0
 56 53  1  0
 58 69  2  0
 59 57  1  0
 59 64  1  0
 60 68  1  0
 60 70  1  0
 61 67  1  0
 61 63  1  0
 62 68  1  0
 63 64  2  0
 63 62  1  0
 65 59  2  0
 66 65  1  0
 66 61  2  0
 67 60  1  0
 68 58  1  0
 70 72  2  0
 71 70  1  0
 73 71  1  0
 74 83  2  0
 74 79  1  0
 75 71  1  0
 75 79  1  0
 76 75  1  0
 77 78  1  0
 77 76  1  0
 78 74  1  0
 79 80  2  0
 80 81  1  0
 82 81  2  0
 83 82  1  0
 84 58  1  0
 84 85  1  0
 84 94  1  0
 85 88  1  0
 86 90  1  0
 86 85  1  0
 87 86  2  0
 90 89  1  0
 92 90  1  0
 92 93  1  0
 92 91  1  0
 94 97  1  1
 94 95  1  0
 96 94  1  0
M  ISO  4  13 100  21 100  53 101  57 101
M  END
>  <TORSDO>  (84) 
F 21

>  <SCORE>  (84) 
-12.906

>  <name>  (84) 
83

>  <ligand_id>  (84) 
83

>  <original_smiles>  (84) 
[H]c1sc(N([H])C(=O)N2C([H])([H])C([H])([H])C([H])([H])C([H])(n3nc(-c4c([H])c([H])c(Oc5c([H])c([H])c(F)c([H])c5F)c([H])c4[H])c(C(=O)N([H])[H])c3N([H])[H])C2([H])[H])c(C([H])([H])[H])c1N([H])C(=O)C([H])(C([H])([H])[H])C([H])([H])C(Oc1c([H])c([H])c2c(c1[H])C([H])([H])N(C(=O)C([H])(N([H])C(=O)C([H])(N([H])C([H])([H])[H])C([H])([H])[H])C(C([H])([H])[H])(C([H])([H])[H])C([H])([H])[H])C([H])(C(=O)N([H])C1([H])c3c([H])c([H])c([H])c([H])c3C([H])([H])C([H])([H])C1([H])[H])C2([H])[H])(C([H])([H])[H])C([H])(C([H])([H])[H])C([H])([H])[H]

>  <smiles>  (84) 
[H]c1sc(N([H])C(=O)N2C([H])([H])C([H])([H])C([H])([H])C([H])(n3nc(-c4c([H])c([H])c(Oc5c([H])c([H])c(F)c([H])c5F)c([H])c4[H])c(C(=O)N([H])[H])c3N([H])[H])C2([H])[H])c(C([H])([H])[H])c1N([H])C(=O)C([H])(C([H])([H])[H])C([H])([H])C(Oc1c([H])c([H])c2c(c1[H])C([H])([H])N(C(=O)C([H])(N([H])C(=O)C([H])(N([H])C([H])([H])[H])C([H])([H])[H])C(C([H])([H])[H])(C([H])([H])[H])C([H])([H])[H])C([H])(C(=O)N([H])C1([H])c3c([H])c([H])c([H])c([H])c3C([H])([H])C([H])([H])C1([H])[H])C2([H])[H])(C([H])([H])[H])C([H])(C([H])([H])[H])C([H])([H])[H]

$$$$
84:0:0
     RDKit          3D

101109  0  0  1  0  0  0  0  0999 V2000
  -29.1360  -20.5990   21.1330 N   0  0  0  0  0  0  0  0  0  0  0  0
  -29.3640  -21.0460   22.0130 H   0  0  0  0  0  0  0  0  0  0  0  0
  -30.5880  -14.7690   19.9190 C   0  0  0  0  0  0  0  0  0  0  0  0
  -30.3000  -12.5370   18.8860 C   0  0  0  0  0  2  0  0  0  0  0  0
  -29.2780  -12.6440   17.7380 C   0  0  0  0  0  2  0  0  0  0  0  0
  -27.8390  -12.4780   18.2700 C   0  0  0  0  0  2  0  0  0  0  0  0
  -27.5500  -13.3580   19.5150 C   0  0  0  0  0  3  0  0  0  0  0  0
  -28.6840  -13.2450   20.5570 C   0  0  0  0  0  2  0  0  0  0  0  0
  -29.9430  -13.5690   19.8710 N   0  0  0  0  0  0  0  0  0  0  0  0
  -31.7390  -14.9100   19.4960 O   0  0  0  0  0  0  0  0  0  0  0  0
  -31.2760  -18.0800   22.7420 C   0  0  0  0  0  3  0  0  0  0  0  0
  -31.0780  -16.9870   21.8910 C   0  0  0  0  0  3  0  0  0  0  0  0
  -30.5790  -19.2800   22.4990 C   0  0  0  0  0  0  0  0  0  0  0  0
  -30.1770  -17.0840   20.8120 C   0  0  0  0  0  0  0  0  0  0  0  0
  -29.8090  -19.3690   21.3160 C   0  0  0  0  0  0  0  0  0  0  0  0
  -29.5760  -18.2850   20.5160 N   0  0  0  0  0  0  0  0  0  0  0  0
  -29.8050  -15.8470   20.1890 N   0  0  0  0  0  0  0  0  0  0  0  0
  -28.8150  -15.6800   20.1410 H   0  0  0  0  0  0  0  0  0  0  0  0
  -25.2200  -13.9310   20.4400 C   0  0  0  0  0  0  0  0  0  0  0  0
  -24.1830  -13.1420   20.8590 C   0  0  0  0  0  0  0  0  0  0  0  0
  -24.6400  -11.7930   20.7440 C   0  0  0  0  0  0  0  0  0  0  0  0
  -26.2430  -13.0610   20.0940 N   0  0  0  0  0  0  0  0  0  0  0  0
  -25.9030  -11.7690   20.3370 N   0  0  0  0  0  0  0  0  0  0  0  0
  -23.9300  -10.5230   20.9390 C   0  0  0  0  0  0  0  0  0  0  0  0
  -24.3870   -9.5540   21.8590 C   0  0  0  0  0  3  0  0  0  0  0  0
  -23.6740   -8.3490   22.0410 C   0  0  0  0  0  3  0  0  0  0  0  0
  -22.4910   -8.1050   21.3050 C   0  0  0  0  0  0  0  0  0  0  0  0
  -22.0550   -9.0630   20.3710 C   0  0  0  0  0  3  0  0  0  0  0  0
  -22.7680  -10.2580   20.1870 C   0  0  0  0  0  3  0  0  0  0  0  0
  -21.7500   -6.9510   21.3970 O   0  0  0  0  0  0  0  0  0  0  0  0
  -21.6610   -6.2450   22.5700 C   0  0  0  0  0  0  0  0  0  0  0  0
  -21.1700   -6.8290   23.7570 C   0  0  0  0  0  3  0  0  0  0  0  0
  -21.0320   -6.0480   24.9220 C   0  0  0  0  0  3  0  0  0  0  0  0
  -21.3750   -4.6820   24.8990 C   0  0  0  0  0  0  0  0  0  0  0  0
  -21.8610   -4.0980   23.7160 C   0  0  0  0  0  3  0  0  0  0  0  0
  -22.0010   -4.8770   22.5540 C   0  0  0  0  0  0  0  0  0  0  0  0
  -22.4490   -4.3040   21.4110 F   0  0  0  0  0  0  0  0  0  0  0  0
  -21.2360   -3.9290   26.0140 F   0  0  0  0  0  0  0  0  0  0  0  0
  -22.8090  -13.6060   21.2520 C   0  0  0  0  0  0  0  0  0  0  0  0
  -22.1570  -12.8900   22.1620 N   0  0  0  0  0  0  0  0  0  0  0  0
  -22.3260  -14.6370   20.7860 O   0  0  0  0  0  0  0  0  0  0  0  0
  -22.5610  -12.0540   22.5570 H   0  0  0  0  0  0  0  0  0  0  0  0
  -21.2410  -13.1830   22.4680 H   0  0  0  0  0  0  0  0  0  0  0  0
  -25.3690  -15.3070   20.2980 N   0  0  0  0  0  0  0  0  0  0  0  0
  -24.6070  -15.9490   20.4840 H   0  0  0  0  0  0  0  0  0  0  0  0
  -26.1750  -15.7630   19.8890 H   0  0  0  0  0  0  0  0  0  0  0  0
  -30.5690  -20.3540   23.4140 N   0  0  0  0  0  0  0  0  0  0  0  0
  -29.7290  -20.4120   23.9790 H   0  0  0  0  0  0  0  0  0  0  0  0
  -31.4200  -21.7810   25.1940 C   0  0  0  0  0  1  0  0  0  0  0  0
  -32.8840  -21.2200   23.2080 C   0  0  0  0  0  1  0  0  0  0  0  0
  -31.7740  -20.7210   24.1480 C   0  0  0  0  0  3  0  0  0  0  0  0
  -29.3720  -21.6690   20.1270 C   0  0  0  0  0  3  0  0  0  0  0  0
  -32.0100  -21.5780   20.3920 C   0  0  0  0  0  1  0  0  0  0  0  0
  -30.7920  -21.6980   19.4480 C   0  0  0  0  0  3  0  0  0  0  0  0
  -32.0140  -19.7500   17.8020 C   0  0  0  0  0  1  0  0  0  0  0  0
  -30.8880  -20.7460   18.2070 C   0  0  0  0  0  2  0  0  0  0  0  0
  -29.5630  -23.4120   22.0800 C   0  0  0  0  0  1  0  0  0  0  0  0
  -28.8880  -23.0660   20.7280 C   0  0  0  0  0  3  0  0  0  0  0  0
  -28.9060  -24.3370   19.7940 C   0  0  0  0  0  2  0  0  0  0  0  0
  -27.9270  -25.4820   20.2300 C   0  0  0  0  0  2  0  0  0  0  0  0
  -28.0560  -26.7720   19.5660 O   0  0  0  0  0  0  0  0  0  0  0  0
  -24.5580  -31.9050   23.1550 C   0  0  0  0  0  0  0  0  0  0  0  0
  -26.9320  -27.5790   19.6730 C   0  0  0  0  0  0  0  0  0  0  0  0
  -23.2310  -30.5930   21.5370 C   0  0  0  0  0  3  0  0  0  0  0  0
  -24.5680  -29.1280   19.9280 C   0  0  0  0  0  0  0  0  0  0  0  0
  -25.7430  -30.9400   21.1800 C   0  0  0  0  0  2  0  0  0  0  0  0
  -25.7730  -29.6020   20.4610 C   0  0  0  0  0  0  0  0  0  0  0  0
  -26.9620  -28.8380   20.3270 C   0  0  0  0  0  3  0  0  0  0  0  0
  -25.7110  -27.1420   19.1160 C   0  0  0  0  0  3  0  0  0  0  0  0
  -24.5340  -27.8990   19.2490 C   0  0  0  0  0  3  0  0  0  0  0  0
  -23.3370  -29.9910   20.1100 C   0  0  0  0  0  2  0  0  0  0  0  0
  -24.5330  -31.1590   22.0130 N   0  0  0  0  0  0  0  0  0  0  0  0
  -23.5210  -32.1530   23.7820 O   0  0  0  0  0  0  0  0  0  0  0  0
  -22.6430  -29.5240   22.4860 C   0  0  0  0  0  0  0  0  0  0  0  0
  -21.3200  -29.3060   22.4020 N   0  0  0  0  0  0  0  0  0  0  0  0
  -23.3730  -28.8930   23.2570 O   0  0  0  0  0  0  0  0  0  0  0  0
  -20.7890  -29.8720   21.7530 H   0  0  0  0  0  0  0  0  0  0  0  0
  -18.0100  -27.9540   22.9360 C   0  0  0  0  0  0  0  0  0  0  0  0
  -20.5580  -28.3220   23.1710 C   0  0  0  0  0  3  0  0  0  0  0  0
  -20.7140  -26.9060   22.5720 C   0  0  0  0  0  2  0  0  0  0  0  0
  -19.6120  -26.5480   21.5710 C   0  0  0  0  0  2  0  0  0  0  0  0
  -18.2360  -26.6230   22.2400 C   0  0  0  0  0  2  0  0  0  0  0  0
  -19.1010  -28.7600   23.3590 C   0  0  0  0  0  0  0  0  0  0  0  0
  -18.8380  -30.0040   23.9700 C   0  0  0  0  0  3  0  0  0  0  0  0
  -17.5160  -30.4470   24.1640 C   0  0  0  0  0  3  0  0  0  0  0  0
  -16.4390  -29.6400   23.7580 C   0  0  0  0  0  3  0  0  0  0  0  0
  -16.6870  -28.3950   23.1510 C   0  0  0  0  0  3  0  0  0  0  0  0
  -25.8890  -32.5010   23.7130 C   0  0  0  0  0  3  0  0  0  0  0  0
  -25.6210  -33.8900   24.1060 N   0  0  0  0  0  0  0  0  0  0  0  0
  -25.9250  -34.9620   23.3610 C   0  0  0  0  0  0  0  0  0  0  0  0
  -26.5320  -34.8830   22.2910 O   0  0  0  0  0  0  0  0  0  0  0  0
  -25.0720  -34.0230   24.9410 H   0  0  0  0  0  0  0  0  0  0  0  0
  -24.2050  -36.7880   23.1600 C   0  0  0  0  0  1  0  0  0  0  0  0
  -25.4820  -36.3400   23.8890 C   0  0  0  0  0  3  0  0  0  0  0  0
  -27.6720  -37.1680   24.6320 C   0  0  0  0  0  1  0  0  0  0  0  0
  -26.5220  -37.3840   23.7550 N   0  0  0  0  0  0  0  0  0  0  0  0
  -26.1380  -38.3030   23.9540 H   0  0  0  0  0  0  0  0  0  0  0  0
  -26.4760  -31.6820   24.9280 C   0  0  1  0  0  0  0  0  0  0  0  0
  -25.4520  -31.4240   26.0590 C   0  0  0  0  0  1  0  0  0  0  0  0
  -27.0130  -30.3100   24.4540 C   0  0  0  0  0  1  0  0  0  0  0  0
  -27.6770  -32.4440   25.5380 C   0  0  0  0  0  1  0  0  0  0  0  0
  1 15  1  0
  1  2  1  0
  3 17  1  0
  4  9  1  0
  5  6  1  0
  5  4  1  0
  7  6  1  0
  7 22  1  0
  7  8  1  0
  9  3  1  0
  9  8  1  0
 10  3  2  0
 12 11  2  0
 13 11  1  0
 13 47  1  0
 14 12  1  0
 15 13  2  0
 16 14  2  0
 16 15  1  0
 17 14  1  0
 18 17  1  0
 19 20  2  0
 20 39  1  0
 21 20  1  0
 21 24  1  0
 22 23  1  0
 22 19  1  0
 23 21  2  0
 24 25  1  0
 25 26  2  0
 27 30  1  0
 27 26  1  0
 28 27  2  0
 29 28  1  0
 29 24  2  0
 30 31  1  0
 31 32  1  0
 32 33  2  0
 34 33  1  0
 34 38  1  0
 35 34  2  0
 36 31  2  0
 36 35  1  0
 37 36  1  0
 39 40  1  0
 40 43  1  0
 40 42  1  0
 41 39  2  0
 44 19  1  0
 44 45  1  0
 46 44  1  0
 47 48  1  0
 47 51  1  0
 50 51  1  0
 51 49  1  0
 52 58  1  0
 52  1  1  0
 54 52  1  0
 54 53  1  0
 55 56  1  0
 56 54  1  0
 58 57  1  0
 59 60  1  0
 59 58  1  0
 61 63  1  0
 61 60  1  0
 62 73  2  0
 63 68  1  0
 64 72  1  0
 64 74  1  0
 65 71  1  0
 65 67  1  0
 66 72  1  0
 67 66  1  0
 68 67  2  0
 69 70  1  0
 69 63  2  0
 70 65  2  0
 71 64  1  0
 72 62  1  0
 74 76  2  0
 75 74  1  0
 77 75  1  0
 78 87  2  0
 78 83  1  0
 79 75  1  0
 79 83  1  0
 80 79  1  0
 81 82  1  0
 81 80  1  0
 82 78  1  0
 83 84  2  0
 84 85  1  0
 86 85  2  0
 87 86  1  0
 88 62  1  0
 88 89  1  0
 88 98  1  0
 89 92  1  0
 90 94  1  0
 90 89  1  0
 91 90  2  0
 94 93  1  0
 96 94  1  0
 96 97  1  0
 96 95  1  0
 98101  1  1
 98 99  1  0
100 98  1  0
M  ISO  4   3 100  17 100  60 101  61 101
M  END
>  <TORSDO>  (85) 
F 24

>  <SCORE>  (85) 
-12.004

>  <name>  (85) 
84

>  <ligand_id>  (85) 
84

>  <original_smiles>  (85) 
[H]c1c(N([H])C(=O)N2C([H])([H])C([H])([H])C([H])([H])C([H])(n3nc(-c4c([H])c([H])c(Oc5c([H])c([H])c(F)c([H])c5F)c([H])c4[H])c(C(=O)N([H])[H])c3N([H])[H])C2([H])[H])nc(N([H])C([H])(C([H])(C([H])([H])[H])C([H])([H])C([H])([H])[H])C([H])(C([H])([H])[H])C([H])([H])C([H])([H])Oc2c([H])c([H])c3c(c2[H])C([H])([H])N(C(=O)C([H])(N([H])C(=O)C([H])(N([H])C([H])([H])[H])C([H])([H])[H])C(C([H])([H])[H])(C([H])([H])[H])C([H])([H])[H])C([H])(C(=O)N([H])C2([H])c4c([H])c([H])c([H])c([H])c4C([H])([H])C([H])([H])C2([H])[H])C3([H])[H])c(N([H])C([H])(C([H])([H])[H])C([H])([H])[H])c1[H]

>  <smiles>  (85) 
[H]c1c(N([H])C(=O)N2C([H])([H])C([H])([H])C([H])([H])C([H])(n3nc(-c4c([H])c([H])c(Oc5c([H])c([H])c(F)c([H])c5F)c([H])c4[H])c(C(=O)N([H])[H])c3N([H])[H])C2([H])[H])nc(N([H])C([H])(C([H])(C([H])([H])[H])C([H])([H])C([H])([H])[H])C([H])(C([H])([H])[H])C([H])([H])C([H])([H])Oc2c([H])c([H])c3c(c2[H])C([H])([H])N(C(=O)C([H])(N([H])C(=O)C([H])(N([H])C([H])([H])[H])C([H])([H])[H])C(C([H])([H])[H])(C([H])([H])[H])C([H])([H])[H])C([H])(C(=O)N([H])C2([H])c4c([H])c([H])c([H])c([H])c4C([H])([H])C([H])([H])C2([H])[H])C3([H])[H])c(N([H])C([H])(C([H])([H])[H])C([H])([H])[H])c1[H]

$$$$
85:0:0
     RDKit          3D

 96105  0  0  1  0  0  0  0  0999 V2000
  -28.4780  -22.6250   21.5420 C   0  0  0  0  0  0  0  0  0  0  0  0
  -27.6500  -21.3330   21.5360 C   0  0  0  0  0  2  0  0  0  0  0  0
  -27.4030  -20.7660   20.1180 C   0  0  0  0  0  2  0  0  0  0  0  0
  -28.4790  -21.1700   19.0850 C   0  0  0  0  0  2  0  0  0  0  0  0
  -29.8250  -21.5200   19.7610 C   0  0  0  0  0  3  0  0  0  0  0  0
  -29.5010  -22.7380   20.6570 N   0  0  0  0  0  0  0  0  0  0  0  0
  -28.1550  -23.5280   22.3210 O   0  0  0  0  0  0  0  0  0  0  0  0
  -31.9250  -18.3680   21.3740 C   0  0  0  0  0  3  0  0  0  0  0  0
  -30.9090  -17.8230   20.6230 C   0  0  0  0  0  0  0  0  0  0  0  0
  -30.4690  -20.1890   20.3650 C   0  0  0  0  0  0  0  0  0  0  0  0
  -30.1110  -18.8880   20.0610 N   0  0  0  0  0  0  0  0  0  0  0  0
  -31.8850  -20.1400   21.4200 S   0  0  0  0  0  0  0  0  0  0  0  0
  -31.4270  -15.2220   20.4090 C   0  0  0  0  0  0  0  0  0  0  0  0
  -31.2070  -12.9330   19.4010 C   0  0  0  0  0  2  0  0  0  0  0  0
  -30.2980  -13.0080   18.1530 C   0  0  0  0  0  2  0  0  0  0  0  0
  -28.8110  -12.8940   18.5440 C   0  0  0  0  0  2  0  0  0  0  0  0
  -28.4380  -13.8060   19.7430 C   0  0  0  0  0  3  0  0  0  0  0  0
  -29.4630  -13.6860   20.8930 C   0  0  0  0  0  2  0  0  0  0  0  0
  -30.7790  -14.0070   20.3270 N   0  0  0  0  0  0  0  0  0  0  0  0
  -32.6370  -15.2850   20.1540 O   0  0  0  0  0  0  0  0  0  0  0  0
  -30.6310  -16.3620   20.5270 N   0  0  0  0  0  0  0  0  0  0  0  0
  -29.6500  -16.1400   20.5260 H   0  0  0  0  0  0  0  0  0  0  0  0
  -26.0730  -14.5130   20.4440 C   0  0  0  0  0  0  0  0  0  0  0  0
  -24.9600  -13.7880   20.7700 C   0  0  0  0  0  0  0  0  0  0  0  0
  -25.3490  -12.4140   20.7060 C   0  0  0  0  0  0  0  0  0  0  0  0
  -27.0710  -13.5810   20.1980 N   0  0  0  0  0  0  0  0  0  0  0  0
  -26.6410  -12.3120   20.4200 N   0  0  0  0  0  0  0  0  0  0  0  0
  -24.5500  -11.1890   20.8390 C   0  0  0  0  0  0  0  0  0  0  0  0
  -24.8970  -10.1770   21.7610 C   0  0  0  0  0  3  0  0  0  0  0  0
  -24.1010   -9.0180   21.8820 C   0  0  0  0  0  3  0  0  0  0  0  0
  -22.9440   -8.8630   21.0810 C   0  0  0  0  0  0  0  0  0  0  0  0
  -22.6200   -9.8610   20.1470 C   0  0  0  0  0  3  0  0  0  0  0  0
  -23.4170  -11.0120   20.0210 C   0  0  0  0  0  3  0  0  0  0  0  0
  -22.1260   -7.7600   21.1150 O   0  0  0  0  0  0  0  0  0  0  0  0
  -21.9380   -7.0390   22.2680 C   0  0  0  0  0  0  0  0  0  0  0  0
  -21.4320   -7.6320   23.4440 C   0  0  0  0  0  3  0  0  0  0  0  0
  -21.1860   -6.8380   24.5830 C   0  0  0  0  0  3  0  0  0  0  0  0
  -21.4390   -5.4540   24.5460 C   0  0  0  0  0  0  0  0  0  0  0  0
  -21.9410   -4.8610   23.3750 C   0  0  0  0  0  3  0  0  0  0  0  0
  -22.1870   -5.6510   22.2380 C   0  0  0  0  0  0  0  0  0  0  0  0
  -22.6490   -5.0710   21.1040 F   0  0  0  0  0  0  0  0  0  0  0  0
  -21.1980   -4.6910   25.6390 F   0  0  0  0  0  0  0  0  0  0  0  0
  -23.5850  -14.3330   21.0290 C   0  0  0  0  0  0  0  0  0  0  0  0
  -22.8110  -13.6600   21.8750 N   0  0  0  0  0  0  0  0  0  0  0  0
  -23.2080  -15.3880   20.5190 O   0  0  0  0  0  0  0  0  0  0  0  0
  -23.1320  -12.8070   22.3080 H   0  0  0  0  0  0  0  0  0  0  0  0
  -21.8850  -14.0000   22.0870 H   0  0  0  0  0  0  0  0  0  0  0  0
  -26.3160  -15.8780   20.3100 N   0  0  0  0  0  0  0  0  0  0  0  0
  -25.5780  -16.5650   20.4260 H   0  0  0  0  0  0  0  0  0  0  0  0
  -27.1710  -16.2810   19.9510 H   0  0  0  0  0  0  0  0  0  0  0  0
  -30.0830  -24.1540   20.4870 C   0  0  0  0  0  2  0  0  0  0  0  0
  -29.2220  -25.3820   19.8170 C   0  0  0  0  0  3  0  0  0  0  0  0
  -31.1660  -25.9540   18.1810 C   0  0  0  0  0  1  0  0  0  0  0  0
  -29.3030  -24.3900   17.4270 C   0  0  0  0  0  1  0  0  0  0  0  0
  -29.6830  -25.5700   18.3340 C   0  0  0  0  0  3  0  0  0  0  0  0
  -29.1840  -26.7840   20.4150 O   0  0  0  0  0  0  0  0  0  0  0  0
  -24.8570  -31.9030   23.3260 C   0  0  0  0  0  0  0  0  0  0  0  0
  -28.0140  -27.5990   20.3300 C   0  0  0  0  0  0  0  0  0  0  0  0
  -23.8860  -30.4740   21.5700 C   0  0  0  0  0  3  0  0  0  0  0  0
  -25.5430  -29.0920   20.2070 C   0  0  0  0  0  0  0  0  0  0  0  0
  -26.4090  -30.9790   21.5750 C   0  0  0  0  0  2  0  0  0  0  0  0
  -26.6410  -29.6300   20.8890 C   0  0  0  0  0  0  0  0  0  0  0  0
  -27.8800  -28.9030   20.9310 C   0  0  0  0  0  3  0  0  0  0  0  0
  -26.8590  -27.1250   19.6600 C   0  0  0  0  0  3  0  0  0  0  0  0
  -25.6600  -27.8480   19.5800 C   0  0  0  0  0  3  0  0  0  0  0  0
  -24.2450  -29.8730   20.1900 C   0  0  0  0  0  2  0  0  0  0  0  0
  -25.0660  -31.1360   22.2160 N   0  0  0  0  0  0  0  0  0  0  0  0
  -23.7190  -32.0760   23.7890 O   0  0  0  0  0  0  0  0  0  0  0  0
  -23.2440  -29.3720   22.4500 C   0  0  0  0  0  0  0  0  0  0  0  0
  -21.9370  -29.1220   22.2560 N   0  0  0  0  0  0  0  0  0  0  0  0
  -23.9230  -28.7500   23.2710 O   0  0  0  0  0  0  0  0  0  0  0  0
  -21.4440  -29.6810   21.5740 H   0  0  0  0  0  0  0  0  0  0  0  0
  -18.6080  -27.7410   22.6060 C   0  0  0  0  0  0  0  0  0  0  0  0
  -21.1460  -28.1010   22.9490 C   0  0  0  0  0  3  0  0  0  0  0  0
  -21.3260  -26.7130   22.2910 C   0  0  0  0  0  2  0  0  0  0  0  0
  -20.2620  -26.4030   21.2340 C   0  0  0  0  0  2  0  0  0  0  0  0
  -18.8610  -26.4470   21.8540 C   0  0  0  0  0  2  0  0  0  0  0  0
  -19.6810  -28.5260   23.1080 C   0  0  0  0  0  0  0  0  0  0  0  0
  -19.3910  -29.7380   23.7710 C   0  0  0  0  0  3  0  0  0  0  0  0
  -18.0610  -30.1680   23.9350 C   0  0  0  0  0  3  0  0  0  0  0  0
  -17.0030  -29.3810   23.4470 C   0  0  0  0  0  3  0  0  0  0  0  0
  -17.2770  -28.1700   22.7910 C   0  0  0  0  0  3  0  0  0  0  0  0
  -26.0340  -32.6190   24.0550 C   0  0  0  0  0  3  0  0  0  0  0  0
  -26.4560  -31.9070   25.3980 C   0  0  1  0  0  0  0  0  0  0  0  0
  -25.2680  -31.6010   26.3430 C   0  0  0  0  0  1  0  0  0  0  0  0
  -27.1780  -30.5700   25.1070 C   0  0  0  0  0  1  0  0  0  0  0  0
  -27.4670  -32.7910   26.1640 C   0  0  0  0  0  1  0  0  0  0  0  0
  -25.6210  -34.0060   24.3160 N   0  0  0  0  0  0  0  0  0  0  0  0
  -25.9510  -35.0560   23.5520 C   0  0  0  0  0  0  0  0  0  0  0  0
  -26.7060  -34.9630   22.5790 O   0  0  0  0  0  0  0  0  0  0  0  0
  -24.9550  -34.1470   25.0620 H   0  0  0  0  0  0  0  0  0  0  0  0
  -24.1470  -36.7270   23.0200 C   0  0  0  0  0  1  0  0  0  0  0  0
  -25.3540  -36.4270   23.9250 C   0  0  0  0  0  3  0  0  0  0  0  0
  -27.3720  -37.4670   24.8580 C   0  0  0  0  0  1  0  0  0  0  0  0
  -26.3280  -37.5370   23.8400 N   0  0  0  0  0  0  0  0  0  0  0  0
  -25.8600  -38.4360   23.9260 H   0  0  0  0  0  0  0  0  0  0  0  0
  1  7  2  0
  2  1  1  0
  3  2  1  0
  4  5  1  0
  4  3  1  0
  5 10  1  0
  5  6  1  0
  6  1  1  0
  8 12  1  0
  9  8  2  0
 10 12  1  0
 11 10  2  0
 11  9  1  0
 13 21  1  0
 14 19  1  0
 15 16  1  0
 15 14  1  0
 17 16  1  0
 17 26  1  0
 17 18  1  0
 19 13  1  0
 19 18  1  0
 20 13  2  0
 21  9  1  0
 22 21  1  0
 23 24  2  0
 24 43  1  0
 25 24  1  0
 25 28  1  0
 26 27  1  0
 26 23  1  0
 27 25  2  0
 28 29  1  0
 29 30  2  0
 31 34  1  0
 31 30  1  0
 32 31  2  0
 33 32  1  0
 33 28  2  0
 34 35  1  0
 35 36  1  0
 36 37  2  0
 38 37  1  0
 38 42  1  0
 39 38  2  0
 40 35  2  0
 40 39  1  0
 41 40  1  0
 43 44  1  0
 44 47  1  0
 44 46  1  0
 45 43  2  0
 48 49  1  0
 48 23  1  0
 50 48  1  0
 51  6  1  0
 52 56  1  0
 52 51  1  0
 53 55  1  0
 54 55  1  0
 55 52  1  0
 57 68  2  0
 58 56  1  0
 58 63  1  0
 59 67  1  0
 59 69  1  0
 60 62  1  0
 61 67  1  0
 62 63  2  0
 62 61  1  0
 64 58  2  0
 65 64  1  0
 65 60  2  0
 66 60  1  0
 66 59  1  0
 67 57  1  0
 69 71  2  0
 70 69  1  0
 72 70  1  0
 73 82  2  0
 73 78  1  0
 74 70  1  0
 74 78  1  0
 75 74  1  0
 76 77  1  0
 76 75  1  0
 77 73  1  0
 78 79  2  0
 79 80  1  0
 81 80  2  0
 82 81  1  0
 83 57  1  0
 83 88  1  0
 83 84  1  0
 84 87  1  1
 84 85  1  0
 86 84  1  0
 88 91  1  0
 89 93  1  0
 89 88  1  0
 90 89  2  0
 93 92  1  0
 95 93  1  0
 95 96  1  0
 95 94  1  0
M  ISO  4  13 100  21 100  52 101  56 101
M  END
>  <TORSDO>  (86) 
F 20

>  <SCORE>  (86) 
-11.526

>  <name>  (86) 
85

>  <ligand_id>  (86) 
85

>  <original_smiles>  (86) 
[H]c1sc(C2([H])N(C([H])([H])C([H])(Oc3c([H])c([H])c4c(c3[H])C([H])([H])N(C(=O)C([H])(N([H])C(=O)C([H])(N([H])C([H])([H])[H])C([H])([H])[H])C(C([H])([H])[H])(C([H])([H])[H])C([H])([H])[H])C([H])(C(=O)N([H])C3([H])c5c([H])c([H])c([H])c([H])c5C([H])([H])C([H])([H])C3([H])[H])C4([H])[H])C([H])(C([H])([H])[H])C([H])([H])[H])C(=O)C([H])([H])C([H])([H])C2([H])[H])nc1N([H])C(=O)N1C([H])([H])C([H])([H])C([H])([H])C([H])(n2nc(-c3c([H])c([H])c(Oc4c([H])c([H])c(F)c([H])c4F)c([H])c3[H])c(C(=O)N([H])[H])c2N([H])[H])C1([H])[H]

>  <smiles>  (86) 
[H]c1sc(C2([H])N(C([H])([H])C([H])(Oc3c([H])c([H])c4c(c3[H])C([H])([H])N(C(=O)C([H])(N([H])C(=O)C([H])(N([H])C([H])([H])[H])C([H])([H])[H])C(C([H])([H])[H])(C([H])([H])[H])C([H])([H])[H])C([H])(C(=O)N([H])C3([H])c5c([H])c([H])c([H])c([H])c5C([H])([H])C([H])([H])C3([H])[H])C4([H])[H])C([H])(C([H])([H])[H])C([H])([H])[H])C(=O)C([H])([H])C([H])([H])C2([H])[H])nc1N([H])C(=O)N1C([H])([H])C([H])([H])C([H])([H])C([H])(n2nc(-c3c([H])c([H])c(Oc4c([H])c([H])c(F)c([H])c4F)c([H])c3[H])c(C(=O)N([H])[H])c2N([H])[H])C1([H])[H]

$$$$
86:0:0
     RDKit          3D

 93101  0  0  1  0  0  0  0  0999 V2000
  -27.8350  -21.9030   21.1710 C   0  0  0  0  0  1  0  0  0  0  0  0
  -28.8260  -22.3710   20.0930 C   0  0  0  0  0  3  0  0  0  0  0  0
  -31.6530  -17.9730   19.4220 C   0  0  0  0  0  3  0  0  0  0  0  0
  -30.5330  -17.6960   20.1710 C   0  0  0  0  0  0  0  0  0  0  0  0
  -30.4130  -20.0800   19.9690 C   0  0  0  0  0  0  0  0  0  0  0  0
  -29.8490  -18.9440   20.4640 N   0  0  0  0  0  0  0  0  0  0  0  0
  -30.0160  -21.4580   20.0450 N   0  0  0  0  0  0  0  0  0  0  0  0
  -31.8900  -19.6830   19.1020 S   0  0  0  0  0  0  0  0  0  0  0  0
  -30.7720  -22.0420   19.6920 H   0  0  0  0  0  0  0  0  0  0  0  0
  -28.5050  -16.3690   20.4820 C   0  0  0  0  0  1  0  0  0  0  0  0
  -30.2930  -16.2640   22.2300 C   0  0  0  0  0  1  0  0  0  0  0  0
  -30.0250  -16.2860   20.7110 C   0  0  2  0  0  0  0  0  0  0  0  0
  -30.6760  -14.9030   20.0950 C   0  0  0  0  0  0  0  0  0  0  0  0
  -30.4150  -12.6760   18.9400 C   0  0  0  0  0  2  0  0  0  0  0  0
  -29.4040  -12.7740   17.7730 C   0  0  0  0  0  2  0  0  0  0  0  0
  -27.9600  -12.5480   18.2690 C   0  0  0  0  0  2  0  0  0  0  0  0
  -27.6520  -13.3870   19.5310 C   0  0  0  0  0  3  0  0  0  0  0  0
  -28.7750  -13.2370   20.5900 C   0  0  0  0  0  2  0  0  0  0  0  0
  -30.0320  -13.6780   19.9700 N   0  0  0  0  0  0  0  0  0  0  0  0
  -31.8260  -14.9590   19.6440 O   0  0  0  0  0  0  0  0  0  0  0  0
  -25.3040  -13.9930   20.3970 C   0  0  0  0  0  0  0  0  0  0  0  0
  -24.2660  -13.2160   20.8240 C   0  0  0  0  0  0  0  0  0  0  0  0
  -24.7300  -11.8670   20.7480 C   0  0  0  0  0  0  0  0  0  0  0  0
  -26.3360  -13.1150   20.0920 N   0  0  0  0  0  0  0  0  0  0  0  0
  -25.9990  -11.8320   20.3680 N   0  0  0  0  0  0  0  0  0  0  0  0
  -24.0170  -10.6040   20.9480 C   0  0  0  0  0  0  0  0  0  0  0  0
  -24.4710   -9.6380   21.8720 C   0  0  0  0  0  3  0  0  0  0  0  0
  -23.7580   -8.4360   22.0590 C   0  0  0  0  0  3  0  0  0  0  0  0
  -22.5760   -8.1940   21.3230 C   0  0  0  0  0  0  0  0  0  0  0  0
  -22.1390   -9.1480   20.3880 C   0  0  0  0  0  3  0  0  0  0  0  0
  -22.8540  -10.3410   20.1970 C   0  0  0  0  0  3  0  0  0  0  0  0
  -21.8290   -7.0440   21.4230 O   0  0  0  0  0  0  0  0  0  0  0  0
  -21.7630   -6.3280   22.5900 C   0  0  0  0  0  0  0  0  0  0  0  0
  -21.3200   -6.9100   23.7970 C   0  0  0  0  0  3  0  0  0  0  0  0
  -21.2010   -6.1190   24.9580 C   0  0  0  0  0  3  0  0  0  0  0  0
  -21.5160   -4.7470   24.9120 C   0  0  0  0  0  0  0  0  0  0  0  0
  -21.9530   -4.1660   23.7080 C   0  0  0  0  0  3  0  0  0  0  0  0
  -22.0730   -4.9540   22.5490 C   0  0  0  0  0  0  0  0  0  0  0  0
  -22.4720   -4.3840   21.3880 F   0  0  0  0  0  0  0  0  0  0  0  0
  -21.3950   -3.9860   26.0230 F   0  0  0  0  0  0  0  0  0  0  0  0
  -22.8840  -13.6880   21.1750 C   0  0  0  0  0  0  0  0  0  0  0  0
  -22.2010  -12.9840   22.0700 N   0  0  0  0  0  0  0  0  0  0  0  0
  -22.4160  -14.7170   20.6870 O   0  0  0  0  0  0  0  0  0  0  0  0
  -22.5890  -12.1550   22.4940 H   0  0  0  0  0  0  0  0  0  0  0  0
  -21.2740  -13.2830   22.3370 H   0  0  0  0  0  0  0  0  0  0  0  0
  -25.4290  -15.3670   20.2180 N   0  0  0  0  0  0  0  0  0  0  0  0
  -24.6520  -15.9980   20.3890 H   0  0  0  0  0  0  0  0  0  0  0  0
  -26.2410  -15.8350   19.8400 H   0  0  0  0  0  0  0  0  0  0  0  0
  -29.1950  -23.9440   20.2260 C   0  0  0  0  0  3  0  0  0  0  0  0
  -30.2920  -24.1160   19.3440 O   0  0  0  0  0  0  0  0  0  0  0  0
  -30.5860  -25.0180   19.4390 H   0  0  0  0  0  0  0  0  0  0  0  0
  -28.0870  -25.0590   19.8540 C   0  0  0  0  0  2  0  0  0  0  0  0
  -28.2750  -26.5100   20.1690 O   0  0  0  0  0  0  0  0  0  0  0  0
  -24.5820  -31.9390   23.2540 C   0  0  0  0  0  0  0  0  0  0  0  0
  -27.1590  -27.3760   20.1300 C   0  0  0  0  0  0  0  0  0  0  0  0
  -23.3610  -30.5500   21.6210 C   0  0  0  0  0  3  0  0  0  0  0  0
  -24.7950  -29.0060   20.1700 C   0  0  0  0  0  0  0  0  0  0  0  0
  -25.9040  -30.8580   21.4150 C   0  0  0  0  0  2  0  0  0  0  0  0
  -25.9730  -29.4840   20.7560 C   0  0  0  0  0  0  0  0  0  0  0  0
  -27.1560  -28.6800   20.7260 C   0  0  0  0  0  3  0  0  0  0  0  0
  -25.9520  -26.9640   19.5130 C   0  0  0  0  0  3  0  0  0  0  0  0
  -24.7870  -27.7550   19.5390 C   0  0  0  0  0  3  0  0  0  0  0  0
  -23.5610  -29.8830   20.2360 C   0  0  0  0  0  2  0  0  0  0  0  0
  -24.6360  -31.1330   22.1530 N   0  0  0  0  0  0  0  0  0  0  0  0
  -23.5060  -32.2160   23.8010 O   0  0  0  0  0  0  0  0  0  0  0  0
  -22.7070  -29.5290   22.5840 C   0  0  0  0  0  0  0  0  0  0  0  0
  -21.3820  -29.3420   22.4620 N   0  0  0  0  0  0  0  0  0  0  0  0
  -23.3920  -28.9090   23.4020 O   0  0  0  0  0  0  0  0  0  0  0  0
  -20.8880  -29.8950   21.7750 H   0  0  0  0  0  0  0  0  0  0  0  0
  -18.0180  -28.0980   22.9520 C   0  0  0  0  0  0  0  0  0  0  0  0
  -20.5700  -28.3980   23.2340 C   0  0  0  0  0  3  0  0  0  0  0  0
  -20.6980  -26.9630   22.6700 C   0  0  0  0  0  2  0  0  0  0  0  0
  -19.6070  -26.6170   21.6520 C   0  0  0  0  0  2  0  0  0  0  0  0
  -18.2200  -26.7480   22.2870 C   0  0  0  0  0  2  0  0  0  0  0  0
  -19.1230  -28.8810   23.3820 C   0  0  0  0  0  0  0  0  0  0  0  0
  -18.8810  -30.1450   23.9640 C   0  0  0  0  0  3  0  0  0  0  0  0
  -17.5680  -30.6270   24.1200 C   0  0  0  0  0  3  0  0  0  0  0  0
  -16.4770  -29.8410   23.7050 C   0  0  0  0  0  3  0  0  0  0  0  0
  -16.7040  -28.5800   23.1270 C   0  0  0  0  0  3  0  0  0  0  0  0
  -25.8710  -32.5700   23.8660 C   0  0  0  0  0  3  0  0  0  0  0  0
  -25.5690  -33.9700   24.1980 N   0  0  0  0  0  0  0  0  0  0  0  0
  -25.8960  -35.0230   23.4380 C   0  0  0  0  0  0  0  0  0  0  0  0
  -26.5550  -34.9180   22.3990 O   0  0  0  0  0  0  0  0  0  0  0  0
  -24.9860  -34.1280   25.0070 H   0  0  0  0  0  0  0  0  0  0  0  0
  -24.1690  -36.8230   23.1070 C   0  0  0  0  0  1  0  0  0  0  0  0
  -25.4190  -36.4130   23.9020 C   0  0  0  0  0  3  0  0  0  0  0  0
  -27.5670  -37.2920   24.7080 C   0  0  0  0  0  1  0  0  0  0  0  0
  -26.4530  -37.4630   23.7770 N   0  0  0  0  0  0  0  0  0  0  0  0
  -26.0520  -38.3840   23.9310 H   0  0  0  0  0  0  0  0  0  0  0  0
  -26.3950  -31.8010   25.1420 C   0  0  1  0  0  0  0  0  0  0  0  0
  -25.3090  -31.5730   26.2190 C   0  0  0  0  0  1  0  0  0  0  0  0
  -26.9670  -30.4190   24.7520 C   0  0  0  0  0  1  0  0  0  0  0  0
  -27.5530  -32.5930   25.7950 C   0  0  0  0  0  1  0  0  0  0  0  0
  2 49  1  0
  2  1  1  0
  3  4  2  0
  4  6  1  0
  4 12  1  0
  5  7  1  0
  5  6  2  0
  7  2  1  0
  8  3  1  0
  8  5  1  0
  9  7  1  0
 12 10  1  1
 12 11  1  0
 13 12  1  0
 14 19  1  0
 15 16  1  0
 15 14  1  0
 17 16  1  0
 17 24  1  0
 17 18  1  0
 19 13  1  0
 19 18  1  0
 20 13  2  0
 21 22  2  0
 22 41  1  0
 23 22  1  0
 23 26  1  0
 24 25  1  0
 24 21  1  0
 25 23  2  0
 26 27  1  0
 27 28  2  0
 29 32  1  0
 29 28  1  0
 30 29  2  0
 31 30  1  0
 31 26  2  0
 32 33  1  0
 33 34  1  0
 34 35  2  0
 36 35  1  0
 36 40  1  0
 37 36  2  0
 38 33  2  0
 38 37  1  0
 39 38  1  0
 41 42  1  0
 42 45  1  0
 42 44  1  0
 43 41  2  0
 46 47  1  0
 46 21  1  0
 48 46  1  0
 49 52  1  0
 50 51  1  0
 50 49  1  0
 52 53  1  0
 54 65  2  0
 55 53  1  0
 55 60  1  0
 56 64  1  0
 56 66  1  0
 57 63  1  0
 57 59  1  0
 58 64  1  0
 59 58  1  0
 60 59  2  0
 61 62  1  0
 61 55  2  0
 62 57  2  0
 63 56  1  0
 64 54  1  0
 66 68  2  0
 67 66  1  0
 69 67  1  0
 70 79  2  0
 70 75  1  0
 71 67  1  0
 71 75  1  0
 72 71  1  0
 73 74  1  0
 73 72  1  0
 74 70  1  0
 75 76  2  0
 76 77  1  0
 78 77  2  0
 79 78  1  0
 80 54  1  0
 80 81  1  0
 80 90  1  0
 81 84  1  0
 82 86  1  0
 82 81  1  0
 83 82  2  0
 86 85  1  0
 88 86  1  0
 88 89  1  0
 88 87  1  0
 90 93  1  1
 90 91  1  0
 92 90  1  0
M  ISO  4  12 100  13 100  52 101  53 101
M  END
>  <TORSDO>  (87) 
F 21

>  <SCORE>  (87) 
-13.502

>  <name>  (87) 
86

>  <ligand_id>  (87) 
86

>  <original_smiles>  (87) 
[H]OC([H])(C([H])([H])Oc1c([H])c([H])c2c(c1[H])C([H])([H])N(C(=O)C([H])(N([H])C(=O)C([H])(N([H])C([H])([H])[H])C([H])([H])[H])C(C([H])([H])[H])(C([H])([H])[H])C([H])([H])[H])C([H])(C(=O)N([H])C1([H])c3c([H])c([H])c([H])c([H])c3C([H])([H])C([H])([H])C1([H])[H])C2([H])[H])C([H])(N([H])c1nc(C(C(=O)N2C([H])([H])C([H])([H])C([H])([H])C([H])(n3nc(-c4c([H])c([H])c(Oc5c([H])c([H])c(F)c([H])c5F)c([H])c4[H])c(C(=O)N([H])[H])c3N([H])[H])C2([H])[H])(C([H])([H])[H])C([H])([H])[H])c([H])s1)C([H])([H])[H]

>  <smiles>  (87) 
[H]OC([H])(C([H])([H])Oc1c([H])c([H])c2c(c1[H])C([H])([H])N(C(=O)C([H])(N([H])C(=O)C([H])(N([H])C([H])([H])[H])C([H])([H])[H])C(C([H])([H])[H])(C([H])([H])[H])C([H])([H])[H])C([H])(C(=O)N([H])C1([H])c3c([H])c([H])c([H])c([H])c3C([H])([H])C([H])([H])C1([H])[H])C2([H])[H])C([H])(N([H])c1nc(C(C(=O)N2C([H])([H])C([H])([H])C([H])([H])C([H])(n3nc(-c4c([H])c([H])c(Oc5c([H])c([H])c(F)c([H])c5F)c([H])c4[H])c(C(=O)N([H])[H])c3N([H])[H])C2([H])[H])(C([H])([H])[H])C([H])([H])[H])c([H])s1)C([H])([H])[H]

$$$$
87:0:0
     RDKit          3D

 98106  0  0  1  0  0  0  0  0999 V2000
  -28.7210  -19.9610   19.6420 C   0  0  0  0  0  3  0  0  0  0  0  0
  -30.8600  -14.4460   21.1180 C   0  0  0  0  0  0  0  0  0  0  0  0
  -30.6720  -12.2150   20.1370 C   0  0  0  0  0  2  0  0  0  0  0  0
  -29.8750  -12.3660   18.8230 C   0  0  0  0  0  2  0  0  0  0  0  0
  -28.3620  -12.2590   19.0920 C   0  0  0  0  0  2  0  0  0  0  0  0
  -27.8920  -13.1690   20.2570 C   0  0  0  0  0  3  0  0  0  0  0  0
  -28.8180  -13.0190   21.4870 C   0  0  0  0  0  2  0  0  0  0  0  0
  -30.2040  -13.2600   21.0550 N   0  0  0  0  0  0  0  0  0  0  0  0
  -32.0550  -14.5750   20.8360 O   0  0  0  0  0  0  0  0  0  0  0  0
  -30.0870  -18.1150   18.4590 C   0  0  0  0  0  3  0  0  0  0  0  0
  -29.3810  -18.6040   19.5320 C   0  0  0  0  0  0  0  0  0  0  0  0
  -30.0320  -16.5800   20.3620 C   0  0  0  0  0  0  0  0  0  0  0  0
  -29.3470  -17.7030   20.6130 N   0  0  0  0  0  0  0  0  0  0  0  0
  -30.0740  -15.5180   21.2960 N   0  0  0  0  0  0  0  0  0  0  0  0
  -30.7470  -16.5370   18.7500 S   0  0  0  0  0  0  0  0  0  0  0  0
  -29.2140  -15.3610   21.7940 H   0  0  0  0  0  0  0  0  0  0  0  0
  -25.4410  -13.8170   20.7140 C   0  0  0  0  0  0  0  0  0  0  0  0
  -24.3330  -13.0630   20.9930 C   0  0  0  0  0  0  0  0  0  0  0  0
  -24.7800  -11.7060   21.0370 C   0  0  0  0  0  0  0  0  0  0  0  0
  -26.4940  -12.9190   20.6030 N   0  0  0  0  0  0  0  0  0  0  0  0
  -26.0920  -11.6480   20.8560 N   0  0  0  0  0  0  0  0  0  0  0  0
  -24.0250  -10.4550   21.1860 C   0  0  0  0  0  0  0  0  0  0  0  0
  -24.3920   -9.4790   22.1380 C   0  0  0  0  0  3  0  0  0  0  0  0
  -23.6410   -8.2920   22.2720 C   0  0  0  0  0  3  0  0  0  0  0  0
  -22.5070   -8.0720   21.4530 C   0  0  0  0  0  0  0  0  0  0  0  0
  -22.1590   -9.0380   20.4920 C   0  0  0  0  0  3  0  0  0  0  0  0
  -22.9120  -10.2160   20.3570 C   0  0  0  0  0  3  0  0  0  0  0  0
  -21.7320   -6.9390   21.4950 O   0  0  0  0  0  0  0  0  0  0  0  0
  -21.6520   -6.1640   22.6230 C   0  0  0  0  0  0  0  0  0  0  0  0
  -21.2260   -6.6910   23.8610 C   0  0  0  0  0  3  0  0  0  0  0  0
  -21.0930   -5.8440   24.9800 C   0  0  0  0  0  3  0  0  0  0  0  0
  -21.3730   -4.4700   24.8600 C   0  0  0  0  0  0  0  0  0  0  0  0
  -21.7920   -3.9410   23.6270 C   0  0  0  0  0  3  0  0  0  0  0  0
  -21.9280   -4.7860   22.5110 C   0  0  0  0  0  0  0  0  0  0  0  0
  -22.3130   -4.2670   21.3200 F   0  0  0  0  0  0  0  0  0  0  0  0
  -21.2370   -3.6540   25.9330 F   0  0  0  0  0  0  0  0  0  0  0  0
  -22.9210  -13.5600   21.1120 C   0  0  0  0  0  0  0  0  0  0  0  0
  -22.1060  -12.9010   21.9280 N   0  0  0  0  0  0  0  0  0  0  0  0
  -22.5460  -14.5680   20.5180 O   0  0  0  0  0  0  0  0  0  0  0  0
  -22.4190  -12.0840   22.4320 H   0  0  0  0  0  0  0  0  0  0  0  0
  -21.1550  -13.2210   22.0520 H   0  0  0  0  0  0  0  0  0  0  0  0
  -25.6380  -15.1800   20.5260 N   0  0  0  0  0  0  0  0  0  0  0  0
  -24.8760  -15.8470   20.5840 H   0  0  0  0  0  0  0  0  0  0  0  0
  -26.5150  -15.6110   20.2630 H   0  0  0  0  0  0  0  0  0  0  0  0
  -26.9580  -21.2550   18.2460 C   0  0  0  0  0  1  0  0  0  0  0  0
  -28.3210  -20.5330   18.2370 C   0  0  0  0  0  3  0  0  0  0  0  0
  -29.4140  -21.4170   17.5850 C   0  0  0  0  0  2  0  0  0  0  0  0
  -30.4460  -22.4890   15.5550 C   0  0  0  0  0  1  0  0  0  0  0  0
  -29.8470  -20.0390   15.4590 C   0  0  0  0  0  1  0  0  0  0  0  0
  -29.4640  -21.4130   16.0410 C   0  0  0  0  0  3  0  0  0  0  0  0
  -29.6120  -20.8810   20.5170 C   0  0  0  0  0  2  0  0  0  0  0  0
  -28.9490  -22.1250   21.1130 C   0  0  0  0  0  0  0  0  0  0  0  0
  -27.7470  -22.1590   21.3920 O   0  0  0  0  0  0  0  0  0  0  0  0
  -29.8790  -23.2990   21.4490 C   0  0  0  0  0  3  0  0  0  0  0  0
  -29.7980  -23.5840   22.7510 F   0  0  0  0  0  0  0  0  0  0  0  0
  -29.6250  -24.5850   20.6330 C   0  0  0  0  0  2  0  0  0  0  0  0
  -28.2830  -25.2870   20.9100 C   0  0  0  0  0  2  0  0  0  0  0  0
  -28.3530  -26.6200   20.4050 O   0  0  0  0  0  0  0  0  0  0  0  0
  -24.5560  -31.9060   23.2860 C   0  0  0  0  0  0  0  0  0  0  0  0
  -27.1770  -27.3330   20.4040 C   0  0  0  0  0  0  0  0  0  0  0  0
  -23.3510  -30.4610   21.6800 C   0  0  0  0  0  3  0  0  0  0  0  0
  -24.7990  -28.8530   20.3350 C   0  0  0  0  0  0  0  0  0  0  0  0
  -25.8810  -30.7830   21.5010 C   0  0  0  0  0  2  0  0  0  0  0  0
  -25.9560  -29.3890   20.9170 C   0  0  0  0  0  0  0  0  0  0  0  0
  -27.1490  -28.6350   20.9450 C   0  0  0  0  0  3  0  0  0  0  0  0
  -26.0040  -26.8050   19.8190 C   0  0  0  0  0  3  0  0  0  0  0  0
  -24.8170  -27.5600   19.7840 C   0  0  0  0  0  3  0  0  0  0  0  0
  -23.5690  -29.7290   20.3290 C   0  0  0  0  0  2  0  0  0  0  0  0
  -24.6140  -31.0670   22.2140 N   0  0  0  0  0  0  0  0  0  0  0  0
  -23.4710  -32.2120   23.8000 O   0  0  0  0  0  0  0  0  0  0  0  0
  -22.6740  -29.4830   22.6670 C   0  0  0  0  0  0  0  0  0  0  0  0
  -21.3600  -29.2700   22.4890 N   0  0  0  0  0  0  0  0  0  0  0  0
  -23.3280  -28.9180   23.5470 O   0  0  0  0  0  0  0  0  0  0  0  0
  -20.8930  -29.7790   21.7510 H   0  0  0  0  0  0  0  0  0  0  0  0
  -17.9950  -28.0070   22.8590 C   0  0  0  0  0  0  0  0  0  0  0  0
  -20.5210  -28.3630   23.2730 C   0  0  0  0  0  3  0  0  0  0  0  0
  -20.7010  -26.9000   22.8080 C   0  0  0  0  0  2  0  0  0  0  0  0
  -19.6770  -26.4720   21.7530 C   0  0  0  0  0  2  0  0  0  0  0  0
  -18.2520  -26.6200   22.2970 C   0  0  0  0  0  2  0  0  0  0  0  0
  -19.0620  -28.8320   23.3030 C   0  0  0  0  0  0  0  0  0  0  0  0
  -18.7730  -30.1290   23.7820 C   0  0  0  0  0  3  0  0  0  0  0  0
  -17.4470  -30.6000   23.8280 C   0  0  0  0  0  3  0  0  0  0  0  0
  -16.3930  -29.7720   23.4020 C   0  0  0  0  0  3  0  0  0  0  0  0
  -16.6670  -28.4790   22.9240 C   0  0  0  0  0  3  0  0  0  0  0  0
  -25.8420  -32.5410   23.9000 C   0  0  0  0  0  3  0  0  0  0  0  0
  -25.5400  -33.9440   24.2100 N   0  0  0  0  0  0  0  0  0  0  0  0
  -25.8770  -34.9830   23.4330 C   0  0  0  0  0  0  0  0  0  0  0  0
  -26.5500  -34.8600   22.4060 O   0  0  0  0  0  0  0  0  0  0  0  0
  -24.9470  -34.1140   25.0080 H   0  0  0  0  0  0  0  0  0  0  0  0
  -24.1510  -36.7700   23.0510 C   0  0  0  0  0  1  0  0  0  0  0  0
  -25.3940  -36.3800   23.8660 C   0  0  0  0  0  3  0  0  0  0  0  0
  -27.5330  -37.2740   24.6750 C   0  0  0  0  0  1  0  0  0  0  0  0
  -26.4280  -37.4280   23.7320 N   0  0  0  0  0  0  0  0  0  0  0  0
  -26.0240  -38.3520   23.8660 H   0  0  0  0  0  0  0  0  0  0  0  0
  -26.3570  -31.7820   25.1860 C   0  0  1  0  0  0  0  0  0  0  0  0
  -25.2590  -31.5490   26.2500 C   0  0  0  0  0  1  0  0  0  0  0  0
  -26.9490  -30.4050   24.8060 C   0  0  0  0  0  1  0  0  0  0  0  0
  -27.5010  -32.5870   25.8460 C   0  0  0  0  0  1  0  0  0  0  0  0
  1 51  1  0
  2 14  1  0
  3  8  1  0
  4  5  1  0
  4  3  1  0
  6  5  1  0
  6 20  1  0
  6  7  1  0
  8  2  1  0
  8  7  1  0
  9  2  2  0
 10 15  1  0
 10 11  2  0
 11  1  1  0
 11 13  1  0
 12 13  2  0
 12 14  1  0
 14 16  1  0
 15 12  1  0
 17 18  2  0
 18 19  1  0
 18 37  1  0
 19 22  1  0
 20 17  1  0
 20 21  1  0
 21 19  2  0
 22 23  1  0
 23 24  2  0
 25 28  1  0
 25 24  1  0
 26 25  2  0
 27 26  1  0
 27 22  2  0
 28 29  1  0
 29 30  1  0
 30 31  2  0
 32 31  1  0
 32 36  1  0
 33 32  2  0
 34 29  2  0
 34 33  1  0
 35 34  1  0
 37 38  1  0
 38 41  1  0
 38 40  1  0
 39 37  2  0
 42 43  1  0
 42 17  1  0
 44 42  1  0
 46 45  1  0
 46  1  1  0
 47 46  1  0
 48 50  1  0
 49 50  1  0
 50 47  1  0
 51 52  1  0
 52 53  2  0
 52 54  1  0
 54 55  1  0
 56 57  1  0
 56 54  1  0
 58 57  1  0
 59 70  2  0
 60 58  1  0
 60 65  1  0
 61 69  1  0
 61 71  1  0
 62 64  1  0
 63 69  1  0
 64 65  2  0
 64 63  1  0
 66 60  2  0
 67 66  1  0
 67 62  2  0
 68 62  1  0
 68 61  1  0
 69 59  1  0
 71 73  2  0
 72 71  1  0
 74 72  1  0
 75 84  2  0
 75 80  1  0
 76 72  1  0
 76 80  1  0
 77 76  1  0
 78 79  1  0
 78 77  1  0
 79 75  1  0
 80 81  2  0
 81 82  1  0
 83 82  2  0
 84 83  1  0
 85 59  1  0
 85 86  1  0
 85 95  1  0
 86 89  1  0
 87 91  1  0
 87 86  1  0
 88 87  2  0
 91 90  1  0
 93 91  1  0
 93 94  1  0
 93 92  1  0
 95 98  1  1
 95 96  1  0
 97 95  1  0
M  ISO  4   2 100  14 100  57 101  58 101
M  END
>  <TORSDO>  (88) 
F 24

>  <SCORE>  (88) 
-12.613

>  <name>  (88) 
87

>  <ligand_id>  (88) 
87

>  <original_smiles>  (88) 
[H]c1sc(N([H])C(=O)N2C([H])([H])C([H])([H])C([H])([H])C([H])(n3nc(-c4c([H])c([H])c(Oc5c([H])c([H])c(F)c([H])c5F)c([H])c4[H])c(C(=O)N([H])[H])c3N([H])[H])C2([H])[H])nc1C([H])(C([H])([H])C(=O)C([H])(F)C([H])([H])C([H])([H])Oc1c([H])c([H])c2c(c1[H])C([H])([H])N(C(=O)C([H])(N([H])C(=O)C([H])(N([H])C([H])([H])[H])C([H])([H])[H])C(C([H])([H])[H])(C([H])([H])[H])C([H])([H])[H])C([H])(C(=O)N([H])C1([H])c3c([H])c([H])c([H])c([H])c3C([H])([H])C([H])([H])C1([H])[H])C2([H])[H])C([H])(C([H])([H])[H])C([H])([H])C([H])(C([H])([H])[H])C([H])([H])[H]

>  <smiles>  (88) 
[H]c1sc(N([H])C(=O)N2C([H])([H])C([H])([H])C([H])([H])C([H])(n3nc(-c4c([H])c([H])c(Oc5c([H])c([H])c(F)c([H])c5F)c([H])c4[H])c(C(=O)N([H])[H])c3N([H])[H])C2([H])[H])nc1C([H])(C([H])([H])C(=O)C([H])(F)C([H])([H])C([H])([H])Oc1c([H])c([H])c2c(c1[H])C([H])([H])N(C(=O)C([H])(N([H])C(=O)C([H])(N([H])C([H])([H])[H])C([H])([H])[H])C(C([H])([H])[H])(C([H])([H])[H])C([H])([H])[H])C([H])(C(=O)N([H])C1([H])c3c([H])c([H])c([H])c([H])c3C([H])([H])C([H])([H])C1([H])[H])C2([H])[H])C([H])(C([H])([H])[H])C([H])([H])C([H])(C([H])([H])[H])C([H])([H])[H]

$$$$
88:0:0
     RDKit          3D

 95103  0  0  1  0  0  0  0  0999 V2000
  -28.5110  -20.3290   21.2170 C   0  0  0  0  0  3  0  0  0  0  0  0
  -29.0180  -21.4480   20.4940 C   0  0  0  0  0  0  0  0  0  0  0  0
  -29.9660  -21.0510   19.5300 C   0  0  0  0  0  0  0  0  0  0  0  0
  -29.8910  -18.7890   20.1460 C   0  0  0  0  0  0  0  0  0  0  0  0
  -28.9370  -19.0370   21.0500 N   0  0  0  0  0  0  0  0  0  0  0  0
  -30.3830  -19.7700   19.3640 N   0  0  0  0  0  0  0  0  0  0  0  0
  -30.6430  -21.9960   18.7770 N   0  0  0  0  0  0  0  0  0  0  0  0
  -31.1540  -21.6920   17.9600 H   0  0  0  0  0  0  0  0  0  0  0  0
  -30.1430  -22.8760   18.6610 H   0  0  0  0  0  0  0  0  0  0  0  0
  -28.5980  -24.0150   20.1340 C   0  0  0  0  0  0  0  0  0  0  0  0
  -28.7010  -22.8510   20.8670 N   0  0  0  0  0  0  0  0  0  0  0  0
  -28.5100  -23.9670   18.9060 O   0  0  0  0  0  0  0  0  0  0  0  0
  -28.5650  -22.9950   21.8610 H   0  0  0  0  0  0  0  0  0  0  0  0
  -27.8360  -25.4500   22.1940 C   0  0  0  0  0  1  0  0  0  0  0  0
  -28.6070  -25.4410   20.8650 C   0  0  0  0  0  3  0  0  0  0  0  0
  -28.4430  -26.6750   20.0440 O   0  0  0  0  0  0  0  0  0  0  0  0
  -24.5750  -31.9350   23.2040 C   0  0  0  0  0  0  0  0  0  0  0  0
  -27.2890  -27.4700   20.0950 C   0  0  0  0  0  0  0  0  0  0  0  0
  -23.4000  -30.5330   21.5410 C   0  0  0  0  0  3  0  0  0  0  0  0
  -24.8850  -29.0180   20.1040 C   0  0  0  0  0  0  0  0  0  0  0  0
  -25.9290  -30.9120   21.3520 C   0  0  0  0  0  2  0  0  0  0  0  0
  -26.0420  -29.5410   20.6940 C   0  0  0  0  0  0  0  0  0  0  0  0
  -27.2500  -28.7790   20.6720 C   0  0  0  0  0  3  0  0  0  0  0  0
  -26.1080  -26.9890   19.4980 C   0  0  0  0  0  3  0  0  0  0  0  0
  -24.9180  -27.7500   19.4980 C   0  0  0  0  0  3  0  0  0  0  0  0
  -23.6320  -29.8720   20.1560 C   0  0  0  0  0  2  0  0  0  0  0  0
  -24.6540  -31.1450   22.0900 N   0  0  0  0  0  0  0  0  0  0  0  0
  -23.4840  -32.1800   23.7420 O   0  0  0  0  0  0  0  0  0  0  0  0
  -22.7540  -29.4920   22.4890 C   0  0  0  0  0  0  0  0  0  0  0  0
  -21.4280  -29.3100   22.3750 N   0  0  0  0  0  0  0  0  0  0  0  0
  -23.4480  -28.8520   23.2840 O   0  0  0  0  0  0  0  0  0  0  0  0
  -20.9310  -29.8840   21.7070 H   0  0  0  0  0  0  0  0  0  0  0  0
  -18.0550  -28.1080   22.9120 C   0  0  0  0  0  0  0  0  0  0  0  0
  -20.6210  -28.3490   23.1300 C   0  0  0  0  0  3  0  0  0  0  0  0
  -20.7010  -26.9380   22.5030 C   0  0  0  0  0  2  0  0  0  0  0  0
  -19.5730  -26.6570   21.5040 C   0  0  0  0  0  2  0  0  0  0  0  0
  -18.2090  -26.7820   22.1870 C   0  0  0  0  0  2  0  0  0  0  0  0
  -19.1870  -28.8520   23.3410 C   0  0  0  0  0  0  0  0  0  0  0  0
  -18.9880  -30.0950   23.9800 C   0  0  0  0  0  3  0  0  0  0  0  0
  -17.6880  -30.5930   24.1930 C   0  0  0  0  0  3  0  0  0  0  0  0
  -16.5720  -29.8470   23.7800 C   0  0  0  0  0  3  0  0  0  0  0  0
  -16.7570  -28.6050   23.1460 C   0  0  0  0  0  3  0  0  0  0  0  0
  -25.8410  -32.5820   23.8390 C   0  0  0  0  0  3  0  0  0  0  0  0
  -26.3560  -31.8140   25.1140 C   0  0  1  0  0  0  0  0  0  0  0  0
  -25.2610  -31.5440   26.1720 C   0  0  0  0  0  1  0  0  0  0  0  0
  -26.9650  -30.4520   24.7140 C   0  0  0  0  0  1  0  0  0  0  0  0
  -27.4920  -32.6200   25.7860 C   0  0  0  0  0  1  0  0  0  0  0  0
  -25.5110  -33.9770   24.1700 N   0  0  0  0  0  0  0  0  0  0  0  0
  -25.8330  -35.0360   23.4130 C   0  0  0  0  0  0  0  0  0  0  0  0
  -26.5070  -34.9420   22.3830 O   0  0  0  0  0  0  0  0  0  0  0  0
  -24.9120  -34.1220   24.9690 H   0  0  0  0  0  0  0  0  0  0  0  0
  -24.0910  -36.8100   23.0390 C   0  0  0  0  0  1  0  0  0  0  0  0
  -25.3260  -36.4180   23.8690 C   0  0  0  0  0  3  0  0  0  0  0  0
  -27.4350  -37.3240   24.7400 C   0  0  0  0  0  1  0  0  0  0  0  0
  -26.3520  -37.4820   23.7720 N   0  0  0  0  0  0  0  0  0  0  0  0
  -25.9340  -38.3980   23.9120 H   0  0  0  0  0  0  0  0  0  0  0  0
  -30.7240  -17.4410   20.2230 C   0  0  0  0  0  2  0  0  0  0  0  0
  -30.8160  -14.8960   19.9430 C   0  0  0  0  0  0  0  0  0  0  0  0
  -30.5030  -12.6320   18.9390 C   0  0  0  0  0  2  0  0  0  0  0  0
  -29.5030  -12.7460   17.7690 C   0  0  0  0  0  2  0  0  0  0  0  0
  -28.0640  -12.5770   18.2890 C   0  0  0  0  0  2  0  0  0  0  0  0
  -27.7720  -13.4460   19.5410 C   0  0  0  0  0  3  0  0  0  0  0  0
  -28.8960  -13.3520   20.5950 C   0  0  0  0  0  2  0  0  0  0  0  0
  -30.1580  -13.6860   19.9210 N   0  0  0  0  0  0  0  0  0  0  0  0
  -31.9580  -14.9790   19.4830 O   0  0  0  0  0  0  0  0  0  0  0  0
  -30.1350  -16.0430   20.2860 N   0  0  0  0  0  0  0  0  0  0  0  0
  -29.2020  -15.9630   20.6580 H   0  0  0  0  0  0  0  0  0  0  0  0
  -25.4460  -14.0150   20.4610 C   0  0  0  0  0  0  0  0  0  0  0  0
  -24.4070  -13.2320   20.8760 C   0  0  0  0  0  0  0  0  0  0  0  0
  -24.8530  -11.8800   20.7520 C   0  0  0  0  0  0  0  0  0  0  0  0
  -26.4640  -13.1440   20.1130 N   0  0  0  0  0  0  0  0  0  0  0  0
  -26.1190  -11.8510   20.3490 N   0  0  0  0  0  0  0  0  0  0  0  0
  -24.1320  -10.6140   20.9430 C   0  0  0  0  0  0  0  0  0  0  0  0
  -24.5750   -9.6450   21.8700 C   0  0  0  0  0  3  0  0  0  0  0  0
  -23.8540   -8.4470   22.0520 C   0  0  0  0  0  3  0  0  0  0  0  0
  -22.6740   -8.2100   21.3070 C   0  0  0  0  0  0  0  0  0  0  0  0
  -22.2500   -9.1680   20.3690 C   0  0  0  0  0  3  0  0  0  0  0  0
  -22.9720  -10.3580   20.1860 C   0  0  0  0  0  3  0  0  0  0  0  0
  -21.9220   -7.0640   21.3940 O   0  0  0  0  0  0  0  0  0  0  0  0
  -21.8270   -6.3520   22.5630 C   0  0  0  0  0  0  0  0  0  0  0  0
  -21.2790   -6.9160   23.7360 C   0  0  0  0  0  3  0  0  0  0  0  0
  -21.1400   -6.1290   24.8970 C   0  0  0  0  0  3  0  0  0  0  0  0
  -21.5320   -4.7780   24.8830 C   0  0  0  0  0  0  0  0  0  0  0  0
  -22.0740   -4.2140   23.7150 C   0  0  0  0  0  3  0  0  0  0  0  0
  -22.2180   -4.9980   22.5580 C   0  0  0  0  0  0  0  0  0  0  0  0
  -22.7200   -4.4420   21.4280 F   0  0  0  0  0  0  0  0  0  0  0  0
  -21.3910   -4.0200   25.9970 F   0  0  0  0  0  0  0  0  0  0  0  0
  -23.0370  -13.7050   21.2720 C   0  0  0  0  0  0  0  0  0  0  0  0
  -22.3710  -12.9770   22.1580 N   0  0  0  0  0  0  0  0  0  0  0  0
  -22.5740  -14.7610   20.8350 O   0  0  0  0  0  0  0  0  0  0  0  0
  -22.7630  -12.1260   22.5320 H   0  0  0  0  0  0  0  0  0  0  0  0
  -21.4590  -13.2760   22.4730 H   0  0  0  0  0  0  0  0  0  0  0  0
  -25.6030  -15.3940   20.3260 N   0  0  0  0  0  0  0  0  0  0  0  0
  -24.8340  -16.0330   20.4880 H   0  0  0  0  0  0  0  0  0  0  0  0
  -26.4140  -15.8490   19.9280 H   0  0  0  0  0  0  0  0  0  0  0  0
  2 11  1  0
  2  1  2  0
  3  2  1  0
  4 57  1  0
  4  5  2  0
  5  1  1  0
  6  3  2  0
  6  4  1  0
  7  3  1  0
  8  7  1  0
  9  7  1  0
 10 15  1  0
 10 11  1  0
 11 13  1  0
 12 10  2  0
 15 14  1  0
 16 18  1  0
 16 15  1  0
 17 28  2  0
 18 23  1  0
 19 27  1  0
 19 29  1  0
 20 26  1  0
 20 22  1  0
 21 27  1  0
 22 21  1  0
 23 22  2  0
 24 18  2  0
 25 24  1  0
 25 20  2  0
 26 19  1  0
 27 17  1  0
 29 31  2  0
 30 29  1  0
 32 30  1  0
 33 42  2  0
 33 38  1  0
 34 30  1  0
 34 38  1  0
 35 34  1  0
 36 37  1  0
 36 35  1  0
 37 33  1  0
 38 39  2  0
 39 40  1  0
 41 40  2  0
 42 41  1  0
 43 17  1  0
 43 48  1  0
 43 44  1  0
 44 47  1  1
 44 45  1  0
 46 44  1  0
 48 51  1  0
 49 53  1  0
 49 48  1  0
 50 49  2  0
 53 52  1  0
 55 53  1  0
 55 56  1  0
 55 54  1  0
 57 66  1  0
 58 66  1  0
 59 64  1  0
 60 61  1  0
 60 59  1  0
 62 61  1  0
 62 71  1  0
 62 63  1  0
 64 58  1  0
 64 63  1  0
 65 58  2  0
 66 67  1  0
 68 69  2  0
 69 88  1  0
 70 69  1  0
 70 73  1  0
 71 72  1  0
 71 68  1  0
 72 70  2  0
 73 74  1  0
 74 75  2  0
 76 79  1  0
 76 75  1  0
 77 76  2  0
 78 77  1  0
 78 73  2  0
 79 80  1  0
 80 81  1  0
 81 82  2  0
 83 82  1  0
 83 87  1  0
 84 83  2  0
 85 80  2  0
 85 84  1  0
 86 85  1  0
 88 89  1  0
 89 92  1  0
 89 91  1  0
 90 88  2  0
 93 68  1  0
 93 94  1  0
 95 93  1  0
M  ISO  4  15 101  16 101  58 100  66 100
M  END
>  <TORSDO>  (89) 
F 19

>  <SCORE>  (89) 
-13.521

>  <name>  (89) 
88

>  <ligand_id>  (89) 
88

>  <original_smiles>  (89) 
[H]c1nc(C([H])([H])N([H])C(=O)N2C([H])([H])C([H])([H])C([H])([H])C([H])(n3nc(-c4c([H])c([H])c(Oc5c([H])c([H])c(F)c([H])c5F)c([H])c4[H])c(C(=O)N([H])[H])c3N([H])[H])C2([H])[H])nc(N([H])[H])c1N([H])C(=O)C([H])(Oc1c([H])c([H])c2c(c1[H])C([H])([H])N(C(=O)C([H])(N([H])C(=O)C([H])(N([H])C([H])([H])[H])C([H])([H])[H])C(C([H])([H])[H])(C([H])([H])[H])C([H])([H])[H])C([H])(C(=O)N([H])C1([H])c3c([H])c([H])c([H])c([H])c3C([H])([H])C([H])([H])C1([H])[H])C2([H])[H])C([H])([H])[H]

>  <smiles>  (89) 
[H]c1nc(C([H])([H])N([H])C(=O)N2C([H])([H])C([H])([H])C([H])([H])C([H])(n3nc(-c4c([H])c([H])c(Oc5c([H])c([H])c(F)c([H])c5F)c([H])c4[H])c(C(=O)N([H])[H])c3N([H])[H])C2([H])[H])nc(N([H])[H])c1N([H])C(=O)C([H])(Oc1c([H])c([H])c2c(c1[H])C([H])([H])N(C(=O)C([H])(N([H])C(=O)C([H])(N([H])C([H])([H])[H])C([H])([H])[H])C(C([H])([H])[H])(C([H])([H])[H])C([H])([H])[H])C([H])(C(=O)N([H])C1([H])c3c([H])c([H])c([H])c([H])c3C([H])([H])C([H])([H])C1([H])[H])C2([H])[H])C([H])([H])[H]

$$$$
89:0:0
     RDKit          3D

 90 98  0  0  1  0  0  0  0  0999 V2000
  -29.9790  -19.0200   20.1700 C   0  0  0  0  0  0  0  0  0  0  0  0
  -29.4640  -21.2890   20.0970 C   0  0  0  0  0  3  0  0  0  0  0  0
  -29.7890  -20.1600   19.4040 N   0  0  0  0  0  0  0  0  0  0  0  0
  -29.7430  -19.2340   21.4850 N   0  0  0  0  0  2  0  0  0  0  0  0
  -29.2020  -22.5770   19.4850 N   0  0  0  0  0  0  0  0  0  0  0  0
  -29.3560  -20.8820   21.7860 S   0  0  0  0  0  0  0  0  0  0  0  0
  -29.2210  -22.5760   18.4700 H   0  0  0  0  0  0  0  0  0  0  0  0
  -30.5440  -17.6280   19.6200 C   0  0  0  0  0  2  0  0  0  0  0  0
  -30.8970  -15.0700   19.9410 C   0  0  0  0  0  0  0  0  0  0  0  0
  -30.6600  -12.7600   19.0160 C   0  0  0  0  0  2  0  0  0  0  0  0
  -29.6920  -12.7930   17.8130 C   0  0  0  0  0  2  0  0  0  0  0  0
  -28.2360  -12.6280   18.2890 C   0  0  0  0  0  2  0  0  0  0  0  0
  -27.8940  -13.5490   19.4910 C   0  0  0  0  0  3  0  0  0  0  0  0
  -28.9840  -13.5090   20.5850 C   0  0  0  0  0  2  0  0  0  0  0  0
  -30.2600  -13.8460   19.9440 N   0  0  0  0  0  0  0  0  0  0  0  0
  -32.0640  -15.1410   19.5470 O   0  0  0  0  0  0  0  0  0  0  0  0
  -30.1650  -16.2350   20.1370 N   0  0  0  0  0  0  0  0  0  0  0  0
  -29.2210  -16.1330   20.4770 H   0  0  0  0  0  0  0  0  0  0  0  0
  -25.5400  -14.1520   20.3080 C   0  0  0  0  0  0  0  0  0  0  0  0
  -24.4820  -13.3850   20.7110 C   0  0  0  0  0  0  0  0  0  0  0  0
  -24.9330  -12.0300   20.6570 C   0  0  0  0  0  0  0  0  0  0  0  0
  -26.5670  -13.2660   20.0280 N   0  0  0  0  0  0  0  0  0  0  0  0
  -26.2110  -11.9850   20.3030 N   0  0  0  0  0  0  0  0  0  0  0  0
  -24.2030  -10.7720   20.8650 C   0  0  0  0  0  0  0  0  0  0  0  0
  -24.6220   -9.8250   21.8260 C   0  0  0  0  0  3  0  0  0  0  0  0
  -23.8910   -8.6330   22.0220 C   0  0  0  0  0  3  0  0  0  0  0  0
  -22.7270   -8.3800   21.2570 C   0  0  0  0  0  0  0  0  0  0  0  0
  -22.3280   -9.3160   20.2880 C   0  0  0  0  0  3  0  0  0  0  0  0
  -23.0580  -10.4990   20.0890 C   0  0  0  0  0  3  0  0  0  0  0  0
  -21.9690   -7.2390   21.3610 O   0  0  0  0  0  0  0  0  0  0  0  0
  -21.8750   -6.5430   22.5400 C   0  0  0  0  0  0  0  0  0  0  0  0
  -21.3250   -7.1210   23.7060 C   0  0  0  0  0  3  0  0  0  0  0  0
  -21.1830   -6.3480   24.8750 C   0  0  0  0  0  3  0  0  0  0  0  0
  -21.5790   -4.9970   24.8790 C   0  0  0  0  0  0  0  0  0  0  0  0
  -22.1210   -4.4180   23.7180 C   0  0  0  0  0  3  0  0  0  0  0  0
  -22.2640   -5.1890   22.5500 C   0  0  0  0  0  0  0  0  0  0  0  0
  -22.7670   -4.6200   21.4280 F   0  0  0  0  0  0  0  0  0  0  0  0
  -21.4360   -4.2520   26.0000 F   0  0  0  0  0  0  0  0  0  0  0  0
  -23.0990  -13.8710   21.0330 C   0  0  0  0  0  0  0  0  0  0  0  0
  -22.3940  -13.1730   21.9160 N   0  0  0  0  0  0  0  0  0  0  0  0
  -22.6540  -14.9060   20.5360 O   0  0  0  0  0  0  0  0  0  0  0  0
  -22.7670  -12.3360   22.3380 H   0  0  0  0  0  0  0  0  0  0  0  0
  -21.4670  -13.4810   22.1740 H   0  0  0  0  0  0  0  0  0  0  0  0
  -25.7050  -15.5240   20.1280 N   0  0  0  0  0  0  0  0  0  0  0  0
  -24.9430  -16.1780   20.2690 H   0  0  0  0  0  0  0  0  0  0  0  0
  -26.5280  -15.9560   19.7310 H   0  0  0  0  0  0  0  0  0  0  0  0
  -29.2530  -23.9710   20.1050 C   0  0  0  0  0  2  0  0  0  0  0  0
  -28.8280  -25.2210   17.8680 C   0  0  0  0  0  1  0  0  0  0  0  0
  -28.4560  -25.1870   19.3600 C   0  0  0  0  0  3  0  0  0  0  0  0
  -28.5500  -26.6300   19.8180 O   0  0  0  0  0  0  0  0  0  0  0  0
  -24.7460  -31.8190   23.2160 C   0  0  0  0  0  0  0  0  0  0  0  0
  -27.4330  -27.5120   19.7980 C   0  0  0  0  0  0  0  0  0  0  0  0
  -23.5660  -30.5170   21.4850 C   0  0  0  0  0  3  0  0  0  0  0  0
  -25.0420  -29.1180   19.9280 C   0  0  0  0  0  0  0  0  0  0  0  0
  -26.1020  -30.8920   21.3180 C   0  0  0  0  0  2  0  0  0  0  0  0
  -26.2060  -29.5650   20.5640 C   0  0  0  0  0  0  0  0  0  0  0  0
  -27.4010  -28.7730   20.4940 C   0  0  0  0  0  3  0  0  0  0  0  0
  -26.2470  -27.1610   19.1130 C   0  0  0  0  0  3  0  0  0  0  0  0
  -25.0690  -27.9280   19.1890 C   0  0  0  0  0  3  0  0  0  0  0  0
  -23.7870  -29.9590   20.0550 C   0  0  0  0  0  2  0  0  0  0  0  0
  -24.8240  -31.0910   22.0620 N   0  0  0  0  0  0  0  0  0  0  0  0
  -23.6590  -32.0290   23.7740 O   0  0  0  0  0  0  0  0  0  0  0  0
  -22.9340  -29.4150   22.3710 C   0  0  0  0  0  0  0  0  0  0  0  0
  -21.6130  -29.2080   22.2340 N   0  0  0  0  0  0  0  0  0  0  0  0
  -23.6330  -28.7530   23.1430 O   0  0  0  0  0  0  0  0  0  0  0  0
  -21.1050  -29.7990   21.5910 H   0  0  0  0  0  0  0  0  0  0  0  0
  -18.2760  -27.8660   22.6460 C   0  0  0  0  0  0  0  0  0  0  0  0
  -20.8250  -28.1930   22.9370 C   0  0  0  0  0  3  0  0  0  0  0  0
  -20.9730  -26.8080   22.2660 C   0  0  0  0  0  2  0  0  0  0  0  0
  -19.8830  -26.5190   21.2310 C   0  0  0  0  0  2  0  0  0  0  0  0
  -18.4970  -26.5720   21.8800 C   0  0  0  0  0  2  0  0  0  0  0  0
  -19.3690  -28.6350   23.1290 C   0  0  0  0  0  0  0  0  0  0  0  0
  -19.1070  -29.8450   23.8060 C   0  0  0  0  0  3  0  0  0  0  0  0
  -17.7860  -30.2890   24.0040 C   0  0  0  0  0  3  0  0  0  0  0  0
  -16.7080  -29.5180   23.5350 C   0  0  0  0  0  3  0  0  0  0  0  0
  -16.9540  -28.3070   22.8620 C   0  0  0  0  0  3  0  0  0  0  0  0
  -26.0150  -32.4390   23.8750 C   0  0  0  0  0  3  0  0  0  0  0  0
  -26.5470  -31.6020   25.1030 C   0  0  1  0  0  0  0  0  0  0  0  0
  -25.4620  -31.2880   26.1590 C   0  0  0  0  0  1  0  0  0  0  0  0
  -27.1470  -30.2580   24.6320 C   0  0  0  0  0  1  0  0  0  0  0  0
  -27.6910  -32.3730   25.8040 C   0  0  0  0  0  1  0  0  0  0  0  0
  -25.6770  -33.8090   24.2910 N   0  0  0  0  0  0  0  0  0  0  0  0
  -26.0100  -34.9160   23.6140 C   0  0  0  0  0  0  0  0  0  0  0  0
  -26.7010  -34.8920   22.5930 O   0  0  0  0  0  0  0  0  0  0  0  0
  -25.0640  -33.9000   25.0890 H   0  0  0  0  0  0  0  0  0  0  0  0
  -24.2880  -36.7270   23.3260 C   0  0  0  0  0  1  0  0  0  0  0  0
  -25.4950  -36.2640   24.1570 C   0  0  0  0  0  3  0  0  0  0  0  0
  -27.5740  -37.0980   25.1650 C   0  0  0  0  0  1  0  0  0  0  0  0
  -26.5250  -37.3250   24.1720 N   0  0  0  0  0  0  0  0  0  0  0  0
  -26.1050  -38.2310   24.3580 H   0  0  0  0  0  0  0  0  0  0  0  0
  1  4  1  0
  2  5  1  0
  2  6  1  0
  3  2  1  0
  3  1  2  0
  4  6  1  0
  5 47  1  0
  7  5  1  0
  8 17  1  0
  8  1  1  0
  9 15  1  0
  9 17  1  0
 10 15  1  0
 11 12  1  0
 11 10  1  0
 13 12  1  0
 13 22  1  0
 13 14  1  0
 15 14  1  0
 16  9  2  0
 17 18  1  0
 19 20  2  0
 20 39  1  0
 21 20  1  0
 21 24  1  0
 22 23  1  0
 22 19  1  0
 23 21  2  0
 24 25  1  0
 25 26  2  0
 27 30  1  0
 27 26  1  0
 28 27  2  0
 29 28  1  0
 29 24  2  0
 30 31  1  0
 31 36  2  0
 31 32  1  0
 32 33  2  0
 33 34  1  0
 34 38  1  0
 35 34  2  0
 36 35  1  0
 37 36  1  0
 39 40  1  0
 40 43  1  0
 40 42  1  0
 41 39  2  0
 44 45  1  0
 44 19  1  0
 46 44  1  0
 49 48  1  0
 49 50  1  0
 49 47  1  0
 51 62  2  0
 52 50  1  0
 52 57  1  0
 53 61  1  0
 53 63  1  0
 54 60  1  0
 54 56  1  0
 55 61  1  0
 56 55  1  0
 57 56  2  0
 58 59  1  0
 58 52  2  0
 59 54  2  0
 60 53  1  0
 61 51  1  0
 63 65  2  0
 64 63  1  0
 66 64  1  0
 67 76  2  0
 67 72  1  0
 68 64  1  0
 68 72  1  0
 69 68  1  0
 70 71  1  0
 70 69  1  0
 71 67  1  0
 72 73  2  0
 73 74  1  0
 75 74  2  0
 76 75  1  0
 77 51  1  0
 77 82  1  0
 77 78  1  0
 78 81  1  1
 78 79  1  0
 80 78  1  0
 82 85  1  0
 83 87  1  0
 83 82  1  0
 84 83  2  0
 87 86  1  0
 87 89  1  0
 89 90  1  0
 89 88  1  0
M  ISO  4   9 100  17 100  49 101  50 101
M  END
>  <TORSDO>  (90) 
F 19

>  <SCORE>  (90) 
-12.990

>  <name>  (90) 
89

>  <ligand_id>  (90) 
89

>  <original_smiles>  (90) 
[H]c1c([H])c([H])c2c(c1[H])C([H])([H])C([H])([H])C([H])([H])C2([H])N([H])C(=O)C1([H])N(C(=O)C([H])(N([H])C(=O)C([H])(N([H])C([H])([H])[H])C([H])([H])[H])C(C([H])([H])[H])(C([H])([H])[H])C([H])([H])[H])C([H])([H])c2c([H])c(OC([H])(C([H])([H])[H])C([H])([H])N([H])c3nc(C([H])([H])N([H])C(=O)N4C([H])([H])C([H])([H])C([H])([H])C([H])(n5nc(-c6c([H])c([H])c(Oc7c([H])c([H])c(F)c([H])c7F)c([H])c6[H])c(C(=O)N([H])[H])c5N([H])[H])C4([H])[H])ns3)c([H])c([H])c2C1([H])[H]

>  <smiles>  (90) 
[H]c1c([H])c([H])c2c(c1[H])C([H])([H])C([H])([H])C([H])([H])C2([H])N([H])C(=O)C1([H])N(C(=O)C([H])(N([H])C(=O)C([H])(N([H])C([H])([H])[H])C([H])([H])[H])C(C([H])([H])[H])(C([H])([H])[H])C([H])([H])[H])C([H])([H])c2c([H])c(OC([H])(C([H])([H])[H])C([H])([H])N([H])c3nc(C([H])([H])N([H])C(=O)N4C([H])([H])C([H])([H])C([H])([H])C([H])(n5nc(-c6c([H])c([H])c(Oc7c([H])c([H])c(F)c([H])c7F)c([H])c6[H])c(C(=O)N([H])[H])c5N([H])[H])C4([H])[H])ns3)c([H])c([H])c2C1([H])[H]

$$$$
90:0:0
     RDKit          3D

100104  0  0  1  0  0  0  0  0999 V2000
  -23.1030  -27.2300   24.8740 C   0  0  0  0  0  2  0  0  0  0  0  0
  -23.8460  -26.2620   23.8220 N   0  0  0  0  0  0  0  0  0  0  0  0
  -22.5900  -26.5480   25.7550 O   0  0  0  0  0  1  0  0  0  0  0  0
  -23.7740  -25.3880   24.3270 H   0  0  0  0  0  0  0  0  0  0  0  0
  -24.7190  -26.5990   21.1850 C   0  0  0  0  0  3  0  0  0  0  0  0
  -25.5330  -24.5480   21.7740 C   0  0  0  0  0  0  0  0  0  0  0  0
  -24.6790  -25.8350   22.3450 C   0  0  0  0  0  0  0  0  0  0  0  0
  -26.1350  -24.3520   20.3650 C   0  0  0  0  0  0  0  0  0  0  0  0
  -25.7630  -23.4470   22.7600 C   0  0  0  0  0  1  0  0  0  0  0  0
  -25.5930  -25.9130   19.7240 S   0  0  0  0  0  0  0  0  0  0  0  0
  -27.2510  -23.1660   19.3930 C   0  0  0  0  0  2  0  0  0  0  0  0
  -28.9550  -21.8250   17.0640 C   0  0  0  0  0  0  0  0  0  0  0  0
  -27.9200  -22.7730   17.7730 N   0  0  0  0  0  0  0  0  0  0  0  0
  -29.6390  -21.2130   17.8850 O   0  0  0  0  0  0  0  0  0  0  0  0
  -27.4060  -23.2870   17.0690 H   0  0  0  0  0  0  0  0  0  0  0  0
  -29.4110  -21.3330   15.3080 C   0  0  0  0  0  2  0  0  0  0  0  0
  -30.5900  -20.2160   14.3160 C   0  0  0  0  0  0  0  0  0  0  0  0
  -31.6900  -19.6100   11.9020 C   0  0  0  0  0  2  0  0  0  0  0  0
  -32.0570  -20.8300   10.9880 C   0  0  0  0  0  2  0  0  0  0  0  0
  -30.8090  -21.4600   10.3440 C   0  0  0  0  0  2  0  0  0  0  0  0
  -29.6580  -21.5110   11.3720 C   0  0  0  0  0  3  0  0  0  0  0  0
  -29.4060  -20.1630   12.0510 C   0  0  0  0  0  2  0  0  0  0  0  0
  -30.5620  -19.9460   12.8920 N   0  0  0  0  0  0  0  0  0  0  0  0
  -31.6520  -19.6860   14.7380 O   0  0  0  0  0  0  0  0  0  0  0  0
  -27.5890  -22.9550   11.4330 C   0  0  0  0  0  0  0  0  0  0  0  0
  -26.5620  -23.1240   10.5530 C   0  0  0  0  0  0  0  0  0  0  0  0
  -26.8270  -22.2410    9.4600 C   0  0  0  0  0  0  0  0  0  0  0  0
  -28.4200  -22.0220   10.8490 N   0  0  0  0  0  0  0  0  0  0  0  0
  -27.9230  -21.5330    9.6880 N   0  0  0  0  0  0  0  0  0  0  0  0
  -26.1360  -22.0790    8.1790 C   0  0  0  0  0  0  0  0  0  0  0  0
  -25.7290  -20.8100    7.7130 C   0  0  0  0  0  3  0  0  0  0  0  0
  -25.0470  -20.6880    6.4830 C   0  0  0  0  0  3  0  0  0  0  0  0
  -24.7660  -21.8410    5.7120 C   0  0  0  0  0  0  0  0  0  0  0  0
  -25.1970  -23.0980    6.1700 C   0  0  0  0  0  3  0  0  0  0  0  0
  -25.8790  -23.2170    7.3910 C   0  0  0  0  0  3  0  0  0  0  0  0
  -24.1310  -21.8170    4.4950 O   0  0  0  0  0  0  0  0  0  0  0  0
  -23.2580  -20.8140    4.1590 C   0  0  0  0  0  0  0  0  0  0  0  0
  -22.1310  -20.5080    4.9540 C   0  0  0  0  0  3  0  0  0  0  0  0
  -21.2230  -19.5170    4.5340 C   0  0  0  0  0  3  0  0  0  0  0  0
  -21.4340  -18.8370    3.3190 C   0  0  0  0  0  0  0  0  0  0  0  0
  -22.5510  -19.1440    2.5250 C   0  0  0  0  0  3  0  0  0  0  0  0
  -23.4600  -20.1320    2.9430 C   0  0  0  0  0  0  0  0  0  0  0  0
  -24.5250  -20.4380    2.1630 F   0  0  0  0  0  0  0  0  0  0  0  0
  -20.5560  -17.8900    2.9120 F   0  0  0  0  0  0  0  0  0  0  0  0
  -25.4550  -24.1250   10.6750 C   0  0  0  0  0  0  0  0  0  0  0  0
  -24.2880  -23.8160   10.1230 N   0  0  0  0  0  0  0  0  0  0  0  0
  -25.6090  -25.1710   11.3040 O   0  0  0  0  0  0  0  0  0  0  0  0
  -24.1580  -22.9460    9.6270 H   0  0  0  0  0  0  0  0  0  0  0  0
  -23.5100  -24.4560   10.2010 H   0  0  0  0  0  0  0  0  0  0  0  0
  -27.9010  -23.5280   12.6640 N   0  0  0  0  0  0  0  0  0  0  0  0
  -27.3460  -24.2850   13.0500 H   0  0  0  0  0  0  0  0  0  0  0  0
  -28.7830  -23.4020   13.1410 H   0  0  0  0  0  0  0  0  0  0  0  0
  -22.7280  -29.1860   25.1690 C   0  0  0  0  0  1  0  0  0  0  0  0
  -23.6560  -31.0220   24.0410 C   0  0  0  0  0 15  0  0  0  0  0  0
  -25.6790  -30.9350   23.1590 C   0  0  0  0  0 15  0  0  0  0  0  0
  -27.2060  -29.8580   23.6060 O   0  0  0  0  0  1  0  0  0  0  0  0
  -24.9050  -28.5910   28.3610 C   0  0  0  0  0  0  0  0  0  0  0  0
  -28.5190  -29.8740   24.2850 C   0  0  0  0  0  3  0  0  0  0  0  0
  -25.1970  -29.5570   26.1220 C   0  0  0  0  0  3  0  0  0  0  0  0
  -27.0770  -31.2210   25.8280 C   0  0  0  0  0  3  0  0  0  0  0  0
  -27.0860  -29.5470   27.6730 C   0  0  0  0  0  2  0  0  0  0  0  0
  -27.7230  -30.1550   26.4480 C   0  0  0  0  0  3  0  0  0  0  0  0
  -28.6370  -29.4750   25.6500 C   0  0  0  0  0  2  0  0  0  0  0  0
  -28.8150  -31.1890   24.1070 C   0  0  0  0  0  2  0  0  0  0  0  0
  -27.7450  -31.8730   24.7300 C   0  0  0  0  0  2  0  0  0  0  0  0
  -25.5900  -31.1390   26.1160 C   0  0  0  0  0  2  0  0  0  0  0  0
  -25.7040  -29.1210   27.4030 N   0  0  0  0  0  0  0  0  0  0  0  0
  -23.6680  -28.6000   28.3400 O   0  0  0  0  0  0  0  0  0  0  0  0
  -25.4890  -28.4400   24.8100 C   0  0  0  0  0  0  0  0  0  0  0  0
  -24.8520  -28.3390   23.3270 N   0  0  0  0  0  0  0  0  0  0  0  0
  -26.0960  -27.4950   25.1910 O   0  0  0  0  0  0  0  0  0  0  0  0
  -25.4370  -27.6730   22.8360 H   0  0  0  0  0  0  0  0  0  0  0  0
  -20.5640  -29.0260   21.8430 C   0  0  0  0  0  0  0  0  0  0  0  0
  -23.2170  -28.3530   22.4930 C   0  0  0  0  0  3  0  0  0  0  0  0
  -23.5250  -28.9270   21.1900 C   0  0  0  0  0  2  0  0  0  0  0  0
  -22.5720  -30.0120   20.7920 C   0  0  0  0  0  2  0  0  0  0  0  0
  -21.1870  -29.4290   20.5510 C   0  0  0  0  0  2  0  0  0  0  0  0
  -21.4530  -28.6270   22.8900 C   0  0  0  0  0  0  0  0  0  0  0  0
  -20.6240  -28.5720   24.1200 C   0  0  0  0  0  3  0  0  0  0  0  0
  -19.2010  -28.6670   24.2360 C   0  0  0  0  0  3  0  0  0  0  0  0
  -18.4320  -28.9540   23.1100 C   0  0  0  0  0  3  0  0  0  0  0  0
  -19.1420  -29.1680   21.9230 C   0  0  0  0  0  3  0  0  0  0  0  0
  -25.5650  -27.8990   29.5480 C   0  0  0  0  0  3  0  0  0  0  0  0
  -25.9620  -26.4160   29.2080 C   0  0  1  0  0  0  0  0  0  0  0  0
  -24.8210  -25.5520   28.6260 C   0  0  0  0  0  1  0  0  0  0  0  0
  -27.1490  -26.3370   28.2230 C   0  0  0  0  0  1  0  0  0  0  0  0
  -26.4570  -25.7550   30.5060 C   0  0  0  0  0  1  0  0  0  0  0  0
  -24.6030  -27.9550   30.6510 N   0  0  0  0  0  0  0  0  0  0  0  0
  -24.5810  -28.9260   31.5660 C   0  0  0  0  0  0  0  0  0  0  0  0
  -25.4390  -29.8110   31.6200 O   0  0  0  0  0  0  0  0  0  0  0  0
  -23.8440  -27.2900   30.6320 H   0  0  0  0  0  0  0  0  0  0  0  0
  -22.3980  -29.9630   32.2720 C   0  0  0  0  0  1  0  0  0  0  0  0
  -23.4450  -28.8880   32.6020 C   0  0  0  0  0  3  0  0  0  0  0  0
  -24.7500  -27.9470   34.4540 C   0  0  0  0  0  1  0  0  0  0  0  0
  -23.9280  -29.0600   33.9880 N   0  0  0  0  0  0  0  0  0  0  0  0
  -23.1470  -29.1680   34.6310 H   0  0  0  0  0  0  0  0  0  0  0  0
  -22.3280  -29.4490   26.6410 C   0  0  0  0  0  2  0  0  0  0  0  0
  -20.9680  -27.8170   28.1420 C   0  0  0  0  0  1  0  0  0  0  0  0
  -20.2470  -30.1880   27.9220 C   0  0  0  0  0  1  0  0  0  0  0  0
  -20.9230  -29.0190   27.1820 C   0  0  0  0  0  3  0  0  0  0  0  0
  1  3  1  0
  2  4  1  0
  2  1  1  0
  5  7  2  0
  6  7  1  0
  6  9  1  0
  7  2  1  0
  8  6  2  0
 10  8  1  0
 10  5  1  0
 11  8  1  0
 12 13  1  0
 12 14  2  0
 13 11  1  0
 15 13  1  0
 16 12  1  0
 17 24  2  0
 17 16  1  0
 18 23  1  0
 19 18  1  0
 20 19  1  0
 21 20  1  0
 21 22  1  0
 22 23  1  0
 23 17  1  0
 25 50  1  0
 26 45  1  0
 26 25  2  0
 27 29  2  0
 27 26  1  0
 28 21  1  0
 28 25  1  0
 29 28  1  0
 30 27  1  0
 31 30  1  0
 32 31  2  0
 33 34  2  0
 33 32  1  0
 34 35  1  0
 35 30  2  0
 36 33  1  0
 37 36  1  0
 37 38  1  0
 39 38  2  0
 40 39  1  0
 41 42  1  0
 41 40  2  0
 42 37  2  0
 43 42  1  0
 44 40  1  0
 45 47  2  0
 46 49  1  0
 46 45  1  0
 48 46  1  0
 50 51  1  0
 50 52  1  0
 53 97  1  0
 58 56  1  0
 58 63  1  0
 59 69  1  0
 59 67  1  0
 60 65  1  0
 60 66  1  0
 60 62  1  0
 62 63  1  0
 62 61  1  0
 64 58  1  0
 64 65  1  0
 66 59  1  0
 67 61  1  0
 67 57  1  0
 68 57  2  0
 69 71  2  0
 70 69  1  0
 72 70  1  0
 73 82  2  0
 73 78  1  0
 74 78  1  0
 74 70  1  0
 75 74  1  0
 76 75  1  0
 77 76  1  0
 77 73  1  0
 78 79  2  0
 79 80  1  0
 81 80  2  0
 82 81  1  0
 83 57  1  0
 83 88  1  0
 84 83  1  0
 84 87  1  1
 85 84  1  0
 86 84  1  0
 88 89  1  0
 89 90  2  0
 89 93  1  0
 91 88  1  0
 93 92  1  0
 93 95  1  0
 95 94  1  0
 95 96  1  0
 97100  1  0
100 99  1  0
100 98  1  0
M  ISO  4  16 100  17 100  55 101  56 101
M  END
>  <TORSDO>  (91) 
F 25

>  <SCORE>  (91) 
37.860

>  <name>  (91) 
90

>  <ligand_id>  (91) 
90

>  <original_smiles>  (91) 
[H]c1sc(C([H])([H])N([H])C(=O)C([H])([H])C(=O)N2C([H])([H])C([H])([H])C([H])([H])C([H])(n3nc(-c4c([H])c([H])c(Oc5c([H])c([H])c(F)c([H])c5F)c([H])c4[H])c(C(=O)N([H])[H])c3N([H])[H])C2([H])[H])c(C([H])([H])[H])c1N([H])C(=O)C([H])(C([H])([H])C([H])([H])Oc1c([H])c([H])c2c(c1[H])C([H])([H])N(C(=O)C([H])(N([H])C(=O)C([H])(N([H])C([H])([H])[H])C([H])([H])[H])C(C([H])([H])[H])(C([H])([H])[H])C([H])([H])[H])C([H])(C(=O)N([H])C1([H])c3c([H])c([H])c([H])c([H])c3C([H])([H])C([H])([H])C1([H])[H])C2([H])[H])C([H])([H])C([H])(C([H])([H])[H])C([H])([H])[H]

>  <smiles>  (91) 
[H]c1sc(C([H])([H])N([H])C(=O)C([H])([H])C(=O)N2C([H])([H])C([H])([H])C([H])([H])C([H])(n3nc(-c4c([H])c([H])c(Oc5c([H])c([H])c(F)c([H])c5F)c([H])c4[H])c(C(=O)N([H])[H])c3N([H])[H])C2([H])[H])c(C([H])([H])[H])c1N([H])C(=O)C([H])(C([H])([H])C([H])([H])Oc1c([H])c([H])c2c(c1[H])C([H])([H])N(C(=O)C([H])(N([H])C(=O)C([H])(N([H])C([H])([H])[H])C([H])([H])[H])C(C([H])([H])[H])(C([H])([H])[H])C([H])([H])[H])C([H])(C(=O)N([H])C1([H])c3c([H])c([H])c([H])c([H])c3C([H])([H])C([H])([H])C1([H])[H])C2([H])[H])C([H])([H])C([H])(C([H])([H])[H])C([H])([H])[H]

$$$$
91:0:0
     RDKit          3D

 96104  0  0  1  0  0  0  0  0999 V2000
  -28.9050  -21.6900   20.1540 C   0  0  0  0  0  3  0  0  0  0  0  0
  -27.7190  -20.9730   19.4660 C   0  0  0  0  0  0  0  0  0  0  0  0
  -27.8570  -19.9830   18.7410 O   0  0  0  0  0  0  0  0  0  0  0  0
  -25.8770  -22.3900   18.4200 C   0  0  0  0  0  1  0  0  0  0  0  0
  -26.3340  -21.5900   19.6500 C   0  0  0  0  0  2  0  0  0  0  0  0
  -30.1940  -21.0640   19.8110 N   0  0  0  0  0  0  0  0  0  0  0  0
  -30.8700  -21.6800   19.3730 H   0  0  0  0  0  0  0  0  0  0  0  0
  -31.1150  -15.0470   21.1150 C   0  0  0  0  0  0  0  0  0  0  0  0
  -30.9200  -12.7380   20.2790 C   0  0  0  0  0  2  0  0  0  0  0  0
  -30.1820  -12.7820   18.9250 C   0  0  0  0  0  2  0  0  0  0  0  0
  -28.6600  -12.6930   19.1420 C   0  0  0  0  0  2  0  0  0  0  0  0
  -28.1470  -13.6830   20.2220 C   0  0  0  0  0  3  0  0  0  0  0  0
  -29.0300  -13.6530   21.4920 C   0  0  0  0  0  2  0  0  0  0  0  0
  -30.4230  -13.8700   21.0820 N   0  0  0  0  0  0  0  0  0  0  0  0
  -32.3370  -15.0640   20.9550 O   0  0  0  0  0  0  0  0  0  0  0  0
  -30.6570  -19.7120   19.9260 C   0  0  0  0  0  0  0  0  0  0  0  0
  -31.7570  -19.2960   19.2240 C   0  0  0  0  0  0  0  0  0  0  0  0
  -30.7950  -17.4640   20.5330 C   0  0  0  0  0  0  0  0  0  0  0  0
  -30.1130  -18.6360   20.6940 N   0  0  0  0  0  0  0  0  0  0  0  0
  -30.3970  -16.2060   21.1390 N   0  0  0  0  0  0  0  0  0  0  0  0
  -32.4730  -20.1070   18.4050 F   0  0  0  0  0  0  0  0  0  0  0  0
  -32.1670  -17.6270   19.4200 S   0  0  0  0  0  0  0  0  0  0  0  0
  -29.4330  -16.1360   21.4210 H   0  0  0  0  0  0  0  0  0  0  0  0
  -25.7130  -14.3800   20.6520 C   0  0  0  0  0  0  0  0  0  0  0  0
  -24.5750  -13.6530   20.8750 C   0  0  0  0  0  0  0  0  0  0  0  0
  -24.9780  -12.2820   20.8860 C   0  0  0  0  0  0  0  0  0  0  0  0
  -26.7390  -13.4570   20.5340 N   0  0  0  0  0  0  0  0  0  0  0  0
  -26.2950  -12.1890   20.7380 N   0  0  0  0  0  0  0  0  0  0  0  0
  -24.1790  -11.0540   20.9690 C   0  0  0  0  0  0  0  0  0  0  0  0
  -24.4920  -10.0300   21.8910 C   0  0  0  0  0  3  0  0  0  0  0  0
  -23.6970   -8.8650   21.9650 C   0  0  0  0  0  3  0  0  0  0  0  0
  -22.5740   -8.7160   21.1180 C   0  0  0  0  0  0  0  0  0  0  0  0
  -22.2810   -9.7270   20.1860 C   0  0  0  0  0  3  0  0  0  0  0  0
  -23.0770  -10.8830   20.1090 C   0  0  0  0  0  3  0  0  0  0  0  0
  -21.7610   -7.6090   21.1020 O   0  0  0  0  0  0  0  0  0  0  0  0
  -21.6380   -6.7920   22.1960 C   0  0  0  0  0  0  0  0  0  0  0  0
  -21.2070   -7.2810   23.4480 C   0  0  0  0  0  3  0  0  0  0  0  0
  -21.0280   -6.3930   24.5270 C   0  0  0  0  0  3  0  0  0  0  0  0
  -21.2680   -5.0170   24.3560 C   0  0  0  0  0  0  0  0  0  0  0  0
  -21.6940   -4.5270   23.1080 C   0  0  0  0  0  3  0  0  0  0  0  0
  -21.8750   -5.4120   22.0320 C   0  0  0  0  0  0  0  0  0  0  0  0
  -22.2640   -4.9310   20.8260 F   0  0  0  0  0  0  0  0  0  0  0  0
  -21.0880   -4.1630   25.3890 F   0  0  0  0  0  0  0  0  0  0  0  0
  -23.1770  -14.1910   20.9750 C   0  0  0  0  0  0  0  0  0  0  0  0
  -22.3210  -13.5350   21.7490 N   0  0  0  0  0  0  0  0  0  0  0  0
  -22.8510  -15.2300   20.4020 O   0  0  0  0  0  0  0  0  0  0  0  0
  -22.5950  -12.6950   22.2360 H   0  0  0  0  0  0  0  0  0  0  0  0
  -21.3780  -13.8810   21.8600 H   0  0  0  0  0  0  0  0  0  0  0  0
  -25.9580  -15.7440   20.5200 N   0  0  0  0  0  0  0  0  0  0  0  0
  -25.2120  -16.4310   20.5580 H   0  0  0  0  0  0  0  0  0  0  0  0
  -26.8580  -16.1530   20.3080 H   0  0  0  0  0  0  0  0  0  0  0  0
  -28.8190  -23.2170   19.7460 C   0  0  0  0  0  2  0  0  0  0  0  0
  -29.5740  -24.3570   20.5290 C   0  0  0  0  0  2  0  0  0  0  0  0
  -28.6530  -25.4660   22.6370 C   0  0  0  0  0  1  0  0  0  0  0  0
  -28.6370  -25.4880   21.1040 C   0  0  0  0  0  3  0  0  0  0  0  0
  -28.8920  -26.8690   20.6830 O   0  0  0  0  0  0  0  0  0  0  0  0
  -24.7580  -32.0230   23.4670 C   0  0  0  0  0  0  0  0  0  0  0  0
  -27.7510  -27.6570   20.5600 C   0  0  0  0  0  0  0  0  0  0  0  0
  -23.7170  -30.5830   21.7500 C   0  0  0  0  0  3  0  0  0  0  0  0
  -25.3190  -29.1180   20.4070 C   0  0  0  0  0  0  0  0  0  0  0  0
  -26.2390  -31.0320   21.7180 C   0  0  0  0  0  2  0  0  0  0  0  0
  -26.4210  -29.6680   21.0750 C   0  0  0  0  0  0  0  0  0  0  0  0
  -27.6440  -28.9470   21.1470 C   0  0  0  0  0  3  0  0  0  0  0  0
  -26.6370  -27.1530   19.8530 C   0  0  0  0  0  3  0  0  0  0  0  0
  -25.4260  -27.8620   19.7880 C   0  0  0  0  0  3  0  0  0  0  0  0
  -24.0420  -29.9280   20.3820 C   0  0  0  0  0  2  0  0  0  0  0  0
  -24.9190  -31.2280   22.3710 N   0  0  0  0  0  0  0  0  0  0  0  0
  -23.6340  -32.2490   23.9370 O   0  0  0  0  0  0  0  0  0  0  0  0
  -23.0470  -29.5300   22.6630 C   0  0  0  0  0  0  0  0  0  0  0  0
  -21.7310  -29.3240   22.4780 N   0  0  0  0  0  0  0  0  0  0  0  0
  -23.7070  -28.9030   23.4950 O   0  0  0  0  0  0  0  0  0  0  0  0
  -21.2580  -29.8800   21.7790 H   0  0  0  0  0  0  0  0  0  0  0  0
  -18.3500  -28.1080   22.8760 C   0  0  0  0  0  0  0  0  0  0  0  0
  -20.9030  -28.3570   23.1990 C   0  0  0  0  0  3  0  0  0  0  0  0
  -21.0160  -26.9500   22.5680 C   0  0  0  0  0  2  0  0  0  0  0  0
  -19.9310  -26.6670   21.5240 C   0  0  0  0  0  2  0  0  0  0  0  0
  -18.5390  -26.7860   22.1520 C   0  0  0  0  0  2  0  0  0  0  0  0
  -19.4610  -28.8530   23.3550 C   0  0  0  0  0  0  0  0  0  0  0  0
  -19.2310  -30.0910   23.9930 C   0  0  0  0  0  3  0  0  0  0  0  0
  -17.9240  -30.5860   24.1570 C   0  0  0  0  0  3  0  0  0  0  0  0
  -16.8270  -29.8380   23.6950 C   0  0  0  0  0  3  0  0  0  0  0  0
  -17.0410  -28.6000   23.0610 C   0  0  0  0  0  3  0  0  0  0  0  0
  -25.9730  -32.7030   24.1690 C   0  0  0  0  0  3  0  0  0  0  0  0
  -26.3820  -32.0010   25.5210 C   0  0  1  0  0  0  0  0  0  0  0  0
  -25.1980  -31.7820   26.4920 C   0  0  0  0  0  1  0  0  0  0  0  0
  -27.0290  -30.6220   25.2470 C   0  0  0  0  0  1  0  0  0  0  0  0
  -27.4480  -32.8510   26.2520 C   0  0  0  0  0  1  0  0  0  0  0  0
  -25.6200  -34.1110   24.4000 N   0  0  0  0  0  0  0  0  0  0  0  0
  -25.9840  -35.1260   23.6060 C   0  0  0  0  0  0  0  0  0  0  0  0
  -26.7230  -34.9800   22.6280 O   0  0  0  0  0  0  0  0  0  0  0  0
  -24.9720  -34.2960   25.1510 H   0  0  0  0  0  0  0  0  0  0  0  0
  -24.2360  -36.8490   23.0600 C   0  0  0  0  0  1  0  0  0  0  0  0
  -25.4440  -36.5270   23.9530 C   0  0  0  0  0  3  0  0  0  0  0  0
  -27.5170  -37.5130   24.8260 C   0  0  0  0  0  1  0  0  0  0  0  0
  -26.4570  -37.5980   23.8250 N   0  0  0  0  0  0  0  0  0  0  0  0
  -26.0230  -38.5140   23.9020 H   0  0  0  0  0  0  0  0  0  0  0  0
  1 52  1  0
  2  5  1  0
  2  1  1  0
  3  2  2  0
  4  5  1  0
  6 16  1  0
  6  1  1  0
  7  6  1  0
  8 20  1  0
  9 14  1  0
 10 11  1  0
 10  9  1  0
 12 11  1  0
 12 27  1  0
 12 13  1  0
 14  8  1  0
 14 13  1  0
 15  8  2  0
 16 19  1  0
 17 22  1  0
 17 16  2  0
 18 19  2  0
 18 20  1  0
 20 23  1  0
 21 17  1  0
 22 18  1  0
 24 25  2  0
 25 26  1  0
 25 44  1  0
 26 29  1  0
 27 24  1  0
 27 28  1  0
 28 26  2  0
 29 30  1  0
 30 31  2  0
 32 31  1  0
 33 32  2  0
 34 33  1  0
 34 29  2  0
 35 32  1  0
 35 36  1  0
 36 37  1  0
 37 38  2  0
 39 38  1  0
 39 43  1  0
 40 39  2  0
 41 36  2  0
 41 40  1  0
 42 41  1  0
 44 45  1  0
 45 48  1  0
 45 47  1  0
 46 44  2  0
 49 50  1  0
 49 24  1  0
 51 49  1  0
 52 53  1  0
 53 55  1  0
 55 54  1  0
 56 55  1  0
 57 68  2  0
 58 56  1  0
 58 63  1  0
 59 67  1  0
 59 69  1  0
 60 62  1  0
 61 67  1  0
 62 63  2  0
 62 61  1  0
 64 58  2  0
 65 64  1  0
 65 60  2  0
 66 60  1  0
 66 59  1  0
 67 57  1  0
 69 71  2  0
 70 69  1  0
 72 70  1  0
 73 82  2  0
 73 78  1  0
 74 70  1  0
 74 78  1  0
 75 74  1  0
 76 77  1  0
 76 75  1  0
 77 73  1  0
 78 79  2  0
 79 80  1  0
 81 80  2  0
 82 81  1  0
 83 57  1  0
 83 88  1  0
 83 84  1  0
 84 87  1  1
 84 85  1  0
 86 84  1  0
 88 91  1  0
 89 93  1  0
 89 88  1  0
 90 89  2  0
 93 92  1  0
 95 96  1  0
 95 93  1  0
 95 94  1  0
M  ISO  4   8 100  20 100  55 101  56 101
M  END
>  <TORSDO>  (92) 
F 22

>  <SCORE>  (92) 
-11.754

>  <name>  (92) 
91

>  <ligand_id>  (92) 
91

>  <original_smiles>  (92) 
[H]c1c([H])c([H])c2c(c1[H])C([H])([H])C([H])([H])C([H])([H])C2([H])N([H])C(=O)C1([H])N(C(=O)C([H])(N([H])C(=O)C([H])(N([H])C([H])([H])[H])C([H])([H])[H])C(C([H])([H])[H])(C([H])([H])[H])C([H])([H])[H])C([H])([H])c2c([H])c(OC([H])(C([H])([H])[H])C([H])([H])C([H])([H])C([H])(C(=O)C([H])([H])C([H])([H])[H])N([H])c3nc(N([H])C(=O)N4C([H])([H])C([H])([H])C([H])([H])C([H])(n5nc(-c6c([H])c([H])c(Oc7c([H])c([H])c(F)c([H])c7F)c([H])c6[H])c(C(=O)N([H])[H])c5N([H])[H])C4([H])[H])sc3F)c([H])c([H])c2C1([H])[H]

>  <smiles>  (92) 
[H]c1c([H])c([H])c2c(c1[H])C([H])([H])C([H])([H])C([H])([H])C2([H])N([H])C(=O)C1([H])N(C(=O)C([H])(N([H])C(=O)C([H])(N([H])C([H])([H])[H])C([H])([H])[H])C(C([H])([H])[H])(C([H])([H])[H])C([H])([H])[H])C([H])([H])c2c([H])c(OC([H])(C([H])([H])[H])C([H])([H])C([H])([H])C([H])(C(=O)C([H])([H])C([H])([H])[H])N([H])c3nc(N([H])C(=O)N4C([H])([H])C([H])([H])C([H])([H])C([H])(n5nc(-c6c([H])c([H])c(Oc7c([H])c([H])c(F)c([H])c7F)c([H])c6[H])c(C(=O)N([H])[H])c5N([H])[H])C4([H])[H])sc3F)c([H])c([H])c2C1([H])[H]

$$$$
92:0:0
     RDKit          3D

 97105  0  0  1  0  0  0  0  0999 V2000
  -30.1290  -18.0840   20.6930 C   0  0  0  0  0  0  0  0  0  0  0  0
  -30.4010  -18.2520   19.3520 C   0  0  0  0  0  0  0  0  0  0  0  0
  -29.5450  -20.3100   20.4410 C   0  0  0  0  0  0  0  0  0  0  0  0
  -29.6170  -19.2690   21.2850 N   0  0  0  0  0  0  0  0  0  0  0  0
  -29.1080  -21.6080   20.7500 N   0  0  0  0  0  0  0  0  0  0  0  0
  -30.0780  -19.8930   18.8200 S   0  0  0  0  0  0  0  0  0  0  0  0
  -28.6880  -21.7200   21.6690 H   0  0  0  0  0  0  0  0  0  0  0  0
  -32.0660  -17.2980   17.9210 C   0  0  0  0  0  0  0  0  0  0  0  0
  -32.4110  -16.0500   17.1200 C   0  0  0  0  0  1  0  0  0  0  0  0
  -30.8610  -17.3060   18.5050 N   0  0  0  0  0  0  0  0  0  0  0  0
  -32.8760  -18.2220   18.0100 O   0  0  0  0  0  0  0  0  0  0  0  0
  -30.3060  -16.4680   18.4140 H   0  0  0  0  0  0  0  0  0  0  0  0
  -30.4260  -16.8510   21.5560 C   0  0  0  0  0  2  0  0  0  0  0  0
  -30.6560  -14.5140   20.5540 C   0  0  0  0  0  0  0  0  0  0  0  0
  -30.3860  -12.3610   19.3590 C   0  0  0  0  0  2  0  0  0  0  0  0
  -29.4620  -12.5590   18.1420 C   0  0  0  0  0  2  0  0  0  0  0  0
  -27.9770  -12.4320   18.5400 C   0  0  0  0  0  2  0  0  0  0  0  0
  -27.6230  -13.2570   19.8070 C   0  0  0  0  0  3  0  0  0  0  0  0
  -28.6580  -13.0170   20.9280 C   0  0  0  0  0  2  0  0  0  0  0  0
  -29.9820  -13.3430   20.3810 N   0  0  0  0  0  0  0  0  0  0  0  0
  -31.7990  -14.6880   20.1300 O   0  0  0  0  0  0  0  0  0  0  0  0
  -29.9390  -15.5250   21.1010 N   0  0  0  0  0  0  0  0  0  0  0  0
  -28.9900  -15.3030   21.3590 H   0  0  0  0  0  0  0  0  0  0  0  0
  -25.2200  -13.8890   20.4670 C   0  0  0  0  0  0  0  0  0  0  0  0
  -24.1420  -13.1270   20.8280 C   0  0  0  0  0  0  0  0  0  0  0  0
  -24.5950  -11.7720   20.8240 C   0  0  0  0  0  0  0  0  0  0  0  0
  -26.2600  -12.9980   20.2630 N   0  0  0  0  0  0  0  0  0  0  0  0
  -25.8890  -11.7190   20.5360 N   0  0  0  0  0  0  0  0  0  0  0  0
  -23.8580  -10.5170   21.0190 C   0  0  0  0  0  0  0  0  0  0  0  0
  -24.2770   -9.5560   21.9630 C   0  0  0  0  0  3  0  0  0  0  0  0
  -23.5420   -8.3650   22.1470 C   0  0  0  0  0  3  0  0  0  0  0  0
  -22.3730   -8.1290   21.3870 C   0  0  0  0  0  0  0  0  0  0  0  0
  -21.9720   -9.0810   20.4320 C   0  0  0  0  0  3  0  0  0  0  0  0
  -22.7070  -10.2620   20.2470 C   0  0  0  0  0  3  0  0  0  0  0  0
  -21.6120   -6.9890   21.4770 O   0  0  0  0  0  0  0  0  0  0  0  0
  -21.5600   -6.2470   22.6310 C   0  0  0  0  0  0  0  0  0  0  0  0
  -21.1520   -6.8100   23.8600 C   0  0  0  0  0  3  0  0  0  0  0  0
  -21.0460   -5.9990   25.0060 C   0  0  0  0  0  3  0  0  0  0  0  0
  -21.3330   -4.6230   24.9250 C   0  0  0  0  0  0  0  0  0  0  0  0
  -21.7320   -4.0580   23.6990 C   0  0  0  0  0  3  0  0  0  0  0  0
  -21.8400   -4.8680   22.5540 C   0  0  0  0  0  0  0  0  0  0  0  0
  -22.2050   -4.3160   21.3720 F   0  0  0  0  0  0  0  0  0  0  0  0
  -21.2240   -3.8390   26.0220 F   0  0  0  0  0  0  0  0  0  0  0  0
  -22.7430  -13.6180   21.0700 C   0  0  0  0  0  0  0  0  0  0  0  0
  -21.9980  -12.9400   21.9360 N   0  0  0  0  0  0  0  0  0  0  0  0
  -22.3190  -14.6360   20.5270 O   0  0  0  0  0  0  0  0  0  0  0  0
  -22.3520  -12.1130   22.3950 H   0  0  0  0  0  0  0  0  0  0  0  0
  -21.0560  -13.2480   22.1380 H   0  0  0  0  0  0  0  0  0  0  0  0
  -25.3940  -15.2580   20.2740 N   0  0  0  0  0  0  0  0  0  0  0  0
  -24.6240  -15.9130   20.3580 H   0  0  0  0  0  0  0  0  0  0  0  0
  -26.2460  -15.6950   19.9460 H   0  0  0  0  0  0  0  0  0  0  0  0
  -29.0470  -22.8240   19.9150 C   0  0  0  0  0  2  0  0  0  0  0  0
  -28.5360  -24.1320   20.6050 C   0  0  0  0  0  3  0  0  0  0  0  0
  -27.1970  -23.8860   20.9960 O   0  0  0  0  0  0  0  0  0  0  0  0
  -26.8300  -24.7240   21.2670 H   0  0  0  0  0  0  0  0  0  0  0  0
  -28.5620  -25.3590   19.6280 C   0  0  0  0  0  2  0  0  0  0  0  0
  -28.4320  -26.6760   20.2250 O   0  0  0  0  0  0  0  0  0  0  0  0
  -24.6010  -31.8870   23.2410 C   0  0  0  0  0  0  0  0  0  0  0  0
  -27.2480  -27.4000   20.1770 C   0  0  0  0  0  0  0  0  0  0  0  0
  -23.4000  -30.4820   21.5990 C   0  0  0  0  0  3  0  0  0  0  0  0
  -24.8590  -28.9430   20.1730 C   0  0  0  0  0  0  0  0  0  0  0  0
  -25.9290  -30.8310   21.4130 C   0  0  0  0  0  2  0  0  0  0  0  0
  -26.0150  -29.4540   20.7720 C   0  0  0  0  0  0  0  0  0  0  0  0
  -27.2070  -28.6880   20.7750 C   0  0  0  0  0  3  0  0  0  0  0  0
  -26.0660  -26.9120   19.5730 C   0  0  0  0  0  3  0  0  0  0  0  0
  -24.8820  -27.6760   19.5660 C   0  0  0  0  0  3  0  0  0  0  0  0
  -23.6120  -29.7980   20.2210 C   0  0  0  0  0  2  0  0  0  0  0  0
  -24.6630  -31.0790   22.1430 N   0  0  0  0  0  0  0  0  0  0  0  0
  -23.5190  -32.1590   23.7790 O   0  0  0  0  0  0  0  0  0  0  0  0
  -22.7500  -29.4610   22.5610 C   0  0  0  0  0  0  0  0  0  0  0  0
  -21.4250  -29.2760   22.4360 N   0  0  0  0  0  0  0  0  0  0  0  0
  -23.4350  -28.8360   23.3740 O   0  0  0  0  0  0  0  0  0  0  0  0
  -20.9330  -29.8290   21.7480 H   0  0  0  0  0  0  0  0  0  0  0  0
  -18.0550  -28.0720   22.9300 C   0  0  0  0  0  0  0  0  0  0  0  0
  -20.6110  -28.3360   23.2070 C   0  0  0  0  0  3  0  0  0  0  0  0
  -20.7180  -26.9050   22.6330 C   0  0  0  0  0  2  0  0  0  0  0  0
  -19.6180  -26.5770   21.6170 C   0  0  0  0  0  2  0  0  0  0  0  0
  -18.2350  -26.7210   22.2580 C   0  0  0  0  0  2  0  0  0  0  0  0
  -19.1710  -28.8380   23.3620 C   0  0  0  0  0  0  0  0  0  0  0  0
  -18.9480  -30.1030   23.9480 C   0  0  0  0  0  3  0  0  0  0  0  0
  -17.6410  -30.6030   24.1060 C   0  0  0  0  0  3  0  0  0  0  0  0
  -16.5390  -29.8340   23.6930 C   0  0  0  0  0  3  0  0  0  0  0  0
  -16.7480  -28.5700   23.1120 C   0  0  0  0  0  3  0  0  0  0  0  0
  -25.8850  -32.5230   23.8580 C   0  0  0  0  0  3  0  0  0  0  0  0
  -25.5760  -33.9200   24.1880 N   0  0  0  0  0  0  0  0  0  0  0  0
  -25.9100  -34.9710   23.4280 C   0  0  0  0  0  0  0  0  0  0  0  0
  -26.5800  -34.8660   22.3970 O   0  0  0  0  0  0  0  0  0  0  0  0
  -24.9770  -34.0750   24.9860 H   0  0  0  0  0  0  0  0  0  0  0  0
  -24.1780  -36.7580   23.0670 C   0  0  0  0  0  1  0  0  0  0  0  0
  -25.4200  -36.3580   23.8810 C   0  0  0  0  0  3  0  0  0  0  0  0
  -27.5520  -37.2470   24.7110 C   0  0  0  0  0  1  0  0  0  0  0  0
  -26.4510  -37.4120   23.7680 N   0  0  0  0  0  0  0  0  0  0  0  0
  -26.0430  -38.3320   23.9150 H   0  0  0  0  0  0  0  0  0  0  0  0
  -26.4070  -31.7530   25.1330 C   0  0  1  0  0  0  0  0  0  0  0  0
  -25.3160  -31.5110   26.2020 C   0  0  0  0  0  1  0  0  0  0  0  0
  -26.9940  -30.3770   24.7370 C   0  0  0  0  0  1  0  0  0  0  0  0
  -27.5610  -32.5470   25.7900 C   0  0  0  0  0  1  0  0  0  0  0  0
  1  4  1  0
  1 13  1  0
  2  1  2  0
  3  5  1  0
  3  4  2  0
  5  7  1  0
  6  2  1  0
  6  3  1  0
  8 11  2  0
  8 10  1  0
  9  8  1  0
 10  2  1  0
 12 10  1  0
 14 22  1  0
 15 20  1  0
 16 17  1  0
 16 15  1  0
 18 17  1  0
 18 27  1  0
 18 19  1  0
 20 14  1  0
 20 19  1  0
 21 14  2  0
 22 23  1  0
 22 13  1  0
 24 25  2  0
 25 44  1  0
 26 25  1  0
 26 29  1  0
 27 24  1  0
 27 28  1  0
 28 26  2  0
 29 30  1  0
 30 31  2  0
 32 35  1  0
 32 31  1  0
 33 32  2  0
 34 33  1  0
 34 29  2  0
 35 36  1  0
 36 37  1  0
 37 38  2  0
 39 38  1  0
 39 43  1  0
 40 39  2  0
 41 36  2  0
 41 40  1  0
 42 41  1  0
 44 45  1  0
 45 48  1  0
 45 47  1  0
 46 44  2  0
 49 50  1  0
 49 24  1  0
 51 49  1  0
 52 53  1  0
 52  5  1  0
 53 56  1  0
 53 54  1  0
 54 55  1  0
 56 57  1  0
 58 69  2  0
 59 57  1  0
 59 64  1  0
 60 68  1  0
 60 70  1  0
 61 67  1  0
 61 63  1  0
 62 68  1  0
 63 64  2  0
 63 62  1  0
 65 59  2  0
 66 65  1  0
 66 61  2  0
 67 60  1  0
 68 58  1  0
 70 72  2  0
 71 70  1  0
 73 71  1  0
 74 83  2  0
 74 79  1  0
 75 71  1  0
 75 79  1  0
 76 75  1  0
 77 78  1  0
 77 76  1  0
 78 74  1  0
 79 80  2  0
 80 81  1  0
 82 81  2  0
 83 82  1  0
 84 58  1  0
 84 85  1  0
 84 94  1  0
 85 88  1  0
 86 90  1  0
 86 85  1  0
 87 86  2  0
 90 89  1  0
 92 90  1  0
 92 93  1  0
 92 91  1  0
 94 97  1  1
 94 95  1  0
 96 94  1  0
M  ISO  4  14 100  22 100  56 101  57 101
M  END
>  <TORSDO>  (93) 
F 22

>  <SCORE>  (93) 
-13.486

>  <name>  (93) 
92

>  <ligand_id>  (93) 
92

>  <original_smiles>  (93) 
[H]OC([H])(C([H])([H])Oc1c([H])c([H])c2c(c1[H])C([H])([H])N(C(=O)C([H])(N([H])C(=O)C([H])(N([H])C([H])([H])[H])C([H])([H])[H])C(C([H])([H])[H])(C([H])([H])[H])C([H])([H])[H])C([H])(C(=O)N([H])C1([H])c3c([H])c([H])c([H])c([H])c3C([H])([H])C([H])([H])C1([H])[H])C2([H])[H])C([H])([H])N([H])c1nc(C([H])([H])N([H])C(=O)N2C([H])([H])C([H])([H])C([H])([H])C([H])(n3nc(-c4c([H])c([H])c(Oc5c([H])c([H])c(F)c([H])c5F)c([H])c4[H])c(C(=O)N([H])[H])c3N([H])[H])C2([H])[H])c(N([H])C(=O)C([H])([H])[H])s1

>  <smiles>  (93) 
[H]OC([H])(C([H])([H])Oc1c([H])c([H])c2c(c1[H])C([H])([H])N(C(=O)C([H])(N([H])C(=O)C([H])(N([H])C([H])([H])[H])C([H])([H])[H])C(C([H])([H])[H])(C([H])([H])[H])C([H])([H])[H])C([H])(C(=O)N([H])C1([H])c3c([H])c([H])c([H])c([H])c3C([H])([H])C([H])([H])C1([H])[H])C2([H])[H])C([H])([H])N([H])c1nc(C([H])([H])N([H])C(=O)N2C([H])([H])C([H])([H])C([H])([H])C([H])(n3nc(-c4c([H])c([H])c(Oc5c([H])c([H])c(F)c([H])c5F)c([H])c4[H])c(C(=O)N([H])[H])c3N([H])[H])C2([H])[H])c(N([H])C(=O)C([H])([H])[H])s1

$$$$
93:0:0
     RDKit          3D

 94101  0  0  1  0  0  0  0  0999 V2000
  -28.9120  -20.5320   20.2140 C   0  0  0  0  0  0  0  0  0  0  0  0
  -29.2830  -21.9120   20.2490 N   0  0  0  0  0  0  0  0  0  0  0  0
  -27.7040  -20.2970   20.1800 O   0  0  0  0  0  0  0  0  0  0  0  0
  -30.2840  -22.0620   20.2300 H   0  0  0  0  0  0  0  0  0  0  0  0
  -28.4660  -23.2540   20.5600 C   0  0  0  0  0  2  0  0  0  0  0  0
  -30.2340  -24.9410   19.8180 C   0  0  0  0  0  1  0  0  0  0  0  0
  -28.2390  -24.6910   18.3880 C   0  0  0  0  0  1  0  0  0  0  0  0
  -28.7030  -24.7820   19.8530 C   0  0  1  0  0  0  0  0  0  0  0  0
  -28.3790  -26.2250   20.4040 O   0  0  0  0  0  0  0  0  0  0  0  0
  -24.6530  -31.9110   23.2110 C   0  0  0  0  0  0  0  0  0  0  0  0
  -27.2730  -27.1500   20.2620 C   0  0  0  0  0  0  0  0  0  0  0  0
  -23.4710  -30.4890   21.5790 C   0  0  0  0  0  3  0  0  0  0  0  0
  -24.9330  -28.8940   20.1850 C   0  0  0  0  0  0  0  0  0  0  0  0
  -26.0240  -30.7570   21.4310 C   0  0  0  0  0  2  0  0  0  0  0  0
  -26.1040  -29.3540   20.7960 C   0  0  0  0  0  0  0  0  0  0  0  0
  -27.2680  -28.4980   20.8140 C   0  0  0  0  0  3  0  0  0  0  0  0
  -26.0690  -26.7840   19.6250 C   0  0  0  0  0  3  0  0  0  0  0  0
  -24.9300  -27.6240   19.5840 C   0  0  0  0  0  3  0  0  0  0  0  0
  -23.7030  -29.7890   20.2120 C   0  0  0  0  0  2  0  0  0  0  0  0
  -24.7360  -31.0760   22.1280 N   0  0  0  0  0  0  0  0  0  0  0  0
  -23.5620  -32.1990   23.7260 O   0  0  0  0  0  0  0  0  0  0  0  0
  -22.7870  -29.4950   22.5500 C   0  0  0  0  0  0  0  0  0  0  0  0
  -21.4640  -29.3010   22.3980 N   0  0  0  0  0  0  0  0  0  0  0  0
  -23.4480  -28.9010   23.4060 O   0  0  0  0  0  0  0  0  0  0  0  0
  -20.9860  -29.8330   21.6850 H   0  0  0  0  0  0  0  0  0  0  0  0
  -18.1010  -28.0240   22.8210 C   0  0  0  0  0  0  0  0  0  0  0  0
  -20.6400  -28.3680   23.1710 C   0  0  0  0  0  3  0  0  0  0  0  0
  -20.8010  -26.9200   22.6520 C   0  0  0  0  0  2  0  0  0  0  0  0
  -19.7460  -26.5320   21.6100 C   0  0  0  0  0  2  0  0  0  0  0  0
  -18.3380  -26.6590   22.1980 C   0  0  0  0  0  2  0  0  0  0  0  0
  -19.1810  -28.8320   23.2650 C   0  0  0  0  0  0  0  0  0  0  0  0
  -18.9050  -30.1050   23.8070 C   0  0  0  0  0  3  0  0  0  0  0  0
  -17.5810  -30.5720   23.9110 C   0  0  0  0  0  3  0  0  0  0  0  0
  -16.5140  -29.7630   23.4840 C   0  0  0  0  0  3  0  0  0  0  0  0
  -16.7740  -28.4900   22.9450 C   0  0  0  0  0  3  0  0  0  0  0  0
  -25.9240  -32.5580   23.8410 C   0  0  0  0  0  3  0  0  0  0  0  0
  -25.5990  -33.9560   24.1690 N   0  0  0  0  0  0  0  0  0  0  0  0
  -25.9290  -35.0150   23.4180 C   0  0  0  0  0  0  0  0  0  0  0  0
  -26.6050  -34.9170   22.3900 O   0  0  0  0  0  0  0  0  0  0  0  0
  -24.9980  -34.1060   24.9650 H   0  0  0  0  0  0  0  0  0  0  0  0
  -24.2010  -36.8080   23.0570 C   0  0  0  0  0  1  0  0  0  0  0  0
  -25.4340  -36.4000   23.8780 C   0  0  0  0  0  3  0  0  0  0  0  0
  -27.5510  -37.2980   24.7440 C   0  0  0  0  0  1  0  0  0  0  0  0
  -26.4650  -37.4570   23.7790 N   0  0  0  0  0  0  0  0  0  0  0  0
  -26.0530  -38.3760   23.9170 H   0  0  0  0  0  0  0  0  0  0  0  0
  -26.4330  -31.7990   25.1290 C   0  0  1  0  0  0  0  0  0  0  0  0
  -25.3290  -31.5550   26.1850 C   0  0  0  0  0  1  0  0  0  0  0  0
  -27.0360  -30.4260   24.7540 C   0  0  0  0  0  1  0  0  0  0  0  0
  -27.5670  -32.6100   25.8010 C   0  0  0  0  0  1  0  0  0  0  0  0
  -29.9050  -19.1830   20.3810 C   0  0  0  0  0  3  0  0  0  0  0  0
  -29.8750  -18.8420   21.8070 N   0  0  0  0  0  4  0  0  0  0  0  0
  -28.9510  -18.5390   22.0580 H   0  0  0  0  0  0  0  0  0  0  0  0
  -30.0990  -19.6560   22.3500 H   0  0  0  0  0  0  0  0  0  0  0  0
  -30.5380  -18.1180   22.0060 H   0  0  0  0  0  0  0  0  0  0  0  0
  -28.7260  -17.7190   18.4970 C   0  0  0  0  0  1  0  0  0  0  0  0
  -29.8610  -17.6920   19.5350 C   0  0  0  0  0  3  0  0  0  0  0  0
  -30.6240  -15.0300   19.8580 C   0  0  0  0  0  0  0  0  0  0  0  0
  -30.4330  -12.6750   18.9290 C   0  0  0  0  0  2  0  0  0  0  0  0
  -29.4060  -12.6480   17.7700 C   0  0  0  0  0  2  0  0  0  0  0  0
  -27.9820  -12.4370   18.3130 C   0  0  0  0  0  2  0  0  0  0  0  0
  -27.6740  -13.3460   19.5310 C   0  0  0  0  0  3  0  0  0  0  0  0
  -28.8160  -13.3420   20.5730 C   0  0  0  0  0  2  0  0  0  0  0  0
  -30.0390  -13.7610   19.8770 N   0  0  0  0  0  0  0  0  0  0  0  0
  -31.7710  -15.1050   19.4050 O   0  0  0  0  0  0  0  0  0  0  0  0
  -29.8660  -16.2100   20.1410 N   0  0  0  0  0  0  0  0  0  0  0  0
  -28.9950  -15.9720   20.5930 H   0  0  0  0  0  0  0  0  0  0  0  0
  -25.3780  -13.9230   20.4990 C   0  0  0  0  0  0  0  0  0  0  0  0
  -24.3360  -13.1470   20.9280 C   0  0  0  0  0  0  0  0  0  0  0  0
  -24.7710  -11.7920   20.7960 C   0  0  0  0  0  0  0  0  0  0  0  0
  -26.3800  -13.0430   20.1300 N   0  0  0  0  0  0  0  0  0  0  0  0
  -26.0300  -11.7520   20.3710 N   0  0  0  0  0  0  0  0  0  0  0  0
  -24.0400  -10.5340   20.9920 C   0  0  0  0  0  0  0  0  0  0  0  0
  -24.4960   -9.5450   21.8920 C   0  0  0  0  0  3  0  0  0  0  0  0
  -23.7640   -8.3530   22.0790 C   0  0  0  0  0  3  0  0  0  0  0  0
  -22.5600   -8.1400   21.3660 C   0  0  0  0  0  0  0  0  0  0  0  0
  -22.1210   -9.1180   20.4550 C   0  0  0  0  0  3  0  0  0  0  0  0
  -22.8540  -10.3010   20.2660 C   0  0  0  0  0  3  0  0  0  0  0  0
  -21.7970   -7.0030   21.4650 O   0  0  0  0  0  0  0  0  0  0  0  0
  -21.7520   -6.2630   22.6200 C   0  0  0  0  0  0  0  0  0  0  0  0
  -21.2810   -6.8080   23.8350 C   0  0  0  0  0  3  0  0  0  0  0  0
  -21.1860   -5.9930   24.9810 C   0  0  0  0  0  3  0  0  0  0  0  0
  -21.5510   -4.6360   24.9130 C   0  0  0  0  0  0  0  0  0  0  0  0
  -22.0140   -4.0910   23.7030 C   0  0  0  0  0  3  0  0  0  0  0  0
  -22.1100   -4.9010   22.5590 C   0  0  0  0  0  0  0  0  0  0  0  0
  -22.5370   -4.3670   21.3890 F   0  0  0  0  0  0  0  0  0  0  0  0
  -21.4530   -3.8510   26.0120 F   0  0  0  0  0  0  0  0  0  0  0  0
  -22.9770  -13.6320   21.3400 C   0  0  0  0  0  0  0  0  0  0  0  0
  -22.3090  -12.9040   22.2280 N   0  0  0  0  0  0  0  0  0  0  0  0
  -22.5190  -14.6910   20.9110 O   0  0  0  0  0  0  0  0  0  0  0  0
  -22.6940  -12.0470   22.5960 H   0  0  0  0  0  0  0  0  0  0  0  0
  -21.4010  -13.2090   22.5470 H   0  0  0  0  0  0  0  0  0  0  0  0
  -25.5500  -15.2970   20.3660 N   0  0  0  0  0  0  0  0  0  0  0  0
  -24.7980  -15.9510   20.5580 H   0  0  0  0  0  0  0  0  0  0  0  0
  -26.3480  -15.7340   19.9250 H   0  0  0  0  0  0  0  0  0  0  0  0
  1  2  1  0
  2  5  1  0
  3  1  2  0
  4  2  1  0
  8  6  1  6
  7  8  1  0
  8  9  1  0
  8  5  1  0
 10 21  2  0
 11  9  1  0
 11 16  1  0
 12 20  1  0
 12 22  1  0
 13 19  1  0
 13 15  1  0
 14 20  1  0
 15 16  2  0
 15 14  1  0
 17 11  2  0
 18 17  1  0
 18 13  2  0
 19 12  1  0
 20 10  1  0
 22 24  2  0
 23 22  1  0
 25 23  1  0
 26 35  2  0
 26 31  1  0
 27 23  1  0
 27 31  1  0
 28 27  1  0
 29 30  1  0
 29 28  1  0
 30 26  1  0
 31 32  2  0
 32 33  1  0
 34 33  2  0
 35 34  1  0
 36 10  1  0
 36 37  1  0
 36 46  1  0
 37 40  1  0
 38 42  1  0
 38 37  1  0
 39 38  2  0
 42 41  1  0
 44 42  1  0
 44 45  1  0
 44 43  1  0
 46 49  1  1
 46 47  1  0
 48 46  1  0
 50  1  1  0
 50 51  1  0
 51 54  1  0
 51 52  1  0
 51 53  1  0
 56 55  1  0
 56 65  1  0
 56 50  1  0
 57 63  1  0
 57 65  1  0
 58 63  1  0
 59 60  1  0
 59 58  1  0
 61 60  1  0
 61 70  1  0
 61 62  1  0
 63 62  1  0
 64 57  2  0
 65 66  1  0
 67 68  2  0
 68 87  1  0
 69 68  1  0
 69 72  1  0
 70 71  1  0
 70 67  1  0
 71 69  2  0
 72 73  1  0
 73 74  2  0
 75 78  1  0
 75 74  1  0
 76 75  2  0
 77 76  1  0
 77 72  2  0
 78 79  1  0
 79 80  1  0
 80 81  2  0
 82 81  1  0
 82 86  1  0
 83 82  2  0
 84 79  2  0
 84 83  1  0
 85 84  1  0
 87 88  1  0
 88 91  1  0
 88 90  1  0
 89 87  2  0
 92 67  1  0
 92 93  1  0
 94 92  1  0
M  ISO  4   8 101   9 101  57 100  65 100
M  END
>  <TORSDO>  (94) 
F 21

>  <SCORE>  (94) 
-14.253

>  <name>  (94) 
93

>  <ligand_id>  (94) 
93

>  <original_smiles>  (94) 
[H]c1c([H])c([H])c2c(c1[H])C([H])([H])C([H])([H])C([H])([H])C2([H])N([H])C(=O)C1([H])N(C(=O)C([H])(N([H])C(=O)C([H])(N([H])C([H])([H])[H])C([H])([H])[H])C(C([H])([H])[H])(C([H])([H])[H])C([H])([H])[H])C([H])([H])c2c([H])c(OC(C([H])([H])[H])(C([H])([H])[H])C([H])([H])N([H])C(=O)C([H])(C([H])(N([H])C(=O)N3C([H])([H])C([H])([H])C([H])([H])C([H])(n4nc(-c5c([H])c([H])c(Oc6c([H])c([H])c(F)c([H])c6F)c([H])c5[H])c(C(=O)N([H])[H])c4N([H])[H])C3([H])[H])C([H])([H])[H])[N+]([H])([H])[H])c([H])c([H])c2C1([H])[H]

>  <smiles>  (94) 
[H]c1c([H])c([H])c2c(c1[H])C([H])([H])C([H])([H])C([H])([H])C2([H])N([H])C(=O)C1([H])N(C(=O)C([H])(N([H])C(=O)C([H])(N([H])C([H])([H])[H])C([H])([H])[H])C(C([H])([H])[H])(C([H])([H])[H])C([H])([H])[H])C([H])([H])c2c([H])c(OC(C([H])([H])[H])(C([H])([H])[H])C([H])([H])N([H])C(=O)C([H])(C([H])(N([H])C(=O)N3C([H])([H])C([H])([H])C([H])([H])C([H])(n4nc(-c5c([H])c([H])c(Oc6c([H])c([H])c(F)c([H])c6F)c([H])c5[H])c(C(=O)N([H])[H])c4N([H])[H])C3([H])[H])C([H])([H])[H])[N+]([H])([H])[H])c([H])c([H])c2C1([H])[H]

$$$$
94:0:0
     RDKit          3D

100108  0  0  1  0  0  0  0  0999 V2000
  -28.6740  -22.0920   18.2980 C   0  0  0  0  0  2  0  0  0  0  0  0
  -29.0500  -19.6500   18.5970 C   0  0  0  0  0  0  0  0  0  0  0  0
  -29.2280  -20.9210   18.9860 N   0  0  0  0  0  0  0  0  0  0  0  0
  -28.5270  -19.3640   17.5170 O   0  0  0  0  0  0  0  0  0  0  0  0
  -29.6510  -21.0570   19.8950 H   0  0  0  0  0  0  0  0  0  0  0  0
  -30.3980  -17.8240   21.4310 C   0  0  0  0  0  3  0  0  0  0  0  0
  -29.9700  -16.7360   20.7260 C   0  0  0  0  0  0  0  0  0  0  0  0
  -29.3850  -17.2180   19.5290 C   0  0  0  0  0  0  0  0  0  0  0  0
  -29.4910  -18.5920   19.5440 C   0  0  0  0  0  0  0  0  0  0  0  0
  -30.1200  -18.9600   20.7120 O   0  0  0  0  0  0  0  0  0  0  0  0
  -30.6620  -14.4250   20.4960 C   0  0  0  0  0  0  0  0  0  0  0  0
  -30.3660  -12.2870   19.3160 C   0  0  0  0  0  2  0  0  0  0  0  0
  -29.4470  -12.5420   18.1030 C   0  0  0  0  0  2  0  0  0  0  0  0
  -27.9630  -12.4220   18.5070 C   0  0  0  0  0  2  0  0  0  0  0  0
  -27.6200  -13.2260   19.7910 C   0  0  0  0  0  3  0  0  0  0  0  0
  -28.6560  -12.9540   20.9020 C   0  0  0  0  0  2  0  0  0  0  0  0
  -29.9980  -13.2470   20.3650 N   0  0  0  0  0  0  0  0  0  0  0  0
  -31.7680  -14.6420   19.9880 O   0  0  0  0  0  0  0  0  0  0  0  0
  -29.9890  -15.3840   21.1450 N   0  0  0  0  0  0  0  0  0  0  0  0
  -29.1420  -15.0640   21.5910 H   0  0  0  0  0  0  0  0  0  0  0  0
  -25.2140  -13.8580   20.4510 C   0  0  0  0  0  0  0  0  0  0  0  0
  -24.1360  -13.0970   20.8190 C   0  0  0  0  0  0  0  0  0  0  0  0
  -24.5900  -11.7420   20.8100 C   0  0  0  0  0  0  0  0  0  0  0  0
  -26.2550  -12.9660   20.2450 N   0  0  0  0  0  0  0  0  0  0  0  0
  -25.8820  -11.6900   20.5140 N   0  0  0  0  0  0  0  0  0  0  0  0
  -23.8560  -10.4850   21.0070 C   0  0  0  0  0  0  0  0  0  0  0  0
  -24.2740   -9.5260   21.9550 C   0  0  0  0  0  3  0  0  0  0  0  0
  -23.5410   -8.3330   22.1380 C   0  0  0  0  0  3  0  0  0  0  0  0
  -22.3770   -8.0920   21.3710 C   0  0  0  0  0  0  0  0  0  0  0  0
  -21.9780   -9.0380   20.4110 C   0  0  0  0  0  3  0  0  0  0  0  0
  -22.7120  -10.2220   20.2270 C   0  0  0  0  0  3  0  0  0  0  0  0
  -21.6170   -6.9500   21.4640 O   0  0  0  0  0  0  0  0  0  0  0  0
  -21.5550   -6.2180   22.6210 C   0  0  0  0  0  0  0  0  0  0  0  0
  -21.1140   -6.7830   23.8390 C   0  0  0  0  0  3  0  0  0  0  0  0
  -21.0020   -5.9780   24.9880 C   0  0  0  0  0  3  0  0  0  0  0  0
  -21.3140   -4.6070   24.9230 C   0  0  0  0  0  0  0  0  0  0  0  0
  -21.7460   -4.0410   23.7120 C   0  0  0  0  0  3  0  0  0  0  0  0
  -21.8640   -4.8440   22.5640 C   0  0  0  0  0  0  0  0  0  0  0  0
  -22.2610   -4.2900   21.3940 F   0  0  0  0  0  0  0  0  0  0  0  0
  -21.1950   -3.8310   26.0260 F   0  0  0  0  0  0  0  0  0  0  0  0
  -22.7380  -13.5850   21.0680 C   0  0  0  0  0  0  0  0  0  0  0  0
  -21.9940  -12.9030   21.9320 N   0  0  0  0  0  0  0  0  0  0  0  0
  -22.3160  -14.6100   20.5340 O   0  0  0  0  0  0  0  0  0  0  0  0
  -22.3500  -12.0800   22.3940 H   0  0  0  0  0  0  0  0  0  0  0  0
  -21.0530  -13.2100   22.1330 H   0  0  0  0  0  0  0  0  0  0  0  0
  -25.3910  -15.2230   20.2530 N   0  0  0  0  0  0  0  0  0  0  0  0
  -24.6210  -15.8790   20.3040 H   0  0  0  0  0  0  0  0  0  0  0  0
  -26.2290  -15.6200   19.8400 H   0  0  0  0  0  0  0  0  0  0  0  0
  -28.7950  -16.4140   18.5540 N   0  0  0  0  0  0  0  0  0  0  0  0
  -29.1620  -15.4800   18.4250 H   0  0  0  0  0  0  0  0  0  0  0  0
  -28.5680  -16.8670   17.6720 H   0  0  0  0  0  0  0  0  0  0  0  0
  -29.6830  -23.2500   18.1370 C   0  0  0  0  0  3  0  0  0  0  0  0
  -30.9580  -22.2590   16.2170 C   0  0  0  0  0  1  0  0  0  0  0  0
  -30.9860  -22.7860   17.5990 N   0  0  0  0  0  4  0  0  0  0  0  0
  -31.6370  -23.5550   17.6090 H   0  0  0  0  0  0  0  0  0  0  0  0
  -31.3580  -22.0710   18.2030 H   0  0  0  0  0  0  0  0  0  0  0  0
  -29.8860  -24.0240   19.4650 C   0  0  0  0  0  2  0  0  0  0  0  0
  -30.2180  -25.5120   19.2460 C   0  0  0  0  0  2  0  0  0  0  0  0
  -28.9780  -26.3770   18.9510 C   0  0  0  0  0  2  0  0  0  0  0  0
  -28.4220  -26.7700   20.1940 O   0  0  0  0  0  0  0  0  0  0  0  0
  -24.5790  -31.8820   23.2320 C   0  0  0  0  0  0  0  0  0  0  0  0
  -27.2460  -27.4770   20.1490 C   0  0  0  0  0  0  0  0  0  0  0  0
  -23.3730  -30.4750   21.5880 C   0  0  0  0  0  3  0  0  0  0  0  0
  -24.8350  -28.9420   20.1610 C   0  0  0  0  0  0  0  0  0  0  0  0
  -25.8930  -30.8480   21.3900 C   0  0  0  0  0  2  0  0  0  0  0  0
  -25.9830  -29.4770   20.7570 C   0  0  0  0  0  0  0  0  0  0  0  0
  -27.1870  -28.7410   20.7670 C   0  0  0  0  0  3  0  0  0  0  0  0
  -26.0840  -26.9410   19.5540 C   0  0  0  0  0  3  0  0  0  0  0  0
  -24.8780  -27.6690   19.5600 C   0  0  0  0  0  3  0  0  0  0  0  0
  -23.5830  -29.7890   20.2090 C   0  0  0  0  0  2  0  0  0  0  0  0
  -24.6320  -31.0830   22.1280 N   0  0  0  0  0  0  0  0  0  0  0  0
  -23.4990  -32.1530   23.7730 O   0  0  0  0  0  0  0  0  0  0  0  0
  -22.7270  -29.4550   22.5510 C   0  0  0  0  0  0  0  0  0  0  0  0
  -21.4030  -29.2720   22.4250 N   0  0  0  0  0  0  0  0  0  0  0  0
  -23.4130  -28.8300   23.3640 O   0  0  0  0  0  0  0  0  0  0  0  0
  -20.9100  -29.8290   21.7410 H   0  0  0  0  0  0  0  0  0  0  0  0
  -18.0310  -28.0790   22.9230 C   0  0  0  0  0  0  0  0  0  0  0  0
  -20.5880  -28.3340   23.1960 C   0  0  0  0  0  3  0  0  0  0  0  0
  -20.6890  -26.9030   22.6210 C   0  0  0  0  0  2  0  0  0  0  0  0
  -19.5880  -26.5810   21.6060 C   0  0  0  0  0  2  0  0  0  0  0  0
  -18.2060  -26.7280   22.2490 C   0  0  0  0  0  2  0  0  0  0  0  0
  -19.1490  -28.8390   23.3540 C   0  0  0  0  0  0  0  0  0  0  0  0
  -18.9340  -30.1040   23.9430 C   0  0  0  0  0  3  0  0  0  0  0  0
  -17.6300  -30.6090   24.1060 C   0  0  0  0  0  3  0  0  0  0  0  0
  -16.5240  -29.8440   23.6920 C   0  0  0  0  0  3  0  0  0  0  0  0
  -16.7260  -28.5810   23.1080 C   0  0  0  0  0  3  0  0  0  0  0  0
  -25.8670  -32.5140   23.8480 C   0  0  0  0  0  3  0  0  0  0  0  0
  -25.5590  -33.9120   24.1770 N   0  0  0  0  0  0  0  0  0  0  0  0
  -25.8950  -34.9640   23.4150 C   0  0  0  0  0  0  0  0  0  0  0  0
  -26.5670  -34.8580   22.3860 O   0  0  0  0  0  0  0  0  0  0  0  0
  -24.9650  -34.0700   24.9780 H   0  0  0  0  0  0  0  0  0  0  0  0
  -24.1710  -36.7560   23.0480 C   0  0  0  0  0  1  0  0  0  0  0  0
  -25.4060  -36.3520   23.8690 C   0  0  0  0  0  3  0  0  0  0  0  0
  -27.5370  -37.2330   24.7120 C   0  0  0  0  0  1  0  0  0  0  0  0
  -26.4420  -37.4030   23.7610 N   0  0  0  0  0  0  0  0  0  0  0  0
  -26.0360  -38.3250   23.9040 H   0  0  0  0  0  0  0  0  0  0  0  0
  -26.3920  -31.7430   25.1210 C   0  0  1  0  0  0  0  0  0  0  0  0
  -25.3030  -31.5040   26.1940 C   0  0  0  0  0  1  0  0  0  0  0  0
  -26.9750  -30.3670   24.7240 C   0  0  0  0  0  1  0  0  0  0  0  0
  -27.5430  -32.5390   25.7790 C   0  0  0  0  0  1  0  0  0  0  0  0
  1  3  1  0
  2  3  1  0
  2  9  1  0
  3  5  1  0
  4  2  2  0
  7 19  1  0
  7  6  2  0
  8  9  2  0
  8  7  1  0
  9 10  1  0
 10  6  1  0
 11 19  1  0
 12 17  1  0
 13 14  1  0
 13 12  1  0
 15 14  1  0
 15 24  1  0
 15 16  1  0
 17 11  1  0
 17 16  1  0
 18 11  2  0
 19 20  1  0
 21 22  2  0
 22 41  1  0
 23 22  1  0
 23 26  1  0
 24 21  1  0
 24 25  1  0
 25 23  2  0
 26 27  1  0
 27 28  2  0
 29 32  1  0
 29 28  1  0
 30 29  2  0
 31 30  1  0
 31 26  2  0
 32 33  1  0
 33 34  1  0
 34 35  2  0
 36 35  1  0
 36 40  1  0
 37 36  2  0
 38 33  2  0
 38 37  1  0
 39 38  1  0
 41 42  1  0
 42 45  1  0
 42 44  1  0
 43 41  2  0
 46 47  1  0
 46 21  1  0
 48 46  1  0
 49  8  1  0
 50 49  1  0
 51 49  1  0
 52  1  1  0
 52 57  1  0
 53 54  1  0
 54 55  1  0
 54 52  1  0
 54 56  1  0
 58 57  1  0
 59 58  1  0
 59 60  1  0
 61 72  2  0
 62 60  1  0
 62 67  1  0
 63 71  1  0
 63 73  1  0
 64 70  1  0
 64 66  1  0
 65 71  1  0
 66 67  2  0
 66 65  1  0
 68 69  1  0
 68 62  2  0
 69 64  2  0
 70 63  1  0
 71 61  1  0
 73 75  2  0
 74 73  1  0
 76 74  1  0
 77 86  2  0
 77 82  1  0
 78 74  1  0
 78 82  1  0
 79 78  1  0
 80 81  1  0
 80 79  1  0
 81 77  1  0
 82 83  2  0
 83 84  1  0
 85 84  2  0
 86 85  1  0
 87 61  1  0
 87 88  1  0
 87 97  1  0
 88 91  1  0
 89 93  1  0
 89 88  1  0
 90 89  2  0
 93 92  1  0
 95 93  1  0
 95 96  1  0
 95 94  1  0
 97100  1  1
 97 98  1  0
 99 97  1  0
M  ISO  4  11 100  19 100  59 101  60 101
M  END
>  <TORSDO>  (95) 
F 24

>  <SCORE>  (95) 
-12.790

>  <name>  (95) 
94

>  <ligand_id>  (95) 
94

>  <original_smiles>  (95) 
[H]c1oc(C(=O)N([H])C([H])([H])C([H])(C([H])([H])C([H])([H])C([H])([H])Oc2c([H])c([H])c3c(c2[H])C([H])([H])N(C(=O)C([H])(N([H])C(=O)C([H])(N([H])C([H])([H])[H])C([H])([H])[H])C(C([H])([H])[H])(C([H])([H])[H])C([H])([H])[H])C([H])(C(=O)N([H])C2([H])c4c([H])c([H])c([H])c([H])c4C([H])([H])C([H])([H])C2([H])[H])C3([H])[H])[N+]([H])([H])C([H])([H])[H])c(N([H])[H])c1N([H])C(=O)N1C([H])([H])C([H])([H])C([H])([H])C([H])(n2nc(-c3c([H])c([H])c(Oc4c([H])c([H])c(F)c([H])c4F)c([H])c3[H])c(C(=O)N([H])[H])c2N([H])[H])C1([H])[H]

>  <smiles>  (95) 
[H]c1oc(C(=O)N([H])C([H])([H])C([H])(C([H])([H])C([H])([H])C([H])([H])Oc2c([H])c([H])c3c(c2[H])C([H])([H])N(C(=O)C([H])(N([H])C(=O)C([H])(N([H])C([H])([H])[H])C([H])([H])[H])C(C([H])([H])[H])(C([H])([H])[H])C([H])([H])[H])C([H])(C(=O)N([H])C2([H])c4c([H])c([H])c([H])c([H])c4C([H])([H])C([H])([H])C2([H])[H])C3([H])[H])[N+]([H])([H])C([H])([H])[H])c(N([H])[H])c1N([H])C(=O)N1C([H])([H])C([H])([H])C([H])([H])C([H])(n2nc(-c3c([H])c([H])c(Oc4c([H])c([H])c(F)c([H])c4F)c([H])c3[H])c(C(=O)N([H])[H])c2N([H])[H])C1([H])[H]

$$$$
95:0:0
     RDKit          3D

 94102  0  0  1  0  0  0  0  0999 V2000
  -31.1350  -21.8360   19.5800 C   0  0  0  0  0  1  0  0  0  0  0  0
  -30.9940  -22.3710   22.0870 C   0  0  0  0  0  1  0  0  0  0  0  0
  -30.2300  -21.9030   20.8330 C   0  0  1  0  0  0  0  0  0  0  0  0
  -29.0750  -22.9280   20.5640 C   0  0  0  0  0  3  0  0  0  0  0  0
  -28.3850  -22.5090   19.4980 F   0  0  0  0  0  0  0  0  0  0  0  0
  -29.4420  -24.4280   20.3710 C   0  0  0  0  0  2  0  0  0  0  0  0
  -28.2050  -25.2630   19.9840 C   0  0  0  0  0  2  0  0  0  0  0  0
  -28.3670  -26.6850   20.1270 O   0  0  0  0  0  0  0  0  0  0  0  0
  -24.5840  -31.8700   23.2310 C   0  0  0  0  0  0  0  0  0  0  0  0
  -27.1980  -27.4300   20.1080 C   0  0  0  0  0  0  0  0  0  0  0  0
  -23.3680  -30.4840   21.5840 C   0  0  0  0  0  3  0  0  0  0  0  0
  -24.8100  -28.9570   20.1410 C   0  0  0  0  0  0  0  0  0  0  0  0
  -25.8970  -30.8300   21.3830 C   0  0  0  0  0  2  0  0  0  0  0  0
  -25.9740  -29.4650   20.7300 C   0  0  0  0  0  0  0  0  0  0  0  0
  -27.1720  -28.7110   20.7080 C   0  0  0  0  0  3  0  0  0  0  0  0
  -26.0100  -26.9430   19.5090 C   0  0  0  0  0  3  0  0  0  0  0  0
  -24.8230  -27.6950   19.5270 C   0  0  0  0  0  3  0  0  0  0  0  0
  -23.5700  -29.8190   20.1980 C   0  0  0  0  0  2  0  0  0  0  0  0
  -24.6340  -31.0750   22.1240 N   0  0  0  0  0  0  0  0  0  0  0  0
  -23.5050  -32.1420   23.7750 O   0  0  0  0  0  0  0  0  0  0  0  0
  -22.7140  -29.4570   22.5380 C   0  0  0  0  0  0  0  0  0  0  0  0
  -21.3890  -29.2830   22.4140 N   0  0  0  0  0  0  0  0  0  0  0  0
  -23.3970  -28.8200   23.3440 O   0  0  0  0  0  0  0  0  0  0  0  0
  -20.9010  -29.8490   21.7350 H   0  0  0  0  0  0  0  0  0  0  0  0
  -18.0060  -28.1170   22.9220 C   0  0  0  0  0  0  0  0  0  0  0  0
  -20.5680  -28.3450   23.1810 C   0  0  0  0  0  3  0  0  0  0  0  0
  -20.6530  -26.9200   22.5880 C   0  0  0  0  0  2  0  0  0  0  0  0
  -19.5420  -26.6190   21.5770 C   0  0  0  0  0  2  0  0  0  0  0  0
  -18.1650  -26.7720   22.2330 C   0  0  0  0  0  2  0  0  0  0  0  0
  -19.1350  -28.8630   23.3520 C   0  0  0  0  0  0  0  0  0  0  0  0
  -18.9330  -30.1230   23.9550 C   0  0  0  0  0  3  0  0  0  0  0  0
  -17.6340  -30.6350   24.1350 C   0  0  0  0  0  3  0  0  0  0  0  0
  -16.5200  -29.8860   23.7220 C   0  0  0  0  0  3  0  0  0  0  0  0
  -16.7070  -28.6280   23.1200 C   0  0  0  0  0  3  0  0  0  0  0  0
  -25.8730  -32.4910   23.8500 C   0  0  0  0  0  3  0  0  0  0  0  0
  -26.3940  -31.7080   25.1180 C   0  0  1  0  0  0  0  0  0  0  0  0
  -25.3060  -31.4630   26.1880 C   0  0  0  0  0  1  0  0  0  0  0  0
  -26.9750  -30.3350   24.7090 C   0  0  0  0  0  1  0  0  0  0  0  0
  -27.5500  -32.4940   25.7810 C   0  0  0  0  0  1  0  0  0  0  0  0
  -25.5720  -33.8880   24.1900 N   0  0  0  0  0  0  0  0  0  0  0  0
  -25.9030  -34.9430   23.4340 C   0  0  0  0  0  0  0  0  0  0  0  0
  -26.5660  -34.8420   22.3970 O   0  0  0  0  0  0  0  0  0  0  0  0
  -24.9860  -34.0390   24.9970 H   0  0  0  0  0  0  0  0  0  0  0  0
  -24.1790  -36.7400   23.0930 C   0  0  0  0  0  1  0  0  0  0  0  0
  -25.4220  -36.3300   23.8990 C   0  0  0  0  0  3  0  0  0  0  0  0
  -27.5590  -37.2030   24.7330 C   0  0  0  0  0  1  0  0  0  0  0  0
  -26.4570  -37.3800   23.7900 N   0  0  0  0  0  0  0  0  0  0  0  0
  -26.0550  -38.3010   23.9420 H   0  0  0  0  0  0  0  0  0  0  0  0
  -29.5830  -20.6060   21.0830 N   0  0  0  0  0  0  0  0  0  0  0  0
  -28.5900  -20.6320   20.8650 H   0  0  0  0  0  0  0  0  0  0  0  0
  -30.6180  -14.4530   20.2580 C   0  0  0  0  0  0  0  0  0  0  0  0
  -30.2750  -12.3210   19.0620 C   0  0  0  0  0  2  0  0  0  0  0  0
  -29.2960  -12.5560   17.8920 C   0  0  0  0  0  2  0  0  0  0  0  0
  -27.8350  -12.4120   18.3640 C   0  0  0  0  0  2  0  0  0  0  0  0
  -27.5380  -13.2250   19.6530 C   0  0  0  0  0  3  0  0  0  0  0  0
  -28.6270  -12.9710   20.7220 C   0  0  0  0  0  2  0  0  0  0  0  0
  -29.9380  -13.2810   20.1230 N   0  0  0  0  0  0  0  0  0  0  0  0
  -31.7260  -14.6420   19.7450 O   0  0  0  0  0  0  0  0  0  0  0  0
  -31.4010  -18.7480   21.2210 C   0  0  0  0  0  0  0  0  0  0  0  0
  -30.1360  -19.3060   21.0450 C   0  0  0  0  0  0  0  0  0  0  0  0
  -30.1970  -16.8240   20.9080 C   0  0  0  0  0  0  0  0  0  0  0  0
  -32.7260  -19.3690   21.5620 C   0  0  0  0  0  1  0  0  0  0  0  0
  -31.4070  -17.3450   21.1220 N   0  0  0  0  0  0  0  0  0  0  0  0
  -29.9210  -15.4310   20.8630 N   0  0  0  0  0  0  0  0  0  0  0  0
  -28.9420  -18.0430   20.8050 S   0  0  0  0  0  0  0  0  0  0  0  0
  -28.9900  -15.1650   21.1400 H   0  0  0  0  0  0  0  0  0  0  0  0
  -25.1610  -13.8230   20.4390 C   0  0  0  0  0  0  0  0  0  0  0  0
  -24.1050  -13.0450   20.8330 C   0  0  0  0  0  0  0  0  0  0  0  0
  -24.5670  -11.6950   20.7730 C   0  0  0  0  0  0  0  0  0  0  0  0
  -26.2000  -12.9460   20.1670 N   0  0  0  0  0  0  0  0  0  0  0  0
  -25.8470  -11.6600   20.4260 N   0  0  0  0  0  0  0  0  0  0  0  0
  -23.8490  -10.4290   20.9720 C   0  0  0  0  0  0  0  0  0  0  0  0
  -24.2950   -9.4640   21.9000 C   0  0  0  0  0  3  0  0  0  0  0  0
  -23.5780   -8.2630   22.0850 C   0  0  0  0  0  3  0  0  0  0  0  0
  -22.3990   -8.0190   21.3410 C   0  0  0  0  0  0  0  0  0  0  0  0
  -21.9720   -8.9720   20.4000 C   0  0  0  0  0  3  0  0  0  0  0  0
  -22.6910  -10.1650   20.2140 C   0  0  0  0  0  3  0  0  0  0  0  0
  -21.6510   -6.8700   21.4360 O   0  0  0  0  0  0  0  0  0  0  0  0
  -21.6000   -6.1390   22.5950 C   0  0  0  0  0  0  0  0  0  0  0  0
  -21.1450   -6.6970   23.8100 C   0  0  0  0  0  3  0  0  0  0  0  0
  -21.0420   -5.8910   24.9610 C   0  0  0  0  0  3  0  0  0  0  0  0
  -21.3830   -4.5260   24.8990 C   0  0  0  0  0  0  0  0  0  0  0  0
  -21.8320   -3.9680   23.6900 C   0  0  0  0  0  3  0  0  0  0  0  0
  -21.9370   -4.7700   22.5400 C   0  0  0  0  0  0  0  0  0  0  0  0
  -22.3490   -4.2220   21.3720 F   0  0  0  0  0  0  0  0  0  0  0  0
  -21.2780   -3.7500   26.0020 F   0  0  0  0  0  0  0  0  0  0  0  0
  -22.7150  -13.5160   21.1520 C   0  0  0  0  0  0  0  0  0  0  0  0
  -22.0160  -12.8110   22.0330 N   0  0  0  0  0  0  0  0  0  0  0  0
  -22.2590  -14.5460   20.6560 O   0  0  0  0  0  0  0  0  0  0  0  0
  -22.3980  -11.9770   22.4550 H   0  0  0  0  0  0  0  0  0  0  0  0
  -21.0850  -13.1060   22.2880 H   0  0  0  0  0  0  0  0  0  0  0  0
  -25.3170  -15.1960   20.2710 N   0  0  0  0  0  0  0  0  0  0  0  0
  -24.5470  -15.8420   20.4080 H   0  0  0  0  0  0  0  0  0  0  0  0
  -26.1420  -15.6420   19.8900 H   0  0  0  0  0  0  0  0  0  0  0  0
  3  1  1  6
  3 49  1  0
  3  2  1  0
  4  5  1  0
  4  3  1  0
  6  4  1  0
  7  8  1  0
  7  6  1  0
  9 20  2  0
 10  8  1  0
 10 15  1  0
 11 19  1  0
 11 21  1  0
 12 18  1  0
 12 14  1  0
 13 19  1  0
 14 13  1  0
 15 14  2  0
 16 17  1  0
 16 10  2  0
 17 12  2  0
 18 11  1  0
 19  9  1  0
 21 23  2  0
 22 21  1  0
 24 22  1  0
 25 34  2  0
 25 30  1  0
 26 22  1  0
 26 30  1  0
 27 26  1  0
 28 29  1  0
 28 27  1  0
 29 25  1  0
 30 31  2  0
 31 32  1  0
 33 32  2  0
 34 33  1  0
 35  9  1  0
 35 40  1  0
 35 36  1  0
 36 39  1  1
 36 37  1  0
 38 36  1  0
 40 43  1  0
 41 45  1  0
 41 40  1  0
 42 41  2  0
 45 44  1  0
 47 45  1  0
 47 48  1  0
 47 46  1  0
 50 49  1  0
 51 64  1  0
 52 57  1  0
 53 54  1  0
 53 52  1  0
 55 54  1  0
 55 70  1  0
 55 56  1  0
 57 51  1  0
 57 56  1  0
 58 51  2  0
 59 62  1  0
 60 49  1  0
 60 59  2  0
 61 63  2  0
 63 59  1  0
 64 61  1  0
 64 66  1  0
 65 61  1  0
 65 60  1  0
 67 68  2  0
 68 87  1  0
 69 68  1  0
 69 72  1  0
 70 71  1  0
 70 67  1  0
 71 69  2  0
 72 73  1  0
 73 74  2  0
 75 78  1  0
 75 74  1  0
 76 75  2  0
 77 76  1  0
 77 72  2  0
 78 79  1  0
 79 80  1  0
 80 81  2  0
 82 81  1  0
 82 86  1  0
 83 82  2  0
 84 79  2  0
 84 83  1  0
 85 84  1  0
 87 88  1  0
 88 91  1  0
 88 90  1  0
 89 87  2  0
 92 93  1  0
 92 67  1  0
 94 92  1  0
M  ISO  4   7 101   8 101  51 100  64 100
M  END
>  <TORSDO>  (96) 
F 20

>  <SCORE>  (96) 
-13.956

>  <name>  (96) 
95

>  <ligand_id>  (96) 
95

>  <original_smiles>  (96) 
[H]c1c([H])c([H])c2c(c1[H])C([H])([H])C([H])([H])C([H])([H])C2([H])N([H])C(=O)C1([H])N(C(=O)C([H])(N([H])C(=O)C([H])(N([H])C([H])([H])[H])C([H])([H])[H])C(C([H])([H])[H])(C([H])([H])[H])C([H])([H])[H])C([H])([H])c2c([H])c(OC([H])([H])C([H])([H])C([H])(F)C(N([H])c3sc(N([H])C(=O)N4C([H])([H])C([H])([H])C([H])([H])C([H])(n5nc(-c6c([H])c([H])c(Oc7c([H])c([H])c(F)c([H])c7F)c([H])c6[H])c(C(=O)N([H])[H])c5N([H])[H])C4([H])[H])nc3C([H])([H])[H])(C([H])([H])[H])C([H])([H])[H])c([H])c([H])c2C1([H])[H]

>  <smiles>  (96) 
[H]c1c([H])c([H])c2c(c1[H])C([H])([H])C([H])([H])C([H])([H])C2([H])N([H])C(=O)C1([H])N(C(=O)C([H])(N([H])C(=O)C([H])(N([H])C([H])([H])[H])C([H])([H])[H])C(C([H])([H])[H])(C([H])([H])[H])C([H])([H])[H])C([H])([H])c2c([H])c(OC([H])([H])C([H])([H])C([H])(F)C(N([H])c3sc(N([H])C(=O)N4C([H])([H])C([H])([H])C([H])([H])C([H])(n5nc(-c6c([H])c([H])c(Oc7c([H])c([H])c(F)c([H])c7F)c([H])c6[H])c(C(=O)N([H])[H])c5N([H])[H])C4([H])[H])nc3C([H])([H])[H])(C([H])([H])[H])C([H])([H])[H])c([H])c([H])c2C1([H])[H]

$$$$
96:0:0
     RDKit          3D

 98106  0  0  1  0  0  0  0  0999 V2000
  -29.8340  -23.0000   20.1100 C   0  0  0  0  0  3  0  0  0  0  0  0
  -30.1470  -20.5300   19.8610 C   0  0  0  0  0  0  0  0  0  0  0  0
  -29.8260  -21.5730   20.5910 N   0  0  0  0  0  2  0  0  0  0  0  0
  -30.3880  -20.4850   18.5060 N   0  0  0  0  0  4  0  0  0  0  0  0
  -30.6470  -19.6260   18.0370 H   0  0  0  0  0  0  0  0  0  0  0  0
  -30.2500  -21.2410   17.8530 H   0  0  0  0  0  0  0  0  0  0  0  0
  -30.7980  -17.4370   22.2750 C   0  0  0  0  0  3  0  0  0  0  0  0
  -30.7250  -16.9360   21.0020 C   0  0  0  0  0  0  0  0  0  0  0  0
  -30.3800  -19.2070   20.5740 C   0  0  0  0  0  0  0  0  0  0  0  0
  -30.4900  -17.9530   20.0320 N   0  0  0  0  0  0  0  0  0  0  0  0
  -30.6030  -19.1670   22.3270 S   0  0  0  0  0  0  0  0  0  0  0  0
  -31.3610  -14.5900   20.0690 C   0  0  0  0  0  0  0  0  0  0  0  0
  -31.0060  -12.3870   18.9500 C   0  0  0  0  0  2  0  0  0  0  0  0
  -30.0130  -12.5720   17.7800 C   0  0  0  0  0  2  0  0  0  0  0  0
  -28.5540  -12.4870   18.2730 C   0  0  0  0  0  2  0  0  0  0  0  0
  -28.2960  -13.3670   19.5240 C   0  0  0  0  0  3  0  0  0  0  0  0
  -29.3820  -13.1070   20.5920 C   0  0  0  0  0  2  0  0  0  0  0  0
  -30.6960  -13.3950   19.9830 N   0  0  0  0  0  0  0  0  0  0  0  0
  -32.4210  -14.7990   19.4670 O   0  0  0  0  0  0  0  0  0  0  0  0
  -30.7600  -15.4970   20.8810 N   0  0  0  0  0  0  0  0  0  0  0  0
  -30.0870  -15.0400   21.4750 H   0  0  0  0  0  0  0  0  0  0  0  0
  -25.9860  -14.1020   20.3940 C   0  0  0  0  0  0  0  0  0  0  0  0
  -24.8840  -13.3880   20.7830 C   0  0  0  0  0  0  0  0  0  0  0  0
  -25.2440  -12.0110   20.6570 C   0  0  0  0  0  0  0  0  0  0  0  0
  -26.9510  -13.1640   20.0590 N   0  0  0  0  0  0  0  0  0  0  0  0
  -26.5080  -11.8980   20.2730 N   0  0  0  0  0  0  0  0  0  0  0  0
  -24.4380  -10.7950   20.8240 C   0  0  0  0  0  0  0  0  0  0  0  0
  -24.7700   -9.8150   21.7860 C   0  0  0  0  0  3  0  0  0  0  0  0
  -23.9700   -8.6620   21.9390 C   0  0  0  0  0  3  0  0  0  0  0  0
  -22.8230   -8.4810   21.1300 C   0  0  0  0  0  0  0  0  0  0  0  0
  -22.5090   -9.4490   20.1600 C   0  0  0  0  0  3  0  0  0  0  0  0
  -23.3090  -10.5930   20.0050 C   0  0  0  0  0  3  0  0  0  0  0  0
  -22.0030   -7.3820   21.1910 O   0  0  0  0  0  0  0  0  0  0  0  0
  -21.7500   -6.7370   22.3750 C   0  0  0  0  0  0  0  0  0  0  0  0
  -21.1820   -7.4050   23.4810 C   0  0  0  0  0  3  0  0  0  0  0  0
  -20.8750   -6.6890   24.6550 C   0  0  0  0  0  3  0  0  0  0  0  0
  -21.1270   -5.3050   24.7220 C   0  0  0  0  0  0  0  0  0  0  0  0
  -21.6860   -4.6370   23.6190 C   0  0  0  0  0  3  0  0  0  0  0  0
  -21.9960   -5.3510   22.4490 C   0  0  0  0  0  0  0  0  0  0  0  0
  -22.5170   -4.6980   21.3810 F   0  0  0  0  0  0  0  0  0  0  0  0
  -20.8250   -4.6150   25.8470 F   0  0  0  0  0  0  0  0  0  0  0  0
  -23.5430  -13.9470   21.1610 C   0  0  0  0  0  0  0  0  0  0  0  0
  -22.8250  -13.2730   22.0530 N   0  0  0  0  0  0  0  0  0  0  0  0
  -23.1440  -15.0150   20.6980 O   0  0  0  0  0  0  0  0  0  0  0  0
  -23.1600  -12.4070   22.4480 H   0  0  0  0  0  0  0  0  0  0  0  0
  -21.9280  -13.6310   22.3470 H   0  0  0  0  0  0  0  0  0  0  0  0
  -26.2420  -15.4660   20.2820 N   0  0  0  0  0  0  0  0  0  0  0  0
  -25.5320  -16.1630   20.4730 H   0  0  0  0  0  0  0  0  0  0  0  0
  -27.1090  -15.8650   19.9440 H   0  0  0  0  0  0  0  0  0  0  0  0
  -32.3700  -22.8390   20.6160 C   0  0  0  0  0  1  0  0  0  0  0  0
  -30.8800  -23.9240   22.2740 C   0  0  0  0  0  1  0  0  0  0  0  0
  -31.0940  -23.7170   20.7550 C   0  0  2  0  0  0  0  0  0  0  0  0
  -32.3970  -26.0080   20.7080 C   0  0  0  0  0  1  0  0  0  0  0  0
  -31.4130  -25.0460   20.0070 C   0  0  0  0  0  2  0  0  0  0  0  0
  -27.3640  -23.1180   19.3670 C   0  0  0  0  0  1  0  0  0  0  0  0
  -28.3860  -23.6570   20.3820 C   0  0  0  0  0  3  0  0  0  0  0  0
  -28.0610  -25.1920   20.7380 C   0  0  0  0  0  2  0  0  0  0  0  0
  -28.0490  -26.2850   19.7600 O   0  0  0  0  0  0  0  0  0  0  0  0
  -24.6050  -31.6790   23.1100 C   0  0  0  0  0  0  0  0  0  0  0  0
  -26.9610  -27.1610   19.8300 C   0  0  0  0  0  0  0  0  0  0  0  0
  -23.2950  -30.3700   21.4750 C   0  0  0  0  0  3  0  0  0  0  0  0
  -24.6440  -28.8180   19.9520 C   0  0  0  0  0  0  0  0  0  0  0  0
  -25.8320  -30.6180   21.2070 C   0  0  0  0  0  2  0  0  0  0  0  0
  -25.8450  -29.2600   20.5230 C   0  0  0  0  0  0  0  0  0  0  0  0
  -27.0100  -28.4410   20.4580 C   0  0  0  0  0  3  0  0  0  0  0  0
  -25.7460  -26.7640   19.2410 C   0  0  0  0  0  3  0  0  0  0  0  0
  -24.5930  -27.5730   19.3020 C   0  0  0  0  0  3  0  0  0  0  0  0
  -23.4350  -29.7270   20.0680 C   0  0  0  0  0  2  0  0  0  0  0  0
  -24.5980  -30.9030   21.9870 N   0  0  0  0  0  0  0  0  0  0  0  0
  -23.5530  -31.9780   23.6920 O   0  0  0  0  0  0  0  0  0  0  0  0
  -22.6320  -29.3470   22.4280 C   0  0  0  0  0  0  0  0  0  0  0  0
  -21.2990  -29.2180   22.3390 N   0  0  0  0  0  0  0  0  0  0  0  0
  -23.3140  -28.6760   23.2070 O   0  0  0  0  0  0  0  0  0  0  0  0
  -20.8100  -29.8100   21.6820 H   0  0  0  0  0  0  0  0  0  0  0  0
  -17.9010  -28.1070   22.8840 C   0  0  0  0  0  0  0  0  0  0  0  0
  -20.4700  -28.2890   23.1080 C   0  0  0  0  0  3  0  0  0  0  0  0
  -20.5220  -26.8680   22.5030 C   0  0  0  0  0  2  0  0  0  0  0  0
  -19.3920  -26.5950   21.5060 C   0  0  0  0  0  2  0  0  0  0  0  0
  -18.0270  -26.7650   22.1800 C   0  0  0  0  0  2  0  0  0  0  0  0
  -19.0490  -28.8300   23.3040 C   0  0  0  0  0  0  0  0  0  0  0  0
  -18.8770  -30.0890   23.9210 C   0  0  0  0  0  3  0  0  0  0  0  0
  -17.5900  -30.6230   24.1230 C   0  0  0  0  0  3  0  0  0  0  0  0
  -16.4570  -29.8950   23.7210 C   0  0  0  0  0  3  0  0  0  0  0  0
  -16.6130  -28.6400   23.1060 C   0  0  0  0  0  3  0  0  0  0  0  0
  -25.9340  -32.2440   23.7000 C   0  0  0  0  0  3  0  0  0  0  0  0
  -25.6840  -33.6340   24.1090 N   0  0  0  0  0  0  0  0  0  0  0  0
  -26.0430  -34.7120   23.4010 C   0  0  0  0  0  0  0  0  0  0  0  0
  -26.6900  -34.6390   22.3530 O   0  0  0  0  0  0  0  0  0  0  0  0
  -25.1140  -33.7680   24.9310 H   0  0  0  0  0  0  0  0  0  0  0  0
  -24.3730  -36.5800   23.1760 C   0  0  0  0  0  1  0  0  0  0  0  0
  -25.6130  -36.0890   23.9400 C   0  0  0  0  0  3  0  0  0  0  0  0
  -27.7910  -36.8570   24.7750 C   0  0  0  0  0  1  0  0  0  0  0  0
  -26.6800  -37.1110   23.8610 N   0  0  0  0  0  0  0  0  0  0  0  0
  -26.3090  -38.0370   24.0620 H   0  0  0  0  0  0  0  0  0  0  0  0
  -26.4840  -31.3990   24.9140 C   0  0  1  0  0  0  0  0  0  0  0  0
  -25.4300  -31.1410   26.0170 C   0  0  0  0  0  1  0  0  0  0  0  0
  -27.0110  -30.0270   24.4320 C   0  0  0  0  0  1  0  0  0  0  0  0
  -27.6840  -32.1290   25.5610 C   0  0  0  0  0  1  0  0  0  0  0  0
  1 56  1  0
  1  3  1  0
  1 52  1  0
  2  9  1  0
  2  3  1  0
  4  2  2  0
  5  4  1  0
  6  4  1  0
  7 11  1  0
  8  7  2  0
  9 11  1  0
 10  9  2  0
 10  8  1  0
 12 20  1  0
 13 18  1  0
 14 15  1  0
 14 13  1  0
 16 15  1  0
 16 25  1  0
 16 17  1  0
 18 12  1  0
 18 17  1  0
 19 12  2  0
 20  8  1  0
 20 21  1  0
 22 23  2  0
 23 42  1  0
 24 23  1  0
 24 27  1  0
 25 26  1  0
 25 22  1  0
 26 24  2  0
 27 28  1  0
 28 29  2  0
 30 33  1  0
 30 29  1  0
 31 30  2  0
 32 31  1  0
 32 27  2  0
 33 34  1  0
 34 39  2  0
 34 35  1  0
 35 36  2  0
 36 37  1  0
 37 41  1  0
 38 37  2  0
 39 38  1  0
 40 39  1  0
 42 43  1  0
 43 46  1  0
 43 45  1  0
 44 42  2  0
 47 22  1  0
 47 48  1  0
 49 47  1  0
 52 50  1  1
 52 51  1  0
 54 53  1  0
 54 52  1  0
 56 55  1  0
 56 57  1  0
 58 60  1  0
 58 57  1  0
 59 70  2  0
 60 65  1  0
 61 69  1  0
 61 71  1  0
 62 68  1  0
 62 64  1  0
 63 69  1  0
 64 63  1  0
 65 64  2  0
 66 67  1  0
 66 60  2  0
 67 62  2  0
 68 61  1  0
 69 59  1  0
 71 73  2  0
 72 71  1  0
 74 72  1  0
 75 84  2  0
 75 80  1  0
 76 72  1  0
 76 80  1  0
 77 76  1  0
 78 79  1  0
 78 77  1  0
 79 75  1  0
 80 81  2  0
 81 82  1  0
 83 82  2  0
 84 83  1  0
 85 59  1  0
 85 86  1  0
 85 95  1  0
 86 89  1  0
 87 91  1  0
 87 86  1  0
 88 87  2  0
 91 90  1  0
 93 91  1  0
 93 94  1  0
 93 92  1  0
 95 98  1  1
 95 96  1  0
 97 95  1  0
M  ISO  4  12 100  20 100  57 101  58 101
M  END
>  <TORSDO>  (97) 
F 22

>  <SCORE>  (97) 
-11.266

>  <name>  (97) 
96

>  <ligand_id>  (97) 
96

>  <original_smiles>  (97) 
[H]c1sc(C(=NC([H])(C([H])(C([H])([H])[H])C([H])([H])Oc2c([H])c([H])c3c(c2[H])C([H])([H])N(C(=O)C([H])(N([H])C(=O)C([H])(N([H])C([H])([H])[H])C([H])([H])[H])C(C([H])([H])[H])(C([H])([H])[H])C([H])([H])[H])C([H])(C(=O)N([H])C2([H])c4c([H])c([H])c([H])c([H])c4C([H])([H])C([H])([H])C2([H])[H])C3([H])[H])C(C([H])([H])[H])(C([H])([H])[H])C([H])([H])C([H])([H])[H])N([H])[H])nc1N([H])C(=O)N1C([H])([H])C([H])([H])C([H])([H])C([H])(n2nc(-c3c([H])c([H])c(Oc4c([H])c([H])c(F)c([H])c4F)c([H])c3[H])c(C(=O)N([H])[H])c2N([H])[H])C1([H])[H]

>  <smiles>  (97) 
[H]c1sc(C(=NC([H])(C([H])(C([H])([H])[H])C([H])([H])Oc2c([H])c([H])c3c(c2[H])C([H])([H])N(C(=O)C([H])(N([H])C(=O)C([H])(N([H])C([H])([H])[H])C([H])([H])[H])C(C([H])([H])[H])(C([H])([H])[H])C([H])([H])[H])C([H])(C(=O)N([H])C2([H])c4c([H])c([H])c([H])c([H])c4C([H])([H])C([H])([H])C2([H])[H])C3([H])[H])C(C([H])([H])[H])(C([H])([H])[H])C([H])([H])C([H])([H])[H])N([H])[H])nc1N([H])C(=O)N1C([H])([H])C([H])([H])C([H])([H])C([H])(n2nc(-c3c([H])c([H])c(Oc4c([H])c([H])c(F)c([H])c4F)c([H])c3[H])c(C(=O)N([H])[H])c2N([H])[H])C1([H])[H]

$$$$
97:0:0
     RDKit          3D

 94102  0  0  1  0  0  0  0  0999 V2000
  -29.8380  -24.0390   18.6370 C   0  0  0  0  0  1  0  0  0  0  0  0
  -29.5130  -24.0730   20.1340 C   0  0  0  0  0  3  0  0  0  0  0  0
  -29.4280  -19.1800   19.4430 C   0  0  0  0  0  3  0  0  0  0  0  0
  -30.0040  -18.7010   20.6130 C   0  0  0  0  0  0  0  0  0  0  0  0
  -29.5940  -21.2680   20.4790 C   0  0  0  0  0  0  0  0  0  0  0  0
  -29.2110  -20.5950   19.3800 N   0  0  0  0  0  0  0  0  0  0  0  0
  -29.5320  -22.6820   20.7480 N   0  0  0  0  0  0  0  0  0  0  0  0
  -30.2610  -20.1090   21.6740 S   0  0  0  0  0  0  0  0  0  0  0  0
  -29.7630  -22.7990   21.7310 H   0  0  0  0  0  0  0  0  0  0  0  0
  -30.5460  -17.2900   21.0590 C   0  0  0  0  0  2  0  0  0  0  0  0
  -30.7080  -14.7830   20.4480 C   0  0  0  0  0  0  0  0  0  0  0  0
  -30.4730  -12.5210   19.4300 C   0  0  0  0  0  2  0  0  0  0  0  0
  -29.5450  -12.5810   18.2000 C   0  0  0  0  0  2  0  0  0  0  0  0
  -28.0680  -12.4290   18.6280 C   0  0  0  0  0  2  0  0  0  0  0  0
  -27.6860  -13.3460   19.8190 C   0  0  0  0  0  3  0  0  0  0  0  0
  -28.7370  -13.2680   20.9480 C   0  0  0  0  0  2  0  0  0  0  0  0
  -30.0360  -13.5900   20.3490 N   0  0  0  0  0  0  0  0  0  0  0  0
  -31.9130  -14.8320   20.1980 O   0  0  0  0  0  0  0  0  0  0  0  0
  -29.9860  -15.9440   20.6340 N   0  0  0  0  0  0  0  0  0  0  0  0
  -28.9850  -15.8390   20.6800 H   0  0  0  0  0  0  0  0  0  0  0  0
  -25.2950  -13.9550   20.5220 C   0  0  0  0  0  0  0  0  0  0  0  0
  -24.2200  -13.1920   20.8840 C   0  0  0  0  0  0  0  0  0  0  0  0
  -24.6770  -11.8360   20.8730 C   0  0  0  0  0  0  0  0  0  0  0  0
  -26.3380  -13.0690   20.3040 N   0  0  0  0  0  0  0  0  0  0  0  0
  -25.9710  -11.7900   20.5830 N   0  0  0  0  0  0  0  0  0  0  0  0
  -23.9400  -10.5780   21.0650 C   0  0  0  0  0  0  0  0  0  0  0  0
  -24.3540   -9.6160   22.0140 C   0  0  0  0  0  3  0  0  0  0  0  0
  -23.6180   -8.4250   22.1930 C   0  0  0  0  0  3  0  0  0  0  0  0
  -22.4590   -8.1840   21.4190 C   0  0  0  0  0  0  0  0  0  0  0  0
  -22.0650   -9.1320   20.4600 C   0  0  0  0  0  3  0  0  0  0  0  0
  -22.8010  -10.3150   20.2800 C   0  0  0  0  0  3  0  0  0  0  0  0
  -21.7000   -7.0420   21.5020 O   0  0  0  0  0  0  0  0  0  0  0  0
  -21.6200   -6.3130   22.6600 C   0  0  0  0  0  0  0  0  0  0  0  0
  -21.1610   -6.8810   23.8680 C   0  0  0  0  0  3  0  0  0  0  0  0
  -21.0340   -6.0810   25.0190 C   0  0  0  0  0  3  0  0  0  0  0  0
  -21.3520   -4.7100   24.9620 C   0  0  0  0  0  0  0  0  0  0  0  0
  -21.8060   -4.1400   23.7610 C   0  0  0  0  0  3  0  0  0  0  0  0
  -21.9370   -4.9400   22.6100 C   0  0  0  0  0  0  0  0  0  0  0  0
  -22.3520   -4.3820   21.4480 F   0  0  0  0  0  0  0  0  0  0  0  0
  -21.2240   -3.9370   26.0650 F   0  0  0  0  0  0  0  0  0  0  0  0
  -22.8220  -13.6750   21.1280 C   0  0  0  0  0  0  0  0  0  0  0  0
  -22.0730  -12.9930   21.9890 N   0  0  0  0  0  0  0  0  0  0  0  0
  -22.3980  -14.6960   20.5860 O   0  0  0  0  0  0  0  0  0  0  0  0
  -22.4260  -12.1680   22.4500 H   0  0  0  0  0  0  0  0  0  0  0  0
  -21.1340  -13.3070   22.1890 H   0  0  0  0  0  0  0  0  0  0  0  0
  -25.4690  -15.3230   20.3360 N   0  0  0  0  0  0  0  0  0  0  0  0
  -24.7080  -15.9860   20.4410 H   0  0  0  0  0  0  0  0  0  0  0  0
  -26.3160  -15.7500   19.9880 H   0  0  0  0  0  0  0  0  0  0  0  0
  -28.2870  -25.0810   20.4760 C   0  0  0  0  0  3  0  0  0  0  0  0
  -26.4430  -25.1910   22.3190 C   0  0  0  0  0  1  0  0  0  0  0  0
  -27.9490  -25.0460   22.0040 C   0  0  0  0  0  3  0  0  0  0  0  0
  -28.7550  -25.8220   24.3280 C   0  0  0  0  0  1  0  0  0  0  0  0
  -28.8070  -26.0440   22.8130 C   0  0  0  0  0  2  0  0  0  0  0  0
  -28.4460  -26.5210   20.0650 O   0  0  0  0  0  0  0  0  0  0  0  0
  -24.6370  -31.8790   23.1050 C   0  0  0  0  0  0  0  0  0  0  0  0
  -27.3230  -27.3730   20.0130 C   0  0  0  0  0  0  0  0  0  0  0  0
  -23.4600  -30.4740   21.4540 C   0  0  0  0  0  3  0  0  0  0  0  0
  -24.9330  -28.9570   20.0190 C   0  0  0  0  0  0  0  0  0  0  0  0
  -25.9950  -30.8250   21.2810 C   0  0  0  0  0  2  0  0  0  0  0  0
  -26.0940  -29.4520   20.6240 C   0  0  0  0  0  0  0  0  0  0  0  0
  -27.2930  -28.6760   20.6090 C   0  0  0  0  0  3  0  0  0  0  0  0
  -26.1420  -26.9450   19.3660 C   0  0  0  0  0  3  0  0  0  0  0  0
  -24.9610  -27.7080   19.3820 C   0  0  0  0  0  3  0  0  0  0  0  0
  -23.6840  -29.8060   20.0710 C   0  0  0  0  0  2  0  0  0  0  0  0
  -24.7170  -31.0760   22.0030 N   0  0  0  0  0  0  0  0  0  0  0  0
  -23.5480  -32.1390   23.6360 O   0  0  0  0  0  0  0  0  0  0  0  0
  -22.8060  -29.4480   22.4110 C   0  0  0  0  0  0  0  0  0  0  0  0
  -21.4810  -29.2490   22.2810 N   0  0  0  0  0  0  0  0  0  0  0  0
  -23.4880  -28.8310   23.2320 O   0  0  0  0  0  0  0  0  0  0  0  0
  -20.9820  -29.7840   21.5850 H   0  0  0  0  0  0  0  0  0  0  0  0
  -18.1210  -28.0140   22.7980 C   0  0  0  0  0  0  0  0  0  0  0  0
  -20.6740  -28.3100   23.0610 C   0  0  0  0  0  3  0  0  0  0  0  0
  -20.7960  -26.8730   22.5090 C   0  0  0  0  0  2  0  0  0  0  0  0
  -19.7000  -26.5160   21.4980 C   0  0  0  0  0  2  0  0  0  0  0  0
  -18.3140  -26.6590   22.1370 C   0  0  0  0  0  2  0  0  0  0  0  0
  -19.2300  -28.7930   23.2220 C   0  0  0  0  0  0  0  0  0  0  0  0
  -18.9960  -30.0480   23.8200 C   0  0  0  0  0  3  0  0  0  0  0  0
  -17.6860  -30.5300   23.9980 C   0  0  0  0  0  3  0  0  0  0  0  0
  -16.5900  -29.7530   23.5870 C   0  0  0  0  0  3  0  0  0  0  0  0
  -16.8080  -28.4930   22.9980 C   0  0  0  0  0  3  0  0  0  0  0  0
  -25.9100  -32.5280   23.7320 C   0  0  0  0  0  3  0  0  0  0  0  0
  -25.5700  -33.9130   24.0920 N   0  0  0  0  0  0  0  0  0  0  0  0
  -25.8800  -34.9890   23.3580 C   0  0  0  0  0  0  0  0  0  0  0  0
  -26.5430  -34.9250   22.3190 O   0  0  0  0  0  0  0  0  0  0  0  0
  -24.9760  -34.0390   24.8990 H   0  0  0  0  0  0  0  0  0  0  0  0
  -24.1130  -36.7560   23.0520 C   0  0  0  0  0  1  0  0  0  0  0  0
  -25.3660  -36.3560   23.8500 C   0  0  0  0  0  3  0  0  0  0  0  0
  -27.4850  -37.2640   24.6940 C   0  0  0  0  0  1  0  0  0  0  0  0
  -26.3770  -37.4310   23.7560 N   0  0  0  0  0  0  0  0  0  0  0  0
  -25.9520  -38.3390   23.9260 H   0  0  0  0  0  0  0  0  0  0  0  0
  -26.4570  -31.7440   24.9890 C   0  0  1  0  0  0  0  0  0  0  0  0
  -25.3780  -31.4670   26.0600 C   0  0  0  0  0  1  0  0  0  0  0  0
  -27.0650  -30.3860   24.5650 C   0  0  0  0  0  1  0  0  0  0  0  0
  -27.5990  -32.5480   25.6530 C   0  0  0  0  0  1  0  0  0  0  0  0
  2  1  1  0
  2 49  1  0
  2  7  1  0
  3  4  2  0
  4 10  1  0
  4  8  1  0
  5  7  1  0
  5  8  1  0
  6  3  1  0
  6  5  2  0
  7  9  1  0
 11 19  1  0
 12 17  1  0
 13 14  1  0
 13 12  1  0
 15 14  1  0
 15 24  1  0
 15 16  1  0
 17 11  1  0
 17 16  1  0
 18 11  2  0
 19 20  1  0
 19 10  1  0
 21 22  2  0
 22 41  1  0
 23 22  1  0
 23 26  1  0
 24 21  1  0
 24 25  1  0
 25 23  2  0
 26 27  1  0
 27 28  2  0
 29 32  1  0
 29 28  1  0
 30 29  2  0
 31 30  1  0
 31 26  2  0
 32 33  1  0
 33 34  1  0
 34 35  2  0
 36 35  1  0
 36 40  1  0
 37 36  2  0
 38 33  2  0
 38 37  1  0
 39 38  1  0
 41 42  1  0
 42 45  1  0
 42 44  1  0
 43 41  2  0
 46 47  1  0
 46 21  1  0
 48 46  1  0
 49 54  1  0
 49 51  1  0
 51 50  1  0
 51 53  1  0
 53 52  1  0
 55 66  2  0
 56 54  1  0
 56 61  1  0
 57 65  1  0
 57 67  1  0
 58 64  1  0
 58 60  1  0
 59 65  1  0
 60 59  1  0
 61 60  2  0
 62 63  1  0
 62 56  2  0
 63 58  2  0
 64 57  1  0
 65 55  1  0
 67 69  2  0
 68 67  1  0
 70 68  1  0
 71 80  2  0
 71 76  1  0
 72 68  1  0
 72 76  1  0
 73 72  1  0
 74 75  1  0
 74 73  1  0
 75 71  1  0
 76 77  2  0
 77 78  1  0
 79 78  2  0
 80 79  1  0
 81 55  1  0
 81 82  1  0
 81 91  1  0
 82 85  1  0
 83 87  1  0
 83 82  1  0
 84 83  2  0
 87 86  1  0
 89 87  1  0
 89 90  1  0
 89 88  1  0
 91 94  1  1
 91 92  1  0
 93 91  1  0
M  ISO  4  11 100  19 100  49 101  54 101
M  END
>  <TORSDO>  (98) 
F 21

>  <SCORE>  (98) 
-13.371

>  <name>  (98) 
97

>  <ligand_id>  (98) 
97

>  <original_smiles>  (98) 
[H]c1nc(N([H])C([H])(C([H])([H])[H])C([H])(Oc2c([H])c([H])c3c(c2[H])C([H])([H])N(C(=O)C([H])(N([H])C(=O)C([H])(N([H])C([H])([H])[H])C([H])([H])[H])C(C([H])([H])[H])(C([H])([H])[H])C([H])([H])[H])C([H])(C(=O)N([H])C2([H])c4c([H])c([H])c([H])c([H])c4C([H])([H])C([H])([H])C2([H])[H])C3([H])[H])C([H])(C([H])([H])[H])C([H])([H])C([H])([H])[H])sc1C([H])([H])N([H])C(=O)N1C([H])([H])C([H])([H])C([H])([H])C([H])(n2nc(-c3c([H])c([H])c(Oc4c([H])c([H])c(F)c([H])c4F)c([H])c3[H])c(C(=O)N([H])[H])c2N([H])[H])C1([H])[H]

>  <smiles>  (98) 
[H]c1nc(N([H])C([H])(C([H])([H])[H])C([H])(Oc2c([H])c([H])c3c(c2[H])C([H])([H])N(C(=O)C([H])(N([H])C(=O)C([H])(N([H])C([H])([H])[H])C([H])([H])[H])C(C([H])([H])[H])(C([H])([H])[H])C([H])([H])[H])C([H])(C(=O)N([H])C2([H])c4c([H])c([H])c([H])c([H])c4C([H])([H])C([H])([H])C2([H])[H])C3([H])[H])C([H])(C([H])([H])[H])C([H])([H])C([H])([H])[H])sc1C([H])([H])N([H])C(=O)N1C([H])([H])C([H])([H])C([H])([H])C([H])(n2nc(-c3c([H])c([H])c(Oc4c([H])c([H])c(F)c([H])c4F)c([H])c3[H])c(C(=O)N([H])[H])c2N([H])[H])C1([H])[H]

$$$$
98:0:0
     RDKit          3D

 95103  0  0  1  0  0  0  0  0999 V2000
  -28.6960  -21.5610   20.2550 C   0  0  0  0  0  0  0  0  0  0  0  0
  -29.7880  -20.7970   20.0300 N   0  0  0  0  0  0  0  0  0  0  0  0
  -27.7910  -21.2370   21.0280 O   0  0  0  0  0  0  0  0  0  0  0  0
  -30.5170  -21.2780   19.5170 H   0  0  0  0  0  0  0  0  0  0  0  0
  -30.6640  -14.5580   20.2930 C   0  0  0  0  0  0  0  0  0  0  0  0
  -30.3530  -12.3980   19.1310 C   0  0  0  0  0  2  0  0  0  0  0  0
  -29.3820  -12.6140   17.9500 C   0  0  0  0  0  2  0  0  0  0  0  0
  -27.9170  -12.4770   18.4110 C   0  0  0  0  0  2  0  0  0  0  0  0
  -27.6130  -13.2910   19.6970 C   0  0  0  0  0  3  0  0  0  0  0  0
  -28.6940  -13.0500   20.7740 C   0  0  0  0  0  2  0  0  0  0  0  0
  -30.0020  -13.3700   20.1790 N   0  0  0  0  0  0  0  0  0  0  0  0
  -31.7940  -14.7140   19.8170 O   0  0  0  0  0  0  0  0  0  0  0  0
  -31.3540  -18.9320   20.3900 C   0  0  0  0  0  0  0  0  0  0  0  0
  -30.0780  -19.4880   20.3420 C   0  0  0  0  0  0  0  0  0  0  0  0
  -30.1570  -16.9920   20.6840 C   0  0  0  0  0  0  0  0  0  0  0  0
  -31.3690  -17.5400   20.5990 N   0  0  0  0  0  0  0  0  0  0  0  0
  -29.9380  -15.5770   20.8150 N   0  0  0  0  0  0  0  0  0  0  0  0
  -28.8770  -18.2150   20.6210 S   0  0  0  0  0  0  0  0  0  0  0  0
  -29.0230  -15.3120   21.1400 H   0  0  0  0  0  0  0  0  0  0  0  0
  -25.2320  -13.8980   20.4620 C   0  0  0  0  0  0  0  0  0  0  0  0
  -24.1710  -13.1260   20.8510 C   0  0  0  0  0  0  0  0  0  0  0  0
  -24.6270  -11.7740   20.7990 C   0  0  0  0  0  0  0  0  0  0  0  0
  -26.2690  -13.0160   20.2010 N   0  0  0  0  0  0  0  0  0  0  0  0
  -25.9100  -11.7330   20.4610 N   0  0  0  0  0  0  0  0  0  0  0  0
  -23.9000  -10.5130   20.9960 C   0  0  0  0  0  0  0  0  0  0  0  0
  -24.3350   -9.5470   21.9290 C   0  0  0  0  0  3  0  0  0  0  0  0
  -23.6100   -8.3510   22.1140 C   0  0  0  0  0  3  0  0  0  0  0  0
  -22.4340   -8.1120   21.3640 C   0  0  0  0  0  0  0  0  0  0  0  0
  -22.0170   -9.0650   20.4180 C   0  0  0  0  0  3  0  0  0  0  0  0
  -22.7440  -10.2530   20.2320 C   0  0  0  0  0  3  0  0  0  0  0  0
  -21.6790   -6.9670   21.4580 O   0  0  0  0  0  0  0  0  0  0  0  0
  -21.6170   -6.2390   22.6190 C   0  0  0  0  0  0  0  0  0  0  0  0
  -21.1480   -6.8000   23.8260 C   0  0  0  0  0  3  0  0  0  0  0  0
  -21.0360   -5.9970   24.9800 C   0  0  0  0  0  3  0  0  0  0  0  0
  -21.3820   -4.6340   24.9250 C   0  0  0  0  0  0  0  0  0  0  0  0
  -21.8440   -4.0710   23.7220 C   0  0  0  0  0  3  0  0  0  0  0  0
  -21.9590   -4.8720   22.5720 C   0  0  0  0  0  0  0  0  0  0  0  0
  -22.3840   -4.3210   21.4090 F   0  0  0  0  0  0  0  0  0  0  0  0
  -21.2680   -3.8600   26.0280 F   0  0  0  0  0  0  0  0  0  0  0  0
  -22.7810  -13.6060   21.1580 C   0  0  0  0  0  0  0  0  0  0  0  0
  -22.0700  -12.9010   22.0320 N   0  0  0  0  0  0  0  0  0  0  0  0
  -22.3350  -14.6380   20.6610 O   0  0  0  0  0  0  0  0  0  0  0  0
  -22.4460  -12.0640   22.4530 H   0  0  0  0  0  0  0  0  0  0  0  0
  -21.1390  -13.2000   22.2820 H   0  0  0  0  0  0  0  0  0  0  0  0
  -25.3960  -15.2700   20.2860 N   0  0  0  0  0  0  0  0  0  0  0  0
  -24.6250  -15.9180   20.4020 H   0  0  0  0  0  0  0  0  0  0  0  0
  -26.2190  -15.7020   19.8840 H   0  0  0  0  0  0  0  0  0  0  0  0
  -32.6040  -19.6890   20.2170 C   0  0  0  0  0  0  0  0  0  0  0  0
  -33.9040  -18.8910   20.2970 C   0  0  0  0  0  1  0  0  0  0  0  0
  -32.6830  -20.9060   20.0200 O   0  0  0  0  0  0  0  0  0  0  0  0
  -27.5560  -22.7520   18.3540 C   0  0  0  0  0  1  0  0  0  0  0  0
  -28.6130  -22.9030   19.4650 C   0  0  0  0  0  3  0  0  0  0  0  0
  -28.3620  -24.1970   20.3130 C   0  0  0  0  0  2  0  0  0  0  0  0
  -28.6160  -25.5180   19.5150 C   0  0  0  0  0  2  0  0  0  0  0  0
  -28.4360  -26.7510   20.2420 O   0  0  0  0  0  0  0  0  0  0  0  0
  -24.5660  -31.9220   23.2440 C   0  0  0  0  0  0  0  0  0  0  0  0
  -27.2410  -27.4550   20.1950 C   0  0  0  0  0  0  0  0  0  0  0  0
  -23.3730  -30.5100   21.6020 C   0  0  0  0  0  3  0  0  0  0  0  0
  -24.8360  -28.9680   20.1880 C   0  0  0  0  0  0  0  0  0  0  0  0
  -25.8990  -30.8720   21.4120 C   0  0  0  0  0  2  0  0  0  0  0  0
  -25.9910  -29.4960   20.7780 C   0  0  0  0  0  0  0  0  0  0  0  0
  -27.1910  -28.7460   20.7800 C   0  0  0  0  0  3  0  0  0  0  0  0
  -26.0610  -26.9420   19.6100 C   0  0  0  0  0  3  0  0  0  0  0  0
  -24.8690  -27.6910   19.6020 C   0  0  0  0  0  3  0  0  0  0  0  0
  -23.5860  -29.8190   20.2290 C   0  0  0  0  0  2  0  0  0  0  0  0
  -24.6310  -31.1160   22.1440 N   0  0  0  0  0  0  0  0  0  0  0  0
  -23.4820  -32.1930   23.7780 O   0  0  0  0  0  0  0  0  0  0  0  0
  -22.7200  -29.4930   22.5660 C   0  0  0  0  0  0  0  0  0  0  0  0
  -21.3950  -29.3090   22.4360 N   0  0  0  0  0  0  0  0  0  0  0  0
  -23.4030  -28.8680   23.3810 O   0  0  0  0  0  0  0  0  0  0  0  0
  -20.9070  -29.8630   21.7460 H   0  0  0  0  0  0  0  0  0  0  0  0
  -18.0180  -28.1340   22.9550 C   0  0  0  0  0  0  0  0  0  0  0  0
  -20.5790  -28.3720   23.2070 C   0  0  0  0  0  3  0  0  0  0  0  0
  -20.6670  -26.9440   22.6200 C   0  0  0  0  0  2  0  0  0  0  0  0
  -19.5550  -26.6370   21.6120 C   0  0  0  0  0  2  0  0  0  0  0  0
  -18.1800  -26.7870   22.2670 C   0  0  0  0  0  2  0  0  0  0  0  0
  -19.1450  -28.8850   23.3810 C   0  0  0  0  0  0  0  0  0  0  0  0
  -18.9400  -30.1460   23.9810 C   0  0  0  0  0  3  0  0  0  0  0  0
  -17.6400  -30.6580   24.1570 C   0  0  0  0  0  3  0  0  0  0  0  0
  -16.5280  -29.9020   23.7480 C   0  0  0  0  0  3  0  0  0  0  0  0
  -16.7180  -28.6420   23.1540 C   0  0  0  0  0  3  0  0  0  0  0  0
  -25.8480  -32.5590   23.8660 C   0  0  0  0  0  3  0  0  0  0  0  0
  -26.3600  -31.7980   25.1510 C   0  0  1  0  0  0  0  0  0  0  0  0
  -25.2610  -31.5630   26.2130 C   0  0  0  0  0  1  0  0  0  0  0  0
  -26.9530  -30.4210   24.7720 C   0  0  0  0  0  1  0  0  0  0  0  0
  -27.5050  -32.6010   25.8140 C   0  0  0  0  0  1  0  0  0  0  0  0
  -25.5360  -33.9580   24.1840 N   0  0  0  0  0  0  0  0  0  0  0  0
  -25.8770  -35.0050   23.4210 C   0  0  0  0  0  0  0  0  0  0  0  0
  -26.5610  -34.8950   22.3990 O   0  0  0  0  0  0  0  0  0  0  0  0
  -24.9300  -34.1200   24.9750 H   0  0  0  0  0  0  0  0  0  0  0  0
  -24.1640  -36.8010   23.0200 C   0  0  0  0  0  1  0  0  0  0  0  0
  -25.3840  -36.3960   23.8630 C   0  0  0  0  0  3  0  0  0  0  0  0
  -27.4990  -37.2770   24.7450 C   0  0  0  0  0  1  0  0  0  0  0  0
  -26.4220  -37.4460   23.7720 N   0  0  0  0  0  0  0  0  0  0  0  0
  -26.0150  -38.3670   23.9070 H   0  0  0  0  0  0  0  0  0  0  0  0
  1  3  2  0
  2  1  1  0
  2 14  1  0
  4  2  1  0
  5 17  1  0
  6 11  1  0
  7  8  1  0
  7  6  1  0
  9  8  1  0
  9 23  1  0
  9 10  1  0
 11  5  1  0
 11 10  1  0
 12  5  2  0
 13 16  1  0
 14 13  2  0
 14 18  1  0
 15 17  1  0
 16 15  2  0
 17 19  1  0
 18 15  1  0
 20 21  2  0
 21 40  1  0
 22 21  1  0
 22 25  1  0
 23 24  1  0
 23 20  1  0
 24 22  2  0
 25 26  1  0
 26 27  2  0
 28 31  1  0
 28 27  1  0
 29 28  2  0
 30 29  1  0
 30 25  2  0
 31 32  1  0
 32 33  1  0
 33 34  2  0
 35 34  1  0
 35 39  1  0
 36 35  2  0
 37 32  2  0
 37 36  1  0
 38 37  1  0
 40 41  1  0
 41 44  1  0
 41 43  1  0
 42 40  2  0
 45 46  1  0
 45 20  1  0
 47 45  1  0
 48 49  1  0
 48 13  1  0
 50 48  2  0
 52 51  1  0
 52  1  1  0
 52 53  1  0
 54 55  1  0
 54 53  1  0
 56 67  2  0
 57 55  1  0
 57 62  1  0
 58 66  1  0
 58 68  1  0
 59 65  1  0
 59 61  1  0
 60 66  1  0
 61 62  2  0
 61 60  1  0
 63 57  2  0
 64 63  1  0
 64 59  2  0
 65 58  1  0
 66 56  1  0
 68 70  2  0
 69 68  1  0
 71 69  1  0
 72 81  2  0
 72 77  1  0
 73 69  1  0
 73 77  1  0
 74 73  1  0
 75 76  1  0
 75 74  1  0
 76 72  1  0
 77 78  2  0
 78 79  1  0
 80 79  2  0
 81 80  1  0
 82 56  1  0
 82 87  1  0
 82 83  1  0
 83 86  1  1
 83 84  1  0
 85 83  1  0
 87 90  1  0
 88 92  1  0
 88 87  1  0
 89 88  2  0
 92 91  1  0
 94 92  1  0
 94 95  1  0
 94 93  1  0
M  ISO  4   5 100  17 100  54 101  55 101
M  END
>  <TORSDO>  (99) 
F 20

>  <SCORE>  (99) 
-14.013

>  <name>  (99) 
98

>  <ligand_id>  (99) 
98

>  <original_smiles>  (99) 
[H]c1c([H])c([H])c2c(c1[H])C([H])([H])C([H])([H])C([H])([H])C2([H])N([H])C(=O)C1([H])N(C(=O)C([H])(N([H])C(=O)C([H])(N([H])C([H])([H])[H])C([H])([H])[H])C(C([H])([H])[H])(C([H])([H])[H])C([H])([H])[H])C([H])([H])c2c([H])c(OC([H])([H])C([H])([H])C([H])(C(=O)N([H])c3sc(N([H])C(=O)N4C([H])([H])C([H])([H])C([H])([H])C([H])(n5nc(-c6c([H])c([H])c(Oc7c([H])c([H])c(F)c([H])c7F)c([H])c6[H])c(C(=O)N([H])[H])c5N([H])[H])C4([H])[H])nc3C(=O)C([H])([H])[H])C([H])([H])[H])c([H])c([H])c2C1([H])[H]

>  <smiles>  (99) 
[H]c1c([H])c([H])c2c(c1[H])C([H])([H])C([H])([H])C([H])([H])C2([H])N([H])C(=O)C1([H])N(C(=O)C([H])(N([H])C(=O)C([H])(N([H])C([H])([H])[H])C([H])([H])[H])C(C([H])([H])[H])(C([H])([H])[H])C([H])([H])[H])C([H])([H])c2c([H])c(OC([H])([H])C([H])([H])C([H])(C(=O)N([H])c3sc(N([H])C(=O)N4C([H])([H])C([H])([H])C([H])([H])C([H])(n5nc(-c6c([H])c([H])c(Oc7c([H])c([H])c(F)c([H])c7F)c([H])c6[H])c(C(=O)N([H])[H])c5N([H])[H])C4([H])[H])nc3C(=O)C([H])([H])[H])C([H])([H])[H])c([H])c([H])c2C1([H])[H]

$$$$
