0:0:0
     RDKit          3D

 93101  0  0  1  0  0  0  0  0999 V2000
  -29.3930  -21.2940   19.3540 C   0  0  0  0  0  3  0  0  0  0  0  0
  -30.5740  -14.6270   20.2970 C   0  0  0  0  0  0  0  0  0  0  0  0
  -30.3470  -12.4080   19.2030 C   0  0  0  0  0  2  0  0  0  0  0  0
  -29.3910  -12.5740   18.0000 C   0  0  0  0  0  2  0  0  0  0  0  0
  -27.9200  -12.4210   18.4390 C   0  0  0  0  0  2  0  0  0  0  0  0
  -27.5830  -13.2590   19.7020 C   0  0  0  0  0  3  0  0  0  0  0  0
  -28.6510  -13.0630   20.8020 C   0  0  0  0  0  2  0  0  0  0  0  0
  -29.9590  -13.4050   20.2200 N   0  0  0  0  0  0  0  0  0  0  0  0
  -31.7290  -14.7870   19.8850 O   0  0  0  0  0  0  0  0  0  0  0  0
  -30.8010  -19.1440   19.8590 C   0  0  0  0  0  3  0  0  0  0  0  0
  -28.6060  -17.8240   20.6300 C   0  0  0  0  0  3  0  0  0  0  0  0
  -29.5670  -19.8510   19.9660 C   0  0  0  0  0  0  0  0  0  0  0  0
  -29.8250  -17.0950   20.4690 C   0  0  0  0  0  0  0  0  0  0  0  0
  -28.4660  -19.1630   20.3760 N   0  0  0  0  0  0  0  0  0  0  0  0
  -30.9300  -17.8010   20.0990 N   0  0  0  0  0  0  0  0  0  0  0  0
  -29.7730  -15.6580   20.7030 N   0  0  0  0  0  0  0  0  0  0  0  0
  -28.8880  -15.3350   21.0590 H   0  0  0  0  0  0  0  0  0  0  0  0
  -25.1990  -13.8680   20.4450 C   0  0  0  0  0  0  0  0  0  0  0  0
  -24.1340  -13.0980   20.8250 C   0  0  0  0  0  0  0  0  0  0  0  0
  -24.5900  -11.7450   20.7870 C   0  0  0  0  0  0  0  0  0  0  0  0
  -26.2380  -12.9840   20.1960 N   0  0  0  0  0  0  0  0  0  0  0  0
  -25.8770  -11.7010   20.4620 N   0  0  0  0  0  0  0  0  0  0  0  0
  -23.8610  -10.4850   20.9840 C   0  0  0  0  0  0  0  0  0  0  0  0
  -24.2880   -9.5270   21.9280 C   0  0  0  0  0  3  0  0  0  0  0  0
  -23.5620   -8.3300   22.1120 C   0  0  0  0  0  3  0  0  0  0  0  0
  -22.3950   -8.0850   21.3490 C   0  0  0  0  0  0  0  0  0  0  0  0
  -21.9870   -9.0330   20.3950 C   0  0  0  0  0  3  0  0  0  0  0  0
  -22.7140  -10.2210   20.2110 C   0  0  0  0  0  3  0  0  0  0  0  0
  -21.6410   -6.9400   21.4420 O   0  0  0  0  0  0  0  0  0  0  0  0
  -21.5710   -6.2160   22.6040 C   0  0  0  0  0  0  0  0  0  0  0  0
  -21.0940   -6.7810   23.8080 C   0  0  0  0  0  3  0  0  0  0  0  0
  -20.9730   -5.9820   24.9610 C   0  0  0  0  0  3  0  0  0  0  0  0
  -21.3180   -4.6180   24.9130 C   0  0  0  0  0  0  0  0  0  0  0  0
  -21.7880   -4.0520   23.7150 C   0  0  0  0  0  3  0  0  0  0  0  0
  -21.9110   -4.8480   22.5640 C   0  0  0  0  0  0  0  0  0  0  0  0
  -22.3440   -4.2930   21.4060 F   0  0  0  0  0  0  0  0  0  0  0  0
  -21.1950   -3.8480   26.0200 F   0  0  0  0  0  0  0  0  0  0  0  0
  -22.7410  -13.5800   21.1120 C   0  0  0  0  0  0  0  0  0  0  0  0
  -22.0170  -12.8810   21.9790 N   0  0  0  0  0  0  0  0  0  0  0  0
  -22.3030  -14.6100   20.6010 O   0  0  0  0  0  0  0  0  0  0  0  0
  -22.3850  -12.0500   22.4160 H   0  0  0  0  0  0  0  0  0  0  0  0
  -21.0820  -13.1850   22.2100 H   0  0  0  0  0  0  0  0  0  0  0  0
  -25.3640  -15.2380   20.2670 N   0  0  0  0  0  0  0  0  0  0  0  0
  -24.5830  -15.8790   20.3640 H   0  0  0  0  0  0  0  0  0  0  0  0
  -26.1750  -15.6680   19.8410 H   0  0  0  0  0  0  0  0  0  0  0  0
  -29.2030  -20.0570   17.0400 C   0  0  0  0  0  1  0  0  0  0  0  0
  -28.7230  -21.1970   17.9570 C   0  0  0  0  0  2  0  0  0  0  0  0
  -28.7570  -22.4630   20.2460 C   0  0  0  0  0  2  0  0  0  0  0  0
  -28.7220  -23.9690   19.6840 C   0  0  0  0  0  3  0  0  0  0  0  0
  -27.7990  -24.0240   18.6120 O   0  0  0  0  0  0  0  0  0  0  0  0
  -27.8710  -24.8920   18.2240 H   0  0  0  0  0  0  0  0  0  0  0  0
  -28.2460  -25.1240   20.6680 C   0  0  0  0  0  2  0  0  0  0  0  0
  -28.4170  -26.5340   20.2550 O   0  0  0  0  0  0  0  0  0  0  0  0
  -24.5980  -31.8770   23.2390 C   0  0  0  0  0  0  0  0  0  0  0  0
  -27.2830  -27.3530   20.2300 C   0  0  0  0  0  0  0  0  0  0  0  0
  -23.4240  -30.4710   21.5820 C   0  0  0  0  0  3  0  0  0  0  0  0
  -24.9040  -28.9260   20.1820 C   0  0  0  0  0  0  0  0  0  0  0  0
  -25.9610  -30.8130   21.4320 C   0  0  0  0  0  2  0  0  0  0  0  0
  -26.0600  -29.4350   20.7890 C   0  0  0  0  0  0  0  0  0  0  0  0
  -27.2560  -28.6610   20.7970 C   0  0  0  0  0  3  0  0  0  0  0  0
  -26.1060  -26.8860   19.6090 C   0  0  0  0  0  3  0  0  0  0  0  0
  -24.9270  -27.6570   19.5840 C   0  0  0  0  0  3  0  0  0  0  0  0
  -23.6600  -29.7900   20.2070 C   0  0  0  0  0  2  0  0  0  0  0  0
  -24.6780  -31.0700   22.1410 N   0  0  0  0  0  0  0  0  0  0  0  0
  -23.5060  -32.1490   23.7590 O   0  0  0  0  0  0  0  0  0  0  0  0
  -22.7540  -29.4510   22.5340 C   0  0  0  0  0  0  0  0  0  0  0  0
  -21.4300  -29.2730   22.3930 N   0  0  0  0  0  0  0  0  0  0  0  0
  -23.4260  -28.8240   23.3580 O   0  0  0  0  0  0  0  0  0  0  0  0
  -20.9490  -29.8290   21.6990 H   0  0  0  0  0  0  0  0  0  0  0  0
  -18.0440  -28.0950   22.8720 C   0  0  0  0  0  0  0  0  0  0  0  0
  -20.6040  -28.3350   23.1540 C   0  0  0  0  0  3  0  0  0  0  0  0
  -20.6970  -26.9080   22.5670 C   0  0  0  0  0  2  0  0  0  0  0  0
  -19.5970  -26.6000   21.5470 C   0  0  0  0  0  2  0  0  0  0  0  0
  -18.2140  -26.7500   22.1870 C   0  0  0  0  0  2  0  0  0  0  0  0
  -19.1670  -28.8460   23.3120 C   0  0  0  0  0  0  0  0  0  0  0  0
  -18.9540  -30.1070   23.9120 C   0  0  0  0  0  3  0  0  0  0  0  0
  -17.6520  -30.6160   24.0760 C   0  0  0  0  0  3  0  0  0  0  0  0
  -16.5440  -29.8610   23.6530 C   0  0  0  0  0  3  0  0  0  0  0  0
  -16.7410  -28.6030   23.0560 C   0  0  0  0  0  3  0  0  0  0  0  0
  -25.8690  -32.5150   23.8770 C   0  0  0  0  0  3  0  0  0  0  0  0
  -25.5520  -33.9150   24.1920 N   0  0  0  0  0  0  0  0  0  0  0  0
  -25.8910  -34.9630   23.4290 C   0  0  0  0  0  0  0  0  0  0  0  0
  -26.5750  -34.8530   22.4070 O   0  0  0  0  0  0  0  0  0  0  0  0
  -24.9450  -34.0730   24.9840 H   0  0  0  0  0  0  0  0  0  0  0  0
  -24.1710  -36.7540   23.0320 C   0  0  0  0  0  1  0  0  0  0  0  0
  -25.3950  -36.3540   23.8690 C   0  0  0  0  0  3  0  0  0  0  0  0
  -27.5090  -37.2490   24.7400 C   0  0  0  0  0  1  0  0  0  0  0  0
  -26.4290  -37.4070   23.7700 N   0  0  0  0  0  0  0  0  0  0  0  0
  -26.0180  -38.3280   23.9000 H   0  0  0  0  0  0  0  0  0  0  0  0
  -26.3640  -31.7540   25.1690 C   0  0  1  0  0  0  0  0  0  0  0  0
  -25.2510  -31.5220   26.2180 C   0  0  0  0  0  1  0  0  0  0  0  0
  -26.9570  -30.3750   24.7990 C   0  0  0  0  0  1  0  0  0  0  0  0
  -27.4990  -32.5560   25.8470 C   0  0  0  0  0  1  0  0  0  0  0  0
  1 47  1  0
  1 12  1  0
  1 48  1  0
  2 16  1  0
  3  8  1  0
  4  5  1  0
  4  3  1  0
  6  5  1  0
  6 21  1  0
  6  7  1  0
  8  2  1  0
  8  7  1  0
  9  2  2  0
 10 12  2  0
 10 15  1  0
 12 14  1  0
 13 11  1  0
 13 16  1  0
 14 11  2  0
 15 13  2  0
 16 17  1  0
 18 19  2  0
 19 38  1  0
 20 19  1  0
 20 23  1  0
 21 18  1  0
 21 22  1  0
 22 20  2  0
 23 24  1  0
 24 25  2  0
 26 29  1  0
 26 25  1  0
 27 26  2  0
 28 27  1  0
 28 23  2  0
 29 30  1  0
 30 31  1  0
 31 32  2  0
 33 32  1  0
 33 37  1  0
 34 33  2  0
 35 30  2  0
 35 34  1  0
 36 35  1  0
 38 39  1  0
 39 42  1  0
 39 41  1  0
 40 38  2  0
 43 44  1  0
 43 18  1  0
 45 43  1  0
 46 47  1  0
 49 48  1  0
 49 52  1  0
 50 49  1  0
 51 50  1  0
 53 52  1  0
 54 65  2  0
 55 53  1  0
 55 60  1  0
 56 64  1  0
 56 66  1  0
 57 63  1  0
 57 59  1  0
 58 64  1  0
 59 60  2  0
 59 58  1  0
 61 55  2  0
 62 61  1  0
 62 57  2  0
 63 56  1  0
 64 54  1  0
 66 68  2  0
 67 66  1  0
 69 67  1  0
 70 79  2  0
 70 75  1  0
 71 67  1  0
 71 75  1  0
 72 71  1  0
 73 74  1  0
 73 72  1  0
 74 70  1  0
 75 76  2  0
 76 77  1  0
 78 77  2  0
 79 78  1  0
 80 54  1  0
 80 81  1  0
 80 90  1  0
 81 84  1  0
 82 86  1  0
 82 81  1  0
 83 82  2  0
 86 85  1  0
 88 86  1  0
 88 89  1  0
 88 87  1  0
 90 93  1  1
 90 91  1  0
 92 90  1  0
M  ISO  4   2 100  16 100  52 101  53 101
M  END
>  <TORSDO>  (1) 
F 21

>  <SCORE>  (1) 
-13.855

>  <name>  (1) 
0

>  <ligand_id>  (1) 
0

>  <original_smiles>  (1) 
[H]OC([H])(C([H])([H])Oc1c([H])c([H])c2c(c1[H])C([H])([H])N(C(=O)C([H])(N([H])C(=O)C([H])(N([H])C([H])([H])[H])C([H])([H])[H])C(C([H])([H])[H])(C([H])([H])[H])C([H])([H])[H])C([H])(C(=O)N([H])C1([H])c3c([H])c([H])c([H])c([H])c3C([H])([H])C([H])([H])C1([H])[H])C2([H])[H])C([H])([H])C([H])(c1nc([H])c(N([H])C(=O)N2C([H])([H])C([H])([H])C([H])([H])C([H])(n3nc(-c4c([H])c([H])c(Oc5c([H])c([H])c(F)c([H])c5F)c([H])c4[H])c(C(=O)N([H])[H])c3N([H])[H])C2([H])[H])nc1[H])C([H])([H])C([H])([H])[H]

>  <smiles>  (1) 
[H]OC([H])(C([H])([H])Oc1c([H])c([H])c2c(c1[H])C([H])([H])N(C(=O)C([H])(N([H])C(=O)C([H])(N([H])C([H])([H])[H])C([H])([H])[H])C(C([H])([H])[H])(C([H])([H])[H])C([H])([H])[H])C([H])(C(=O)N([H])C1([H])c3c([H])c([H])c([H])c([H])c3C([H])([H])C([H])([H])C1([H])[H])C2([H])[H])C([H])([H])C([H])(c1nc([H])c(N([H])C(=O)N2C([H])([H])C([H])([H])C([H])([H])C([H])(n3nc(-c4c([H])c([H])c(Oc5c([H])c([H])c(F)c([H])c5F)c([H])c4[H])c(C(=O)N([H])[H])c3N([H])[H])C2([H])[H])nc1[H])C([H])([H])C([H])([H])[H]

$$$$
1:0:0
     RDKit          3D

 90 98  0  0  1  0  0  0  0  0999 V2000
  -30.1530  -22.5420   21.8320 C   0  0  0  0  0  1  0  0  0  0  0  0
  -28.9590  -22.3280   20.8880 C   0  0  0  0  0  3  0  0  0  0  0  0
  -29.0100  -20.9680   20.1870 N   0  0  0  0  0  0  0  0  0  0  0  0
  -28.1200  -20.7630   19.7370 H   0  0  0  0  0  0  0  0  0  0  0  0
  -30.5410  -14.7750   20.3670 C   0  0  0  0  0  0  0  0  0  0  0  0
  -30.3300  -12.4910   19.3630 C   0  0  0  0  0  2  0  0  0  0  0  0
  -29.3830  -12.5690   18.1470 C   0  0  0  0  0  2  0  0  0  0  0  0
  -27.9160  -12.3950   18.5860 C   0  0  0  0  0  2  0  0  0  0  0  0
  -27.5520  -13.2860   19.8070 C   0  0  0  0  0  3  0  0  0  0  0  0
  -28.6220  -13.2000   20.9170 C   0  0  0  0  0  2  0  0  0  0  0  0
  -29.9110  -13.5500   20.3090 N   0  0  0  0  0  0  0  0  0  0  0  0
  -31.7330  -14.8600   20.0600 O   0  0  0  0  0  0  0  0  0  0  0  0
  -31.0510  -19.6270   20.8820 C   0  0  0  0  0  3  0  0  0  0  0  0
  -29.7340  -19.7230   20.4920 C   0  0  0  0  0  0  0  0  0  0  0  0
  -30.0780  -17.3410   20.5720 C   0  0  0  0  0  0  0  0  0  0  0  0
  -29.2060  -18.3840   20.3310 N   0  0  0  0  0  0  0  0  0  0  0  0
  -29.7400  -15.9010   20.5080 N   0  0  0  0  0  0  0  0  0  0  0  0
  -31.6510  -17.9750   21.0350 S   0  0  0  0  0  0  0  0  0  0  0  0
  -28.7560  -15.7010   20.5590 H   0  0  0  0  0  0  0  0  0  0  0  0
  -25.1740  -13.8800   20.5660 C   0  0  0  0  0  0  0  0  0  0  0  0
  -24.1150  -13.1070   20.9490 C   0  0  0  0  0  0  0  0  0  0  0  0
  -24.5750  -11.7550   20.9100 C   0  0  0  0  0  0  0  0  0  0  0  0
  -26.2140  -12.9990   20.3140 N   0  0  0  0  0  0  0  0  0  0  0  0
  -25.8620  -11.7170   20.5860 N   0  0  0  0  0  0  0  0  0  0  0  0
  -23.8490  -10.4940   21.1050 C   0  0  0  0  0  0  0  0  0  0  0  0
  -24.3080   -9.5080   22.0070 C   0  0  0  0  0  3  0  0  0  0  0  0
  -23.5800   -8.3130   22.1910 C   0  0  0  0  0  3  0  0  0  0  0  0
  -22.3810   -8.0930   21.4720 C   0  0  0  0  0  0  0  0  0  0  0  0
  -21.9420   -9.0670   20.5580 C   0  0  0  0  0  3  0  0  0  0  0  0
  -22.6700  -10.2540   20.3720 C   0  0  0  0  0  3  0  0  0  0  0  0
  -21.6220   -6.9510   21.5670 O   0  0  0  0  0  0  0  0  0  0  0  0
  -21.6290   -6.1750   22.6970 C   0  0  0  0  0  0  0  0  0  0  0  0
  -21.2950   -6.6990   23.9650 C   0  0  0  0  0  3  0  0  0  0  0  0
  -21.2480   -5.8500   25.0880 C   0  0  0  0  0  3  0  0  0  0  0  0
  -21.5230   -4.4780   24.9460 C   0  0  0  0  0  0  0  0  0  0  0  0
  -21.8520   -3.9520   23.6840 C   0  0  0  0  0  3  0  0  0  0  0  0
  -21.9010   -4.7980   22.5630 C   0  0  0  0  0  0  0  0  0  0  0  0
  -22.1960   -4.2820   21.3440 F   0  0  0  0  0  0  0  0  0  0  0  0
  -21.4720   -3.6600   26.0230 F   0  0  0  0  0  0  0  0  0  0  0  0
  -22.7200  -13.5840   21.2370 C   0  0  0  0  0  0  0  0  0  0  0  0
  -22.0030  -12.8900   22.1130 N   0  0  0  0  0  0  0  0  0  0  0  0
  -22.2780  -14.6090   20.7220 O   0  0  0  0  0  0  0  0  0  0  0  0
  -22.3720  -12.0590   22.5520 H   0  0  0  0  0  0  0  0  0  0  0  0
  -21.0670  -13.1910   22.3470 H   0  0  0  0  0  0  0  0  0  0  0  0
  -25.3360  -15.2520   20.3880 N   0  0  0  0  0  0  0  0  0  0  0  0
  -24.5620  -15.8990   20.5040 H   0  0  0  0  0  0  0  0  0  0  0  0
  -26.1640  -15.6970   20.0180 H   0  0  0  0  0  0  0  0  0  0  0  0
  -28.7290  -23.6900   20.0140 C   0  0  0  0  0  2  0  0  0  0  0  0
  -28.1690  -25.0420   20.7340 C   0  0  0  0  0  2  0  0  0  0  0  0
  -28.3230  -26.4350   20.1870 O   0  0  0  0  0  0  0  0  0  0  0  0
  -24.6250  -31.9100   23.2450 C   0  0  0  0  0  0  0  0  0  0  0  0
  -27.2150  -27.3090   20.2000 C   0  0  0  0  0  0  0  0  0  0  0  0
  -23.4130  -30.5060   21.6160 C   0  0  0  0  0  3  0  0  0  0  0  0
  -24.8550  -28.9420   20.1900 C   0  0  0  0  0  0  0  0  0  0  0  0
  -25.9550  -30.8130   21.4220 C   0  0  0  0  0  2  0  0  0  0  0  0
  -26.0300  -29.4290   20.7790 C   0  0  0  0  0  0  0  0  0  0  0  0
  -27.2160  -28.6280   20.7660 C   0  0  0  0  0  3  0  0  0  0  0  0
  -26.0200  -26.8820   19.5870 C   0  0  0  0  0  3  0  0  0  0  0  0
  -24.8550  -27.6760   19.5800 C   0  0  0  0  0  3  0  0  0  0  0  0
  -23.6210  -29.8210   20.2380 C   0  0  0  0  0  2  0  0  0  0  0  0
  -24.6830  -31.0960   22.1500 N   0  0  0  0  0  0  0  0  0  0  0  0
  -23.5440  -32.1910   23.7840 O   0  0  0  0  0  0  0  0  0  0  0  0
  -22.7510  -29.4970   22.5850 C   0  0  0  0  0  0  0  0  0  0  0  0
  -21.4240  -29.3200   22.4650 N   0  0  0  0  0  0  0  0  0  0  0  0
  -23.4310  -28.8760   23.4050 O   0  0  0  0  0  0  0  0  0  0  0  0
  -20.9330  -29.8730   21.7750 H   0  0  0  0  0  0  0  0  0  0  0  0
  -18.0510  -28.1110   22.9720 C   0  0  0  0  0  0  0  0  0  0  0  0
  -20.6090  -28.3870   23.2430 C   0  0  0  0  0  3  0  0  0  0  0  0
  -20.7190  -26.9510   22.6810 C   0  0  0  0  0  2  0  0  0  0  0  0
  -19.6200  -26.6120   21.6680 C   0  0  0  0  0  2  0  0  0  0  0  0
  -18.2370  -26.7560   22.3080 C   0  0  0  0  0  2  0  0  0  0  0  0
  -19.1660  -28.8820   23.3970 C   0  0  0  0  0  0  0  0  0  0  0  0
  -18.9400  -30.1490   23.9790 C   0  0  0  0  0  3  0  0  0  0  0  0
  -17.6320  -30.6440   24.1390 C   0  0  0  0  0  3  0  0  0  0  0  0
  -16.5320  -29.8690   23.7310 C   0  0  0  0  0  3  0  0  0  0  0  0
  -16.7430  -28.6050   23.1540 C   0  0  0  0  0  3  0  0  0  0  0  0
  -25.9110  -32.5450   23.8600 C   0  0  0  0  0  3  0  0  0  0  0  0
  -26.4360  -31.7730   25.1340 C   0  0  1  0  0  0  0  0  0  0  0  0
  -25.3500  -31.5390   26.2090 C   0  0  0  0  0  1  0  0  0  0  0  0
  -27.0150  -30.3940   24.7420 C   0  0  0  0  0  1  0  0  0  0  0  0
  -27.5920  -32.5660   25.7870 C   0  0  0  0  0  1  0  0  0  0  0  0
  -25.6020  -33.9420   24.1950 N   0  0  0  0  0  0  0  0  0  0  0  0
  -25.9230  -34.9980   23.4350 C   0  0  0  0  0  0  0  0  0  0  0  0
  -26.5810  -34.8980   22.3960 O   0  0  0  0  0  0  0  0  0  0  0  0
  -25.0160  -34.0930   25.0030 H   0  0  0  0  0  0  0  0  0  0  0  0
  -24.1840  -36.7880   23.1110 C   0  0  0  0  0  1  0  0  0  0  0  0
  -25.4390  -36.3850   23.9020 C   0  0  0  0  0  3  0  0  0  0  0  0
  -27.5850  -37.2750   24.6950 C   0  0  0  0  0  1  0  0  0  0  0  0
  -26.4670  -37.4410   23.7720 N   0  0  0  0  0  0  0  0  0  0  0  0
  -26.0600  -38.3590   23.9280 H   0  0  0  0  0  0  0  0  0  0  0  0
  2  1  1  0
  3 14  1  0
  3  2  1  0
  4  3  1  0
  5 17  1  0
  6 11  1  0
  7  8  1  0
  7  6  1  0
  9  8  1  0
  9 23  1  0
  9 10  1  0
 11  5  1  0
 11 10  1  0
 12  5  2  0
 13 18  1  0
 14 13  2  0
 15 18  1  0
 16 14  1  0
 16 15  2  0
 17 19  1  0
 17 15  1  0
 20 21  2  0
 21 40  1  0
 22 21  1  0
 22 25  1  0
 23 20  1  0
 23 24  1  0
 24 22  2  0
 25 26  1  0
 26 27  2  0
 28 31  1  0
 28 27  1  0
 29 28  2  0
 30 29  1  0
 30 25  2  0
 31 32  1  0
 32 33  1  0
 33 34  2  0
 35 34  1  0
 35 39  1  0
 36 35  2  0
 37 32  2  0
 37 36  1  0
 38 37  1  0
 40 41  1  0
 41 44  1  0
 41 43  1  0
 42 40  2  0
 45 46  1  0
 45 20  1  0
 47 45  1  0
 48 49  1  0
 48  2  1  0
 50 52  1  0
 50 49  1  0
 51 62  2  0
 52 57  1  0
 53 61  1  0
 53 63  1  0
 54 60  1  0
 54 56  1  0
 55 61  1  0
 56 55  1  0
 57 56  2  0
 58 52  2  0
 59 58  1  0
 59 54  2  0
 60 53  1  0
 61 51  1  0
 63 65  2  0
 64 63  1  0
 66 64  1  0
 67 76  2  0
 67 72  1  0
 68 64  1  0
 68 72  1  0
 69 68  1  0
 70 71  1  0
 70 69  1  0
 71 67  1  0
 72 73  2  0
 73 74  1  0
 75 74  2  0
 76 75  1  0
 77 51  1  0
 77 82  1  0
 77 78  1  0
 78 81  1  1
 78 79  1  0
 80 78  1  0
 82 85  1  0
 83 87  1  0
 83 82  1  0
 84 83  2  0
 87 86  1  0
 89 87  1  0
 89 90  1  0
 89 88  1  0
M  ISO  4   5 100  17 100  49 101  50 101
M  END
>  <TORSDO>  (2) 
F 19

>  <SCORE>  (2) 
-14.283

>  <name>  (2) 
1

>  <ligand_id>  (2) 
1

>  <original_smiles>  (2) 
[H]c1sc(N([H])C(=O)N2C([H])([H])C([H])([H])C([H])([H])C([H])(n3nc(-c4c([H])c([H])c(Oc5c([H])c([H])c(F)c([H])c5F)c([H])c4[H])c(C(=O)N([H])[H])c3N([H])[H])C2([H])[H])nc1N([H])C([H])(C([H])([H])[H])C([H])([H])C([H])([H])Oc1c([H])c([H])c2c(c1[H])C([H])([H])N(C(=O)C([H])(N([H])C(=O)C([H])(N([H])C([H])([H])[H])C([H])([H])[H])C(C([H])([H])[H])(C([H])([H])[H])C([H])([H])[H])C([H])(C(=O)N([H])C1([H])c3c([H])c([H])c([H])c([H])c3C([H])([H])C([H])([H])C1([H])[H])C2([H])[H]

>  <smiles>  (2) 
[H]c1sc(N([H])C(=O)N2C([H])([H])C([H])([H])C([H])([H])C([H])(n3nc(-c4c([H])c([H])c(Oc5c([H])c([H])c(F)c([H])c5F)c([H])c4[H])c(C(=O)N([H])[H])c3N([H])[H])C2([H])[H])nc1N([H])C([H])(C([H])([H])[H])C([H])([H])C([H])([H])Oc1c([H])c([H])c2c(c1[H])C([H])([H])N(C(=O)C([H])(N([H])C(=O)C([H])(N([H])C([H])([H])[H])C([H])([H])[H])C(C([H])([H])[H])(C([H])([H])[H])C([H])([H])[H])C([H])(C(=O)N([H])C1([H])c3c([H])c([H])c([H])c([H])c3C([H])([H])C([H])([H])C1([H])[H])C2([H])[H]

$$$$
2:0:0
     RDKit          3D

 90 98  0  0  1  0  0  0  0  0999 V2000
  -28.7840  -22.3320   19.2860 C   0  0  0  0  0  2  0  0  0  0  0  0
  -30.0790  -19.9770   19.4110 C   0  0  0  0  0  3  0  0  0  0  0  0
  -28.3410  -20.1760   20.6460 C   0  0  0  0  0  3  0  0  0  0  0  0
  -29.8330  -18.7130   19.9830 C   0  0  0  0  0  0  0  0  0  0  0  0
  -28.7120  -18.8890   20.7960 N   0  0  0  0  0  0  0  0  0  0  0  0
  -29.0930  -20.9260   19.8150 N   0  0  0  0  0  0  0  0  0  0  0  0
  -30.6310  -17.3520   19.8500 C   0  0  0  0  0  2  0  0  0  0  0  0
  -30.7310  -14.7870   19.9950 C   0  0  0  0  0  0  0  0  0  0  0  0
  -30.4020  -12.5350   18.9850 C   0  0  0  0  0  2  0  0  0  0  0  0
  -29.4090  -12.6540   17.8120 C   0  0  0  0  0  2  0  0  0  0  0  0
  -27.9610  -12.4970   18.3120 C   0  0  0  0  0  2  0  0  0  0  0  0
  -27.6610  -13.3470   19.5760 C   0  0  0  0  0  3  0  0  0  0  0  0
  -28.7850  -13.2470   20.6320 C   0  0  0  0  0  2  0  0  0  0  0  0
  -30.0480  -13.5890   19.9680 N   0  0  0  0  0  0  0  0  0  0  0  0
  -31.8970  -14.8220   19.6020 O   0  0  0  0  0  0  0  0  0  0  0  0
  -30.0660  -15.9820   20.2180 N   0  0  0  0  0  0  0  0  0  0  0  0
  -29.1220  -15.9610   20.5690 H   0  0  0  0  0  0  0  0  0  0  0  0
  -25.3180  -13.9090   20.4560 C   0  0  0  0  0  0  0  0  0  0  0  0
  -24.2730  -13.1250   20.8590 C   0  0  0  0  0  0  0  0  0  0  0  0
  -24.7280  -11.7750   20.7570 C   0  0  0  0  0  0  0  0  0  0  0  0
  -26.3480  -13.0390   20.1380 N   0  0  0  0  0  0  0  0  0  0  0  0
  -26.0010  -11.7460   20.3770 N   0  0  0  0  0  0  0  0  0  0  0  0
  -24.0040  -10.5120   20.9470 C   0  0  0  0  0  0  0  0  0  0  0  0
  -24.4350   -9.5450   21.8830 C   0  0  0  0  0  3  0  0  0  0  0  0
  -23.7110   -8.3470   22.0590 C   0  0  0  0  0  3  0  0  0  0  0  0
  -22.5410   -8.1040   21.3000 C   0  0  0  0  0  0  0  0  0  0  0  0
  -22.1320   -9.0580   20.3510 C   0  0  0  0  0  3  0  0  0  0  0  0
  -22.8560  -10.2480   20.1710 C   0  0  0  0  0  3  0  0  0  0  0  0
  -21.7880   -6.9570   21.3880 O   0  0  0  0  0  0  0  0  0  0  0  0
  -21.6800   -6.2530   22.5620 C   0  0  0  0  0  0  0  0  0  0  0  0
  -21.1290   -6.8280   23.7270 C   0  0  0  0  0  3  0  0  0  0  0  0
  -20.9730   -6.0480   24.8910 C   0  0  0  0  0  3  0  0  0  0  0  0
  -21.3590   -4.6940   24.8890 C   0  0  0  0  0  0  0  0  0  0  0  0
  -21.9000   -4.1180   23.7260 C   0  0  0  0  0  3  0  0  0  0  0  0
  -22.0600   -4.8950   22.5660 C   0  0  0  0  0  0  0  0  0  0  0  0
  -22.5640   -4.3290   21.4420 F   0  0  0  0  0  0  0  0  0  0  0  0
  -21.2020   -3.9430   26.0030 F   0  0  0  0  0  0  0  0  0  0  0  0
  -22.8940  -13.5970   21.2210 C   0  0  0  0  0  0  0  0  0  0  0  0
  -22.2060  -12.8750   22.0980 N   0  0  0  0  0  0  0  0  0  0  0  0
  -22.4370  -14.6430   20.7610 O   0  0  0  0  0  0  0  0  0  0  0  0
  -22.5880  -12.0280   22.4950 H   0  0  0  0  0  0  0  0  0  0  0  0
  -21.2810  -13.1720   22.3780 H   0  0  0  0  0  0  0  0  0  0  0  0
  -25.4720  -15.2850   20.3080 N   0  0  0  0  0  0  0  0  0  0  0  0
  -24.7060  -15.9280   20.4820 H   0  0  0  0  0  0  0  0  0  0  0  0
  -26.2880  -15.7440   19.9240 H   0  0  0  0  0  0  0  0  0  0  0  0
  -28.9980  -23.7150   20.1110 C   0  0  0  0  0  3  0  0  0  0  0  0
  -30.4030  -23.8790   20.2070 O   0  0  0  0  0  0  0  0  0  0  0  0
  -30.7330  -23.9970   19.3200 H   0  0  0  0  0  0  0  0  0  0  0  0
  -28.3850  -25.0730   19.4520 C   0  0  0  0  0  2  0  0  0  0  0  0
  -28.3430  -26.4110   20.1570 O   0  0  0  0  0  0  0  0  0  0  0  0
  -24.6270  -31.8880   23.2100 C   0  0  0  0  0  0  0  0  0  0  0  0
  -27.2250  -27.2890   20.1040 C   0  0  0  0  0  0  0  0  0  0  0  0
  -23.4220  -30.4930   21.5710 C   0  0  0  0  0  3  0  0  0  0  0  0
  -24.8660  -28.9520   20.1280 C   0  0  0  0  0  0  0  0  0  0  0  0
  -25.9680  -30.7940   21.3900 C   0  0  0  0  0  2  0  0  0  0  0  0
  -26.0410  -29.4140   20.7330 C   0  0  0  0  0  0  0  0  0  0  0  0
  -27.2160  -28.5910   20.7190 C   0  0  0  0  0  3  0  0  0  0  0  0
  -26.0210  -26.9090   19.4600 C   0  0  0  0  0  3  0  0  0  0  0  0
  -24.8640  -27.7070   19.4850 C   0  0  0  0  0  3  0  0  0  0  0  0
  -23.6320  -29.8310   20.1860 C   0  0  0  0  0  2  0  0  0  0  0  0
  -24.6920  -31.0770   22.1120 N   0  0  0  0  0  0  0  0  0  0  0  0
  -23.5410  -32.1610   23.7430 O   0  0  0  0  0  0  0  0  0  0  0  0
  -22.7650  -29.4680   22.5300 C   0  0  0  0  0  0  0  0  0  0  0  0
  -21.4390  -29.2830   22.4070 N   0  0  0  0  0  0  0  0  0  0  0  0
  -23.4480  -28.8440   23.3440 O   0  0  0  0  0  0  0  0  0  0  0  0
  -20.9440  -29.8380   21.7220 H   0  0  0  0  0  0  0  0  0  0  0  0
  -18.0640  -28.0860   22.9290 C   0  0  0  0  0  0  0  0  0  0  0  0
  -20.6250  -28.3400   23.1790 C   0  0  0  0  0  3  0  0  0  0  0  0
  -20.7210  -26.9130   22.5920 C   0  0  0  0  0  2  0  0  0  0  0  0
  -19.6110  -26.5980   21.5860 C   0  0  0  0  0  2  0  0  0  0  0  0
  -18.2340  -26.7410   22.2400 C   0  0  0  0  0  2  0  0  0  0  0  0
  -19.1870  -28.8430   23.3550 C   0  0  0  0  0  0  0  0  0  0  0  0
  -18.9740  -30.1010   23.9600 C   0  0  0  0  0  3  0  0  0  0  0  0
  -17.6710  -30.6030   24.1400 C   0  0  0  0  0  3  0  0  0  0  0  0
  -16.5630  -29.8420   23.7310 C   0  0  0  0  0  3  0  0  0  0  0  0
  -16.7590  -28.5840   23.1300 C   0  0  0  0  0  3  0  0  0  0  0  0
  -25.9070  -32.5260   23.8290 C   0  0  0  0  0  3  0  0  0  0  0  0
  -25.5850  -33.9190   24.1680 N   0  0  0  0  0  0  0  0  0  0  0  0
  -25.8900  -34.9810   23.4100 C   0  0  0  0  0  0  0  0  0  0  0  0
  -26.5420  -34.8880   22.3650 O   0  0  0  0  0  0  0  0  0  0  0  0
  -25.0070  -34.0610   24.9820 H   0  0  0  0  0  0  0  0  0  0  0  0
  -24.1370  -36.7600   23.0980 C   0  0  0  0  0  1  0  0  0  0  0  0
  -25.3970  -36.3620   23.8830 C   0  0  0  0  0  3  0  0  0  0  0  0
  -27.5290  -37.2730   24.6910 C   0  0  0  0  0  1  0  0  0  0  0  0
  -26.4180  -37.4260   23.7580 N   0  0  0  0  0  0  0  0  0  0  0  0
  -26.0010  -38.3420   23.9090 H   0  0  0  0  0  0  0  0  0  0  0  0
  -26.4280  -31.7540   25.1040 C   0  0  1  0  0  0  0  0  0  0  0  0
  -25.3340  -31.5030   26.1670 C   0  0  0  0  0  1  0  0  0  0  0  0
  -27.0250  -30.3840   24.7090 C   0  0  0  0  0  1  0  0  0  0  0  0
  -27.5720  -32.5550   25.7720 C   0  0  0  0  0  1  0  0  0  0  0  0
  1  6  1  0
  2  6  1  0
  2  4  2  0
  3  5  2  0
  4  5  1  0
  6  3  1  0
  7  4  1  0
  7 16  1  0
  8 16  1  0
  9 14  1  0
 10 11  1  0
 10  9  1  0
 12 11  1  0
 12 21  1  0
 12 13  1  0
 14  8  1  0
 14 13  1  0
 15  8  2  0
 16 17  1  0
 18 19  2  0
 19 38  1  0
 20 19  1  0
 20 23  1  0
 21 22  1  0
 21 18  1  0
 22 20  2  0
 23 24  1  0
 24 25  2  0
 26 29  1  0
 26 25  1  0
 27 26  2  0
 28 27  1  0
 28 23  2  0
 29 30  1  0
 30 35  2  0
 30 31  1  0
 31 32  2  0
 33 32  1  0
 33 37  1  0
 34 33  2  0
 35 34  1  0
 36 35  1  0
 38 39  1  0
 39 42  1  0
 39 41  1  0
 40 38  2  0
 43 18  1  0
 43 44  1  0
 45 43  1  0
 46  1  1  0
 46 47  1  0
 48 47  1  0
 49 46  1  0
 49 50  1  0
 51 62  2  0
 52 50  1  0
 52 57  1  0
 53 61  1  0
 53 63  1  0
 54 60  1  0
 54 56  1  0
 55 61  1  0
 56 55  1  0
 57 56  2  0
 58 59  1  0
 58 52  2  0
 59 54  2  0
 60 53  1  0
 61 51  1  0
 63 65  2  0
 64 63  1  0
 66 64  1  0
 67 76  2  0
 67 72  1  0
 68 64  1  0
 68 72  1  0
 69 68  1  0
 70 71  1  0
 70 69  1  0
 71 67  1  0
 72 73  2  0
 73 74  1  0
 75 74  2  0
 76 75  1  0
 77 51  1  0
 77 78  1  0
 77 87  1  0
 78 81  1  0
 79 83  1  0
 79 78  1  0
 80 79  2  0
 83 82  1  0
 85 83  1  0
 85 86  1  0
 85 84  1  0
 87 90  1  1
 87 88  1  0
 89 87  1  0
M  ISO  4   8 100  16 100  49 101  50 101
M  END
>  <TORSDO>  (3) 
F 21

>  <SCORE>  (3) 
-13.367

>  <name>  (3) 
2

>  <ligand_id>  (3) 
2

>  <original_smiles>  (3) 
[H]OC([H])(C([H])([H])Oc1c([H])c([H])c2c(c1[H])C([H])([H])N(C(=O)C([H])(N([H])C(=O)C([H])(N([H])C([H])([H])[H])C([H])([H])[H])C(C([H])([H])[H])(C([H])([H])[H])C([H])([H])[H])C([H])(C(=O)N([H])C1([H])c3c([H])c([H])c([H])c([H])c3C([H])([H])C([H])([H])C1([H])[H])C2([H])[H])C([H])([H])n1c([H])nc(C([H])([H])N([H])C(=O)N2C([H])([H])C([H])([H])C([H])([H])C([H])(n3nc(-c4c([H])c([H])c(Oc5c([H])c([H])c(F)c([H])c5F)c([H])c4[H])c(C(=O)N([H])[H])c3N([H])[H])C2([H])[H])c1[H]

>  <smiles>  (3) 
[H]OC([H])(C([H])([H])Oc1c([H])c([H])c2c(c1[H])C([H])([H])N(C(=O)C([H])(N([H])C(=O)C([H])(N([H])C([H])([H])[H])C([H])([H])[H])C(C([H])([H])[H])(C([H])([H])[H])C([H])([H])[H])C([H])(C(=O)N([H])C1([H])c3c([H])c([H])c([H])c([H])c3C([H])([H])C([H])([H])C1([H])[H])C2([H])[H])C([H])([H])n1c([H])nc(C([H])([H])N([H])C(=O)N2C([H])([H])C([H])([H])C([H])([H])C([H])(n3nc(-c4c([H])c([H])c(Oc5c([H])c([H])c(F)c([H])c5F)c([H])c4[H])c(C(=O)N([H])[H])c3N([H])[H])C2([H])[H])c1[H]

$$$$
3:0:0
     RDKit          3D

 93101  0  0  1  0  0  0  0  0999 V2000
  -29.5370  -21.6350   19.9440 N   0  0  0  0  0  4  0  0  0  0  0  0
  -30.4830  -21.3170   19.8000 H   0  0  0  0  0  0  0  0  0  0  0  0
  -29.4640  -21.7930   20.9350 H   0  0  0  0  0  0  0  0  0  0  0  0
  -27.2800  -20.5400   20.1760 C   0  0  0  0  0  1  0  0  0  0  0  0
  -28.6970  -20.4470   19.5770 C   0  0  0  0  0  3  0  0  0  0  0  0
  -30.6430  -17.8700   21.5180 C   0  0  0  0  0  3  0  0  0  0  0  0
  -30.1170  -16.8590   20.7400 C   0  0  0  0  0  0  0  0  0  0  0  0
  -29.4370  -19.2090   20.0870 C   0  0  0  0  0  0  0  0  0  0  0  0
  -30.2620  -19.1780   21.1430 N   0  0  0  0  0  0  0  0  0  0  0  0
  -29.1560  -17.5700   19.4470 S   0  0  0  0  0  0  0  0  0  0  0  0
  -30.8180  -14.5460   20.3390 C   0  0  0  0  0  0  0  0  0  0  0  0
  -30.5380  -12.3540   19.2250 C   0  0  0  0  0  2  0  0  0  0  0  0
  -29.5910  -12.5480   18.0200 C   0  0  0  0  0  2  0  0  0  0  0  0
  -28.1160  -12.4180   18.4560 C   0  0  0  0  0  2  0  0  0  0  0  0
  -27.7880  -13.2670   19.7130 C   0  0  0  0  0  3  0  0  0  0  0  0
  -28.8450  -13.0400   20.8190 C   0  0  0  0  0  2  0  0  0  0  0  0
  -30.1720  -13.3460   20.2510 N   0  0  0  0  0  0  0  0  0  0  0  0
  -31.9140  -14.7540   19.8150 O   0  0  0  0  0  0  0  0  0  0  0  0
  -30.1430  -15.5130   20.9980 N   0  0  0  0  0  0  0  0  0  0  0  0
  -29.3370  -15.1670   21.4960 H   0  0  0  0  0  0  0  0  0  0  0  0
  -25.3990  -13.9060   20.4360 C   0  0  0  0  0  0  0  0  0  0  0  0
  -24.3200  -13.1480   20.8030 C   0  0  0  0  0  0  0  0  0  0  0  0
  -24.7600  -11.7900   20.7640 C   0  0  0  0  0  0  0  0  0  0  0  0
  -26.4300  -13.0110   20.1930 N   0  0  0  0  0  0  0  0  0  0  0  0
  -26.0470  -11.7320   20.4470 N   0  0  0  0  0  0  0  0  0  0  0  0
  -24.0160  -10.5360   20.9520 C   0  0  0  0  0  0  0  0  0  0  0  0
  -24.4040   -9.5850   21.9220 C   0  0  0  0  0  3  0  0  0  0  0  0
  -23.6610   -8.3960   22.0960 C   0  0  0  0  0  3  0  0  0  0  0  0
  -22.5170   -8.1500   21.3010 C   0  0  0  0  0  0  0  0  0  0  0  0
  -22.1490   -9.0910   20.3220 C   0  0  0  0  0  3  0  0  0  0  0  0
  -22.8910  -10.2700   20.1460 C   0  0  0  0  0  3  0  0  0  0  0  0
  -21.7510   -7.0130   21.3830 O   0  0  0  0  0  0  0  0  0  0  0  0
  -21.6160   -6.3200   22.5600 C   0  0  0  0  0  0  0  0  0  0  0  0
  -21.0650   -6.9140   23.7160 C   0  0  0  0  0  3  0  0  0  0  0  0
  -20.8810   -6.1480   24.8850 C   0  0  0  0  0  3  0  0  0  0  0  0
  -21.2390   -4.7850   24.8940 C   0  0  0  0  0  0  0  0  0  0  0  0
  -21.7810   -4.1890   23.7420 C   0  0  0  0  0  3  0  0  0  0  0  0
  -21.9680   -4.9570   22.5770 C   0  0  0  0  0  0  0  0  0  0  0  0
  -22.4750   -4.3740   21.4650 F   0  0  0  0  0  0  0  0  0  0  0  0
  -21.0510   -4.0440   26.0110 F   0  0  0  0  0  0  0  0  0  0  0  0
  -22.9320  -13.6480   21.0880 C   0  0  0  0  0  0  0  0  0  0  0  0
  -22.1950  -12.9540   21.9470 N   0  0  0  0  0  0  0  0  0  0  0  0
  -22.5100  -14.6870   20.5820 O   0  0  0  0  0  0  0  0  0  0  0  0
  -22.5510  -12.1140   22.3780 H   0  0  0  0  0  0  0  0  0  0  0  0
  -21.2640  -13.2760   22.1820 H   0  0  0  0  0  0  0  0  0  0  0  0
  -25.5870  -15.2740   20.2700 N   0  0  0  0  0  0  0  0  0  0  0  0
  -24.8230  -15.9330   20.3680 H   0  0  0  0  0  0  0  0  0  0  0  0
  -26.4370  -15.6970   19.9160 H   0  0  0  0  0  0  0  0  0  0  0  0
  -28.8520  -22.7810   17.7600 C   0  0  0  0  0  1  0  0  0  0  0  0
  -29.4050  -22.9450   19.1960 C   0  0  0  0  0  3  0  0  0  0  0  0
  -28.7270  -24.1190   20.0060 C   0  0  0  0  0  3  0  0  0  0  0  0
  -28.7530  -25.5400   19.3360 C   0  0  0  0  0  3  0  0  0  0  0  0
  -28.5050  -26.6740   20.2170 O   0  0  0  0  0  0  0  0  0  0  0  0
  -24.5830  -31.8680   23.2350 C   0  0  0  0  0  0  0  0  0  0  0  0
  -27.3150  -27.4010   20.1800 C   0  0  0  0  0  0  0  0  0  0  0  0
  -23.4210  -30.4610   21.5670 C   0  0  0  0  0  3  0  0  0  0  0  0
  -24.9110  -28.9260   20.1690 C   0  0  0  0  0  0  0  0  0  0  0  0
  -25.9560  -30.8120   21.4320 C   0  0  0  0  0  2  0  0  0  0  0  0
  -26.0570  -29.4420   20.7830 C   0  0  0  0  0  0  0  0  0  0  0  0
  -27.2590  -28.6850   20.7860 C   0  0  0  0  0  3  0  0  0  0  0  0
  -26.1370  -26.9030   19.5780 C   0  0  0  0  0  3  0  0  0  0  0  0
  -24.9470  -27.6560   19.5690 C   0  0  0  0  0  3  0  0  0  0  0  0
  -23.6640  -29.7810   20.1940 C   0  0  0  0  0  2  0  0  0  0  0  0
  -24.6700  -31.0650   22.1350 N   0  0  0  0  0  0  0  0  0  0  0  0
  -23.4880  -32.1380   23.7480 O   0  0  0  0  0  0  0  0  0  0  0  0
  -22.7480  -29.4390   22.5130 C   0  0  0  0  0  0  0  0  0  0  0  0
  -21.4200  -29.2850   22.3810 N   0  0  0  0  0  0  0  0  0  0  0  0
  -23.4180  -28.7890   23.3190 O   0  0  0  0  0  0  0  0  0  0  0  0
  -20.9420  -29.8620   21.7040 H   0  0  0  0  0  0  0  0  0  0  0  0
  -18.0160  -28.1810   22.8960 C   0  0  0  0  0  0  0  0  0  0  0  0
  -20.5860  -28.3470   23.1330 C   0  0  0  0  0  3  0  0  0  0  0  0
  -20.6310  -26.9330   22.5060 C   0  0  0  0  0  2  0  0  0  0  0  0
  -19.5020  -26.6810   21.5010 C   0  0  0  0  0  2  0  0  0  0  0  0
  -18.1370  -26.8490   22.1750 C   0  0  0  0  0  2  0  0  0  0  0  0
  -19.1650  -28.8910   23.3310 C   0  0  0  0  0  0  0  0  0  0  0  0
  -18.9960  -30.1420   23.9630 C   0  0  0  0  0  3  0  0  0  0  0  0
  -17.7120  -30.6800   24.1650 C   0  0  0  0  0  3  0  0  0  0  0  0
  -16.5770  -29.9640   23.7460 C   0  0  0  0  0  3  0  0  0  0  0  0
  -16.7300  -28.7160   23.1160 C   0  0  0  0  0  3  0  0  0  0  0  0
  -25.8500  -32.5050   23.8850 C   0  0  0  0  0  3  0  0  0  0  0  0
  -25.5320  -33.9050   24.1970 N   0  0  0  0  0  0  0  0  0  0  0  0
  -25.8880  -34.9550   23.4430 C   0  0  0  0  0  0  0  0  0  0  0  0
  -26.5870  -34.8450   22.4320 O   0  0  0  0  0  0  0  0  0  0  0  0
  -24.9140  -34.0630   24.9780 H   0  0  0  0  0  0  0  0  0  0  0  0
  -24.1820  -36.7540   23.0180 C   0  0  0  0  0  1  0  0  0  0  0  0
  -25.3880  -36.3450   23.8780 C   0  0  0  0  0  3  0  0  0  0  0  0
  -27.4860  -37.2270   24.8000 C   0  0  0  0  0  1  0  0  0  0  0  0
  -26.4280  -37.3940   23.8080 N   0  0  0  0  0  0  0  0  0  0  0  0
  -26.0190  -38.3150   23.9300 H   0  0  0  0  0  0  0  0  0  0  0  0
  -26.3340  -31.7440   25.1790 C   0  0  1  0  0  0  0  0  0  0  0  0
  -25.2150  -31.5100   26.2190 C   0  0  0  0  0  1  0  0  0  0  0  0
  -26.9330  -30.3670   24.8110 C   0  0  0  0  0  1  0  0  0  0  0  0
  -27.4610  -32.5500   25.8680 C   0  0  0  0  0  1  0  0  0  0  0  0
  1  3  1  0
  2  1  1  0
  5  1  1  0
  5  8  1  0
  5  4  1  0
  7 19  1  0
  7  6  2  0
  8  9  2  0
  9  6  1  0
 10  8  1  0
 10  7  1  0
 11 19  1  0
 12 17  1  0
 13 14  1  0
 13 12  1  0
 15 14  1  0
 15 24  1  0
 15 16  1  0
 17 11  1  0
 17 16  1  0
 18 11  2  0
 19 20  1  0
 21 22  2  0
 22 41  1  0
 23 22  1  0
 23 26  1  0
 24 21  1  0
 24 25  1  0
 25 23  2  0
 26 27  1  0
 27 28  2  0
 29 32  1  0
 29 28  1  0
 30 29  2  0
 31 30  1  0
 31 26  2  0
 32 33  1  0
 33 38  2  0
 33 34  1  0
 34 35  2  0
 35 36  1  0
 36 40  1  0
 37 36  2  0
 38 37  1  0
 39 38  1  0
 41 42  1  0
 42 45  1  0
 42 44  1  0
 43 41  2  0
 46 47  1  0
 46 21  1  0
 48 46  1  0
 50 49  1  0
 50  1  1  0
 50 51  1  0
 52 51  2  0
 52 53  1  0
 54 65  2  0
 55 53  1  0
 55 60  1  0
 56 64  1  0
 56 66  1  0
 57 63  1  0
 57 59  1  0
 58 64  1  0
 59 60  2  0
 59 58  1  0
 61 55  2  0
 62 61  1  0
 62 57  2  0
 63 56  1  0
 64 54  1  0
 66 68  2  0
 67 66  1  0
 69 67  1  0
 70 79  2  0
 70 75  1  0
 71 67  1  0
 71 75  1  0
 72 71  1  0
 73 74  1  0
 73 72  1  0
 74 70  1  0
 75 76  2  0
 76 77  1  0
 78 77  2  0
 79 78  1  0
 80 54  1  0
 80 81  1  0
 80 90  1  0
 81 84  1  0
 82 86  1  0
 82 81  1  0
 83 82  2  0
 86 85  1  0
 88 86  1  0
 88 89  1  0
 88 87  1  0
 90 93  1  1
 90 91  1  0
 92 90  1  0
M  ISO  4  11 100  19 100  52 101  53 101
M  END
>  <TORSDO>  (4) 
F 21

>  <SCORE>  (4) 
-13.115

>  <name>  (4) 
3

>  <ligand_id>  (4) 
3

>  <original_smiles>  (4) 
[H]c1nc(C([H])(C([H])([H])[H])[N+]([H])([H])C([H])(C([H])([H])[H])C([H])([H])C([H])([H])Oc2c([H])c([H])c3c(c2[H])C([H])([H])N(C(=O)C([H])(N([H])C(=O)C([H])(N([H])C([H])([H])[H])C([H])([H])[H])C(C([H])([H])[H])(C([H])([H])[H])C([H])([H])[H])C([H])(C(=O)N([H])C2([H])c4c([H])c([H])c([H])c([H])c4C([H])([H])C([H])([H])C2([H])[H])C3([H])[H])sc1N([H])C(=O)N1C([H])([H])C([H])([H])C([H])([H])C([H])(n2nc(-c3c([H])c([H])c(Oc4c([H])c([H])c(F)c([H])c4F)c([H])c3[H])c(C(=O)N([H])[H])c2N([H])[H])C1([H])[H]

>  <smiles>  (4) 
[H]c1nc(C([H])(C([H])([H])[H])[N+]([H])([H])C([H])(C([H])([H])[H])C([H])([H])C([H])([H])Oc2c([H])c([H])c3c(c2[H])C([H])([H])N(C(=O)C([H])(N([H])C(=O)C([H])(N([H])C([H])([H])[H])C([H])([H])[H])C(C([H])([H])[H])(C([H])([H])[H])C([H])([H])[H])C([H])(C(=O)N([H])C2([H])c4c([H])c([H])c([H])c([H])c4C([H])([H])C([H])([H])C2([H])[H])C3([H])[H])sc1N([H])C(=O)N1C([H])([H])C([H])([H])C([H])([H])C([H])(n2nc(-c3c([H])c([H])c(Oc4c([H])c([H])c(F)c([H])c4F)c([H])c3[H])c(C(=O)N([H])[H])c2N([H])[H])C1([H])[H]

$$$$
4:0:0
     RDKit          3D

 90 98  0  0  1  0  0  0  0  0999 V2000
  -29.9640  -18.5400   22.0270 C   0  0  0  0  0  3  0  0  0  0  0  0
  -30.3980  -18.2960   20.7430 C   0  0  0  0  0  0  0  0  0  0  0  0
  -29.8100  -20.6650   21.2040 C   0  0  0  0  0  0  0  0  0  0  0  0
  -29.6360  -19.8860   22.2720 N   0  0  0  0  0  0  0  0  0  0  0  0
  -29.6200  -22.0480   21.2160 N   0  0  0  0  0  0  0  0  0  0  0  0
  -30.3310  -19.7650   19.7820 S   0  0  0  0  0  0  0  0  0  0  0  0
  -29.2980  -22.3830   22.1180 H   0  0  0  0  0  0  0  0  0  0  0  0
  -31.0230  -17.0560   20.1540 C   0  0  0  0  0  2  0  0  0  0  0  0
  -31.0560  -14.6230   20.0050 C   0  0  0  0  0  0  0  0  0  0  0  0
  -30.5750  -12.5070   18.8600 C   0  0  0  0  0  2  0  0  0  0  0  0
  -29.5790  -12.7870   17.7150 C   0  0  0  0  0  2  0  0  0  0  0  0
  -28.1320  -12.6820   18.2310 C   0  0  0  0  0  2  0  0  0  0  0  0
  -27.8940  -13.4940   19.5340 C   0  0  0  0  0  3  0  0  0  0  0  0
  -29.0130  -13.2380   20.5730 C   0  0  0  0  0  2  0  0  0  0  0  0
  -30.3060  -13.4920   19.9220 N   0  0  0  0  0  0  0  0  0  0  0  0
  -32.1660  -14.7160   19.4740 O   0  0  0  0  0  0  0  0  0  0  0  0
  -30.4630  -15.7320   20.4910 N   0  0  0  0  0  0  0  0  0  0  0  0
  -29.5370  -15.6650   20.8830 H   0  0  0  0  0  0  0  0  0  0  0  0
  -25.5600  -14.1270   20.4080 C   0  0  0  0  0  0  0  0  0  0  0  0
  -24.5000  -13.3680   20.8190 C   0  0  0  0  0  0  0  0  0  0  0  0
  -24.9290  -12.0080   20.7290 C   0  0  0  0  0  0  0  0  0  0  0  0
  -26.5700  -13.2320   20.0910 N   0  0  0  0  0  0  0  0  0  0  0  0
  -26.1970  -11.9510   20.3410 N   0  0  0  0  0  0  0  0  0  0  0  0
  -24.1890  -10.7560   20.9330 C   0  0  0  0  0  0  0  0  0  0  0  0
  -24.6110   -9.7930   21.8770 C   0  0  0  0  0  3  0  0  0  0  0  0
  -23.8700   -8.6070   22.0660 C   0  0  0  0  0  3  0  0  0  0  0  0
  -22.6950   -8.3750   21.3140 C   0  0  0  0  0  0  0  0  0  0  0  0
  -22.2930   -9.3270   20.3600 C   0  0  0  0  0  3  0  0  0  0  0  0
  -23.0320  -10.5050   20.1680 C   0  0  0  0  0  3  0  0  0  0  0  0
  -21.9270   -7.2420   21.4150 O   0  0  0  0  0  0  0  0  0  0  0  0
  -21.8330   -6.5340   22.5870 C   0  0  0  0  0  0  0  0  0  0  0  0
  -21.3260   -7.1180   23.7700 C   0  0  0  0  0  3  0  0  0  0  0  0
  -21.1820   -6.3380   24.9330 C   0  0  0  0  0  3  0  0  0  0  0  0
  -21.5330   -4.9750   24.9170 C   0  0  0  0  0  0  0  0  0  0  0  0
  -22.0300   -4.3900   23.7390 C   0  0  0  0  0  3  0  0  0  0  0  0
  -22.1770   -5.1680   22.5770 C   0  0  0  0  0  0  0  0  0  0  0  0
  -22.6380   -4.5940   21.4390 F   0  0  0  0  0  0  0  0  0  0  0  0
  -21.3870   -4.2240   26.0330 F   0  0  0  0  0  0  0  0  0  0  0  0
  -23.1330  -13.8670   21.1870 C   0  0  0  0  0  0  0  0  0  0  0  0
  -22.4440  -13.1690   22.0830 N   0  0  0  0  0  0  0  0  0  0  0  0
  -22.6870  -14.9140   20.7190 O   0  0  0  0  0  0  0  0  0  0  0  0
  -22.8190  -12.3220   22.4840 H   0  0  0  0  0  0  0  0  0  0  0  0
  -21.5290  -13.4850   22.3720 H   0  0  0  0  0  0  0  0  0  0  0  0
  -25.7430  -15.4990   20.2570 N   0  0  0  0  0  0  0  0  0  0  0  0
  -24.9970  -16.1630   20.4310 H   0  0  0  0  0  0  0  0  0  0  0  0
  -26.5850  -15.9330   19.8990 H   0  0  0  0  0  0  0  0  0  0  0  0
  -29.6210  -23.0740   20.1650 C   0  0  0  0  0  2  0  0  0  0  0  0
  -29.5720  -24.5420   20.6800 C   0  0  0  0  0  2  0  0  0  0  0  0
  -28.9820  -25.5230   19.6310 C   0  0  0  0  0  2  0  0  0  0  0  0
  -28.8230  -26.8750   20.1280 O   0  0  0  0  0  0  0  0  0  0  0  0
  -24.6420  -31.7720   23.1900 C   0  0  0  0  0  0  0  0  0  0  0  0
  -27.6000  -27.5330   20.0670 C   0  0  0  0  0  0  0  0  0  0  0  0
  -23.5570  -30.3560   21.4800 C   0  0  0  0  0  3  0  0  0  0  0  0
  -25.1270  -28.9420   20.0520 C   0  0  0  0  0  0  0  0  0  0  0  0
  -26.0700  -30.8400   21.3680 C   0  0  0  0  0  2  0  0  0  0  0  0
  -26.2420  -29.4930   20.6960 C   0  0  0  0  0  0  0  0  0  0  0  0
  -27.4760  -28.7950   20.7030 C   0  0  0  0  0  3  0  0  0  0  0  0
  -26.4640  -27.0190   19.3940 C   0  0  0  0  0  3  0  0  0  0  0  0
  -25.2380  -27.7070   19.3970 C   0  0  0  0  0  3  0  0  0  0  0  0
  -23.8390  -29.7330   20.0890 C   0  0  0  0  0  2  0  0  0  0  0  0
  -24.7720  -31.0050   22.0710 N   0  0  0  0  0  0  0  0  0  0  0  0
  -23.5340  -31.9730   23.7050 O   0  0  0  0  0  0  0  0  0  0  0  0
  -22.9330  -29.2730   22.3900 C   0  0  0  0  0  0  0  0  0  0  0  0
  -21.6200  -29.0460   22.2360 N   0  0  0  0  0  0  0  0  0  0  0  0
  -23.6290  -28.6420   23.1900 O   0  0  0  0  0  0  0  0  0  0  0  0
  -21.1190  -29.6120   21.5660 H   0  0  0  0  0  0  0  0  0  0  0  0
  -18.2760  -27.7480   22.6790 C   0  0  0  0  0  0  0  0  0  0  0  0
  -20.8260  -28.0520   22.9590 C   0  0  0  0  0  3  0  0  0  0  0  0
  -20.9600  -26.6550   22.3110 C   0  0  0  0  0  2  0  0  0  0  0  0
  -19.8610  -26.3540   21.2860 C   0  0  0  0  0  2  0  0  0  0  0  0
  -18.4800  -26.4350   21.9410 C   0  0  0  0  0  2  0  0  0  0  0  0
  -19.3770  -28.5140   23.1450 C   0  0  0  0  0  0  0  0  0  0  0  0
  -19.1300  -29.7380   23.8040 C   0  0  0  0  0  3  0  0  0  0  0  0
  -17.8130  -30.1990   23.9930 C   0  0  0  0  0  3  0  0  0  0  0  0
  -16.7270  -29.4290   23.5470 C   0  0  0  0  0  3  0  0  0  0  0  0
  -16.9590  -28.2050   22.8940 C   0  0  0  0  0  3  0  0  0  0  0  0
  -25.8770  -32.4500   23.8650 C   0  0  0  0  0  3  0  0  0  0  0  0
  -26.3600  -31.7030   25.1690 C   0  0  1  0  0  0  0  0  0  0  0  0
  -25.2250  -31.4300   26.1820 C   0  0  0  0  0  1  0  0  0  0  0  0
  -27.0130  -30.3480   24.8110 C   0  0  0  0  0  1  0  0  0  0  0  0
  -27.4470  -32.5420   25.8810 C   0  0  0  0  0  1  0  0  0  0  0  0
  -25.5030  -33.8360   24.1710 N   0  0  0  0  0  0  0  0  0  0  0  0
  -25.8320  -34.8960   23.4200 C   0  0  0  0  0  0  0  0  0  0  0  0
  -26.5500  -34.8110   22.4190 O   0  0  0  0  0  0  0  0  0  0  0  0
  -24.8690  -33.9740   24.9440 H   0  0  0  0  0  0  0  0  0  0  0  0
  -24.0620  -36.6250   22.9650 C   0  0  0  0  0  1  0  0  0  0  0  0
  -25.2730  -36.2680   23.8430 C   0  0  0  0  0  3  0  0  0  0  0  0
  -27.3220  -37.2390   24.7890 C   0  0  0  0  0  1  0  0  0  0  0  0
  -26.2740  -37.3560   23.7770 N   0  0  0  0  0  0  0  0  0  0  0  0
  -25.8280  -38.2630   23.8860 H   0  0  0  0  0  0  0  0  0  0  0  0
  1  4  1  0
  2  1  2  0
  3  5  1  0
  3  4  2  0
  5  7  1  0
  6  2  1  0
  6  3  1  0
  8 17  1  0
  8  2  1  0
  9 17  1  0
 10 15  1  0
 11 12  1  0
 11 10  1  0
 13 12  1  0
 13 22  1  0
 13 14  1  0
 15  9  1  0
 15 14  1  0
 16  9  2  0
 17 18  1  0
 19 20  2  0
 20 39  1  0
 21 20  1  0
 21 24  1  0
 22 23  1  0
 22 19  1  0
 23 21  2  0
 24 25  1  0
 25 26  2  0
 27 30  1  0
 27 26  1  0
 28 27  2  0
 29 28  1  0
 29 24  2  0
 30 31  1  0
 31 32  1  0
 32 33  2  0
 34 33  1  0
 34 38  1  0
 35 34  2  0
 36 31  2  0
 36 35  1  0
 37 36  1  0
 39 40  1  0
 40 43  1  0
 40 42  1  0
 41 39  2  0
 44 19  1  0
 44 45  1  0
 46 44  1  0
 47 48  1  0
 47  5  1  0
 49 50  1  0
 49 48  1  0
 51 62  2  0
 52 50  1  0
 52 57  1  0
 53 61  1  0
 53 63  1  0
 54 60  1  0
 54 56  1  0
 55 61  1  0
 56 57  2  0
 56 55  1  0
 58 59  1  0
 58 52  2  0
 59 54  2  0
 60 53  1  0
 61 51  1  0
 63 65  2  0
 64 63  1  0
 66 64  1  0
 67 76  2  0
 67 72  1  0
 68 64  1  0
 68 72  1  0
 69 68  1  0
 70 71  1  0
 70 69  1  0
 71 67  1  0
 72 73  2  0
 73 74  1  0
 75 74  2  0
 76 75  1  0
 77 51  1  0
 77 82  1  0
 77 78  1  0
 78 81  1  1
 78 79  1  0
 80 78  1  0
 82 85  1  0
 83 87  1  0
 83 82  1  0
 84 83  2  0
 87 86  1  0
 89 87  1  0
 89 90  1  0
 89 88  1  0
M  ISO  4   9 100  17 100  49 101  50 101
M  END
>  <TORSDO>  (5) 
F 20

>  <SCORE>  (5) 
-11.907

>  <name>  (5) 
4

>  <ligand_id>  (5) 
4

>  <original_smiles>  (5) 
[H]c1nc(N([H])C([H])([H])C([H])([H])C([H])([H])Oc2c([H])c([H])c3c(c2[H])C([H])([H])N(C(=O)C([H])(N([H])C(=O)C([H])(N([H])C([H])([H])[H])C([H])([H])[H])C(C([H])([H])[H])(C([H])([H])[H])C([H])([H])[H])C([H])(C(=O)N([H])C2([H])c4c([H])c([H])c([H])c([H])c4C([H])([H])C([H])([H])C2([H])[H])C3([H])[H])sc1C([H])([H])N([H])C(=O)N1C([H])([H])C([H])([H])C([H])([H])C([H])(n2nc(-c3c([H])c([H])c(Oc4c([H])c([H])c(F)c([H])c4F)c([H])c3[H])c(C(=O)N([H])[H])c2N([H])[H])C1([H])[H]

>  <smiles>  (5) 
[H]c1nc(N([H])C([H])([H])C([H])([H])C([H])([H])Oc2c([H])c([H])c3c(c2[H])C([H])([H])N(C(=O)C([H])(N([H])C(=O)C([H])(N([H])C([H])([H])[H])C([H])([H])[H])C(C([H])([H])[H])(C([H])([H])[H])C([H])([H])[H])C([H])(C(=O)N([H])C2([H])c4c([H])c([H])c([H])c([H])c4C([H])([H])C([H])([H])C2([H])[H])C3([H])[H])sc1C([H])([H])N([H])C(=O)N1C([H])([H])C([H])([H])C([H])([H])C([H])(n2nc(-c3c([H])c([H])c(Oc4c([H])c([H])c(F)c([H])c4F)c([H])c3[H])c(C(=O)N([H])[H])c2N([H])[H])C1([H])[H]

$$$$
5:0:0
     RDKit          3D

 92100  0  0  1  0  0  0  0  0999 V2000
  -28.6300  -22.7830   20.0790 C   0  0  0  0  0  2  0  0  0  0  0  0
  -30.2110  -19.3900   21.1850 C   0  0  0  0  0  3  0  0  0  0  0  0
  -29.8740  -18.0770   20.9450 C   0  0  0  0  0  0  0  0  0  0  0  0
  -29.3430  -20.3280   20.5240 C   0  0  0  0  0  0  0  0  0  0  0  0
  -28.3830  -19.8010   19.7960 N   0  0  0  0  0  0  0  0  0  0  0  0
  -29.5100  -21.7340   20.6350 N   0  0  0  0  0  0  0  0  0  0  0  0
  -28.4750  -18.1090   19.9040 S   0  0  0  0  0  0  0  0  0  0  0  0
  -30.2210  -22.0730   21.2700 H   0  0  0  0  0  0  0  0  0  0  0  0
  -30.5610  -16.8260   21.4920 C   0  0  0  0  0  2  0  0  0  0  0  0
  -30.6840  -14.5110   20.4550 C   0  0  0  0  0  0  0  0  0  0  0  0
  -30.3840  -12.3530   19.2790 C   0  0  0  0  0  2  0  0  0  0  0  0
  -29.4650  -12.5920   18.0640 C   0  0  0  0  0  2  0  0  0  0  0  0
  -27.9810  -12.4610   18.4660 C   0  0  0  0  0  2  0  0  0  0  0  0
  -27.6360  -13.2600   19.7510 C   0  0  0  0  0  3  0  0  0  0  0  0
  -28.6820  -13.0230   20.8630 C   0  0  0  0  0  2  0  0  0  0  0  0
  -30.0100  -13.3380   20.3100 N   0  0  0  0  0  0  0  0  0  0  0  0
  -31.7990  -14.6970   19.9560 O   0  0  0  0  0  0  0  0  0  0  0  0
  -30.0260  -15.5040   21.1040 N   0  0  0  0  0  0  0  0  0  0  0  0
  -29.1240  -15.2580   21.4750 H   0  0  0  0  0  0  0  0  0  0  0  0
  -25.2370  -13.8750   20.4290 C   0  0  0  0  0  0  0  0  0  0  0  0
  -24.1600  -13.1110   20.7990 C   0  0  0  0  0  0  0  0  0  0  0  0
  -24.6080  -11.7590   20.7780 C   0  0  0  0  0  0  0  0  0  0  0  0
  -26.2780  -12.9850   20.2160 N   0  0  0  0  0  0  0  0  0  0  0  0
  -25.9040  -11.7060   20.4770 N   0  0  0  0  0  0  0  0  0  0  0  0
  -23.8710  -10.5030   20.9800 C   0  0  0  0  0  0  0  0  0  0  0  0
  -24.2930   -9.5430   21.9200 C   0  0  0  0  0  3  0  0  0  0  0  0
  -23.5630   -8.3540   22.1140 C   0  0  0  0  0  3  0  0  0  0  0  0
  -22.3850   -8.1140   21.3670 C   0  0  0  0  0  0  0  0  0  0  0  0
  -21.9740   -9.0680   20.4160 C   0  0  0  0  0  3  0  0  0  0  0  0
  -22.7080  -10.2460   20.2200 C   0  0  0  0  0  3  0  0  0  0  0  0
  -21.6280   -6.9730   21.4630 O   0  0  0  0  0  0  0  0  0  0  0  0
  -21.5820   -6.2320   22.6180 C   0  0  0  0  0  0  0  0  0  0  0  0
  -21.1760   -6.7970   23.8470 C   0  0  0  0  0  3  0  0  0  0  0  0
  -21.0700   -5.9860   24.9950 C   0  0  0  0  0  3  0  0  0  0  0  0
  -21.3600   -4.6130   24.9170 C   0  0  0  0  0  0  0  0  0  0  0  0
  -21.7600   -4.0440   23.6920 C   0  0  0  0  0  3  0  0  0  0  0  0
  -21.8670   -4.8540   22.5470 C   0  0  0  0  0  0  0  0  0  0  0  0
  -22.2310   -4.2980   21.3650 F   0  0  0  0  0  0  0  0  0  0  0  0
  -21.2520   -3.8320   26.0170 F   0  0  0  0  0  0  0  0  0  0  0  0
  -22.7650  -13.6060   21.0610 C   0  0  0  0  0  0  0  0  0  0  0  0
  -22.0290  -12.9360   21.9290 N   0  0  0  0  0  0  0  0  0  0  0  0
  -22.3430  -14.6320   20.5240 O   0  0  0  0  0  0  0  0  0  0  0  0
  -22.3800  -12.1160   22.4050 H   0  0  0  0  0  0  0  0  0  0  0  0
  -21.0840  -13.2500   22.1340 H   0  0  0  0  0  0  0  0  0  0  0  0
  -25.4060  -15.2410   20.2400 N   0  0  0  0  0  0  0  0  0  0  0  0
  -24.6350  -15.8930   20.3070 H   0  0  0  0  0  0  0  0  0  0  0  0
  -26.2620  -15.6770   19.9190 H   0  0  0  0  0  0  0  0  0  0  0  0
  -29.3110  -24.2180   20.1150 C   0  0  0  0  0  3  0  0  0  0  0  0
  -29.5570  -24.5840   21.4710 O   0  0  0  0  0  0  0  0  0  0  0  0
  -28.8440  -25.1310   21.7870 H   0  0  0  0  0  0  0  0  0  0  0  0
  -28.4130  -25.3120   19.4320 C   0  0  0  0  0  2  0  0  0  0  0  0
  -28.3840  -26.6160   20.0960 O   0  0  0  0  0  0  0  0  0  0  0  0
  -24.6200  -31.8890   23.2280 C   0  0  0  0  0  0  0  0  0  0  0  0
  -27.2140  -27.3830   20.1020 C   0  0  0  0  0  0  0  0  0  0  0  0
  -23.4000  -30.4920   21.5990 C   0  0  0  0  0  3  0  0  0  0  0  0
  -24.8350  -28.9560   20.1640 C   0  0  0  0  0  0  0  0  0  0  0  0
  -25.9380  -30.8170   21.4000 C   0  0  0  0  0  2  0  0  0  0  0  0
  -26.0090  -29.4460   20.7490 C   0  0  0  0  0  0  0  0  0  0  0  0
  -27.1970  -28.6660   20.7230 C   0  0  0  0  0  3  0  0  0  0  0  0
  -26.0080  -26.9320   19.5180 C   0  0  0  0  0  3  0  0  0  0  0  0
  -24.8320  -27.6970   19.5530 C   0  0  0  0  0  3  0  0  0  0  0  0
  -23.6010  -29.8230   20.2160 C   0  0  0  0  0  2  0  0  0  0  0  0
  -24.6710  -31.0850   22.1300 N   0  0  0  0  0  0  0  0  0  0  0  0
  -23.5430  -32.1670   23.7720 O   0  0  0  0  0  0  0  0  0  0  0  0
  -22.7530  -29.4670   22.5590 C   0  0  0  0  0  0  0  0  0  0  0  0
  -21.4280  -29.2870   22.4400 N   0  0  0  0  0  0  0  0  0  0  0  0
  -23.4410  -28.8380   23.3690 O   0  0  0  0  0  0  0  0  0  0  0  0
  -20.9350  -29.8440   21.7560 H   0  0  0  0  0  0  0  0  0  0  0  0
  -18.0560  -28.0970   22.9580 C   0  0  0  0  0  0  0  0  0  0  0  0
  -20.6150  -28.3520   23.2150 C   0  0  0  0  0  3  0  0  0  0  0  0
  -20.7140  -26.9200   22.6430 C   0  0  0  0  0  2  0  0  0  0  0  0
  -19.6060  -26.5940   21.6350 C   0  0  0  0  0  2  0  0  0  0  0  0
  -18.2260  -26.7470   22.2800 C   0  0  0  0  0  2  0  0  0  0  0  0
  -19.1760  -28.8590   23.3800 C   0  0  0  0  0  0  0  0  0  0  0  0
  -18.9640  -30.1230   23.9700 C   0  0  0  0  0  3  0  0  0  0  0  0
  -17.6610  -30.6250   24.1470 C   0  0  0  0  0  3  0  0  0  0  0  0
  -16.5520  -29.8580   23.7410 C   0  0  0  0  0  3  0  0  0  0  0  0
  -16.7520  -28.5960   23.1520 C   0  0  0  0  0  3  0  0  0  0  0  0
  -25.9130  -32.5190   23.8380 C   0  0  0  0  0  3  0  0  0  0  0  0
  -25.6070  -33.9120   24.1850 N   0  0  0  0  0  0  0  0  0  0  0  0
  -25.9120  -34.9720   23.4240 C   0  0  0  0  0  0  0  0  0  0  0  0
  -26.5600  -34.8750   22.3750 O   0  0  0  0  0  0  0  0  0  0  0  0
  -25.0480  -34.0620   25.0140 H   0  0  0  0  0  0  0  0  0  0  0  0
  -24.1680  -36.7500   23.1090 C   0  0  0  0  0  1  0  0  0  0  0  0
  -25.4260  -36.3510   23.8980 C   0  0  0  0  0  3  0  0  0  0  0  0
  -27.5790  -37.2340   24.6870 C   0  0  0  0  0  1  0  0  0  0  0  0
  -26.4480  -37.4140   23.7780 N   0  0  0  0  0  0  0  0  0  0  0  0
  -26.0410  -38.3260   23.9590 H   0  0  0  0  0  0  0  0  0  0  0  0
  -26.4470  -31.7380   25.1010 C   0  0  1  0  0  0  0  0  0  0  0  0
  -25.3680  -31.5020   26.1850 C   0  0  0  0  0  1  0  0  0  0  0  0
  -27.0230  -30.3600   24.6950 C   0  0  0  0  0  1  0  0  0  0  0  0
  -27.6070  -32.5290   25.7520 C   0  0  0  0  0  1  0  0  0  0  0  0
  1 48  1  0
  1  6  1  0
  3  2  2  0
  3  9  1  0
  4  6  1  0
  4  2  1  0
  5  7  1  0
  5  4  2  0
  6  8  1  0
  7  3  1  0
 10 18  1  0
 11 16  1  0
 12 13  1  0
 12 11  1  0
 14 13  1  0
 14 23  1  0
 14 15  1  0
 16 10  1  0
 16 15  1  0
 17 10  2  0
 18 19  1  0
 18  9  1  0
 20 21  2  0
 21 40  1  0
 22 21  1  0
 22 25  1  0
 23 20  1  0
 23 24  1  0
 24 22  2  0
 25 26  1  0
 26 27  2  0
 28 31  1  0
 28 27  1  0
 29 28  2  0
 30 29  1  0
 30 25  2  0
 31 32  1  0
 32 33  1  0
 33 34  2  0
 35 34  1  0
 35 39  1  0
 36 35  2  0
 37 32  2  0
 37 36  1  0
 38 37  1  0
 40 41  1  0
 41 44  1  0
 41 43  1  0
 42 40  2  0
 45 46  1  0
 45 20  1  0
 47 45  1  0
 48 51  1  0
 48 49  1  0
 49 50  1  0
 51 52  1  0
 52 54  1  0
 53 64  2  0
 54 59  1  0
 55 63  1  0
 55 65  1  0
 56 62  1  0
 56 58  1  0
 57 63  1  0
 58 57  1  0
 59 58  2  0
 60 61  1  0
 60 54  2  0
 61 56  2  0
 62 55  1  0
 63 53  1  0
 65 67  2  0
 66 65  1  0
 68 66  1  0
 69 78  2  0
 69 74  1  0
 70 66  1  0
 70 74  1  0
 71 70  1  0
 72 73  1  0
 72 71  1  0
 73 69  1  0
 74 75  2  0
 75 76  1  0
 77 76  2  0
 78 77  1  0
 79 53  1  0
 79 80  1  0
 79 89  1  0
 80 83  1  0
 81 85  1  0
 81 80  1  0
 82 81  2  0
 85 84  1  0
 87 85  1  0
 87 88  1  0
 87 86  1  0
 89 92  1  1
 89 90  1  0
 91 89  1  0
M  ISO  4  10 100  18 100  51 101  52 101
M  END
>  <TORSDO>  (6) 
F 21

>  <SCORE>  (6) 
-13.767

>  <name>  (6) 
5

>  <ligand_id>  (6) 
5

>  <original_smiles>  (6) 
[H]OC([H])(C([H])([H])Oc1c([H])c([H])c2c(c1[H])C([H])([H])N(C(=O)C([H])(N([H])C(=O)C([H])(N([H])C([H])([H])[H])C([H])([H])[H])C(C([H])([H])[H])(C([H])([H])[H])C([H])([H])[H])C([H])(C(=O)N([H])C1([H])c3c([H])c([H])c([H])c([H])c3C([H])([H])C([H])([H])C1([H])[H])C2([H])[H])C([H])([H])N([H])c1nsc(C([H])([H])N([H])C(=O)N2C([H])([H])C([H])([H])C([H])([H])C([H])(n3nc(-c4c([H])c([H])c(Oc5c([H])c([H])c(F)c([H])c5F)c([H])c4[H])c(C(=O)N([H])[H])c3N([H])[H])C2([H])[H])c1[H]

>  <smiles>  (6) 
[H]OC([H])(C([H])([H])Oc1c([H])c([H])c2c(c1[H])C([H])([H])N(C(=O)C([H])(N([H])C(=O)C([H])(N([H])C([H])([H])[H])C([H])([H])[H])C(C([H])([H])[H])(C([H])([H])[H])C([H])([H])[H])C([H])(C(=O)N([H])C1([H])c3c([H])c([H])c([H])c([H])c3C([H])([H])C([H])([H])C1([H])[H])C2([H])[H])C([H])([H])N([H])c1nsc(C([H])([H])N([H])C(=O)N2C([H])([H])C([H])([H])C([H])([H])C([H])(n3nc(-c4c([H])c([H])c(Oc5c([H])c([H])c(F)c([H])c5F)c([H])c4[H])c(C(=O)N([H])[H])c3N([H])[H])C2([H])[H])c1[H]

$$$$
6:0:0
     RDKit          3D

 91 99  0  0  1  0  0  0  0  0999 V2000
  -30.1700  -18.1900   20.6720 C   0  0  0  0  0  0  0  0  0  0  0  0
  -29.3740  -20.4700   20.2240 C   0  0  0  0  0  0  0  0  0  0  0  0
  -29.2840  -22.9800   19.9380 C   0  0  0  0  0  0  0  0  0  0  0  0
  -30.9200  -18.8460   19.7680 N   0  0  0  0  0  0  0  0  0  0  0  0
  -30.4720  -20.1500   19.5160 N   0  0  0  0  0  0  0  0  0  0  0  0
  -28.7290  -21.7540   20.1300 N   0  0  0  0  0  0  0  0  0  0  0  0
  -30.5040  -23.1630   19.9520 O   0  0  0  0  0  0  0  0  0  0  0  0
  -28.7520  -19.1250   21.2000 S   0  0  0  0  0  0  0  0  0  0  0  0
  -27.7260  -21.7350   20.2460 H   0  0  0  0  0  0  0  0  0  0  0  0
  -30.6200  -16.8910   21.3310 C   0  0  0  0  0  2  0  0  0  0  0  0
  -30.6810  -14.6540   20.1540 C   0  0  0  0  0  0  0  0  0  0  0  0
  -30.3370  -12.5390   18.9100 C   0  0  0  0  0  2  0  0  0  0  0  0
  -29.3190  -12.7660   17.7740 C   0  0  0  0  0  2  0  0  0  0  0  0
  -27.8760  -12.5900   18.2880 C   0  0  0  0  0  2  0  0  0  0  0  0
  -27.6070  -13.3720   19.6020 C   0  0  0  0  0  3  0  0  0  0  0  0
  -28.7300  -13.1240   20.6320 C   0  0  0  0  0  2  0  0  0  0  0  0
  -30.0060  -13.4810   19.9930 N   0  0  0  0  0  0  0  0  0  0  0  0
  -31.7930  -14.8470   19.6560 O   0  0  0  0  0  0  0  0  0  0  0  0
  -30.0220  -15.6420   20.8020 N   0  0  0  0  0  0  0  0  0  0  0  0
  -29.0850  -15.4310   21.1080 H   0  0  0  0  0  0  0  0  0  0  0  0
  -25.2500  -13.9290   20.4650 C   0  0  0  0  0  0  0  0  0  0  0  0
  -24.2130  -13.1340   20.8720 C   0  0  0  0  0  0  0  0  0  0  0  0
  -24.6860  -11.7900   20.7780 C   0  0  0  0  0  0  0  0  0  0  0  0
  -26.2890  -13.0670   20.1500 N   0  0  0  0  0  0  0  0  0  0  0  0
  -25.9570  -11.7740   20.3970 N   0  0  0  0  0  0  0  0  0  0  0  0
  -23.9840  -10.5140   20.9720 C   0  0  0  0  0  0  0  0  0  0  0  0
  -24.4470   -9.5500   21.8940 C   0  0  0  0  0  3  0  0  0  0  0  0
  -23.7450   -8.3380   22.0760 C   0  0  0  0  0  3  0  0  0  0  0  0
  -22.5660   -8.0830   21.3350 C   0  0  0  0  0  0  0  0  0  0  0  0
  -22.1230   -9.0370   20.4020 C   0  0  0  0  0  3  0  0  0  0  0  0
  -22.8260  -10.2390   20.2180 C   0  0  0  0  0  3  0  0  0  0  0  0
  -21.8340   -6.9240   21.4280 O   0  0  0  0  0  0  0  0  0  0  0  0
  -21.7740   -6.2010   22.5920 C   0  0  0  0  0  0  0  0  0  0  0  0
  -21.2660   -6.7540   23.7870 C   0  0  0  0  0  3  0  0  0  0  0  0
  -21.1580   -5.9540   24.9430 C   0  0  0  0  0  3  0  0  0  0  0  0
  -21.5490   -4.6010   24.9030 C   0  0  0  0  0  0  0  0  0  0  0  0
  -22.0500   -4.0480   23.7120 C   0  0  0  0  0  3  0  0  0  0  0  0
  -22.1600   -4.8460   22.5580 C   0  0  0  0  0  0  0  0  0  0  0  0
  -22.6240   -4.3020   21.4070 F   0  0  0  0  0  0  0  0  0  0  0  0
  -21.4380   -3.8310   26.0100 F   0  0  0  0  0  0  0  0  0  0  0  0
  -22.8290  -13.5880   21.2340 C   0  0  0  0  0  0  0  0  0  0  0  0
  -22.1580  -12.8600   22.1210 N   0  0  0  0  0  0  0  0  0  0  0  0
  -22.3510  -14.6200   20.7670 O   0  0  0  0  0  0  0  0  0  0  0  0
  -22.5570  -12.0240   22.5200 H   0  0  0  0  0  0  0  0  0  0  0  0
  -21.2300  -13.1430   22.4050 H   0  0  0  0  0  0  0  0  0  0  0  0
  -25.3920  -15.3050   20.3160 N   0  0  0  0  0  0  0  0  0  0  0  0
  -24.6220  -15.9470   20.4790 H   0  0  0  0  0  0  0  0  0  0  0  0
  -26.2090  -15.7610   19.9290 H   0  0  0  0  0  0  0  0  0  0  0  0
  -28.3520  -24.2070   19.6860 C   0  0  0  0  0  2  0  0  0  0  0  0
  -28.5170  -25.4300   20.6550 C   0  0  0  0  0  2  0  0  0  0  0  0
  -28.5310  -26.7590   20.0690 O   0  0  0  0  0  0  0  0  0  0  0  0
  -24.5600  -31.8310   23.2020 C   0  0  0  0  0  0  0  0  0  0  0  0
  -27.3540  -27.4840   20.0890 C   0  0  0  0  0  0  0  0  0  0  0  0
  -23.4220  -30.4530   21.4920 C   0  0  0  0  0  3  0  0  0  0  0  0
  -24.9380  -28.9700   20.0690 C   0  0  0  0  0  0  0  0  0  0  0  0
  -25.9470  -30.8530   21.3690 C   0  0  0  0  0  2  0  0  0  0  0  0
  -26.0740  -29.4970   20.6970 C   0  0  0  0  0  0  0  0  0  0  0  0
  -27.2880  -28.7650   20.6950 C   0  0  0  0  0  3  0  0  0  0  0  0
  -26.2000  -26.9760   19.4580 C   0  0  0  0  0  3  0  0  0  0  0  0
  -24.9980  -27.7110   19.4450 C   0  0  0  0  0  3  0  0  0  0  0  0
  -23.6790  -29.8110   20.1020 C   0  0  0  0  0  2  0  0  0  0  0  0
  -24.6600  -31.0600   22.0800 N   0  0  0  0  0  0  0  0  0  0  0  0
  -23.4600  -32.0700   23.7200 O   0  0  0  0  0  0  0  0  0  0  0  0
  -22.7620  -29.3970   22.4090 C   0  0  0  0  0  0  0  0  0  0  0  0
  -21.4350  -29.2340   22.2790 N   0  0  0  0  0  0  0  0  0  0  0  0
  -23.4410  -28.7290   23.1940 O   0  0  0  0  0  0  0  0  0  0  0  0
  -20.9470  -29.8260   21.6210 H   0  0  0  0  0  0  0  0  0  0  0  0
  -18.0410  -28.1030   22.7940 C   0  0  0  0  0  0  0  0  0  0  0  0
  -20.6120  -28.2700   23.0090 C   0  0  0  0  0  3  0  0  0  0  0  0
  -20.6570  -26.8790   22.3360 C   0  0  0  0  0  2  0  0  0  0  0  0
  -19.5180  -26.6570   21.3340 C   0  0  0  0  0  2  0  0  0  0  0  0
  -18.1590  -26.7970   22.0260 C   0  0  0  0  0  2  0  0  0  0  0  0
  -19.1940  -28.8020   23.2420 C   0  0  0  0  0  0  0  0  0  0  0  0
  -19.0290  -30.0290   23.9220 C   0  0  0  0  0  3  0  0  0  0  0  0
  -17.7440  -30.5550   24.1580 C   0  0  0  0  0  3  0  0  0  0  0  0
  -16.6080  -29.8510   23.7260 C   0  0  0  0  0  3  0  0  0  0  0  0
  -16.7570  -28.6270   23.0500 C   0  0  0  0  0  3  0  0  0  0  0  0
  -25.8180  -32.4660   23.8720 C   0  0  0  0  0  3  0  0  0  0  0  0
  -26.2810  -31.7040   25.1740 C   0  0  1  0  0  0  0  0  0  0  0  0
  -25.1440  -31.4700   26.1950 C   0  0  0  0  0  1  0  0  0  0  0  0
  -26.8840  -30.3260   24.8120 C   0  0  0  0  0  1  0  0  0  0  0  0
  -27.4010  -32.5050   25.8790 C   0  0  0  0  0  1  0  0  0  0  0  0
  -25.4960  -33.8670   24.1780 N   0  0  0  0  0  0  0  0  0  0  0  0
  -25.8570  -34.9130   23.4210 C   0  0  0  0  0  0  0  0  0  0  0  0
  -26.5640  -34.7990   22.4160 O   0  0  0  0  0  0  0  0  0  0  0  0
  -24.8720  -34.0290   24.9540 H   0  0  0  0  0  0  0  0  0  0  0  0
  -24.1500  -36.7050   22.9760 C   0  0  0  0  0  1  0  0  0  0  0  0
  -25.3520  -36.3050   23.8470 C   0  0  0  0  0  3  0  0  0  0  0  0
  -27.4380  -37.2020   24.7800 C   0  0  0  0  0  1  0  0  0  0  0  0
  -26.3900  -37.3550   23.7740 N   0  0  0  0  0  0  0  0  0  0  0  0
  -25.9780  -38.2770   23.8830 H   0  0  0  0  0  0  0  0  0  0  0  0
  1  8  1  0
  1 10  1  0
  2  8  1  0
  3  7  2  0
  3  6  1  0
  4  1  2  0
  5  4  1  0
  5  2  2  0
  6  2  1  0
  6  9  1  0
 11 19  1  0
 12 17  1  0
 13 14  1  0
 13 12  1  0
 15 14  1  0
 15 24  1  0
 15 16  1  0
 17 11  1  0
 17 16  1  0
 18 11  2  0
 19 20  1  0
 19 10  1  0
 21 22  2  0
 22 41  1  0
 23 22  1  0
 23 26  1  0
 24 25  1  0
 24 21  1  0
 25 23  2  0
 26 27  1  0
 27 28  2  0
 29 32  1  0
 29 28  1  0
 30 29  2  0
 31 30  1  0
 31 26  2  0
 32 33  1  0
 33 34  1  0
 34 35  2  0
 36 35  1  0
 36 40  1  0
 37 36  2  0
 38 33  2  0
 38 37  1  0
 39 38  1  0
 41 42  1  0
 42 45  1  0
 42 44  1  0
 43 41  2  0
 46 21  1  0
 46 47  1  0
 48 46  1  0
 49  3  1  0
 49 50  1  0
 51 53  1  0
 51 50  1  0
 52 63  2  0
 53 58  1  0
 54 62  1  0
 54 64  1  0
 55 61  1  0
 55 57  1  0
 56 62  1  0
 57 56  1  0
 58 57  2  0
 59 53  2  0
 60 59  1  0
 60 55  2  0
 61 54  1  0
 62 52  1  0
 64 66  2  0
 65 64  1  0
 67 65  1  0
 68 77  2  0
 68 73  1  0
 69 65  1  0
 69 73  1  0
 70 69  1  0
 71 72  1  0
 71 70  1  0
 72 68  1  0
 73 74  2  0
 74 75  1  0
 76 75  2  0
 77 76  1  0
 78 52  1  0
 78 83  1  0
 78 79  1  0
 79 82  1  1
 79 80  1  0
 81 79  1  0
 83 86  1  0
 84 88  1  0
 84 83  1  0
 85 84  2  0
 88 87  1  0
 90 88  1  0
 90 91  1  0
 90 89  1  0
M  ISO  4  11 100  19 100  50 101  51 101
M  END
>  <TORSDO>  (7) 
F 19

>  <SCORE>  (7) 
-13.408

>  <name>  (7) 
6

>  <ligand_id>  (7) 
6

>  <original_smiles>  (7) 
[H]c1c([H])c([H])c2c(c1[H])C([H])([H])C([H])([H])C([H])([H])C2([H])N([H])C(=O)C1([H])N(C(=O)C([H])(N([H])C(=O)C([H])(N([H])C([H])([H])[H])C([H])([H])[H])C(C([H])([H])[H])(C([H])([H])[H])C([H])([H])[H])C([H])([H])c2c([H])c(OC([H])([H])C([H])([H])C(=O)N([H])c3nnc(C([H])([H])N([H])C(=O)N4C([H])([H])C([H])([H])C([H])([H])C([H])(n5nc(-c6c([H])c([H])c(Oc7c([H])c([H])c(F)c([H])c7F)c([H])c6[H])c(C(=O)N([H])[H])c5N([H])[H])C4([H])[H])s3)c([H])c([H])c2C1([H])[H]

>  <smiles>  (7) 
[H]c1c([H])c([H])c2c(c1[H])C([H])([H])C([H])([H])C([H])([H])C2([H])N([H])C(=O)C1([H])N(C(=O)C([H])(N([H])C(=O)C([H])(N([H])C([H])([H])[H])C([H])([H])[H])C(C([H])([H])[H])(C([H])([H])[H])C([H])([H])[H])C([H])([H])c2c([H])c(OC([H])([H])C([H])([H])C(=O)N([H])c3nnc(C([H])([H])N([H])C(=O)N4C([H])([H])C([H])([H])C([H])([H])C([H])(n5nc(-c6c([H])c([H])c(Oc7c([H])c([H])c(F)c([H])c7F)c([H])c6[H])c(C(=O)N([H])[H])c5N([H])[H])C4([H])[H])s3)c([H])c([H])c2C1([H])[H]

$$$$
7:0:0
     RDKit          3D

 92100  0  0  1  0  0  0  0  0999 V2000
  -28.8030  -22.9700   20.4500 C   0  0  0  0  0  0  0  0  0  0  0  0
  -29.6000  -21.8750   20.5500 N   0  0  0  0  0  0  0  0  0  0  0  0
  -27.6070  -22.8820   20.1600 O   0  0  0  0  0  0  0  0  0  0  0  0
  -30.5870  -22.0520   20.7000 H   0  0  0  0  0  0  0  0  0  0  0  0
  -27.8810  -20.0650   20.3570 C   0  0  0  0  0  3  0  0  0  0  0  0
  -30.2090  -19.4800   20.2690 C   0  0  0  0  0  3  0  0  0  0  0  0
  -27.5810  -18.7070   20.1600 C   0  0  0  0  0  3  0  0  0  0  0  0
  -29.2270  -20.4930   20.3820 C   0  0  0  0  0  0  0  0  0  0  0  0
  -29.8170  -18.1260   20.1070 C   0  0  0  0  0  0  0  0  0  0  0  0
  -28.5230  -17.7470   20.0400 N   0  0  0  0  0  0  0  0  0  0  0  0
  -30.8570  -17.0130   19.9940 C   0  0  0  0  0  2  0  0  0  0  0  0
  -31.0320  -14.5490   19.9430 C   0  0  0  0  0  0  0  0  0  0  0  0
  -30.6500  -12.3240   18.9610 C   0  0  0  0  0  2  0  0  0  0  0  0
  -29.6570  -12.4570   17.7900 C   0  0  0  0  0  2  0  0  0  0  0  0
  -28.2060  -12.3460   18.2960 C   0  0  0  0  0  2  0  0  0  0  0  0
  -27.9230  -13.2650   19.5130 C   0  0  0  0  0  3  0  0  0  0  0  0
  -29.0320  -13.1400   20.5850 C   0  0  0  0  0  2  0  0  0  0  0  0
  -30.3290  -13.3830   19.9340 N   0  0  0  0  0  0  0  0  0  0  0  0
  -32.1500  -14.6500   19.4370 O   0  0  0  0  0  0  0  0  0  0  0  0
  -30.3840  -15.6570   20.3420 N   0  0  0  0  0  0  0  0  0  0  0  0
  -29.4610  -15.5990   20.7520 H   0  0  0  0  0  0  0  0  0  0  0  0
  -25.5910  -13.9170   20.3720 C   0  0  0  0  0  0  0  0  0  0  0  0
  -24.5220  -13.1640   20.7830 C   0  0  0  0  0  0  0  0  0  0  0  0
  -24.9460  -11.8010   20.7040 C   0  0  0  0  0  0  0  0  0  0  0  0
  -26.5950  -13.0120   20.0670 N   0  0  0  0  0  0  0  0  0  0  0  0
  -26.2140  -11.7330   20.3250 N   0  0  0  0  0  0  0  0  0  0  0  0
  -24.1930  -10.5560   20.9080 C   0  0  0  0  0  0  0  0  0  0  0  0
  -24.6040   -9.5910   21.8550 C   0  0  0  0  0  3  0  0  0  0  0  0
  -23.8550   -8.4090   22.0470 C   0  0  0  0  0  3  0  0  0  0  0  0
  -22.6770   -8.1860   21.2930 C   0  0  0  0  0  0  0  0  0  0  0  0
  -22.2840   -9.1400   20.3360 C   0  0  0  0  0  3  0  0  0  0  0  0
  -23.0340  -10.3120   20.1420 C   0  0  0  0  0  3  0  0  0  0  0  0
  -21.9010   -7.0570   21.3960 O   0  0  0  0  0  0  0  0  0  0  0  0
  -21.7740   -6.3760   22.5800 C   0  0  0  0  0  0  0  0  0  0  0  0
  -21.3020   -7.0040   23.7530 C   0  0  0  0  0  3  0  0  0  0  0  0
  -21.1190   -6.2520   24.9300 C   0  0  0  0  0  3  0  0  0  0  0  0
  -21.3970   -4.8700   24.9350 C   0  0  0  0  0  0  0  0  0  0  0  0
  -21.8610   -4.2420   23.7670 C   0  0  0  0  0  3  0  0  0  0  0  0
  -22.0450   -4.9930   22.5910 C   0  0  0  0  0  0  0  0  0  0  0  0
  -22.4730   -4.3790   21.4610 F   0  0  0  0  0  0  0  0  0  0  0  0
  -21.2160   -4.1450   26.0620 F   0  0  0  0  0  0  0  0  0  0  0  0
  -23.1570  -13.6710   21.1490 C   0  0  0  0  0  0  0  0  0  0  0  0
  -22.4750  -12.9880   22.0620 N   0  0  0  0  0  0  0  0  0  0  0  0
  -22.7070  -14.7040   20.6590 O   0  0  0  0  0  0  0  0  0  0  0  0
  -22.8530  -12.1460   22.4720 H   0  0  0  0  0  0  0  0  0  0  0  0
  -21.5630  -13.3090   22.3560 H   0  0  0  0  0  0  0  0  0  0  0  0
  -25.7910  -15.2830   20.2110 N   0  0  0  0  0  0  0  0  0  0  0  0
  -25.0680  -15.9740   20.3820 H   0  0  0  0  0  0  0  0  0  0  0  0
  -26.6600  -15.6960   19.8930 H   0  0  0  0  0  0  0  0  0  0  0  0
  -29.4070  -24.3800   20.6980 C   0  0  0  0  0  2  0  0  0  0  0  0
  -28.9180  -25.4890   19.7050 C   0  0  0  0  0  2  0  0  0  0  0  0
  -28.7310  -26.7950   20.3110 O   0  0  0  0  0  0  0  0  0  0  0  0
  -24.5750  -31.7790   23.2840 C   0  0  0  0  0  0  0  0  0  0  0  0
  -27.5130  -27.4670   20.2410 C   0  0  0  0  0  0  0  0  0  0  0  0
  -23.4880  -30.3520   21.5830 C   0  0  0  0  0  3  0  0  0  0  0  0
  -25.0540  -28.9020   20.1890 C   0  0  0  0  0  0  0  0  0  0  0  0
  -26.0050  -30.8150   21.4790 C   0  0  0  0  0  2  0  0  0  0  0  0
  -26.1710  -29.4560   20.8240 C   0  0  0  0  0  0  0  0  0  0  0  0
  -27.3990  -28.7510   20.8410 C   0  0  0  0  0  3  0  0  0  0  0  0
  -26.3680  -26.9460   19.5890 C   0  0  0  0  0  3  0  0  0  0  0  0
  -25.1510  -27.6480   19.5700 C   0  0  0  0  0  3  0  0  0  0  0  0
  -23.7700  -29.7000   20.2060 C   0  0  0  0  0  2  0  0  0  0  0  0
  -24.7040  -30.9950   22.1730 N   0  0  0  0  0  0  0  0  0  0  0  0
  -23.4660  -31.9980   23.7910 O   0  0  0  0  0  0  0  0  0  0  0  0
  -22.8470  -29.2920   22.5070 C   0  0  0  0  0  0  0  0  0  0  0  0
  -21.5360  -29.0510   22.3280 N   0  0  0  0  0  0  0  0  0  0  0  0
  -23.5270  -28.6900   23.3420 O   0  0  0  0  0  0  0  0  0  0  0  0
  -21.0460  -29.5900   21.6300 H   0  0  0  0  0  0  0  0  0  0  0  0
  -18.2040  -27.7050   22.7040 C   0  0  0  0  0  0  0  0  0  0  0  0
  -20.7390  -28.0670   23.0600 C   0  0  0  0  0  3  0  0  0  0  0  0
  -20.9200  -26.6470   22.4700 C   0  0  0  0  0  2  0  0  0  0  0  0
  -19.8620  -26.2920   21.4220 C   0  0  0  0  0  2  0  0  0  0  0  0
  -18.4580  -26.3680   22.0270 C   0  0  0  0  0  2  0  0  0  0  0  0
  -19.2760  -28.5080   23.1760 C   0  0  0  0  0  0  0  0  0  0  0  0
  -18.9840  -29.7540   23.7710 C   0  0  0  0  0  3  0  0  0  0  0  0
  -17.6550  -30.2020   23.8920 C   0  0  0  0  0  3  0  0  0  0  0  0
  -16.5980  -29.3940   23.4400 C   0  0  0  0  0  3  0  0  0  0  0  0
  -16.8750  -28.1440   22.8540 C   0  0  0  0  0  3  0  0  0  0  0  0
  -25.8130  -32.4580   23.9500 C   0  0  0  0  0  3  0  0  0  0  0  0
  -26.2650  -31.7480   25.2860 C   0  0  1  0  0  0  0  0  0  0  0  0
  -25.1090  -31.5210   26.2880 C   0  0  0  0  0  1  0  0  0  0  0  0
  -26.9020  -30.3710   24.9880 C   0  0  0  0  0  1  0  0  0  0  0  0
  -27.3590  -32.5900   25.9850 C   0  0  0  0  0  1  0  0  0  0  0  0
  -25.4630  -33.8620   24.2010 N   0  0  0  0  0  0  0  0  0  0  0  0
  -25.8190  -34.8850   23.4120 C   0  0  0  0  0  0  0  0  0  0  0  0
  -26.5440  -34.7480   22.4210 O   0  0  0  0  0  0  0  0  0  0  0  0
  -24.8160  -34.0400   24.9570 H   0  0  0  0  0  0  0  0  0  0  0  0
  -24.0830  -36.6250   22.8840 C   0  0  0  0  0  1  0  0  0  0  0  0
  -25.2870  -36.2830   23.7780 C   0  0  0  0  0  3  0  0  0  0  0  0
  -27.3540  -37.2390   24.6910 C   0  0  0  0  0  1  0  0  0  0  0  0
  -26.3090  -37.3470   23.6770 N   0  0  0  0  0  0  0  0  0  0  0  0
  -25.8790  -38.2630   23.7590 H   0  0  0  0  0  0  0  0  0  0  0  0
  1  2  1  0
  1 50  1  0
  2  4  1  0
  3  1  2  0
  5  8  1  0
  6  8  2  0
  7  5  2  0
  8  2  1  0
  9  6  1  0
 10  9  2  0
 10  7  1  0
 11  9  1  0
 11 20  1  0
 12 20  1  0
 13 18  1  0
 14 15  1  0
 14 13  1  0
 16 15  1  0
 16 25  1  0
 16 17  1  0
 18 12  1  0
 18 17  1  0
 19 12  2  0
 20 21  1  0
 22 23  2  0
 23 42  1  0
 24 23  1  0
 24 27  1  0
 25 26  1  0
 25 22  1  0
 26 24  2  0
 27 28  1  0
 28 29  2  0
 30 33  1  0
 30 29  1  0
 31 30  2  0
 32 31  1  0
 32 27  2  0
 33 34  1  0
 34 39  2  0
 34 35  1  0
 35 36  2  0
 36 37  1  0
 37 41  1  0
 38 37  2  0
 39 38  1  0
 40 39  1  0
 42 43  1  0
 43 46  1  0
 43 45  1  0
 44 42  2  0
 47 22  1  0
 47 48  1  0
 49 47  1  0
 51 52  1  0
 51 50  1  0
 53 64  2  0
 54 52  1  0
 54 59  1  0
 55 63  1  0
 55 65  1  0
 56 62  1  0
 56 58  1  0
 57 63  1  0
 58 59  2  0
 58 57  1  0
 60 54  2  0
 61 60  1  0
 61 56  2  0
 62 55  1  0
 63 53  1  0
 65 67  2  0
 66 65  1  0
 68 66  1  0
 69 78  2  0
 69 74  1  0
 70 66  1  0
 70 74  1  0
 71 70  1  0
 72 73  1  0
 72 71  1  0
 73 69  1  0
 74 75  2  0
 75 76  1  0
 77 76  2  0
 78 77  1  0
 79 53  1  0
 79 84  1  0
 79 80  1  0
 80 83  1  1
 80 81  1  0
 82 80  1  0
 84 87  1  0
 85 89  1  0
 85 84  1  0
 86 85  2  0
 89 88  1  0
 91 92  1  0
 91 89  1  0
 91 90  1  0
M  ISO  4  12 100  20 100  51 101  52 101
M  END
>  <TORSDO>  (8) 
F 20

>  <SCORE>  (8) 
-13.482

>  <name>  (8) 
7

>  <ligand_id>  (8) 
7

>  <original_smiles>  (8) 
[H]c1nc(C([H])([H])N([H])C(=O)N2C([H])([H])C([H])([H])C([H])([H])C([H])(n3nc(-c4c([H])c([H])c(Oc5c([H])c([H])c(F)c([H])c5F)c([H])c4[H])c(C(=O)N([H])[H])c3N([H])[H])C2([H])[H])c([H])c(N([H])C(=O)C([H])([H])C([H])([H])Oc2c([H])c([H])c3c(c2[H])C([H])([H])N(C(=O)C([H])(N([H])C(=O)C([H])(N([H])C([H])([H])[H])C([H])([H])[H])C(C([H])([H])[H])(C([H])([H])[H])C([H])([H])[H])C([H])(C(=O)N([H])C2([H])c4c([H])c([H])c([H])c([H])c4C([H])([H])C([H])([H])C2([H])[H])C3([H])[H])c1[H]

>  <smiles>  (8) 
[H]c1nc(C([H])([H])N([H])C(=O)N2C([H])([H])C([H])([H])C([H])([H])C([H])(n3nc(-c4c([H])c([H])c(Oc5c([H])c([H])c(F)c([H])c5F)c([H])c4[H])c(C(=O)N([H])[H])c3N([H])[H])C2([H])[H])c([H])c(N([H])C(=O)C([H])([H])C([H])([H])Oc2c([H])c([H])c3c(c2[H])C([H])([H])N(C(=O)C([H])(N([H])C(=O)C([H])(N([H])C([H])([H])[H])C([H])([H])[H])C(C([H])([H])[H])(C([H])([H])[H])C([H])([H])[H])C([H])(C(=O)N([H])C2([H])c4c([H])c([H])c([H])c([H])c4C([H])([H])C([H])([H])C2([H])[H])C3([H])[H])c1[H]

$$$$
8:0:0
     RDKit          3D

 95103  0  0  1  0  0  0  0  0999 V2000
  -28.7410  -18.0060   20.6690 C   0  0  0  0  0  3  0  0  0  0  0  0
  -29.9280  -17.2090   20.6020 C   0  0  0  0  0  0  0  0  0  0  0  0
  -29.8980  -20.0270   20.4780 C   0  0  0  0  0  0  0  0  0  0  0  0
  -31.0920  -19.2420   20.3940 C   0  0  0  0  0  0  0  0  0  0  0  0
  -28.7120  -19.3800   20.5990 N   0  0  0  0  0  0  0  0  0  0  0  0
  -31.1120  -17.8760   20.4530 N   0  0  0  0  0  0  0  0  0  0  0  0
  -32.3260  -19.8590   20.2240 N   0  0  0  0  0  0  0  0  0  0  0  0
  -29.9640  -21.4580   20.4610 N   0  0  0  0  0  0  0  0  0  0  0  0
  -32.2920  -20.7710   19.7840 H   0  0  0  0  0  0  0  0  0  0  0  0
  -33.0670  -19.2760   19.8560 H   0  0  0  0  0  0  0  0  0  0  0  0
  -30.8920  -21.8480   20.5930 H   0  0  0  0  0  0  0  0  0  0  0  0
  -30.5870  -14.6970   20.4030 C   0  0  0  0  0  0  0  0  0  0  0  0
  -30.3790  -12.4660   19.3240 C   0  0  0  0  0  2  0  0  0  0  0  0
  -29.4350  -12.6030   18.1080 C   0  0  0  0  0  2  0  0  0  0  0  0
  -27.9630  -12.4330   18.5350 C   0  0  0  0  0  2  0  0  0  0  0  0
  -27.6000  -13.2840   19.7820 C   0  0  0  0  0  3  0  0  0  0  0  0
  -28.6600  -13.1270   20.8960 C   0  0  0  0  0  2  0  0  0  0  0  0
  -29.9680  -13.4760   20.3200 N   0  0  0  0  0  0  0  0  0  0  0  0
  -31.7590  -14.8390   20.0420 O   0  0  0  0  0  0  0  0  0  0  0  0
  -29.7730  -15.7570   20.7150 N   0  0  0  0  0  0  0  0  0  0  0  0
  -28.8420  -15.4640   20.9660 H   0  0  0  0  0  0  0  0  0  0  0  0
  -25.2020  -13.8700   20.4930 C   0  0  0  0  0  0  0  0  0  0  0  0
  -24.1380  -13.0920   20.8600 C   0  0  0  0  0  0  0  0  0  0  0  0
  -24.6070  -11.7430   20.8310 C   0  0  0  0  0  0  0  0  0  0  0  0
  -26.2510  -12.9950   20.2620 N   0  0  0  0  0  0  0  0  0  0  0  0
  -25.8980  -11.7110   20.5260 N   0  0  0  0  0  0  0  0  0  0  0  0
  -23.8850  -10.4780   21.0170 C   0  0  0  0  0  0  0  0  0  0  0  0
  -24.3080   -9.5200   21.9640 C   0  0  0  0  0  3  0  0  0  0  0  0
  -23.5860   -8.3180   22.1370 C   0  0  0  0  0  3  0  0  0  0  0  0
  -22.4280   -8.0670   21.3650 C   0  0  0  0  0  0  0  0  0  0  0  0
  -22.0260   -9.0150   20.4070 C   0  0  0  0  0  3  0  0  0  0  0  0
  -22.7470  -10.2070   20.2310 C   0  0  0  0  0  3  0  0  0  0  0  0
  -21.6800   -6.9170   21.4470 O   0  0  0  0  0  0  0  0  0  0  0  0
  -21.6010   -6.1930   22.6080 C   0  0  0  0  0  0  0  0  0  0  0  0
  -21.1080   -6.7570   23.8060 C   0  0  0  0  0  3  0  0  0  0  0  0
  -20.9760   -5.9580   24.9590 C   0  0  0  0  0  3  0  0  0  0  0  0
  -21.3270   -4.5960   24.9160 C   0  0  0  0  0  0  0  0  0  0  0  0
  -21.8130   -4.0310   23.7230 C   0  0  0  0  0  3  0  0  0  0  0  0
  -21.9460   -4.8270   22.5730 C   0  0  0  0  0  0  0  0  0  0  0  0
  -22.3950   -4.2730   21.4210 F   0  0  0  0  0  0  0  0  0  0  0  0
  -21.1930   -3.8250   26.0210 F   0  0  0  0  0  0  0  0  0  0  0  0
  -22.7370  -13.5630   21.1250 C   0  0  0  0  0  0  0  0  0  0  0  0
  -22.0080  -12.8670   21.9890 N   0  0  0  0  0  0  0  0  0  0  0  0
  -22.2960  -14.5850   20.5980 O   0  0  0  0  0  0  0  0  0  0  0  0
  -22.3770  -12.0420   22.4390 H   0  0  0  0  0  0  0  0  0  0  0  0
  -21.0680  -13.1660   22.2070 H   0  0  0  0  0  0  0  0  0  0  0  0
  -25.3580  -15.2420   20.3140 N   0  0  0  0  0  0  0  0  0  0  0  0
  -24.5740  -15.8780   20.4000 H   0  0  0  0  0  0  0  0  0  0  0  0
  -26.1660  -15.6720   19.8830 H   0  0  0  0  0  0  0  0  0  0  0  0
  -28.8430  -22.4360   20.3280 C   0  0  0  0  0  2  0  0  0  0  0  0
  -29.2410  -23.9820   20.4740 C   0  0  0  0  0  3  0  0  0  0  0  0
  -29.7230  -24.1080   21.8020 O   0  0  0  0  0  0  0  0  0  0  0  0
  -29.0330  -23.8110   22.3850 H   0  0  0  0  0  0  0  0  0  0  0  0
  -28.0700  -25.0450   20.2570 C   0  0  0  0  0  2  0  0  0  0  0  0
  -28.3260  -26.5090   20.3090 O   0  0  0  0  0  0  0  0  0  0  0  0
  -24.6090  -31.9440   23.2910 C   0  0  0  0  0  0  0  0  0  0  0  0
  -27.2100  -27.3650   20.2560 C   0  0  0  0  0  0  0  0  0  0  0  0
  -23.4040  -30.5520   21.6490 C   0  0  0  0  0  3  0  0  0  0  0  0
  -24.8510  -28.9920   20.2340 C   0  0  0  0  0  0  0  0  0  0  0  0
  -25.9460  -30.8550   21.4750 C   0  0  0  0  0  2  0  0  0  0  0  0
  -26.0220  -29.4750   20.8320 C   0  0  0  0  0  0  0  0  0  0  0  0
  -27.2050  -28.6750   20.8310 C   0  0  0  0  0  3  0  0  0  0  0  0
  -26.0110  -26.9370   19.6360 C   0  0  0  0  0  3  0  0  0  0  0  0
  -24.8480  -27.7270   19.6270 C   0  0  0  0  0  3  0  0  0  0  0  0
  -23.6190  -29.8730   20.2720 C   0  0  0  0  0  2  0  0  0  0  0  0
  -24.6720  -31.1340   22.1950 N   0  0  0  0  0  0  0  0  0  0  0  0
  -23.5250  -32.2310   23.8190 O   0  0  0  0  0  0  0  0  0  0  0  0
  -22.7290  -29.5410   22.6060 C   0  0  0  0  0  0  0  0  0  0  0  0
  -21.4020  -29.3730   22.4690 N   0  0  0  0  0  0  0  0  0  0  0  0
  -23.3970  -28.9120   23.4300 O   0  0  0  0  0  0  0  0  0  0  0  0
  -20.9230  -29.9290   21.7760 H   0  0  0  0  0  0  0  0  0  0  0  0
  -18.0090  -28.2160   22.9570 C   0  0  0  0  0  0  0  0  0  0  0  0
  -20.5690  -28.4440   23.2370 C   0  0  0  0  0  3  0  0  0  0  0  0
  -20.6560  -27.0120   22.6600 C   0  0  0  0  0  2  0  0  0  0  0  0
  -19.5540  -26.7050   21.6410 C   0  0  0  0  0  2  0  0  0  0  0  0
  -18.1720  -26.8650   22.2800 C   0  0  0  0  0  2  0  0  0  0  0  0
  -19.1360  -28.9650   23.3920 C   0  0  0  0  0  0  0  0  0  0  0  0
  -18.9310  -30.2290   23.9840 C   0  0  0  0  0  3  0  0  0  0  0  0
  -17.6310  -30.7460   24.1480 C   0  0  0  0  0  3  0  0  0  0  0  0
  -16.5190  -29.9950   23.7290 C   0  0  0  0  0  3  0  0  0  0  0  0
  -16.7090  -28.7330   23.1390 C   0  0  0  0  0  3  0  0  0  0  0  0
  -25.8920  -32.5670   23.9200 C   0  0  0  0  0  3  0  0  0  0  0  0
  -26.3910  -31.7950   25.2040 C   0  0  1  0  0  0  0  0  0  0  0  0
  -25.2850  -31.5720   26.2630 C   0  0  0  0  0  1  0  0  0  0  0  0
  -26.9650  -30.4110   24.8220 C   0  0  0  0  0  1  0  0  0  0  0  0
  -27.5430  -32.5820   25.8730 C   0  0  0  0  0  1  0  0  0  0  0  0
  -25.5930  -33.9690   24.2440 N   0  0  0  0  0  0  0  0  0  0  0  0
  -25.9210  -35.0160   23.4750 C   0  0  0  0  0  0  0  0  0  0  0  0
  -26.5780  -34.9010   22.4360 O   0  0  0  0  0  0  0  0  0  0  0  0
  -25.0030  -34.1310   25.0480 H   0  0  0  0  0  0  0  0  0  0  0  0
  -24.1870  -36.8080   23.1420 C   0  0  0  0  0  1  0  0  0  0  0  0
  -25.4450  -36.4090   23.9290 C   0  0  0  0  0  3  0  0  0  0  0  0
  -27.5980  -37.3010   24.7060 C   0  0  0  0  0  1  0  0  0  0  0  0
  -26.4770  -37.4600   23.7820 N   0  0  0  0  0  0  0  0  0  0  0  0
  -26.0760  -38.3820   23.9260 H   0  0  0  0  0  0  0  0  0  0  0  0
  2  1  1  0
  2 20  1  0
  3  5  1  0
  4  6  1  0
  4  3  2  0
  5  1  2  0
  6  2  2  0
  7  4  1  0
  8  3  1  0
  8 11  1  0
  9  7  1  0
 10  7  1  0
 12 20  1  0
 13 18  1  0
 14 15  1  0
 14 13  1  0
 16 15  1  0
 16 25  1  0
 16 17  1  0
 18 12  1  0
 18 17  1  0
 19 12  2  0
 20 21  1  0
 22 23  2  0
 23 42  1  0
 24 23  1  0
 24 27  1  0
 25 22  1  0
 25 26  1  0
 26 24  2  0
 27 28  1  0
 28 29  2  0
 30 33  1  0
 30 29  1  0
 31 30  2  0
 32 31  1  0
 32 27  2  0
 33 34  1  0
 34 35  1  0
 35 36  2  0
 37 36  1  0
 37 41  1  0
 38 37  2  0
 39 34  2  0
 39 38  1  0
 40 39  1  0
 42 43  1  0
 43 46  1  0
 43 45  1  0
 44 42  2  0
 47 48  1  0
 47 22  1  0
 49 47  1  0
 50  8  1  0
 50 51  1  0
 51 54  1  0
 51 52  1  0
 52 53  1  0
 54 55  1  0
 56 67  2  0
 57 55  1  0
 57 62  1  0
 58 66  1  0
 58 68  1  0
 59 65  1  0
 59 61  1  0
 60 66  1  0
 61 60  1  0
 62 61  2  0
 63 57  2  0
 64 63  1  0
 64 59  2  0
 65 58  1  0
 66 56  1  0
 68 70  2  0
 69 68  1  0
 71 69  1  0
 72 81  2  0
 72 77  1  0
 73 69  1  0
 73 77  1  0
 74 73  1  0
 75 76  1  0
 75 74  1  0
 76 72  1  0
 77 78  2  0
 78 79  1  0
 80 79  2  0
 81 80  1  0
 82 56  1  0
 82 87  1  0
 82 83  1  0
 83 86  1  1
 83 84  1  0
 85 83  1  0
 87 90  1  0
 88 92  1  0
 88 87  1  0
 89 88  2  0
 92 91  1  0
 94 95  1  0
 94 92  1  0
 94 93  1  0
M  ISO  4  12 100  20 100  54 101  55 101
M  END
>  <TORSDO>  (9) 
F 20

>  <SCORE>  (9) 
-14.156

>  <name>  (9) 
8

>  <ligand_id>  (9) 
8

>  <original_smiles>  (9) 
[H]OC([H])(C([H])([H])Oc1c([H])c([H])c2c(c1[H])C([H])([H])N(C(=O)C([H])(N([H])C(=O)C([H])(N([H])C([H])([H])[H])C([H])([H])[H])C(C([H])([H])[H])(C([H])([H])[H])C([H])([H])[H])C([H])(C(=O)N([H])C1([H])c3c([H])c([H])c([H])c([H])c3C([H])([H])C([H])([H])C1([H])[H])C2([H])[H])C([H])([H])N([H])c1nc([H])c(N([H])C(=O)N2C([H])([H])C([H])([H])C([H])([H])C([H])(n3nc(-c4c([H])c([H])c(Oc5c([H])c([H])c(F)c([H])c5F)c([H])c4[H])c(C(=O)N([H])[H])c3N([H])[H])C2([H])[H])nc1N([H])[H]

>  <smiles>  (9) 
[H]OC([H])(C([H])([H])Oc1c([H])c([H])c2c(c1[H])C([H])([H])N(C(=O)C([H])(N([H])C(=O)C([H])(N([H])C([H])([H])[H])C([H])([H])[H])C(C([H])([H])[H])(C([H])([H])[H])C([H])([H])[H])C([H])(C(=O)N([H])C1([H])c3c([H])c([H])c([H])c([H])c3C([H])([H])C([H])([H])C1([H])[H])C2([H])[H])C([H])([H])N([H])c1nc([H])c(N([H])C(=O)N2C([H])([H])C([H])([H])C([H])([H])C([H])(n3nc(-c4c([H])c([H])c(Oc5c([H])c([H])c(F)c([H])c5F)c([H])c4[H])c(C(=O)N([H])[H])c3N([H])[H])C2([H])[H])nc1N([H])[H]

$$$$
9:0:0
     RDKit          3D

 90 98  0  0  1  0  0  0  0  0999 V2000
  -28.8660  -22.1470   20.0250 C   0  0  0  0  0  3  0  0  0  0  0  0
  -29.5100  -20.9350   20.9000 C   0  0  0  0  0  3  0  0  0  0  0  0
  -30.5570  -14.7660   20.3530 C   0  0  0  0  0  0  0  0  0  0  0  0
  -30.3720  -12.4780   19.3570 C   0  0  0  0  0  2  0  0  0  0  0  0
  -29.4330  -12.5530   18.1310 C   0  0  0  0  0  2  0  0  0  0  0  0
  -27.9630  -12.3820   18.5590 C   0  0  0  0  0  2  0  0  0  0  0  0
  -27.5910  -13.2670   19.7780 C   0  0  0  0  0  3  0  0  0  0  0  0
  -28.6490  -13.1690   20.8990 C   0  0  0  0  0  2  0  0  0  0  0  0
  -29.9490  -13.5280   20.3150 N   0  0  0  0  0  0  0  0  0  0  0  0
  -31.7210  -14.8870   19.9570 O   0  0  0  0  0  0  0  0  0  0  0  0
  -30.7040  -17.9010   19.3800 C   0  0  0  0  0  3  0  0  0  0  0  0
  -29.9280  -17.3210   20.4230 C   0  0  0  0  0  0  0  0  0  0  0  0
  -30.5690  -19.2190   19.3550 N   0  0  0  0  0  0  0  0  0  0  0  0
  -29.3040  -18.3350   21.0380 N   0  0  0  0  0  0  0  0  0  0  0  0
  -29.7020  -19.5060   20.3720 N   0  0  0  0  0  0  0  0  0  0  0  0
  -29.7900  -15.8680   20.7150 N   0  0  0  0  0  0  0  0  0  0  0  0
  -28.9300  -15.6190   21.1750 H   0  0  0  0  0  0  0  0  0  0  0  0
  -25.2010  -13.8640   20.4980 C   0  0  0  0  0  0  0  0  0  0  0  0
  -24.1340  -13.0930   20.8720 C   0  0  0  0  0  0  0  0  0  0  0  0
  -24.5960  -11.7420   20.8490 C   0  0  0  0  0  0  0  0  0  0  0  0
  -26.2440  -12.9820   20.2670 N   0  0  0  0  0  0  0  0  0  0  0  0
  -25.8870  -11.7010   20.5400 N   0  0  0  0  0  0  0  0  0  0  0  0
  -23.8680  -10.4820   21.0450 C   0  0  0  0  0  0  0  0  0  0  0  0
  -24.3120   -9.5070   21.9670 C   0  0  0  0  0  3  0  0  0  0  0  0
  -23.5840   -8.3130   22.1530 C   0  0  0  0  0  3  0  0  0  0  0  0
  -22.3980   -8.0820   21.4170 C   0  0  0  0  0  0  0  0  0  0  0  0
  -21.9730   -9.0450   20.4840 C   0  0  0  0  0  3  0  0  0  0  0  0
  -22.7010  -10.2320   20.2970 C   0  0  0  0  0  3  0  0  0  0  0  0
  -21.6400   -6.9400   21.5130 O   0  0  0  0  0  0  0  0  0  0  0  0
  -21.6220   -6.1820   22.6560 C   0  0  0  0  0  0  0  0  0  0  0  0
  -21.2480   -6.7250   23.9040 C   0  0  0  0  0  3  0  0  0  0  0  0
  -21.1750   -5.8940   25.0400 C   0  0  0  0  0  3  0  0  0  0  0  0
  -21.4680   -4.5210   24.9290 C   0  0  0  0  0  0  0  0  0  0  0  0
  -21.8350   -3.9770   23.6850 C   0  0  0  0  0  3  0  0  0  0  0  0
  -21.9080   -4.8050   22.5520 C   0  0  0  0  0  0  0  0  0  0  0  0
  -22.2420   -4.2720   21.3510 F   0  0  0  0  0  0  0  0  0  0  0  0
  -21.3900   -3.7210   26.0190 F   0  0  0  0  0  0  0  0  0  0  0  0
  -22.7370  -13.5730   21.1410 C   0  0  0  0  0  0  0  0  0  0  0  0
  -22.0090  -12.8860   22.0130 N   0  0  0  0  0  0  0  0  0  0  0  0
  -22.2990  -14.5930   20.6110 O   0  0  0  0  0  0  0  0  0  0  0  0
  -22.3770  -12.0610   22.4650 H   0  0  0  0  0  0  0  0  0  0  0  0
  -21.0710  -13.1890   22.2340 H   0  0  0  0  0  0  0  0  0  0  0  0
  -25.3670  -15.2330   20.3120 N   0  0  0  0  0  0  0  0  0  0  0  0
  -24.5990  -15.8890   20.4140 H   0  0  0  0  0  0  0  0  0  0  0  0
  -26.2120  -15.6670   19.9650 H   0  0  0  0  0  0  0  0  0  0  0  0
  -29.0450  -23.7050   20.4940 C   0  0  0  0  0  3  0  0  0  0  0  0
  -30.3780  -24.0460   20.1600 O   0  0  0  0  0  0  0  0  0  0  0  0
  -30.4950  -24.9660   20.3840 H   0  0  0  0  0  0  0  0  0  0  0  0
  -28.1170  -24.8940   19.8790 C   0  0  0  0  0  2  0  0  0  0  0  0
  -28.2780  -26.3490   20.2650 O   0  0  0  0  0  0  0  0  0  0  0  0
  -24.6050  -31.8700   23.2540 C   0  0  0  0  0  0  0  0  0  0  0  0
  -27.1850  -27.2530   20.1850 C   0  0  0  0  0  0  0  0  0  0  0  0
  -23.3940  -30.4770   21.6160 C   0  0  0  0  0  3  0  0  0  0  0  0
  -24.8360  -28.9220   20.1780 C   0  0  0  0  0  0  0  0  0  0  0  0
  -25.9390  -30.7700   21.4340 C   0  0  0  0  0  2  0  0  0  0  0  0
  -26.0100  -29.3880   20.7810 C   0  0  0  0  0  0  0  0  0  0  0  0
  -27.1850  -28.5660   20.7760 C   0  0  0  0  0  3  0  0  0  0  0  0
  -25.9890  -26.8700   19.5350 C   0  0  0  0  0  3  0  0  0  0  0  0
  -24.8310  -27.6710   19.5450 C   0  0  0  0  0  3  0  0  0  0  0  0
  -23.6030  -29.8050   20.2340 C   0  0  0  0  0  2  0  0  0  0  0  0
  -24.6660  -31.0580   22.1570 N   0  0  0  0  0  0  0  0  0  0  0  0
  -23.5230  -32.1520   23.7890 O   0  0  0  0  0  0  0  0  0  0  0  0
  -22.7270  -29.4630   22.5790 C   0  0  0  0  0  0  0  0  0  0  0  0
  -21.4000  -29.2900   22.4550 N   0  0  0  0  0  0  0  0  0  0  0  0
  -23.4050  -28.8360   23.3960 O   0  0  0  0  0  0  0  0  0  0  0  0
  -20.9120  -29.8480   21.7690 H   0  0  0  0  0  0  0  0  0  0  0  0
  -18.0220  -28.0900   22.9570 C   0  0  0  0  0  0  0  0  0  0  0  0
  -20.5810  -28.3540   23.2280 C   0  0  0  0  0  3  0  0  0  0  0  0
  -20.6850  -26.9210   22.6570 C   0  0  0  0  0  2  0  0  0  0  0  0
  -19.5850  -26.5930   21.6430 C   0  0  0  0  0  2  0  0  0  0  0  0
  -18.2020  -26.7390   22.2850 C   0  0  0  0  0  2  0  0  0  0  0  0
  -19.1400  -28.8550   23.3850 C   0  0  0  0  0  0  0  0  0  0  0  0
  -18.9180  -30.1190   23.9730 C   0  0  0  0  0  3  0  0  0  0  0  0
  -17.6120  -30.6190   24.1380 C   0  0  0  0  0  3  0  0  0  0  0  0
  -16.5100  -29.8500   23.7250 C   0  0  0  0  0  3  0  0  0  0  0  0
  -16.7160  -28.5880   23.1400 C   0  0  0  0  0  3  0  0  0  0  0  0
  -25.8910  -32.5010   23.8730 C   0  0  0  0  0  3  0  0  0  0  0  0
  -26.4040  -31.7310   25.1510 C   0  0  1  0  0  0  0  0  0  0  0  0
  -25.3120  -31.5030   26.2230 C   0  0  0  0  0  1  0  0  0  0  0  0
  -26.9790  -30.3480   24.7660 C   0  0  0  0  0  1  0  0  0  0  0  0
  -27.5610  -32.5210   25.8080 C   0  0  0  0  0  1  0  0  0  0  0  0
  -25.5850  -33.9000   24.2030 N   0  0  0  0  0  0  0  0  0  0  0  0
  -25.9130  -34.9530   23.4410 C   0  0  0  0  0  0  0  0  0  0  0  0
  -26.5730  -34.8470   22.4030 O   0  0  0  0  0  0  0  0  0  0  0  0
  -24.9970  -34.0560   25.0090 H   0  0  0  0  0  0  0  0  0  0  0  0
  -24.1800  -36.7470   23.1100 C   0  0  0  0  0  1  0  0  0  0  0  0
  -25.4340  -36.3440   23.9030 C   0  0  0  0  0  3  0  0  0  0  0  0
  -27.5830  -37.2280   24.6940 C   0  0  0  0  0  1  0  0  0  0  0  0
  -26.4650  -37.3960   23.7690 N   0  0  0  0  0  0  0  0  0  0  0  0
  -26.0630  -38.3170   23.9210 H   0  0  0  0  0  0  0  0  0  0  0  0
  1 46  1  0
  1  2  2  0
  3 16  1  0
  4  9  1  0
  5  6  1  0
  5  4  1  0
  7  6  1  0
  7 21  1  0
  7  8  1  0
  9  3  1  0
  9  8  1  0
 10  3  2  0
 11 12  1  0
 12 16  1  0
 12 14  2  0
 13 11  2  0
 13 15  1  0
 15  2  1  0
 15 14  1  0
 16 17  1  0
 18 19  2  0
 19 38  1  0
 20 19  1  0
 20 23  1  0
 21 18  1  0
 21 22  1  0
 22 20  2  0
 23 24  1  0
 24 25  2  0
 26 29  1  0
 26 25  1  0
 27 26  2  0
 28 27  1  0
 28 23  2  0
 29 30  1  0
 30 31  1  0
 31 32  2  0
 33 32  1  0
 33 37  1  0
 34 33  2  0
 35 30  2  0
 35 34  1  0
 36 35  1  0
 38 39  1  0
 39 42  1  0
 39 41  1  0
 40 38  2  0
 43 44  1  0
 43 18  1  0
 45 43  1  0
 46 49  1  0
 47 48  1  0
 47 46  1  0
 49 50  1  0
 51 62  2  0
 52 50  1  0
 52 57  1  0
 53 61  1  0
 53 63  1  0
 54 60  1  0
 54 56  1  0
 55 61  1  0
 56 55  1  0
 57 56  2  0
 58 59  1  0
 58 52  2  0
 59 54  2  0
 60 53  1  0
 61 51  1  0
 63 65  2  0
 64 63  1  0
 66 64  1  0
 67 76  2  0
 67 72  1  0
 68 64  1  0
 68 72  1  0
 69 68  1  0
 70 71  1  0
 70 69  1  0
 71 67  1  0
 72 73  2  0
 73 74  1  0
 75 74  2  0
 76 75  1  0
 77 51  1  0
 77 82  1  0
 77 78  1  0
 78 81  1  1
 78 79  1  0
 80 78  1  0
 82 85  1  0
 83 87  1  0
 83 82  1  0
 84 83  2  0
 87 86  1  0
 89 87  1  0
 89 90  1  0
 89 88  1  0
M  ISO  4   3 100  16 100  49 101  50 101
M  END
>  <TORSDO>  (10) 
F 20

>  <SCORE>  (10) 
-13.889

>  <name>  (10) 
9

>  <ligand_id>  (10) 
9

>  <original_smiles>  (10) 
[H]OC([H])(C([H])([H])Oc1c([H])c([H])c2c(c1[H])C([H])([H])N(C(=O)C([H])(N([H])C(=O)C([H])(N([H])C([H])([H])[H])C([H])([H])[H])C(C([H])([H])[H])(C([H])([H])[H])C([H])([H])[H])C([H])(C(=O)N([H])C1([H])c3c([H])c([H])c([H])c([H])c3C([H])([H])C([H])([H])C1([H])[H])C2([H])[H])C([H])([H])C([H])([H])n1nc([H])c(N([H])C(=O)N2C([H])([H])C([H])([H])C([H])([H])C([H])(n3nc(-c4c([H])c([H])c(Oc5c([H])c([H])c(F)c([H])c5F)c([H])c4[H])c(C(=O)N([H])[H])c3N([H])[H])C2([H])[H])n1

>  <smiles>  (10) 
[H]OC([H])(C([H])([H])Oc1c([H])c([H])c2c(c1[H])C([H])([H])N(C(=O)C([H])(N([H])C(=O)C([H])(N([H])C([H])([H])[H])C([H])([H])[H])C(C([H])([H])[H])(C([H])([H])[H])C([H])([H])[H])C([H])(C(=O)N([H])C1([H])c3c([H])c([H])c([H])c([H])c3C([H])([H])C([H])([H])C1([H])[H])C2([H])[H])C([H])([H])C([H])([H])n1nc([H])c(N([H])C(=O)N2C([H])([H])C([H])([H])C([H])([H])C([H])(n3nc(-c4c([H])c([H])c(Oc5c([H])c([H])c(F)c([H])c5F)c([H])c4[H])c(C(=O)N([H])[H])c3N([H])[H])C2([H])[H])n1

$$$$
10:0:0
     RDKit          3D

 90 98  0  0  1  0  0  0  0  0999 V2000
  -28.3660  -22.4730   20.7560 N   0  0  0  0  0  0  0  0  0  0  0  0
  -27.5540  -22.6080   21.3560 H   0  0  0  0  0  0  0  0  0  0  0  0
  -27.9420  -19.9960   20.9310 C   0  0  0  0  0  3  0  0  0  0  0  0
  -28.7350  -21.0760   20.5640 C   0  0  0  0  0  0  0  0  0  0  0  0
  -29.7200  -18.6740   20.2400 C   0  0  0  0  0  0  0  0  0  0  0  0
  -28.4820  -18.6930   20.7510 N   0  0  0  0  0  0  0  0  0  0  0  0
  -30.2470  -20.3890   19.9200 S   0  0  0  0  0  0  0  0  0  0  0  0
  -30.6280  -17.4060   20.0600 C   0  0  0  0  0  2  0  0  0  0  0  0
  -30.7990  -14.8390   19.9620 C   0  0  0  0  0  0  0  0  0  0  0  0
  -30.5560  -12.5640   18.9650 C   0  0  0  0  0  2  0  0  0  0  0  0
  -29.5810  -12.6230   17.7690 C   0  0  0  0  0  2  0  0  0  0  0  0
  -28.1330  -12.4270   18.2540 C   0  0  0  0  0  2  0  0  0  0  0  0
  -27.7890  -13.3290   19.4710 C   0  0  0  0  0  3  0  0  0  0  0  0
  -28.8810  -13.2780   20.5600 C   0  0  0  0  0  2  0  0  0  0  0  0
  -30.1550  -13.6250   19.9210 N   0  0  0  0  0  0  0  0  0  0  0  0
  -31.9640  -14.9240   19.5670 O   0  0  0  0  0  0  0  0  0  0  0  0
  -30.0870  -15.9940   20.2400 N   0  0  0  0  0  0  0  0  0  0  0  0
  -29.1240  -15.9120   20.5280 H   0  0  0  0  0  0  0  0  0  0  0  0
  -25.4270  -13.8970   20.2930 C   0  0  0  0  0  0  0  0  0  0  0  0
  -24.3840  -13.1120   20.7020 C   0  0  0  0  0  0  0  0  0  0  0  0
  -24.8580  -11.7650   20.6500 C   0  0  0  0  0  0  0  0  0  0  0  0
  -26.4680  -13.0280   20.0120 N   0  0  0  0  0  0  0  0  0  0  0  0
  -26.1360  -11.7390   20.2910 N   0  0  0  0  0  0  0  0  0  0  0  0
  -24.1510  -10.4960   20.8640 C   0  0  0  0  0  0  0  0  0  0  0  0
  -24.5840   -9.5630   21.8320 C   0  0  0  0  0  3  0  0  0  0  0  0
  -23.8750   -8.3580   22.0330 C   0  0  0  0  0  3  0  0  0  0  0  0
  -22.7180   -8.0800   21.2680 C   0  0  0  0  0  0  0  0  0  0  0  0
  -22.3050   -9.0020   20.2910 C   0  0  0  0  0  3  0  0  0  0  0  0
  -23.0130  -10.1970   20.0880 C   0  0  0  0  0  3  0  0  0  0  0  0
  -21.9820   -6.9250   21.3770 O   0  0  0  0  0  0  0  0  0  0  0  0
  -21.8750   -6.2480   22.5640 C   0  0  0  0  0  0  0  0  0  0  0  0
  -21.3470   -6.8560   23.7240 C   0  0  0  0  0  3  0  0  0  0  0  0
  -21.1920   -6.1020   24.9040 C   0  0  0  0  0  3  0  0  0  0  0  0
  -21.5510   -4.7410   24.9250 C   0  0  0  0  0  0  0  0  0  0  0  0
  -22.0700   -4.1340   23.7680 C   0  0  0  0  0  3  0  0  0  0  0  0
  -22.2290   -4.8840   22.5910 C   0  0  0  0  0  0  0  0  0  0  0  0
  -22.7080   -4.2860   21.4720 F   0  0  0  0  0  0  0  0  0  0  0  0
  -21.3940   -4.0140   26.0560 F   0  0  0  0  0  0  0  0  0  0  0  0
  -22.9950  -13.5760   21.0290 C   0  0  0  0  0  0  0  0  0  0  0  0
  -22.3090  -12.8720   21.9220 N   0  0  0  0  0  0  0  0  0  0  0  0
  -22.5260  -14.5970   20.5250 O   0  0  0  0  0  0  0  0  0  0  0  0
  -22.7020  -12.0450   22.3460 H   0  0  0  0  0  0  0  0  0  0  0  0
  -21.3770  -13.1640   22.1820 H   0  0  0  0  0  0  0  0  0  0  0  0
  -25.5740  -15.2680   20.1090 N   0  0  0  0  0  0  0  0  0  0  0  0
  -24.8030  -15.9140   20.2360 H   0  0  0  0  0  0  0  0  0  0  0  0
  -26.4110  -15.7200   19.7620 H   0  0  0  0  0  0  0  0  0  0  0  0
  -28.6060  -23.7060   18.6050 C   0  0  0  0  0  1  0  0  0  0  0  0
  -28.8520  -23.7550   20.1200 C   0  0  0  0  0  3  0  0  0  0  0  0
  -28.1610  -25.0870   20.7460 C   0  0  0  0  0  2  0  0  0  0  0  0
  -28.4580  -26.4940   20.3140 O   0  0  0  0  0  0  0  0  0  0  0  0
  -24.7340  -31.9470   23.3210 C   0  0  0  0  0  0  0  0  0  0  0  0
  -27.3750  -27.3940   20.2670 C   0  0  0  0  0  0  0  0  0  0  0  0
  -23.5520  -30.5590   21.6590 C   0  0  0  0  0  3  0  0  0  0  0  0
  -25.0200  -29.0250   20.2300 C   0  0  0  0  0  0  0  0  0  0  0  0
  -26.0950  -30.8820   21.5040 C   0  0  0  0  0  2  0  0  0  0  0  0
  -26.1850  -29.5070   20.8420 C   0  0  0  0  0  0  0  0  0  0  0  0
  -27.3710  -28.7060   20.8450 C   0  0  0  0  0  3  0  0  0  0  0  0
  -26.1940  -26.9810   19.6150 C   0  0  0  0  0  3  0  0  0  0  0  0
  -25.0280  -27.7690   19.6030 C   0  0  0  0  0  3  0  0  0  0  0  0
  -23.7820  -29.8990   20.2750 C   0  0  0  0  0  2  0  0  0  0  0  0
  -24.8130  -31.1470   22.2170 N   0  0  0  0  0  0  0  0  0  0  0  0
  -23.6430  -32.2180   23.8450 O   0  0  0  0  0  0  0  0  0  0  0  0
  -22.8870  -29.5300   22.6050 C   0  0  0  0  0  0  0  0  0  0  0  0
  -21.5630  -29.3440   22.4580 N   0  0  0  0  0  0  0  0  0  0  0  0
  -23.5580  -28.9050   23.4290 O   0  0  0  0  0  0  0  0  0  0  0  0
  -21.0840  -29.9030   21.7660 H   0  0  0  0  0  0  0  0  0  0  0  0
  -18.1850  -28.1200   22.9040 C   0  0  0  0  0  0  0  0  0  0  0  0
  -20.7390  -28.3960   23.2080 C   0  0  0  0  0  3  0  0  0  0  0  0
  -20.8600  -26.9690   22.6230 C   0  0  0  0  0  2  0  0  0  0  0  0
  -19.7700  -26.6420   21.5980 C   0  0  0  0  0  2  0  0  0  0  0  0
  -18.3830  -26.7700   22.2330 C   0  0  0  0  0  2  0  0  0  0  0  0
  -19.2940  -28.8880   23.3500 C   0  0  0  0  0  0  0  0  0  0  0  0
  -19.0590  -30.1470   23.9440 C   0  0  0  0  0  3  0  0  0  0  0  0
  -17.7490  -30.6390   24.0960 C   0  0  0  0  0  3  0  0  0  0  0  0
  -16.6550  -29.8680   23.6650 C   0  0  0  0  0  3  0  0  0  0  0  0
  -16.8740  -28.6100   23.0730 C   0  0  0  0  0  3  0  0  0  0  0  0
  -26.0080  -32.5790   23.9620 C   0  0  0  0  0  3  0  0  0  0  0  0
  -26.4940  -31.8200   25.2560 C   0  0  1  0  0  0  0  0  0  0  0  0
  -25.3770  -31.5940   26.3030 C   0  0  0  0  0  1  0  0  0  0  0  0
  -27.0810  -30.4360   24.8910 C   0  0  0  0  0  1  0  0  0  0  0  0
  -27.6320  -32.6170   25.9320 C   0  0  0  0  0  1  0  0  0  0  0  0
  -25.7010  -33.9830   24.2710 N   0  0  0  0  0  0  0  0  0  0  0  0
  -26.0510  -35.0270   23.5080 C   0  0  0  0  0  0  0  0  0  0  0  0
  -26.7380  -34.9100   22.4880 O   0  0  0  0  0  0  0  0  0  0  0  0
  -25.0970  -34.1500   25.0620 H   0  0  0  0  0  0  0  0  0  0  0  0
  -24.3380  -36.8250   23.1100 C   0  0  0  0  0  1  0  0  0  0  0  0
  -25.5660  -36.4230   23.9440 C   0  0  0  0  0  3  0  0  0  0  0  0
  -27.6880  -37.3060   24.8040 C   0  0  0  0  0  1  0  0  0  0  0  0
  -26.6060  -37.4690   23.8370 N   0  0  0  0  0  0  0  0  0  0  0  0
  -26.2030  -38.3930   23.9660 H   0  0  0  0  0  0  0  0  0  0  0  0
  1  2  1  0
  4  1  1  0
  4  3  2  0
  5  6  2  0
  6  3  1  0
  7  5  1  0
  7  4  1  0
  8  5  1  0
  8 17  1  0
  9 17  1  0
 10 15  1  0
 11 12  1  0
 11 10  1  0
 13 12  1  0
 13 22  1  0
 13 14  1  0
 15  9  1  0
 15 14  1  0
 16  9  2  0
 17 18  1  0
 19 20  2  0
 20 39  1  0
 21 20  1  0
 21 24  1  0
 22 23  1  0
 22 19  1  0
 23 21  2  0
 24 25  1  0
 25 26  2  0
 27 30  1  0
 27 26  1  0
 28 27  2  0
 29 28  1  0
 29 24  2  0
 30 31  1  0
 31 36  2  0
 31 32  1  0
 32 33  2  0
 33 34  1  0
 34 38  1  0
 35 34  2  0
 36 35  1  0
 37 36  1  0
 39 40  1  0
 40 43  1  0
 40 42  1  0
 41 39  2  0
 44 45  1  0
 44 19  1  0
 46 44  1  0
 48 47  1  0
 48 49  1  0
 48  1  1  0
 50 49  1  0
 51 62  2  0
 52 50  1  0
 52 57  1  0
 53 61  1  0
 53 63  1  0
 54 60  1  0
 54 56  1  0
 55 61  1  0
 56 57  2  0
 56 55  1  0
 58 52  2  0
 59 58  1  0
 59 54  2  0
 60 53  1  0
 61 51  1  0
 63 65  2  0
 64 63  1  0
 66 64  1  0
 67 76  2  0
 67 72  1  0
 68 64  1  0
 68 72  1  0
 69 68  1  0
 70 71  1  0
 70 69  1  0
 71 67  1  0
 72 73  2  0
 73 74  1  0
 75 74  2  0
 76 75  1  0
 77 51  1  0
 77 82  1  0
 77 78  1  0
 78 81  1  1
 78 79  1  0
 80 78  1  0
 82 85  1  0
 83 87  1  0
 83 82  1  0
 84 83  2  0
 87 86  1  0
 89 87  1  0
 89 90  1  0
 89 88  1  0
M  ISO  4   9 100  17 100  49 101  50 101
M  END
>  <TORSDO>  (11) 
F 20

>  <SCORE>  (11) 
-12.917

>  <name>  (11) 
10

>  <ligand_id>  (11) 
10

>  <original_smiles>  (11) 
[H]c1nc(C([H])([H])N([H])C(=O)N2C([H])([H])C([H])([H])C([H])([H])C([H])(n3nc(-c4c([H])c([H])c(Oc5c([H])c([H])c(F)c([H])c5F)c([H])c4[H])c(C(=O)N([H])[H])c3N([H])[H])C2([H])[H])sc1N([H])C([H])(C([H])([H])[H])C([H])([H])Oc1c([H])c([H])c2c(c1[H])C([H])([H])N(C(=O)C([H])(N([H])C(=O)C([H])(N([H])C([H])([H])[H])C([H])([H])[H])C(C([H])([H])[H])(C([H])([H])[H])C([H])([H])[H])C([H])(C(=O)N([H])C1([H])c3c([H])c([H])c([H])c([H])c3C([H])([H])C([H])([H])C1([H])[H])C2([H])[H]

>  <smiles>  (11) 
[H]c1nc(C([H])([H])N([H])C(=O)N2C([H])([H])C([H])([H])C([H])([H])C([H])(n3nc(-c4c([H])c([H])c(Oc5c([H])c([H])c(F)c([H])c5F)c([H])c4[H])c(C(=O)N([H])[H])c3N([H])[H])C2([H])[H])sc1N([H])C([H])(C([H])([H])[H])C([H])([H])Oc1c([H])c([H])c2c(c1[H])C([H])([H])N(C(=O)C([H])(N([H])C(=O)C([H])(N([H])C([H])([H])[H])C([H])([H])[H])C(C([H])([H])[H])(C([H])([H])[H])C([H])([H])[H])C([H])(C(=O)N([H])C1([H])c3c([H])c([H])c([H])c([H])c3C([H])([H])C([H])([H])C1([H])[H])C2([H])[H]

$$$$
11:0:0
     RDKit          3D

 91 99  0  0  1  0  0  0  0  0999 V2000
  -30.1490  -20.5940   23.6410 C   0  0  0  0  0  3  0  0  0  0  0  0
  -30.5030  -20.6290   22.3130 C   0  0  0  0  0  0  0  0  0  0  0  0
  -29.8830  -22.7980   22.6140 C   0  0  0  0  0  0  0  0  0  0  0  0
  -30.3230  -21.8940   21.7370 N   0  0  0  0  0  0  0  0  0  0  0  0
  -29.6670  -24.1340   22.3250 N   0  0  0  0  0  0  0  0  0  0  0  0
  -29.6020  -22.1460   24.2200 S   0  0  0  0  0  0  0  0  0  0  0  0
  -29.3420  -24.6610   23.1300 H   0  0  0  0  0  0  0  0  0  0  0  0
  -31.0880  -19.5120   21.4910 C   0  0  0  0  0  2  0  0  0  0  0  0
  -30.4050  -18.1340   21.6530 C   0  0  0  0  0  2  0  0  0  0  0  0
  -31.1580  -17.0620   20.8410 C   0  0  0  0  0  2  0  0  0  0  0  0
  -31.1870  -14.6660   20.3100 C   0  0  0  0  0  0  0  0  0  0  0  0
  -30.7780  -12.5250   19.1670 C   0  0  0  0  0  2  0  0  0  0  0  0
  -29.8400  -12.7550   17.9670 C   0  0  0  0  0  2  0  0  0  0  0  0
  -28.3660  -12.6630   18.4090 C   0  0  0  0  0  2  0  0  0  0  0  0
  -28.0650  -13.5190   19.6720 C   0  0  0  0  0  3  0  0  0  0  0  0
  -29.1230  -13.2880   20.7740 C   0  0  0  0  0  2  0  0  0  0  0  0
  -30.4520  -13.5280   20.1930 N   0  0  0  0  0  0  0  0  0  0  0  0
  -32.2890  -14.8050   19.7750 O   0  0  0  0  0  0  0  0  0  0  0  0
  -30.5990  -15.7070   20.9240 N   0  0  0  0  0  0  0  0  0  0  0  0
  -29.6870  -15.5720   21.3370 H   0  0  0  0  0  0  0  0  0  0  0  0
  -25.7090  -14.1920   20.4570 C   0  0  0  0  0  0  0  0  0  0  0  0
  -24.6170  -13.4480   20.8140 C   0  0  0  0  0  0  0  0  0  0  0  0
  -25.0200  -12.0820   20.7160 C   0  0  0  0  0  0  0  0  0  0  0  0
  -26.7110  -13.2800   20.1670 N   0  0  0  0  0  0  0  0  0  0  0  0
  -26.3020  -12.0020   20.3820 N   0  0  0  0  0  0  0  0  0  0  0  0
  -24.2460  -10.8420   20.8680 C   0  0  0  0  0  0  0  0  0  0  0  0
  -24.6040   -9.8620   21.8200 C   0  0  0  0  0  3  0  0  0  0  0  0
  -23.8340   -8.6860   21.9590 C   0  0  0  0  0  3  0  0  0  0  0  0
  -22.6940   -8.4830   21.1460 C   0  0  0  0  0  0  0  0  0  0  0  0
  -22.3570   -9.4510   20.1840 C   0  0  0  0  0  3  0  0  0  0  0  0
  -23.1260  -10.6180   20.0420 C   0  0  0  0  0  3  0  0  0  0  0  0
  -21.8990   -7.3630   21.1960 O   0  0  0  0  0  0  0  0  0  0  0  0
  -21.7030   -6.6690   22.3630 C   0  0  0  0  0  0  0  0  0  0  0  0
  -21.1300   -7.2760   23.5040 C   0  0  0  0  0  3  0  0  0  0  0  0
  -20.8820   -6.5080   24.6590 C   0  0  0  0  0  3  0  0  0  0  0  0
  -21.1960   -5.1350   24.6740 C   0  0  0  0  0  0  0  0  0  0  0  0
  -21.7630   -4.5290   23.5390 C   0  0  0  0  0  3  0  0  0  0  0  0
  -22.0130   -5.2940   22.3850 C   0  0  0  0  0  0  0  0  0  0  0  0
  -22.5390   -4.7020   21.2870 F   0  0  0  0  0  0  0  0  0  0  0  0
  -20.9510   -4.3940   25.7810 F   0  0  0  0  0  0  0  0  0  0  0  0
  -23.2460  -13.9660   21.1360 C   0  0  0  0  0  0  0  0  0  0  0  0
  -22.5110  -13.2610   21.9900 N   0  0  0  0  0  0  0  0  0  0  0  0
  -22.8370  -15.0270   20.6640 O   0  0  0  0  0  0  0  0  0  0  0  0
  -22.8610  -12.4060   22.3960 H   0  0  0  0  0  0  0  0  0  0  0  0
  -21.5840  -13.5770   22.2400 H   0  0  0  0  0  0  0  0  0  0  0  0
  -25.9320  -15.5620   20.3370 N   0  0  0  0  0  0  0  0  0  0  0  0
  -25.2010  -16.2500   20.4840 H   0  0  0  0  0  0  0  0  0  0  0  0
  -26.7980  -15.9710   20.0100 H   0  0  0  0  0  0  0  0  0  0  0  0
  -29.7250  -24.9260   21.1050 C   0  0  0  0  0  2  0  0  0  0  0  0
  -29.5260  -26.4260   21.3840 C   0  0  0  0  0  2  0  0  0  0  0  0
  -29.2630  -27.1080   20.1590 O   0  0  0  0  0  0  0  0  0  0  0  0
  -24.9120  -31.7510   23.3280 C   0  0  0  0  0  0  0  0  0  0  0  0
  -28.0530  -27.7480   20.1490 C   0  0  0  0  0  0  0  0  0  0  0  0
  -23.9000  -30.3430   21.5610 C   0  0  0  0  0  3  0  0  0  0  0  0
  -25.5380  -29.0120   20.1310 C   0  0  0  0  0  0  0  0  0  0  0  0
  -26.3860  -30.9300   21.4960 C   0  0  0  0  0  2  0  0  0  0  0  0
  -26.6160  -29.6070   20.7990 C   0  0  0  0  0  0  0  0  0  0  0  0
  -27.8770  -28.9780   20.8140 C   0  0  0  0  0  3  0  0  0  0  0  0
  -26.9680  -27.1560   19.4750 C   0  0  0  0  0  3  0  0  0  0  0  0
  -25.7050  -27.7810   19.4700 C   0  0  0  0  0  3  0  0  0  0  0  0
  -24.2220  -29.7550   20.1600 C   0  0  0  0  0  2  0  0  0  0  0  0
  -25.0800  -31.0200   22.1890 N   0  0  0  0  0  0  0  0  0  0  0  0
  -23.7900  -31.9030   23.8310 O   0  0  0  0  0  0  0  0  0  0  0  0
  -23.3000  -29.2230   22.4390 C   0  0  0  0  0  0  0  0  0  0  0  0
  -21.9960  -28.9580   22.2580 N   0  0  0  0  0  0  0  0  0  0  0  0
  -24.0030  -28.5980   23.2360 O   0  0  0  0  0  0  0  0  0  0  0  0
  -21.4860  -29.5190   21.5880 H   0  0  0  0  0  0  0  0  0  0  0  0
  -18.7000  -27.5180   22.5810 C   0  0  0  0  0  0  0  0  0  0  0  0
  -21.2270  -27.9210   22.9460 C   0  0  0  0  0  3  0  0  0  0  0  0
  -21.4400  -26.5400   22.2840 C   0  0  0  0  0  2  0  0  0  0  0  0
  -20.3880  -26.2130   21.2200 C   0  0  0  0  0  2  0  0  0  0  0  0
  -18.9830  -26.2280   21.8290 C   0  0  0  0  0  2  0  0  0  0  0  0
  -19.7540  -28.3200   23.0920 C   0  0  0  0  0  0  0  0  0  0  0  0
  -19.4350  -29.5270   23.7520 C   0  0  0  0  0  3  0  0  0  0  0  0
  -18.0960  -29.9310   23.9080 C   0  0  0  0  0  3  0  0  0  0  0  0
  -17.0570  -29.1250   23.4140 C   0  0  0  0  0  3  0  0  0  0  0  0
  -17.3600  -27.9190   22.7560 C   0  0  0  0  0  3  0  0  0  0  0  0
  -26.1140  -32.4490   24.0370 C   0  0  0  0  0  3  0  0  0  0  0  0
  -25.7040  -33.8220   24.3550 N   0  0  0  0  0  0  0  0  0  0  0  0
  -26.0160  -34.8980   23.6180 C   0  0  0  0  0  0  0  0  0  0  0  0
  -26.7490  -34.8420   22.6270 O   0  0  0  0  0  0  0  0  0  0  0  0
  -25.0590  -33.9380   25.1220 H   0  0  0  0  0  0  0  0  0  0  0  0
  -24.1960  -36.5740   23.1770 C   0  0  0  0  0  1  0  0  0  0  0  0
  -25.4170  -36.2500   24.0500 C   0  0  0  0  0  3  0  0  0  0  0  0
  -27.4430  -37.2690   24.9900 C   0  0  0  0  0  1  0  0  0  0  0  0
  -26.3840  -37.3670   23.9890 N   0  0  0  0  0  0  0  0  0  0  0  0
  -25.9130  -38.2600   24.1130 H   0  0  0  0  0  0  0  0  0  0  0  0
  -26.5960  -31.6940   25.3370 C   0  0  1  0  0  0  0  0  0  0  0  0
  -25.4520  -31.3690   26.3250 C   0  0  0  0  0  1  0  0  0  0  0  0
  -27.2910  -30.3640   24.9630 C   0  0  0  0  0  1  0  0  0  0  0  0
  -27.6470  -32.5500   26.0810 C   0  0  0  0  0  1  0  0  0  0  0  0
  1  6  1  0
  2  1  2  0
  3  6  1  0
  4  2  1  0
  4  3  2  0
  5  3  1  0
  5  7  1  0
  8  9  1  0
  8  2  1  0
 10 19  1  0
 10  9  1  0
 11 19  1  0
 12 17  1  0
 13 14  1  0
 13 12  1  0
 15 14  1  0
 15 24  1  0
 15 16  1  0
 17 11  1  0
 17 16  1  0
 18 11  2  0
 19 20  1  0
 21 22  2  0
 22 41  1  0
 23 22  1  0
 23 26  1  0
 24 25  1  0
 24 21  1  0
 25 23  2  0
 26 27  1  0
 27 28  2  0
 29 32  1  0
 29 28  1  0
 30 29  2  0
 31 30  1  0
 31 26  2  0
 32 33  1  0
 33 38  2  0
 33 34  1  0
 34 35  2  0
 35 36  1  0
 36 40  1  0
 37 36  2  0
 38 37  1  0
 39 38  1  0
 41 42  1  0
 42 45  1  0
 42 44  1  0
 43 41  2  0
 46 21  1  0
 46 47  1  0
 48 46  1  0
 49 50  1  0
 49  5  1  0
 51 50  1  0
 52 63  2  0
 53 51  1  0
 53 58  1  0
 54 62  1  0
 54 64  1  0
 55 61  1  0
 55 57  1  0
 56 62  1  0
 57 58  2  0
 57 56  1  0
 59 53  2  0
 60 59  1  0
 60 55  2  0
 61 54  1  0
 62 52  1  0
 64 66  2  0
 65 64  1  0
 67 65  1  0
 68 77  2  0
 68 73  1  0
 69 65  1  0
 69 73  1  0
 70 69  1  0
 71 72  1  0
 71 70  1  0
 72 68  1  0
 73 74  2  0
 74 75  1  0
 76 75  2  0
 77 76  1  0
 78 52  1  0
 78 79  1  0
 78 88  1  0
 79 82  1  0
 80 84  1  0
 80 79  1  0
 81 80  2  0
 84 83  1  0
 86 84  1  0
 86 87  1  0
 86 85  1  0
 88 91  1  1
 88 89  1  0
 90 88  1  0
M  ISO  4  11 100  19 100  50 101  51 101
M  END
>  <TORSDO>  (12) 
F 21

>  <SCORE>  (12) 
-11.523

>  <name>  (12) 
11

>  <ligand_id>  (12) 
11

>  <original_smiles>  (12) 
[H]c1sc(N([H])C([H])([H])C([H])([H])Oc2c([H])c([H])c3c(c2[H])C([H])([H])N(C(=O)C([H])(N([H])C(=O)C([H])(N([H])C([H])([H])[H])C([H])([H])[H])C(C([H])([H])[H])(C([H])([H])[H])C([H])([H])[H])C([H])(C(=O)N([H])C2([H])c4c([H])c([H])c([H])c([H])c4C([H])([H])C([H])([H])C2([H])[H])C3([H])[H])nc1C([H])([H])C([H])([H])C([H])([H])N([H])C(=O)N1C([H])([H])C([H])([H])C([H])([H])C([H])(n2nc(-c3c([H])c([H])c(Oc4c([H])c([H])c(F)c([H])c4F)c([H])c3[H])c(C(=O)N([H])[H])c2N([H])[H])C1([H])[H]

>  <smiles>  (12) 
[H]c1sc(N([H])C([H])([H])C([H])([H])Oc2c([H])c([H])c3c(c2[H])C([H])([H])N(C(=O)C([H])(N([H])C(=O)C([H])(N([H])C([H])([H])[H])C([H])([H])[H])C(C([H])([H])[H])(C([H])([H])[H])C([H])([H])[H])C([H])(C(=O)N([H])C2([H])c4c([H])c([H])c([H])c([H])c4C([H])([H])C([H])([H])C2([H])[H])C3([H])[H])nc1C([H])([H])C([H])([H])C([H])([H])N([H])C(=O)N1C([H])([H])C([H])([H])C([H])([H])C([H])(n2nc(-c3c([H])c([H])c(Oc4c([H])c([H])c(F)c([H])c4F)c([H])c3[H])c(C(=O)N([H])[H])c2N([H])[H])C1([H])[H]

$$$$
12:0:0
     RDKit          3D

 92100  0  0  1  0  0  0  0  0999 V2000
  -28.8890  -22.3000   22.2630 C   0  0  0  0  0  1  0  0  0  0  0  0
  -28.8450  -22.4810   20.7350 C   0  0  0  0  0  3  0  0  0  0  0  0
  -28.8150  -18.0020   20.8550 C   0  0  0  0  0  3  0  0  0  0  0  0
  -30.8670  -19.2750   19.7170 C   0  0  0  0  0  3  0  0  0  0  0  0
  -29.9180  -17.2240   20.3770 C   0  0  0  0  0  0  0  0  0  0  0  0
  -29.7650  -20.0420   20.2040 C   0  0  0  0  0  0  0  0  0  0  0  0
  -30.9460  -17.9080   19.7990 N   0  0  0  0  0  0  0  0  0  0  0  0
  -28.7300  -19.3710   20.7730 N   0  0  0  0  0  0  0  0  0  0  0  0
  -29.7550  -21.4780   20.0890 N   0  0  0  0  0  0  0  0  0  0  0  0
  -30.5480  -21.8640   19.5840 H   0  0  0  0  0  0  0  0  0  0  0  0
  -30.5940  -14.7310   20.0590 C   0  0  0  0  0  0  0  0  0  0  0  0
  -30.3100  -12.5280   18.9400 C   0  0  0  0  0  2  0  0  0  0  0  0
  -29.3040  -12.7100   17.7820 C   0  0  0  0  0  2  0  0  0  0  0  0
  -27.8550  -12.5490   18.2810 C   0  0  0  0  0  2  0  0  0  0  0  0
  -27.5730  -13.3690   19.5680 C   0  0  0  0  0  3  0  0  0  0  0  0
  -28.6860  -13.1600   20.6180 C   0  0  0  0  0  2  0  0  0  0  0  0
  -29.9680  -13.5130   19.9870 N   0  0  0  0  0  0  0  0  0  0  0  0
  -31.7330  -14.8850   19.6040 O   0  0  0  0  0  0  0  0  0  0  0  0
  -29.8310  -15.7710   20.5240 N   0  0  0  0  0  0  0  0  0  0  0  0
  -28.9740  -15.4560   20.9500 H   0  0  0  0  0  0  0  0  0  0  0  0
  -25.2160  -13.9660   20.4000 C   0  0  0  0  0  0  0  0  0  0  0  0
  -24.1660  -13.1920   20.8140 C   0  0  0  0  0  0  0  0  0  0  0  0
  -24.6240  -11.8390   20.7480 C   0  0  0  0  0  0  0  0  0  0  0  0
  -26.2470  -13.0860   20.1110 N   0  0  0  0  0  0  0  0  0  0  0  0
  -25.8980  -11.8010   20.3800 N   0  0  0  0  0  0  0  0  0  0  0  0
  -23.9040  -10.5760   20.9600 C   0  0  0  0  0  0  0  0  0  0  0  0
  -24.3750   -9.6030   21.8690 C   0  0  0  0  0  3  0  0  0  0  0  0
  -23.6570   -8.4050   22.0700 C   0  0  0  0  0  3  0  0  0  0  0  0
  -22.4530   -8.1720   21.3630 C   0  0  0  0  0  0  0  0  0  0  0  0
  -22.0010   -9.1340   20.4430 C   0  0  0  0  0  3  0  0  0  0  0  0
  -22.7200  -10.3240   20.2400 C   0  0  0  0  0  3  0  0  0  0  0  0
  -21.7000   -7.0270   21.4760 O   0  0  0  0  0  0  0  0  0  0  0  0
  -21.6950   -6.2800   22.6270 C   0  0  0  0  0  0  0  0  0  0  0  0
  -21.3230   -6.8320   23.8710 C   0  0  0  0  0  3  0  0  0  0  0  0
  -21.2620   -6.0120   25.0150 C   0  0  0  0  0  3  0  0  0  0  0  0
  -21.5640   -4.6400   24.9170 C   0  0  0  0  0  0  0  0  0  0  0  0
  -21.9290   -4.0870   23.6770 C   0  0  0  0  0  3  0  0  0  0  0  0
  -21.9920   -4.9050   22.5350 C   0  0  0  0  0  0  0  0  0  0  0  0
  -22.3230   -4.3620   21.3380 F   0  0  0  0  0  0  0  0  0  0  0  0
  -21.4990   -3.8510   26.0150 F   0  0  0  0  0  0  0  0  0  0  0  0
  -22.7840  -13.6690   21.1530 C   0  0  0  0  0  0  0  0  0  0  0  0
  -22.0970  -12.9670   22.0470 N   0  0  0  0  0  0  0  0  0  0  0  0
  -22.3240  -14.6980   20.6600 O   0  0  0  0  0  0  0  0  0  0  0  0
  -22.4840  -12.1340   22.4680 H   0  0  0  0  0  0  0  0  0  0  0  0
  -21.1700  -13.2660   22.3160 H   0  0  0  0  0  0  0  0  0  0  0  0
  -25.3750  -15.3370   20.2250 N   0  0  0  0  0  0  0  0  0  0  0  0
  -24.6040  -15.9840   20.3560 H   0  0  0  0  0  0  0  0  0  0  0  0
  -26.1780  -15.7660   19.7830 H   0  0  0  0  0  0  0  0  0  0  0  0
  -29.1260  -24.0190   20.3080 C   0  0  0  0  0  2  0  0  0  0  0  0
  -28.5770  -25.6040   22.3360 C   0  0  0  0  0  1  0  0  0  0  0  0
  -28.2500  -25.2520   20.8700 C   0  0  0  0  0  3  0  0  0  0  0  0
  -28.4040  -26.5650   20.1990 O   0  0  0  0  0  0  0  0  0  0  0  0
  -24.6150  -31.9160   23.2310 C   0  0  0  0  0  0  0  0  0  0  0  0
  -27.2830  -27.4050   20.1810 C   0  0  0  0  0  0  0  0  0  0  0  0
  -23.4290  -30.5100   21.5820 C   0  0  0  0  0  3  0  0  0  0  0  0
  -24.9000  -28.9730   20.1630 C   0  0  0  0  0  0  0  0  0  0  0  0
  -25.9650  -30.8580   21.4070 C   0  0  0  0  0  2  0  0  0  0  0  0
  -26.0610  -29.4820   20.7610 C   0  0  0  0  0  0  0  0  0  0  0  0
  -27.2590  -28.7090   20.7590 C   0  0  0  0  0  3  0  0  0  0  0  0
  -26.1030  -26.9420   19.5620 C   0  0  0  0  0  3  0  0  0  0  0  0
  -24.9210  -27.7070   19.5550 C   0  0  0  0  0  3  0  0  0  0  0  0
  -23.6550  -29.8340   20.2030 C   0  0  0  0  0  2  0  0  0  0  0  0
  -24.6880  -31.1120   22.1310 N   0  0  0  0  0  0  0  0  0  0  0  0
  -23.5280  -32.1840   23.7630 O   0  0  0  0  0  0  0  0  0  0  0  0
  -22.7720  -29.4880   22.5390 C   0  0  0  0  0  0  0  0  0  0  0  0
  -21.4490  -29.2970   22.4010 N   0  0  0  0  0  0  0  0  0  0  0  0
  -23.4500  -28.8690   23.3620 O   0  0  0  0  0  0  0  0  0  0  0  0
  -20.9610  -29.8500   21.7110 H   0  0  0  0  0  0  0  0  0  0  0  0
  -18.0810  -28.0600   22.8640 C   0  0  0  0  0  0  0  0  0  0  0  0
  -20.6330  -28.3520   23.1660 C   0  0  0  0  0  3  0  0  0  0  0  0
  -20.7600  -26.9200   22.5960 C   0  0  0  0  0  2  0  0  0  0  0  0
  -19.6750  -26.5800   21.5700 C   0  0  0  0  0  2  0  0  0  0  0  0
  -18.2840  -26.7110   22.1960 C   0  0  0  0  0  2  0  0  0  0  0  0
  -19.1860  -28.8380   23.3050 C   0  0  0  0  0  0  0  0  0  0  0  0
  -18.9440  -30.1000   23.8890 C   0  0  0  0  0  3  0  0  0  0  0  0
  -17.6310  -30.5860   24.0370 C   0  0  0  0  0  3  0  0  0  0  0  0
  -16.5410  -29.8050   23.6130 C   0  0  0  0  0  3  0  0  0  0  0  0
  -16.7670  -28.5450   23.0310 C   0  0  0  0  0  3  0  0  0  0  0  0
  -25.8910  -32.5560   23.8610 C   0  0  0  0  0  3  0  0  0  0  0  0
  -26.4020  -31.7910   25.1440 C   0  0  1  0  0  0  0  0  0  0  0  0
  -25.3020  -31.5530   26.2050 C   0  0  0  0  0  1  0  0  0  0  0  0
  -26.9920  -30.4120   24.7600 C   0  0  0  0  0  1  0  0  0  0  0  0
  -27.5460  -32.5900   25.8080 C   0  0  0  0  0  1  0  0  0  0  0  0
  -25.5740  -33.9540   24.1870 N   0  0  0  0  0  0  0  0  0  0  0  0
  -25.9110  -35.0070   23.4300 C   0  0  0  0  0  0  0  0  0  0  0  0
  -26.5930  -34.9040   22.4060 O   0  0  0  0  0  0  0  0  0  0  0  0
  -24.9660  -34.1060   24.9790 H   0  0  0  0  0  0  0  0  0  0  0  0
  -24.1810  -36.7950   23.0550 C   0  0  0  0  0  1  0  0  0  0  0  0
  -25.4150  -36.3940   23.8800 C   0  0  0  0  0  3  0  0  0  0  0  0
  -27.5390  -37.2860   24.7320 C   0  0  0  0  0  1  0  0  0  0  0  0
  -26.4460  -37.4490   23.7780 N   0  0  0  0  0  0  0  0  0  0  0  0
  -26.0350  -38.3670   23.9210 H   0  0  0  0  0  0  0  0  0  0  0  0
  2  1  1  0
  4  7  2  0
  4  6  1  0
  5 19  1  0
  5  3  2  0
  6  8  2  0
  7  5  1  0
  8  3  1  0
  9  6  1  0
  9  2  1  0
 10  9  1  0
 11 19  1  0
 12 17  1  0
 13 14  1  0
 13 12  1  0
 15 14  1  0
 15 24  1  0
 15 16  1  0
 17 11  1  0
 17 16  1  0
 18 11  2  0
 19 20  1  0
 21 22  2  0
 22 41  1  0
 23 22  1  0
 23 26  1  0
 24 25  1  0
 24 21  1  0
 25 23  2  0
 26 27  1  0
 27 28  2  0
 29 32  1  0
 29 28  1  0
 30 29  2  0
 31 30  1  0
 31 26  2  0
 32 33  1  0
 33 34  1  0
 34 35  2  0
 36 35  1  0
 36 40  1  0
 37 36  2  0
 38 33  2  0
 38 37  1  0
 39 38  1  0
 41 42  1  0
 42 45  1  0
 42 44  1  0
 43 41  2  0
 46 47  1  0
 46 21  1  0
 48 46  1  0
 49  2  1  0
 49 51  1  0
 51 50  1  0
 52 51  1  0
 53 64  2  0
 54 52  1  0
 54 59  1  0
 55 63  1  0
 55 65  1  0
 56 62  1  0
 56 58  1  0
 57 63  1  0
 58 57  1  0
 59 58  2  0
 60 54  2  0
 61 60  1  0
 61 56  2  0
 62 55  1  0
 63 53  1  0
 65 67  2  0
 66 65  1  0
 68 66  1  0
 69 78  2  0
 69 74  1  0
 70 66  1  0
 70 74  1  0
 71 70  1  0
 72 73  1  0
 72 71  1  0
 73 69  1  0
 74 75  2  0
 75 76  1  0
 77 76  2  0
 78 77  1  0
 79 53  1  0
 79 84  1  0
 79 80  1  0
 80 83  1  1
 80 81  1  0
 82 80  1  0
 84 87  1  0
 85 89  1  0
 85 84  1  0
 86 85  2  0
 89 88  1  0
 91 89  1  0
 91 92  1  0
 91 90  1  0
M  ISO  4  11 100  19 100  51 101  52 101
M  END
>  <TORSDO>  (13) 
F 19

>  <SCORE>  (13) 
-14.113

>  <name>  (13) 
12

>  <ligand_id>  (13) 
12

>  <original_smiles>  (13) 
[H]c1nc(N([H])C([H])(C([H])([H])[H])C([H])([H])C([H])(Oc2c([H])c([H])c3c(c2[H])C([H])([H])N(C(=O)C([H])(N([H])C(=O)C([H])(N([H])C([H])([H])[H])C([H])([H])[H])C(C([H])([H])[H])(C([H])([H])[H])C([H])([H])[H])C([H])(C(=O)N([H])C2([H])c4c([H])c([H])c([H])c([H])c4C([H])([H])C([H])([H])C2([H])[H])C3([H])[H])C([H])([H])[H])c([H])nc1N([H])C(=O)N1C([H])([H])C([H])([H])C([H])([H])C([H])(n2nc(-c3c([H])c([H])c(Oc4c([H])c([H])c(F)c([H])c4F)c([H])c3[H])c(C(=O)N([H])[H])c2N([H])[H])C1([H])[H]

>  <smiles>  (13) 
[H]c1nc(N([H])C([H])(C([H])([H])[H])C([H])([H])C([H])(Oc2c([H])c([H])c3c(c2[H])C([H])([H])N(C(=O)C([H])(N([H])C(=O)C([H])(N([H])C([H])([H])[H])C([H])([H])[H])C(C([H])([H])[H])(C([H])([H])[H])C([H])([H])[H])C([H])(C(=O)N([H])C2([H])c4c([H])c([H])c([H])c([H])c4C([H])([H])C([H])([H])C2([H])[H])C3([H])[H])C([H])([H])[H])c([H])nc1N([H])C(=O)N1C([H])([H])C([H])([H])C([H])([H])C([H])(n2nc(-c3c([H])c([H])c(Oc4c([H])c([H])c(F)c([H])c4F)c([H])c3[H])c(C(=O)N([H])[H])c2N([H])[H])C1([H])[H]

$$$$
13:0:0
     RDKit          3D

 94102  0  0  1  0  0  0  0  0999 V2000
  -27.2320  -19.5640   19.3040 C   0  0  0  0  0  3  0  0  0  0  0  0
  -28.0360  -18.4280   19.5590 C   0  0  0  0  0  0  0  0  0  0  0  0
  -29.2620  -18.6550   20.2330 C   0  0  0  0  0  0  0  0  0  0  0  0
  -28.7500  -21.0120   20.2040 C   0  0  0  0  0  0  0  0  0  0  0  0
  -27.5850  -20.8260   19.6190 N   0  0  0  0  0  0  0  0  0  0  0  0
  -29.5940  -19.9810   20.5200 N   0  0  0  0  0  0  0  0  0  0  0  0
  -29.1280  -22.3850   20.4120 N   0  0  0  0  0  0  0  0  0  0  0  0
  -30.0940  -22.4500   20.7110 H   0  0  0  0  0  0  0  0  0  0  0  0
  -27.6220  -17.1730   19.0900 N   0  0  0  0  0  0  0  0  0  0  0  0
  -26.9030  -17.2040   18.3690 H   0  0  0  0  0  0  0  0  0  0  0  0
  -28.3720  -16.5580   18.7920 H   0  0  0  0  0  0  0  0  0  0  0  0
  -26.9150  -23.4010   21.2410 C   0  0  0  0  0  1  0  0  0  0  0  0
  -28.3550  -23.6660   20.7730 C   0  0  0  0  0  3  0  0  0  0  0  0
  -28.4040  -24.9800   19.8100 C   0  0  0  0  0  2  0  0  0  0  0  0
  -28.3220  -26.3990   20.3330 O   0  0  0  0  0  0  0  0  0  0  0  0
  -24.5910  -31.9040   23.2470 C   0  0  0  0  0  0  0  0  0  0  0  0
  -27.1990  -27.2620   20.2400 C   0  0  0  0  0  0  0  0  0  0  0  0
  -23.3950  -30.4990   21.6080 C   0  0  0  0  0  3  0  0  0  0  0  0
  -24.8480  -28.9290   20.1980 C   0  0  0  0  0  0  0  0  0  0  0  0
  -25.9420  -30.7910   21.4470 C   0  0  0  0  0  2  0  0  0  0  0  0
  -26.0170  -29.4060   20.8010 C   0  0  0  0  0  0  0  0  0  0  0  0
  -27.1910  -28.5860   20.8080 C   0  0  0  0  0  3  0  0  0  0  0  0
  -26.0010  -26.8500   19.6170 C   0  0  0  0  0  3  0  0  0  0  0  0
  -24.8460  -27.6610   19.5940 C   0  0  0  0  0  3  0  0  0  0  0  0
  -23.6180  -29.8150   20.2330 C   0  0  0  0  0  2  0  0  0  0  0  0
  -24.6610  -31.0850   22.1560 N   0  0  0  0  0  0  0  0  0  0  0  0
  -23.5030  -32.1900   23.7720 O   0  0  0  0  0  0  0  0  0  0  0  0
  -22.7180  -29.4940   22.5710 C   0  0  0  0  0  0  0  0  0  0  0  0
  -21.3900  -29.3280   22.4440 N   0  0  0  0  0  0  0  0  0  0  0  0
  -23.3900  -28.8660   23.3940 O   0  0  0  0  0  0  0  0  0  0  0  0
  -20.9080  -29.8840   21.7520 H   0  0  0  0  0  0  0  0  0  0  0  0
  -17.9990  -28.1720   22.9570 C   0  0  0  0  0  0  0  0  0  0  0  0
  -20.5620  -28.4000   23.2170 C   0  0  0  0  0  3  0  0  0  0  0  0
  -20.6440  -26.9680   22.6390 C   0  0  0  0  0  2  0  0  0  0  0  0
  -19.5340  -26.6610   21.6290 C   0  0  0  0  0  2  0  0  0  0  0  0
  -18.1560  -26.8220   22.2770 C   0  0  0  0  0  2  0  0  0  0  0  0
  -19.1290  -28.9200   23.3840 C   0  0  0  0  0  0  0  0  0  0  0  0
  -18.9280  -30.1830   23.9810 C   0  0  0  0  0  3  0  0  0  0  0  0
  -17.6290  -30.7000   24.1540 C   0  0  0  0  0  3  0  0  0  0  0  0
  -16.5150  -29.9490   23.7420 C   0  0  0  0  0  3  0  0  0  0  0  0
  -16.7000  -28.6870   23.1500 C   0  0  0  0  0  3  0  0  0  0  0  0
  -25.8690  -32.5380   23.8750 C   0  0  0  0  0  3  0  0  0  0  0  0
  -26.3700  -31.7790   25.1660 C   0  0  1  0  0  0  0  0  0  0  0  0
  -25.2660  -31.5610   26.2270 C   0  0  0  0  0  1  0  0  0  0  0  0
  -26.9510  -30.3930   24.8000 C   0  0  0  0  0  1  0  0  0  0  0  0
  -27.5180  -32.5770   25.8280 C   0  0  0  0  0  1  0  0  0  0  0  0
  -25.5620  -33.9410   24.1900 N   0  0  0  0  0  0  0  0  0  0  0  0
  -25.9070  -34.9870   23.4270 C   0  0  0  0  0  0  0  0  0  0  0  0
  -26.5860  -34.8730   22.4040 O   0  0  0  0  0  0  0  0  0  0  0  0
  -24.9570  -34.1040   24.9830 H   0  0  0  0  0  0  0  0  0  0  0  0
  -24.1980  -36.7920   23.0400 C   0  0  0  0  0  1  0  0  0  0  0  0
  -25.4240  -36.3820   23.8720 C   0  0  0  0  0  3  0  0  0  0  0  0
  -27.5510  -37.2610   24.7300 C   0  0  0  0  0  1  0  0  0  0  0  0
  -26.4660  -37.4270   23.7660 N   0  0  0  0  0  0  0  0  0  0  0  0
  -26.0630  -38.3510   23.8990 H   0  0  0  0  0  0  0  0  0  0  0  0
  -30.2690  -17.4520   20.5870 C   0  0  0  0  0  2  0  0  0  0  0  0
  -30.6100  -14.8240   20.4080 C   0  0  0  0  0  0  0  0  0  0  0  0
  -30.4250  -12.5450   19.3820 C   0  0  0  0  0  2  0  0  0  0  0  0
  -29.4780  -12.6020   18.1630 C   0  0  0  0  0  2  0  0  0  0  0  0
  -28.0150  -12.3970   18.6040 C   0  0  0  0  0  2  0  0  0  0  0  0
  -27.6320  -13.2840   19.8210 C   0  0  0  0  0  3  0  0  0  0  0  0
  -28.7000  -13.2160   20.9330 C   0  0  0  0  0  2  0  0  0  0  0  0
  -29.9830  -13.5970   20.3300 N   0  0  0  0  0  0  0  0  0  0  0  0
  -31.8040  -14.9130   20.1090 O   0  0  0  0  0  0  0  0  0  0  0  0
  -29.8530  -15.9700   20.6130 N   0  0  0  0  0  0  0  0  0  0  0  0
  -28.8590  -15.8390   20.7480 H   0  0  0  0  0  0  0  0  0  0  0  0
  -25.2460  -13.8440   20.5740 C   0  0  0  0  0  0  0  0  0  0  0  0
  -24.1900  -13.0570   20.9460 C   0  0  0  0  0  0  0  0  0  0  0  0
  -24.6660  -11.7100   20.8980 C   0  0  0  0  0  0  0  0  0  0  0  0
  -26.2970  -12.9770   20.3200 N   0  0  0  0  0  0  0  0  0  0  0  0
  -25.9550  -11.6880   20.5820 N   0  0  0  0  0  0  0  0  0  0  0  0
  -23.9480  -10.4400   21.0760 C   0  0  0  0  0  0  0  0  0  0  0  0
  -24.3870   -9.4660   21.9990 C   0  0  0  0  0  3  0  0  0  0  0  0
  -23.6680   -8.2610   22.1650 C   0  0  0  0  0  3  0  0  0  0  0  0
  -22.4960   -8.0250   21.4070 C   0  0  0  0  0  0  0  0  0  0  0  0
  -22.0750   -8.9900   20.4750 C   0  0  0  0  0  3  0  0  0  0  0  0
  -22.7950  -10.1850   20.3080 C   0  0  0  0  0  3  0  0  0  0  0  0
  -21.7490   -6.8760   21.4830 O   0  0  0  0  0  0  0  0  0  0  0  0
  -21.6990   -6.1240   22.6280 C   0  0  0  0  0  0  0  0  0  0  0  0
  -21.2470   -6.6610   23.8540 C   0  0  0  0  0  3  0  0  0  0  0  0
  -21.1480   -5.8350   24.9910 C   0  0  0  0  0  3  0  0  0  0  0  0
  -21.4900   -4.4720   24.9030 C   0  0  0  0  0  0  0  0  0  0  0  0
  -21.9360   -3.9340   23.6840 C   0  0  0  0  0  3  0  0  0  0  0  0
  -22.0370   -4.7580   22.5480 C   0  0  0  0  0  0  0  0  0  0  0  0
  -22.4470   -4.2290   21.3700 F   0  0  0  0  0  0  0  0  0  0  0  0
  -21.3880   -3.6770   25.9940 F   0  0  0  0  0  0  0  0  0  0  0  0
  -22.7900  -13.5200   21.2250 C   0  0  0  0  0  0  0  0  0  0  0  0
  -22.0650  -12.8090   22.0820 N   0  0  0  0  0  0  0  0  0  0  0  0
  -22.3440  -14.5500   20.7200 O   0  0  0  0  0  0  0  0  0  0  0  0
  -22.4350  -11.9770   22.5180 H   0  0  0  0  0  0  0  0  0  0  0  0
  -21.1280  -13.1070   22.3100 H   0  0  0  0  0  0  0  0  0  0  0  0
  -25.3870  -15.2190   20.4050 N   0  0  0  0  0  0  0  0  0  0  0  0
  -24.5960  -15.8420   20.5270 H   0  0  0  0  0  0  0  0  0  0  0  0
  -26.2040  -15.7020   20.0320 H   0  0  0  0  0  0  0  0  0  0  0  0
  1  2  2  0
  1  5  1  0
  2  3  1  0
  3  6  2  0
  3 56  1  0
  4  7  1  0
  4  6  1  0
  5  4  2  0
  7  8  1  0
  7 13  1  0
  9  2  1  0
 10  9  1  0
 11  9  1  0
 13 12  1  0
 14 15  1  0
 14 13  1  0
 16 27  2  0
 17 15  1  0
 17 22  1  0
 18 26  1  0
 18 28  1  0
 19 25  1  0
 19 21  1  0
 20 26  1  0
 21 22  2  0
 21 20  1  0
 23 17  2  0
 24 23  1  0
 24 19  2  0
 25 18  1  0
 26 16  1  0
 28 30  2  0
 29 28  1  0
 31 29  1  0
 32 41  2  0
 32 37  1  0
 33 29  1  0
 33 37  1  0
 34 33  1  0
 35 36  1  0
 35 34  1  0
 36 32  1  0
 37 38  2  0
 38 39  1  0
 40 39  2  0
 41 40  1  0
 42 16  1  0
 42 47  1  0
 42 43  1  0
 43 46  1  1
 43 44  1  0
 45 43  1  0
 47 50  1  0
 48 52  1  0
 48 47  1  0
 49 48  2  0
 52 51  1  0
 54 52  1  0
 54 55  1  0
 54 53  1  0
 56 65  1  0
 57 65  1  0
 58 63  1  0
 59 60  1  0
 59 58  1  0
 61 60  1  0
 61 70  1  0
 61 62  1  0
 63 57  1  0
 63 62  1  0
 64 57  2  0
 65 66  1  0
 67 68  2  0
 68 87  1  0
 69 68  1  0
 69 72  1  0
 70 67  1  0
 70 71  1  0
 71 69  2  0
 72 73  1  0
 73 74  2  0
 75 78  1  0
 75 74  1  0
 76 75  2  0
 77 76  1  0
 77 72  2  0
 78 79  1  0
 79 80  1  0
 80 81  2  0
 82 81  1  0
 82 86  1  0
 83 82  2  0
 84 79  2  0
 84 83  1  0
 85 84  1  0
 87 88  1  0
 88 91  1  0
 88 90  1  0
 89 87  2  0
 92 93  1  0
 92 67  1  0
 94 92  1  0
M  ISO  4  14 101  15 101  57 100  65 100
M  END
>  <TORSDO>  (14) 
F 20

>  <SCORE>  (14) 
-14.189

>  <name>  (14) 
13

>  <ligand_id>  (14) 
13

>  <original_smiles>  (14) 
[H]c1nc(N([H])C([H])(C([H])([H])[H])C([H])([H])Oc2c([H])c([H])c3c(c2[H])C([H])([H])N(C(=O)C([H])(N([H])C(=O)C([H])(N([H])C([H])([H])[H])C([H])([H])[H])C(C([H])([H])[H])(C([H])([H])[H])C([H])([H])[H])C([H])(C(=O)N([H])C2([H])c4c([H])c([H])c([H])c([H])c4C([H])([H])C([H])([H])C2([H])[H])C3([H])[H])nc(C([H])([H])N([H])C(=O)N2C([H])([H])C([H])([H])C([H])([H])C([H])(n3nc(-c4c([H])c([H])c(Oc5c([H])c([H])c(F)c([H])c5F)c([H])c4[H])c(C(=O)N([H])[H])c3N([H])[H])C2([H])[H])c1N([H])[H]

>  <smiles>  (14) 
[H]c1nc(N([H])C([H])(C([H])([H])[H])C([H])([H])Oc2c([H])c([H])c3c(c2[H])C([H])([H])N(C(=O)C([H])(N([H])C(=O)C([H])(N([H])C([H])([H])[H])C([H])([H])[H])C(C([H])([H])[H])(C([H])([H])[H])C([H])([H])[H])C([H])(C(=O)N([H])C2([H])c4c([H])c([H])c([H])c([H])c4C([H])([H])C([H])([H])C2([H])[H])C3([H])[H])nc(C([H])([H])N([H])C(=O)N2C([H])([H])C([H])([H])C([H])([H])C([H])(n3nc(-c4c([H])c([H])c(Oc5c([H])c([H])c(F)c([H])c5F)c([H])c4[H])c(C(=O)N([H])[H])c3N([H])[H])C2([H])[H])c1N([H])[H]

$$$$
14:0:0
     RDKit          3D

 92100  0  0  1  0  0  0  0  0999 V2000
  -28.8760  -22.9810   20.9770 C   0  0  0  0  0  2  0  0  0  0  0  0
  -28.7790  -21.8420   20.0400 N   0  0  0  0  0  0  0  0  0  0  0  0
  -28.5050  -22.0580   19.0860 H   0  0  0  0  0  0  0  0  0  0  0  0
  -29.4470  -19.4430   19.5740 C   0  0  0  0  0  3  0  0  0  0  0  0
  -30.1370  -18.3430   20.2170 C   0  0  0  0  0  0  0  0  0  0  0  0
  -29.3630  -20.5820   20.3440 C   0  0  0  0  0  0  0  0  0  0  0  0
  -30.5600  -18.6040   21.4390 N   0  0  0  0  0  0  0  0  0  0  0  0
  -30.1650  -20.1950   21.8400 S   0  0  0  0  0  0  0  0  0  0  0  0
  -30.5030  -17.0370   19.5290 C   0  0  0  0  0  2  0  0  0  0  0  0
  -30.9130  -14.6330   19.9870 C   0  0  0  0  0  0  0  0  0  0  0  0
  -30.5660  -12.4270   18.9680 C   0  0  0  0  0  2  0  0  0  0  0  0
  -29.5850  -12.5980   17.7880 C   0  0  0  0  0  2  0  0  0  0  0  0
  -28.1260  -12.4720   18.2740 C   0  0  0  0  0  2  0  0  0  0  0  0
  -27.8360  -13.3440   19.5280 C   0  0  0  0  0  3  0  0  0  0  0  0
  -28.9380  -13.1820   20.6010 C   0  0  0  0  0  2  0  0  0  0  0  0
  -30.2340  -13.4550   19.9660 N   0  0  0  0  0  0  0  0  0  0  0  0
  -32.0680  -14.7300   19.5660 O   0  0  0  0  0  0  0  0  0  0  0  0
  -30.1780  -15.7490   20.1920 N   0  0  0  0  0  0  0  0  0  0  0  0
  -29.2350  -15.6330   20.5340 H   0  0  0  0  0  0  0  0  0  0  0  0
  -25.4840  -13.9650   20.3570 C   0  0  0  0  0  0  0  0  0  0  0  0
  -24.4210  -13.2000   20.7580 C   0  0  0  0  0  0  0  0  0  0  0  0
  -24.8640  -11.8450   20.6900 C   0  0  0  0  0  0  0  0  0  0  0  0
  -26.5060  -13.0750   20.0720 N   0  0  0  0  0  0  0  0  0  0  0  0
  -26.1410  -11.7920   20.3300 N   0  0  0  0  0  0  0  0  0  0  0  0
  -24.1290  -10.5900   20.8940 C   0  0  0  0  0  0  0  0  0  0  0  0
  -24.5320   -9.6510   21.8670 C   0  0  0  0  0  3  0  0  0  0  0  0
  -23.7990   -8.4590   22.0590 C   0  0  0  0  0  3  0  0  0  0  0  0
  -22.6490   -8.1970   21.2760 C   0  0  0  0  0  0  0  0  0  0  0  0
  -22.2690   -9.1240   20.2910 C   0  0  0  0  0  3  0  0  0  0  0  0
  -23.0030  -10.3080   20.0970 C   0  0  0  0  0  3  0  0  0  0  0  0
  -21.8930   -7.0540   21.3730 O   0  0  0  0  0  0  0  0  0  0  0  0
  -21.7260   -6.4010   22.5680 C   0  0  0  0  0  0  0  0  0  0  0  0
  -21.1530   -7.0370   23.6920 C   0  0  0  0  0  3  0  0  0  0  0  0
  -20.9390   -6.3090   24.8800 C   0  0  0  0  0  3  0  0  0  0  0  0
  -21.2830   -4.9450   24.9410 C   0  0  0  0  0  0  0  0  0  0  0  0
  -21.8470   -4.3090   23.8230 C   0  0  0  0  0  3  0  0  0  0  0  0
  -22.0660   -5.0350   22.6380 C   0  0  0  0  0  0  0  0  0  0  0  0
  -22.5900   -4.4130   21.5540 F   0  0  0  0  0  0  0  0  0  0  0  0
  -21.0690   -4.2430   26.0790 F   0  0  0  0  0  0  0  0  0  0  0  0
  -23.0420  -13.6920   21.0930 C   0  0  0  0  0  0  0  0  0  0  0  0
  -22.3450  -12.9970   21.9850 N   0  0  0  0  0  0  0  0  0  0  0  0
  -22.5940  -14.7240   20.5990 O   0  0  0  0  0  0  0  0  0  0  0  0
  -22.7220  -12.1590   22.4070 H   0  0  0  0  0  0  0  0  0  0  0  0
  -21.4190  -13.3040   22.2510 H   0  0  0  0  0  0  0  0  0  0  0  0
  -25.6580  -15.3340   20.1890 N   0  0  0  0  0  0  0  0  0  0  0  0
  -24.9090  -15.9960   20.3570 H   0  0  0  0  0  0  0  0  0  0  0  0
  -26.4990  -15.7740   19.8370 H   0  0  0  0  0  0  0  0  0  0  0  0
  -27.9710  -24.2340   20.6800 C   0  0  0  0  0  3  0  0  0  0  0  0
  -26.6960  -23.7590   20.2790 O   0  0  0  0  0  0  0  0  0  0  0  0
  -26.8100  -23.3020   19.4520 H   0  0  0  0  0  0  0  0  0  0  0  0
  -28.4860  -25.3130   19.6670 C   0  0  0  0  0  2  0  0  0  0  0  0
  -28.4190  -26.6920   20.1230 O   0  0  0  0  0  0  0  0  0  0  0  0
  -24.6860  -31.8810   23.2940 C   0  0  0  0  0  0  0  0  0  0  0  0
  -27.2380  -27.4220   20.1160 C   0  0  0  0  0  0  0  0  0  0  0  0
  -23.4400  -30.5100   21.6560 C   0  0  0  0  0  3  0  0  0  0  0  0
  -24.8560  -28.9720   20.1870 C   0  0  0  0  0  0  0  0  0  0  0  0
  -25.9660  -30.8410   21.4180 C   0  0  0  0  0  2  0  0  0  0  0  0
  -26.0310  -29.4740   20.7590 C   0  0  0  0  0  0  0  0  0  0  0  0
  -27.2210  -28.7060   20.7200 C   0  0  0  0  0  3  0  0  0  0  0  0
  -26.0440  -26.9470   19.5320 C   0  0  0  0  0  3  0  0  0  0  0  0
  -24.8590  -27.7090   19.5720 C   0  0  0  0  0  3  0  0  0  0  0  0
  -23.6210  -29.8440   20.2660 C   0  0  0  0  0  2  0  0  0  0  0  0
  -24.7180  -31.0940   22.1800 N   0  0  0  0  0  0  0  0  0  0  0  0
  -23.6160  -32.1530   23.8580 O   0  0  0  0  0  0  0  0  0  0  0  0
  -22.7980  -29.4820   22.6170 C   0  0  0  0  0  0  0  0  0  0  0  0
  -21.4740  -29.2870   22.4970 N   0  0  0  0  0  0  0  0  0  0  0  0
  -23.4890  -28.8690   23.4350 O   0  0  0  0  0  0  0  0  0  0  0  0
  -20.9700  -29.8390   21.8140 H   0  0  0  0  0  0  0  0  0  0  0  0
  -18.1190  -28.0500   22.9870 C   0  0  0  0  0  0  0  0  0  0  0  0
  -20.6710  -28.3410   23.2710 C   0  0  0  0  0  3  0  0  0  0  0  0
  -20.7940  -26.9090   22.6990 C   0  0  0  0  0  2  0  0  0  0  0  0
  -19.6990  -26.5710   21.6800 C   0  0  0  0  0  2  0  0  0  0  0  0
  -18.3120  -26.7010   22.3160 C   0  0  0  0  0  2  0  0  0  0  0  0
  -19.2260  -28.8270   23.4190 C   0  0  0  0  0  0  0  0  0  0  0  0
  -18.9860  -30.0900   24.0020 C   0  0  0  0  0  3  0  0  0  0  0  0
  -17.6740  -30.5720   24.1620 C   0  0  0  0  0  3  0  0  0  0  0  0
  -16.5830  -29.7890   23.7460 C   0  0  0  0  0  3  0  0  0  0  0  0
  -16.8050  -28.5310   23.1630 C   0  0  0  0  0  3  0  0  0  0  0  0
  -25.9880  -32.4990   23.8940 C   0  0  0  0  0  3  0  0  0  0  0  0
  -25.7040  -33.9060   24.2070 N   0  0  0  0  0  0  0  0  0  0  0  0
  -26.0610  -34.9420   23.4360 C   0  0  0  0  0  0  0  0  0  0  0  0
  -26.7320  -34.8140   22.4080 O   0  0  0  0  0  0  0  0  0  0  0  0
  -25.1070  -34.0800   25.0020 H   0  0  0  0  0  0  0  0  0  0  0  0
  -24.3810  -36.7720   23.0460 C   0  0  0  0  0  1  0  0  0  0  0  0
  -25.6030  -36.3450   23.8760 C   0  0  0  0  0  3  0  0  0  0  0  0
  -27.7430  -37.1930   24.7290 C   0  0  0  0  0  1  0  0  0  0  0  0
  -26.6610  -37.3740   23.7640 N   0  0  0  0  0  0  0  0  0  0  0  0
  -26.2730  -38.3050   23.8930 H   0  0  0  0  0  0  0  0  0  0  0  0
  -26.5020  -31.7360   25.1760 C   0  0  1  0  0  0  0  0  0  0  0  0
  -25.4120  -31.5250   26.2540 C   0  0  0  0  0  1  0  0  0  0  0  0
  -27.0620  -30.3470   24.7940 C   0  0  0  0  0  1  0  0  0  0  0  0
  -27.6670  -32.5220   25.8210 C   0  0  0  0  0  1  0  0  0  0  0  0
  2  6  1  0
  2  1  1  0
  3  2  1  0
  4  5  1  0
  4  6  2  0
  5  7  2  0
  6  8  1  0
  7  8  1  0
  9 18  1  0
  9  5  1  0
 10 18  1  0
 11 16  1  0
 12 13  1  0
 12 11  1  0
 14 13  1  0
 14 23  1  0
 14 15  1  0
 16 10  1  0
 16 15  1  0
 17 10  2  0
 18 19  1  0
 20 21  2  0
 21 40  1  0
 22 21  1  0
 22 25  1  0
 23 24  1  0
 23 20  1  0
 24 22  2  0
 25 26  1  0
 26 27  2  0
 28 31  1  0
 28 27  1  0
 29 28  2  0
 30 29  1  0
 30 25  2  0
 31 32  1  0
 32 37  2  0
 32 33  1  0
 33 34  2  0
 34 35  1  0
 35 39  1  0
 36 35  2  0
 37 36  1  0
 38 37  1  0
 40 41  1  0
 41 44  1  0
 41 43  1  0
 42 40  2  0
 45 46  1  0
 45 20  1  0
 47 45  1  0
 48 51  1  0
 48  1  1  0
 49 48  1  0
 50 49  1  0
 51 52  1  0
 53 64  2  0
 54 52  1  0
 54 59  1  0
 55 63  1  0
 55 65  1  0
 56 62  1  0
 56 58  1  0
 57 63  1  0
 58 57  1  0
 59 58  2  0
 60 61  1  0
 60 54  2  0
 61 56  2  0
 62 55  1  0
 63 53  1  0
 65 67  2  0
 66 65  1  0
 68 66  1  0
 69 78  2  0
 69 74  1  0
 70 66  1  0
 70 74  1  0
 71 70  1  0
 72 73  1  0
 72 71  1  0
 73 69  1  0
 74 75  2  0
 75 76  1  0
 77 76  2  0
 78 77  1  0
 79 53  1  0
 79 80  1  0
 79 89  1  0
 80 83  1  0
 81 85  1  0
 81 80  1  0
 82 81  2  0
 85 84  1  0
 87 85  1  0
 87 88  1  0
 87 86  1  0
 89 92  1  1
 89 90  1  0
 91 89  1  0
M  ISO  4  10 100  18 100  51 101  52 101
M  END
>  <TORSDO>  (15) 
F 22

>  <SCORE>  (15) 
-12.741

>  <name>  (15) 
14

>  <ligand_id>  (15) 
14

>  <original_smiles>  (15) 
[H]OC([H])(C([H])([H])Oc1c([H])c([H])c2c(c1[H])C([H])([H])N(C(=O)C([H])(N([H])C(=O)C([H])(N([H])C([H])([H])[H])C([H])([H])[H])C(C([H])([H])[H])(C([H])([H])[H])C([H])([H])[H])C([H])(C(=O)N([H])C1([H])c3c([H])c([H])c([H])c([H])c3C([H])([H])C([H])([H])C1([H])[H])C2([H])[H])C([H])([H])N([H])c1snc(C([H])([H])N([H])C(=O)N2C([H])([H])C([H])([H])C([H])([H])C([H])(n3nc(-c4c([H])c([H])c(Oc5c([H])c([H])c(F)c([H])c5F)c([H])c4[H])c(C(=O)N([H])[H])c3N([H])[H])C2([H])[H])c1[H]

>  <smiles>  (15) 
[H]OC([H])(C([H])([H])Oc1c([H])c([H])c2c(c1[H])C([H])([H])N(C(=O)C([H])(N([H])C(=O)C([H])(N([H])C([H])([H])[H])C([H])([H])[H])C(C([H])([H])[H])(C([H])([H])[H])C([H])([H])[H])C([H])(C(=O)N([H])C1([H])c3c([H])c([H])c([H])c([H])c3C([H])([H])C([H])([H])C1([H])[H])C2([H])[H])C([H])([H])N([H])c1snc(C([H])([H])N([H])C(=O)N2C([H])([H])C([H])([H])C([H])([H])C([H])(n3nc(-c4c([H])c([H])c(Oc5c([H])c([H])c(F)c([H])c5F)c([H])c4[H])c(C(=O)N([H])[H])c3N([H])[H])C2([H])[H])c1[H]

$$$$
15:0:0
     RDKit          3D

 92100  0  0  1  0  0  0  0  0999 V2000
  -29.2470  -22.4600   20.2920 N   0  0  0  0  0  4  0  0  0  0  0  0
  -30.0670  -22.6880   19.7510 H   0  0  0  0  0  0  0  0  0  0  0  0
  -29.6130  -22.1500   21.1780 H   0  0  0  0  0  0  0  0  0  0  0  0
  -27.2460  -20.7870   20.1240 C   0  0  0  0  0  1  0  0  0  0  0  0
  -28.6940  -21.1370   19.6900 C   0  0  0  0  0  3  0  0  0  0  0  0
  -30.8130  -14.9670   20.1610 C   0  0  0  0  0  0  0  0  0  0  0  0
  -30.6640  -12.6410   19.2770 C   0  0  0  0  0  2  0  0  0  0  0  0
  -29.7320  -12.6480   18.0410 C   0  0  0  0  0  2  0  0  0  0  0  0
  -28.2590  -12.4870   18.4720 C   0  0  0  0  0  2  0  0  0  0  0  0
  -27.8790  -13.4390   19.6380 C   0  0  0  0  0  3  0  0  0  0  0  0
  -28.9240  -13.3860   20.7720 C   0  0  0  0  0  2  0  0  0  0  0  0
  -30.2220  -13.7260   20.1750 N   0  0  0  0  0  0  0  0  0  0  0  0
  -32.0070  -15.0630   19.8500 O   0  0  0  0  0  0  0  0  0  0  0  0
  -31.0050  -19.8310   19.5470 C   0  0  0  0  0  3  0  0  0  0  0  0
  -29.6510  -19.8540   19.8210 C   0  0  0  0  0  0  0  0  0  0  0  0
  -30.1970  -17.5150   20.0610 C   0  0  0  0  0  0  0  0  0  0  0  0
  -29.2180  -18.4870   20.0640 N   0  0  0  0  0  0  0  0  0  0  0  0
  -29.9750  -16.0700   20.2910 N   0  0  0  0  0  0  0  0  0  0  0  0
  -31.7590  -18.2430   19.7130 S   0  0  0  0  0  0  0  0  0  0  0  0
  -29.0190  -15.8300   20.5000 H   0  0  0  0  0  0  0  0  0  0  0  0
  -25.5200  -14.0910   20.3980 C   0  0  0  0  0  0  0  0  0  0  0  0
  -24.4420  -13.3410   20.7790 C   0  0  0  0  0  0  0  0  0  0  0  0
  -24.8730  -11.9800   20.7400 C   0  0  0  0  0  0  0  0  0  0  0  0
  -26.5360  -13.1840   20.1410 N   0  0  0  0  0  0  0  0  0  0  0  0
  -26.1570  -11.9100   20.4130 N   0  0  0  0  0  0  0  0  0  0  0  0
  -24.1240  -10.7340   20.9390 C   0  0  0  0  0  0  0  0  0  0  0  0
  -24.5210   -9.7790   21.9000 C   0  0  0  0  0  3  0  0  0  0  0  0
  -23.7720   -8.5980   22.0820 C   0  0  0  0  0  3  0  0  0  0  0  0
  -22.6140   -8.3640   21.3060 C   0  0  0  0  0  0  0  0  0  0  0  0
  -22.2370   -9.3080   20.3350 C   0  0  0  0  0  3  0  0  0  0  0  0
  -22.9850  -10.4810   20.1500 C   0  0  0  0  0  3  0  0  0  0  0  0
  -21.8390   -7.2350   21.3990 O   0  0  0  0  0  0  0  0  0  0  0  0
  -21.7230   -6.5360   22.5730 C   0  0  0  0  0  0  0  0  0  0  0  0
  -21.1860   -7.1230   23.7400 C   0  0  0  0  0  3  0  0  0  0  0  0
  -21.0210   -6.3460   24.9040 C   0  0  0  0  0  3  0  0  0  0  0  0
  -21.3820   -4.9860   24.9010 C   0  0  0  0  0  0  0  0  0  0  0  0
  -21.9130   -4.4010   23.7380 C   0  0  0  0  0  3  0  0  0  0  0  0
  -22.0800   -5.1730   22.5770 C   0  0  0  0  0  0  0  0  0  0  0  0
  -22.5720   -4.5990   21.4520 F   0  0  0  0  0  0  0  0  0  0  0  0
  -21.2150   -4.2370   26.0160 F   0  0  0  0  0  0  0  0  0  0  0  0
  -23.0620  -13.8500   21.0680 C   0  0  0  0  0  0  0  0  0  0  0  0
  -22.3370  -13.1800   21.9550 N   0  0  0  0  0  0  0  0  0  0  0  0
  -22.6380  -14.8780   20.5400 O   0  0  0  0  0  0  0  0  0  0  0  0
  -22.6960  -12.3510   22.4070 H   0  0  0  0  0  0  0  0  0  0  0  0
  -21.4090  -13.5010   22.1920 H   0  0  0  0  0  0  0  0  0  0  0  0
  -25.7120  -15.4580   20.2330 N   0  0  0  0  0  0  0  0  0  0  0  0
  -24.9520  -16.1130   20.3720 H   0  0  0  0  0  0  0  0  0  0  0  0
  -26.5520  -15.9000   19.8890 H   0  0  0  0  0  0  0  0  0  0  0  0
  -27.0960  -23.6670   21.2340 C   0  0  0  0  0  1  0  0  0  0  0  0
  -28.5090  -23.8060   20.6420 C   0  0  0  0  0  3  0  0  0  0  0  0
  -28.6380  -25.1480   19.7310 C   0  0  0  0  0  2  0  0  0  0  0  0
  -28.5140  -26.5310   20.3370 O   0  0  0  0  0  0  0  0  0  0  0  0
  -24.5600  -31.8520   23.2760 C   0  0  0  0  0  0  0  0  0  0  0  0
  -27.3790  -27.3760   20.2290 C   0  0  0  0  0  0  0  0  0  0  0  0
  -23.4620  -30.4870   21.5420 C   0  0  0  0  0  3  0  0  0  0  0  0
  -25.0060  -29.0020   20.1400 C   0  0  0  0  0  0  0  0  0  0  0  0
  -26.0060  -30.8360   21.4950 C   0  0  0  0  0  2  0  0  0  0  0  0
  -26.1340  -29.4720   20.8150 C   0  0  0  0  0  0  0  0  0  0  0  0
  -27.3190  -28.6700   20.8550 C   0  0  0  0  0  3  0  0  0  0  0  0
  -26.2220  -26.9720   19.5260 C   0  0  0  0  0  3  0  0  0  0  0  0
  -25.0550  -27.7650   19.4790 C   0  0  0  0  0  3  0  0  0  0  0  0
  -23.7650  -29.8720   20.1480 C   0  0  0  0  0  2  0  0  0  0  0  0
  -24.6940  -31.0740   22.1630 N   0  0  0  0  0  0  0  0  0  0  0  0
  -23.4480  -32.0890   23.7680 O   0  0  0  0  0  0  0  0  0  0  0  0
  -22.7760  -29.4260   22.4360 C   0  0  0  0  0  0  0  0  0  0  0  0
  -21.4560  -29.2420   22.2640 N   0  0  0  0  0  0  0  0  0  0  0  0
  -23.4320  -28.7780   23.2590 O   0  0  0  0  0  0  0  0  0  0  0  0
  -20.9810  -29.8130   21.5760 H   0  0  0  0  0  0  0  0  0  0  0  0
  -18.0750  -28.0140   22.6540 C   0  0  0  0  0  0  0  0  0  0  0  0
  -20.6290  -28.2700   22.9810 C   0  0  0  0  0  3  0  0  0  0  0  0
  -20.7490  -26.8670   22.3460 C   0  0  0  0  0  2  0  0  0  0  0  0
  -19.6690  -26.5780   21.3030 C   0  0  0  0  0  2  0  0  0  0  0  0
  -18.2720  -26.6960   21.9240 C   0  0  0  0  0  2  0  0  0  0  0  0
  -19.1840  -28.7570   23.1410 C   0  0  0  0  0  0  0  0  0  0  0  0
  -18.9540  -29.9880   23.7920 C   0  0  0  0  0  3  0  0  0  0  0  0
  -17.6480  -30.4800   23.9610 C   0  0  0  0  0  3  0  0  0  0  0  0
  -16.5520  -29.7350   23.4920 C   0  0  0  0  0  3  0  0  0  0  0  0
  -16.7640  -28.5050   22.8450 C   0  0  0  0  0  3  0  0  0  0  0  0
  -25.7930  -32.5040   23.9700 C   0  0  0  0  0  3  0  0  0  0  0  0
  -26.2110  -31.7730   25.3060 C   0  0  1  0  0  0  0  0  0  0  0  0
  -25.0370  -31.5710   26.2920 C   0  0  0  0  0  1  0  0  0  0  0  0
  -26.8260  -30.3870   25.0020 C   0  0  0  0  0  1  0  0  0  0  0  0
  -27.3030  -32.5950   26.0340 C   0  0  0  0  0  1  0  0  0  0  0  0
  -25.4670  -33.9080   24.2410 N   0  0  0  0  0  0  0  0  0  0  0  0
  -25.8380  -34.9400   23.4750 C   0  0  0  0  0  0  0  0  0  0  0  0
  -26.5620  -34.8080   22.4830 O   0  0  0  0  0  0  0  0  0  0  0  0
  -24.8440  -34.0900   25.0160 H   0  0  0  0  0  0  0  0  0  0  0  0
  -24.1380  -36.7240   22.9760 C   0  0  0  0  0  1  0  0  0  0  0  0
  -25.3260  -36.3380   23.8700 C   0  0  0  0  0  3  0  0  0  0  0  0
  -27.3980  -37.2560   24.8120 C   0  0  0  0  0  1  0  0  0  0  0  0
  -26.3640  -37.3880   23.7940 N   0  0  0  0  0  0  0  0  0  0  0  0
  -25.9470  -38.3110   23.8900 H   0  0  0  0  0  0  0  0  0  0  0  0
  1 50  1  0
  1  3  1  0
  2  1  1  0
  5 15  1  0
  5  4  1  0
  5  1  1  0
  6 12  1  0
  6 18  1  0
  7 12  1  0
  8  9  1  0
  8  7  1  0
 10  9  1  0
 10 24  1  0
 10 11  1  0
 12 11  1  0
 13  6  2  0
 14 19  1  0
 14 15  2  0
 15 17  1  0
 16 17  2  0
 16 18  1  0
 18 20  1  0
 19 16  1  0
 21 22  2  0
 22 41  1  0
 23 22  1  0
 23 26  1  0
 24 21  1  0
 24 25  1  0
 25 23  2  0
 26 27  1  0
 27 28  2  0
 29 32  1  0
 29 28  1  0
 30 29  2  0
 31 30  1  0
 31 26  2  0
 32 33  1  0
 33 38  2  0
 33 34  1  0
 34 35  2  0
 36 35  1  0
 36 40  1  0
 37 36  2  0
 38 37  1  0
 39 38  1  0
 41 42  1  0
 42 45  1  0
 42 44  1  0
 43 41  2  0
 46 47  1  0
 46 21  1  0
 48 46  1  0
 50 49  1  0
 51 52  1  0
 51 50  1  0
 53 64  2  0
 54 52  1  0
 54 59  1  0
 55 63  1  0
 55 65  1  0
 56 62  1  0
 56 58  1  0
 57 63  1  0
 58 59  2  0
 58 57  1  0
 60 54  2  0
 61 60  1  0
 61 56  2  0
 62 55  1  0
 63 53  1  0
 65 67  2  0
 66 65  1  0
 68 66  1  0
 69 78  2  0
 69 74  1  0
 70 66  1  0
 70 74  1  0
 71 70  1  0
 72 73  1  0
 72 71  1  0
 73 69  1  0
 74 75  2  0
 75 76  1  0
 77 76  2  0
 78 77  1  0
 79 53  1  0
 79 84  1  0
 79 80  1  0
 80 83  1  1
 80 81  1  0
 82 80  1  0
 84 87  1  0
 85 89  1  0
 85 84  1  0
 86 85  2  0
 89 88  1  0
 91 89  1  0
 91 92  1  0
 91 90  1  0
M  ISO  4   6 100  18 100  51 101  52 101
M  END
>  <TORSDO>  (16) 
F 19

>  <SCORE>  (16) 
-13.614

>  <name>  (16) 
15

>  <ligand_id>  (16) 
15

>  <original_smiles>  (16) 
[H]c1sc(N([H])C(=O)N2C([H])([H])C([H])([H])C([H])([H])C([H])(n3nc(-c4c([H])c([H])c(Oc5c([H])c([H])c(F)c([H])c5F)c([H])c4[H])c(C(=O)N([H])[H])c3N([H])[H])C2([H])[H])nc1C([H])(C([H])([H])[H])[N+]([H])([H])C([H])(C([H])([H])[H])C([H])([H])Oc1c([H])c([H])c2c(c1[H])C([H])([H])N(C(=O)C([H])(N([H])C(=O)C([H])(N([H])C([H])([H])[H])C([H])([H])[H])C(C([H])([H])[H])(C([H])([H])[H])C([H])([H])[H])C([H])(C(=O)N([H])C1([H])c3c([H])c([H])c([H])c([H])c3C([H])([H])C([H])([H])C1([H])[H])C2([H])[H]

>  <smiles>  (16) 
[H]c1sc(N([H])C(=O)N2C([H])([H])C([H])([H])C([H])([H])C([H])(n3nc(-c4c([H])c([H])c(Oc5c([H])c([H])c(F)c([H])c5F)c([H])c4[H])c(C(=O)N([H])[H])c3N([H])[H])C2([H])[H])nc1C([H])(C([H])([H])[H])[N+]([H])([H])C([H])(C([H])([H])[H])C([H])([H])Oc1c([H])c([H])c2c(c1[H])C([H])([H])N(C(=O)C([H])(N([H])C(=O)C([H])(N([H])C([H])([H])[H])C([H])([H])[H])C(C([H])([H])[H])(C([H])([H])[H])C([H])([H])[H])C([H])(C(=O)N([H])C1([H])c3c([H])c([H])c([H])c([H])c3C([H])([H])C([H])([H])C1([H])[H])C2([H])[H]

$$$$
16:0:0
     RDKit          3D

 93101  0  0  1  0  0  0  0  0999 V2000
  -29.1950  -21.1430   19.5890 C   0  0  0  0  0  3  0  0  0  0  0  0
  -31.0850  -17.8940   20.3990 C   0  0  0  0  0  3  0  0  0  0  0  0
  -29.9260  -17.1420   20.4710 C   0  0  0  0  0  0  0  0  0  0  0  0
  -29.6310  -19.7100   20.0870 C   0  0  0  0  0  0  0  0  0  0  0  0
  -30.9080  -19.2920   20.2060 N   0  0  0  0  0  0  0  0  0  0  0  0
  -28.5590  -18.2880   20.3330 S   0  0  0  0  0  0  0  0  0  0  0  0
  -30.5710  -14.6910   20.3730 C   0  0  0  0  0  0  0  0  0  0  0  0
  -30.3760  -12.4350   19.3350 C   0  0  0  0  0  2  0  0  0  0  0  0
  -29.4260  -12.5470   18.1210 C   0  0  0  0  0  2  0  0  0  0  0  0
  -27.9560  -12.3800   18.5570 C   0  0  0  0  0  2  0  0  0  0  0  0
  -27.5970  -13.2480   19.7930 C   0  0  0  0  0  3  0  0  0  0  0  0
  -28.6620  -13.1120   20.9040 C   0  0  0  0  0  2  0  0  0  0  0  0
  -29.9630  -13.4600   20.3160 N   0  0  0  0  0  0  0  0  0  0  0  0
  -31.7440  -14.8340   20.0160 O   0  0  0  0  0  0  0  0  0  0  0  0
  -29.7510  -15.7660   20.6390 N   0  0  0  0  0  0  0  0  0  0  0  0
  -28.8110  -15.4890   20.8820 H   0  0  0  0  0  0  0  0  0  0  0  0
  -25.2080  -13.8460   20.5180 C   0  0  0  0  0  0  0  0  0  0  0  0
  -24.1430  -13.0730   20.8920 C   0  0  0  0  0  0  0  0  0  0  0  0
  -24.6070  -11.7210   20.8640 C   0  0  0  0  0  0  0  0  0  0  0  0
  -26.2520  -12.9640   20.2840 N   0  0  0  0  0  0  0  0  0  0  0  0
  -25.8960  -11.6830   20.5530 N   0  0  0  0  0  0  0  0  0  0  0  0
  -23.8810  -10.4590   21.0580 C   0  0  0  0  0  0  0  0  0  0  0  0
  -24.3220   -9.4870   21.9820 C   0  0  0  0  0  3  0  0  0  0  0  0
  -23.5970   -8.2900   22.1640 C   0  0  0  0  0  3  0  0  0  0  0  0
  -22.4170   -8.0560   21.4190 C   0  0  0  0  0  0  0  0  0  0  0  0
  -21.9950   -9.0160   20.4830 C   0  0  0  0  0  3  0  0  0  0  0  0
  -22.7210  -10.2050   20.3000 C   0  0  0  0  0  3  0  0  0  0  0  0
  -21.6620   -6.9110   21.5090 O   0  0  0  0  0  0  0  0  0  0  0  0
  -21.6320   -6.1590   22.6560 C   0  0  0  0  0  0  0  0  0  0  0  0
  -21.2340   -6.7040   23.8970 C   0  0  0  0  0  3  0  0  0  0  0  0
  -21.1510   -5.8780   25.0350 C   0  0  0  0  0  3  0  0  0  0  0  0
  -21.4550   -4.5080   24.9350 C   0  0  0  0  0  0  0  0  0  0  0  0
  -21.8480   -3.9610   23.7010 C   0  0  0  0  0  3  0  0  0  0  0  0
  -21.9330   -4.7850   22.5640 C   0  0  0  0  0  0  0  0  0  0  0  0
  -22.2900   -4.2490   21.3730 F   0  0  0  0  0  0  0  0  0  0  0  0
  -21.3690   -3.7120   26.0270 F   0  0  0  0  0  0  0  0  0  0  0  0
  -22.7470  -13.5500   21.1670 C   0  0  0  0  0  0  0  0  0  0  0  0
  -22.0220  -12.8530   22.0350 N   0  0  0  0  0  0  0  0  0  0  0  0
  -22.3070  -14.5750   20.6480 O   0  0  0  0  0  0  0  0  0  0  0  0
  -22.3900  -12.0210   22.4740 H   0  0  0  0  0  0  0  0  0  0  0  0
  -21.0860  -13.1540   22.2660 H   0  0  0  0  0  0  0  0  0  0  0  0
  -25.3720  -15.2150   20.3340 N   0  0  0  0  0  0  0  0  0  0  0  0
  -24.6010  -15.8660   20.4260 H   0  0  0  0  0  0  0  0  0  0  0  0
  -26.2060  -15.6470   19.9550 H   0  0  0  0  0  0  0  0  0  0  0  0
  -30.2700  -21.4410   18.6300 N   0  0  0  0  0  4  0  0  0  0  0  0
  -31.1480  -21.4260   19.1190 H   0  0  0  0  0  0  0  0  0  0  0  0
  -30.1320  -22.3230   18.1760 H   0  0  0  0  0  0  0  0  0  0  0  0
  -30.2990  -20.7140   17.9390 H   0  0  0  0  0  0  0  0  0  0  0  0
  -28.9550  -22.3980   20.5650 C   0  0  0  0  0  3  0  0  0  0  0  0
  -28.8250  -23.8750   19.9120 C   0  0  0  0  0  3  0  0  0  0  0  0
  -28.9290  -25.2060   22.1280 C   0  0  0  0  0  1  0  0  0  0  0  0
  -28.2430  -25.1080   20.7580 C   0  0  0  0  0  3  0  0  0  0  0  0
  -28.3580  -26.4780   20.1910 O   0  0  0  0  0  0  0  0  0  0  0  0
  -24.6080  -31.8720   23.2370 C   0  0  0  0  0  0  0  0  0  0  0  0
  -27.2330  -27.3140   20.2010 C   0  0  0  0  0  0  0  0  0  0  0  0
  -23.4090  -30.4670   21.5990 C   0  0  0  0  0  3  0  0  0  0  0  0
  -24.8620  -28.9110   20.1820 C   0  0  0  0  0  0  0  0  0  0  0  0
  -25.9470  -30.7940   21.4130 C   0  0  0  0  0  2  0  0  0  0  0  0
  -26.0300  -29.4110   20.7740 C   0  0  0  0  0  0  0  0  0  0  0  0
  -27.2200  -28.6250   20.7680 C   0  0  0  0  0  3  0  0  0  0  0  0
  -26.0460  -26.8610   19.5890 C   0  0  0  0  0  3  0  0  0  0  0  0
  -24.8730  -27.6410   19.5800 C   0  0  0  0  0  3  0  0  0  0  0  0
  -23.6250  -29.7850   20.2220 C   0  0  0  0  0  2  0  0  0  0  0  0
  -24.6740  -31.0620   22.1390 N   0  0  0  0  0  0  0  0  0  0  0  0
  -23.5230  -32.1480   23.7710 O   0  0  0  0  0  0  0  0  0  0  0  0
  -22.7470  -29.4520   22.5620 C   0  0  0  0  0  0  0  0  0  0  0  0
  -21.4200  -29.2780   22.4400 N   0  0  0  0  0  0  0  0  0  0  0  0
  -23.4260  -28.8270   23.3800 O   0  0  0  0  0  0  0  0  0  0  0  0
  -20.9280  -29.8400   21.7580 H   0  0  0  0  0  0  0  0  0  0  0  0
  -18.0430  -28.0880   22.9440 C   0  0  0  0  0  0  0  0  0  0  0  0
  -20.6020  -28.3400   23.2100 C   0  0  0  0  0  3  0  0  0  0  0  0
  -20.6980  -26.9080   22.6340 C   0  0  0  0  0  2  0  0  0  0  0  0
  -19.5940  -26.5900   21.6190 C   0  0  0  0  0  2  0  0  0  0  0  0
  -18.2140  -26.7380   22.2670 C   0  0  0  0  0  2  0  0  0  0  0  0
  -19.1640  -28.8460   23.3730 C   0  0  0  0  0  0  0  0  0  0  0  0
  -18.9500  -30.1090   23.9660 C   0  0  0  0  0  3  0  0  0  0  0  0
  -17.6480  -30.6140   24.1340 C   0  0  0  0  0  3  0  0  0  0  0  0
  -16.5390  -29.8520   23.7230 C   0  0  0  0  0  3  0  0  0  0  0  0
  -16.7390  -28.5910   23.1340 C   0  0  0  0  0  3  0  0  0  0  0  0
  -25.8890  -32.5050   23.8630 C   0  0  0  0  0  3  0  0  0  0  0  0
  -25.5780  -33.9050   24.1890 N   0  0  0  0  0  0  0  0  0  0  0  0
  -25.9120  -34.9570   23.4310 C   0  0  0  0  0  0  0  0  0  0  0  0
  -26.5820  -34.8530   22.4000 O   0  0  0  0  0  0  0  0  0  0  0  0
  -24.9840  -34.0620   24.9910 H   0  0  0  0  0  0  0  0  0  0  0  0
  -24.1830  -36.7490   23.0790 C   0  0  0  0  0  1  0  0  0  0  0  0
  -25.4260  -36.3460   23.8880 C   0  0  0  0  0  3  0  0  0  0  0  0
  -27.5630  -37.2310   24.7100 C   0  0  0  0  0  1  0  0  0  0  0  0
  -26.4570  -37.4000   23.7710 N   0  0  0  0  0  0  0  0  0  0  0  0
  -26.0510  -38.3190   23.9220 H   0  0  0  0  0  0  0  0  0  0  0  0
  -26.4050  -31.7370   25.1400 C   0  0  1  0  0  0  0  0  0  0  0  0
  -25.3130  -31.5040   26.2090 C   0  0  0  0  0  1  0  0  0  0  0  0
  -26.9850  -30.3590   24.7480 C   0  0  0  0  0  1  0  0  0  0  0  0
  -27.5550  -32.5320   25.8000 C   0  0  0  0  0  1  0  0  0  0  0  0
  1  4  1  0
  1 49  1  0
  2  3  2  0
  3 15  1  0
  4  5  2  0
  4  6  1  0
  5  2  1  0
  6  3  1  0
  7 15  1  0
  8 13  1  0
  9 10  1  0
  9  8  1  0
 11 10  1  0
 11 20  1  0
 11 12  1  0
 13  7  1  0
 13 12  1  0
 14  7  2  0
 15 16  1  0
 17 18  2  0
 18 37  1  0
 19 18  1  0
 19 22  1  0
 20 17  1  0
 20 21  1  0
 21 19  2  0
 22 23  1  0
 23 24  2  0
 25 28  1  0
 25 24  1  0
 26 25  2  0
 27 26  1  0
 27 22  2  0
 28 29  1  0
 29 30  1  0
 30 31  2  0
 32 31  1  0
 32 36  1  0
 33 32  2  0
 34 29  2  0
 34 33  1  0
 35 34  1  0
 37 38  1  0
 38 41  1  0
 38 40  1  0
 39 37  2  0
 42 43  1  0
 42 17  1  0
 44 42  1  0
 45 46  1  0
 45  1  1  0
 47 45  1  0
 48 45  1  0
 50 49  2  0
 50 52  1  0
 52 51  1  0
 53 55  1  0
 53 52  1  0
 54 65  2  0
 55 60  1  0
 56 64  1  0
 56 66  1  0
 57 63  1  0
 57 59  1  0
 58 64  1  0
 59 58  1  0
 60 59  2  0
 61 55  2  0
 62 61  1  0
 62 57  2  0
 63 56  1  0
 64 54  1  0
 66 68  2  0
 67 66  1  0
 69 67  1  0
 70 79  2  0
 70 75  1  0
 71 67  1  0
 71 75  1  0
 72 71  1  0
 73 74  1  0
 73 72  1  0
 74 70  1  0
 75 76  2  0
 76 77  1  0
 78 77  2  0
 79 78  1  0
 80 54  1  0
 80 81  1  0
 80 90  1  0
 81 84  1  0
 82 86  1  0
 82 81  1  0
 83 82  2  0
 86 85  1  0
 88 86  1  0
 88 89  1  0
 88 87  1  0
 90 93  1  1
 90 91  1  0
 92 90  1  0
M  ISO  4   7 100  15 100  52 101  53 101
M  END
>  <TORSDO>  (17) 
F 21

>  <SCORE>  (17) 
-13.693

>  <name>  (17) 
16

>  <ligand_id>  (17) 
16

>  <original_smiles>  (17) 
[H]c1nc(C([H])(C([H])([H])C([H])([H])C([H])(Oc2c([H])c([H])c3c(c2[H])C([H])([H])N(C(=O)C([H])(N([H])C(=O)C([H])(N([H])C([H])([H])[H])C([H])([H])[H])C(C([H])([H])[H])(C([H])([H])[H])C([H])([H])[H])C([H])(C(=O)N([H])C2([H])c4c([H])c([H])c([H])c([H])c4C([H])([H])C([H])([H])C2([H])[H])C3([H])[H])C([H])([H])[H])[N+]([H])([H])[H])sc1N([H])C(=O)N1C([H])([H])C([H])([H])C([H])([H])C([H])(n2nc(-c3c([H])c([H])c(Oc4c([H])c([H])c(F)c([H])c4F)c([H])c3[H])c(C(=O)N([H])[H])c2N([H])[H])C1([H])[H]

>  <smiles>  (17) 
[H]c1nc(C([H])(C([H])([H])C([H])([H])C([H])(Oc2c([H])c([H])c3c(c2[H])C([H])([H])N(C(=O)C([H])(N([H])C(=O)C([H])(N([H])C([H])([H])[H])C([H])([H])[H])C(C([H])([H])[H])(C([H])([H])[H])C([H])([H])[H])C([H])(C(=O)N([H])C2([H])c4c([H])c([H])c([H])c([H])c4C([H])([H])C([H])([H])C2([H])[H])C3([H])[H])C([H])([H])[H])[N+]([H])([H])[H])sc1N([H])C(=O)N1C([H])([H])C([H])([H])C([H])([H])C([H])(n2nc(-c3c([H])c([H])c(Oc4c([H])c([H])c(F)c([H])c4F)c([H])c3[H])c(C(=O)N([H])[H])c2N([H])[H])C1([H])[H]

$$$$
17:0:0
     RDKit          3D

 93101  0  0  1  0  0  0  0  0999 V2000
  -27.8810  -19.7560   21.0060 C   0  0  0  0  0  3  0  0  0  0  0  0
  -28.5330  -18.5770   20.5770 C   0  0  0  0  0  0  0  0  0  0  0  0
  -29.6860  -18.7440   19.7680 C   0  0  0  0  0  0  0  0  0  0  0  0
  -29.3220  -21.1230   19.8850 C   0  0  0  0  0  0  0  0  0  0  0  0
  -28.2720  -21.0000   20.6700 N   0  0  0  0  0  0  0  0  0  0  0  0
  -30.0400  -20.0520   19.4290 N   0  0  0  0  0  0  0  0  0  0  0  0
  -29.6420  -22.4760   19.5210 N   0  0  0  0  0  0  0  0  0  0  0  0
  -30.4460  -22.5590   18.9110 H   0  0  0  0  0  0  0  0  0  0  0  0
  -28.0150  -17.3310   20.9650 N   0  0  0  0  0  0  0  0  0  0  0  0
  -27.4550  -17.3830   21.8120 H   0  0  0  0  0  0  0  0  0  0  0  0
  -27.3860  -16.9240   20.2750 H   0  0  0  0  0  0  0  0  0  0  0  0
  -30.5890  -17.4990   19.3030 C   0  0  0  0  0  2  0  0  0  0  0  0
  -31.0640  -14.9080   19.4520 C   0  0  0  0  0  0  0  0  0  0  0  0
  -30.8170  -12.5740   18.5870 C   0  0  0  0  0  2  0  0  0  0  0  0
  -29.7650  -12.5750   17.4560 C   0  0  0  0  0  2  0  0  0  0  0  0
  -28.3480  -12.4030   18.0320 C   0  0  0  0  0  2  0  0  0  0  0  0
  -28.0780  -13.3390   19.2410 C   0  0  0  0  0  3  0  0  0  0  0  0
  -29.2410  -13.3240   20.2570 C   0  0  0  0  0  2  0  0  0  0  0  0
  -30.4660  -13.6670   19.5270 N   0  0  0  0  0  0  0  0  0  0  0  0
  -32.1950  -15.0070   18.9680 O   0  0  0  0  0  0  0  0  0  0  0  0
  -30.3120  -16.0450   19.7090 N   0  0  0  0  0  0  0  0  0  0  0  0
  -29.4350  -15.9360   20.2010 H   0  0  0  0  0  0  0  0  0  0  0  0
  -25.8190  -13.9410   20.2910 C   0  0  0  0  0  0  0  0  0  0  0  0
  -24.7850  -13.1720   20.7510 C   0  0  0  0  0  0  0  0  0  0  0  0
  -25.1960  -11.8140   20.5840 C   0  0  0  0  0  0  0  0  0  0  0  0
  -26.7960  -13.0510   19.8760 N   0  0  0  0  0  0  0  0  0  0  0  0
  -26.4370  -11.7640   20.1130 N   0  0  0  0  0  0  0  0  0  0  0  0
  -24.4570  -10.5600   20.7870 C   0  0  0  0  0  0  0  0  0  0  0  0
  -24.8650   -9.6100   21.7490 C   0  0  0  0  0  3  0  0  0  0  0  0
  -24.1260   -8.4210   21.9400 C   0  0  0  0  0  3  0  0  0  0  0  0
  -22.9670   -8.1740   21.1670 C   0  0  0  0  0  0  0  0  0  0  0  0
  -22.5780   -9.1130   20.1950 C   0  0  0  0  0  3  0  0  0  0  0  0
  -23.3180  -10.2920   20.0020 C   0  0  0  0  0  3  0  0  0  0  0  0
  -22.2020   -7.0370   21.2650 O   0  0  0  0  0  0  0  0  0  0  0  0
  -21.9740   -6.4260   22.4720 C   0  0  0  0  0  0  0  0  0  0  0  0
  -21.3440   -7.1000   23.5410 C   0  0  0  0  0  3  0  0  0  0  0  0
  -21.0650   -6.4130   24.7390 C   0  0  0  0  0  3  0  0  0  0  0  0
  -21.4050   -5.0530   24.8690 C   0  0  0  0  0  0  0  0  0  0  0  0
  -22.0280   -4.3780   23.8020 C   0  0  0  0  0  3  0  0  0  0  0  0
  -22.3080   -5.0630   22.6070 C   0  0  0  0  0  0  0  0  0  0  0  0
  -22.8880   -4.4040   21.5760 F   0  0  0  0  0  0  0  0  0  0  0  0
  -21.1310   -4.3900   26.0170 F   0  0  0  0  0  0  0  0  0  0  0  0
  -23.4460  -13.6670   21.2160 C   0  0  0  0  0  0  0  0  0  0  0  0
  -22.8130  -12.9500   22.1390 N   0  0  0  0  0  0  0  0  0  0  0  0
  -22.9740  -14.7230   20.7970 O   0  0  0  0  0  0  0  0  0  0  0  0
  -23.2110  -12.0960   22.5000 H   0  0  0  0  0  0  0  0  0  0  0  0
  -21.9210  -13.2630   22.4940 H   0  0  0  0  0  0  0  0  0  0  0  0
  -26.0030  -15.3150   20.1620 N   0  0  0  0  0  0  0  0  0  0  0  0
  -25.2200  -15.9430   20.3050 H   0  0  0  0  0  0  0  0  0  0  0  0
  -26.7020  -15.6940   19.5370 H   0  0  0  0  0  0  0  0  0  0  0  0
  -29.1660  -23.7850   20.1570 C   0  0  0  0  0  3  0  0  0  0  0  0
  -29.1120  -25.1630   19.2840 C   0  0  0  0  0  3  0  0  0  0  0  0
  -28.8930  -26.5390   19.8780 O   0  0  0  0  0  0  0  0  0  0  0  0
  -24.6590  -31.5430   22.9930 C   0  0  0  0  0  0  0  0  0  0  0  0
  -27.7010  -27.3050   19.8050 C   0  0  0  0  0  0  0  0  0  0  0  0
  -23.6110  -30.1300   21.2620 C   0  0  0  0  0  3  0  0  0  0  0  0
  -25.2150  -28.7610   19.8020 C   0  0  0  0  0  0  0  0  0  0  0  0
  -26.1230  -30.6460   21.1590 C   0  0  0  0  0  2  0  0  0  0  0  0
  -26.3290  -29.3060   20.4510 C   0  0  0  0  0  0  0  0  0  0  0  0
  -27.5700  -28.5900   20.4390 C   0  0  0  0  0  3  0  0  0  0  0  0
  -26.5520  -26.8230   19.1380 C   0  0  0  0  0  3  0  0  0  0  0  0
  -25.3330  -27.5300   19.1360 C   0  0  0  0  0  3  0  0  0  0  0  0
  -23.9100  -29.5350   19.8600 C   0  0  0  0  0  2  0  0  0  0  0  0
  -24.8140  -30.7920   21.8620 N   0  0  0  0  0  0  0  0  0  0  0  0
  -23.5450  -31.7090   23.5100 O   0  0  0  0  0  0  0  0  0  0  0  0
  -23.0090  -29.0230   22.1610 C   0  0  0  0  0  0  0  0  0  0  0  0
  -21.7030  -28.7500   21.9980 N   0  0  0  0  0  0  0  0  0  0  0  0
  -23.7180  -28.4140   22.9660 O   0  0  0  0  0  0  0  0  0  0  0  0
  -21.1850  -29.2970   21.3240 H   0  0  0  0  0  0  0  0  0  0  0  0
  -18.4170  -27.2860   22.3900 C   0  0  0  0  0  0  0  0  0  0  0  0
  -20.9480  -27.7150   22.7060 C   0  0  0  0  0  3  0  0  0  0  0  0
  -21.1590  -26.3280   22.0550 C   0  0  0  0  0  2  0  0  0  0  0  0
  -20.0920  -25.9840   21.0110 C   0  0  0  0  0  2  0  0  0  0  0  0
  -18.6970  -25.9930   21.6440 C   0  0  0  0  0  2  0  0  0  0  0  0
  -19.4730  -28.1020   22.8750 C   0  0  0  0  0  0  0  0  0  0  0  0
  -19.1560  -29.3110   23.5330 C   0  0  0  0  0  3  0  0  0  0  0  0
  -17.8170  -29.7060   23.7110 C   0  0  0  0  0  3  0  0  0  0  0  0
  -16.7750  -28.8860   23.2400 C   0  0  0  0  0  3  0  0  0  0  0  0
  -17.0770  -27.6780   22.5870 C   0  0  0  0  0  3  0  0  0  0  0  0
  -25.8700  -32.2510   23.6770 C   0  0  0  0  0  3  0  0  0  0  0  0
  -26.4010  -31.4800   24.9470 C   0  0  1  0  0  0  0  0  0  0  0  0
  -25.2940  -31.1250   25.9670 C   0  0  0  0  0  1  0  0  0  0  0  0
  -27.1010  -30.1630   24.5370 C   0  0  0  0  0  1  0  0  0  0  0  0
  -27.4640  -32.3370   25.6730 C   0  0  0  0  0  1  0  0  0  0  0  0
  -25.4450  -33.6110   24.0390 N   0  0  0  0  0  0  0  0  0  0  0  0
  -25.7110  -34.7100   23.3220 C   0  0  0  0  0  0  0  0  0  0  0  0
  -26.4080  -34.6910   22.3030 O   0  0  0  0  0  0  0  0  0  0  0  0
  -24.8250  -33.6940   24.8310 H   0  0  0  0  0  0  0  0  0  0  0  0
  -23.8540  -36.3740   22.9890 C   0  0  0  0  0  1  0  0  0  0  0  0
  -25.1110  -36.0430   23.8090 C   0  0  0  0  0  3  0  0  0  0  0  0
  -27.1520  -37.0720   24.7080 C   0  0  0  0  0  1  0  0  0  0  0  0
  -26.0600  -37.1760   23.7430 N   0  0  0  0  0  0  0  0  0  0  0  0
  -25.5810  -38.0580   23.9000 H   0  0  0  0  0  0  0  0  0  0  0  0
  2  9  1  0
  2  1  2  0
  3  2  1  0
  4  5  2  0
  5  1  1  0
  6  3  2  0
  6  4  1  0
  7  4  1  0
  7 51  1  0
  8  7  1  0
  9 10  1  0
 11  9  1  0
 12 21  1  0
 12  3  1  0
 13 19  1  0
 13 21  1  0
 14 19  1  0
 15 16  1  0
 15 14  1  0
 17 16  1  0
 17 26  1  0
 17 18  1  0
 19 18  1  0
 20 13  2  0
 21 22  1  0
 23 24  2  0
 24 43  1  0
 25 24  1  0
 25 28  1  0
 26 27  1  0
 26 23  1  0
 27 25  2  0
 28 29  1  0
 29 30  2  0
 31 34  1  0
 31 30  1  0
 32 31  2  0
 33 32  1  0
 33 28  2  0
 34 35  1  0
 35 40  2  0
 35 36  1  0
 36 37  2  0
 37 38  1  0
 38 42  1  0
 39 38  2  0
 40 39  1  0
 41 40  1  0
 43 44  1  0
 44 47  1  0
 44 46  1  0
 45 43  2  0
 48 23  1  0
 48 49  1  0
 50 48  1  0
 52 53  1  0
 52 51  2  0
 54 65  2  0
 55 53  1  0
 55 60  1  0
 56 64  1  0
 56 66  1  0
 57 63  1  0
 57 59  1  0
 58 64  1  0
 59 58  1  0
 60 59  2  0
 61 55  2  0
 62 61  1  0
 62 57  2  0
 63 56  1  0
 64 54  1  0
 66 68  2  0
 67 66  1  0
 69 67  1  0
 70 79  2  0
 70 75  1  0
 71 67  1  0
 71 75  1  0
 72 71  1  0
 73 74  1  0
 73 72  1  0
 74 70  1  0
 75 76  2  0
 76 77  1  0
 78 77  2  0
 79 78  1  0
 80 54  1  0
 80 85  1  0
 80 81  1  0
 81 84  1  1
 81 82  1  0
 83 81  1  0
 85 88  1  0
 86 90  1  0
 86 85  1  0
 87 86  2  0
 90 89  1  0
 92 90  1  0
 92 93  1  0
 92 91  1  0
M  ISO  4  13 100  21 100  52 101  53 101
M  END
>  <TORSDO>  (18) 
F 20

>  <SCORE>  (18) 
-11.170

>  <name>  (18) 
17

>  <ligand_id>  (18) 
17

>  <original_smiles>  (18) 
[H]c1nc(N([H])C([H])([H])C([H])([H])Oc2c([H])c([H])c3c(c2[H])C([H])([H])N(C(=O)C([H])(N([H])C(=O)C([H])(N([H])C([H])([H])[H])C([H])([H])[H])C(C([H])([H])[H])(C([H])([H])[H])C([H])([H])[H])C([H])(C(=O)N([H])C2([H])c4c([H])c([H])c([H])c([H])c4C([H])([H])C([H])([H])C2([H])[H])C3([H])[H])nc(C([H])([H])N([H])C(=O)N2C([H])([H])C([H])([H])C([H])([H])C([H])(n3nc(-c4c([H])c([H])c(Oc5c([H])c([H])c(F)c([H])c5F)c([H])c4[H])c(C(=O)N([H])[H])c3N([H])[H])C2([H])[H])c1N([H])[H]

>  <smiles>  (18) 
[H]c1nc(N([H])C([H])([H])C([H])([H])Oc2c([H])c([H])c3c(c2[H])C([H])([H])N(C(=O)C([H])(N([H])C(=O)C([H])(N([H])C([H])([H])[H])C([H])([H])[H])C(C([H])([H])[H])(C([H])([H])[H])C([H])([H])[H])C([H])(C(=O)N([H])C2([H])c4c([H])c([H])c([H])c([H])c4C([H])([H])C([H])([H])C2([H])[H])C3([H])[H])nc(C([H])([H])N([H])C(=O)N2C([H])([H])C([H])([H])C([H])([H])C([H])(n3nc(-c4c([H])c([H])c(Oc5c([H])c([H])c(F)c([H])c5F)c([H])c4[H])c(C(=O)N([H])[H])c3N([H])[H])C2([H])[H])c1N([H])[H]

$$$$
18:0:0
     RDKit          3D

 95103  0  0  1  0  0  0  0  0999 V2000
  -31.0520  -18.2400   20.5800 C   0  0  0  0  0  0  0  0  0  0  0  0
  -30.3650  -18.3830   21.7730 C   0  0  0  0  0  0  0  0  0  0  0  0
  -30.3400  -20.4500   20.4040 C   0  0  0  0  0  0  0  0  0  0  0  0
  -31.0420  -19.4490   19.8370 N   0  0  0  0  0  0  0  0  0  0  0  0
  -30.2340  -21.7460   19.8720 N   0  0  0  0  0  0  0  0  0  0  0  0
  -29.6450  -19.9730   21.9400 S   0  0  0  0  0  0  0  0  0  0  0  0
  -30.9520  -21.8630   19.1670 H   0  0  0  0  0  0  0  0  0  0  0  0
  -30.1970  -17.4810   22.8180 N   0  0  0  0  0  0  0  0  0  0  0  0
  -30.4080  -16.4930   22.7890 H   0  0  0  0  0  0  0  0  0  0  0  0
  -29.5300  -17.7110   23.5530 H   0  0  0  0  0  0  0  0  0  0  0  0
  -31.8360  -17.0310   20.0600 C   0  0  0  0  0  2  0  0  0  0  0  0
  -31.7250  -14.5760   19.6100 C   0  0  0  0  0  0  0  0  0  0  0  0
  -31.2290  -12.3090   18.7420 C   0  0  0  0  0  2  0  0  0  0  0  0
  -30.2210  -12.4690   17.5970 C   0  0  0  0  0  2  0  0  0  0  0  0
  -28.7900  -12.4030   18.1630 C   0  0  0  0  0  2  0  0  0  0  0  0
  -28.5850  -13.3530   19.3760 C   0  0  0  0  0  3  0  0  0  0  0  0
  -29.7350  -13.2250   20.4060 C   0  0  0  0  0  2  0  0  0  0  0  0
  -30.9920  -13.4260   19.6790 N   0  0  0  0  0  0  0  0  0  0  0  0
  -32.7760  -14.6300   18.9760 O   0  0  0  0  0  0  0  0  0  0  0  0
  -31.2060  -15.6930   20.1770 N   0  0  0  0  0  0  0  0  0  0  0  0
  -30.3540  -15.6290   20.7130 H   0  0  0  0  0  0  0  0  0  0  0  0
  -26.3670  -14.1130   20.4330 C   0  0  0  0  0  0  0  0  0  0  0  0
  -25.2690  -13.4160   20.8570 C   0  0  0  0  0  0  0  0  0  0  0  0
  -25.5630  -12.0360   20.6300 C   0  0  0  0  0  0  0  0  0  0  0  0
  -27.2690  -13.1610   19.9820 N   0  0  0  0  0  0  0  0  0  0  0  0
  -26.7970  -11.8990   20.1590 N   0  0  0  0  0  0  0  0  0  0  0  0
  -24.7210  -10.8400   20.7800 C   0  0  0  0  0  0  0  0  0  0  0  0
  -25.0600   -9.8010   21.6760 C   0  0  0  0  0  3  0  0  0  0  0  0
  -24.2210   -8.6760   21.8210 C   0  0  0  0  0  3  0  0  0  0  0  0
  -23.0270   -8.5800   21.0680 C   0  0  0  0  0  0  0  0  0  0  0  0
  -22.7050   -9.6040   20.1610 C   0  0  0  0  0  3  0  0  0  0  0  0
  -23.5430  -10.7210   20.0120 C   0  0  0  0  0  3  0  0  0  0  0  0
  -22.1650   -7.5120   21.1270 O   0  0  0  0  0  0  0  0  0  0  0  0
  -21.9380   -6.8320   22.2960 C   0  0  0  0  0  0  0  0  0  0  0  0
  -21.3950   -7.4690   23.4340 C   0  0  0  0  0  3  0  0  0  0  0  0
  -21.1080   -6.7200   24.5910 C   0  0  0  0  0  3  0  0  0  0  0  0
  -21.3570   -5.3340   24.6150 C   0  0  0  0  0  0  0  0  0  0  0  0
  -21.8930   -4.6960   23.4810 C   0  0  0  0  0  3  0  0  0  0  0  0
  -22.1780   -5.4440   22.3250 C   0  0  0  0  0  0  0  0  0  0  0  0
  -22.6740   -4.8180   21.2290 F   0  0  0  0  0  0  0  0  0  0  0  0
  -21.0770   -4.6120   25.7260 F   0  0  0  0  0  0  0  0  0  0  0  0
  -23.9780  -13.9950   21.3610 C   0  0  0  0  0  0  0  0  0  0  0  0
  -23.3000  -13.2840   22.2540 N   0  0  0  0  0  0  0  0  0  0  0  0
  -23.5930  -15.1040   21.0000 O   0  0  0  0  0  0  0  0  0  0  0  0
  -23.6260  -12.3770   22.5500 H   0  0  0  0  0  0  0  0  0  0  0  0
  -22.4440  -13.6490   22.6440 H   0  0  0  0  0  0  0  0  0  0  0  0
  -26.6710  -15.4710   20.3750 N   0  0  0  0  0  0  0  0  0  0  0  0
  -26.0130  -16.1920   20.6500 H   0  0  0  0  0  0  0  0  0  0  0  0
  -27.5210  -15.8550   19.9800 H   0  0  0  0  0  0  0  0  0  0  0  0
  -29.8100  -23.0690   20.3980 C   0  0  0  0  0  2  0  0  0  0  0  0
  -29.6010  -24.1950   19.3130 C   0  0  0  0  0  3  0  0  0  0  0  0
  -30.7780  -24.1790   18.5200 O   0  0  0  0  0  0  0  0  0  0  0  0
  -30.6970  -23.4290   17.9430 H   0  0  0  0  0  0  0  0  0  0  0  0
  -29.4010  -25.6250   19.9310 C   0  0  0  0  0  2  0  0  0  0  0  0
  -29.0750  -26.7000   19.0120 O   0  0  0  0  0  0  0  0  0  0  0  0
  -24.7810  -30.9140   22.9060 C   0  0  0  0  0  0  0  0  0  0  0  0
  -27.8370  -27.2900   19.1810 C   0  0  0  0  0  0  0  0  0  0  0  0
  -23.6940  -29.5710   21.1420 C   0  0  0  0  0  3  0  0  0  0  0  0
  -25.2630  -28.4470   19.4710 C   0  0  0  0  0  0  0  0  0  0  0  0
  -26.1320  -30.3080   20.8960 C   0  0  0  0  0  2  0  0  0  0  0  0
  -26.3720  -29.0550   20.0760 C   0  0  0  0  0  0  0  0  0  0  0  0
  -27.6640  -28.4900   19.9200 C   0  0  0  0  0  3  0  0  0  0  0  0
  -26.7070  -26.7060   18.5700 C   0  0  0  0  0  3  0  0  0  0  0  0
  -25.4270  -27.2760   18.7100 C   0  0  0  0  0  3  0  0  0  0  0  0
  -23.9170  -29.1080   19.6760 C   0  0  0  0  0  2  0  0  0  0  0  0
  -24.8920  -30.2740   21.7070 N   0  0  0  0  0  0  0  0  0  0  0  0
  -23.7000  -30.9600   23.5140 O   0  0  0  0  0  0  0  0  0  0  0  0
  -23.2510  -28.3490   21.9790 C   0  0  0  0  0  0  0  0  0  0  0  0
  -21.9800  -27.9510   21.8150 N   0  0  0  0  0  0  0  0  0  0  0  0
  -24.0390  -27.7710   22.7340 O   0  0  0  0  0  0  0  0  0  0  0  0
  -21.3840  -28.5300   21.2330 H   0  0  0  0  0  0  0  0  0  0  0  0
  -18.9340  -26.0110   21.9710 C   0  0  0  0  0  0  0  0  0  0  0  0
  -21.3510  -26.7920   22.4500 C   0  0  0  0  0  3  0  0  0  0  0  0
  -21.8060  -25.4710   21.7830 C   0  0  0  0  0  2  0  0  0  0  0  0
  -20.8550  -24.9990   20.6790 C   0  0  0  0  0  2  0  0  0  0  0  0
  -19.4350  -24.7930   21.2220 C   0  0  0  0  0  2  0  0  0  0  0  0
  -19.8330  -26.9530   22.5410 C   0  0  0  0  0  0  0  0  0  0  0  0
  -19.3110  -28.0720   23.2190 C   0  0  0  0  0  3  0  0  0  0  0  0
  -17.9220  -28.2720   23.3200 C   0  0  0  0  0  3  0  0  0  0  0  0
  -17.0370  -27.3420   22.7480 C   0  0  0  0  0  3  0  0  0  0  0  0
  -17.5430  -26.2060   22.0890 C   0  0  0  0  0  3  0  0  0  0  0  0
  -25.9980  -31.6420   23.5520 C   0  0  0  0  0  3  0  0  0  0  0  0
  -25.5420  -32.9680   23.9820 N   0  0  0  0  0  0  0  0  0  0  0  0
  -25.7760  -34.1060   23.3160 C   0  0  0  0  0  0  0  0  0  0  0  0
  -26.4750  -34.1520   22.2980 O   0  0  0  0  0  0  0  0  0  0  0  0
  -24.9200  -32.9960   24.7770 H   0  0  0  0  0  0  0  0  0  0  0  0
  -23.8840  -35.7400   23.0520 C   0  0  0  0  0  1  0  0  0  0  0  0
  -25.1400  -35.3940   23.8690 C   0  0  0  0  0  3  0  0  0  0  0  0
  -27.1440  -36.4220   24.8460 C   0  0  0  0  0  1  0  0  0  0  0  0
  -26.0610  -36.5530   23.8770 N   0  0  0  0  0  0  0  0  0  0  0  0
  -25.5550  -37.4100   24.0850 H   0  0  0  0  0  0  0  0  0  0  0  0
  -26.6260  -30.8430   24.7610 C   0  0  1  0  0  0  0  0  0  0  0  0
  -25.5880  -30.4150   25.8250 C   0  0  0  0  0  1  0  0  0  0  0  0
  -27.3460  -29.5690   24.2590 C   0  0  0  0  0  1  0  0  0  0  0  0
  -27.6980  -31.7080   25.4620 C   0  0  0  0  0  1  0  0  0  0  0  0
  1  2  2  0
  2  6  1  0
  2  8  1  0
  3  6  1  0
  4  3  2  0
  4  1  1  0
  5 50  1  0
  5  3  1  0
  7  5  1  0
  8 10  1  0
  9  8  1  0
 11 20  1  0
 11  1  1  0
 12 18  1  0
 12 20  1  0
 13 18  1  0
 14 15  1  0
 14 13  1  0
 16 15  1  0
 16 25  1  0
 16 17  1  0
 18 17  1  0
 19 12  2  0
 20 21  1  0
 22 23  2  0
 23 42  1  0
 24 27  1  0
 24 23  1  0
 25 26  1  0
 25 22  1  0
 26 24  2  0
 27 28  1  0
 28 29  2  0
 30 33  1  0
 30 29  1  0
 31 30  2  0
 32 31  1  0
 32 27  2  0
 33 34  1  0
 34 39  2  0
 34 35  1  0
 35 36  2  0
 36 37  1  0
 37 41  1  0
 38 37  2  0
 39 38  1  0
 40 39  1  0
 42 43  1  0
 43 45  1  0
 43 46  1  0
 44 42  2  0
 47 22  1  0
 47 48  1  0
 49 47  1  0
 51 54  1  0
 51 50  1  0
 52 51  1  0
 53 52  1  0
 55 57  1  0
 55 54  1  0
 56 67  2  0
 57 62  1  0
 58 66  1  0
 58 68  1  0
 59 65  1  0
 59 61  1  0
 60 66  1  0
 61 60  1  0
 62 61  2  0
 63 64  1  0
 63 57  2  0
 64 59  2  0
 65 58  1  0
 66 56  1  0
 68 70  2  0
 69 68  1  0
 71 69  1  0
 72 81  2  0
 72 77  1  0
 73 69  1  0
 73 77  1  0
 74 73  1  0
 75 76  1  0
 75 74  1  0
 76 72  1  0
 77 78  2  0
 78 79  1  0
 80 79  2  0
 81 80  1  0
 82 56  1  0
 82 83  1  0
 82 92  1  0
 83 86  1  0
 84 88  1  0
 84 83  1  0
 85 84  2  0
 88 87  1  0
 88 90  1  0
 90 91  1  0
 90 89  1  0
 92 95  1  1
 92 93  1  0
 94 92  1  0
M  ISO  4  12 100  20 100  54 101  55 101
M  END
>  <TORSDO>  (19) 
F 22

>  <SCORE>  (19) 
-8.854

>  <name>  (19) 
18

>  <ligand_id>  (19) 
18

>  <original_smiles>  (19) 
[H]OC([H])(C([H])([H])Oc1c([H])c([H])c2c(c1[H])C([H])([H])N(C(=O)C([H])(N([H])C(=O)C([H])(N([H])C([H])([H])[H])C([H])([H])[H])C(C([H])([H])[H])(C([H])([H])[H])C([H])([H])[H])C([H])(C(=O)N([H])C1([H])c3c([H])c([H])c([H])c([H])c3C([H])([H])C([H])([H])C1([H])[H])C2([H])[H])C([H])([H])N([H])c1nc(C([H])([H])N([H])C(=O)N2C([H])([H])C([H])([H])C([H])([H])C([H])(n3nc(-c4c([H])c([H])c(Oc5c([H])c([H])c(F)c([H])c5F)c([H])c4[H])c(C(=O)N([H])[H])c3N([H])[H])C2([H])[H])c(N([H])[H])s1

>  <smiles>  (19) 
[H]OC([H])(C([H])([H])Oc1c([H])c([H])c2c(c1[H])C([H])([H])N(C(=O)C([H])(N([H])C(=O)C([H])(N([H])C([H])([H])[H])C([H])([H])[H])C(C([H])([H])[H])(C([H])([H])[H])C([H])([H])[H])C([H])(C(=O)N([H])C1([H])c3c([H])c([H])c([H])c([H])c3C([H])([H])C([H])([H])C1([H])[H])C2([H])[H])C([H])([H])N([H])c1nc(C([H])([H])N([H])C(=O)N2C([H])([H])C([H])([H])C([H])([H])C([H])(n3nc(-c4c([H])c([H])c(Oc5c([H])c([H])c(F)c([H])c5F)c([H])c4[H])c(C(=O)N([H])[H])c3N([H])[H])C2([H])[H])c(N([H])[H])s1

$$$$
19:0:0
     RDKit          3D

 93101  0  0  1  0  0  0  0  0999 V2000
  -28.9120  -21.6000   19.6330 N   0  0  0  0  0  4  0  0  0  0  0  0
  -29.2000  -21.5850   20.5990 H   0  0  0  0  0  0  0  0  0  0  0  0
  -27.9090  -21.5120   19.6250 H   0  0  0  0  0  0  0  0  0  0  0  0
  -28.6820  -19.9190   17.7510 C   0  0  0  0  0  1  0  0  0  0  0  0
  -29.4950  -20.3620   18.9930 C   0  0  0  0  0  3  0  0  0  0  0  0
  -30.7200  -14.4700   20.1440 C   0  0  0  0  0  0  0  0  0  0  0  0
  -30.3940  -12.3460   18.9130 C   0  0  0  0  0  2  0  0  0  0  0  0
  -29.3860  -12.5950   17.7720 C   0  0  0  0  0  2  0  0  0  0  0  0
  -27.9330  -12.4470   18.2670 C   0  0  0  0  0  2  0  0  0  0  0  0
  -27.6690  -13.2290   19.5810 C   0  0  0  0  0  3  0  0  0  0  0  0
  -28.7760  -12.9350   20.6200 C   0  0  0  0  0  2  0  0  0  0  0  0
  -30.0760  -13.2730   20.0130 N   0  0  0  0  0  0  0  0  0  0  0  0
  -31.7890  -14.7150   19.5730 O   0  0  0  0  0  0  0  0  0  0  0  0
  -28.8310  -18.7720   20.9830 C   0  0  0  0  0  3  0  0  0  0  0  0
  -29.5920  -19.1280   19.8880 C   0  0  0  0  0  0  0  0  0  0  0  0
  -29.9080  -16.7740   20.6790 C   0  0  0  0  0  0  0  0  0  0  0  0
  -29.0210  -17.4480   21.4210 N   0  0  0  0  0  0  0  0  0  0  0  0
  -30.0720  -15.3760   20.9040 N   0  0  0  0  0  0  0  0  0  0  0  0
  -30.6470  -17.7840   19.4310 S   0  0  0  0  0  0  0  0  0  0  0  0
  -29.3640  -14.9700   21.4950 H   0  0  0  0  0  0  0  0  0  0  0  0
  -25.3060  -13.8360   20.3970 C   0  0  0  0  0  0  0  0  0  0  0  0
  -24.2520  -13.0630   20.8050 C   0  0  0  0  0  0  0  0  0  0  0  0
  -24.7070  -11.7100   20.7370 C   0  0  0  0  0  0  0  0  0  0  0  0
  -26.3360  -12.9530   20.1130 N   0  0  0  0  0  0  0  0  0  0  0  0
  -25.9810  -11.6690   20.3730 N   0  0  0  0  0  0  0  0  0  0  0  0
  -23.9850  -10.4460   20.9440 C   0  0  0  0  0  0  0  0  0  0  0  0
  -24.4280   -9.4910   21.8850 C   0  0  0  0  0  3  0  0  0  0  0  0
  -23.7080   -8.2940   22.0820 C   0  0  0  0  0  3  0  0  0  0  0  0
  -22.5320   -8.0420   21.3370 C   0  0  0  0  0  0  0  0  0  0  0  0
  -22.1080   -8.9860   20.3840 C   0  0  0  0  0  3  0  0  0  0  0  0
  -22.8290  -10.1750   20.1850 C   0  0  0  0  0  3  0  0  0  0  0  0
  -21.7850   -6.8940   21.4390 O   0  0  0  0  0  0  0  0  0  0  0  0
  -21.7060   -6.1890   22.6140 C   0  0  0  0  0  0  0  0  0  0  0  0
  -21.2380   -6.7790   23.8080 C   0  0  0  0  0  3  0  0  0  0  0  0
  -21.1060   -5.9980   24.9740 C   0  0  0  0  0  3  0  0  0  0  0  0
  -21.4360   -4.6300   24.9470 C   0  0  0  0  0  0  0  0  0  0  0  0
  -21.9000   -4.0410   23.7590 C   0  0  0  0  0  3  0  0  0  0  0  0
  -22.0320   -4.8170   22.5940 C   0  0  0  0  0  0  0  0  0  0  0  0
  -22.4560   -4.2390   21.4450 F   0  0  0  0  0  0  0  0  0  0  0  0
  -21.3030   -3.8780   26.0660 F   0  0  0  0  0  0  0  0  0  0  0  0
  -22.8700  -13.5370   21.1460 C   0  0  0  0  0  0  0  0  0  0  0  0
  -22.1830  -12.8320   22.0380 N   0  0  0  0  0  0  0  0  0  0  0  0
  -22.4090  -14.5670   20.6570 O   0  0  0  0  0  0  0  0  0  0  0  0
  -22.5690  -11.9990   22.4580 H   0  0  0  0  0  0  0  0  0  0  0  0
  -21.2560  -13.1300   22.3080 H   0  0  0  0  0  0  0  0  0  0  0  0
  -25.4710  -15.2100   20.2300 N   0  0  0  0  0  0  0  0  0  0  0  0
  -24.7240  -15.8760   20.3920 H   0  0  0  0  0  0  0  0  0  0  0  0
  -26.3260  -15.6450   19.9060 H   0  0  0  0  0  0  0  0  0  0  0  0
  -29.1740  -23.1110   17.5780 C   0  0  0  0  0  1  0  0  0  0  0  0
  -29.2880  -22.9740   19.1160 C   0  0  0  0  0  3  0  0  0  0  0  0
  -28.5180  -24.1390   19.8580 C   0  0  0  0  0  2  0  0  0  0  0  0
  -28.7280  -25.5860   19.2920 C   0  0  0  0  0  2  0  0  0  0  0  0
  -28.4590  -26.6830   20.1950 O   0  0  0  0  0  0  0  0  0  0  0  0
  -24.6110  -31.8730   23.2110 C   0  0  0  0  0  0  0  0  0  0  0  0
  -27.2700  -27.3950   20.1510 C   0  0  0  0  0  0  0  0  0  0  0  0
  -23.4090  -30.4620   21.5700 C   0  0  0  0  0  3  0  0  0  0  0  0
  -24.8690  -28.9130   20.1560 C   0  0  0  0  0  0  0  0  0  0  0  0
  -25.9380  -30.8100   21.3860 C   0  0  0  0  0  2  0  0  0  0  0  0
  -26.0240  -29.4360   20.7480 C   0  0  0  0  0  0  0  0  0  0  0  0
  -27.2200  -28.6810   20.7470 C   0  0  0  0  0  3  0  0  0  0  0  0
  -26.0900  -26.8860   19.5600 C   0  0  0  0  0  3  0  0  0  0  0  0
  -24.8980  -27.6400   19.5580 C   0  0  0  0  0  3  0  0  0  0  0  0
  -23.6250  -29.7730   20.1950 C   0  0  0  0  0  2  0  0  0  0  0  0
  -24.6700  -31.0650   22.1130 N   0  0  0  0  0  0  0  0  0  0  0  0
  -23.5280  -32.1490   23.7450 O   0  0  0  0  0  0  0  0  0  0  0  0
  -22.7500  -29.4490   22.5340 C   0  0  0  0  0  0  0  0  0  0  0  0
  -21.4270  -29.2670   22.4020 N   0  0  0  0  0  0  0  0  0  0  0  0
  -23.4290  -28.8300   23.3580 O   0  0  0  0  0  0  0  0  0  0  0  0
  -20.9390  -29.8160   21.7090 H   0  0  0  0  0  0  0  0  0  0  0  0
  -18.0530  -28.0640   22.8780 C   0  0  0  0  0  0  0  0  0  0  0  0
  -20.6070  -28.3340   23.1750 C   0  0  0  0  0  3  0  0  0  0  0  0
  -20.7210  -26.8970   22.6150 C   0  0  0  0  0  2  0  0  0  0  0  0
  -19.6300  -26.5610   21.5920 C   0  0  0  0  0  2  0  0  0  0  0  0
  -18.2410  -26.7080   22.2190 C   0  0  0  0  0  2  0  0  0  0  0  0
  -19.1640  -28.8340   23.3130 C   0  0  0  0  0  0  0  0  0  0  0  0
  -18.9320  -30.1040   23.8860 C   0  0  0  0  0  3  0  0  0  0  0  0
  -17.6230  -30.6030   24.0280 C   0  0  0  0  0  3  0  0  0  0  0  0
  -16.5270  -29.8280   23.6100 C   0  0  0  0  0  3  0  0  0  0  0  0
  -16.7420  -28.5600   23.0410 C   0  0  0  0  0  3  0  0  0  0  0  0
  -25.8960  -32.5050   23.8300 C   0  0  0  0  0  3  0  0  0  0  0  0
  -26.4200  -31.7300   25.1020 C   0  0  1  0  0  0  0  0  0  0  0  0
  -25.3320  -31.4850   26.1720 C   0  0  0  0  0  1  0  0  0  0  0  0
  -27.0060  -30.3560   24.7020 C   0  0  0  0  0  1  0  0  0  0  0  0
  -27.5680  -32.5270   25.7670 C   0  0  0  0  0  1  0  0  0  0  0  0
  -25.5850  -33.9010   24.1650 N   0  0  0  0  0  0  0  0  0  0  0  0
  -25.9140  -34.9560   23.4080 C   0  0  0  0  0  0  0  0  0  0  0  0
  -26.5820  -34.8580   22.3760 O   0  0  0  0  0  0  0  0  0  0  0  0
  -24.9920  -34.0510   24.9670 H   0  0  0  0  0  0  0  0  0  0  0  0
  -24.1810  -36.7470   23.0640 C   0  0  0  0  0  1  0  0  0  0  0  0
  -25.4230  -36.3400   23.8720 C   0  0  0  0  0  3  0  0  0  0  0  0
  -27.5540  -37.2320   24.7080 C   0  0  0  0  0  1  0  0  0  0  0  0
  -26.4510  -37.3970   23.7640 N   0  0  0  0  0  0  0  0  0  0  0  0
  -26.0400  -38.3140   23.9170 H   0  0  0  0  0  0  0  0  0  0  0  0
  1  2  1  0
  3  1  1  0
  5  4  1  0
  5  1  1  0
  5 15  1  0
  6 18  1  0
  7 12  1  0
  8  9  1  0
  8  7  1  0
 10  9  1  0
 10 24  1  0
 10 11  1  0
 12  6  1  0
 12 11  1  0
 13  6  2  0
 14 17  1  0
 15 14  2  0
 16 18  1  0
 16 17  2  0
 18 20  1  0
 19 15  1  0
 19 16  1  0
 21 22  2  0
 22 41  1  0
 23 22  1  0
 23 26  1  0
 24 25  1  0
 24 21  1  0
 25 23  2  0
 26 27  1  0
 27 28  2  0
 29 32  1  0
 29 28  1  0
 30 29  2  0
 31 30  1  0
 31 26  2  0
 32 33  1  0
 33 34  1  0
 34 35  2  0
 36 35  1  0
 36 40  1  0
 37 36  2  0
 38 33  2  0
 38 37  1  0
 39 38  1  0
 41 42  1  0
 42 45  1  0
 42 44  1  0
 43 41  2  0
 46 47  1  0
 46 21  1  0
 48 46  1  0
 50 49  1  0
 50  1  1  0
 50 51  1  0
 52 51  1  0
 52 53  1  0
 54 65  2  0
 55 53  1  0
 55 60  1  0
 56 64  1  0
 56 66  1  0
 57 63  1  0
 57 59  1  0
 58 64  1  0
 59 58  1  0
 60 59  2  0
 61 55  2  0
 62 61  1  0
 62 57  2  0
 63 56  1  0
 64 54  1  0
 66 68  2  0
 67 66  1  0
 69 67  1  0
 70 79  2  0
 70 75  1  0
 71 67  1  0
 71 75  1  0
 72 71  1  0
 73 74  1  0
 73 72  1  0
 74 70  1  0
 75 76  2  0
 76 77  1  0
 78 77  2  0
 79 78  1  0
 80 54  1  0
 80 85  1  0
 80 81  1  0
 81 84  1  1
 81 82  1  0
 83 81  1  0
 85 88  1  0
 86 90  1  0
 86 85  1  0
 87 86  2  0
 90 89  1  0
 92 90  1  0
 92 93  1  0
 92 91  1  0
M  ISO  4   6 100  18 100  52 101  53 101
M  END
>  <TORSDO>  (20) 
F 20

>  <SCORE>  (20) 
-13.252

>  <name>  (20) 
19

>  <ligand_id>  (20) 
19

>  <original_smiles>  (20) 
[H]c1nc(N([H])C(=O)N2C([H])([H])C([H])([H])C([H])([H])C([H])(n3nc(-c4c([H])c([H])c(Oc5c([H])c([H])c(F)c([H])c5F)c([H])c4[H])c(C(=O)N([H])[H])c3N([H])[H])C2([H])[H])sc1C([H])(C([H])([H])[H])[N+]([H])([H])C([H])(C([H])([H])[H])C([H])([H])C([H])([H])Oc1c([H])c([H])c2c(c1[H])C([H])([H])N(C(=O)C([H])(N([H])C(=O)C([H])(N([H])C([H])([H])[H])C([H])([H])[H])C(C([H])([H])[H])(C([H])([H])[H])C([H])([H])[H])C([H])(C(=O)N([H])C1([H])c3c([H])c([H])c([H])c([H])c3C([H])([H])C([H])([H])C1([H])[H])C2([H])[H]

>  <smiles>  (20) 
[H]c1nc(N([H])C(=O)N2C([H])([H])C([H])([H])C([H])([H])C([H])(n3nc(-c4c([H])c([H])c(Oc5c([H])c([H])c(F)c([H])c5F)c([H])c4[H])c(C(=O)N([H])[H])c3N([H])[H])C2([H])[H])sc1C([H])(C([H])([H])[H])[N+]([H])([H])C([H])(C([H])([H])[H])C([H])([H])C([H])([H])Oc1c([H])c([H])c2c(c1[H])C([H])([H])N(C(=O)C([H])(N([H])C(=O)C([H])(N([H])C([H])([H])[H])C([H])([H])[H])C(C([H])([H])[H])(C([H])([H])[H])C([H])([H])[H])C([H])(C(=O)N([H])C1([H])c3c([H])c([H])c([H])c([H])c3C([H])([H])C([H])([H])C1([H])[H])C2([H])[H]

$$$$
20:0:0
     RDKit          3D

 93101  0  0  1  0  0  0  0  0999 V2000
  -30.0160  -19.7760   22.7710 C   0  0  0  0  0  3  0  0  0  0  0  0
  -30.1170  -19.4700   21.4340 C   0  0  0  0  0  0  0  0  0  0  0  0
  -30.0940  -21.8940   21.9420 C   0  0  0  0  0  0  0  0  0  0  0  0
  -29.9910  -21.1520   23.0420 N   0  0  0  0  0  0  0  0  0  0  0  0
  -30.0300  -23.2830   21.9790 N   0  0  0  0  0  0  0  0  0  0  0  0
  -30.2950  -20.9320   20.4750 S   0  0  0  0  0  0  0  0  0  0  0  0
  -29.9080  -23.6240   22.9270 H   0  0  0  0  0  0  0  0  0  0  0  0
  -30.0160  -18.1000   20.8120 C   0  0  0  0  0  2  0  0  0  0  0  0
  -31.1790  -17.1200   21.1040 C   0  0  0  0  0  2  0  0  0  0  0  0
  -31.4160  -14.7520   20.2360 C   0  0  0  0  0  0  0  0  0  0  0  0
  -31.0860  -12.5720   19.1190 C   0  0  0  0  0  2  0  0  0  0  0  0
  -30.1090  -12.7440   17.9380 C   0  0  0  0  0  2  0  0  0  0  0  0
  -28.6460  -12.6230   18.4090 C   0  0  0  0  0  2  0  0  0  0  0  0
  -28.3450  -13.5010   19.6550 C   0  0  0  0  0  3  0  0  0  0  0  0
  -29.4240  -13.2870   20.7400 C   0  0  0  0  0  2  0  0  0  0  0  0
  -30.7390  -13.5760   20.1370 N   0  0  0  0  0  0  0  0  0  0  0  0
  -32.4990  -14.9570   19.6800 O   0  0  0  0  0  0  0  0  0  0  0  0
  -30.7680  -15.7190   20.9080 N   0  0  0  0  0  0  0  0  0  0  0  0
  -29.8860  -15.4440   21.3120 H   0  0  0  0  0  0  0  0  0  0  0  0
  -26.0070  -14.1650   20.5070 C   0  0  0  0  0  0  0  0  0  0  0  0
  -24.9200  -13.4170   20.8740 C   0  0  0  0  0  0  0  0  0  0  0  0
  -25.3150  -12.0520   20.7350 C   0  0  0  0  0  0  0  0  0  0  0  0
  -27.0000  -13.2560   20.1730 N   0  0  0  0  0  0  0  0  0  0  0  0
  -26.5880  -11.9760   20.3660 N   0  0  0  0  0  0  0  0  0  0  0  0
  -24.5420  -10.8110   20.8760 C   0  0  0  0  0  0  0  0  0  0  0  0
  -24.9060   -9.8200   21.8110 C   0  0  0  0  0  3  0  0  0  0  0  0
  -24.1380   -8.6420   21.9430 C   0  0  0  0  0  3  0  0  0  0  0  0
  -22.9910   -8.4510   21.1360 C   0  0  0  0  0  0  0  0  0  0  0  0
  -22.6470   -9.4310   20.1890 C   0  0  0  0  0  3  0  0  0  0  0  0
  -23.4150  -10.6000   20.0570 C   0  0  0  0  0  3  0  0  0  0  0  0
  -22.1980   -7.3290   21.1750 O   0  0  0  0  0  0  0  0  0  0  0  0
  -21.9790   -6.6430   22.3420 C   0  0  0  0  0  0  0  0  0  0  0  0
  -21.3690   -7.2490   23.4620 C   0  0  0  0  0  3  0  0  0  0  0  0
  -21.1040   -6.4870   24.6180 C   0  0  0  0  0  3  0  0  0  0  0  0
  -21.4350   -5.1190   24.6510 C   0  0  0  0  0  0  0  0  0  0  0  0
  -22.0370   -4.5120   23.5350 C   0  0  0  0  0  3  0  0  0  0  0  0
  -22.3060   -5.2720   22.3840 C   0  0  0  0  0  0  0  0  0  0  0  0
  -22.8690   -4.6790   21.3040 F   0  0  0  0  0  0  0  0  0  0  0  0
  -21.1700   -4.3860   25.7570 F   0  0  0  0  0  0  0  0  0  0  0  0
  -23.5580  -13.9370   21.2370 C   0  0  0  0  0  0  0  0  0  0  0  0
  -22.8380  -13.2250   22.0970 N   0  0  0  0  0  0  0  0  0  0  0  0
  -23.1430  -15.0060   20.7960 O   0  0  0  0  0  0  0  0  0  0  0  0
  -23.1870  -12.3600   22.4850 H   0  0  0  0  0  0  0  0  0  0  0  0
  -21.9230  -13.5520   22.3740 H   0  0  0  0  0  0  0  0  0  0  0  0
  -26.2260  -15.5360   20.4110 N   0  0  0  0  0  0  0  0  0  0  0  0
  -25.4950  -16.2140   20.5970 H   0  0  0  0  0  0  0  0  0  0  0  0
  -27.0810  -15.9590   20.0700 H   0  0  0  0  0  0  0  0  0  0  0  0
  -30.2460  -24.3790   21.0280 C   0  0  0  0  0  2  0  0  0  0  0  0
  -29.0650  -24.5700   20.0570 C   0  0  0  0  0  3  0  0  0  0  0  0
  -27.8750  -24.3510   20.7870 O   0  0  0  0  0  0  0  0  0  0  0  0
  -28.1390  -23.7200   21.4560 H   0  0  0  0  0  0  0  0  0  0  0  0
  -29.0560  -25.9200   19.2870 C   0  0  0  0  0  2  0  0  0  0  0  0
  -28.8270  -27.0750   20.1160 O   0  0  0  0  0  0  0  0  0  0  0  0
  -24.6260  -31.8340   23.3390 C   0  0  0  0  0  0  0  0  0  0  0  0
  -27.5960  -27.7110   20.1010 C   0  0  0  0  0  0  0  0  0  0  0  0
  -23.5540  -30.5010   21.5540 C   0  0  0  0  0  3  0  0  0  0  0  0
  -25.1330  -29.1200   20.1060 C   0  0  0  0  0  0  0  0  0  0  0  0
  -26.0700  -30.9700   21.5010 C   0  0  0  0  0  2  0  0  0  0  0  0
  -26.2420  -29.6480   20.7770 C   0  0  0  0  0  0  0  0  0  0  0  0
  -27.4720  -28.9500   20.7720 C   0  0  0  0  0  3  0  0  0  0  0  0
  -26.4530  -27.1860   19.4510 C   0  0  0  0  0  3  0  0  0  0  0  0
  -25.2320  -27.8860   19.4450 C   0  0  0  0  0  3  0  0  0  0  0  0
  -23.8520  -29.9230   20.1450 C   0  0  0  0  0  2  0  0  0  0  0  0
  -24.7640  -31.1130   22.1900 N   0  0  0  0  0  0  0  0  0  0  0  0
  -23.5120  -32.0260   23.8450 O   0  0  0  0  0  0  0  0  0  0  0  0
  -22.9070  -29.3920   22.4130 C   0  0  0  0  0  0  0  0  0  0  0  0
  -21.5910  -29.1870   22.2310 N   0  0  0  0  0  0  0  0  0  0  0  0
  -23.5820  -28.7220   23.1970 O   0  0  0  0  0  0  0  0  0  0  0  0
  -21.1070  -29.7780   21.5710 H   0  0  0  0  0  0  0  0  0  0  0  0
  -18.2230  -27.9330   22.5990 C   0  0  0  0  0  0  0  0  0  0  0  0
  -20.7790  -28.1750   22.9070 C   0  0  0  0  0  3  0  0  0  0  0  0
  -20.8910  -26.8070   22.1940 C   0  0  0  0  0  2  0  0  0  0  0  0
  -19.7950  -26.5810   21.1480 C   0  0  0  0  0  2  0  0  0  0  0  0
  -18.4100  -26.6560   21.7970 C   0  0  0  0  0  2  0  0  0  0  0  0
  -19.3360  -28.6530   23.1070 C   0  0  0  0  0  0  0  0  0  0  0  0
  -19.1110  -29.8510   23.8190 C   0  0  0  0  0  3  0  0  0  0  0  0
  -17.8030  -30.3290   24.0280 C   0  0  0  0  0  3  0  0  0  0  0  0
  -16.7040  -29.6050   23.5380 C   0  0  0  0  0  3  0  0  0  0  0  0
  -16.9150  -28.4080   22.8290 C   0  0  0  0  0  3  0  0  0  0  0  0
  -25.8560  -32.4700   24.0570 C   0  0  0  0  0  3  0  0  0  0  0  0
  -25.5140  -33.8650   24.3680 N   0  0  0  0  0  0  0  0  0  0  0  0
  -25.8890  -34.9200   23.6330 C   0  0  0  0  0  0  0  0  0  0  0  0
  -26.6280  -34.8220   22.6490 O   0  0  0  0  0  0  0  0  0  0  0  0
  -24.8650  -34.0140   25.1260 H   0  0  0  0  0  0  0  0  0  0  0  0
  -24.1670  -36.6890   23.1620 C   0  0  0  0  0  1  0  0  0  0  0  0
  -25.3570  -36.3020   24.0540 C   0  0  0  0  0  3  0  0  0  0  0  0
  -27.4170  -37.2140   25.0270 C   0  0  0  0  0  1  0  0  0  0  0  0
  -26.3830  -37.3650   24.0080 N   0  0  0  0  0  0  0  0  0  0  0  0
  -25.9580  -38.2810   24.1230 H   0  0  0  0  0  0  0  0  0  0  0  0
  -26.2830  -31.6950   25.3640 C   0  0  1  0  0  0  0  0  0  0  0  0
  -25.1120  -31.4260   26.3380 C   0  0  0  0  0  1  0  0  0  0  0  0
  -26.9220  -30.3320   25.0070 C   0  0  0  0  0  1  0  0  0  0  0  0
  -27.3610  -32.5040   26.1230 C   0  0  0  0  0  1  0  0  0  0  0  0
  1  4  1  0
  2  1  2  0
  3  5  1  0
  3  4  2  0
  5  7  1  0
  6  2  1  0
  6  3  1  0
  8  9  1  0
  8  2  1  0
 10 18  1  0
 11 16  1  0
 12 13  1  0
 12 11  1  0
 14 13  1  0
 14 23  1  0
 14 15  1  0
 16 10  1  0
 16 15  1  0
 17 10  2  0
 18  9  1  0
 18 19  1  0
 20 21  2  0
 21 40  1  0
 22 21  1  0
 22 25  1  0
 23 24  1  0
 23 20  1  0
 24 22  2  0
 25 26  1  0
 26 27  2  0
 28 31  1  0
 28 27  1  0
 29 28  2  0
 30 29  1  0
 30 25  2  0
 31 32  1  0
 32 37  2  0
 32 33  1  0
 33 34  2  0
 34 35  1  0
 35 39  1  0
 36 35  2  0
 37 36  1  0
 38 37  1  0
 40 41  1  0
 41 44  1  0
 41 43  1  0
 42 40  2  0
 45 20  1  0
 45 46  1  0
 47 45  1  0
 48  5  1  0
 49 52  1  0
 49 50  1  0
 49 48  1  0
 50 51  1  0
 52 53  1  0
 54 65  2  0
 55 53  1  0
 55 60  1  0
 56 64  1  0
 56 66  1  0
 57 63  1  0
 57 59  1  0
 58 64  1  0
 59 58  1  0
 60 59  2  0
 61 55  2  0
 62 61  1  0
 62 57  2  0
 63 56  1  0
 64 54  1  0
 66 68  2  0
 67 66  1  0
 69 67  1  0
 70 79  2  0
 70 75  1  0
 71 67  1  0
 71 75  1  0
 72 71  1  0
 73 74  1  0
 73 72  1  0
 74 70  1  0
 75 76  2  0
 76 77  1  0
 78 77  2  0
 79 78  1  0
 80 54  1  0
 80 81  1  0
 80 90  1  0
 81 84  1  0
 82 86  1  0
 82 81  1  0
 83 82  2  0
 86 85  1  0
 88 86  1  0
 88 89  1  0
 88 87  1  0
 90 93  1  1
 90 91  1  0
 92 90  1  0
M  ISO  4  10 100  18 100  52 101  53 101
M  END
>  <TORSDO>  (21) 
F 22

>  <SCORE>  (21) 
-11.455

>  <name>  (21) 
20

>  <ligand_id>  (21) 
20

>  <original_smiles>  (21) 
[H]OC([H])(C([H])([H])Oc1c([H])c([H])c2c(c1[H])C([H])([H])N(C(=O)C([H])(N([H])C(=O)C([H])(N([H])C([H])([H])[H])C([H])([H])[H])C(C([H])([H])[H])(C([H])([H])[H])C([H])([H])[H])C([H])(C(=O)N([H])C1([H])c3c([H])c([H])c([H])c([H])c3C([H])([H])C([H])([H])C1([H])[H])C2([H])[H])C([H])([H])N([H])c1nc([H])c(C([H])([H])C([H])([H])N([H])C(=O)N2C([H])([H])C([H])([H])C([H])([H])C([H])(n3nc(-c4c([H])c([H])c(Oc5c([H])c([H])c(F)c([H])c5F)c([H])c4[H])c(C(=O)N([H])[H])c3N([H])[H])C2([H])[H])s1

>  <smiles>  (21) 
[H]OC([H])(C([H])([H])Oc1c([H])c([H])c2c(c1[H])C([H])([H])N(C(=O)C([H])(N([H])C(=O)C([H])(N([H])C([H])([H])[H])C([H])([H])[H])C(C([H])([H])[H])(C([H])([H])[H])C([H])([H])[H])C([H])(C(=O)N([H])C1([H])c3c([H])c([H])c([H])c([H])c3C([H])([H])C([H])([H])C1([H])[H])C2([H])[H])C([H])([H])N([H])c1nc([H])c(C([H])([H])C([H])([H])N([H])C(=O)N2C([H])([H])C([H])([H])C([H])([H])C([H])(n3nc(-c4c([H])c([H])c(Oc5c([H])c([H])c(F)c([H])c5F)c([H])c4[H])c(C(=O)N([H])[H])c3N([H])[H])C2([H])[H])s1

$$$$
21:0:0
     RDKit          3D

 95103  0  0  1  0  0  0  0  0999 V2000
  -29.4360  -20.5790   19.1850 C   0  0  0  0  0  2  0  0  0  0  0  0
  -30.9740  -17.5180   20.5640 C   0  0  0  0  0  3  0  0  0  0  0  0
  -29.5750  -19.2190   19.8670 C   0  0  0  0  0  0  0  0  0  0  0  0
  -29.8580  -16.6660   20.7960 C   0  0  0  0  0  0  0  0  0  0  0  0
  -28.4560  -18.3910   20.1440 C   0  0  0  0  0  0  0  0  0  0  0  0
  -30.8370  -18.7900   20.1120 N   0  0  0  0  0  0  0  0  0  0  0  0
  -28.5970  -17.1370   20.6210 N   0  0  0  0  0  0  0  0  0  0  0  0
  -27.1470  -18.7930   19.9130 N   0  0  0  0  0  0  0  0  0  0  0  0
  -26.9490  -19.7670   19.7210 H   0  0  0  0  0  0  0  0  0  0  0  0
  -26.3780  -18.2720   20.3130 H   0  0  0  0  0  0  0  0  0  0  0  0
  -30.6920  -14.4100   20.4770 C   0  0  0  0  0  0  0  0  0  0  0  0
  -30.3740  -12.2990   19.2470 C   0  0  0  0  0  2  0  0  0  0  0  0
  -29.4240  -12.5640   18.0610 C   0  0  0  0  0  2  0  0  0  0  0  0
  -27.9480  -12.4310   18.4920 C   0  0  0  0  0  2  0  0  0  0  0  0
  -27.6320  -13.2260   19.7880 C   0  0  0  0  0  3  0  0  0  0  0  0
  -28.6880  -12.9310   20.8770 C   0  0  0  0  0  2  0  0  0  0  0  0
  -30.0210  -13.2370   20.3220 N   0  0  0  0  0  0  0  0  0  0  0  0
  -31.7790  -14.6450   19.9380 O   0  0  0  0  0  0  0  0  0  0  0  0
  -30.0410  -15.3270   21.2090 N   0  0  0  0  0  0  0  0  0  0  0  0
  -29.2450  -14.9360   21.6830 H   0  0  0  0  0  0  0  0  0  0  0  0
  -25.2330  -13.8460   20.4940 C   0  0  0  0  0  0  0  0  0  0  0  0
  -24.1610  -13.0770   20.8650 C   0  0  0  0  0  0  0  0  0  0  0  0
  -24.6170  -11.7250   20.8340 C   0  0  0  0  0  0  0  0  0  0  0  0
  -26.2760  -12.9610   20.2640 N   0  0  0  0  0  0  0  0  0  0  0  0
  -25.9060  -11.6800   20.5220 N   0  0  0  0  0  0  0  0  0  0  0  0
  -23.8870  -10.4660   21.0300 C   0  0  0  0  0  0  0  0  0  0  0  0
  -24.3250   -9.4960   21.9610 C   0  0  0  0  0  3  0  0  0  0  0  0
  -23.5970   -8.3010   22.1450 C   0  0  0  0  0  3  0  0  0  0  0  0
  -22.4200   -8.0650   21.3980 C   0  0  0  0  0  0  0  0  0  0  0  0
  -22.0010   -9.0230   20.4580 C   0  0  0  0  0  3  0  0  0  0  0  0
  -22.7270  -10.2100   20.2720 C   0  0  0  0  0  3  0  0  0  0  0  0
  -21.6640   -6.9210   21.4900 O   0  0  0  0  0  0  0  0  0  0  0  0
  -21.6230   -6.1760   22.6400 C   0  0  0  0  0  0  0  0  0  0  0  0
  -21.2030   -6.7280   23.8710 C   0  0  0  0  0  3  0  0  0  0  0  0
  -21.1080   -5.9090   25.0140 C   0  0  0  0  0  3  0  0  0  0  0  0
  -21.4230   -4.5390   24.9270 C   0  0  0  0  0  0  0  0  0  0  0  0
  -21.8360   -3.9870   23.7020 C   0  0  0  0  0  3  0  0  0  0  0  0
  -21.9320   -4.8020   22.5610 C   0  0  0  0  0  0  0  0  0  0  0  0
  -22.3090   -4.2610   21.3770 F   0  0  0  0  0  0  0  0  0  0  0  0
  -21.3240   -3.7510   26.0230 F   0  0  0  0  0  0  0  0  0  0  0  0
  -22.7670  -13.5600   21.1440 C   0  0  0  0  0  0  0  0  0  0  0  0
  -22.0390  -12.8690   22.0140 N   0  0  0  0  0  0  0  0  0  0  0  0
  -22.3300  -14.5870   20.6260 O   0  0  0  0  0  0  0  0  0  0  0  0
  -22.4070  -12.0410   22.4590 H   0  0  0  0  0  0  0  0  0  0  0  0
  -21.1040  -13.1740   22.2400 H   0  0  0  0  0  0  0  0  0  0  0  0
  -25.4010  -15.2160   20.3190 N   0  0  0  0  0  0  0  0  0  0  0  0
  -24.6350  -15.8680   20.4370 H   0  0  0  0  0  0  0  0  0  0  0  0
  -26.2710  -15.6660   20.0560 H   0  0  0  0  0  0  0  0  0  0  0  0
  -29.0730  -21.7660   20.1090 C   0  0  0  0  0  2  0  0  0  0  0  0
  -28.8520  -23.0790   19.3160 C   0  0  0  0  0  3  0  0  0  0  0  0
  -27.7660  -22.9050   18.4190 O   0  0  0  0  0  0  0  0  0  0  0  0
  -26.9770  -22.7410   18.9260 H   0  0  0  0  0  0  0  0  0  0  0  0
  -28.5640  -24.3270   20.1830 C   0  0  0  0  0  2  0  0  0  0  0  0
  -28.7230  -25.6490   19.3990 C   0  0  0  0  0  2  0  0  0  0  0  0
  -28.4810  -26.8000   20.2110 O   0  0  0  0  0  0  0  0  0  0  0  0
  -24.5790  -31.8860   23.2390 C   0  0  0  0  0  0  0  0  0  0  0  0
  -27.2630  -27.4510   20.1850 C   0  0  0  0  0  0  0  0  0  0  0  0
  -23.3830  -30.4760   21.5930 C   0  0  0  0  0  3  0  0  0  0  0  0
  -24.8490  -28.9310   20.1860 C   0  0  0  0  0  0  0  0  0  0  0  0
  -25.9070  -30.8400   21.4090 C   0  0  0  0  0  2  0  0  0  0  0  0
  -25.9980  -29.4660   20.7790 C   0  0  0  0  0  0  0  0  0  0  0  0
  -27.2010  -28.7300   20.7810 C   0  0  0  0  0  3  0  0  0  0  0  0
  -26.0910  -26.9150   19.6040 C   0  0  0  0  0  3  0  0  0  0  0  0
  -24.8890  -27.6530   19.5980 C   0  0  0  0  0  3  0  0  0  0  0  0
  -23.6030  -29.7860   20.2180 C   0  0  0  0  0  2  0  0  0  0  0  0
  -24.6410  -31.0840   22.1390 N   0  0  0  0  0  0  0  0  0  0  0  0
  -23.4950  -32.1590   23.7730 O   0  0  0  0  0  0  0  0  0  0  0  0
  -22.7290  -29.4590   22.5550 C   0  0  0  0  0  0  0  0  0  0  0  0
  -21.4040  -29.2820   22.4250 N   0  0  0  0  0  0  0  0  0  0  0  0
  -23.4100  -28.8310   23.3710 O   0  0  0  0  0  0  0  0  0  0  0  0
  -20.9190  -29.8370   21.7340 H   0  0  0  0  0  0  0  0  0  0  0  0
  -18.0230  -28.1180   22.9310 C   0  0  0  0  0  0  0  0  0  0  0  0
  -20.5830  -28.3490   23.1950 C   0  0  0  0  0  3  0  0  0  0  0  0
  -20.6700  -26.9200   22.6100 C   0  0  0  0  0  2  0  0  0  0  0  0
  -19.5600  -26.6140   21.5990 C   0  0  0  0  0  2  0  0  0  0  0  0
  -18.1830  -26.7710   22.2490 C   0  0  0  0  0  2  0  0  0  0  0  0
  -19.1500  -28.8660   23.3620 C   0  0  0  0  0  0  0  0  0  0  0  0
  -18.9470  -30.1290   23.9590 C   0  0  0  0  0  3  0  0  0  0  0  0
  -17.6480  -30.6430   24.1320 C   0  0  0  0  0  3  0  0  0  0  0  0
  -16.5350  -29.8920   23.7190 C   0  0  0  0  0  3  0  0  0  0  0  0
  -16.7230  -28.6320   23.1230 C   0  0  0  0  0  3  0  0  0  0  0  0
  -25.8610  -32.5190   23.8650 C   0  0  0  0  0  3  0  0  0  0  0  0
  -25.5530  -33.9180   24.1890 N   0  0  0  0  0  0  0  0  0  0  0  0
  -25.8940  -34.9670   23.4280 C   0  0  0  0  0  0  0  0  0  0  0  0
  -26.5740  -34.8590   22.4050 O   0  0  0  0  0  0  0  0  0  0  0  0
  -24.9480  -34.0750   24.9820 H   0  0  0  0  0  0  0  0  0  0  0  0
  -24.1760  -36.7620   23.0430 C   0  0  0  0  0  1  0  0  0  0  0  0
  -25.4020  -36.3560   23.8750 C   0  0  0  0  0  3  0  0  0  0  0  0
  -27.5240  -37.2370   24.7410 C   0  0  0  0  0  1  0  0  0  0  0  0
  -26.4390  -37.4070   23.7790 N   0  0  0  0  0  0  0  0  0  0  0  0
  -26.0320  -38.3280   23.9190 H   0  0  0  0  0  0  0  0  0  0  0  0
  -26.3750  -31.7510   25.1440 C   0  0  1  0  0  0  0  0  0  0  0  0
  -25.2790  -31.5140   26.2080 C   0  0  0  0  0  1  0  0  0  0  0  0
  -26.9620  -30.3730   24.7560 C   0  0  0  0  0  1  0  0  0  0  0  0
  -27.5230  -32.5480   25.8100 C   0  0  0  0  0  1  0  0  0  0  0  0
  1  3  1  0
  1 49  1  0
  2  4  1  0
  3  6  1  0
  3  5  2  0
  4 19  1  0
  5  7  1  0
  6  2  2  0
  7  4  2  0
  8  5  1  0
  8 10  1  0
  9  8  1  0
 11 19  1  0
 12 17  1  0
 13 14  1  0
 13 12  1  0
 15 14  1  0
 15 24  1  0
 15 16  1  0
 17 11  1  0
 17 16  1  0
 18 11  2  0
 19 20  1  0
 21 22  2  0
 22 41  1  0
 23 22  1  0
 23 26  1  0
 24 21  1  0
 24 25  1  0
 25 23  2  0
 26 27  1  0
 27 28  2  0
 29 32  1  0
 29 28  1  0
 30 29  2  0
 31 30  1  0
 31 26  2  0
 32 33  1  0
 33 34  1  0
 34 35  2  0
 36 35  1  0
 36 40  1  0
 37 36  2  0
 38 33  2  0
 38 37  1  0
 39 38  1  0
 41 42  1  0
 42 45  1  0
 42 44  1  0
 43 41  2  0
 46 47  1  0
 46 21  1  0
 48 46  1  0
 50 49  1  0
 50 53  1  0
 51 52  1  0
 51 50  1  0
 54 53  1  0
 54 55  1  0
 56 67  2  0
 57 55  1  0
 57 62  1  0
 58 66  1  0
 58 68  1  0
 59 65  1  0
 59 61  1  0
 60 66  1  0
 61 62  2  0
 61 60  1  0
 63 57  2  0
 64 63  1  0
 64 59  2  0
 65 58  1  0
 66 56  1  0
 68 70  2  0
 69 68  1  0
 71 69  1  0
 72 81  2  0
 72 77  1  0
 73 69  1  0
 73 77  1  0
 74 73  1  0
 75 76  1  0
 75 74  1  0
 76 72  1  0
 77 78  2  0
 78 79  1  0
 80 79  2  0
 81 80  1  0
 82 56  1  0
 82 83  1  0
 82 92  1  0
 83 86  1  0
 84 88  1  0
 84 83  1  0
 85 84  2  0
 88 87  1  0
 90 88  1  0
 90 91  1  0
 90 89  1  0
 92 95  1  1
 92 93  1  0
 94 92  1  0
M  ISO  4  11 100  19 100  54 101  55 101
M  END
>  <TORSDO>  (22) 
F 22

>  <SCORE>  (22) 
-13.737

>  <name>  (22) 
21

>  <ligand_id>  (22) 
21

>  <original_smiles>  (22) 
[H]OC([H])(C([H])([H])C([H])([H])Oc1c([H])c([H])c2c(c1[H])C([H])([H])N(C(=O)C([H])(N([H])C(=O)C([H])(N([H])C([H])([H])[H])C([H])([H])[H])C(C([H])([H])[H])(C([H])([H])[H])C([H])([H])[H])C([H])(C(=O)N([H])C1([H])c3c([H])c([H])c([H])c([H])c3C([H])([H])C([H])([H])C1([H])[H])C2([H])[H])C([H])([H])C([H])([H])c1nc([H])c(N([H])C(=O)N2C([H])([H])C([H])([H])C([H])([H])C([H])(n3nc(-c4c([H])c([H])c(Oc5c([H])c([H])c(F)c([H])c5F)c([H])c4[H])c(C(=O)N([H])[H])c3N([H])[H])C2([H])[H])nc1N([H])[H]

>  <smiles>  (22) 
[H]OC([H])(C([H])([H])C([H])([H])Oc1c([H])c([H])c2c(c1[H])C([H])([H])N(C(=O)C([H])(N([H])C(=O)C([H])(N([H])C([H])([H])[H])C([H])([H])[H])C(C([H])([H])[H])(C([H])([H])[H])C([H])([H])[H])C([H])(C(=O)N([H])C1([H])c3c([H])c([H])c([H])c([H])c3C([H])([H])C([H])([H])C1([H])[H])C2([H])[H])C([H])([H])C([H])([H])c1nc([H])c(N([H])C(=O)N2C([H])([H])C([H])([H])C([H])([H])C([H])(n3nc(-c4c([H])c([H])c(Oc5c([H])c([H])c(F)c([H])c5F)c([H])c4[H])c(C(=O)N([H])[H])c3N([H])[H])C2([H])[H])nc1N([H])[H]

$$$$
22:0:0
     RDKit          3D

 97105  0  0  1  0  0  0  0  0999 V2000
  -30.7280  -22.5000   20.0400 C   0  0  0  0  0  3  0  0  0  0  0  0
  -30.2820  -21.1900   20.5980 N   0  0  0  0  0  4  0  0  0  0  0  0
  -30.8320  -21.0640   21.4350 H   0  0  0  0  0  0  0  0  0  0  0  0
  -29.3060  -21.2180   20.8410 H   0  0  0  0  0  0  0  0  0  0  0  0
  -30.5380  -19.9920   19.7440 C   0  0  0  0  0  2  0  0  0  0  0  0
  -30.8180  -17.1290   22.5010 C   0  0  0  0  0  3  0  0  0  0  0  0
  -30.8250  -16.5650   21.2520 C   0  0  0  0  0  0  0  0  0  0  0  0
  -30.6550  -18.7840   20.6610 C   0  0  0  0  0  0  0  0  0  0  0  0
  -30.7330  -17.5130   20.2140 N   0  0  0  0  0  0  0  0  0  0  0  0
  -30.7180  -18.8660   22.4300 S   0  0  0  0  0  0  0  0  0  0  0  0
  -31.3280  -14.3300   20.1930 C   0  0  0  0  0  0  0  0  0  0  0  0
  -30.8790  -12.2530   18.9180 C   0  0  0  0  0  2  0  0  0  0  0  0
  -29.8890  -12.5590   17.7740 C   0  0  0  0  0  2  0  0  0  0  0  0
  -28.4290  -12.4900   18.2660 C   0  0  0  0  0  2  0  0  0  0  0  0
  -28.2040  -13.2910   19.5750 C   0  0  0  0  0  3  0  0  0  0  0  0
  -29.2810  -12.9190   20.6170 C   0  0  0  0  0  2  0  0  0  0  0  0
  -30.6080  -13.1860   20.0230 N   0  0  0  0  0  0  0  0  0  0  0  0
  -32.3660  -14.5720   19.5650 O   0  0  0  0  0  0  0  0  0  0  0  0
  -30.8280  -15.1480   21.1380 N   0  0  0  0  0  0  0  0  0  0  0  0
  -30.1620  -14.6820   21.7330 H   0  0  0  0  0  0  0  0  0  0  0  0
  -25.8750  -14.0350   20.3880 C   0  0  0  0  0  0  0  0  0  0  0  0
  -24.7740  -13.3220   20.7840 C   0  0  0  0  0  0  0  0  0  0  0  0
  -25.1470  -11.9450   20.7050 C   0  0  0  0  0  0  0  0  0  0  0  0
  -26.8530  -13.0950   20.0970 N   0  0  0  0  0  0  0  0  0  0  0  0
  -26.4190  -11.8330   20.3410 N   0  0  0  0  0  0  0  0  0  0  0  0
  -24.3520  -10.7270   20.8970 C   0  0  0  0  0  0  0  0  0  0  0  0
  -24.7070   -9.7590   21.8630 C   0  0  0  0  0  3  0  0  0  0  0  0
  -23.9160   -8.6030   22.0420 C   0  0  0  0  0  3  0  0  0  0  0  0
  -22.7570   -8.4080   21.2540 C   0  0  0  0  0  0  0  0  0  0  0  0
  -22.4210   -9.3630   20.2790 C   0  0  0  0  0  3  0  0  0  0  0  0
  -23.2110  -10.5100   20.0980 C   0  0  0  0  0  3  0  0  0  0  0  0
  -21.9430   -7.3030   21.3410 O   0  0  0  0  0  0  0  0  0  0  0  0
  -21.7560   -6.6380   22.5260 C   0  0  0  0  0  0  0  0  0  0  0  0
  -21.2540   -7.2890   23.6740 C   0  0  0  0  0  3  0  0  0  0  0  0
  -21.0120   -6.5520   24.8510 C   0  0  0  0  0  3  0  0  0  0  0  0
  -21.2600   -5.1670   24.8790 C   0  0  0  0  0  0  0  0  0  0  0  0
  -21.7540   -4.5170   23.7350 C   0  0  0  0  0  3  0  0  0  0  0  0
  -21.9990   -5.2500   22.5600 C   0  0  0  0  0  0  0  0  0  0  0  0
  -22.4550   -4.6160   21.4540 F   0  0  0  0  0  0  0  0  0  0  0  0
  -21.0200   -4.4580   26.0060 F   0  0  0  0  0  0  0  0  0  0  0  0
  -23.4230  -13.8790   21.1280 C   0  0  0  0  0  0  0  0  0  0  0  0
  -22.7000  -13.2210   22.0290 N   0  0  0  0  0  0  0  0  0  0  0  0
  -23.0190  -14.9310   20.6340 O   0  0  0  0  0  0  0  0  0  0  0  0
  -23.0390  -12.3680   22.4480 H   0  0  0  0  0  0  0  0  0  0  0  0
  -21.7940  -13.5750   22.3030 H   0  0  0  0  0  0  0  0  0  0  0  0
  -26.1200  -15.3960   20.2330 N   0  0  0  0  0  0  0  0  0  0  0  0
  -25.4030  -16.0980   20.3880 H   0  0  0  0  0  0  0  0  0  0  0  0
  -26.9860  -15.7860   19.8840 H   0  0  0  0  0  0  0  0  0  0  0  0
  -32.2450  -22.5920   20.3430 C   0  0  0  0  0  0  0  0  0  0  0  0
  -32.7620  -21.9840   21.2870 O   0  0  0  0  0  0  0  0  0  0  0  0
  -34.6140  -23.3740   19.7010 C   0  0  0  0  0  1  0  0  0  0  0  0
  -33.1010  -23.4840   19.4350 C   0  0  0  0  0  2  0  0  0  0  0  0
  -29.8150  -23.7490   22.1640 C   0  0  0  0  0  1  0  0  0  0  0  0
  -29.9640  -23.7490   20.6260 C   0  0  0  0  0  3  0  0  0  0  0  0
  -28.6120  -24.0880   19.9300 C   0  0  0  0  0  2  0  0  0  0  0  0
  -28.5670  -25.4880   19.2550 C   0  0  0  0  0  2  0  0  0  0  0  0
  -28.3620  -26.5780   20.1670 O   0  0  0  0  0  0  0  0  0  0  0  0
  -24.5830  -31.7840   23.2310 C   0  0  0  0  0  0  0  0  0  0  0  0
  -27.1710  -27.2820   20.1610 C   0  0  0  0  0  0  0  0  0  0  0  0
  -23.3550  -30.3900   21.5980 C   0  0  0  0  0  3  0  0  0  0  0  0
  -24.7860  -28.8200   20.1830 C   0  0  0  0  0  0  0  0  0  0  0  0
  -25.8860  -30.7080   21.3980 C   0  0  0  0  0  2  0  0  0  0  0  0
  -25.9510  -29.3300   20.7680 C   0  0  0  0  0  0  0  0  0  0  0  0
  -27.1410  -28.5650   20.7590 C   0  0  0  0  0  3  0  0  0  0  0  0
  -25.9760  -26.7780   19.5940 C   0  0  0  0  0  3  0  0  0  0  0  0
  -24.7920  -27.5410   19.6000 C   0  0  0  0  0  3  0  0  0  0  0  0
  -23.5540  -29.6960   20.2230 C   0  0  0  0  0  2  0  0  0  0  0  0
  -24.6260  -30.9770   22.1330 N   0  0  0  0  0  0  0  0  0  0  0  0
  -23.5050  -32.0750   23.7700 O   0  0  0  0  0  0  0  0  0  0  0  0
  -22.6890  -29.3850   22.5650 C   0  0  0  0  0  0  0  0  0  0  0  0
  -21.3710  -29.1820   22.4030 N   0  0  0  0  0  0  0  0  0  0  0  0
  -23.3550  -28.7880   23.4130 O   0  0  0  0  0  0  0  0  0  0  0  0
  -20.8930  -29.7170   21.6910 H   0  0  0  0  0  0  0  0  0  0  0  0
  -18.0100  -27.9160   22.7940 C   0  0  0  0  0  0  0  0  0  0  0  0
  -20.5440  -28.2520   23.1720 C   0  0  0  0  0  3  0  0  0  0  0  0
  -20.7100  -26.8040   22.6570 C   0  0  0  0  0  2  0  0  0  0  0  0
  -19.6650  -26.4140   21.6060 C   0  0  0  0  0  2  0  0  0  0  0  0
  -18.2510  -26.5470   22.1810 C   0  0  0  0  0  2  0  0  0  0  0  0
  -19.0880  -28.7230   23.2440 C   0  0  0  0  0  0  0  0  0  0  0  0
  -18.8110  -30.0030   23.7730 C   0  0  0  0  0  3  0  0  0  0  0  0
  -17.4890  -30.4760   23.8580 C   0  0  0  0  0  3  0  0  0  0  0  0
  -16.4240  -29.6670   23.4240 C   0  0  0  0  0  3  0  0  0  0  0  0
  -16.6850  -28.3890   22.9000 C   0  0  0  0  0  3  0  0  0  0  0  0
  -25.8780  -32.3990   23.8470 C   0  0  0  0  0  3  0  0  0  0  0  0
  -25.5850  -33.8000   24.1840 N   0  0  0  0  0  0  0  0  0  0  0  0
  -25.9270  -34.8510   23.4280 C   0  0  0  0  0  0  0  0  0  0  0  0
  -26.5930  -34.7450   22.3940 O   0  0  0  0  0  0  0  0  0  0  0  0
  -24.9960  -33.9570   24.9880 H   0  0  0  0  0  0  0  0  0  0  0  0
  -24.2140  -36.6600   23.0890 C   0  0  0  0  0  1  0  0  0  0  0  0
  -25.4560  -36.2420   23.8920 C   0  0  0  0  0  3  0  0  0  0  0  0
  -27.6020  -37.1060   24.7160 C   0  0  0  0  0  1  0  0  0  0  0  0
  -26.4970  -37.2860   23.7770 N   0  0  0  0  0  0  0  0  0  0  0  0
  -26.1010  -38.2090   23.9280 H   0  0  0  0  0  0  0  0  0  0  0  0
  -26.3970  -31.6170   25.1150 C   0  0  1  0  0  0  0  0  0  0  0  0
  -25.3070  -31.3770   26.1860 C   0  0  0  0  0  1  0  0  0  0  0  0
  -26.9690  -30.2390   24.7070 C   0  0  0  0  0  1  0  0  0  0  0  0
  -27.5550  -32.3980   25.7770 C   0  0  0  0  0  1  0  0  0  0  0  0
  1 49  1  0
  1  2  1  0
  1 54  1  0
  2  4  1  0
  2  3  1  0
  5  2  1  0
  5  8  1  0
  7  6  2  0
  8 10  1  0
  9  8  2  0
  9  7  1  0
 10  6  1  0
 11 19  1  0
 12 17  1  0
 13 14  1  0
 13 12  1  0
 15 14  1  0
 15 24  1  0
 15 16  1  0
 17 11  1  0
 17 16  1  0
 18 11  2  0
 19  7  1  0
 19 20  1  0
 21 22  2  0
 22 41  1  0
 23 22  1  0
 23 26  1  0
 24 25  1  0
 24 21  1  0
 25 23  2  0
 26 27  1  0
 27 28  2  0
 29 32  1  0
 29 28  1  0
 30 29  2  0
 31 30  1  0
 31 26  2  0
 32 33  1  0
 33 38  2  0
 33 34  1  0
 34 35  2  0
 35 36  1  0
 36 40  1  0
 37 36  2  0
 38 37  1  0
 39 38  1  0
 41 42  1  0
 42 45  1  0
 42 44  1  0
 43 41  2  0
 46 21  1  0
 46 47  1  0
 48 46  1  0
 49 50  2  0
 52 51  1  0
 52 49  1  0
 54 53  1  0
 55 54  1  0
 56 55  1  0
 56 57  1  0
 58 69  2  0
 59 57  1  0
 59 64  1  0
 60 68  1  0
 60 70  1  0
 61 67  1  0
 61 63  1  0
 62 68  1  0
 63 62  1  0
 64 63  2  0
 65 66  1  0
 65 59  2  0
 66 61  2  0
 67 60  1  0
 68 58  1  0
 70 72  2  0
 71 70  1  0
 73 71  1  0
 74 83  2  0
 74 79  1  0
 75 71  1  0
 75 79  1  0
 76 75  1  0
 77 78  1  0
 77 76  1  0
 78 74  1  0
 79 80  2  0
 80 81  1  0
 82 81  2  0
 83 82  1  0
 84 58  1  0
 84 85  1  0
 84 94  1  0
 85 88  1  0
 86 90  1  0
 86 85  1  0
 87 86  2  0
 90 89  1  0
 92 90  1  0
 92 93  1  0
 92 91  1  0
 94 97  1  1
 94 95  1  0
 96 94  1  0
M  ISO  4  11 100  19 100  56 101  57 101
M  END
>  <TORSDO>  (23) 
F 24

>  <SCORE>  (23) 
-11.682

>  <name>  (23) 
22

>  <ligand_id>  (23) 
22

>  <original_smiles>  (23) 
[H]c1sc(C([H])([H])[N+]([H])([H])C([H])(C(=O)C([H])([H])C([H])([H])[H])C([H])(C([H])([H])[H])C([H])([H])C([H])([H])Oc2c([H])c([H])c3c(c2[H])C([H])([H])N(C(=O)C([H])(N([H])C(=O)C([H])(N([H])C([H])([H])[H])C([H])([H])[H])C(C([H])([H])[H])(C([H])([H])[H])C([H])([H])[H])C([H])(C(=O)N([H])C2([H])c4c([H])c([H])c([H])c([H])c4C([H])([H])C([H])([H])C2([H])[H])C3([H])[H])nc1N([H])C(=O)N1C([H])([H])C([H])([H])C([H])([H])C([H])(n2nc(-c3c([H])c([H])c(Oc4c([H])c([H])c(F)c([H])c4F)c([H])c3[H])c(C(=O)N([H])[H])c2N([H])[H])C1([H])[H]

>  <smiles>  (23) 
[H]c1sc(C([H])([H])[N+]([H])([H])C([H])(C(=O)C([H])([H])C([H])([H])[H])C([H])(C([H])([H])[H])C([H])([H])C([H])([H])Oc2c([H])c([H])c3c(c2[H])C([H])([H])N(C(=O)C([H])(N([H])C(=O)C([H])(N([H])C([H])([H])[H])C([H])([H])[H])C(C([H])([H])[H])(C([H])([H])[H])C([H])([H])[H])C([H])(C(=O)N([H])C2([H])c4c([H])c([H])c([H])c([H])c4C([H])([H])C([H])([H])C2([H])[H])C3([H])[H])nc1N([H])C(=O)N1C([H])([H])C([H])([H])C([H])([H])C([H])(n2nc(-c3c([H])c([H])c(Oc4c([H])c([H])c(F)c([H])c4F)c([H])c3[H])c(C(=O)N([H])[H])c2N([H])[H])C1([H])[H]

$$$$
23:0:0
     RDKit          3D

 95103  0  0  1  0  0  0  0  0999 V2000
  -29.4010  -21.9180   20.9670 C   0  0  0  0  0  3  0  0  0  0  0  0
  -29.0200  -17.6440   20.8830 C   0  0  0  0  0  3  0  0  0  0  0  0
  -31.4240  -18.7740   20.4590 C   0  0  0  0  0  0  0  0  0  0  0  0
  -30.1800  -16.8360   20.7530 C   0  0  0  0  0  0  0  0  0  0  0  0
  -30.2530  -19.5670   20.5550 C   0  0  0  0  0  0  0  0  0  0  0  0
  -32.7920  -19.3920   20.2290 C   0  0  0  0  0  1  0  0  0  0  0  0
  -29.0460  -18.9980   20.7770 N   0  0  0  0  0  0  0  0  0  0  0  0
  -31.3890  -17.4250   20.5600 N   0  0  0  0  0  0  0  0  0  0  0  0
  -30.3350  -20.9560   20.3790 N   0  0  0  0  0  0  0  0  0  0  0  0
  -31.2730  -21.3060   20.2350 H   0  0  0  0  0  0  0  0  0  0  0  0
  -30.6550  -14.4680   20.1530 C   0  0  0  0  0  0  0  0  0  0  0  0
  -30.2790  -12.3680   18.9170 C   0  0  0  0  0  2  0  0  0  0  0  0
  -29.2750  -12.6400   17.7770 C   0  0  0  0  0  2  0  0  0  0  0  0
  -27.8230  -12.4980   18.2790 C   0  0  0  0  0  2  0  0  0  0  0  0
  -27.5640  -13.2740   19.5980 C   0  0  0  0  0  3  0  0  0  0  0  0
  -28.6730  -12.9800   20.6330 C   0  0  0  0  0  2  0  0  0  0  0  0
  -29.9720  -13.2980   20.0140 N   0  0  0  0  0  0  0  0  0  0  0  0
  -31.7470  -14.6630   19.6080 O   0  0  0  0  0  0  0  0  0  0  0  0
  -29.9900  -15.4270   20.8220 N   0  0  0  0  0  0  0  0  0  0  0  0
  -29.1100  -15.1280   21.2110 H   0  0  0  0  0  0  0  0  0  0  0  0
  -25.1990  -13.8690   20.4220 C   0  0  0  0  0  0  0  0  0  0  0  0
  -24.1520  -13.0890   20.8360 C   0  0  0  0  0  0  0  0  0  0  0  0
  -24.6140  -11.7390   20.7650 C   0  0  0  0  0  0  0  0  0  0  0  0
  -26.2350  -12.9930   20.1340 N   0  0  0  0  0  0  0  0  0  0  0  0
  -25.8870  -11.7070   20.3950 N   0  0  0  0  0  0  0  0  0  0  0  0
  -23.9000  -10.4730   20.9750 C   0  0  0  0  0  0  0  0  0  0  0  0
  -24.3640   -9.5090   21.8970 C   0  0  0  0  0  3  0  0  0  0  0  0
  -23.6510   -8.3060   22.0940 C   0  0  0  0  0  3  0  0  0  0  0  0
  -22.4620   -8.0600   21.3690 C   0  0  0  0  0  0  0  0  0  0  0  0
  -22.0180   -9.0120   20.4350 C   0  0  0  0  0  3  0  0  0  0  0  0
  -22.7310  -10.2060   20.2350 C   0  0  0  0  0  3  0  0  0  0  0  0
  -21.7180   -6.9100   21.4750 O   0  0  0  0  0  0  0  0  0  0  0  0
  -21.6840   -6.1800   22.6360 C   0  0  0  0  0  0  0  0  0  0  0  0
  -21.2530   -6.7410   23.8570 C   0  0  0  0  0  3  0  0  0  0  0  0
  -21.1680   -5.9360   25.0110 C   0  0  0  0  0  3  0  0  0  0  0  0
  -21.5040   -4.5700   24.9450 C   0  0  0  0  0  0  0  0  0  0  0  0
  -21.9280   -4.0080   23.7280 C   0  0  0  0  0  3  0  0  0  0  0  0
  -22.0150   -4.8100   22.5760 C   0  0  0  0  0  0  0  0  0  0  0  0
  -22.4040   -4.2590   21.4010 F   0  0  0  0  0  0  0  0  0  0  0  0
  -21.4140   -3.7960   26.0500 F   0  0  0  0  0  0  0  0  0  0  0  0
  -22.7680  -13.5590   21.1810 C   0  0  0  0  0  0  0  0  0  0  0  0
  -22.0840  -12.8490   22.0720 N   0  0  0  0  0  0  0  0  0  0  0  0
  -22.3030  -14.5900   20.6950 O   0  0  0  0  0  0  0  0  0  0  0  0
  -22.4730  -12.0160   22.4860 H   0  0  0  0  0  0  0  0  0  0  0  0
  -21.1570  -13.1460   22.3440 H   0  0  0  0  0  0  0  0  0  0  0  0
  -25.3500  -15.2420   20.2500 N   0  0  0  0  0  0  0  0  0  0  0  0
  -24.5750  -15.8820   20.3790 H   0  0  0  0  0  0  0  0  0  0  0  0
  -26.1550  -15.6790   19.8220 H   0  0  0  0  0  0  0  0  0  0  0  0
  -29.8160  -21.1760   23.4040 C   0  0  0  0  0  1  0  0  0  0  0  0
  -31.2490  -23.0140   22.4190 C   0  0  0  0  0  1  0  0  0  0  0  0
  -29.8660  -22.3360   22.3950 C   0  0  0  0  0  3  0  0  0  0  0  0
  -29.2700  -23.1100   19.9790 C   0  0  0  0  0  2  0  0  0  0  0  0
  -28.4500  -24.3400   20.4370 C   0  0  0  0  0  2  0  0  0  0  0  0
  -28.4970  -25.4870   19.4060 C   0  0  0  0  0  2  0  0  0  0  0  0
  -28.3350  -26.7600   20.0330 O   0  0  0  0  0  0  0  0  0  0  0  0
  -24.5510  -31.8620   23.1880 C   0  0  0  0  0  0  0  0  0  0  0  0
  -27.1210  -27.4140   20.0550 C   0  0  0  0  0  0  0  0  0  0  0  0
  -23.3060  -30.4680   21.5660 C   0  0  0  0  0  3  0  0  0  0  0  0
  -24.7230  -28.9180   20.1210 C   0  0  0  0  0  0  0  0  0  0  0  0
  -25.8250  -30.8170   21.3200 C   0  0  0  0  0  2  0  0  0  0  0  0
  -25.8910  -29.4420   20.6850 C   0  0  0  0  0  0  0  0  0  0  0  0
  -27.0880  -28.6950   20.6510 C   0  0  0  0  0  3  0  0  0  0  0  0
  -25.9260  -26.8910   19.5080 C   0  0  0  0  0  3  0  0  0  0  0  0
  -24.7340  -27.6400   19.5360 C   0  0  0  0  0  3  0  0  0  0  0  0
  -23.4860  -29.7850   20.1840 C   0  0  0  0  0  2  0  0  0  0  0  0
  -24.5810  -31.0640   22.0840 N   0  0  0  0  0  0  0  0  0  0  0  0
  -23.4810  -32.1380   23.7500 O   0  0  0  0  0  0  0  0  0  0  0  0
  -22.6670  -29.4510   22.5400 C   0  0  0  0  0  0  0  0  0  0  0  0
  -21.3420  -29.2670   22.4260 N   0  0  0  0  0  0  0  0  0  0  0  0
  -23.3610  -28.8310   23.3510 O   0  0  0  0  0  0  0  0  0  0  0  0
  -20.8440  -29.8190   21.7410 H   0  0  0  0  0  0  0  0  0  0  0  0
  -17.9780  -28.0600   22.9420 C   0  0  0  0  0  0  0  0  0  0  0  0
  -20.5350  -28.3320   23.2070 C   0  0  0  0  0  3  0  0  0  0  0  0
  -20.6430  -26.8950   22.6440 C   0  0  0  0  0  2  0  0  0  0  0  0
  -19.5410  -26.5590   21.6360 C   0  0  0  0  0  2  0  0  0  0  0  0
  -18.1600  -26.7040   22.2800 C   0  0  0  0  0  2  0  0  0  0  0  0
  -19.0940  -28.8300   23.3640 C   0  0  0  0  0  0  0  0  0  0  0  0
  -18.8710  -30.0990   23.9410 C   0  0  0  0  0  3  0  0  0  0  0  0
  -17.5640  -30.5970   24.1040 C   0  0  0  0  0  3  0  0  0  0  0  0
  -16.4620  -29.8230   23.7010 C   0  0  0  0  0  3  0  0  0  0  0  0
  -16.6700  -28.5560   23.1250 C   0  0  0  0  0  3  0  0  0  0  0  0
  -25.8520  -32.4850   23.7840 C   0  0  0  0  0  3  0  0  0  0  0  0
  -25.5600  -33.8850   24.1180 N   0  0  0  0  0  0  0  0  0  0  0  0
  -25.8950  -34.9350   23.3550 C   0  0  0  0  0  0  0  0  0  0  0  0
  -26.5560  -34.8250   22.3170 O   0  0  0  0  0  0  0  0  0  0  0  0
  -24.9770  -34.0460   24.9260 H   0  0  0  0  0  0  0  0  0  0  0  0
  -24.1890  -36.7470   23.0020 C   0  0  0  0  0  1  0  0  0  0  0  0
  -25.4230  -36.3260   23.8160 C   0  0  0  0  0  3  0  0  0  0  0  0
  -27.5650  -37.1840   24.6540 C   0  0  0  0  0  1  0  0  0  0  0  0
  -26.4680  -37.3680   23.7080 N   0  0  0  0  0  0  0  0  0  0  0  0
  -26.0720  -38.2920   23.8590 H   0  0  0  0  0  0  0  0  0  0  0  0
  -26.3900  -31.7100   25.0490 C   0  0  1  0  0  0  0  0  0  0  0  0
  -25.3180  -31.4760   26.1380 C   0  0  0  0  0  1  0  0  0  0  0  0
  -26.9580  -30.3310   24.6400 C   0  0  0  0  0  1  0  0  0  0  0  0
  -27.5590  -32.4960   25.6890 C   0  0  0  0  0  1  0  0  0  0  0  0
  1 52  1  0
  1 51  1  0
  3  5  1  0
  3  8  2  0
  4 19  1  0
  4  2  2  0
  5  7  2  0
  6  3  1  0
  7  2  1  0
  8  4  1  0
  9  5  1  0
  9  1  1  0
 10  9  1  0
 11 19  1  0
 12 17  1  0
 13 14  1  0
 13 12  1  0
 15 14  1  0
 15 24  1  0
 15 16  1  0
 17 11  1  0
 17 16  1  0
 18 11  2  0
 19 20  1  0
 21 22  2  0
 22 41  1  0
 23 22  1  0
 23 26  1  0
 24 25  1  0
 24 21  1  0
 25 23  2  0
 26 27  1  0
 27 28  2  0
 29 32  1  0
 29 28  1  0
 30 29  2  0
 31 30  1  0
 31 26  2  0
 32 33  1  0
 33 34  1  0
 34 35  2  0
 36 35  1  0
 36 40  1  0
 37 36  2  0
 38 33  2  0
 38 37  1  0
 39 38  1  0
 41 42  1  0
 42 45  1  0
 42 44  1  0
 43 41  2  0
 46 47  1  0
 46 21  1  0
 48 46  1  0
 51 50  1  0
 51 49  1  0
 52 53  1  0
 54 55  1  0
 54 53  1  0
 55 57  1  0
 56 67  2  0
 57 62  1  0
 58 66  1  0
 58 68  1  0
 59 65  1  0
 59 61  1  0
 60 66  1  0
 61 60  1  0
 62 61  2  0
 63 64  1  0
 63 57  2  0
 64 59  2  0
 65 58  1  0
 66 56  1  0
 68 70  2  0
 69 68  1  0
 71 69  1  0
 72 81  2  0
 72 77  1  0
 73 69  1  0
 73 77  1  0
 74 73  1  0
 75 76  1  0
 75 74  1  0
 76 72  1  0
 77 78  2  0
 78 79  1  0
 80 79  2  0
 81 80  1  0
 82 56  1  0
 82 83  1  0
 82 92  1  0
 83 86  1  0
 84 88  1  0
 84 83  1  0
 85 84  2  0
 88 87  1  0
 90 88  1  0
 90 91  1  0
 90 89  1  0
 92 95  1  1
 92 93  1  0
 94 92  1  0
M  ISO  4  11 100  19 100  54 101  55 101
M  END
>  <TORSDO>  (24) 
F 21

>  <SCORE>  (24) 
-12.754

>  <name>  (24) 
23

>  <ligand_id>  (24) 
23

>  <original_smiles>  (24) 
[H]c1nc(N([H])C([H])(C([H])([H])C([H])([H])C([H])([H])Oc2c([H])c([H])c3c(c2[H])C([H])([H])N(C(=O)C([H])(N([H])C(=O)C([H])(N([H])C([H])([H])[H])C([H])([H])[H])C(C([H])([H])[H])(C([H])([H])[H])C([H])([H])[H])C([H])(C(=O)N([H])C2([H])c4c([H])c([H])c([H])c([H])c4C([H])([H])C([H])([H])C2([H])[H])C3([H])[H])C([H])(C([H])([H])[H])C([H])([H])[H])c(C([H])([H])[H])nc1N([H])C(=O)N1C([H])([H])C([H])([H])C([H])([H])C([H])(n2nc(-c3c([H])c([H])c(Oc4c([H])c([H])c(F)c([H])c4F)c([H])c3[H])c(C(=O)N([H])[H])c2N([H])[H])C1([H])[H]

>  <smiles>  (24) 
[H]c1nc(N([H])C([H])(C([H])([H])C([H])([H])C([H])([H])Oc2c([H])c([H])c3c(c2[H])C([H])([H])N(C(=O)C([H])(N([H])C(=O)C([H])(N([H])C([H])([H])[H])C([H])([H])[H])C(C([H])([H])[H])(C([H])([H])[H])C([H])([H])[H])C([H])(C(=O)N([H])C2([H])c4c([H])c([H])c([H])c([H])c4C([H])([H])C([H])([H])C2([H])[H])C3([H])[H])C([H])(C([H])([H])[H])C([H])([H])[H])c(C([H])([H])[H])nc1N([H])C(=O)N1C([H])([H])C([H])([H])C([H])([H])C([H])(n2nc(-c3c([H])c([H])c(Oc4c([H])c([H])c(F)c([H])c4F)c([H])c3[H])c(C(=O)N([H])[H])c2N([H])[H])C1([H])[H]

$$$$
24:0:0
     RDKit          3D

 94102  0  0  1  0  0  0  0  0999 V2000
  -31.3440  -17.6690   19.3740 C   0  0  0  0  0  3  0  0  0  0  0  0
  -30.1340  -17.4060   20.0780 C   0  0  0  0  0  0  0  0  0  0  0  0
  -30.9860  -19.9500   19.3260 C   0  0  0  0  0  0  0  0  0  0  0  0
  -29.7270  -19.8220   19.9590 C   0  0  0  0  0  0  0  0  0  0  0  0
  -31.7790  -18.9050   19.0310 N   0  0  0  0  0  0  0  0  0  0  0  0
  -29.3160  -18.5290   20.3200 N   0  0  0  0  0  0  0  0  0  0  0  0
  -31.3960  -21.1660   18.8150 N   0  0  0  0  0  0  0  0  0  0  0  0
  -28.8400  -20.9720   19.9860 N   0  0  0  0  0  4  0  0  0  0  0  0
  -30.6010  -21.8010   18.8250 H   0  0  0  0  0  0  0  0  0  0  0  0
  -31.8550  -21.0930   17.9140 H   0  0  0  0  0  0  0  0  0  0  0  0
  -27.8790  -20.6540   19.9930 H   0  0  0  0  0  0  0  0  0  0  0  0
  -30.5790  -14.8030   20.3240 C   0  0  0  0  0  0  0  0  0  0  0  0
  -30.3740  -12.4980   19.3950 C   0  0  0  0  0  2  0  0  0  0  0  0
  -29.4550  -12.5680   18.1560 C   0  0  0  0  0  2  0  0  0  0  0  0
  -27.9800  -12.3970   18.5760 C   0  0  0  0  0  2  0  0  0  0  0  0
  -27.5970  -13.2800   19.7960 C   0  0  0  0  0  3  0  0  0  0  0  0
  -28.6570  -13.2220   20.9170 C   0  0  0  0  0  2  0  0  0  0  0  0
  -29.9460  -13.5760   20.3140 N   0  0  0  0  0  0  0  0  0  0  0  0
  -31.7800  -14.8300   20.0540 O   0  0  0  0  0  0  0  0  0  0  0  0
  -29.8260  -15.9820   20.4450 N   0  0  0  0  0  0  0  0  0  0  0  0
  -28.8900  -15.8440   20.7930 H   0  0  0  0  0  0  0  0  0  0  0  0
  -25.2140  -13.8520   20.5390 C   0  0  0  0  0  0  0  0  0  0  0  0
  -24.1540  -13.0770   20.9160 C   0  0  0  0  0  0  0  0  0  0  0  0
  -24.6220  -11.7250   20.8840 C   0  0  0  0  0  0  0  0  0  0  0  0
  -26.2610  -12.9780   20.2940 N   0  0  0  0  0  0  0  0  0  0  0  0
  -25.9140  -11.6920   20.5660 N   0  0  0  0  0  0  0  0  0  0  0  0
  -23.9000  -10.4620   21.0730 C   0  0  0  0  0  0  0  0  0  0  0  0
  -24.3450   -9.4850   21.9940 C   0  0  0  0  0  3  0  0  0  0  0  0
  -23.6210   -8.2860   22.1720 C   0  0  0  0  0  3  0  0  0  0  0  0
  -22.4390   -8.0540   21.4300 C   0  0  0  0  0  0  0  0  0  0  0  0
  -22.0140   -9.0170   20.4980 C   0  0  0  0  0  3  0  0  0  0  0  0
  -22.7380  -10.2070   20.3180 C   0  0  0  0  0  3  0  0  0  0  0  0
  -21.6850   -6.9090   21.5230 O   0  0  0  0  0  0  0  0  0  0  0  0
  -21.6570   -6.1530   22.6670 C   0  0  0  0  0  0  0  0  0  0  0  0
  -21.2570   -6.6940   23.9080 C   0  0  0  0  0  3  0  0  0  0  0  0
  -21.1740   -5.8630   25.0430 C   0  0  0  0  0  3  0  0  0  0  0  0
  -21.4870   -4.4930   24.9380 C   0  0  0  0  0  0  0  0  0  0  0  0
  -21.8790   -3.9530   23.7010 C   0  0  0  0  0  3  0  0  0  0  0  0
  -21.9610   -4.7800   22.5680 C   0  0  0  0  0  0  0  0  0  0  0  0
  -22.3210   -4.2480   21.3770 F   0  0  0  0  0  0  0  0  0  0  0  0
  -21.4000   -3.6960   26.0280 F   0  0  0  0  0  0  0  0  0  0  0  0
  -22.7560  -13.5480   21.1900 C   0  0  0  0  0  0  0  0  0  0  0  0
  -22.0270  -12.8540   22.0550 N   0  0  0  0  0  0  0  0  0  0  0  0
  -22.3150  -14.5750   20.6700 O   0  0  0  0  0  0  0  0  0  0  0  0
  -22.3920  -12.0270   22.5060 H   0  0  0  0  0  0  0  0  0  0  0  0
  -21.0900  -13.1580   22.2770 H   0  0  0  0  0  0  0  0  0  0  0  0
  -25.3760  -15.2230   20.3560 N   0  0  0  0  0  0  0  0  0  0  0  0
  -24.6060  -15.8770   20.4430 H   0  0  0  0  0  0  0  0  0  0  0  0
  -26.2200  -15.6520   20.0010 H   0  0  0  0  0  0  0  0  0  0  0  0
  -30.0460  -22.3380   21.7850 C   0  0  0  0  0  1  0  0  0  0  0  0
  -28.9300  -22.2990   20.7320 C   0  0  0  0  0  0  0  0  0  0  0  0
  -28.8360  -23.7240   19.9500 C   0  0  0  0  0  3  0  0  0  0  0  0
  -28.1960  -25.0000   20.7230 C   0  0  0  0  0  3  0  0  0  0  0  0
  -28.3870  -26.4260   20.2990 O   0  0  0  0  0  0  0  0  0  0  0  0
  -24.6020  -31.8900   23.2640 C   0  0  0  0  0  0  0  0  0  0  0  0
  -27.2740  -27.2920   20.2880 C   0  0  0  0  0  0  0  0  0  0  0  0
  -23.4300  -30.4710   21.6190 C   0  0  0  0  0  3  0  0  0  0  0  0
  -24.9090  -28.9100   20.2320 C   0  0  0  0  0  0  0  0  0  0  0  0
  -25.9720  -30.7950   21.4700 C   0  0  0  0  0  2  0  0  0  0  0  0
  -26.0700  -29.4040   20.8430 C   0  0  0  0  0  0  0  0  0  0  0  0
  -27.2580  -28.6070   20.8600 C   0  0  0  0  0  3  0  0  0  0  0  0
  -26.0950  -26.8590   19.6480 C   0  0  0  0  0  3  0  0  0  0  0  0
  -24.9260  -27.6460   19.6230 C   0  0  0  0  0  3  0  0  0  0  0  0
  -23.6720  -29.7890   20.2480 C   0  0  0  0  0  2  0  0  0  0  0  0
  -24.6870  -31.0700   22.1760 N   0  0  0  0  0  0  0  0  0  0  0  0
  -23.5070  -32.1710   23.7750 O   0  0  0  0  0  0  0  0  0  0  0  0
  -22.7540  -29.4620   22.5770 C   0  0  0  0  0  0  0  0  0  0  0  0
  -21.4290  -29.2830   22.4360 N   0  0  0  0  0  0  0  0  0  0  0  0
  -23.4210  -28.8410   23.4070 O   0  0  0  0  0  0  0  0  0  0  0  0
  -20.9490  -29.8430   21.7450 H   0  0  0  0  0  0  0  0  0  0  0  0
  -18.0440  -28.0920   22.8980 C   0  0  0  0  0  0  0  0  0  0  0  0
  -20.6000  -28.3520   23.2010 C   0  0  0  0  0  3  0  0  0  0  0  0
  -20.7080  -26.9150   22.6370 C   0  0  0  0  0  2  0  0  0  0  0  0
  -19.6190  -26.5850   21.6110 C   0  0  0  0  0  2  0  0  0  0  0  0
  -18.2270  -26.7380   22.2340 C   0  0  0  0  0  2  0  0  0  0  0  0
  -19.1580  -28.8570   23.3380 C   0  0  0  0  0  0  0  0  0  0  0  0
  -18.9310  -30.1230   23.9170 C   0  0  0  0  0  3  0  0  0  0  0  0
  -17.6250  -30.6260   24.0640 C   0  0  0  0  0  3  0  0  0  0  0  0
  -16.5260  -29.8600   23.6380 C   0  0  0  0  0  3  0  0  0  0  0  0
  -16.7360  -28.5960   23.0610 C   0  0  0  0  0  3  0  0  0  0  0  0
  -25.8700  -32.5370   23.9030 C   0  0  0  0  0  3  0  0  0  0  0  0
  -26.3610  -31.7820   25.1990 C   0  0  1  0  0  0  0  0  0  0  0  0
  -25.2480  -31.5570   26.2490 C   0  0  0  0  0  1  0  0  0  0  0  0
  -26.9510  -30.4020   24.8290 C   0  0  0  0  0  1  0  0  0  0  0  0
  -27.4990  -32.5850   25.8720 C   0  0  0  0  0  1  0  0  0  0  0  0
  -25.5520  -33.9380   24.2100 N   0  0  0  0  0  0  0  0  0  0  0  0
  -25.8970  -34.9820   23.4450 C   0  0  0  0  0  0  0  0  0  0  0  0
  -26.5870  -34.8670   22.4280 O   0  0  0  0  0  0  0  0  0  0  0  0
  -24.9490  -34.1030   25.0030 H   0  0  0  0  0  0  0  0  0  0  0  0
  -24.1760  -36.7690   23.0330 C   0  0  0  0  0  1  0  0  0  0  0  0
  -25.3990  -36.3760   23.8770 C   0  0  0  0  0  3  0  0  0  0  0  0
  -27.5160  -37.2690   24.7450 C   0  0  0  0  0  1  0  0  0  0  0  0
  -26.4340  -37.4290   23.7760 N   0  0  0  0  0  0  0  0  0  0  0  0
  -26.0240  -38.3500   23.9100 H   0  0  0  0  0  0  0  0  0  0  0  0
  1  2  1  0
  2  6  2  0
  2 20  1  0
  3  4  2  0
  4  8  1  0
  4  6  1  0
  5  3  1  0
  5  1  2  0
  7  9  1  0
  7  3  1  0
  8 11  1  0
  8 51  2  3
 10  7  1  0
 12 20  1  0
 13 18  1  0
 14 15  1  0
 14 13  1  0
 16 15  1  0
 16 25  1  0
 16 17  1  0
 18 12  1  0
 18 17  1  0
 19 12  2  0
 20 21  1  0
 22 23  2  0
 23 42  1  0
 24 23  1  0
 24 27  1  0
 25 22  1  0
 25 26  1  0
 26 24  2  0
 27 28  1  0
 28 29  2  0
 30 33  1  0
 30 29  1  0
 31 30  2  0
 32 31  1  0
 32 27  2  0
 33 34  1  0
 34 35  1  0
 35 36  2  0
 37 36  1  0
 37 41  1  0
 38 37  2  0
 39 34  2  0
 39 38  1  0
 40 39  1  0
 42 43  1  0
 43 46  1  0
 43 45  1  0
 44 42  2  0
 47 48  1  0
 47 22  1  0
 49 47  1  0
 51 50  1  0
 52 53  2  0
 52 51  1  0
 54 53  1  0
 55 66  2  0
 56 54  1  0
 56 61  1  0
 57 65  1  0
 57 67  1  0
 58 64  1  0
 58 60  1  0
 59 65  1  0
 60 61  2  0
 60 59  1  0
 62 56  2  0
 63 62  1  0
 63 58  2  0
 64 57  1  0
 65 55  1  0
 67 69  2  0
 68 67  1  0
 70 68  1  0
 71 80  2  0
 71 76  1  0
 72 68  1  0
 72 76  1  0
 73 72  1  0
 74 75  1  0
 74 73  1  0
 75 71  1  0
 76 77  2  0
 77 78  1  0
 79 78  2  0
 80 79  1  0
 81 55  1  0
 81 86  1  0
 81 82  1  0
 82 85  1  1
 82 83  1  0
 84 82  1  0
 86 89  1  0
 87 91  1  0
 87 86  1  0
 88 87  2  0
 91 90  1  0
 93 91  1  0
 93 94  1  0
 93 92  1  0
M  ISO  4  12 100  20 100  53 101  54 101
M  END
>  <TORSDO>  (25) 
F 19

>  <SCORE>  (25) 
-14.316

>  <name>  (25) 
24

>  <ligand_id>  (25) 
24

>  <original_smiles>  (25) 
[H]c1nc(N([H])[H])c(N([H])C([H])(C([H])([H])[H])C([H])([H])C([H])([H])Oc2c([H])c([H])c3c(c2[H])C([H])([H])N(C(=O)C([H])(N([H])C(=O)C([H])(N([H])C([H])([H])[H])C([H])([H])[H])C(C([H])([H])[H])(C([H])([H])[H])C([H])([H])[H])C([H])(C(=O)N([H])C2([H])c4c([H])c([H])c([H])c([H])c4C([H])([H])C([H])([H])C2([H])[H])C3([H])[H])nc1N([H])C(=O)N1C([H])([H])C([H])([H])C([H])([H])C([H])(n2nc(-c3c([H])c([H])c(Oc4c([H])c([H])c(F)c([H])c4F)c([H])c3[H])c(C(=O)N([H])[H])c2N([H])[H])C1([H])[H]

>  <smiles>  (25) 
[H]c1nc(N([H])[H])c(N([H])C([H])(C([H])([H])[H])C([H])([H])C([H])([H])Oc2c([H])c([H])c3c(c2[H])C([H])([H])N(C(=O)C([H])(N([H])C(=O)C([H])(N([H])C([H])([H])[H])C([H])([H])[H])C(C([H])([H])[H])(C([H])([H])[H])C([H])([H])[H])C([H])(C(=O)N([H])C2([H])c4c([H])c([H])c([H])c([H])c4C([H])([H])C([H])([H])C2([H])[H])C3([H])[H])nc1N([H])C(=O)N1C([H])([H])C([H])([H])C([H])([H])C([H])(n2nc(-c3c([H])c([H])c(Oc4c([H])c([H])c(F)c([H])c4F)c([H])c3[H])c(C(=O)N([H])[H])c2N([H])[H])C1([H])[H]

$$$$
25:0:0
     RDKit          3D

 97105  0  0  1  0  0  0  0  0999 V2000
  -27.7820  -20.8560   22.0330 C   0  0  0  0  0  1  0  0  0  0  0  0
  -28.6610  -20.8640   20.7480 C   0  0  0  0  0  3  0  0  0  0  0  0
  -31.1820  -18.1710   21.2930 C   0  0  0  0  0  3  0  0  0  0  0  0
  -29.3880  -19.5010   20.6370 C   0  0  0  0  0  0  0  0  0  0  0  0
  -30.5700  -17.0040   20.7350 C   0  0  0  0  0  0  0  0  0  0  0  0
  -28.7600  -18.3330   20.1070 C   0  0  0  0  0  0  0  0  0  0  0  0
  -30.6120  -19.4060   21.2270 N   0  0  0  0  0  0  0  0  0  0  0  0
  -29.3650  -17.1200   20.1110 N   0  0  0  0  0  0  0  0  0  0  0  0
  -27.4360  -18.3160   19.6700 N   0  0  0  0  0  0  0  0  0  0  0  0
  -26.8030  -19.0290   20.0110 H   0  0  0  0  0  0  0  0  0  0  0  0
  -26.9750  -17.4110   19.6650 H   0  0  0  0  0  0  0  0  0  0  0  0
  -31.4950  -14.7810   20.1270 C   0  0  0  0  0  0  0  0  0  0  0  0
  -31.0300  -12.6220   19.0010 C   0  0  0  0  0  2  0  0  0  0  0  0
  -30.0800  -12.8440   17.8060 C   0  0  0  0  0  2  0  0  0  0  0  0
  -28.6090  -12.7530   18.2560 C   0  0  0  0  0  2  0  0  0  0  0  0
  -28.3220  -13.6110   19.5150 C   0  0  0  0  0  3  0  0  0  0  0  0
  -29.3990  -13.4030   20.6040 C   0  0  0  0  0  2  0  0  0  0  0  0
  -30.7260  -13.6520   20.0130 N   0  0  0  0  0  0  0  0  0  0  0  0
  -32.5650  -14.9000   19.5250 O   0  0  0  0  0  0  0  0  0  0  0  0
  -31.1600  -15.7310   21.0230 N   0  0  0  0  0  0  0  0  0  0  0  0
  -31.9920  -15.9020   21.5700 H   0  0  0  0  0  0  0  0  0  0  0  0
  -25.9490  -14.2880   20.2490 C   0  0  0  0  0  0  0  0  0  0  0  0
  -24.8540  -13.5470   20.6210 C   0  0  0  0  0  0  0  0  0  0  0  0
  -25.2720  -12.1840   20.5910 C   0  0  0  0  0  0  0  0  0  0  0  0
  -26.9640  -13.3730   20.0160 N   0  0  0  0  0  0  0  0  0  0  0  0
  -26.5590  -12.0980   20.2770 N   0  0  0  0  0  0  0  0  0  0  0  0
  -24.5020  -10.9450   20.7920 C   0  0  0  0  0  0  0  0  0  0  0  0
  -24.8430  -10.0090   21.7940 C   0  0  0  0  0  3  0  0  0  0  0  0
  -24.0630   -8.8460   21.9770 C   0  0  0  0  0  3  0  0  0  0  0  0
  -22.9320   -8.6140   21.1630 C   0  0  0  0  0  0  0  0  0  0  0  0
  -22.6090   -9.5370   20.1540 C   0  0  0  0  0  3  0  0  0  0  0  0
  -23.3930  -10.6880   19.9660 C   0  0  0  0  0  3  0  0  0  0  0  0
  -22.1360   -7.4980   21.2450 O   0  0  0  0  0  0  0  0  0  0  0  0
  -21.8860   -6.8850   22.4460 C   0  0  0  0  0  0  0  0  0  0  0  0
  -21.2920   -7.5700   23.5270 C   0  0  0  0  0  3  0  0  0  0  0  0
  -21.0000   -6.8810   24.7210 C   0  0  0  0  0  3  0  0  0  0  0  0
  -21.2900   -5.5080   24.8280 C   0  0  0  0  0  0  0  0  0  0  0  0
  -21.8810   -4.8240   23.7530 C   0  0  0  0  0  3  0  0  0  0  0  0
  -22.1760   -5.5100   22.5640 C   0  0  0  0  0  0  0  0  0  0  0  0
  -22.7260   -4.8420   21.5240 F   0  0  0  0  0  0  0  0  0  0  0  0
  -21.0040   -4.8440   25.9750 F   0  0  0  0  0  0  0  0  0  0  0  0
  -23.4850  -14.0850   20.9250 C   0  0  0  0  0  0  0  0  0  0  0  0
  -22.7660  -13.4360   21.8380 N   0  0  0  0  0  0  0  0  0  0  0  0
  -23.0650  -15.1130   20.3980 O   0  0  0  0  0  0  0  0  0  0  0  0
  -23.1360  -12.6260   22.3080 H   0  0  0  0  0  0  0  0  0  0  0  0
  -21.8460  -13.7690   22.0920 H   0  0  0  0  0  0  0  0  0  0  0  0
  -26.1390  -15.6550   20.0850 N   0  0  0  0  0  0  0  0  0  0  0  0
  -25.3340  -16.2760   20.0300 H   0  0  0  0  0  0  0  0  0  0  0  0
  -27.0070  -16.0760   19.7610 H   0  0  0  0  0  0  0  0  0  0  0  0
  -29.5950  -22.0240   20.6100 N   0  0  0  0  0  4  0  0  0  0  0  0
  -30.4650  -21.7360   21.0300 H   0  0  0  0  0  0  0  0  0  0  0  0
  -29.7770  -22.1330   19.6250 H   0  0  0  0  0  0  0  0  0  0  0  0
  -29.8590  -23.5020   22.5650 C   0  0  0  0  0  1  0  0  0  0  0  0
  -29.1800  -23.3480   21.1790 C   0  0  0  0  0  3  0  0  0  0  0  0
  -29.4300  -24.5710   20.2320 C   0  0  0  0  0  2  0  0  0  0  0  0
  -28.8090  -25.8830   20.7990 C   0  0  0  0  0  2  0  0  0  0  0  0
  -28.8160  -27.0260   19.9290 O   0  0  0  0  0  0  0  0  0  0  0  0
  -24.7110  -31.8180   23.2890 C   0  0  0  0  0  0  0  0  0  0  0  0
  -27.6350  -27.7320   19.9700 C   0  0  0  0  0  0  0  0  0  0  0  0
  -23.6170  -30.4620   21.5440 C   0  0  0  0  0  3  0  0  0  0  0  0
  -25.1710  -29.1010   20.0570 C   0  0  0  0  0  0  0  0  0  0  0  0
  -26.1250  -30.9630   21.4210 C   0  0  0  0  0  2  0  0  0  0  0  0
  -26.2940  -29.6440   20.6910 C   0  0  0  0  0  0  0  0  0  0  0  0
  -27.5370  -28.9700   20.6420 C   0  0  0  0  0  3  0  0  0  0  0  0
  -26.5020  -27.1990   19.3250 C   0  0  0  0  0  3  0  0  0  0  0  0
  -25.2680  -27.8770   19.3700 C   0  0  0  0  0  3  0  0  0  0  0  0
  -23.8860  -29.8930   20.1300 C   0  0  0  0  0  2  0  0  0  0  0  0
  -24.8360  -31.0920   22.1440 N   0  0  0  0  0  0  0  0  0  0  0  0
  -23.6040  -32.0030   23.8180 O   0  0  0  0  0  0  0  0  0  0  0  0
  -23.0070  -29.3480   22.4240 C   0  0  0  0  0  0  0  0  0  0  0  0
  -21.6970  -29.1070   22.2510 N   0  0  0  0  0  0  0  0  0  0  0  0
  -23.7040  -28.7180   23.2240 O   0  0  0  0  0  0  0  0  0  0  0  0
  -21.1970  -29.6660   21.5750 H   0  0  0  0  0  0  0  0  0  0  0  0
  -18.3740  -27.7230   22.5850 C   0  0  0  0  0  0  0  0  0  0  0  0
  -20.9080  -28.0860   22.9420 C   0  0  0  0  0  3  0  0  0  0  0  0
  -21.0990  -26.7030   22.2850 C   0  0  0  0  0  2  0  0  0  0  0  0
  -20.0420  -26.3880   21.2230 C   0  0  0  0  0  2  0  0  0  0  0  0
  -18.6370  -26.4260   21.8360 C   0  0  0  0  0  2  0  0  0  0  0  0
  -19.4440  -28.5070   23.0890 C   0  0  0  0  0  0  0  0  0  0  0  0
  -19.1520  -29.7170   23.7530 C   0  0  0  0  0  3  0  0  0  0  0  0
  -17.8220  -30.1490   23.9130 C   0  0  0  0  0  3  0  0  0  0  0  0
  -16.7640  -29.3600   23.4280 C   0  0  0  0  0  3  0  0  0  0  0  0
  -17.0420  -28.1470   22.7710 C   0  0  0  0  0  3  0  0  0  0  0  0
  -25.9490  -32.4800   23.9670 C   0  0  0  0  0  3  0  0  0  0  0  0
  -25.5820  -33.8650   24.2850 N   0  0  0  0  0  0  0  0  0  0  0  0
  -25.9330  -34.9350   23.5570 C   0  0  0  0  0  0  0  0  0  0  0  0
  -26.6680  -34.8590   22.5680 O   0  0  0  0  0  0  0  0  0  0  0  0
  -24.9240  -33.9940   25.0410 H   0  0  0  0  0  0  0  0  0  0  0  0
  -24.1820  -36.6860   23.1340 C   0  0  0  0  0  1  0  0  0  0  0  0
  -25.3900  -36.3040   24.0030 C   0  0  0  0  0  3  0  0  0  0  0  0
  -27.4570  -37.2440   24.9460 C   0  0  0  0  0  1  0  0  0  0  0  0
  -26.3970  -37.3850   23.9510 N   0  0  0  0  0  0  0  0  0  0  0  0
  -25.9600  -38.2950   24.0760 H   0  0  0  0  0  0  0  0  0  0  0  0
  -26.4370  -31.7090   25.2570 C   0  0  1  0  0  0  0  0  0  0  0  0
  -25.3070  -31.4290   26.2720 C   0  0  0  0  0  1  0  0  0  0  0  0
  -27.0730  -30.3520   24.8790 C   0  0  0  0  0  1  0  0  0  0  0  0
  -27.5310  -32.5340   25.9810 C   0  0  0  0  0  1  0  0  0  0  0  0
  2  1  1  0
  4  2  1  0
  4  7  2  0
  5 20  1  0
  5  3  2  0
  6  8  2  0
  6  4  1  0
  7  3  1  0
  8  5  1  0
  9 10  1  0
  9  6  1  0
 11  9  1  0
 12 20  1  0
 13 18  1  0
 14 15  1  0
 14 13  1  0
 16 15  1  0
 16 25  1  0
 16 17  1  0
 18 12  1  0
 18 17  1  0
 19 12  2  0
 20 21  1  0
 22 23  2  0
 23 42  1  0
 24 23  1  0
 24 27  1  0
 25 22  1  0
 25 26  1  0
 26 24  2  0
 27 28  1  0
 28 29  2  0
 30 33  1  0
 30 29  1  0
 31 30  2  0
 32 31  1  0
 32 27  2  0
 33 34  1  0
 34 39  2  0
 34 35  1  0
 35 36  2  0
 36 37  1  0
 37 41  1  0
 38 37  2  0
 39 38  1  0
 40 39  1  0
 42 43  1  0
 43 46  1  0
 43 45  1  0
 44 42  2  0
 47 22  1  0
 48 47  1  0
 49 47  1  0
 50  2  1  0
 50 51  1  0
 50 54  1  0
 52 50  1  0
 54 53  1  0
 55 56  1  0
 55 54  1  0
 57 59  1  0
 57 56  1  0
 58 69  2  0
 59 64  1  0
 60 68  1  0
 60 70  1  0
 61 67  1  0
 61 63  1  0
 62 68  1  0
 63 62  1  0
 64 63  2  0
 65 66  1  0
 65 59  2  0
 66 61  2  0
 67 60  1  0
 68 58  1  0
 70 72  2  0
 71 70  1  0
 73 71  1  0
 74 83  2  0
 74 79  1  0
 75 71  1  0
 75 79  1  0
 76 75  1  0
 77 78  1  0
 77 76  1  0
 78 74  1  0
 79 80  2  0
 80 81  1  0
 82 81  2  0
 83 82  1  0
 84 58  1  0
 84 85  1  0
 84 94  1  0
 85 88  1  0
 86 90  1  0
 86 85  1  0
 87 86  2  0
 90 89  1  0
 92 90  1  0
 92 93  1  0
 92 91  1  0
 94 97  1  1
 94 95  1  0
 96 94  1  0
M  ISO  4  12 100  20 100  56 101  57 101
M  END
>  <TORSDO>  (26) 
F 21

>  <SCORE>  (26) 
-11.045

>  <name>  (26) 
25

>  <ligand_id>  (26) 
25

>  <original_smiles>  (26) 
[H]c1nc(C([H])(C([H])([H])[H])[N+]([H])([H])C([H])(C([H])([H])[H])C([H])([H])C([H])([H])Oc2c([H])c([H])c3c(c2[H])C([H])([H])N(C(=O)C([H])(N([H])C(=O)C([H])(N([H])C([H])([H])[H])C([H])([H])[H])C(C([H])([H])[H])(C([H])([H])[H])C([H])([H])[H])C([H])(C(=O)N([H])C2([H])c4c([H])c([H])c([H])c([H])c4C([H])([H])C([H])([H])C2([H])[H])C3([H])[H])c(N([H])[H])nc1N([H])C(=O)N1C([H])([H])C([H])([H])C([H])([H])C([H])(n2nc(-c3c([H])c([H])c(Oc4c([H])c([H])c(F)c([H])c4F)c([H])c3[H])c(C(=O)N([H])[H])c2N([H])[H])C1([H])[H]

>  <smiles>  (26) 
[H]c1nc(C([H])(C([H])([H])[H])[N+]([H])([H])C([H])(C([H])([H])[H])C([H])([H])C([H])([H])Oc2c([H])c([H])c3c(c2[H])C([H])([H])N(C(=O)C([H])(N([H])C(=O)C([H])(N([H])C([H])([H])[H])C([H])([H])[H])C(C([H])([H])[H])(C([H])([H])[H])C([H])([H])[H])C([H])(C(=O)N([H])C2([H])c4c([H])c([H])c([H])c([H])c4C([H])([H])C([H])([H])C2([H])[H])C3([H])[H])c(N([H])[H])nc1N([H])C(=O)N1C([H])([H])C([H])([H])C([H])([H])C([H])(n2nc(-c3c([H])c([H])c(Oc4c([H])c([H])c(F)c([H])c4F)c([H])c3[H])c(C(=O)N([H])[H])c2N([H])[H])C1([H])[H]

$$$$
26:0:0
     RDKit          3D

 91 99  0  0  1  0  0  0  0  0999 V2000
  -29.2390  -21.7760   20.4420 C   0  0  0  0  0  0  0  0  0  0  0  0
  -30.0440  -20.6870   20.3410 N   0  0  0  0  0  0  0  0  0  0  0  0
  -28.0090  -21.7080   20.5190 O   0  0  0  0  0  0  0  0  0  0  0  0
  -31.0240  -20.8910   20.1930 H   0  0  0  0  0  0  0  0  0  0  0  0
  -30.6430  -14.5450   20.2090 C   0  0  0  0  0  0  0  0  0  0  0  0
  -30.3870  -12.3970   18.9990 C   0  0  0  0  0  2  0  0  0  0  0  0
  -29.3980  -12.6230   17.8340 C   0  0  0  0  0  2  0  0  0  0  0  0
  -27.9340  -12.4680   18.3020 C   0  0  0  0  0  2  0  0  0  0  0  0
  -27.6360  -13.2630   19.6010 C   0  0  0  0  0  3  0  0  0  0  0  0
  -28.7220  -12.9760   20.6640 C   0  0  0  0  0  2  0  0  0  0  0  0
  -30.0320  -13.3320   20.0790 N   0  0  0  0  0  0  0  0  0  0  0  0
  -31.7380  -14.8050   19.6970 O   0  0  0  0  0  0  0  0  0  0  0  0
  -28.5510  -18.7900   20.9240 C   0  0  0  0  0  3  0  0  0  0  0  0
  -29.7310  -19.3580   20.4870 C   0  0  0  0  0  0  0  0  0  0  0  0
  -29.7490  -16.8550   20.7160 C   0  0  0  0  0  0  0  0  0  0  0  0
  -28.5790  -17.3930   21.0600 N   0  0  0  0  0  0  0  0  0  0  0  0
  -29.8930  -15.4460   20.8750 N   0  0  0  0  0  0  0  0  0  0  0  0
  -30.9140  -18.0730   20.1720 S   0  0  0  0  0  0  0  0  0  0  0  0
  -29.0970  -15.0150   21.3150 H   0  0  0  0  0  0  0  0  0  0  0  0
  -25.2470  -13.8670   20.3530 C   0  0  0  0  0  0  0  0  0  0  0  0
  -24.1910  -13.0900   20.7510 C   0  0  0  0  0  0  0  0  0  0  0  0
  -24.6600  -11.7420   20.7220 C   0  0  0  0  0  0  0  0  0  0  0  0
  -26.2930  -12.9890   20.1080 N   0  0  0  0  0  0  0  0  0  0  0  0
  -25.9440  -11.7070   20.3860 N   0  0  0  0  0  0  0  0  0  0  0  0
  -23.9480  -10.4760   20.9420 C   0  0  0  0  0  0  0  0  0  0  0  0
  -24.4050   -9.5250   21.8810 C   0  0  0  0  0  3  0  0  0  0  0  0
  -23.6930   -8.3220   22.0850 C   0  0  0  0  0  3  0  0  0  0  0  0
  -22.5120   -8.0630   21.3500 C   0  0  0  0  0  0  0  0  0  0  0  0
  -22.0760   -9.0030   20.4000 C   0  0  0  0  0  3  0  0  0  0  0  0
  -22.7870  -10.1960   20.1940 C   0  0  0  0  0  3  0  0  0  0  0  0
  -21.7720   -6.9110   21.4620 O   0  0  0  0  0  0  0  0  0  0  0  0
  -21.7370   -6.1890   22.6280 C   0  0  0  0  0  0  0  0  0  0  0  0
  -21.3140   -6.7630   23.8470 C   0  0  0  0  0  3  0  0  0  0  0  0
  -21.2270   -5.9670   25.0070 C   0  0  0  0  0  3  0  0  0  0  0  0
  -21.5530   -4.5980   24.9480 C   0  0  0  0  0  0  0  0  0  0  0  0
  -21.9700   -4.0250   23.7340 C   0  0  0  0  0  3  0  0  0  0  0  0
  -22.0590   -4.8190   22.5760 C   0  0  0  0  0  0  0  0  0  0  0  0
  -22.4420   -4.2560   21.4050 F   0  0  0  0  0  0  0  0  0  0  0  0
  -21.4610   -3.8310   26.0600 F   0  0  0  0  0  0  0  0  0  0  0  0
  -22.7960  -13.5610   21.0500 C   0  0  0  0  0  0  0  0  0  0  0  0
  -22.0930  -12.8690   21.9410 N   0  0  0  0  0  0  0  0  0  0  0  0
  -22.3380  -14.5780   20.5300 O   0  0  0  0  0  0  0  0  0  0  0  0
  -22.4730  -12.0480   22.3880 H   0  0  0  0  0  0  0  0  0  0  0  0
  -21.1570  -13.1670   22.1800 H   0  0  0  0  0  0  0  0  0  0  0  0
  -25.3990  -15.2370   20.1630 N   0  0  0  0  0  0  0  0  0  0  0  0
  -24.6370  -15.8910   20.3100 H   0  0  0  0  0  0  0  0  0  0  0  0
  -26.2570  -15.6910   19.8740 H   0  0  0  0  0  0  0  0  0  0  0  0
  -29.9200  -23.1650   20.4610 C   0  0  0  0  0  2  0  0  0  0  0  0
  -29.1980  -24.3520   19.7380 C   0  0  0  0  0  2  0  0  0  0  0  0
  -28.4260  -25.3620   20.6380 C   0  0  0  0  0  2  0  0  0  0  0  0
  -28.4600  -26.7110   20.1150 O   0  0  0  0  0  0  0  0  0  0  0  0
  -24.6300  -31.8900   23.2170 C   0  0  0  0  0  0  0  0  0  0  0  0
  -27.2860  -27.4390   20.1440 C   0  0  0  0  0  0  0  0  0  0  0  0
  -23.4260  -30.4820   21.5790 C   0  0  0  0  0  3  0  0  0  0  0  0
  -24.8840  -28.9450   20.1540 C   0  0  0  0  0  0  0  0  0  0  0  0
  -25.9510  -30.8490   21.3730 C   0  0  0  0  0  2  0  0  0  0  0  0
  -26.0430  -29.4750   20.7360 C   0  0  0  0  0  0  0  0  0  0  0  0
  -27.2480  -28.7320   20.7190 C   0  0  0  0  0  3  0  0  0  0  0  0
  -26.1100  -26.9260   19.5560 C   0  0  0  0  0  3  0  0  0  0  0  0
  -24.9130  -27.6710   19.5600 C   0  0  0  0  0  3  0  0  0  0  0  0
  -23.6360  -29.8000   20.2000 C   0  0  0  0  0  2  0  0  0  0  0  0
  -24.6870  -31.0900   22.1150 N   0  0  0  0  0  0  0  0  0  0  0  0
  -23.5480  -32.1570   23.7600 O   0  0  0  0  0  0  0  0  0  0  0  0
  -22.7810  -29.4590   22.5410 C   0  0  0  0  0  0  0  0  0  0  0  0
  -21.4550  -29.2770   22.4240 N   0  0  0  0  0  0  0  0  0  0  0  0
  -23.4710  -28.8320   23.3500 O   0  0  0  0  0  0  0  0  0  0  0  0
  -20.9600  -29.8360   21.7420 H   0  0  0  0  0  0  0  0  0  0  0  0
  -18.0840  -28.0860   22.9440 C   0  0  0  0  0  0  0  0  0  0  0  0
  -20.6450  -28.3370   23.1960 C   0  0  0  0  0  3  0  0  0  0  0  0
  -20.7390  -26.9090   22.6100 C   0  0  0  0  0  2  0  0  0  0  0  0
  -19.6280  -26.5940   21.6040 C   0  0  0  0  0  2  0  0  0  0  0  0
  -18.2520  -26.7390   22.2600 C   0  0  0  0  0  2  0  0  0  0  0  0
  -19.2080  -28.8430   23.3700 C   0  0  0  0  0  0  0  0  0  0  0  0
  -18.9970  -30.1040   23.9690 C   0  0  0  0  0  3  0  0  0  0  0  0
  -17.6950  -30.6070   24.1470 C   0  0  0  0  0  3  0  0  0  0  0  0
  -16.5850  -29.8470   23.7370 C   0  0  0  0  0  3  0  0  0  0  0  0
  -16.7810  -28.5880   23.1430 C   0  0  0  0  0  3  0  0  0  0  0  0
  -25.9140  -32.5260   23.8350 C   0  0  0  0  0  3  0  0  0  0  0  0
  -26.4440  -31.7510   25.1040 C   0  0  1  0  0  0  0  0  0  0  0  0
  -25.3600  -31.5020   26.1790 C   0  0  0  0  0  1  0  0  0  0  0  0
  -27.0340  -30.3790   24.7000 C   0  0  0  0  0  1  0  0  0  0  0  0
  -27.5940  -32.5500   25.7630 C   0  0  0  0  0  1  0  0  0  0  0  0
  -25.5980  -33.9210   24.1720 N   0  0  0  0  0  0  0  0  0  0  0  0
  -25.9190  -34.9780   23.4150 C   0  0  0  0  0  0  0  0  0  0  0  0
  -26.5830  -34.8820   22.3800 O   0  0  0  0  0  0  0  0  0  0  0  0
  -25.0050  -34.0680   24.9760 H   0  0  0  0  0  0  0  0  0  0  0  0
  -24.1740  -36.7580   23.0780 C   0  0  0  0  0  1  0  0  0  0  0  0
  -25.4240  -36.3610   23.8810 C   0  0  0  0  0  3  0  0  0  0  0  0
  -27.5570  -37.2590   24.6990 C   0  0  0  0  0  1  0  0  0  0  0  0
  -26.4480  -37.4220   23.7630 N   0  0  0  0  0  0  0  0  0  0  0  0
  -26.0350  -38.3390   23.9170 H   0  0  0  0  0  0  0  0  0  0  0  0
  1 48  1  0
  1  3  2  0
  2  1  1  0
  2 14  1  0
  4  2  1  0
  5 17  1  0
  6 11  1  0
  7  8  1  0
  7  6  1  0
  9  8  1  0
  9 23  1  0
  9 10  1  0
 11  5  1  0
 11 10  1  0
 12  5  2  0
 13 16  1  0
 14 13  2  0
 15 17  1  0
 15 16  2  0
 17 19  1  0
 18 14  1  0
 18 15  1  0
 20 21  2  0
 21 40  1  0
 22 21  1  0
 22 25  1  0
 23 20  1  0
 23 24  1  0
 24 22  2  0
 25 26  1  0
 26 27  2  0
 28 31  1  0
 28 27  1  0
 29 28  2  0
 30 29  1  0
 30 25  2  0
 31 32  1  0
 32 33  1  0
 33 34  2  0
 35 34  1  0
 35 39  1  0
 36 35  2  0
 37 32  2  0
 37 36  1  0
 38 37  1  0
 40 41  1  0
 41 44  1  0
 41 43  1  0
 42 40  2  0
 45 46  1  0
 45 20  1  0
 47 45  1  0
 49 48  1  0
 49 50  1  0
 51 53  1  0
 51 50  1  0
 52 63  2  0
 53 58  1  0
 54 62  1  0
 54 64  1  0
 55 61  1  0
 55 57  1  0
 56 62  1  0
 57 56  1  0
 58 57  2  0
 59 60  1  0
 59 53  2  0
 60 55  2  0
 61 54  1  0
 62 52  1  0
 64 66  2  0
 65 64  1  0
 67 65  1  0
 68 77  2  0
 68 73  1  0
 69 65  1  0
 69 73  1  0
 70 69  1  0
 71 72  1  0
 71 70  1  0
 72 68  1  0
 73 74  2  0
 74 75  1  0
 76 75  2  0
 77 76  1  0
 78 52  1  0
 78 83  1  0
 78 79  1  0
 79 82  1  1
 79 80  1  0
 81 79  1  0
 83 86  1  0
 84 88  1  0
 84 83  1  0
 85 84  2  0
 88 87  1  0
 90 88  1  0
 90 91  1  0
 90 89  1  0
M  ISO  4   5 100  17 100  50 101  51 101
M  END
>  <TORSDO>  (27) 
F 19

>  <SCORE>  (27) 
-13.749

>  <name>  (27) 
26

>  <ligand_id>  (27) 
26

>  <original_smiles>  (27) 
[H]c1nc(N([H])C(=O)N2C([H])([H])C([H])([H])C([H])([H])C([H])(n3nc(-c4c([H])c([H])c(Oc5c([H])c([H])c(F)c([H])c5F)c([H])c4[H])c(C(=O)N([H])[H])c3N([H])[H])C2([H])[H])sc1N([H])C(=O)C([H])([H])C([H])([H])C([H])([H])Oc1c([H])c([H])c2c(c1[H])C([H])([H])N(C(=O)C([H])(N([H])C(=O)C([H])(N([H])C([H])([H])[H])C([H])([H])[H])C(C([H])([H])[H])(C([H])([H])[H])C([H])([H])[H])C([H])(C(=O)N([H])C1([H])c3c([H])c([H])c([H])c([H])c3C([H])([H])C([H])([H])C1([H])[H])C2([H])[H]

>  <smiles>  (27) 
[H]c1nc(N([H])C(=O)N2C([H])([H])C([H])([H])C([H])([H])C([H])(n3nc(-c4c([H])c([H])c(Oc5c([H])c([H])c(F)c([H])c5F)c([H])c4[H])c(C(=O)N([H])[H])c3N([H])[H])C2([H])[H])sc1N([H])C(=O)C([H])([H])C([H])([H])C([H])([H])Oc1c([H])c([H])c2c(c1[H])C([H])([H])N(C(=O)C([H])(N([H])C(=O)C([H])(N([H])C([H])([H])[H])C([H])([H])[H])C(C([H])([H])[H])(C([H])([H])[H])C([H])([H])[H])C([H])(C(=O)N([H])C1([H])c3c([H])c([H])c([H])c([H])c3C([H])([H])C([H])([H])C1([H])[H])C2([H])[H]

$$$$
27:0:0
     RDKit          3D

 94102  0  0  1  0  0  0  0  0999 V2000
  -27.7180  -19.9230   18.9820 C   0  0  0  0  0  3  0  0  0  0  0  0
  -28.4370  -18.7820   19.3800 C   0  0  0  0  0  0  0  0  0  0  0  0
  -29.3630  -18.9250   20.4360 C   0  0  0  0  0  0  0  0  0  0  0  0
  -28.8400  -21.2900   20.4200 C   0  0  0  0  0  0  0  0  0  0  0  0
  -27.9070  -21.1550   19.5010 N   0  0  0  0  0  0  0  0  0  0  0  0
  -29.5630  -20.2320   20.9130 N   0  0  0  0  0  0  0  0  0  0  0  0
  -29.0950  -22.6500   20.7890 N   0  0  0  0  0  0  0  0  0  0  0  0
  -29.8800  -22.7410   21.4260 H   0  0  0  0  0  0  0  0  0  0  0  0
  -28.2050  -17.4740   18.6530 C   0  0  1  0  0  0  0  0  0  0  0  0
  -27.5050  -16.6950   19.4630 F   0  0  0  0  0  0  0  0  0  0  0  0
  -27.5060  -17.6350   17.5310 F   0  0  0  0  0  0  0  0  0  0  0  0
  -29.3540  -16.8820   18.3400 F   0  0  0  0  0  0  0  0  0  0  0  0
  -30.2560  -17.6820   20.9710 C   0  0  0  0  0  2  0  0  0  0  0  0
  -30.6080  -15.0450   20.8930 C   0  0  0  0  0  0  0  0  0  0  0  0
  -30.5620  -12.7230   19.9490 C   0  0  0  0  0  2  0  0  0  0  0  0
  -29.7230  -12.6940   18.6520 C   0  0  0  0  0  2  0  0  0  0  0  0
  -28.2400  -12.4510   18.9850 C   0  0  0  0  0  2  0  0  0  0  0  0
  -27.7310  -13.3750   20.1220 C   0  0  0  0  0  3  0  0  0  0  0  0
  -28.6950  -13.4020   21.3260 C   0  0  0  0  0  2  0  0  0  0  0  0
  -30.0170  -13.7970   20.8170 N   0  0  0  0  0  0  0  0  0  0  0  0
  -31.8150  -15.1440   20.6560 O   0  0  0  0  0  0  0  0  0  0  0  0
  -29.8260  -16.1950   21.0350 N   0  0  0  0  0  0  0  0  0  0  0  0
  -28.8490  -16.0430   21.2400 H   0  0  0  0  0  0  0  0  0  0  0  0
  -25.2800  -13.9170   20.6550 C   0  0  0  0  0  0  0  0  0  0  0  0
  -24.2080  -13.1240   20.9560 C   0  0  0  0  0  0  0  0  0  0  0  0
  -24.7080  -11.7870   20.9910 C   0  0  0  0  0  0  0  0  0  0  0  0
  -26.3620  -13.0610   20.5150 N   0  0  0  0  0  0  0  0  0  0  0  0
  -26.0190  -11.7770   20.7820 N   0  0  0  0  0  0  0  0  0  0  0  0
  -24.0030  -10.5110   21.1460 C   0  0  0  0  0  0  0  0  0  0  0  0
  -24.3880   -9.5650   22.1220 C   0  0  0  0  0  3  0  0  0  0  0  0
  -23.6780   -8.3530   22.2620 C   0  0  0  0  0  3  0  0  0  0  0  0
  -22.5710   -8.0800   21.4240 C   0  0  0  0  0  0  0  0  0  0  0  0
  -22.2050   -9.0140   20.4400 C   0  0  0  0  0  3  0  0  0  0  0  0
  -22.9150  -10.2180   20.2990 C   0  0  0  0  0  3  0  0  0  0  0  0
  -21.8370   -6.9190   21.4740 O   0  0  0  0  0  0  0  0  0  0  0  0
  -21.7190   -6.1920   22.6310 C   0  0  0  0  0  0  0  0  0  0  0  0
  -21.1830   -6.7500   23.8120 C   0  0  0  0  0  3  0  0  0  0  0  0
  -21.0180   -5.9470   24.9580 C   0  0  0  0  0  3  0  0  0  0  0  0
  -21.3770   -4.5860   24.9240 C   0  0  0  0  0  0  0  0  0  0  0  0
  -21.9080   -4.0280   23.7480 C   0  0  0  0  0  3  0  0  0  0  0  0
  -22.0730   -4.8280   22.6030 C   0  0  0  0  0  0  0  0  0  0  0  0
  -22.5630   -4.2770   21.4660 F   0  0  0  0  0  0  0  0  0  0  0  0
  -21.2110   -3.8130   26.0220 F   0  0  0  0  0  0  0  0  0  0  0  0
  -22.7830  -13.5740   21.0990 C   0  0  0  0  0  0  0  0  0  0  0  0
  -21.9970  -12.8860   21.9210 N   0  0  0  0  0  0  0  0  0  0  0  0
  -22.3680  -14.5760   20.5200 O   0  0  0  0  0  0  0  0  0  0  0  0
  -22.3340  -12.0770   22.4210 H   0  0  0  0  0  0  0  0  0  0  0  0
  -21.0390  -13.1780   22.0500 H   0  0  0  0  0  0  0  0  0  0  0  0
  -25.4070  -15.2850   20.4680 N   0  0  0  0  0  0  0  0  0  0  0  0
  -24.6090  -15.9070   20.4980 H   0  0  0  0  0  0  0  0  0  0  0  0
  -26.2520  -15.7430   20.1410 H   0  0  0  0  0  0  0  0  0  0  0  0
  -28.1540  -23.8570   20.8290 C   0  0  0  0  0  2  0  0  0  0  0  0
  -28.3780  -25.1520   19.8750 C   0  0  0  0  0  2  0  0  0  0  0  0
  -28.2650  -26.5760   20.3600 O   0  0  0  0  0  0  0  0  0  0  0  0
  -24.5270  -32.0380   23.3000 C   0  0  0  0  0  0  0  0  0  0  0  0
  -27.1250  -27.4110   20.2720 C   0  0  0  0  0  0  0  0  0  0  0  0
  -23.3170  -30.6350   21.6670 C   0  0  0  0  0  3  0  0  0  0  0  0
  -24.7630  -29.0600   20.2470 C   0  0  0  0  0  0  0  0  0  0  0  0
  -25.8580  -30.9320   21.4830 C   0  0  0  0  0  2  0  0  0  0  0  0
  -25.9320  -29.5430   20.8460 C   0  0  0  0  0  0  0  0  0  0  0  0
  -27.1080  -28.7290   20.8480 C   0  0  0  0  0  3  0  0  0  0  0  0
  -25.9300  -26.9900   19.6450 C   0  0  0  0  0  3  0  0  0  0  0  0
  -24.7690  -27.7960   19.6360 C   0  0  0  0  0  3  0  0  0  0  0  0
  -23.5300  -29.9470   20.2900 C   0  0  0  0  0  2  0  0  0  0  0  0
  -24.5870  -31.2200   22.2070 N   0  0  0  0  0  0  0  0  0  0  0  0
  -23.4460  -32.3270   23.8340 O   0  0  0  0  0  0  0  0  0  0  0  0
  -22.6480  -29.6310   22.6380 C   0  0  0  0  0  0  0  0  0  0  0  0
  -21.3240  -29.4430   22.5010 N   0  0  0  0  0  0  0  0  0  0  0  0
  -23.3210  -29.0240   23.4750 O   0  0  0  0  0  0  0  0  0  0  0  0
  -20.8390  -29.9850   21.7990 H   0  0  0  0  0  0  0  0  0  0  0  0
  -17.9520  -28.2240   22.9790 C   0  0  0  0  0  0  0  0  0  0  0  0
  -20.5030  -28.5110   23.2770 C   0  0  0  0  0  3  0  0  0  0  0  0
  -20.6240  -27.0700   22.7290 C   0  0  0  0  0  2  0  0  0  0  0  0
  -19.5400  -26.7230   21.7040 C   0  0  0  0  0  2  0  0  0  0  0  0
  -18.1490  -26.8650   22.3280 C   0  0  0  0  0  2  0  0  0  0  0  0
  -19.0570  -29.0040   23.4100 C   0  0  0  0  0  0  0  0  0  0  0  0
  -18.8170  -30.2740   23.9790 C   0  0  0  0  0  3  0  0  0  0  0  0
  -17.5060  -30.7650   24.1180 C   0  0  0  0  0  3  0  0  0  0  0  0
  -16.4140  -29.9830   23.7030 C   0  0  0  0  0  3  0  0  0  0  0  0
  -16.6380  -28.7130   23.1390 C   0  0  0  0  0  3  0  0  0  0  0  0
  -25.8140  -32.6710   23.9160 C   0  0  0  0  0  3  0  0  0  0  0  0
  -26.3190  -31.9170   25.2070 C   0  0  1  0  0  0  0  0  0  0  0  0
  -25.2200  -31.7020   26.2740 C   0  0  0  0  0  1  0  0  0  0  0  0
  -26.8920  -30.5280   24.8400 C   0  0  0  0  0  1  0  0  0  0  0  0
  -27.4740  -32.7100   25.8610 C   0  0  0  0  0  1  0  0  0  0  0  0
  -25.5150  -34.0790   24.2240 N   0  0  0  0  0  0  0  0  0  0  0  0
  -25.8720  -35.1180   23.4580 C   0  0  0  0  0  0  0  0  0  0  0  0
  -26.5530  -34.9930   22.4380 O   0  0  0  0  0  0  0  0  0  0  0  0
  -24.9100  -34.2480   25.0140 H   0  0  0  0  0  0  0  0  0  0  0  0
  -24.1750  -36.9310   23.0530 C   0  0  0  0  0  1  0  0  0  0  0  0
  -25.3960  -36.5190   23.8910 C   0  0  0  0  0  3  0  0  0  0  0  0
  -27.5270  -37.3810   24.7550 C   0  0  0  0  0  1  0  0  0  0  0  0
  -26.4450  -37.5560   23.7890 N   0  0  0  0  0  0  0  0  0  0  0  0
  -26.0490  -38.4830   23.9240 H   0  0  0  0  0  0  0  0  0  0  0  0
  1  2  2  0
  1  5  1  0
  2  3  1  0
  3  6  2  0
  3 13  1  0
  4  7  1  0
  4  6  1  0
  5  4  2  0
  7 52  1  0
  7  8  1  0
  9  2  1  0
  9 10  1  1
 11  9  1  0
 12  9  1  0
 13 22  1  0
 14 22  1  0
 15 20  1  0
 16 17  1  0
 16 15  1  0
 18 17  1  0
 18 27  1  0
 18 19  1  0
 20 14  1  0
 20 19  1  0
 21 14  2  0
 22 23  1  0
 24 25  2  0
 25 26  1  0
 25 44  1  0
 26 29  1  0
 27 24  1  0
 27 28  1  0
 28 26  2  0
 29 30  1  0
 30 31  2  0
 32 35  1  0
 32 31  1  0
 33 32  2  0
 34 33  1  0
 34 29  2  0
 35 36  1  0
 36 37  1  0
 37 38  2  0
 39 38  1  0
 39 43  1  0
 40 39  2  0
 41 36  2  0
 41 40  1  0
 42 41  1  0
 44 45  1  0
 45 48  1  0
 45 47  1  0
 46 44  2  0
 49 50  1  0
 49 24  1  0
 51 49  1  0
 53 54  1  0
 53 52  1  0
 55 66  2  0
 56 54  1  0
 56 61  1  0
 57 65  1  0
 57 67  1  0
 58 64  1  0
 58 60  1  0
 59 65  1  0
 60 61  2  0
 60 59  1  0
 62 56  2  0
 63 62  1  0
 63 58  2  0
 64 57  1  0
 65 55  1  0
 67 69  2  0
 68 67  1  0
 70 68  1  0
 71 80  2  0
 71 76  1  0
 72 68  1  0
 72 76  1  0
 73 72  1  0
 74 75  1  0
 74 73  1  0
 75 71  1  0
 76 77  2  0
 77 78  1  0
 79 78  2  0
 80 79  1  0
 81 55  1  0
 81 86  1  0
 81 82  1  0
 82 85  1  1
 82 83  1  0
 84 82  1  0
 86 89  1  0
 87 91  1  0
 87 86  1  0
 88 87  2  0
 91 90  1  0
 93 91  1  0
 93 94  1  0
 93 92  1  0
M  ISO  4  14 100  22 100  53 101  54 101
M  END
>  <TORSDO>  (28) 
F 20

>  <SCORE>  (28) 
-13.943

>  <name>  (28) 
27

>  <ligand_id>  (28) 
27

>  <original_smiles>  (28) 
[H]c1nc(N([H])C([H])([H])C([H])([H])Oc2c([H])c([H])c3c(c2[H])C([H])([H])N(C(=O)C([H])(N([H])C(=O)C([H])(N([H])C([H])([H])[H])C([H])([H])[H])C(C([H])([H])[H])(C([H])([H])[H])C([H])([H])[H])C([H])(C(=O)N([H])C2([H])c4c([H])c([H])c([H])c([H])c4C([H])([H])C([H])([H])C2([H])[H])C3([H])[H])nc(C([H])([H])N([H])C(=O)N2C([H])([H])C([H])([H])C([H])([H])C([H])(n3nc(-c4c([H])c([H])c(Oc5c([H])c([H])c(F)c([H])c5F)c([H])c4[H])c(C(=O)N([H])[H])c3N([H])[H])C2([H])[H])c1C(F)(F)F

>  <smiles>  (28) 
[H]c1nc(N([H])C([H])([H])C([H])([H])Oc2c([H])c([H])c3c(c2[H])C([H])([H])N(C(=O)C([H])(N([H])C(=O)C([H])(N([H])C([H])([H])[H])C([H])([H])[H])C(C([H])([H])[H])(C([H])([H])[H])C([H])([H])[H])C([H])(C(=O)N([H])C2([H])c4c([H])c([H])c([H])c([H])c4C([H])([H])C([H])([H])C2([H])[H])C3([H])[H])nc(C([H])([H])N([H])C(=O)N2C([H])([H])C([H])([H])C([H])([H])C([H])(n3nc(-c4c([H])c([H])c(Oc5c([H])c([H])c(F)c([H])c5F)c([H])c4[H])c(C(=O)N([H])[H])c3N([H])[H])C2([H])[H])c1C(F)(F)F

$$$$
28:0:0
     RDKit          3D

100108  0  0  1  0  0  0  0  0999 V2000
  -30.2800  -21.8910   20.7250 C   0  0  0  0  0  3  0  0  0  0  0  0
  -29.6960  -20.9600   19.7390 N   0  0  0  0  0  0  0  0  0  0  0  0
  -29.8580  -21.2740   18.7880 H   0  0  0  0  0  0  0  0  0  0  0  0
  -30.6500  -14.5830   20.1610 C   0  0  0  0  0  0  0  0  0  0  0  0
  -30.3270  -12.3800   19.0860 C   0  0  0  0  0  2  0  0  0  0  0  0
  -29.3600  -12.5760   17.8990 C   0  0  0  0  0  2  0  0  0  0  0  0
  -27.9040  -12.4230   18.3730 C   0  0  0  0  0  2  0  0  0  0  0  0
  -27.5910  -13.2660   19.6390 C   0  0  0  0  0  3  0  0  0  0  0  0
  -28.6790  -13.0800   20.7170 C   0  0  0  0  0  2  0  0  0  0  0  0
  -29.9850  -13.3870   20.1090 N   0  0  0  0  0  0  0  0  0  0  0  0
  -31.7950  -14.6980   19.7110 O   0  0  0  0  0  0  0  0  0  0  0  0
  -30.4510  -18.8010   18.7160 C   0  0  0  0  0  0  0  0  0  0  0  0
  -29.9440  -19.5550   19.7620 C   0  0  0  0  0  0  0  0  0  0  0  0
  -30.0780  -17.0530   20.1820 C   0  0  0  0  0  0  0  0  0  0  0  0
  -30.5080  -17.4120   18.9630 N   0  0  0  0  0  0  0  0  0  0  0  0
  -29.9550  -15.6670   20.6050 N   0  0  0  0  0  0  0  0  0  0  0  0
  -29.5370  -18.4800   21.1140 S   0  0  0  0  0  0  0  0  0  0  0  0
  -29.1610  -15.4610   21.1860 H   0  0  0  0  0  0  0  0  0  0  0  0
  -25.2140  -13.8590   20.4240 C   0  0  0  0  0  0  0  0  0  0  0  0
  -24.1590  -13.0830   20.8180 C   0  0  0  0  0  0  0  0  0  0  0  0
  -24.6210  -11.7330   20.7680 C   0  0  0  0  0  0  0  0  0  0  0  0
  -26.2550  -12.9820   20.1590 N   0  0  0  0  0  0  0  0  0  0  0  0
  -25.9030  -11.6970   20.4220 N   0  0  0  0  0  0  0  0  0  0  0  0
  -23.9000  -10.4690   20.9700 C   0  0  0  0  0  0  0  0  0  0  0  0
  -24.3450   -9.5080   21.9040 C   0  0  0  0  0  3  0  0  0  0  0  0
  -23.6240   -8.3100   22.0970 C   0  0  0  0  0  3  0  0  0  0  0  0
  -22.4450   -8.0620   21.3560 C   0  0  0  0  0  0  0  0  0  0  0  0
  -22.0180   -9.0110   20.4100 C   0  0  0  0  0  3  0  0  0  0  0  0
  -22.7380  -10.2030   20.2160 C   0  0  0  0  0  3  0  0  0  0  0  0
  -21.6990   -6.9120   21.4530 O   0  0  0  0  0  0  0  0  0  0  0  0
  -21.6530   -6.1800   22.6110 C   0  0  0  0  0  0  0  0  0  0  0  0
  -21.2130   -6.7450   23.8280 C   0  0  0  0  0  3  0  0  0  0  0  0
  -21.1120   -5.9400   24.9810 C   0  0  0  0  0  3  0  0  0  0  0  0
  -21.4340   -4.5720   24.9170 C   0  0  0  0  0  0  0  0  0  0  0  0
  -21.8710   -4.0080   23.7050 C   0  0  0  0  0  3  0  0  0  0  0  0
  -21.9730   -4.8100   22.5550 C   0  0  0  0  0  0  0  0  0  0  0  0
  -22.3700   -4.2550   21.3860 F   0  0  0  0  0  0  0  0  0  0  0  0
  -21.3290   -3.7980   26.0220 F   0  0  0  0  0  0  0  0  0  0  0  0
  -22.7700  -13.5610   21.1270 C   0  0  0  0  0  0  0  0  0  0  0  0
  -22.0650  -12.8650   22.0090 N   0  0  0  0  0  0  0  0  0  0  0  0
  -22.3240  -14.5920   20.6270 O   0  0  0  0  0  0  0  0  0  0  0  0
  -22.4430  -12.0360   22.4480 H   0  0  0  0  0  0  0  0  0  0  0  0
  -21.1380  -13.1770   22.2560 H   0  0  0  0  0  0  0  0  0  0  0  0
  -25.3700  -15.2320   20.2510 N   0  0  0  0  0  0  0  0  0  0  0  0
  -24.5890  -15.8730   20.3330 H   0  0  0  0  0  0  0  0  0  0  0  0
  -26.2050  -15.6720   19.8870 H   0  0  0  0  0  0  0  0  0  0  0  0
  -29.7340  -19.8820   16.5200 C   0  0  0  0  0  1  0  0  0  0  0  0
  -30.8920  -19.3180   17.3690 C   0  0  0  0  0  2  0  0  0  0  0  0
  -31.8350  -21.7780   20.7220 C   0  0  0  0  0  2  0  0  0  0  0  0
  -32.1250  -20.8480   23.0870 C   0  0  0  0  0  1  0  0  0  0  0  0
  -34.0060  -20.7060   21.4150 C   0  0  0  0  0  1  0  0  0  0  0  0
  -32.4780  -20.6850   21.5980 C   0  0  0  0  0  3  0  0  0  0  0  0
  -29.9220  -23.4100   20.4460 C   0  0  0  0  0  2  0  0  0  0  0  0
  -28.4860  -23.9450   20.7500 C   0  0  0  0  0  3  0  0  0  0  0  0
  -27.5300  -23.5550   19.6900 N   0  0  0  0  0  4  0  0  0  0  0  0
  -27.7290  -24.0210   18.8240 H   0  0  0  0  0  0  0  0  0  0  0  0
  -26.5800  -23.7470   19.9580 H   0  0  0  0  0  0  0  0  0  0  0  0
  -27.6030  -22.5630   19.5320 H   0  0  0  0  0  0  0  0  0  0  0  0
  -28.3550  -25.4650   21.1910 C   0  0  0  0  0  2  0  0  0  0  0  0
  -28.4220  -26.5530   20.2160 O   0  0  0  0  0  0  0  0  0  0  0  0
  -24.6170  -31.8730   23.2070 C   0  0  0  0  0  0  0  0  0  0  0  0
  -27.3040  -27.3760   20.1880 C   0  0  0  0  0  0  0  0  0  0  0  0
  -23.4390  -30.4610   21.5550 C   0  0  0  0  0  3  0  0  0  0  0  0
  -24.9200  -28.9230   20.1500 C   0  0  0  0  0  0  0  0  0  0  0  0
  -25.9710  -30.8180   21.3860 C   0  0  0  0  0  2  0  0  0  0  0  0
  -26.0740  -29.4380   20.7560 C   0  0  0  0  0  0  0  0  0  0  0  0
  -27.2700  -28.6750   20.7720 C   0  0  0  0  0  3  0  0  0  0  0  0
  -26.1340  -26.8970   19.5600 C   0  0  0  0  0  3  0  0  0  0  0  0
  -24.9490  -27.6570   19.5420 C   0  0  0  0  0  3  0  0  0  0  0  0
  -23.6720  -29.7800   20.1810 C   0  0  0  0  0  2  0  0  0  0  0  0
  -24.6960  -31.0660   22.1100 N   0  0  0  0  0  0  0  0  0  0  0  0
  -23.5280  -32.1430   23.7300 O   0  0  0  0  0  0  0  0  0  0  0  0
  -22.7750  -29.4410   22.5100 C   0  0  0  0  0  0  0  0  0  0  0  0
  -21.4500  -29.2650   22.3720 N   0  0  0  0  0  0  0  0  0  0  0  0
  -23.4500  -28.8110   23.3260 O   0  0  0  0  0  0  0  0  0  0  0  0
  -20.9720  -29.8290   21.6840 H   0  0  0  0  0  0  0  0  0  0  0  0
  -18.0620  -28.0900   22.8570 C   0  0  0  0  0  0  0  0  0  0  0  0
  -20.6230  -28.3270   23.1320 C   0  0  0  0  0  3  0  0  0  0  0  0
  -20.7130  -26.9000   22.5420 C   0  0  0  0  0  2  0  0  0  0  0  0
  -19.6100  -26.5980   21.5240 C   0  0  0  0  0  2  0  0  0  0  0  0
  -18.2290  -26.7450   22.1700 C   0  0  0  0  0  2  0  0  0  0  0  0
  -19.1850  -28.8400   23.2940 C   0  0  0  0  0  0  0  0  0  0  0  0
  -18.9770  -30.1000   23.8980 C   0  0  0  0  0  3  0  0  0  0  0  0
  -17.6760  -30.6090   24.0680 C   0  0  0  0  0  3  0  0  0  0  0  0
  -16.5670  -29.8560   23.6470 C   0  0  0  0  0  3  0  0  0  0  0  0
  -16.7600  -28.5990   23.0470 C   0  0  0  0  0  3  0  0  0  0  0  0
  -25.8900  -32.5110   23.8440 C   0  0  0  0  0  3  0  0  0  0  0  0
  -26.3980  -31.7390   25.1230 C   0  0  1  0  0  0  0  0  0  0  0  0
  -25.2950  -31.4910   26.1800 C   0  0  0  0  0  1  0  0  0  0  0  0
  -26.9910  -30.3660   24.7290 C   0  0  0  0  0  1  0  0  0  0  0  0
  -27.5450  -32.5320   25.7930 C   0  0  0  0  0  1  0  0  0  0  0  0
  -25.5710  -33.9090   24.1710 N   0  0  0  0  0  0  0  0  0  0  0  0
  -25.9100  -34.9630   23.4150 C   0  0  0  0  0  0  0  0  0  0  0  0
  -26.5950  -34.8610   22.3940 O   0  0  0  0  0  0  0  0  0  0  0  0
  -24.9670  -34.0630   24.9660 H   0  0  0  0  0  0  0  0  0  0  0  0
  -24.1860  -36.7500   23.0230 C   0  0  0  0  0  1  0  0  0  0  0  0
  -25.4090  -36.3510   23.8630 C   0  0  0  0  0  3  0  0  0  0  0  0
  -27.5250  -37.2340   24.7410 C   0  0  0  0  0  1  0  0  0  0  0  0
  -26.4430  -37.4050   23.7750 N   0  0  0  0  0  0  0  0  0  0  0  0
  -26.0330  -38.3240   23.9180 H   0  0  0  0  0  0  0  0  0  0  0  0
  1 53  1  0
  2 13  1  0
  2  1  1  0
  3  2  1  0
  4 16  1  0
  5 10  1  0
  6  7  1  0
  6  5  1  0
  8  7  1  0
  8 22  1  0
  8  9  1  0
 10  4  1  0
 10  9  1  0
 11  4  2  0
 12 15  1  0
 12 13  2  0
 13 17  1  0
 14 16  1  0
 14 17  1  0
 15 14  2  0
 16 18  1  0
 19 20  2  0
 20 39  1  0
 21 20  1  0
 21 24  1  0
 22 23  1  0
 22 19  1  0
 23 21  2  0
 24 25  1  0
 25 26  2  0
 27 30  1  0
 27 26  1  0
 28 27  2  0
 29 28  1  0
 29 24  2  0
 30 31  1  0
 31 32  1  0
 32 33  2  0
 34 33  1  0
 34 38  1  0
 35 34  2  0
 36 31  2  0
 36 35  1  0
 37 36  1  0
 39 40  1  0
 40 43  1  0
 40 42  1  0
 41 39  2  0
 44 45  1  0
 44 19  1  0
 46 44  1  0
 47 48  1  0
 48 12  1  0
 49  1  1  0
 49 52  1  0
 51 52  1  0
 52 50  1  0
 54 53  1  0
 54 59  1  0
 55 57  1  0
 55 54  1  0
 56 55  1  0
 58 55  1  0
 60 59  1  0
 61 72  2  0
 62 60  1  0
 62 67  1  0
 63 71  1  0
 63 73  1  0
 64 70  1  0
 64 66  1  0
 65 71  1  0
 66 67  2  0
 66 65  1  0
 68 62  2  0
 69 68  1  0
 69 64  2  0
 70 63  1  0
 71 61  1  0
 73 75  2  0
 74 73  1  0
 76 74  1  0
 77 86  2  0
 77 82  1  0
 78 74  1  0
 78 82  1  0
 79 78  1  0
 80 81  1  0
 80 79  1  0
 81 77  1  0
 82 83  2  0
 83 84  1  0
 85 84  2  0
 86 85  1  0
 87 61  1  0
 87 92  1  0
 87 88  1  0
 88 91  1  1
 88 89  1  0
 90 88  1  0
 92 95  1  0
 93 97  1  0
 93 92  1  0
 94 93  2  0
 97 96  1  0
 99 97  1  0
 99100  1  0
 99 98  1  0
M  ISO  4   4 100  16 100  59 101  60 101
M  END
>  <TORSDO>  (29) 
F 24

>  <SCORE>  (29) 
-12.931

>  <name>  (29) 
28

>  <ligand_id>  (29) 
28

>  <original_smiles>  (29) 
[H]c1c([H])c([H])c2c(c1[H])C([H])([H])C([H])([H])C([H])([H])C2([H])N([H])C(=O)C1([H])N(C(=O)C([H])(N([H])C(=O)C([H])(N([H])C([H])([H])[H])C([H])([H])[H])C(C([H])([H])[H])(C([H])([H])[H])C([H])([H])[H])C([H])([H])c2c([H])c(OC([H])([H])C([H])(C([H])([H])C([H])(N([H])c3sc(N([H])C(=O)N4C([H])([H])C([H])([H])C([H])([H])C([H])(n5nc(-c6c([H])c([H])c(Oc7c([H])c([H])c(F)c([H])c7F)c([H])c6[H])c(C(=O)N([H])[H])c5N([H])[H])C4([H])[H])nc3C([H])([H])C([H])([H])[H])C([H])([H])C([H])(C([H])([H])[H])C([H])([H])[H])[N+]([H])([H])[H])c([H])c([H])c2C1([H])[H]

>  <smiles>  (29) 
[H]c1c([H])c([H])c2c(c1[H])C([H])([H])C([H])([H])C([H])([H])C2([H])N([H])C(=O)C1([H])N(C(=O)C([H])(N([H])C(=O)C([H])(N([H])C([H])([H])[H])C([H])([H])[H])C(C([H])([H])[H])(C([H])([H])[H])C([H])([H])[H])C([H])([H])c2c([H])c(OC([H])([H])C([H])(C([H])([H])C([H])(N([H])c3sc(N([H])C(=O)N4C([H])([H])C([H])([H])C([H])([H])C([H])(n5nc(-c6c([H])c([H])c(Oc7c([H])c([H])c(F)c([H])c7F)c([H])c6[H])c(C(=O)N([H])[H])c5N([H])[H])C4([H])[H])nc3C([H])([H])C([H])([H])[H])C([H])([H])C([H])(C([H])([H])[H])C([H])([H])[H])[N+]([H])([H])[H])c([H])c([H])c2C1([H])[H]

$$$$
29:0:0
     RDKit          3D

 96104  0  0  1  0  0  0  0  0999 V2000
  -30.2280  -21.8890   18.6160 C   0  0  0  0  0  1  0  0  0  0  0  0
  -30.0700  -21.6340   20.1230 C   0  0  0  0  0  3  0  0  0  0  0  0
  -28.8160  -18.0400   20.3820 C   0  0  0  0  0  3  0  0  0  0  0  0
  -30.0260  -20.0590   20.3840 C   0  0  0  0  0  0  0  0  0  0  0  0
  -29.9650  -17.2200   20.6100 C   0  0  0  0  0  0  0  0  0  0  0  0
  -31.1900  -19.2420   20.6230 C   0  0  0  0  0  0  0  0  0  0  0  0
  -28.8350  -19.4100   20.2630 N   0  0  0  0  0  0  0  0  0  0  0  0
  -31.1560  -17.8760   20.7290 N   0  0  0  0  0  0  0  0  0  0  0  0
  -32.4750  -19.7560   20.7510 N   0  0  0  0  0  0  0  0  0  0  0  0
  -32.6120  -20.7410   20.9440 H   0  0  0  0  0  0  0  0  0  0  0  0
  -33.1550  -19.1670   21.2210 H   0  0  0  0  0  0  0  0  0  0  0  0
  -30.5730  -14.6870   20.4940 C   0  0  0  0  0  0  0  0  0  0  0  0
  -30.3780  -12.4310   19.4570 C   0  0  0  0  0  2  0  0  0  0  0  0
  -29.4530  -12.5540   18.2270 C   0  0  0  0  0  2  0  0  0  0  0  0
  -27.9750  -12.3970   18.6350 C   0  0  0  0  0  2  0  0  0  0  0  0
  -27.5960  -13.2680   19.8640 C   0  0  0  0  0  3  0  0  0  0  0  0
  -28.6380  -13.1280   20.9950 C   0  0  0  0  0  2  0  0  0  0  0  0
  -29.9530  -13.4630   20.4290 N   0  0  0  0  0  0  0  0  0  0  0  0
  -31.7520  -14.8090   20.1460 O   0  0  0  0  0  0  0  0  0  0  0  0
  -29.7650  -15.7700   20.7470 N   0  0  0  0  0  0  0  0  0  0  0  0
  -28.8150  -15.5080   20.9520 H   0  0  0  0  0  0  0  0  0  0  0  0
  -25.1950  -13.8790   20.5410 C   0  0  0  0  0  0  0  0  0  0  0  0
  -24.1200  -13.1080   20.9030 C   0  0  0  0  0  0  0  0  0  0  0  0
  -24.5790  -11.7590   20.8870 C   0  0  0  0  0  0  0  0  0  0  0  0
  -26.2390  -12.9930   20.3320 N   0  0  0  0  0  0  0  0  0  0  0  0
  -25.8760  -11.7140   20.6010 N   0  0  0  0  0  0  0  0  0  0  0  0
  -23.8450  -10.4990   21.0780 C   0  0  0  0  0  0  0  0  0  0  0  0
  -24.2700   -9.5280   22.0120 C   0  0  0  0  0  3  0  0  0  0  0  0
  -23.5330   -8.3380   22.1930 C   0  0  0  0  0  3  0  0  0  0  0  0
  -22.3560   -8.1090   21.4380 C   0  0  0  0  0  0  0  0  0  0  0  0
  -21.9510   -9.0690   20.4940 C   0  0  0  0  0  3  0  0  0  0  0  0
  -22.6900  -10.2510   20.3130 C   0  0  0  0  0  3  0  0  0  0  0  0
  -21.5910   -6.9720   21.5250 O   0  0  0  0  0  0  0  0  0  0  0  0
  -21.5500   -6.2190   22.6700 C   0  0  0  0  0  0  0  0  0  0  0  0
  -21.1550   -6.7710   23.9090 C   0  0  0  0  0  3  0  0  0  0  0  0
  -21.0620   -5.9490   25.0480 C   0  0  0  0  0  3  0  0  0  0  0  0
  -21.3510   -4.5730   24.9500 C   0  0  0  0  0  0  0  0  0  0  0  0
  -21.7370   -4.0210   23.7140 C   0  0  0  0  0  3  0  0  0  0  0  0
  -21.8320   -4.8420   22.5780 C   0  0  0  0  0  0  0  0  0  0  0  0
  -22.1850   -4.3010   21.3860 F   0  0  0  0  0  0  0  0  0  0  0  0
  -21.2490   -3.7780   26.0400 F   0  0  0  0  0  0  0  0  0  0  0  0
  -22.7220  -13.5920   21.1480 C   0  0  0  0  0  0  0  0  0  0  0  0
  -21.9800  -12.9040   22.0120 N   0  0  0  0  0  0  0  0  0  0  0  0
  -22.2940  -14.6150   20.6150 O   0  0  0  0  0  0  0  0  0  0  0  0
  -22.3440  -12.0780   22.4640 H   0  0  0  0  0  0  0  0  0  0  0  0
  -21.0390  -13.2060   22.2200 H   0  0  0  0  0  0  0  0  0  0  0  0
  -25.3540  -15.2470   20.3510 N   0  0  0  0  0  0  0  0  0  0  0  0
  -24.5630  -15.8770   20.4220 H   0  0  0  0  0  0  0  0  0  0  0  0
  -26.1820  -15.6910   19.9750 H   0  0  0  0  0  0  0  0  0  0  0  0
  -28.9140  -22.4910   20.6220 N   0  0  0  0  0  4  0  0  0  0  0  0
  -28.6620  -22.0820   21.5080 H   0  0  0  0  0  0  0  0  0  0  0  0
  -28.1320  -22.3260   20.0090 H   0  0  0  0  0  0  0  0  0  0  0  0
  -28.6590  -24.2780   22.3430 C   0  0  0  0  0  1  0  0  0  0  0  0
  -29.0810  -24.0020   20.8710 C   0  0  0  0  0  3  0  0  0  0  0  0
  -28.2420  -25.0050   19.9280 C   0  0  0  0  0  2  0  0  0  0  0  0
  -28.3610  -26.4770   20.1740 O   0  0  0  0  0  0  0  0  0  0  0  0
  -24.6300  -31.8690   23.2060 C   0  0  0  0  0  0  0  0  0  0  0  0
  -27.2330  -27.3220   20.1060 C   0  0  0  0  0  0  0  0  0  0  0  0
  -23.4140  -30.4720   21.5770 C   0  0  0  0  0  3  0  0  0  0  0  0
  -24.8550  -28.9280   20.1290 C   0  0  0  0  0  0  0  0  0  0  0  0
  -25.9480  -30.8000   21.3600 C   0  0  0  0  0  2  0  0  0  0  0  0
  -26.0260  -29.4180   20.7200 C   0  0  0  0  0  0  0  0  0  0  0  0
  -27.2140  -28.6230   20.7050 C   0  0  0  0  0  3  0  0  0  0  0  0
  -26.0480  -26.9100   19.4530 C   0  0  0  0  0  3  0  0  0  0  0  0
  -24.8700  -27.6850   19.4810 C   0  0  0  0  0  3  0  0  0  0  0  0
  -23.6150  -29.7980   20.1920 C   0  0  0  0  0  2  0  0  0  0  0  0
  -24.6840  -31.0650   22.1040 N   0  0  0  0  0  0  0  0  0  0  0  0
  -23.5550  -32.1350   23.7610 O   0  0  0  0  0  0  0  0  0  0  0  0
  -22.7650  -29.4510   22.5400 C   0  0  0  0  0  0  0  0  0  0  0  0
  -21.4370  -29.2760   22.4280 N   0  0  0  0  0  0  0  0  0  0  0  0
  -23.4530  -28.8200   23.3460 O   0  0  0  0  0  0  0  0  0  0  0  0
  -20.9490  -29.8380   21.7470 H   0  0  0  0  0  0  0  0  0  0  0  0
  -18.0620  -28.0790   22.9530 C   0  0  0  0  0  0  0  0  0  0  0  0
  -20.6230  -28.3400   23.2050 C   0  0  0  0  0  3  0  0  0  0  0  0
  -20.7210  -26.9070   22.6340 C   0  0  0  0  0  2  0  0  0  0  0  0
  -19.6090  -26.5810   21.6290 C   0  0  0  0  0  2  0  0  0  0  0  0
  -18.2320  -26.7270   22.2820 C   0  0  0  0  0  2  0  0  0  0  0  0
  -19.1840  -28.8410   23.3750 C   0  0  0  0  0  0  0  0  0  0  0  0
  -18.9700  -30.1060   23.9650 C   0  0  0  0  0  3  0  0  0  0  0  0
  -17.6660  -30.6020   24.1470 C   0  0  0  0  0  3  0  0  0  0  0  0
  -16.5580  -29.8370   23.7430 C   0  0  0  0  0  3  0  0  0  0  0  0
  -16.7580  -28.5800   23.1450 C   0  0  0  0  0  3  0  0  0  0  0  0
  -25.9180  -32.5050   23.8120 C   0  0  0  0  0  3  0  0  0  0  0  0
  -26.4530  -31.7220   25.0740 C   0  0  1  0  0  0  0  0  0  0  0  0
  -25.3800  -31.4670   26.1580 C   0  0  0  0  0  1  0  0  0  0  0  0
  -27.0350  -30.3490   24.6620 C   0  0  0  0  0  1  0  0  0  0  0  0
  -27.6030  -32.5190   25.7320 C   0  0  0  0  0  1  0  0  0  0  0  0
  -25.6020  -33.8980   24.1580 N   0  0  0  0  0  0  0  0  0  0  0  0
  -25.9230  -34.9600   23.4080 C   0  0  0  0  0  0  0  0  0  0  0  0
  -26.5850  -34.8700   22.3700 O   0  0  0  0  0  0  0  0  0  0  0  0
  -24.9980  -34.0340   24.9550 H   0  0  0  0  0  0  0  0  0  0  0  0
  -24.1770  -36.7500   23.1010 C   0  0  0  0  0  1  0  0  0  0  0  0
  -25.4340  -36.3410   23.8860 C   0  0  0  0  0  3  0  0  0  0  0  0
  -27.5780  -37.2330   24.6850 C   0  0  0  0  0  1  0  0  0  0  0  0
  -26.4560  -37.4060   23.7670 N   0  0  0  0  0  0  0  0  0  0  0  0
  -26.0450  -38.3200   23.9360 H   0  0  0  0  0  0  0  0  0  0  0  0
  2  1  1  0
  2  4  1  0
  2 50  1  0
  3  5  1  0
  4  6  2  0
  5  8  2  0
  5 20  1  0
  6  8  1  0
  6  9  1  0
  7  3  2  0
  7  4  1  0
  9 10  1  0
  9 11  1  0
 12 20  1  0
 13 18  1  0
 14 15  1  0
 14 13  1  0
 16 15  1  0
 16 25  1  0
 16 17  1  0
 18 12  1  0
 18 17  1  0
 19 12  2  0
 20 21  1  0
 22 23  2  0
 23 42  1  0
 24 23  1  0
 24 27  1  0
 25 22  1  0
 25 26  1  0
 26 24  2  0
 27 28  1  0
 28 29  2  0
 30 33  1  0
 30 29  1  0
 31 30  2  0
 32 31  1  0
 32 27  2  0
 33 34  1  0
 34 35  1  0
 35 36  2  0
 37 36  1  0
 37 41  1  0
 38 37  2  0
 39 34  2  0
 39 38  1  0
 40 39  1  0
 42 43  1  0
 43 46  1  0
 43 45  1  0
 44 42  2  0
 47 48  1  0
 47 22  1  0
 49 47  1  0
 50 54  1  0
 50 51  1  0
 52 50  1  0
 54 53  1  0
 55 56  1  0
 55 54  1  0
 57 68  2  0
 58 56  1  0
 58 63  1  0
 59 67  1  0
 59 69  1  0
 60 66  1  0
 60 62  1  0
 61 67  1  0
 62 61  1  0
 63 62  2  0
 64 65  1  0
 64 58  2  0
 65 60  2  0
 66 59  1  0
 67 57  1  0
 69 71  2  0
 70 69  1  0
 72 70  1  0
 73 82  2  0
 73 78  1  0
 74 70  1  0
 74 78  1  0
 75 74  1  0
 76 77  1  0
 76 75  1  0
 77 73  1  0
 78 79  2  0
 79 80  1  0
 81 80  2  0
 82 81  1  0
 83 57  1  0
 83 88  1  0
 83 84  1  0
 84 87  1  1
 84 85  1  0
 86 84  1  0
 88 91  1  0
 89 93  1  0
 89 88  1  0
 90 89  2  0
 93 92  1  0
 95 93  1  0
 95 96  1  0
 95 94  1  0
M  ISO  4  12 100  20 100  55 101  56 101
M  END
>  <TORSDO>  (30) 
F 20

>  <SCORE>  (30) 
-13.951

>  <name>  (30) 
29

>  <ligand_id>  (30) 
29

>  <original_smiles>  (30) 
[H]c1nc(C([H])(C([H])([H])[H])[N+]([H])([H])C([H])(C([H])([H])[H])C([H])([H])Oc2c([H])c([H])c3c(c2[H])C([H])([H])N(C(=O)C([H])(N([H])C(=O)C([H])(N([H])C([H])([H])[H])C([H])([H])[H])C(C([H])([H])[H])(C([H])([H])[H])C([H])([H])[H])C([H])(C(=O)N([H])C2([H])c4c([H])c([H])c([H])c([H])c4C([H])([H])C([H])([H])C2([H])[H])C3([H])[H])c(N([H])[H])nc1N([H])C(=O)N1C([H])([H])C([H])([H])C([H])([H])C([H])(n2nc(-c3c([H])c([H])c(Oc4c([H])c([H])c(F)c([H])c4F)c([H])c3[H])c(C(=O)N([H])[H])c2N([H])[H])C1([H])[H]

>  <smiles>  (30) 
[H]c1nc(C([H])(C([H])([H])[H])[N+]([H])([H])C([H])(C([H])([H])[H])C([H])([H])Oc2c([H])c([H])c3c(c2[H])C([H])([H])N(C(=O)C([H])(N([H])C(=O)C([H])(N([H])C([H])([H])[H])C([H])([H])[H])C(C([H])([H])[H])(C([H])([H])[H])C([H])([H])[H])C([H])(C(=O)N([H])C2([H])c4c([H])c([H])c([H])c([H])c4C([H])([H])C([H])([H])C2([H])[H])C3([H])[H])c(N([H])[H])nc1N([H])C(=O)N1C([H])([H])C([H])([H])C([H])([H])C([H])(n2nc(-c3c([H])c([H])c(Oc4c([H])c([H])c(F)c([H])c4F)c([H])c3[H])c(C(=O)N([H])[H])c2N([H])[H])C1([H])[H]

$$$$
30:0:0
     RDKit          3D

 95103  0  0  1  0  0  0  0  0999 V2000
  -30.6440  -14.6790   20.4200 C   0  0  0  0  0  0  0  0  0  0  0  0
  -30.4810  -12.3670   19.5090 C   0  0  0  0  0  2  0  0  0  0  0  0
  -29.5770  -12.4010   18.2570 C   0  0  0  0  0  2  0  0  0  0  0  0
  -28.0910  -12.2640   18.6460 C   0  0  0  0  0  2  0  0  0  0  0  0
  -27.6850  -13.2100   19.8080 C   0  0  0  0  0  3  0  0  0  0  0  0
  -28.7080  -13.1380   20.9650 C   0  0  0  0  0  2  0  0  0  0  0  0
  -30.0360  -13.4490   20.4100 N   0  0  0  0  0  0  0  0  0  0  0  0
  -31.8200  -14.8090   20.0660 O   0  0  0  0  0  0  0  0  0  0  0  0
  -28.6500  -19.2980   20.4480 C   0  0  0  0  0  3  0  0  0  0  0  0
  -28.6980  -17.8910   20.6790 C   0  0  0  0  0  0  0  0  0  0  0  0
  -29.8330  -19.9670   20.0480 C   0  0  0  0  0  0  0  0  0  0  0  0
  -29.9120  -17.1750   20.4620 C   0  0  0  0  0  0  0  0  0  0  0  0
  -30.9690  -19.2290   19.8770 N   0  0  0  0  0  0  0  0  0  0  0  0
  -31.0090  -17.8850   20.0610 N   0  0  0  0  0  0  0  0  0  0  0  0
  -29.8220  -15.7390   20.6800 N   0  0  0  0  0  0  0  0  0  0  0  0
  -29.9490  -21.3790   19.8380 N   0  0  0  0  0  0  0  0  0  0  0  0
  -28.8850  -15.4720   20.9310 H   0  0  0  0  0  0  0  0  0  0  0  0
  -30.8810  -21.7260   19.6390 H   0  0  0  0  0  0  0  0  0  0  0  0
  -25.2790  -13.8500   20.4480 C   0  0  0  0  0  0  0  0  0  0  0  0
  -24.1930  -13.0970   20.8000 C   0  0  0  0  0  0  0  0  0  0  0  0
  -24.6390  -11.7400   20.8090 C   0  0  0  0  0  0  0  0  0  0  0  0
  -26.3210  -12.9540   20.2650 N   0  0  0  0  0  0  0  0  0  0  0  0
  -25.9380  -11.6800   20.5400 N   0  0  0  0  0  0  0  0  0  0  0  0
  -23.8900  -10.4930   21.0030 C   0  0  0  0  0  0  0  0  0  0  0  0
  -24.3030   -9.5210   21.9410 C   0  0  0  0  0  3  0  0  0  0  0  0
  -23.5550   -8.3380   22.1220 C   0  0  0  0  0  3  0  0  0  0  0  0
  -22.3800   -8.1180   21.3660 C   0  0  0  0  0  0  0  0  0  0  0  0
  -21.9860   -9.0780   20.4170 C   0  0  0  0  0  3  0  0  0  0  0  0
  -22.7340  -10.2520   20.2340 C   0  0  0  0  0  3  0  0  0  0  0  0
  -21.6040   -6.9870   21.4550 O   0  0  0  0  0  0  0  0  0  0  0  0
  -21.5560   -6.2370   22.6030 C   0  0  0  0  0  0  0  0  0  0  0  0
  -21.1740   -6.7970   23.8420 C   0  0  0  0  0  3  0  0  0  0  0  0
  -21.0700   -5.9760   24.9830 C   0  0  0  0  0  3  0  0  0  0  0  0
  -21.3360   -4.5970   24.8860 C   0  0  0  0  0  0  0  0  0  0  0  0
  -21.7110   -4.0370   23.6520 C   0  0  0  0  0  3  0  0  0  0  0  0
  -21.8170   -4.8560   22.5130 C   0  0  0  0  0  0  0  0  0  0  0  0
  -22.1580   -4.3080   21.3210 F   0  0  0  0  0  0  0  0  0  0  0  0
  -21.2280   -3.8070   25.9790 F   0  0  0  0  0  0  0  0  0  0  0  0
  -22.7960  -13.5990   21.0300 C   0  0  0  0  0  0  0  0  0  0  0  0
  -22.0410  -12.9360   21.8990 N   0  0  0  0  0  0  0  0  0  0  0  0
  -22.3820  -14.6150   20.4750 O   0  0  0  0  0  0  0  0  0  0  0  0
  -22.3880  -12.1140   22.3710 H   0  0  0  0  0  0  0  0  0  0  0  0
  -21.1040  -13.2550   22.0960 H   0  0  0  0  0  0  0  0  0  0  0  0
  -25.4550  -15.2150   20.2570 N   0  0  0  0  0  0  0  0  0  0  0  0
  -24.6890  -15.8640   20.3970 H   0  0  0  0  0  0  0  0  0  0  0  0
  -26.3510  -15.6940   20.1980 H   0  0  0  0  0  0  0  0  0  0  0  0
  -27.5540  -17.2160   21.1310 N   0  0  0  0  0  0  0  0  0  0  0  0
  -26.7590  -17.8140   21.3330 H   0  0  0  0  0  0  0  0  0  0  0  0
  -27.7080  -16.6060   21.9270 H   0  0  0  0  0  0  0  0  0  0  0  0
  -28.8360  -22.3730   19.7190 C   0  0  0  0  0  2  0  0  0  0  0  0
  -29.2440  -23.9220   19.7930 C   0  0  0  0  0  3  0  0  0  0  0  0
  -29.7370  -24.1110   21.1080 O   0  0  0  0  0  0  0  0  0  0  0  0
  -29.9580  -25.0340   21.1880 H   0  0  0  0  0  0  0  0  0  0  0  0
  -28.0730  -24.9840   19.5730 C   0  0  0  0  0  2  0  0  0  0  0  0
  -28.3260  -26.4480   19.6590 O   0  0  0  0  0  0  0  0  0  0  0  0
  -24.6100  -31.6530   23.0320 C   0  0  0  0  0  0  0  0  0  0  0  0
  -27.2010  -27.2940   19.6790 C   0  0  0  0  0  0  0  0  0  0  0  0
  -23.3860  -30.3380   21.3390 C   0  0  0  0  0  3  0  0  0  0  0  0
  -24.8220  -28.8850   19.8040 C   0  0  0  0  0  0  0  0  0  0  0  0
  -25.9200  -30.6880   21.1280 C   0  0  0  0  0  2  0  0  0  0  0  0
  -25.9990  -29.3500   20.4040 C   0  0  0  0  0  0  0  0  0  0  0  0
  -27.1920  -28.5680   20.3300 C   0  0  0  0  0  3  0  0  0  0  0  0
  -25.9940  -26.8880   19.0600 C   0  0  0  0  0  3  0  0  0  0  0  0
  -24.8210  -27.6610   19.1240 C   0  0  0  0  0  3  0  0  0  0  0  0
  -23.5800  -29.7440   19.9210 C   0  0  0  0  0  2  0  0  0  0  0  0
  -24.6590  -30.9070   21.8900 N   0  0  0  0  0  0  0  0  0  0  0  0
  -23.5340  -31.8920   23.6010 O   0  0  0  0  0  0  0  0  0  0  0  0
  -22.7490  -29.2640   22.2520 C   0  0  0  0  0  0  0  0  0  0  0  0
  -21.4170  -29.1030   22.1590 N   0  0  0  0  0  0  0  0  0  0  0  0
  -23.4490  -28.5800   23.0030 O   0  0  0  0  0  0  0  0  0  0  0  0
  -20.9110  -29.7080   21.5280 H   0  0  0  0  0  0  0  0  0  0  0  0
  -18.0460  -27.9160   22.7150 C   0  0  0  0  0  0  0  0  0  0  0  0
  -20.6170  -28.1230   22.8950 C   0  0  0  0  0  3  0  0  0  0  0  0
  -20.6730  -26.7350   22.2170 C   0  0  0  0  0  2  0  0  0  0  0  0
  -19.5250  -26.4990   21.2290 C   0  0  0  0  0  2  0  0  0  0  0  0
  -18.1730  -26.6160   21.9390 C   0  0  0  0  0  2  0  0  0  0  0  0
  -19.1930  -28.6310   23.1500 C   0  0  0  0  0  0  0  0  0  0  0  0
  -19.0170  -29.8520   23.8380 C   0  0  0  0  0  3  0  0  0  0  0  0
  -17.7280  -30.3560   24.0940 C   0  0  0  0  0  3  0  0  0  0  0  0
  -16.5960  -29.6360   23.6730 C   0  0  0  0  0  3  0  0  0  0  0  0
  -16.7560  -28.4180   22.9900 C   0  0  0  0  0  3  0  0  0  0  0  0
  -25.8990  -32.2610   23.6660 C   0  0  0  0  0  3  0  0  0  0  0  0
  -26.4520  -31.4150   24.8780 C   0  0  1  0  0  0  0  0  0  0  0  0
  -25.3880  -31.1030   25.9570 C   0  0  0  0  0  1  0  0  0  0  0  0
  -27.0330  -30.0690   24.3870 C   0  0  0  0  0  1  0  0  0  0  0  0
  -27.6150  -32.1750   25.5590 C   0  0  0  0  0  1  0  0  0  0  0  0
  -25.5800  -33.6300   24.0940 N   0  0  0  0  0  0  0  0  0  0  0  0
  -25.8690  -34.7340   23.3910 C   0  0  0  0  0  0  0  0  0  0  0  0
  -26.5020  -34.7060   22.3320 O   0  0  0  0  0  0  0  0  0  0  0  0
  -25.0130  -33.7240   24.9230 H   0  0  0  0  0  0  0  0  0  0  0  0
  -24.0940  -36.5090   23.2220 C   0  0  0  0  0  1  0  0  0  0  0  0
  -25.3780  -36.0820   23.9510 C   0  0  0  0  0  3  0  0  0  0  0  0
  -27.5340  -36.9590   24.7340 C   0  0  0  0  0  1  0  0  0  0  0  0
  -26.3860  -37.1620   23.8550 N   0  0  0  0  0  0  0  0  0  0  0  0
  -25.9710  -38.0620   24.0760 H   0  0  0  0  0  0  0  0  0  0  0  0
  1 15  1  0
  2  7  1  0
  3  4  1  0
  3  2  1  0
  5  4  1  0
  5 22  1  0
  5  6  1  0
  7  1  1  0
  7  6  1  0
  8  1  2  0
  9 10  1  0
 10 47  1  0
 11  9  2  0
 12 10  2  0
 12 15  1  0
 13 11  1  0
 13 14  2  0
 14 12  1  0
 15 17  1  0
 16 11  1  0
 18 16  1  0
 19 20  2  0
 20 21  1  0
 20 39  1  0
 21 24  1  0
 22 19  1  0
 22 23  1  0
 23 21  2  0
 24 25  1  0
 25 26  2  0
 27 30  1  0
 27 26  1  0
 28 27  2  0
 29 28  1  0
 29 24  2  0
 30 31  1  0
 31 32  1  0
 32 33  2  0
 34 33  1  0
 34 38  1  0
 35 34  2  0
 36 31  2  0
 36 35  1  0
 37 36  1  0
 39 40  1  0
 40 43  1  0
 40 42  1  0
 41 39  2  0
 44 45  1  0
 44 19  1  0
 46 44  1  0
 47 48  1  0
 47 49  1  0
 50 51  1  0
 50 16  1  0
 51 54  1  0
 51 52  1  0
 52 53  1  0
 54 55  1  0
 55 57  1  0
 56 67  2  0
 57 62  1  0
 58 66  1  0
 58 68  1  0
 59 65  1  0
 59 61  1  0
 60 66  1  0
 61 60  1  0
 62 61  2  0
 63 64  1  0
 63 57  2  0
 64 59  2  0
 65 58  1  0
 66 56  1  0
 68 70  2  0
 69 68  1  0
 71 69  1  0
 72 81  2  0
 72 77  1  0
 73 69  1  0
 73 77  1  0
 74 73  1  0
 75 76  1  0
 75 74  1  0
 76 72  1  0
 77 78  2  0
 78 79  1  0
 80 79  2  0
 81 80  1  0
 82 56  1  0
 82 87  1  0
 82 83  1  0
 83 86  1  1
 83 84  1  0
 85 83  1  0
 87 90  1  0
 88 92  1  0
 88 87  1  0
 89 88  2  0
 92 91  1  0
 94 92  1  0
 94 95  1  0
 94 93  1  0
M  ISO  4   1 100  15 100  54 101  55 101
M  END
>  <TORSDO>  (31) 
F 20

>  <SCORE>  (31) 
-13.061

>  <name>  (31) 
30

>  <ligand_id>  (31) 
30

>  <original_smiles>  (31) 
[H]OC([H])(C([H])([H])Oc1c([H])c([H])c2c(c1[H])C([H])([H])N(C(=O)C([H])(N([H])C(=O)C([H])(N([H])C([H])([H])[H])C([H])([H])[H])C(C([H])([H])[H])(C([H])([H])[H])C([H])([H])[H])C([H])(C(=O)N([H])C1([H])c3c([H])c([H])c([H])c([H])c3C([H])([H])C([H])([H])C1([H])[H])C2([H])[H])C([H])([H])N([H])c1nnc(N([H])C(=O)N2C([H])([H])C([H])([H])C([H])([H])C([H])(n3nc(-c4c([H])c([H])c(Oc5c([H])c([H])c(F)c([H])c5F)c([H])c4[H])c(C(=O)N([H])[H])c3N([H])[H])C2([H])[H])c(N([H])[H])c1[H]

>  <smiles>  (31) 
[H]OC([H])(C([H])([H])Oc1c([H])c([H])c2c(c1[H])C([H])([H])N(C(=O)C([H])(N([H])C(=O)C([H])(N([H])C([H])([H])[H])C([H])([H])[H])C(C([H])([H])[H])(C([H])([H])[H])C([H])([H])[H])C([H])(C(=O)N([H])C1([H])c3c([H])c([H])c([H])c([H])c3C([H])([H])C([H])([H])C1([H])[H])C2([H])[H])C([H])([H])N([H])c1nnc(N([H])C(=O)N2C([H])([H])C([H])([H])C([H])([H])C([H])(n3nc(-c4c([H])c([H])c(Oc5c([H])c([H])c(F)c([H])c5F)c([H])c4[H])c(C(=O)N([H])[H])c3N([H])[H])C2([H])[H])c(N([H])[H])c1[H]

$$$$
31:0:0
     RDKit          3D

 98106  0  0  1  0  0  0  0  0999 V2000
  -30.9420  -20.8320   18.3270 C   0  0  0  0  0  1  0  0  0  0  0  0
  -30.6100  -20.9300   19.8340 C   0  0  0  0  0  3  0  0  0  0  0  0
  -29.1130  -17.6050   20.5120 C   0  0  0  0  0  3  0  0  0  0  0  0
  -30.4350  -19.5030   20.3940 C   0  0  0  0  0  0  0  0  0  0  0  0
  -30.2100  -16.8240   20.9610 C   0  0  0  0  0  0  0  0  0  0  0  0
  -31.5240  -18.7450   20.9260 C   0  0  0  0  0  0  0  0  0  0  0  0
  -29.2190  -18.9270   20.2160 N   0  0  0  0  0  0  0  0  0  0  0  0
  -31.4060  -17.4250   21.2040 N   0  0  0  0  0  0  0  0  0  0  0  0
  -32.7950  -19.2640   21.1540 N   0  0  0  0  0  0  0  0  0  0  0  0
  -32.9770  -20.2620   21.1610 H   0  0  0  0  0  0  0  0  0  0  0  0
  -33.4830  -18.7130   21.6530 H   0  0  0  0  0  0  0  0  0  0  0  0
  -30.6630  -14.4430   20.4990 C   0  0  0  0  0  0  0  0  0  0  0  0
  -30.3340  -12.3060   19.3110 C   0  0  0  0  0  2  0  0  0  0  0  0
  -29.3900  -12.5490   18.1130 C   0  0  0  0  0  2  0  0  0  0  0  0
  -27.9160  -12.4190   18.5460 C   0  0  0  0  0  2  0  0  0  0  0  0
  -27.5930  -13.2310   19.8280 C   0  0  0  0  0  3  0  0  0  0  0  0
  -28.6510  -12.9770   20.9250 C   0  0  0  0  0  2  0  0  0  0  0  0
  -29.9800  -13.2750   20.3600 N   0  0  0  0  0  0  0  0  0  0  0  0
  -31.7740  -14.6250   19.9890 O   0  0  0  0  0  0  0  0  0  0  0  0
  -29.9870  -15.4260   21.1230 N   0  0  0  0  0  0  0  0  0  0  0  0
  -29.0730  -15.1580   21.4490 H   0  0  0  0  0  0  0  0  0  0  0  0
  -25.1990  -13.8480   20.5440 C   0  0  0  0  0  0  0  0  0  0  0  0
  -24.1310  -13.0790   20.9210 C   0  0  0  0  0  0  0  0  0  0  0  0
  -24.5870  -11.7250   20.8850 C   0  0  0  0  0  0  0  0  0  0  0  0
  -26.2400  -12.9630   20.3080 N   0  0  0  0  0  0  0  0  0  0  0  0
  -25.8740  -11.6810   20.5680 N   0  0  0  0  0  0  0  0  0  0  0  0
  -23.8560  -10.4650   21.0780 C   0  0  0  0  0  0  0  0  0  0  0  0
  -24.3020   -9.4860   21.9940 C   0  0  0  0  0  3  0  0  0  0  0  0
  -23.5720   -8.2910   22.1750 C   0  0  0  0  0  3  0  0  0  0  0  0
  -22.3840   -8.0660   21.4390 C   0  0  0  0  0  0  0  0  0  0  0  0
  -21.9590   -9.0320   20.5100 C   0  0  0  0  0  3  0  0  0  0  0  0
  -22.6900  -10.2200   20.3280 C   0  0  0  0  0  3  0  0  0  0  0  0
  -21.6260   -6.9230   21.5290 O   0  0  0  0  0  0  0  0  0  0  0  0
  -21.6080   -6.1600   22.6690 C   0  0  0  0  0  0  0  0  0  0  0  0
  -21.2310   -6.6970   23.9210 C   0  0  0  0  0  3  0  0  0  0  0  0
  -21.1590   -5.8590   25.0520 C   0  0  0  0  0  3  0  0  0  0  0  0
  -21.4530   -4.4880   24.9340 C   0  0  0  0  0  0  0  0  0  0  0  0
  -21.8210   -3.9500   23.6880 C   0  0  0  0  0  3  0  0  0  0  0  0
  -21.8960   -4.7850   22.5590 C   0  0  0  0  0  0  0  0  0  0  0  0
  -22.2310   -4.2580   21.3560 F   0  0  0  0  0  0  0  0  0  0  0  0
  -21.3750   -3.6820   26.0190 F   0  0  0  0  0  0  0  0  0  0  0  0
  -22.7360  -13.5590   21.2030 C   0  0  0  0  0  0  0  0  0  0  0  0
  -22.0110  -12.8630   22.0710 N   0  0  0  0  0  0  0  0  0  0  0  0
  -22.2970  -14.5850   20.6830 O   0  0  0  0  0  0  0  0  0  0  0  0
  -22.3790  -12.0320   22.5100 H   0  0  0  0  0  0  0  0  0  0  0  0
  -21.0740  -13.1640   22.2990 H   0  0  0  0  0  0  0  0  0  0  0  0
  -25.3660  -15.2180   20.3590 N   0  0  0  0  0  0  0  0  0  0  0  0
  -24.5900  -15.8670   20.4410 H   0  0  0  0  0  0  0  0  0  0  0  0
  -26.1930  -15.6410   19.9580 H   0  0  0  0  0  0  0  0  0  0  0  0
  -29.4480  -21.8270   20.1090 N   0  0  0  0  0  4  0  0  0  0  0  0
  -28.6080  -21.4000   19.7520 H   0  0  0  0  0  0  0  0  0  0  0  0
  -29.3310  -21.8950   21.1060 H   0  0  0  0  0  0  0  0  0  0  0  0
  -29.5720  -23.2050   19.5520 C   0  0  0  0  0  2  0  0  0  0  0  0
  -28.5350  -24.2220   20.0990 C   0  0  0  0  0  3  0  0  0  0  0  0
  -27.2310  -23.6740   19.9340 O   0  0  0  0  0  0  0  0  0  0  0  0
  -27.0160  -23.6750   19.0050 H   0  0  0  0  0  0  0  0  0  0  0  0
  -28.6530  -25.5940   19.3640 C   0  0  0  0  0  2  0  0  0  0  0  0
  -28.4340  -26.7440   20.1910 O   0  0  0  0  0  0  0  0  0  0  0  0
  -24.5910  -31.8750   23.2400 C   0  0  0  0  0  0  0  0  0  0  0  0
  -27.2350  -27.4290   20.1590 C   0  0  0  0  0  0  0  0  0  0  0  0
  -23.3800  -30.4720   21.6010 C   0  0  0  0  0  3  0  0  0  0  0  0
  -24.8310  -28.9290   20.1760 C   0  0  0  0  0  0  0  0  0  0  0  0
  -25.9040  -30.8290   21.3970 C   0  0  0  0  0  2  0  0  0  0  0  0
  -25.9870  -29.4560   20.7610 C   0  0  0  0  0  0  0  0  0  0  0  0
  -27.1860  -28.7100   20.7540 C   0  0  0  0  0  3  0  0  0  0  0  0
  -26.0530  -26.9090   19.5790 C   0  0  0  0  0  3  0  0  0  0  0  0
  -24.8580  -27.6550   19.5860 C   0  0  0  0  0  3  0  0  0  0  0  0
  -23.5830  -29.7830   20.2240 C   0  0  0  0  0  2  0  0  0  0  0  0
  -24.6440  -31.0750   22.1370 N   0  0  0  0  0  0  0  0  0  0  0  0
  -23.5110  -32.1500   23.7800 O   0  0  0  0  0  0  0  0  0  0  0  0
  -22.7320  -29.4530   22.5660 C   0  0  0  0  0  0  0  0  0  0  0  0
  -21.4070  -29.2700   22.4400 N   0  0  0  0  0  0  0  0  0  0  0  0
  -23.4170  -28.8270   23.3780 O   0  0  0  0  0  0  0  0  0  0  0  0
  -20.9180  -29.8270   21.7530 H   0  0  0  0  0  0  0  0  0  0  0  0
  -18.0320  -28.0850   22.9450 C   0  0  0  0  0  0  0  0  0  0  0  0
  -20.5910  -28.3350   23.2130 C   0  0  0  0  0  3  0  0  0  0  0  0
  -20.6890  -26.9060   22.6350 C   0  0  0  0  0  2  0  0  0  0  0  0
  -19.5830  -26.5850   21.6230 C   0  0  0  0  0  2  0  0  0  0  0  0
  -18.2030  -26.7360   22.2690 C   0  0  0  0  0  2  0  0  0  0  0  0
  -19.1540  -28.8440   23.3730 C   0  0  0  0  0  0  0  0  0  0  0  0
  -18.9420  -30.1090   23.9640 C   0  0  0  0  0  3  0  0  0  0  0  0
  -17.6390  -30.6150   24.1300 C   0  0  0  0  0  3  0  0  0  0  0  0
  -16.5320  -29.8540   23.7190 C   0  0  0  0  0  3  0  0  0  0  0  0
  -16.7290  -28.5910   23.1340 C   0  0  0  0  0  3  0  0  0  0  0  0
  -25.8780  -32.5060   23.8560 C   0  0  0  0  0  3  0  0  0  0  0  0
  -25.5720  -33.9040   24.1880 N   0  0  0  0  0  0  0  0  0  0  0  0
  -25.9030  -34.9570   23.4290 C   0  0  0  0  0  0  0  0  0  0  0  0
  -26.5710  -34.8550   22.3960 O   0  0  0  0  0  0  0  0  0  0  0  0
  -24.9750  -34.0590   24.9880 H   0  0  0  0  0  0  0  0  0  0  0  0
  -24.1720  -36.7470   23.0780 C   0  0  0  0  0  1  0  0  0  0  0  0
  -25.4150  -36.3440   23.8870 C   0  0  0  0  0  3  0  0  0  0  0  0
  -27.5520  -37.2280   24.7120 C   0  0  0  0  0  1  0  0  0  0  0  0
  -26.4470  -37.3980   23.7720 N   0  0  0  0  0  0  0  0  0  0  0  0
  -26.0410  -38.3180   23.9210 H   0  0  0  0  0  0  0  0  0  0  0  0
  -26.4020  -31.7340   25.1300 C   0  0  1  0  0  0  0  0  0  0  0  0
  -25.3130  -31.4960   26.2020 C   0  0  0  0  0  1  0  0  0  0  0  0
  -26.9840  -30.3580   24.7330 C   0  0  0  0  0  1  0  0  0  0  0  0
  -27.5540  -32.5300   25.7880 C   0  0  0  0  0  1  0  0  0  0  0  0
  2  1  1  0
  2 50  1  0
  2  4  1  0
  3  5  1  0
  4  6  2  0
  5 20  1  0
  5  8  2  0
  6  9  1  0
  6  8  1  0
  7  4  1  0
  7  3  2  0
  9 10  1  0
  9 11  1  0
 12 20  1  0
 13 18  1  0
 14 15  1  0
 14 13  1  0
 16 15  1  0
 16 25  1  0
 16 17  1  0
 18 12  1  0
 18 17  1  0
 19 12  2  0
 20 21  1  0
 22 23  2  0
 23 42  1  0
 24 23  1  0
 24 27  1  0
 25 22  1  0
 25 26  1  0
 26 24  2  0
 27 28  1  0
 28 29  2  0
 30 33  1  0
 30 29  1  0
 31 30  2  0
 32 31  1  0
 32 27  2  0
 33 34  1  0
 34 35  1  0
 35 36  2  0
 37 36  1  0
 37 41  1  0
 38 37  2  0
 39 34  2  0
 39 38  1  0
 40 39  1  0
 42 43  1  0
 43 46  1  0
 43 45  1  0
 44 42  2  0
 47 48  1  0
 47 22  1  0
 49 47  1  0
 50 52  1  0
 51 50  1  0
 53 54  1  0
 53 50  1  0
 54 57  1  0
 55 54  1  0
 56 55  1  0
 57 58  1  0
 59 70  2  0
 60 58  1  0
 60 65  1  0
 61 69  1  0
 61 71  1  0
 62 68  1  0
 62 64  1  0
 63 69  1  0
 64 63  1  0
 65 64  2  0
 66 67  1  0
 66 60  2  0
 67 62  2  0
 68 61  1  0
 69 59  1  0
 71 73  2  0
 72 71  1  0
 74 72  1  0
 75 84  2  0
 75 80  1  0
 76 72  1  0
 76 80  1  0
 77 76  1  0
 78 79  1  0
 78 77  1  0
 79 75  1  0
 80 81  2  0
 81 82  1  0
 83 82  2  0
 84 83  1  0
 85 59  1  0
 85 86  1  0
 85 95  1  0
 86 89  1  0
 87 91  1  0
 87 86  1  0
 88 87  2  0
 91 90  1  0
 93 91  1  0
 93 94  1  0
 93 92  1  0
 95 98  1  1
 95 96  1  0
 97 95  1  0
M  ISO  4  12 100  20 100  57 101  58 101
M  END
>  <TORSDO>  (32) 
F 22

>  <SCORE>  (32) 
-13.632

>  <name>  (32) 
31

>  <ligand_id>  (32) 
31

>  <original_smiles>  (32) 
[H]OC([H])(C([H])([H])Oc1c([H])c([H])c2c(c1[H])C([H])([H])N(C(=O)C([H])(N([H])C(=O)C([H])(N([H])C([H])([H])[H])C([H])([H])[H])C(C([H])([H])[H])(C([H])([H])[H])C([H])([H])[H])C([H])(C(=O)N([H])C1([H])c3c([H])c([H])c([H])c([H])c3C([H])([H])C([H])([H])C1([H])[H])C2([H])[H])C([H])([H])[N+]([H])([H])C([H])(c1nc([H])c(N([H])C(=O)N2C([H])([H])C([H])([H])C([H])([H])C([H])(n3nc(-c4c([H])c([H])c(Oc5c([H])c([H])c(F)c([H])c5F)c([H])c4[H])c(C(=O)N([H])[H])c3N([H])[H])C2([H])[H])nc1N([H])[H])C([H])([H])[H]

>  <smiles>  (32) 
[H]OC([H])(C([H])([H])Oc1c([H])c([H])c2c(c1[H])C([H])([H])N(C(=O)C([H])(N([H])C(=O)C([H])(N([H])C([H])([H])[H])C([H])([H])[H])C(C([H])([H])[H])(C([H])([H])[H])C([H])([H])[H])C([H])(C(=O)N([H])C1([H])c3c([H])c([H])c([H])c([H])c3C([H])([H])C([H])([H])C1([H])[H])C2([H])[H])C([H])([H])[N+]([H])([H])C([H])(c1nc([H])c(N([H])C(=O)N2C([H])([H])C([H])([H])C([H])([H])C([H])(n3nc(-c4c([H])c([H])c(Oc5c([H])c([H])c(F)c([H])c5F)c([H])c4[H])c(C(=O)N([H])[H])c3N([H])[H])C2([H])[H])nc1N([H])[H])C([H])([H])[H]

$$$$
32:0:0
     RDKit          3D

 93101  0  0  1  0  0  0  0  0999 V2000
  -27.9100  -20.7810   20.5720 C   0  0  0  0  0  3  0  0  0  0  0  0
  -29.5330  -18.6670   19.8070 C   0  0  0  0  0  0  0  0  0  0  0  0
  -29.1680  -21.0690   19.9890 C   0  0  0  0  0  0  0  0  0  0  0  0
  -28.2620  -18.4880   20.4220 C   0  0  0  0  0  0  0  0  0  0  0  0
  -27.4630  -19.5180   20.7770 N   0  0  0  0  0  0  0  0  0  0  0  0
  -29.9650  -19.9870   19.6030 N   0  0  0  0  0  0  0  0  0  0  0  0
  -27.7340  -17.2410   20.7250 N   0  0  0  0  0  0  0  0  0  0  0  0
  -28.4090  -16.5580   21.0450 H   0  0  0  0  0  0  0  0  0  0  0  0
  -26.9090  -17.2530   21.3130 H   0  0  0  0  0  0  0  0  0  0  0  0
  -29.5870  -22.4430   19.7770 N   0  0  0  0  0  0  0  0  0  0  0  0
  -30.5260  -22.5600   19.4090 H   0  0  0  0  0  0  0  0  0  0  0  0
  -28.9590  -23.7010   20.3830 C   0  0  0  0  0  3  0  0  0  0  0  0
  -29.0970  -25.1290   19.6110 C   0  0  0  0  0  3  0  0  0  0  0  0
  -28.8790  -26.4700   20.2670 O   0  0  0  0  0  0  0  0  0  0  0  0
  -24.8130  -31.7260   23.1750 C   0  0  0  0  0  0  0  0  0  0  0  0
  -27.7170  -27.2720   20.1590 C   0  0  0  0  0  0  0  0  0  0  0  0
  -23.7290  -30.2970   21.4800 C   0  0  0  0  0  3  0  0  0  0  0  0
  -25.2900  -28.8190   20.0840 C   0  0  0  0  0  0  0  0  0  0  0  0
  -26.2600  -30.7110   21.3910 C   0  0  0  0  0  2  0  0  0  0  0  0
  -26.4180  -29.3410   20.7280 C   0  0  0  0  0  0  0  0  0  0  0  0
  -27.6300  -28.5800   20.7530 C   0  0  0  0  0  3  0  0  0  0  0  0
  -26.5580  -26.8090   19.4980 C   0  0  0  0  0  3  0  0  0  0  0  0
  -25.3650  -27.5630   19.4610 C   0  0  0  0  0  3  0  0  0  0  0  0
  -24.0190  -29.6480   20.1000 C   0  0  0  0  0  2  0  0  0  0  0  0
  -24.9500  -30.9310   22.0710 N   0  0  0  0  0  0  0  0  0  0  0  0
  -23.7010  -31.9520   23.6730 O   0  0  0  0  0  0  0  0  0  0  0  0
  -23.0750  -29.2440   22.4070 C   0  0  0  0  0  0  0  0  0  0  0  0
  -21.7620  -29.0130   22.2330 N   0  0  0  0  0  0  0  0  0  0  0  0
  -23.7500  -28.6400   23.2430 O   0  0  0  0  0  0  0  0  0  0  0  0
  -21.2750  -29.5560   21.5330 H   0  0  0  0  0  0  0  0  0  0  0  0
  -18.4210  -27.6770   22.6150 C   0  0  0  0  0  0  0  0  0  0  0  0
  -20.9580  -28.0320   22.9630 C   0  0  0  0  0  3  0  0  0  0  0  0
  -21.1330  -26.6160   22.3680 C   0  0  0  0  0  2  0  0  0  0  0  0
  -20.0750  -26.2670   21.3180 C   0  0  0  0  0  2  0  0  0  0  0  0
  -18.6700  -26.3480   21.9220 C   0  0  0  0  0  2  0  0  0  0  0  0
  -19.4960  -28.4750   23.0890 C   0  0  0  0  0  0  0  0  0  0  0  0
  -19.2110  -29.7180   23.6950 C   0  0  0  0  0  3  0  0  0  0  0  0
  -17.8820  -30.1650   23.8310 C   0  0  0  0  0  3  0  0  0  0  0  0
  -16.8210  -29.3640   23.3730 C   0  0  0  0  0  3  0  0  0  0  0  0
  -17.0920  -28.1210   22.7710 C   0  0  0  0  0  3  0  0  0  0  0  0
  -26.0440  -32.4060   23.8490 C   0  0  0  0  0  3  0  0  0  0  0  0
  -26.5500  -31.6410   25.1350 C   0  0  1  0  0  0  0  0  0  0  0  0
  -25.4280  -31.3230   26.1510 C   0  0  0  0  0  1  0  0  0  0  0  0
  -27.2260  -30.3060   24.7480 C   0  0  0  0  0  1  0  0  0  0  0  0
  -27.6260  -32.4870   25.8570 C   0  0  0  0  0  1  0  0  0  0  0  0
  -25.6600  -33.7840   24.1890 N   0  0  0  0  0  0  0  0  0  0  0  0
  -25.9570  -34.8630   23.4510 C   0  0  0  0  0  0  0  0  0  0  0  0
  -26.6500  -34.8050   22.4330 O   0  0  0  0  0  0  0  0  0  0  0  0
  -25.0430  -33.9000   24.9790 H   0  0  0  0  0  0  0  0  0  0  0  0
  -24.1520  -36.5780   23.0900 C   0  0  0  0  0  1  0  0  0  0  0  0
  -25.3970  -36.2210   23.9180 C   0  0  0  0  0  3  0  0  0  0  0  0
  -27.4680  -37.1990   24.8030 C   0  0  0  0  0  1  0  0  0  0  0  0
  -26.3800  -37.3230   23.8370 N   0  0  0  0  0  0  0  0  0  0  0  0
  -25.9280  -38.2210   23.9830 H   0  0  0  0  0  0  0  0  0  0  0  0
  -30.4720  -17.4220   19.4040 C   0  0  0  0  0  2  0  0  0  0  0  0
  -30.9160  -14.8150   19.5270 C   0  0  0  0  0  0  0  0  0  0  0  0
  -30.6860  -12.4790   18.6710 C   0  0  0  0  0  2  0  0  0  0  0  0
  -29.6530  -12.4660   17.5230 C   0  0  0  0  0  2  0  0  0  0  0  0
  -28.2260  -12.2930   18.0780 C   0  0  0  0  0  2  0  0  0  0  0  0
  -27.9300  -13.2410   19.2730 C   0  0  0  0  0  3  0  0  0  0  0  0
  -29.0760  -13.2400   20.3060 C   0  0  0  0  0  2  0  0  0  0  0  0
  -30.3110  -13.5790   19.5900 N   0  0  0  0  0  0  0  0  0  0  0  0
  -32.0760  -14.9080   19.1200 O   0  0  0  0  0  0  0  0  0  0  0  0
  -30.1370  -15.9510   19.7030 N   0  0  0  0  0  0  0  0  0  0  0  0
  -29.1770  -15.7850   19.9640 H   0  0  0  0  0  0  0  0  0  0  0  0
  -25.6410  -13.8440   20.2580 C   0  0  0  0  0  0  0  0  0  0  0  0
  -24.5980  -13.0740   20.6960 C   0  0  0  0  0  0  0  0  0  0  0  0
  -25.0290  -11.7180   20.5720 C   0  0  0  0  0  0  0  0  0  0  0  0
  -26.6380  -12.9560   19.8880 N   0  0  0  0  0  0  0  0  0  0  0  0
  -26.2840  -11.6700   20.1400 N   0  0  0  0  0  0  0  0  0  0  0  0
  -24.2960  -10.4620   20.7860 C   0  0  0  0  0  0  0  0  0  0  0  0
  -24.7190   -9.5130   21.7430 C   0  0  0  0  0  3  0  0  0  0  0  0
  -23.9870   -8.3240   21.9430 C   0  0  0  0  0  3  0  0  0  0  0  0
  -22.8160   -8.0760   21.1880 C   0  0  0  0  0  0  0  0  0  0  0  0
  -22.4110   -9.0140   20.2220 C   0  0  0  0  0  3  0  0  0  0  0  0
  -23.1440  -10.1940   20.0190 C   0  0  0  0  0  3  0  0  0  0  0  0
  -22.0540   -6.9370   21.2970 O   0  0  0  0  0  0  0  0  0  0  0  0
  -21.8950   -6.2890   22.4960 C   0  0  0  0  0  0  0  0  0  0  0  0
  -21.3380   -6.9330   23.6230 C   0  0  0  0  0  3  0  0  0  0  0  0
  -21.1280   -6.2100   24.8140 C   0  0  0  0  0  3  0  0  0  0  0  0
  -21.4660   -4.8440   24.8790 C   0  0  0  0  0  0  0  0  0  0  0  0
  -22.0170   -4.2010   23.7570 C   0  0  0  0  0  3  0  0  0  0  0  0
  -22.2280   -4.9210   22.5690 C   0  0  0  0  0  0  0  0  0  0  0  0
  -22.7390   -4.2920   21.4830 F   0  0  0  0  0  0  0  0  0  0  0  0
  -21.2590   -4.1480   26.0210 F   0  0  0  0  0  0  0  0  0  0  0  0
  -23.2460  -13.5660   21.1200 C   0  0  0  0  0  0  0  0  0  0  0  0
  -22.5960  -12.8570   22.0370 N   0  0  0  0  0  0  0  0  0  0  0  0
  -22.7770  -14.6150   20.6770 O   0  0  0  0  0  0  0  0  0  0  0  0
  -22.9880  -12.0070   22.4150 H   0  0  0  0  0  0  0  0  0  0  0  0
  -21.6920  -13.1660   22.3660 H   0  0  0  0  0  0  0  0  0  0  0  0
  -25.8130  -15.2180   20.1270 N   0  0  0  0  0  0  0  0  0  0  0  0
  -25.0900  -15.8700   20.4110 H   0  0  0  0  0  0  0  0  0  0  0  0
  -26.7000  -15.6780   19.9530 H   0  0  0  0  0  0  0  0  0  0  0  0
  1  5  1  0
  2  4  1  0
  3  1  2  0
  4  7  1  0
  4  5  2  0
  6  2  2  0
  6  3  1  0
  7  8  1  0
  7  9  1  0
 10  3  1  0
 10 12  1  0
 11 10  1  0
 13 14  1  0
 13 12  2  0
 15 26  2  0
 16 14  1  0
 16 21  1  0
 17 25  1  0
 17 27  1  0
 18 24  1  0
 18 20  1  0
 19 25  1  0
 20 21  2  0
 20 19  1  0
 22 16  2  0
 23 22  1  0
 23 18  2  0
 24 17  1  0
 25 15  1  0
 27 29  2  0
 28 27  1  0
 30 28  1  0
 31 40  2  0
 31 36  1  0
 32 28  1  0
 32 36  1  0
 33 32  1  0
 34 35  1  0
 34 33  1  0
 35 31  1  0
 36 37  2  0
 37 38  1  0
 39 38  2  0
 40 39  1  0
 41 15  1  0
 41 46  1  0
 41 42  1  0
 42 45  1  1
 42 43  1  0
 44 42  1  0
 46 49  1  0
 47 51  1  0
 47 46  1  0
 48 47  2  0
 51 50  1  0
 53 51  1  0
 53 54  1  0
 53 52  1  0
 55 64  1  0
 55  2  1  0
 56 62  1  0
 56 64  1  0
 57 62  1  0
 58 59  1  0
 58 57  1  0
 60 59  1  0
 60 69  1  0
 60 61  1  0
 62 61  1  0
 63 56  2  0
 64 65  1  0
 66 67  2  0
 67 86  1  0
 68 67  1  0
 68 71  1  0
 69 70  1  0
 69 66  1  0
 70 68  2  0
 71 72  1  0
 72 73  2  0
 74 77  1  0
 74 73  1  0
 75 74  2  0
 76 75  1  0
 76 71  2  0
 77 78  1  0
 78 83  2  0
 78 79  1  0
 79 80  2  0
 80 81  1  0
 81 85  1  0
 82 81  2  0
 83 82  1  0
 84 83  1  0
 86 87  1  0
 87 90  1  0
 87 89  1  0
 88 86  2  0
 91 66  1  0
 91 92  1  0
 93 91  1  0
M  ISO  4  13 101  14 101  56 100  64 100
M  END
>  <TORSDO>  (33) 
F 20

>  <SCORE>  (33) 
-12.035

>  <name>  (33) 
32

>  <ligand_id>  (33) 
32

>  <original_smiles>  (33) 
[H]c1nc(N([H])[H])c(C([H])([H])N([H])C(=O)N2C([H])([H])C([H])([H])C([H])([H])C([H])(n3nc(-c4c([H])c([H])c(Oc5c([H])c([H])c(F)c([H])c5F)c([H])c4[H])c(C(=O)N([H])[H])c3N([H])[H])C2([H])[H])nc1N([H])C([H])([H])C([H])([H])Oc1c([H])c([H])c2c(c1[H])C([H])([H])N(C(=O)C([H])(N([H])C(=O)C([H])(N([H])C([H])([H])[H])C([H])([H])[H])C(C([H])([H])[H])(C([H])([H])[H])C([H])([H])[H])C([H])(C(=O)N([H])C1([H])c3c([H])c([H])c([H])c([H])c3C([H])([H])C([H])([H])C1([H])[H])C2([H])[H]

>  <smiles>  (33) 
[H]c1nc(N([H])[H])c(C([H])([H])N([H])C(=O)N2C([H])([H])C([H])([H])C([H])([H])C([H])(n3nc(-c4c([H])c([H])c(Oc5c([H])c([H])c(F)c([H])c5F)c([H])c4[H])c(C(=O)N([H])[H])c3N([H])[H])C2([H])[H])nc1N([H])C([H])([H])C([H])([H])Oc1c([H])c([H])c2c(c1[H])C([H])([H])N(C(=O)C([H])(N([H])C(=O)C([H])(N([H])C([H])([H])[H])C([H])([H])[H])C(C([H])([H])[H])(C([H])([H])[H])C([H])([H])[H])C([H])(C(=O)N([H])C1([H])c3c([H])c([H])c([H])c([H])c3C([H])([H])C([H])([H])C1([H])[H])C2([H])[H]

$$$$
33:0:0
     RDKit          3D

 93101  0  0  1  0  0  0  0  0999 V2000
  -28.7790  -18.0220   20.7080 C   0  0  0  0  0  3  0  0  0  0  0  0
  -29.9550  -17.2050   20.7060 C   0  0  0  0  0  0  0  0  0  0  0  0
  -29.9780  -20.0270   20.5910 C   0  0  0  0  0  0  0  0  0  0  0  0
  -31.1670  -19.2280   20.6130 C   0  0  0  0  0  0  0  0  0  0  0  0
  -28.7770  -19.3940   20.6400 N   0  0  0  0  0  0  0  0  0  0  0  0
  -31.1540  -17.8560   20.6600 N   0  0  0  0  0  0  0  0  0  0  0  0
  -30.0550  -21.4640   20.5500 N   0  0  0  0  0  0  0  0  0  0  0  0
  -32.3720  -19.8480   20.5960 F   0  0  0  0  0  0  0  0  0  0  0  0
  -31.0120  -21.8020   20.4910 H   0  0  0  0  0  0  0  0  0  0  0  0
  -30.5780  -14.6860   20.4630 C   0  0  0  0  0  0  0  0  0  0  0  0
  -30.3730  -12.4460   19.3890 C   0  0  0  0  0  2  0  0  0  0  0  0
  -29.4350  -12.5620   18.1660 C   0  0  0  0  0  2  0  0  0  0  0  0
  -27.9580  -12.4080   18.5800 C   0  0  0  0  0  2  0  0  0  0  0  0
  -27.5910  -13.2720   19.8170 C   0  0  0  0  0  3  0  0  0  0  0  0
  -28.6410  -13.1210   20.9400 C   0  0  0  0  0  2  0  0  0  0  0  0
  -29.9530  -13.4660   20.3720 N   0  0  0  0  0  0  0  0  0  0  0  0
  -31.7500  -14.8210   20.0980 O   0  0  0  0  0  0  0  0  0  0  0  0
  -29.7730  -15.7520   20.7810 N   0  0  0  0  0  0  0  0  0  0  0  0
  -28.8310  -15.4690   21.0050 H   0  0  0  0  0  0  0  0  0  0  0  0
  -25.1930  -13.8800   20.5140 C   0  0  0  0  0  0  0  0  0  0  0  0
  -24.1220  -13.1110   20.8790 C   0  0  0  0  0  0  0  0  0  0  0  0
  -24.5790  -11.7570   20.8550 C   0  0  0  0  0  0  0  0  0  0  0  0
  -26.2370  -12.9950   20.2890 N   0  0  0  0  0  0  0  0  0  0  0  0
  -25.8730  -11.7140   20.5560 N   0  0  0  0  0  0  0  0  0  0  0  0
  -23.8460  -10.4990   21.0420 C   0  0  0  0  0  0  0  0  0  0  0  0
  -24.2710   -9.5300   21.9790 C   0  0  0  0  0  3  0  0  0  0  0  0
  -23.5400   -8.3340   22.1530 C   0  0  0  0  0  3  0  0  0  0  0  0
  -22.3710   -8.1000   21.3910 C   0  0  0  0  0  0  0  0  0  0  0  0
  -21.9650   -9.0580   20.4430 C   0  0  0  0  0  3  0  0  0  0  0  0
  -22.6970  -10.2440   20.2680 C   0  0  0  0  0  3  0  0  0  0  0  0
  -21.6110   -6.9570   21.4760 O   0  0  0  0  0  0  0  0  0  0  0  0
  -21.5510   -6.2180   22.6300 C   0  0  0  0  0  0  0  0  0  0  0  0
  -21.1090   -6.7720   23.8500 C   0  0  0  0  0  3  0  0  0  0  0  0
  -20.9960   -5.9570   24.9940 C   0  0  0  0  0  3  0  0  0  0  0  0
  -21.3170   -4.5880   24.9190 C   0  0  0  0  0  0  0  0  0  0  0  0
  -21.7550   -4.0330   23.7020 C   0  0  0  0  0  3  0  0  0  0  0  0
  -21.8680   -4.8450   22.5600 C   0  0  0  0  0  0  0  0  0  0  0  0
  -22.2700   -4.3010   21.3860 F   0  0  0  0  0  0  0  0  0  0  0  0
  -21.2010   -3.8030   26.0140 F   0  0  0  0  0  0  0  0  0  0  0  0
  -22.7230  -13.5940   21.1350 C   0  0  0  0  0  0  0  0  0  0  0  0
  -21.9840  -12.9070   21.9990 N   0  0  0  0  0  0  0  0  0  0  0  0
  -22.2930  -14.6150   20.6010 O   0  0  0  0  0  0  0  0  0  0  0  0
  -22.3430  -12.0800   22.4540 H   0  0  0  0  0  0  0  0  0  0  0  0
  -21.0460  -13.2150   22.2100 H   0  0  0  0  0  0  0  0  0  0  0  0
  -25.3630  -15.2490   20.3330 N   0  0  0  0  0  0  0  0  0  0  0  0
  -24.5890  -15.8970   20.4320 H   0  0  0  0  0  0  0  0  0  0  0  0
  -26.1780  -15.6720   19.9110 H   0  0  0  0  0  0  0  0  0  0  0  0
  -28.9980  -22.4290   20.1120 C   0  0  0  0  0  3  0  0  0  0  0  0
  -29.8480  -22.6390   17.6740 C   0  0  0  0  0  1  0  0  0  0  0  0
  -28.6990  -22.2280   18.6100 C   0  0  0  0  0  2  0  0  0  0  0  0
  -29.2830  -23.9790   20.4490 C   0  0  0  0  0  3  0  0  0  0  0  0
  -28.1870  -25.0590   20.0140 C   0  0  0  0  0  3  0  0  0  0  0  0
  -28.3650  -26.5030   20.3010 O   0  0  0  0  0  0  0  0  0  0  0  0
  -24.6250  -31.8940   23.3020 C   0  0  0  0  0  0  0  0  0  0  0  0
  -27.2380  -27.3440   20.2360 C   0  0  0  0  0  0  0  0  0  0  0  0
  -23.4170  -30.5030   21.6570 C   0  0  0  0  0  3  0  0  0  0  0  0
  -24.8660  -28.9530   20.2270 C   0  0  0  0  0  0  0  0  0  0  0  0
  -25.9570  -30.8180   21.4750 C   0  0  0  0  0  2  0  0  0  0  0  0
  -26.0340  -29.4420   20.8230 C   0  0  0  0  0  0  0  0  0  0  0  0
  -27.2220  -28.6500   20.8160 C   0  0  0  0  0  3  0  0  0  0  0  0
  -26.0420  -26.9100   19.6140 C   0  0  0  0  0  3  0  0  0  0  0  0
  -24.8720  -27.6920   19.6140 C   0  0  0  0  0  3  0  0  0  0  0  0
  -23.6290  -29.8270   20.2770 C   0  0  0  0  0  2  0  0  0  0  0  0
  -24.6850  -31.0890   22.2010 N   0  0  0  0  0  0  0  0  0  0  0  0
  -23.5420  -32.1720   23.8380 O   0  0  0  0  0  0  0  0  0  0  0  0
  -22.7500  -29.4860   22.6150 C   0  0  0  0  0  0  0  0  0  0  0  0
  -21.4250  -29.3090   22.4820 N   0  0  0  0  0  0  0  0  0  0  0  0
  -23.4250  -28.8610   23.4360 O   0  0  0  0  0  0  0  0  0  0  0  0
  -20.9390  -29.8680   21.7950 H   0  0  0  0  0  0  0  0  0  0  0  0
  -18.0460  -28.1090   22.9630 C   0  0  0  0  0  0  0  0  0  0  0  0
  -20.6020  -28.3710   23.2480 C   0  0  0  0  0  3  0  0  0  0  0  0
  -20.7080  -26.9380   22.6760 C   0  0  0  0  0  2  0  0  0  0  0  0
  -19.6140  -26.6120   21.6550 C   0  0  0  0  0  2  0  0  0  0  0  0
  -18.2280  -26.7580   22.2910 C   0  0  0  0  0  2  0  0  0  0  0  0
  -19.1610  -28.8730   23.3980 C   0  0  0  0  0  0  0  0  0  0  0  0
  -18.9380  -30.1360   23.9860 C   0  0  0  0  0  3  0  0  0  0  0  0
  -17.6320  -30.6380   24.1430 C   0  0  0  0  0  3  0  0  0  0  0  0
  -16.5300  -29.8700   23.7250 C   0  0  0  0  0  3  0  0  0  0  0  0
  -16.7380  -28.6070   23.1420 C   0  0  0  0  0  3  0  0  0  0  0  0
  -25.9100  -32.5200   23.9270 C   0  0  0  0  0  3  0  0  0  0  0  0
  -26.4110  -31.7570   25.2150 C   0  0  1  0  0  0  0  0  0  0  0  0
  -25.3110  -31.5420   26.2800 C   0  0  0  0  0  1  0  0  0  0  0  0
  -26.9820  -30.3680   24.8420 C   0  0  0  0  0  1  0  0  0  0  0  0
  -27.5660  -32.5470   25.8760 C   0  0  0  0  0  1  0  0  0  0  0  0
  -25.6120  -33.9240   24.2420 N   0  0  0  0  0  0  0  0  0  0  0  0
  -25.9460  -34.9650   23.4680 C   0  0  0  0  0  0  0  0  0  0  0  0
  -26.6080  -34.8460   22.4340 O   0  0  0  0  0  0  0  0  0  0  0  0
  -25.0240  -34.0910   25.0450 H   0  0  0  0  0  0  0  0  0  0  0  0
  -24.2210  -36.7630   23.1120 C   0  0  0  0  0  1  0  0  0  0  0  0
  -25.4700  -36.3620   23.9140 C   0  0  0  0  0  3  0  0  0  0  0  0
  -27.6210  -37.2450   24.7050 C   0  0  0  0  0  1  0  0  0  0  0  0
  -26.5030  -37.4110   23.7790 N   0  0  0  0  0  0  0  0  0  0  0  0
  -26.1020  -38.3330   23.9290 H   0  0  0  0  0  0  0  0  0  0  0  0
  2  1  1  0
  2 18  1  0
  3  4  2  0
  3  5  1  0
  4  6  1  0
  5  1  2  0
  6  2  2  0
  7  3  1  0
  8  4  1  0
  9  7  1  0
 10 18  1  0
 11 16  1  0
 12 13  1  0
 12 11  1  0
 14 13  1  0
 14 23  1  0
 14 15  1  0
 16 10  1  0
 16 15  1  0
 17 10  2  0
 18 19  1  0
 20 21  2  0
 21 40  1  0
 22 21  1  0
 22 25  1  0
 23 20  1  0
 23 24  1  0
 24 22  2  0
 25 26  1  0
 26 27  2  0
 28 31  1  0
 28 27  1  0
 29 28  2  0
 30 29  1  0
 30 25  2  0
 31 32  1  0
 32 33  1  0
 33 34  2  0
 35 34  1  0
 35 39  1  0
 36 35  2  0
 37 32  2  0
 37 36  1  0
 38 37  1  0
 40 41  1  0
 41 44  1  0
 41 43  1  0
 42 40  2  0
 45 46  1  0
 45 20  1  0
 47 45  1  0
 48 50  1  0
 48 51  1  0
 48  7  1  0
 49 50  1  0
 52 53  1  0
 52 51  2  0
 54 65  2  0
 55 53  1  0
 55 60  1  0
 56 64  1  0
 56 66  1  0
 57 63  1  0
 57 59  1  0
 58 64  1  0
 59 58  1  0
 60 59  2  0
 61 62  1  0
 61 55  2  0
 62 57  2  0
 63 56  1  0
 64 54  1  0
 66 68  2  0
 67 66  1  0
 69 67  1  0
 70 79  2  0
 70 75  1  0
 71 67  1  0
 71 75  1  0
 72 71  1  0
 73 74  1  0
 73 72  1  0
 74 70  1  0
 75 76  2  0
 76 77  1  0
 78 77  2  0
 79 78  1  0
 80 54  1  0
 80 85  1  0
 80 81  1  0
 81 84  1  1
 81 82  1  0
 83 81  1  0
 85 88  1  0
 86 90  1  0
 86 85  1  0
 87 86  2  0
 90 89  1  0
 92 90  1  0
 92 93  1  0
 92 91  1  0
M  ISO  4  10 100  18 100  52 101  53 101
M  END
>  <TORSDO>  (34) 
F 20

>  <SCORE>  (34) 
-13.950

>  <name>  (34) 
33

>  <ligand_id>  (34) 
33

>  <original_smiles>  (34) 
[H]c1nc(N([H])C([H])(C([H])([H])C([H])([H])[H])C([H])([H])C([H])([H])Oc2c([H])c([H])c3c(c2[H])C([H])([H])N(C(=O)C([H])(N([H])C(=O)C([H])(N([H])C([H])([H])[H])C([H])([H])[H])C(C([H])([H])[H])(C([H])([H])[H])C([H])([H])[H])C([H])(C(=O)N([H])C2([H])c4c([H])c([H])c([H])c([H])c4C([H])([H])C([H])([H])C2([H])[H])C3([H])[H])c(F)nc1N([H])C(=O)N1C([H])([H])C([H])([H])C([H])([H])C([H])(n2nc(-c3c([H])c([H])c(Oc4c([H])c([H])c(F)c([H])c4F)c([H])c3[H])c(C(=O)N([H])[H])c2N([H])[H])C1([H])[H]

>  <smiles>  (34) 
[H]c1nc(N([H])C([H])(C([H])([H])C([H])([H])[H])C([H])([H])C([H])([H])Oc2c([H])c([H])c3c(c2[H])C([H])([H])N(C(=O)C([H])(N([H])C(=O)C([H])(N([H])C([H])([H])[H])C([H])([H])[H])C(C([H])([H])[H])(C([H])([H])[H])C([H])([H])[H])C([H])(C(=O)N([H])C2([H])c4c([H])c([H])c([H])c([H])c4C([H])([H])C([H])([H])C2([H])[H])C3([H])[H])c(F)nc1N([H])C(=O)N1C([H])([H])C([H])([H])C([H])([H])C([H])(n2nc(-c3c([H])c([H])c(Oc4c([H])c([H])c(F)c([H])c4F)c([H])c3[H])c(C(=O)N([H])[H])c2N([H])[H])C1([H])[H]

$$$$
34:0:0
     RDKit          3D

 92100  0  0  1  0  0  0  0  0999 V2000
  -28.6830  -22.8490   20.6820 C   0  0  0  0  0  2  0  0  0  0  0  0
  -28.9010  -18.3140   21.0040 C   0  0  0  0  0  3  0  0  0  0  0  0
  -30.2430  -18.0200   20.9180 C   0  0  0  0  0  0  0  0  0  0  0  0
  -29.6730  -20.4140   20.5550 C   0  0  0  0  0  0  0  0  0  0  0  0
  -28.5920  -19.6750   20.8110 N   0  0  0  0  0  0  0  0  0  0  0  0
  -29.6660  -21.8000   20.3970 N   0  0  0  0  0  0  0  0  0  0  0  0
  -31.1550  -19.4630   20.5020 S   0  0  0  0  0  0  0  0  0  0  0  0
  -30.5830  -22.1990   20.2110 H   0  0  0  0  0  0  0  0  0  0  0  0
  -30.9670  -16.7250   21.2220 C   0  0  0  0  0  2  0  0  0  0  0  0
  -30.8560  -14.4810   20.1120 C   0  0  0  0  0  0  0  0  0  0  0  0
  -30.4580  -12.3380   18.9490 C   0  0  0  0  0  2  0  0  0  0  0  0
  -29.4750  -12.5460   17.7800 C   0  0  0  0  0  2  0  0  0  0  0  0
  -28.0180  -12.4240   18.2670 C   0  0  0  0  0  2  0  0  0  0  0  0
  -27.7390  -13.2720   19.5370 C   0  0  0  0  0  3  0  0  0  0  0  0
  -28.8310  -13.0480   20.6070 C   0  0  0  0  0  2  0  0  0  0  0  0
  -30.1370  -13.3320   19.9870 N   0  0  0  0  0  0  0  0  0  0  0  0
  -31.9390  -14.6470   19.5450 O   0  0  0  0  0  0  0  0  0  0  0  0
  -30.2960  -15.4680   20.8390 N   0  0  0  0  0  0  0  0  0  0  0  0
  -29.4010  -15.2670   21.2590 H   0  0  0  0  0  0  0  0  0  0  0  0
  -25.3790  -13.9110   20.3400 C   0  0  0  0  0  0  0  0  0  0  0  0
  -24.3140  -13.1530   20.7470 C   0  0  0  0  0  0  0  0  0  0  0  0
  -24.7520  -11.7950   20.6920 C   0  0  0  0  0  0  0  0  0  0  0  0
  -26.4010  -13.0160   20.0660 N   0  0  0  0  0  0  0  0  0  0  0  0
  -26.0290  -11.7370   20.3350 N   0  0  0  0  0  0  0  0  0  0  0  0
  -24.0140  -10.5440   20.9050 C   0  0  0  0  0  0  0  0  0  0  0  0
  -24.4460   -9.5810   21.8450 C   0  0  0  0  0  3  0  0  0  0  0  0
  -23.7090   -8.3930   22.0440 C   0  0  0  0  0  3  0  0  0  0  0  0
  -22.5260   -8.1600   21.3030 C   0  0  0  0  0  0  0  0  0  0  0  0
  -22.1140   -9.1100   20.3540 C   0  0  0  0  0  3  0  0  0  0  0  0
  -22.8500  -10.2890   20.1520 C   0  0  0  0  0  3  0  0  0  0  0  0
  -21.7610   -7.0250   21.4120 O   0  0  0  0  0  0  0  0  0  0  0  0
  -21.6920   -6.3110   22.5820 C   0  0  0  0  0  0  0  0  0  0  0  0
  -21.2520   -6.8990   23.7880 C   0  0  0  0  0  3  0  0  0  0  0  0
  -21.1320   -6.1110   24.9510 C   0  0  0  0  0  3  0  0  0  0  0  0
  -21.4410   -4.7380   24.9080 C   0  0  0  0  0  0  0  0  0  0  0  0
  -21.8730   -4.1510   23.7060 C   0  0  0  0  0  3  0  0  0  0  0  0
  -21.9960   -4.9350   22.5460 C   0  0  0  0  0  0  0  0  0  0  0  0
  -22.3930   -4.3600   21.3860 F   0  0  0  0  0  0  0  0  0  0  0  0
  -21.3170   -3.9810   26.0230 F   0  0  0  0  0  0  0  0  0  0  0  0
  -22.9360  -13.6510   21.0750 C   0  0  0  0  0  0  0  0  0  0  0  0
  -22.2300  -12.9620   21.9650 N   0  0  0  0  0  0  0  0  0  0  0  0
  -22.4950  -14.6870   20.5780 O   0  0  0  0  0  0  0  0  0  0  0  0
  -22.6000  -12.1240   22.3890 H   0  0  0  0  0  0  0  0  0  0  0  0
  -21.3070  -13.2770   22.2260 H   0  0  0  0  0  0  0  0  0  0  0  0
  -25.5600  -15.2800   20.1610 N   0  0  0  0  0  0  0  0  0  0  0  0
  -24.8050  -15.9450   20.2900 H   0  0  0  0  0  0  0  0  0  0  0  0
  -26.3980  -15.7000   19.7810 H   0  0  0  0  0  0  0  0  0  0  0  0
  -29.1520  -24.2690   20.2460 C   0  0  0  0  0  3  0  0  0  0  0  0
  -30.4650  -24.4350   20.7640 O   0  0  0  0  0  0  0  0  0  0  0  0
  -30.4100  -24.3400   21.7090 H   0  0  0  0  0  0  0  0  0  0  0  0
  -28.2260  -25.3930   20.8020 C   0  0  0  0  0  2  0  0  0  0  0  0
  -28.4150  -26.6920   20.1960 O   0  0  0  0  0  0  0  0  0  0  0  0
  -24.5970  -31.8740   23.2830 C   0  0  0  0  0  0  0  0  0  0  0  0
  -27.2780  -27.4730   20.1710 C   0  0  0  0  0  0  0  0  0  0  0  0
  -23.4200  -30.5130   21.5860 C   0  0  0  0  0  3  0  0  0  0  0  0
  -24.8960  -29.0010   20.1570 C   0  0  0  0  0  0  0  0  0  0  0  0
  -25.9510  -30.8620   21.4500 C   0  0  0  0  0  2  0  0  0  0  0  0
  -26.0460  -29.5050   20.7810 C   0  0  0  0  0  0  0  0  0  0  0  0
  -27.2430  -28.7500   20.7820 C   0  0  0  0  0  3  0  0  0  0  0  0
  -26.1160  -26.9950   19.5280 C   0  0  0  0  0  3  0  0  0  0  0  0
  -24.9270  -27.7460   19.5250 C   0  0  0  0  0  3  0  0  0  0  0  0
  -23.6550  -29.8640   20.1970 C   0  0  0  0  0  2  0  0  0  0  0  0
  -24.6730  -31.0970   22.1650 N   0  0  0  0  0  0  0  0  0  0  0  0
  -23.5060  -32.1410   23.8050 O   0  0  0  0  0  0  0  0  0  0  0  0
  -22.7430  -29.4750   22.5110 C   0  0  0  0  0  0  0  0  0  0  0  0
  -21.4220  -29.3000   22.3500 N   0  0  0  0  0  0  0  0  0  0  0  0
  -23.4060  -28.8320   23.3280 O   0  0  0  0  0  0  0  0  0  0  0  0
  -20.9480  -29.8710   21.6650 H   0  0  0  0  0  0  0  0  0  0  0  0
  -18.0340  -28.1010   22.7380 C   0  0  0  0  0  0  0  0  0  0  0  0
  -20.5840  -28.3500   23.0820 C   0  0  0  0  0  3  0  0  0  0  0  0
  -20.7000  -26.9290   22.4850 C   0  0  0  0  0  2  0  0  0  0  0  0
  -19.6260  -26.6250   21.4360 C   0  0  0  0  0  2  0  0  0  0  0  0
  -18.2280  -26.7630   22.0450 C   0  0  0  0  0  2  0  0  0  0  0  0
  -19.1410  -28.8540   23.2110 C   0  0  0  0  0  0  0  0  0  0  0  0
  -18.9090  -30.1080   23.8160 C   0  0  0  0  0  3  0  0  0  0  0  0
  -17.6010  -30.6080   23.9540 C   0  0  0  0  0  3  0  0  0  0  0  0
  -16.5080  -29.8520   23.4990 C   0  0  0  0  0  3  0  0  0  0  0  0
  -16.7240  -28.6000   22.8960 C   0  0  0  0  0  3  0  0  0  0  0  0
  -25.8730  -32.4860   23.9420 C   0  0  0  0  0  3  0  0  0  0  0  0
  -25.5690  -33.8820   24.2830 N   0  0  0  0  0  0  0  0  0  0  0  0
  -25.9370  -34.9400   23.5490 C   0  0  0  0  0  0  0  0  0  0  0  0
  -26.6390  -34.8440   22.5380 O   0  0  0  0  0  0  0  0  0  0  0  0
  -24.9520  -34.0320   25.0670 H   0  0  0  0  0  0  0  0  0  0  0  0
  -24.2410  -36.7560   23.1610 C   0  0  0  0  0  1  0  0  0  0  0  0
  -25.4500  -36.3270   24.0090 C   0  0  0  0  0  3  0  0  0  0  0  0
  -27.5640  -37.1760   24.9230 C   0  0  0  0  0  1  0  0  0  0  0  0
  -26.4960  -37.3700   23.9460 N   0  0  0  0  0  0  0  0  0  0  0  0
  -26.0960  -38.2920   24.0930 H   0  0  0  0  0  0  0  0  0  0  0  0
  -26.3540  -31.6920   25.2180 C   0  0  1  0  0  0  0  0  0  0  0  0
  -25.2350  -31.4440   26.2560 C   0  0  0  0  0  1  0  0  0  0  0  0
  -26.9390  -30.3170   24.8160 C   0  0  0  0  0  1  0  0  0  0  0  0
  -27.4940  -32.4680   25.9190 C   0  0  0  0  0  1  0  0  0  0  0  0
  3  2  2  0
  3  9  1  0
  4  5  2  0
  5  2  1  0
  6  4  1  0
  6  1  1  0
  7  4  1  0
  7  3  1  0
  8  6  1  0
 10 18  1  0
 11 16  1  0
 12 13  1  0
 12 11  1  0
 14 13  1  0
 14 23  1  0
 14 15  1  0
 16 10  1  0
 16 15  1  0
 17 10  2  0
 18  9  1  0
 18 19  1  0
 20 21  2  0
 21 40  1  0
 22 21  1  0
 22 25  1  0
 23 24  1  0
 23 20  1  0
 24 22  2  0
 25 26  1  0
 26 27  2  0
 28 31  1  0
 28 27  1  0
 29 28  2  0
 30 29  1  0
 30 25  2  0
 31 32  1  0
 32 33  1  0
 33 34  2  0
 35 34  1  0
 35 39  1  0
 36 35  2  0
 37 32  2  0
 37 36  1  0
 38 37  1  0
 40 41  1  0
 41 44  1  0
 41 43  1  0
 42 40  2  0
 45 46  1  0
 45 20  1  0
 47 45  1  0
 48  1  1  0
 48 49  1  0
 48 51  1  0
 49 50  1  0
 52 51  1  0
 53 64  2  0
 54 52  1  0
 54 59  1  0
 55 63  1  0
 55 65  1  0
 56 62  1  0
 56 58  1  0
 57 63  1  0
 58 59  2  0
 58 57  1  0
 60 54  2  0
 61 60  1  0
 61 56  2  0
 62 55  1  0
 63 53  1  0
 65 67  2  0
 66 65  1  0
 68 66  1  0
 69 78  2  0
 69 74  1  0
 70 66  1  0
 70 74  1  0
 71 70  1  0
 72 73  1  0
 72 71  1  0
 73 69  1  0
 74 75  2  0
 75 76  1  0
 77 76  2  0
 78 77  1  0
 79 53  1  0
 79 80  1  0
 79 89  1  0
 80 83  1  0
 81 85  1  0
 81 80  1  0
 82 81  2  0
 85 84  1  0
 87 85  1  0
 87 88  1  0
 87 86  1  0
 89 92  1  1
 89 90  1  0
 91 89  1  0
M  ISO  4  10 100  18 100  51 101  52 101
M  END
>  <TORSDO>  (35) 
F 21

>  <SCORE>  (35) 
-13.330

>  <name>  (35) 
34

>  <ligand_id>  (35) 
34

>  <original_smiles>  (35) 
[H]OC([H])(C([H])([H])Oc1c([H])c([H])c2c(c1[H])C([H])([H])N(C(=O)C([H])(N([H])C(=O)C([H])(N([H])C([H])([H])[H])C([H])([H])[H])C(C([H])([H])[H])(C([H])([H])[H])C([H])([H])[H])C([H])(C(=O)N([H])C1([H])c3c([H])c([H])c([H])c([H])c3C([H])([H])C([H])([H])C1([H])[H])C2([H])[H])C([H])([H])N([H])c1nc([H])c(C([H])([H])N([H])C(=O)N2C([H])([H])C([H])([H])C([H])([H])C([H])(n3nc(-c4c([H])c([H])c(Oc5c([H])c([H])c(F)c([H])c5F)c([H])c4[H])c(C(=O)N([H])[H])c3N([H])[H])C2([H])[H])s1

>  <smiles>  (35) 
[H]OC([H])(C([H])([H])Oc1c([H])c([H])c2c(c1[H])C([H])([H])N(C(=O)C([H])(N([H])C(=O)C([H])(N([H])C([H])([H])[H])C([H])([H])[H])C(C([H])([H])[H])(C([H])([H])[H])C([H])([H])[H])C([H])(C(=O)N([H])C1([H])c3c([H])c([H])c([H])c([H])c3C([H])([H])C([H])([H])C1([H])[H])C2([H])[H])C([H])([H])N([H])c1nc([H])c(C([H])([H])N([H])C(=O)N2C([H])([H])C([H])([H])C([H])([H])C([H])(n3nc(-c4c([H])c([H])c(Oc5c([H])c([H])c(F)c([H])c5F)c([H])c4[H])c(C(=O)N([H])[H])c3N([H])[H])C2([H])[H])s1

$$$$
35:0:0
     RDKit          3D

 91 99  0  0  1  0  0  0  0  0999 V2000
  -28.6340  -23.3040   20.9720 C   0  0  0  0  0  2  0  0  0  0  0  0
  -28.4360  -18.8110   20.1450 C   0  0  0  0  0  3  0  0  0  0  0  0
  -29.7110  -18.3530   20.3960 C   0  0  0  0  0  0  0  0  0  0  0  0
  -29.3700  -20.7690   20.8340 C   0  0  0  0  0  0  0  0  0  0  0  0
  -28.2570  -20.1830   20.3930 N   0  0  0  0  0  0  0  0  0  0  0  0
  -29.5060  -22.1330   21.0720 N   0  0  0  0  0  0  0  0  0  0  0  0
  -30.7060  -19.6390   21.0520 S   0  0  0  0  0  0  0  0  0  0  0  0
  -30.4270  -22.4020   21.4160 H   0  0  0  0  0  0  0  0  0  0  0  0
  -30.3000  -17.0020   20.0660 C   0  0  0  0  0  2  0  0  0  0  0  0
  -29.9730  -15.7920   20.9930 C   0  0  0  0  0  2  0  0  0  0  0  0
  -30.6740  -14.4970   20.4890 C   0  0  0  0  0  0  0  0  0  0  0  0
  -30.3780  -12.3310   19.3500 C   0  0  0  0  0  2  0  0  0  0  0  0
  -29.4590  -12.5460   18.1290 C   0  0  0  0  0  2  0  0  0  0  0  0
  -27.9760  -12.4210   18.5340 C   0  0  0  0  0  2  0  0  0  0  0  0
  -27.6270  -13.2630   19.7900 C   0  0  0  0  0  3  0  0  0  0  0  0
  -28.6640  -13.0410   20.9150 C   0  0  0  0  0  2  0  0  0  0  0  0
  -29.9970  -13.3230   20.3680 N   0  0  0  0  0  0  0  0  0  0  0  0
  -31.8260  -14.6170   20.0640 O   0  0  0  0  0  0  0  0  0  0  0  0
  -25.2180  -13.8860   20.4460 C   0  0  0  0  0  0  0  0  0  0  0  0
  -24.1410  -13.1210   20.8060 C   0  0  0  0  0  0  0  0  0  0  0  0
  -24.6010  -11.7680   20.8070 C   0  0  0  0  0  0  0  0  0  0  0  0
  -26.2660  -12.9990   20.2500 N   0  0  0  0  0  0  0  0  0  0  0  0
  -25.8970  -11.7210   20.5250 N   0  0  0  0  0  0  0  0  0  0  0  0
  -23.8690  -10.5100   21.0030 C   0  0  0  0  0  0  0  0  0  0  0  0
  -24.2860   -9.5530   21.9530 C   0  0  0  0  0  3  0  0  0  0  0  0
  -23.5550   -8.3590   22.1370 C   0  0  0  0  0  3  0  0  0  0  0  0
  -22.3920   -8.1150   21.3690 C   0  0  0  0  0  0  0  0  0  0  0  0
  -21.9940   -9.0600   20.4070 C   0  0  0  0  0  3  0  0  0  0  0  0
  -22.7250  -10.2450   20.2230 C   0  0  0  0  0  3  0  0  0  0  0  0
  -21.6340   -6.9730   21.4600 O   0  0  0  0  0  0  0  0  0  0  0  0
  -21.5730   -6.2400   22.6190 C   0  0  0  0  0  0  0  0  0  0  0  0
  -21.1390   -6.8060   23.8370 C   0  0  0  0  0  3  0  0  0  0  0  0
  -21.0260   -5.9990   24.9870 C   0  0  0  0  0  3  0  0  0  0  0  0
  -21.3370   -4.6270   24.9190 C   0  0  0  0  0  0  0  0  0  0  0  0
  -21.7640   -4.0620   23.7050 C   0  0  0  0  0  3  0  0  0  0  0  0
  -21.8790   -4.8660   22.5580 C   0  0  0  0  0  0  0  0  0  0  0  0
  -22.2710   -4.3110   21.3860 F   0  0  0  0  0  0  0  0  0  0  0  0
  -21.2210   -3.8510   26.0210 F   0  0  0  0  0  0  0  0  0  0  0  0
  -22.7400  -13.6040   21.0450 C   0  0  0  0  0  0  0  0  0  0  0  0
  -21.9960  -12.9220   21.9080 N   0  0  0  0  0  0  0  0  0  0  0  0
  -22.3130  -14.6210   20.5010 O   0  0  0  0  0  0  0  0  0  0  0  0
  -22.3530  -12.0980   22.3690 H   0  0  0  0  0  0  0  0  0  0  0  0
  -21.0550  -13.2270   22.1110 H   0  0  0  0  0  0  0  0  0  0  0  0
  -25.3900  -15.2530   20.2490 N   0  0  0  0  0  0  0  0  0  0  0  0
  -24.6240  -15.9120   20.3320 H   0  0  0  0  0  0  0  0  0  0  0  0
  -26.2500  -15.6810   19.9350 H   0  0  0  0  0  0  0  0  0  0  0  0
  -29.4390  -24.6280   21.0860 C   0  0  0  0  0  3  0  0  0  0  0  0
  -30.3450  -24.4650   22.1700 O   0  0  0  0  0  0  0  0  0  0  0  0
  -29.8260  -24.2740   22.9450 H   0  0  0  0  0  0  0  0  0  0  0  0
  -28.5740  -25.9040   21.3200 C   0  0  0  0  0  2  0  0  0  0  0  0
  -28.3990  -26.6880   20.1350 O   0  0  0  0  0  0  0  0  0  0  0  0
  -24.6000  -31.8760   23.2330 C   0  0  0  0  0  0  0  0  0  0  0  0
  -27.2560  -27.4530   20.1500 C   0  0  0  0  0  0  0  0  0  0  0  0
  -23.3980  -30.4760   21.5840 C   0  0  0  0  0  3  0  0  0  0  0  0
  -24.8600  -28.9440   20.1580 C   0  0  0  0  0  0  0  0  0  0  0  0
  -25.9220  -30.8420   21.3900 C   0  0  0  0  0  2  0  0  0  0  0  0
  -26.0140  -29.4710   20.7530 C   0  0  0  0  0  0  0  0  0  0  0  0
  -27.2180  -28.7300   20.7520 C   0  0  0  0  0  3  0  0  0  0  0  0
  -26.0920  -26.9360   19.5490 C   0  0  0  0  0  3  0  0  0  0  0  0
  -24.8930  -27.6740   19.5550 C   0  0  0  0  0  3  0  0  0  0  0  0
  -23.6120  -29.7980   20.2030 C   0  0  0  0  0  2  0  0  0  0  0  0
  -24.6580  -31.0800   22.1280 N   0  0  0  0  0  0  0  0  0  0  0  0
  -23.5190  -32.1460   23.7730 O   0  0  0  0  0  0  0  0  0  0  0  0
  -22.7470  -29.4520   22.5430 C   0  0  0  0  0  0  0  0  0  0  0  0
  -21.4230  -29.2710   22.4140 N   0  0  0  0  0  0  0  0  0  0  0  0
  -23.4310  -28.8240   23.3560 O   0  0  0  0  0  0  0  0  0  0  0  0
  -20.9340  -29.8290   21.7280 H   0  0  0  0  0  0  0  0  0  0  0  0
  -18.0470  -28.0800   22.9070 C   0  0  0  0  0  0  0  0  0  0  0  0
  -20.6050  -28.3310   23.1810 C   0  0  0  0  0  3  0  0  0  0  0  0
  -20.7050  -26.9030   22.5980 C   0  0  0  0  0  2  0  0  0  0  0  0
  -19.6020  -26.5880   21.5830 C   0  0  0  0  0  2  0  0  0  0  0  0
  -18.2210  -26.7320   22.2260 C   0  0  0  0  0  2  0  0  0  0  0  0
  -19.1670  -28.8380   23.3410 C   0  0  0  0  0  0  0  0  0  0  0  0
  -18.9510  -30.0990   23.9370 C   0  0  0  0  0  3  0  0  0  0  0  0
  -17.6490  -30.6040   24.1030 C   0  0  0  0  0  3  0  0  0  0  0  0
  -16.5430  -29.8430   23.6860 C   0  0  0  0  0  3  0  0  0  0  0  0
  -16.7420  -28.5820   23.0940 C   0  0  0  0  0  3  0  0  0  0  0  0
  -25.8860  -32.5050   23.8560 C   0  0  0  0  0  3  0  0  0  0  0  0
  -25.5780  -33.9030   24.1880 N   0  0  0  0  0  0  0  0  0  0  0  0
  -25.9140  -34.9560   23.4310 C   0  0  0  0  0  0  0  0  0  0  0  0
  -26.5890  -34.8540   22.4020 O   0  0  0  0  0  0  0  0  0  0  0  0
  -24.9810  -34.0570   24.9870 H   0  0  0  0  0  0  0  0  0  0  0  0
  -24.1920  -36.7510   23.0660 C   0  0  0  0  0  1  0  0  0  0  0  0
  -25.4250  -36.3430   23.8880 C   0  0  0  0  0  3  0  0  0  0  0  0
  -27.5540  -37.2190   24.7400 C   0  0  0  0  0  1  0  0  0  0  0  0
  -26.4600  -37.3940   23.7890 N   0  0  0  0  0  0  0  0  0  0  0  0
  -26.0540  -38.3140   23.9400 H   0  0  0  0  0  0  0  0  0  0  0  0
  -26.4060  -31.7300   25.1290 C   0  0  1  0  0  0  0  0  0  0  0  0
  -25.3130  -31.4840   26.1950 C   0  0  0  0  0  1  0  0  0  0  0  0
  -26.9930  -30.3570   24.7250 C   0  0  0  0  0  1  0  0  0  0  0  0
  -27.5540  -32.5250   25.7940 C   0  0  0  0  0  1  0  0  0  0  0  0
  1  6  1  0
  2  5  1  0
  2  3  2  0
  3  7  1  0
  4  7  1  0
  4  6  1  0
  5  4  2  0
  6  8  1  0
  9  3  1  0
  9 10  1  0
 11 10  1  0
 12 17  1  0
 13 14  1  0
 13 12  1  0
 15 14  1  0
 15 22  1  0
 15 16  1  0
 17 11  1  0
 17 16  1  0
 18 11  2  0
 19 20  2  0
 20 21  1  0
 20 39  1  0
 21 24  1  0
 22 19  1  0
 22 23  1  0
 23 21  2  0
 24 25  1  0
 25 26  2  0
 27 30  1  0
 27 26  1  0
 28 27  2  0
 29 28  1  0
 29 24  2  0
 30 31  1  0
 31 32  1  0
 32 33  2  0
 34 33  1  0
 34 38  1  0
 35 34  2  0
 36 31  2  0
 36 35  1  0
 37 36  1  0
 39 40  1  0
 40 43  1  0
 40 42  1  0
 41 39  2  0
 44 45  1  0
 44 19  1  0
 46 44  1  0
 47  1  1  0
 47 50  1  0
 47 48  1  0
 48 49  1  0
 51 53  1  0
 51 50  1  0
 52 63  2  0
 53 58  1  0
 54 62  1  0
 54 64  1  0
 55 61  1  0
 55 57  1  0
 56 62  1  0
 57 56  1  0
 58 57  2  0
 59 60  1  0
 59 53  2  0
 60 55  2  0
 61 54  1  0
 62 52  1  0
 64 66  2  0
 65 64  1  0
 67 65  1  0
 68 77  2  0
 68 73  1  0
 69 65  1  0
 69 73  1  0
 70 69  1  0
 71 72  1  0
 71 70  1  0
 72 68  1  0
 73 74  2  0
 74 75  1  0
 76 75  2  0
 77 76  1  0
 78 52  1  0
 78 79  1  0
 78 88  1  0
 79 82  1  0
 80 84  1  0
 80 79  1  0
 81 80  2  0
 84 83  1  0
 86 84  1  0
 86 87  1  0
 86 85  1  0
 88 91  1  1
 88 89  1  0
 90 88  1  0
M  ISO  4  10 100  11 100  50 101  51 101
M  END
>  <TORSDO>  (36) 
F 22

>  <SCORE>  (36) 
-13.591

>  <name>  (36) 
35

>  <ligand_id>  (36) 
35

>  <original_smiles>  (36) 
[H]OC([H])(C([H])([H])Oc1c([H])c([H])c2c(c1[H])C([H])([H])N(C(=O)C([H])(N([H])C(=O)C([H])(N([H])C([H])([H])[H])C([H])([H])[H])C(C([H])([H])[H])(C([H])([H])[H])C([H])([H])[H])C([H])(C(=O)N([H])C1([H])c3c([H])c([H])c([H])c([H])c3C([H])([H])C([H])([H])C1([H])[H])C2([H])[H])C([H])([H])N([H])c1nc([H])c(C([H])([H])C([H])([H])C(=O)N2C([H])([H])C([H])([H])C([H])([H])C([H])(n3nc(-c4c([H])c([H])c(Oc5c([H])c([H])c(F)c([H])c5F)c([H])c4[H])c(C(=O)N([H])[H])c3N([H])[H])C2([H])[H])s1

>  <smiles>  (36) 
[H]OC([H])(C([H])([H])Oc1c([H])c([H])c2c(c1[H])C([H])([H])N(C(=O)C([H])(N([H])C(=O)C([H])(N([H])C([H])([H])[H])C([H])([H])[H])C(C([H])([H])[H])(C([H])([H])[H])C([H])([H])[H])C([H])(C(=O)N([H])C1([H])c3c([H])c([H])c([H])c([H])c3C([H])([H])C([H])([H])C1([H])[H])C2([H])[H])C([H])([H])N([H])c1nc([H])c(C([H])([H])C([H])([H])C(=O)N2C([H])([H])C([H])([H])C([H])([H])C([H])(n3nc(-c4c([H])c([H])c(Oc5c([H])c([H])c(F)c([H])c5F)c([H])c4[H])c(C(=O)N([H])[H])c3N([H])[H])C2([H])[H])s1

$$$$
36:0:0
     RDKit          3D

 90 98  0  0  1  0  0  0  0  0999 V2000
  -29.0550  -22.5010   19.7700 N   0  0  0  0  0  0  0  0  0  0  0  0
  -29.1540  -22.6000   18.7630 H   0  0  0  0  0  0  0  0  0  0  0  0
  -29.7000  -19.9920   19.4730 C   0  0  0  0  0  3  0  0  0  0  0  0
  -29.7010  -20.8660   21.6090 C   0  0  0  0  0  3  0  0  0  0  0  0
  -29.4610  -21.1890   20.2960 C   0  0  0  0  0  0  0  0  0  0  0  0
  -30.0950  -18.8130   20.1350 C   0  0  0  0  0  0  0  0  0  0  0  0
  -30.1670  -19.1770   21.8420 S   0  0  0  0  0  0  0  0  0  0  0  0
  -30.5920  -17.4400   19.5310 C   0  0  0  0  0  2  0  0  0  0  0  0
  -30.9410  -14.8940   19.8770 C   0  0  0  0  0  0  0  0  0  0  0  0
  -30.6820  -12.5870   18.9700 C   0  0  0  0  0  2  0  0  0  0  0  0
  -29.6770  -12.6200   17.7970 C   0  0  0  0  0  2  0  0  0  0  0  0
  -28.2380  -12.4530   18.3180 C   0  0  0  0  0  2  0  0  0  0  0  0
  -27.9260  -13.3790   19.5240 C   0  0  0  0  0  3  0  0  0  0  0  0
  -29.0480  -13.3440   20.5850 C   0  0  0  0  0  2  0  0  0  0  0  0
  -30.3060  -13.6730   19.9050 N   0  0  0  0  0  0  0  0  0  0  0  0
  -32.1050  -14.9640   19.4730 O   0  0  0  0  0  0  0  0  0  0  0  0
  -30.2010  -16.0560   20.0500 N   0  0  0  0  0  0  0  0  0  0  0  0
  -29.2440  -15.9390   20.3490 H   0  0  0  0  0  0  0  0  0  0  0  0
  -25.6140  -13.9840   20.4550 C   0  0  0  0  0  0  0  0  0  0  0  0
  -24.5580  -13.2160   20.8660 C   0  0  0  0  0  0  0  0  0  0  0  0
  -24.9830  -11.8580   20.7350 C   0  0  0  0  0  0  0  0  0  0  0  0
  -26.6150  -13.0960   20.0990 N   0  0  0  0  0  0  0  0  0  0  0  0
  -26.2470  -11.8090   20.3310 N   0  0  0  0  0  0  0  0  0  0  0  0
  -24.2400  -10.6050   20.9180 C   0  0  0  0  0  0  0  0  0  0  0  0
  -24.6320   -9.6470   21.8790 C   0  0  0  0  0  3  0  0  0  0  0  0
  -23.8870   -8.4590   22.0490 C   0  0  0  0  0  3  0  0  0  0  0  0
  -22.7400   -8.2190   21.2580 C   0  0  0  0  0  0  0  0  0  0  0  0
  -22.3680   -9.1660   20.2860 C   0  0  0  0  0  3  0  0  0  0  0  0
  -23.1120  -10.3460   20.1140 C   0  0  0  0  0  3  0  0  0  0  0  0
  -21.9720   -7.0830   21.3360 O   0  0  0  0  0  0  0  0  0  0  0  0
  -21.7640   -6.4340   22.5260 C   0  0  0  0  0  0  0  0  0  0  0  0
  -21.1410   -7.0700   23.6230 C   0  0  0  0  0  3  0  0  0  0  0  0
  -20.8840   -6.3450   24.8030 C   0  0  0  0  0  3  0  0  0  0  0  0
  -21.2420   -4.9870   24.8880 C   0  0  0  0  0  0  0  0  0  0  0  0
  -21.8580   -4.3500   23.7960 C   0  0  0  0  0  3  0  0  0  0  0  0
  -22.1150   -5.0720   22.6180 C   0  0  0  0  0  0  0  0  0  0  0  0
  -22.6900   -4.4490   21.5600 F   0  0  0  0  0  0  0  0  0  0  0  0
  -20.9880   -4.2880   26.0200 F   0  0  0  0  0  0  0  0  0  0  0  0
  -23.1970  -13.7100   21.2620 C   0  0  0  0  0  0  0  0  0  0  0  0
  -22.5200  -12.9940   22.1520 N   0  0  0  0  0  0  0  0  0  0  0  0
  -22.7470  -14.7650   20.8160 O   0  0  0  0  0  0  0  0  0  0  0  0
  -22.9000  -12.1410   22.5330 H   0  0  0  0  0  0  0  0  0  0  0  0
  -21.6090  -13.3070   22.4590 H   0  0  0  0  0  0  0  0  0  0  0  0
  -25.7990  -15.3570   20.3320 N   0  0  0  0  0  0  0  0  0  0  0  0
  -25.0570  -16.0180   20.5350 H   0  0  0  0  0  0  0  0  0  0  0  0
  -26.6210  -15.7950   19.9380 H   0  0  0  0  0  0  0  0  0  0  0  0
  -27.3140  -23.6060   21.2230 C   0  0  0  0  0  1  0  0  0  0  0  0
  -28.6360  -23.7930   20.4630 C   0  0  0  0  0  3  0  0  0  0  0  0
  -28.5080  -25.1220   19.5380 C   0  0  0  0  0  2  0  0  0  0  0  0
  -28.4120  -26.5120   20.1050 O   0  0  0  0  0  0  0  0  0  0  0  0
  -24.6730  -31.8920   23.1820 C   0  0  0  0  0  0  0  0  0  0  0  0
  -27.2670  -27.3380   20.0520 C   0  0  0  0  0  0  0  0  0  0  0  0
  -23.4520  -30.4870   21.5590 C   0  0  0  0  0  3  0  0  0  0  0  0
  -24.8890  -28.9540   20.0940 C   0  0  0  0  0  0  0  0  0  0  0  0
  -25.9850  -30.8240   21.3280 C   0  0  0  0  0  2  0  0  0  0  0  0
  -26.0640  -29.4460   20.6730 C   0  0  0  0  0  0  0  0  0  0  0  0
  -27.2510  -28.6480   20.6430 C   0  0  0  0  0  3  0  0  0  0  0  0
  -26.0620  -26.9070   19.4510 C   0  0  0  0  0  3  0  0  0  0  0  0
  -24.8920  -27.6960   19.4730 C   0  0  0  0  0  3  0  0  0  0  0  0
  -23.6460  -29.8210   20.1710 C   0  0  0  0  0  2  0  0  0  0  0  0
  -24.7240  -31.0860   22.0790 N   0  0  0  0  0  0  0  0  0  0  0  0
  -23.5980  -32.1560   23.7390 O   0  0  0  0  0  0  0  0  0  0  0  0
  -22.8190  -29.4610   22.5280 C   0  0  0  0  0  0  0  0  0  0  0  0
  -21.4950  -29.2580   22.4190 N   0  0  0  0  0  0  0  0  0  0  0  0
  -23.5180  -28.8490   23.3410 O   0  0  0  0  0  0  0  0  0  0  0  0
  -20.9890  -29.8060   21.7380 H   0  0  0  0  0  0  0  0  0  0  0  0
  -18.1520  -27.9750   22.9380 C   0  0  0  0  0  0  0  0  0  0  0  0
  -20.7030  -28.3070   23.2010 C   0  0  0  0  0  3  0  0  0  0  0  0
  -20.8430  -26.8720   22.6390 C   0  0  0  0  0  2  0  0  0  0  0  0
  -19.7490  -26.5100   21.6290 C   0  0  0  0  0  2  0  0  0  0  0  0
  -18.3640  -26.6240   22.2750 C   0  0  0  0  0  2  0  0  0  0  0  0
  -19.2510  -28.7710   23.3590 C   0  0  0  0  0  0  0  0  0  0  0  0
  -18.9980  -30.0330   23.9410 C   0  0  0  0  0  3  0  0  0  0  0  0
  -17.6800  -30.4980   24.1060 C   0  0  0  0  0  3  0  0  0  0  0  0
  -16.5960  -29.7000   23.7000 C   0  0  0  0  0  3  0  0  0  0  0  0
  -16.8330  -28.4400   23.1230 C   0  0  0  0  0  3  0  0  0  0  0  0
  -25.9600  -32.5370   23.7830 C   0  0  0  0  0  3  0  0  0  0  0  0
  -26.5260  -31.7510   25.0280 C   0  0  1  0  0  0  0  0  0  0  0  0
  -25.4670  -31.4640   26.1170 C   0  0  0  0  0  1  0  0  0  0  0  0
  -27.1300  -30.3960   24.5900 C   0  0  0  0  0  1  0  0  0  0  0  0
  -27.6770  -32.5560   25.6780 C   0  0  0  0  0  1  0  0  0  0  0  0
  -25.6340  -33.9230   24.1530 N   0  0  0  0  0  0  0  0  0  0  0  0
  -25.9100  -34.9970   23.4020 C   0  0  0  0  0  0  0  0  0  0  0  0
  -26.5370  -34.9280   22.3410 O   0  0  0  0  0  0  0  0  0  0  0  0
  -25.0730  -34.0500   24.9830 H   0  0  0  0  0  0  0  0  0  0  0  0
  -24.1340  -36.7610   23.1500 C   0  0  0  0  0  1  0  0  0  0  0  0
  -25.4130  -36.3670   23.9070 C   0  0  0  0  0  3  0  0  0  0  0  0
  -27.5530  -37.2840   24.6820 C   0  0  0  0  0  1  0  0  0  0  0  0
  -26.4190  -37.4430   23.7770 N   0  0  0  0  0  0  0  0  0  0  0  0
  -25.9990  -38.3520   23.9520 H   0  0  0  0  0  0  0  0  0  0  0  0
  1  5  1  0
  1 48  1  0
  2  1  1  0
  3  6  2  0
  3  5  1  0
  4  7  1  0
  5  4  2  0
  6  7  1  0
  8 17  1  0
  8  6  1  0
  9 15  1  0
  9 17  1  0
 10 15  1  0
 11 12  1  0
 11 10  1  0
 13 12  1  0
 13 22  1  0
 13 14  1  0
 15 14  1  0
 16  9  2  0
 17 18  1  0
 19 20  2  0
 20 39  1  0
 21 20  1  0
 21 24  1  0
 22 23  1  0
 22 19  1  0
 23 21  2  0
 24 25  1  0
 25 26  2  0
 27 30  1  0
 27 26  1  0
 28 27  2  0
 29 28  1  0
 29 24  2  0
 30 31  1  0
 31 36  2  0
 31 32  1  0
 32 33  2  0
 33 34  1  0
 34 38  1  0
 35 34  2  0
 36 35  1  0
 37 36  1  0
 39 40  1  0
 40 43  1  0
 40 42  1  0
 41 39  2  0
 44 19  1  0
 44 45  1  0
 46 44  1  0
 48 47  1  0
 49 50  1  0
 49 48  1  0
 51 62  2  0
 52 50  1  0
 52 57  1  0
 53 61  1  0
 53 63  1  0
 54 60  1  0
 54 56  1  0
 55 61  1  0
 56 55  1  0
 57 56  2  0
 58 59  1  0
 58 52  2  0
 59 54  2  0
 60 53  1  0
 61 51  1  0
 63 65  2  0
 64 63  1  0
 66 64  1  0
 67 76  2  0
 67 72  1  0
 68 64  1  0
 68 72  1  0
 69 68  1  0
 70 71  1  0
 70 69  1  0
 71 67  1  0
 72 73  2  0
 73 74  1  0
 75 74  2  0
 76 75  1  0
 77 51  1  0
 77 82  1  0
 77 78  1  0
 78 81  1  1
 78 79  1  0
 80 78  1  0
 82 85  1  0
 83 87  1  0
 83 82  1  0
 84 83  2  0
 87 86  1  0
 89 87  1  0
 89 90  1  0
 89 88  1  0
M  ISO  4   9 100  17 100  49 101  50 101
M  END
>  <TORSDO>  (37) 
F 20

>  <SCORE>  (37) 
-12.920

>  <name>  (37) 
36

>  <ligand_id>  (37) 
36

>  <original_smiles>  (37) 
[H]c1sc(C([H])([H])N([H])C(=O)N2C([H])([H])C([H])([H])C([H])([H])C([H])(n3nc(-c4c([H])c([H])c(Oc5c([H])c([H])c(F)c([H])c5F)c([H])c4[H])c(C(=O)N([H])[H])c3N([H])[H])C2([H])[H])c([H])c1N([H])C([H])(C([H])([H])[H])C([H])([H])Oc1c([H])c([H])c2c(c1[H])C([H])([H])N(C(=O)C([H])(N([H])C(=O)C([H])(N([H])C([H])([H])[H])C([H])([H])[H])C(C([H])([H])[H])(C([H])([H])[H])C([H])([H])[H])C([H])(C(=O)N([H])C1([H])c3c([H])c([H])c([H])c([H])c3C([H])([H])C([H])([H])C1([H])[H])C2([H])[H]

>  <smiles>  (37) 
[H]c1sc(C([H])([H])N([H])C(=O)N2C([H])([H])C([H])([H])C([H])([H])C([H])(n3nc(-c4c([H])c([H])c(Oc5c([H])c([H])c(F)c([H])c5F)c([H])c4[H])c(C(=O)N([H])[H])c3N([H])[H])C2([H])[H])c([H])c1N([H])C([H])(C([H])([H])[H])C([H])([H])Oc1c([H])c([H])c2c(c1[H])C([H])([H])N(C(=O)C([H])(N([H])C(=O)C([H])(N([H])C([H])([H])[H])C([H])([H])[H])C(C([H])([H])[H])(C([H])([H])[H])C([H])([H])[H])C([H])(C(=O)N([H])C1([H])c3c([H])c([H])c([H])c([H])c3C([H])([H])C([H])([H])C1([H])[H])C2([H])[H]

$$$$
37:0:0
     RDKit          3D

 94102  0  0  1  0  0  0  0  0999 V2000
  -28.5640  -21.5070   19.4210 C   0  0  0  0  0  1  0  0  0  0  0  0
  -29.1010  -21.9610   20.7980 C   0  0  0  0  0  3  0  0  0  0  0  0
  -29.0900  -20.8570   21.7710 N   0  0  0  0  0  0  0  0  0  0  0  0
  -28.8410  -21.1440   22.7140 H   0  0  0  0  0  0  0  0  0  0  0  0
  -30.7990  -19.4320   22.8350 C   0  0  0  0  0  3  0  0  0  0  0  0
  -30.0240  -19.8030   21.7680 C   0  0  0  0  0  0  0  0  0  0  0  0
  -31.1730  -18.0600   20.8480 C   0  0  0  0  0  0  0  0  0  0  0  0
  -30.2480  -19.0040   20.6470 N   0  0  0  0  0  0  0  0  0  0  0  0
  -31.8810  -18.1200   22.4540 S   0  0  0  0  0  0  0  0  0  0  0  0
  -31.5810  -17.0690   19.8160 C   0  0  0  0  0  2  0  0  0  0  0  0
  -31.6320  -14.6340   19.7520 C   0  0  0  0  0  0  0  0  0  0  0  0
  -31.2130  -12.3420   19.0080 C   0  0  0  0  0  2  0  0  0  0  0  0
  -30.2680  -12.4010   17.7920 C   0  0  0  0  0  2  0  0  0  0  0  0
  -28.7950  -12.3850   18.2520 C   0  0  0  0  0  2  0  0  0  0  0  0
  -28.5070  -13.4180   19.3740 C   0  0  0  0  0  3  0  0  0  0  0  0
  -29.5750  -13.3630   20.4900 C   0  0  0  0  0  2  0  0  0  0  0  0
  -30.9040  -13.4980   19.8600 N   0  0  0  0  0  0  0  0  0  0  0  0
  -32.7290  -14.6870   19.1880 O   0  0  0  0  0  0  0  0  0  0  0  0
  -31.0350  -15.7590   20.1540 N   0  0  0  0  0  0  0  0  0  0  0  0
  -30.1240  -15.7040   20.5840 H   0  0  0  0  0  0  0  0  0  0  0  0
  -26.2100  -14.2230   20.2180 C   0  0  0  0  0  0  0  0  0  0  0  0
  -25.0960  -13.5460   20.6310 C   0  0  0  0  0  0  0  0  0  0  0  0
  -25.4260  -12.1580   20.5480 C   0  0  0  0  0  0  0  0  0  0  0  0
  -27.1570  -13.2570   19.9140 N   0  0  0  0  0  0  0  0  0  0  0  0
  -26.6890  -12.0070   20.1680 N   0  0  0  0  0  0  0  0  0  0  0  0
  -24.5960  -10.9650   20.7590 C   0  0  0  0  0  0  0  0  0  0  0  0
  -24.9470   -9.9770   21.7060 C   0  0  0  0  0  3  0  0  0  0  0  0
  -24.1270   -8.8450   21.8990 C   0  0  0  0  0  3  0  0  0  0  0  0
  -22.9370   -8.6960   21.1450 C   0  0  0  0  0  0  0  0  0  0  0  0
  -22.6040   -9.6690   20.1850 C   0  0  0  0  0  3  0  0  0  0  0  0
  -23.4260  -10.7930   19.9920 C   0  0  0  0  0  3  0  0  0  0  0  0
  -22.0930   -7.6170   21.2460 O   0  0  0  0  0  0  0  0  0  0  0  0
  -21.9160   -6.9490   22.4310 C   0  0  0  0  0  0  0  0  0  0  0  0
  -21.4760   -7.6090   23.5990 C   0  0  0  0  0  3  0  0  0  0  0  0
  -21.2410   -6.8710   24.7770 C   0  0  0  0  0  3  0  0  0  0  0  0
  -21.4340   -5.4770   24.7850 C   0  0  0  0  0  0  0  0  0  0  0  0
  -21.8640   -4.8170   23.6210 C   0  0  0  0  0  3  0  0  0  0  0  0
  -22.1010   -5.5520   22.4460 C   0  0  0  0  0  0  0  0  0  0  0  0
  -22.4970   -4.9080   21.3210 F   0  0  0  0  0  0  0  0  0  0  0  0
  -21.1980   -4.7690   25.9160 F   0  0  0  0  0  0  0  0  0  0  0  0
  -23.7680  -14.1460   20.9910 C   0  0  0  0  0  0  0  0  0  0  0  0
  -23.0360  -13.5170   21.9050 N   0  0  0  0  0  0  0  0  0  0  0  0
  -23.3910  -15.2080   20.4980 O   0  0  0  0  0  0  0  0  0  0  0  0
  -23.3600  -12.6610   22.3300 H   0  0  0  0  0  0  0  0  0  0  0  0
  -22.1470  -13.9040   22.1880 H   0  0  0  0  0  0  0  0  0  0  0  0
  -26.4940  -15.5760   20.0580 N   0  0  0  0  0  0  0  0  0  0  0  0
  -25.7900  -16.2930   20.1960 H   0  0  0  0  0  0  0  0  0  0  0  0
  -27.3530  -15.9400   19.6670 H   0  0  0  0  0  0  0  0  0  0  0  0
  -28.3010  -23.1720   21.3670 C   0  0  0  0  0  2  0  0  0  0  0  0
  -28.8600  -24.6200   21.1510 C   0  0  0  0  0  3  0  0  0  0  0  0
  -28.2040  -25.4290   22.1120 O   0  0  0  0  0  0  0  0  0  0  0  0
  -28.3190  -26.3300   21.8200 H   0  0  0  0  0  0  0  0  0  0  0  0
  -28.6220  -25.2930   19.7630 C   0  0  0  0  0  2  0  0  0  0  0  0
  -28.6450  -26.7530   19.8070 O   0  0  0  0  0  0  0  0  0  0  0  0
  -24.6790  -31.7390   23.0600 C   0  0  0  0  0  0  0  0  0  0  0  0
  -27.4490  -27.4620   19.8070 C   0  0  0  0  0  0  0  0  0  0  0  0
  -23.5120  -30.3330   21.3940 C   0  0  0  0  0  3  0  0  0  0  0  0
  -25.0030  -28.9000   19.9030 C   0  0  0  0  0  0  0  0  0  0  0  0
  -26.0180  -30.7930   21.1720 C   0  0  0  0  0  2  0  0  0  0  0  0
  -26.1510  -29.4380   20.4960 C   0  0  0  0  0  0  0  0  0  0  0  0
  -27.3770  -28.7310   20.4420 C   0  0  0  0  0  3  0  0  0  0  0  0
  -26.2810  -26.9640   19.1870 C   0  0  0  0  0  3  0  0  0  0  0  0
  -25.0670  -27.6700   19.2310 C   0  0  0  0  0  3  0  0  0  0  0  0
  -23.7300  -29.7040   19.9900 C   0  0  0  0  0  2  0  0  0  0  0  0
  -24.7570  -30.9680   21.9370 N   0  0  0  0  0  0  0  0  0  0  0  0
  -23.5940  -31.9540   23.6180 O   0  0  0  0  0  0  0  0  0  0  0  0
  -22.9110  -29.2630   22.3350 C   0  0  0  0  0  0  0  0  0  0  0  0
  -21.5920  -29.0350   22.2190 N   0  0  0  0  0  0  0  0  0  0  0  0
  -23.6270  -28.6420   23.1240 O   0  0  0  0  0  0  0  0  0  0  0  0
  -21.0790  -29.5840   21.5430 H   0  0  0  0  0  0  0  0  0  0  0  0
  -18.2800  -27.6600   22.6880 C   0  0  0  0  0  0  0  0  0  0  0  0
  -20.8180  -28.0450   22.9680 C   0  0  0  0  0  3  0  0  0  0  0  0
  -20.9960  -26.6320   22.3650 C   0  0  0  0  0  2  0  0  0  0  0  0
  -19.9160  -26.2700   21.3430 C   0  0  0  0  0  2  0  0  0  0  0  0
  -18.5300  -26.3300   21.9920 C   0  0  0  0  0  2  0  0  0  0  0  0
  -19.3570  -28.4720   23.1310 C   0  0  0  0  0  0  0  0  0  0  0  0
  -19.0750  -29.7100   23.7480 C   0  0  0  0  0  3  0  0  0  0  0  0
  -17.7460  -30.1420   23.9180 C   0  0  0  0  0  3  0  0  0  0  0  0
  -16.6820  -29.3260   23.4910 C   0  0  0  0  0  3  0  0  0  0  0  0
  -16.9510  -28.0890   22.8810 C   0  0  0  0  0  3  0  0  0  0  0  0
  -25.9450  -32.4070   23.6810 C   0  0  0  0  0  3  0  0  0  0  0  0
  -25.5820  -33.7740   24.0730 N   0  0  0  0  0  0  0  0  0  0  0  0
  -25.8640  -34.8700   23.3540 C   0  0  0  0  0  0  0  0  0  0  0  0
  -26.5290  -34.8370   22.3160 O   0  0  0  0  0  0  0  0  0  0  0  0
  -24.9940  -33.8720   24.8880 H   0  0  0  0  0  0  0  0  0  0  0  0
  -24.0580  -36.5950   23.0820 C   0  0  0  0  0  1  0  0  0  0  0  0
  -25.3220  -36.2150   23.8690 C   0  0  0  0  0  3  0  0  0  0  0  0
  -27.4260  -37.1560   24.7180 C   0  0  0  0  0  1  0  0  0  0  0  0
  -26.3090  -37.3150   23.7890 N   0  0  0  0  0  0  0  0  0  0  0  0
  -25.8670  -38.2120   23.9780 H   0  0  0  0  0  0  0  0  0  0  0  0
  -26.5220  -31.6100   24.9140 C   0  0  1  0  0  0  0  0  0  0  0  0
  -25.4620  -31.2840   25.9920 C   0  0  0  0  0  1  0  0  0  0  0  0
  -27.1480  -30.2770   24.4450 C   0  0  0  0  0  1  0  0  0  0  0  0
  -27.6570  -32.4220   25.5800 C   0  0  0  0  0  1  0  0  0  0  0  0
  2  1  1  0
  2 49  1  0
  2  3  1  0
  3  4  1  0
  6  3  1  0
  6  5  2  0
  7  9  1  0
  8  7  2  0
  8  6  1  0
  9  5  1  0
 10 19  1  0
 10  7  1  0
 11 17  1  0
 11 19  1  0
 12 17  1  0
 13 14  1  0
 13 12  1  0
 15 14  1  0
 15 24  1  0
 15 16  1  0
 17 16  1  0
 18 11  2  0
 19 20  1  0
 21 22  2  0
 22 41  1  0
 23 22  1  0
 23 26  1  0
 24 25  1  0
 24 21  1  0
 25 23  2  0
 26 27  1  0
 27 28  2  0
 29 32  1  0
 29 28  1  0
 30 29  2  0
 31 30  1  0
 31 26  2  0
 32 33  1  0
 33 38  2  0
 33 34  1  0
 34 35  2  0
 35 36  1  0
 36 40  1  0
 37 36  2  0
 38 37  1  0
 39 38  1  0
 41 42  1  0
 42 45  1  0
 42 44  1  0
 43 41  2  0
 46 47  1  0
 46 21  1  0
 48 46  1  0
 50 53  1  0
 50 49  1  0
 50 51  1  0
 52 51  1  0
 53 54  1  0
 54 56  1  0
 55 66  2  0
 56 61  1  0
 57 65  1  0
 57 67  1  0
 58 64  1  0
 58 60  1  0
 59 65  1  0
 60 59  1  0
 61 60  2  0
 62 63  1  0
 62 56  2  0
 63 58  2  0
 64 57  1  0
 65 55  1  0
 67 69  2  0
 68 67  1  0
 70 68  1  0
 71 80  2  0
 71 76  1  0
 72 68  1  0
 72 76  1  0
 73 72  1  0
 74 75  1  0
 74 73  1  0
 75 71  1  0
 76 77  2  0
 77 78  1  0
 79 78  2  0
 80 79  1  0
 81 55  1  0
 81 82  1  0
 81 91  1  0
 82 85  1  0
 83 87  1  0
 83 82  1  0
 84 83  2  0
 87 86  1  0
 89 87  1  0
 89 90  1  0
 89 88  1  0
 91 94  1  1
 91 92  1  0
 93 91  1  0
M  ISO  4  11 100  19 100  53 101  54 101
M  END
>  <TORSDO>  (38) 
F 23

>  <SCORE>  (38) 
-10.842

>  <name>  (38) 
37

>  <ligand_id>  (38) 
37

>  <original_smiles>  (38) 
[H]OC([H])(C([H])([H])Oc1c([H])c([H])c2c(c1[H])C([H])([H])N(C(=O)C([H])(N([H])C(=O)C([H])(N([H])C([H])([H])[H])C([H])([H])[H])C(C([H])([H])[H])(C([H])([H])[H])C([H])([H])[H])C([H])(C(=O)N([H])C1([H])c3c([H])c([H])c([H])c([H])c3C([H])([H])C([H])([H])C1([H])[H])C2([H])[H])C([H])([H])C([H])(N([H])c1nc(C([H])([H])N([H])C(=O)N2C([H])([H])C([H])([H])C([H])([H])C([H])(n3nc(-c4c([H])c([H])c(Oc5c([H])c([H])c(F)c([H])c5F)c([H])c4[H])c(C(=O)N([H])[H])c3N([H])[H])C2([H])[H])sc1[H])C([H])([H])[H]

>  <smiles>  (38) 
[H]OC([H])(C([H])([H])Oc1c([H])c([H])c2c(c1[H])C([H])([H])N(C(=O)C([H])(N([H])C(=O)C([H])(N([H])C([H])([H])[H])C([H])([H])[H])C(C([H])([H])[H])(C([H])([H])[H])C([H])([H])[H])C([H])(C(=O)N([H])C1([H])c3c([H])c([H])c([H])c([H])c3C([H])([H])C([H])([H])C1([H])[H])C2([H])[H])C([H])([H])C([H])(N([H])c1nc(C([H])([H])N([H])C(=O)N2C([H])([H])C([H])([H])C([H])([H])C([H])(n3nc(-c4c([H])c([H])c(Oc5c([H])c([H])c(F)c([H])c5F)c([H])c4[H])c(C(=O)N([H])[H])c3N([H])[H])C2([H])[H])sc1[H])C([H])([H])[H]

$$$$
38:0:0
     RDKit          3D

 95103  0  0  1  0  0  0  0  0999 V2000
  -31.0520  -18.2400   20.5800 C   0  0  0  0  0  0  0  0  0  0  0  0
  -30.3650  -18.3830   21.7730 C   0  0  0  0  0  0  0  0  0  0  0  0
  -30.3400  -20.4500   20.4040 C   0  0  0  0  0  0  0  0  0  0  0  0
  -31.0420  -19.4490   19.8370 N   0  0  0  0  0  0  0  0  0  0  0  0
  -30.2340  -21.7460   19.8720 N   0  0  0  0  0  0  0  0  0  0  0  0
  -29.6450  -19.9730   21.9400 S   0  0  0  0  0  0  0  0  0  0  0  0
  -30.9520  -21.8630   19.1670 H   0  0  0  0  0  0  0  0  0  0  0  0
  -30.1970  -17.4810   22.8180 N   0  0  0  0  0  0  0  0  0  0  0  0
  -30.4080  -16.4930   22.7890 H   0  0  0  0  0  0  0  0  0  0  0  0
  -29.5300  -17.7110   23.5530 H   0  0  0  0  0  0  0  0  0  0  0  0
  -31.8360  -17.0310   20.0600 C   0  0  0  0  0  2  0  0  0  0  0  0
  -31.7250  -14.5760   19.6100 C   0  0  0  0  0  0  0  0  0  0  0  0
  -31.2290  -12.3090   18.7420 C   0  0  0  0  0  2  0  0  0  0  0  0
  -30.2210  -12.4690   17.5970 C   0  0  0  0  0  2  0  0  0  0  0  0
  -28.7900  -12.4030   18.1630 C   0  0  0  0  0  2  0  0  0  0  0  0
  -28.5850  -13.3530   19.3760 C   0  0  0  0  0  3  0  0  0  0  0  0
  -29.7350  -13.2250   20.4060 C   0  0  0  0  0  2  0  0  0  0  0  0
  -30.9920  -13.4260   19.6790 N   0  0  0  0  0  0  0  0  0  0  0  0
  -32.7760  -14.6300   18.9760 O   0  0  0  0  0  0  0  0  0  0  0  0
  -31.2060  -15.6930   20.1770 N   0  0  0  0  0  0  0  0  0  0  0  0
  -30.3540  -15.6290   20.7130 H   0  0  0  0  0  0  0  0  0  0  0  0
  -26.3670  -14.1130   20.4330 C   0  0  0  0  0  0  0  0  0  0  0  0
  -25.2690  -13.4160   20.8570 C   0  0  0  0  0  0  0  0  0  0  0  0
  -25.5630  -12.0360   20.6300 C   0  0  0  0  0  0  0  0  0  0  0  0
  -27.2690  -13.1610   19.9820 N   0  0  0  0  0  0  0  0  0  0  0  0
  -26.7970  -11.8990   20.1590 N   0  0  0  0  0  0  0  0  0  0  0  0
  -24.7210  -10.8400   20.7800 C   0  0  0  0  0  0  0  0  0  0  0  0
  -25.0600   -9.8010   21.6760 C   0  0  0  0  0  3  0  0  0  0  0  0
  -24.2210   -8.6760   21.8210 C   0  0  0  0  0  3  0  0  0  0  0  0
  -23.0270   -8.5800   21.0680 C   0  0  0  0  0  0  0  0  0  0  0  0
  -22.7050   -9.6040   20.1610 C   0  0  0  0  0  3  0  0  0  0  0  0
  -23.5430  -10.7210   20.0120 C   0  0  0  0  0  3  0  0  0  0  0  0
  -22.1650   -7.5120   21.1270 O   0  0  0  0  0  0  0  0  0  0  0  0
  -21.9380   -6.8320   22.2960 C   0  0  0  0  0  0  0  0  0  0  0  0
  -21.3950   -7.4690   23.4340 C   0  0  0  0  0  3  0  0  0  0  0  0
  -21.1080   -6.7200   24.5910 C   0  0  0  0  0  3  0  0  0  0  0  0
  -21.3570   -5.3340   24.6150 C   0  0  0  0  0  0  0  0  0  0  0  0
  -21.8930   -4.6960   23.4810 C   0  0  0  0  0  3  0  0  0  0  0  0
  -22.1780   -5.4440   22.3250 C   0  0  0  0  0  0  0  0  0  0  0  0
  -22.6740   -4.8180   21.2290 F   0  0  0  0  0  0  0  0  0  0  0  0
  -21.0770   -4.6120   25.7260 F   0  0  0  0  0  0  0  0  0  0  0  0
  -23.9780  -13.9950   21.3610 C   0  0  0  0  0  0  0  0  0  0  0  0
  -23.3000  -13.2840   22.2540 N   0  0  0  0  0  0  0  0  0  0  0  0
  -23.5930  -15.1040   21.0000 O   0  0  0  0  0  0  0  0  0  0  0  0
  -23.6260  -12.3770   22.5500 H   0  0  0  0  0  0  0  0  0  0  0  0
  -22.4440  -13.6490   22.6440 H   0  0  0  0  0  0  0  0  0  0  0  0
  -26.6710  -15.4710   20.3750 N   0  0  0  0  0  0  0  0  0  0  0  0
  -26.0130  -16.1920   20.6500 H   0  0  0  0  0  0  0  0  0  0  0  0
  -27.5210  -15.8550   19.9800 H   0  0  0  0  0  0  0  0  0  0  0  0
  -29.8100  -23.0690   20.3980 C   0  0  0  0  0  2  0  0  0  0  0  0
  -29.6010  -24.1950   19.3130 C   0  0  0  0  0  3  0  0  0  0  0  0
  -30.7780  -24.1790   18.5200 O   0  0  0  0  0  0  0  0  0  0  0  0
  -30.6970  -23.4290   17.9430 H   0  0  0  0  0  0  0  0  0  0  0  0
  -29.4010  -25.6250   19.9310 C   0  0  0  0  0  2  0  0  0  0  0  0
  -29.0750  -26.7000   19.0120 O   0  0  0  0  0  0  0  0  0  0  0  0
  -24.7810  -30.9140   22.9060 C   0  0  0  0  0  0  0  0  0  0  0  0
  -27.8370  -27.2900   19.1810 C   0  0  0  0  0  0  0  0  0  0  0  0
  -23.6940  -29.5710   21.1420 C   0  0  0  0  0  3  0  0  0  0  0  0
  -25.2630  -28.4470   19.4710 C   0  0  0  0  0  0  0  0  0  0  0  0
  -26.1320  -30.3080   20.8960 C   0  0  0  0  0  2  0  0  0  0  0  0
  -26.3720  -29.0550   20.0760 C   0  0  0  0  0  0  0  0  0  0  0  0
  -27.6640  -28.4900   19.9200 C   0  0  0  0  0  3  0  0  0  0  0  0
  -26.7070  -26.7060   18.5700 C   0  0  0  0  0  3  0  0  0  0  0  0
  -25.4270  -27.2760   18.7100 C   0  0  0  0  0  3  0  0  0  0  0  0
  -23.9170  -29.1080   19.6760 C   0  0  0  0  0  2  0  0  0  0  0  0
  -24.8920  -30.2740   21.7070 N   0  0  0  0  0  0  0  0  0  0  0  0
  -23.7000  -30.9600   23.5140 O   0  0  0  0  0  0  0  0  0  0  0  0
  -23.2510  -28.3490   21.9790 C   0  0  0  0  0  0  0  0  0  0  0  0
  -21.9800  -27.9510   21.8150 N   0  0  0  0  0  0  0  0  0  0  0  0
  -24.0390  -27.7710   22.7340 O   0  0  0  0  0  0  0  0  0  0  0  0
  -21.3840  -28.5300   21.2330 H   0  0  0  0  0  0  0  0  0  0  0  0
  -18.9340  -26.0110   21.9710 C   0  0  0  0  0  0  0  0  0  0  0  0
  -21.3510  -26.7920   22.4500 C   0  0  0  0  0  3  0  0  0  0  0  0
  -21.8060  -25.4710   21.7830 C   0  0  0  0  0  2  0  0  0  0  0  0
  -20.8550  -24.9990   20.6790 C   0  0  0  0  0  2  0  0  0  0  0  0
  -19.4350  -24.7930   21.2220 C   0  0  0  0  0  2  0  0  0  0  0  0
  -19.8330  -26.9530   22.5410 C   0  0  0  0  0  0  0  0  0  0  0  0
  -19.3110  -28.0720   23.2190 C   0  0  0  0  0  3  0  0  0  0  0  0
  -17.9220  -28.2720   23.3200 C   0  0  0  0  0  3  0  0  0  0  0  0
  -17.0370  -27.3420   22.7480 C   0  0  0  0  0  3  0  0  0  0  0  0
  -17.5430  -26.2060   22.0890 C   0  0  0  0  0  3  0  0  0  0  0  0
  -25.9980  -31.6420   23.5520 C   0  0  0  0  0  3  0  0  0  0  0  0
  -25.5420  -32.9680   23.9820 N   0  0  0  0  0  0  0  0  0  0  0  0
  -25.7760  -34.1060   23.3160 C   0  0  0  0  0  0  0  0  0  0  0  0
  -26.4750  -34.1520   22.2980 O   0  0  0  0  0  0  0  0  0  0  0  0
  -24.9200  -32.9960   24.7770 H   0  0  0  0  0  0  0  0  0  0  0  0
  -23.8840  -35.7400   23.0520 C   0  0  0  0  0  1  0  0  0  0  0  0
  -25.1400  -35.3940   23.8690 C   0  0  0  0  0  3  0  0  0  0  0  0
  -27.1440  -36.4220   24.8460 C   0  0  0  0  0  1  0  0  0  0  0  0
  -26.0610  -36.5530   23.8770 N   0  0  0  0  0  0  0  0  0  0  0  0
  -25.5550  -37.4100   24.0850 H   0  0  0  0  0  0  0  0  0  0  0  0
  -26.6260  -30.8430   24.7610 C   0  0  1  0  0  0  0  0  0  0  0  0
  -25.5880  -30.4150   25.8250 C   0  0  0  0  0  1  0  0  0  0  0  0
  -27.3460  -29.5690   24.2590 C   0  0  0  0  0  1  0  0  0  0  0  0
  -27.6980  -31.7080   25.4620 C   0  0  0  0  0  1  0  0  0  0  0  0
  1  2  2  0
  2  6  1  0
  2  8  1  0
  3  6  1  0
  4  3  2  0
  4  1  1  0
  5 50  1  0
  5  3  1  0
  7  5  1  0
  8 10  1  0
  9  8  1  0
 11 20  1  0
 11  1  1  0
 12 18  1  0
 12 20  1  0
 13 18  1  0
 14 15  1  0
 14 13  1  0
 16 15  1  0
 16 25  1  0
 16 17  1  0
 18 17  1  0
 19 12  2  0
 20 21  1  0
 22 23  2  0
 23 42  1  0
 24 27  1  0
 24 23  1  0
 25 26  1  0
 25 22  1  0
 26 24  2  0
 27 28  1  0
 28 29  2  0
 30 33  1  0
 30 29  1  0
 31 30  2  0
 32 31  1  0
 32 27  2  0
 33 34  1  0
 34 39  2  0
 34 35  1  0
 35 36  2  0
 36 37  1  0
 37 41  1  0
 38 37  2  0
 39 38  1  0
 40 39  1  0
 42 43  1  0
 43 45  1  0
 43 46  1  0
 44 42  2  0
 47 22  1  0
 47 48  1  0
 49 47  1  0
 51 54  1  0
 51 50  1  0
 52 51  1  0
 53 52  1  0
 55 57  1  0
 55 54  1  0
 56 67  2  0
 57 62  1  0
 58 66  1  0
 58 68  1  0
 59 65  1  0
 59 61  1  0
 60 66  1  0
 61 60  1  0
 62 61  2  0
 63 64  1  0
 63 57  2  0
 64 59  2  0
 65 58  1  0
 66 56  1  0
 68 70  2  0
 69 68  1  0
 71 69  1  0
 72 81  2  0
 72 77  1  0
 73 69  1  0
 73 77  1  0
 74 73  1  0
 75 76  1  0
 75 74  1  0
 76 72  1  0
 77 78  2  0
 78 79  1  0
 80 79  2  0
 81 80  1  0
 82 56  1  0
 82 83  1  0
 82 92  1  0
 83 86  1  0
 84 88  1  0
 84 83  1  0
 85 84  2  0
 88 87  1  0
 88 90  1  0
 90 91  1  0
 90 89  1  0
 92 95  1  1
 92 93  1  0
 94 92  1  0
M  ISO  4  12 100  20 100  54 101  55 101
M  END
>  <TORSDO>  (39) 
F 22

>  <SCORE>  (39) 
-8.854

>  <name>  (39) 
38

>  <ligand_id>  (39) 
38

>  <original_smiles>  (39) 
[H]OC([H])(C([H])([H])Oc1c([H])c([H])c2c(c1[H])C([H])([H])N(C(=O)C([H])(N([H])C(=O)C([H])(N([H])C([H])([H])[H])C([H])([H])[H])C(C([H])([H])[H])(C([H])([H])[H])C([H])([H])[H])C([H])(C(=O)N([H])C1([H])c3c([H])c([H])c([H])c([H])c3C([H])([H])C([H])([H])C1([H])[H])C2([H])[H])C([H])([H])N([H])c1nc(C([H])([H])N([H])C(=O)N2C([H])([H])C([H])([H])C([H])([H])C([H])(n3nc(-c4c([H])c([H])c(Oc5c([H])c([H])c(F)c([H])c5F)c([H])c4[H])c(C(=O)N([H])[H])c3N([H])[H])C2([H])[H])c(N([H])[H])s1

>  <smiles>  (39) 
[H]OC([H])(C([H])([H])Oc1c([H])c([H])c2c(c1[H])C([H])([H])N(C(=O)C([H])(N([H])C(=O)C([H])(N([H])C([H])([H])[H])C([H])([H])[H])C(C([H])([H])[H])(C([H])([H])[H])C([H])([H])[H])C([H])(C(=O)N([H])C1([H])c3c([H])c([H])c([H])c([H])c3C([H])([H])C([H])([H])C1([H])[H])C2([H])[H])C([H])([H])N([H])c1nc(C([H])([H])N([H])C(=O)N2C([H])([H])C([H])([H])C([H])([H])C([H])(n3nc(-c4c([H])c([H])c(Oc5c([H])c([H])c(F)c([H])c5F)c([H])c4[H])c(C(=O)N([H])[H])c3N([H])[H])C2([H])[H])c(N([H])[H])s1

$$$$
39:0:0
     RDKit          3D

 94102  0  0  1  0  0  0  0  0999 V2000
  -29.4890  -19.7900   20.4010 C   0  0  0  0  0  0  0  0  0  0  0  0
  -29.1720  -21.4640   21.8140 C   0  0  0  0  0  0  0  0  0  0  0  0
  -29.5140  -21.9270   19.6970 C   0  0  0  0  0  0  0  0  0  0  0  0
  -29.2570  -20.1580   21.6610 N   0  0  0  0  0  4  0  0  0  0  0  0
  -29.6310  -20.6380   19.3600 N   0  0  0  0  0  0  0  0  0  0  0  0
  -29.2860  -22.4110   20.9060 N   0  0  0  0  0  2  0  0  0  0  0  0
  -28.9280  -21.8880   23.0810 N   0  0  0  0  0  0  0  0  0  0  0  0
  -29.6010  -22.8610   18.6670 N   0  0  0  0  0  0  0  0  0  0  0  0
  -28.5440  -21.2040   23.7190 H   0  0  0  0  0  0  0  0  0  0  0  0
  -28.5540  -22.8230   23.1760 H   0  0  0  0  0  0  0  0  0  0  0  0
  -29.8090  -22.4590   17.7620 H   0  0  0  0  0  0  0  0  0  0  0  0
  -29.4070  -18.2550   20.1500 C   0  0  0  0  0  3  0  0  0  0  0  0
  -30.3910  -17.3180   20.9470 C   0  0  0  0  0  3  0  0  0  0  0  0
  -30.8980  -14.8230   20.4720 C   0  0  0  0  0  0  0  0  0  0  0  0
  -30.7220  -12.5600   19.4800 C   0  0  0  0  0  2  0  0  0  0  0  0
  -29.7930  -12.6310   18.2500 C   0  0  0  0  0  2  0  0  0  0  0  0
  -28.3180  -12.4670   18.6710 C   0  0  0  0  0  2  0  0  0  0  0  0
  -27.9280  -13.3840   19.8610 C   0  0  0  0  0  3  0  0  0  0  0  0
  -28.9710  -13.2820   20.9980 C   0  0  0  0  0  2  0  0  0  0  0  0
  -30.2880  -13.6030   20.4240 N   0  0  0  0  0  0  0  0  0  0  0  0
  -32.0410  -15.0120   20.0510 O   0  0  0  0  0  0  0  0  0  0  0  0
  -30.1030  -15.8530   20.8530 N   0  0  0  0  0  0  0  0  0  0  0  0
  -29.1820  -15.5690   21.1540 H   0  0  0  0  0  0  0  0  0  0  0  0
  -25.5380  -13.9900   20.5990 C   0  0  0  0  0  0  0  0  0  0  0  0
  -24.4620  -13.2170   20.9410 C   0  0  0  0  0  0  0  0  0  0  0  0
  -24.9070  -11.8620   20.8560 C   0  0  0  0  0  0  0  0  0  0  0  0
  -26.5730  -13.1060   20.3330 N   0  0  0  0  0  0  0  0  0  0  0  0
  -26.1960  -11.8180   20.5460 N   0  0  0  0  0  0  0  0  0  0  0  0
  -24.1670  -10.6020   20.9980 C   0  0  0  0  0  0  0  0  0  0  0  0
  -24.5960   -9.5890   21.8820 C   0  0  0  0  0  3  0  0  0  0  0  0
  -23.8580   -8.3940   22.0140 C   0  0  0  0  0  3  0  0  0  0  0  0
  -22.6750   -8.2020   21.2610 C   0  0  0  0  0  0  0  0  0  0  0  0
  -22.2650   -9.2050   20.3640 C   0  0  0  0  0  3  0  0  0  0  0  0
  -23.0040  -10.3920   20.2300 C   0  0  0  0  0  3  0  0  0  0  0  0
  -21.9090   -7.0630   21.3030 O   0  0  0  0  0  0  0  0  0  0  0  0
  -21.8650   -6.2670   22.4190 C   0  0  0  0  0  0  0  0  0  0  0  0
  -21.4490   -6.7650   23.6730 C   0  0  0  0  0  3  0  0  0  0  0  0
  -21.3520   -5.8960   24.7790 C   0  0  0  0  0  3  0  0  0  0  0  0
  -21.6620   -4.5310   24.6320 C   0  0  0  0  0  0  0  0  0  0  0  0
  -22.0700   -4.0320   23.3820 C   0  0  0  0  0  3  0  0  0  0  0  0
  -22.1690   -4.8980   22.2790 C   0  0  0  0  0  0  0  0  0  0  0  0
  -22.5430   -4.4080   21.0730 F   0  0  0  0  0  0  0  0  0  0  0  0
  -21.5610   -3.6940   25.6920 F   0  0  0  0  0  0  0  0  0  0  0  0
  -23.0710  -13.6980   21.2350 C   0  0  0  0  0  0  0  0  0  0  0  0
  -22.3380  -12.9800   22.0790 N   0  0  0  0  0  0  0  0  0  0  0  0
  -22.6410  -14.7460   20.7540 O   0  0  0  0  0  0  0  0  0  0  0  0
  -22.6970  -12.1300   22.4870 H   0  0  0  0  0  0  0  0  0  0  0  0
  -21.4070  -13.2850   22.3210 H   0  0  0  0  0  0  0  0  0  0  0  0
  -25.7170  -15.3650   20.4730 N   0  0  0  0  0  0  0  0  0  0  0  0
  -24.9540  -16.0200   20.6010 H   0  0  0  0  0  0  0  0  0  0  0  0
  -26.5620  -15.8040   20.1280 H   0  0  0  0  0  0  0  0  0  0  0  0
  -29.8500  -24.3210   18.8000 C   0  0  0  0  0  3  0  0  0  0  0  0
  -28.5970  -25.2390   18.6170 C   0  0  0  0  0  3  0  0  0  0  0  0
  -28.7830  -26.6390   18.9930 O   0  0  0  0  0  0  0  0  0  0  0  0
  -25.2170  -31.2200   23.2120 C   0  0  0  0  0  0  0  0  0  0  0  0
  -27.6510  -27.4390   19.1560 C   0  0  0  0  0  0  0  0  0  0  0  0
  -23.9350  -30.2360   21.3440 C   0  0  0  0  0  3  0  0  0  0  0  0
  -25.3100  -29.0130   19.5720 C   0  0  0  0  0  0  0  0  0  0  0  0
  -26.4720  -30.5520   21.1580 C   0  0  0  0  0  2  0  0  0  0  0  0
  -26.5010  -29.3510   20.2260 C   0  0  0  0  0  0  0  0  0  0  0  0
  -27.6730  -28.5740   20.0150 C   0  0  0  0  0  3  0  0  0  0  0  0
  -26.4360  -27.1460   18.4920 C   0  0  0  0  0  3  0  0  0  0  0  0
  -25.2760  -27.9120   18.7030 C   0  0  0  0  0  3  0  0  0  0  0  0
  -24.0950  -29.8750   19.8440 C   0  0  0  0  0  2  0  0  0  0  0  0
  -25.2280  -30.6720   21.9630 N   0  0  0  0  0  0  0  0  0  0  0  0
  -24.1570  -31.3950   23.8300 O   0  0  0  0  0  0  0  0  0  0  0  0
  -23.2760  -29.0450   22.0780 C   0  0  0  0  0  0  0  0  0  0  0  0
  -21.9480  -28.9040   21.9290 N   0  0  0  0  0  0  0  0  0  0  0  0
  -23.9570  -28.2600   22.7430 O   0  0  0  0  0  0  0  0  0  0  0  0
  -21.4540  -29.6000   21.3860 H   0  0  0  0  0  0  0  0  0  0  0  0
  -18.5770  -27.6180   22.1350 C   0  0  0  0  0  0  0  0  0  0  0  0
  -21.1280  -27.8310   22.4910 C   0  0  0  0  0  3  0  0  0  0  0  0
  -21.2490  -26.5360   21.6550 C   0  0  0  0  0  2  0  0  0  0  0  0
  -20.1640  -26.4040   20.5810 C   0  0  0  0  0  2  0  0  0  0  0  0
  -18.7730  -26.4210   21.2200 C   0  0  0  0  0  2  0  0  0  0  0  0
  -19.6850  -28.2880   22.7200 C   0  0  0  0  0  0  0  0  0  0  0  0
  -19.4500  -29.4170   23.5350 C   0  0  0  0  0  3  0  0  0  0  0  0
  -18.1400  -29.8750   23.7690 C   0  0  0  0  0  3  0  0  0  0  0  0
  -17.0460  -29.1960   23.2030 C   0  0  0  0  0  3  0  0  0  0  0  0
  -17.2660  -28.0690   22.3920 C   0  0  0  0  0  3  0  0  0  0  0  0
  -26.5330  -31.6750   23.9140 C   0  0  0  0  0  3  0  0  0  0  0  0
  -27.0600  -30.6350   24.9780 C   0  0  1  0  0  0  0  0  0  0  0  0
  -25.9890  -30.2000   26.0060 C   0  0  0  0  0  1  0  0  0  0  0  0
  -27.5920  -29.3600   24.2820 C   0  0  0  0  0  1  0  0  0  0  0  0
  -28.2510  -31.2400   25.7570 C   0  0  0  0  0  1  0  0  0  0  0  0
  -26.2710  -32.9750   24.5450 N   0  0  0  0  0  0  0  0  0  0  0  0
  -26.6210  -34.1590   24.0240 C   0  0  0  0  0  0  0  0  0  0  0  0
  -27.2700  -34.2640   22.9800 O   0  0  0  0  0  0  0  0  0  0  0  0
  -25.6910  -32.9660   25.3720 H   0  0  0  0  0  0  0  0  0  0  0  0
  -24.9450  -36.0340   24.0960 C   0  0  0  0  0  1  0  0  0  0  0  0
  -26.1810  -35.4270   24.7800 C   0  0  0  0  0  3  0  0  0  0  0  0
  -28.3470  -36.0520   25.7510 C   0  0  0  0  0  1  0  0  0  0  0  0
  -27.2440  -36.4500   24.8820 N   0  0  0  0  0  0  0  0  0  0  0  0
  -26.8680  -37.3290   25.2270 H   0  0  0  0  0  0  0  0  0  0  0  0
  1  4  2  0
  2  7  1  0
  3  6  1  0
  4  2  2  0
  5  3  2  0
  5  1  1  0
  6  2  1  0
  7 10  1  0
  7  9  1  0
  8 52  1  0
  8  3  1  0
 11  8  1  0
 12  1  1  0
 12 13  2  0
 14 22  1  0
 15 20  1  0
 16 17  1  0
 16 15  1  0
 18 17  1  0
 18 27  1  0
 18 19  1  0
 20 14  1  0
 20 19  1  0
 21 14  2  0
 22 13  1  0
 22 23  1  0
 24 25  2  0
 25 44  1  0
 26 25  1  0
 26 29  1  0
 27 28  1  0
 27 24  1  0
 28 26  2  0
 29 30  1  0
 30 31  2  0
 32 35  1  0
 32 31  1  0
 33 32  2  0
 34 33  1  0
 34 29  2  0
 35 36  1  0
 36 37  1  0
 37 38  2  0
 39 38  1  0
 39 43  1  0
 40 39  2  0
 41 36  2  0
 41 40  1  0
 42 41  1  0
 44 45  1  0
 45 48  1  0
 45 47  1  0
 46 44  2  0
 49 24  1  0
 49 50  1  0
 51 49  1  0
 53 52  2  0
 53 54  1  0
 54 56  1  0
 55 66  2  0
 56 61  1  0
 57 65  1  0
 57 67  1  0
 58 64  1  0
 58 60  1  0
 59 65  1  0
 60 59  1  0
 61 60  2  0
 62 63  1  0
 62 56  2  0
 63 58  2  0
 64 57  1  0
 65 55  1  0
 67 69  2  0
 68 67  1  0
 70 68  1  0
 71 80  2  0
 71 76  1  0
 72 68  1  0
 72 76  1  0
 73 72  1  0
 74 75  1  0
 74 73  1  0
 75 71  1  0
 76 77  2  0
 77 78  1  0
 79 78  2  0
 80 79  1  0
 81 55  1  0
 81 86  1  0
 81 82  1  0
 82 85  1  1
 82 83  1  0
 84 82  1  0
 86 89  1  0
 87 86  1  0
 87 91  1  0
 88 87  2  0
 91 90  1  0
 91 93  1  0
 93 94  1  0
 93 92  1  0
M  ISO  4  14 100  22 100  53 101  54 101
M  END
>  <TORSDO>  (40) 
F 20

>  <SCORE>  (40) 
-11.085

>  <name>  (40) 
39

>  <ligand_id>  (40) 
39

>  <original_smiles>  (40) 
[H]c1c([H])c([H])c2c(c1[H])C([H])([H])C([H])([H])C([H])([H])C2([H])N([H])C(=O)C1([H])N(C(=O)C([H])(N([H])C(=O)C([H])(N([H])C([H])([H])[H])C([H])([H])[H])C(C([H])([H])[H])(C([H])([H])[H])C([H])([H])[H])C([H])([H])c2c([H])c(OC([H])([H])C([H])([H])N([H])c3nc(N([H])[H])nc(C([H])([H])C([H])([H])N([H])C(=O)N4C([H])([H])C([H])([H])C([H])([H])C([H])(n5nc(-c6c([H])c([H])c(Oc7c([H])c([H])c(F)c([H])c7F)c([H])c6[H])c(C(=O)N([H])[H])c5N([H])[H])C4([H])[H])n3)c([H])c([H])c2C1([H])[H]

>  <smiles>  (40) 
[H]c1c([H])c([H])c2c(c1[H])C([H])([H])C([H])([H])C([H])([H])C2([H])N([H])C(=O)C1([H])N(C(=O)C([H])(N([H])C(=O)C([H])(N([H])C([H])([H])[H])C([H])([H])[H])C(C([H])([H])[H])(C([H])([H])[H])C([H])([H])[H])C([H])([H])c2c([H])c(OC([H])([H])C([H])([H])N([H])c3nc(N([H])[H])nc(C([H])([H])C([H])([H])N([H])C(=O)N4C([H])([H])C([H])([H])C([H])([H])C([H])(n5nc(-c6c([H])c([H])c(Oc7c([H])c([H])c(F)c([H])c7F)c([H])c6[H])c(C(=O)N([H])[H])c5N([H])[H])C4([H])[H])n3)c([H])c([H])c2C1([H])[H]

$$$$
40:0:0
     RDKit          3D

 91 99  0  0  1  0  0  0  0  0999 V2000
  -29.5430  -19.2750   20.5100 C   0  0  0  0  0  0  0  0  0  0  0  0
  -30.1630  -19.7710   21.6420 C   0  0  0  0  0  0  0  0  0  0  0  0
  -28.8990  -21.7380   20.5110 C   0  0  0  0  0  0  0  0  0  0  0  0
  -28.8160  -20.4480   19.9250 N   0  0  0  0  0  0  0  0  0  0  0  0
  -29.9580  -21.5230   21.9100 S   0  0  0  0  0  0  0  0  0  0  0  0
  -30.9520  -19.0700   22.5430 N   0  0  0  0  0  0  0  0  0  0  0  0
  -30.9070  -18.0550   22.5800 H   0  0  0  0  0  0  0  0  0  0  0  0
  -31.1770  -19.4730   23.4480 H   0  0  0  0  0  0  0  0  0  0  0  0
  -27.0770  -23.3240   21.5210 C   0  0  0  0  0  1  0  0  0  0  0  0
  -28.0250  -23.1550   20.3250 C   0  0  0  0  0  3  0  0  0  0  0  0
  -28.5160  -24.7150   19.8270 C   0  0  0  0  0  2  0  0  0  0  0  0
  -28.2960  -26.1850   20.3630 O   0  0  0  0  0  0  0  0  0  0  0  0
  -24.6140  -31.8650   23.2450 C   0  0  0  0  0  0  0  0  0  0  0  0
  -27.2170  -27.1390   20.2130 C   0  0  0  0  0  0  0  0  0  0  0  0
  -23.4220  -30.4670   21.5990 C   0  0  0  0  0  3  0  0  0  0  0  0
  -24.8780  -28.8880   20.1690 C   0  0  0  0  0  0  0  0  0  0  0  0
  -25.9730  -30.7330   21.4400 C   0  0  0  0  0  2  0  0  0  0  0  0
  -26.0510  -29.3380   20.7860 C   0  0  0  0  0  0  0  0  0  0  0  0
  -27.2130  -28.4770   20.7930 C   0  0  0  0  0  3  0  0  0  0  0  0
  -26.0240  -26.7900   19.5500 C   0  0  0  0  0  3  0  0  0  0  0  0
  -24.8800  -27.6300   19.5350 C   0  0  0  0  0  3  0  0  0  0  0  0
  -23.6480  -29.7830   20.2200 C   0  0  0  0  0  2  0  0  0  0  0  0
  -24.6900  -31.0450   22.1500 N   0  0  0  0  0  0  0  0  0  0  0  0
  -23.5280  -32.1440   23.7720 O   0  0  0  0  0  0  0  0  0  0  0  0
  -22.7420  -29.4610   22.5610 C   0  0  0  0  0  0  0  0  0  0  0  0
  -21.4120  -29.2960   22.4380 N   0  0  0  0  0  0  0  0  0  0  0  0
  -23.4130  -28.8330   23.3820 O   0  0  0  0  0  0  0  0  0  0  0  0
  -20.9270  -29.8530   21.7500 H   0  0  0  0  0  0  0  0  0  0  0  0
  -18.0320  -28.0940   22.9440 C   0  0  0  0  0  0  0  0  0  0  0  0
  -20.5920  -28.3560   23.2070 C   0  0  0  0  0  3  0  0  0  0  0  0
  -20.6920  -26.9250   22.6270 C   0  0  0  0  0  2  0  0  0  0  0  0
  -19.5880  -26.6070   21.6140 C   0  0  0  0  0  2  0  0  0  0  0  0
  -18.2090  -26.7490   22.2590 C   0  0  0  0  0  2  0  0  0  0  0  0
  -19.1510  -28.8550   23.3740 C   0  0  0  0  0  0  0  0  0  0  0  0
  -18.9320  -30.1140   23.9760 C   0  0  0  0  0  3  0  0  0  0  0  0
  -17.6270  -30.6120   24.1480 C   0  0  0  0  0  3  0  0  0  0  0  0
  -16.5220  -29.8480   23.7320 C   0  0  0  0  0  3  0  0  0  0  0  0
  -16.7260  -28.5910   23.1350 C   0  0  0  0  0  3  0  0  0  0  0  0
  -25.8890  -32.5050   23.8760 C   0  0  0  0  0  3  0  0  0  0  0  0
  -26.3950  -31.7380   25.1610 C   0  0  1  0  0  0  0  0  0  0  0  0
  -25.2950  -31.5100   26.2250 C   0  0  0  0  0  1  0  0  0  0  0  0
  -26.9790  -30.3580   24.7840 C   0  0  0  0  0  1  0  0  0  0  0  0
  -27.5430  -32.5330   25.8270 C   0  0  0  0  0  1  0  0  0  0  0  0
  -25.5730  -33.9030   24.2100 N   0  0  0  0  0  0  0  0  0  0  0  0
  -25.9060  -34.9640   23.4620 C   0  0  0  0  0  0  0  0  0  0  0  0
  -26.5790  -34.8670   22.4330 O   0  0  0  0  0  0  0  0  0  0  0  0
  -24.9740  -34.0510   25.0100 H   0  0  0  0  0  0  0  0  0  0  0  0
  -24.1800  -36.7640   23.1190 C   0  0  0  0  0  1  0  0  0  0  0  0
  -25.4200  -36.3510   23.9280 C   0  0  0  0  0  3  0  0  0  0  0  0
  -27.5530  -37.2330   24.7670 C   0  0  0  0  0  1  0  0  0  0  0  0
  -26.4530  -37.4050   23.8220 N   0  0  0  0  0  0  0  0  0  0  0  0
  -26.0470  -38.3250   23.9730 H   0  0  0  0  0  0  0  0  0  0  0  0
  -29.7990  -17.7480   19.8630 C   0  0  0  0  0  2  0  0  0  0  0  0
  -30.4950  -15.0730   20.2970 C   0  0  0  0  0  0  0  0  0  0  0  0
  -30.4050  -12.6910   19.3990 C   0  0  0  0  0  2  0  0  0  0  0  0
  -29.4820  -12.6170   18.1590 C   0  0  0  0  0  2  0  0  0  0  0  0
  -28.0170  -12.4010   18.5870 C   0  0  0  0  0  2  0  0  0  0  0  0
  -27.6000  -13.3330   19.7530 C   0  0  0  0  0  3  0  0  0  0  0  0
  -28.6480  -13.3690   20.8860 C   0  0  0  0  0  2  0  0  0  0  0  0
  -29.9180  -13.7970   20.2850 N   0  0  0  0  0  0  0  0  0  0  0  0
  -31.6810  -15.1320   19.9520 O   0  0  0  0  0  0  0  0  0  0  0  0
  -29.7180  -16.2680   20.4810 N   0  0  0  0  0  0  0  0  0  0  0  0
  -28.8050  -16.0710   20.8600 H   0  0  0  0  0  0  0  0  0  0  0  0
  -25.2180  -13.9060   20.4850 C   0  0  0  0  0  0  0  0  0  0  0  0
  -24.1540  -13.1300   20.8540 C   0  0  0  0  0  0  0  0  0  0  0  0
  -24.6210  -11.7800   20.8310 C   0  0  0  0  0  0  0  0  0  0  0  0
  -26.2630  -13.0300   20.2480 N   0  0  0  0  0  0  0  0  0  0  0  0
  -25.9140  -11.7460   20.5230 N   0  0  0  0  0  0  0  0  0  0  0  0
  -23.8960  -10.5170   21.0230 C   0  0  0  0  0  0  0  0  0  0  0  0
  -24.3240   -9.5530   21.9620 C   0  0  0  0  0  3  0  0  0  0  0  0
  -23.5950   -8.3580   22.1450 C   0  0  0  0  0  3  0  0  0  0  0  0
  -22.4240   -8.1170   21.3870 C   0  0  0  0  0  0  0  0  0  0  0  0
  -22.0150   -9.0690   20.4370 C   0  0  0  0  0  3  0  0  0  0  0  0
  -22.7440  -10.2550   20.2530 C   0  0  0  0  0  3  0  0  0  0  0  0
  -21.6700   -6.9710   21.4760 O   0  0  0  0  0  0  0  0  0  0  0  0
  -21.6130   -6.2340   22.6320 C   0  0  0  0  0  0  0  0  0  0  0  0
  -21.1800   -6.7950   23.8530 C   0  0  0  0  0  3  0  0  0  0  0  0
  -21.0730   -5.9840   25.0010 C   0  0  0  0  0  3  0  0  0  0  0  0
  -21.3900   -4.6140   24.9270 C   0  0  0  0  0  0  0  0  0  0  0  0
  -21.8180   -4.0530   23.7110 C   0  0  0  0  0  3  0  0  0  0  0  0
  -21.9270   -4.8620   22.5660 C   0  0  0  0  0  0  0  0  0  0  0  0
  -22.3190   -4.3130   21.3910 F   0  0  0  0  0  0  0  0  0  0  0  0
  -21.2810   -3.8330   26.0280 F   0  0  0  0  0  0  0  0  0  0  0  0
  -22.7550  -13.6080   21.1150 C   0  0  0  0  0  0  0  0  0  0  0  0
  -22.0210  -12.9140   21.9790 N   0  0  0  0  0  0  0  0  0  0  0  0
  -22.3200  -14.6320   20.5880 O   0  0  0  0  0  0  0  0  0  0  0  0
  -22.3860  -12.0870   22.4290 H   0  0  0  0  0  0  0  0  0  0  0  0
  -21.0830  -13.2160   22.2000 H   0  0  0  0  0  0  0  0  0  0  0  0
  -25.3800  -15.2760   20.3020 N   0  0  0  0  0  0  0  0  0  0  0  0
  -24.6120  -15.9290   20.4170 H   0  0  0  0  0  0  0  0  0  0  0  0
  -26.2180  -15.7110   19.9400 H   0  0  0  0  0  0  0  0  0  0  0  0
  1  2  2  0
  2  5  1  0
  2  6  1  0
  3  5  1  0
  4  1  1  0
  4  3  2  0
  6  7  1  0
  6  8  1  0
 10  3  1  0
 10  9  1  0
 11 10  1  0
 11 12  1  0
 13 24  2  0
 14 12  1  0
 14 19  1  0
 15 23  1  0
 15 25  1  0
 16 22  1  0
 16 18  1  0
 17 23  1  0
 18 19  2  0
 18 17  1  0
 20 14  2  0
 21 20  1  0
 21 16  2  0
 22 15  1  0
 23 13  1  0
 25 27  2  0
 26 25  1  0
 28 26  1  0
 29 38  2  0
 29 34  1  0
 30 26  1  0
 30 34  1  0
 31 30  1  0
 32 33  1  0
 32 31  1  0
 33 29  1  0
 34 35  2  0
 35 36  1  0
 37 36  2  0
 38 37  1  0
 39 13  1  0
 39 44  1  0
 39 40  1  0
 40 43  1  1
 40 41  1  0
 42 40  1  0
 44 47  1  0
 45 49  1  0
 45 44  1  0
 46 45  2  0
 49 48  1  0
 51 49  1  0
 51 52  1  0
 51 50  1  0
 53 62  1  0
 53  1  1  0
 54 62  1  0
 55 60  1  0
 56 57  1  0
 56 55  1  0
 58 57  1  0
 58 67  1  0
 58 59  1  0
 60 54  1  0
 60 59  1  0
 61 54  2  0
 62 63  1  0
 64 65  2  0
 65 84  1  0
 66 65  1  0
 66 69  1  0
 67 64  1  0
 67 68  1  0
 68 66  2  0
 69 70  1  0
 70 71  2  0
 72 75  1  0
 72 71  1  0
 73 72  2  0
 74 73  1  0
 74 69  2  0
 75 76  1  0
 76 77  1  0
 77 78  2  0
 79 78  1  0
 79 83  1  0
 80 79  2  0
 81 76  2  0
 81 80  1  0
 82 81  1  0
 84 85  1  0
 85 88  1  0
 85 87  1  0
 86 84  2  0
 89 90  1  0
 89 64  1  0
 91 89  1  0
M  ISO  4  11 101  12 101  54 100  62 100
M  END
>  <TORSDO>  (41) 
F 20

>  <SCORE>  (41) 
-14.697

>  <name>  (41) 
40

>  <ligand_id>  (41) 
40

>  <original_smiles>  (41) 
[H]c1c([H])c([H])c2c(c1[H])C([H])([H])C([H])([H])C([H])([H])C2([H])N([H])C(=O)C1([H])N(C(=O)C([H])(N([H])C(=O)C([H])(N([H])C([H])([H])[H])C([H])([H])[H])C(C([H])([H])[H])(C([H])([H])[H])C([H])([H])[H])C([H])([H])c2c([H])c(OC([H])([H])C([H])(c3nc(C([H])([H])N([H])C(=O)N4C([H])([H])C([H])([H])C([H])([H])C([H])(n5nc(-c6c([H])c([H])c(Oc7c([H])c([H])c(F)c([H])c7F)c([H])c6[H])c(C(=O)N([H])[H])c5N([H])[H])C4([H])[H])c(N([H])[H])s3)C([H])([H])[H])c([H])c([H])c2C1([H])[H]

>  <smiles>  (41) 
[H]c1c([H])c([H])c2c(c1[H])C([H])([H])C([H])([H])C([H])([H])C2([H])N([H])C(=O)C1([H])N(C(=O)C([H])(N([H])C(=O)C([H])(N([H])C([H])([H])[H])C([H])([H])[H])C(C([H])([H])[H])(C([H])([H])[H])C([H])([H])[H])C([H])([H])c2c([H])c(OC([H])([H])C([H])(c3nc(C([H])([H])N([H])C(=O)N4C([H])([H])C([H])([H])C([H])([H])C([H])(n5nc(-c6c([H])c([H])c(Oc7c([H])c([H])c(F)c([H])c7F)c([H])c6[H])c(C(=O)N([H])[H])c5N([H])[H])C4([H])[H])c(N([H])[H])s3)C([H])([H])[H])c([H])c([H])c2C1([H])[H]

$$$$
41:0:0
     RDKit          3D

 97105  0  0  1  0  0  0  0  0999 V2000
  -29.3710  -17.5070   21.1150 C   0  0  0  0  0  3  0  0  0  0  0  0
  -30.5530  -16.8130   20.7520 C   0  0  0  0  0  0  0  0  0  0  0  0
  -30.4190  -19.5450   20.8850 C   0  0  0  0  0  0  0  0  0  0  0  0
  -31.6100  -18.8620   20.5100 C   0  0  0  0  0  0  0  0  0  0  0  0
  -29.2930  -18.8570   21.1750 N   0  0  0  0  0  0  0  0  0  0  0  0
  -31.6810  -17.5130   20.4440 N   0  0  0  0  0  0  0  0  0  0  0  0
  -32.7650  -19.5610   20.1770 N   0  0  0  0  0  0  0  0  0  0  0  0
  -30.3920  -20.9490   20.9720 N   0  0  0  0  0  0  0  0  0  0  0  0
  -32.6160  -20.5060   19.8470 H   0  0  0  0  0  0  0  0  0  0  0  0
  -33.4440  -19.0550   19.6220 H   0  0  0  0  0  0  0  0  0  0  0  0
  -31.3000  -21.3990   21.0110 H   0  0  0  0  0  0  0  0  0  0  0  0
  -31.0770  -14.4730   20.0190 C   0  0  0  0  0  0  0  0  0  0  0  0
  -30.7220  -12.2960   18.9020 C   0  0  0  0  0  2  0  0  0  0  0  0
  -29.7000  -12.4640   17.7580 C   0  0  0  0  0  2  0  0  0  0  0  0
  -28.2540  -12.3460   18.2810 C   0  0  0  0  0  2  0  0  0  0  0  0
  -27.9980  -13.2170   19.5400 C   0  0  0  0  0  3  0  0  0  0  0  0
  -29.1150  -12.9890   20.5840 C   0  0  0  0  0  2  0  0  0  0  0  0
  -30.4100  -13.2880   19.9400 N   0  0  0  0  0  0  0  0  0  0  0  0
  -32.1310  -14.6900   19.4110 O   0  0  0  0  0  0  0  0  0  0  0  0
  -30.4440  -15.3970   20.7600 N   0  0  0  0  0  0  0  0  0  0  0  0
  -29.6150  -15.0410   21.2120 H   0  0  0  0  0  0  0  0  0  0  0  0
  -25.6780  -13.8740   20.4470 C   0  0  0  0  0  0  0  0  0  0  0  0
  -24.6140  -13.1210   20.8680 C   0  0  0  0  0  0  0  0  0  0  0  0
  -25.0230  -11.7580   20.7470 C   0  0  0  0  0  0  0  0  0  0  0  0
  -26.6730  -12.9700   20.1040 N   0  0  0  0  0  0  0  0  0  0  0  0
  -26.2840  -11.6910   20.3380 N   0  0  0  0  0  0  0  0  0  0  0  0
  -24.2700  -10.5120   20.9420 C   0  0  0  0  0  0  0  0  0  0  0  0
  -24.6960   -9.5290   21.8620 C   0  0  0  0  0  3  0  0  0  0  0  0
  -23.9450   -8.3460   22.0440 C   0  0  0  0  0  3  0  0  0  0  0  0
  -22.7550   -8.1410   21.3060 C   0  0  0  0  0  0  0  0  0  0  0  0
  -22.3480   -9.1130   20.3760 C   0  0  0  0  0  3  0  0  0  0  0  0
  -23.0990  -10.2870   20.1910 C   0  0  0  0  0  3  0  0  0  0  0  0
  -21.9760   -7.0130   21.3990 O   0  0  0  0  0  0  0  0  0  0  0  0
  -21.8750   -6.3030   22.5680 C   0  0  0  0  0  0  0  0  0  0  0  0
  -21.3510   -6.8780   23.7470 C   0  0  0  0  0  3  0  0  0  0  0  0
  -21.2000   -6.0920   24.9060 C   0  0  0  0  0  3  0  0  0  0  0  0
  -21.5610   -4.7320   24.8890 C   0  0  0  0  0  0  0  0  0  0  0  0
  -22.0770   -4.1560   23.7140 C   0  0  0  0  0  3  0  0  0  0  0  0
  -22.2310   -4.9390   22.5560 C   0  0  0  0  0  0  0  0  0  0  0  0
  -22.7080   -4.3730   21.4220 F   0  0  0  0  0  0  0  0  0  0  0  0
  -21.4090   -3.9740   26.0000 F   0  0  0  0  0  0  0  0  0  0  0  0
  -23.2580  -13.6310   21.2650 C   0  0  0  0  0  0  0  0  0  0  0  0
  -22.5710  -12.9200   22.1540 N   0  0  0  0  0  0  0  0  0  0  0  0
  -22.8190  -14.6910   20.8240 O   0  0  0  0  0  0  0  0  0  0  0  0
  -22.9390  -12.0610   22.5340 H   0  0  0  0  0  0  0  0  0  0  0  0
  -21.6640  -13.2420   22.4600 H   0  0  0  0  0  0  0  0  0  0  0  0
  -25.8760  -15.2440   20.3090 N   0  0  0  0  0  0  0  0  0  0  0  0
  -25.1320  -15.9120   20.4780 H   0  0  0  0  0  0  0  0  0  0  0  0
  -26.6890  -15.6620   19.8750 H   0  0  0  0  0  0  0  0  0  0  0  0
  -29.2250  -21.6080   21.5700 C   0  0  0  0  0  2  0  0  0  0  0  0
  -29.4580  -23.0650   22.0460 C   0  0  0  0  0  2  0  0  0  0  0  0
  -29.2920  -24.1900   20.9930 C   0  0  0  0  0  3  0  0  0  0  0  0
  -28.0810  -23.9840   20.2820 O   0  0  0  0  0  0  0  0  0  0  0  0
  -27.3550  -24.1070   20.8860 H   0  0  0  0  0  0  0  0  0  0  0  0
  -29.2440  -25.5980   21.6460 C   0  0  0  0  0  2  0  0  0  0  0  0
  -29.5660  -26.7910   20.7150 C   0  0  0  0  0  2  0  0  0  0  0  0
  -28.6570  -26.9030   19.6190 O   0  0  0  0  0  0  0  0  0  0  0  0
  -24.6570  -31.7200   23.1140 C   0  0  0  0  0  0  0  0  0  0  0  0
  -27.4900  -27.6180   19.7670 C   0  0  0  0  0  0  0  0  0  0  0  0
  -23.5120  -30.4020   21.3590 C   0  0  0  0  0  3  0  0  0  0  0  0
  -25.0340  -29.0170   19.8520 C   0  0  0  0  0  0  0  0  0  0  0  0
  -26.0210  -30.8630   21.2160 C   0  0  0  0  0  2  0  0  0  0  0  0
  -26.1620  -29.5400   20.4960 C   0  0  0  0  0  0  0  0  0  0  0  0
  -27.3920  -28.8460   20.4630 C   0  0  0  0  0  3  0  0  0  0  0  0
  -26.3490  -27.1100   19.1150 C   0  0  0  0  0  3  0  0  0  0  0  0
  -25.1190  -27.7960   19.1610 C   0  0  0  0  0  3  0  0  0  0  0  0
  -23.7600  -29.8290   19.9380 C   0  0  0  0  0  2  0  0  0  0  0  0
  -24.7470  -31.0050   21.9570 N   0  0  0  0  0  0  0  0  0  0  0  0
  -23.5640  -31.9170   23.6620 O   0  0  0  0  0  0  0  0  0  0  0  0
  -22.8910  -29.2920   22.2370 C   0  0  0  0  0  0  0  0  0  0  0  0
  -21.5680  -29.1020   22.1100 N   0  0  0  0  0  0  0  0  0  0  0  0
  -23.5930  -28.6120   22.9890 O   0  0  0  0  0  0  0  0  0  0  0  0
  -21.0620  -29.7040   21.4750 H   0  0  0  0  0  0  0  0  0  0  0  0
  -18.2130  -27.8470   22.5710 C   0  0  0  0  0  0  0  0  0  0  0  0
  -20.7750  -28.0910   22.8080 C   0  0  0  0  0  3  0  0  0  0  0  0
  -20.8700  -26.7220   22.0970 C   0  0  0  0  0  2  0  0  0  0  0  0
  -19.7460  -26.4910   21.0820 C   0  0  0  0  0  2  0  0  0  0  0  0
  -18.3780  -26.5680   21.7670 C   0  0  0  0  0  2  0  0  0  0  0  0
  -19.3380  -28.5710   23.0460 C   0  0  0  0  0  0  0  0  0  0  0  0
  -19.1300  -29.7730   23.7570 C   0  0  0  0  0  3  0  0  0  0  0  0
  -17.8280  -30.2500   23.9990 C   0  0  0  0  0  3  0  0  0  0  0  0
  -16.7160  -29.5220   23.5390 C   0  0  0  0  0  3  0  0  0  0  0  0
  -16.9100  -28.3220   22.8310 C   0  0  0  0  0  3  0  0  0  0  0  0
  -25.9170  -32.3450   23.7910 C   0  0  0  0  0  3  0  0  0  0  0  0
  -25.5850  -33.7290   24.1530 N   0  0  0  0  0  0  0  0  0  0  0  0
  -25.9390  -34.8050   23.4380 C   0  0  0  0  0  0  0  0  0  0  0  0
  -26.6490  -34.7380   22.4310 O   0  0  0  0  0  0  0  0  0  0  0  0
  -24.9600  -33.8540   24.9350 H   0  0  0  0  0  0  0  0  0  0  0  0
  -24.2250  -36.6020   23.0480 C   0  0  0  0  0  1  0  0  0  0  0  0
  -25.4200  -36.1750   23.9160 C   0  0  0  0  0  3  0  0  0  0  0  0
  -27.4910  -37.0430   24.9070 C   0  0  0  0  0  1  0  0  0  0  0  0
  -26.4520  -37.2350   23.8990 N   0  0  0  0  0  0  0  0  0  0  0  0
  -26.0340  -38.1500   24.0420 H   0  0  0  0  0  0  0  0  0  0  0  0
  -26.4080  -31.5390   25.0560 C   0  0  1  0  0  0  0  0  0  0  0  0
  -25.2940  -31.2730   26.0950 C   0  0  0  0  0  1  0  0  0  0  0  0
  -27.0000  -30.1750   24.6350 C   0  0  0  0  0  1  0  0  0  0  0  0
  -27.5440  -32.3140   25.7630 C   0  0  0  0  0  1  0  0  0  0  0  0
  1  5  1  0
  2 20  1  0
  2  1  2  0
  3  8  1  0
  3  5  2  0
  4  3  1  0
  6  4  2  0
  6  2  1  0
  7  4  1  0
  8 11  1  0
  8 50  1  0
  9  7  1  0
 10  7  1  0
 12 20  1  0
 13 18  1  0
 14 15  1  0
 14 13  1  0
 16 15  1  0
 16 25  1  0
 16 17  1  0
 18 12  1  0
 18 17  1  0
 19 12  2  0
 20 21  1  0
 22 23  2  0
 23 42  1  0
 24 23  1  0
 24 27  1  0
 25 26  1  0
 25 22  1  0
 26 24  2  0
 27 28  1  0
 28 29  2  0
 30 33  1  0
 30 29  1  0
 31 30  2  0
 32 31  1  0
 32 27  2  0
 33 34  1  0
 34 35  1  0
 35 36  2  0
 37 36  1  0
 37 41  1  0
 38 37  2  0
 39 34  2  0
 39 38  1  0
 40 39  1  0
 42 43  1  0
 43 46  1  0
 43 45  1  0
 44 42  2  0
 47 22  1  0
 47 48  1  0
 49 47  1  0
 50 51  1  0
 52 55  1  0
 52 51  1  0
 53 54  1  0
 53 52  1  0
 56 55  1  0
 57 59  1  0
 57 56  1  0
 58 69  2  0
 59 64  1  0
 60 68  1  0
 60 70  1  0
 61 67  1  0
 61 63  1  0
 62 68  1  0
 63 62  1  0
 64 63  2  0
 65 66  1  0
 65 59  2  0
 66 61  2  0
 67 60  1  0
 68 58  1  0
 70 72  2  0
 71 70  1  0
 73 71  1  0
 74 83  2  0
 74 79  1  0
 75 71  1  0
 75 79  1  0
 76 75  1  0
 77 78  1  0
 77 76  1  0
 78 74  1  0
 79 80  2  0
 80 81  1  0
 82 81  2  0
 83 82  1  0
 84 58  1  0
 84 85  1  0
 84 94  1  0
 85 88  1  0
 86 90  1  0
 86 85  1  0
 87 86  2  0
 90 89  1  0
 92 90  1  0
 92 93  1  0
 92 91  1  0
 94 97  1  1
 94 95  1  0
 96 94  1  0
M  ISO  4  12 100  20 100  56 101  57 101
M  END
>  <TORSDO>  (42) 
F 22

>  <SCORE>  (42) 
-12.644

>  <name>  (42) 
41

>  <ligand_id>  (42) 
41

>  <original_smiles>  (42) 
[H]OC([H])(C([H])([H])C([H])([H])Oc1c([H])c([H])c2c(c1[H])C([H])([H])N(C(=O)C([H])(N([H])C(=O)C([H])(N([H])C([H])([H])[H])C([H])([H])[H])C(C([H])([H])[H])(C([H])([H])[H])C([H])([H])[H])C([H])(C(=O)N([H])C1([H])c3c([H])c([H])c([H])c([H])c3C([H])([H])C([H])([H])C1([H])[H])C2([H])[H])C([H])([H])C([H])([H])N([H])c1nc([H])c(N([H])C(=O)N2C([H])([H])C([H])([H])C([H])([H])C([H])(n3nc(-c4c([H])c([H])c(Oc5c([H])c([H])c(F)c([H])c5F)c([H])c4[H])c(C(=O)N([H])[H])c3N([H])[H])C2([H])[H])nc1N([H])[H]

>  <smiles>  (42) 
[H]OC([H])(C([H])([H])C([H])([H])Oc1c([H])c([H])c2c(c1[H])C([H])([H])N(C(=O)C([H])(N([H])C(=O)C([H])(N([H])C([H])([H])[H])C([H])([H])[H])C(C([H])([H])[H])(C([H])([H])[H])C([H])([H])[H])C([H])(C(=O)N([H])C1([H])c3c([H])c([H])c([H])c([H])c3C([H])([H])C([H])([H])C1([H])[H])C2([H])[H])C([H])([H])C([H])([H])N([H])c1nc([H])c(N([H])C(=O)N2C([H])([H])C([H])([H])C([H])([H])C([H])(n3nc(-c4c([H])c([H])c(Oc5c([H])c([H])c(F)c([H])c5F)c([H])c4[H])c(C(=O)N([H])[H])c3N([H])[H])C2([H])[H])nc1N([H])[H]

$$$$
42:0:0
     RDKit          3D

 96104  0  0  1  0  0  0  0  0999 V2000
  -29.1020  -21.6050   19.8020 C   0  0  0  0  0  3  0  0  0  0  0  0
  -26.5650  -21.8660   20.2520 C   0  0  0  0  0  1  0  0  0  0  0  0
  -28.1950  -22.4640   22.1100 C   0  0  0  0  0  1  0  0  0  0  0  0
  -27.9510  -21.5940   20.8590 C   0  0  0  0  0  3  0  0  0  0  0  0
  -30.3280  -20.9730   20.3370 N   0  0  0  0  0  0  0  0  0  0  0  0
  -30.7150  -21.5280   21.0930 H   0  0  0  0  0  0  0  0  0  0  0  0
  -31.2630  -14.7560   19.8490 C   0  0  0  0  0  0  0  0  0  0  0  0
  -30.9510  -12.5760   18.6950 C   0  0  0  0  0  2  0  0  0  0  0  0
  -29.8950  -12.7500   17.5800 C   0  0  0  0  0  2  0  0  0  0  0  0
  -28.4610  -12.6130   18.1320 C   0  0  0  0  0  2  0  0  0  0  0  0
  -28.2340  -13.4460   19.4190 C   0  0  0  0  0  3  0  0  0  0  0  0
  -29.3760  -13.1860   20.4290 C   0  0  0  0  0  2  0  0  0  0  0  0
  -30.6470  -13.5380   19.7670 N   0  0  0  0  0  0  0  0  0  0  0  0
  -32.2960  -15.0160   19.2210 O   0  0  0  0  0  0  0  0  0  0  0  0
  -30.3320  -19.0250   21.9160 C   0  0  0  0  0  0  0  0  0  0  0  0
  -30.3760  -19.5840   20.6510 C   0  0  0  0  0  0  0  0  0  0  0  0
  -30.6280  -17.0730   20.7400 C   0  0  0  0  0  0  0  0  0  0  0  0
  -30.1890  -19.7370   23.2260 C   0  0  0  0  0  1  0  0  0  0  0  0
  -30.4310  -17.6260   21.9390 N   0  0  0  0  0  0  0  0  0  0  0  0
  -30.6400  -15.6380   20.6660 N   0  0  0  0  0  0  0  0  0  0  0  0
  -30.6280  -18.3020   19.4450 S   0  0  0  0  0  0  0  0  0  0  0  0
  -29.9780  -15.1970   21.2840 H   0  0  0  0  0  0  0  0  0  0  0  0
  -25.9310  -14.0940   20.3690 C   0  0  0  0  0  0  0  0  0  0  0  0
  -24.8740  -13.3370   20.8010 C   0  0  0  0  0  0  0  0  0  0  0  0
  -25.2820  -11.9760   20.6590 C   0  0  0  0  0  0  0  0  0  0  0  0
  -26.9190  -13.1920   20.0030 N   0  0  0  0  0  0  0  0  0  0  0  0
  -26.5350  -11.9110   20.2290 N   0  0  0  0  0  0  0  0  0  0  0  0
  -24.5290  -10.7290   20.8490 C   0  0  0  0  0  0  0  0  0  0  0  0
  -24.8750   -9.8040   21.8570 C   0  0  0  0  0  3  0  0  0  0  0  0
  -24.1260   -8.6210   22.0350 C   0  0  0  0  0  3  0  0  0  0  0  0
  -23.0150   -8.3550   21.2010 C   0  0  0  0  0  0  0  0  0  0  0  0
  -22.6870   -9.2660   20.1810 C   0  0  0  0  0  3  0  0  0  0  0  0
  -23.4390  -10.4400   20.0030 C   0  0  0  0  0  3  0  0  0  0  0  0
  -22.2470   -7.2180   21.2810 O   0  0  0  0  0  0  0  0  0  0  0  0
  -21.9210   -6.6530   22.4880 C   0  0  0  0  0  0  0  0  0  0  0  0
  -21.2150   -7.3680   23.4810 C   0  0  0  0  0  3  0  0  0  0  0  0
  -20.8430   -6.7280   24.6790 C   0  0  0  0  0  3  0  0  0  0  0  0
  -21.1660   -5.3730   24.8840 C   0  0  0  0  0  0  0  0  0  0  0  0
  -21.8650   -4.6580   23.8950 C   0  0  0  0  0  3  0  0  0  0  0  0
  -22.2380   -5.2960   22.6990 C   0  0  0  0  0  0  0  0  0  0  0  0
  -22.8920   -4.5980   21.7400 F   0  0  0  0  0  0  0  0  0  0  0  0
  -20.8000   -4.7540   26.0310 F   0  0  0  0  0  0  0  0  0  0  0  0
  -23.5270  -13.8440   21.2270 C   0  0  0  0  0  0  0  0  0  0  0  0
  -22.8750  -13.1430   22.1510 N   0  0  0  0  0  0  0  0  0  0  0  0
  -23.0630  -14.8900   20.7800 O   0  0  0  0  0  0  0  0  0  0  0  0
  -23.2650  -12.2940   22.5330 H   0  0  0  0  0  0  0  0  0  0  0  0
  -21.9750  -13.4600   22.4800 H   0  0  0  0  0  0  0  0  0  0  0  0
  -26.1270  -15.4650   20.2400 N   0  0  0  0  0  0  0  0  0  0  0  0
  -25.3850  -16.1320   20.4240 H   0  0  0  0  0  0  0  0  0  0  0  0
  -26.9480  -15.8900   19.8270 H   0  0  0  0  0  0  0  0  0  0  0  0
  -29.3610  -22.9840   19.0380 C   0  0  0  0  0  3  0  0  0  0  0  0
  -28.6890  -22.8840   17.7970 O   0  0  0  0  0  0  0  0  0  0  0  0
  -27.7820  -22.6730   17.9850 H   0  0  0  0  0  0  0  0  0  0  0  0
  -28.9400  -24.3680   19.6740 C   0  0  0  0  0  3  0  0  0  0  0  0
  -29.1650  -25.6370   18.7840 C   0  0  0  0  0  3  0  0  0  0  0  0
  -28.9210  -26.9160   19.4210 O   0  0  0  0  0  0  0  0  0  0  0  0
  -24.6690  -31.4730   22.8970 C   0  0  0  0  0  0  0  0  0  0  0  0
  -27.6650  -27.5080   19.4570 C   0  0  0  0  0  0  0  0  0  0  0  0
  -23.5680  -30.0940   21.1610 C   0  0  0  0  0  3  0  0  0  0  0  0
  -25.1340  -28.8010   19.6120 C   0  0  0  0  0  0  0  0  0  0  0  0
  -26.0510  -30.6850   20.9760 C   0  0  0  0  0  2  0  0  0  0  0  0
  -26.2500  -29.3770   20.2320 C   0  0  0  0  0  0  0  0  0  0  0  0
  -27.5100  -28.7350   20.1530 C   0  0  0  0  0  3  0  0  0  0  0  0
  -26.5240  -26.9450   18.8410 C   0  0  0  0  0  3  0  0  0  0  0  0
  -25.2680  -27.5860   18.9160 C   0  0  0  0  0  3  0  0  0  0  0  0
  -23.8200  -29.5410   19.7320 C   0  0  0  0  0  2  0  0  0  0  0  0
  -24.7790  -30.7660   21.7360 N   0  0  0  0  0  0  0  0  0  0  0  0
  -23.5760  -31.6040   23.4680 O   0  0  0  0  0  0  0  0  0  0  0  0
  -23.0240  -28.9510   22.0470 C   0  0  0  0  0  0  0  0  0  0  0  0
  -21.7270  -28.6410   21.9000 N   0  0  0  0  0  0  0  0  0  0  0  0
  -23.7700  -28.3480   22.8240 O   0  0  0  0  0  0  0  0  0  0  0  0
  -21.1780  -29.1930   21.2570 H   0  0  0  0  0  0  0  0  0  0  0  0
  -18.5080  -27.0480   22.2650 C   0  0  0  0  0  0  0  0  0  0  0  0
  -21.0170  -27.5690   22.5950 C   0  0  0  0  0  3  0  0  0  0  0  0
  -21.2850  -26.1970   21.9340 C   0  0  0  0  0  2  0  0  0  0  0  0
  -20.2370  -25.8220   20.8810 C   0  0  0  0  0  2  0  0  0  0  0  0
  -18.8410  -25.7700   21.5100 C   0  0  0  0  0  2  0  0  0  0  0  0
  -19.5290  -27.9000   22.7590 C   0  0  0  0  0  0  0  0  0  0  0  0
  -19.1650  -29.0930   23.4220 C   0  0  0  0  0  3  0  0  0  0  0  0
  -17.8110  -29.4350   23.5930 C   0  0  0  0  0  3  0  0  0  0  0  0
  -16.8040  -28.5820   23.1140 C   0  0  0  0  0  3  0  0  0  0  0  0
  -17.1520  -27.3890   22.4570 C   0  0  0  0  0  3  0  0  0  0  0  0
  -25.9010  -32.1690   23.5550 C   0  0  0  0  0  3  0  0  0  0  0  0
  -25.4720  -33.5040   23.9960 N   0  0  0  0  0  0  0  0  0  0  0  0
  -25.7000  -34.6380   23.3200 C   0  0  0  0  0  0  0  0  0  0  0  0
  -26.3660  -34.6770   22.2820 O   0  0  0  0  0  0  0  0  0  0  0  0
  -24.8750  -33.5410   24.8080 H   0  0  0  0  0  0  0  0  0  0  0  0
  -23.8080  -36.2850   23.1250 C   0  0  0  0  0  1  0  0  0  0  0  0
  -25.0950  -35.9370   23.8880 C   0  0  0  0  0  3  0  0  0  0  0  0
  -27.1500  -36.9550   24.7660 C   0  0  0  0  0  1  0  0  0  0  0  0
  -26.0240  -37.0870   23.8450 N   0  0  0  0  0  0  0  0  0  0  0  0
  -25.5360  -37.9520   24.0600 H   0  0  0  0  0  0  0  0  0  0  0  0
  -26.5100  -31.3520   24.7600 C   0  0  1  0  0  0  0  0  0  0  0  0
  -25.4650  -30.9360   25.8200 C   0  0  0  0  0  1  0  0  0  0  0  0
  -27.2070  -30.0680   24.2520 C   0  0  0  0  0  1  0  0  0  0  0  0
  -27.5960  -32.1950   25.4690 C   0  0  0  0  0  1  0  0  0  0  0  0
  1  5  1  0
  1  4  1  0
  2  4  1  0
  4  3  1  0
  5 16  1  0
  5  6  1  0
  7 20  1  0
  8 13  1  0
  9 10  1  0
  9  8  1  0
 11 10  1  0
 11 26  1  0
 11 12  1  0
 13  7  1  0
 13 12  1  0
 14  7  2  0
 15 19  1  0
 15 18  1  0
 16 15  2  0
 17 19  2  0
 20 17  1  0
 20 22  1  0
 21 16  1  0
 21 17  1  0
 23 24  2  0
 24 43  1  0
 25 24  1  0
 25 28  1  0
 26 27  1  0
 26 23  1  0
 27 25  2  0
 28 29  1  0
 29 30  2  0
 31 34  1  0
 31 30  1  0
 32 31  2  0
 33 32  1  0
 33 28  2  0
 34 35  1  0
 35 40  2  0
 35 36  1  0
 36 37  2  0
 37 38  1  0
 38 42  1  0
 39 38  2  0
 40 39  1  0
 41 40  1  0
 43 44  1  0
 44 47  1  0
 44 46  1  0
 45 43  2  0
 48 23  1  0
 48 49  1  0
 50 48  1  0
 51 54  1  0
 51  1  1  0
 52 53  1  0
 52 51  1  0
 55 56  1  0
 55 54  2  0
 56 58  1  0
 57 68  2  0
 58 63  1  0
 59 67  1  0
 59 69  1  0
 60 66  1  0
 60 62  1  0
 61 67  1  0
 62 61  1  0
 63 62  2  0
 64 65  1  0
 64 58  2  0
 65 60  2  0
 66 59  1  0
 67 57  1  0
 69 71  2  0
 70 69  1  0
 72 70  1  0
 73 82  2  0
 73 78  1  0
 74 70  1  0
 74 78  1  0
 75 74  1  0
 76 77  1  0
 76 75  1  0
 77 73  1  0
 78 79  2  0
 79 80  1  0
 81 80  2  0
 82 81  1  0
 83 57  1  0
 83 84  1  0
 83 93  1  0
 84 87  1  0
 85 89  1  0
 85 84  1  0
 86 85  2  0
 89 88  1  0
 91 89  1  0
 91 92  1  0
 91 90  1  0
 93 96  1  1
 93 94  1  0
 95 93  1  0
M  ISO  4   7 100  20 100  55 101  56 101
M  END
>  <TORSDO>  (43) 
F 22

>  <SCORE>  (43) 
-9.337

>  <name>  (43) 
42

>  <ligand_id>  (43) 
42

>  <original_smiles>  (43) 
[H]OC([H])(C([H])([H])C([H])([H])Oc1c([H])c([H])c2c(c1[H])C([H])([H])N(C(=O)C([H])(N([H])C(=O)C([H])(N([H])C([H])([H])[H])C([H])([H])[H])C(C([H])([H])[H])(C([H])([H])[H])C([H])([H])[H])C([H])(C(=O)N([H])C1([H])c3c([H])c([H])c([H])c([H])c3C([H])([H])C([H])([H])C1([H])[H])C2([H])[H])C([H])(N([H])c1sc(N([H])C(=O)N2C([H])([H])C([H])([H])C([H])([H])C([H])(n3nc(-c4c([H])c([H])c(Oc5c([H])c([H])c(F)c([H])c5F)c([H])c4[H])c(C(=O)N([H])[H])c3N([H])[H])C2([H])[H])nc1C([H])([H])[H])C([H])(C([H])([H])[H])C([H])([H])[H]

>  <smiles>  (43) 
[H]OC([H])(C([H])([H])C([H])([H])Oc1c([H])c([H])c2c(c1[H])C([H])([H])N(C(=O)C([H])(N([H])C(=O)C([H])(N([H])C([H])([H])[H])C([H])([H])[H])C(C([H])([H])[H])(C([H])([H])[H])C([H])([H])[H])C([H])(C(=O)N([H])C1([H])c3c([H])c([H])c([H])c([H])c3C([H])([H])C([H])([H])C1([H])[H])C2([H])[H])C([H])(N([H])c1sc(N([H])C(=O)N2C([H])([H])C([H])([H])C([H])([H])C([H])(n3nc(-c4c([H])c([H])c(Oc5c([H])c([H])c(F)c([H])c5F)c([H])c4[H])c(C(=O)N([H])[H])c3N([H])[H])C2([H])[H])nc1C([H])([H])[H])C([H])(C([H])([H])[H])C([H])([H])[H]

$$$$
43:0:0
     RDKit          3D

 94102  0  0  1  0  0  0  0  0999 V2000
  -29.8410  -21.8910   19.9670 N   0  0  0  0  0  4  0  0  0  0  0  0
  -29.4750  -21.6730   19.0530 H   0  0  0  0  0  0  0  0  0  0  0  0
  -30.7790  -21.5240   20.0120 H   0  0  0  0  0  0  0  0  0  0  0  0
  -29.1080  -21.0720   20.9600 C   0  0  0  0  0  2  0  0  0  0  0  0
  -30.8590  -17.8380   20.1970 C   0  0  0  0  0  3  0  0  0  0  0  0
  -28.9340  -17.4060   21.5070 C   0  0  0  0  0  3  0  0  0  0  0  0
  -30.0460  -16.8730   20.8310 C   0  0  0  0  0  0  0  0  0  0  0  0
  -29.4640  -19.5610   20.8900 C   0  0  0  0  0  0  0  0  0  0  0  0
  -30.5630  -19.1710   20.2310 N   0  0  0  0  0  0  0  0  0  0  0  0
  -28.6480  -18.7250   21.5290 N   0  0  0  0  0  0  0  0  0  0  0  0
  -30.8350  -14.5910   19.9710 C   0  0  0  0  0  0  0  0  0  0  0  0
  -30.5440  -12.4540   18.7280 C   0  0  0  0  0  2  0  0  0  0  0  0
  -29.5030  -12.6390   17.5990 C   0  0  0  0  0  2  0  0  0  0  0  0
  -28.0640  -12.4620   18.1240 C   0  0  0  0  0  2  0  0  0  0  0  0
  -27.8050  -13.2640   19.4260 C   0  0  0  0  0  3  0  0  0  0  0  0
  -28.9320  -13.0090   20.4520 C   0  0  0  0  0  2  0  0  0  0  0  0
  -30.2170  -13.3820   19.8270 N   0  0  0  0  0  0  0  0  0  0  0  0
  -31.8570  -14.8990   19.3500 O   0  0  0  0  0  0  0  0  0  0  0  0
  -30.2240  -15.4340   20.8390 N   0  0  0  0  0  0  0  0  0  0  0  0
  -29.5460  -14.9430   21.4080 H   0  0  0  0  0  0  0  0  0  0  0  0
  -25.4650  -13.8530   20.3190 C   0  0  0  0  0  0  0  0  0  0  0  0
  -24.4230  -13.0730   20.7440 C   0  0  0  0  0  0  0  0  0  0  0  0
  -24.8750  -11.7220   20.6410 C   0  0  0  0  0  0  0  0  0  0  0  0
  -26.4860  -12.9760   19.9860 N   0  0  0  0  0  0  0  0  0  0  0  0
  -26.1380  -11.6870   20.2350 N   0  0  0  0  0  0  0  0  0  0  0  0
  -24.1590  -10.4570   20.8440 C   0  0  0  0  0  0  0  0  0  0  0  0
  -24.5730   -9.5270   21.8240 C   0  0  0  0  0  3  0  0  0  0  0  0
  -23.8620   -8.3230   22.0150 C   0  0  0  0  0  3  0  0  0  0  0  0
  -22.7220   -8.0390   21.2270 C   0  0  0  0  0  0  0  0  0  0  0  0
  -22.3270   -8.9560   20.2380 C   0  0  0  0  0  3  0  0  0  0  0  0
  -23.0380  -10.1540   20.0440 C   0  0  0  0  0  3  0  0  0  0  0  0
  -21.9810   -6.8860   21.3270 O   0  0  0  0  0  0  0  0  0  0  0  0
  -21.8040   -6.2460   22.5270 C   0  0  0  0  0  0  0  0  0  0  0  0
  -21.2020   -6.8870   23.6340 C   0  0  0  0  0  3  0  0  0  0  0  0
  -20.9770   -6.1680   24.8250 C   0  0  0  0  0  3  0  0  0  0  0  0
  -21.3430   -4.8120   24.9120 C   0  0  0  0  0  0  0  0  0  0  0  0
  -21.9350   -4.1700   23.8090 C   0  0  0  0  0  3  0  0  0  0  0  0
  -22.1640   -4.8860   22.6200 C   0  0  0  0  0  0  0  0  0  0  0  0
  -22.7170   -4.2560   21.5550 F   0  0  0  0  0  0  0  0  0  0  0  0
  -21.1170   -4.1220   26.0540 F   0  0  0  0  0  0  0  0  0  0  0  0
  -23.0490  -13.5460   21.1300 C   0  0  0  0  0  0  0  0  0  0  0  0
  -22.3950  -12.8460   22.0510 N   0  0  0  0  0  0  0  0  0  0  0  0
  -22.5650  -14.5700   20.6460 O   0  0  0  0  0  0  0  0  0  0  0  0
  -22.7930  -12.0200   22.4690 H   0  0  0  0  0  0  0  0  0  0  0  0
  -21.4760  -13.1420   22.3480 H   0  0  0  0  0  0  0  0  0  0  0  0
  -25.6260  -15.2270   20.1670 N   0  0  0  0  0  0  0  0  0  0  0  0
  -24.8690  -15.8830   20.3300 H   0  0  0  0  0  0  0  0  0  0  0  0
  -26.4350  -15.6560   19.7380 H   0  0  0  0  0  0  0  0  0  0  0  0
  -29.8440  -23.3860   20.1070 C   0  0  0  0  0  2  0  0  0  0  0  0
  -28.6120  -24.1080   19.4580 C   0  0  0  0  0  3  0  0  0  0  0  0
  -28.2630  -23.3390   18.3100 O   0  0  0  0  0  0  0  0  0  0  0  0
  -27.5020  -23.7440   17.9060 H   0  0  0  0  0  0  0  0  0  0  0  0
  -28.8360  -25.6010   18.9910 C   0  0  0  0  0  2  0  0  0  0  0  0
  -28.5780  -26.6780   19.9280 O   0  0  0  0  0  0  0  0  0  0  0  0
  -24.5430  -31.6580   23.1110 C   0  0  0  0  0  0  0  0  0  0  0  0
  -27.3670  -27.3640   19.9190 C   0  0  0  0  0  0  0  0  0  0  0  0
  -23.3970  -30.2420   21.4400 C   0  0  0  0  0  3  0  0  0  0  0  0
  -24.9090  -28.7970   19.9780 C   0  0  0  0  0  0  0  0  0  0  0  0
  -25.9070  -30.7040   21.2460 C   0  0  0  0  0  2  0  0  0  0  0  0
  -26.0480  -29.3500   20.5720 C   0  0  0  0  0  0  0  0  0  0  0  0
  -27.2760  -28.6390   20.5390 C   0  0  0  0  0  3  0  0  0  0  0  0
  -26.1920  -26.8270   19.3400 C   0  0  0  0  0  3  0  0  0  0  0  0
  -24.9760  -27.5380   19.3600 C   0  0  0  0  0  3  0  0  0  0  0  0
  -23.6330  -29.6070   20.0430 C   0  0  0  0  0  2  0  0  0  0  0  0
  -24.6350  -30.8830   21.9920 N   0  0  0  0  0  0  0  0  0  0  0  0
  -23.4530  -31.8680   23.6600 O   0  0  0  0  0  0  0  0  0  0  0  0
  -22.7870  -29.1750   22.3790 C   0  0  0  0  0  0  0  0  0  0  0  0
  -21.4700  -28.9400   22.2530 N   0  0  0  0  0  0  0  0  0  0  0  0
  -23.4980  -28.5620   23.1810 O   0  0  0  0  0  0  0  0  0  0  0  0
  -20.9560  -29.4900   21.5800 H   0  0  0  0  0  0  0  0  0  0  0  0
  -18.1480  -27.6060   22.7580 C   0  0  0  0  0  0  0  0  0  0  0  0
  -20.6970  -27.9520   23.0050 C   0  0  0  0  0  3  0  0  0  0  0  0
  -20.8440  -26.5410   22.3870 C   0  0  0  0  0  2  0  0  0  0  0  0
  -19.7410  -26.2060   21.3780 C   0  0  0  0  0  2  0  0  0  0  0  0
  -18.3640  -26.2850   22.0410 C   0  0  0  0  0  2  0  0  0  0  0  0
  -19.2430  -28.3960   23.1970 C   0  0  0  0  0  0  0  0  0  0  0  0
  -18.9870  -29.6330   23.8260 C   0  0  0  0  0  3  0  0  0  0  0  0
  -17.6660  -30.0840   24.0190 C   0  0  0  0  0  3  0  0  0  0  0  0
  -16.5850  -29.2900   23.5960 C   0  0  0  0  0  3  0  0  0  0  0  0
  -16.8260  -28.0530   22.9730 C   0  0  0  0  0  3  0  0  0  0  0  0
  -25.8000  -32.3380   23.7380 C   0  0  0  0  0  3  0  0  0  0  0  0
  -25.4320  -33.7160   24.0900 N   0  0  0  0  0  0  0  0  0  0  0  0
  -25.7160  -34.7930   23.3450 C   0  0  0  0  0  0  0  0  0  0  0  0
  -26.3860  -34.7320   22.3110 O   0  0  0  0  0  0  0  0  0  0  0  0
  -24.8460  -33.8340   24.9040 H   0  0  0  0  0  0  0  0  0  0  0  0
  -23.9170  -36.5170   23.0080 C   0  0  0  0  0  1  0  0  0  0  0  0
  -25.1670  -36.1530   23.8240 C   0  0  0  0  0  3  0  0  0  0  0  0
  -27.2550  -37.1090   24.6920 C   0  0  0  0  0  1  0  0  0  0  0  0
  -26.1580  -37.2480   23.7400 N   0  0  0  0  0  0  0  0  0  0  0  0
  -25.7110  -38.1470   23.9040 H   0  0  0  0  0  0  0  0  0  0  0  0
  -26.3550  -31.5750   25.0030 C   0  0  1  0  0  0  0  0  0  0  0  0
  -25.2800  -31.2640   26.0700 C   0  0  0  0  0  1  0  0  0  0  0  0
  -27.0060  -30.2350   24.5860 C   0  0  0  0  0  1  0  0  0  0  0  0
  -27.4680  -32.4140   25.6750 C   0  0  0  0  0  1  0  0  0  0  0  0
  1  3  1  0
  1 49  1  0
  1  4  1  0
  2  1  1  0
  5  9  1  0
  5  7  2  0
  6 10  2  0
  7 19  1  0
  7  6  1  0
  8  4  1  0
  8 10  1  0
  9  8  2  0
 11 19  1  0
 12 17  1  0
 13 14  1  0
 13 12  1  0
 15 14  1  0
 15 24  1  0
 15 16  1  0
 17 11  1  0
 17 16  1  0
 18 11  2  0
 19 20  1  0
 21 22  2  0
 22 41  1  0
 23 22  1  0
 23 26  1  0
 24 25  1  0
 24 21  1  0
 25 23  2  0
 26 27  1  0
 27 28  2  0
 29 32  1  0
 29 28  1  0
 30 29  2  0
 31 30  1  0
 31 26  2  0
 32 33  1  0
 33 38  2  0
 33 34  1  0
 34 35  2  0
 35 36  1  0
 36 40  1  0
 37 36  2  0
 38 37  1  0
 39 38  1  0
 41 42  1  0
 42 45  1  0
 42 44  1  0
 43 41  2  0
 46 21  1  0
 46 47  1  0
 48 46  1  0
 50 53  1  0
 50 49  1  0
 51 50  1  0
 52 51  1  0
 53 54  1  0
 55 66  2  0
 56 54  1  0
 56 61  1  0
 57 65  1  0
 57 67  1  0
 58 64  1  0
 58 60  1  0
 59 65  1  0
 60 59  1  0
 61 60  2  0
 62 63  1  0
 62 56  2  0
 63 58  2  0
 64 57  1  0
 65 55  1  0
 67 69  2  0
 68 67  1  0
 70 68  1  0
 71 80  2  0
 71 76  1  0
 72 68  1  0
 72 76  1  0
 73 72  1  0
 74 75  1  0
 74 73  1  0
 75 71  1  0
 76 77  2  0
 77 78  1  0
 79 78  2  0
 80 79  1  0
 81 55  1  0
 81 82  1  0
 81 91  1  0
 82 85  1  0
 83 87  1  0
 83 82  1  0
 84 83  2  0
 87 86  1  0
 89 87  1  0
 89 90  1  0
 89 88  1  0
 91 94  1  1
 91 92  1  0
 93 91  1  0
M  ISO  4  11 100  19 100  53 101  54 101
M  END
>  <TORSDO>  (44) 
F 22

>  <SCORE>  (44) 
-11.081

>  <name>  (44) 
43

>  <ligand_id>  (44) 
43

>  <original_smiles>  (44) 
[H]OC([H])(C([H])([H])Oc1c([H])c([H])c2c(c1[H])C([H])([H])N(C(=O)C([H])(N([H])C(=O)C([H])(N([H])C([H])([H])[H])C([H])([H])[H])C(C([H])([H])[H])(C([H])([H])[H])C([H])([H])[H])C([H])(C(=O)N([H])C1([H])c3c([H])c([H])c([H])c([H])c3C([H])([H])C([H])([H])C1([H])[H])C2([H])[H])C([H])([H])[N+]([H])([H])C([H])([H])c1nc([H])c(N([H])C(=O)N2C([H])([H])C([H])([H])C([H])([H])C([H])(n3nc(-c4c([H])c([H])c(Oc5c([H])c([H])c(F)c([H])c5F)c([H])c4[H])c(C(=O)N([H])[H])c3N([H])[H])C2([H])[H])c([H])n1

>  <smiles>  (44) 
[H]OC([H])(C([H])([H])Oc1c([H])c([H])c2c(c1[H])C([H])([H])N(C(=O)C([H])(N([H])C(=O)C([H])(N([H])C([H])([H])[H])C([H])([H])[H])C(C([H])([H])[H])(C([H])([H])[H])C([H])([H])[H])C([H])(C(=O)N([H])C1([H])c3c([H])c([H])c([H])c([H])c3C([H])([H])C([H])([H])C1([H])[H])C2([H])[H])C([H])([H])[N+]([H])([H])C([H])([H])c1nc([H])c(N([H])C(=O)N2C([H])([H])C([H])([H])C([H])([H])C([H])(n3nc(-c4c([H])c([H])c(Oc5c([H])c([H])c(F)c([H])c5F)c([H])c4[H])c(C(=O)N([H])[H])c3N([H])[H])C2([H])[H])c([H])n1

$$$$
44:0:0
     RDKit          3D

 97105  0  0  1  0  0  0  0  0999 V2000
  -28.8990  -21.1720   20.1620 N   0  0  0  0  0  0  0  0  0  0  0  0
  -28.0020  -21.3280   20.6050 H   0  0  0  0  0  0  0  0  0  0  0  0
  -30.7110  -14.6670   19.5460 C   0  0  0  0  0  0  0  0  0  0  0  0
  -30.4320  -12.4190   18.5050 C   0  0  0  0  0  2  0  0  0  0  0  0
  -29.3500  -12.5420   17.4080 C   0  0  0  0  0  2  0  0  0  0  0  0
  -27.9330  -12.3860   17.9970 C   0  0  0  0  0  2  0  0  0  0  0  0
  -27.7190  -13.2360   19.2780 C   0  0  0  0  0  3  0  0  0  0  0  0
  -28.8970  -13.0500   20.2590 C   0  0  0  0  0  2  0  0  0  0  0  0
  -30.1330  -13.4190   19.5480 N   0  0  0  0  0  0  0  0  0  0  0  0
  -31.8210  -14.8510   19.0320 O   0  0  0  0  0  0  0  0  0  0  0  0
  -28.3320  -18.8040   20.5670 C   0  0  0  0  0  0  0  0  0  0  0  0
  -29.2120  -19.7720   20.0040 C   0  0  0  0  0  0  0  0  0  0  0  0
  -29.7360  -17.0680   19.9560 C   0  0  0  0  0  0  0  0  0  0  0  0
  -28.5960  -17.4760   20.5370 N   0  0  0  0  0  0  0  0  0  0  0  0
  -30.3420  -19.2830   19.4030 N   0  0  0  0  0  0  0  0  0  0  0  0
  -30.6100  -17.9370   19.3790 N   0  0  0  0  0  0  0  0  0  0  0  0
  -29.8930  -15.6640   20.0190 N   0  0  0  0  0  0  0  0  0  0  0  0
  -29.0870  -15.2540   20.4540 H   0  0  0  0  0  0  0  0  0  0  0  0
  -25.4480  -13.8560   20.3050 C   0  0  0  0  0  0  0  0  0  0  0  0
  -24.4130  -13.0890   20.7670 C   0  0  0  0  0  0  0  0  0  0  0  0
  -24.8320  -11.7320   20.6250 C   0  0  0  0  0  0  0  0  0  0  0  0
  -26.4320  -12.9630   19.9090 N   0  0  0  0  0  0  0  0  0  0  0  0
  -26.0740  -11.6790   20.1620 N   0  0  0  0  0  0  0  0  0  0  0  0
  -24.1020  -10.4770   20.8500 C   0  0  0  0  0  0  0  0  0  0  0  0
  -24.5770   -9.4990   21.7520 C   0  0  0  0  0  3  0  0  0  0  0  0
  -23.8470   -8.3090   21.9650 C   0  0  0  0  0  3  0  0  0  0  0  0
  -22.6290   -8.0920   21.2790 C   0  0  0  0  0  0  0  0  0  0  0  0
  -22.1730   -9.0580   20.3650 C   0  0  0  0  0  3  0  0  0  0  0  0
  -22.9020  -10.2400   20.1510 C   0  0  0  0  0  3  0  0  0  0  0  0
  -21.8670   -6.9560   21.4030 O   0  0  0  0  0  0  0  0  0  0  0  0
  -21.8050   -6.2570   22.5810 C   0  0  0  0  0  0  0  0  0  0  0  0
  -21.3170   -6.8420   23.7700 C   0  0  0  0  0  3  0  0  0  0  0  0
  -21.2060   -6.0680   24.9430 C   0  0  0  0  0  3  0  0  0  0  0  0
  -21.5700   -4.7070   24.9260 C   0  0  0  0  0  0  0  0  0  0  0  0
  -22.0500   -4.1210   23.7410 C   0  0  0  0  0  3  0  0  0  0  0  0
  -22.1630   -4.8940   22.5710 C   0  0  0  0  0  0  0  0  0  0  0  0
  -22.6070   -4.3180   21.4290 F   0  0  0  0  0  0  0  0  0  0  0  0
  -21.4550   -3.9610   26.0490 F   0  0  0  0  0  0  0  0  0  0  0  0
  -23.0710  -13.5840   21.2260 C   0  0  0  0  0  0  0  0  0  0  0  0
  -22.4530  -12.8880   22.1740 N   0  0  0  0  0  0  0  0  0  0  0  0
  -22.5830  -14.6210   20.7790 O   0  0  0  0  0  0  0  0  0  0  0  0
  -22.8630  -12.0480   22.5570 H   0  0  0  0  0  0  0  0  0  0  0  0
  -21.5590  -13.2030   22.5250 H   0  0  0  0  0  0  0  0  0  0  0  0
  -25.6290  -15.2300   20.1730 N   0  0  0  0  0  0  0  0  0  0  0  0
  -24.9080  -15.8950   20.4350 H   0  0  0  0  0  0  0  0  0  0  0  0
  -26.4650  -15.6820   19.8260 H   0  0  0  0  0  0  0  0  0  0  0  0
  -27.1440  -19.1680   21.1970 N   0  0  0  0  0  0  0  0  0  0  0  0
  -26.9720  -20.1390   21.4110 H   0  0  0  0  0  0  0  0  0  0  0  0
  -26.7140  -18.5140   21.8370 H   0  0  0  0  0  0  0  0  0  0  0  0
  -29.4200  -22.4290   19.5250 C   0  0  0  0  0  3  0  0  0  0  0  0
  -31.5450  -22.3700   21.0440 C   0  0  0  0  0  1  0  0  0  0  0  0
  -30.9600  -22.5170   19.6270 C   0  0  0  0  0  2  0  0  0  0  0  0
  -28.7010  -23.7870   20.0550 C   0  0  0  0  0  3  0  0  0  0  0  0
  -27.3330  -23.4410   20.2140 O   0  0  0  0  0  0  0  0  0  0  0  0
  -26.9950  -23.2240   19.3510 H   0  0  0  0  0  0  0  0  0  0  0  0
  -28.7720  -25.1380   19.1720 C   0  0  0  0  0  2  0  0  0  0  0  0
  -28.6320  -26.4910   19.7790 O   0  0  0  0  0  0  0  0  0  0  0  0
  -24.7160  -31.5880   23.0450 C   0  0  0  0  0  0  0  0  0  0  0  0
  -27.4550  -27.2630   19.7530 C   0  0  0  0  0  0  0  0  0  0  0  0
  -23.5430  -30.2270   21.3510 C   0  0  0  0  0  3  0  0  0  0  0  0
  -25.0280  -28.7910   19.8400 C   0  0  0  0  0  0  0  0  0  0  0  0
  -26.0650  -30.6400   21.1580 C   0  0  0  0  0  2  0  0  0  0  0  0
  -26.1840  -29.2960   20.4470 C   0  0  0  0  0  0  0  0  0  0  0  0
  -27.3940  -28.5420   20.3950 C   0  0  0  0  0  3  0  0  0  0  0  0
  -26.2700  -26.8040   19.1360 C   0  0  0  0  0  3  0  0  0  0  0  0
  -25.0730  -27.5520   19.1780 C   0  0  0  0  0  3  0  0  0  0  0  0
  -23.7610  -29.6200   19.9390 C   0  0  0  0  0  2  0  0  0  0  0  0
  -24.7940  -30.8340   21.9080 N   0  0  0  0  0  0  0  0  0  0  0  0
  -23.6280  -31.8020   23.6020 O   0  0  0  0  0  0  0  0  0  0  0  0
  -22.9250  -29.1460   22.2690 C   0  0  0  0  0  0  0  0  0  0  0  0
  -21.6090  -28.9110   22.1250 N   0  0  0  0  0  0  0  0  0  0  0  0
  -23.6290  -28.5230   23.0690 O   0  0  0  0  0  0  0  0  0  0  0  0
  -21.0980  -29.4660   21.4530 H   0  0  0  0  0  0  0  0  0  0  0  0
  -18.2910  -27.5410   22.5630 C   0  0  0  0  0  0  0  0  0  0  0  0
  -20.8330  -27.9070   22.8560 C   0  0  0  0  0  3  0  0  0  0  0  0
  -21.0030  -26.5050   22.2260 C   0  0  0  0  0  2  0  0  0  0  0  0
  -19.9210  -26.1710   21.1940 C   0  0  0  0  0  2  0  0  0  0  0  0
  -18.5320  -26.2290   21.8360 C   0  0  0  0  0  2  0  0  0  0  0  0
  -19.3720  -28.3370   23.0270 C   0  0  0  0  0  0  0  0  0  0  0  0
  -19.0940  -29.5650   23.6660 C   0  0  0  0  0  3  0  0  0  0  0  0
  -17.7680  -29.9990   23.8460 C   0  0  0  0  0  3  0  0  0  0  0  0
  -16.7010  -29.2000   23.3960 C   0  0  0  0  0  3  0  0  0  0  0  0
  -16.9630  -27.9740   22.7610 C   0  0  0  0  0  3  0  0  0  0  0  0
  -25.9820  -32.2360   23.6860 C   0  0  0  0  0  3  0  0  0  0  0  0
  -25.6430  -33.6230   24.0380 N   0  0  0  0  0  0  0  0  0  0  0  0
  -25.9670  -34.6960   23.3060 C   0  0  0  0  0  0  0  0  0  0  0  0
  -26.6520  -34.6240   22.2830 O   0  0  0  0  0  0  0  0  0  0  0  0
  -25.0320  -33.7510   24.8320 H   0  0  0  0  0  0  0  0  0  0  0  0
  -24.2220  -36.4740   22.9510 C   0  0  0  0  0  1  0  0  0  0  0  0
  -25.4490  -36.0670   23.7820 C   0  0  0  0  0  3  0  0  0  0  0  0
  -27.5410  -36.9710   24.6950 C   0  0  0  0  0  1  0  0  0  0  0  0
  -26.4690  -37.1370   23.7180 N   0  0  0  0  0  0  0  0  0  0  0  0
  -26.0440  -38.0490   23.8630 H   0  0  0  0  0  0  0  0  0  0  0  0
  -26.5040  -31.4540   24.9550 C   0  0  1  0  0  0  0  0  0  0  0  0
  -25.4080  -31.1750   26.0100 C   0  0  0  0  0  1  0  0  0  0  0  0
  -27.1190  -30.0970   24.5450 C   0  0  0  0  0  1  0  0  0  0  0  0
  -27.6330  -32.2600   25.6390 C   0  0  0  0  0  1  0  0  0  0  0  0
  1  2  1  0
  3  9  1  0
  3 17  1  0
  4  9  1  0
  5  6  1  0
  5  4  1  0
  7  6  1  0
  7 22  1  0
  7  8  1  0
  9  8  1  0
 10  3  2  0
 11 47  1  0
 12  1  1  0
 12 11  2  0
 13 17  1  0
 13 14  2  0
 14 11  1  0
 15 12  1  0
 16 15  2  0
 16 13  1  0
 17 18  1  0
 19 20  2  0
 20 39  1  0
 21 20  1  0
 21 24  1  0
 22 23  1  0
 22 19  1  0
 23 21  2  0
 24 25  1  0
 25 26  2  0
 27 30  1  0
 27 26  1  0
 28 27  2  0
 29 28  1  0
 29 24  2  0
 30 31  1  0
 31 32  1  0
 32 33  2  0
 34 33  1  0
 34 38  1  0
 35 34  2  0
 36 31  2  0
 36 35  1  0
 37 36  1  0
 39 40  1  0
 40 43  1  0
 40 42  1  0
 41 39  2  0
 44 19  1  0
 44 45  1  0
 46 44  1  0
 47 48  1  0
 47 49  1  0
 50 52  1  0
 50 53  1  0
 50  1  1  0
 52 51  1  0
 53 56  1  0
 53 54  1  0
 55 54  1  0
 56 57  1  0
 58 69  2  0
 59 57  1  0
 59 64  1  0
 60 68  1  0
 60 70  1  0
 61 67  1  0
 61 63  1  0
 62 68  1  0
 63 62  1  0
 64 63  2  0
 65 66  1  0
 65 59  2  0
 66 61  2  0
 67 60  1  0
 68 58  1  0
 70 72  2  0
 71 70  1  0
 73 71  1  0
 74 83  2  0
 74 79  1  0
 75 71  1  0
 75 79  1  0
 76 75  1  0
 77 78  1  0
 77 76  1  0
 78 74  1  0
 79 80  2  0
 80 81  1  0
 82 81  2  0
 83 82  1  0
 84 58  1  0
 84 85  1  0
 84 94  1  0
 85 88  1  0
 86 90  1  0
 86 85  1  0
 87 86  2  0
 90 89  1  0
 92 90  1  0
 92 93  1  0
 92 91  1  0
 94 97  1  1
 94 95  1  0
 96 94  1  0
M  ISO  4   3 100  17 100  56 101  57 101
M  END
>  <TORSDO>  (45) 
F 22

>  <SCORE>  (45) 
-11.158

>  <name>  (45) 
44

>  <ligand_id>  (45) 
44

>  <original_smiles>  (45) 
[H]OC([H])(C([H])([H])Oc1c([H])c([H])c2c(c1[H])C([H])([H])N(C(=O)C([H])(N([H])C(=O)C([H])(N([H])C([H])([H])[H])C([H])([H])[H])C(C([H])([H])[H])(C([H])([H])[H])C([H])([H])[H])C([H])(C(=O)N([H])C1([H])c3c([H])c([H])c([H])c([H])c3C([H])([H])C([H])([H])C1([H])[H])C2([H])[H])C([H])(N([H])c1nnc(N([H])C(=O)N2C([H])([H])C([H])([H])C([H])([H])C([H])(n3nc(-c4c([H])c([H])c(Oc5c([H])c([H])c(F)c([H])c5F)c([H])c4[H])c(C(=O)N([H])[H])c3N([H])[H])C2([H])[H])nc1N([H])[H])C([H])([H])C([H])([H])[H]

>  <smiles>  (45) 
[H]OC([H])(C([H])([H])Oc1c([H])c([H])c2c(c1[H])C([H])([H])N(C(=O)C([H])(N([H])C(=O)C([H])(N([H])C([H])([H])[H])C([H])([H])[H])C(C([H])([H])[H])(C([H])([H])[H])C([H])([H])[H])C([H])(C(=O)N([H])C1([H])c3c([H])c([H])c([H])c([H])c3C([H])([H])C([H])([H])C1([H])[H])C2([H])[H])C([H])(N([H])c1nnc(N([H])C(=O)N2C([H])([H])C([H])([H])C([H])([H])C([H])(n3nc(-c4c([H])c([H])c(Oc5c([H])c([H])c(F)c([H])c5F)c([H])c4[H])c(C(=O)N([H])[H])c3N([H])[H])C2([H])[H])nc1N([H])[H])C([H])([H])C([H])([H])[H]

$$$$
45:0:0
     RDKit          3D

 90 98  0  0  1  0  0  0  0  0999 V2000
  -28.9690  -22.2940   19.9750 C   0  0  0  0  0  3  0  0  0  0  0  0
  -28.9920  -20.9750   20.9180 C   0  0  0  0  0  3  0  0  0  0  0  0
  -29.0770  -18.3050   20.8740 C   0  0  0  0  0  3  0  0  0  0  0  0
  -30.5640  -19.3070   19.6820 C   0  0  0  0  0  3  0  0  0  0  0  0
  -29.9190  -17.3150   20.3390 C   0  0  0  0  0  0  0  0  0  0  0  0
  -30.8650  -17.9970   19.5660 N   0  0  0  0  0  0  0  0  0  0  0  0
  -29.5010  -19.6070   20.4560 N   0  0  0  0  0  0  0  0  0  0  0  0
  -30.5760  -14.7620   20.1750 C   0  0  0  0  0  0  0  0  0  0  0  0
  -30.3620  -12.5010   19.1300 C   0  0  0  0  0  2  0  0  0  0  0  0
  -29.3890  -12.6080   17.9340 C   0  0  0  0  0  2  0  0  0  0  0  0
  -27.9300  -12.4320   18.3990 C   0  0  0  0  0  2  0  0  0  0  0  0
  -27.5950  -13.2930   19.6460 C   0  0  0  0  0  3  0  0  0  0  0  0
  -28.6820  -13.1620   20.7360 C   0  0  0  0  0  2  0  0  0  0  0  0
  -29.9660  -13.5270   20.1230 N   0  0  0  0  0  0  0  0  0  0  0  0
  -31.7400  -14.8820   19.7760 O   0  0  0  0  0  0  0  0  0  0  0  0
  -29.7950  -15.8490   20.5420 N   0  0  0  0  0  0  0  0  0  0  0  0
  -28.9180  -15.5670   20.9510 H   0  0  0  0  0  0  0  0  0  0  0  0
  -25.2220  -13.8790   20.4270 C   0  0  0  0  0  0  0  0  0  0  0  0
  -24.1670  -13.1020   20.8210 C   0  0  0  0  0  0  0  0  0  0  0  0
  -24.6320  -11.7510   20.7770 C   0  0  0  0  0  0  0  0  0  0  0  0
  -26.2620  -13.0010   20.1650 N   0  0  0  0  0  0  0  0  0  0  0  0
  -25.9150  -11.7170   20.4370 N   0  0  0  0  0  0  0  0  0  0  0  0
  -23.9130  -10.4870   20.9810 C   0  0  0  0  0  0  0  0  0  0  0  0
  -24.3630   -9.5230   21.9100 C   0  0  0  0  0  3  0  0  0  0  0  0
  -23.6430   -8.3230   22.1010 C   0  0  0  0  0  3  0  0  0  0  0  0
  -22.4600   -8.0800   21.3640 C   0  0  0  0  0  0  0  0  0  0  0  0
  -22.0290   -9.0320   20.4250 C   0  0  0  0  0  3  0  0  0  0  0  0
  -22.7490  -10.2230   20.2310 C   0  0  0  0  0  3  0  0  0  0  0  0
  -21.7100   -6.9330   21.4660 O   0  0  0  0  0  0  0  0  0  0  0  0
  -21.6760   -6.1960   22.6230 C   0  0  0  0  0  0  0  0  0  0  0  0
  -21.2460   -6.7510   23.8480 C   0  0  0  0  0  3  0  0  0  0  0  0
  -21.1600   -5.9400   24.9970 C   0  0  0  0  0  3  0  0  0  0  0  0
  -21.4930   -4.5750   24.9230 C   0  0  0  0  0  0  0  0  0  0  0  0
  -21.9160   -4.0190   23.7020 C   0  0  0  0  0  3  0  0  0  0  0  0
  -22.0040   -4.8260   22.5550 C   0  0  0  0  0  0  0  0  0  0  0  0
  -22.3910   -4.2810   21.3770 F   0  0  0  0  0  0  0  0  0  0  0  0
  -21.4030   -3.7930   26.0240 F   0  0  0  0  0  0  0  0  0  0  0  0
  -22.7750  -13.5750   21.1250 C   0  0  0  0  0  0  0  0  0  0  0  0
  -22.0680  -12.8750   22.0060 N   0  0  0  0  0  0  0  0  0  0  0  0
  -22.3240  -14.6010   20.6180 O   0  0  0  0  0  0  0  0  0  0  0  0
  -22.4460  -12.0450   22.4370 H   0  0  0  0  0  0  0  0  0  0  0  0
  -21.1360  -13.1740   22.2530 H   0  0  0  0  0  0  0  0  0  0  0  0
  -25.3780  -15.2500   20.2470 N   0  0  0  0  0  0  0  0  0  0  0  0
  -24.6060  -15.8960   20.3660 H   0  0  0  0  0  0  0  0  0  0  0  0
  -26.2050  -15.6900   19.8620 H   0  0  0  0  0  0  0  0  0  0  0  0
  -28.6310  -23.7520   20.6240 C   0  0  0  0  0  3  0  0  0  0  0  0
  -29.7100  -24.0320   21.4970 O   0  0  0  0  0  0  0  0  0  0  0  0
  -29.5620  -24.9080   21.8470 H   0  0  0  0  0  0  0  0  0  0  0  0
  -28.4820  -25.0700   19.6910 C   0  0  0  0  0  2  0  0  0  0  0  0
  -28.3450  -26.4470   20.2820 O   0  0  0  0  0  0  0  0  0  0  0  0
  -24.5600  -31.8640   23.2360 C   0  0  0  0  0  0  0  0  0  0  0  0
  -27.2070  -27.2820   20.1900 C   0  0  0  0  0  0  0  0  0  0  0  0
  -23.3750  -30.4680   21.5800 C   0  0  0  0  0  3  0  0  0  0  0  0
  -24.8400  -28.9180   20.1620 C   0  0  0  0  0  0  0  0  0  0  0  0
  -25.9170  -30.7810   21.4240 C   0  0  0  0  0  2  0  0  0  0  0  0
  -26.0040  -29.4010   20.7720 C   0  0  0  0  0  0  0  0  0  0  0  0
  -27.1840  -28.5940   20.7760 C   0  0  0  0  0  3  0  0  0  0  0  0
  -26.0140  -26.8590   19.5610 C   0  0  0  0  0  3  0  0  0  0  0  0
  -24.8510  -27.6560   19.5480 C   0  0  0  0  0  3  0  0  0  0  0  0
  -23.6030  -29.7940   20.2010 C   0  0  0  0  0  2  0  0  0  0  0  0
  -24.6360  -31.0570   22.1370 N   0  0  0  0  0  0  0  0  0  0  0  0
  -23.4710  -32.1400   23.7600 O   0  0  0  0  0  0  0  0  0  0  0  0
  -22.7030  -29.4510   22.5330 C   0  0  0  0  0  0  0  0  0  0  0  0
  -21.3780  -29.2720   22.3940 N   0  0  0  0  0  0  0  0  0  0  0  0
  -23.3740  -28.8230   23.3580 O   0  0  0  0  0  0  0  0  0  0  0  0
  -20.8950  -29.8300   21.7030 H   0  0  0  0  0  0  0  0  0  0  0  0
  -17.9960  -28.0770   22.8680 C   0  0  0  0  0  0  0  0  0  0  0  0
  -20.5520  -28.3310   23.1540 C   0  0  0  0  0  3  0  0  0  0  0  0
  -20.6560  -26.9030   22.5720 C   0  0  0  0  0  2  0  0  0  0  0  0
  -19.5610  -26.5870   21.5490 C   0  0  0  0  0  2  0  0  0  0  0  0
  -18.1750  -26.7300   22.1860 C   0  0  0  0  0  2  0  0  0  0  0  0
  -19.1120  -28.8350   23.3080 C   0  0  0  0  0  0  0  0  0  0  0  0
  -18.8910  -30.0950   23.9060 C   0  0  0  0  0  3  0  0  0  0  0  0
  -17.5850  -30.5960   24.0670 C   0  0  0  0  0  3  0  0  0  0  0  0
  -16.4830  -29.8340   23.6420 C   0  0  0  0  0  3  0  0  0  0  0  0
  -16.6890  -28.5770   23.0470 C   0  0  0  0  0  3  0  0  0  0  0  0
  -25.8340  -32.4990   23.8720 C   0  0  0  0  0  3  0  0  0  0  0  0
  -25.5230  -33.9000   24.1920 N   0  0  0  0  0  0  0  0  0  0  0  0
  -25.8620  -34.9490   23.4320 C   0  0  0  0  0  0  0  0  0  0  0  0
  -26.5390  -34.8400   22.4050 O   0  0  0  0  0  0  0  0  0  0  0  0
  -24.9220  -34.0580   24.9880 H   0  0  0  0  0  0  0  0  0  0  0  0
  -24.1420  -36.7460   23.0540 C   0  0  0  0  0  1  0  0  0  0  0  0
  -25.3740  -36.3400   23.8790 C   0  0  0  0  0  3  0  0  0  0  0  0
  -27.5000  -37.2250   24.7310 C   0  0  0  0  0  1  0  0  0  0  0  0
  -26.4100  -37.3900   23.7730 N   0  0  0  0  0  0  0  0  0  0  0  0
  -26.0040  -38.3130   23.9090 H   0  0  0  0  0  0  0  0  0  0  0  0
  -26.3300  -31.7350   25.1620 C   0  0  1  0  0  0  0  0  0  0  0  0
  -25.2200  -31.5070   26.2150 C   0  0  0  0  0  1  0  0  0  0  0  0
  -26.9160  -30.3540   24.7890 C   0  0  0  0  0  1  0  0  0  0  0  0
  -27.4720  -32.5310   25.8370 C   0  0  0  0  0  1  0  0  0  0  0  0
  1 46  1  0
  1  2  2  0
  4  7  1  0
  5 16  1  0
  5  3  2  0
  6  4  2  0
  6  5  1  0
  7  3  1  0
  7  2  1  0
  8 16  1  0
  9 14  1  0
 10 11  1  0
 10  9  1  0
 12 11  1  0
 12 21  1  0
 12 13  1  0
 14  8  1  0
 14 13  1  0
 15  8  2  0
 16 17  1  0
 18 19  2  0
 19 38  1  0
 20 19  1  0
 20 23  1  0
 21 18  1  0
 21 22  1  0
 22 20  2  0
 23 24  1  0
 24 25  2  0
 26 29  1  0
 26 25  1  0
 27 26  2  0
 28 27  1  0
 28 23  2  0
 29 30  1  0
 30 31  1  0
 31 32  2  0
 33 32  1  0
 33 37  1  0
 34 33  2  0
 35 30  2  0
 35 34  1  0
 36 35  1  0
 38 39  1  0
 39 42  1  0
 39 41  1  0
 40 38  2  0
 43 44  1  0
 43 18  1  0
 45 43  1  0
 46 49  1  0
 46 47  1  0
 47 48  1  0
 49 50  1  0
 51 62  2  0
 52 50  1  0
 52 57  1  0
 53 61  1  0
 53 63  1  0
 54 60  1  0
 54 56  1  0
 55 61  1  0
 56 57  2  0
 56 55  1  0
 58 52  2  0
 59 58  1  0
 59 54  2  0
 60 53  1  0
 61 51  1  0
 63 65  2  0
 64 63  1  0
 66 64  1  0
 67 76  2  0
 67 72  1  0
 68 64  1  0
 68 72  1  0
 69 68  1  0
 70 71  1  0
 70 69  1  0
 71 67  1  0
 72 73  2  0
 73 74  1  0
 75 74  2  0
 76 75  1  0
 77 51  1  0
 77 78  1  0
 77 87  1  0
 78 81  1  0
 79 83  1  0
 79 78  1  0
 80 79  2  0
 83 82  1  0
 85 83  1  0
 85 86  1  0
 85 84  1  0
 87 90  1  1
 87 88  1  0
 89 87  1  0
M  ISO  4   8 100  16 100  49 101  50 101
M  END
>  <TORSDO>  (46) 
F 21

>  <SCORE>  (46) 
-13.594

>  <name>  (46) 
45

>  <ligand_id>  (46) 
45

>  <original_smiles>  (46) 
[H]OC([H])(C([H])([H])Oc1c([H])c([H])c2c(c1[H])C([H])([H])N(C(=O)C([H])(N([H])C(=O)C([H])(N([H])C([H])([H])[H])C([H])([H])[H])C(C([H])([H])[H])(C([H])([H])[H])C([H])([H])[H])C([H])(C(=O)N([H])C1([H])c3c([H])c([H])c([H])c([H])c3C([H])([H])C([H])([H])C1([H])[H])C2([H])[H])C([H])([H])C([H])([H])n1c([H])nc(N([H])C(=O)N2C([H])([H])C([H])([H])C([H])([H])C([H])(n3nc(-c4c([H])c([H])c(Oc5c([H])c([H])c(F)c([H])c5F)c([H])c4[H])c(C(=O)N([H])[H])c3N([H])[H])C2([H])[H])c1[H]

>  <smiles>  (46) 
[H]OC([H])(C([H])([H])Oc1c([H])c([H])c2c(c1[H])C([H])([H])N(C(=O)C([H])(N([H])C(=O)C([H])(N([H])C([H])([H])[H])C([H])([H])[H])C(C([H])([H])[H])(C([H])([H])[H])C([H])([H])[H])C([H])(C(=O)N([H])C1([H])c3c([H])c([H])c([H])c([H])c3C([H])([H])C([H])([H])C1([H])[H])C2([H])[H])C([H])([H])C([H])([H])n1c([H])nc(N([H])C(=O)N2C([H])([H])C([H])([H])C([H])([H])C([H])(n3nc(-c4c([H])c([H])c(Oc5c([H])c([H])c(F)c([H])c5F)c([H])c4[H])c(C(=O)N([H])[H])c3N([H])[H])C2([H])[H])c1[H]

$$$$
46:0:0
     RDKit          3D

 92100  0  0  1  0  0  0  0  0999 V2000
  -28.8860  -23.1220   20.8290 C   0  0  0  0  0  2  0  0  0  0  0  0
  -28.2350  -18.2670   20.4850 C   0  0  0  0  0  3  0  0  0  0  0  0
  -29.5430  -18.2720   20.0580 C   0  0  0  0  0  0  0  0  0  0  0  0
  -29.1300  -20.5560   20.1580 C   0  0  0  0  0  0  0  0  0  0  0  0
  -30.0140  -19.5930   19.8500 N   0  0  0  0  0  0  0  0  0  0  0  0
  -29.3950  -21.9380   20.0850 N   0  0  0  0  0  0  0  0  0  0  0  0
  -27.5980  -19.8880   20.7100 S   0  0  0  0  0  0  0  0  0  0  0  0
  -30.3380  -22.0980   19.7420 H   0  0  0  0  0  0  0  0  0  0  0  0
  -30.4910  -17.0900   19.8450 C   0  0  0  0  0  2  0  0  0  0  0  0
  -30.7280  -14.6150   19.8160 C   0  0  0  0  0  0  0  0  0  0  0  0
  -30.3650  -12.3940   18.8010 C   0  0  0  0  0  2  0  0  0  0  0  0
  -29.3490  -12.5520   17.6500 C   0  0  0  0  0  2  0  0  0  0  0  0
  -27.9080  -12.4280   18.1820 C   0  0  0  0  0  2  0  0  0  0  0  0
  -27.6520  -13.3160   19.4310 C   0  0  0  0  0  3  0  0  0  0  0  0
  -28.7800  -13.1510   20.4750 C   0  0  0  0  0  2  0  0  0  0  0  0
  -30.0550  -13.4310   19.8020 N   0  0  0  0  0  0  0  0  0  0  0  0
  -31.8570  -14.7280   19.3310 O   0  0  0  0  0  0  0  0  0  0  0  0
  -30.0260  -15.7180   20.1680 N   0  0  0  0  0  0  0  0  0  0  0  0
  -29.0860  -15.6010   20.5150 H   0  0  0  0  0  0  0  0  0  0  0  0
  -25.3390  -13.9630   20.3460 C   0  0  0  0  0  0  0  0  0  0  0  0
  -24.2820  -13.2070   20.7780 C   0  0  0  0  0  0  0  0  0  0  0  0
  -24.7010  -11.8470   20.6750 C   0  0  0  0  0  0  0  0  0  0  0  0
  -26.3350  -13.0610   20.0100 N   0  0  0  0  0  0  0  0  0  0  0  0
  -25.9610  -11.7810   20.2670 N   0  0  0  0  0  0  0  0  0  0  0  0
  -23.9570  -10.5970   20.8860 C   0  0  0  0  0  0  0  0  0  0  0  0
  -24.4010   -9.6180   21.8040 C   0  0  0  0  0  3  0  0  0  0  0  0
  -23.6580   -8.4360   22.0030 C   0  0  0  0  0  3  0  0  0  0  0  0
  -22.4570   -8.2220   21.2870 C   0  0  0  0  0  0  0  0  0  0  0  0
  -22.0310   -9.1880   20.3580 C   0  0  0  0  0  3  0  0  0  0  0  0
  -22.7750  -10.3630   20.1560 C   0  0  0  0  0  3  0  0  0  0  0  0
  -21.6840   -7.0910   21.3970 O   0  0  0  0  0  0  0  0  0  0  0  0
  -21.6140   -6.3780   22.5670 C   0  0  0  0  0  0  0  0  0  0  0  0
  -21.1900   -6.9710   23.7760 C   0  0  0  0  0  3  0  0  0  0  0  0
  -21.0650   -6.1860   24.9400 C   0  0  0  0  0  3  0  0  0  0  0  0
  -21.3550   -4.8090   24.8950 C   0  0  0  0  0  0  0  0  0  0  0  0
  -21.7740   -4.2160   23.6920 C   0  0  0  0  0  3  0  0  0  0  0  0
  -21.9000   -4.9990   22.5300 C   0  0  0  0  0  0  0  0  0  0  0  0
  -22.2810   -4.4180   21.3670 F   0  0  0  0  0  0  0  0  0  0  0  0
  -21.2290   -4.0530   26.0110 F   0  0  0  0  0  0  0  0  0  0  0  0
  -22.9240  -13.7120   21.1710 C   0  0  0  0  0  0  0  0  0  0  0  0
  -22.2530  -13.0160   22.0840 N   0  0  0  0  0  0  0  0  0  0  0  0
  -22.4690  -14.7570   20.7060 O   0  0  0  0  0  0  0  0  0  0  0  0
  -22.6330  -12.1690   22.4790 H   0  0  0  0  0  0  0  0  0  0  0  0
  -21.3460  -13.3340   22.3940 H   0  0  0  0  0  0  0  0  0  0  0  0
  -25.5280  -15.3340   20.1910 N   0  0  0  0  0  0  0  0  0  0  0  0
  -24.7810  -16.0010   20.3570 H   0  0  0  0  0  0  0  0  0  0  0  0
  -26.3490  -15.7570   19.7800 H   0  0  0  0  0  0  0  0  0  0  0  0
  -28.0450  -24.1640   20.0040 C   0  0  0  0  0  3  0  0  0  0  0  0
  -27.5610  -23.3890   18.9290 O   0  0  0  0  0  0  0  0  0  0  0  0
  -28.1170  -22.6050   18.9820 H   0  0  0  0  0  0  0  0  0  0  0  0
  -28.7540  -25.4650   19.4640 C   0  0  0  0  0  2  0  0  0  0  0  0
  -28.5530  -26.7180   20.1720 O   0  0  0  0  0  0  0  0  0  0  0  0
  -24.5250  -31.7520   23.2430 C   0  0  0  0  0  0  0  0  0  0  0  0
  -27.3500  -27.4140   20.1150 C   0  0  0  0  0  0  0  0  0  0  0  0
  -23.3820  -30.3300   21.5730 C   0  0  0  0  0  3  0  0  0  0  0  0
  -24.9020  -28.8660   20.1270 C   0  0  0  0  0  0  0  0  0  0  0  0
  -25.8990  -30.7720   21.4020 C   0  0  0  0  0  2  0  0  0  0  0  0
  -26.0380  -29.4130   20.7370 C   0  0  0  0  0  0  0  0  0  0  0  0
  -27.2600  -28.6920   20.7270 C   0  0  0  0  0  3  0  0  0  0  0  0
  -26.1900  -26.8930   19.4950 C   0  0  0  0  0  3  0  0  0  0  0  0
  -24.9770  -27.6110   19.5000 C   0  0  0  0  0  3  0  0  0  0  0  0
  -23.6250  -29.6790   20.1840 C   0  0  0  0  0  2  0  0  0  0  0  0
  -24.6190  -30.9680   22.1300 N   0  0  0  0  0  0  0  0  0  0  0  0
  -23.4310  -31.9760   23.7810 O   0  0  0  0  0  0  0  0  0  0  0  0
  -22.7640  -29.2720   22.5150 C   0  0  0  0  0  0  0  0  0  0  0  0
  -21.4450  -29.0490   22.3840 N   0  0  0  0  0  0  0  0  0  0  0  0
  -23.4670  -28.6580   23.3210 O   0  0  0  0  0  0  0  0  0  0  0  0
  -20.9370  -29.5970   21.7050 H   0  0  0  0  0  0  0  0  0  0  0  0
  -18.1130  -27.7450   22.8820 C   0  0  0  0  0  0  0  0  0  0  0  0
  -20.6640  -28.0720   23.1410 C   0  0  0  0  0  3  0  0  0  0  0  0
  -20.8030  -26.6570   22.5340 C   0  0  0  0  0  2  0  0  0  0  0  0
  -19.7030  -26.3230   21.5220 C   0  0  0  0  0  2  0  0  0  0  0  0
  -18.3220  -26.4160   22.1760 C   0  0  0  0  0  2  0  0  0  0  0  0
  -19.2110  -28.5300   23.3200 C   0  0  0  0  0  0  0  0  0  0  0  0
  -18.9610  -29.7720   23.9420 C   0  0  0  0  0  3  0  0  0  0  0  0
  -17.6440  -30.2310   24.1290 C   0  0  0  0  0  3  0  0  0  0  0  0
  -16.5600  -29.4440   23.7060 C   0  0  0  0  0  3  0  0  0  0  0  0
  -16.7950  -28.2020   23.0890 C   0  0  0  0  0  3  0  0  0  0  0  0
  -25.7830  -32.4220   23.8790 C   0  0  0  0  0  3  0  0  0  0  0  0
  -25.4260  -33.8090   24.2090 N   0  0  0  0  0  0  0  0  0  0  0  0
  -25.7330  -34.8740   23.4560 C   0  0  0  0  0  0  0  0  0  0  0  0
  -26.4160  -34.7950   22.4310 O   0  0  0  0  0  0  0  0  0  0  0  0
  -24.8160  -33.9420   25.0030 H   0  0  0  0  0  0  0  0  0  0  0  0
  -23.9480  -36.6090   23.0900 C   0  0  0  0  0  1  0  0  0  0  0  0
  -25.1950  -36.2450   23.9100 C   0  0  0  0  0  3  0  0  0  0  0  0
  -27.2910  -37.2010   24.7600 C   0  0  0  0  0  1  0  0  0  0  0  0
  -26.1940  -37.3320   23.8060 N   0  0  0  0  0  0  0  0  0  0  0  0
  -25.7570  -38.2380   23.9490 H   0  0  0  0  0  0  0  0  0  0  0  0
  -26.3140  -31.6660   25.1580 C   0  0  1  0  0  0  0  0  0  0  0  0
  -25.2190  -31.3850   26.2130 C   0  0  0  0  0  1  0  0  0  0  0  0
  -26.9500  -30.3120   24.7690 C   0  0  0  0  0  1  0  0  0  0  0  0
  -27.4290  -32.4980   25.8340 C   0  0  0  0  0  1  0  0  0  0  0  0
  2  7  1  0
  3  2  2  0
  4  7  1  0
  5  3  1  0
  5  4  2  0
  6  4  1  0
  6  1  1  0
  8  6  1  0
  9  3  1  0
  9 18  1  0
 10 18  1  0
 11 16  1  0
 12 13  1  0
 12 11  1  0
 14 13  1  0
 14 23  1  0
 14 15  1  0
 16 10  1  0
 16 15  1  0
 17 10  2  0
 18 19  1  0
 20 21  2  0
 21 40  1  0
 22 21  1  0
 22 25  1  0
 23 24  1  0
 23 20  1  0
 24 22  2  0
 25 26  1  0
 26 27  2  0
 28 31  1  0
 28 27  1  0
 29 28  2  0
 30 29  1  0
 30 25  2  0
 31 32  1  0
 32 33  1  0
 33 34  2  0
 35 34  1  0
 35 39  1  0
 36 35  2  0
 37 32  2  0
 37 36  1  0
 38 37  1  0
 40 41  1  0
 41 44  1  0
 41 43  1  0
 42 40  2  0
 45 20  1  0
 45 46  1  0
 47 45  1  0
 48 51  1  0
 48  1  1  0
 49 50  1  0
 49 48  1  0
 51 52  1  0
 53 64  2  0
 54 52  1  0
 54 59  1  0
 55 63  1  0
 55 65  1  0
 56 62  1  0
 56 58  1  0
 57 63  1  0
 58 57  1  0
 59 58  2  0
 60 61  1  0
 60 54  2  0
 61 56  2  0
 62 55  1  0
 63 53  1  0
 65 67  2  0
 66 65  1  0
 68 66  1  0
 69 78  2  0
 69 74  1  0
 70 66  1  0
 70 74  1  0
 71 70  1  0
 72 73  1  0
 72 71  1  0
 73 69  1  0
 74 75  2  0
 75 76  1  0
 77 76  2  0
 78 77  1  0
 79 53  1  0
 79 80  1  0
 79 89  1  0
 80 83  1  0
 81 85  1  0
 81 80  1  0
 82 81  2  0
 85 84  1  0
 87 85  1  0
 87 88  1  0
 87 86  1  0
 89 92  1  1
 89 90  1  0
 91 89  1  0
M  ISO  4  10 100  18 100  51 101  52 101
M  END
>  <TORSDO>  (47) 
F 21

>  <SCORE>  (47) 
-12.364

>  <name>  (47) 
46

>  <ligand_id>  (47) 
46

>  <original_smiles>  (47) 
[H]OC([H])(C([H])([H])Oc1c([H])c([H])c2c(c1[H])C([H])([H])N(C(=O)C([H])(N([H])C(=O)C([H])(N([H])C([H])([H])[H])C([H])([H])[H])C(C([H])([H])[H])(C([H])([H])[H])C([H])([H])[H])C([H])(C(=O)N([H])C1([H])c3c([H])c([H])c([H])c([H])c3C([H])([H])C([H])([H])C1([H])[H])C2([H])[H])C([H])([H])N([H])c1nc(C([H])([H])N([H])C(=O)N2C([H])([H])C([H])([H])C([H])([H])C([H])(n3nc(-c4c([H])c([H])c(Oc5c([H])c([H])c(F)c([H])c5F)c([H])c4[H])c(C(=O)N([H])[H])c3N([H])[H])C2([H])[H])c([H])s1

>  <smiles>  (47) 
[H]OC([H])(C([H])([H])Oc1c([H])c([H])c2c(c1[H])C([H])([H])N(C(=O)C([H])(N([H])C(=O)C([H])(N([H])C([H])([H])[H])C([H])([H])[H])C(C([H])([H])[H])(C([H])([H])[H])C([H])([H])[H])C([H])(C(=O)N([H])C1([H])c3c([H])c([H])c([H])c([H])c3C([H])([H])C([H])([H])C1([H])[H])C2([H])[H])C([H])([H])N([H])c1nc(C([H])([H])N([H])C(=O)N2C([H])([H])C([H])([H])C([H])([H])C([H])(n3nc(-c4c([H])c([H])c(Oc5c([H])c([H])c(F)c([H])c5F)c([H])c4[H])c(C(=O)N([H])[H])c3N([H])[H])C2([H])[H])c([H])s1

$$$$
47:0:0
     RDKit          3D

 93101  0  0  1  0  0  0  0  0999 V2000
  -29.7780  -21.6640   20.9050 N   0  0  0  0  0  4  0  0  0  0  0  0
  -29.5100  -21.4460   19.9520 H   0  0  0  0  0  0  0  0  0  0  0  0
  -30.7790  -21.7460   20.9030 H   0  0  0  0  0  0  0  0  0  0  0  0
  -29.4260  -23.1780   22.8880 C   0  0  0  0  0  1  0  0  0  0  0  0
  -29.1020  -22.9190   21.3950 C   0  0  0  0  0  3  0  0  0  0  0  0
  -29.4060  -24.2190   20.5410 C   0  0  0  0  0  2  0  0  0  0  0  0
  -28.2680  -25.3020   20.5800 C   0  0  0  0  0  2  0  0  0  0  0  0
  -28.5330  -26.6520   20.0700 O   0  0  0  0  0  0  0  0  0  0  0  0
  -24.5930  -31.8020   23.0940 C   0  0  0  0  0  0  0  0  0  0  0  0
  -27.3960  -27.4520   19.9880 C   0  0  0  0  0  0  0  0  0  0  0  0
  -23.4500  -30.3910   21.4190 C   0  0  0  0  0  3  0  0  0  0  0  0
  -24.9690  -28.9340   19.9700 C   0  0  0  0  0  0  0  0  0  0  0  0
  -25.9720  -30.8240   21.2550 C   0  0  0  0  0  2  0  0  0  0  0  0
  -26.1060  -29.4670   20.5880 C   0  0  0  0  0  0  0  0  0  0  0  0
  -27.3260  -28.7360   20.5910 C   0  0  0  0  0  3  0  0  0  0  0  0
  -26.2440  -26.9720   19.3220 C   0  0  0  0  0  3  0  0  0  0  0  0
  -25.0350  -27.6900   19.3240 C   0  0  0  0  0  3  0  0  0  0  0  0
  -23.6960  -29.7520   20.0250 C   0  0  0  0  0  2  0  0  0  0  0  0
  -24.6890  -31.0230   21.9800 N   0  0  0  0  0  0  0  0  0  0  0  0
  -23.4990  -32.0240   23.6330 O   0  0  0  0  0  0  0  0  0  0  0  0
  -22.8250  -29.3300   22.3540 C   0  0  0  0  0  0  0  0  0  0  0  0
  -21.5050  -29.1130   22.2270 N   0  0  0  0  0  0  0  0  0  0  0  0
  -23.5260  -28.7040   23.1540 O   0  0  0  0  0  0  0  0  0  0  0  0
  -20.9940  -29.6690   21.5570 H   0  0  0  0  0  0  0  0  0  0  0  0
  -18.1620  -27.8310   22.7240 C   0  0  0  0  0  0  0  0  0  0  0  0
  -20.7160  -28.1370   22.9800 C   0  0  0  0  0  3  0  0  0  0  0  0
  -20.8440  -26.7250   22.3610 C   0  0  0  0  0  2  0  0  0  0  0  0
  -19.7390  -26.4090   21.3490 C   0  0  0  0  0  2  0  0  0  0  0  0
  -18.3610  -26.5060   22.0090 C   0  0  0  0  0  2  0  0  0  0  0  0
  -19.2680  -28.6050   23.1660 C   0  0  0  0  0  0  0  0  0  0  0  0
  -19.0260  -29.8480   23.7920 C   0  0  0  0  0  3  0  0  0  0  0  0
  -17.7120  -30.3140   23.9850 C   0  0  0  0  0  3  0  0  0  0  0  0
  -16.6220  -29.5380   23.5600 C   0  0  0  0  0  3  0  0  0  0  0  0
  -16.8460  -28.2990   22.9330 C   0  0  0  0  0  3  0  0  0  0  0  0
  -25.8510  -32.4710   23.7320 C   0  0  0  0  0  3  0  0  0  0  0  0
  -26.3830  -31.7040   25.0050 C   0  0  1  0  0  0  0  0  0  0  0  0
  -25.2910  -31.4100   26.0580 C   0  0  0  0  0  1  0  0  0  0  0  0
  -27.0200  -30.3550   24.6030 C   0  0  0  0  0  1  0  0  0  0  0  0
  -27.4930  -32.5330   25.6910 C   0  0  0  0  0  1  0  0  0  0  0  0
  -25.4920  -33.8530   24.0730 N   0  0  0  0  0  0  0  0  0  0  0  0
  -25.8040  -34.9260   23.3330 C   0  0  0  0  0  0  0  0  0  0  0  0
  -26.4920  -34.8580   22.3110 O   0  0  0  0  0  0  0  0  0  0  0  0
  -24.8840  -33.9790   24.8710 H   0  0  0  0  0  0  0  0  0  0  0  0
  -24.0490  -36.6860   22.9400 C   0  0  0  0  0  1  0  0  0  0  0  0
  -25.2620  -36.2920   23.7970 C   0  0  0  0  0  3  0  0  0  0  0  0
  -27.3260  -37.2140   24.7550 C   0  0  0  0  0  1  0  0  0  0  0  0
  -26.2720  -37.3710   23.7570 N   0  0  0  0  0  0  0  0  0  0  0  0
  -25.8340  -38.2780   23.8950 H   0  0  0  0  0  0  0  0  0  0  0  0
  -29.4400  -20.3730   21.5800 C   0  0  0  0  0  2  0  0  0  0  0  0
  -30.9150  -14.6600   20.0690 C   0  0  0  0  0  0  0  0  0  0  0  0
  -30.5810  -12.4800   18.9480 C   0  0  0  0  0  2  0  0  0  0  0  0
  -29.5840  -12.6870   17.7890 C   0  0  0  0  0  2  0  0  0  0  0  0
  -28.1290  -12.5410   18.2760 C   0  0  0  0  0  2  0  0  0  0  0  0
  -27.8520  -13.3660   19.5590 C   0  0  0  0  0  3  0  0  0  0  0  0
  -28.9590  -13.1530   20.6180 C   0  0  0  0  0  2  0  0  0  0  0  0
  -30.2590  -13.4650   19.9990 N   0  0  0  0  0  0  0  0  0  0  0  0
  -32.0180  -14.8220   19.5290 O   0  0  0  0  0  0  0  0  0  0  0  0
  -29.7120  -18.4190   18.5590 C   0  0  0  0  0  2  0  0  0  0  0  0
  -29.6750  -19.1770   20.6410 C   0  0  0  0  0  0  0  0  0  0  0  0
  -30.0750  -16.9880   20.2370 C   0  0  0  0  0  0  0  0  0  0  0  0
  -29.5840  -19.4770   19.3510 N   0  0  0  0  0  0  0  0  0  0  0  0
  -29.9500  -17.1660   18.9250 N   0  0  0  0  0  0  0  0  0  0  0  0
  -29.9110  -17.9550   21.1550 N   0  0  0  0  0  2  0  0  0  0  0  0
  -30.2590  -15.6820   20.6810 N   0  0  0  0  0  0  0  0  0  0  0  0
  -29.5930  -15.3870   21.3750 H   0  0  0  0  0  0  0  0  0  0  0  0
  -25.5070  -13.9680   20.4240 C   0  0  0  0  0  0  0  0  0  0  0  0
  -24.4490  -13.1960   20.8210 C   0  0  0  0  0  0  0  0  0  0  0  0
  -24.8860  -11.8410   20.7070 C   0  0  0  0  0  0  0  0  0  0  0  0
  -26.5230  -13.0850   20.0980 N   0  0  0  0  0  0  0  0  0  0  0  0
  -26.1560  -11.7980   20.3260 N   0  0  0  0  0  0  0  0  0  0  0  0
  -24.1510  -10.5810   20.8850 C   0  0  0  0  0  0  0  0  0  0  0  0
  -24.5340   -9.6340   21.8620 C   0  0  0  0  0  3  0  0  0  0  0  0
  -23.8010   -8.4390   22.0290 C   0  0  0  0  0  3  0  0  0  0  0  0
  -22.6710   -8.1780   21.2170 C   0  0  0  0  0  0  0  0  0  0  0  0
  -22.3080   -9.1140   20.2330 C   0  0  0  0  0  3  0  0  0  0  0  0
  -23.0400  -10.3010   20.0660 C   0  0  0  0  0  3  0  0  0  0  0  0
  -21.9130   -7.0330   21.2910 O   0  0  0  0  0  0  0  0  0  0  0  0
  -21.7100   -6.3820   22.4820 C   0  0  0  0  0  0  0  0  0  0  0  0
  -21.0440   -6.9970   23.5640 C   0  0  0  0  0  3  0  0  0  0  0  0
  -20.7940   -6.2660   24.7420 C   0  0  0  0  0  3  0  0  0  0  0  0
  -21.1990   -4.9220   24.8380 C   0  0  0  0  0  0  0  0  0  0  0  0
  -21.8550   -4.3060   23.7570 C   0  0  0  0  0  3  0  0  0  0  0  0
  -22.1090   -5.0340   22.5820 C   0  0  0  0  0  0  0  0  0  0  0  0
  -22.7240   -4.4290   21.5370 F   0  0  0  0  0  0  0  0  0  0  0  0
  -20.9510   -4.2160   25.9670 F   0  0  0  0  0  0  0  0  0  0  0  0
  -23.0750  -13.6780   21.1870 C   0  0  0  0  0  0  0  0  0  0  0  0
  -22.3750  -12.9460   22.0450 N   0  0  0  0  0  0  0  0  0  0  0  0
  -22.6330  -14.7420   20.7530 O   0  0  0  0  0  0  0  0  0  0  0  0
  -22.7420  -12.0840   22.4220 H   0  0  0  0  0  0  0  0  0  0  0  0
  -21.4560  -13.2520   22.3290 H   0  0  0  0  0  0  0  0  0  0  0  0
  -25.6850  -15.3430   20.2900 N   0  0  0  0  0  0  0  0  0  0  0  0
  -24.9360  -16.0040   20.4630 H   0  0  0  0  0  0  0  0  0  0  0  0
  -26.5030  -15.7750   19.8800 H   0  0  0  0  0  0  0  0  0  0  0  0
  1  5  1  0
  1 49  1  0
  2  1  1  0
  3  1  1  0
  5  4  1  0
  6  7  1  0
  6  5  1  0
  8  7  1  0
  9 20  2  0
 10  8  1  0
 10 15  1  0
 11 19  1  0
 11 21  1  0
 12 18  1  0
 12 14  1  0
 13 19  1  0
 14 15  2  0
 14 13  1  0
 16 17  1  0
 16 10  2  0
 17 12  2  0
 18 11  1  0
 19  9  1  0
 21 23  2  0
 22 21  1  0
 24 22  1  0
 25 34  2  0
 25 30  1  0
 26 22  1  0
 26 30  1  0
 27 26  1  0
 28 29  1  0
 28 27  1  0
 29 25  1  0
 30 31  2  0
 31 32  1  0
 33 32  2  0
 34 33  1  0
 35  9  1  0
 35 40  1  0
 35 36  1  0
 36 39  1  1
 36 37  1  0
 38 36  1  0
 40 43  1  0
 41 45  1  0
 41 40  1  0
 42 41  2  0
 45 44  1  0
 47 45  1  0
 47 48  1  0
 47 46  1  0
 50 64  1  0
 51 56  1  0
 52 53  1  0
 52 51  1  0
 54 53  1  0
 54 69  1  0
 54 55  1  0
 56 50  1  0
 56 55  1  0
 57 50  2  0
 58 62  1  0
 58 61  1  0
 59 63  1  0
 59 49  1  0
 60 64  1  0
 60 63  1  0
 61 59  2  0
 62 60  2  0
 64 65  1  0
 66 67  2  0
 67 86  1  0
 68 67  1  0
 68 71  1  0
 69 70  1  0
 69 66  1  0
 70 68  2  0
 71 72  1  0
 72 73  2  0
 74 77  1  0
 74 73  1  0
 75 74  2  0
 76 75  1  0
 76 71  2  0
 77 78  1  0
 78 83  2  0
 78 79  1  0
 79 80  2  0
 80 81  1  0
 81 85  1  0
 82 81  2  0
 83 82  1  0
 84 83  1  0
 86 87  1  0
 87 90  1  0
 87 89  1  0
 88 86  2  0
 91 66  1  0
 91 92  1  0
 93 91  1  0
M  ISO  4   7 101   8 101  50 100  64 100
M  END
>  <TORSDO>  (48) 
F 20

>  <SCORE>  (48) 
-13.212

>  <name>  (48) 
47

>  <ligand_id>  (48) 
47

>  <original_smiles>  (48) 
[H]c1nc(N([H])C(=O)N2C([H])([H])C([H])([H])C([H])([H])C([H])(n3nc(-c4c([H])c([H])c(Oc5c([H])c([H])c(F)c([H])c5F)c([H])c4[H])c(C(=O)N([H])[H])c3N([H])[H])C2([H])[H])nc(C([H])([H])[N+]([H])([H])C([H])(C([H])([H])[H])C([H])([H])C([H])([H])Oc2c([H])c([H])c3c(c2[H])C([H])([H])N(C(=O)C([H])(N([H])C(=O)C([H])(N([H])C([H])([H])[H])C([H])([H])[H])C(C([H])([H])[H])(C([H])([H])[H])C([H])([H])[H])C([H])(C(=O)N([H])C2([H])c4c([H])c([H])c([H])c([H])c4C([H])([H])C([H])([H])C2([H])[H])C3([H])[H])n1

>  <smiles>  (48) 
[H]c1nc(N([H])C(=O)N2C([H])([H])C([H])([H])C([H])([H])C([H])(n3nc(-c4c([H])c([H])c(Oc5c([H])c([H])c(F)c([H])c5F)c([H])c4[H])c(C(=O)N([H])[H])c3N([H])[H])C2([H])[H])nc(C([H])([H])[N+]([H])([H])C([H])(C([H])([H])[H])C([H])([H])C([H])([H])Oc2c([H])c([H])c3c(c2[H])C([H])([H])N(C(=O)C([H])(N([H])C(=O)C([H])(N([H])C([H])([H])[H])C([H])([H])[H])C(C([H])([H])[H])(C([H])([H])[H])C([H])([H])[H])C([H])(C(=O)N([H])C2([H])c4c([H])c([H])c([H])c([H])c4C([H])([H])C([H])([H])C2([H])[H])C3([H])[H])n1

$$$$
48:0:0
     RDKit          3D

 91 99  0  0  1  0  0  0  0  0999 V2000
  -31.5380  -22.2230   21.4520 C   0  0  0  0  0  1  0  0  0  0  0  0
  -30.2420  -21.8810   20.7010 C   0  0  0  0  0  3  0  0  0  0  0  0
  -30.7170  -14.4660   20.1360 C   0  0  0  0  0  0  0  0  0  0  0  0
  -30.3330  -12.3520   18.9240 C   0  0  0  0  0  2  0  0  0  0  0  0
  -29.3370  -12.6160   17.7760 C   0  0  0  0  0  2  0  0  0  0  0  0
  -27.8840  -12.4750   18.2740 C   0  0  0  0  0  2  0  0  0  0  0  0
  -27.6180  -13.2690   19.5800 C   0  0  0  0  0  3  0  0  0  0  0  0
  -28.7230  -12.9920   20.6250 C   0  0  0  0  0  2  0  0  0  0  0  0
  -30.0270  -13.2980   20.0090 N   0  0  0  0  0  0  0  0  0  0  0  0
  -31.8050  -14.6520   19.5830 O   0  0  0  0  0  0  0  0  0  0  0  0
  -30.2400  -16.8400   20.7650 C   0  0  0  0  0  0  0  0  0  0  0  0
  -30.0740  -19.2460   20.8850 C   0  0  0  0  0  0  0  0  0  0  0  0
  -31.1780  -17.4610   20.0240 N   0  0  0  0  0  0  0  0  0  0  0  0
  -31.0810  -18.8500   20.0950 N   0  0  0  0  0  0  0  0  0  0  0  0
  -30.0850  -15.4240   20.8370 N   0  0  0  0  0  0  0  0  0  0  0  0
  -29.7370  -20.5780   21.1300 N   0  0  0  0  0  0  0  0  0  0  0  0
  -29.1530  -17.9340   21.6200 S   0  0  0  0  0  0  0  0  0  0  0  0
  -29.2680  -15.1110   21.3360 H   0  0  0  0  0  0  0  0  0  0  0  0
  -28.9370  -20.6490   21.7490 H   0  0  0  0  0  0  0  0  0  0  0  0
  -25.2490  -13.8660   20.3940 C   0  0  0  0  0  0  0  0  0  0  0  0
  -24.2000  -13.0880   20.8030 C   0  0  0  0  0  0  0  0  0  0  0  0
  -24.6620  -11.7380   20.7410 C   0  0  0  0  0  0  0  0  0  0  0  0
  -26.2860  -12.9890   20.1130 N   0  0  0  0  0  0  0  0  0  0  0  0
  -25.9380  -11.7030   20.3780 N   0  0  0  0  0  0  0  0  0  0  0  0
  -23.9480  -10.4710   20.9510 C   0  0  0  0  0  0  0  0  0  0  0  0
  -24.4030   -9.5130   21.8830 C   0  0  0  0  0  3  0  0  0  0  0  0
  -23.6890   -8.3110   22.0810 C   0  0  0  0  0  3  0  0  0  0  0  0
  -22.5060   -8.0600   21.3460 C   0  0  0  0  0  0  0  0  0  0  0  0
  -22.0710   -9.0070   20.4020 C   0  0  0  0  0  3  0  0  0  0  0  0
  -22.7850  -10.2000   20.2030 C   0  0  0  0  0  3  0  0  0  0  0  0
  -21.7610   -6.9100   21.4520 O   0  0  0  0  0  0  0  0  0  0  0  0
  -21.7090   -6.1930   22.6210 C   0  0  0  0  0  0  0  0  0  0  0  0
  -21.2590   -6.7690   23.8290 C   0  0  0  0  0  3  0  0  0  0  0  0
  -21.1550   -5.9770   24.9910 C   0  0  0  0  0  3  0  0  0  0  0  0
  -21.4890   -4.6110   24.9440 C   0  0  0  0  0  0  0  0  0  0  0  0
  -21.9310   -4.0340   23.7400 C   0  0  0  0  0  3  0  0  0  0  0  0
  -22.0380   -4.8230   22.5810 C   0  0  0  0  0  0  0  0  0  0  0  0
  -22.4450   -4.2580   21.4190 F   0  0  0  0  0  0  0  0  0  0  0  0
  -21.3810   -3.8480   26.0570 F   0  0  0  0  0  0  0  0  0  0  0  0
  -22.8150  -13.5590   21.1410 C   0  0  0  0  0  0  0  0  0  0  0  0
  -22.1260  -12.8520   22.0310 N   0  0  0  0  0  0  0  0  0  0  0  0
  -22.3520  -14.5890   20.6520 O   0  0  0  0  0  0  0  0  0  0  0  0
  -22.5130  -12.0170   22.4480 H   0  0  0  0  0  0  0  0  0  0  0  0
  -21.1990  -13.1480   22.2990 H   0  0  0  0  0  0  0  0  0  0  0  0
  -25.4020  -15.2380   20.2190 N   0  0  0  0  0  0  0  0  0  0  0  0
  -24.6280  -15.8820   20.3440 H   0  0  0  0  0  0  0  0  0  0  0  0
  -26.2250  -15.6810   19.8310 H   0  0  0  0  0  0  0  0  0  0  0  0
  -29.1480  -22.9590   20.9030 C   0  0  0  0  0  2  0  0  0  0  0  0
  -29.4540  -24.3860   20.3810 C   0  0  0  0  0  2  0  0  0  0  0  0
  -28.2600  -25.3330   20.6250 C   0  0  0  0  0  2  0  0  0  0  0  0
  -28.4420  -26.6650   20.1130 O   0  0  0  0  0  0  0  0  0  0  0  0
  -24.6290  -31.8430   23.1970 C   0  0  0  0  0  0  0  0  0  0  0  0
  -27.2860  -27.4200   20.0990 C   0  0  0  0  0  0  0  0  0  0  0  0
  -23.4300  -30.4470   21.5460 C   0  0  0  0  0  3  0  0  0  0  0  0
  -24.8890  -28.9250   20.1140 C   0  0  0  0  0  0  0  0  0  0  0  0
  -25.9560  -30.8110   21.3560 C   0  0  0  0  0  2  0  0  0  0  0  0
  -26.0460  -29.4430   20.7100 C   0  0  0  0  0  0  0  0  0  0  0  0
  -27.2480  -28.6980   20.7010 C   0  0  0  0  0  3  0  0  0  0  0  0
  -26.1150  -26.9260   19.4790 C   0  0  0  0  0  3  0  0  0  0  0  0
  -24.9190  -27.6650   19.4960 C   0  0  0  0  0  3  0  0  0  0  0  0
  -23.6440  -29.7800   20.1610 C   0  0  0  0  0  2  0  0  0  0  0  0
  -24.6890  -31.0490   22.0910 N   0  0  0  0  0  0  0  0  0  0  0  0
  -23.5460  -32.1090   23.7360 O   0  0  0  0  0  0  0  0  0  0  0  0
  -22.7790  -29.4190   22.4980 C   0  0  0  0  0  0  0  0  0  0  0  0
  -21.4510  -29.2510   22.3820 N   0  0  0  0  0  0  0  0  0  0  0  0
  -23.4660  -28.7760   23.2970 O   0  0  0  0  0  0  0  0  0  0  0  0
  -20.9600  -29.8180   21.7040 H   0  0  0  0  0  0  0  0  0  0  0  0
  -18.0670  -28.1000   22.9130 C   0  0  0  0  0  0  0  0  0  0  0  0
  -20.6330  -28.3120   23.1490 C   0  0  0  0  0  3  0  0  0  0  0  0
  -20.7040  -26.8910   22.5450 C   0  0  0  0  0  2  0  0  0  0  0  0
  -19.5810  -26.6040   21.5450 C   0  0  0  0  0  2  0  0  0  0  0  0
  -18.2120  -26.7610   22.2110 C   0  0  0  0  0  2  0  0  0  0  0  0
  -19.2050  -28.8360   23.3400 C   0  0  0  0  0  0  0  0  0  0  0  0
  -19.0160  -30.0930   23.9540 C   0  0  0  0  0  3  0  0  0  0  0  0
  -17.7210  -30.6110   24.1490 C   0  0  0  0  0  3  0  0  0  0  0  0
  -16.5980  -29.8700   23.7410 C   0  0  0  0  0  3  0  0  0  0  0  0
  -16.7730  -28.6170   23.1280 C   0  0  0  0  0  3  0  0  0  0  0  0
  -25.9120  -32.4730   23.8230 C   0  0  0  0  0  3  0  0  0  0  0  0
  -26.4290  -31.6970   25.0950 C   0  0  1  0  0  0  0  0  0  0  0  0
  -25.3350  -31.4490   26.1600 C   0  0  0  0  0  1  0  0  0  0  0  0
  -27.0160  -30.3240   24.6920 C   0  0  0  0  0  1  0  0  0  0  0  0
  -27.5770  -32.4900   25.7640 C   0  0  0  0  0  1  0  0  0  0  0  0
  -25.6010  -33.8690   24.1570 N   0  0  0  0  0  0  0  0  0  0  0  0
  -25.9360  -34.9240   23.4010 C   0  0  0  0  0  0  0  0  0  0  0  0
  -26.6100  -34.8240   22.3720 O   0  0  0  0  0  0  0  0  0  0  0  0
  -25.0020  -34.0210   24.9550 H   0  0  0  0  0  0  0  0  0  0  0  0
  -24.2110  -36.7140   23.0400 C   0  0  0  0  0  1  0  0  0  0  0  0
  -25.4440  -36.3080   23.8610 C   0  0  0  0  0  3  0  0  0  0  0  0
  -27.5700  -37.1870   24.7180 C   0  0  0  0  0  1  0  0  0  0  0  0
  -26.4770  -37.3630   23.7640 N   0  0  0  0  0  0  0  0  0  0  0  0
  -26.0690  -38.2810   23.9170 H   0  0  0  0  0  0  0  0  0  0  0  0
  2 48  1  0
  2 16  1  0
  2  1  1  0
  3 15  1  0
  4  9  1  0
  5  6  1  0
  5  4  1  0
  7  6  1  0
  7 23  1  0
  7  8  1  0
  9  3  1  0
  9  8  1  0
 10  3  2  0
 11 15  1  0
 11 17  1  0
 12 16  1  0
 12 17  1  0
 13 14  1  0
 13 11  2  0
 14 12  2  0
 15 18  1  0
 16 19  1  0
 20 21  2  0
 21 40  1  0
 22 21  1  0
 22 25  1  0
 23 24  1  0
 23 20  1  0
 24 22  2  0
 25 26  1  0
 26 27  2  0
 28 31  1  0
 28 27  1  0
 29 28  2  0
 30 29  1  0
 30 25  2  0
 31 32  1  0
 32 33  1  0
 33 34  2  0
 35 34  1  0
 35 39  1  0
 36 35  2  0
 37 32  2  0
 37 36  1  0
 38 37  1  0
 40 41  1  0
 41 44  1  0
 41 43  1  0
 42 40  2  0
 45 46  1  0
 45 20  1  0
 47 45  1  0
 49 50  1  0
 49 48  1  0
 51 50  1  0
 52 63  2  0
 53 51  1  0
 53 58  1  0
 54 62  1  0
 54 64  1  0
 55 61  1  0
 55 57  1  0
 56 62  1  0
 57 56  1  0
 58 57  2  0
 59 60  1  0
 59 53  2  0
 60 55  2  0
 61 54  1  0
 62 52  1  0
 64 66  2  0
 65 64  1  0
 67 65  1  0
 68 77  2  0
 68 73  1  0
 69 65  1  0
 69 73  1  0
 70 69  1  0
 71 72  1  0
 71 70  1  0
 72 68  1  0
 73 74  2  0
 74 75  1  0
 76 75  2  0
 77 76  1  0
 78 52  1  0
 78 83  1  0
 78 79  1  0
 79 82  1  1
 79 80  1  0
 81 79  1  0
 83 86  1  0
 84 88  1  0
 84 83  1  0
 85 84  2  0
 88 87  1  0
 90 88  1  0
 90 91  1  0
 90 89  1  0
M  ISO  4   3 100  15 100  50 101  51 101
M  END
>  <TORSDO>  (49) 
F 19

>  <SCORE>  (49) 
-13.126

>  <name>  (49) 
48

>  <ligand_id>  (49) 
48

>  <original_smiles>  (49) 
[H]c1c([H])c([H])c2c(c1[H])C([H])([H])C([H])([H])C([H])([H])C2([H])N([H])C(=O)C1([H])N(C(=O)C([H])(N([H])C(=O)C([H])(N([H])C([H])([H])[H])C([H])([H])[H])C(C([H])([H])[H])(C([H])([H])[H])C([H])([H])[H])C([H])([H])c2c([H])c(OC([H])([H])C([H])([H])C([H])([H])C([H])(N([H])c3nnc(N([H])C(=O)N4C([H])([H])C([H])([H])C([H])([H])C([H])(n5nc(-c6c([H])c([H])c(Oc7c([H])c([H])c(F)c([H])c7F)c([H])c6[H])c(C(=O)N([H])[H])c5N([H])[H])C4([H])[H])s3)C([H])([H])[H])c([H])c([H])c2C1([H])[H]

>  <smiles>  (49) 
[H]c1c([H])c([H])c2c(c1[H])C([H])([H])C([H])([H])C([H])([H])C2([H])N([H])C(=O)C1([H])N(C(=O)C([H])(N([H])C(=O)C([H])(N([H])C([H])([H])[H])C([H])([H])[H])C(C([H])([H])[H])(C([H])([H])[H])C([H])([H])[H])C([H])([H])c2c([H])c(OC([H])([H])C([H])([H])C([H])([H])C([H])(N([H])c3nnc(N([H])C(=O)N4C([H])([H])C([H])([H])C([H])([H])C([H])(n5nc(-c6c([H])c([H])c(Oc7c([H])c([H])c(F)c([H])c7F)c([H])c6[H])c(C(=O)N([H])[H])c5N([H])[H])C4([H])[H])s3)C([H])([H])[H])c([H])c([H])c2C1([H])[H]

$$$$
49:0:0
     RDKit          3D

 92100  0  0  1  0  0  0  0  0999 V2000
  -28.9700  -21.6100   20.7290 C   0  0  0  0  0  2  0  0  0  0  0  0
  -30.6020  -14.5520   20.4220 C   0  0  0  0  0  0  0  0  0  0  0  0
  -30.3650  -12.3520   19.3150 C   0  0  0  0  0  2  0  0  0  0  0  0
  -29.4160  -12.5420   18.1110 C   0  0  0  0  0  2  0  0  0  0  0  0
  -27.9400  -12.3990   18.5390 C   0  0  0  0  0  2  0  0  0  0  0  0
  -27.5980  -13.2330   19.8050 C   0  0  0  0  0  3  0  0  0  0  0  0
  -28.6620  -13.0250   20.9070 C   0  0  0  0  0  2  0  0  0  0  0  0
  -29.9780  -13.3440   20.3300 N   0  0  0  0  0  0  0  0  0  0  0  0
  -31.7700  -14.7230   20.0610 O   0  0  0  0  0  0  0  0  0  0  0  0
  -29.6210  -19.1620   20.5340 C   0  0  0  0  0  0  0  0  0  0  0  0
  -30.0440  -16.9900   20.7220 C   0  0  0  0  0  3  0  0  0  0  0  0
  -29.1550  -17.9110   20.3080 N   0  0  0  0  0  0  0  0  0  0  0  0
  -30.8140  -19.2960   21.1450 N   0  0  0  0  0  2  0  0  0  0  0  0
  -28.9000  -20.2840   20.0830 N   0  0  0  0  0  0  0  0  0  0  0  0
  -29.7640  -15.5860   20.6740 N   0  0  0  0  0  0  0  0  0  0  0  0
  -31.4670  -17.7430   21.3950 S   0  0  0  0  0  0  0  0  0  0  0  0
  -28.0480  -20.1190   19.5590 H   0  0  0  0  0  0  0  0  0  0  0  0
  -28.7970  -15.3300   20.7600 H   0  0  0  0  0  0  0  0  0  0  0  0
  -25.2030  -13.8420   20.5230 C   0  0  0  0  0  0  0  0  0  0  0  0
  -24.1380  -13.0690   20.8990 C   0  0  0  0  0  0  0  0  0  0  0  0
  -24.5990  -11.7190   20.8700 C   0  0  0  0  0  0  0  0  0  0  0  0
  -26.2480  -12.9590   20.2890 N   0  0  0  0  0  0  0  0  0  0  0  0
  -25.8900  -11.6790   20.5580 N   0  0  0  0  0  0  0  0  0  0  0  0
  -23.8740  -10.4570   21.0640 C   0  0  0  0  0  0  0  0  0  0  0  0
  -24.3230   -9.4840   21.9830 C   0  0  0  0  0  3  0  0  0  0  0  0
  -23.6000   -8.2860   22.1660 C   0  0  0  0  0  3  0  0  0  0  0  0
  -22.4120   -8.0540   21.4310 C   0  0  0  0  0  0  0  0  0  0  0  0
  -21.9830   -9.0160   20.5000 C   0  0  0  0  0  3  0  0  0  0  0  0
  -22.7060  -10.2050   20.3140 C   0  0  0  0  0  3  0  0  0  0  0  0
  -21.6580   -6.9080   21.5220 O   0  0  0  0  0  0  0  0  0  0  0  0
  -21.6430   -6.1470   22.6630 C   0  0  0  0  0  0  0  0  0  0  0  0
  -21.2690   -6.6860   23.9130 C   0  0  0  0  0  3  0  0  0  0  0  0
  -21.1980   -5.8520   25.0490 C   0  0  0  0  0  3  0  0  0  0  0  0
  -21.4910   -4.4790   24.9330 C   0  0  0  0  0  0  0  0  0  0  0  0
  -21.8610   -3.9410   23.6880 C   0  0  0  0  0  3  0  0  0  0  0  0
  -21.9320   -4.7720   22.5570 C   0  0  0  0  0  0  0  0  0  0  0  0
  -22.2660   -4.2440   21.3540 F   0  0  0  0  0  0  0  0  0  0  0  0
  -21.4180   -3.6760   26.0190 F   0  0  0  0  0  0  0  0  0  0  0  0
  -22.7400  -13.5460   21.1720 C   0  0  0  0  0  0  0  0  0  0  0  0
  -22.0140  -12.8520   22.0420 N   0  0  0  0  0  0  0  0  0  0  0  0
  -22.3000  -14.5710   20.6520 O   0  0  0  0  0  0  0  0  0  0  0  0
  -22.3840  -12.0250   22.4880 H   0  0  0  0  0  0  0  0  0  0  0  0
  -21.0760  -13.1510   22.2660 H   0  0  0  0  0  0  0  0  0  0  0  0
  -25.3610  -15.2120   20.3410 N   0  0  0  0  0  0  0  0  0  0  0  0
  -24.5820  -15.8530   20.4430 H   0  0  0  0  0  0  0  0  0  0  0  0
  -26.1920  -15.6640   19.9790 H   0  0  0  0  0  0  0  0  0  0  0  0
  -28.6060  -22.7750   19.7520 C   0  0  0  0  0  3  0  0  0  0  0  0
  -27.3880  -22.4170   19.1100 O   0  0  0  0  0  0  0  0  0  0  0  0
  -27.3350  -22.8890   18.2830 H   0  0  0  0  0  0  0  0  0  0  0  0
  -28.4460  -24.1830   20.4270 C   0  0  0  0  0  2  0  0  0  0  0  0
  -28.5230  -25.4160   19.4730 C   0  0  0  0  0  2  0  0  0  0  0  0
  -28.4010  -26.7020   20.1320 O   0  0  0  0  0  0  0  0  0  0  0  0
  -24.5890  -31.8900   23.2400 C   0  0  0  0  0  0  0  0  0  0  0  0
  -27.2080  -27.4130   20.1350 C   0  0  0  0  0  0  0  0  0  0  0  0
  -23.3730  -30.4860   21.6100 C   0  0  0  0  0  3  0  0  0  0  0  0
  -24.8140  -28.9430   20.1780 C   0  0  0  0  0  0  0  0  0  0  0  0
  -25.9050  -30.8270   21.4050 C   0  0  0  0  0  2  0  0  0  0  0  0
  -25.9790  -29.4580   20.7560 C   0  0  0  0  0  0  0  0  0  0  0  0
  -27.1780  -28.7020   20.7280 C   0  0  0  0  0  3  0  0  0  0  0  0
  -26.0100  -26.9120   19.5740 C   0  0  0  0  0  3  0  0  0  0  0  0
  -24.8260  -27.6700   19.5870 C   0  0  0  0  0  3  0  0  0  0  0  0
  -23.5740  -29.8090   20.2300 C   0  0  0  0  0  2  0  0  0  0  0  0
  -24.6400  -31.0860   22.1400 N   0  0  0  0  0  0  0  0  0  0  0  0
  -23.5090  -32.1630   23.7850 O   0  0  0  0  0  0  0  0  0  0  0  0
  -22.7260  -29.4660   22.5750 C   0  0  0  0  0  0  0  0  0  0  0  0
  -21.4010  -29.2830   22.4550 N   0  0  0  0  0  0  0  0  0  0  0  0
  -23.4150  -28.8400   23.3860 O   0  0  0  0  0  0  0  0  0  0  0  0
  -20.9110  -29.8410   21.7710 H   0  0  0  0  0  0  0  0  0  0  0  0
  -18.0270  -28.0880   22.9640 C   0  0  0  0  0  0  0  0  0  0  0  0
  -20.5860  -28.3460   23.2270 C   0  0  0  0  0  3  0  0  0  0  0  0
  -20.6860  -26.9140   22.6510 C   0  0  0  0  0  2  0  0  0  0  0  0
  -19.5790  -26.5910   21.6420 C   0  0  0  0  0  2  0  0  0  0  0  0
  -18.2000  -26.7370   22.2900 C   0  0  0  0  0  2  0  0  0  0  0  0
  -19.1470  -28.8510   23.3890 C   0  0  0  0  0  0  0  0  0  0  0  0
  -18.9300  -30.1150   23.9780 C   0  0  0  0  0  3  0  0  0  0  0  0
  -17.6260  -30.6170   24.1450 C   0  0  0  0  0  3  0  0  0  0  0  0
  -16.5200  -29.8510   23.7370 C   0  0  0  0  0  3  0  0  0  0  0  0
  -16.7220  -28.5880   23.1520 C   0  0  0  0  0  3  0  0  0  0  0  0
  -25.8770  -32.5210   23.8540 C   0  0  0  0  0  3  0  0  0  0  0  0
  -26.4040  -31.7470   25.1260 C   0  0  1  0  0  0  0  0  0  0  0  0
  -25.3200  -31.5050   26.2030 C   0  0  0  0  0  1  0  0  0  0  0  0
  -26.9830  -30.3710   24.7250 C   0  0  0  0  0  1  0  0  0  0  0  0
  -27.5560  -32.5450   25.7820 C   0  0  0  0  0  1  0  0  0  0  0  0
  -25.5660  -33.9180   24.1880 N   0  0  0  0  0  0  0  0  0  0  0  0
  -25.8910  -34.9720   23.4300 C   0  0  0  0  0  0  0  0  0  0  0  0
  -26.5560  -34.8750   22.3950 O   0  0  0  0  0  0  0  0  0  0  0  0
  -24.9770  -34.0670   24.9950 H   0  0  0  0  0  0  0  0  0  0  0  0
  -24.1550  -36.7610   23.0940 C   0  0  0  0  0  1  0  0  0  0  0  0
  -25.4020  -36.3580   23.8960 C   0  0  0  0  0  3  0  0  0  0  0  0
  -27.5400  -37.2460   24.7120 C   0  0  0  0  0  1  0  0  0  0  0  0
  -26.4300  -37.4150   23.7780 N   0  0  0  0  0  0  0  0  0  0  0  0
  -26.0230  -38.3330   23.9310 H   0  0  0  0  0  0  0  0  0  0  0  0
  2 15  1  0
  3  8  1  0
  4  5  1  0
  4  3  1  0
  6  5  1  0
  6 22  1  0
  6  7  1  0
  8  2  1  0
  8  7  1  0
  9  2  2  0
 10 13  1  0
 11 15  1  0
 11 16  1  0
 12 10  2  0
 12 11  1  0
 13 16  1  0
 14 10  1  0
 14  1  1  0
 15 18  1  0
 17 14  1  0
 19 20  2  0
 20 39  1  0
 21 20  1  0
 21 24  1  0
 22 19  1  0
 22 23  1  0
 23 21  2  0
 24 25  1  0
 25 26  2  0
 27 30  1  0
 27 26  1  0
 28 27  2  0
 29 28  1  0
 29 24  2  0
 30 31  1  0
 31 32  1  0
 32 33  2  0
 34 33  1  0
 34 38  1  0
 35 34  2  0
 36 31  2  0
 36 35  1  0
 37 36  1  0
 39 40  1  0
 40 43  1  0
 40 42  1  0
 41 39  2  0
 44 45  1  0
 44 19  1  0
 46 44  1  0
 47 50  1  0
 47  1  1  0
 48 47  1  0
 49 48  1  0
 51 52  1  0
 51 50  1  0
 52 54  1  0
 53 64  2  0
 54 59  1  0
 55 63  1  0
 55 65  1  0
 56 62  1  0
 56 58  1  0
 57 63  1  0
 58 57  1  0
 59 58  2  0
 60 61  1  0
 60 54  2  0
 61 56  2  0
 62 55  1  0
 63 53  1  0
 65 67  2  0
 66 65  1  0
 68 66  1  0
 69 78  2  0
 69 74  1  0
 70 66  1  0
 70 74  1  0
 71 70  1  0
 72 73  1  0
 72 71  1  0
 73 69  1  0
 74 75  2  0
 75 76  1  0
 77 76  2  0
 78 77  1  0
 79 53  1  0
 79 84  1  0
 79 80  1  0
 80 83  1  1
 80 81  1  0
 82 80  1  0
 84 87  1  0
 85 89  1  0
 85 84  1  0
 86 85  2  0
 89 88  1  0
 91 89  1  0
 91 92  1  0
 91 90  1  0
M  ISO  4   2 100  15 100  51 101  52 101
M  END
>  <TORSDO>  (50) 
F 20

>  <SCORE>  (50) 
-14.131

>  <name>  (50) 
49

>  <ligand_id>  (50) 
49

>  <original_smiles>  (50) 
[H]OC([H])(C([H])([H])N([H])c1nsc(N([H])C(=O)N2C([H])([H])C([H])([H])C([H])([H])C([H])(n3nc(-c4c([H])c([H])c(Oc5c([H])c([H])c(F)c([H])c5F)c([H])c4[H])c(C(=O)N([H])[H])c3N([H])[H])C2([H])[H])n1)C([H])([H])C([H])([H])Oc1c([H])c([H])c2c(c1[H])C([H])([H])N(C(=O)C([H])(N([H])C(=O)C([H])(N([H])C([H])([H])[H])C([H])([H])[H])C(C([H])([H])[H])(C([H])([H])[H])C([H])([H])[H])C([H])(C(=O)N([H])C1([H])c3c([H])c([H])c([H])c([H])c3C([H])([H])C([H])([H])C1([H])[H])C2([H])[H]

>  <smiles>  (50) 
[H]OC([H])(C([H])([H])N([H])c1nsc(N([H])C(=O)N2C([H])([H])C([H])([H])C([H])([H])C([H])(n3nc(-c4c([H])c([H])c(Oc5c([H])c([H])c(F)c([H])c5F)c([H])c4[H])c(C(=O)N([H])[H])c3N([H])[H])C2([H])[H])n1)C([H])([H])C([H])([H])Oc1c([H])c([H])c2c(c1[H])C([H])([H])N(C(=O)C([H])(N([H])C(=O)C([H])(N([H])C([H])([H])[H])C([H])([H])[H])C(C([H])([H])[H])(C([H])([H])[H])C([H])([H])[H])C([H])(C(=O)N([H])C1([H])c3c([H])c([H])c([H])c([H])c3C([H])([H])C([H])([H])C1([H])[H])C2([H])[H]

$$$$
50:0:0
     RDKit          3D

 90 98  0  0  1  0  0  0  0  0999 V2000
  -28.7490  -22.0440   22.0690 C   0  0  0  0  0  1  0  0  0  0  0  0
  -28.7950  -22.2270   20.5490 C   0  0  0  0  0  3  0  0  0  0  0  0
  -31.2830  -17.6830   19.2510 C   0  0  0  0  0  3  0  0  0  0  0  0
  -30.2350  -17.3940   20.0950 C   0  0  0  0  0  0  0  0  0  0  0  0
  -30.0590  -19.7730   19.9020 C   0  0  0  0  0  0  0  0  0  0  0  0
  -29.5320  -18.6220   20.4500 N   0  0  0  0  0  0  0  0  0  0  0  0
  -29.7180  -21.1800   19.9700 N   0  0  0  0  0  0  0  0  0  0  0  0
  -31.4590  -19.3870   18.9060 S   0  0  0  0  0  0  0  0  0  0  0  0
  -30.3790  -21.6560   19.3640 H   0  0  0  0  0  0  0  0  0  0  0  0
  -30.6250  -14.8080   20.2540 C   0  0  0  0  0  0  0  0  0  0  0  0
  -30.3690  -12.5330   19.2670 C   0  0  0  0  0  2  0  0  0  0  0  0
  -29.4260  -12.6290   18.0490 C   0  0  0  0  0  2  0  0  0  0  0  0
  -27.9630  -12.4510   18.4950 C   0  0  0  0  0  2  0  0  0  0  0  0
  -27.6020  -13.3320   19.7240 C   0  0  0  0  0  3  0  0  0  0  0  0
  -28.6780  -13.2540   20.8310 C   0  0  0  0  0  2  0  0  0  0  0  0
  -29.9670  -13.5970   20.2180 N   0  0  0  0  0  0  0  0  0  0  0  0
  -31.8130  -14.8410   19.9250 O   0  0  0  0  0  0  0  0  0  0  0  0
  -29.9100  -15.9870   20.4730 N   0  0  0  0  0  0  0  0  0  0  0  0
  -28.9840  -15.8520   20.8470 H   0  0  0  0  0  0  0  0  0  0  0  0
  -25.2210  -13.9020   20.4940 C   0  0  0  0  0  0  0  0  0  0  0  0
  -24.1630  -13.1230   20.8760 C   0  0  0  0  0  0  0  0  0  0  0  0
  -24.6320  -11.7730   20.8310 C   0  0  0  0  0  0  0  0  0  0  0  0
  -26.2660  -13.0300   20.2360 N   0  0  0  0  0  0  0  0  0  0  0  0
  -25.9200  -11.7430   20.5030 N   0  0  0  0  0  0  0  0  0  0  0  0
  -23.9110  -10.5070   21.0280 C   0  0  0  0  0  0  0  0  0  0  0  0
  -24.3590   -9.5370   21.9500 C   0  0  0  0  0  3  0  0  0  0  0  0
  -23.6380   -8.3370   22.1340 C   0  0  0  0  0  3  0  0  0  0  0  0
  -22.4550   -8.0990   21.3960 C   0  0  0  0  0  0  0  0  0  0  0  0
  -22.0250   -9.0580   20.4630 C   0  0  0  0  0  3  0  0  0  0  0  0
  -22.7460  -10.2490   20.2770 C   0  0  0  0  0  3  0  0  0  0  0  0
  -21.7050   -6.9520   21.4880 O   0  0  0  0  0  0  0  0  0  0  0  0
  -21.6750   -6.2020   22.6370 C   0  0  0  0  0  0  0  0  0  0  0  0
  -21.2650   -6.7490   23.8720 C   0  0  0  0  0  3  0  0  0  0  0  0
  -21.1830   -5.9240   25.0140 C   0  0  0  0  0  3  0  0  0  0  0  0
  -21.5030   -4.5570   24.9190 C   0  0  0  0  0  0  0  0  0  0  0  0
  -21.9070   -4.0110   23.6880 C   0  0  0  0  0  3  0  0  0  0  0  0
  -21.9910   -4.8310   22.5500 C   0  0  0  0  0  0  0  0  0  0  0  0
  -22.3610   -4.2960   21.3620 F   0  0  0  0  0  0  0  0  0  0  0  0
  -21.4170   -3.7620   26.0120 F   0  0  0  0  0  0  0  0  0  0  0  0
  -22.7670  -13.5950   21.1660 C   0  0  0  0  0  0  0  0  0  0  0  0
  -22.0510  -12.8940   22.0390 N   0  0  0  0  0  0  0  0  0  0  0  0
  -22.3200  -14.6230   20.6570 O   0  0  0  0  0  0  0  0  0  0  0  0
  -22.4260  -12.0640   22.4770 H   0  0  0  0  0  0  0  0  0  0  0  0
  -21.1170  -13.1960   22.2780 H   0  0  0  0  0  0  0  0  0  0  0  0
  -25.3740  -15.2740   20.3190 N   0  0  0  0  0  0  0  0  0  0  0  0
  -24.5950  -15.9160   20.4210 H   0  0  0  0  0  0  0  0  0  0  0  0
  -26.2050  -15.7190   19.9490 H   0  0  0  0  0  0  0  0  0  0  0  0
  -29.1100  -23.7870   20.1670 C   0  0  0  0  0  3  0  0  0  0  0  0
  -28.0830  -24.9790   20.5750 C   0  0  0  0  0  3  0  0  0  0  0  0
  -28.3110  -26.4320   20.2280 O   0  0  0  0  0  0  0  0  0  0  0  0
  -24.6070  -31.9180   23.2530 C   0  0  0  0  0  0  0  0  0  0  0  0
  -27.2050  -27.3160   20.2060 C   0  0  0  0  0  0  0  0  0  0  0  0
  -23.3980  -30.5190   21.6190 C   0  0  0  0  0  3  0  0  0  0  0  0
  -24.8440  -28.9610   20.1920 C   0  0  0  0  0  0  0  0  0  0  0  0
  -25.9400  -30.8250   21.4320 C   0  0  0  0  0  2  0  0  0  0  0  0
  -26.0180  -29.4410   20.7870 C   0  0  0  0  0  0  0  0  0  0  0  0
  -27.2010  -28.6320   20.7820 C   0  0  0  0  0  3  0  0  0  0  0  0
  -26.0080  -26.9090   19.5750 C   0  0  0  0  0  3  0  0  0  0  0  0
  -24.8460  -27.7040   19.5720 C   0  0  0  0  0  3  0  0  0  0  0  0
  -23.6070  -29.8370   20.2420 C   0  0  0  0  0  2  0  0  0  0  0  0
  -24.6680  -31.1060   22.1570 N   0  0  0  0  0  0  0  0  0  0  0  0
  -23.5250  -32.1970   23.7920 O   0  0  0  0  0  0  0  0  0  0  0  0
  -22.7360  -29.5060   22.5850 C   0  0  0  0  0  0  0  0  0  0  0  0
  -21.4100  -29.3210   22.4570 N   0  0  0  0  0  0  0  0  0  0  0  0
  -23.4170  -28.8860   23.4060 O   0  0  0  0  0  0  0  0  0  0  0  0
  -20.9190  -29.8660   21.7620 H   0  0  0  0  0  0  0  0  0  0  0  0
  -18.0420  -28.1000   22.9580 C   0  0  0  0  0  0  0  0  0  0  0  0
  -20.5980  -28.3830   23.2330 C   0  0  0  0  0  3  0  0  0  0  0  0
  -20.7130  -26.9480   22.6680 C   0  0  0  0  0  2  0  0  0  0  0  0
  -19.6170  -26.6080   21.6540 C   0  0  0  0  0  2  0  0  0  0  0  0
  -18.2320  -26.7480   22.2910 C   0  0  0  0  0  2  0  0  0  0  0  0
  -19.1530  -28.8750   23.3860 C   0  0  0  0  0  0  0  0  0  0  0  0
  -18.9220  -30.1390   23.9700 C   0  0  0  0  0  3  0  0  0  0  0  0
  -17.6130  -30.6310   24.1290 C   0  0  0  0  0  3  0  0  0  0  0  0
  -16.5170  -29.8560   23.7170 C   0  0  0  0  0  3  0  0  0  0  0  0
  -16.7310  -28.5920   23.1380 C   0  0  0  0  0  3  0  0  0  0  0  0
  -25.8910  -32.5540   23.8700 C   0  0  0  0  0  3  0  0  0  0  0  0
  -26.4080  -31.7880   25.1500 C   0  0  1  0  0  0  0  0  0  0  0  0
  -25.3170  -31.5570   26.2200 C   0  0  0  0  0  1  0  0  0  0  0  0
  -26.9880  -30.4070   24.7650 C   0  0  0  0  0  1  0  0  0  0  0  0
  -27.5620  -32.5840   25.8050 C   0  0  0  0  0  1  0  0  0  0  0  0
  -25.5810  -33.9530   24.1980 N   0  0  0  0  0  0  0  0  0  0  0  0
  -25.9080  -35.0040   23.4340 C   0  0  0  0  0  0  0  0  0  0  0  0
  -26.5710  -34.8980   22.3980 O   0  0  0  0  0  0  0  0  0  0  0  0
  -24.9950  -34.1090   25.0050 H   0  0  0  0  0  0  0  0  0  0  0  0
  -24.1790  -36.7990   23.0850 C   0  0  0  0  0  1  0  0  0  0  0  0
  -25.4250  -36.3940   23.8920 C   0  0  0  0  0  3  0  0  0  0  0  0
  -27.5630  -37.2810   24.7080 C   0  0  0  0  0  1  0  0  0  0  0  0
  -26.4570  -37.4480   23.7690 N   0  0  0  0  0  0  0  0  0  0  0  0
  -26.0520  -38.3680   23.9170 H   0  0  0  0  0  0  0  0  0  0  0  0
  2  1  1  0
  3  4  2  0
  4  6  1  0
  4 18  1  0
  5  7  1  0
  5  6  2  0
  7  2  1  0
  8  3  1  0
  8  5  1  0
  9  7  1  0
 10 18  1  0
 11 16  1  0
 12 13  1  0
 12 11  1  0
 14 13  1  0
 14 23  1  0
 14 15  1  0
 16 10  1  0
 16 15  1  0
 17 10  2  0
 18 19  1  0
 20 21  2  0
 21 40  1  0
 22 21  1  0
 22 25  1  0
 23 20  1  0
 23 24  1  0
 24 22  2  0
 25 26  1  0
 26 27  2  0
 28 31  1  0
 28 27  1  0
 29 28  2  0
 30 29  1  0
 30 25  2  0
 31 32  1  0
 32 33  1  0
 33 34  2  0
 35 34  1  0
 35 39  1  0
 36 35  2  0
 37 32  2  0
 37 36  1  0
 38 37  1  0
 40 41  1  0
 41 44  1  0
 41 43  1  0
 42 40  2  0
 45 46  1  0
 45 20  1  0
 47 45  1  0
 48  2  1  0
 48 49  2  0
 50 49  1  0
 51 62  2  0
 52 50  1  0
 52 57  1  0
 53 61  1  0
 53 63  1  0
 54 60  1  0
 54 56  1  0
 55 61  1  0
 56 55  1  0
 57 56  2  0
 58 52  2  0
 59 58  1  0
 59 54  2  0
 60 53  1  0
 61 51  1  0
 63 65  2  0
 64 63  1  0
 66 64  1  0
 67 76  2  0
 67 72  1  0
 68 64  1  0
 68 72  1  0
 69 68  1  0
 70 71  1  0
 70 69  1  0
 71 67  1  0
 72 73  2  0
 73 74  1  0
 75 74  2  0
 76 75  1  0
 77 51  1  0
 77 82  1  0
 77 78  1  0
 78 81  1  1
 78 79  1  0
 80 78  1  0
 82 85  1  0
 83 87  1  0
 83 82  1  0
 84 83  2  0
 87 86  1  0
 89 87  1  0
 89 90  1  0
 89 88  1  0
M  ISO  4  10 100  18 100  49 101  50 101
M  END
>  <TORSDO>  (51) 
F 19

>  <SCORE>  (51) 
-14.239

>  <name>  (51) 
50

>  <ligand_id>  (51) 
50

>  <original_smiles>  (51) 
[H]c1sc(N([H])C([H])(C([H])([H])[H])C([H])([H])C([H])([H])Oc2c([H])c([H])c3c(c2[H])C([H])([H])N(C(=O)C([H])(N([H])C(=O)C([H])(N([H])C([H])([H])[H])C([H])([H])[H])C(C([H])([H])[H])(C([H])([H])[H])C([H])([H])[H])C([H])(C(=O)N([H])C2([H])c4c([H])c([H])c([H])c([H])c4C([H])([H])C([H])([H])C2([H])[H])C3([H])[H])nc1N([H])C(=O)N1C([H])([H])C([H])([H])C([H])([H])C([H])(n2nc(-c3c([H])c([H])c(Oc4c([H])c([H])c(F)c([H])c4F)c([H])c3[H])c(C(=O)N([H])[H])c2N([H])[H])C1([H])[H]

>  <smiles>  (51) 
[H]c1sc(N([H])C([H])(C([H])([H])[H])C([H])([H])C([H])([H])Oc2c([H])c([H])c3c(c2[H])C([H])([H])N(C(=O)C([H])(N([H])C(=O)C([H])(N([H])C([H])([H])[H])C([H])([H])[H])C(C([H])([H])[H])(C([H])([H])[H])C([H])([H])[H])C([H])(C(=O)N([H])C2([H])c4c([H])c([H])c([H])c([H])c4C([H])([H])C([H])([H])C2([H])[H])C3([H])[H])nc1N([H])C(=O)N1C([H])([H])C([H])([H])C([H])([H])C([H])(n2nc(-c3c([H])c([H])c(Oc4c([H])c([H])c(F)c([H])c4F)c([H])c3[H])c(C(=O)N([H])[H])c2N([H])[H])C1([H])[H]

$$$$
51:0:0
     RDKit          3D

 92100  0  0  1  0  0  0  0  0999 V2000
  -29.6050  -20.7970   20.4170 C   0  0  0  0  0  0  0  0  0  0  0  0
  -30.0040  -21.8070   21.2230 N   0  0  0  0  0  0  0  0  0  0  0  0
  -28.7860  -20.9710   19.5090 O   0  0  0  0  0  0  0  0  0  0  0  0
  -30.7680  -21.5730   21.8480 H   0  0  0  0  0  0  0  0  0  0  0  0
  -31.3120  -17.5810   21.4480 C   0  0  0  0  0  3  0  0  0  0  0  0
  -30.2120  -16.8870   20.9850 C   0  0  0  0  0  0  0  0  0  0  0  0
  -30.0870  -19.3940   20.7530 C   0  0  0  0  0  0  0  0  0  0  0  0
  -31.2380  -18.9860   21.3110 N   0  0  0  0  0  0  0  0  0  0  0  0
  -29.0300  -18.0260   20.3630 S   0  0  0  0  0  0  0  0  0  0  0  0
  -30.6680  -14.5410   20.4720 C   0  0  0  0  0  0  0  0  0  0  0  0
  -30.3780  -12.3970   19.2670 C   0  0  0  0  0  2  0  0  0  0  0  0
  -29.4390  -12.6090   18.0630 C   0  0  0  0  0  2  0  0  0  0  0  0
  -27.9630  -12.4550   18.4830 C   0  0  0  0  0  2  0  0  0  0  0  0
  -27.6150  -13.2690   19.7620 C   0  0  0  0  0  3  0  0  0  0  0  0
  -28.6700  -13.0410   20.8690 C   0  0  0  0  0  2  0  0  0  0  0  0
  -29.9960  -13.3630   20.3090 N   0  0  0  0  0  0  0  0  0  0  0  0
  -31.8060  -14.7250   20.0300 O   0  0  0  0  0  0  0  0  0  0  0  0
  -29.9430  -15.5440   21.0120 N   0  0  0  0  0  0  0  0  0  0  0  0
  -28.9900  -15.2910   21.2240 H   0  0  0  0  0  0  0  0  0  0  0  0
  -25.2060  -13.8670   20.4530 C   0  0  0  0  0  0  0  0  0  0  0  0
  -24.1390  -13.0920   20.8220 C   0  0  0  0  0  0  0  0  0  0  0  0
  -24.6040  -11.7420   20.7940 C   0  0  0  0  0  0  0  0  0  0  0  0
  -26.2580  -12.9890   20.2300 N   0  0  0  0  0  0  0  0  0  0  0  0
  -25.8960  -11.7060   20.4900 N   0  0  0  0  0  0  0  0  0  0  0  0
  -23.8820  -10.4770   20.9830 C   0  0  0  0  0  0  0  0  0  0  0  0
  -24.2970   -9.5280   21.9430 C   0  0  0  0  0  3  0  0  0  0  0  0
  -23.5800   -8.3270   22.1240 C   0  0  0  0  0  3  0  0  0  0  0  0
  -22.4310   -8.0630   21.3410 C   0  0  0  0  0  0  0  0  0  0  0  0
  -22.0320   -8.9990   20.3700 C   0  0  0  0  0  3  0  0  0  0  0  0
  -22.7520  -10.1940   20.1890 C   0  0  0  0  0  3  0  0  0  0  0  0
  -21.6870   -6.9110   21.4260 O   0  0  0  0  0  0  0  0  0  0  0  0
  -21.5990   -6.1930   22.5930 C   0  0  0  0  0  0  0  0  0  0  0  0
  -21.0830   -6.7620   23.7760 C   0  0  0  0  0  3  0  0  0  0  0  0
  -20.9420   -5.9710   24.9350 C   0  0  0  0  0  3  0  0  0  0  0  0
  -21.3090   -4.6120   24.9080 C   0  0  0  0  0  0  0  0  0  0  0  0
  -21.8180   -4.0420   23.7280 C   0  0  0  0  0  3  0  0  0  0  0  0
  -21.9600   -4.8310   22.5730 C   0  0  0  0  0  0  0  0  0  0  0  0
  -22.4280   -4.2720   21.4300 F   0  0  0  0  0  0  0  0  0  0  0  0
  -21.1720   -3.8500   26.0180 F   0  0  0  0  0  0  0  0  0  0  0  0
  -22.7360  -13.5610   21.0850 C   0  0  0  0  0  0  0  0  0  0  0  0
  -22.0000  -12.8590   21.9370 N   0  0  0  0  0  0  0  0  0  0  0  0
  -22.3030  -14.5920   20.5690 O   0  0  0  0  0  0  0  0  0  0  0  0
  -22.3610  -12.0310   22.3900 H   0  0  0  0  0  0  0  0  0  0  0  0
  -21.0610  -13.1620   22.1490 H   0  0  0  0  0  0  0  0  0  0  0  0
  -25.3640  -15.2390   20.2700 N   0  0  0  0  0  0  0  0  0  0  0  0
  -24.5860  -15.8840   20.3590 H   0  0  0  0  0  0  0  0  0  0  0  0
  -26.2110  -15.6830   19.9410 H   0  0  0  0  0  0  0  0  0  0  0  0
  -27.7390  -22.6210   21.8930 C   0  0  0  0  0  1  0  0  0  0  0  0
  -29.2050  -23.0110   21.5880 C   0  0  0  0  0  3  0  0  0  0  0  0
  -29.3570  -24.2730   20.6520 C   0  0  0  0  0  2  0  0  0  0  0  0
  -28.1240  -25.2490   20.6330 C   0  0  0  0  0  2  0  0  0  0  0  0
  -28.3520  -26.6160   20.1790 O   0  0  0  0  0  0  0  0  0  0  0  0
  -24.5590  -31.8770   23.2380 C   0  0  0  0  0  0  0  0  0  0  0  0
  -27.2120  -27.4140   20.1490 C   0  0  0  0  0  0  0  0  0  0  0  0
  -23.3590  -30.4890   21.5790 C   0  0  0  0  0  3  0  0  0  0  0  0
  -24.8220  -28.9550   20.1540 C   0  0  0  0  0  0  0  0  0  0  0  0
  -25.8900  -30.8360   21.3990 C   0  0  0  0  0  2  0  0  0  0  0  0
  -25.9820  -29.4620   20.7550 C   0  0  0  0  0  0  0  0  0  0  0  0
  -27.1800  -28.6990   20.7530 C   0  0  0  0  0  3  0  0  0  0  0  0
  -26.0370  -26.9420   19.5240 C   0  0  0  0  0  3  0  0  0  0  0  0
  -24.8480  -27.6940   19.5400 C   0  0  0  0  0  3  0  0  0  0  0  0
  -23.5800  -29.8160   20.1980 C   0  0  0  0  0  2  0  0  0  0  0  0
  -24.6210  -31.0840   22.1300 N   0  0  0  0  0  0  0  0  0  0  0  0
  -23.4750  -32.1400   23.7800 O   0  0  0  0  0  0  0  0  0  0  0  0
  -22.6990  -29.4620   22.5300 C   0  0  0  0  0  0  0  0  0  0  0  0
  -21.3740  -29.2810   22.4020 N   0  0  0  0  0  0  0  0  0  0  0  0
  -23.3790  -28.8290   23.3440 O   0  0  0  0  0  0  0  0  0  0  0  0
  -20.8780  -29.8460   21.7290 H   0  0  0  0  0  0  0  0  0  0  0  0
  -17.9980  -28.1020   22.9040 C   0  0  0  0  0  0  0  0  0  0  0  0
  -20.5590  -28.3360   23.1660 C   0  0  0  0  0  3  0  0  0  0  0  0
  -20.6490  -26.9110   22.5720 C   0  0  0  0  0  2  0  0  0  0  0  0
  -19.5380  -26.6110   21.5600 C   0  0  0  0  0  2  0  0  0  0  0  0
  -18.1610  -26.7620   22.2120 C   0  0  0  0  0  2  0  0  0  0  0  0
  -19.1240  -28.8500   23.3400 C   0  0  0  0  0  0  0  0  0  0  0  0
  -18.9190  -30.1110   23.9420 C   0  0  0  0  0  3  0  0  0  0  0  0
  -17.6190  -30.6190   24.1230 C   0  0  0  0  0  3  0  0  0  0  0  0
  -16.5060  -29.8660   23.7070 C   0  0  0  0  0  3  0  0  0  0  0  0
  -16.6970  -28.6130   23.0990 C   0  0  0  0  0  3  0  0  0  0  0  0
  -25.8400  -32.5080   23.8680 C   0  0  0  0  0  3  0  0  0  0  0  0
  -26.3400  -31.7460   25.1580 C   0  0  1  0  0  0  0  0  0  0  0  0
  -25.2360  -31.5280   26.2160 C   0  0  0  0  0  1  0  0  0  0  0  0
  -26.9200  -30.3630   24.7880 C   0  0  0  0  0  1  0  0  0  0  0  0
  -27.4870  -32.5380   25.8320 C   0  0  0  0  0  1  0  0  0  0  0  0
  -25.5420  -33.9130   24.1860 N   0  0  0  0  0  0  0  0  0  0  0  0
  -25.8910  -34.9540   23.4190 C   0  0  0  0  0  0  0  0  0  0  0  0
  -26.5680  -34.8340   22.3940 O   0  0  0  0  0  0  0  0  0  0  0  0
  -24.9620  -34.0830   24.9930 H   0  0  0  0  0  0  0  0  0  0  0  0
  -24.1950  -36.7630   23.0020 C   0  0  0  0  0  1  0  0  0  0  0  0
  -25.4080  -36.3520   23.8540 C   0  0  0  0  0  3  0  0  0  0  0  0
  -27.5250  -37.2160   24.7470 C   0  0  0  0  0  1  0  0  0  0  0  0
  -26.4550  -37.3940   23.7680 N   0  0  0  0  0  0  0  0  0  0  0  0
  -26.0550  -38.3200   23.9010 H   0  0  0  0  0  0  0  0  0  0  0  0
  1  7  1  0
  1  2  1  0
  2 49  1  0
  2  4  1  0
  3  1  2  0
  6 18  1  0
  6  5  2  0
  7  8  2  0
  8  5  1  0
  9  7  1  0
  9  6  1  0
 10 18  1  0
 11 16  1  0
 12 13  1  0
 12 11  1  0
 14 13  1  0
 14 23  1  0
 14 15  1  0
 16 10  1  0
 16 15  1  0
 17 10  2  0
 18 19  1  0
 20 21  2  0
 21 40  1  0
 22 21  1  0
 22 25  1  0
 23 20  1  0
 23 24  1  0
 24 22  2  0
 25 26  1  0
 26 27  2  0
 28 31  1  0
 28 27  1  0
 29 28  2  0
 30 29  1  0
 30 25  2  0
 31 32  1  0
 32 33  1  0
 33 34  2  0
 35 34  1  0
 35 39  1  0
 36 35  2  0
 37 32  2  0
 37 36  1  0
 38 37  1  0
 40 41  1  0
 41 44  1  0
 41 43  1  0
 42 40  2  0
 45 46  1  0
 45 20  1  0
 47 45  1  0
 49 48  1  0
 50 49  1  0
 51 50  1  0
 52 51  1  0
 53 64  2  0
 54 52  1  0
 54 59  1  0
 55 63  1  0
 55 65  1  0
 56 62  1  0
 56 58  1  0
 57 63  1  0
 58 57  1  0
 59 58  2  0
 60 61  1  0
 60 54  2  0
 61 56  2  0
 62 55  1  0
 63 53  1  0
 65 67  2  0
 66 65  1  0
 68 66  1  0
 69 78  2  0
 69 74  1  0
 70 66  1  0
 70 74  1  0
 71 70  1  0
 72 73  1  0
 72 71  1  0
 73 69  1  0
 74 75  2  0
 75 76  1  0
 77 76  2  0
 78 77  1  0
 79 53  1  0
 79 84  1  0
 79 80  1  0
 80 83  1  1
 80 81  1  0
 82 80  1  0
 84 87  1  0
 85 89  1  0
 85 84  1  0
 86 85  2  0
 89 88  1  0
 91 89  1  0
 91 92  1  0
 91 90  1  0
M  ISO  4  10 100  18 100  51 101  52 101
M  END
>  <TORSDO>  (52) 
F 20

>  <SCORE>  (52) 
-14.001

>  <name>  (52) 
51

>  <ligand_id>  (52) 
51

>  <original_smiles>  (52) 
[H]c1nc(C(=O)N([H])C([H])(C([H])([H])[H])C([H])([H])C([H])([H])Oc2c([H])c([H])c3c(c2[H])C([H])([H])N(C(=O)C([H])(N([H])C(=O)C([H])(N([H])C([H])([H])[H])C([H])([H])[H])C(C([H])([H])[H])(C([H])([H])[H])C([H])([H])[H])C([H])(C(=O)N([H])C2([H])c4c([H])c([H])c([H])c([H])c4C([H])([H])C([H])([H])C2([H])[H])C3([H])[H])sc1N([H])C(=O)N1C([H])([H])C([H])([H])C([H])([H])C([H])(n2nc(-c3c([H])c([H])c(Oc4c([H])c([H])c(F)c([H])c4F)c([H])c3[H])c(C(=O)N([H])[H])c2N([H])[H])C1([H])[H]

>  <smiles>  (52) 
[H]c1nc(C(=O)N([H])C([H])(C([H])([H])[H])C([H])([H])C([H])([H])Oc2c([H])c([H])c3c(c2[H])C([H])([H])N(C(=O)C([H])(N([H])C(=O)C([H])(N([H])C([H])([H])[H])C([H])([H])[H])C(C([H])([H])[H])(C([H])([H])[H])C([H])([H])[H])C([H])(C(=O)N([H])C2([H])c4c([H])c([H])c([H])c([H])c4C([H])([H])C([H])([H])C2([H])[H])C3([H])[H])sc1N([H])C(=O)N1C([H])([H])C([H])([H])C([H])([H])C([H])(n2nc(-c3c([H])c([H])c(Oc4c([H])c([H])c(F)c([H])c4F)c([H])c3[H])c(C(=O)N([H])[H])c2N([H])[H])C1([H])[H]

$$$$
52:0:0
     RDKit          3D

 93101  0  0  1  0  0  0  0  0999 V2000
  -30.5940  -20.7390   20.2660 N   0  0  0  0  0  4  0  0  0  0  0  0
  -29.9930  -20.5760   21.0570 H   0  0  0  0  0  0  0  0  0  0  0  0
  -30.1200  -20.3780   19.4520 H   0  0  0  0  0  0  0  0  0  0  0  0
  -31.7830  -22.5400   18.9790 C   0  0  0  0  0  1  0  0  0  0  0  0
  -30.8270  -22.2060   20.1450 C   0  0  0  0  0  3  0  0  0  0  0  0
  -29.4880  -22.9840   19.9980 C   0  0  0  0  0  2  0  0  0  0  0  0
  -29.5760  -24.5010   20.3130 C   0  0  0  0  0  2  0  0  0  0  0  0
  -28.2780  -25.2640   19.9720 C   0  0  0  0  0  2  0  0  0  0  0  0
  -28.3730  -26.6740   20.2320 O   0  0  0  0  0  0  0  0  0  0  0  0
  -24.5700  -31.9020   23.2400 C   0  0  0  0  0  0  0  0  0  0  0  0
  -27.1980  -27.4070   20.2020 C   0  0  0  0  0  0  0  0  0  0  0  0
  -23.3600  -30.4900   21.6100 C   0  0  0  0  0  3  0  0  0  0  0  0
  -24.8080  -28.9360   20.2010 C   0  0  0  0  0  0  0  0  0  0  0  0
  -25.8890  -30.8320   21.4140 C   0  0  0  0  0  2  0  0  0  0  0  0
  -25.9690  -29.4550   20.7850 C   0  0  0  0  0  0  0  0  0  0  0  0
  -27.1660  -28.6990   20.7810 C   0  0  0  0  0  3  0  0  0  0  0  0
  -26.0110  -26.9080   19.6110 C   0  0  0  0  0  3  0  0  0  0  0  0
  -24.8260  -27.6620   19.6110 C   0  0  0  0  0  3  0  0  0  0  0  0
  -23.5690  -29.8020   20.2370 C   0  0  0  0  0  2  0  0  0  0  0  0
  -24.6250  -31.0900   22.1460 N   0  0  0  0  0  0  0  0  0  0  0  0
  -23.4880  -32.1860   23.7740 O   0  0  0  0  0  0  0  0  0  0  0  0
  -22.7030  -29.4800   22.5800 C   0  0  0  0  0  0  0  0  0  0  0  0
  -21.3800  -29.2890   22.4420 N   0  0  0  0  0  0  0  0  0  0  0  0
  -23.3800  -28.8680   23.4120 O   0  0  0  0  0  0  0  0  0  0  0  0
  -20.8930  -29.8360   21.7450 H   0  0  0  0  0  0  0  0  0  0  0  0
  -18.0090  -28.0670   22.9000 C   0  0  0  0  0  0  0  0  0  0  0  0
  -20.5580  -28.3600   23.2180 C   0  0  0  0  0  3  0  0  0  0  0  0
  -20.6870  -26.9150   22.6810 C   0  0  0  0  0  2  0  0  0  0  0  0
  -19.6110  -26.5570   21.6520 C   0  0  0  0  0  2  0  0  0  0  0  0
  -18.2140  -26.7030   22.2620 C   0  0  0  0  0  2  0  0  0  0  0  0
  -19.1100  -28.8510   23.3350 C   0  0  0  0  0  0  0  0  0  0  0  0
  -18.8640  -30.1280   23.8860 C   0  0  0  0  0  3  0  0  0  0  0  0
  -17.5510  -30.6180   24.0100 C   0  0  0  0  0  3  0  0  0  0  0  0
  -16.4640  -29.8290   23.5940 C   0  0  0  0  0  3  0  0  0  0  0  0
  -16.6950  -28.5560   23.0450 C   0  0  0  0  0  3  0  0  0  0  0  0
  -25.8580  -32.5340   23.8530 C   0  0  0  0  0  3  0  0  0  0  0  0
  -25.5530  -33.9320   24.1870 N   0  0  0  0  0  0  0  0  0  0  0  0
  -25.8780  -34.9830   23.4240 C   0  0  0  0  0  0  0  0  0  0  0  0
  -26.5440  -34.8790   22.3900 O   0  0  0  0  0  0  0  0  0  0  0  0
  -24.9680  -34.0870   24.9960 H   0  0  0  0  0  0  0  0  0  0  0  0
  -24.1460  -36.7680   23.0740 C   0  0  0  0  0  1  0  0  0  0  0  0
  -25.3900  -36.3700   23.8810 C   0  0  0  0  0  3  0  0  0  0  0  0
  -27.5290  -37.2550   24.7010 C   0  0  0  0  0  1  0  0  0  0  0  0
  -26.4210  -37.4250   23.7640 N   0  0  0  0  0  0  0  0  0  0  0  0
  -26.0160  -38.3450   23.9190 H   0  0  0  0  0  0  0  0  0  0  0  0
  -26.3860  -31.7580   25.1220 C   0  0  1  0  0  0  0  0  0  0  0  0
  -25.3040  -31.5080   26.1960 C   0  0  0  0  0  1  0  0  0  0  0  0
  -26.9700  -30.3850   24.7160 C   0  0  0  0  0  1  0  0  0  0  0  0
  -27.5420  -32.5510   25.7770 C   0  0  0  0  0  1  0  0  0  0  0  0
  -31.8010  -19.9140   20.4900 C   0  0  0  0  0  2  0  0  0  0  0  0
  -30.5670  -16.9940   22.8460 C   0  0  0  0  0  3  0  0  0  0  0  0
  -30.7210  -16.5170   21.5740 C   0  0  0  0  0  0  0  0  0  0  0  0
  -31.2990  -18.6950   21.2100 C   0  0  0  0  0  0  0  0  0  0  0  0
  -31.1090  -17.4940   20.6420 N   0  0  0  0  0  0  0  0  0  0  0  0
  -30.9620  -18.6890   22.9440 S   0  0  0  0  0  0  0  0  0  0  0  0
  -30.9170  -14.3850   20.3100 C   0  0  0  0  0  0  0  0  0  0  0  0
  -30.5030  -12.3370   18.9950 C   0  0  0  0  0  2  0  0  0  0  0  0
  -29.5320  -12.6380   17.8360 C   0  0  0  0  0  2  0  0  0  0  0  0
  -28.0620  -12.5470   18.2960 C   0  0  0  0  0  2  0  0  0  0  0  0
  -27.7940  -13.3200   19.6160 C   0  0  0  0  0  3  0  0  0  0  0  0
  -28.8620  -12.9640   20.6730 C   0  0  0  0  0  2  0  0  0  0  0  0
  -30.1950  -13.2530   20.1020 N   0  0  0  0  0  0  0  0  0  0  0  0
  -31.9470  -14.6550   19.6790 O   0  0  0  0  0  0  0  0  0  0  0  0
  -30.4410  -15.1610   21.2910 N   0  0  0  0  0  0  0  0  0  0  0  0
  -29.7160  -14.7340   21.8460 H   0  0  0  0  0  0  0  0  0  0  0  0
  -25.4060  -13.9690   20.3450 C   0  0  0  0  0  0  0  0  0  0  0  0
  -24.3320  -13.2130   20.7330 C   0  0  0  0  0  0  0  0  0  0  0  0
  -24.7750  -11.8560   20.7060 C   0  0  0  0  0  0  0  0  0  0  0  0
  -26.4400  -13.0720   20.1120 N   0  0  0  0  0  0  0  0  0  0  0  0
  -26.0610  -11.7980   20.3830 N   0  0  0  0  0  0  0  0  0  0  0  0
  -24.0370  -10.6030   20.9140 C   0  0  0  0  0  0  0  0  0  0  0  0
  -24.4610   -9.6460   21.8620 C   0  0  0  0  0  3  0  0  0  0  0  0
  -23.7250   -8.4570   22.0570 C   0  0  0  0  0  3  0  0  0  0  0  0
  -22.5510   -8.2180   21.3050 C   0  0  0  0  0  0  0  0  0  0  0  0
  -22.1480   -9.1620   20.3440 C   0  0  0  0  0  3  0  0  0  0  0  0
  -22.8840  -10.3430   20.1480 C   0  0  0  0  0  3  0  0  0  0  0  0
  -21.7870   -7.0820   21.4070 O   0  0  0  0  0  0  0  0  0  0  0  0
  -21.7090   -6.3710   22.5790 C   0  0  0  0  0  0  0  0  0  0  0  0
  -21.2810   -6.9660   23.7860 C   0  0  0  0  0  3  0  0  0  0  0  0
  -21.1510   -6.1810   24.9490 C   0  0  0  0  0  3  0  0  0  0  0  0
  -21.4380   -4.8040   24.9060 C   0  0  0  0  0  0  0  0  0  0  0  0
  -21.8570   -4.2100   23.7040 C   0  0  0  0  0  3  0  0  0  0  0  0
  -21.9900   -4.9910   22.5430 C   0  0  0  0  0  0  0  0  0  0  0  0
  -22.3760   -4.4090   21.3810 F   0  0  0  0  0  0  0  0  0  0  0  0
  -21.3050   -4.0480   26.0210 F   0  0  0  0  0  0  0  0  0  0  0  0
  -22.9430  -13.7100   21.0190 C   0  0  0  0  0  0  0  0  0  0  0  0
  -22.2190  -13.0350   21.9060 N   0  0  0  0  0  0  0  0  0  0  0  0
  -22.5070  -14.7320   20.4910 O   0  0  0  0  0  0  0  0  0  0  0  0
  -22.5760  -12.2040   22.3560 H   0  0  0  0  0  0  0  0  0  0  0  0
  -21.2880  -13.3530   22.1380 H   0  0  0  0  0  0  0  0  0  0  0  0
  -25.5880  -15.3350   20.1580 N   0  0  0  0  0  0  0  0  0  0  0  0
  -24.8340  -16.0040   20.2850 H   0  0  0  0  0  0  0  0  0  0  0  0
  -26.4510  -15.7660   19.8510 H   0  0  0  0  0  0  0  0  0  0  0  0
  1 50  1  0
  1  2  1  0
  3  1  1  0
  5  4  1  0
  5  1  1  0
  6  5  1  0
  6  7  1  0
  8  9  1  0
  8  7  1  0
 10 21  2  0
 11  9  1  0
 11 16  1  0
 12 20  1  0
 12 22  1  0
 13 19  1  0
 13 15  1  0
 14 20  1  0
 15 14  1  0
 16 15  2  0
 17 11  2  0
 18 17  1  0
 18 13  2  0
 19 12  1  0
 20 10  1  0
 22 24  2  0
 23 22  1  0
 25 23  1  0
 26 35  2  0
 26 31  1  0
 27 23  1  0
 27 31  1  0
 28 27  1  0
 29 30  1  0
 29 28  1  0
 30 26  1  0
 31 32  2  0
 32 33  1  0
 34 33  2  0
 35 34  1  0
 36 10  1  0
 36 37  1  0
 36 46  1  0
 37 40  1  0
 38 42  1  0
 38 37  1  0
 39 38  2  0
 42 41  1  0
 44 42  1  0
 44 45  1  0
 44 43  1  0
 46 49  1  1
 46 47  1  0
 48 46  1  0
 50 53  1  0
 51 55  1  0
 52 51  2  0
 53 55  1  0
 54 53  2  0
 54 52  1  0
 56 64  1  0
 57 62  1  0
 58 59  1  0
 58 57  1  0
 60 59  1  0
 60 69  1  0
 60 61  1  0
 62 56  1  0
 62 61  1  0
 63 56  2  0
 64 52  1  0
 64 65  1  0
 66 67  2  0
 67 86  1  0
 68 67  1  0
 68 71  1  0
 69 66  1  0
 69 70  1  0
 70 68  2  0
 71 72  1  0
 72 73  2  0
 74 77  1  0
 74 73  1  0
 75 74  2  0
 76 75  1  0
 76 71  2  0
 77 78  1  0
 78 79  1  0
 79 80  2  0
 81 80  1  0
 81 85  1  0
 82 81  2  0
 83 78  2  0
 83 82  1  0
 84 83  1  0
 86 87  1  0
 87 90  1  0
 87 89  1  0
 88 86  2  0
 91 92  1  0
 91 66  1  0
 93 91  1  0
M  ISO  4   8 101   9 101  56 100  64 100
M  END
>  <TORSDO>  (53) 
F 22

>  <SCORE>  (53) 
-12.627

>  <name>  (53) 
52

>  <ligand_id>  (53) 
52

>  <original_smiles>  (53) 
[H]c1sc(C([H])([H])[N+]([H])([H])C([H])(C([H])([H])[H])C([H])([H])C([H])([H])C([H])([H])Oc2c([H])c([H])c3c(c2[H])C([H])([H])N(C(=O)C([H])(N([H])C(=O)C([H])(N([H])C([H])([H])[H])C([H])([H])[H])C(C([H])([H])[H])(C([H])([H])[H])C([H])([H])[H])C([H])(C(=O)N([H])C2([H])c4c([H])c([H])c([H])c([H])c4C([H])([H])C([H])([H])C2([H])[H])C3([H])[H])nc1N([H])C(=O)N1C([H])([H])C([H])([H])C([H])([H])C([H])(n2nc(-c3c([H])c([H])c(Oc4c([H])c([H])c(F)c([H])c4F)c([H])c3[H])c(C(=O)N([H])[H])c2N([H])[H])C1([H])[H]

>  <smiles>  (53) 
[H]c1sc(C([H])([H])[N+]([H])([H])C([H])(C([H])([H])[H])C([H])([H])C([H])([H])C([H])([H])Oc2c([H])c([H])c3c(c2[H])C([H])([H])N(C(=O)C([H])(N([H])C(=O)C([H])(N([H])C([H])([H])[H])C([H])([H])[H])C(C([H])([H])[H])(C([H])([H])[H])C([H])([H])[H])C([H])(C(=O)N([H])C2([H])c4c([H])c([H])c([H])c([H])c4C([H])([H])C([H])([H])C2([H])[H])C3([H])[H])nc1N([H])C(=O)N1C([H])([H])C([H])([H])C([H])([H])C([H])(n2nc(-c3c([H])c([H])c(Oc4c([H])c([H])c(F)c([H])c4F)c([H])c3[H])c(C(=O)N([H])[H])c2N([H])[H])C1([H])[H]

$$$$
53:0:0
     RDKit          3D

 93101  0  0  1  0  0  0  0  0999 V2000
  -29.8830  -21.4140   20.4720 N   0  0  0  0  0  0  0  0  0  0  0  0
  -30.8020  -21.8260   20.6370 H   0  0  0  0  0  0  0  0  0  0  0  0
  -30.5900  -14.6900   20.4150 C   0  0  0  0  0  0  0  0  0  0  0  0
  -30.3900  -12.4380   19.3740 C   0  0  0  0  0  2  0  0  0  0  0  0
  -29.4510  -12.5520   18.1540 C   0  0  0  0  0  2  0  0  0  0  0  0
  -27.9770  -12.3890   18.5770 C   0  0  0  0  0  2  0  0  0  0  0  0
  -27.6080  -13.2590   19.8080 C   0  0  0  0  0  3  0  0  0  0  0  0
  -28.6650  -13.1240   20.9290 C   0  0  0  0  0  2  0  0  0  0  0  0
  -29.9740  -13.4650   20.3510 N   0  0  0  0  0  0  0  0  0  0  0  0
  -31.7680  -14.8160   20.0630 O   0  0  0  0  0  0  0  0  0  0  0  0
  -28.6500  -19.1690   20.4720 C   0  0  0  0  0  3  0  0  0  0  0  0
  -29.8160  -19.9680   20.4940 C   0  0  0  0  0  0  0  0  0  0  0  0
  -30.9940  -19.1740   20.5660 C   0  0  0  0  0  0  0  0  0  0  0  0
  -29.8430  -17.1620   20.5870 C   0  0  0  0  0  0  0  0  0  0  0  0
  -28.6720  -17.8040   20.5290 N   0  0  0  0  0  0  0  0  0  0  0  0
  -31.0050  -17.8120   20.6080 N   0  0  0  0  0  0  0  0  0  0  0  0
  -29.7620  -15.7550   20.6830 N   0  0  0  0  0  0  0  0  0  0  0  0
  -32.1940  -19.8050   20.6000 F   0  0  0  0  0  0  0  0  0  0  0  0
  -28.8290  -15.4460   20.8910 H   0  0  0  0  0  0  0  0  0  0  0  0
  -25.2120  -13.8560   20.5170 C   0  0  0  0  0  0  0  0  0  0  0  0
  -24.1450  -13.0810   20.8830 C   0  0  0  0  0  0  0  0  0  0  0  0
  -24.6110  -11.7310   20.8600 C   0  0  0  0  0  0  0  0  0  0  0  0
  -26.2590  -12.9760   20.2890 N   0  0  0  0  0  0  0  0  0  0  0  0
  -25.9020  -11.6940   20.5570 N   0  0  0  0  0  0  0  0  0  0  0  0
  -23.8860  -10.4670   21.0500 C   0  0  0  0  0  0  0  0  0  0  0  0
  -24.3220   -9.4990   21.9820 C   0  0  0  0  0  3  0  0  0  0  0  0
  -23.5990   -8.3010   22.1600 C   0  0  0  0  0  3  0  0  0  0  0  0
  -22.4240   -8.0610   21.4080 C   0  0  0  0  0  0  0  0  0  0  0  0
  -22.0070   -9.0190   20.4660 C   0  0  0  0  0  3  0  0  0  0  0  0
  -22.7320  -10.2080   20.2860 C   0  0  0  0  0  3  0  0  0  0  0  0
  -21.6720   -6.9150   21.4960 O   0  0  0  0  0  0  0  0  0  0  0  0
  -21.6300   -6.1680   22.6460 C   0  0  0  0  0  0  0  0  0  0  0  0
  -21.1970   -6.7140   23.8730 C   0  0  0  0  0  3  0  0  0  0  0  0
  -21.1030   -5.8930   25.0150 C   0  0  0  0  0  3  0  0  0  0  0  0
  -21.4320   -4.5260   24.9300 C   0  0  0  0  0  0  0  0  0  0  0  0
  -21.8590   -3.9800   23.7070 C   0  0  0  0  0  3  0  0  0  0  0  0
  -21.9540   -4.7980   22.5670 C   0  0  0  0  0  0  0  0  0  0  0  0
  -22.3460   -4.2630   21.3860 F   0  0  0  0  0  0  0  0  0  0  0  0
  -21.3350   -3.7360   26.0240 F   0  0  0  0  0  0  0  0  0  0  0  0
  -22.7450  -13.5550   21.1470 C   0  0  0  0  0  0  0  0  0  0  0  0
  -22.0150  -12.8630   22.0140 N   0  0  0  0  0  0  0  0  0  0  0  0
  -22.3070  -14.5770   20.6190 O   0  0  0  0  0  0  0  0  0  0  0  0
  -22.3820  -12.0370   22.4640 H   0  0  0  0  0  0  0  0  0  0  0  0
  -21.0760  -13.1640   22.2330 H   0  0  0  0  0  0  0  0  0  0  0  0
  -25.3730  -15.2260   20.3380 N   0  0  0  0  0  0  0  0  0  0  0  0
  -24.6000  -15.8730   20.4470 H   0  0  0  0  0  0  0  0  0  0  0  0
  -26.2170  -15.6790   20.0090 H   0  0  0  0  0  0  0  0  0  0  0  0
  -28.7720  -22.4050   20.3000 C   0  0  0  0  0  2  0  0  0  0  0  0
  -29.1790  -23.9530   20.4390 C   0  0  0  0  0  3  0  0  0  0  0  0
  -29.5840  -24.1180   21.7860 O   0  0  0  0  0  0  0  0  0  0  0  0
  -29.8200  -25.0340   21.8930 H   0  0  0  0  0  0  0  0  0  0  0  0
  -28.0340  -25.0280   20.1590 C   0  0  0  0  0  2  0  0  0  0  0  0
  -28.3060  -26.4880   20.2420 O   0  0  0  0  0  0  0  0  0  0  0  0
  -24.6110  -31.9170   23.2620 C   0  0  0  0  0  0  0  0  0  0  0  0
  -27.1950  -27.3510   20.1920 C   0  0  0  0  0  0  0  0  0  0  0  0
  -23.3990  -30.5300   21.6190 C   0  0  0  0  0  3  0  0  0  0  0  0
  -24.8390  -28.9790   20.1880 C   0  0  0  0  0  0  0  0  0  0  0  0
  -25.9410  -30.8340   21.4350 C   0  0  0  0  0  2  0  0  0  0  0  0
  -26.0130  -29.4580   20.7840 C   0  0  0  0  0  0  0  0  0  0  0  0
  -27.1940  -28.6570   20.7760 C   0  0  0  0  0  3  0  0  0  0  0  0
  -25.9950  -26.9300   19.5710 C   0  0  0  0  0  3  0  0  0  0  0  0
  -24.8330  -27.7200   19.5730 C   0  0  0  0  0  3  0  0  0  0  0  0
  -23.6070  -29.8590   20.2370 C   0  0  0  0  0  2  0  0  0  0  0  0
  -24.6700  -31.1100   22.1630 N   0  0  0  0  0  0  0  0  0  0  0  0
  -23.5300  -32.1990   23.7970 O   0  0  0  0  0  0  0  0  0  0  0  0
  -22.7300  -29.5140   22.5750 C   0  0  0  0  0  0  0  0  0  0  0  0
  -21.4030  -29.3450   22.4470 N   0  0  0  0  0  0  0  0  0  0  0  0
  -23.4040  -28.8810   23.3910 O   0  0  0  0  0  0  0  0  0  0  0  0
  -20.9180  -29.9080   21.7630 H   0  0  0  0  0  0  0  0  0  0  0  0
  -18.0150  -28.1800   22.9520 C   0  0  0  0  0  0  0  0  0  0  0  0
  -20.5770  -28.4130   23.2160 C   0  0  0  0  0  3  0  0  0  0  0  0
  -20.6630  -26.9820   22.6350 C   0  0  0  0  0  2  0  0  0  0  0  0
  -19.5540  -26.6750   21.6220 C   0  0  0  0  0  2  0  0  0  0  0  0
  -18.1760  -26.8320   22.2710 C   0  0  0  0  0  2  0  0  0  0  0  0
  -19.1430  -28.9290   23.3820 C   0  0  0  0  0  0  0  0  0  0  0  0
  -18.9380  -30.1920   23.9790 C   0  0  0  0  0  3  0  0  0  0  0  0
  -17.6380  -30.7050   24.1510 C   0  0  0  0  0  3  0  0  0  0  0  0
  -16.5250  -29.9530   23.7370 C   0  0  0  0  0  3  0  0  0  0  0  0
  -16.7140  -28.6930   23.1430 C   0  0  0  0  0  3  0  0  0  0  0  0
  -25.8980  -32.5390   23.8840 C   0  0  0  0  0  3  0  0  0  0  0  0
  -26.4100  -31.7610   25.1590 C   0  0  1  0  0  0  0  0  0  0  0  0
  -25.3150  -31.5240   26.2250 C   0  0  0  0  0  1  0  0  0  0  0  0
  -26.9860  -30.3820   24.7610 C   0  0  0  0  0  1  0  0  0  0  0  0
  -27.5640  -32.5470   25.8230 C   0  0  0  0  0  1  0  0  0  0  0  0
  -25.5960  -33.9380   24.2210 N   0  0  0  0  0  0  0  0  0  0  0  0
  -25.9120  -34.9900   23.4550 C   0  0  0  0  0  0  0  0  0  0  0  0
  -26.5600  -34.8860   22.4090 O   0  0  0  0  0  0  0  0  0  0  0  0
  -25.0180  -34.0920   25.0340 H   0  0  0  0  0  0  0  0  0  0  0  0
  -24.1690  -36.7790   23.1490 C   0  0  0  0  0  1  0  0  0  0  0  0
  -25.4360  -36.3790   23.9230 C   0  0  0  0  0  3  0  0  0  0  0  0
  -27.5920  -37.2750   24.6860 C   0  0  0  0  0  1  0  0  0  0  0  0
  -26.4620  -37.4350   23.7740 N   0  0  0  0  0  0  0  0  0  0  0  0
  -26.0580  -38.3540   23.9290 H   0  0  0  0  0  0  0  0  0  0  0  0
  1 12  1  0
  1  2  1  0
  3 17  1  0
  4  9  1  0
  5  6  1  0
  5  4  1  0
  7  6  1  0
  7 23  1  0
  7  8  1  0
  9  3  1  0
  9  8  1  0
 10  3  2  0
 11 12  2  0
 11 15  1  0
 12 13  1  0
 13 18  1  0
 13 16  2  0
 14 16  1  0
 14 17  1  0
 15 14  2  0
 17 19  1  0
 20 21  2  0
 21 40  1  0
 22 21  1  0
 22 25  1  0
 23 20  1  0
 23 24  1  0
 24 22  2  0
 25 26  1  0
 26 27  2  0
 28 31  1  0
 28 27  1  0
 29 28  2  0
 30 29  1  0
 30 25  2  0
 31 32  1  0
 32 33  1  0
 33 34  2  0
 35 34  1  0
 35 39  1  0
 36 35  2  0
 37 32  2  0
 37 36  1  0
 38 37  1  0
 40 41  1  0
 41 44  1  0
 41 43  1  0
 42 40  2  0
 45 46  1  0
 45 20  1  0
 47 45  1  0
 48 49  1  0
 48  1  1  0
 49 52  1  0
 49 50  1  0
 50 51  1  0
 52 53  1  0
 54 65  2  0
 55 53  1  0
 55 60  1  0
 56 64  1  0
 56 66  1  0
 57 63  1  0
 57 59  1  0
 58 64  1  0
 59 58  1  0
 60 59  2  0
 61 62  1  0
 61 55  2  0
 62 57  2  0
 63 56  1  0
 64 54  1  0
 66 68  2  0
 67 66  1  0
 69 67  1  0
 70 79  2  0
 70 75  1  0
 71 67  1  0
 71 75  1  0
 72 71  1  0
 73 74  1  0
 73 72  1  0
 74 70  1  0
 75 76  2  0
 76 77  1  0
 78 77  2  0
 79 78  1  0
 80 54  1  0
 80 85  1  0
 80 81  1  0
 81 84  1  1
 81 82  1  0
 83 81  1  0
 85 88  1  0
 86 90  1  0
 86 85  1  0
 87 86  2  0
 90 89  1  0
 92 90  1  0
 92 93  1  0
 92 91  1  0
M  ISO  4   3 100  17 100  52 101  53 101
M  END
>  <TORSDO>  (54) 
F 20

>  <SCORE>  (54) 
-14.274

>  <name>  (54) 
53

>  <ligand_id>  (54) 
53

>  <original_smiles>  (54) 
[H]OC([H])(C([H])([H])Oc1c([H])c([H])c2c(c1[H])C([H])([H])N(C(=O)C([H])(N([H])C(=O)C([H])(N([H])C([H])([H])[H])C([H])([H])[H])C(C([H])([H])[H])(C([H])([H])[H])C([H])([H])[H])C([H])(C(=O)N([H])C1([H])c3c([H])c([H])c([H])c([H])c3C([H])([H])C([H])([H])C1([H])[H])C2([H])[H])C([H])([H])N([H])c1c([H])nc(N([H])C(=O)N2C([H])([H])C([H])([H])C([H])([H])C([H])(n3nc(-c4c([H])c([H])c(Oc5c([H])c([H])c(F)c([H])c5F)c([H])c4[H])c(C(=O)N([H])[H])c3N([H])[H])C2([H])[H])nc1F

>  <smiles>  (54) 
[H]OC([H])(C([H])([H])Oc1c([H])c([H])c2c(c1[H])C([H])([H])N(C(=O)C([H])(N([H])C(=O)C([H])(N([H])C([H])([H])[H])C([H])([H])[H])C(C([H])([H])[H])(C([H])([H])[H])C([H])([H])[H])C([H])(C(=O)N([H])C1([H])c3c([H])c([H])c([H])c([H])c3C([H])([H])C([H])([H])C1([H])[H])C2([H])[H])C([H])([H])N([H])c1c([H])nc(N([H])C(=O)N2C([H])([H])C([H])([H])C([H])([H])C([H])(n3nc(-c4c([H])c([H])c(Oc5c([H])c([H])c(F)c([H])c5F)c([H])c4[H])c(C(=O)N([H])[H])c3N([H])[H])C2([H])[H])nc1F

$$$$
54:0:0
     RDKit          3D

 90 98  0  0  1  0  0  0  0  0999 V2000
  -27.2560  -21.7780   19.8110 C   0  0  0  0  0  1  0  0  0  0  0  0
  -28.7380  -22.1170   20.1800 C   0  0  0  0  0  3  0  0  0  0  0  0
  -30.6320  -14.8280   20.1790 C   0  0  0  0  0  0  0  0  0  0  0  0
  -30.4010  -12.5190   19.2150 C   0  0  0  0  0  2  0  0  0  0  0  0
  -29.4320  -12.5730   18.0130 C   0  0  0  0  0  2  0  0  0  0  0  0
  -27.9770  -12.4020   18.4890 C   0  0  0  0  0  2  0  0  0  0  0  0
  -27.6320  -13.3060   19.7010 C   0  0  0  0  0  3  0  0  0  0  0  0
  -28.7250  -13.2660   20.7970 C   0  0  0  0  0  2  0  0  0  0  0  0
  -30.0110  -13.5940   20.1640 N   0  0  0  0  0  0  0  0  0  0  0  0
  -31.7820  -14.9260   19.7320 O   0  0  0  0  0  0  0  0  0  0  0  0
  -29.9500  -17.3640   20.1790 C   0  0  0  0  0  0  0  0  0  0  0  0
  -29.5700  -19.6310   20.3330 C   0  0  0  0  0  3  0  0  0  0  0  0
  -29.7170  -18.4490   21.0060 N   0  0  0  0  0  0  0  0  0  0  0  0
  -30.0390  -17.6590   18.8660 N   0  0  0  0  0  2  0  0  0  0  0  0
  -29.9320  -15.9450   20.6170 N   0  0  0  0  0  0  0  0  0  0  0  0
  -29.3630  -20.9400   20.9210 N   0  0  0  0  0  0  0  0  0  0  0  0
  -29.7340  -19.3240   18.6130 S   0  0  0  0  0  0  0  0  0  0  0  0
  -29.1320  -15.7160   21.1870 H   0  0  0  0  0  0  0  0  0  0  0  0
  -29.8090  -21.1080   21.8280 H   0  0  0  0  0  0  0  0  0  0  0  0
  -25.2510  -13.8800   20.4810 C   0  0  0  0  0  0  0  0  0  0  0  0
  -24.1980  -13.1010   20.8590 C   0  0  0  0  0  0  0  0  0  0  0  0
  -24.6650  -11.7480   20.8110 C   0  0  0  0  0  0  0  0  0  0  0  0
  -26.3010  -13.0100   20.2230 N   0  0  0  0  0  0  0  0  0  0  0  0
  -25.9520  -11.7250   20.4860 N   0  0  0  0  0  0  0  0  0  0  0  0
  -23.9440  -10.4840   21.0030 C   0  0  0  0  0  0  0  0  0  0  0  0
  -24.3920   -9.5110   21.9260 C   0  0  0  0  0  3  0  0  0  0  0  0
  -23.6670   -8.3110   22.1110 C   0  0  0  0  0  3  0  0  0  0  0  0
  -22.4820   -8.0790   21.3750 C   0  0  0  0  0  0  0  0  0  0  0  0
  -22.0560   -9.0340   20.4380 C   0  0  0  0  0  3  0  0  0  0  0  0
  -22.7770  -10.2230   20.2500 C   0  0  0  0  0  3  0  0  0  0  0  0
  -21.7310   -6.9290   21.4720 O   0  0  0  0  0  0  0  0  0  0  0  0
  -21.6940   -6.1870   22.6200 C   0  0  0  0  0  0  0  0  0  0  0  0
  -21.2640   -6.7350   23.8510 C   0  0  0  0  0  3  0  0  0  0  0  0
  -21.1780   -5.9190   24.9940 C   0  0  0  0  0  3  0  0  0  0  0  0
  -21.5070   -4.5520   24.9110 C   0  0  0  0  0  0  0  0  0  0  0  0
  -21.9300   -4.0020   23.6890 C   0  0  0  0  0  3  0  0  0  0  0  0
  -22.0170   -4.8160   22.5470 C   0  0  0  0  0  0  0  0  0  0  0  0
  -22.4050   -4.2780   21.3640 F   0  0  0  0  0  0  0  0  0  0  0  0
  -21.4180   -3.7630   26.0080 F   0  0  0  0  0  0  0  0  0  0  0  0
  -22.8020  -13.5640   21.1610 C   0  0  0  0  0  0  0  0  0  0  0  0
  -22.1060  -12.8520   22.0400 N   0  0  0  0  0  0  0  0  0  0  0  0
  -22.3440  -14.5890   20.6540 O   0  0  0  0  0  0  0  0  0  0  0  0
  -22.4990  -12.0200   22.4570 H   0  0  0  0  0  0  0  0  0  0  0  0
  -21.1720  -13.1300   22.2970 H   0  0  0  0  0  0  0  0  0  0  0  0
  -25.4080  -15.2540   20.3000 N   0  0  0  0  0  0  0  0  0  0  0  0
  -24.6390  -15.9080   20.4000 H   0  0  0  0  0  0  0  0  0  0  0  0
  -26.2510  -15.6940   19.9530 H   0  0  0  0  0  0  0  0  0  0  0  0
  -28.8610  -23.6280   20.8060 C   0  0  0  0  0  3  0  0  0  0  0  0
  -28.0610  -24.8590   20.0960 C   0  0  0  0  0  3  0  0  0  0  0  0
  -28.2740  -26.3420   20.3550 O   0  0  0  0  0  0  0  0  0  0  0  0
  -24.6160  -31.8900   23.2570 C   0  0  0  0  0  0  0  0  0  0  0  0
  -27.1960  -27.2610   20.2280 C   0  0  0  0  0  0  0  0  0  0  0  0
  -23.4130  -30.4960   21.6190 C   0  0  0  0  0  3  0  0  0  0  0  0
  -24.8570  -28.9440   20.1800 C   0  0  0  0  0  0  0  0  0  0  0  0
  -25.9580  -30.7920   21.4380 C   0  0  0  0  0  2  0  0  0  0  0  0
  -26.0280  -29.4100   20.7900 C   0  0  0  0  0  0  0  0  0  0  0  0
  -27.1970  -28.5810   20.7980 C   0  0  0  0  0  3  0  0  0  0  0  0
  -26.0080  -26.8820   19.5560 C   0  0  0  0  0  3  0  0  0  0  0  0
  -24.8570  -27.6930   19.5450 C   0  0  0  0  0  3  0  0  0  0  0  0
  -23.6220  -29.8230   20.2350 C   0  0  0  0  0  2  0  0  0  0  0  0
  -24.6840  -31.0790   22.1600 N   0  0  0  0  0  0  0  0  0  0  0  0
  -23.5330  -32.1650   23.7940 O   0  0  0  0  0  0  0  0  0  0  0  0
  -22.7470  -29.4810   22.5810 C   0  0  0  0  0  0  0  0  0  0  0  0
  -21.4210  -29.2980   22.4560 N   0  0  0  0  0  0  0  0  0  0  0  0
  -23.4230  -28.8550   23.4030 O   0  0  0  0  0  0  0  0  0  0  0  0
  -20.9290  -29.8470   21.7640 H   0  0  0  0  0  0  0  0  0  0  0  0
  -18.0520  -28.0830   22.9550 C   0  0  0  0  0  0  0  0  0  0  0  0
  -20.6070  -28.3580   23.2320 C   0  0  0  0  0  3  0  0  0  0  0  0
  -20.7210  -26.9250   22.6630 C   0  0  0  0  0  2  0  0  0  0  0  0
  -19.6220  -26.5930   21.6480 C   0  0  0  0  0  2  0  0  0  0  0  0
  -18.2380  -26.7340   22.2860 C   0  0  0  0  0  2  0  0  0  0  0  0
  -19.1620  -28.8530   23.3890 C   0  0  0  0  0  0  0  0  0  0  0  0
  -18.9330  -30.1160   23.9770 C   0  0  0  0  0  3  0  0  0  0  0  0
  -17.6230  -30.6080   24.1340 C   0  0  0  0  0  3  0  0  0  0  0  0
  -16.5250  -29.8350   23.7190 C   0  0  0  0  0  3  0  0  0  0  0  0
  -16.7410  -28.5720   23.1350 C   0  0  0  0  0  3  0  0  0  0  0  0
  -25.8950  -32.5240   23.8750 C   0  0  0  0  0  3  0  0  0  0  0  0
  -25.5920  -33.9230   24.2080 N   0  0  0  0  0  0  0  0  0  0  0  0
  -25.9180  -34.9730   23.4450 C   0  0  0  0  0  0  0  0  0  0  0  0
  -26.5740  -34.8650   22.4050 O   0  0  0  0  0  0  0  0  0  0  0  0
  -25.0030  -34.0830   25.0130 H   0  0  0  0  0  0  0  0  0  0  0  0
  -24.1860  -36.7640   23.1060 C   0  0  0  0  0  1  0  0  0  0  0  0
  -25.4390  -36.3650   23.9020 C   0  0  0  0  0  3  0  0  0  0  0  0
  -27.5850  -37.2530   24.6990 C   0  0  0  0  0  1  0  0  0  0  0  0
  -26.4710  -37.4190   23.7680 N   0  0  0  0  0  0  0  0  0  0  0  0
  -26.0670  -38.3410   23.9150 H   0  0  0  0  0  0  0  0  0  0  0  0
  -26.4110  -31.7580   25.1530 C   0  0  1  0  0  0  0  0  0  0  0  0
  -25.3140  -31.5290   26.2200 C   0  0  0  0  0  1  0  0  0  0  0  0
  -26.9940  -30.3790   24.7670 C   0  0  0  0  0  1  0  0  0  0  0  0
  -27.5680  -32.5490   25.8100 C   0  0  0  0  0  1  0  0  0  0  0  0
  2  1  1  0
  2 48  1  0
  2 16  1  0
  3 15  1  0
  4  9  1  0
  5  6  1  0
  5  4  1  0
  7  6  1  0
  7 23  1  0
  7  8  1  0
  9  3  1  0
  9  8  1  0
 10  3  2  0
 11 15  1  0
 11 13  2  0
 12 16  1  0
 12 13  1  0
 14 11  1  0
 15 18  1  0
 16 19  1  0
 17 14  1  0
 17 12  1  0
 20 21  2  0
 21 40  1  0
 22 21  1  0
 22 25  1  0
 23 20  1  0
 23 24  1  0
 24 22  2  0
 25 26  1  0
 26 27  2  0
 28 31  1  0
 28 27  1  0
 29 28  2  0
 30 29  1  0
 30 25  2  0
 31 32  1  0
 32 33  1  0
 33 34  2  0
 35 34  1  0
 35 39  1  0
 36 35  2  0
 37 32  2  0
 37 36  1  0
 38 37  1  0
 40 41  1  0
 41 44  1  0
 41 43  1  0
 42 40  2  0
 45 46  1  0
 45 20  1  0
 47 45  1  0
 49 50  1  0
 49 48  2  0
 51 62  2  0
 52 50  1  0
 52 57  1  0
 53 61  1  0
 53 63  1  0
 54 60  1  0
 54 56  1  0
 55 61  1  0
 56 57  2  0
 56 55  1  0
 58 52  2  0
 59 58  1  0
 59 54  2  0
 60 53  1  0
 61 51  1  0
 63 65  2  0
 64 63  1  0
 66 64  1  0
 67 76  2  0
 67 72  1  0
 68 64  1  0
 68 72  1  0
 69 68  1  0
 70 71  1  0
 70 69  1  0
 71 67  1  0
 72 73  2  0
 73 74  1  0
 75 74  2  0
 76 75  1  0
 77 51  1  0
 77 78  1  0
 77 87  1  0
 78 81  1  0
 79 83  1  0
 79 78  1  0
 80 79  2  0
 83 82  1  0
 85 83  1  0
 85 86  1  0
 85 84  1  0
 87 90  1  1
 87 88  1  0
 89 87  1  0
M  ISO  4   3 100  15 100  49 101  50 101
M  END
>  <TORSDO>  (55) 
F 18

>  <SCORE>  (55) 
-14.525

>  <name>  (55) 
54

>  <ligand_id>  (55) 
54

>  <original_smiles>  (55) 
[H]c1c([H])c([H])c2c(c1[H])C([H])([H])C([H])([H])C([H])([H])C2([H])N([H])C(=O)C1([H])N(C(=O)C([H])(N([H])C(=O)C([H])(N([H])C([H])([H])[H])C([H])([H])[H])C(C([H])([H])[H])(C([H])([H])[H])C([H])([H])[H])C([H])([H])c2c([H])c(OC([H])([H])C([H])([H])C([H])(N([H])c3nc(N([H])C(=O)N4C([H])([H])C([H])([H])C([H])([H])C([H])(n5nc(-c6c([H])c([H])c(Oc7c([H])c([H])c(F)c([H])c7F)c([H])c6[H])c(C(=O)N([H])[H])c5N([H])[H])C4([H])[H])ns3)C([H])([H])[H])c([H])c([H])c2C1([H])[H]

>  <smiles>  (55) 
[H]c1c([H])c([H])c2c(c1[H])C([H])([H])C([H])([H])C([H])([H])C2([H])N([H])C(=O)C1([H])N(C(=O)C([H])(N([H])C(=O)C([H])(N([H])C([H])([H])[H])C([H])([H])[H])C(C([H])([H])[H])(C([H])([H])[H])C([H])([H])[H])C([H])([H])c2c([H])c(OC([H])([H])C([H])([H])C([H])(N([H])c3nc(N([H])C(=O)N4C([H])([H])C([H])([H])C([H])([H])C([H])(n5nc(-c6c([H])c([H])c(Oc7c([H])c([H])c(F)c([H])c7F)c([H])c6[H])c(C(=O)N([H])[H])c5N([H])[H])C4([H])[H])ns3)C([H])([H])[H])c([H])c([H])c2C1([H])[H]

$$$$
55:0:0
     RDKit          3D

 91 99  0  0  1  0  0  0  0  0999 V2000
  -28.9000  -21.3510   19.8940 N   0  0  0  0  0  0  0  0  0  0  0  0
  -28.3510  -21.5440   19.0580 H   0  0  0  0  0  0  0  0  0  0  0  0
  -30.5690  -14.6640   20.1160 C   0  0  0  0  0  0  0  0  0  0  0  0
  -30.3640  -12.4440   19.0020 C   0  0  0  0  0  2  0  0  0  0  0  0
  -29.3670  -12.6120   17.8310 C   0  0  0  0  0  2  0  0  0  0  0  0
  -27.9110  -12.4360   18.3170 C   0  0  0  0  0  2  0  0  0  0  0  0
  -27.6070  -13.2600   19.5960 C   0  0  0  0  0  3  0  0  0  0  0  0
  -28.7090  -13.0490   20.6600 C   0  0  0  0  0  2  0  0  0  0  0  0
  -29.9930  -13.4210   20.0450 N   0  0  0  0  0  0  0  0  0  0  0  0
  -31.7110  -14.8630   19.6800 O   0  0  0  0  0  0  0  0  0  0  0  0
  -28.7410  -19.0210   19.1370 C   0  0  0  0  0  3  0  0  0  0  0  0
  -28.9810  -17.6260   19.2650 C   0  0  0  0  0  3  0  0  0  0  0  0
  -29.8860  -19.3410   21.1930 C   0  0  0  0  0  3  0  0  0  0  0  0
  -29.1900  -19.9530   20.1090 C   0  0  0  0  0  0  0  0  0  0  0  0
  -29.7120  -17.1070   20.3590 C   0  0  0  0  0  0  0  0  0  0  0  0
  -30.1340  -17.9940   21.3060 N   0  0  0  0  0  0  0  0  0  0  0  0
  -29.7370  -15.6620   20.5580 N   0  0  0  0  0  0  0  0  0  0  0  0
  -28.8580  -15.2900   20.8810 H   0  0  0  0  0  0  0  0  0  0  0  0
  -25.2460  -13.8550   20.4230 C   0  0  0  0  0  0  0  0  0  0  0  0
  -24.1950  -13.0780   20.8300 C   0  0  0  0  0  0  0  0  0  0  0  0
  -24.6550  -11.7280   20.7610 C   0  0  0  0  0  0  0  0  0  0  0  0
  -26.2780  -12.9750   20.1300 N   0  0  0  0  0  0  0  0  0  0  0  0
  -25.9300  -11.6920   20.3950 N   0  0  0  0  0  0  0  0  0  0  0  0
  -23.9390  -10.4630   20.9660 C   0  0  0  0  0  0  0  0  0  0  0  0
  -24.3930   -9.4970   21.8910 C   0  0  0  0  0  3  0  0  0  0  0  0
  -23.6780   -8.2960   22.0830 C   0  0  0  0  0  3  0  0  0  0  0  0
  -22.4920   -8.0530   21.3500 C   0  0  0  0  0  0  0  0  0  0  0  0
  -22.0560   -9.0070   20.4150 C   0  0  0  0  0  3  0  0  0  0  0  0
  -22.7720  -10.2000   20.2210 C   0  0  0  0  0  3  0  0  0  0  0  0
  -21.7440   -6.9050   21.4520 O   0  0  0  0  0  0  0  0  0  0  0  0
  -21.6970   -6.1770   22.6140 C   0  0  0  0  0  0  0  0  0  0  0  0
  -21.2370   -6.7360   23.8260 C   0  0  0  0  0  3  0  0  0  0  0  0
  -21.1400   -5.9320   24.9790 C   0  0  0  0  0  3  0  0  0  0  0  0
  -21.4960   -4.5700   24.9190 C   0  0  0  0  0  0  0  0  0  0  0  0
  -21.9480   -4.0120   23.7110 C   0  0  0  0  0  3  0  0  0  0  0  0
  -22.0460   -4.8130   22.5610 C   0  0  0  0  0  0  0  0  0  0  0  0
  -22.4640   -4.2660   21.3950 F   0  0  0  0  0  0  0  0  0  0  0  0
  -21.3960   -3.7950   26.0250 F   0  0  0  0  0  0  0  0  0  0  0  0
  -22.8120  -13.5530   21.1660 C   0  0  0  0  0  0  0  0  0  0  0  0
  -22.1160  -12.8440   22.0490 N   0  0  0  0  0  0  0  0  0  0  0  0
  -22.3550  -14.5870   20.6780 O   0  0  0  0  0  0  0  0  0  0  0  0
  -22.4980  -12.0090   22.4680 H   0  0  0  0  0  0  0  0  0  0  0  0
  -21.1880  -13.1450   22.3110 H   0  0  0  0  0  0  0  0  0  0  0  0
  -25.4040  -15.2270   20.2560 N   0  0  0  0  0  0  0  0  0  0  0  0
  -24.6340  -15.8720   20.3950 H   0  0  0  0  0  0  0  0  0  0  0  0
  -26.2190  -15.6690   19.8490 H   0  0  0  0  0  0  0  0  0  0  0  0
  -30.4920  -22.7290   21.2460 C   0  0  0  0  0  1  0  0  0  0  0  0
  -29.0350  -22.5460   20.7840 C   0  0  0  0  0  3  0  0  0  0  0  0
  -28.5520  -23.9050   20.0810 C   0  0  0  0  0  2  0  0  0  0  0  0
  -28.3760  -25.2290   20.9520 C   0  0  0  0  0  2  0  0  0  0  0  0
  -28.4530  -26.5470   20.3000 O   0  0  0  0  0  0  0  0  0  0  0  0
  -24.6040  -31.8790   23.2470 C   0  0  0  0  0  0  0  0  0  0  0  0
  -27.3140  -27.3480   20.2860 C   0  0  0  0  0  0  0  0  0  0  0  0
  -23.4410  -30.4580   21.5930 C   0  0  0  0  0  3  0  0  0  0  0  0
  -24.9300  -28.9050   20.2120 C   0  0  0  0  0  0  0  0  0  0  0  0
  -25.9730  -30.8100   21.4430 C   0  0  0  0  0  2  0  0  0  0  0  0
  -26.0800  -29.4260   20.8190 C   0  0  0  0  0  0  0  0  0  0  0  0
  -27.2790  -28.6600   20.8420 C   0  0  0  0  0  3  0  0  0  0  0  0
  -26.1460  -26.8600   19.6660 C   0  0  0  0  0  3  0  0  0  0  0  0
  -24.9630  -27.6260   19.6230 C   0  0  0  0  0  3  0  0  0  0  0  0
  -23.6850  -29.7670   20.2240 C   0  0  0  0  0  2  0  0  0  0  0  0
  -24.6910  -31.0660   22.1540 N   0  0  0  0  0  0  0  0  0  0  0  0
  -23.5100  -32.1480   23.7640 O   0  0  0  0  0  0  0  0  0  0  0  0
  -22.7700  -29.4440   22.5500 C   0  0  0  0  0  0  0  0  0  0  0  0
  -21.4450  -29.2690   22.4170 N   0  0  0  0  0  0  0  0  0  0  0  0
  -23.4430  -28.8170   23.3740 O   0  0  0  0  0  0  0  0  0  0  0  0
  -20.9620  -29.8300   21.7280 H   0  0  0  0  0  0  0  0  0  0  0  0
  -18.0560  -28.1090   22.9190 C   0  0  0  0  0  0  0  0  0  0  0  0
  -20.6180  -28.3320   23.1800 C   0  0  0  0  0  3  0  0  0  0  0  0
  -20.6990  -26.9070   22.5870 C   0  0  0  0  0  2  0  0  0  0  0  0
  -19.5890  -26.6080   21.5750 C   0  0  0  0  0  2  0  0  0  0  0  0
  -18.2120  -26.7650   22.2270 C   0  0  0  0  0  2  0  0  0  0  0  0
  -19.1870  -28.8520   23.3520 C   0  0  0  0  0  0  0  0  0  0  0  0
  -18.9850  -30.1100   23.9600 C   0  0  0  0  0  3  0  0  0  0  0  0
  -17.6890  -30.6280   24.1360 C   0  0  0  0  0  3  0  0  0  0  0  0
  -16.5730  -29.8810   23.7170 C   0  0  0  0  0  3  0  0  0  0  0  0
  -16.7580  -28.6230   23.1160 C   0  0  0  0  0  3  0  0  0  0  0  0
  -25.8720  -32.5250   23.8890 C   0  0  0  0  0  3  0  0  0  0  0  0
  -26.3650  -31.7710   25.1840 C   0  0  1  0  0  0  0  0  0  0  0  0
  -25.2530  -31.5360   26.2330 C   0  0  0  0  0  1  0  0  0  0  0  0
  -26.9620  -30.3930   24.8140 C   0  0  0  0  0  1  0  0  0  0  0  0
  -27.4960  -32.5780   25.8620 C   0  0  0  0  0  1  0  0  0  0  0  0
  -25.5490  -33.9240   24.2000 N   0  0  0  0  0  0  0  0  0  0  0  0
  -25.8890  -34.9710   23.4360 C   0  0  0  0  0  0  0  0  0  0  0  0
  -26.5780  -34.8590   22.4170 O   0  0  0  0  0  0  0  0  0  0  0  0
  -24.9430  -34.0840   24.9920 H   0  0  0  0  0  0  0  0  0  0  0  0
  -24.1680  -36.7570   23.0220 C   0  0  0  0  0  1  0  0  0  0  0  0
  -25.3880  -36.3620   23.8700 C   0  0  0  0  0  3  0  0  0  0  0  0
  -27.4970  -37.2620   24.7500 C   0  0  0  0  0  1  0  0  0  0  0  0
  -26.4210  -37.4170   23.7750 N   0  0  0  0  0  0  0  0  0  0  0  0
  -26.0100  -38.3380   23.9000 H   0  0  0  0  0  0  0  0  0  0  0  0
  1 14  1  0
  1 48  1  0
  2  1  1  0
  3 17  1  0
  4  9  1  0
  5  6  1  0
  5  4  1  0
  7  6  1  0
  7 22  1  0
  7  8  1  0
  9  3  1  0
  9  8  1  0
 10  3  2  0
 11 12  2  0
 11 14  1  0
 12 15  1  0
 13 16  1  0
 14 13  2  0
 15 17  1  0
 15 16  2  0
 17 18  1  0
 19 20  2  0
 20 39  1  0
 21 20  1  0
 21 24  1  0
 22 23  1  0
 22 19  1  0
 23 21  2  0
 24 25  1  0
 25 26  2  0
 27 30  1  0
 27 26  1  0
 28 27  2  0
 29 28  1  0
 29 24  2  0
 30 31  1  0
 31 32  1  0
 32 33  2  0
 34 33  1  0
 34 38  1  0
 35 34  2  0
 36 31  2  0
 36 35  1  0
 37 36  1  0
 39 40  1  0
 40 43  1  0
 40 42  1  0
 41 39  2  0
 44 45  1  0
 44 19  1  0
 46 44  1  0
 48 47  1  0
 49 48  1  0
 49 50  1  0
 51 50  1  0
 52 63  2  0
 53 51  1  0
 53 58  1  0
 54 62  1  0
 54 64  1  0
 55 61  1  0
 55 57  1  0
 56 62  1  0
 57 58  2  0
 57 56  1  0
 59 53  2  0
 60 59  1  0
 60 55  2  0
 61 54  1  0
 62 52  1  0
 64 66  2  0
 65 64  1  0
 67 65  1  0
 68 77  2  0
 68 73  1  0
 69 65  1  0
 69 73  1  0
 70 69  1  0
 71 72  1  0
 71 70  1  0
 72 68  1  0
 73 74  2  0
 74 75  1  0
 76 75  2  0
 77 76  1  0
 78 52  1  0
 78 83  1  0
 78 79  1  0
 79 82  1  1
 79 80  1  0
 81 79  1  0
 83 86  1  0
 84 88  1  0
 84 83  1  0
 85 84  2  0
 88 87  1  0
 90 88  1  0
 90 91  1  0
 90 89  1  0
M  ISO  4   3 100  17 100  50 101  51 101
M  END
>  <TORSDO>  (56) 
F 19

>  <SCORE>  (56) 
-14.230

>  <name>  (56) 
55

>  <ligand_id>  (56) 
55

>  <original_smiles>  (56) 
[H]c1nc(N([H])C(=O)N2C([H])([H])C([H])([H])C([H])([H])C([H])(n3nc(-c4c([H])c([H])c(Oc5c([H])c([H])c(F)c([H])c5F)c([H])c4[H])c(C(=O)N([H])[H])c3N([H])[H])C2([H])[H])c([H])c([H])c1N([H])C([H])(C([H])([H])[H])C([H])([H])C([H])([H])Oc1c([H])c([H])c2c(c1[H])C([H])([H])N(C(=O)C([H])(N([H])C(=O)C([H])(N([H])C([H])([H])[H])C([H])([H])[H])C(C([H])([H])[H])(C([H])([H])[H])C([H])([H])[H])C([H])(C(=O)N([H])C1([H])c3c([H])c([H])c([H])c([H])c3C([H])([H])C([H])([H])C1([H])[H])C2([H])[H]

>  <smiles>  (56) 
[H]c1nc(N([H])C(=O)N2C([H])([H])C([H])([H])C([H])([H])C([H])(n3nc(-c4c([H])c([H])c(Oc5c([H])c([H])c(F)c([H])c5F)c([H])c4[H])c(C(=O)N([H])[H])c3N([H])[H])C2([H])[H])c([H])c([H])c1N([H])C([H])(C([H])([H])[H])C([H])([H])C([H])([H])Oc1c([H])c([H])c2c(c1[H])C([H])([H])N(C(=O)C([H])(N([H])C(=O)C([H])(N([H])C([H])([H])[H])C([H])([H])[H])C(C([H])([H])[H])(C([H])([H])[H])C([H])([H])[H])C([H])(C(=O)N([H])C1([H])c3c([H])c([H])c([H])c([H])c3C([H])([H])C([H])([H])C1([H])[H])C2([H])[H]

$$$$
56:0:0
     RDKit          3D

 92100  0  0  1  0  0  0  0  0999 V2000
  -29.7700  -21.2170   20.0760 C   0  0  0  0  0  0  0  0  0  0  0  0
  -28.8940  -22.2240   20.1700 N   0  0  0  0  0  2  0  0  0  0  0  0
  -31.1330  -21.3590   19.9480 N   0  0  0  0  0  4  0  0  0  0  0  0
  -31.7520  -20.5580   19.8900 H   0  0  0  0  0  0  0  0  0  0  0  0
  -31.6430  -22.2300   19.9080 H   0  0  0  0  0  0  0  0  0  0  0  0
  -28.0590  -17.5630   20.3550 C   0  0  0  0  0  3  0  0  0  0  0  0
  -29.4060  -17.2880   20.3320 C   0  0  0  0  0  0  0  0  0  0  0  0
  -29.3610  -19.7030   20.1440 C   0  0  0  0  0  0  0  0  0  0  0  0
  -30.1400  -18.5410   20.2120 N   0  0  0  0  0  0  0  0  0  0  0  0
  -27.6570  -19.2640   20.2030 S   0  0  0  0  0  0  0  0  0  0  0  0
  -30.5910  -14.8210   20.0620 C   0  0  0  0  0  0  0  0  0  0  0  0
  -30.4780  -12.4800   19.1360 C   0  0  0  0  0  2  0  0  0  0  0  0
  -29.4900  -12.4750   17.9430 C   0  0  0  0  0  2  0  0  0  0  0  0
  -28.0340  -12.3000   18.4210 C   0  0  0  0  0  2  0  0  0  0  0  0
  -27.6850  -13.2290   19.6120 C   0  0  0  0  0  3  0  0  0  0  0  0
  -28.7770  -13.1600   20.7040 C   0  0  0  0  0  2  0  0  0  0  0  0
  -30.0540  -13.5450   20.0760 N   0  0  0  0  0  0  0  0  0  0  0  0
  -31.7330  -15.0010   19.6240 O   0  0  0  0  0  0  0  0  0  0  0  0
  -29.7190  -15.8270   20.4700 N   0  0  0  0  0  0  0  0  0  0  0  0
  -28.9380  -15.3500   20.8890 H   0  0  0  0  0  0  0  0  0  0  0  0
  -25.3400  -13.8610   20.4440 C   0  0  0  0  0  0  0  0  0  0  0  0
  -24.2730  -13.1040   20.8450 C   0  0  0  0  0  0  0  0  0  0  0  0
  -24.7020  -11.7450   20.7640 C   0  0  0  0  0  0  0  0  0  0  0  0
  -26.3520  -12.9620   20.1450 N   0  0  0  0  0  0  0  0  0  0  0  0
  -25.9760  -11.6830   20.3980 N   0  0  0  0  0  0  0  0  0  0  0  0
  -23.9530  -10.4960   20.9560 C   0  0  0  0  0  0  0  0  0  0  0  0
  -24.3700   -9.5210   21.8900 C   0  0  0  0  0  3  0  0  0  0  0  0
  -23.6250   -8.3360   22.0700 C   0  0  0  0  0  3  0  0  0  0  0  0
  -22.4470   -8.1170   21.3170 C   0  0  0  0  0  0  0  0  0  0  0  0
  -22.0500   -9.0800   20.3720 C   0  0  0  0  0  3  0  0  0  0  0  0
  -22.7960  -10.2560   20.1900 C   0  0  0  0  0  3  0  0  0  0  0  0
  -21.6730   -6.9850   21.4060 O   0  0  0  0  0  0  0  0  0  0  0  0
  -21.5640   -6.2800   22.5770 C   0  0  0  0  0  0  0  0  0  0  0  0
  -21.0720   -6.8720   23.7610 C   0  0  0  0  0  3  0  0  0  0  0  0
  -20.9100   -6.0920   24.9230 C   0  0  0  0  0  3  0  0  0  0  0  0
  -21.2300   -4.7210   24.9020 C   0  0  0  0  0  0  0  0  0  0  0  0
  -21.7160   -4.1290   23.7230 C   0  0  0  0  0  3  0  0  0  0  0  0
  -21.8790   -4.9060   22.5630 C   0  0  0  0  0  0  0  0  0  0  0  0
  -22.3270   -4.3250   21.4240 F   0  0  0  0  0  0  0  0  0  0  0  0
  -21.0680   -3.9700   26.0170 F   0  0  0  0  0  0  0  0  0  0  0  0
  -22.8990  -13.6080   21.1840 C   0  0  0  0  0  0  0  0  0  0  0  0
  -22.1940  -12.9150   22.0700 N   0  0  0  0  0  0  0  0  0  0  0  0
  -22.4620  -14.6500   20.6970 O   0  0  0  0  0  0  0  0  0  0  0  0
  -22.5610  -12.0720   22.4860 H   0  0  0  0  0  0  0  0  0  0  0  0
  -21.2730  -13.2340   22.3380 H   0  0  0  0  0  0  0  0  0  0  0  0
  -25.5260  -15.2300   20.2830 N   0  0  0  0  0  0  0  0  0  0  0  0
  -24.7540  -15.8770   20.3980 H   0  0  0  0  0  0  0  0  0  0  0  0
  -26.3060  -15.6340   19.7780 H   0  0  0  0  0  0  0  0  0  0  0  0
  -29.8760  -23.9870   21.6470 C   0  0  0  0  0  1  0  0  0  0  0  0
  -29.2910  -23.7200   20.2500 C   0  0  0  0  0  3  0  0  0  0  0  0
  -28.1430  -24.8580   19.9620 C   0  0  0  0  0  2  0  0  0  0  0  0
  -28.3680  -26.3540   20.1470 O   0  0  0  0  0  0  0  0  0  0  0  0
  -24.6250  -31.8060   23.2510 C   0  0  0  0  0  0  0  0  0  0  0  0
  -27.2660  -27.2590   20.1120 C   0  0  0  0  0  0  0  0  0  0  0  0
  -23.4400  -30.4430   21.5700 C   0  0  0  0  0  3  0  0  0  0  0  0
  -24.9060  -28.9220   20.1190 C   0  0  0  0  0  0  0  0  0  0  0  0
  -25.9870  -30.7510   21.4200 C   0  0  0  0  0  2  0  0  0  0  0  0
  -26.0750  -29.3830   20.7370 C   0  0  0  0  0  0  0  0  0  0  0  0
  -27.2580  -28.5680   20.7170 C   0  0  0  0  0  3  0  0  0  0  0  0
  -26.0680  -26.8730   19.4700 C   0  0  0  0  0  3  0  0  0  0  0  0
  -24.9090  -27.6760   19.4740 C   0  0  0  0  0  3  0  0  0  0  0  0
  -23.6700  -29.8000   20.1780 C   0  0  0  0  0  2  0  0  0  0  0  0
  -24.7030  -31.0170   22.1370 N   0  0  0  0  0  0  0  0  0  0  0  0
  -23.5350  -32.0700   23.7810 O   0  0  0  0  0  0  0  0  0  0  0  0
  -22.7660  -29.4060   22.5020 C   0  0  0  0  0  0  0  0  0  0  0  0
  -21.4400  -29.2330   22.3660 N   0  0  0  0  0  0  0  0  0  0  0  0
  -23.4390  -28.7600   23.3120 O   0  0  0  0  0  0  0  0  0  0  0  0
  -20.9560  -29.8070   21.6880 H   0  0  0  0  0  0  0  0  0  0  0  0
  -18.0550  -28.0470   22.8500 C   0  0  0  0  0  0  0  0  0  0  0  0
  -20.6170  -28.2770   23.1080 C   0  0  0  0  0  3  0  0  0  0  0  0
  -20.7020  -26.8650   22.4830 C   0  0  0  0  0  2  0  0  0  0  0  0
  -19.5910  -26.5870   21.4660 C   0  0  0  0  0  2  0  0  0  0  0  0
  -18.2150  -26.7210   22.1260 C   0  0  0  0  0  2  0  0  0  0  0  0
  -19.1830  -28.7850   23.2980 C   0  0  0  0  0  0  0  0  0  0  0  0
  -18.9780  -30.0260   23.9370 C   0  0  0  0  0  3  0  0  0  0  0  0
  -17.6790  -30.5320   24.1310 C   0  0  0  0  0  3  0  0  0  0  0  0
  -16.5650  -29.7910   23.6990 C   0  0  0  0  0  3  0  0  0  0  0  0
  -16.7540  -28.5500   23.0650 C   0  0  0  0  0  3  0  0  0  0  0  0
  -25.8980  -32.4300   23.8990 C   0  0  0  0  0  3  0  0  0  0  0  0
  -26.3740  -31.6630   25.1940 C   0  0  1  0  0  0  0  0  0  0  0  0
  -25.2510  -31.4420   26.2350 C   0  0  0  0  0  1  0  0  0  0  0  0
  -26.9540  -30.2780   24.8280 C   0  0  0  0  0  1  0  0  0  0  0  0
  -27.5160  -32.4510   25.8790 C   0  0  0  0  0  1  0  0  0  0  0  0
  -25.5960  -33.8340   24.2150 N   0  0  0  0  0  0  0  0  0  0  0  0
  -25.9290  -34.8790   23.4460 C   0  0  0  0  0  0  0  0  0  0  0  0
  -26.5910  -34.7620   22.4120 O   0  0  0  0  0  0  0  0  0  0  0  0
  -25.0060  -33.9990   25.0180 H   0  0  0  0  0  0  0  0  0  0  0  0
  -24.1980  -36.6720   23.0990 C   0  0  0  0  0  1  0  0  0  0  0  0
  -25.4520  -36.2750   23.8940 C   0  0  0  0  0  3  0  0  0  0  0  0
  -27.5980  -37.1710   24.6820 C   0  0  0  0  0  1  0  0  0  0  0  0
  -26.4850  -37.3240   23.7490 N   0  0  0  0  0  0  0  0  0  0  0  0
  -26.0820  -38.2470   23.8840 H   0  0  0  0  0  0  0  0  0  0  0  0
  1  8  1  0
  1  2  1  0
  2 50  1  0
  3  1  2  0
  4  3  1  0
  5  3  1  0
  7  6  2  0
  7 19  1  0
  8 10  1  0
  8  9  2  0
  9  7  1  0
 10  6  1  0
 11 17  1  0
 11 19  1  0
 12 17  1  0
 13 14  1  0
 13 12  1  0
 15 14  1  0
 15 24  1  0
 15 16  1  0
 17 16  1  0
 18 11  2  0
 19 20  1  0
 21 22  2  0
 22 41  1  0
 23 22  1  0
 23 26  1  0
 24 25  1  0
 24 21  1  0
 25 23  2  0
 26 27  1  0
 27 28  2  0
 29 32  1  0
 29 28  1  0
 30 29  2  0
 31 30  1  0
 31 26  2  0
 32 33  1  0
 33 34  1  0
 34 35  2  0
 36 35  1  0
 36 40  1  0
 37 36  2  0
 38 33  2  0
 38 37  1  0
 39 38  1  0
 41 42  1  0
 42 45  1  0
 42 44  1  0
 43 41  2  0
 46 47  1  0
 46 21  1  0
 48 46  1  0
 50 49  1  0
 51 52  1  0
 51 50  1  0
 53 64  2  0
 54 52  1  0
 54 59  1  0
 55 63  1  0
 55 65  1  0
 56 62  1  0
 56 58  1  0
 57 63  1  0
 58 57  1  0
 59 58  2  0
 60 61  1  0
 60 54  2  0
 61 56  2  0
 62 55  1  0
 63 53  1  0
 65 67  2  0
 66 65  1  0
 68 66  1  0
 69 78  2  0
 69 74  1  0
 70 66  1  0
 70 74  1  0
 71 70  1  0
 72 73  1  0
 72 71  1  0
 73 69  1  0
 74 75  2  0
 75 76  1  0
 77 76  2  0
 78 77  1  0
 79 53  1  0
 79 84  1  0
 79 80  1  0
 80 83  1  1
 80 81  1  0
 82 80  1  0
 84 87  1  0
 85 89  1  0
 85 84  1  0
 86 85  2  0
 89 88  1  0
 91 92  1  0
 91 89  1  0
 91 90  1  0
M  ISO  4  11 100  19 100  51 101  52 101
M  END
>  <TORSDO>  (57) 
F 19

>  <SCORE>  (57) 
-14.026

>  <name>  (57) 
56

>  <ligand_id>  (57) 
56

>  <original_smiles>  (57) 
[H]c1sc(C(=NC([H])(C([H])([H])[H])C([H])([H])Oc2c([H])c([H])c3c(c2[H])C([H])([H])N(C(=O)C([H])(N([H])C(=O)C([H])(N([H])C([H])([H])[H])C([H])([H])[H])C(C([H])([H])[H])(C([H])([H])[H])C([H])([H])[H])C([H])(C(=O)N([H])C2([H])c4c([H])c([H])c([H])c([H])c4C([H])([H])C([H])([H])C2([H])[H])C3([H])[H])N([H])[H])nc1N([H])C(=O)N1C([H])([H])C([H])([H])C([H])([H])C([H])(n2nc(-c3c([H])c([H])c(Oc4c([H])c([H])c(F)c([H])c4F)c([H])c3[H])c(C(=O)N([H])[H])c2N([H])[H])C1([H])[H]

>  <smiles>  (57) 
[H]c1sc(C(=NC([H])(C([H])([H])[H])C([H])([H])Oc2c([H])c([H])c3c(c2[H])C([H])([H])N(C(=O)C([H])(N([H])C(=O)C([H])(N([H])C([H])([H])[H])C([H])([H])[H])C(C([H])([H])[H])(C([H])([H])[H])C([H])([H])[H])C([H])(C(=O)N([H])C2([H])c4c([H])c([H])c([H])c([H])c4C([H])([H])C([H])([H])C2([H])[H])C3([H])[H])N([H])[H])nc1N([H])C(=O)N1C([H])([H])C([H])([H])C([H])([H])C([H])(n2nc(-c3c([H])c([H])c(Oc4c([H])c([H])c(F)c([H])c4F)c([H])c3[H])c(C(=O)N([H])[H])c2N([H])[H])C1([H])[H]

$$$$
57:0:0
     RDKit          3D

 93101  0  0  1  0  0  0  0  0999 V2000
  -30.4360  -22.7650   21.3180 C   0  0  0  0  0  1  0  0  0  0  0  0
  -29.0630  -22.5630   20.6500 C   0  0  0  0  0  3  0  0  0  0  0  0
  -29.0860  -21.3630   19.7450 N   0  0  0  0  0  0  0  0  0  0  0  0
  -28.6970  -21.5550   18.8280 H   0  0  0  0  0  0  0  0  0  0  0  0
  -30.5990  -14.6850   20.1350 C   0  0  0  0  0  0  0  0  0  0  0  0
  -30.3750  -12.4690   19.0260 C   0  0  0  0  0  2  0  0  0  0  0  0
  -29.3870  -12.6380   17.8500 C   0  0  0  0  0  2  0  0  0  0  0  0
  -27.9280  -12.4740   18.3250 C   0  0  0  0  0  2  0  0  0  0  0  0
  -27.6210  -13.3000   19.6030 C   0  0  0  0  0  3  0  0  0  0  0  0
  -28.7170  -13.0910   20.6730 C   0  0  0  0  0  2  0  0  0  0  0  0
  -30.0060  -13.4500   20.0650 N   0  0  0  0  0  0  0  0  0  0  0  0
  -31.7290  -14.8750   19.6690 O   0  0  0  0  0  0  0  0  0  0  0  0
  -28.9220  -19.0060   19.0490 C   0  0  0  0  0  3  0  0  0  0  0  0
  -29.1390  -17.6120   19.2340 C   0  0  0  0  0  3  0  0  0  0  0  0
  -29.9310  -19.3820   21.1650 C   0  0  0  0  0  3  0  0  0  0  0  0
  -29.3210  -19.9650   20.0190 C   0  0  0  0  0  0  0  0  0  0  0  0
  -29.7880  -17.1250   20.3930 C   0  0  0  0  0  0  0  0  0  0  0  0
  -30.1490  -18.0370   21.3400 N   0  0  0  0  0  0  0  0  0  0  0  0
  -29.8170  -15.6910   20.6400 N   0  0  0  0  0  0  0  0  0  0  0  0
  -28.9810  -15.3390   21.0780 H   0  0  0  0  0  0  0  0  0  0  0  0
  -25.2530  -13.9000   20.4020 C   0  0  0  0  0  0  0  0  0  0  0  0
  -24.1990  -13.1240   20.8040 C   0  0  0  0  0  0  0  0  0  0  0  0
  -24.6590  -11.7730   20.7520 C   0  0  0  0  0  0  0  0  0  0  0  0
  -26.2880  -13.0190   20.1290 N   0  0  0  0  0  0  0  0  0  0  0  0
  -25.9370  -11.7350   20.3970 N   0  0  0  0  0  0  0  0  0  0  0  0
  -23.9390  -10.5100   20.9600 C   0  0  0  0  0  0  0  0  0  0  0  0
  -24.3950   -9.5450   21.8850 C   0  0  0  0  0  3  0  0  0  0  0  0
  -23.6750   -8.3470   22.0830 C   0  0  0  0  0  3  0  0  0  0  0  0
  -22.4870   -8.1050   21.3550 C   0  0  0  0  0  0  0  0  0  0  0  0
  -22.0490   -9.0600   20.4200 C   0  0  0  0  0  3  0  0  0  0  0  0
  -22.7680  -10.2490   20.2210 C   0  0  0  0  0  3  0  0  0  0  0  0
  -21.7360   -6.9590   21.4620 O   0  0  0  0  0  0  0  0  0  0  0  0
  -21.7040   -6.2270   22.6210 C   0  0  0  0  0  0  0  0  0  0  0  0
  -21.2890   -6.7890   23.8490 C   0  0  0  0  0  3  0  0  0  0  0  0
  -21.2040   -5.9810   25.0000 C   0  0  0  0  0  3  0  0  0  0  0  0
  -21.5240   -4.6110   24.9240 C   0  0  0  0  0  0  0  0  0  0  0  0
  -21.9310   -4.0490   23.7010 C   0  0  0  0  0  3  0  0  0  0  0  0
  -22.0160   -4.8550   22.5530 C   0  0  0  0  0  0  0  0  0  0  0  0
  -22.3890   -4.3030   21.3730 F   0  0  0  0  0  0  0  0  0  0  0  0
  -21.4340   -3.8320   26.0270 F   0  0  0  0  0  0  0  0  0  0  0  0
  -22.8120  -13.6020   21.1250 C   0  0  0  0  0  0  0  0  0  0  0  0
  -22.1130  -12.9020   22.0120 N   0  0  0  0  0  0  0  0  0  0  0  0
  -22.3570  -14.6290   20.6220 O   0  0  0  0  0  0  0  0  0  0  0  0
  -22.4940  -12.0740   22.4440 H   0  0  0  0  0  0  0  0  0  0  0  0
  -21.1820  -13.2040   22.2660 H   0  0  0  0  0  0  0  0  0  0  0  0
  -25.4090  -15.2710   20.2230 N   0  0  0  0  0  0  0  0  0  0  0  0
  -24.6380  -15.9160   20.3500 H   0  0  0  0  0  0  0  0  0  0  0  0
  -26.2320  -15.7130   19.8330 H   0  0  0  0  0  0  0  0  0  0  0  0
  -28.6380  -23.9340   19.9130 C   0  0  0  0  0  3  0  0  0  0  0  0
  -27.4840  -23.6400   19.1400 O   0  0  0  0  0  0  0  0  0  0  0  0
  -27.7780  -23.3170   18.2960 H   0  0  0  0  0  0  0  0  0  0  0  0
  -28.2800  -25.2210   20.7950 C   0  0  0  0  0  2  0  0  0  0  0  0
  -28.4140  -26.5700   20.2100 O   0  0  0  0  0  0  0  0  0  0  0  0
  -24.6320  -31.9030   23.2350 C   0  0  0  0  0  0  0  0  0  0  0  0
  -27.2800  -27.3860   20.1980 C   0  0  0  0  0  0  0  0  0  0  0  0
  -23.4370  -30.4960   21.5900 C   0  0  0  0  0  3  0  0  0  0  0  0
  -24.9010  -28.9540   20.1710 C   0  0  0  0  0  0  0  0  0  0  0  0
  -25.9690  -30.8440   21.4050 C   0  0  0  0  0  2  0  0  0  0  0  0
  -26.0620  -29.4650   20.7650 C   0  0  0  0  0  0  0  0  0  0  0  0
  -27.2580  -28.6910   20.7680 C   0  0  0  0  0  3  0  0  0  0  0  0
  -26.1020  -26.9130   19.5860 C   0  0  0  0  0  3  0  0  0  0  0  0
  -24.9200  -27.6820   19.5720 C   0  0  0  0  0  3  0  0  0  0  0  0
  -23.6570  -29.8160   20.2120 C   0  0  0  0  0  2  0  0  0  0  0  0
  -24.6980  -31.0970   22.1360 N   0  0  0  0  0  0  0  0  0  0  0  0
  -23.5470  -32.1730   23.7700 O   0  0  0  0  0  0  0  0  0  0  0  0
  -22.7810  -29.4770   22.5520 C   0  0  0  0  0  0  0  0  0  0  0  0
  -21.4570  -29.2890   22.4210 N   0  0  0  0  0  0  0  0  0  0  0  0
  -23.4630  -28.8570   23.3730 O   0  0  0  0  0  0  0  0  0  0  0  0
  -20.9660  -29.8390   21.7300 H   0  0  0  0  0  0  0  0  0  0  0  0
  -18.0880  -28.0710   22.9070 C   0  0  0  0  0  0  0  0  0  0  0  0
  -20.6440  -28.3460   23.1890 C   0  0  0  0  0  3  0  0  0  0  0  0
  -20.7580  -26.9150   22.6150 C   0  0  0  0  0  2  0  0  0  0  0  0
  -19.6620  -26.5840   21.5970 C   0  0  0  0  0  2  0  0  0  0  0  0
  -18.2770  -26.7210   22.2340 C   0  0  0  0  0  2  0  0  0  0  0  0
  -19.2000  -28.8400   23.3410 C   0  0  0  0  0  0  0  0  0  0  0  0
  -18.9690  -30.1020   23.9300 C   0  0  0  0  0  3  0  0  0  0  0  0
  -17.6600  -30.5950   24.0890 C   0  0  0  0  0  3  0  0  0  0  0  0
  -16.5640  -29.8230   23.6720 C   0  0  0  0  0  3  0  0  0  0  0  0
  -16.7780  -28.5610   23.0860 C   0  0  0  0  0  3  0  0  0  0  0  0
  -25.9100  -32.5420   23.8590 C   0  0  0  0  0  3  0  0  0  0  0  0
  -26.4280  -31.7750   25.1370 C   0  0  1  0  0  0  0  0  0  0  0  0
  -25.3330  -31.5340   26.2030 C   0  0  0  0  0  1  0  0  0  0  0  0
  -27.0170  -30.4000   24.7470 C   0  0  0  0  0  1  0  0  0  0  0  0
  -27.5760  -32.5740   25.7990 C   0  0  0  0  0  1  0  0  0  0  0  0
  -25.5960  -33.9400   24.1870 N   0  0  0  0  0  0  0  0  0  0  0  0
  -25.9300  -34.9920   23.4270 C   0  0  0  0  0  0  0  0  0  0  0  0
  -26.6020  -34.8890   22.3980 O   0  0  0  0  0  0  0  0  0  0  0  0
  -25.0020  -34.0930   24.9880 H   0  0  0  0  0  0  0  0  0  0  0  0
  -24.2000  -36.7780   23.0630 C   0  0  0  0  0  1  0  0  0  0  0  0
  -25.4380  -36.3790   23.8820 C   0  0  0  0  0  3  0  0  0  0  0  0
  -27.5660  -37.2690   24.7220 C   0  0  0  0  0  1  0  0  0  0  0  0
  -26.4690  -37.4340   23.7730 N   0  0  0  0  0  0  0  0  0  0  0  0
  -26.0600  -38.3540   23.9170 H   0  0  0  0  0  0  0  0  0  0  0  0
  2  1  1  0
  3 16  1  0
  3  2  1  0
  4  3  1  0
  5 19  1  0
  6 11  1  0
  7  8  1  0
  7  6  1  0
  9  8  1  0
  9 24  1  0
  9 10  1  0
 11  5  1  0
 11 10  1  0
 12  5  2  0
 13 14  2  0
 13 16  1  0
 14 17  1  0
 15 18  1  0
 16 15  2  0
 17 19  1  0
 17 18  2  0
 19 20  1  0
 21 22  2  0
 22 41  1  0
 23 22  1  0
 23 26  1  0
 24 25  1  0
 24 21  1  0
 25 23  2  0
 26 27  1  0
 27 28  2  0
 29 32  1  0
 29 28  1  0
 30 29  2  0
 31 30  1  0
 31 26  2  0
 32 33  1  0
 33 34  1  0
 34 35  2  0
 36 35  1  0
 36 40  1  0
 37 36  2  0
 38 33  2  0
 38 37  1  0
 39 38  1  0
 41 42  1  0
 42 45  1  0
 42 44  1  0
 43 41  2  0
 46 47  1  0
 46 21  1  0
 48 46  1  0
 49  2  1  0
 49 52  1  0
 50 49  1  0
 51 50  1  0
 53 52  1  0
 54 65  2  0
 55 53  1  0
 55 60  1  0
 56 64  1  0
 56 66  1  0
 57 63  1  0
 57 59  1  0
 58 64  1  0
 59 60  2  0
 59 58  1  0
 61 55  2  0
 62 61  1  0
 62 57  2  0
 63 56  1  0
 64 54  1  0
 66 68  2  0
 67 66  1  0
 69 67  1  0
 70 79  2  0
 70 75  1  0
 71 67  1  0
 71 75  1  0
 72 71  1  0
 73 74  1  0
 73 72  1  0
 74 70  1  0
 75 76  2  0
 76 77  1  0
 78 77  2  0
 79 78  1  0
 80 54  1  0
 80 85  1  0
 80 81  1  0
 81 84  1  1
 81 82  1  0
 83 81  1  0
 85 88  1  0
 86 90  1  0
 86 85  1  0
 87 86  2  0
 90 89  1  0
 92 90  1  0
 92 93  1  0
 92 91  1  0
M  ISO  4   5 100  19 100  52 101  53 101
M  END
>  <TORSDO>  (58) 
F 20

>  <SCORE>  (58) 
-14.058

>  <name>  (58) 
57

>  <ligand_id>  (58) 
57

>  <original_smiles>  (58) 
[H]OC([H])(C([H])([H])Oc1c([H])c([H])c2c(c1[H])C([H])([H])N(C(=O)C([H])(N([H])C(=O)C([H])(N([H])C([H])([H])[H])C([H])([H])[H])C(C([H])([H])[H])(C([H])([H])[H])C([H])([H])[H])C([H])(C(=O)N([H])C1([H])c3c([H])c([H])c([H])c([H])c3C([H])([H])C([H])([H])C1([H])[H])C2([H])[H])C([H])(N([H])c1c([H])nc(N([H])C(=O)N2C([H])([H])C([H])([H])C([H])([H])C([H])(n3nc(-c4c([H])c([H])c(Oc5c([H])c([H])c(F)c([H])c5F)c([H])c4[H])c(C(=O)N([H])[H])c3N([H])[H])C2([H])[H])c([H])c1[H])C([H])([H])[H]

>  <smiles>  (58) 
[H]OC([H])(C([H])([H])Oc1c([H])c([H])c2c(c1[H])C([H])([H])N(C(=O)C([H])(N([H])C(=O)C([H])(N([H])C([H])([H])[H])C([H])([H])[H])C(C([H])([H])[H])(C([H])([H])[H])C([H])([H])[H])C([H])(C(=O)N([H])C1([H])c3c([H])c([H])c([H])c([H])c3C([H])([H])C([H])([H])C1([H])[H])C2([H])[H])C([H])(N([H])c1c([H])nc(N([H])C(=O)N2C([H])([H])C([H])([H])C([H])([H])C([H])(n3nc(-c4c([H])c([H])c(Oc5c([H])c([H])c(F)c([H])c5F)c([H])c4[H])c(C(=O)N([H])[H])c3N([H])[H])C2([H])[H])c([H])c1[H])C([H])([H])[H]

$$$$
58:0:0
     RDKit          3D

 91 99  0  0  1  0  0  0  0  0999 V2000
  -28.4210  -17.9120   20.4370 C   0  0  0  0  0  3  0  0  0  0  0  0
  -30.5890  -19.4680   20.4770 C   0  0  0  0  0  3  0  0  0  0  0  0
  -29.6950  -17.2640   20.5010 C   0  0  0  0  0  0  0  0  0  0  0  0
  -29.2980  -20.0940   20.4320 C   0  0  0  0  0  0  0  0  0  0  0  0
  -30.7830  -18.0970   20.4980 N   0  0  0  0  0  0  0  0  0  0  0  0
  -28.2180  -19.2690   20.3890 N   0  0  0  0  0  0  0  0  0  0  0  0
  -29.0550  -21.5140   20.5940 N   0  0  0  0  0  0  0  0  0  0  0  0
  -29.7460  -21.8690   21.2500 H   0  0  0  0  0  0  0  0  0  0  0  0
  -30.5300  -14.7450   20.3440 C   0  0  0  0  0  0  0  0  0  0  0  0
  -30.3660  -12.4800   19.3020 C   0  0  0  0  0  2  0  0  0  0  0  0
  -29.4110  -12.5680   18.0890 C   0  0  0  0  0  2  0  0  0  0  0  0
  -27.9460  -12.3770   18.5310 C   0  0  0  0  0  2  0  0  0  0  0  0
  -27.5800  -13.2650   19.7480 C   0  0  0  0  0  3  0  0  0  0  0  0
  -28.6410  -13.1360   20.8640 C   0  0  0  0  0  2  0  0  0  0  0  0
  -29.9430  -13.5030   20.2810 N   0  0  0  0  0  0  0  0  0  0  0  0
  -31.7060  -14.9010   19.9990 O   0  0  0  0  0  0  0  0  0  0  0  0
  -29.6700  -15.7900   20.6160 N   0  0  0  0  0  0  0  0  0  0  0  0
  -28.7530  -15.4390   20.8430 H   0  0  0  0  0  0  0  0  0  0  0  0
  -25.1980  -13.8850   20.4820 C   0  0  0  0  0  0  0  0  0  0  0  0
  -24.1280  -13.1200   20.8600 C   0  0  0  0  0  0  0  0  0  0  0  0
  -24.5820  -11.7650   20.8250 C   0  0  0  0  0  0  0  0  0  0  0  0
  -26.2340  -12.9950   20.2390 N   0  0  0  0  0  0  0  0  0  0  0  0
  -25.8710  -11.7170   20.5100 N   0  0  0  0  0  0  0  0  0  0  0  0
  -23.8510  -10.5070   21.0160 C   0  0  0  0  0  0  0  0  0  0  0  0
  -24.2780   -9.5390   21.9520 C   0  0  0  0  0  3  0  0  0  0  0  0
  -23.5450   -8.3460   22.1310 C   0  0  0  0  0  3  0  0  0  0  0  0
  -22.3720   -8.1130   21.3730 C   0  0  0  0  0  0  0  0  0  0  0  0
  -21.9660   -9.0700   20.4270 C   0  0  0  0  0  3  0  0  0  0  0  0
  -22.6990  -10.2540   20.2460 C   0  0  0  0  0  3  0  0  0  0  0  0
  -21.6130   -6.9720   21.4610 O   0  0  0  0  0  0  0  0  0  0  0  0
  -21.5560   -6.2340   22.6160 C   0  0  0  0  0  0  0  0  0  0  0  0
  -21.1210   -6.7920   23.8370 C   0  0  0  0  0  3  0  0  0  0  0  0
  -21.0070   -5.9800   24.9830 C   0  0  0  0  0  3  0  0  0  0  0  0
  -21.3220   -4.6110   24.9100 C   0  0  0  0  0  0  0  0  0  0  0  0
  -21.7540   -4.0520   23.6930 C   0  0  0  0  0  3  0  0  0  0  0  0
  -21.8670   -4.8600   22.5500 C   0  0  0  0  0  0  0  0  0  0  0  0
  -22.2600   -4.3110   21.3760 F   0  0  0  0  0  0  0  0  0  0  0  0
  -21.2080   -3.8290   26.0090 F   0  0  0  0  0  0  0  0  0  0  0  0
  -22.7350  -13.6050   21.1340 C   0  0  0  0  0  0  0  0  0  0  0  0
  -22.0030  -12.9100   21.9970 N   0  0  0  0  0  0  0  0  0  0  0  0
  -22.3030  -14.6340   20.6170 O   0  0  0  0  0  0  0  0  0  0  0  0
  -22.3660  -12.0760   22.4350 H   0  0  0  0  0  0  0  0  0  0  0  0
  -21.0640  -13.2130   22.2180 H   0  0  0  0  0  0  0  0  0  0  0  0
  -25.3730  -15.2540   20.2980 N   0  0  0  0  0  0  0  0  0  0  0  0
  -24.6030  -15.9060   20.3990 H   0  0  0  0  0  0  0  0  0  0  0  0
  -26.1750  -15.6650   19.8430 H   0  0  0  0  0  0  0  0  0  0  0  0
  -28.4730  -21.8310   18.1790 C   0  0  0  0  0  1  0  0  0  0  0  0
  -28.9430  -22.5240   19.4780 C   0  0  0  0  0  3  0  0  0  0  0  0
  -28.0580  -23.8740   19.6950 C   0  0  0  0  0  2  0  0  0  0  0  0
  -28.4910  -25.1270   20.5930 C   0  0  0  0  0  2  0  0  0  0  0  0
  -28.4140  -26.5430   20.1340 O   0  0  0  0  0  0  0  0  0  0  0  0
  -24.6080  -31.8820   23.2540 C   0  0  0  0  0  0  0  0  0  0  0  0
  -27.2490  -27.3230   20.2080 C   0  0  0  0  0  0  0  0  0  0  0  0
  -23.4100  -30.4700   21.6160 C   0  0  0  0  0  3  0  0  0  0  0  0
  -24.8710  -28.9130   20.2020 C   0  0  0  0  0  0  0  0  0  0  0  0
  -25.9460  -30.8040   21.4270 C   0  0  0  0  0  2  0  0  0  0  0  0
  -26.0340  -29.4170   20.7930 C   0  0  0  0  0  0  0  0  0  0  0  0
  -27.2290  -28.6350   20.7780 C   0  0  0  0  0  3  0  0  0  0  0  0
  -26.0630  -26.8600   19.6080 C   0  0  0  0  0  3  0  0  0  0  0  0
  -24.8880  -27.6420   19.5980 C   0  0  0  0  0  3  0  0  0  0  0  0
  -23.6280  -29.7830   20.2410 C   0  0  0  0  0  2  0  0  0  0  0  0
  -24.6740  -31.0700   22.1590 N   0  0  0  0  0  0  0  0  0  0  0  0
  -23.5240  -32.1600   23.7870 O   0  0  0  0  0  0  0  0  0  0  0  0
  -22.7510  -29.4560   22.5810 C   0  0  0  0  0  0  0  0  0  0  0  0
  -21.4260  -29.2750   22.4550 N   0  0  0  0  0  0  0  0  0  0  0  0
  -23.4330  -28.8310   23.3970 O   0  0  0  0  0  0  0  0  0  0  0  0
  -20.9360  -29.8400   21.7750 H   0  0  0  0  0  0  0  0  0  0  0  0
  -18.0510  -28.0740   22.9450 C   0  0  0  0  0  0  0  0  0  0  0  0
  -20.6080  -28.3350   23.2220 C   0  0  0  0  0  3  0  0  0  0  0  0
  -20.7110  -26.9020   22.6430 C   0  0  0  0  0  2  0  0  0  0  0  0
  -19.6090  -26.5830   21.6280 C   0  0  0  0  0  2  0  0  0  0  0  0
  -18.2270  -26.7250   22.2710 C   0  0  0  0  0  2  0  0  0  0  0  0
  -19.1690  -28.8370   23.3770 C   0  0  0  0  0  0  0  0  0  0  0  0
  -18.9500  -30.1000   23.9700 C   0  0  0  0  0  3  0  0  0  0  0  0
  -17.6450  -30.6010   24.1350 C   0  0  0  0  0  3  0  0  0  0  0  0
  -16.5420  -29.8320   23.7250 C   0  0  0  0  0  3  0  0  0  0  0  0
  -16.7450  -28.5730   23.1330 C   0  0  0  0  0  3  0  0  0  0  0  0
  -25.8880  -32.5190   23.8770 C   0  0  0  0  0  3  0  0  0  0  0  0
  -26.3990  -31.7590   25.1620 C   0  0  1  0  0  0  0  0  0  0  0  0
  -25.2990  -31.5310   26.2260 C   0  0  0  0  0  1  0  0  0  0  0  0
  -26.9860  -30.3810   24.7770 C   0  0  0  0  0  1  0  0  0  0  0  0
  -27.5470  -32.5580   25.8240 C   0  0  0  0  0  1  0  0  0  0  0  0
  -25.5790  -33.9210   24.1970 N   0  0  0  0  0  0  0  0  0  0  0  0
  -25.9110  -34.9680   23.4310 C   0  0  0  0  0  0  0  0  0  0  0  0
  -26.5810  -34.8570   22.4000 O   0  0  0  0  0  0  0  0  0  0  0  0
  -24.9950  -34.0800   25.0040 H   0  0  0  0  0  0  0  0  0  0  0  0
  -24.1890  -36.7610   23.0520 C   0  0  0  0  0  1  0  0  0  0  0  0
  -25.4240  -36.3620   23.8770 C   0  0  0  0  0  3  0  0  0  0  0  0
  -27.5530  -37.2510   24.7160 C   0  0  0  0  0  1  0  0  0  0  0  0
  -26.4590  -37.4110   23.7610 N   0  0  0  0  0  0  0  0  0  0  0  0
  -26.0560  -38.3350   23.8940 H   0  0  0  0  0  0  0  0  0  0  0  0
  1  3  1  0
  2  5  1  0
  3 17  1  0
  4  2  2  0
  4  7  1  0
  5  3  2  0
  6  4  1  0
  6  1  2  0
  7  8  1  0
  9 17  1  0
 10 15  1  0
 11 12  1  0
 11 10  1  0
 13 12  1  0
 13 22  1  0
 13 14  1  0
 15  9  1  0
 15 14  1  0
 16  9  2  0
 17 18  1  0
 19 20  2  0
 20 39  1  0
 21 20  1  0
 21 24  1  0
 22 19  1  0
 22 23  1  0
 23 21  2  0
 24 25  1  0
 25 26  2  0
 27 30  1  0
 27 26  1  0
 28 27  2  0
 29 28  1  0
 29 24  2  0
 30 31  1  0
 31 32  1  0
 32 33  2  0
 34 33  1  0
 34 38  1  0
 35 34  2  0
 36 31  2  0
 36 35  1  0
 37 36  1  0
 39 40  1  0
 40 43  1  0
 40 42  1  0
 41 39  2  0
 44 45  1  0
 44 19  1  0
 46 44  1  0
 48 47  1  0
 48 49  1  0
 48  7  1  0
 49 50  1  0
 51 53  1  0
 51 50  1  0
 52 63  2  0
 53 58  1  0
 54 62  1  0
 54 64  1  0
 55 61  1  0
 55 57  1  0
 56 62  1  0
 57 56  1  0
 58 57  2  0
 59 53  2  0
 60 59  1  0
 60 55  2  0
 61 54  1  0
 62 52  1  0
 64 66  2  0
 65 64  1  0
 67 65  1  0
 68 77  2  0
 68 73  1  0
 69 65  1  0
 69 73  1  0
 70 69  1  0
 71 72  1  0
 71 70  1  0
 72 68  1  0
 73 74  2  0
 74 75  1  0
 76 75  2  0
 77 76  1  0
 78 52  1  0
 78 83  1  0
 78 79  1  0
 79 82  1  1
 79 80  1  0
 81 79  1  0
 83 86  1  0
 84 88  1  0
 84 83  1  0
 85 84  2  0
 88 87  1  0
 90 88  1  0
 90 91  1  0
 90 89  1  0
M  ISO  4   9 100  17 100  50 101  51 101
M  END
>  <TORSDO>  (59) 
F 19

>  <SCORE>  (59) 
-14.390

>  <name>  (59) 
58

>  <ligand_id>  (59) 
58

>  <original_smiles>  (59) 
[H]c1nc(N([H])C([H])(C([H])([H])[H])C([H])([H])C([H])([H])Oc2c([H])c([H])c3c(c2[H])C([H])([H])N(C(=O)C([H])(N([H])C(=O)C([H])(N([H])C([H])([H])[H])C([H])([H])[H])C(C([H])([H])[H])(C([H])([H])[H])C([H])([H])[H])C([H])(C(=O)N([H])C2([H])c4c([H])c([H])c([H])c([H])c4C([H])([H])C([H])([H])C2([H])[H])C3([H])[H])c([H])nc1N([H])C(=O)N1C([H])([H])C([H])([H])C([H])([H])C([H])(n2nc(-c3c([H])c([H])c(Oc4c([H])c([H])c(F)c([H])c4F)c([H])c3[H])c(C(=O)N([H])[H])c2N([H])[H])C1([H])[H]

>  <smiles>  (59) 
[H]c1nc(N([H])C([H])(C([H])([H])[H])C([H])([H])C([H])([H])Oc2c([H])c([H])c3c(c2[H])C([H])([H])N(C(=O)C([H])(N([H])C(=O)C([H])(N([H])C([H])([H])[H])C([H])([H])[H])C(C([H])([H])[H])(C([H])([H])[H])C([H])([H])[H])C([H])(C(=O)N([H])C2([H])c4c([H])c([H])c([H])c([H])c4C([H])([H])C([H])([H])C2([H])[H])C3([H])[H])c([H])nc1N([H])C(=O)N1C([H])([H])C([H])([H])C([H])([H])C([H])(n2nc(-c3c([H])c([H])c(Oc4c([H])c([H])c(F)c([H])c4F)c([H])c3[H])c(C(=O)N([H])[H])c2N([H])[H])C1([H])[H]

$$$$
59:0:0
     RDKit          3D

 94102  0  0  1  0  0  0  0  0999 V2000
  -30.6940  -22.3820   21.1040 C   0  0  0  0  0  2  0  0  0  0  0  0
  -30.4410  -20.8950   21.4660 C   0  0  0  0  0  2  0  0  0  0  0  0
  -30.1340  -16.8210   18.7350 C   0  0  0  0  0  3  0  0  0  0  0  0
  -29.9730  -16.8030   20.1480 C   0  0  0  0  0  3  0  0  0  0  0  0
  -29.7110  -19.0720   20.0140 C   0  0  0  0  0  0  0  0  0  0  0  0
  -30.0750  -17.9760   18.0300 N   0  0  0  0  0  0  0  0  0  0  0  0
  -29.7560  -17.9830   20.7930 N   0  0  0  0  0  0  0  0  0  0  0  0
  -29.8500  -19.1200   18.6860 N   0  0  0  0  0  2  0  0  0  0  0  0
  -29.4430  -20.2820   20.5930 N   0  0  0  0  0  0  0  0  0  0  0  0
  -29.1660  -20.9290   19.8660 H   0  0  0  0  0  0  0  0  0  0  0  0
  -30.6730  -14.4860   20.4480 C   0  0  0  0  0  0  0  0  0  0  0  0
  -30.3500  -12.3250   19.3430 C   0  0  0  0  0  2  0  0  0  0  0  0
  -29.4110  -12.5400   18.1370 C   0  0  0  0  0  2  0  0  0  0  0  0
  -27.9330  -12.4300   18.5650 C   0  0  0  0  0  2  0  0  0  0  0  0
  -27.6040  -13.2630   19.8330 C   0  0  0  0  0  3  0  0  0  0  0  0
  -28.6610  -13.0450   20.9410 C   0  0  0  0  0  2  0  0  0  0  0  0
  -29.9910  -13.3150   20.3680 N   0  0  0  0  0  0  0  0  0  0  0  0
  -31.8200  -14.6300   20.0170 O   0  0  0  0  0  0  0  0  0  0  0  0
  -29.9540  -15.5530   20.8350 N   0  0  0  0  0  0  0  0  0  0  0  0
  -29.1230  -15.3610   21.3690 H   0  0  0  0  0  0  0  0  0  0  0  0
  -25.2040  -13.8650   20.5410 C   0  0  0  0  0  0  0  0  0  0  0  0
  -24.1390  -13.0900   20.9150 C   0  0  0  0  0  0  0  0  0  0  0  0
  -24.6050  -11.7400   20.8870 C   0  0  0  0  0  0  0  0  0  0  0  0
  -26.2520  -12.9870   20.3150 N   0  0  0  0  0  0  0  0  0  0  0  0
  -25.8950  -11.7040   20.5790 N   0  0  0  0  0  0  0  0  0  0  0  0
  -23.8810  -10.4750   21.0780 C   0  0  0  0  0  0  0  0  0  0  0  0
  -24.3280   -9.5000   21.9980 C   0  0  0  0  0  3  0  0  0  0  0  0
  -23.6070   -8.3010   22.1760 C   0  0  0  0  0  3  0  0  0  0  0  0
  -22.4230   -8.0660   21.4380 C   0  0  0  0  0  0  0  0  0  0  0  0
  -21.9930   -9.0290   20.5070 C   0  0  0  0  0  3  0  0  0  0  0  0
  -22.7180  -10.2210   20.3250 C   0  0  0  0  0  3  0  0  0  0  0  0
  -21.6710   -6.9200   21.5290 O   0  0  0  0  0  0  0  0  0  0  0  0
  -21.6540   -6.1590   22.6700 C   0  0  0  0  0  0  0  0  0  0  0  0
  -21.2720   -6.6960   23.9190 C   0  0  0  0  0  3  0  0  0  0  0  0
  -21.2020   -5.8600   25.0510 C   0  0  0  0  0  3  0  0  0  0  0  0
  -21.5040   -4.4900   24.9380 C   0  0  0  0  0  0  0  0  0  0  0  0
  -21.8790   -3.9530   23.6940 C   0  0  0  0  0  3  0  0  0  0  0  0
  -21.9500   -4.7850   22.5630 C   0  0  0  0  0  0  0  0  0  0  0  0
  -22.2900   -4.2580   21.3630 F   0  0  0  0  0  0  0  0  0  0  0  0
  -21.4300   -3.6860   26.0250 F   0  0  0  0  0  0  0  0  0  0  0  0
  -22.7390  -13.5620   21.1860 C   0  0  0  0  0  0  0  0  0  0  0  0
  -22.0120  -12.8630   22.0500 N   0  0  0  0  0  0  0  0  0  0  0  0
  -22.3000  -14.5870   20.6670 O   0  0  0  0  0  0  0  0  0  0  0  0
  -22.3800  -12.0360   22.4970 H   0  0  0  0  0  0  0  0  0  0  0  0
  -21.0760  -13.1670   22.2750 H   0  0  0  0  0  0  0  0  0  0  0  0
  -25.3620  -15.2340   20.3570 N   0  0  0  0  0  0  0  0  0  0  0  0
  -24.5870  -15.8820   20.4480 H   0  0  0  0  0  0  0  0  0  0  0  0
  -26.2080  -15.6770   20.0180 H   0  0  0  0  0  0  0  0  0  0  0  0
  -29.5620  -23.3580   21.5130 C   0  0  0  0  0  3  0  0  0  0  0  0
  -29.6390  -23.5790   22.9130 O   0  0  0  0  0  0  0  0  0  0  0  0
  -30.4830  -23.9790   23.1050 H   0  0  0  0  0  0  0  0  0  0  0  0
  -29.6180  -24.7190   20.7750 C   0  0  0  0  0  2  0  0  0  0  0  0
  -28.3460  -25.5660   20.9620 C   0  0  0  0  0  2  0  0  0  0  0  0
  -28.4140  -26.7680   20.1920 O   0  0  0  0  0  0  0  0  0  0  0  0
  -24.5840  -31.9070   23.2560 C   0  0  0  0  0  0  0  0  0  0  0  0
  -27.2430  -27.4860   20.1910 C   0  0  0  0  0  0  0  0  0  0  0  0
  -23.3790  -30.4960   21.6190 C   0  0  0  0  0  3  0  0  0  0  0  0
  -24.8370  -28.9590   20.1980 C   0  0  0  0  0  0  0  0  0  0  0  0
  -25.8990  -30.8710   21.4110 C   0  0  0  0  0  2  0  0  0  0  0  0
  -25.9910  -29.4980   20.7800 C   0  0  0  0  0  0  0  0  0  0  0  0
  -27.1990  -28.7700   20.7720 C   0  0  0  0  0  3  0  0  0  0  0  0
  -26.0770  -26.9540   19.5990 C   0  0  0  0  0  3  0  0  0  0  0  0
  -24.8740  -27.6840   19.6050 C   0  0  0  0  0  3  0  0  0  0  0  0
  -23.5870  -29.8100   20.2410 C   0  0  0  0  0  2  0  0  0  0  0  0
  -24.6390  -31.1060   22.1540 N   0  0  0  0  0  0  0  0  0  0  0  0
  -23.5040  -32.1770   23.7990 O   0  0  0  0  0  0  0  0  0  0  0  0
  -22.7350  -29.4770   22.5850 C   0  0  0  0  0  0  0  0  0  0  0  0
  -21.4100  -29.2890   22.4590 N   0  0  0  0  0  0  0  0  0  0  0  0
  -23.4200  -28.8560   23.4010 O   0  0  0  0  0  0  0  0  0  0  0  0
  -20.9190  -29.8400   21.7700 H   0  0  0  0  0  0  0  0  0  0  0  0
  -18.0410  -28.0850   22.9580 C   0  0  0  0  0  0  0  0  0  0  0  0
  -20.5970  -28.3510   23.2330 C   0  0  0  0  0  3  0  0  0  0  0  0
  -20.7060  -26.9180   22.6630 C   0  0  0  0  0  2  0  0  0  0  0  0
  -19.6050  -26.5880   21.6490 C   0  0  0  0  0  2  0  0  0  0  0  0
  -18.2220  -26.7340   22.2890 C   0  0  0  0  0  2  0  0  0  0  0  0
  -19.1570  -28.8520   23.3870 C   0  0  0  0  0  0  0  0  0  0  0  0
  -18.9330  -30.1180   23.9700 C   0  0  0  0  0  3  0  0  0  0  0  0
  -17.6260  -30.6170   24.1300 C   0  0  0  0  0  3  0  0  0  0  0  0
  -16.5260  -29.8470   23.7180 C   0  0  0  0  0  3  0  0  0  0  0  0
  -16.7330  -28.5830   23.1380 C   0  0  0  0  0  3  0  0  0  0  0  0
  -25.8720  -32.5420   23.8720 C   0  0  0  0  0  3  0  0  0  0  0  0
  -25.5630  -33.9400   24.1980 N   0  0  0  0  0  0  0  0  0  0  0  0
  -25.8940  -34.9890   23.4350 C   0  0  0  0  0  0  0  0  0  0  0  0
  -26.5640  -34.8840   22.4030 O   0  0  0  0  0  0  0  0  0  0  0  0
  -24.9700  -34.0960   25.0000 H   0  0  0  0  0  0  0  0  0  0  0  0
  -24.1640  -36.7760   23.0700 C   0  0  0  0  0  1  0  0  0  0  0  0
  -25.4030  -36.3780   23.8860 C   0  0  0  0  0  3  0  0  0  0  0  0
  -27.5370  -37.2660   24.7170 C   0  0  0  0  0  1  0  0  0  0  0  0
  -26.4350  -37.4320   23.7720 N   0  0  0  0  0  0  0  0  0  0  0  0
  -26.0290  -38.3520   23.9180 H   0  0  0  0  0  0  0  0  0  0  0  0
  -26.3970  -31.7730   25.1450 C   0  0  1  0  0  0  0  0  0  0  0  0
  -25.3110  -31.5320   26.2190 C   0  0  0  0  0  1  0  0  0  0  0  0
  -26.9800  -30.3970   24.7480 C   0  0  0  0  0  1  0  0  0  0  0  0
  -27.5500  -32.5700   25.8010 C   0  0  0  0  0  1  0  0  0  0  0  0
  1  2  1  0
  1 49  1  0
  3  4  1  0
  4  7  1  0
  4 19  1  0
  5  9  1  0
  5  7  2  0
  6  8  1  0
  6  3  2  0
  8  5  1  0
  9  2  1  0
 10  9  1  0
 11 19  1  0
 12 17  1  0
 13 14  1  0
 13 12  1  0
 15 14  1  0
 15 24  1  0
 15 16  1  0
 17 11  1  0
 17 16  1  0
 18 11  2  0
 19 20  1  0
 21 22  2  0
 22 41  1  0
 23 22  1  0
 23 26  1  0
 24 21  1  0
 24 25  1  0
 25 23  2  0
 26 27  1  0
 27 28  2  0
 29 32  1  0
 29 28  1  0
 30 29  2  0
 31 30  1  0
 31 26  2  0
 32 33  1  0
 33 34  1  0
 34 35  2  0
 36 35  1  0
 36 40  1  0
 37 36  2  0
 38 33  2  0
 38 37  1  0
 39 38  1  0
 41 42  1  0
 42 45  1  0
 42 44  1  0
 43 41  2  0
 46 47  1  0
 46 21  1  0
 48 46  1  0
 49 52  1  0
 49 50  1  0
 50 51  1  0
 52 53  1  0
 54 53  1  0
 55 66  2  0
 56 54  1  0
 56 61  1  0
 57 65  1  0
 57 67  1  0
 58 64  1  0
 58 60  1  0
 59 65  1  0
 60 59  1  0
 61 60  2  0
 62 63  1  0
 62 56  2  0
 63 58  2  0
 64 57  1  0
 65 55  1  0
 67 69  2  0
 68 67  1  0
 70 68  1  0
 71 80  2  0
 71 76  1  0
 72 68  1  0
 72 76  1  0
 73 72  1  0
 74 75  1  0
 74 73  1  0
 75 71  1  0
 76 77  2  0
 77 78  1  0
 79 78  2  0
 80 79  1  0
 81 55  1  0
 81 82  1  0
 81 91  1  0
 82 85  1  0
 83 87  1  0
 83 82  1  0
 84 83  2  0
 87 86  1  0
 89 87  1  0
 89 90  1  0
 89 88  1  0
 91 94  1  1
 91 92  1  0
 93 91  1  0
M  ISO  4  11 100  19 100  53 101  54 101
M  END
>  <TORSDO>  (60) 
F 22

>  <SCORE>  (60) 
-13.570

>  <name>  (60) 
59

>  <ligand_id>  (60) 
59

>  <original_smiles>  (60) 
[H]OC([H])(C([H])([H])C([H])([H])Oc1c([H])c([H])c2c(c1[H])C([H])([H])N(C(=O)C([H])(N([H])C(=O)C([H])(N([H])C([H])([H])[H])C([H])([H])[H])C(C([H])([H])[H])(C([H])([H])[H])C([H])([H])[H])C([H])(C(=O)N([H])C1([H])c3c([H])c([H])c([H])c([H])c3C([H])([H])C([H])([H])C1([H])[H])C2([H])[H])C([H])([H])C([H])([H])N([H])c1nnc([H])c(N([H])C(=O)N2C([H])([H])C([H])([H])C([H])([H])C([H])(n3nc(-c4c([H])c([H])c(Oc5c([H])c([H])c(F)c([H])c5F)c([H])c4[H])c(C(=O)N([H])[H])c3N([H])[H])C2([H])[H])n1

>  <smiles>  (60) 
[H]OC([H])(C([H])([H])C([H])([H])Oc1c([H])c([H])c2c(c1[H])C([H])([H])N(C(=O)C([H])(N([H])C(=O)C([H])(N([H])C([H])([H])[H])C([H])([H])[H])C(C([H])([H])[H])(C([H])([H])[H])C([H])([H])[H])C([H])(C(=O)N([H])C1([H])c3c([H])c([H])c([H])c([H])c3C([H])([H])C([H])([H])C1([H])[H])C2([H])[H])C([H])([H])C([H])([H])N([H])c1nnc([H])c(N([H])C(=O)N2C([H])([H])C([H])([H])C([H])([H])C([H])(n3nc(-c4c([H])c([H])c(Oc5c([H])c([H])c(F)c([H])c5F)c([H])c4[H])c(C(=O)N([H])[H])c3N([H])[H])C2([H])[H])n1

$$$$
60:0:0
     RDKit          3D

 90 98  0  0  1  0  0  0  0  0999 V2000
  -28.8400  -22.1650   20.0560 C   0  0  0  0  0  3  0  0  0  0  0  0
  -29.4940  -20.9540   20.9190 C   0  0  0  0  0  3  0  0  0  0  0  0
  -30.5640  -14.7560   20.3670 C   0  0  0  0  0  0  0  0  0  0  0  0
  -30.3690  -12.4680   19.3770 C   0  0  0  0  0  2  0  0  0  0  0  0
  -29.4360  -12.5460   18.1470 C   0  0  0  0  0  2  0  0  0  0  0  0
  -27.9630  -12.3810   18.5700 C   0  0  0  0  0  2  0  0  0  0  0  0
  -27.5900  -13.2670   19.7890 C   0  0  0  0  0  3  0  0  0  0  0  0
  -28.6450  -13.1700   20.9130 C   0  0  0  0  0  2  0  0  0  0  0  0
  -29.9470  -13.5210   20.3310 N   0  0  0  0  0  0  0  0  0  0  0  0
  -31.7330  -14.8590   19.9800 O   0  0  0  0  0  0  0  0  0  0  0  0
  -30.6230  -17.8010   19.2210 C   0  0  0  0  0  3  0  0  0  0  0  0
  -30.4640  -19.1730   19.2500 C   0  0  0  0  0  3  0  0  0  0  0  0
  -29.9460  -17.3060   20.3740 C   0  0  0  0  0  0  0  0  0  0  0  0
  -29.3950  -18.3660   21.0370 N   0  0  0  0  0  0  0  0  0  0  0  0
  -29.7150  -19.5450   20.3550 N   0  0  0  0  0  0  0  0  0  0  0  0
  -29.8070  -15.8690   20.7150 N   0  0  0  0  0  0  0  0  0  0  0  0
  -28.9480  -15.6400   21.1890 H   0  0  0  0  0  0  0  0  0  0  0  0
  -25.1980  -13.8640   20.5050 C   0  0  0  0  0  0  0  0  0  0  0  0
  -24.1310  -13.0940   20.8760 C   0  0  0  0  0  0  0  0  0  0  0  0
  -24.5920  -11.7410   20.8540 C   0  0  0  0  0  0  0  0  0  0  0  0
  -26.2420  -12.9820   20.2750 N   0  0  0  0  0  0  0  0  0  0  0  0
  -25.8830  -11.7010   20.5470 N   0  0  0  0  0  0  0  0  0  0  0  0
  -23.8620  -10.4810   21.0500 C   0  0  0  0  0  0  0  0  0  0  0  0
  -24.3060   -9.5060   21.9700 C   0  0  0  0  0  3  0  0  0  0  0  0
  -23.5770   -8.3110   22.1540 C   0  0  0  0  0  3  0  0  0  0  0  0
  -22.3900   -8.0840   21.4170 C   0  0  0  0  0  0  0  0  0  0  0  0
  -21.9650   -9.0480   20.4860 C   0  0  0  0  0  3  0  0  0  0  0  0
  -22.6950  -10.2340   20.3000 C   0  0  0  0  0  3  0  0  0  0  0  0
  -21.6310   -6.9430   21.5110 O   0  0  0  0  0  0  0  0  0  0  0  0
  -21.6140   -6.1820   22.6530 C   0  0  0  0  0  0  0  0  0  0  0  0
  -21.2440   -6.7220   23.9030 C   0  0  0  0  0  3  0  0  0  0  0  0
  -21.1720   -5.8880   25.0370 C   0  0  0  0  0  3  0  0  0  0  0  0
  -21.4600   -4.5150   24.9210 C   0  0  0  0  0  0  0  0  0  0  0  0
  -21.8240   -3.9750   23.6750 C   0  0  0  0  0  3  0  0  0  0  0  0
  -21.8970   -4.8060   22.5440 C   0  0  0  0  0  0  0  0  0  0  0  0
  -22.2270   -4.2750   21.3420 F   0  0  0  0  0  0  0  0  0  0  0  0
  -21.3850   -3.7130   26.0080 F   0  0  0  0  0  0  0  0  0  0  0  0
  -22.7340  -13.5750   21.1430 C   0  0  0  0  0  0  0  0  0  0  0  0
  -22.0030  -12.8880   22.0150 N   0  0  0  0  0  0  0  0  0  0  0  0
  -22.2980  -14.5960   20.6120 O   0  0  0  0  0  0  0  0  0  0  0  0
  -22.3700  -12.0640   22.4680 H   0  0  0  0  0  0  0  0  0  0  0  0
  -21.0660  -13.1940   22.2330 H   0  0  0  0  0  0  0  0  0  0  0  0
  -25.3650  -15.2340   20.3210 N   0  0  0  0  0  0  0  0  0  0  0  0
  -24.5960  -15.8880   20.4300 H   0  0  0  0  0  0  0  0  0  0  0  0
  -26.2100  -15.6730   19.9820 H   0  0  0  0  0  0  0  0  0  0  0  0
  -29.0440  -23.7220   20.5090 C   0  0  0  0  0  3  0  0  0  0  0  0
  -30.3690  -24.0510   20.1370 O   0  0  0  0  0  0  0  0  0  0  0  0
  -30.4920  -24.9760   20.3390 H   0  0  0  0  0  0  0  0  0  0  0  0
  -28.1070  -24.9020   19.8990 C   0  0  0  0  0  2  0  0  0  0  0  0
  -28.2820  -26.3580   20.2600 O   0  0  0  0  0  0  0  0  0  0  0  0
  -24.6190  -31.8800   23.2390 C   0  0  0  0  0  0  0  0  0  0  0  0
  -27.1900  -27.2610   20.1760 C   0  0  0  0  0  0  0  0  0  0  0  0
  -23.4040  -30.4860   21.6060 C   0  0  0  0  0  3  0  0  0  0  0  0
  -24.8420  -28.9280   20.1680 C   0  0  0  0  0  0  0  0  0  0  0  0
  -25.9490  -30.7770   21.4190 C   0  0  0  0  0  2  0  0  0  0  0  0
  -26.0180  -29.3950   20.7690 C   0  0  0  0  0  0  0  0  0  0  0  0
  -27.1920  -28.5730   20.7650 C   0  0  0  0  0  3  0  0  0  0  0  0
  -25.9940  -26.8740   19.5280 C   0  0  0  0  0  3  0  0  0  0  0  0
  -24.8370  -27.6760   19.5370 C   0  0  0  0  0  3  0  0  0  0  0  0
  -23.6120  -29.8120   20.2240 C   0  0  0  0  0  2  0  0  0  0  0  0
  -24.6770  -31.0670   22.1440 N   0  0  0  0  0  0  0  0  0  0  0  0
  -23.5380  -32.1640   23.7760 O   0  0  0  0  0  0  0  0  0  0  0  0
  -22.7380  -29.4730   22.5680 C   0  0  0  0  0  0  0  0  0  0  0  0
  -21.4120  -29.2990   22.4430 N   0  0  0  0  0  0  0  0  0  0  0  0
  -23.4150  -28.8490   23.3900 O   0  0  0  0  0  0  0  0  0  0  0  0
  -20.9230  -29.8550   21.7560 H   0  0  0  0  0  0  0  0  0  0  0  0
  -18.0340  -28.0940   22.9420 C   0  0  0  0  0  0  0  0  0  0  0  0
  -20.5910  -28.3640   23.2180 C   0  0  0  0  0  3  0  0  0  0  0  0
  -20.6990  -26.9280   22.6530 C   0  0  0  0  0  2  0  0  0  0  0  0
  -19.6010  -26.5960   21.6380 C   0  0  0  0  0  2  0  0  0  0  0  0
  -18.2170  -26.7410   22.2760 C   0  0  0  0  0  2  0  0  0  0  0  0
  -19.1500  -28.8630   23.3700 C   0  0  0  0  0  0  0  0  0  0  0  0
  -18.9240  -30.1290   23.9530 C   0  0  0  0  0  3  0  0  0  0  0  0
  -17.6180  -30.6270   24.1130 C   0  0  0  0  0  3  0  0  0  0  0  0
  -16.5170  -29.8560   23.7000 C   0  0  0  0  0  3  0  0  0  0  0  0
  -16.7260  -28.5920   23.1210 C   0  0  0  0  0  3  0  0  0  0  0  0
  -25.9050  -32.5090   23.8570 C   0  0  0  0  0  3  0  0  0  0  0  0
  -26.4240  -31.7350   25.1300 C   0  0  1  0  0  0  0  0  0  0  0  0
  -25.3370  -31.5030   26.2050 C   0  0  0  0  0  1  0  0  0  0  0  0
  -26.9990  -30.3540   24.7370 C   0  0  0  0  0  1  0  0  0  0  0  0
  -27.5820  -32.5240   25.7860 C   0  0  0  0  0  1  0  0  0  0  0  0
  -25.5990  -33.9070   24.1930 N   0  0  0  0  0  0  0  0  0  0  0  0
  -25.9240  -34.9630   23.4340 C   0  0  0  0  0  0  0  0  0  0  0  0
  -26.5810  -34.8610   22.3950 O   0  0  0  0  0  0  0  0  0  0  0  0
  -25.0150  -34.0600   25.0020 H   0  0  0  0  0  0  0  0  0  0  0  0
  -24.1890  -36.7560   23.1130 C   0  0  0  0  0  1  0  0  0  0  0  0
  -25.4450  -36.3510   23.9020 C   0  0  0  0  0  3  0  0  0  0  0  0
  -27.5950  -37.2340   24.6920 C   0  0  0  0  0  1  0  0  0  0  0  0
  -26.4750  -37.4050   23.7710 N   0  0  0  0  0  0  0  0  0  0  0  0
  -26.0720  -38.3240   23.9290 H   0  0  0  0  0  0  0  0  0  0  0  0
  1 46  1  0
  1  2  2  0
  3 16  1  0
  4  9  1  0
  5  6  1  0
  5  4  1  0
  7  6  1  0
  7 21  1  0
  7  8  1  0
  9  3  1  0
  9  8  1  0
 10  3  2  0
 11 12  2  0
 11 13  1  0
 12 15  1  0
 13 16  1  0
 13 14  2  0
 15  2  1  0
 15 14  1  0
 16 17  1  0
 18 19  2  0
 19 38  1  0
 20 19  1  0
 20 23  1  0
 21 18  1  0
 21 22  1  0
 22 20  2  0
 23 24  1  0
 24 25  2  0
 26 29  1  0
 26 25  1  0
 27 26  2  0
 28 27  1  0
 28 23  2  0
 29 30  1  0
 30 31  1  0
 31 32  2  0
 33 32  1  0
 33 37  1  0
 34 33  2  0
 35 30  2  0
 35 34  1  0
 36 35  1  0
 38 39  1  0
 39 42  1  0
 39 41  1  0
 40 38  2  0
 43 44  1  0
 43 18  1  0
 45 43  1  0
 46 49  1  0
 47 48  1  0
 47 46  1  0
 49 50  1  0
 51 62  2  0
 52 50  1  0
 52 57  1  0
 53 61  1  0
 53 63  1  0
 54 60  1  0
 54 56  1  0
 55 61  1  0
 56 55  1  0
 57 56  2  0
 58 59  1  0
 58 52  2  0
 59 54  2  0
 60 53  1  0
 61 51  1  0
 63 65  2  0
 64 63  1  0
 66 64  1  0
 67 76  2  0
 67 72  1  0
 68 64  1  0
 68 72  1  0
 69 68  1  0
 70 71  1  0
 70 69  1  0
 71 67  1  0
 72 73  2  0
 73 74  1  0
 75 74  2  0
 76 75  1  0
 77 51  1  0
 77 82  1  0
 77 78  1  0
 78 81  1  1
 78 79  1  0
 80 78  1  0
 82 85  1  0
 83 87  1  0
 83 82  1  0
 84 83  2  0
 87 86  1  0
 89 87  1  0
 89 90  1  0
 89 88  1  0
M  ISO  4   3 100  16 100  49 101  50 101
M  END
>  <TORSDO>  (61) 
F 20

>  <SCORE>  (61) 
-13.918

>  <name>  (61) 
60

>  <ligand_id>  (61) 
60

>  <original_smiles>  (61) 
[H]OC([H])(C([H])([H])Oc1c([H])c([H])c2c(c1[H])C([H])([H])N(C(=O)C([H])(N([H])C(=O)C([H])(N([H])C([H])([H])[H])C([H])([H])[H])C(C([H])([H])[H])(C([H])([H])[H])C([H])([H])[H])C([H])(C(=O)N([H])C1([H])c3c([H])c([H])c([H])c([H])c3C([H])([H])C([H])([H])C1([H])[H])C2([H])[H])C([H])([H])C([H])([H])n1nc(N([H])C(=O)N2C([H])([H])C([H])([H])C([H])([H])C([H])(n3nc(-c4c([H])c([H])c(Oc5c([H])c([H])c(F)c([H])c5F)c([H])c4[H])c(C(=O)N([H])[H])c3N([H])[H])C2([H])[H])c([H])c1[H]

>  <smiles>  (61) 
[H]OC([H])(C([H])([H])Oc1c([H])c([H])c2c(c1[H])C([H])([H])N(C(=O)C([H])(N([H])C(=O)C([H])(N([H])C([H])([H])[H])C([H])([H])[H])C(C([H])([H])[H])(C([H])([H])[H])C([H])([H])[H])C([H])(C(=O)N([H])C1([H])c3c([H])c([H])c([H])c([H])c3C([H])([H])C([H])([H])C1([H])[H])C2([H])[H])C([H])([H])C([H])([H])n1nc(N([H])C(=O)N2C([H])([H])C([H])([H])C([H])([H])C([H])(n3nc(-c4c([H])c([H])c(Oc5c([H])c([H])c(F)c([H])c5F)c([H])c4[H])c(C(=O)N([H])[H])c3N([H])[H])C2([H])[H])c([H])c1[H]

$$$$
61:0:0
     RDKit          3D

 92100  0  0  1  0  0  0  0  0999 V2000
  -29.3400  -21.5300   20.1980 N   0  0  0  0  0  4  0  0  0  0  0  0
  -28.4920  -21.2130   20.6390 H   0  0  0  0  0  0  0  0  0  0  0  0
  -29.1840  -21.5060   19.2040 H   0  0  0  0  0  0  0  0  0  0  0  0
  -31.0560  -23.3900   20.3200 C   0  0  0  0  0  1  0  0  0  0  0  0
  -29.6100  -22.9510   20.6480 C   0  0  0  0  0  3  0  0  0  0  0  0
  -28.5980  -24.0390   20.0980 C   0  0  0  0  0  2  0  0  0  0  0  0
  -28.5300  -25.3970   20.9010 C   0  0  0  0  0  2  0  0  0  0  0  0
  -28.5080  -26.6420   20.1480 O   0  0  0  0  0  0  0  0  0  0  0  0
  -24.5930  -31.8130   23.2320 C   0  0  0  0  0  0  0  0  0  0  0  0
  -27.3420  -27.3910   20.1740 C   0  0  0  0  0  0  0  0  0  0  0  0
  -23.4380  -30.4200   21.5460 C   0  0  0  0  0  3  0  0  0  0  0  0
  -24.9390  -28.9050   20.1390 C   0  0  0  0  0  0  0  0  0  0  0  0
  -25.9680  -30.7950   21.4120 C   0  0  0  0  0  2  0  0  0  0  0  0
  -26.0820  -29.4270   20.7590 C   0  0  0  0  0  0  0  0  0  0  0  0
  -27.2880  -28.6800   20.7680 C   0  0  0  0  0  3  0  0  0  0  0  0
  -26.1830  -26.8910   19.5490 C   0  0  0  0  0  3  0  0  0  0  0  0
  -24.9880  -27.6390   19.5260 C   0  0  0  0  0  3  0  0  0  0  0  0
  -23.6880  -29.7570   20.1650 C   0  0  0  0  0  2  0  0  0  0  0  0
  -24.6830  -31.0250   22.1220 N   0  0  0  0  0  0  0  0  0  0  0  0
  -23.4970  -32.0690   23.7510 O   0  0  0  0  0  0  0  0  0  0  0  0
  -22.7710  -29.3850   22.4810 C   0  0  0  0  0  0  0  0  0  0  0  0
  -21.4520  -29.1900   22.3200 N   0  0  0  0  0  0  0  0  0  0  0  0
  -23.4410  -28.7580   23.3060 O   0  0  0  0  0  0  0  0  0  0  0  0
  -20.9720  -29.7490   21.6290 H   0  0  0  0  0  0  0  0  0  0  0  0
  -18.0790  -27.9550   22.7260 C   0  0  0  0  0  0  0  0  0  0  0  0
  -20.6280  -28.2340   23.0600 C   0  0  0  0  0  3  0  0  0  0  0  0
  -20.7580  -26.8130   22.4660 C   0  0  0  0  0  2  0  0  0  0  0  0
  -19.6820  -26.4940   21.4230 C   0  0  0  0  0  2  0  0  0  0  0  0
  -18.2840  -26.6170   22.0360 C   0  0  0  0  0  2  0  0  0  0  0  0
  -19.1800  -28.7210   23.1920 C   0  0  0  0  0  0  0  0  0  0  0  0
  -18.9360  -29.9740   23.7950 C   0  0  0  0  0  3  0  0  0  0  0  0
  -17.6230  -30.4610   23.9370 C   0  0  0  0  0  3  0  0  0  0  0  0
  -16.5360  -29.6920   23.4890 C   0  0  0  0  0  3  0  0  0  0  0  0
  -16.7650  -28.4400   22.8890 C   0  0  0  0  0  3  0  0  0  0  0  0
  -25.8570  -32.4490   23.8890 C   0  0  0  0  0  3  0  0  0  0  0  0
  -25.5300  -33.8410   24.2270 N   0  0  0  0  0  0  0  0  0  0  0  0
  -25.8650  -34.9040   23.4830 C   0  0  0  0  0  0  0  0  0  0  0  0
  -26.5540  -34.8160   22.4620 O   0  0  0  0  0  0  0  0  0  0  0  0
  -24.9220  -33.9830   25.0210 H   0  0  0  0  0  0  0  0  0  0  0  0
  -24.1200  -36.6780   23.1190 C   0  0  0  0  0  1  0  0  0  0  0  0
  -25.3570  -36.2830   23.9440 C   0  0  0  0  0  3  0  0  0  0  0  0
  -27.4720  -37.1860   24.8030 C   0  0  0  0  0  1  0  0  0  0  0  0
  -26.3780  -37.3490   23.8490 N   0  0  0  0  0  0  0  0  0  0  0  0
  -25.9610  -38.2630   23.9990 H   0  0  0  0  0  0  0  0  0  0  0  0
  -26.3550  -31.6670   25.1660 C   0  0  1  0  0  0  0  0  0  0  0  0
  -25.2420  -31.4070   26.2070 C   0  0  0  0  0  1  0  0  0  0  0  0
  -26.9600  -30.3000   24.7700 C   0  0  0  0  0  1  0  0  0  0  0  0
  -27.4840  -32.4630   25.8610 C   0  0  0  0  0  1  0  0  0  0  0  0
  -30.3930  -20.4970   20.5120 C   0  0  0  0  0  2  0  0  0  0  0  0
  -28.3550  -17.0740   20.4990 C   0  0  0  0  0  3  0  0  0  0  0  0
  -29.6920  -16.7690   20.5390 C   0  0  0  0  0  0  0  0  0  0  0  0
  -29.8000  -19.0870   20.4050 C   0  0  0  0  0  0  0  0  0  0  0  0
  -30.5090  -17.9250   20.4740 N   0  0  0  0  0  0  0  0  0  0  0  0
  -28.0610  -18.7860   20.3550 S   0  0  0  0  0  0  0  0  0  0  0  0
  -30.7060  -14.4760   20.0160 C   0  0  0  0  0  0  0  0  0  0  0  0
  -30.4000  -12.2570   18.9340 C   0  0  0  0  0  2  0  0  0  0  0  0
  -29.3820  -12.4070   17.7800 C   0  0  0  0  0  2  0  0  0  0  0  0
  -27.9290  -12.2960   18.2890 C   0  0  0  0  0  2  0  0  0  0  0  0
  -27.6700  -13.1790   19.5380 C   0  0  0  0  0  3  0  0  0  0  0  0
  -28.7770  -12.9510   20.5920 C   0  0  0  0  0  2  0  0  0  0  0  0
  -30.0760  -13.2630   19.9620 N   0  0  0  0  0  0  0  0  0  0  0  0
  -31.7690  -14.6990   19.4240 O   0  0  0  0  0  0  0  0  0  0  0  0
  -30.0510  -15.3940   20.7660 N   0  0  0  0  0  0  0  0  0  0  0  0
  -29.3610  -14.9150   21.3230 H   0  0  0  0  0  0  0  0  0  0  0  0
  -25.3360  -13.8720   20.3790 C   0  0  0  0  0  0  0  0  0  0  0  0
  -24.2660  -13.1400   20.8150 C   0  0  0  0  0  0  0  0  0  0  0  0
  -24.6740  -11.7730   20.7560 C   0  0  0  0  0  0  0  0  0  0  0  0
  -26.3350  -12.9540   20.0900 N   0  0  0  0  0  0  0  0  0  0  0  0
  -25.9410  -11.6850   20.3710 N   0  0  0  0  0  0  0  0  0  0  0  0
  -23.9140  -10.5390   20.9900 C   0  0  0  0  0  0  0  0  0  0  0  0
  -24.3590   -9.5610   21.9070 C   0  0  0  0  0  3  0  0  0  0  0  0
  -23.6040   -8.3890   22.1260 C   0  0  0  0  0  3  0  0  0  0  0  0
  -22.3880   -8.1880   21.4300 C   0  0  0  0  0  0  0  0  0  0  0  0
  -21.9610   -9.1530   20.5020 C   0  0  0  0  0  3  0  0  0  0  0  0
  -22.7170  -10.3170   20.2810 C   0  0  0  0  0  3  0  0  0  0  0  0
  -21.6020   -7.0680   21.5610 O   0  0  0  0  0  0  0  0  0  0  0  0
  -21.5730   -6.3400   22.7230 C   0  0  0  0  0  0  0  0  0  0  0  0
  -21.2160   -6.9230   23.9600 C   0  0  0  0  0  3  0  0  0  0  0  0
  -21.1330   -6.1220   25.1160 C   0  0  0  0  0  3  0  0  0  0  0  0
  -21.3960   -4.7410   25.0380 C   0  0  0  0  0  0  0  0  0  0  0  0
  -21.7460   -4.1580   23.8070 C   0  0  0  0  0  3  0  0  0  0  0  0
  -21.8310   -4.9560   22.6530 C   0  0  0  0  0  0  0  0  0  0  0  0
  -22.1480   -4.3870   21.4650 F   0  0  0  0  0  0  0  0  0  0  0  0
  -21.3090   -3.9690   26.1470 F   0  0  0  0  0  0  0  0  0  0  0  0
  -22.9040  -13.6690   21.1670 C   0  0  0  0  0  0  0  0  0  0  0  0
  -22.2060  -13.0080   22.0850 N   0  0  0  0  0  0  0  0  0  0  0  0
  -22.4710  -14.7030   20.6620 O   0  0  0  0  0  0  0  0  0  0  0  0
  -22.5700  -12.1720   22.5170 H   0  0  0  0  0  0  0  0  0  0  0  0
  -21.2950  -13.3470   22.3600 H   0  0  0  0  0  0  0  0  0  0  0  0
  -25.5380  -15.2350   20.1840 N   0  0  0  0  0  0  0  0  0  0  0  0
  -24.7820  -15.9010   20.3050 H   0  0  0  0  0  0  0  0  0  0  0  0
  -26.3270  -15.6200   19.6820 H   0  0  0  0  0  0  0  0  0  0  0  0
  1 49  1  0
  1  2  1  0
  1  5  1  0
  3  1  1  0
  5  4  1  0
  6  5  1  0
  6  7  1  0
  8 10  1  0
  8  7  1  0
  9 20  2  0
 10 15  1  0
 11 19  1  0
 11 21  1  0
 12 18  1  0
 12 14  1  0
 13 19  1  0
 14 15  2  0
 14 13  1  0
 16 10  2  0
 17 16  1  0
 17 12  2  0
 18 11  1  0
 19  9  1  0
 21 23  2  0
 22 21  1  0
 24 22  1  0
 25 34  2  0
 25 30  1  0
 26 22  1  0
 26 30  1  0
 27 26  1  0
 28 29  1  0
 28 27  1  0
 29 25  1  0
 30 31  2  0
 31 32  1  0
 33 32  2  0
 34 33  1  0
 35  9  1  0
 35 36  1  0
 35 45  1  0
 36 39  1  0
 37 41  1  0
 37 36  1  0
 38 37  2  0
 41 40  1  0
 43 41  1  0
 43 44  1  0
 43 42  1  0
 45 48  1  1
 45 46  1  0
 47 45  1  0
 50 51  2  0
 51 63  1  0
 52 53  2  0
 52 49  1  0
 53 51  1  0
 54 52  1  0
 54 50  1  0
 55 63  1  0
 56 61  1  0
 57 58  1  0
 57 56  1  0
 59 58  1  0
 59 68  1  0
 59 60  1  0
 61 55  1  0
 61 60  1  0
 62 55  2  0
 63 64  1  0
 65 66  2  0
 66 85  1  0
 67 66  1  0
 67 70  1  0
 68 69  1  0
 68 65  1  0
 69 67  2  0
 70 71  1  0
 71 72  2  0
 73 76  1  0
 73 72  1  0
 74 73  2  0
 75 74  1  0
 75 70  2  0
 76 77  1  0
 77 78  1  0
 78 79  2  0
 80 79  1  0
 80 84  1  0
 81 80  2  0
 82 77  2  0
 82 81  1  0
 83 82  1  0
 85 86  1  0
 86 89  1  0
 86 88  1  0
 87 85  2  0
 90 91  1  0
 90 65  1  0
 92 90  1  0
M  ISO  4   7 101   8 101  55 100  63 100
M  END
>  <TORSDO>  (62) 
F 21

>  <SCORE>  (62) 
-13.305

>  <name>  (62) 
61

>  <ligand_id>  (62) 
61

>  <original_smiles>  (62) 
[H]c1sc(C([H])([H])[N+]([H])([H])C([H])(C([H])([H])[H])C([H])([H])C([H])([H])Oc2c([H])c([H])c3c(c2[H])C([H])([H])N(C(=O)C([H])(N([H])C(=O)C([H])(N([H])C([H])([H])[H])C([H])([H])[H])C(C([H])([H])[H])(C([H])([H])[H])C([H])([H])[H])C([H])(C(=O)N([H])C2([H])c4c([H])c([H])c([H])c([H])c4C([H])([H])C([H])([H])C2([H])[H])C3([H])[H])nc1N([H])C(=O)N1C([H])([H])C([H])([H])C([H])([H])C([H])(n2nc(-c3c([H])c([H])c(Oc4c([H])c([H])c(F)c([H])c4F)c([H])c3[H])c(C(=O)N([H])[H])c2N([H])[H])C1([H])[H]

>  <smiles>  (62) 
[H]c1sc(C([H])([H])[N+]([H])([H])C([H])(C([H])([H])[H])C([H])([H])C([H])([H])Oc2c([H])c([H])c3c(c2[H])C([H])([H])N(C(=O)C([H])(N([H])C(=O)C([H])(N([H])C([H])([H])[H])C([H])([H])[H])C(C([H])([H])[H])(C([H])([H])[H])C([H])([H])[H])C([H])(C(=O)N([H])C2([H])c4c([H])c([H])c([H])c([H])c4C([H])([H])C([H])([H])C2([H])[H])C3([H])[H])nc1N([H])C(=O)N1C([H])([H])C([H])([H])C([H])([H])C([H])(n2nc(-c3c([H])c([H])c(Oc4c([H])c([H])c(F)c([H])c4F)c([H])c3[H])c(C(=O)N([H])[H])c2N([H])[H])C1([H])[H]

$$$$
62:0:0
     RDKit          3D

 92100  0  0  1  0  0  0  0  0999 V2000
  -29.0210  -23.0690   20.8980 C   0  0  0  0  0  2  0  0  0  0  0  0
  -29.9400  -21.9950   20.4910 N   0  0  0  0  0  0  0  0  0  0  0  0
  -30.8630  -22.2900   20.1700 H   0  0  0  0  0  0  0  0  0  0  0  0
  -30.5740  -19.6220   20.1600 C   0  0  0  0  0  3  0  0  0  0  0  0
  -28.3380  -20.0840   20.5920 C   0  0  0  0  0  3  0  0  0  0  0  0
  -29.5870  -20.6250   20.4290 C   0  0  0  0  0  0  0  0  0  0  0  0
  -30.0800  -18.3370   20.1060 C   0  0  0  0  0  0  0  0  0  0  0  0
  -28.3530  -18.3400   20.3920 S   0  0  0  0  0  0  0  0  0  0  0  0
  -30.9150  -17.1140   19.7920 C   0  0  0  0  0  2  0  0  0  0  0  0
  -31.2680  -14.6920   20.0580 C   0  0  0  0  0  0  0  0  0  0  0  0
  -30.9230  -12.4870   19.0230 C   0  0  0  0  0  2  0  0  0  0  0  0
  -29.9510  -12.6560   17.8380 C   0  0  0  0  0  2  0  0  0  0  0  0
  -28.4970  -12.5180   18.3260 C   0  0  0  0  0  2  0  0  0  0  0  0
  -28.1900  -13.4000   19.5650 C   0  0  0  0  0  3  0  0  0  0  0  0
  -29.2820  -13.2500   20.6500 C   0  0  0  0  0  2  0  0  0  0  0  0
  -30.5840  -13.5160   20.0220 N   0  0  0  0  0  0  0  0  0  0  0  0
  -32.4050  -14.8040   19.5920 O   0  0  0  0  0  0  0  0  0  0  0  0
  -30.5560  -15.8020   20.3730 N   0  0  0  0  0  0  0  0  0  0  0  0
  -29.6270  -15.6820   20.7520 H   0  0  0  0  0  0  0  0  0  0  0  0
  -25.8400  -14.0190   20.4060 C   0  0  0  0  0  0  0  0  0  0  0  0
  -24.7800  -13.2540   20.8050 C   0  0  0  0  0  0  0  0  0  0  0  0
  -25.2180  -11.8970   20.7140 C   0  0  0  0  0  0  0  0  0  0  0  0
  -26.8580  -13.1300   20.0990 N   0  0  0  0  0  0  0  0  0  0  0  0
  -26.4900  -11.8450   20.3460 N   0  0  0  0  0  0  0  0  0  0  0  0
  -24.4800  -10.6430   20.9020 C   0  0  0  0  0  0  0  0  0  0  0  0
  -24.8750   -9.6880   21.8630 C   0  0  0  0  0  3  0  0  0  0  0  0
  -24.1410   -8.4950   22.0370 C   0  0  0  0  0  3  0  0  0  0  0  0
  -22.9950   -8.2480   21.2450 C   0  0  0  0  0  0  0  0  0  0  0  0
  -22.6180   -9.1900   20.2700 C   0  0  0  0  0  3  0  0  0  0  0  0
  -23.3560  -10.3740   20.0960 C   0  0  0  0  0  3  0  0  0  0  0  0
  -22.2340   -7.1060   21.3270 O   0  0  0  0  0  0  0  0  0  0  0  0
  -22.0640   -6.4380   22.5140 C   0  0  0  0  0  0  0  0  0  0  0  0
  -21.4960   -7.0610   23.6450 C   0  0  0  0  0  3  0  0  0  0  0  0
  -21.2720   -6.3160   24.8210 C   0  0  0  0  0  3  0  0  0  0  0  0
  -21.6110   -4.9510   24.8650 C   0  0  0  0  0  0  0  0  0  0  0  0
  -22.1720   -4.3280   23.7370 C   0  0  0  0  0  3  0  0  0  0  0  0
  -22.3940   -5.0700   22.5640 C   0  0  0  0  0  0  0  0  0  0  0  0
  -22.9150   -4.4580   21.4720 F   0  0  0  0  0  0  0  0  0  0  0  0
  -21.3890   -4.2330   25.9920 F   0  0  0  0  0  0  0  0  0  0  0  0
  -23.4040  -13.7430   21.1520 C   0  0  0  0  0  0  0  0  0  0  0  0
  -22.7070  -13.0450   22.0400 N   0  0  0  0  0  0  0  0  0  0  0  0
  -22.9580  -14.7850   20.6700 O   0  0  0  0  0  0  0  0  0  0  0  0
  -23.0830  -12.2050   22.4550 H   0  0  0  0  0  0  0  0  0  0  0  0
  -21.7830  -13.3540   22.3070 H   0  0  0  0  0  0  0  0  0  0  0  0
  -26.0160  -15.3910   20.2540 N   0  0  0  0  0  0  0  0  0  0  0  0
  -25.2570  -16.0490   20.4020 H   0  0  0  0  0  0  0  0  0  0  0  0
  -26.8400  -15.8320   19.8670 H   0  0  0  0  0  0  0  0  0  0  0  0
  -29.4330  -24.4640   20.3470 C   0  0  0  0  0  3  0  0  0  0  0  0
  -30.7750  -24.7040   20.7310 O   0  0  0  0  0  0  0  0  0  0  0  0
  -31.0210  -25.5460   20.3580 H   0  0  0  0  0  0  0  0  0  0  0  0
  -28.5440  -25.6040   20.9140 C   0  0  0  0  0  2  0  0  0  0  0  0
  -28.6950  -26.8530   20.2160 O   0  0  0  0  0  0  0  0  0  0  0  0
  -24.9510  -31.8310   23.6810 C   0  0  0  0  0  0  0  0  0  0  0  0
  -27.5640  -27.6410   20.2540 C   0  0  0  0  0  0  0  0  0  0  0  0
  -23.7540  -30.6290   21.8830 C   0  0  0  0  0  3  0  0  0  0  0  0
  -25.2070  -29.1950   20.3510 C   0  0  0  0  0  0  0  0  0  0  0  0
  -26.2930  -30.9350   21.7830 C   0  0  0  0  0  2  0  0  0  0  0  0
  -26.3620  -29.6350   21.0100 C   0  0  0  0  0  0  0  0  0  0  0  0
  -27.5480  -28.8640   20.9580 C   0  0  0  0  0  3  0  0  0  0  0  0
  -26.3970  -27.2170   19.5820 C   0  0  0  0  0  3  0  0  0  0  0  0
  -25.2210  -27.9850   19.6370 C   0  0  0  0  0  3  0  0  0  0  0  0
  -23.9820  -30.0740   20.4520 C   0  0  0  0  0  2  0  0  0  0  0  0
  -25.0160  -31.1420   22.5070 N   0  0  0  0  0  0  0  0  0  0  0  0
  -23.8610  -32.0820   24.2160 O   0  0  0  0  0  0  0  0  0  0  0  0
  -23.0510  -29.5390   22.7240 C   0  0  0  0  0  0  0  0  0  0  0  0
  -21.7300  -29.3910   22.5250 N   0  0  0  0  0  0  0  0  0  0  0  0
  -23.6910  -28.8340   23.5060 O   0  0  0  0  0  0  0  0  0  0  0  0
  -21.2770  -30.0140   21.8720 H   0  0  0  0  0  0  0  0  0  0  0  0
  -18.3260  -28.2060   22.7580 C   0  0  0  0  0  0  0  0  0  0  0  0
  -20.8700  -28.4060   23.1750 C   0  0  0  0  0  3  0  0  0  0  0  0
  -20.9860  -27.0240   22.4890 C   0  0  0  0  0  2  0  0  0  0  0  0
  -19.9330  -26.8010   21.3980 C   0  0  0  0  0  2  0  0  0  0  0  0
  -18.5220  -26.9140   21.9830 C   0  0  0  0  0  2  0  0  0  0  0  0
  -19.4280  -28.9150   23.3030 C   0  0  0  0  0  0  0  0  0  0  0  0
  -19.1930  -30.1300   23.9810 C   0  0  0  0  0  3  0  0  0  0  0  0
  -17.8880  -30.6360   24.1210 C   0  0  0  0  0  3  0  0  0  0  0  0
  -16.7980  -29.9220   23.5940 C   0  0  0  0  0  3  0  0  0  0  0  0
  -17.0170  -28.7090   22.9190 C   0  0  0  0  0  3  0  0  0  0  0  0
  -26.2350  -32.3630   24.3900 C   0  0  0  0  0  3  0  0  0  0  0  0
  -25.9630  -33.7390   24.8240 N   0  0  0  0  0  0  0  0  0  0  0  0
  -26.3730  -34.8350   24.1720 C   0  0  0  0  0  0  0  0  0  0  0  0
  -27.0860  -34.7890   23.1660 O   0  0  0  0  0  0  0  0  0  0  0  0
  -25.3280  -33.8560   25.6000 H   0  0  0  0  0  0  0  0  0  0  0  0
  -24.7410  -36.7290   23.8850 C   0  0  0  0  0  1  0  0  0  0  0  0
  -25.9160  -36.1990   24.7230 C   0  0  0  0  0  3  0  0  0  0  0  0
  -28.0300  -36.9110   25.7480 C   0  0  0  0  0  1  0  0  0  0  0  0
  -26.9940  -37.2090   24.7600 N   0  0  0  0  0  0  0  0  0  0  0  0
  -26.6200  -38.1330   24.9610 H   0  0  0  0  0  0  0  0  0  0  0  0
  -26.6880  -31.4730   25.6110 C   0  0  1  0  0  0  0  0  0  0  0  0
  -25.5520  -31.1780   26.6180 C   0  0  0  0  0  1  0  0  0  0  0  0
  -27.2540  -30.1200   25.1210 C   0  0  0  0  0  1  0  0  0  0  0  0
  -27.8340  -32.1790   26.3760 C   0  0  0  0  0  1  0  0  0  0  0  0
  2  1  1  0
  3  2  1  0
  4  6  1  0
  6  2  1  0
  6  5  2  0
  7  4  2  0
  7  8  1  0
  8  5  1  0
  9  7  1  0
  9 18  1  0
 10 18  1  0
 11 16  1  0
 12 13  1  0
 12 11  1  0
 14 13  1  0
 14 23  1  0
 14 15  1  0
 16 10  1  0
 16 15  1  0
 17 10  2  0
 18 19  1  0
 20 21  2  0
 21 40  1  0
 22 21  1  0
 22 25  1  0
 23 24  1  0
 23 20  1  0
 24 22  2  0
 25 26  1  0
 26 27  2  0
 28 31  1  0
 28 27  1  0
 29 28  2  0
 30 29  1  0
 30 25  2  0
 31 32  1  0
 32 37  2  0
 32 33  1  0
 33 34  2  0
 34 35  1  0
 35 39  1  0
 36 35  2  0
 37 36  1  0
 38 37  1  0
 40 41  1  0
 41 44  1  0
 41 43  1  0
 42 40  2  0
 45 46  1  0
 45 20  1  0
 47 45  1  0
 48 49  1  0
 48  1  1  0
 48 51  1  0
 50 49  1  0
 52 54  1  0
 52 51  1  0
 53 64  2  0
 54 59  1  0
 55 63  1  0
 55 65  1  0
 56 62  1  0
 56 58  1  0
 57 63  1  0
 58 57  1  0
 59 58  2  0
 60 61  1  0
 60 54  2  0
 61 56  2  0
 62 55  1  0
 63 53  1  0
 65 67  2  0
 66 65  1  0
 68 66  1  0
 69 78  2  0
 69 74  1  0
 70 66  1  0
 70 74  1  0
 71 70  1  0
 72 73  1  0
 72 71  1  0
 73 69  1  0
 74 75  2  0
 75 76  1  0
 77 76  2  0
 78 77  1  0
 79 53  1  0
 79 80  1  0
 79 89  1  0
 80 83  1  0
 81 85  1  0
 81 80  1  0
 82 81  2  0
 85 84  1  0
 85 87  1  0
 87 88  1  0
 87 86  1  0
 89 92  1  1
 89 90  1  0
 91 89  1  0
M  ISO  4  10 100  18 100  51 101  52 101
M  END
>  <TORSDO>  (63) 
F 22

>  <SCORE>  (63) 
-12.052

>  <name>  (63) 
62

>  <ligand_id>  (63) 
62

>  <original_smiles>  (63) 
[H]OC([H])(C([H])([H])Oc1c([H])c([H])c2c(c1[H])C([H])([H])N(C(=O)C([H])(N([H])C(=O)C([H])(N([H])C([H])([H])[H])C([H])([H])[H])C(C([H])([H])[H])(C([H])([H])[H])C([H])([H])[H])C([H])(C(=O)N([H])C1([H])c3c([H])c([H])c([H])c([H])c3C([H])([H])C([H])([H])C1([H])[H])C2([H])[H])C([H])([H])N([H])c1c([H])sc(C([H])([H])N([H])C(=O)N2C([H])([H])C([H])([H])C([H])([H])C([H])(n3nc(-c4c([H])c([H])c(Oc5c([H])c([H])c(F)c([H])c5F)c([H])c4[H])c(C(=O)N([H])[H])c3N([H])[H])C2([H])[H])c1[H]

>  <smiles>  (63) 
[H]OC([H])(C([H])([H])Oc1c([H])c([H])c2c(c1[H])C([H])([H])N(C(=O)C([H])(N([H])C(=O)C([H])(N([H])C([H])([H])[H])C([H])([H])[H])C(C([H])([H])[H])(C([H])([H])[H])C([H])([H])[H])C([H])(C(=O)N([H])C1([H])c3c([H])c([H])c([H])c([H])c3C([H])([H])C([H])([H])C1([H])[H])C2([H])[H])C([H])([H])N([H])c1c([H])sc(C([H])([H])N([H])C(=O)N2C([H])([H])C([H])([H])C([H])([H])C([H])(n3nc(-c4c([H])c([H])c(Oc5c([H])c([H])c(F)c([H])c5F)c([H])c4[H])c(C(=O)N([H])[H])c3N([H])[H])C2([H])[H])c1[H]

$$$$
63:0:0
     RDKit          3D

 90 98  0  0  1  0  0  0  0  0999 V2000
  -28.6900  -18.8440   20.2980 C   0  0  0  0  0  3  0  0  0  0  0  0
  -30.3240  -20.9070   20.9490 C   0  0  0  0  0  3  0  0  0  0  0  0
  -29.9990  -18.5690   20.7760 C   0  0  0  0  0  0  0  0  0  0  0  0
  -29.0110  -21.1820   20.4740 C   0  0  0  0  0  0  0  0  0  0  0  0
  -30.8010  -19.6300   21.0960 N   0  0  0  0  0  0  0  0  0  0  0  0
  -28.2090  -20.1260   20.1570 N   0  0  0  0  0  0  0  0  0  0  0  0
  -28.4310  -22.4780   20.2920 N   0  0  0  0  0  0  0  0  0  0  0  0
  -27.4670  -22.4720   19.9720 H   0  0  0  0  0  0  0  0  0  0  0  0
  -30.6700  -17.1530   20.9450 C   0  0  0  0  0  2  0  0  0  0  0  0
  -30.6520  -14.6650   20.4510 C   0  0  0  0  0  0  0  0  0  0  0  0
  -30.3620  -12.4440   19.3820 C   0  0  0  0  0  2  0  0  0  0  0  0
  -29.4260  -12.5630   18.1620 C   0  0  0  0  0  2  0  0  0  0  0  0
  -27.9580  -12.3990   18.5950 C   0  0  0  0  0  2  0  0  0  0  0  0
  -27.5970  -13.2720   19.8270 C   0  0  0  0  0  3  0  0  0  0  0  0
  -28.6580  -13.1640   20.9440 C   0  0  0  0  0  2  0  0  0  0  0  0
  -29.9620  -13.4860   20.3510 N   0  0  0  0  0  0  0  0  0  0  0  0
  -31.8270  -14.7300   20.0850 O   0  0  0  0  0  0  0  0  0  0  0  0
  -29.9850  -15.8170   20.7880 N   0  0  0  0  0  0  0  0  0  0  0  0
  -29.0110  -15.7470   21.0390 H   0  0  0  0  0  0  0  0  0  0  0  0
  -25.2050  -13.8560   20.5530 C   0  0  0  0  0  0  0  0  0  0  0  0
  -24.1420  -13.0770   20.9190 C   0  0  0  0  0  0  0  0  0  0  0  0
  -24.6080  -11.7270   20.8830 C   0  0  0  0  0  0  0  0  0  0  0  0
  -26.2530  -12.9800   20.3150 N   0  0  0  0  0  0  0  0  0  0  0  0
  -25.8990  -11.6950   20.5760 N   0  0  0  0  0  0  0  0  0  0  0  0
  -23.8870  -10.4620   21.0660 C   0  0  0  0  0  0  0  0  0  0  0  0
  -24.3230   -9.4890   21.9930 C   0  0  0  0  0  3  0  0  0  0  0  0
  -23.5990   -8.2880   22.1650 C   0  0  0  0  0  3  0  0  0  0  0  0
  -22.4260   -8.0520   21.4100 C   0  0  0  0  0  0  0  0  0  0  0  0
  -22.0100   -9.0130   20.4730 C   0  0  0  0  0  3  0  0  0  0  0  0
  -22.7330  -10.2050   20.2990 C   0  0  0  0  0  3  0  0  0  0  0  0
  -21.6750   -6.9050   21.4920 O   0  0  0  0  0  0  0  0  0  0  0  0
  -21.6240   -6.1580   22.6410 C   0  0  0  0  0  0  0  0  0  0  0  0
  -21.1750   -6.7030   23.8640 C   0  0  0  0  0  3  0  0  0  0  0  0
  -21.0730   -5.8820   25.0050 C   0  0  0  0  0  3  0  0  0  0  0  0
  -21.4110   -4.5180   24.9250 C   0  0  0  0  0  0  0  0  0  0  0  0
  -21.8530   -3.9720   23.7070 C   0  0  0  0  0  3  0  0  0  0  0  0
  -21.9560   -4.7910   22.5670 C   0  0  0  0  0  0  0  0  0  0  0  0
  -22.3630   -4.2550   21.3910 F   0  0  0  0  0  0  0  0  0  0  0  0
  -21.3050   -3.7270   26.0180 F   0  0  0  0  0  0  0  0  0  0  0  0
  -22.7430  -13.5490   21.1910 C   0  0  0  0  0  0  0  0  0  0  0  0
  -22.0200  -12.8500   22.0590 N   0  0  0  0  0  0  0  0  0  0  0  0
  -22.3000  -14.5710   20.6710 O   0  0  0  0  0  0  0  0  0  0  0  0
  -22.3910  -12.0220   22.5020 H   0  0  0  0  0  0  0  0  0  0  0  0
  -21.0810  -13.1470   22.2850 H   0  0  0  0  0  0  0  0  0  0  0  0
  -25.3650  -15.2270   20.3780 N   0  0  0  0  0  0  0  0  0  0  0  0
  -24.5920  -15.8770   20.4750 H   0  0  0  0  0  0  0  0  0  0  0  0
  -26.2070  -15.6650   20.0290 H   0  0  0  0  0  0  0  0  0  0  0  0
  -29.0240  -23.8390   20.5110 C   0  0  0  0  0  2  0  0  0  0  0  0
  -28.0280  -25.0250   20.1240 C   0  0  0  0  0  2  0  0  0  0  0  0
  -28.3100  -26.4640   20.3560 O   0  0  0  0  0  0  0  0  0  0  0  0
  -24.6190  -31.9330   23.3080 C   0  0  0  0  0  0  0  0  0  0  0  0
  -27.2130  -27.3460   20.2780 C   0  0  0  0  0  0  0  0  0  0  0  0
  -23.4160  -30.5430   21.6620 C   0  0  0  0  0  3  0  0  0  0  0  0
  -24.8640  -28.9860   20.2480 C   0  0  0  0  0  0  0  0  0  0  0  0
  -25.9600  -30.8390   21.4990 C   0  0  0  0  0  2  0  0  0  0  0  0
  -26.0340  -29.4600   20.8550 C   0  0  0  0  0  0  0  0  0  0  0  0
  -27.2110  -28.6520   20.8620 C   0  0  0  0  0  3  0  0  0  0  0  0
  -26.0180  -26.9380   19.6350 C   0  0  0  0  0  3  0  0  0  0  0  0
  -24.8590  -27.7300   19.6300 C   0  0  0  0  0  3  0  0  0  0  0  0
  -23.6350  -29.8690   20.2820 C   0  0  0  0  0  2  0  0  0  0  0  0
  -24.6840  -31.1210   22.2130 N   0  0  0  0  0  0  0  0  0  0  0  0
  -23.5330  -32.2210   23.8340 O   0  0  0  0  0  0  0  0  0  0  0  0
  -22.7380  -29.5290   22.6160 C   0  0  0  0  0  0  0  0  0  0  0  0
  -21.4120  -29.3620   22.4760 N   0  0  0  0  0  0  0  0  0  0  0  0
  -23.4040  -28.9000   23.4410 O   0  0  0  0  0  0  0  0  0  0  0  0
  -20.9350  -29.9250   21.7870 H   0  0  0  0  0  0  0  0  0  0  0  0
  -18.0180  -28.2040   22.9590 C   0  0  0  0  0  0  0  0  0  0  0  0
  -20.5780  -28.4340   23.2420 C   0  0  0  0  0  3  0  0  0  0  0  0
  -20.6660  -27.0000   22.6680 C   0  0  0  0  0  2  0  0  0  0  0  0
  -19.5650  -26.6910   21.6480 C   0  0  0  0  0  2  0  0  0  0  0  0
  -18.1810  -26.8530   22.2850 C   0  0  0  0  0  2  0  0  0  0  0  0
  -19.1430  -28.9540   23.3940 C   0  0  0  0  0  0  0  0  0  0  0  0
  -18.9370  -30.2190   23.9840 C   0  0  0  0  0  3  0  0  0  0  0  0
  -17.6370  -30.7350   24.1450 C   0  0  0  0  0  3  0  0  0  0  0  0
  -16.5260  -29.9830   23.7260 C   0  0  0  0  0  3  0  0  0  0  0  0
  -16.7180  -28.7210   23.1380 C   0  0  0  0  0  3  0  0  0  0  0  0
  -25.9020  -32.5550   23.9380 C   0  0  0  0  0  3  0  0  0  0  0  0
  -26.3920  -31.7920   25.2290 C   0  0  1  0  0  0  0  0  0  0  0  0
  -25.2820  -31.5770   26.2840 C   0  0  0  0  0  1  0  0  0  0  0  0
  -26.9660  -30.4040   24.8610 C   0  0  0  0  0  1  0  0  0  0  0  0
  -27.5430  -32.5810   25.8980 C   0  0  0  0  0  1  0  0  0  0  0  0
  -25.6040  -33.9600   24.2500 N   0  0  0  0  0  0  0  0  0  0  0  0
  -25.9350  -35.0000   23.4720 C   0  0  0  0  0  0  0  0  0  0  0  0
  -26.5930  -34.8780   22.4360 O   0  0  0  0  0  0  0  0  0  0  0  0
  -25.0160  -34.1280   25.0520 H   0  0  0  0  0  0  0  0  0  0  0  0
  -24.2060  -36.7950   23.1200 C   0  0  0  0  0  1  0  0  0  0  0  0
  -25.4610  -36.3990   23.9150 C   0  0  0  0  0  3  0  0  0  0  0  0
  -27.6130  -37.2900   24.6930 C   0  0  0  0  0  1  0  0  0  0  0  0
  -26.4950  -37.4450   23.7650 N   0  0  0  0  0  0  0  0  0  0  0  0
  -26.0950  -38.3700   23.9030 H   0  0  0  0  0  0  0  0  0  0  0  0
  1  3  1  0
  2  5  1  0
  3  9  1  0
  3  5  2  0
  4  2  2  0
  6  1  2  0
  6  4  1  0
  7  4  1  0
  7 48  1  0
  8  7  1  0
 10 18  1  0
 11 16  1  0
 12 13  1  0
 12 11  1  0
 14 13  1  0
 14 23  1  0
 14 15  1  0
 16 10  1  0
 16 15  1  0
 17 10  2  0
 18  9  1  0
 18 19  1  0
 20 21  2  0
 21 40  1  0
 22 21  1  0
 22 25  1  0
 23 20  1  0
 23 24  1  0
 24 22  2  0
 25 26  1  0
 26 27  2  0
 28 31  1  0
 28 27  1  0
 29 28  2  0
 30 29  1  0
 30 25  2  0
 31 32  1  0
 32 33  1  0
 33 34  2  0
 35 34  1  0
 35 39  1  0
 36 35  2  0
 37 32  2  0
 37 36  1  0
 38 37  1  0
 40 41  1  0
 41 44  1  0
 41 43  1  0
 42 40  2  0
 45 46  1  0
 45 20  1  0
 47 45  1  0
 49 50  1  0
 49 48  1  0
 51 62  2  0
 52 50  1  0
 52 57  1  0
 53 61  1  0
 53 63  1  0
 54 60  1  0
 54 56  1  0
 55 61  1  0
 56 57  2  0
 56 55  1  0
 58 52  2  0
 59 58  1  0
 59 54  2  0
 60 53  1  0
 61 51  1  0
 63 65  2  0
 64 63  1  0
 66 64  1  0
 67 76  2  0
 67 72  1  0
 68 64  1  0
 68 72  1  0
 69 68  1  0
 70 71  1  0
 70 69  1  0
 71 67  1  0
 72 73  2  0
 73 74  1  0
 75 74  2  0
 76 75  1  0
 77 51  1  0
 77 82  1  0
 77 78  1  0
 78 81  1  1
 78 79  1  0
 80 78  1  0
 82 85  1  0
 83 87  1  0
 83 82  1  0
 84 83  2  0
 87 86  1  0
 89 90  1  0
 89 87  1  0
 89 88  1  0
M  ISO  4  10 100  18 100  49 101  50 101
M  END
>  <TORSDO>  (64) 
F 19

>  <SCORE>  (64) 
-14.304

>  <name>  (64) 
63

>  <ligand_id>  (64) 
63

>  <original_smiles>  (64) 
[H]c1nc(C([H])([H])N([H])C(=O)N2C([H])([H])C([H])([H])C([H])([H])C([H])(n3nc(-c4c([H])c([H])c(Oc5c([H])c([H])c(F)c([H])c5F)c([H])c4[H])c(C(=O)N([H])[H])c3N([H])[H])C2([H])[H])c([H])nc1N([H])C([H])([H])C([H])([H])Oc1c([H])c([H])c2c(c1[H])C([H])([H])N(C(=O)C([H])(N([H])C(=O)C([H])(N([H])C([H])([H])[H])C([H])([H])[H])C(C([H])([H])[H])(C([H])([H])[H])C([H])([H])[H])C([H])(C(=O)N([H])C1([H])c3c([H])c([H])c([H])c([H])c3C([H])([H])C([H])([H])C1([H])[H])C2([H])[H]

>  <smiles>  (64) 
[H]c1nc(C([H])([H])N([H])C(=O)N2C([H])([H])C([H])([H])C([H])([H])C([H])(n3nc(-c4c([H])c([H])c(Oc5c([H])c([H])c(F)c([H])c5F)c([H])c4[H])c(C(=O)N([H])[H])c3N([H])[H])C2([H])[H])c([H])nc1N([H])C([H])([H])C([H])([H])Oc1c([H])c([H])c2c(c1[H])C([H])([H])N(C(=O)C([H])(N([H])C(=O)C([H])(N([H])C([H])([H])[H])C([H])([H])[H])C(C([H])([H])[H])(C([H])([H])[H])C([H])([H])[H])C([H])(C(=O)N([H])C1([H])c3c([H])c([H])c([H])c([H])c3C([H])([H])C([H])([H])C1([H])[H])C2([H])[H]

$$$$
64:0:0
     RDKit          3D

 92100  0  0  1  0  0  0  0  0999 V2000
  -28.6900  -22.8920   20.5960 C   0  0  0  0  0  2  0  0  0  0  0  0
  -30.0050  -19.4300   19.5690 C   0  0  0  0  0  3  0  0  0  0  0  0
  -29.7700  -18.1740   20.0630 C   0  0  0  0  0  0  0  0  0  0  0  0
  -29.1990  -20.4230   20.1990 C   0  0  0  0  0  0  0  0  0  0  0  0
  -28.3630  -19.9990   21.1230 N   0  0  0  0  0  0  0  0  0  0  0  0
  -29.2980  -21.7860   19.8590 N   0  0  0  0  0  0  0  0  0  0  0  0
  -28.5350  -18.3220   21.2760 S   0  0  0  0  0  0  0  0  0  0  0  0
  -29.9830  -22.0380   19.1550 H   0  0  0  0  0  0  0  0  0  0  0  0
  -30.4950  -16.9120   19.6710 C   0  0  0  0  0  2  0  0  0  0  0  0
  -30.7340  -14.5020   20.0010 C   0  0  0  0  0  0  0  0  0  0  0  0
  -30.3210  -12.3430   18.9220 C   0  0  0  0  0  2  0  0  0  0  0  0
  -29.3230  -12.5820   17.7720 C   0  0  0  0  0  2  0  0  0  0  0  0
  -27.8750  -12.4630   18.2820 C   0  0  0  0  0  2  0  0  0  0  0  0
  -27.6190  -13.2800   19.5780 C   0  0  0  0  0  3  0  0  0  0  0  0
  -28.7440  -13.0740   20.6170 C   0  0  0  0  0  2  0  0  0  0  0  0
  -30.0280  -13.3420   19.9580 N   0  0  0  0  0  0  0  0  0  0  0  0
  -31.8870  -14.5890   19.5740 O   0  0  0  0  0  0  0  0  0  0  0  0
  -30.0250  -15.6270   20.2190 N   0  0  0  0  0  0  0  0  0  0  0  0
  -29.0570  -15.5390   20.4850 H   0  0  0  0  0  0  0  0  0  0  0  0
  -25.2770  -13.8740   20.4570 C   0  0  0  0  0  0  0  0  0  0  0  0
  -24.2330  -13.0940   20.8830 C   0  0  0  0  0  0  0  0  0  0  0  0
  -24.6870  -11.7440   20.7970 C   0  0  0  0  0  0  0  0  0  0  0  0
  -26.3020  -12.9950   20.1430 N   0  0  0  0  0  0  0  0  0  0  0  0
  -25.9550  -11.7090   20.4050 N   0  0  0  0  0  0  0  0  0  0  0  0
  -23.9710  -10.4790   21.0110 C   0  0  0  0  0  0  0  0  0  0  0  0
  -24.4470   -9.5070   21.9180 C   0  0  0  0  0  3  0  0  0  0  0  0
  -23.7320   -8.3080   22.1210 C   0  0  0  0  0  3  0  0  0  0  0  0
  -22.5250   -8.0720   21.4190 C   0  0  0  0  0  0  0  0  0  0  0  0
  -22.0670   -9.0350   20.5030 C   0  0  0  0  0  3  0  0  0  0  0  0
  -22.7810  -10.2270   20.2970 C   0  0  0  0  0  3  0  0  0  0  0  0
  -21.7780   -6.9250   21.5320 O   0  0  0  0  0  0  0  0  0  0  0  0
  -21.7620   -6.1880   22.6900 C   0  0  0  0  0  0  0  0  0  0  0  0
  -21.3870   -6.7530   23.9280 C   0  0  0  0  0  3  0  0  0  0  0  0
  -21.3160   -5.9420   25.0790 C   0  0  0  0  0  3  0  0  0  0  0  0
  -21.6100   -4.5680   24.9910 C   0  0  0  0  0  0  0  0  0  0  0  0
  -21.9770   -4.0010   23.7580 C   0  0  0  0  0  3  0  0  0  0  0  0
  -22.0510   -4.8100   22.6100 C   0  0  0  0  0  0  0  0  0  0  0  0
  -22.3840   -4.2560   21.4190 F   0  0  0  0  0  0  0  0  0  0  0  0
  -21.5360   -3.7870   26.0950 F   0  0  0  0  0  0  0  0  0  0  0  0
  -22.8580  -13.5690   21.2520 C   0  0  0  0  0  0  0  0  0  0  0  0
  -22.1890  -12.8630   22.1560 N   0  0  0  0  0  0  0  0  0  0  0  0
  -22.3880  -14.6000   20.7750 O   0  0  0  0  0  0  0  0  0  0  0  0
  -22.5840  -12.0300   22.5660 H   0  0  0  0  0  0  0  0  0  0  0  0
  -21.2660  -13.1610   22.4400 H   0  0  0  0  0  0  0  0  0  0  0  0
  -25.4300  -15.2470   20.2910 N   0  0  0  0  0  0  0  0  0  0  0  0
  -24.6600  -15.8900   20.4460 H   0  0  0  0  0  0  0  0  0  0  0  0
  -26.2410  -15.6970   19.8860 H   0  0  0  0  0  0  0  0  0  0  0  0
  -30.4400  -24.5590   19.8380 C   0  0  0  0  0  1  0  0  0  0  0  0
  -28.3040  -24.2650   18.5030 C   0  0  0  0  0  1  0  0  0  0  0  0
  -28.9270  -24.2780   19.9150 C   0  0  1  0  0  0  0  0  0  0  0  0
  -28.2660  -25.4050   20.7590 C   0  0  0  0  0  2  0  0  0  0  0  0
  -28.4080  -26.7150   20.1750 O   0  0  0  0  0  0  0  0  0  0  0  0
  -24.5960  -31.8840   23.2240 C   0  0  0  0  0  0  0  0  0  0  0  0
  -27.2540  -27.4610   20.1490 C   0  0  0  0  0  0  0  0  0  0  0  0
  -23.3910  -30.4700   21.5920 C   0  0  0  0  0  3  0  0  0  0  0  0
  -24.8490  -28.9450   20.1590 C   0  0  0  0  0  0  0  0  0  0  0  0
  -25.9130  -30.8520   21.3790 C   0  0  0  0  0  2  0  0  0  0  0  0
  -26.0060  -29.4820   20.7400 C   0  0  0  0  0  0  0  0  0  0  0  0
  -27.2150  -28.7500   20.7260 C   0  0  0  0  0  3  0  0  0  0  0  0
  -26.0860  -26.9440   19.5490 C   0  0  0  0  0  3  0  0  0  0  0  0
  -24.8840  -27.6760   19.5580 C   0  0  0  0  0  3  0  0  0  0  0  0
  -23.5980  -29.7910   20.2110 C   0  0  0  0  0  2  0  0  0  0  0  0
  -24.6510  -31.0840   22.1230 N   0  0  0  0  0  0  0  0  0  0  0  0
  -23.5160  -32.1480   23.7720 O   0  0  0  0  0  0  0  0  0  0  0  0
  -22.7550  -29.4440   22.5570 C   0  0  0  0  0  0  0  0  0  0  0  0
  -21.4310  -29.2480   22.4360 N   0  0  0  0  0  0  0  0  0  0  0  0
  -23.4470  -28.8280   23.3710 O   0  0  0  0  0  0  0  0  0  0  0  0
  -20.9330  -29.8010   21.7520 H   0  0  0  0  0  0  0  0  0  0  0  0
  -18.0710  -28.0230   22.9420 C   0  0  0  0  0  0  0  0  0  0  0  0
  -20.6270  -28.3040   23.2110 C   0  0  0  0  0  3  0  0  0  0  0  0
  -20.7420  -26.8730   22.6380 C   0  0  0  0  0  2  0  0  0  0  0  0
  -19.6410  -26.5370   21.6250 C   0  0  0  0  0  2  0  0  0  0  0  0
  -18.2600  -26.6730   22.2700 C   0  0  0  0  0  2  0  0  0  0  0  0
  -19.1830  -28.7960   23.3690 C   0  0  0  0  0  0  0  0  0  0  0  0
  -18.9540  -30.0600   23.9520 C   0  0  0  0  0  3  0  0  0  0  0  0
  -17.6450  -30.5530   24.1140 C   0  0  0  0  0  3  0  0  0  0  0  0
  -16.5470  -29.7760   23.7060 C   0  0  0  0  0  3  0  0  0  0  0  0
  -16.7610  -28.5120   23.1280 C   0  0  0  0  0  3  0  0  0  0  0  0
  -25.8820  -32.5260   23.8370 C   0  0  0  0  0  3  0  0  0  0  0  0
  -26.4140  -31.7570   25.1070 C   0  0  1  0  0  0  0  0  0  0  0  0
  -25.3300  -31.5110   26.1830 C   0  0  0  0  0  1  0  0  0  0  0  0
  -27.0060  -30.3850   24.7090 C   0  0  0  0  0  1  0  0  0  0  0  0
  -27.5650  -32.5580   25.7620 C   0  0  0  0  0  1  0  0  0  0  0  0
  -25.5670  -33.9220   24.1660 N   0  0  0  0  0  0  0  0  0  0  0  0
  -25.8840  -34.9730   23.3990 C   0  0  0  0  0  0  0  0  0  0  0  0
  -26.5460  -34.8710   22.3630 O   0  0  0  0  0  0  0  0  0  0  0  0
  -24.9830  -34.0750   24.9750 H   0  0  0  0  0  0  0  0  0  0  0  0
  -24.1310  -36.7410   23.0560 C   0  0  0  0  0  1  0  0  0  0  0  0
  -25.3890  -36.3580   23.8540 C   0  0  0  0  0  3  0  0  0  0  0  0
  -27.5280  -37.2680   24.6450 C   0  0  0  0  0  1  0  0  0  0  0  0
  -26.4100  -37.4200   23.7180 N   0  0  0  0  0  0  0  0  0  0  0  0
  -25.9970  -38.3370   23.8660 H   0  0  0  0  0  0  0  0  0  0  0  0
  2  3  2  0
  2  4  1  0
  3  7  1  0
  4  5  2  0
  5  7  1  0
  6  4  1  0
  6  1  1  0
  8  6  1  0
  9  3  1  0
  9 18  1  0
 10 18  1  0
 11 16  1  0
 12 13  1  0
 12 11  1  0
 14 13  1  0
 14 23  1  0
 14 15  1  0
 16 10  1  0
 16 15  1  0
 17 10  2  0
 18 19  1  0
 20 21  2  0
 21 40  1  0
 22 21  1  0
 22 25  1  0
 23 24  1  0
 23 20  1  0
 24 22  2  0
 25 26  1  0
 26 27  2  0
 28 31  1  0
 28 27  1  0
 29 28  2  0
 30 29  1  0
 30 25  2  0
 31 32  1  0
 32 33  1  0
 33 34  2  0
 35 34  1  0
 35 39  1  0
 36 35  2  0
 37 32  2  0
 37 36  1  0
 38 37  1  0
 40 41  1  0
 41 44  1  0
 41 43  1  0
 42 40  2  0
 45 46  1  0
 45 20  1  0
 47 45  1  0
 50 48  1  6
 49 50  1  0
 50  1  1  0
 50 51  1  0
 52 51  1  0
 53 64  2  0
 54 52  1  0
 54 59  1  0
 55 63  1  0
 55 65  1  0
 56 62  1  0
 56 58  1  0
 57 63  1  0
 58 57  1  0
 59 58  2  0
 60 61  1  0
 60 54  2  0
 61 56  2  0
 62 55  1  0
 63 53  1  0
 65 67  2  0
 66 65  1  0
 68 66  1  0
 69 78  2  0
 69 74  1  0
 70 66  1  0
 70 74  1  0
 71 70  1  0
 72 73  1  0
 72 71  1  0
 73 69  1  0
 74 75  2  0
 75 76  1  0
 77 76  2  0
 78 77  1  0
 79 53  1  0
 79 84  1  0
 79 80  1  0
 80 83  1  1
 80 81  1  0
 82 80  1  0
 84 87  1  0
 85 89  1  0
 85 84  1  0
 86 85  2  0
 89 88  1  0
 91 89  1  0
 91 92  1  0
 91 90  1  0
M  ISO  4  10 100  18 100  51 101  52 101
M  END
>  <TORSDO>  (65) 
F 20

>  <SCORE>  (65) 
-12.328

>  <name>  (65) 
64

>  <ligand_id>  (65) 
64

>  <original_smiles>  (65) 
[H]c1c(N([H])C([H])([H])C(C([H])([H])[H])(C([H])([H])[H])C([H])([H])Oc2c([H])c([H])c3c(c2[H])C([H])([H])N(C(=O)C([H])(N([H])C(=O)C([H])(N([H])C([H])([H])[H])C([H])([H])[H])C(C([H])([H])[H])(C([H])([H])[H])C([H])([H])[H])C([H])(C(=O)N([H])C2([H])c4c([H])c([H])c([H])c([H])c4C([H])([H])C([H])([H])C2([H])[H])C3([H])[H])nsc1C([H])([H])N([H])C(=O)N1C([H])([H])C([H])([H])C([H])([H])C([H])(n2nc(-c3c([H])c([H])c(Oc4c([H])c([H])c(F)c([H])c4F)c([H])c3[H])c(C(=O)N([H])[H])c2N([H])[H])C1([H])[H]

>  <smiles>  (65) 
[H]c1c(N([H])C([H])([H])C(C([H])([H])[H])(C([H])([H])[H])C([H])([H])Oc2c([H])c([H])c3c(c2[H])C([H])([H])N(C(=O)C([H])(N([H])C(=O)C([H])(N([H])C([H])([H])[H])C([H])([H])[H])C(C([H])([H])[H])(C([H])([H])[H])C([H])([H])[H])C([H])(C(=O)N([H])C2([H])c4c([H])c([H])c([H])c([H])c4C([H])([H])C([H])([H])C2([H])[H])C3([H])[H])nsc1C([H])([H])N([H])C(=O)N1C([H])([H])C([H])([H])C([H])([H])C([H])(n2nc(-c3c([H])c([H])c(Oc4c([H])c([H])c(F)c([H])c4F)c([H])c3[H])c(C(=O)N([H])[H])c2N([H])[H])C1([H])[H]

$$$$
65:0:0
     RDKit          3D

 91 99  0  0  1  0  0  0  0  0999 V2000
  -28.7970  -22.4690   20.2760 C   0  0  0  0  0  0  0  0  0  0  0  0
  -29.7670  -21.5000   20.2960 N   0  0  0  0  0  0  0  0  0  0  0  0
  -27.6010  -22.1850   20.1610 O   0  0  0  0  0  0  0  0  0  0  0  0
  -30.7110  -21.8610   20.3020 H   0  0  0  0  0  0  0  0  0  0  0  0
  -30.5710  -14.7080   20.2920 C   0  0  0  0  0  0  0  0  0  0  0  0
  -30.3540  -12.4660   19.2410 C   0  0  0  0  0  2  0  0  0  0  0  0
  -29.3940  -12.6060   18.0390 C   0  0  0  0  0  2  0  0  0  0  0  0
  -27.9250  -12.4450   18.4870 C   0  0  0  0  0  2  0  0  0  0  0  0
  -27.5840  -13.2980   19.7380 C   0  0  0  0  0  3  0  0  0  0  0  0
  -28.6610  -13.1360   20.8350 C   0  0  0  0  0  2  0  0  0  0  0  0
  -29.9610  -13.4810   20.2370 N   0  0  0  0  0  0  0  0  0  0  0  0
  -31.7330  -14.8600   19.8990 O   0  0  0  0  0  0  0  0  0  0  0  0
  -30.8880  -19.2890   20.1170 C   0  0  0  0  0  3  0  0  0  0  0  0
  -28.6490  -17.9520   20.6810 C   0  0  0  0  0  3  0  0  0  0  0  0
  -29.6900  -20.0370   20.3340 C   0  0  0  0  0  0  0  0  0  0  0  0
  -29.8470  -17.2040   20.4800 C   0  0  0  0  0  0  0  0  0  0  0  0
  -28.5640  -19.3180   20.6100 N   0  0  0  0  0  0  0  0  0  0  0  0
  -30.9720  -17.9180   20.1820 N   0  0  0  0  0  0  0  0  0  0  0  0
  -29.7490  -15.7520   20.6240 N   0  0  0  0  0  0  0  0  0  0  0  0
  -28.8410  -15.4380   20.9250 H   0  0  0  0  0  0  0  0  0  0  0  0
  -25.2060  -13.9000   20.5070 C   0  0  0  0  0  0  0  0  0  0  0  0
  -24.1430  -13.1270   20.8870 C   0  0  0  0  0  0  0  0  0  0  0  0
  -24.5980  -11.7750   20.8310 C   0  0  0  0  0  0  0  0  0  0  0  0
  -26.2420  -13.0180   20.2430 N   0  0  0  0  0  0  0  0  0  0  0  0
  -25.8830  -11.7340   20.4990 N   0  0  0  0  0  0  0  0  0  0  0  0
  -23.8700  -10.5140   21.0190 C   0  0  0  0  0  0  0  0  0  0  0  0
  -24.3000   -9.5450   21.9520 C   0  0  0  0  0  3  0  0  0  0  0  0
  -23.5730   -8.3480   22.1290 C   0  0  0  0  0  3  0  0  0  0  0  0
  -22.4010   -8.1110   21.3710 C   0  0  0  0  0  0  0  0  0  0  0  0
  -21.9900   -9.0690   20.4280 C   0  0  0  0  0  3  0  0  0  0  0  0
  -22.7170  -10.2580   20.2500 C   0  0  0  0  0  3  0  0  0  0  0  0
  -21.6460   -6.9670   21.4560 O   0  0  0  0  0  0  0  0  0  0  0  0
  -21.5700   -6.2390   22.6160 C   0  0  0  0  0  0  0  0  0  0  0  0
  -21.0710   -6.7940   23.8140 C   0  0  0  0  0  3  0  0  0  0  0  0
  -20.9450   -5.9900   24.9640 C   0  0  0  0  0  3  0  0  0  0  0  0
  -21.3100   -4.6310   24.9170 C   0  0  0  0  0  0  0  0  0  0  0  0
  -21.8030   -4.0750   23.7230 C   0  0  0  0  0  3  0  0  0  0  0  0
  -21.9290   -4.8760   22.5760 C   0  0  0  0  0  0  0  0  0  0  0  0
  -22.3850   -4.3310   21.4230 F   0  0  0  0  0  0  0  0  0  0  0  0
  -21.1820   -3.8550   26.0190 F   0  0  0  0  0  0  0  0  0  0  0  0
  -22.7520  -13.6080   21.1870 C   0  0  0  0  0  0  0  0  0  0  0  0
  -22.0370  -12.9090   22.0620 N   0  0  0  0  0  0  0  0  0  0  0  0
  -22.3090  -14.6380   20.6790 O   0  0  0  0  0  0  0  0  0  0  0  0
  -22.4100  -12.0780   22.4950 H   0  0  0  0  0  0  0  0  0  0  0  0
  -21.1050  -13.2140   22.3030 H   0  0  0  0  0  0  0  0  0  0  0  0
  -25.3700  -15.2720   20.3420 N   0  0  0  0  0  0  0  0  0  0  0  0
  -24.5870  -15.9080   20.4510 H   0  0  0  0  0  0  0  0  0  0  0  0
  -26.1730  -15.7060   19.9090 H   0  0  0  0  0  0  0  0  0  0  0  0
  -29.1950  -23.9980   20.3930 C   0  0  0  0  0  3  0  0  0  0  0  0
  -28.0880  -25.0780   20.0190 C   0  0  0  0  0  3  0  0  0  0  0  0
  -28.3270  -26.5270   20.2370 O   0  0  0  0  0  0  0  0  0  0  0  0
  -24.6280  -31.9350   23.2710 C   0  0  0  0  0  0  0  0  0  0  0  0
  -27.2130  -27.3850   20.1820 C   0  0  0  0  0  0  0  0  0  0  0  0
  -23.4160  -30.5530   21.6240 C   0  0  0  0  0  3  0  0  0  0  0  0
  -24.8550  -29.0090   20.1860 C   0  0  0  0  0  0  0  0  0  0  0  0
  -25.9570  -30.8600   21.4420 C   0  0  0  0  0  2  0  0  0  0  0  0
  -26.0280  -29.4870   20.7830 C   0  0  0  0  0  0  0  0  0  0  0  0
  -27.2100  -28.6870   20.7720 C   0  0  0  0  0  3  0  0  0  0  0  0
  -26.0140  -26.9630   19.5610 C   0  0  0  0  0  3  0  0  0  0  0  0
  -24.8500  -27.7510   19.5680 C   0  0  0  0  0  3  0  0  0  0  0  0
  -23.6230  -29.8880   20.2400 C   0  0  0  0  0  2  0  0  0  0  0  0
  -24.6870  -31.1320   22.1690 N   0  0  0  0  0  0  0  0  0  0  0  0
  -23.5470  -32.2160   23.8080 O   0  0  0  0  0  0  0  0  0  0  0  0
  -22.7500  -29.5320   22.5770 C   0  0  0  0  0  0  0  0  0  0  0  0
  -21.4250  -29.3570   22.4440 N   0  0  0  0  0  0  0  0  0  0  0  0
  -23.4240  -28.9020   23.3950 O   0  0  0  0  0  0  0  0  0  0  0  0
  -20.9400  -29.9140   21.7540 H   0  0  0  0  0  0  0  0  0  0  0  0
  -18.0400  -28.1800   22.9390 C   0  0  0  0  0  0  0  0  0  0  0  0
  -20.6000  -28.4190   23.2080 C   0  0  0  0  0  3  0  0  0  0  0  0
  -20.6920  -26.9910   22.6210 C   0  0  0  0  0  2  0  0  0  0  0  0
  -19.5870  -26.6810   21.6080 C   0  0  0  0  0  2  0  0  0  0  0  0
  -18.2070  -26.8320   22.2540 C   0  0  0  0  0  2  0  0  0  0  0  0
  -19.1640  -28.9310   23.3720 C   0  0  0  0  0  0  0  0  0  0  0  0
  -18.9540  -30.1910   23.9720 C   0  0  0  0  0  3  0  0  0  0  0  0
  -17.6530  -30.7000   24.1440 C   0  0  0  0  0  3  0  0  0  0  0  0
  -16.5430  -29.9450   23.7260 C   0  0  0  0  0  3  0  0  0  0  0  0
  -16.7370  -28.6870   23.1290 C   0  0  0  0  0  3  0  0  0  0  0  0
  -25.9160  -32.5550   23.8960 C   0  0  0  0  0  3  0  0  0  0  0  0
  -25.6160  -33.9550   24.2270 N   0  0  0  0  0  0  0  0  0  0  0  0
  -25.9310  -35.0040   23.4560 C   0  0  0  0  0  0  0  0  0  0  0  0
  -26.5750  -34.8950   22.4080 O   0  0  0  0  0  0  0  0  0  0  0  0
  -25.0420  -34.1130   25.0430 H   0  0  0  0  0  0  0  0  0  0  0  0
  -24.1910  -36.7960   23.1450 C   0  0  0  0  0  1  0  0  0  0  0  0
  -25.4570  -36.3950   23.9200 C   0  0  0  0  0  3  0  0  0  0  0  0
  -27.6090  -37.2910   24.6880 C   0  0  0  0  0  1  0  0  0  0  0  0
  -26.4850  -37.4470   23.7700 N   0  0  0  0  0  0  0  0  0  0  0  0
  -26.0810  -38.3690   23.9170 H   0  0  0  0  0  0  0  0  0  0  0  0
  -26.4220  -31.7790   25.1730 C   0  0  1  0  0  0  0  0  0  0  0  0
  -25.3230  -31.5460   26.2360 C   0  0  0  0  0  1  0  0  0  0  0  0
  -27.0010  -30.3990   24.7830 C   0  0  0  0  0  1  0  0  0  0  0  0
  -27.5730  -32.5670   25.8410 C   0  0  0  0  0  1  0  0  0  0  0  0
  1  2  1  0
  1 49  1  0
  2  4  1  0
  2 15  1  0
  3  1  2  0
  5 19  1  0
  6 11  1  0
  7  8  1  0
  7  6  1  0
  9  8  1  0
  9 24  1  0
  9 10  1  0
 11  5  1  0
 11 10  1  0
 12  5  2  0
 13 18  2  0
 13 15  1  0
 15 17  2  0
 16 19  1  0
 16 14  2  0
 17 14  1  0
 18 16  1  0
 19 20  1  0
 21 22  2  0
 22 41  1  0
 23 22  1  0
 23 26  1  0
 24 25  1  0
 24 21  1  0
 25 23  2  0
 26 27  1  0
 27 28  2  0
 29 32  1  0
 29 28  1  0
 30 29  2  0
 31 30  1  0
 31 26  2  0
 32 33  1  0
 33 34  1  0
 34 35  2  0
 36 35  1  0
 36 40  1  0
 37 36  2  0
 38 33  2  0
 38 37  1  0
 39 38  1  0
 41 42  1  0
 42 45  1  0
 42 44  1  0
 43 41  2  0
 46 47  1  0
 46 21  1  0
 48 46  1  0
 50 51  1  0
 50 49  2  0
 52 63  2  0
 53 51  1  0
 53 58  1  0
 54 62  1  0
 54 64  1  0
 55 61  1  0
 55 57  1  0
 56 62  1  0
 57 56  1  0
 58 57  2  0
 59 60  1  0
 59 53  2  0
 60 55  2  0
 61 54  1  0
 62 52  1  0
 64 66  2  0
 65 64  1  0
 67 65  1  0
 68 77  2  0
 68 73  1  0
 69 65  1  0
 69 73  1  0
 70 69  1  0
 71 72  1  0
 71 70  1  0
 72 68  1  0
 73 74  2  0
 74 75  1  0
 76 75  2  0
 77 76  1  0
 78 52  1  0
 78 79  1  0
 78 88  1  0
 79 82  1  0
 80 84  1  0
 80 79  1  0
 81 80  2  0
 84 83  1  0
 86 87  1  0
 86 84  1  0
 86 85  1  0
 88 91  1  1
 88 89  1  0
 90 88  1  0
M  ISO  4   5 100  19 100  50 101  51 101
M  END
>  <TORSDO>  (66) 
F 18

>  <SCORE>  (66) 
-14.696

>  <name>  (66) 
65

>  <ligand_id>  (66) 
65

>  <original_smiles>  (66) 
[H]c1nc(N([H])C(=O)C([H])([H])C([H])([H])Oc2c([H])c([H])c3c(c2[H])C([H])([H])N(C(=O)C([H])(N([H])C(=O)C([H])(N([H])C([H])([H])[H])C([H])([H])[H])C(C([H])([H])[H])(C([H])([H])[H])C([H])([H])[H])C([H])(C(=O)N([H])C2([H])c4c([H])c([H])c([H])c([H])c4C([H])([H])C([H])([H])C2([H])[H])C3([H])[H])c([H])nc1N([H])C(=O)N1C([H])([H])C([H])([H])C([H])([H])C([H])(n2nc(-c3c([H])c([H])c(Oc4c([H])c([H])c(F)c([H])c4F)c([H])c3[H])c(C(=O)N([H])[H])c2N([H])[H])C1([H])[H]

>  <smiles>  (66) 
[H]c1nc(N([H])C(=O)C([H])([H])C([H])([H])Oc2c([H])c([H])c3c(c2[H])C([H])([H])N(C(=O)C([H])(N([H])C(=O)C([H])(N([H])C([H])([H])[H])C([H])([H])[H])C(C([H])([H])[H])(C([H])([H])[H])C([H])([H])[H])C([H])(C(=O)N([H])C2([H])c4c([H])c([H])c([H])c([H])c4C([H])([H])C([H])([H])C2([H])[H])C3([H])[H])c([H])nc1N([H])C(=O)N1C([H])([H])C([H])([H])C([H])([H])C([H])(n2nc(-c3c([H])c([H])c(Oc4c([H])c([H])c(F)c([H])c4F)c([H])c3[H])c(C(=O)N([H])[H])c2N([H])[H])C1([H])[H]

$$$$
66:0:0
     RDKit          3D

 92100  0  0  1  0  0  0  0  0999 V2000
  -29.1510  -23.0090   21.3470 C   0  0  0  0  0  2  0  0  0  0  0  0
  -29.1140  -22.0460   20.2430 N   0  0  0  0  0  0  0  0  0  0  0  0
  -29.4340  -22.4060   19.3480 H   0  0  0  0  0  0  0  0  0  0  0  0
  -29.0320  -19.8650   21.5510 C   0  0  0  0  0  3  0  0  0  0  0  0
  -29.3020  -20.6680   20.4590 C   0  0  0  0  0  0  0  0  0  0  0  0
  -29.9170  -18.2630   20.1750 C   0  0  0  0  0  0  0  0  0  0  0  0
  -29.3770  -18.5080   21.3770 N   0  0  0  0  0  0  0  0  0  0  0  0
  -29.9900  -19.7160   19.1670 S   0  0  0  0  0  0  0  0  0  0  0  0
  -30.5830  -16.9860   19.7220 C   0  0  0  0  0  2  0  0  0  0  0  0
  -30.7190  -14.5660   20.0000 C   0  0  0  0  0  0  0  0  0  0  0  0
  -30.3060  -12.4050   18.9170 C   0  0  0  0  0  2  0  0  0  0  0  0
  -29.3150  -12.6300   17.7580 C   0  0  0  0  0  2  0  0  0  0  0  0
  -27.8680  -12.4900   18.2610 C   0  0  0  0  0  2  0  0  0  0  0  0
  -27.5970  -13.3170   19.5470 C   0  0  0  0  0  3  0  0  0  0  0  0
  -28.7150  -13.1410   20.6010 C   0  0  0  0  0  2  0  0  0  0  0  0
  -30.0010  -13.4100   19.9480 N   0  0  0  0  0  0  0  0  0  0  0  0
  -31.8700  -14.6310   19.5630 O   0  0  0  0  0  0  0  0  0  0  0  0
  -30.0510  -15.7120   20.2600 N   0  0  0  0  0  0  0  0  0  0  0  0
  -29.0990  -15.6840   20.5890 H   0  0  0  0  0  0  0  0  0  0  0  0
  -25.2470  -13.9030   20.4030 C   0  0  0  0  0  0  0  0  0  0  0  0
  -24.2000  -13.1230   20.8150 C   0  0  0  0  0  0  0  0  0  0  0  0
  -24.6590  -11.7720   20.7340 C   0  0  0  0  0  0  0  0  0  0  0  0
  -26.2770  -13.0270   20.0990 N   0  0  0  0  0  0  0  0  0  0  0  0
  -25.9310  -11.7390   20.3580 N   0  0  0  0  0  0  0  0  0  0  0  0
  -23.9390  -10.5080   20.9370 C   0  0  0  0  0  0  0  0  0  0  0  0
  -24.3940   -9.5400   21.8590 C   0  0  0  0  0  3  0  0  0  0  0  0
  -23.6770   -8.3400   22.0530 C   0  0  0  0  0  3  0  0  0  0  0  0
  -22.4860   -8.1000   21.3260 C   0  0  0  0  0  0  0  0  0  0  0  0
  -22.0490   -9.0570   20.3920 C   0  0  0  0  0  3  0  0  0  0  0  0
  -22.7680  -10.2470   20.1970 C   0  0  0  0  0  3  0  0  0  0  0  0
  -21.7360   -6.9530   21.4290 O   0  0  0  0  0  0  0  0  0  0  0  0
  -21.6850   -6.2300   22.5930 C   0  0  0  0  0  0  0  0  0  0  0  0
  -21.2630   -6.8050   23.8120 C   0  0  0  0  0  3  0  0  0  0  0  0
  -21.1590   -6.0070   24.9690 C   0  0  0  0  0  3  0  0  0  0  0  0
  -21.4680   -4.6350   24.9090 C   0  0  0  0  0  0  0  0  0  0  0  0
  -21.8840   -4.0590   23.6960 C   0  0  0  0  0  3  0  0  0  0  0  0
  -21.9910   -4.8540   22.5420 C   0  0  0  0  0  0  0  0  0  0  0  0
  -22.3710   -4.2890   21.3700 F   0  0  0  0  0  0  0  0  0  0  0  0
  -21.3620   -3.8670   26.0180 F   0  0  0  0  0  0  0  0  0  0  0  0
  -22.8200  -13.5960   21.1650 C   0  0  0  0  0  0  0  0  0  0  0  0
  -22.1380  -12.8890   22.0600 N   0  0  0  0  0  0  0  0  0  0  0  0
  -22.3570  -14.6290   20.6830 O   0  0  0  0  0  0  0  0  0  0  0  0
  -22.5280  -12.0540   22.4730 H   0  0  0  0  0  0  0  0  0  0  0  0
  -21.2120  -13.1860   22.3330 H   0  0  0  0  0  0  0  0  0  0  0  0
  -25.3980  -15.2770   20.2420 N   0  0  0  0  0  0  0  0  0  0  0  0
  -24.6300  -15.9170   20.4100 H   0  0  0  0  0  0  0  0  0  0  0  0
  -26.2220  -15.7350   19.8740 H   0  0  0  0  0  0  0  0  0  0  0  0
  -29.4210  -24.4880   20.9040 C   0  0  0  0  0  3  0  0  0  0  0  0
  -30.1940  -25.0840   21.9260 O   0  0  0  0  0  0  0  0  0  0  0  0
  -30.3760  -25.9760   21.6420 H   0  0  0  0  0  0  0  0  0  0  0  0
  -28.1390  -25.3450   20.7500 C   0  0  0  0  0  2  0  0  0  0  0  0
  -28.3860  -26.6720   20.2250 O   0  0  0  0  0  0  0  0  0  0  0  0
  -24.5750  -31.8850   23.2270 C   0  0  0  0  0  0  0  0  0  0  0  0
  -27.2490  -27.4560   20.1610 C   0  0  0  0  0  0  0  0  0  0  0  0
  -23.3880  -30.4860   21.5710 C   0  0  0  0  0  3  0  0  0  0  0  0
  -24.8580  -28.9710   20.1470 C   0  0  0  0  0  0  0  0  0  0  0  0
  -25.9160  -30.8650   21.3870 C   0  0  0  0  0  2  0  0  0  0  0  0
  -26.0160  -29.4980   20.7380 C   0  0  0  0  0  0  0  0  0  0  0  0
  -27.2190  -28.7530   20.7310 C   0  0  0  0  0  3  0  0  0  0  0  0
  -26.0740  -26.9570   19.5530 C   0  0  0  0  0  3  0  0  0  0  0  0
  -24.8830  -27.7010   19.5530 C   0  0  0  0  0  3  0  0  0  0  0  0
  -23.6120  -29.8250   20.1870 C   0  0  0  0  0  2  0  0  0  0  0  0
  -24.6440  -31.0910   22.1200 N   0  0  0  0  0  0  0  0  0  0  0  0
  -23.4890  -32.1460   23.7640 O   0  0  0  0  0  0  0  0  0  0  0  0
  -22.7380  -29.4520   22.5200 C   0  0  0  0  0  0  0  0  0  0  0  0
  -21.4150  -29.2650   22.3890 N   0  0  0  0  0  0  0  0  0  0  0  0
  -23.4220  -28.8220   23.3300 O   0  0  0  0  0  0  0  0  0  0  0  0
  -20.9230  -29.8210   21.7030 H   0  0  0  0  0  0  0  0  0  0  0  0
  -18.0430  -28.0620   22.8790 C   0  0  0  0  0  0  0  0  0  0  0  0
  -20.6000  -28.3210   23.1550 C   0  0  0  0  0  3  0  0  0  0  0  0
  -20.7060  -26.8940   22.5680 C   0  0  0  0  0  2  0  0  0  0  0  0
  -19.6050  -26.5760   21.5520 C   0  0  0  0  0  2  0  0  0  0  0  0
  -18.2230  -26.7180   22.1940 C   0  0  0  0  0  2  0  0  0  0  0  0
  -19.1600  -28.8210   23.3170 C   0  0  0  0  0  0  0  0  0  0  0  0
  -18.9410  -30.0810   23.9180 C   0  0  0  0  0  3  0  0  0  0  0  0
  -17.6340  -30.5800   24.0850 C   0  0  0  0  0  3  0  0  0  0  0  0
  -16.5310  -29.8190   23.6630 C   0  0  0  0  0  3  0  0  0  0  0  0
  -16.7370  -28.5620   23.0660 C   0  0  0  0  0  3  0  0  0  0  0  0
  -25.8540  -32.5220   23.8550 C   0  0  0  0  0  3  0  0  0  0  0  0
  -25.5350  -33.9150   24.1890 N   0  0  0  0  0  0  0  0  0  0  0  0
  -25.8570  -34.9710   23.4290 C   0  0  0  0  0  0  0  0  0  0  0  0
  -26.5280  -34.8740   22.3970 O   0  0  0  0  0  0  0  0  0  0  0  0
  -24.9400  -34.0640   24.9910 H   0  0  0  0  0  0  0  0  0  0  0  0
  -24.1120  -36.7480   23.0780 C   0  0  0  0  0  1  0  0  0  0  0  0
  -25.3570  -36.3540   23.8880 C   0  0  0  0  0  3  0  0  0  0  0  0
  -27.4840  -37.2600   24.7170 C   0  0  0  0  0  1  0  0  0  0  0  0
  -26.3780  -37.4180   23.7750 N   0  0  0  0  0  0  0  0  0  0  0  0
  -25.9630  -38.3310   23.9300 H   0  0  0  0  0  0  0  0  0  0  0  0
  -26.3740  -31.7470   25.1280 C   0  0  1  0  0  0  0  0  0  0  0  0
  -25.2790  -31.4950   26.1900 C   0  0  0  0  0  1  0  0  0  0  0  0
  -26.9690  -30.3770   24.7290 C   0  0  0  0  0  1  0  0  0  0  0  0
  -27.5160  -32.5440   25.8000 C   0  0  0  0  0  1  0  0  0  0  0  0
  2  5  1  0
  2  1  1  0
  3  2  1  0
  5  4  2  0
  6  7  2  0
  7  4  1  0
  8  6  1  0
  8  5  1  0
  9  6  1  0
  9 18  1  0
 10 18  1  0
 11 16  1  0
 12 13  1  0
 12 11  1  0
 14 13  1  0
 14 23  1  0
 14 15  1  0
 16 10  1  0
 16 15  1  0
 17 10  2  0
 18 19  1  0
 20 21  2  0
 21 40  1  0
 22 21  1  0
 22 25  1  0
 23 24  1  0
 23 20  1  0
 24 22  2  0
 25 26  1  0
 26 27  2  0
 28 31  1  0
 28 27  1  0
 29 28  2  0
 30 29  1  0
 30 25  2  0
 31 32  1  0
 32 33  1  0
 33 34  2  0
 35 34  1  0
 35 39  1  0
 36 35  2  0
 37 32  2  0
 37 36  1  0
 38 37  1  0
 40 41  1  0
 41 44  1  0
 41 43  1  0
 42 40  2  0
 45 20  1  0
 45 46  1  0
 47 45  1  0
 48 51  1  0
 48  1  1  0
 48 49  1  0
 50 49  1  0
 52 51  1  0
 53 64  2  0
 54 52  1  0
 54 59  1  0
 55 63  1  0
 55 65  1  0
 56 62  1  0
 56 58  1  0
 57 63  1  0
 58 57  1  0
 59 58  2  0
 60 54  2  0
 61 60  1  0
 61 56  2  0
 62 55  1  0
 63 53  1  0
 65 67  2  0
 66 65  1  0
 68 66  1  0
 69 78  2  0
 69 74  1  0
 70 66  1  0
 70 74  1  0
 71 70  1  0
 72 73  1  0
 72 71  1  0
 73 69  1  0
 74 75  2  0
 75 76  1  0
 77 76  2  0
 78 77  1  0
 79 53  1  0
 79 80  1  0
 79 89  1  0
 80 83  1  0
 81 85  1  0
 81 80  1  0
 82 81  2  0
 85 84  1  0
 87 85  1  0
 87 88  1  0
 87 86  1  0
 89 92  1  1
 89 90  1  0
 91 89  1  0
M  ISO  4  10 100  18 100  51 101  52 101
M  END
>  <TORSDO>  (67) 
F 22

>  <SCORE>  (67) 
-12.427

>  <name>  (67) 
66

>  <ligand_id>  (67) 
66

>  <original_smiles>  (67) 
[H]OC([H])(C([H])([H])Oc1c([H])c([H])c2c(c1[H])C([H])([H])N(C(=O)C([H])(N([H])C(=O)C([H])(N([H])C([H])([H])[H])C([H])([H])[H])C(C([H])([H])[H])(C([H])([H])[H])C([H])([H])[H])C([H])(C(=O)N([H])C1([H])c3c([H])c([H])c([H])c([H])c3C([H])([H])C([H])([H])C1([H])[H])C2([H])[H])C([H])([H])N([H])c1sc(C([H])([H])N([H])C(=O)N2C([H])([H])C([H])([H])C([H])([H])C([H])(n3nc(-c4c([H])c([H])c(Oc5c([H])c([H])c(F)c([H])c5F)c([H])c4[H])c(C(=O)N([H])[H])c3N([H])[H])C2([H])[H])nc1[H]

>  <smiles>  (67) 
[H]OC([H])(C([H])([H])Oc1c([H])c([H])c2c(c1[H])C([H])([H])N(C(=O)C([H])(N([H])C(=O)C([H])(N([H])C([H])([H])[H])C([H])([H])[H])C(C([H])([H])[H])(C([H])([H])[H])C([H])([H])[H])C([H])(C(=O)N([H])C1([H])c3c([H])c([H])c([H])c([H])c3C([H])([H])C([H])([H])C1([H])[H])C2([H])[H])C([H])([H])N([H])c1sc(C([H])([H])N([H])C(=O)N2C([H])([H])C([H])([H])C([H])([H])C([H])(n3nc(-c4c([H])c([H])c(Oc5c([H])c([H])c(F)c([H])c5F)c([H])c4[H])c(C(=O)N([H])[H])c3N([H])[H])C2([H])[H])nc1[H]

$$$$
67:0:0
     RDKit          3D

 97105  0  0  1  0  0  0  0  0999 V2000
  -29.5140  -21.8600   19.4050 C   0  0  0  0  0  3  0  0  0  0  0  0
  -28.7690  -20.6210   19.1080 N   0  0  0  0  0  0  0  0  0  0  0  0
  -28.3520  -20.6010   18.1790 H   0  0  0  0  0  0  0  0  0  0  0  0
  -30.6510  -14.4810   20.4990 C   0  0  0  0  0  0  0  0  0  0  0  0
  -30.3700  -12.3190   19.3530 C   0  0  0  0  0  2  0  0  0  0  0  0
  -29.4350  -12.5440   18.1460 C   0  0  0  0  0  2  0  0  0  0  0  0
  -27.9580  -12.4050   18.5650 C   0  0  0  0  0  2  0  0  0  0  0  0
  -27.6180  -13.2200   19.8420 C   0  0  0  0  0  3  0  0  0  0  0  0
  -28.6670  -12.9860   20.9530 C   0  0  0  0  0  2  0  0  0  0  0  0
  -29.9990  -13.2910   20.3940 N   0  0  0  0  0  0  0  0  0  0  0  0
  -31.7720  -14.6790   20.0130 O   0  0  0  0  0  0  0  0  0  0  0  0
  -28.7530  -18.2140   18.8650 C   0  0  0  0  0  3  0  0  0  0  0  0
  -29.0470  -16.9300   19.3550 C   0  0  0  0  0  3  0  0  0  0  0  0
  -29.9050  -19.1090   20.7740 C   0  0  0  0  0  3  0  0  0  0  0  0
  -29.1600  -19.3500   19.5910 C   0  0  0  0  0  0  0  0  0  0  0  0
  -29.7820  -16.7780   20.5510 C   0  0  0  0  0  0  0  0  0  0  0  0
  -30.2000  -17.8680   21.2390 N   0  0  0  0  0  0  0  0  0  0  0  0
  -29.9410  -15.4670   21.0770 N   0  0  0  0  0  0  0  0  0  0  0  0
  -29.1340  -15.1270   21.5760 H   0  0  0  0  0  0  0  0  0  0  0  0
  -25.2180  -13.8360   20.5260 C   0  0  0  0  0  0  0  0  0  0  0  0
  -24.1460  -13.0650   20.8880 C   0  0  0  0  0  0  0  0  0  0  0  0
  -24.6060  -11.7130   20.8660 C   0  0  0  0  0  0  0  0  0  0  0  0
  -26.2610  -12.9500   20.3080 N   0  0  0  0  0  0  0  0  0  0  0  0
  -25.8980  -11.6700   20.5670 N   0  0  0  0  0  0  0  0  0  0  0  0
  -23.8780  -10.4530   21.0510 C   0  0  0  0  0  0  0  0  0  0  0  0
  -24.2990   -9.4860   21.9910 C   0  0  0  0  0  3  0  0  0  0  0  0
  -23.5690   -8.2920   22.1640 C   0  0  0  0  0  3  0  0  0  0  0  0
  -22.4040   -8.0540   21.3960 C   0  0  0  0  0  0  0  0  0  0  0  0
  -22.0020   -9.0080   20.4460 C   0  0  0  0  0  3  0  0  0  0  0  0
  -22.7330  -10.1940   20.2710 C   0  0  0  0  0  3  0  0  0  0  0  0
  -21.6500   -6.9080   21.4770 O   0  0  0  0  0  0  0  0  0  0  0  0
  -21.5830   -6.1700   22.6300 C   0  0  0  0  0  0  0  0  0  0  0  0
  -21.1290   -6.7250   23.8460 C   0  0  0  0  0  3  0  0  0  0  0  0
  -21.0100   -5.9120   24.9910 C   0  0  0  0  0  3  0  0  0  0  0  0
  -21.3380   -4.5440   24.9210 C   0  0  0  0  0  0  0  0  0  0  0  0
  -21.7870   -3.9890   23.7100 C   0  0  0  0  0  3  0  0  0  0  0  0
  -21.9060   -4.7990   22.5670 C   0  0  0  0  0  0  0  0  0  0  0  0
  -22.3180   -4.2530   21.3970 F   0  0  0  0  0  0  0  0  0  0  0  0
  -21.2170   -3.7600   26.0180 F   0  0  0  0  0  0  0  0  0  0  0  0
  -22.7490  -13.5470   21.1550 C   0  0  0  0  0  0  0  0  0  0  0  0
  -22.0170  -12.8460   22.0160 N   0  0  0  0  0  0  0  0  0  0  0  0
  -22.3160  -14.5740   20.6350 O   0  0  0  0  0  0  0  0  0  0  0  0
  -22.3810  -12.0100   22.4480 H   0  0  0  0  0  0  0  0  0  0  0  0
  -21.0780  -13.1480   22.2370 H   0  0  0  0  0  0  0  0  0  0  0  0
  -25.3860  -15.2080   20.3490 N   0  0  0  0  0  0  0  0  0  0  0  0
  -24.6170  -15.8610   20.4450 H   0  0  0  0  0  0  0  0  0  0  0  0
  -26.2340  -15.6470   20.0110 H   0  0  0  0  0  0  0  0  0  0  0  0
  -30.8010  -21.8620   18.5410 C   0  0  0  0  0  2  0  0  0  0  0  0
  -32.5320  -22.8040   20.1570 C   0  0  0  0  0  1  0  0  0  0  0  0
  -32.8550  -23.0430   17.6520 C   0  0  0  0  0  1  0  0  0  0  0  0
  -31.8320  -22.9830   18.7990 C   0  0  0  0  0  3  0  0  0  0  0  0
  -28.6120  -23.1060   19.0950 C   0  0  0  0  0  3  0  0  0  0  0  0
  -27.2810  -22.6600   19.2660 O   0  0  0  0  0  0  0  0  0  0  0  0
  -27.4080  -21.7100   19.3550 H   0  0  0  0  0  0  0  0  0  0  0  0
  -28.8030  -24.3550   20.0010 C   0  0  0  0  0  2  0  0  0  0  0  0
  -28.7070  -25.6970   19.2390 C   0  0  0  0  0  2  0  0  0  0  0  0
  -28.4660  -26.7930   20.1320 O   0  0  0  0  0  0  0  0  0  0  0  0
  -24.5730  -31.8840   23.2100 C   0  0  0  0  0  0  0  0  0  0  0  0
  -27.2480  -27.4460   20.1350 C   0  0  0  0  0  0  0  0  0  0  0  0
  -23.3720  -30.4730   21.5700 C   0  0  0  0  0  3  0  0  0  0  0  0
  -24.8310  -28.9290   20.1590 C   0  0  0  0  0  0  0  0  0  0  0  0
  -25.9000  -30.8300   21.3850 C   0  0  0  0  0  2  0  0  0  0  0  0
  -25.9850  -29.4590   20.7490 C   0  0  0  0  0  0  0  0  0  0  0  0
  -27.1890  -28.7210   20.7400 C   0  0  0  0  0  3  0  0  0  0  0  0
  -26.0640  -26.9130   19.5730 C   0  0  0  0  0  3  0  0  0  0  0  0
  -24.8650  -27.6520   19.5730 C   0  0  0  0  0  3  0  0  0  0  0  0
  -23.5840  -29.7840   20.1970 C   0  0  0  0  0  2  0  0  0  0  0  0
  -24.6320  -31.0790   22.1120 N   0  0  0  0  0  0  0  0  0  0  0  0
  -23.4910  -32.1580   23.7480 O   0  0  0  0  0  0  0  0  0  0  0  0
  -22.7180  -29.4580   22.5340 C   0  0  0  0  0  0  0  0  0  0  0  0
  -21.3930  -29.2800   22.4100 N   0  0  0  0  0  0  0  0  0  0  0  0
  -23.4010  -28.8300   23.3480 O   0  0  0  0  0  0  0  0  0  0  0  0
  -20.9000  -29.8360   21.7250 H   0  0  0  0  0  0  0  0  0  0  0  0
  -18.0160  -28.1160   22.9370 C   0  0  0  0  0  0  0  0  0  0  0  0
  -20.5770  -28.3470   23.1860 C   0  0  0  0  0  3  0  0  0  0  0  0
  -20.6590  -26.9180   22.6000 C   0  0  0  0  0  2  0  0  0  0  0  0
  -19.5440  -26.6140   21.5950 C   0  0  0  0  0  2  0  0  0  0  0  0
  -18.1710  -26.7690   22.2540 C   0  0  0  0  0  2  0  0  0  0  0  0
  -19.1450  -28.8650   23.3620 C   0  0  0  0  0  0  0  0  0  0  0  0
  -18.9460  -30.1280   23.9610 C   0  0  0  0  0  3  0  0  0  0  0  0
  -17.6490  -30.6440   24.1380 C   0  0  0  0  0  3  0  0  0  0  0  0
  -16.5320  -29.8930   23.7300 C   0  0  0  0  0  3  0  0  0  0  0  0
  -16.7170  -28.6310   23.1370 C   0  0  0  0  0  3  0  0  0  0  0  0
  -25.8580  -32.5200   23.8280 C   0  0  0  0  0  3  0  0  0  0  0  0
  -25.5510  -33.9210   24.1480 N   0  0  0  0  0  0  0  0  0  0  0  0
  -25.8880  -34.9670   23.3840 C   0  0  0  0  0  0  0  0  0  0  0  0
  -26.5610  -34.8550   22.3550 O   0  0  0  0  0  0  0  0  0  0  0  0
  -24.9540  -34.0840   24.9460 H   0  0  0  0  0  0  0  0  0  0  0  0
  -24.1650  -36.7580   23.0070 C   0  0  0  0  0  1  0  0  0  0  0  0
  -25.4000  -36.3580   23.8300 C   0  0  0  0  0  3  0  0  0  0  0  0
  -27.5290  -37.2430   24.6740 C   0  0  0  0  0  1  0  0  0  0  0  0
  -26.4350  -37.4080   23.7190 N   0  0  0  0  0  0  0  0  0  0  0  0
  -26.0300  -38.3290   23.8560 H   0  0  0  0  0  0  0  0  0  0  0  0
  -26.3780  -31.7560   25.1080 C   0  0  1  0  0  0  0  0  0  0  0  0
  -25.2850  -31.5240   26.1760 C   0  0  0  0  0  1  0  0  0  0  0  0
  -26.9640  -30.3760   24.7250 C   0  0  0  0  0  1  0  0  0  0  0  0
  -27.5260  -32.5580   25.7660 C   0  0  0  0  0  1  0  0  0  0  0  0
  1 48  1  0
  2  1  1  0
  2 15  1  0
  3  2  1  0
  4 18  1  0
  5 10  1  0
  6  7  1  0
  6  5  1  0
  8  7  1  0
  8 23  1  0
  8  9  1  0
 10  4  1  0
 10  9  1  0
 11  4  2  0
 12 13  2  0
 12 15  1  0
 13 16  1  0
 14 17  1  0
 15 14  2  0
 16 18  1  0
 16 17  2  0
 18 19  1  0
 20 21  2  0
 21 40  1  0
 22 21  1  0
 22 25  1  0
 23 20  1  0
 23 24  1  0
 24 22  2  0
 25 26  1  0
 26 27  2  0
 28 31  1  0
 28 27  1  0
 29 28  2  0
 30 29  1  0
 30 25  2  0
 31 32  1  0
 32 33  1  0
 33 34  2  0
 35 34  1  0
 35 39  1  0
 36 35  2  0
 37 32  2  0
 37 36  1  0
 38 37  1  0
 40 41  1  0
 41 44  1  0
 41 43  1  0
 42 40  2  0
 45 46  1  0
 45 20  1  0
 47 45  1  0
 48 51  1  0
 50 51  1  0
 51 49  1  0
 52 53  1  0
 52  1  1  0
 52 55  1  0
 53 54  1  0
 56 55  1  0
 56 57  1  0
 57 59  1  0
 58 69  2  0
 59 64  1  0
 60 68  1  0
 60 70  1  0
 61 67  1  0
 61 63  1  0
 62 68  1  0
 63 62  1  0
 64 63  2  0
 65 66  1  0
 65 59  2  0
 66 61  2  0
 67 60  1  0
 68 58  1  0
 70 72  2  0
 71 70  1  0
 73 71  1  0
 74 83  2  0
 74 79  1  0
 75 71  1  0
 75 79  1  0
 76 75  1  0
 77 78  1  0
 77 76  1  0
 78 74  1  0
 79 80  2  0
 80 81  1  0
 82 81  2  0
 83 82  1  0
 84 58  1  0
 84 85  1  0
 84 94  1  0
 85 88  1  0
 86 90  1  0
 86 85  1  0
 87 86  2  0
 90 89  1  0
 92 90  1  0
 92 93  1  0
 92 91  1  0
 94 97  1  1
 94 95  1  0
 96 94  1  0
M  ISO  4   4 100  18 100  56 101  57 101
M  END
>  <TORSDO>  (68) 
F 23

>  <SCORE>  (68) 
-13.147

>  <name>  (68) 
67

>  <ligand_id>  (68) 
67

>  <original_smiles>  (68) 
[H]OC([H])(C([H])([H])C([H])([H])Oc1c([H])c([H])c2c(c1[H])C([H])([H])N(C(=O)C([H])(N([H])C(=O)C([H])(N([H])C([H])([H])[H])C([H])([H])[H])C(C([H])([H])[H])(C([H])([H])[H])C([H])([H])[H])C([H])(C(=O)N([H])C1([H])c3c([H])c([H])c([H])c([H])c3C([H])([H])C([H])([H])C1([H])[H])C2([H])[H])C([H])(N([H])c1c([H])nc(N([H])C(=O)N2C([H])([H])C([H])([H])C([H])([H])C([H])(n3nc(-c4c([H])c([H])c(Oc5c([H])c([H])c(F)c([H])c5F)c([H])c4[H])c(C(=O)N([H])[H])c3N([H])[H])C2([H])[H])c([H])c1[H])C([H])([H])C([H])(C([H])([H])[H])C([H])([H])[H]

>  <smiles>  (68) 
[H]OC([H])(C([H])([H])C([H])([H])Oc1c([H])c([H])c2c(c1[H])C([H])([H])N(C(=O)C([H])(N([H])C(=O)C([H])(N([H])C([H])([H])[H])C([H])([H])[H])C(C([H])([H])[H])(C([H])([H])[H])C([H])([H])[H])C([H])(C(=O)N([H])C1([H])c3c([H])c([H])c([H])c([H])c3C([H])([H])C([H])([H])C1([H])[H])C2([H])[H])C([H])(N([H])c1c([H])nc(N([H])C(=O)N2C([H])([H])C([H])([H])C([H])([H])C([H])(n3nc(-c4c([H])c([H])c(Oc5c([H])c([H])c(F)c([H])c5F)c([H])c4[H])c(C(=O)N([H])[H])c3N([H])[H])C2([H])[H])c([H])c1[H])C([H])([H])C([H])(C([H])([H])[H])C([H])([H])[H]

$$$$
68:0:0
     RDKit          3D

 92100  0  0  1  0  0  0  0  0999 V2000
  -28.9130  -20.5670   20.4590 C   0  0  0  0  0  3  0  0  0  0  0  0
  -29.8920  -20.7560   18.3020 C   0  0  0  0  0  3  0  0  0  0  0  0
  -29.3310  -19.1960   20.4700 C   0  0  0  0  0  0  0  0  0  0  0  0
  -29.2090  -21.4160   19.3580 C   0  0  0  0  0  0  0  0  0  0  0  0
  -30.0850  -18.6660   19.3830 C   0  0  0  0  0  0  0  0  0  0  0  0
  -28.9980  -18.3430   21.6820 C   0  0  0  0  0  1  0  0  0  0  0  0
  -30.3200  -19.4610   18.3130 N   0  0  0  0  0  0  0  0  0  0  0  0
  -28.8540  -22.8020   19.1890 N   0  0  0  0  0  0  0  0  0  0  0  0
  -29.0610  -23.1520   18.2560 H   0  0  0  0  0  0  0  0  0  0  0  0
  -27.2810  -23.7280   20.9220 C   0  0  0  0  0  1  0  0  0  0  0  0
  -28.6080  -23.9120   20.1690 C   0  0  0  0  0  3  0  0  0  0  0  0
  -28.6140  -25.3420   19.4530 C   0  0  0  0  0  2  0  0  0  0  0  0
  -28.4550  -26.5990   20.2140 O   0  0  0  0  0  0  0  0  0  0  0  0
  -24.6540  -31.9100   23.2270 C   0  0  0  0  0  0  0  0  0  0  0  0
  -27.3000  -27.3920   20.1570 C   0  0  0  0  0  0  0  0  0  0  0  0
  -23.4590  -30.5070   21.5870 C   0  0  0  0  0  3  0  0  0  0  0  0
  -24.9190  -28.9760   20.1540 C   0  0  0  0  0  0  0  0  0  0  0  0
  -25.9890  -30.8550   21.3920 C   0  0  0  0  0  2  0  0  0  0  0  0
  -26.0820  -29.4770   20.7490 C   0  0  0  0  0  0  0  0  0  0  0  0
  -27.2750  -28.6960   20.7420 C   0  0  0  0  0  3  0  0  0  0  0  0
  -26.1050  -26.9320   19.5590 C   0  0  0  0  0  3  0  0  0  0  0  0
  -24.9300  -27.7070   19.5540 C   0  0  0  0  0  3  0  0  0  0  0  0
  -23.6710  -29.8330   20.2080 C   0  0  0  0  0  2  0  0  0  0  0  0
  -24.7210  -31.1050   22.1280 N   0  0  0  0  0  0  0  0  0  0  0  0
  -23.5680  -32.1760   23.7640 O   0  0  0  0  0  0  0  0  0  0  0  0
  -22.8070  -29.4780   22.5420 C   0  0  0  0  0  0  0  0  0  0  0  0
  -21.4930  -29.2520   22.3780 N   0  0  0  0  0  0  0  0  0  0  0  0
  -23.4850  -28.8850   23.3850 O   0  0  0  0  0  0  0  0  0  0  0  0
  -21.0020  -29.7910   21.6760 H   0  0  0  0  0  0  0  0  0  0  0  0
  -18.1520  -27.9300   22.7860 C   0  0  0  0  0  0  0  0  0  0  0  0
  -20.6860  -28.2980   23.1400 C   0  0  0  0  0  3  0  0  0  0  0  0
  -20.8650  -26.8600   22.6030 C   0  0  0  0  0  2  0  0  0  0  0  0
  -19.8150  -26.4700   21.5580 C   0  0  0  0  0  2  0  0  0  0  0  0
  -18.4060  -26.5730   22.1470 C   0  0  0  0  0  2  0  0  0  0  0  0
  -19.2230  -28.7460   23.2360 C   0  0  0  0  0  0  0  0  0  0  0  0
  -18.9320  -30.0120   23.7890 C   0  0  0  0  0  3  0  0  0  0  0  0
  -17.6030  -30.4610   23.9020 C   0  0  0  0  0  3  0  0  0  0  0  0
  -16.5460  -29.6420   23.4680 C   0  0  0  0  0  3  0  0  0  0  0  0
  -16.8220  -28.3810   22.9120 C   0  0  0  0  0  3  0  0  0  0  0  0
  -25.9320  -32.5510   23.8510 C   0  0  0  0  0  3  0  0  0  0  0  0
  -26.4290  -31.8110   25.1540 C   0  0  1  0  0  0  0  0  0  0  0  0
  -25.3100  -31.5700   26.1940 C   0  0  0  0  0  1  0  0  0  0  0  0
  -27.0490  -30.4380   24.8050 C   0  0  0  0  0  1  0  0  0  0  0  0
  -27.5480  -32.6390   25.8330 C   0  0  0  0  0  1  0  0  0  0  0  0
  -25.6250  -33.9590   24.1420 N   0  0  0  0  0  0  0  0  0  0  0  0
  -25.9540  -34.9900   23.3500 C   0  0  0  0  0  0  0  0  0  0  0  0
  -26.6190  -34.8560   22.3200 O   0  0  0  0  0  0  0  0  0  0  0  0
  -25.0390  -34.1390   24.9430 H   0  0  0  0  0  0  0  0  0  0  0  0
  -24.2170  -36.7680   22.9640 C   0  0  0  0  0  1  0  0  0  0  0  0
  -25.4700  -36.3920   23.7700 C   0  0  0  0  0  3  0  0  0  0  0  0
  -27.6070  -37.3080   24.5580 C   0  0  0  0  0  1  0  0  0  0  0  0
  -26.4990  -37.4440   23.6160 N   0  0  0  0  0  0  0  0  0  0  0  0
  -26.0910  -38.3660   23.7440 H   0  0  0  0  0  0  0  0  0  0  0  0
  -30.9210  -17.3280   19.4240 C   0  0  0  0  0  2  0  0  0  0  0  0
  -31.0250  -14.7940   19.2110 C   0  0  0  0  0  0  0  0  0  0  0  0
  -30.6540  -12.4740   18.4010 C   0  0  0  0  0  2  0  0  0  0  0  0
  -29.5590  -12.4950   17.3150 C   0  0  0  0  0  2  0  0  0  0  0  0
  -28.1680  -12.3740   17.9670 C   0  0  0  0  0  2  0  0  0  0  0  0
  -27.9740  -13.3520   19.1570 C   0  0  0  0  0  3  0  0  0  0  0  0
  -29.1780  -13.3190   20.1210 C   0  0  0  0  0  2  0  0  0  0  0  0
  -30.3760  -13.5940   19.3220 N   0  0  0  0  0  0  0  0  0  0  0  0
  -32.1590  -14.8490   18.7320 O   0  0  0  0  0  0  0  0  0  0  0  0
  -30.3230  -15.9480   19.4590 N   0  0  0  0  0  0  0  0  0  0  0  0
  -29.3540  -15.8780   19.7250 H   0  0  0  0  0  0  0  0  0  0  0  0
  -25.8050  -14.0380   20.3440 C   0  0  0  0  0  0  0  0  0  0  0  0
  -24.7530  -13.3070   20.8220 C   0  0  0  0  0  0  0  0  0  0  0  0
  -25.0860  -11.9380   20.5890 C   0  0  0  0  0  0  0  0  0  0  0  0
  -26.7120  -13.1150   19.8490 N   0  0  0  0  0  0  0  0  0  0  0  0
  -26.2960  -11.8390   20.0570 N   0  0  0  0  0  0  0  0  0  0  0  0
  -24.2960  -10.7160   20.7890 C   0  0  0  0  0  0  0  0  0  0  0  0
  -24.7200   -9.6970   21.6690 C   0  0  0  0  0  3  0  0  0  0  0  0
  -23.9330   -8.5410   21.8610 C   0  0  0  0  0  3  0  0  0  0  0  0
  -22.7070   -8.3970   21.1680 C   0  0  0  0  0  0  0  0  0  0  0  0
  -22.3030   -9.4030   20.2720 C   0  0  0  0  0  3  0  0  0  0  0  0
  -23.0900  -10.5490   20.0790 C   0  0  0  0  0  3  0  0  0  0  0  0
  -21.8900   -7.2970   21.2690 O   0  0  0  0  0  0  0  0  0  0  0  0
  -21.7410   -6.6160   22.4500 C   0  0  0  0  0  0  0  0  0  0  0  0
  -21.2250   -7.2380   23.6080 C   0  0  0  0  0  3  0  0  0  0  0  0
  -21.0260   -6.4840   24.7810 C   0  0  0  0  0  3  0  0  0  0  0  0
  -21.3320   -5.1100   24.7980 C   0  0  0  0  0  0  0  0  0  0  0  0
  -21.8420   -4.4880   23.6430 C   0  0  0  0  0  3  0  0  0  0  0  0
  -22.0430   -5.2390   22.4710 C   0  0  0  0  0  0  0  0  0  0  0  0
  -22.5140   -4.6320   21.3550 F   0  0  0  0  0  0  0  0  0  0  0  0
  -21.1340   -4.3830   25.9210 F   0  0  0  0  0  0  0  0  0  0  0  0
  -23.4690  -13.8480   21.3780 C   0  0  0  0  0  0  0  0  0  0  0  0
  -22.8510  -13.1250   22.3040 N   0  0  0  0  0  0  0  0  0  0  0  0
  -23.0350  -14.9440   21.0290 O   0  0  0  0  0  0  0  0  0  0  0  0
  -23.2230  -12.2340   22.6000 H   0  0  0  0  0  0  0  0  0  0  0  0
  -21.9970  -13.4660   22.7230 H   0  0  0  0  0  0  0  0  0  0  0  0
  -26.0570  -15.4060   20.2700 N   0  0  0  0  0  0  0  0  0  0  0  0
  -25.3850  -16.0940   20.5910 H   0  0  0  0  0  0  0  0  0  0  0  0
  -26.8680  -15.8210   19.8340 H   0  0  0  0  0  0  0  0  0  0  0  0
  1  3  1  0
  2  7  2  0
  2  4  1  0
  3  6  1  0
  4  1  2  0
  5 54  1  0
  5  3  2  0
  7  5  1  0
  8  4  1  0
  8 11  1  0
  9  8  1  0
 11 10  1  0
 12 11  1  0
 12 13  1  0
 14 25  2  0
 15 13  1  0
 15 20  1  0
 16 24  1  0
 16 26  1  0
 17 23  1  0
 17 19  1  0
 18 24  1  0
 19 18  1  0
 20 19  2  0
 21 15  2  0
 22 21  1  0
 22 17  2  0
 23 16  1  0
 24 14  1  0
 26 28  2  0
 27 26  1  0
 29 27  1  0
 30 39  2  0
 30 35  1  0
 31 27  1  0
 31 35  1  0
 32 31  1  0
 33 34  1  0
 33 32  1  0
 34 30  1  0
 35 36  2  0
 36 37  1  0
 38 37  2  0
 39 38  1  0
 40 14  1  0
 40 45  1  0
 40 41  1  0
 41 44  1  1
 41 42  1  0
 43 41  1  0
 45 48  1  0
 46 50  1  0
 46 45  1  0
 47 46  2  0
 50 49  1  0
 52 53  1  0
 52 50  1  0
 52 51  1  0
 54 63  1  0
 55 61  1  0
 55 63  1  0
 56 61  1  0
 57 58  1  0
 57 56  1  0
 59 58  1  0
 59 68  1  0
 59 60  1  0
 61 60  1  0
 62 55  2  0
 63 64  1  0
 65 66  2  0
 66 85  1  0
 67 70  1  0
 67 66  1  0
 68 69  1  0
 68 65  1  0
 69 67  2  0
 70 71  1  0
 71 72  2  0
 73 76  1  0
 73 72  1  0
 74 73  2  0
 75 74  1  0
 75 70  2  0
 76 77  1  0
 77 82  2  0
 77 78  1  0
 78 79  2  0
 79 80  1  0
 80 84  1  0
 81 80  2  0
 82 81  1  0
 83 82  1  0
 85 86  1  0
 86 88  1  0
 86 89  1  0
 87 85  2  0
 90 65  1  0
 90 91  1  0
 92 90  1  0
M  ISO  4  12 101  13 101  55 100  63 100
M  END
>  <TORSDO>  (69) 
F 20

>  <SCORE>  (69) 
-11.586

>  <name>  (69) 
68

>  <ligand_id>  (69) 
68

>  <original_smiles>  (69) 
[H]c1nc(C([H])([H])N([H])C(=O)N2C([H])([H])C([H])([H])C([H])([H])C([H])(n3nc(-c4c([H])c([H])c(Oc5c([H])c([H])c(F)c([H])c5F)c([H])c4[H])c(C(=O)N([H])[H])c3N([H])[H])C2([H])[H])c(C([H])([H])[H])c([H])c1N([H])C([H])(C([H])([H])[H])C([H])([H])Oc1c([H])c([H])c2c(c1[H])C([H])([H])N(C(=O)C([H])(N([H])C(=O)C([H])(N([H])C([H])([H])[H])C([H])([H])[H])C(C([H])([H])[H])(C([H])([H])[H])C([H])([H])[H])C([H])(C(=O)N([H])C1([H])c3c([H])c([H])c([H])c([H])c3C([H])([H])C([H])([H])C1([H])[H])C2([H])[H]

>  <smiles>  (69) 
[H]c1nc(C([H])([H])N([H])C(=O)N2C([H])([H])C([H])([H])C([H])([H])C([H])(n3nc(-c4c([H])c([H])c(Oc5c([H])c([H])c(F)c([H])c5F)c([H])c4[H])c(C(=O)N([H])[H])c3N([H])[H])C2([H])[H])c(C([H])([H])[H])c([H])c1N([H])C([H])(C([H])([H])[H])C([H])([H])Oc1c([H])c([H])c2c(c1[H])C([H])([H])N(C(=O)C([H])(N([H])C(=O)C([H])(N([H])C([H])([H])[H])C([H])([H])[H])C(C([H])([H])[H])(C([H])([H])[H])C([H])([H])[H])C([H])(C(=O)N([H])C1([H])c3c([H])c([H])c([H])c([H])c3C([H])([H])C([H])([H])C1([H])[H])C2([H])[H]

$$$$
69:0:0
     RDKit          3D

 98106  0  0  1  0  0  0  0  0999 V2000
  -29.4470  -20.7040   19.2990 N   0  0  0  0  0  0  0  0  0  0  0  0
  -29.6780  -20.7700   18.3110 H   0  0  0  0  0  0  0  0  0  0  0  0
  -30.6780  -14.4080   20.4790 C   0  0  0  0  0  0  0  0  0  0  0  0
  -30.3380  -12.2750   19.2900 C   0  0  0  0  0  2  0  0  0  0  0  0
  -29.3980  -12.5270   18.0900 C   0  0  0  0  0  2  0  0  0  0  0  0
  -27.9190  -12.4150   18.5180 C   0  0  0  0  0  2  0  0  0  0  0  0
  -27.6000  -13.2270   19.8030 C   0  0  0  0  0  3  0  0  0  0  0  0
  -28.6540  -12.9540   20.9030 C   0  0  0  0  0  2  0  0  0  0  0  0
  -29.9910  -13.2380   20.3500 N   0  0  0  0  0  0  0  0  0  0  0  0
  -31.7720  -14.6040   19.9270 O   0  0  0  0  0  0  0  0  0  0  0  0
  -29.7140  -17.0130   19.2870 C   0  0  0  0  0  3  0  0  0  0  0  0
  -29.7210  -19.0650   21.1660 C   0  0  0  0  0  2  0  0  0  0  0  0
  -29.5320  -18.3410   18.8570 C   0  0  0  0  0  0  0  0  0  0  0  0
  -29.5640  -19.3950   19.7980 C   0  0  0  0  0  0  0  0  0  0  0  0
  -29.9000  -16.7260   20.6670 C   0  0  0  0  0  0  0  0  0  0  0  0
  -29.8690  -17.7700   21.5410 N   0  0  0  0  0  0  0  0  0  0  0  0
  -30.0370  -15.3870   21.1430 N   0  0  0  0  0  0  0  0  0  0  0  0
  -29.9830  -17.5830   22.5420 H   0  0  0  0  0  0  0  0  0  0  0  0
  -29.3250  -15.0720   21.7810 H   0  0  0  0  0  0  0  0  0  0  0  0
  -25.2040  -13.8550   20.5090 C   0  0  0  0  0  0  0  0  0  0  0  0
  -24.1310  -13.0910   20.8820 C   0  0  0  0  0  0  0  0  0  0  0  0
  -24.5790  -11.7350   20.8480 C   0  0  0  0  0  0  0  0  0  0  0  0
  -26.2420  -12.9660   20.2770 N   0  0  0  0  0  0  0  0  0  0  0  0
  -25.8680  -11.6850   20.5350 N   0  0  0  0  0  0  0  0  0  0  0  0
  -23.8440  -10.4800   21.0390 C   0  0  0  0  0  0  0  0  0  0  0  0
  -24.2770   -9.5040   21.9650 C   0  0  0  0  0  3  0  0  0  0  0  0
  -23.5420   -8.3120   22.1430 C   0  0  0  0  0  3  0  0  0  0  0  0
  -22.3600   -8.0880   21.3980 C   0  0  0  0  0  0  0  0  0  0  0  0
  -21.9480   -9.0540   20.4620 C   0  0  0  0  0  3  0  0  0  0  0  0
  -22.6830  -10.2360   20.2800 C   0  0  0  0  0  3  0  0  0  0  0  0
  -21.5970   -6.9490   21.4860 O   0  0  0  0  0  0  0  0  0  0  0  0
  -21.5580   -6.1960   22.6320 C   0  0  0  0  0  0  0  0  0  0  0  0
  -21.1590   -6.7440   23.8710 C   0  0  0  0  0  3  0  0  0  0  0  0
  -21.0630   -5.9170   25.0090 C   0  0  0  0  0  3  0  0  0  0  0  0
  -21.3600   -4.5450   24.9100 C   0  0  0  0  0  0  0  0  0  0  0  0
  -21.7550   -3.9970   23.6770 C   0  0  0  0  0  3  0  0  0  0  0  0
  -21.8510   -4.8200   22.5400 C   0  0  0  0  0  0  0  0  0  0  0  0
  -22.2090   -4.2820   21.3500 F   0  0  0  0  0  0  0  0  0  0  0  0
  -21.2630   -3.7500   26.0010 F   0  0  0  0  0  0  0  0  0  0  0  0
  -22.7380  -13.5810   21.1590 C   0  0  0  0  0  0  0  0  0  0  0  0
  -22.0050  -12.8910   22.0250 N   0  0  0  0  0  0  0  0  0  0  0  0
  -22.3070  -14.6110   20.6420 O   0  0  0  0  0  0  0  0  0  0  0  0
  -22.3660  -12.0610   22.4700 H   0  0  0  0  0  0  0  0  0  0  0  0
  -21.0690  -13.1980   22.2480 H   0  0  0  0  0  0  0  0  0  0  0  0
  -25.3780  -15.2240   20.3280 N   0  0  0  0  0  0  0  0  0  0  0  0
  -24.6050  -15.8750   20.4260 H   0  0  0  0  0  0  0  0  0  0  0  0
  -26.2100  -15.6520   19.9460 H   0  0  0  0  0  0  0  0  0  0  0  0
  -29.2960  -18.6410   17.5080 N   0  0  0  0  0  0  0  0  0  0  0  0
  -28.9240  -17.8770   16.9570 H   0  0  0  0  0  0  0  0  0  0  0  0
  -28.7130  -19.4620   17.4040 H   0  0  0  0  0  0  0  0  0  0  0  0
  -31.1220  -22.0830   20.4630 C   0  0  0  0  0  1  0  0  0  0  0  0
  -29.6310  -21.8950   20.1190 C   0  0  0  0  0  3  0  0  0  0  0  0
  -29.0630  -23.1220   19.3680 C   0  0  0  0  0  2  0  0  0  0  0  0
  -28.8440  -24.3930   20.2220 C   0  0  0  0  0  3  0  0  0  0  0  0
  -27.6780  -24.1990   21.0100 O   0  0  0  0  0  0  0  0  0  0  0  0
  -26.9210  -24.2720   20.4400 H   0  0  0  0  0  0  0  0  0  0  0  0
  -28.6700  -25.6360   19.3240 C   0  0  0  0  0  2  0  0  0  0  0  0
  -28.4710  -26.8080   20.1140 O   0  0  0  0  0  0  0  0  0  0  0  0
  -24.5850  -31.8730   23.2150 C   0  0  0  0  0  0  0  0  0  0  0  0
  -27.2490  -27.4510   20.1240 C   0  0  0  0  0  0  0  0  0  0  0  0
  -23.3790  -30.4700   21.5710 C   0  0  0  0  0  3  0  0  0  0  0  0
  -24.8350  -28.9320   20.1550 C   0  0  0  0  0  0  0  0  0  0  0  0
  -25.9040  -30.8320   21.3800 C   0  0  0  0  0  2  0  0  0  0  0  0
  -25.9890  -29.4630   20.7400 C   0  0  0  0  0  0  0  0  0  0  0  0
  -27.1940  -28.7290   20.7250 C   0  0  0  0  0  3  0  0  0  0  0  0
  -26.0610  -26.9170   19.5660 C   0  0  0  0  0  3  0  0  0  0  0  0
  -24.8630  -27.6530   19.5760 C   0  0  0  0  0  3  0  0  0  0  0  0
  -23.5910  -29.7880   20.1940 C   0  0  0  0  0  2  0  0  0  0  0  0
  -24.6400  -31.0730   22.1130 N   0  0  0  0  0  0  0  0  0  0  0  0
  -23.5040  -32.1470   23.7530 O   0  0  0  0  0  0  0  0  0  0  0  0
  -22.7260  -29.4500   22.5310 C   0  0  0  0  0  0  0  0  0  0  0  0
  -21.4020  -29.2750   22.4060 N   0  0  0  0  0  0  0  0  0  0  0  0
  -23.4100  -28.8180   23.3420 O   0  0  0  0  0  0  0  0  0  0  0  0
  -20.9120  -29.8340   21.7210 H   0  0  0  0  0  0  0  0  0  0  0  0
  -18.0190  -28.1230   22.9230 C   0  0  0  0  0  0  0  0  0  0  0  0
  -20.5820  -28.3420   23.1770 C   0  0  0  0  0  3  0  0  0  0  0  0
  -20.6620  -26.9170   22.5850 C   0  0  0  0  0  2  0  0  0  0  0  0
  -19.5460  -26.6180   21.5790 C   0  0  0  0  0  2  0  0  0  0  0  0
  -18.1720  -26.7770   22.2350 C   0  0  0  0  0  2  0  0  0  0  0  0
  -19.1520  -28.8640   23.3510 C   0  0  0  0  0  0  0  0  0  0  0  0
  -18.9570  -30.1260   23.9530 C   0  0  0  0  0  3  0  0  0  0  0  0
  -17.6620  -30.6460   24.1340 C   0  0  0  0  0  3  0  0  0  0  0  0
  -16.5420  -29.8990   23.7250 C   0  0  0  0  0  3  0  0  0  0  0  0
  -16.7230  -28.6410   23.1250 C   0  0  0  0  0  3  0  0  0  0  0  0
  -25.8730  -32.5020   23.8340 C   0  0  0  0  0  3  0  0  0  0  0  0
  -25.5630  -33.8970   24.1720 N   0  0  0  0  0  0  0  0  0  0  0  0
  -25.8920  -34.9520   23.4160 C   0  0  0  0  0  0  0  0  0  0  0  0
  -26.5600  -34.8560   22.3830 O   0  0  0  0  0  0  0  0  0  0  0  0
  -24.9740  -34.0480   24.9770 H   0  0  0  0  0  0  0  0  0  0  0  0
  -24.1590  -36.7410   23.0740 C   0  0  0  0  0  1  0  0  0  0  0  0
  -25.4010  -36.3350   23.8820 C   0  0  0  0  0  3  0  0  0  0  0  0
  -27.5320  -37.2210   24.7200 C   0  0  0  0  0  1  0  0  0  0  0  0
  -26.4300  -37.3920   23.7770 N   0  0  0  0  0  0  0  0  0  0  0  0
  -26.0190  -38.3080   23.9330 H   0  0  0  0  0  0  0  0  0  0  0  0
  -26.3980  -31.7230   25.1040 C   0  0  1  0  0  0  0  0  0  0  0  0
  -25.3100  -31.4780   26.1730 C   0  0  0  0  0  1  0  0  0  0  0  0
  -26.9850  -30.3500   24.7000 C   0  0  0  0  0  1  0  0  0  0  0  0
  -27.5440  -32.5190   25.7700 C   0  0  0  0  0  1  0  0  0  0  0  0
  1 14  1  0
  1 52  1  0
  2  1  1  0
  3 17  1  0
  4  9  1  0
  5  6  1  0
  5  4  1  0
  7  6  1  0
  7 23  1  0
  7  8  1  0
  9  3  1  0
  9  8  1  0
 10  3  2  0
 11 15  2  0
 12 16  1  0
 13 11  1  0
 13 14  2  0
 14 12  1  0
 15 17  1  0
 15 16  1  0
 16 18  1  0
 17 19  1  0
 20 21  2  0
 21 40  1  0
 22 21  1  0
 22 25  1  0
 23 20  1  0
 23 24  1  0
 24 22  2  0
 25 26  1  0
 26 27  2  0
 28 31  1  0
 28 27  1  0
 29 28  2  0
 30 29  1  0
 30 25  2  0
 31 32  1  0
 32 33  1  0
 33 34  2  0
 35 34  1  0
 35 39  1  0
 36 35  2  0
 37 32  2  0
 37 36  1  0
 38 37  1  0
 40 41  1  0
 41 44  1  0
 41 43  1  0
 42 40  2  0
 45 46  1  0
 45 20  1  0
 47 45  1  0
 48 13  1  0
 49 48  1  0
 50 48  1  0
 52 51  1  0
 53 52  1  0
 53 54  1  0
 54 57  1  0
 54 55  1  0
 56 55  1  0
 57 58  1  0
 58 60  1  0
 59 70  2  0
 60 65  1  0
 61 69  1  0
 61 71  1  0
 62 68  1  0
 62 64  1  0
 63 69  1  0
 64 63  1  0
 65 64  2  0
 66 67  1  0
 66 60  2  0
 67 62  2  0
 68 61  1  0
 69 59  1  0
 71 73  2  0
 72 71  1  0
 74 72  1  0
 75 84  2  0
 75 80  1  0
 76 72  1  0
 76 80  1  0
 77 76  1  0
 78 79  1  0
 78 77  1  0
 79 75  1  0
 80 81  2  0
 81 82  1  0
 83 82  2  0
 84 83  1  0
 85 59  1  0
 85 86  1  0
 85 95  1  0
 86 89  1  0
 87 91  1  0
 87 86  1  0
 88 87  2  0
 91 90  1  0
 93 91  1  0
 93 94  1  0
 93 92  1  0
 95 98  1  1
 95 96  1  0
 97 95  1  0
M  ISO  4   3 100  17 100  57 101  58 101
M  END
>  <TORSDO>  (70) 
F 22

>  <SCORE>  (70) 
-13.723

>  <name>  (70) 
69

>  <ligand_id>  (70) 
69

>  <original_smiles>  (70) 
[H]OC([H])(C([H])([H])Oc1c([H])c([H])c2c(c1[H])C([H])([H])N(C(=O)C([H])(N([H])C(=O)C([H])(N([H])C([H])([H])[H])C([H])([H])[H])C(C([H])([H])[H])(C([H])([H])[H])C([H])([H])[H])C([H])(C(=O)N([H])C1([H])c3c([H])c([H])c([H])c([H])c3C([H])([H])C([H])([H])C1([H])[H])C2([H])[H])C([H])([H])C([H])(N([H])c1c(N([H])[H])c([H])c(N([H])C(=O)N2C([H])([H])C([H])([H])C([H])([H])C([H])(n3nc(-c4c([H])c([H])c(Oc5c([H])c([H])c(F)c([H])c5F)c([H])c4[H])c(C(=O)N([H])[H])c3N([H])[H])C2([H])[H])[n+]([H])c1[H])C([H])([H])[H]

>  <smiles>  (70) 
[H]OC([H])(C([H])([H])Oc1c([H])c([H])c2c(c1[H])C([H])([H])N(C(=O)C([H])(N([H])C(=O)C([H])(N([H])C([H])([H])[H])C([H])([H])[H])C(C([H])([H])[H])(C([H])([H])[H])C([H])([H])[H])C([H])(C(=O)N([H])C1([H])c3c([H])c([H])c([H])c([H])c3C([H])([H])C([H])([H])C1([H])[H])C2([H])[H])C([H])([H])C([H])(N([H])c1c(N([H])[H])c([H])c(N([H])C(=O)N2C([H])([H])C([H])([H])C([H])([H])C([H])(n3nc(-c4c([H])c([H])c(Oc5c([H])c([H])c(F)c([H])c5F)c([H])c4[H])c(C(=O)N([H])[H])c3N([H])[H])C2([H])[H])[n+]([H])c1[H])C([H])([H])[H]

$$$$
70:0:0
     RDKit          3D

 92100  0  0  1  0  0  0  0  0999 V2000
  -29.7190  -21.7760   21.0890 C   0  0  0  0  0  3  0  0  0  0  0  0
  -29.3680  -21.8160   22.4640 O   0  0  0  0  0  0  0  0  0  0  0  0
  -29.5700  -22.6870   22.7860 H   0  0  0  0  0  0  0  0  0  0  0  0
  -29.3480  -20.3890   20.4880 C   0  0  0  0  0  2  0  0  0  0  0  0
  -31.2130  -19.0390   21.6710 C   0  0  0  0  0  3  0  0  0  0  0  0
  -30.0290  -19.1160   20.9800 C   0  0  0  0  0  0  0  0  0  0  0  0
  -29.4830  -17.8090   20.7210 C   0  0  0  0  0  0  0  0  0  0  0  0
  -30.2740  -16.7650   21.1650 C   0  0  0  0  0  0  0  0  0  0  0  0
  -28.1820  -17.6050   19.9980 C   0  0  0  0  0  1  0  0  0  0  0  0
  -31.7130  -17.3870   21.9420 S   0  0  0  0  0  0  0  0  0  0  0  0
  -30.5960  -14.5080   20.3260 C   0  0  0  0  0  0  0  0  0  0  0  0
  -30.2420  -12.4060   19.0670 C   0  0  0  0  0  2  0  0  0  0  0  0
  -29.2520  -12.6370   17.9050 C   0  0  0  0  0  2  0  0  0  0  0  0
  -27.7990  -12.4610   18.3860 C   0  0  0  0  0  2  0  0  0  0  0  0
  -27.5010  -13.2800   19.6680 C   0  0  0  0  0  3  0  0  0  0  0  0
  -28.5830  -13.0310   20.7420 C   0  0  0  0  0  2  0  0  0  0  0  0
  -29.9000  -13.3470   20.1500 N   0  0  0  0  0  0  0  0  0  0  0  0
  -31.6670  -14.7340   19.7560 O   0  0  0  0  0  0  0  0  0  0  0  0
  -29.9830  -15.4380   21.0910 N   0  0  0  0  0  0  0  0  0  0  0  0
  -29.0860  -15.1620   21.4600 H   0  0  0  0  0  0  0  0  0  0  0  0
  -25.1170  -13.8810   20.4400 C   0  0  0  0  0  0  0  0  0  0  0  0
  -24.0610  -13.1060   20.8420 C   0  0  0  0  0  0  0  0  0  0  0  0
  -24.5210  -11.7530   20.7790 C   0  0  0  0  0  0  0  0  0  0  0  0
  -26.1580  -13.0040   20.1760 N   0  0  0  0  0  0  0  0  0  0  0  0
  -25.8010  -11.7180   20.4340 N   0  0  0  0  0  0  0  0  0  0  0  0
  -23.8010  -10.4870   20.9800 C   0  0  0  0  0  0  0  0  0  0  0  0
  -24.2330   -9.5290   21.9220 C   0  0  0  0  0  3  0  0  0  0  0  0
  -23.5130   -8.3290   22.1040 C   0  0  0  0  0  3  0  0  0  0  0  0
  -22.3480   -8.0760   21.3420 C   0  0  0  0  0  0  0  0  0  0  0  0
  -21.9350   -9.0220   20.3860 C   0  0  0  0  0  3  0  0  0  0  0  0
  -22.6550  -10.2140   20.2020 C   0  0  0  0  0  3  0  0  0  0  0  0
  -21.5990   -6.9270   21.4360 O   0  0  0  0  0  0  0  0  0  0  0  0
  -21.5220   -6.2130   22.6050 C   0  0  0  0  0  0  0  0  0  0  0  0
  -21.0410   -6.7870   23.8020 C   0  0  0  0  0  3  0  0  0  0  0  0
  -20.9130   -5.9960   24.9610 C   0  0  0  0  0  3  0  0  0  0  0  0
  -21.2550   -4.6320   24.9250 C   0  0  0  0  0  0  0  0  0  0  0  0
  -21.7320   -4.0560   23.7320 C   0  0  0  0  0  3  0  0  0  0  0  0
  -21.8620   -4.8440   22.5770 C   0  0  0  0  0  0  0  0  0  0  0  0
  -22.3010   -4.2810   21.4250 F   0  0  0  0  0  0  0  0  0  0  0  0
  -21.1240   -3.8700   26.0360 F   0  0  0  0  0  0  0  0  0  0  0  0
  -22.6720  -13.5770   21.1630 C   0  0  0  0  0  0  0  0  0  0  0  0
  -21.9630  -12.8630   22.0310 N   0  0  0  0  0  0  0  0  0  0  0  0
  -22.2220  -14.6170   20.6820 O   0  0  0  0  0  0  0  0  0  0  0  0
  -22.3380  -12.0250   22.4500 H   0  0  0  0  0  0  0  0  0  0  0  0
  -21.0320  -13.1660   22.2910 H   0  0  0  0  0  0  0  0  0  0  0  0
  -25.2680  -15.2510   20.2530 N   0  0  0  0  0  0  0  0  0  0  0  0
  -24.4930  -15.8960   20.3630 H   0  0  0  0  0  0  0  0  0  0  0  0
  -26.0720  -15.6670   19.8010 H   0  0  0  0  0  0  0  0  0  0  0  0
  -28.8890  -22.8760   20.3660 C   0  0  0  0  0  2  0  0  0  0  0  0
  -29.1640  -24.3640   20.7160 C   0  0  0  0  0  2  0  0  0  0  0  0
  -28.1100  -25.2750   20.0470 C   0  0  0  0  0  2  0  0  0  0  0  0
  -28.3010  -26.6900   20.2450 O   0  0  0  0  0  0  0  0  0  0  0  0
  -24.5970  -31.9570   23.2790 C   0  0  0  0  0  0  0  0  0  0  0  0
  -27.1530  -27.4660   20.1900 C   0  0  0  0  0  0  0  0  0  0  0  0
  -23.3620  -30.5670   21.6560 C   0  0  0  0  0  3  0  0  0  0  0  0
  -24.7810  -29.0200   20.2150 C   0  0  0  0  0  0  0  0  0  0  0  0
  -25.8900  -30.8980   21.4280 C   0  0  0  0  0  2  0  0  0  0  0  0
  -25.9540  -29.5230   20.7910 C   0  0  0  0  0  0  0  0  0  0  0  0
  -27.1420  -28.7540   20.7780 C   0  0  0  0  0  3  0  0  0  0  0  0
  -25.9620  -26.9980   19.5810 C   0  0  0  0  0  3  0  0  0  0  0  0
  -24.7800  -27.7550   19.6060 C   0  0  0  0  0  3  0  0  0  0  0  0
  -23.5490  -29.8900   20.2740 C   0  0  0  0  0  2  0  0  0  0  0  0
  -24.6370  -31.1560   22.1790 N   0  0  0  0  0  0  0  0  0  0  0  0
  -23.5250  -32.2390   23.8300 O   0  0  0  0  0  0  0  0  0  0  0  0
  -22.7120  -29.5500   22.6220 C   0  0  0  0  0  0  0  0  0  0  0  0
  -21.3900  -29.3570   22.4910 N   0  0  0  0  0  0  0  0  0  0  0  0
  -23.3960  -28.9380   23.4470 O   0  0  0  0  0  0  0  0  0  0  0  0
  -20.8990  -29.9020   21.7960 H   0  0  0  0  0  0  0  0  0  0  0  0
  -18.0250  -28.1340   22.9730 C   0  0  0  0  0  0  0  0  0  0  0  0
  -20.5760  -28.4240   23.2690 C   0  0  0  0  0  3  0  0  0  0  0  0
  -20.6990  -26.9840   22.7210 C   0  0  0  0  0  2  0  0  0  0  0  0
  -19.6130  -26.6320   21.6980 C   0  0  0  0  0  2  0  0  0  0  0  0
  -18.2200  -26.7760   22.3200 C   0  0  0  0  0  2  0  0  0  0  0  0
  -19.1300  -28.9140   23.4020 C   0  0  0  0  0  0  0  0  0  0  0  0
  -18.8910  -30.1850   23.9710 C   0  0  0  0  0  3  0  0  0  0  0  0
  -17.5800  -30.6760   24.1130 C   0  0  0  0  0  3  0  0  0  0  0  0
  -16.4890  -29.8940   23.6990 C   0  0  0  0  0  3  0  0  0  0  0  0
  -16.7110  -28.6260   23.1340 C   0  0  0  0  0  3  0  0  0  0  0  0
  -25.8950  -32.5810   23.8830 C   0  0  0  0  0  3  0  0  0  0  0  0
  -25.5970  -33.9790   24.2230 N   0  0  0  0  0  0  0  0  0  0  0  0
  -25.9110  -35.0320   23.4550 C   0  0  0  0  0  0  0  0  0  0  0  0
  -26.5530  -34.9280   22.4060 O   0  0  0  0  0  0  0  0  0  0  0  0
  -25.0280  -34.1340   25.0420 H   0  0  0  0  0  0  0  0  0  0  0  0
  -24.1740  -36.8240   23.1500 C   0  0  0  0  0  1  0  0  0  0  0  0
  -25.4370  -36.4200   23.9270 C   0  0  0  0  0  3  0  0  0  0  0  0
  -27.5920  -37.3070   24.7000 C   0  0  0  0  0  1  0  0  0  0  0  0
  -26.4670  -37.4720   23.7850 N   0  0  0  0  0  0  0  0  0  0  0  0
  -26.0660  -38.3940   23.9390 H   0  0  0  0  0  0  0  0  0  0  0  0
  -26.4280  -31.8030   25.1460 C   0  0  1  0  0  0  0  0  0  0  0  0
  -25.3510  -31.5600   26.2280 C   0  0  0  0  0  1  0  0  0  0  0  0
  -27.0060  -30.4280   24.7340 C   0  0  0  0  0  1  0  0  0  0  0  0
  -27.5850  -32.5950   25.7980 C   0  0  0  0  0  1  0  0  0  0  0  0
  1 49  1  0
  1  2  1  0
  2  3  1  0
  4  6  1  0
  4  1  1  0
  5 10  1  0
  6  5  2  0
  7  6  1  0
  7  8  2  0
  8 10  1  0
  9  7  1  0
 11 19  1  0
 12 17  1  0
 13 14  1  0
 13 12  1  0
 15 14  1  0
 15 24  1  0
 15 16  1  0
 17 11  1  0
 17 16  1  0
 18 11  2  0
 19  8  1  0
 19 20  1  0
 21 22  2  0
 22 41  1  0
 23 22  1  0
 23 26  1  0
 24 25  1  0
 24 21  1  0
 25 23  2  0
 26 27  1  0
 27 28  2  0
 29 32  1  0
 29 28  1  0
 30 29  2  0
 31 30  1  0
 31 26  2  0
 32 33  1  0
 33 34  1  0
 34 35  2  0
 36 35  1  0
 36 40  1  0
 37 36  2  0
 38 33  2  0
 38 37  1  0
 39 38  1  0
 41 42  1  0
 42 45  1  0
 42 44  1  0
 43 41  2  0
 46 47  1  0
 46 21  1  0
 48 46  1  0
 49 50  1  0
 51 52  1  0
 51 50  1  0
 53 64  2  0
 54 52  1  0
 54 59  1  0
 55 63  1  0
 55 65  1  0
 56 62  1  0
 56 58  1  0
 57 63  1  0
 58 57  1  0
 59 58  2  0
 60 61  1  0
 60 54  2  0
 61 56  2  0
 62 55  1  0
 63 53  1  0
 65 67  2  0
 66 65  1  0
 68 66  1  0
 69 78  2  0
 69 74  1  0
 70 66  1  0
 70 74  1  0
 71 70  1  0
 72 73  1  0
 72 71  1  0
 73 69  1  0
 74 75  2  0
 75 76  1  0
 77 76  2  0
 78 77  1  0
 79 53  1  0
 79 80  1  0
 79 89  1  0
 80 83  1  0
 81 85  1  0
 81 80  1  0
 82 81  2  0
 85 84  1  0
 87 85  1  0
 87 88  1  0
 87 86  1  0
 89 92  1  1
 89 90  1  0
 91 89  1  0
M  ISO  4  11 100  19 100  51 101  52 101
M  END
>  <TORSDO>  (71) 
F 22

>  <SCORE>  (71) 
-12.982

>  <name>  (71) 
70

>  <ligand_id>  (71) 
70

>  <original_smiles>  (71) 
[H]OC([H])(C([H])([H])c1c([H])sc(N([H])C(=O)N2C([H])([H])C([H])([H])C([H])([H])C([H])(n3nc(-c4c([H])c([H])c(Oc5c([H])c([H])c(F)c([H])c5F)c([H])c4[H])c(C(=O)N([H])[H])c3N([H])[H])C2([H])[H])c1C([H])([H])[H])C([H])([H])C([H])([H])C([H])([H])Oc1c([H])c([H])c2c(c1[H])C([H])([H])N(C(=O)C([H])(N([H])C(=O)C([H])(N([H])C([H])([H])[H])C([H])([H])[H])C(C([H])([H])[H])(C([H])([H])[H])C([H])([H])[H])C([H])(C(=O)N([H])C1([H])c3c([H])c([H])c([H])c([H])c3C([H])([H])C([H])([H])C1([H])[H])C2([H])[H]

>  <smiles>  (71) 
[H]OC([H])(C([H])([H])c1c([H])sc(N([H])C(=O)N2C([H])([H])C([H])([H])C([H])([H])C([H])(n3nc(-c4c([H])c([H])c(Oc5c([H])c([H])c(F)c([H])c5F)c([H])c4[H])c(C(=O)N([H])[H])c3N([H])[H])C2([H])[H])c1C([H])([H])[H])C([H])([H])C([H])([H])C([H])([H])Oc1c([H])c([H])c2c(c1[H])C([H])([H])N(C(=O)C([H])(N([H])C(=O)C([H])(N([H])C([H])([H])[H])C([H])([H])[H])C(C([H])([H])[H])(C([H])([H])[H])C([H])([H])[H])C([H])(C(=O)N([H])C1([H])c3c([H])c([H])c([H])c([H])c3C([H])([H])C([H])([H])C1([H])[H])C2([H])[H]

$$$$
71:0:0
     RDKit          3D

 94102  0  0  1  0  0  0  0  0999 V2000
  -29.5650  -18.5320   20.0980 C   0  0  0  0  0  0  0  0  0  0  0  0
  -27.4930  -19.1330   19.5960 C   0  0  0  0  0  0  0  0  0  0  0  0
  -28.9570  -20.7720   19.9360 C   0  0  0  0  0  0  0  0  0  0  0  0
  -28.3330  -18.1340   19.8080 N   0  0  0  0  0  4  0  0  0  0  0  0
  -29.9340  -19.8530   20.1930 N   0  0  0  0  0  0  0  0  0  0  0  0
  -27.7090  -20.4460   19.6260 N   0  0  0  0  0  2  0  0  0  0  0  0
  -26.2320  -18.7310   19.2710 N   0  0  0  0  0  0  0  0  0  0  0  0
  -29.2450  -22.1840   20.0920 N   0  0  0  0  0  0  0  0  0  0  0  0
  -25.4860  -19.4080   19.3680 H   0  0  0  0  0  0  0  0  0  0  0  0
  -25.9780  -17.7800   19.5070 H   0  0  0  0  0  0  0  0  0  0  0  0
  -30.1980  -22.3090   20.4050 H   0  0  0  0  0  0  0  0  0  0  0  0
  -29.6310  -23.8280   18.2390 C   0  0  0  0  0  1  0  0  0  0  0  0
  -28.7000  -23.4560   19.4160 C   0  0  0  0  0  3  0  0  0  0  0  0
  -28.3450  -24.7910   20.3280 C   0  0  0  0  0  2  0  0  0  0  0  0
  -28.4630  -26.2640   19.9600 O   0  0  0  0  0  0  0  0  0  0  0  0
  -24.5760  -31.6310   23.1080 C   0  0  0  0  0  0  0  0  0  0  0  0
  -27.3480  -27.1390   19.9950 C   0  0  0  0  0  0  0  0  0  0  0  0
  -23.4580  -30.2570   21.3920 C   0  0  0  0  0  3  0  0  0  0  0  0
  -24.9780  -28.7660   19.9690 C   0  0  0  0  0  0  0  0  0  0  0  0
  -26.0040  -30.6020   21.3110 C   0  0  0  0  0  2  0  0  0  0  0  0
  -26.1260  -29.2390   20.6200 C   0  0  0  0  0  0  0  0  0  0  0  0
  -27.3190  -28.4380   20.6160 C   0  0  0  0  0  3  0  0  0  0  0  0
  -26.1760  -26.7350   19.3300 C   0  0  0  0  0  3  0  0  0  0  0  0
  -25.0080  -27.5230   19.3160 C   0  0  0  0  0  3  0  0  0  0  0  0
  -23.7330  -29.6330   19.9990 C   0  0  0  0  0  2  0  0  0  0  0  0
  -24.6970  -30.8480   21.9930 N   0  0  0  0  0  0  0  0  0  0  0  0
  -23.4690  -31.8720   23.6120 O   0  0  0  0  0  0  0  0  0  0  0  0
  -22.7790  -29.2020   22.2990 C   0  0  0  0  0  0  0  0  0  0  0  0
  -21.4500  -29.0420   22.1600 N   0  0  0  0  0  0  0  0  0  0  0  0
  -23.4460  -28.5340   23.0930 O   0  0  0  0  0  0  0  0  0  0  0  0
  -20.9640  -29.6310   21.4980 H   0  0  0  0  0  0  0  0  0  0  0  0
  -18.0570  -27.8810   22.6450 C   0  0  0  0  0  0  0  0  0  0  0  0
  -20.6240  -28.0700   22.8820 C   0  0  0  0  0  3  0  0  0  0  0  0
  -20.6870  -26.6800   22.2110 C   0  0  0  0  0  2  0  0  0  0  0  0
  -19.5620  -26.4490   21.1990 C   0  0  0  0  0  2  0  0  0  0  0  0
  -18.1960  -26.5770   21.8760 C   0  0  0  0  0  2  0  0  0  0  0  0
  -19.2010  -28.5880   23.1030 C   0  0  0  0  0  0  0  0  0  0  0  0
  -19.0220  -29.8120   23.7870 C   0  0  0  0  0  3  0  0  0  0  0  0
  -17.7300  -30.3270   24.0130 C   0  0  0  0  0  3  0  0  0  0  0  0
  -16.6030  -29.6160   23.5660 C   0  0  0  0  0  3  0  0  0  0  0  0
  -16.7650  -28.3910   22.8940 C   0  0  0  0  0  3  0  0  0  0  0  0
  -25.8220  -32.2740   23.7870 C   0  0  0  0  0  3  0  0  0  0  0  0
  -26.2940  -31.4960   25.0760 C   0  0  1  0  0  0  0  0  0  0  0  0
  -25.1600  -31.2360   26.0960 C   0  0  0  0  0  1  0  0  0  0  0  0
  -26.9070  -30.1250   24.6990 C   0  0  0  0  0  1  0  0  0  0  0  0
  -27.4070  -32.2960   25.7940 C   0  0  0  0  0  1  0  0  0  0  0  0
  -25.4770  -33.6620   24.1230 N   0  0  0  0  0  0  0  0  0  0  0  0
  -25.8350  -34.7340   23.4020 C   0  0  0  0  0  0  0  0  0  0  0  0
  -26.5580  -34.6580   22.4050 O   0  0  0  0  0  0  0  0  0  0  0  0
  -24.8410  -33.7960   24.8950 H   0  0  0  0  0  0  0  0  0  0  0  0
  -24.0980  -36.5140   23.0040 C   0  0  0  0  0  1  0  0  0  0  0  0
  -25.3080  -36.1100   23.8600 C   0  0  0  0  0  3  0  0  0  0  0  0
  -27.3880  -37.0160   24.8030 C   0  0  0  0  0  1  0  0  0  0  0  0
  -26.3300  -37.1800   23.8070 N   0  0  0  0  0  0  0  0  0  0  0  0
  -25.9030  -38.0920   23.9470 H   0  0  0  0  0  0  0  0  0  0  0  0
  -30.6050  -17.3450   20.3510 C   0  0  0  0  0  2  0  0  0  0  0  0
  -30.8510  -14.7180   20.3580 C   0  0  0  0  0  0  0  0  0  0  0  0
  -30.5930  -12.4280   19.3800 C   0  0  0  0  0  2  0  0  0  0  0  0
  -29.6780  -12.5040   18.1390 C   0  0  0  0  0  2  0  0  0  0  0  0
  -28.2090  -12.3270   18.5580 C   0  0  0  0  0  2  0  0  0  0  0  0
  -27.8270  -13.2540   19.7410 C   0  0  0  0  0  3  0  0  0  0  0  0
  -28.8670  -13.2020   20.8810 C   0  0  0  0  0  2  0  0  0  0  0  0
  -30.1800  -13.5120   20.3030 N   0  0  0  0  0  0  0  0  0  0  0  0
  -32.0420  -14.7640   20.0440 O   0  0  0  0  0  0  0  0  0  0  0  0
  -30.1390  -15.8970   20.5530 N   0  0  0  0  0  0  0  0  0  0  0  0
  -29.1620  -15.8250   20.7900 H   0  0  0  0  0  0  0  0  0  0  0  0
  -25.4490  -13.8890   20.4420 C   0  0  0  0  0  0  0  0  0  0  0  0
  -24.3660  -13.1370   20.8000 C   0  0  0  0  0  0  0  0  0  0  0  0
  -24.8080  -11.7790   20.7990 C   0  0  0  0  0  0  0  0  0  0  0  0
  -26.4790  -12.9920   20.2260 N   0  0  0  0  0  0  0  0  0  0  0  0
  -26.1020  -11.7170   20.5080 N   0  0  0  0  0  0  0  0  0  0  0  0
  -24.0580  -10.5280   20.9920 C   0  0  0  0  0  0  0  0  0  0  0  0
  -24.4620   -9.5640   21.9420 C   0  0  0  0  0  3  0  0  0  0  0  0
  -23.7140   -8.3810   22.1210 C   0  0  0  0  0  3  0  0  0  0  0  0
  -22.5480   -8.1510   21.3550 C   0  0  0  0  0  0  0  0  0  0  0  0
  -22.1650   -9.1020   20.3940 C   0  0  0  0  0  3  0  0  0  0  0  0
  -22.9130  -10.2780   20.2110 C   0  0  0  0  0  3  0  0  0  0  0  0
  -21.7750   -7.0190   21.4460 O   0  0  0  0  0  0  0  0  0  0  0  0
  -21.6950   -6.2940   22.6090 C   0  0  0  0  0  0  0  0  0  0  0  0
  -21.2440   -6.8710   23.8160 C   0  0  0  0  0  3  0  0  0  0  0  0
  -21.1090   -6.0730   24.9690 C   0  0  0  0  0  3  0  0  0  0  0  0
  -21.4130   -4.7010   24.9160 C   0  0  0  0  0  0  0  0  0  0  0  0
  -21.8630   -4.1240   23.7150 C   0  0  0  0  0  3  0  0  0  0  0  0
  -22.0000   -4.9190   22.5640 C   0  0  0  0  0  0  0  0  0  0  0  0
  -22.4090   -4.3560   21.4010 F   0  0  0  0  0  0  0  0  0  0  0  0
  -21.2740   -3.9290   26.0210 F   0  0  0  0  0  0  0  0  0  0  0  0
  -22.9730  -13.6380   21.0440 C   0  0  0  0  0  0  0  0  0  0  0  0
  -22.2260  -12.9760   21.9210 N   0  0  0  0  0  0  0  0  0  0  0  0
  -22.5550  -14.6530   20.4880 O   0  0  0  0  0  0  0  0  0  0  0  0
  -22.5770  -12.1520   22.3880 H   0  0  0  0  0  0  0  0  0  0  0  0
  -21.2940  -13.3030   22.1300 H   0  0  0  0  0  0  0  0  0  0  0  0
  -25.6480  -15.2520   20.2520 N   0  0  0  0  0  0  0  0  0  0  0  0
  -24.8980  -15.9310   20.2980 H   0  0  0  0  0  0  0  0  0  0  0  0
  -26.5280  -15.6580   19.9570 H   0  0  0  0  0  0  0  0  0  0  0  0
  1  5  1  0
  1 56  1  0
  2  6  1  0
  2  4  2  0
  3  8  1  0
  3  5  2  0
  4  1  2  0
  6  3  1  0
  7  9  1  0
  7 10  1  0
  7  2  1  0
  8 11  1  0
 13 12  1  0
 13  8  1  0
 13 14  1  0
 15 17  1  0
 15 14  1  0
 16 27  2  0
 17 22  1  0
 18 26  1  0
 18 28  1  0
 19 25  1  0
 19 21  1  0
 20 26  1  0
 21 20  1  0
 22 21  2  0
 23 17  2  0
 24 23  1  0
 24 19  2  0
 25 18  1  0
 26 16  1  0
 28 30  2  0
 29 28  1  0
 31 29  1  0
 32 41  2  0
 32 37  1  0
 33 29  1  0
 33 37  1  0
 34 33  1  0
 35 36  1  0
 35 34  1  0
 36 32  1  0
 37 38  2  0
 38 39  1  0
 40 39  2  0
 41 40  1  0
 42 16  1  0
 42 47  1  0
 42 43  1  0
 43 46  1  1
 43 44  1  0
 45 43  1  0
 47 50  1  0
 48 52  1  0
 48 47  1  0
 49 48  2  0
 52 51  1  0
 54 52  1  0
 54 55  1  0
 54 53  1  0
 56 65  1  0
 57 65  1  0
 58 63  1  0
 59 60  1  0
 59 58  1  0
 61 60  1  0
 61 70  1  0
 61 62  1  0
 63 57  1  0
 63 62  1  0
 64 57  2  0
 65 66  1  0
 67 68  2  0
 68 87  1  0
 69 68  1  0
 69 72  1  0
 70 67  1  0
 70 71  1  0
 71 69  2  0
 72 73  1  0
 73 74  2  0
 75 78  1  0
 75 74  1  0
 76 75  2  0
 77 76  1  0
 77 72  2  0
 78 79  1  0
 79 80  1  0
 80 81  2  0
 82 81  1  0
 82 86  1  0
 83 82  2  0
 84 79  2  0
 84 83  1  0
 85 84  1  0
 87 88  1  0
 88 91  1  0
 88 90  1  0
 89 87  2  0
 92 93  1  0
 92 67  1  0
 94 92  1  0
M  ISO  4  14 101  15 101  57 100  65 100
M  END
>  <TORSDO>  (72) 
F 19

>  <SCORE>  (72) 
-13.900

>  <name>  (72) 
71

>  <ligand_id>  (72) 
71

>  <original_smiles>  (72) 
[H]c1c([H])c([H])c2c(c1[H])C([H])([H])C([H])([H])C([H])([H])C2([H])N([H])C(=O)C1([H])N(C(=O)C([H])(N([H])C(=O)C([H])(N([H])C([H])([H])[H])C([H])([H])[H])C(C([H])([H])[H])(C([H])([H])[H])C([H])([H])[H])C([H])([H])c2c([H])c(OC([H])([H])C([H])(N([H])c3nc(N([H])[H])nc(C([H])([H])N([H])C(=O)N4C([H])([H])C([H])([H])C([H])([H])C([H])(n5nc(-c6c([H])c([H])c(Oc7c([H])c([H])c(F)c([H])c7F)c([H])c6[H])c(C(=O)N([H])[H])c5N([H])[H])C4([H])[H])n3)C([H])([H])[H])c([H])c([H])c2C1([H])[H]

>  <smiles>  (72) 
[H]c1c([H])c([H])c2c(c1[H])C([H])([H])C([H])([H])C([H])([H])C2([H])N([H])C(=O)C1([H])N(C(=O)C([H])(N([H])C(=O)C([H])(N([H])C([H])([H])[H])C([H])([H])[H])C(C([H])([H])[H])(C([H])([H])[H])C([H])([H])[H])C([H])([H])c2c([H])c(OC([H])([H])C([H])(N([H])c3nc(N([H])[H])nc(C([H])([H])N([H])C(=O)N4C([H])([H])C([H])([H])C([H])([H])C([H])(n5nc(-c6c([H])c([H])c(Oc7c([H])c([H])c(F)c([H])c7F)c([H])c6[H])c(C(=O)N([H])[H])c5N([H])[H])C4([H])[H])n3)C([H])([H])[H])c([H])c([H])c2C1([H])[H]

$$$$
72:0:0
     RDKit          3D

 93101  0  0  1  0  0  0  0  0999 V2000
  -29.6480  -21.7060   19.3290 C   0  0  0  0  0  3  0  0  0  0  0  0
  -31.2970  -22.0500   17.3540 C   0  0  0  0  0  1  0  0  0  0  0  0
  -30.2060  -21.1660   17.9790 C   0  0  0  0  0  2  0  0  0  0  0  0
  -27.2400  -22.5120   18.7640 C   0  0  0  0  0  1  0  0  0  0  0  0
  -28.6950  -22.9350   19.0470 C   0  0  0  0  0  3  0  0  0  0  0  0
  -28.7480  -24.1540   20.0270 C   0  0  0  0  0  2  0  0  0  0  0  0
  -28.6250  -25.5320   19.2970 C   0  0  0  0  0  2  0  0  0  0  0  0
  -28.4300  -26.6850   20.1500 O   0  0  0  0  0  0  0  0  0  0  0  0
  -24.6020  -31.8700   23.2370 C   0  0  0  0  0  0  0  0  0  0  0  0
  -27.2390  -27.4010   20.1380 C   0  0  0  0  0  0  0  0  0  0  0  0
  -23.3930  -30.4710   21.5960 C   0  0  0  0  0  3  0  0  0  0  0  0
  -24.8420  -28.9310   20.1680 C   0  0  0  0  0  0  0  0  0  0  0  0
  -25.9230  -30.8180   21.3990 C   0  0  0  0  0  2  0  0  0  0  0  0
  -26.0040  -29.4460   20.7540 C   0  0  0  0  0  0  0  0  0  0  0  0
  -27.2010  -28.6880   20.7360 C   0  0  0  0  0  3  0  0  0  0  0  0
  -26.0410  -26.8990   19.5740 C   0  0  0  0  0  3  0  0  0  0  0  0
  -24.8570  -27.6570   19.5800 C   0  0  0  0  0  3  0  0  0  0  0  0
  -23.6000  -29.7940   20.2150 C   0  0  0  0  0  2  0  0  0  0  0  0
  -24.6570  -31.0690   22.1340 N   0  0  0  0  0  0  0  0  0  0  0  0
  -23.5200  -32.1450   23.7760 O   0  0  0  0  0  0  0  0  0  0  0  0
  -22.7410  -29.4500   22.5550 C   0  0  0  0  0  0  0  0  0  0  0  0
  -21.4160  -29.2680   22.4280 N   0  0  0  0  0  0  0  0  0  0  0  0
  -23.4230  -28.8230   23.3690 O   0  0  0  0  0  0  0  0  0  0  0  0
  -20.9260  -29.8250   21.7410 H   0  0  0  0  0  0  0  0  0  0  0  0
  -18.0410  -28.0730   22.9210 C   0  0  0  0  0  0  0  0  0  0  0  0
  -20.5990  -28.3310   23.1970 C   0  0  0  0  0  3  0  0  0  0  0  0
  -20.7030  -26.9000   22.6210 C   0  0  0  0  0  2  0  0  0  0  0  0
  -19.6020  -26.5760   21.6060 C   0  0  0  0  0  2  0  0  0  0  0  0
  -18.2190  -26.7220   22.2470 C   0  0  0  0  0  2  0  0  0  0  0  0
  -19.1590  -28.8340   23.3530 C   0  0  0  0  0  0  0  0  0  0  0  0
  -18.9390  -30.0990   23.9420 C   0  0  0  0  0  3  0  0  0  0  0  0
  -17.6340  -30.6010   24.1040 C   0  0  0  0  0  3  0  0  0  0  0  0
  -16.5310  -29.8350   23.6890 C   0  0  0  0  0  3  0  0  0  0  0  0
  -16.7360  -28.5730   23.1030 C   0  0  0  0  0  3  0  0  0  0  0  0
  -25.8880  -32.4980   23.8570 C   0  0  0  0  0  3  0  0  0  0  0  0
  -25.5810  -33.8960   24.1900 N   0  0  0  0  0  0  0  0  0  0  0  0
  -25.9130  -34.9490   23.4310 C   0  0  0  0  0  0  0  0  0  0  0  0
  -26.5810  -34.8460   22.3990 O   0  0  0  0  0  0  0  0  0  0  0  0
  -24.9870  -34.0510   24.9910 H   0  0  0  0  0  0  0  0  0  0  0  0
  -24.1840  -36.7410   23.0820 C   0  0  0  0  0  1  0  0  0  0  0  0
  -25.4270  -36.3360   23.8910 C   0  0  0  0  0  3  0  0  0  0  0  0
  -27.5640  -37.2190   24.7160 C   0  0  0  0  0  1  0  0  0  0  0  0
  -26.4580  -37.3900   23.7770 N   0  0  0  0  0  0  0  0  0  0  0  0
  -26.0530  -38.3090   23.9270 H   0  0  0  0  0  0  0  0  0  0  0  0
  -26.4090  -31.7240   25.1290 C   0  0  1  0  0  0  0  0  0  0  0  0
  -25.3190  -31.4850   26.2000 C   0  0  0  0  0  1  0  0  0  0  0  0
  -26.9910  -30.3470   24.7320 C   0  0  0  0  0  1  0  0  0  0  0  0
  -27.5640  -32.5160   25.7890 C   0  0  0  0  0  1  0  0  0  0  0  0
  -28.9800  -20.6320   20.0900 N   0  0  0  0  0  0  0  0  0  0  0  0
  -27.9670  -20.7080   20.1250 H   0  0  0  0  0  0  0  0  0  0  0  0
  -30.6320  -14.5080   20.4290 C   0  0  0  0  0  0  0  0  0  0  0  0
  -30.3690  -12.3310   19.2890 C   0  0  0  0  0  2  0  0  0  0  0  0
  -29.4220  -12.5340   18.0850 C   0  0  0  0  0  2  0  0  0  0  0  0
  -27.9470  -12.3970   18.5150 C   0  0  0  0  0  2  0  0  0  0  0  0
  -27.6110  -13.2270   19.7820 C   0  0  0  0  0  3  0  0  0  0  0  0
  -28.6670  -12.9920   20.8880 C   0  0  0  0  0  2  0  0  0  0  0  0
  -29.9900  -13.3100   20.3210 N   0  0  0  0  0  0  0  0  0  0  0  0
  -31.7710  -14.6880   19.9840 O   0  0  0  0  0  0  0  0  0  0  0  0
  -30.8960  -18.9850   20.3870 C   0  0  0  0  0  3  0  0  0  0  0  0
  -29.5690  -19.3680   20.3380 C   0  0  0  0  0  0  0  0  0  0  0  0
  -29.9580  -16.9230   20.7090 C   0  0  0  0  0  0  0  0  0  0  0  0
  -31.1050  -17.6050   20.5830 N   0  0  0  0  0  0  0  0  0  0  0  0
  -29.8650  -15.5090   20.9190 N   0  0  0  0  0  0  0  0  0  0  0  0
  -28.5370  -17.9770   20.6300 S   0  0  0  0  0  0  0  0  0  0  0  0
  -28.9650  -15.1950   21.2430 H   0  0  0  0  0  0  0  0  0  0  0  0
  -25.2120  -13.8400   20.4830 C   0  0  0  0  0  0  0  0  0  0  0  0
  -24.1440  -13.0710   20.8570 C   0  0  0  0  0  0  0  0  0  0  0  0
  -24.6040  -11.7190   20.8360 C   0  0  0  0  0  0  0  0  0  0  0  0
  -26.2570  -12.9560   20.2590 N   0  0  0  0  0  0  0  0  0  0  0  0
  -25.8950  -11.6760   20.5290 N   0  0  0  0  0  0  0  0  0  0  0  0
  -23.8760  -10.4590   21.0330 C   0  0  0  0  0  0  0  0  0  0  0  0
  -24.3170   -9.4890   21.9610 C   0  0  0  0  0  3  0  0  0  0  0  0
  -23.5910   -8.2940   22.1460 C   0  0  0  0  0  3  0  0  0  0  0  0
  -22.4100   -8.0580   21.4020 C   0  0  0  0  0  0  0  0  0  0  0  0
  -21.9900   -9.0160   20.4620 C   0  0  0  0  0  3  0  0  0  0  0  0
  -22.7160  -10.2030   20.2760 C   0  0  0  0  0  3  0  0  0  0  0  0
  -21.6550   -6.9150   21.4960 O   0  0  0  0  0  0  0  0  0  0  0  0
  -21.6270   -6.1620   22.6430 C   0  0  0  0  0  0  0  0  0  0  0  0
  -21.2350   -6.7110   23.8840 C   0  0  0  0  0  3  0  0  0  0  0  0
  -21.1540   -5.8870   25.0240 C   0  0  0  0  0  3  0  0  0  0  0  0
  -21.4540   -4.5150   24.9240 C   0  0  0  0  0  0  0  0  0  0  0  0
  -21.8390   -3.9660   23.6880 C   0  0  0  0  0  3  0  0  0  0  0  0
  -21.9220   -4.7870   22.5500 C   0  0  0  0  0  0  0  0  0  0  0  0
  -22.2730   -4.2500   21.3570 F   0  0  0  0  0  0  0  0  0  0  0  0
  -21.3690   -3.7200   26.0160 F   0  0  0  0  0  0  0  0  0  0  0  0
  -22.7460  -13.5510   21.1250 C   0  0  0  0  0  0  0  0  0  0  0  0
  -22.0180  -12.8610   21.9950 N   0  0  0  0  0  0  0  0  0  0  0  0
  -22.3090  -14.5730   20.5980 O   0  0  0  0  0  0  0  0  0  0  0  0
  -22.3850  -12.0330   22.4420 H   0  0  0  0  0  0  0  0  0  0  0  0
  -21.0810  -13.1630   22.2180 H   0  0  0  0  0  0  0  0  0  0  0  0
  -25.3780  -15.2090   20.2960 N   0  0  0  0  0  0  0  0  0  0  0  0
  -24.6030  -15.8570   20.3900 H   0  0  0  0  0  0  0  0  0  0  0  0
  -26.2130  -15.6440   19.9250 H   0  0  0  0  0  0  0  0  0  0  0  0
  1  3  1  0
  1 49  1  0
  2  3  1  0
  5  4  1  0
  5  1  1  0
  5  6  1  0
  7  6  1  0
  7  8  1  0
  9 20  2  0
 10  8  1  0
 10 15  1  0
 11 19  1  0
 11 21  1  0
 12 18  1  0
 12 14  1  0
 13 19  1  0
 14 13  1  0
 15 14  2  0
 16 17  1  0
 16 10  2  0
 17 12  2  0
 18 11  1  0
 19  9  1  0
 21 23  2  0
 22 21  1  0
 24 22  1  0
 25 34  2  0
 25 30  1  0
 26 22  1  0
 26 30  1  0
 27 26  1  0
 28 29  1  0
 28 27  1  0
 29 25  1  0
 30 31  2  0
 31 32  1  0
 33 32  2  0
 34 33  1  0
 35  9  1  0
 35 36  1  0
 35 45  1  0
 36 39  1  0
 37 41  1  0
 37 36  1  0
 38 37  2  0
 41 40  1  0
 43 41  1  0
 43 44  1  0
 43 42  1  0
 45 48  1  1
 45 46  1  0
 47 45  1  0
 49 50  1  0
 49 60  1  0
 51 63  1  0
 52 57  1  0
 53 54  1  0
 53 52  1  0
 55 54  1  0
 55 69  1  0
 55 56  1  0
 57 51  1  0
 57 56  1  0
 58 51  2  0
 59 62  1  0
 60 59  2  0
 60 64  1  0
 61 63  1  0
 62 61  2  0
 63 65  1  0
 64 61  1  0
 66 67  2  0
 67 86  1  0
 68 67  1  0
 68 71  1  0
 69 66  1  0
 69 70  1  0
 70 68  2  0
 71 72  1  0
 72 73  2  0
 74 77  1  0
 74 73  1  0
 75 74  2  0
 76 75  1  0
 76 71  2  0
 77 78  1  0
 78 79  1  0
 79 80  2  0
 81 80  1  0
 81 85  1  0
 82 81  2  0
 83 78  2  0
 83 82  1  0
 84 83  1  0
 86 87  1  0
 87 90  1  0
 87 89  1  0
 88 86  2  0
 91 92  1  0
 91 66  1  0
 93 91  1  0
M  ISO  4   7 101   8 101  51 100  63 100
M  END
>  <TORSDO>  (73) 
F 21

>  <SCORE>  (73) 
-13.472

>  <name>  (73) 
72

>  <ligand_id>  (73) 
72

>  <original_smiles>  (73) 
[H]c1nc(N([H])C(=O)N2C([H])([H])C([H])([H])C([H])([H])C([H])(n3nc(-c4c([H])c([H])c(Oc5c([H])c([H])c(F)c([H])c5F)c([H])c4[H])c(C(=O)N([H])[H])c3N([H])[H])C2([H])[H])sc1N([H])C([H])(C([H])([H])C([H])([H])[H])C([H])(C([H])([H])[H])C([H])([H])C([H])([H])Oc1c([H])c([H])c2c(c1[H])C([H])([H])N(C(=O)C([H])(N([H])C(=O)C([H])(N([H])C([H])([H])[H])C([H])([H])[H])C(C([H])([H])[H])(C([H])([H])[H])C([H])([H])[H])C([H])(C(=O)N([H])C1([H])c3c([H])c([H])c([H])c([H])c3C([H])([H])C([H])([H])C1([H])[H])C2([H])[H]

>  <smiles>  (73) 
[H]c1nc(N([H])C(=O)N2C([H])([H])C([H])([H])C([H])([H])C([H])(n3nc(-c4c([H])c([H])c(Oc5c([H])c([H])c(F)c([H])c5F)c([H])c4[H])c(C(=O)N([H])[H])c3N([H])[H])C2([H])[H])sc1N([H])C([H])(C([H])([H])C([H])([H])[H])C([H])(C([H])([H])[H])C([H])([H])C([H])([H])Oc1c([H])c([H])c2c(c1[H])C([H])([H])N(C(=O)C([H])(N([H])C(=O)C([H])(N([H])C([H])([H])[H])C([H])([H])[H])C(C([H])([H])[H])(C([H])([H])[H])C([H])([H])[H])C([H])(C(=O)N([H])C1([H])c3c([H])c([H])c([H])c([H])c3C([H])([H])C([H])([H])C1([H])[H])C2([H])[H]

$$$$
73:0:0
     RDKit          3D

 94102  0  0  1  0  0  0  0  0999 V2000
  -29.8800  -22.1200   20.1940 C   0  0  2  0  0  0  0  0  0  0  0  0
  -32.2620  -21.3080   19.4610 C   0  0  0  0  0  1  0  0  0  0  0  0
  -31.2880  -22.4780   19.6520 C   0  0  0  0  0  2  0  0  0  0  0  0
  -30.0040  -21.7120   21.5440 O   0  0  0  0  0  0  0  0  0  0  0  0
  -29.7500  -20.7890   21.5720 H   0  0  0  0  0  0  0  0  0  0  0  0
  -29.1670  -20.9720   19.4000 C   0  0  0  0  0  2  0  0  0  0  0  0
  -30.7010  -14.4780   20.0840 C   0  0  0  0  0  0  0  0  0  0  0  0
  -30.3350  -12.3360   18.9280 C   0  0  0  0  0  2  0  0  0  0  0  0
  -29.3400  -12.6100   17.7790 C   0  0  0  0  0  2  0  0  0  0  0  0
  -27.8840  -12.4860   18.2710 C   0  0  0  0  0  2  0  0  0  0  0  0
  -27.6230  -13.2700   19.5850 C   0  0  0  0  0  3  0  0  0  0  0  0
  -28.7310  -12.9930   20.6280 C   0  0  0  0  0  2  0  0  0  0  0  0
  -30.0340  -13.2920   20.0070 N   0  0  0  0  0  0  0  0  0  0  0  0
  -31.8090  -14.6560   19.5660 O   0  0  0  0  0  0  0  0  0  0  0  0
  -30.0770  -18.6250   18.7780 C   0  0  0  0  0  3  0  0  0  0  0  0
  -29.4080  -17.7470   21.2330 C   0  0  0  0  0  3  0  0  0  0  0  0
  -29.5280  -19.5100   19.7370 C   0  0  0  0  0  0  0  0  0  0  0  0
  -29.9590  -16.8470   20.2840 C   0  0  0  0  0  0  0  0  0  0  0  0
  -29.1950  -19.0620   20.9740 N   0  0  0  0  0  0  0  0  0  0  0  0
  -30.2990  -17.3110   19.0490 N   0  0  0  0  0  0  0  0  0  0  0  0
  -30.0280  -15.4770   20.6800 N   0  0  0  0  0  0  0  0  0  0  0  0
  -29.2980  -15.1810   21.3060 H   0  0  0  0  0  0  0  0  0  0  0  0
  -25.2610  -13.8810   20.4060 C   0  0  0  0  0  0  0  0  0  0  0  0
  -24.2050  -13.1110   20.8150 C   0  0  0  0  0  0  0  0  0  0  0  0
  -24.6550  -11.7560   20.7460 C   0  0  0  0  0  0  0  0  0  0  0  0
  -26.2900  -12.9950   20.1190 N   0  0  0  0  0  0  0  0  0  0  0  0
  -25.9290  -11.7120   20.3810 N   0  0  0  0  0  0  0  0  0  0  0  0
  -23.9290  -10.4960   20.9580 C   0  0  0  0  0  0  0  0  0  0  0  0
  -24.3820   -9.5300   21.8820 C   0  0  0  0  0  3  0  0  0  0  0  0
  -23.6580   -8.3360   22.0800 C   0  0  0  0  0  3  0  0  0  0  0  0
  -22.4670   -8.0990   21.3530 C   0  0  0  0  0  0  0  0  0  0  0  0
  -22.0330   -9.0540   20.4160 C   0  0  0  0  0  3  0  0  0  0  0  0
  -22.7570  -10.2410   20.2170 C   0  0  0  0  0  3  0  0  0  0  0  0
  -21.7130   -6.9550   21.4600 O   0  0  0  0  0  0  0  0  0  0  0  0
  -21.6650   -6.2280   22.6240 C   0  0  0  0  0  0  0  0  0  0  0  0
  -21.2410   -6.8000   23.8430 C   0  0  0  0  0  3  0  0  0  0  0  0
  -21.1420   -6.0000   24.9980 C   0  0  0  0  0  3  0  0  0  0  0  0
  -21.4580   -4.6300   24.9360 C   0  0  0  0  0  0  0  0  0  0  0  0
  -21.8750   -4.0580   23.7220 C   0  0  0  0  0  3  0  0  0  0  0  0
  -21.9780   -4.8550   22.5690 C   0  0  0  0  0  0  0  0  0  0  0  0
  -22.3590   -4.2940   21.3940 F   0  0  0  0  0  0  0  0  0  0  0  0
  -21.3570   -3.8580   26.0440 F   0  0  0  0  0  0  0  0  0  0  0  0
  -22.8250  -13.5940   21.1570 C   0  0  0  0  0  0  0  0  0  0  0  0
  -22.1330  -12.8930   22.0480 N   0  0  0  0  0  0  0  0  0  0  0  0
  -22.3690  -14.6260   20.6660 O   0  0  0  0  0  0  0  0  0  0  0  0
  -22.5140  -12.0580   22.4690 H   0  0  0  0  0  0  0  0  0  0  0  0
  -21.2060  -13.1950   22.3150 H   0  0  0  0  0  0  0  0  0  0  0  0
  -25.4270  -15.2520   20.2360 N   0  0  0  0  0  0  0  0  0  0  0  0
  -24.6680  -15.9100   20.3750 H   0  0  0  0  0  0  0  0  0  0  0  0
  -26.2620  -15.6900   19.8660 H   0  0  0  0  0  0  0  0  0  0  0  0
  -28.9850  -23.4040   20.2100 C   0  0  0  0  0  3  0  0  0  0  0  0
  -29.4470  -24.5770   21.1240 C   0  0  0  0  0  3  0  0  0  0  0  0
  -28.4210  -25.7240   21.2870 C   0  0  0  0  0  2  0  0  0  0  0  0
  -28.4200  -26.6650   20.2060 O   0  0  0  0  0  0  0  0  0  0  0  0
  -24.5730  -31.8600   23.2170 C   0  0  0  0  0  0  0  0  0  0  0  0
  -27.2780  -27.4300   20.1830 C   0  0  0  0  0  0  0  0  0  0  0  0
  -23.3960  -30.4520   21.5570 C   0  0  0  0  0  3  0  0  0  0  0  0
  -24.8760  -28.9170   20.1560 C   0  0  0  0  0  0  0  0  0  0  0  0
  -25.9210  -30.8220   21.3980 C   0  0  0  0  0  2  0  0  0  0  0  0
  -26.0230  -29.4520   20.7580 C   0  0  0  0  0  0  0  0  0  0  0  0
  -27.2310  -28.7150   20.7700 C   0  0  0  0  0  3  0  0  0  0  0  0
  -26.1180  -26.9060   19.5770 C   0  0  0  0  0  3  0  0  0  0  0  0
  -24.9190  -27.6440   19.5610 C   0  0  0  0  0  3  0  0  0  0  0  0
  -23.6270  -29.7680   20.1830 C   0  0  0  0  0  2  0  0  0  0  0  0
  -24.6460  -31.0590   22.1170 N   0  0  0  0  0  0  0  0  0  0  0  0
  -23.4840  -32.1300   23.7420 O   0  0  0  0  0  0  0  0  0  0  0  0
  -22.7330  -29.4320   22.5120 C   0  0  0  0  0  0  0  0  0  0  0  0
  -21.4070  -29.2590   22.3760 N   0  0  0  0  0  0  0  0  0  0  0  0
  -23.4070  -28.7990   23.3300 O   0  0  0  0  0  0  0  0  0  0  0  0
  -20.9250  -29.8200   21.6890 H   0  0  0  0  0  0  0  0  0  0  0  0
  -18.0220  -28.0870   22.8500 C   0  0  0  0  0  0  0  0  0  0  0  0
  -20.5800  -28.3230   23.1380 C   0  0  0  0  0  3  0  0  0  0  0  0
  -20.6750  -26.8950   22.5540 C   0  0  0  0  0  2  0  0  0  0  0  0
  -19.5760  -26.5860   21.5330 C   0  0  0  0  0  2  0  0  0  0  0  0
  -18.1920  -26.7380   22.1700 C   0  0  0  0  0  2  0  0  0  0  0  0
  -19.1450  -28.8370   23.2920 C   0  0  0  0  0  0  0  0  0  0  0  0
  -18.9320  -30.1000   23.8880 C   0  0  0  0  0  3  0  0  0  0  0  0
  -17.6310  -30.6100   24.0490 C   0  0  0  0  0  3  0  0  0  0  0  0
  -16.5230  -29.8570   23.6240 C   0  0  0  0  0  3  0  0  0  0  0  0
  -16.7200  -28.5960   23.0320 C   0  0  0  0  0  3  0  0  0  0  0  0
  -25.8500  -32.4940   23.8550 C   0  0  0  0  0  3  0  0  0  0  0  0
  -26.3590  -31.7210   25.1310 C   0  0  1  0  0  0  0  0  0  0  0  0
  -25.2580  -31.4740   26.1900 C   0  0  0  0  0  1  0  0  0  0  0  0
  -26.9520  -30.3470   24.7390 C   0  0  0  0  0  1  0  0  0  0  0  0
  -27.5000  -32.5180   25.8070 C   0  0  0  0  0  1  0  0  0  0  0  0
  -25.5340  -33.8890   24.1840 N   0  0  0  0  0  0  0  0  0  0  0  0
  -25.8690  -34.9440   23.4290 C   0  0  0  0  0  0  0  0  0  0  0  0
  -26.5490  -34.8450   22.4040 O   0  0  0  0  0  0  0  0  0  0  0  0
  -24.9310  -34.0420   24.9800 H   0  0  0  0  0  0  0  0  0  0  0  0
  -24.1370  -36.7290   23.0600 C   0  0  0  0  0  1  0  0  0  0  0  0
  -25.3720  -36.3300   23.8830 C   0  0  0  0  0  3  0  0  0  0  0  0
  -27.4960  -37.2220   24.7340 C   0  0  0  0  0  1  0  0  0  0  0  0
  -26.4010  -37.3880   23.7800 N   0  0  0  0  0  0  0  0  0  0  0  0
  -25.9890  -38.3050   23.9260 H   0  0  0  0  0  0  0  0  0  0  0  0
  1  6  1  6
  1 51  1  0
  1  4  1  0
  2  3  1  0
  3  1  1  0
  4  5  1  0
  6 17  1  0
  7 21  1  0
  8 13  1  0
  9 10  1  0
  9  8  1  0
 11 10  1  0
 11 26  1  0
 11 12  1  0
 13  7  1  0
 13 12  1  0
 14  7  2  0
 15 20  2  0
 15 17  1  0
 17 19  2  0
 18 21  1  0
 18 16  2  0
 19 16  1  0
 20 18  1  0
 21 22  1  0
 23 24  2  0
 24 43  1  0
 25 24  1  0
 25 28  1  0
 26 27  1  0
 26 23  1  0
 27 25  2  0
 28 29  1  0
 29 30  2  0
 31 34  1  0
 31 30  1  0
 32 31  2  0
 33 32  1  0
 33 28  2  0
 34 35  1  0
 35 36  1  0
 36 37  2  0
 38 37  1  0
 38 42  1  0
 39 38  2  0
 40 35  2  0
 40 39  1  0
 41 40  1  0
 43 44  1  0
 44 47  1  0
 44 46  1  0
 45 43  2  0
 48 49  1  0
 48 23  1  0
 50 48  1  0
 51 52  2  0
 52 53  1  0
 54 53  1  0
 55 66  2  0
 56 54  1  0
 56 61  1  0
 57 65  1  0
 57 67  1  0
 58 64  1  0
 58 60  1  0
 59 65  1  0
 60 61  2  0
 60 59  1  0
 62 56  2  0
 63 62  1  0
 63 58  2  0
 64 57  1  0
 65 55  1  0
 67 69  2  0
 68 67  1  0
 70 68  1  0
 71 80  2  0
 71 76  1  0
 72 68  1  0
 72 76  1  0
 73 72  1  0
 74 75  1  0
 74 73  1  0
 75 71  1  0
 76 77  2  0
 77 78  1  0
 79 78  2  0
 80 79  1  0
 81 55  1  0
 81 86  1  0
 81 82  1  0
 82 85  1  1
 82 83  1  0
 84 82  1  0
 86 89  1  0
 87 91  1  0
 87 86  1  0
 88 87  2  0
 91 90  1  0
 93 91  1  0
 93 94  1  0
 93 92  1  0
M  ISO  4   7 100  21 100  53 101  54 101
M  END
>  <TORSDO>  (74) 
F 22

>  <SCORE>  (74) 
-13.185

>  <name>  (74) 
73

>  <ligand_id>  (74) 
73

>  <original_smiles>  (74) 
[H]OC(C([H])([H])c1nc([H])c(N([H])C(=O)N2C([H])([H])C([H])([H])C([H])([H])C([H])(n3nc(-c4c([H])c([H])c(Oc5c([H])c([H])c(F)c([H])c5F)c([H])c4[H])c(C(=O)N([H])[H])c3N([H])[H])C2([H])[H])nc1[H])(C([H])([H])C([H])([H])[H])C([H])([H])C([H])([H])C([H])([H])Oc1c([H])c([H])c2c(c1[H])C([H])([H])N(C(=O)C([H])(N([H])C(=O)C([H])(N([H])C([H])([H])[H])C([H])([H])[H])C(C([H])([H])[H])(C([H])([H])[H])C([H])([H])[H])C([H])(C(=O)N([H])C1([H])c3c([H])c([H])c([H])c([H])c3C([H])([H])C([H])([H])C1([H])[H])C2([H])[H]

>  <smiles>  (74) 
[H]OC(C([H])([H])c1nc([H])c(N([H])C(=O)N2C([H])([H])C([H])([H])C([H])([H])C([H])(n3nc(-c4c([H])c([H])c(Oc5c([H])c([H])c(F)c([H])c5F)c([H])c4[H])c(C(=O)N([H])[H])c3N([H])[H])C2([H])[H])nc1[H])(C([H])([H])C([H])([H])[H])C([H])([H])C([H])([H])C([H])([H])Oc1c([H])c([H])c2c(c1[H])C([H])([H])N(C(=O)C([H])(N([H])C(=O)C([H])(N([H])C([H])([H])[H])C([H])([H])[H])C(C([H])([H])[H])(C([H])([H])[H])C([H])([H])[H])C([H])(C(=O)N([H])C1([H])c3c([H])c([H])c([H])c([H])c3C([H])([H])C([H])([H])C1([H])[H])C2([H])[H]

$$$$
74:0:0
     RDKit          3D

 95103  0  0  1  0  0  0  0  0999 V2000
  -30.6130  -14.8170   20.5050 C   0  0  0  0  0  0  0  0  0  0  0  0
  -30.4210  -12.5450   19.4910 C   0  0  0  0  0  2  0  0  0  0  0  0
  -29.5200  -12.6400   18.2390 C   0  0  0  0  0  2  0  0  0  0  0  0
  -28.0390  -12.4840   18.6280 C   0  0  0  0  0  2  0  0  0  0  0  0
  -27.6430  -13.3720   19.8380 C   0  0  0  0  0  3  0  0  0  0  0  0
  -28.6640  -13.2600   20.9910 C   0  0  0  0  0  2  0  0  0  0  0  0
  -29.9880  -13.5910   20.4490 N   0  0  0  0  0  0  0  0  0  0  0  0
  -31.7710  -14.9340   20.0920 O   0  0  0  0  0  0  0  0  0  0  0  0
  -29.3860  -17.1470   18.8140 C   0  0  0  0  0  3  0  0  0  0  0  0
  -28.9740  -19.5520   18.7380 C   0  0  0  0  0  3  0  0  0  0  0  0
  -29.0310  -18.3010   18.0910 C   0  0  0  0  0  0  0  0  0  0  0  0
  -29.6710  -17.2080   20.1960 C   0  0  0  0  0  3  0  0  0  0  0  0
  -29.2810  -19.6780   20.1140 C   0  0  0  0  0  0  0  0  0  0  0  0
  -29.6000  -18.4820   20.7760 N   0  0  0  0  0  0  0  0  0  0  0  0
  -29.8840  -15.9270   20.9100 N   0  0  0  0  0  0  0  0  0  0  0  0
  -29.7950  -18.5500   21.7810 H   0  0  0  0  0  0  0  0  0  0  0  0
  -29.1230  -15.6780   21.5250 H   0  0  0  0  0  0  0  0  0  0  0  0
  -25.2380  -13.9870   20.4830 C   0  0  0  0  0  0  0  0  0  0  0  0
  -24.1560  -13.2240   20.8280 C   0  0  0  0  0  0  0  0  0  0  0  0
  -24.6110  -11.8700   20.8260 C   0  0  0  0  0  0  0  0  0  0  0  0
  -26.2820  -13.0980   20.2870 N   0  0  0  0  0  0  0  0  0  0  0  0
  -25.9090  -11.8200   20.5550 N   0  0  0  0  0  0  0  0  0  0  0  0
  -23.8720  -10.6140   21.0100 C   0  0  0  0  0  0  0  0  0  0  0  0
  -24.2860   -9.6440   21.9490 C   0  0  0  0  0  3  0  0  0  0  0  0
  -23.5460   -8.4540   22.1210 C   0  0  0  0  0  3  0  0  0  0  0  0
  -22.3790   -8.2260   21.3550 C   0  0  0  0  0  0  0  0  0  0  0  0
  -21.9850   -9.1850   20.4060 C   0  0  0  0  0  3  0  0  0  0  0  0
  -22.7240  -10.3660   20.2300 C   0  0  0  0  0  3  0  0  0  0  0  0
  -21.6150   -7.0870   21.4360 O   0  0  0  0  0  0  0  0  0  0  0  0
  -21.5600   -6.3360   22.5820 C   0  0  0  0  0  0  0  0  0  0  0  0
  -21.1500   -6.8880   23.8150 C   0  0  0  0  0  3  0  0  0  0  0  0
  -21.0410   -6.0650   24.9540 C   0  0  0  0  0  3  0  0  0  0  0  0
  -21.3310   -4.6910   24.8600 C   0  0  0  0  0  0  0  0  0  0  0  0
  -21.7320   -4.1380   23.6320 C   0  0  0  0  0  3  0  0  0  0  0  0
  -21.8430   -4.9580   22.4960 C   0  0  0  0  0  0  0  0  0  0  0  0
  -22.2100   -4.4150   21.3100 F   0  0  0  0  0  0  0  0  0  0  0  0
  -21.2200   -3.8990   25.9530 F   0  0  0  0  0  0  0  0  0  0  0  0
  -22.7560  -13.7140   21.0570 C   0  0  0  0  0  0  0  0  0  0  0  0
  -22.0010  -13.0310   21.9090 N   0  0  0  0  0  0  0  0  0  0  0  0
  -22.3400  -14.7370   20.5150 O   0  0  0  0  0  0  0  0  0  0  0  0
  -22.3520  -12.2040   22.3690 H   0  0  0  0  0  0  0  0  0  0  0  0
  -21.0600  -13.3400   22.1080 H   0  0  0  0  0  0  0  0  0  0  0  0
  -25.4190  -15.3550   20.2980 N   0  0  0  0  0  0  0  0  0  0  0  0
  -24.6600  -16.0190   20.4070 H   0  0  0  0  0  0  0  0  0  0  0  0
  -26.2880  -15.7850   20.0130 H   0  0  0  0  0  0  0  0  0  0  0  0
  -28.7420  -18.1890   16.7250 N   0  0  0  0  0  0  0  0  0  0  0  0
  -28.5630  -17.2600   16.3600 H   0  0  0  0  0  0  0  0  0  0  0  0
  -28.1360  -18.8890   16.3070 H   0  0  0  0  0  0  0  0  0  0  0  0
  -29.2930  -20.9880   20.7470 N   0  0  0  0  0  0  0  0  0  0  0  0
  -29.6780  -21.0260   21.6810 H   0  0  0  0  0  0  0  0  0  0  0  0
  -27.0420  -21.9800   21.0890 C   0  0  0  0  0  1  0  0  0  0  0  0
  -28.4000  -22.1710   20.3850 C   0  0  0  0  0  3  0  0  0  0  0  0
  -28.9400  -23.6970   20.6260 C   0  0  0  0  0  3  0  0  0  0  0  0
  -28.0020  -24.9550   20.1970 C   0  0  0  0  0  3  0  0  0  0  0  0
  -28.3240  -26.4230   20.3660 O   0  0  0  0  0  0  0  0  0  0  0  0
  -24.6390  -31.9770   23.2730 C   0  0  0  0  0  0  0  0  0  0  0  0
  -27.2540  -27.3510   20.2640 C   0  0  0  0  0  0  0  0  0  0  0  0
  -23.4500  -30.5710   21.6330 C   0  0  0  0  0  3  0  0  0  0  0  0
  -24.9090  -29.0180   20.2180 C   0  0  0  0  0  0  0  0  0  0  0  0
  -25.9970  -30.8740   21.4720 C   0  0  0  0  0  2  0  0  0  0  0  0
  -26.0800  -29.4920   20.8240 C   0  0  0  0  0  0  0  0  0  0  0  0
  -27.2570  -28.6710   20.8350 C   0  0  0  0  0  3  0  0  0  0  0  0
  -26.0610  -26.9640   19.6080 C   0  0  0  0  0  3  0  0  0  0  0  0
  -24.9080  -27.7640   19.5940 C   0  0  0  0  0  3  0  0  0  0  0  0
  -23.6750  -29.8940   20.2580 C   0  0  0  0  0  2  0  0  0  0  0  0
  -24.7140  -31.1600   22.1810 N   0  0  0  0  0  0  0  0  0  0  0  0
  -23.5500  -32.2580   23.7940 O   0  0  0  0  0  0  0  0  0  0  0  0
  -22.7780  -29.5600   22.5930 C   0  0  0  0  0  0  0  0  0  0  0  0
  -21.4520  -29.3860   22.4600 N   0  0  0  0  0  0  0  0  0  0  0  0
  -23.4490  -28.9330   23.4180 O   0  0  0  0  0  0  0  0  0  0  0  0
  -20.9690  -29.9440   21.7710 H   0  0  0  0  0  0  0  0  0  0  0  0
  -18.0650  -28.2040   22.9550 C   0  0  0  0  0  0  0  0  0  0  0  0
  -20.6260  -28.4490   23.2260 C   0  0  0  0  0  3  0  0  0  0  0  0
  -20.7220  -27.0220   22.6420 C   0  0  0  0  0  2  0  0  0  0  0  0
  -19.6160  -26.7080   21.6280 C   0  0  0  0  0  2  0  0  0  0  0  0
  -18.2350  -26.8550   22.2750 C   0  0  0  0  0  2  0  0  0  0  0  0
  -19.1890  -28.9600   23.3870 C   0  0  0  0  0  0  0  0  0  0  0  0
  -18.9760  -30.2210   23.9820 C   0  0  0  0  0  3  0  0  0  0  0  0
  -17.6740  -30.7290   24.1470 C   0  0  0  0  0  3  0  0  0  0  0  0
  -16.5650  -29.9710   23.7330 C   0  0  0  0  0  3  0  0  0  0  0  0
  -16.7610  -28.7080   23.1460 C   0  0  0  0  0  3  0  0  0  0  0  0
  -25.9160  -32.6140   23.9020 C   0  0  0  0  0  3  0  0  0  0  0  0
  -26.4250  -31.8480   25.1860 C   0  0  1  0  0  0  0  0  0  0  0  0
  -25.3220  -31.6020   26.2420 C   0  0  0  0  0  1  0  0  0  0  0  0
  -27.0220  -30.4730   24.8050 C   0  0  0  0  0  1  0  0  0  0  0  0
  -27.5630  -32.6520   25.8560 C   0  0  0  0  0  1  0  0  0  0  0  0
  -25.6000  -34.0130   24.2290 N   0  0  0  0  0  0  0  0  0  0  0  0
  -25.9200  -35.0640   23.4630 C   0  0  0  0  0  0  0  0  0  0  0  0
  -26.5800  -34.9590   22.4260 O   0  0  0  0  0  0  0  0  0  0  0  0
  -25.0160  -34.1680   25.0370 H   0  0  0  0  0  0  0  0  0  0  0  0
  -24.1720  -36.8410   23.1300 C   0  0  0  0  0  1  0  0  0  0  0  0
  -25.4320  -36.4540   23.9190 C   0  0  0  0  0  3  0  0  0  0  0  0
  -27.5750  -37.3610   24.7020 C   0  0  0  0  0  1  0  0  0  0  0  0
  -26.4540  -37.5120   23.7770 N   0  0  0  0  0  0  0  0  0  0  0  0
  -26.0440  -38.4320   23.9230 H   0  0  0  0  0  0  0  0  0  0  0  0
  1 15  1  0
  2  7  1  0
  3  4  1  0
  3  2  1  0
  5  4  1  0
  5 21  1  0
  5  6  1  0
  7  1  1  0
  7  6  1  0
  8  1  2  0
  9 12  1  0
 10 13  2  0
 11 10  1  0
 11  9  2  0
 12 14  1  0
 12 15  1  0
 13 49  1  0
 13 14  1  0
 14 16  1  0
 15 17  1  0
 18 19  2  0
 19 38  1  0
 20 19  1  0
 20 23  1  0
 21 18  1  0
 21 22  1  0
 22 20  2  0
 23 24  1  0
 24 25  2  0
 26 29  1  0
 26 25  1  0
 27 26  2  0
 28 27  1  0
 28 23  2  0
 29 30  1  0
 30 31  1  0
 31 32  2  0
 33 32  1  0
 33 37  1  0
 34 33  2  0
 35 30  2  0
 35 34  1  0
 36 35  1  0
 38 39  1  0
 39 42  1  0
 39 41  1  0
 40 38  2  0
 43 44  1  0
 43 18  1  0
 45 43  1  0
 46 11  1  0
 47 46  1  0
 48 46  1  0
 49 50  1  0
 52 53  1  0
 52 49  1  0
 52 51  1  0
 54 55  1  0
 54 53  2  0
 56 67  2  0
 57 55  1  0
 57 62  1  0
 58 66  1  0
 58 68  1  0
 59 65  1  0
 59 61  1  0
 60 66  1  0
 61 62  2  0
 61 60  1  0
 63 57  2  0
 64 63  1  0
 64 59  2  0
 65 58  1  0
 66 56  1  0
 68 70  2  0
 69 68  1  0
 71 69  1  0
 72 81  2  0
 72 77  1  0
 73 69  1  0
 73 77  1  0
 74 73  1  0
 75 76  1  0
 75 74  1  0
 76 72  1  0
 77 78  2  0
 78 79  1  0
 80 79  2  0
 81 80  1  0
 82 56  1  0
 82 87  1  0
 82 83  1  0
 83 86  1  1
 83 84  1  0
 85 83  1  0
 87 90  1  0
 88 92  1  0
 88 87  1  0
 89 88  2  0
 92 91  1  0
 94 92  1  0
 94 95  1  0
 94 93  1  0
M  ISO  4   1 100  15 100  54 101  55 101
M  END
>  <TORSDO>  (75) 
F 20

>  <SCORE>  (75) 
-13.909

>  <name>  (75) 
74

>  <ligand_id>  (75) 
74

>  <original_smiles>  (75) 
[H]c1c([H])c([H])c2c(c1[H])C([H])([H])C([H])([H])C([H])([H])C2([H])N([H])C(=O)C1([H])N(C(=O)C([H])(N([H])C(=O)C([H])(N([H])C([H])([H])[H])C([H])([H])[H])C(C([H])([H])[H])(C([H])([H])[H])C([H])([H])[H])C([H])([H])c2c([H])c(OC([H])([H])C([H])([H])C([H])(N([H])c3c([H])c(N([H])[H])c([H])c(N([H])C(=O)N4C([H])([H])C([H])([H])C([H])([H])C([H])(n5nc(-c6c([H])c([H])c(Oc7c([H])c([H])c(F)c([H])c7F)c([H])c6[H])c(C(=O)N([H])[H])c5N([H])[H])C4([H])[H])[n+]3[H])C([H])([H])[H])c([H])c([H])c2C1([H])[H]

>  <smiles>  (75) 
[H]c1c([H])c([H])c2c(c1[H])C([H])([H])C([H])([H])C([H])([H])C2([H])N([H])C(=O)C1([H])N(C(=O)C([H])(N([H])C(=O)C([H])(N([H])C([H])([H])[H])C([H])([H])[H])C(C([H])([H])[H])(C([H])([H])[H])C([H])([H])[H])C([H])([H])c2c([H])c(OC([H])([H])C([H])([H])C([H])(N([H])c3c([H])c(N([H])[H])c([H])c(N([H])C(=O)N4C([H])([H])C([H])([H])C([H])([H])C([H])(n5nc(-c6c([H])c([H])c(Oc7c([H])c([H])c(F)c([H])c7F)c([H])c6[H])c(C(=O)N([H])[H])c5N([H])[H])C4([H])[H])[n+]3[H])C([H])([H])[H])c([H])c([H])c2C1([H])[H]

$$$$
75:0:0
     RDKit          3D

 91 99  0  0  1  0  0  0  0  0999 V2000
  -28.1870  -18.3570   20.3330 C   0  0  0  0  0  3  0  0  0  0  0  0
  -27.2780  -19.4250   20.3970 C   0  0  0  0  0  3  0  0  0  0  0  0
  -29.5220  -18.6550   20.0400 C   0  0  0  0  0  0  0  0  0  0  0  0
  -28.9040  -20.9820   19.9400 C   0  0  0  0  0  0  0  0  0  0  0  0
  -27.6330  -20.7150   20.2010 N   0  0  0  0  0  0  0  0  0  0  0  0
  -29.8530  -20.0000   19.8520 N   0  0  0  0  0  0  0  0  0  0  0  0
  -29.2310  -22.3760   19.7780 N   0  0  0  0  0  4  0  0  0  0  0  0
  -30.2040  -22.5410   19.5570 H   0  0  0  0  0  0  0  0  0  0  0  0
  -27.8620  -23.6560   18.0920 C   0  0  0  0  0  1  0  0  0  0  0  0
  -28.3060  -23.5780   19.5620 C   0  0  0  0  0  0  0  0  0  0  0  0
  -28.6390  -25.0290   20.2780 C   0  0  0  0  0  2  0  0  0  0  0  0
  -28.5980  -26.4480   19.7470 O   0  0  0  0  0  0  0  0  0  0  0  0
  -24.6710  -31.6510   23.0890 C   0  0  0  0  0  0  0  0  0  0  0  0
  -27.4640  -27.2860   19.8450 C   0  0  0  0  0  0  0  0  0  0  0  0
  -23.5400  -30.2930   21.3690 C   0  0  0  0  0  3  0  0  0  0  0  0
  -25.0610  -28.8650   19.8820 C   0  0  0  0  0  0  0  0  0  0  0  0
  -26.0750  -30.6910   21.2430 C   0  0  0  0  0  2  0  0  0  0  0  0
  -26.2090  -29.3470   20.5250 C   0  0  0  0  0  0  0  0  0  0  0  0
  -27.4180  -28.5720   20.4920 C   0  0  0  0  0  3  0  0  0  0  0  0
  -26.2910  -26.8740   19.1870 C   0  0  0  0  0  3  0  0  0  0  0  0
  -25.1100  -27.6400   19.2000 C   0  0  0  0  0  3  0  0  0  0  0  0
  -23.7940  -29.6970   19.9590 C   0  0  0  0  0  2  0  0  0  0  0  0
  -24.7790  -30.8950   21.9560 N   0  0  0  0  0  0  0  0  0  0  0  0
  -23.5710  -31.8580   23.6250 O   0  0  0  0  0  0  0  0  0  0  0  0
  -22.9120  -29.2000   22.2690 C   0  0  0  0  0  0  0  0  0  0  0  0
  -21.5920  -28.9800   22.1310 N   0  0  0  0  0  0  0  0  0  0  0  0
  -23.6110  -28.5520   23.0530 O   0  0  0  0  0  0  0  0  0  0  0  0
  -21.0850  -29.5380   21.4600 H   0  0  0  0  0  0  0  0  0  0  0  0
  -18.2530  -27.6870   22.6250 C   0  0  0  0  0  0  0  0  0  0  0  0
  -20.8130  -27.9730   22.8560 C   0  0  0  0  0  3  0  0  0  0  0  0
  -20.9290  -26.5940   22.1690 C   0  0  0  0  0  2  0  0  0  0  0  0
  -19.8060  -26.3110   21.1660 C   0  0  0  0  0  2  0  0  0  0  0  0
  -18.4320  -26.3950   21.8430 C   0  0  0  0  0  2  0  0  0  0  0  0
  -19.3690  -28.4340   23.0880 C   0  0  0  0  0  0  0  0  0  0  0  0
  -19.1450  -29.6440   23.7770 C   0  0  0  0  0  3  0  0  0  0  0  0
  -17.8340  -30.1050   24.0130 C   0  0  0  0  0  3  0  0  0  0  0  0
  -16.7350  -29.3560   23.5630 C   0  0  0  0  0  3  0  0  0  0  0  0
  -16.9440  -28.1480   22.8740 C   0  0  0  0  0  3  0  0  0  0  0  0
  -25.9210  -32.3040   23.7550 C   0  0  0  0  0  3  0  0  0  0  0  0
  -26.4240  -31.5230   25.0310 C   0  0  1  0  0  0  0  0  0  0  0  0
  -25.3100  -31.2440   26.0660 C   0  0  0  0  0  1  0  0  0  0  0  0
  -27.0510  -30.1660   24.6360 C   0  0  0  0  0  1  0  0  0  0  0  0
  -27.5400  -32.3330   25.7340 C   0  0  0  0  0  1  0  0  0  0  0  0
  -25.5620  -33.6840   24.1120 N   0  0  0  0  0  0  0  0  0  0  0  0
  -25.8640  -34.7660   23.3790 C   0  0  0  0  0  0  0  0  0  0  0  0
  -26.5470  -34.7050   22.3530 O   0  0  0  0  0  0  0  0  0  0  0  0
  -24.9500  -33.8010   24.9060 H   0  0  0  0  0  0  0  0  0  0  0  0
  -24.0780  -36.5040   23.0470 C   0  0  0  0  0  1  0  0  0  0  0  0
  -25.3260  -36.1250   23.8600 C   0  0  0  0  0  3  0  0  0  0  0  0
  -27.4130  -37.0770   24.7350 C   0  0  0  0  0  1  0  0  0  0  0  0
  -26.3220  -37.2170   23.7730 N   0  0  0  0  0  0  0  0  0  0  0  0
  -25.8820  -38.1210   23.9200 H   0  0  0  0  0  0  0  0  0  0  0  0
  -30.5900  -17.4750   19.9130 C   0  0  0  0  0  2  0  0  0  0  0  0
  -31.0030  -14.8710   20.0080 C   0  0  0  0  0  0  0  0  0  0  0  0
  -30.7410  -12.5960   19.0020 C   0  0  0  0  0  2  0  0  0  0  0  0
  -29.7630  -12.7080   17.8120 C   0  0  0  0  0  2  0  0  0  0  0  0
  -28.3060  -12.5610   18.2930 C   0  0  0  0  0  2  0  0  0  0  0  0
  -28.0000  -13.4360   19.5370 C   0  0  0  0  0  3  0  0  0  0  0  0
  -29.0950  -13.3080   20.6160 C   0  0  0  0  0  2  0  0  0  0  0  0
  -30.3700  -13.6480   19.9780 N   0  0  0  0  0  0  0  0  0  0  0  0
  -32.1770  -14.9600   19.6370 O   0  0  0  0  0  0  0  0  0  0  0  0
  -30.2410  -16.0130   20.2260 N   0  0  0  0  0  0  0  0  0  0  0  0
  -29.2870  -15.8660   20.5150 H   0  0  0  0  0  0  0  0  0  0  0  0
  -25.6690  -14.0720   20.3920 C   0  0  0  0  0  0  0  0  0  0  0  0
  -24.5960  -13.3200   20.7820 C   0  0  0  0  0  0  0  0  0  0  0  0
  -25.0100  -11.9550   20.6790 C   0  0  0  0  0  0  0  0  0  0  0  0
  -26.6710  -13.1700   20.0780 N   0  0  0  0  0  0  0  0  0  0  0  0
  -26.2850  -11.8870   20.3140 N   0  0  0  0  0  0  0  0  0  0  0  0
  -24.2510  -10.7120   20.8480 C   0  0  0  0  0  0  0  0  0  0  0  0
  -24.6880   -9.6920   21.7220 C   0  0  0  0  0  3  0  0  0  0  0  0
  -23.9290   -8.5140   21.8840 C   0  0  0  0  0  3  0  0  0  0  0  0
  -22.7180   -8.3450   21.1730 C   0  0  0  0  0  0  0  0  0  0  0  0
  -22.2970   -9.3550   20.2910 C   0  0  0  0  0  3  0  0  0  0  0  0
  -23.0550  -10.5240   20.1270 C   0  0  0  0  0  3  0  0  0  0  0  0
  -21.9270   -7.2230   21.2520 O   0  0  0  0  0  0  0  0  0  0  0  0
  -21.9070   -6.4310   22.3710 C   0  0  0  0  0  0  0  0  0  0  0  0
  -21.5180   -6.9330   23.6320 C   0  0  0  0  0  3  0  0  0  0  0  0
  -21.4450   -6.0680   24.7430 C   0  0  0  0  0  3  0  0  0  0  0  0
  -21.7510   -4.7010   24.5920 C   0  0  0  0  0  0  0  0  0  0  0  0
  -22.1360   -4.1990   23.3360 C   0  0  0  0  0  3  0  0  0  0  0  0
  -22.2090   -5.0620   22.2280 C   0  0  0  0  0  0  0  0  0  0  0  0
  -22.5590   -4.5680   21.0150 F   0  0  0  0  0  0  0  0  0  0  0  0
  -21.6750   -3.8680   25.6550 F   0  0  0  0  0  0  0  0  0  0  0  0
  -23.2280  -13.8310   21.1290 C   0  0  0  0  0  0  0  0  0  0  0  0
  -22.5230  -13.1430   22.0180 N   0  0  0  0  0  0  0  0  0  0  0  0
  -22.8010  -14.8770   20.6460 O   0  0  0  0  0  0  0  0  0  0  0  0
  -22.8840  -12.2990   22.4350 H   0  0  0  0  0  0  0  0  0  0  0  0
  -21.6070  -13.4700   22.2890 H   0  0  0  0  0  0  0  0  0  0  0  0
  -25.8670  -15.4430   20.2450 N   0  0  0  0  0  0  0  0  0  0  0  0
  -25.0890  -16.0890   20.3290 H   0  0  0  0  0  0  0  0  0  0  0  0
  -26.6550  -15.8410   19.7480 H   0  0  0  0  0  0  0  0  0  0  0  0
  1  2  2  0
  3  1  1  0
  4  5  2  0
  5  2  1  0
  6  4  1  0
  6  3  2  0
  7  4  1  0
  8  7  1  0
  9 10  1  0
 10  7  2  3
 10 11  1  0
 12 14  1  0
 12 11  1  0
 13 24  2  0
 14 19  1  0
 15 23  1  0
 15 25  1  0
 16 22  1  0
 16 18  1  0
 17 23  1  0
 18 17  1  0
 19 18  2  0
 20 21  1  0
 20 14  2  0
 21 16  2  0
 22 15  1  0
 23 13  1  0
 25 27  2  0
 26 25  1  0
 28 26  1  0
 29 38  2  0
 29 34  1  0
 30 26  1  0
 30 34  1  0
 31 30  1  0
 32 33  1  0
 32 31  1  0
 33 29  1  0
 34 35  2  0
 35 36  1  0
 37 36  2  0
 38 37  1  0
 39 13  1  0
 39 44  1  0
 39 40  1  0
 40 43  1  1
 40 41  1  0
 42 40  1  0
 44 47  1  0
 45 49  1  0
 45 44  1  0
 46 45  2  0
 49 48  1  0
 51 49  1  0
 51 52  1  0
 51 50  1  0
 53  3  1  0
 53 62  1  0
 54 62  1  0
 55 60  1  0
 56 57  1  0
 56 55  1  0
 58 57  1  0
 58 67  1  0
 58 59  1  0
 60 54  1  0
 60 59  1  0
 61 54  2  0
 62 63  1  0
 64 65  2  0
 65 84  1  0
 66 65  1  0
 66 69  1  0
 67 68  1  0
 67 64  1  0
 68 66  2  0
 69 70  1  0
 70 71  2  0
 72 75  1  0
 72 71  1  0
 73 72  2  0
 74 73  1  0
 74 69  2  0
 75 76  1  0
 76 77  1  0
 77 78  2  0
 79 78  1  0
 79 83  1  0
 80 79  2  0
 81 76  2  0
 81 80  1  0
 82 81  1  0
 84 85  1  0
 85 88  1  0
 85 87  1  0
 86 84  2  0
 89 90  1  0
 89 64  1  0
 91 89  1  0
M  ISO  4  11 101  12 101  54 100  62 100
M  END
>  <TORSDO>  (76) 
F 19

>  <SCORE>  (76) 
-12.784

>  <name>  (76) 
75

>  <ligand_id>  (76) 
75

>  <original_smiles>  (76) 
[H]c1nc(N([H])C([H])(C([H])([H])[H])C([H])([H])Oc2c([H])c([H])c3c(c2[H])C([H])([H])N(C(=O)C([H])(N([H])C(=O)C([H])(N([H])C([H])([H])[H])C([H])([H])[H])C(C([H])([H])[H])(C([H])([H])[H])C([H])([H])[H])C([H])(C(=O)N([H])C2([H])c4c([H])c([H])c([H])c([H])c4C([H])([H])C([H])([H])C2([H])[H])C3([H])[H])nc(C([H])([H])N([H])C(=O)N2C([H])([H])C([H])([H])C([H])([H])C([H])(n3nc(-c4c([H])c([H])c(Oc5c([H])c([H])c(F)c([H])c5F)c([H])c4[H])c(C(=O)N([H])[H])c3N([H])[H])C2([H])[H])c1[H]

>  <smiles>  (76) 
[H]c1nc(N([H])C([H])(C([H])([H])[H])C([H])([H])Oc2c([H])c([H])c3c(c2[H])C([H])([H])N(C(=O)C([H])(N([H])C(=O)C([H])(N([H])C([H])([H])[H])C([H])([H])[H])C(C([H])([H])[H])(C([H])([H])[H])C([H])([H])[H])C([H])(C(=O)N([H])C2([H])c4c([H])c([H])c([H])c([H])c4C([H])([H])C([H])([H])C2([H])[H])C3([H])[H])nc(C([H])([H])N([H])C(=O)N2C([H])([H])C([H])([H])C([H])([H])C([H])(n3nc(-c4c([H])c([H])c(Oc5c([H])c([H])c(F)c([H])c5F)c([H])c4[H])c(C(=O)N([H])[H])c3N([H])[H])C2([H])[H])c1[H]

$$$$
76:0:0
     RDKit          3D

 95103  0  0  1  0  0  0  0  0999 V2000
  -29.7260  -21.5890   19.8400 C   0  0  0  0  0  3  0  0  0  0  0  0
  -29.1130  -21.3930   18.5080 N   0  0  0  0  0  4  0  0  0  0  0  0
  -29.7280  -21.7000   17.7750 H   0  0  0  0  0  0  0  0  0  0  0  0
  -28.2500  -21.8990   18.4280 H   0  0  0  0  0  0  0  0  0  0  0  0
  -28.9090  -20.4210   18.3560 H   0  0  0  0  0  0  0  0  0  0  0  0
  -30.9870  -20.6510   20.0170 C   0  0  0  0  0  2  0  0  0  0  0  0
  -31.4310  -14.7420   19.7760 C   0  0  0  0  0  0  0  0  0  0  0  0
  -31.0350  -12.6050   18.5690 C   0  0  0  0  0  2  0  0  0  0  0  0
  -29.8770  -12.8210   17.5690 C   0  0  0  0  0  2  0  0  0  0  0  0
  -28.5040  -12.6320   18.2490 C   0  0  0  0  0  2  0  0  0  0  0  0
  -28.3940  -13.4060   19.5890 C   0  0  0  0  0  3  0  0  0  0  0  0
  -29.6280  -13.1190   20.4720 C   0  0  0  0  0  2  0  0  0  0  0  0
  -30.8270  -13.5180   19.7040 N   0  0  0  0  0  0  0  0  0  0  0  0
  -32.4290  -15.0340   19.1050 O   0  0  0  0  0  0  0  0  0  0  0  0
  -30.8160  -19.3010   20.7280 C   0  0  0  0  0  0  0  0  0  0  0  0
  -30.6070  -19.1500   22.0840 C   0  0  0  0  0  0  0  0  0  0  0  0
  -30.8820  -16.9910   20.9120 C   0  0  0  0  0  0  0  0  0  0  0  0
  -30.9540  -18.0450   20.0630 N   0  0  0  0  0  0  0  0  0  0  0  0
  -30.7710  -15.6030   20.5840 N   0  0  0  0  0  0  0  0  0  0  0  0
  -30.5890  -17.4760   22.5690 S   0  0  0  0  0  0  0  0  0  0  0  0
  -30.0870  -15.1200   21.1450 H   0  0  0  0  0  0  0  0  0  0  0  0
  -26.3030  -13.9620   20.9830 C   0  0  0  0  0  0  0  0  0  0  0  0
  -25.2420  -13.1960   21.3830 C   0  0  0  0  0  0  0  0  0  0  0  0
  -25.4970  -11.8800   20.8880 C   0  0  0  0  0  0  0  0  0  0  0  0
  -27.1460  -13.1100   20.2860 N   0  0  0  0  0  0  0  0  0  0  0  0
  -26.6740  -11.8370   20.2780 N   0  0  0  0  0  0  0  0  0  0  0  0
  -24.6640  -10.6710   20.9090 C   0  0  0  0  0  0  0  0  0  0  0  0
  -25.0110   -9.5480   21.6920 C   0  0  0  0  0  3  0  0  0  0  0  0
  -24.1850   -8.4050   21.7090 C   0  0  0  0  0  3  0  0  0  0  0  0
  -22.9970   -8.3770   20.9400 C   0  0  0  0  0  0  0  0  0  0  0  0
  -22.6680   -9.4880   20.1450 C   0  0  0  0  0  3  0  0  0  0  0  0
  -23.4930  -10.6240   20.1240 C   0  0  0  0  0  3  0  0  0  0  0  0
  -22.1480   -7.3000   20.8740 O   0  0  0  0  0  0  0  0  0  0  0  0
  -21.8570   -6.5430   21.9810 C   0  0  0  0  0  0  0  0  0  0  0  0
  -21.2960   -7.1120   23.1450 C   0  0  0  0  0  3  0  0  0  0  0  0
  -20.9490   -6.2870   24.2340 C   0  0  0  0  0  3  0  0  0  0  0  0
  -21.1520   -4.8950   24.1580 C   0  0  0  0  0  0  0  0  0  0  0  0
  -21.7060   -4.3270   22.9970 C   0  0  0  0  0  3  0  0  0  0  0  0
  -22.0540   -5.1490   21.9110 C   0  0  0  0  0  0  0  0  0  0  0  0
  -22.5670   -4.5940   20.7870 F   0  0  0  0  0  0  0  0  0  0  0  0
  -20.8120   -4.1020   25.2000 F   0  0  0  0  0  0  0  0  0  0  0  0
  -24.0110  -13.6730   22.1000 C   0  0  0  0  0  0  0  0  0  0  0  0
  -23.4280  -12.8280   22.9440 N   0  0  0  0  0  0  0  0  0  0  0  0
  -23.5870  -14.8180   21.9530 O   0  0  0  0  0  0  0  0  0  0  0  0
  -23.7890  -11.8960   23.0800 H   0  0  0  0  0  0  0  0  0  0  0  0
  -22.6100  -13.1180   23.4610 H   0  0  0  0  0  0  0  0  0  0  0  0
  -26.6120  -15.3100   21.1390 N   0  0  0  0  0  0  0  0  0  0  0  0
  -25.9800  -15.9590   21.5960 H   0  0  0  0  0  0  0  0  0  0  0  0
  -27.4160  -15.7670   20.7280 H   0  0  0  0  0  0  0  0  0  0  0  0
  -28.9760  -20.3530   23.5970 C   0  0  0  0  0  1  0  0  0  0  0  0
  -30.4310  -20.2070   23.1320 C   0  0  0  0  0  2  0  0  0  0  0  0
  -30.0390  -23.1120   20.1210 C   0  0  0  0  0  2  0  0  0  0  0  0
  -28.9410  -24.2030   19.8280 C   0  0  0  0  0  2  0  0  0  0  0  0
  -29.1470  -25.5640   20.5820 C   0  0  0  0  0  2  0  0  0  0  0  0
  -28.9840  -26.7880   19.8270 O   0  0  0  0  0  0  0  0  0  0  0  0
  -24.8140  -31.6990   22.9900 C   0  0  0  0  0  0  0  0  0  0  0  0
  -27.7710  -27.4500   19.8890 C   0  0  0  0  0  0  0  0  0  0  0  0
  -23.7330  -30.2880   21.2710 C   0  0  0  0  0  3  0  0  0  0  0  0
  -25.3050  -28.8530   19.8620 C   0  0  0  0  0  0  0  0  0  0  0  0
  -26.2460  -30.7660   21.1690 C   0  0  0  0  0  2  0  0  0  0  0  0
  -26.4200  -29.4150   20.4990 C   0  0  0  0  0  0  0  0  0  0  0  0
  -27.6560  -28.7230   20.5030 C   0  0  0  0  0  3  0  0  0  0  0  0
  -26.6370  -26.9000   19.2580 C   0  0  0  0  0  3  0  0  0  0  0  0
  -25.4090  -27.5940   19.2410 C   0  0  0  0  0  3  0  0  0  0  0  0
  -24.0230  -29.6550   19.8840 C   0  0  0  0  0  2  0  0  0  0  0  0
  -24.9470  -30.9330   21.8690 N   0  0  0  0  0  0  0  0  0  0  0  0
  -23.7050  -31.9020   23.5020 O   0  0  0  0  0  0  0  0  0  0  0  0
  -23.1000  -29.2110   22.1840 C   0  0  0  0  0  0  0  0  0  0  0  0
  -21.7830  -28.9930   22.0330 N   0  0  0  0  0  0  0  0  0  0  0  0
  -23.7940  -28.5760   22.9820 O   0  0  0  0  0  0  0  0  0  0  0  0
  -21.2850  -29.5590   21.3610 H   0  0  0  0  0  0  0  0  0  0  0  0
  -18.4320  -27.7240   22.4920 C   0  0  0  0  0  0  0  0  0  0  0  0
  -20.9880  -28.0000   22.7530 C   0  0  0  0  0  3  0  0  0  0  0  0
  -21.1030  -26.6080   22.0900 C   0  0  0  0  0  2  0  0  0  0  0  0
  -19.9950  -26.3320   21.0700 C   0  0  0  0  0  2  0  0  0  0  0  0
  -18.6180  -26.4200   21.7340 C   0  0  0  0  0  2  0  0  0  0  0  0
  -19.5450  -28.4730   22.9570 C   0  0  0  0  0  0  0  0  0  0  0  0
  -19.3170  -29.6960   23.6250 C   0  0  0  0  0  3  0  0  0  0  0  0
  -18.0080  -30.1690   23.8360 C   0  0  0  0  0  3  0  0  0  0  0  0
  -16.9090  -29.4150   23.3890 C   0  0  0  0  0  3  0  0  0  0  0  0
  -17.1210  -28.1960   22.7210 C   0  0  0  0  0  3  0  0  0  0  0  0
  -26.0460  -32.3750   23.6700 C   0  0  0  0  0  3  0  0  0  0  0  0
  -26.5850  -31.5730   24.9180 C   0  0  1  0  0  0  0  0  0  0  0  0
  -25.4870  -31.2050   25.9430 C   0  0  0  0  0  1  0  0  0  0  0  0
  -27.2710  -30.2620   24.4670 C   0  0  0  0  0  1  0  0  0  0  0  0
  -27.6640  -32.4060   25.6510 C   0  0  0  0  0  1  0  0  0  0  0  0
  -25.6480  -33.7340   24.0610 N   0  0  0  0  0  0  0  0  0  0  0  0
  -25.9360  -34.8410   23.3630 C   0  0  0  0  0  0  0  0  0  0  0  0
  -26.6340  -34.8290   22.3450 O   0  0  0  0  0  0  0  0  0  0  0  0
  -25.0300  -33.8130   24.8540 H   0  0  0  0  0  0  0  0  0  0  0  0
  -24.1190  -36.5490   23.0450 C   0  0  0  0  0  1  0  0  0  0  0  0
  -25.3570  -36.1740   23.8750 C   0  0  0  0  0  3  0  0  0  0  0  0
  -27.4090  -37.1340   24.8210 C   0  0  0  0  0  1  0  0  0  0  0  0
  -26.3300  -37.2870   23.8480 N   0  0  0  0  0  0  0  0  0  0  0  0
  -25.8680  -38.1740   24.0240 H   0  0  0  0  0  0  0  0  0  0  0  0
  1  6  1  0
  1 52  1  0
  2  1  1  0
  3  2  1  0
  4  2  1  0
  5  2  1  0
  6 15  1  0
  7 19  1  0
  8 13  1  0
  9 10  1  0
  9  8  1  0
 11 10  1  0
 11 25  1  0
 11 12  1  0
 13  7  1  0
 13 12  1  0
 14  7  2  0
 15 16  2  0
 16 20  1  0
 16 51  1  0
 17 20  1  0
 18 15  1  0
 18 17  2  0
 19 17  1  0
 19 21  1  0
 22 47  1  0
 22 23  2  0
 23 42  1  0
 24 27  1  0
 24 23  1  0
 25 22  1  0
 26 25  1  0
 26 24  2  0
 27 28  1  0
 28 29  2  0
 30 29  1  0
 31 30  2  0
 32 31  1  0
 32 27  2  0
 33 30  1  0
 33 34  1  0
 34 35  1  0
 35 36  2  0
 37 36  1  0
 37 41  1  0
 38 37  2  0
 39 34  2  0
 39 38  1  0
 40 39  1  0
 42 43  1  0
 43 45  1  0
 43 46  1  0
 44 42  2  0
 47 48  1  0
 49 47  1  0
 51 50  1  0
 53 52  1  0
 53 54  1  0
 55 57  1  0
 55 54  1  0
 56 67  2  0
 57 62  1  0
 58 66  1  0
 58 68  1  0
 59 65  1  0
 59 61  1  0
 60 66  1  0
 61 62  2  0
 61 60  1  0
 63 57  2  0
 64 63  1  0
 64 59  2  0
 65 58  1  0
 66 56  1  0
 68 70  2  0
 69 68  1  0
 71 69  1  0
 72 81  2  0
 72 77  1  0
 73 69  1  0
 73 77  1  0
 74 73  1  0
 75 76  1  0
 75 74  1  0
 76 72  1  0
 77 78  2  0
 78 79  1  0
 80 79  2  0
 81 80  1  0
 82 56  1  0
 82 87  1  0
 82 83  1  0
 83 86  1  1
 83 84  1  0
 85 83  1  0
 87 90  1  0
 88 92  1  0
 88 87  1  0
 89 88  2  0
 92 91  1  0
 94 92  1  0
 94 95  1  0
 94 93  1  0
M  ISO  4   7 100  19 100  54 101  55 101
M  END
>  <TORSDO>  (77) 
F 22

>  <SCORE>  (77) 
-5.685

>  <name>  (77) 
76

>  <ligand_id>  (77) 
76

>  <original_smiles>  (77) 
[H]c1c([H])c([H])c2c(c1[H])C([H])([H])C([H])([H])C([H])([H])C2([H])N([H])C(=O)C1([H])N(C(=O)C([H])(N([H])C(=O)C([H])(N([H])C([H])([H])[H])C([H])([H])[H])C(C([H])([H])[H])(C([H])([H])[H])C([H])([H])[H])C([H])([H])c2c([H])c(OC([H])([H])C([H])([H])C([H])([H])C([H])(C([H])([H])c3nc(N([H])C(=O)N4C([H])([H])C([H])([H])C([H])([H])C([H])(n5nc(-c6c([H])c([H])c(Oc7c([H])c([H])c(F)c([H])c7F)c([H])c6[H])c(C(=O)N([H])[H])c5N([H])[H])C4([H])[H])sc3C([H])([H])C([H])([H])[H])[N+]([H])([H])[H])c([H])c([H])c2C1([H])[H]

>  <smiles>  (77) 
[H]c1c([H])c([H])c2c(c1[H])C([H])([H])C([H])([H])C([H])([H])C2([H])N([H])C(=O)C1([H])N(C(=O)C([H])(N([H])C(=O)C([H])(N([H])C([H])([H])[H])C([H])([H])[H])C(C([H])([H])[H])(C([H])([H])[H])C([H])([H])[H])C([H])([H])c2c([H])c(OC([H])([H])C([H])([H])C([H])([H])C([H])(C([H])([H])c3nc(N([H])C(=O)N4C([H])([H])C([H])([H])C([H])([H])C([H])(n5nc(-c6c([H])c([H])c(Oc7c([H])c([H])c(F)c([H])c7F)c([H])c6[H])c(C(=O)N([H])[H])c5N([H])[H])C4([H])[H])sc3C([H])([H])C([H])([H])[H])[N+]([H])([H])[H])c([H])c([H])c2C1([H])[H]

$$$$
77:0:0
     RDKit          3D

 93101  0  0  1  0  0  0  0  0999 V2000
  -29.0040  -22.0070   20.6160 C   0  0  0  0  0  2  0  0  0  0  0  0
  -30.6780  -17.5320   19.0010 C   0  0  0  0  0  3  0  0  0  0  0  0
  -30.3610  -17.6750   20.3340 C   0  0  0  0  0  0  0  0  0  0  0  0
  -29.7510  -19.7160   19.5730 C   0  0  0  0  0  0  0  0  0  0  0  0
  -29.8220  -18.9290   20.6400 N   0  0  0  0  0  0  0  0  0  0  0  0
  -29.3100  -21.0200   19.5940 N   0  0  0  0  0  0  0  0  0  0  0  0
  -30.3150  -18.9650   18.0840 S   0  0  0  0  0  0  0  0  0  0  0  0
  -29.2800  -21.4230   18.6620 H   0  0  0  0  0  0  0  0  0  0  0  0
  -30.5210  -16.6840   21.4500 C   0  0  0  0  0  2  0  0  0  0  0  0
  -30.6960  -14.4010   20.4920 C   0  0  0  0  0  0  0  0  0  0  0  0
  -30.3760  -12.2940   19.2660 C   0  0  0  0  0  2  0  0  0  0  0  0
  -29.4180  -12.5030   18.0800 C   0  0  0  0  0  2  0  0  0  0  0  0
  -27.9430  -12.4000   18.5220 C   0  0  0  0  0  2  0  0  0  0  0  0
  -27.6290  -13.2350   19.7890 C   0  0  0  0  0  3  0  0  0  0  0  0
  -28.6770  -12.9460   20.8820 C   0  0  0  0  0  2  0  0  0  0  0  0
  -30.0060  -13.2470   20.3190 N   0  0  0  0  0  0  0  0  0  0  0  0
  -31.8150  -14.6040   20.0130 O   0  0  0  0  0  0  0  0  0  0  0  0
  -30.0230  -15.3540   21.1360 N   0  0  0  0  0  0  0  0  0  0  0  0
  -29.0950  -15.1230   21.4600 H   0  0  0  0  0  0  0  0  0  0  0  0
  -25.2320  -13.8910   20.4740 C   0  0  0  0  0  0  0  0  0  0  0  0
  -24.1510  -13.1320   20.8450 C   0  0  0  0  0  0  0  0  0  0  0  0
  -24.5980  -11.7770   20.8340 C   0  0  0  0  0  0  0  0  0  0  0  0
  -26.2680  -12.9910   20.2620 N   0  0  0  0  0  0  0  0  0  0  0  0
  -25.8870  -11.7180   20.5370 N   0  0  0  0  0  0  0  0  0  0  0  0
  -23.8580  -10.5240   21.0370 C   0  0  0  0  0  0  0  0  0  0  0  0
  -24.2860   -9.5540   21.9700 C   0  0  0  0  0  3  0  0  0  0  0  0
  -23.5470   -8.3660   22.1570 C   0  0  0  0  0  3  0  0  0  0  0  0
  -22.3670   -8.1410   21.4110 C   0  0  0  0  0  0  0  0  0  0  0  0
  -21.9590   -9.0970   20.4660 C   0  0  0  0  0  3  0  0  0  0  0  0
  -22.6970  -10.2780   20.2770 C   0  0  0  0  0  3  0  0  0  0  0  0
  -21.6000   -7.0050   21.5060 O   0  0  0  0  0  0  0  0  0  0  0  0
  -21.5680   -6.2540   22.6540 C   0  0  0  0  0  0  0  0  0  0  0  0
  -21.1980   -6.8080   23.8970 C   0  0  0  0  0  3  0  0  0  0  0  0
  -21.1060   -5.9840   25.0360 C   0  0  0  0  0  3  0  0  0  0  0  0
  -21.3820   -4.6070   24.9340 C   0  0  0  0  0  0  0  0  0  0  0  0
  -21.7530   -4.0530   23.6960 C   0  0  0  0  0  3  0  0  0  0  0  0
  -21.8410   -4.8750   22.5580 C   0  0  0  0  0  0  0  0  0  0  0  0
  -22.1740   -4.3320   21.3620 F   0  0  0  0  0  0  0  0  0  0  0  0
  -21.2880   -3.8120   26.0260 F   0  0  0  0  0  0  0  0  0  0  0  0
  -22.7570  -13.6250   21.1000 C   0  0  0  0  0  0  0  0  0  0  0  0
  -22.0120  -12.9470   21.9670 N   0  0  0  0  0  0  0  0  0  0  0  0
  -22.3320  -14.6450   20.5620 O   0  0  0  0  0  0  0  0  0  0  0  0
  -22.3660  -12.1240   22.4310 H   0  0  0  0  0  0  0  0  0  0  0  0
  -21.0780  -13.2680   22.1740 H   0  0  0  0  0  0  0  0  0  0  0  0
  -25.4120  -15.2550   20.2780 N   0  0  0  0  0  0  0  0  0  0  0  0
  -24.6600  -15.9280   20.3950 H   0  0  0  0  0  0  0  0  0  0  0  0
  -26.2560  -15.6710   19.9010 H   0  0  0  0  0  0  0  0  0  0  0  0
  -28.3210  -23.1960   19.9180 C   0  0  0  0  0  3  0  0  0  0  0  0
  -26.9700  -22.8650   19.6640 O   0  0  0  0  0  0  0  0  0  0  0  0
  -26.5120  -22.8410   20.4980 H   0  0  0  0  0  0  0  0  0  0  0  0
  -28.3740  -24.5560   20.6290 C   0  0  0  0  0  2  0  0  0  0  0  0
  -28.6380  -25.6390   19.5750 C   0  0  0  0  0  2  0  0  0  0  0  0
  -28.4720  -26.9140   20.1430 O   0  0  0  0  0  0  0  0  0  0  0  0
  -24.5790  -31.8890   23.2360 C   0  0  0  0  0  0  0  0  0  0  0  0
  -27.2330  -27.5010   20.1520 C   0  0  0  0  0  0  0  0  0  0  0  0
  -23.3640  -30.4830   21.6000 C   0  0  0  0  0  3  0  0  0  0  0  0
  -24.8130  -28.9420   20.1820 C   0  0  0  0  0  0  0  0  0  0  0  0
  -25.8770  -30.8690   21.3710 C   0  0  0  0  0  2  0  0  0  0  0  0
  -25.9660  -29.4940   20.7530 C   0  0  0  0  0  0  0  0  0  0  0  0
  -27.1740  -28.7800   20.7340 C   0  0  0  0  0  3  0  0  0  0  0  0
  -26.0540  -26.9350   19.6010 C   0  0  0  0  0  3  0  0  0  0  0  0
  -24.8480  -27.6610   19.6110 C   0  0  0  0  0  3  0  0  0  0  0  0
  -23.5640  -29.7940   20.2240 C   0  0  0  0  0  2  0  0  0  0  0  0
  -24.6270  -31.0930   22.1310 N   0  0  0  0  0  0  0  0  0  0  0  0
  -23.5010  -32.1590   23.7820 O   0  0  0  0  0  0  0  0  0  0  0  0
  -22.7190  -29.4660   22.5670 C   0  0  0  0  0  0  0  0  0  0  0  0
  -21.3930  -29.2820   22.4420 N   0  0  0  0  0  0  0  0  0  0  0  0
  -23.4040  -28.8390   23.3820 O   0  0  0  0  0  0  0  0  0  0  0  0
  -20.9030  -29.8380   21.7550 H   0  0  0  0  0  0  0  0  0  0  0  0
  -18.0230  -28.0840   22.9330 C   0  0  0  0  0  0  0  0  0  0  0  0
  -20.5780  -28.3460   23.2140 C   0  0  0  0  0  3  0  0  0  0  0  0
  -20.6880  -26.9130   22.6470 C   0  0  0  0  0  2  0  0  0  0  0  0
  -19.5910  -26.5810   21.6290 C   0  0  0  0  0  2  0  0  0  0  0  0
  -18.2050  -26.7300   22.2670 C   0  0  0  0  0  2  0  0  0  0  0  0
  -19.1390  -28.8490   23.3630 C   0  0  0  0  0  0  0  0  0  0  0  0
  -18.9180  -30.1160   23.9440 C   0  0  0  0  0  3  0  0  0  0  0  0
  -17.6130  -30.6180   24.1040 C   0  0  0  0  0  3  0  0  0  0  0  0
  -16.5110  -29.8520   23.6900 C   0  0  0  0  0  3  0  0  0  0  0  0
  -16.7170  -28.5860   23.1120 C   0  0  0  0  0  3  0  0  0  0  0  0
  -25.8700  -32.5190   23.8490 C   0  0  0  0  0  3  0  0  0  0  0  0
  -25.5650  -33.9150   24.1840 N   0  0  0  0  0  0  0  0  0  0  0  0
  -25.8950  -34.9700   23.4260 C   0  0  0  0  0  0  0  0  0  0  0  0
  -26.5650  -34.8670   22.3940 O   0  0  0  0  0  0  0  0  0  0  0  0
  -24.9710  -34.0650   24.9860 H   0  0  0  0  0  0  0  0  0  0  0  0
  -24.1620  -36.7560   23.0730 C   0  0  0  0  0  1  0  0  0  0  0  0
  -25.4060  -36.3550   23.8840 C   0  0  0  0  0  3  0  0  0  0  0  0
  -27.5420  -37.2350   24.7090 C   0  0  0  0  0  1  0  0  0  0  0  0
  -26.4360  -37.4100   23.7720 N   0  0  0  0  0  0  0  0  0  0  0  0
  -26.0290  -38.3270   23.9380 H   0  0  0  0  0  0  0  0  0  0  0  0
  -26.3950  -31.7440   25.1190 C   0  0  1  0  0  0  0  0  0  0  0  0
  -25.3090  -31.5030   26.1940 C   0  0  0  0  0  1  0  0  0  0  0  0
  -26.9760  -30.3700   24.7100 C   0  0  0  0  0  1  0  0  0  0  0  0
  -27.5470  -32.5360   25.7790 C   0  0  0  0  0  1  0  0  0  0  0  0
  2  3  2  0
  3  5  1  0
  3  9  1  0
  4  6  1  0
  4  5  2  0
  6  1  1  0
  7  2  1  0
  7  4  1  0
  8  6  1  0
 10 18  1  0
 11 16  1  0
 12 13  1  0
 12 11  1  0
 14 13  1  0
 14 23  1  0
 14 15  1  0
 16 10  1  0
 16 15  1  0
 17 10  2  0
 18  9  1  0
 18 19  1  0
 20 21  2  0
 21 40  1  0
 22 21  1  0
 22 25  1  0
 23 20  1  0
 23 24  1  0
 24 22  2  0
 25 26  1  0
 26 27  2  0
 28 31  1  0
 28 27  1  0
 29 28  2  0
 30 29  1  0
 30 25  2  0
 31 32  1  0
 32 33  1  0
 33 34  2  0
 35 34  1  0
 35 39  1  0
 36 35  2  0
 37 32  2  0
 37 36  1  0
 38 37  1  0
 40 41  1  0
 41 44  1  0
 41 43  1  0
 42 40  2  0
 45 46  1  0
 45 20  1  0
 47 45  1  0
 48  1  1  0
 48 51  1  0
 49 48  1  0
 49 50  1  0
 52 53  1  0
 52 51  1  0
 53 55  1  0
 54 65  2  0
 55 60  1  0
 56 64  1  0
 56 66  1  0
 57 63  1  0
 57 59  1  0
 58 64  1  0
 59 58  1  0
 60 59  2  0
 61 62  1  0
 61 55  2  0
 62 57  2  0
 63 56  1  0
 64 54  1  0
 66 68  2  0
 67 66  1  0
 69 67  1  0
 70 79  2  0
 70 75  1  0
 71 67  1  0
 71 75  1  0
 72 71  1  0
 73 74  1  0
 73 72  1  0
 74 70  1  0
 75 76  2  0
 76 77  1  0
 78 77  2  0
 79 78  1  0
 80 54  1  0
 80 81  1  0
 80 90  1  0
 81 84  1  0
 82 86  1  0
 82 81  1  0
 83 82  2  0
 86 85  1  0
 88 86  1  0
 88 89  1  0
 88 87  1  0
 90 93  1  1
 90 91  1  0
 92 90  1  0
M  ISO  4  10 100  18 100  52 101  53 101
M  END
>  <TORSDO>  (78) 
F 22

>  <SCORE>  (78) 
-13.405

>  <name>  (78) 
77

>  <ligand_id>  (78) 
77

>  <original_smiles>  (78) 
[H]OC([H])(C([H])([H])N([H])c1nc(C([H])([H])N([H])C(=O)N2C([H])([H])C([H])([H])C([H])([H])C([H])(n3nc(-c4c([H])c([H])c(Oc5c([H])c([H])c(F)c([H])c5F)c([H])c4[H])c(C(=O)N([H])[H])c3N([H])[H])C2([H])[H])c([H])s1)C([H])([H])C([H])([H])Oc1c([H])c([H])c2c(c1[H])C([H])([H])N(C(=O)C([H])(N([H])C(=O)C([H])(N([H])C([H])([H])[H])C([H])([H])[H])C(C([H])([H])[H])(C([H])([H])[H])C([H])([H])[H])C([H])(C(=O)N([H])C1([H])c3c([H])c([H])c([H])c([H])c3C([H])([H])C([H])([H])C1([H])[H])C2([H])[H]

>  <smiles>  (78) 
[H]OC([H])(C([H])([H])N([H])c1nc(C([H])([H])N([H])C(=O)N2C([H])([H])C([H])([H])C([H])([H])C([H])(n3nc(-c4c([H])c([H])c(Oc5c([H])c([H])c(F)c([H])c5F)c([H])c4[H])c(C(=O)N([H])[H])c3N([H])[H])C2([H])[H])c([H])s1)C([H])([H])C([H])([H])Oc1c([H])c([H])c2c(c1[H])C([H])([H])N(C(=O)C([H])(N([H])C(=O)C([H])(N([H])C([H])([H])[H])C([H])([H])[H])C(C([H])([H])[H])(C([H])([H])[H])C([H])([H])[H])C([H])(C(=O)N([H])C1([H])c3c([H])c([H])c([H])c([H])c3C([H])([H])C([H])([H])C1([H])[H])C2([H])[H]

$$$$
78:0:0
     RDKit          3D

 93101  0  0  1  0  0  0  0  0999 V2000
  -28.7760  -21.6720   20.5300 C   0  0  0  0  0  2  0  0  0  0  0  0
  -30.4400  -17.2970   19.4330 C   0  0  0  0  0  3  0  0  0  0  0  0
  -30.0360  -16.7340   20.6730 C   0  0  0  0  0  0  0  0  0  0  0  0
  -29.6030  -19.2970   20.0890 C   0  0  0  0  0  0  0  0  0  0  0  0
  -30.2080  -18.5950   19.1420 N   0  0  0  0  0  0  0  0  0  0  0  0
  -29.4340  -17.5500   21.5810 N   0  0  0  0  0  0  0  0  0  0  0  0
  -29.2200  -18.8490   21.2940 N   0  0  0  0  0  0  0  0  0  0  0  0
  -29.3500  -20.5930   19.7310 N   0  0  0  0  0  0  0  0  0  0  0  0
  -29.5580  -20.8100   18.7670 H   0  0  0  0  0  0  0  0  0  0  0  0
  -30.7590  -14.4260   20.1490 C   0  0  0  0  0  0  0  0  0  0  0  0
  -30.3910  -12.3230   18.9120 C   0  0  0  0  0  2  0  0  0  0  0  0
  -29.3850  -12.5940   17.7730 C   0  0  0  0  0  2  0  0  0  0  0  0
  -27.9340  -12.4460   18.2720 C   0  0  0  0  0  2  0  0  0  0  0  0
  -27.6770  -13.2250   19.5920 C   0  0  0  0  0  3  0  0  0  0  0  0
  -28.7860  -12.9330   20.6270 C   0  0  0  0  0  2  0  0  0  0  0  0
  -30.0870  -13.2510   20.0140 N   0  0  0  0  0  0  0  0  0  0  0  0
  -31.8170  -14.6660   19.5570 O   0  0  0  0  0  0  0  0  0  0  0  0
  -30.1600  -15.3400   20.9320 N   0  0  0  0  0  0  0  0  0  0  0  0
  -29.4850  -14.9710   21.5820 H   0  0  0  0  0  0  0  0  0  0  0  0
  -25.3200  -13.8190   20.4410 C   0  0  0  0  0  0  0  0  0  0  0  0
  -24.2730  -13.0380   20.8500 C   0  0  0  0  0  0  0  0  0  0  0  0
  -24.7280  -11.6880   20.7610 C   0  0  0  0  0  0  0  0  0  0  0  0
  -26.3480  -12.9420   20.1320 N   0  0  0  0  0  0  0  0  0  0  0  0
  -25.9980  -11.6540   20.3780 N   0  0  0  0  0  0  0  0  0  0  0  0
  -24.0110  -10.4230   20.9620 C   0  0  0  0  0  0  0  0  0  0  0  0
  -24.4550   -9.4640   21.9000 C   0  0  0  0  0  3  0  0  0  0  0  0
  -23.7410   -8.2610   22.0880 C   0  0  0  0  0  3  0  0  0  0  0  0
  -22.5660   -8.0090   21.3410 C   0  0  0  0  0  0  0  0  0  0  0  0
  -22.1400   -8.9570   20.3930 C   0  0  0  0  0  3  0  0  0  0  0  0
  -22.8550  -10.1510   20.2020 C   0  0  0  0  0  3  0  0  0  0  0  0
  -21.8210   -6.8600   21.4380 O   0  0  0  0  0  0  0  0  0  0  0  0
  -21.7310   -6.1580   22.6130 C   0  0  0  0  0  0  0  0  0  0  0  0
  -21.2350   -6.7460   23.7970 C   0  0  0  0  0  3  0  0  0  0  0  0
  -21.0940   -5.9690   24.9640 C   0  0  0  0  0  3  0  0  0  0  0  0
  -21.4400   -4.6040   24.9470 C   0  0  0  0  0  0  0  0  0  0  0  0
  -21.9280   -4.0150   23.7670 C   0  0  0  0  0  3  0  0  0  0  0  0
  -22.0700   -4.7890   22.6030 C   0  0  0  0  0  0  0  0  0  0  0  0
  -22.5210   -4.2120   21.4630 F   0  0  0  0  0  0  0  0  0  0  0  0
  -21.2980   -3.8540   26.0650 F   0  0  0  0  0  0  0  0  0  0  0  0
  -22.8940  -13.5090   21.2140 C   0  0  0  0  0  0  0  0  0  0  0  0
  -22.2140  -12.7920   22.1030 N   0  0  0  0  0  0  0  0  0  0  0  0
  -22.4290  -14.5490   20.7460 O   0  0  0  0  0  0  0  0  0  0  0  0
  -22.6020  -11.9520   22.5050 H   0  0  0  0  0  0  0  0  0  0  0  0
  -21.2910  -13.0890   22.3840 H   0  0  0  0  0  0  0  0  0  0  0  0
  -25.4780  -15.1930   20.2890 N   0  0  0  0  0  0  0  0  0  0  0  0
  -24.7190  -15.8440   20.4540 H   0  0  0  0  0  0  0  0  0  0  0  0
  -26.3130  -15.6420   19.9360 H   0  0  0  0  0  0  0  0  0  0  0  0
  -28.6260  -22.9240   19.6330 C   0  0  0  0  0  3  0  0  0  0  0  0
  -27.5950  -22.6290   18.7020 O   0  0  0  0  0  0  0  0  0  0  0  0
  -27.6460  -23.2550   17.9860 H   0  0  0  0  0  0  0  0  0  0  0  0
  -28.3080  -24.2510   20.3670 C   0  0  0  0  0  2  0  0  0  0  0  0
  -28.6290  -25.5000   19.5050 C   0  0  0  0  0  2  0  0  0  0  0  0
  -28.4750  -26.7450   20.1990 O   0  0  0  0  0  0  0  0  0  0  0  0
  -24.6270  -31.8860   23.2380 C   0  0  0  0  0  0  0  0  0  0  0  0
  -27.2730  -27.4260   20.1770 C   0  0  0  0  0  0  0  0  0  0  0  0
  -23.4220  -30.4770   21.6000 C   0  0  0  0  0  3  0  0  0  0  0  0
  -24.8740  -28.9330   20.1820 C   0  0  0  0  0  0  0  0  0  0  0  0
  -25.9480  -30.8330   21.4050 C   0  0  0  0  0  2  0  0  0  0  0  0
  -26.0300  -29.4590   20.7690 C   0  0  0  0  0  0  0  0  0  0  0  0
  -27.2280  -28.7100   20.7660 C   0  0  0  0  0  3  0  0  0  0  0  0
  -26.0900  -26.9060   19.5980 C   0  0  0  0  0  3  0  0  0  0  0  0
  -24.8990  -27.6550   19.5960 C   0  0  0  0  0  3  0  0  0  0  0  0
  -23.6310  -29.7920   20.2230 C   0  0  0  0  0  2  0  0  0  0  0  0
  -24.6840  -31.0800   22.1380 N   0  0  0  0  0  0  0  0  0  0  0  0
  -23.5450  -32.1600   23.7750 O   0  0  0  0  0  0  0  0  0  0  0  0
  -22.7730  -29.4580   22.5640 C   0  0  0  0  0  0  0  0  0  0  0  0
  -21.4500  -29.2650   22.4270 N   0  0  0  0  0  0  0  0  0  0  0  0
  -23.4550  -28.8450   23.3890 O   0  0  0  0  0  0  0  0  0  0  0  0
  -20.9610  -29.8110   21.7320 H   0  0  0  0  0  0  0  0  0  0  0  0
  -18.0830  -28.0500   22.9040 C   0  0  0  0  0  0  0  0  0  0  0  0
  -20.6350  -28.3290   23.1990 C   0  0  0  0  0  3  0  0  0  0  0  0
  -20.7550  -26.8940   22.6380 C   0  0  0  0  0  2  0  0  0  0  0  0
  -19.6650  -26.5510   21.6170 C   0  0  0  0  0  2  0  0  0  0  0  0
  -18.2760  -26.6950   22.2450 C   0  0  0  0  0  2  0  0  0  0  0  0
  -19.1910  -28.8240   23.3380 C   0  0  0  0  0  0  0  0  0  0  0  0
  -18.9580  -30.0930   23.9120 C   0  0  0  0  0  3  0  0  0  0  0  0
  -17.6490  -30.5870   24.0580 C   0  0  0  0  0  3  0  0  0  0  0  0
  -16.5540  -29.8100   23.6420 C   0  0  0  0  0  3  0  0  0  0  0  0
  -16.7720  -28.5430   23.0710 C   0  0  0  0  0  3  0  0  0  0  0  0
  -25.9130  -32.5210   23.8540 C   0  0  0  0  0  3  0  0  0  0  0  0
  -25.6010  -33.9160   24.1870 N   0  0  0  0  0  0  0  0  0  0  0  0
  -25.9260  -34.9710   23.4280 C   0  0  0  0  0  0  0  0  0  0  0  0
  -26.5900  -34.8710   22.3930 O   0  0  0  0  0  0  0  0  0  0  0  0
  -25.0110  -34.0680   24.9930 H   0  0  0  0  0  0  0  0  0  0  0  0
  -24.1870  -36.7530   23.0840 C   0  0  0  0  0  1  0  0  0  0  0  0
  -25.4340  -36.3560   23.8890 C   0  0  0  0  0  3  0  0  0  0  0  0
  -27.5650  -37.2510   24.7130 C   0  0  0  0  0  1  0  0  0  0  0  0
  -26.4610  -37.4120   23.7720 N   0  0  0  0  0  0  0  0  0  0  0  0
  -26.0510  -38.3310   23.9190 H   0  0  0  0  0  0  0  0  0  0  0  0
  -26.4400  -31.7480   25.1240 C   0  0  1  0  0  0  0  0  0  0  0  0
  -25.3530  -31.4980   26.1950 C   0  0  0  0  0  1  0  0  0  0  0  0
  -27.0340  -30.3780   24.7230 C   0  0  0  0  0  1  0  0  0  0  0  0
  -27.5860  -32.5500   25.7860 C   0  0  0  0  0  1  0  0  0  0  0  0
  2  3  2  0
  3 18  1  0
  3  6  1  0
  4  7  1  0
  5  2  1  0
  5  4  2  0
  7  6  2  0
  8  4  1  0
  8  1  1  0
  9  8  1  0
 10 18  1  0
 11 16  1  0
 12 13  1  0
 12 11  1  0
 14 13  1  0
 14 23  1  0
 14 15  1  0
 16 10  1  0
 16 15  1  0
 17 10  2  0
 18 19  1  0
 20 21  2  0
 21 40  1  0
 22 21  1  0
 22 25  1  0
 23 24  1  0
 23 20  1  0
 24 22  2  0
 25 26  1  0
 26 27  2  0
 28 31  1  0
 28 27  1  0
 29 28  2  0
 30 29  1  0
 30 25  2  0
 31 32  1  0
 32 33  1  0
 33 34  2  0
 35 34  1  0
 35 39  1  0
 36 35  2  0
 37 32  2  0
 37 36  1  0
 38 37  1  0
 40 41  1  0
 41 44  1  0
 41 43  1  0
 42 40  2  0
 45 20  1  0
 45 46  1  0
 47 45  1  0
 48 51  1  0
 48  1  1  0
 49 48  1  0
 50 49  1  0
 52 53  1  0
 52 51  1  0
 54 65  2  0
 55 53  1  0
 55 60  1  0
 56 64  1  0
 56 66  1  0
 57 63  1  0
 57 59  1  0
 58 64  1  0
 59 58  1  0
 60 59  2  0
 61 55  2  0
 62 61  1  0
 62 57  2  0
 63 56  1  0
 64 54  1  0
 66 68  2  0
 67 66  1  0
 69 67  1  0
 70 79  2  0
 70 75  1  0
 71 67  1  0
 71 75  1  0
 72 71  1  0
 73 74  1  0
 73 72  1  0
 74 70  1  0
 75 76  2  0
 76 77  1  0
 78 77  2  0
 79 78  1  0
 80 54  1  0
 80 81  1  0
 80 90  1  0
 81 84  1  0
 82 86  1  0
 82 81  1  0
 83 82  2  0
 86 85  1  0
 88 86  1  0
 88 89  1  0
 88 87  1  0
 90 93  1  1
 90 91  1  0
 92 90  1  0
M  ISO  4  10 100  18 100  52 101  53 101
M  END
>  <TORSDO>  (79) 
F 21

>  <SCORE>  (79) 
-13.100

>  <name>  (79) 
78

>  <ligand_id>  (79) 
78

>  <original_smiles>  (79) 
[H]OC([H])(C([H])([H])N([H])c1nnc(N([H])C(=O)N2C([H])([H])C([H])([H])C([H])([H])C([H])(n3nc(-c4c([H])c([H])c(Oc5c([H])c([H])c(F)c([H])c5F)c([H])c4[H])c(C(=O)N([H])[H])c3N([H])[H])C2([H])[H])c([H])n1)C([H])([H])C([H])([H])Oc1c([H])c([H])c2c(c1[H])C([H])([H])N(C(=O)C([H])(N([H])C(=O)C([H])(N([H])C([H])([H])[H])C([H])([H])[H])C(C([H])([H])[H])(C([H])([H])[H])C([H])([H])[H])C([H])(C(=O)N([H])C1([H])c3c([H])c([H])c([H])c([H])c3C([H])([H])C([H])([H])C1([H])[H])C2([H])[H]

>  <smiles>  (79) 
[H]OC([H])(C([H])([H])N([H])c1nnc(N([H])C(=O)N2C([H])([H])C([H])([H])C([H])([H])C([H])(n3nc(-c4c([H])c([H])c(Oc5c([H])c([H])c(F)c([H])c5F)c([H])c4[H])c(C(=O)N([H])[H])c3N([H])[H])C2([H])[H])c([H])n1)C([H])([H])C([H])([H])Oc1c([H])c([H])c2c(c1[H])C([H])([H])N(C(=O)C([H])(N([H])C(=O)C([H])(N([H])C([H])([H])[H])C([H])([H])[H])C(C([H])([H])[H])(C([H])([H])[H])C([H])([H])[H])C([H])(C(=O)N([H])C1([H])c3c([H])c([H])c([H])c([H])c3C([H])([H])C([H])([H])C1([H])[H])C2([H])[H]

$$$$
79:0:0
     RDKit          3D

 96104  0  0  1  0  0  0  0  0999 V2000
  -29.9460  -21.8140   20.4140 C   0  0  0  0  0  3  0  0  0  0  0  0
  -31.3580  -17.5120   20.4430 C   0  0  0  0  0  3  0  0  0  0  0  0
  -30.2620  -16.7580   20.8160 C   0  0  0  0  0  0  0  0  0  0  0  0
  -29.9010  -19.2180   20.7840 C   0  0  0  0  0  0  0  0  0  0  0  0
  -31.1430  -18.8980   20.4250 N   0  0  0  0  0  0  0  0  0  0  0  0
  -29.4020  -20.5150   20.8210 N   0  0  0  0  0  0  0  0  0  0  0  0
  -28.9190  -17.8180   21.2030 S   0  0  0  0  0  0  0  0  0  0  0  0
  -28.4130  -20.5420   21.0430 H   0  0  0  0  0  0  0  0  0  0  0  0
  -30.7580  -14.4640   20.1880 C   0  0  0  0  0  0  0  0  0  0  0  0
  -30.3870  -12.3740   18.9360 C   0  0  0  0  0  2  0  0  0  0  0  0
  -29.3810  -12.6530   17.8000 C   0  0  0  0  0  2  0  0  0  0  0  0
  -27.9300  -12.5010   18.3000 C   0  0  0  0  0  2  0  0  0  0  0  0
  -27.6700  -13.2690   19.6240 C   0  0  0  0  0  3  0  0  0  0  0  0
  -28.7800  -12.9690   20.6580 C   0  0  0  0  0  2  0  0  0  0  0  0
  -30.0800  -13.2940   20.0420 N   0  0  0  0  0  0  0  0  0  0  0  0
  -31.8370  -14.6870   19.6290 O   0  0  0  0  0  0  0  0  0  0  0  0
  -30.1120  -15.4050   20.9010 N   0  0  0  0  0  0  0  0  0  0  0  0
  -29.2680  -15.0790   21.3490 H   0  0  0  0  0  0  0  0  0  0  0  0
  -25.3070  -13.8520   20.4640 C   0  0  0  0  0  0  0  0  0  0  0  0
  -24.2590  -13.0670   20.8650 C   0  0  0  0  0  0  0  0  0  0  0  0
  -24.7200  -11.7170   20.7730 C   0  0  0  0  0  0  0  0  0  0  0  0
  -26.3410  -12.9800   20.1580 N   0  0  0  0  0  0  0  0  0  0  0  0
  -25.9920  -11.6900   20.3980 N   0  0  0  0  0  0  0  0  0  0  0  0
  -24.0070  -10.4480   20.9640 C   0  0  0  0  0  0  0  0  0  0  0  0
  -24.4420   -9.4920   21.9080 C   0  0  0  0  0  3  0  0  0  0  0  0
  -23.7300   -8.2860   22.0860 C   0  0  0  0  0  3  0  0  0  0  0  0
  -22.5670   -8.0300   21.3220 C   0  0  0  0  0  0  0  0  0  0  0  0
  -22.1510   -8.9760   20.3680 C   0  0  0  0  0  3  0  0  0  0  0  0
  -22.8650  -10.1720   20.1880 C   0  0  0  0  0  3  0  0  0  0  0  0
  -21.8260   -6.8760   21.4080 O   0  0  0  0  0  0  0  0  0  0  0  0
  -21.7170   -6.1780   22.5840 C   0  0  0  0  0  0  0  0  0  0  0  0
  -21.1800   -6.7630   23.7520 C   0  0  0  0  0  3  0  0  0  0  0  0
  -21.0220   -5.9890   24.9190 C   0  0  0  0  0  3  0  0  0  0  0  0
  -21.3910   -4.6300   24.9190 C   0  0  0  0  0  0  0  0  0  0  0  0
  -21.9200   -4.0440   23.7550 C   0  0  0  0  0  3  0  0  0  0  0  0
  -22.0800   -4.8150   22.5910 C   0  0  0  0  0  0  0  0  0  0  0  0
  -22.5710   -4.2410   21.4660 F   0  0  0  0  0  0  0  0  0  0  0  0
  -21.2310   -3.8830   26.0360 F   0  0  0  0  0  0  0  0  0  0  0  0
  -22.8770  -13.5330   21.2230 C   0  0  0  0  0  0  0  0  0  0  0  0
  -22.1940  -12.8080   22.1020 N   0  0  0  0  0  0  0  0  0  0  0  0
  -22.4120  -14.5730   20.7580 O   0  0  0  0  0  0  0  0  0  0  0  0
  -22.5840  -11.9660   22.5000 H   0  0  0  0  0  0  0  0  0  0  0  0
  -21.2690  -13.1010   22.3830 H   0  0  0  0  0  0  0  0  0  0  0  0
  -25.4620  -15.2270   20.3150 N   0  0  0  0  0  0  0  0  0  0  0  0
  -24.7000  -15.8770   20.4780 H   0  0  0  0  0  0  0  0  0  0  0  0
  -26.2940  -15.6750   19.9550 H   0  0  0  0  0  0  0  0  0  0  0  0
  -30.2250  -21.8440   18.9020 C   0  0  0  0  0  0  0  0  0  0  0  0
  -29.3740  -21.5320   18.0640 O   0  0  0  0  0  0  0  0  0  0  0  0
  -31.7480  -22.6190   16.9780 C   0  0  0  0  0  1  0  0  0  0  0  0
  -31.6280  -22.2790   18.4720 C   0  0  0  0  0  2  0  0  0  0  0  0
  -28.9940  -22.9750   20.8280 C   0  0  0  0  0  2  0  0  0  0  0  0
  -29.4370  -24.4250   20.4770 C   0  0  0  0  0  3  0  0  0  0  0  0
  -30.6670  -24.6940   21.1320 O   0  0  0  0  0  0  0  0  0  0  0  0
  -30.4960  -24.7550   22.0670 H   0  0  0  0  0  0  0  0  0  0  0  0
  -28.3850  -25.4700   20.9300 C   0  0  0  0  0  2  0  0  0  0  0  0
  -28.5050  -26.7180   20.2290 O   0  0  0  0  0  0  0  0  0  0  0  0
  -24.6250  -31.8730   23.2380 C   0  0  0  0  0  0  0  0  0  0  0  0
  -27.3440  -27.4560   20.2040 C   0  0  0  0  0  0  0  0  0  0  0  0
  -23.4520  -30.4650   21.5770 C   0  0  0  0  0  3  0  0  0  0  0  0
  -24.9390  -28.9390   20.1720 C   0  0  0  0  0  0  0  0  0  0  0  0
  -25.9770  -30.8420   21.4180 C   0  0  0  0  0  2  0  0  0  0  0  0
  -26.0830  -29.4730   20.7780 C   0  0  0  0  0  0  0  0  0  0  0  0
  -27.2920  -28.7410   20.7880 C   0  0  0  0  0  3  0  0  0  0  0  0
  -26.1870  -26.9370   19.5830 C   0  0  0  0  0  3  0  0  0  0  0  0
  -24.9850  -27.6690   19.5700 C   0  0  0  0  0  3  0  0  0  0  0  0
  -23.6860  -29.7870   20.2010 C   0  0  0  0  0  2  0  0  0  0  0  0
  -24.7020  -31.0740   22.1360 N   0  0  0  0  0  0  0  0  0  0  0  0
  -23.5330  -32.1380   23.7610 O   0  0  0  0  0  0  0  0  0  0  0  0
  -22.7940  -29.4390   22.5270 C   0  0  0  0  0  0  0  0  0  0  0  0
  -21.4670  -29.2690   22.3970 N   0  0  0  0  0  0  0  0  0  0  0  0
  -23.4710  -28.7980   23.3350 O   0  0  0  0  0  0  0  0  0  0  0  0
  -20.9820  -29.8370   21.7160 H   0  0  0  0  0  0  0  0  0  0  0  0
  -18.0760  -28.1340   22.9110 C   0  0  0  0  0  0  0  0  0  0  0  0
  -20.6410  -28.3320   23.1580 C   0  0  0  0  0  3  0  0  0  0  0  0
  -20.7070  -26.9120   22.5480 C   0  0  0  0  0  2  0  0  0  0  0  0
  -19.5860  -26.6360   21.5410 C   0  0  0  0  0  2  0  0  0  0  0  0
  -18.2160  -26.7960   22.2040 C   0  0  0  0  0  2  0  0  0  0  0  0
  -19.2160  -28.8620   23.3450 C   0  0  0  0  0  0  0  0  0  0  0  0
  -19.0310  -30.1170   23.9640 C   0  0  0  0  0  3  0  0  0  0  0  0
  -17.7400  -30.6430   24.1570 C   0  0  0  0  0  3  0  0  0  0  0  0
  -16.6140  -29.9100   23.7410 C   0  0  0  0  0  3  0  0  0  0  0  0
  -16.7840  -28.6580   23.1220 C   0  0  0  0  0  3  0  0  0  0  0  0
  -25.8970  -32.5090   23.8780 C   0  0  0  0  0  3  0  0  0  0  0  0
  -25.5760  -33.9040   24.2070 N   0  0  0  0  0  0  0  0  0  0  0  0
  -25.9120  -34.9600   23.4540 C   0  0  0  0  0  0  0  0  0  0  0  0
  -26.5960  -34.8630   22.4320 O   0  0  0  0  0  0  0  0  0  0  0  0
  -24.9680  -34.0530   24.9990 H   0  0  0  0  0  0  0  0  0  0  0  0
  -24.1840  -36.7460   23.0680 C   0  0  0  0  0  1  0  0  0  0  0  0
  -25.4070  -36.3430   23.9070 C   0  0  0  0  0  3  0  0  0  0  0  0
  -27.5200  -37.2290   24.7930 C   0  0  0  0  0  1  0  0  0  0  0  0
  -26.4370  -37.4020   23.8280 N   0  0  0  0  0  0  0  0  0  0  0  0
  -26.0210  -38.3180   23.9790 H   0  0  0  0  0  0  0  0  0  0  0  0
  -26.4050  -31.7350   25.1570 C   0  0  1  0  0  0  0  0  0  0  0  0
  -25.2990  -31.4850   26.2090 C   0  0  0  0  0  1  0  0  0  0  0  0
  -27.0040  -30.3650   24.7650 C   0  0  0  0  0  1  0  0  0  0  0  0
  -27.5410  -32.5350   25.8360 C   0  0  0  0  0  1  0  0  0  0  0  0
  1  6  1  0
  1 51  1  0
  2  3  2  0
  3 17  1  0
  3  7  1  0
  4  6  1  0
  4  7  1  0
  5  2  1  0
  5  4  2  0
  6  8  1  0
  9 17  1  0
 10 15  1  0
 11 12  1  0
 11 10  1  0
 13 12  1  0
 13 22  1  0
 13 14  1  0
 15  9  1  0
 15 14  1  0
 16  9  2  0
 17 18  1  0
 19 20  2  0
 20 39  1  0
 21 20  1  0
 21 24  1  0
 22 23  1  0
 22 19  1  0
 23 21  2  0
 24 25  1  0
 25 26  2  0
 27 30  1  0
 27 26  1  0
 28 27  2  0
 29 28  1  0
 29 24  2  0
 30 31  1  0
 31 36  2  0
 31 32  1  0
 32 33  2  0
 33 34  1  0
 34 38  1  0
 35 34  2  0
 36 35  1  0
 37 36  1  0
 39 40  1  0
 40 43  1  0
 40 42  1  0
 41 39  2  0
 44 19  1  0
 44 45  1  0
 46 44  1  0
 47  1  1  0
 48 47  2  0
 49 50  1  0
 50 47  1  0
 52 51  1  0
 52 55  1  0
 52 53  1  0
 53 54  1  0
 56 55  1  0
 57 68  2  0
 58 56  1  0
 58 63  1  0
 59 67  1  0
 59 69  1  0
 60 66  1  0
 60 62  1  0
 61 67  1  0
 62 63  2  0
 62 61  1  0
 64 58  2  0
 65 64  1  0
 65 60  2  0
 66 59  1  0
 67 57  1  0
 69 71  2  0
 70 69  1  0
 72 70  1  0
 73 82  2  0
 73 78  1  0
 74 70  1  0
 74 78  1  0
 75 74  1  0
 76 77  1  0
 76 75  1  0
 77 73  1  0
 78 79  2  0
 79 80  1  0
 81 80  2  0
 82 81  1  0
 83 57  1  0
 83 84  1  0
 83 93  1  0
 84 87  1  0
 85 89  1  0
 85 84  1  0
 86 85  2  0
 89 88  1  0
 91 89  1  0
 91 92  1  0
 91 90  1  0
 93 96  1  1
 93 94  1  0
 95 93  1  0
M  ISO  4   9 100  17 100  55 101  56 101
M  END
>  <TORSDO>  (80) 
F 23

>  <SCORE>  (80) 
-12.600

>  <name>  (80) 
79

>  <ligand_id>  (80) 
79

>  <original_smiles>  (80) 
[H]OC([H])(C([H])([H])Oc1c([H])c([H])c2c(c1[H])C([H])([H])N(C(=O)C([H])(N([H])C(=O)C([H])(N([H])C([H])([H])[H])C([H])([H])[H])C(C([H])([H])[H])(C([H])([H])[H])C([H])([H])[H])C([H])(C(=O)N([H])C1([H])c3c([H])c([H])c([H])c([H])c3C([H])([H])C([H])([H])C1([H])[H])C2([H])[H])C([H])([H])C([H])(C(=O)C([H])([H])C([H])([H])[H])N([H])c1nc([H])c(N([H])C(=O)N2C([H])([H])C([H])([H])C([H])([H])C([H])(n3nc(-c4c([H])c([H])c(Oc5c([H])c([H])c(F)c([H])c5F)c([H])c4[H])c(C(=O)N([H])[H])c3N([H])[H])C2([H])[H])s1

>  <smiles>  (80) 
[H]OC([H])(C([H])([H])Oc1c([H])c([H])c2c(c1[H])C([H])([H])N(C(=O)C([H])(N([H])C(=O)C([H])(N([H])C([H])([H])[H])C([H])([H])[H])C(C([H])([H])[H])(C([H])([H])[H])C([H])([H])[H])C([H])(C(=O)N([H])C1([H])c3c([H])c([H])c([H])c([H])c3C([H])([H])C([H])([H])C1([H])[H])C2([H])[H])C([H])([H])C([H])(C(=O)C([H])([H])C([H])([H])[H])N([H])c1nc([H])c(N([H])C(=O)N2C([H])([H])C([H])([H])C([H])([H])C([H])(n3nc(-c4c([H])c([H])c(Oc5c([H])c([H])c(F)c([H])c5F)c([H])c4[H])c(C(=O)N([H])[H])c3N([H])[H])C2([H])[H])s1

$$$$
80:0:0
     RDKit          3D

 97105  0  0  1  0  0  0  0  0999 V2000
  -29.3560  -18.0130   20.6370 C   0  0  0  0  0  2  0  0  0  0  0  0
  -30.5330  -15.3160   20.2750 C   0  0  0  0  0  0  0  0  0  0  0  0
  -30.3690  -12.9420   19.2720 C   0  0  0  0  0  2  0  0  0  0  0  0
  -29.4200  -12.7740   18.0660 C   0  0  0  0  0  2  0  0  0  0  0  0
  -27.9860  -12.4950   18.5470 C   0  0  0  0  0  2  0  0  0  0  0  0
  -27.5670  -13.4270   19.7110 C   0  0  0  0  0  3  0  0  0  0  0  0
  -28.6550  -13.5620   20.7970 C   0  0  0  0  0  2  0  0  0  0  0  0
  -29.8490  -14.0820   20.1080 N   0  0  0  0  0  0  0  0  0  0  0  0
  -31.7580  -15.1320   20.1940 O   0  0  0  0  0  0  0  0  0  0  0  0
  -30.0230  -16.6710   19.9130 N   0  0  0  0  0  0  0  0  0  0  0  0
  -25.2130  -13.9400   20.5430 C   0  0  0  0  0  0  0  0  0  0  0  0
  -24.1670  -13.1460   20.9180 C   0  0  0  0  0  0  0  0  0  0  0  0
  -24.6490  -11.8010   20.8530 C   0  0  0  0  0  0  0  0  0  0  0  0
  -26.2590  -13.0830   20.2580 N   0  0  0  0  0  0  0  0  0  0  0  0
  -25.9350  -11.7890   20.5170 N   0  0  0  0  0  0  0  0  0  0  0  0
  -23.9380  -10.5270   21.0320 C   0  0  0  0  0  0  0  0  0  0  0  0
  -24.3900   -9.5520   21.9470 C   0  0  0  0  0  3  0  0  0  0  0  0
  -23.6790   -8.3450   22.1170 C   0  0  0  0  0  3  0  0  0  0  0  0
  -22.5030   -8.1010   21.3720 C   0  0  0  0  0  0  0  0  0  0  0  0
  -22.0700   -9.0630   20.4430 C   0  0  0  0  0  3  0  0  0  0  0  0
  -22.7810  -10.2630   20.2710 C   0  0  0  0  0  3  0  0  0  0  0  0
  -21.7620   -6.9460   21.4530 O   0  0  0  0  0  0  0  0  0  0  0  0
  -21.7200   -6.1960   22.5990 C   0  0  0  0  0  0  0  0  0  0  0  0
  -21.2750   -6.7350   23.8260 C   0  0  0  0  0  3  0  0  0  0  0  0
  -21.1820   -5.9110   24.9660 C   0  0  0  0  0  3  0  0  0  0  0  0
  -21.5230   -4.5480   24.8790 C   0  0  0  0  0  0  0  0  0  0  0  0
  -21.9600   -4.0070   23.6570 C   0  0  0  0  0  3  0  0  0  0  0  0
  -22.0550   -4.8290   22.5200 C   0  0  0  0  0  0  0  0  0  0  0  0
  -22.4570   -4.2990   21.3400 F   0  0  0  0  0  0  0  0  0  0  0  0
  -21.4260   -3.7520   25.9710 F   0  0  0  0  0  0  0  0  0  0  0  0
  -22.7680  -13.6020   21.2120 C   0  0  0  0  0  0  0  0  0  0  0  0
  -22.0530  -12.8900   22.0750 N   0  0  0  0  0  0  0  0  0  0  0  0
  -22.3140  -14.6280   20.7070 O   0  0  0  0  0  0  0  0  0  0  0  0
  -22.4260  -12.0650   22.5200 H   0  0  0  0  0  0  0  0  0  0  0  0
  -21.1090  -13.1830   22.3000 H   0  0  0  0  0  0  0  0  0  0  0  0
  -25.3590  -15.3160   20.3880 N   0  0  0  0  0  0  0  0  0  0  0  0
  -24.5950  -15.9640   20.5310 H   0  0  0  0  0  0  0  0  0  0  0  0
  -26.2050  -15.7690   20.0640 H   0  0  0  0  0  0  0  0  0  0  0  0
  -29.6080  -17.7400   17.7000 C   0  0  0  0  0  1  0  0  0  0  0  0
  -30.6790  -17.1490   18.6570 C   0  0  0  0  0  3  0  0  0  0  0  0
  -33.6260  -18.6490   20.3730 C   0  0  0  0  0  3  0  0  0  0  0  0
  -34.3490  -19.2620   19.3300 C   0  0  0  0  0  3  0  0  0  0  0  0
  -31.9940  -17.9560   18.8630 C   0  0  0  0  0  0  0  0  0  0  0  0
  -32.7600  -18.5550   17.8140 C   0  0  0  0  0  0  0  0  0  0  0  0
  -32.4630  -18.0050   20.1380 N   0  0  0  0  0  0  0  0  0  0  0  0
  -33.9170  -19.2120   18.0480 N   0  0  0  0  0  0  0  0  0  0  0  0
  -32.4210  -18.5110   16.4690 N   0  0  0  0  0  0  0  0  0  0  0  0
  -31.4780  -18.2510   16.2050 H   0  0  0  0  0  0  0  0  0  0  0  0
  -32.8570  -19.1820   15.8450 H   0  0  0  0  0  0  0  0  0  0  0  0
  -29.6470  -19.7750   20.4200 C   0  0  0  0  0  3  0  0  0  0  0  0
  -30.5400  -20.0520   21.4750 O   0  0  0  0  0  0  0  0  0  0  0  0
  -31.0720  -20.8000   21.2160 H   0  0  0  0  0  0  0  0  0  0  0  0
  -28.6230  -21.2320   20.5170 C   0  0  0  0  0  2  0  0  0  0  0  0
  -29.9300  -23.3050   21.6180 C   0  0  0  0  0  1  0  0  0  0  0  0
  -28.9840  -22.9800   20.4540 C   0  0  0  0  0  3  0  0  0  0  0  0
  -27.9230  -24.4020   20.3560 C   0  0  0  0  0  2  0  0  0  0  0  0
  -28.1930  -26.0080   20.4080 O   0  0  0  0  0  0  0  0  0  0  0  0
  -24.6050  -31.9680   23.2620 C   0  0  0  0  0  0  0  0  0  0  0  0
  -27.1710  -27.0760   20.3380 C   0  0  0  0  0  0  0  0  0  0  0  0
  -23.4170  -30.5500   21.6370 C   0  0  0  0  0  3  0  0  0  0  0  0
  -24.8720  -28.9260   20.2520 C   0  0  0  0  0  0  0  0  0  0  0  0
  -25.9840  -30.7650   21.5010 C   0  0  0  0  0  2  0  0  0  0  0  0
  -26.0550  -29.3480   20.8730 C   0  0  0  0  0  0  0  0  0  0  0  0
  -27.2020  -28.4440   20.8900 C   0  0  0  0  0  3  0  0  0  0  0  0
  -25.9560  -26.7900   19.6770 C   0  0  0  0  0  3  0  0  0  0  0  0
  -24.8430  -27.6640   19.6370 C   0  0  0  0  0  3  0  0  0  0  0  0
  -23.6500  -29.8370   20.2760 C   0  0  0  0  0  2  0  0  0  0  0  0
  -24.6920  -31.1230   22.1840 N   0  0  0  0  0  0  0  0  0  0  0  0
  -23.5150  -32.2660   23.7730 O   0  0  0  0  0  0  0  0  0  0  0  0
  -22.7170  -29.5710   22.6140 C   0  0  0  0  0  0  0  0  0  0  0  0
  -21.3900  -29.3990   22.4760 N   0  0  0  0  0  0  0  0  0  0  0  0
  -23.3750  -28.9610   23.4610 O   0  0  0  0  0  0  0  0  0  0  0  0
  -20.9150  -29.9390   21.7690 H   0  0  0  0  0  0  0  0  0  0  0  0
  -18.0030  -28.1970   22.9660 C   0  0  0  0  0  0  0  0  0  0  0  0
  -20.5600  -28.4750   23.2530 C   0  0  0  0  0  3  0  0  0  0  0  0
  -20.6710  -27.0320   22.7050 C   0  0  0  0  0  2  0  0  0  0  0  0
  -19.5810  -26.6880   21.6840 C   0  0  0  0  0  2  0  0  0  0  0  0
  -18.1910  -26.8380   22.3100 C   0  0  0  0  0  2  0  0  0  0  0  0
  -19.1150  -28.9720   23.3910 C   0  0  0  0  0  0  0  0  0  0  0  0
  -18.8830  -30.2410   23.9660 C   0  0  0  0  0  3  0  0  0  0  0  0
  -17.5750  -30.7390   24.1110 C   0  0  0  0  0  3  0  0  0  0  0  0
  -16.4780  -29.9620   23.7030 C   0  0  0  0  0  3  0  0  0  0  0  0
  -16.6920  -28.6920   23.1380 C   0  0  0  0  0  3  0  0  0  0  0  0
  -25.8740  -32.6180   23.8940 C   0  0  0  0  0  3  0  0  0  0  0  0
  -25.5590  -34.0240   24.2000 N   0  0  0  0  0  0  0  0  0  0  0  0
  -25.8970  -35.0730   23.4360 C   0  0  0  0  0  0  0  0  0  0  0  0
  -26.5720  -34.9570   22.4100 O   0  0  0  0  0  0  0  0  0  0  0  0
  -24.9630  -34.1860   24.9980 H   0  0  0  0  0  0  0  0  0  0  0  0
  -24.1770  -36.8740   23.0610 C   0  0  0  0  0  1  0  0  0  0  0  0
  -25.4130  -36.4690   23.8790 C   0  0  0  0  0  3  0  0  0  0  0  0
  -27.5450  -37.3620   24.7130 C   0  0  0  0  0  1  0  0  0  0  0  0
  -26.4500  -37.5180   23.7590 N   0  0  0  0  0  0  0  0  0  0  0  0
  -26.0440  -38.4410   23.8920 H   0  0  0  0  0  0  0  0  0  0  0  0
  -26.3670  -31.8770   25.1990 C   0  0  1  0  0  0  0  0  0  0  0  0
  -25.2540  -31.6600   26.2490 C   0  0  0  0  0  1  0  0  0  0  0  0
  -26.9590  -30.4910   24.8540 C   0  0  0  0  0  1  0  0  0  0  0  0
  -27.5010  -32.6880   25.8660 C   0  0  0  0  0  1  0  0  0  0  0  0
  3  8  1  0
  4  5  1  0
  4  3  1  0
  6  5  1  0
  6 14  1  0
  6  7  1  0
  8  2  1  0
  8  7  1  0
  9  2  2  0
 10  2  1  0
 10  1  1  0
 11 12  2  0
 12 31  1  0
 13 12  1  0
 13 16  1  0
 14 15  1  0
 14 11  1  0
 15 13  2  0
 16 17  1  0
 17 18  2  0
 19 22  1  0
 19 18  1  0
 20 19  2  0
 21 20  1  0
 21 16  2  0
 22 23  1  0
 23 24  1  0
 24 25  2  0
 26 25  1  0
 26 30  1  0
 27 26  2  0
 28 23  2  0
 28 27  1  0
 29 28  1  0
 31 32  1  0
 32 35  1  0
 32 34  1  0
 33 31  2  0
 36 37  1  0
 36 11  1  0
 38 36  1  0
 40 39  1  0
 40 43  1  0
 40 10  1  0
 42 41  2  0
 43 45  2  0
 44 46  2  0
 44 43  1  0
 45 41  1  0
 46 42  1  0
 47 44  1  0
 48 47  1  0
 49 47  1  0
 50 53  1  0
 50  1  1  0
 50 51  1  0
 52 51  1  0
 55 53  1  0
 55 54  1  0
 56 57  1  0
 56 55  1  0
 58 69  2  0
 59 57  1  0
 59 64  1  0
 60 68  1  0
 60 70  1  0
 61 67  1  0
 61 63  1  0
 62 68  1  0
 63 64  2  0
 63 62  1  0
 65 59  2  0
 66 65  1  0
 66 61  2  0
 67 60  1  0
 68 58  1  0
 70 72  2  0
 71 70  1  0
 73 71  1  0
 74 83  2  0
 74 79  1  0
 75 71  1  0
 75 79  1  0
 76 75  1  0
 77 78  1  0
 77 76  1  0
 78 74  1  0
 79 80  2  0
 80 81  1  0
 82 81  2  0
 83 82  1  0
 84 58  1  0
 84 85  1  0
 84 94  1  0
 85 88  1  0
 86 90  1  0
 86 85  1  0
 87 86  2  0
 90 89  1  0
 92 90  1  0
 92 93  1  0
 92 91  1  0
 94 97  1  1
 94 95  1  0
 96 94  1  0
M  ISO  4   2 100  10 100  56 101  57 101
M  END
>  <TORSDO>  (81) 
F 23

>  <SCORE>  (81) 
-15.184

>  <name>  (81) 
80

>  <ligand_id>  (81) 
80

>  <original_smiles>  (81) 
[H]OC([H])(C([H])([H])N(C(=O)N1C([H])([H])C([H])([H])C([H])([H])C([H])(n2nc(-c3c([H])c([H])c(Oc4c([H])c([H])c(F)c([H])c4F)c([H])c3[H])c(C(=O)N([H])[H])c2N([H])[H])C1([H])[H])C([H])(c1nc([H])c([H])nc1N([H])[H])C([H])([H])[H])C([H])([H])C([H])(C([H])([H])[H])C([H])([H])Oc1c([H])c([H])c2c(c1[H])C([H])([H])N(C(=O)C([H])(N([H])C(=O)C([H])(N([H])C([H])([H])[H])C([H])([H])[H])C(C([H])([H])[H])(C([H])([H])[H])C([H])([H])[H])C([H])(C(=O)N([H])C1([H])c3c([H])c([H])c([H])c([H])c3C([H])([H])C([H])([H])C1([H])[H])C2([H])[H]

>  <smiles>  (81) 
[H]OC([H])(C([H])([H])N(C(=O)N1C([H])([H])C([H])([H])C([H])([H])C([H])(n2nc(-c3c([H])c([H])c(Oc4c([H])c([H])c(F)c([H])c4F)c([H])c3[H])c(C(=O)N([H])[H])c2N([H])[H])C1([H])[H])C([H])(c1nc([H])c([H])nc1N([H])[H])C([H])([H])[H])C([H])([H])C([H])(C([H])([H])[H])C([H])([H])Oc1c([H])c([H])c2c(c1[H])C([H])([H])N(C(=O)C([H])(N([H])C(=O)C([H])(N([H])C([H])([H])[H])C([H])([H])[H])C(C([H])([H])[H])(C([H])([H])[H])C([H])([H])[H])C([H])(C(=O)N([H])C1([H])c3c([H])c([H])c([H])c([H])c3C([H])([H])C([H])([H])C1([H])[H])C2([H])[H]

$$$$
81:0:0
     RDKit          3D

 92100  0  0  1  0  0  0  0  0999 V2000
  -30.0440  -21.7800   20.7660 N   0  0  0  0  0  4  0  0  0  0  0  0
  -30.5590  -21.6040   19.9200 H   0  0  0  0  0  0  0  0  0  0  0  0
  -30.6510  -22.3380   21.3420 H   0  0  0  0  0  0  0  0  0  0  0  0
  -27.6130  -22.3040   21.3470 C   0  0  0  0  0  1  0  0  0  0  0  0
  -28.8450  -22.6450   20.4700 C   0  0  0  0  0  3  0  0  0  0  0  0
  -29.2070  -24.1850   20.5370 C   0  0  0  0  0  3  0  0  0  0  0  0
  -28.1060  -25.1710   20.0320 C   0  0  0  0  0  3  0  0  0  0  0  0
  -28.3430  -26.6020   20.1990 O   0  0  0  0  0  0  0  0  0  0  0  0
  -24.6030  -31.9070   23.2450 C   0  0  0  0  0  0  0  0  0  0  0  0
  -27.2130  -27.4150   20.1470 C   0  0  0  0  0  0  0  0  0  0  0  0
  -23.3910  -30.5140   21.6070 C   0  0  0  0  0  3  0  0  0  0  0  0
  -24.8370  -28.9810   20.1710 C   0  0  0  0  0  0  0  0  0  0  0  0
  -25.9290  -30.8470   21.4170 C   0  0  0  0  0  2  0  0  0  0  0  0
  -26.0080  -29.4810   20.7550 C   0  0  0  0  0  0  0  0  0  0  0  0
  -27.2010  -28.7090   20.7360 C   0  0  0  0  0  3  0  0  0  0  0  0
  -26.0180  -26.9610   19.5340 C   0  0  0  0  0  3  0  0  0  0  0  0
  -24.8410  -27.7240   19.5530 C   0  0  0  0  0  3  0  0  0  0  0  0
  -23.5970  -29.8420   20.2250 C   0  0  0  0  0  2  0  0  0  0  0  0
  -24.6590  -31.1050   22.1440 N   0  0  0  0  0  0  0  0  0  0  0  0
  -23.5230  -32.1790   23.7900 O   0  0  0  0  0  0  0  0  0  0  0  0
  -22.7390  -29.4890   22.5620 C   0  0  0  0  0  0  0  0  0  0  0  0
  -21.4140  -29.3030   22.4310 N   0  0  0  0  0  0  0  0  0  0  0  0
  -23.4220  -28.8640   23.3790 O   0  0  0  0  0  0  0  0  0  0  0  0
  -20.9300  -29.8440   21.7290 H   0  0  0  0  0  0  0  0  0  0  0  0
  -18.0380  -28.1110   22.9340 C   0  0  0  0  0  0  0  0  0  0  0  0
  -20.5970  -28.3690   23.2040 C   0  0  0  0  0  3  0  0  0  0  0  0
  -20.6990  -26.9370   22.6300 C   0  0  0  0  0  2  0  0  0  0  0  0
  -19.5980  -26.6150   21.6150 C   0  0  0  0  0  2  0  0  0  0  0  0
  -18.2160  -26.7600   22.2600 C   0  0  0  0  0  2  0  0  0  0  0  0
  -19.1570  -28.8730   23.3620 C   0  0  0  0  0  0  0  0  0  0  0  0
  -18.9400  -30.1380   23.9530 C   0  0  0  0  0  3  0  0  0  0  0  0
  -17.6360  -30.6400   24.1180 C   0  0  0  0  0  3  0  0  0  0  0  0
  -16.5310  -29.8740   23.7080 C   0  0  0  0  0  3  0  0  0  0  0  0
  -16.7330  -28.6110   23.1220 C   0  0  0  0  0  3  0  0  0  0  0  0
  -25.8910  -32.5340   23.8610 C   0  0  0  0  0  3  0  0  0  0  0  0
  -26.4110  -31.7610   25.1360 C   0  0  1  0  0  0  0  0  0  0  0  0
  -25.3180  -31.5220   26.2030 C   0  0  0  0  0  1  0  0  0  0  0  0
  -26.9940  -30.3830   24.7450 C   0  0  0  0  0  1  0  0  0  0  0  0
  -27.5680  -32.5520   25.7910 C   0  0  0  0  0  1  0  0  0  0  0  0
  -25.5830  -33.9320   24.1920 N   0  0  0  0  0  0  0  0  0  0  0  0
  -25.9150  -34.9840   23.4310 C   0  0  0  0  0  0  0  0  0  0  0  0
  -26.5830  -34.8800   22.3980 O   0  0  0  0  0  0  0  0  0  0  0  0
  -24.9870  -34.0860   24.9910 H   0  0  0  0  0  0  0  0  0  0  0  0
  -24.1850  -36.7730   23.0790 C   0  0  0  0  0  1  0  0  0  0  0  0
  -25.4290  -36.3720   23.8890 C   0  0  0  0  0  3  0  0  0  0  0  0
  -27.5660  -37.2510   24.7180 C   0  0  0  0  0  1  0  0  0  0  0  0
  -26.4630  -37.4250   23.7750 N   0  0  0  0  0  0  0  0  0  0  0  0
  -26.0590  -38.3450   23.9240 H   0  0  0  0  0  0  0  0  0  0  0  0
  -29.9220  -20.4860   21.5120 C   0  0  0  0  0  2  0  0  0  0  0  0
  -30.6730  -14.5410   20.4390 C   0  0  0  0  0  0  0  0  0  0  0  0
  -30.4020  -12.3710   19.2950 C   0  0  0  0  0  2  0  0  0  0  0  0
  -29.4670  -12.5890   18.0840 C   0  0  0  0  0  2  0  0  0  0  0  0
  -27.9900  -12.4550   18.5020 C   0  0  0  0  0  2  0  0  0  0  0  0
  -27.6530  -13.2800   19.7720 C   0  0  0  0  0  3  0  0  0  0  0  0
  -28.6960  -13.0340   20.8860 C   0  0  0  0  0  2  0  0  0  0  0  0
  -30.0250  -13.3460   20.3360 N   0  0  0  0  0  0  0  0  0  0  0  0
  -31.7960  -14.7230   19.9570 O   0  0  0  0  0  0  0  0  0  0  0  0
  -29.9650  -19.0440   19.3210 C   0  0  0  0  0  3  0  0  0  0  0  0
  -29.8990  -19.1990   20.6880 C   0  0  0  0  0  0  0  0  0  0  0  0
  -29.9920  -16.8980   20.5320 C   0  0  0  0  0  0  0  0  0  0  0  0
  -29.8620  -17.9500   21.3560 N   0  0  0  0  0  0  0  0  0  0  0  0
  -29.9860  -15.5530   21.0080 N   0  0  0  0  0  0  0  0  0  0  0  0
  -30.0770  -17.3650   18.8350 S   0  0  0  0  0  0  0  0  0  0  0  0
  -29.2070  -15.3060   21.6010 H   0  0  0  0  0  0  0  0  0  0  0  0
  -25.2480  -13.8890   20.4490 C   0  0  0  0  0  0  0  0  0  0  0  0
  -24.1800  -13.1160   20.8170 C   0  0  0  0  0  0  0  0  0  0  0  0
  -24.6460  -11.7660   20.8030 C   0  0  0  0  0  0  0  0  0  0  0  0
  -26.2970  -13.0090   20.2360 N   0  0  0  0  0  0  0  0  0  0  0  0
  -25.9390  -11.7270   20.5060 N   0  0  0  0  0  0  0  0  0  0  0  0
  -23.9220  -10.5040   20.9980 C   0  0  0  0  0  0  0  0  0  0  0  0
  -24.3500   -9.5440   21.9430 C   0  0  0  0  0  3  0  0  0  0  0  0
  -23.6250   -8.3460   22.1270 C   0  0  0  0  0  3  0  0  0  0  0  0
  -22.4570   -8.1010   21.3650 C   0  0  0  0  0  0  0  0  0  0  0  0
  -22.0510   -9.0470   20.4070 C   0  0  0  0  0  3  0  0  0  0  0  0
  -22.7760  -10.2360   20.2220 C   0  0  0  0  0  3  0  0  0  0  0  0
  -21.7040   -6.9560   21.4580 O   0  0  0  0  0  0  0  0  0  0  0  0
  -21.6500   -6.2240   22.6170 C   0  0  0  0  0  0  0  0  0  0  0  0
  -21.2160   -6.7870   23.8370 C   0  0  0  0  0  3  0  0  0  0  0  0
  -21.1080   -5.9790   24.9860 C   0  0  0  0  0  3  0  0  0  0  0  0
  -21.4240   -4.6090   24.9170 C   0  0  0  0  0  0  0  0  0  0  0  0
  -21.8520   -4.0460   23.7020 C   0  0  0  0  0  3  0  0  0  0  0  0
  -21.9620   -4.8500   22.5540 C   0  0  0  0  0  0  0  0  0  0  0  0
  -22.3530   -4.2980   21.3810 F   0  0  0  0  0  0  0  0  0  0  0  0
  -21.3140   -3.8300   26.0190 F   0  0  0  0  0  0  0  0  0  0  0  0
  -22.7790  -13.5880   21.0770 C   0  0  0  0  0  0  0  0  0  0  0  0
  -22.0490  -12.8920   21.9410 N   0  0  0  0  0  0  0  0  0  0  0  0
  -22.3400  -14.6080   20.5460 O   0  0  0  0  0  0  0  0  0  0  0  0
  -22.4200  -12.0650   22.3860 H   0  0  0  0  0  0  0  0  0  0  0  0
  -21.1100  -13.1880   22.1640 H   0  0  0  0  0  0  0  0  0  0  0  0
  -25.4080  -15.2590   20.2600 N   0  0  0  0  0  0  0  0  0  0  0  0
  -24.6430  -15.9130   20.3860 H   0  0  0  0  0  0  0  0  0  0  0  0
  -26.2480  -15.6960   19.9020 H   0  0  0  0  0  0  0  0  0  0  0  0
  1  3  1  0
  1 49  1  0
  2  1  1  0
  5  6  1  0
  5  1  1  0
  5  4  1  0
  7  8  1  0
  7  6  2  0
  9 20  2  0
 10  8  1  0
 10 15  1  0
 11 19  1  0
 11 21  1  0
 12 18  1  0
 12 14  1  0
 13 19  1  0
 14 13  1  0
 15 14  2  0
 16 17  1  0
 16 10  2  0
 17 12  2  0
 18 11  1  0
 19  9  1  0
 21 23  2  0
 22 21  1  0
 24 22  1  0
 25 34  2  0
 25 30  1  0
 26 22  1  0
 26 30  1  0
 27 26  1  0
 28 29  1  0
 28 27  1  0
 29 25  1  0
 30 31  2  0
 31 32  1  0
 33 32  2  0
 34 33  1  0
 35  9  1  0
 35 40  1  0
 35 36  1  0
 36 39  1  1
 36 37  1  0
 38 36  1  0
 40 43  1  0
 41 45  1  0
 41 40  1  0
 42 41  2  0
 45 44  1  0
 47 45  1  0
 47 48  1  0
 47 46  1  0
 50 62  1  0
 51 56  1  0
 52 53  1  0
 52 51  1  0
 54 53  1  0
 54 68  1  0
 54 55  1  0
 56 50  1  0
 56 55  1  0
 57 50  2  0
 58 59  2  0
 59 61  1  0
 59 49  1  0
 60 62  1  0
 60 61  2  0
 62 64  1  0
 63 58  1  0
 63 60  1  0
 65 66  2  0
 66 85  1  0
 67 66  1  0
 67 70  1  0
 68 65  1  0
 68 69  1  0
 69 67  2  0
 70 71  1  0
 71 72  2  0
 73 76  1  0
 73 72  1  0
 74 73  2  0
 75 74  1  0
 75 70  2  0
 76 77  1  0
 77 78  1  0
 78 79  2  0
 80 79  1  0
 80 84  1  0
 81 80  2  0
 82 77  2  0
 82 81  1  0
 83 82  1  0
 85 86  1  0
 86 89  1  0
 86 88  1  0
 87 85  2  0
 90 91  1  0
 90 65  1  0
 92 90  1  0
M  ISO  4   7 101   8 101  50 100  62 100
M  END
>  <TORSDO>  (82) 
F 20

>  <SCORE>  (82) 
-13.840

>  <name>  (82) 
81

>  <ligand_id>  (82) 
81

>  <original_smiles>  (82) 
[H]c1sc(N([H])C(=O)N2C([H])([H])C([H])([H])C([H])([H])C([H])(n3nc(-c4c([H])c([H])c(Oc5c([H])c([H])c(F)c([H])c5F)c([H])c4[H])c(C(=O)N([H])[H])c3N([H])[H])C2([H])[H])nc1C([H])([H])[N+]([H])([H])C([H])(C([H])([H])[H])C([H])([H])C([H])([H])Oc1c([H])c([H])c2c(c1[H])C([H])([H])N(C(=O)C([H])(N([H])C(=O)C([H])(N([H])C([H])([H])[H])C([H])([H])[H])C(C([H])([H])[H])(C([H])([H])[H])C([H])([H])[H])C([H])(C(=O)N([H])C1([H])c3c([H])c([H])c([H])c([H])c3C([H])([H])C([H])([H])C1([H])[H])C2([H])[H]

>  <smiles>  (82) 
[H]c1sc(N([H])C(=O)N2C([H])([H])C([H])([H])C([H])([H])C([H])(n3nc(-c4c([H])c([H])c(Oc5c([H])c([H])c(F)c([H])c5F)c([H])c4[H])c(C(=O)N([H])[H])c3N([H])[H])C2([H])[H])nc1C([H])([H])[N+]([H])([H])C([H])(C([H])([H])[H])C([H])([H])C([H])([H])Oc1c([H])c([H])c2c(c1[H])C([H])([H])N(C(=O)C([H])(N([H])C(=O)C([H])(N([H])C([H])([H])[H])C([H])([H])[H])C(C([H])([H])[H])(C([H])([H])[H])C([H])([H])[H])C([H])(C(=O)N([H])C1([H])c3c([H])c([H])c([H])c([H])c3C([H])([H])C([H])([H])C1([H])[H])C2([H])[H]

$$$$
82:0:0
     RDKit          3D

 97105  0  0  1  0  0  0  0  0999 V2000
  -30.1310  -21.2970   20.9360 C   0  0  0  0  0  0  0  0  0  0  0  0
  -29.0830  -21.9880   20.4370 N   0  0  0  0  0  0  0  0  0  0  0  0
  -31.0520  -21.8630   21.5320 O   0  0  0  0  0  0  0  0  0  0  0  0
  -28.3790  -21.4250   19.9770 H   0  0  0  0  0  0  0  0  0  0  0  0
  -28.9530  -17.7670   20.8990 C   0  0  0  0  0  3  0  0  0  0  0  0
  -30.1300  -19.7750   20.7560 C   0  0  0  0  0  0  0  0  0  0  0  0
  -30.1230  -16.9890   20.6920 C   0  0  0  0  0  0  0  0  0  0  0  0
  -31.3170  -18.9980   20.5370 C   0  0  0  0  0  0  0  0  0  0  0  0
  -28.9450  -19.1270   20.9250 N   0  0  0  0  0  0  0  0  0  0  0  0
  -31.3040  -17.6390   20.4980 N   0  0  0  0  0  0  0  0  0  0  0  0
  -32.5850  -19.5390   20.3350 N   0  0  0  0  0  0  0  0  0  0  0  0
  -32.7470  -20.5010   20.6190 H   0  0  0  0  0  0  0  0  0  0  0  0
  -33.3920  -18.9340   20.4270 H   0  0  0  0  0  0  0  0  0  0  0  0
  -30.6890  -14.5710   20.1440 C   0  0  0  0  0  0  0  0  0  0  0  0
  -30.3610  -12.4360   18.9390 C   0  0  0  0  0  2  0  0  0  0  0  0
  -29.3550  -12.6760   17.7920 C   0  0  0  0  0  2  0  0  0  0  0  0
  -27.9040  -12.5190   18.2910 C   0  0  0  0  0  2  0  0  0  0  0  0
  -27.6320  -13.3050   19.6000 C   0  0  0  0  0  3  0  0  0  0  0  0
  -28.7420  -13.0410   20.6430 C   0  0  0  0  0  2  0  0  0  0  0  0
  -30.0350  -13.3800   20.0220 N   0  0  0  0  0  0  0  0  0  0  0  0
  -31.8040  -14.7580   19.6490 O   0  0  0  0  0  0  0  0  0  0  0  0
  -29.9570  -15.5600   20.7130 N   0  0  0  0  0  0  0  0  0  0  0  0
  -29.0750  -15.2440   21.0850 H   0  0  0  0  0  0  0  0  0  0  0  0
  -25.2690  -13.8930   20.4330 C   0  0  0  0  0  0  0  0  0  0  0  0
  -24.2210  -13.1100   20.8390 C   0  0  0  0  0  0  0  0  0  0  0  0
  -24.6820  -11.7610   20.7590 C   0  0  0  0  0  0  0  0  0  0  0  0
  -26.3030  -13.0180   20.1350 N   0  0  0  0  0  0  0  0  0  0  0  0
  -25.9560  -11.7300   20.3890 N   0  0  0  0  0  0  0  0  0  0  0  0
  -23.9670  -10.4930   20.9580 C   0  0  0  0  0  0  0  0  0  0  0  0
  -24.4060   -9.5410   21.9040 C   0  0  0  0  0  3  0  0  0  0  0  0
  -23.6930   -8.3370   22.0910 C   0  0  0  0  0  3  0  0  0  0  0  0
  -22.5280   -8.0770   21.3310 C   0  0  0  0  0  0  0  0  0  0  0  0
  -22.1080   -9.0190   20.3750 C   0  0  0  0  0  3  0  0  0  0  0  0
  -22.8220  -10.2140   20.1860 C   0  0  0  0  0  3  0  0  0  0  0  0
  -21.7870   -6.9240   21.4260 O   0  0  0  0  0  0  0  0  0  0  0  0
  -21.6900   -6.2260   22.6030 C   0  0  0  0  0  0  0  0  0  0  0  0
  -21.1680   -6.8110   23.7770 C   0  0  0  0  0  3  0  0  0  0  0  0
  -21.0220   -6.0380   24.9460 C   0  0  0  0  0  3  0  0  0  0  0  0
  -21.3870   -4.6780   24.9400 C   0  0  0  0  0  0  0  0  0  0  0  0
  -21.9020   -4.0910   23.7710 C   0  0  0  0  0  3  0  0  0  0  0  0
  -22.0500   -4.8630   22.6040 C   0  0  0  0  0  0  0  0  0  0  0  0
  -22.5270   -4.2880   21.4740 F   0  0  0  0  0  0  0  0  0  0  0  0
  -21.2400   -3.9320   26.0590 F   0  0  0  0  0  0  0  0  0  0  0  0
  -22.8370  -13.5790   21.1850 C   0  0  0  0  0  0  0  0  0  0  0  0
  -22.1480  -12.8590   22.0630 N   0  0  0  0  0  0  0  0  0  0  0  0
  -22.3760  -14.6170   20.7120 O   0  0  0  0  0  0  0  0  0  0  0  0
  -22.5330  -12.0190   22.4670 H   0  0  0  0  0  0  0  0  0  0  0  0
  -21.2210  -13.1530   22.3360 H   0  0  0  0  0  0  0  0  0  0  0  0
  -25.4230  -15.2670   20.2720 N   0  0  0  0  0  0  0  0  0  0  0  0
  -24.6490  -15.9080   20.4090 H   0  0  0  0  0  0  0  0  0  0  0  0
  -26.2280  -15.7040   19.8440 H   0  0  0  0  0  0  0  0  0  0  0  0
  -28.7830  -23.4290   20.6180 C   0  0  0  0  0  2  0  0  0  0  0  0
  -29.5480  -24.3840   19.6500 C   0  0  0  0  0  3  0  0  0  0  0  0
  -30.7760  -24.8010   20.2200 O   0  0  0  0  0  0  0  0  0  0  0  0
  -30.5650  -25.4390   20.8960 H   0  0  0  0  0  0  0  0  0  0  0  0
  -28.8000  -25.6670   19.1540 C   0  0  0  0  0  2  0  0  0  0  0  0
  -28.5090  -26.6770   20.1530 O   0  0  0  0  0  0  0  0  0  0  0  0
  -24.6180  -31.8750   23.1620 C   0  0  0  0  0  0  0  0  0  0  0  0
  -27.3330  -27.4230   20.0930 C   0  0  0  0  0  0  0  0  0  0  0  0
  -23.4470  -30.4710   21.5010 C   0  0  0  0  0  3  0  0  0  0  0  0
  -24.9300  -28.9500   20.0890 C   0  0  0  0  0  0  0  0  0  0  0  0
  -25.9790  -30.8330   21.3450 C   0  0  0  0  0  2  0  0  0  0  0  0
  -26.0810  -29.4640   20.6980 C   0  0  0  0  0  0  0  0  0  0  0  0
  -27.2800  -28.7060   20.7010 C   0  0  0  0  0  3  0  0  0  0  0  0
  -26.1460  -26.9300   19.4980 C   0  0  0  0  0  3  0  0  0  0  0  0
  -24.9590  -27.6830   19.4910 C   0  0  0  0  0  3  0  0  0  0  0  0
  -23.6810  -29.8020   20.1210 C   0  0  0  0  0  2  0  0  0  0  0  0
  -24.6980  -31.0760   22.0600 N   0  0  0  0  0  0  0  0  0  0  0  0
  -23.5270  -32.1390   23.6850 O   0  0  0  0  0  0  0  0  0  0  0  0
  -22.7890  -29.4400   22.4480 C   0  0  0  0  0  0  0  0  0  0  0  0
  -21.4640  -29.2600   22.3120 N   0  0  0  0  0  0  0  0  0  0  0  0
  -23.4670  -28.8070   23.2600 O   0  0  0  0  0  0  0  0  0  0  0  0
  -20.9790  -29.8240   21.6270 H   0  0  0  0  0  0  0  0  0  0  0  0
  -18.0800  -28.0870   22.8040 C   0  0  0  0  0  0  0  0  0  0  0  0
  -20.6410  -28.3170   23.0690 C   0  0  0  0  0  3  0  0  0  0  0  0
  -20.7270  -26.8950   22.4660 C   0  0  0  0  0  2  0  0  0  0  0  0
  -19.6180  -26.6010   21.4520 C   0  0  0  0  0  2  0  0  0  0  0  0
  -18.2410  -26.7480   22.1040 C   0  0  0  0  0  2  0  0  0  0  0  0
  -19.2070  -28.8310   23.2420 C   0  0  0  0  0  0  0  0  0  0  0  0
  -19.0030  -30.0860   23.8550 C   0  0  0  0  0  3  0  0  0  0  0  0
  -17.7040  -30.5970   24.0350 C   0  0  0  0  0  3  0  0  0  0  0  0
  -16.5910  -29.8500   23.6130 C   0  0  0  0  0  3  0  0  0  0  0  0
  -16.7800  -28.5970   23.0030 C   0  0  0  0  0  3  0  0  0  0  0  0
  -25.8890  -32.5140   23.8030 C   0  0  0  0  0  3  0  0  0  0  0  0
  -25.5640  -33.9090   24.1310 N   0  0  0  0  0  0  0  0  0  0  0  0
  -25.8980  -34.9660   23.3780 C   0  0  0  0  0  0  0  0  0  0  0  0
  -26.5830  -34.8690   22.3560 O   0  0  0  0  0  0  0  0  0  0  0  0
  -24.9570  -34.0580   24.9230 H   0  0  0  0  0  0  0  0  0  0  0  0
  -24.1680  -36.7500   22.9940 C   0  0  0  0  0  1  0  0  0  0  0  0
  -25.3930  -36.3490   23.8320 C   0  0  0  0  0  3  0  0  0  0  0  0
  -27.4990  -37.2460   24.7200 C   0  0  0  0  0  1  0  0  0  0  0  0
  -26.4220  -37.4080   23.7460 N   0  0  0  0  0  0  0  0  0  0  0  0
  -26.0060  -38.3260   23.8810 H   0  0  0  0  0  0  0  0  0  0  0  0
  -26.3950  -31.7430   25.0820 C   0  0  1  0  0  0  0  0  0  0  0  0
  -25.2900  -31.4890   26.1340 C   0  0  0  0  0  1  0  0  0  0  0  0
  -26.9990  -30.3730   24.6930 C   0  0  0  0  0  1  0  0  0  0  0  0
  -27.5280  -32.5470   25.7640 C   0  0  0  0  0  1  0  0  0  0  0  0
  1  3  2  0
  2 52  1  0
  2  1  1  0
  4  2  1  0
  5  9  1  0
  6  9  2  0
  6  1  1  0
  7 22  1  0
  7  5  2  0
  8  6  1  0
 10  8  2  0
 10  7  1  0
 11 13  1  0
 11  8  1  0
 11 12  1  0
 14 22  1  0
 15 20  1  0
 16 17  1  0
 16 15  1  0
 18 17  1  0
 18 27  1  0
 18 19  1  0
 20 14  1  0
 20 19  1  0
 21 14  2  0
 22 23  1  0
 24 25  2  0
 25 44  1  0
 26 25  1  0
 26 29  1  0
 27 28  1  0
 27 24  1  0
 28 26  2  0
 29 30  1  0
 30 31  2  0
 32 35  1  0
 32 31  1  0
 33 32  2  0
 34 33  1  0
 34 29  2  0
 35 36  1  0
 36 41  2  0
 36 37  1  0
 37 38  2  0
 39 38  1  0
 39 43  1  0
 40 39  2  0
 41 40  1  0
 42 41  1  0
 44 45  1  0
 45 48  1  0
 45 47  1  0
 46 44  2  0
 49 50  1  0
 49 24  1  0
 51 49  1  0
 53 56  1  0
 53 54  1  0
 53 52  1  0
 54 55  1  0
 56 57  1  0
 58 69  2  0
 59 57  1  0
 59 64  1  0
 60 68  1  0
 60 70  1  0
 61 67  1  0
 61 63  1  0
 62 68  1  0
 63 64  2  0
 63 62  1  0
 65 59  2  0
 66 65  1  0
 66 61  2  0
 67 60  1  0
 68 58  1  0
 70 72  2  0
 71 70  1  0
 73 71  1  0
 74 83  2  0
 74 79  1  0
 75 71  1  0
 75 79  1  0
 76 75  1  0
 77 78  1  0
 77 76  1  0
 78 74  1  0
 79 80  2  0
 80 81  1  0
 82 81  2  0
 83 82  1  0
 84 58  1  0
 84 85  1  0
 84 94  1  0
 85 88  1  0
 86 90  1  0
 86 85  1  0
 87 86  2  0
 90 89  1  0
 92 90  1  0
 92 93  1  0
 92 91  1  0
 94 97  1  1
 94 95  1  0
 96 94  1  0
M  ISO  4  14 100  22 100  56 101  57 101
M  END
>  <TORSDO>  (83) 
F 21

>  <SCORE>  (83) 
-13.611

>  <name>  (83) 
82

>  <ligand_id>  (83) 
82

>  <original_smiles>  (83) 
[H]OC([H])(C([H])([H])Oc1c([H])c([H])c2c(c1[H])C([H])([H])N(C(=O)C([H])(N([H])C(=O)C([H])(N([H])C([H])([H])[H])C([H])([H])[H])C(C([H])([H])[H])(C([H])([H])[H])C([H])([H])[H])C([H])(C(=O)N([H])C1([H])c3c([H])c([H])c([H])c([H])c3C([H])([H])C([H])([H])C1([H])[H])C2([H])[H])C([H])([H])N([H])C(=O)c1nc([H])c(N([H])C(=O)N2C([H])([H])C([H])([H])C([H])([H])C([H])(n3nc(-c4c([H])c([H])c(Oc5c([H])c([H])c(F)c([H])c5F)c([H])c4[H])c(C(=O)N([H])[H])c3N([H])[H])C2([H])[H])nc1N([H])[H]

>  <smiles>  (83) 
[H]OC([H])(C([H])([H])Oc1c([H])c([H])c2c(c1[H])C([H])([H])N(C(=O)C([H])(N([H])C(=O)C([H])(N([H])C([H])([H])[H])C([H])([H])[H])C(C([H])([H])[H])(C([H])([H])[H])C([H])([H])[H])C([H])(C(=O)N([H])C1([H])c3c([H])c([H])c([H])c([H])c3C([H])([H])C([H])([H])C1([H])[H])C2([H])[H])C([H])([H])N([H])C(=O)c1nc([H])c(N([H])C(=O)N2C([H])([H])C([H])([H])C([H])([H])C([H])(n3nc(-c4c([H])c([H])c(Oc5c([H])c([H])c(F)c([H])c5F)c([H])c4[H])c(C(=O)N([H])[H])c3N([H])[H])C2([H])[H])nc1N([H])[H]

$$$$
83:0:0
     RDKit          3D

 95103  0  0  1  0  0  0  0  0999 V2000
  -29.4070  -22.4210   19.8610 C   0  0  0  0  0  0  0  0  0  0  0  0
  -30.6650  -14.8650   20.3180 C   0  0  0  0  0  0  0  0  0  0  0  0
  -30.4830  -12.5780   19.2900 C   0  0  0  0  0  2  0  0  0  0  0  0
  -29.5230  -12.6170   18.0810 C   0  0  0  0  0  2  0  0  0  0  0  0
  -28.0660  -12.4270   18.5470 C   0  0  0  0  0  2  0  0  0  0  0  0
  -27.6990  -13.3240   19.7580 C   0  0  0  0  0  3  0  0  0  0  0  0
  -28.7750  -13.2650   20.8620 C   0  0  0  0  0  2  0  0  0  0  0  0
  -30.0490  -13.6340   20.2360 N   0  0  0  0  0  0  0  0  0  0  0  0
  -31.8670  -14.9520   20.0430 O   0  0  0  0  0  0  0  0  0  0  0  0
  -31.1010  -17.7050   21.7050 C   0  0  0  0  0  3  0  0  0  0  0  0
  -31.2970  -19.0290   22.1280 C   0  0  0  0  0  3  0  0  0  0  0  0
  -30.1280  -17.4310   20.7320 C   0  0  0  0  0  0  0  0  0  0  0  0
  -29.7150  -19.8210   20.6760 C   0  0  0  0  0  0  0  0  0  0  0  0
  -30.6030  -20.0640   21.6200 N   0  0  0  0  0  0  0  0  0  0  0  0
  -29.4260  -18.5460   20.2560 N   0  0  0  0  0  0  0  0  0  0  0  0
  -29.8520  -15.9980   20.4220 N   0  0  0  0  0  0  0  0  0  0  0  0
  -29.0000  -20.9730   20.1840 N   0  0  0  0  0  4  0  0  0  0  0  0
  -28.8730  -15.7890   20.3240 H   0  0  0  0  0  0  0  0  0  0  0  0
  -28.2190  -20.6860   19.6070 H   0  0  0  0  0  0  0  0  0  0  0  0
  -25.3260  -13.9010   20.5400 C   0  0  0  0  0  0  0  0  0  0  0  0
  -24.2670  -13.1220   20.9100 C   0  0  0  0  0  0  0  0  0  0  0  0
  -24.7320  -11.7730   20.8530 C   0  0  0  0  0  0  0  0  0  0  0  0
  -26.3660  -13.0280   20.2710 N   0  0  0  0  0  0  0  0  0  0  0  0
  -26.0170  -11.7400   20.5240 N   0  0  0  0  0  0  0  0  0  0  0  0
  -24.0090  -10.5060   21.0310 C   0  0  0  0  0  0  0  0  0  0  0  0
  -24.4240   -9.5470   21.9810 C   0  0  0  0  0  3  0  0  0  0  0  0
  -23.7010   -8.3460   22.1490 C   0  0  0  0  0  3  0  0  0  0  0  0
  -22.5480   -8.0960   21.3660 C   0  0  0  0  0  0  0  0  0  0  0  0
  -22.1540   -9.0440   20.4050 C   0  0  0  0  0  3  0  0  0  0  0  0
  -22.8780  -10.2360   20.2360 C   0  0  0  0  0  3  0  0  0  0  0  0
  -21.7970   -6.9480   21.4420 O   0  0  0  0  0  0  0  0  0  0  0  0
  -21.6920   -6.2330   22.6080 C   0  0  0  0  0  0  0  0  0  0  0  0
  -21.1360   -6.7950   23.7790 C   0  0  0  0  0  3  0  0  0  0  0  0
  -20.9810   -6.0030   24.9340 C   0  0  0  0  0  3  0  0  0  0  0  0
  -21.3740   -4.6510   24.9200 C   0  0  0  0  0  0  0  0  0  0  0  0
  -21.9230   -4.0890   23.7540 C   0  0  0  0  0  3  0  0  0  0  0  0
  -22.0790   -4.8780   22.6010 C   0  0  0  0  0  0  0  0  0  0  0  0
  -22.5890   -4.3250   21.4740 F   0  0  0  0  0  0  0  0  0  0  0  0
  -21.2180   -3.8880   26.0280 F   0  0  0  0  0  0  0  0  0  0  0  0
  -22.8730  -13.5940   21.2070 C   0  0  0  0  0  0  0  0  0  0  0  0
  -22.1480  -12.8740   22.0540 N   0  0  0  0  0  0  0  0  0  0  0  0
  -22.4350  -14.6360   20.7210 O   0  0  0  0  0  0  0  0  0  0  0  0
  -22.5150  -12.0270   22.4650 H   0  0  0  0  0  0  0  0  0  0  0  0
  -21.2130  -13.1740   22.2940 H   0  0  0  0  0  0  0  0  0  0  0  0
  -25.4890  -15.2780   20.3910 N   0  0  0  0  0  0  0  0  0  0  0  0
  -24.7280  -15.9260   20.5630 H   0  0  0  0  0  0  0  0  0  0  0  0
  -26.3360  -15.7350   20.0900 H   0  0  0  0  0  0  0  0  0  0  0  0
  -28.5350  -23.6760   20.4540 C   0  0  0  0  0  2  0  0  0  0  0  0
  -28.5790  -25.1410   19.7150 C   0  0  0  0  0  2  0  0  0  0  0  0
  -28.3620  -26.4820   20.3630 O   0  0  0  0  0  0  0  0  0  0  0  0
  -24.5610  -31.9100   23.2480 C   0  0  0  0  0  0  0  0  0  0  0  0
  -27.2330  -27.3250   20.2290 C   0  0  0  0  0  0  0  0  0  0  0  0
  -23.3840  -30.5070   21.5860 C   0  0  0  0  0  3  0  0  0  0  0  0
  -24.8640  -28.9520   20.1780 C   0  0  0  0  0  0  0  0  0  0  0  0
  -25.9250  -30.8230   21.4430 C   0  0  0  0  0  2  0  0  0  0  0  0
  -26.0170  -29.4390   20.7990 C   0  0  0  0  0  0  0  0  0  0  0  0
  -27.1960  -28.6290   20.8290 C   0  0  0  0  0  3  0  0  0  0  0  0
  -26.0600  -26.9010   19.5690 C   0  0  0  0  0  3  0  0  0  0  0  0
  -24.8860  -27.6880   19.5600 C   0  0  0  0  0  3  0  0  0  0  0  0
  -23.6200  -29.8200   20.2140 C   0  0  0  0  0  2  0  0  0  0  0  0
  -24.6410  -31.1010   22.1490 N   0  0  0  0  0  0  0  0  0  0  0  0
  -23.4690  -32.1870   23.7690 O   0  0  0  0  0  0  0  0  0  0  0  0
  -22.7080  -29.4980   22.5430 C   0  0  0  0  0  0  0  0  0  0  0  0
  -21.3840  -29.3250   22.4000 N   0  0  0  0  0  0  0  0  0  0  0  0
  -23.3760  -28.8670   23.3670 O   0  0  0  0  0  0  0  0  0  0  0  0
  -20.9040  -29.8880   21.7100 H   0  0  0  0  0  0  0  0  0  0  0  0
  -17.9940  -28.1660   22.8920 C   0  0  0  0  0  0  0  0  0  0  0  0
  -20.5560  -28.3850   23.1550 C   0  0  0  0  0  3  0  0  0  0  0  0
  -20.6370  -26.9640   22.5500 C   0  0  0  0  0  2  0  0  0  0  0  0
  -19.5260  -26.6790   21.5330 C   0  0  0  0  0  2  0  0  0  0  0  0
  -18.1490  -26.8270   22.1870 C   0  0  0  0  0  2  0  0  0  0  0  0
  -19.1250  -28.9030   23.3320 C   0  0  0  0  0  0  0  0  0  0  0  0
  -18.9280  -30.1540   23.9530 C   0  0  0  0  0  3  0  0  0  0  0  0
  -17.6330  -30.6680   24.1430 C   0  0  0  0  0  3  0  0  0  0  0  0
  -16.5160  -29.9280   23.7220 C   0  0  0  0  0  3  0  0  0  0  0  0
  -16.6970  -28.6800   23.1000 C   0  0  0  0  0  3  0  0  0  0  0  0
  -25.8330  -32.5440   23.8930 C   0  0  0  0  0  3  0  0  0  0  0  0
  -26.3150  -31.7880   25.1940 C   0  0  1  0  0  0  0  0  0  0  0  0
  -25.1940  -31.5710   26.2370 C   0  0  0  0  0  1  0  0  0  0  0  0
  -26.9060  -30.4010   24.8390 C   0  0  0  0  0  1  0  0  0  0  0  0
  -27.4490  -32.5920   25.8740 C   0  0  0  0  0  1  0  0  0  0  0  0
  -25.5220  -33.9490   24.2010 N   0  0  0  0  0  0  0  0  0  0  0  0
  -25.8770  -34.9930   23.4410 C   0  0  0  0  0  0  0  0  0  0  0  0
  -26.5620  -34.8760   22.4220 O   0  0  0  0  0  0  0  0  0  0  0  0
  -24.9060  -34.1140   24.9850 H   0  0  0  0  0  0  0  0  0  0  0  0
  -24.1750  -36.8060   23.0320 C   0  0  0  0  0  1  0  0  0  0  0  0
  -25.3900  -36.3900   23.8780 C   0  0  0  0  0  3  0  0  0  0  0  0
  -27.5010  -37.2670   24.7710 C   0  0  0  0  0  1  0  0  0  0  0  0
  -26.4340  -37.4330   23.7880 N   0  0  0  0  0  0  0  0  0  0  0  0
  -26.0300  -38.3570   23.9150 H   0  0  0  0  0  0  0  0  0  0  0  0
  -30.9370  -22.7300   19.9790 C   0  0  0  0  0  2  0  0  0  0  0  0
  -32.9870  -23.5270   18.7400 C   0  0  0  0  0  1  0  0  0  0  0  0
  -32.6260  -21.0880   18.9530 C   0  0  0  0  0  1  0  0  0  0  0  0
  -31.1790  -22.4340   17.4140 C   0  0  0  0  0  1  0  0  0  0  0  0
  -31.8990  -22.4330   18.7770 C   0  0  1  0  0  0  0  0  0  0  0  0
  1 91  1  0
  1 17  2  0
  1 48  1  0
  2 16  1  0
  3  8  1  0
  4  5  1  0
  4  3  1  0
  6  5  1  0
  6 23  1  0
  6  7  1  0
  8  2  1  0
  8  7  1  0
  9  2  2  0
 10 11  2  0
 12 10  1  0
 13 14  2  0
 14 11  1  0
 15 13  1  0
 15 12  2  0
 16 12  1  0
 17 13  1  0
 18 16  1  0
 19 17  1  0
 20 21  2  0
 21 40  1  0
 22 21  1  0
 22 25  1  0
 23 24  1  0
 23 20  1  0
 24 22  2  0
 25 26  1  0
 26 27  2  0
 28 31  1  0
 28 27  1  0
 29 28  2  0
 30 29  1  0
 30 25  2  0
 31 32  1  0
 32 33  1  0
 33 34  2  0
 35 34  1  0
 35 39  1  0
 36 35  2  0
 37 32  2  0
 37 36  1  0
 38 37  1  0
 40 41  1  0
 41 44  1  0
 41 43  1  0
 42 40  2  0
 45 20  1  0
 45 46  1  0
 47 45  1  0
 49 50  1  0
 49 48  1  0
 51 62  2  0
 52 50  1  0
 52 57  1  0
 53 61  1  0
 53 63  1  0
 54 60  1  0
 54 56  1  0
 55 61  1  0
 56 57  2  0
 56 55  1  0
 58 52  2  0
 59 58  1  0
 59 54  2  0
 60 53  1  0
 61 51  1  0
 63 65  2  0
 64 63  1  0
 66 64  1  0
 67 76  2  0
 67 72  1  0
 68 64  1  0
 68 72  1  0
 69 68  1  0
 70 71  1  0
 70 69  1  0
 71 67  1  0
 72 73  2  0
 73 74  1  0
 75 74  2  0
 76 75  1  0
 77 51  1  0
 77 82  1  0
 77 78  1  0
 78 81  1  1
 78 79  1  0
 80 78  1  0
 82 85  1  0
 83 87  1  0
 83 82  1  0
 84 83  2  0
 87 86  1  0
 89 87  1  0
 89 90  1  0
 89 88  1  0
 95 92  1  6
 94 95  1  0
 95 93  1  0
 95 91  1  0
M  ISO  4   2 100  16 100  49 101  50 101
M  END
>  <TORSDO>  (84) 
F 20

>  <SCORE>  (84) 
-14.098

>  <name>  (84) 
83

>  <ligand_id>  (84) 
83

>  <original_smiles>  (84) 
[H]c1nc(N([H])C([H])(C([H])([H])C([H])([H])Oc2c([H])c([H])c3c(c2[H])C([H])([H])N(C(=O)C([H])(N([H])C(=O)C([H])(N([H])C([H])([H])[H])C([H])([H])[H])C(C([H])([H])[H])(C([H])([H])[H])C([H])([H])[H])C([H])(C(=O)N([H])C2([H])c4c([H])c([H])c([H])c([H])c4C([H])([H])C([H])([H])C2([H])[H])C3([H])[H])C([H])([H])C(C([H])([H])[H])(C([H])([H])[H])C([H])([H])[H])nc(N([H])C(=O)N2C([H])([H])C([H])([H])C([H])([H])C([H])(n3nc(-c4c([H])c([H])c(Oc5c([H])c([H])c(F)c([H])c5F)c([H])c4[H])c(C(=O)N([H])[H])c3N([H])[H])C2([H])[H])c1[H]

>  <smiles>  (84) 
[H]c1nc(N([H])C([H])(C([H])([H])C([H])([H])Oc2c([H])c([H])c3c(c2[H])C([H])([H])N(C(=O)C([H])(N([H])C(=O)C([H])(N([H])C([H])([H])[H])C([H])([H])[H])C(C([H])([H])[H])(C([H])([H])[H])C([H])([H])[H])C([H])(C(=O)N([H])C2([H])c4c([H])c([H])c([H])c([H])c4C([H])([H])C([H])([H])C2([H])[H])C3([H])[H])C([H])([H])C(C([H])([H])[H])(C([H])([H])[H])C([H])([H])[H])nc(N([H])C(=O)N2C([H])([H])C([H])([H])C([H])([H])C([H])(n3nc(-c4c([H])c([H])c(Oc5c([H])c([H])c(F)c([H])c5F)c([H])c4[H])c(C(=O)N([H])[H])c3N([H])[H])C2([H])[H])c1[H]

$$$$
84:0:0
     RDKit          3D

 89 97  0  0  1  0  0  0  0  0999 V2000
  -30.4180  -19.3340   19.4060 C   0  0  0  0  0  3  0  0  0  0  0  0
  -29.9500  -18.6070   20.4870 C   0  0  0  0  0  0  0  0  0  0  0  0
  -29.2610  -21.1050   20.3670 C   0  0  0  0  0  0  0  0  0  0  0  0
  -30.0540  -20.7110   19.3640 N   0  0  0  0  0  0  0  0  0  0  0  0
  -28.7880  -22.4440   20.5950 N   0  0  0  0  0  0  0  0  0  0  0  0
  -28.9080  -19.7000   21.4350 S   0  0  0  0  0  0  0  0  0  0  0  0
  -28.0970  -22.4340   21.3400 H   0  0  0  0  0  0  0  0  0  0  0  0
  -30.4640  -17.2160   21.0090 C   0  0  0  0  0  2  0  0  0  0  0  0
  -30.6230  -14.7280   20.2920 C   0  0  0  0  0  0  0  0  0  0  0  0
  -30.3670  -12.4830   19.2350 C   0  0  0  0  0  2  0  0  0  0  0  0
  -29.4200  -12.5780   18.0210 C   0  0  0  0  0  2  0  0  0  0  0  0
  -27.9530  -12.4190   18.4630 C   0  0  0  0  0  2  0  0  0  0  0  0
  -27.5960  -13.3030   19.6870 C   0  0  0  0  0  3  0  0  0  0  0  0
  -28.6620  -13.1960   20.7990 C   0  0  0  0  0  2  0  0  0  0  0  0
  -29.9570  -13.5320   20.1940 N   0  0  0  0  0  0  0  0  0  0  0  0
  -31.8080  -14.8070   19.9610 O   0  0  0  0  0  0  0  0  0  0  0  0
  -29.9050  -15.8670   20.5980 N   0  0  0  0  0  0  0  0  0  0  0  0
  -28.9180  -15.7300   20.7570 H   0  0  0  0  0  0  0  0  0  0  0  0
  -25.2150  -13.9060   20.4300 C   0  0  0  0  0  0  0  0  0  0  0  0
  -24.1470  -13.1360   20.8020 C   0  0  0  0  0  0  0  0  0  0  0  0
  -24.6030  -11.7830   20.7650 C   0  0  0  0  0  0  0  0  0  0  0  0
  -26.2530  -13.0220   20.1850 N   0  0  0  0  0  0  0  0  0  0  0  0
  -25.8920  -11.7400   20.4500 N   0  0  0  0  0  0  0  0  0  0  0  0
  -23.8710  -10.5240   20.9530 C   0  0  0  0  0  0  0  0  0  0  0  0
  -24.2970   -9.5530   21.8870 C   0  0  0  0  0  3  0  0  0  0  0  0
  -23.5650   -8.3590   22.0620 C   0  0  0  0  0  3  0  0  0  0  0  0
  -22.3930   -8.1270   21.3040 C   0  0  0  0  0  0  0  0  0  0  0  0
  -21.9850   -9.0870   20.3610 C   0  0  0  0  0  3  0  0  0  0  0  0
  -22.7180  -10.2720   20.1830 C   0  0  0  0  0  3  0  0  0  0  0  0
  -21.6320   -6.9860   21.3910 O   0  0  0  0  0  0  0  0  0  0  0  0
  -21.5680   -6.2490   22.5460 C   0  0  0  0  0  0  0  0  0  0  0  0
  -21.1120   -6.8040   23.7600 C   0  0  0  0  0  3  0  0  0  0  0  0
  -20.9970   -5.9930   24.9070 C   0  0  0  0  0  3  0  0  0  0  0  0
  -21.3290   -4.6270   24.8400 C   0  0  0  0  0  0  0  0  0  0  0  0
  -21.7780   -4.0700   23.6290 C   0  0  0  0  0  3  0  0  0  0  0  0
  -21.8950   -4.8780   22.4850 C   0  0  0  0  0  0  0  0  0  0  0  0
  -22.3080   -4.3330   21.3160 F   0  0  0  0  0  0  0  0  0  0  0  0
  -21.2110   -3.8440   25.9380 F   0  0  0  0  0  0  0  0  0  0  0  0
  -22.7540  -13.6200   21.0810 C   0  0  0  0  0  0  0  0  0  0  0  0
  -22.0240  -12.9230   21.9460 N   0  0  0  0  0  0  0  0  0  0  0  0
  -22.3200  -14.6500   20.5670 O   0  0  0  0  0  0  0  0  0  0  0  0
  -22.3880  -12.0890   22.3820 H   0  0  0  0  0  0  0  0  0  0  0  0
  -21.0890  -13.2290   22.1750 H   0  0  0  0  0  0  0  0  0  0  0  0
  -25.3850  -15.2770   20.2550 N   0  0  0  0  0  0  0  0  0  0  0  0
  -24.6190  -15.9320   20.3650 H   0  0  0  0  0  0  0  0  0  0  0  0
  -26.2270  -15.7110   19.8980 H   0  0  0  0  0  0  0  0  0  0  0  0
  -29.1920  -23.8650   20.2810 C   0  0  0  0  0  3  0  0  0  0  0  0
  -28.0330  -24.9680   20.1470 C   0  0  0  0  0  3  0  0  0  0  0  0
  -28.3120  -26.4400   20.1760 O   0  0  0  0  0  0  0  0  0  0  0  0
  -24.6250  -31.8760   23.2590 C   0  0  0  0  0  0  0  0  0  0  0  0
  -27.2090  -27.3230   20.1430 C   0  0  0  0  0  0  0  0  0  0  0  0
  -23.4150  -30.5010   21.6070 C   0  0  0  0  0  3  0  0  0  0  0  0
  -24.8560  -28.9680   20.1570 C   0  0  0  0  0  0  0  0  0  0  0  0
  -25.9580  -30.8080   21.4230 C   0  0  0  0  0  2  0  0  0  0  0  0
  -26.0320  -29.4370   20.7570 C   0  0  0  0  0  0  0  0  0  0  0  0
  -27.2120  -28.6290   20.7350 C   0  0  0  0  0  3  0  0  0  0  0  0
  -26.0050  -26.9210   19.5170 C   0  0  0  0  0  3  0  0  0  0  0  0
  -24.8470  -27.7160   19.5280 C   0  0  0  0  0  3  0  0  0  0  0  0
  -23.6240  -29.8470   20.2190 C   0  0  0  0  0  2  0  0  0  0  0  0
  -24.6860  -31.0790   22.1530 N   0  0  0  0  0  0  0  0  0  0  0  0
  -23.5440  -32.1500   23.7990 O   0  0  0  0  0  0  0  0  0  0  0  0
  -22.7510  -29.4740   22.5560 C   0  0  0  0  0  0  0  0  0  0  0  0
  -21.4250  -29.2940   22.4230 N   0  0  0  0  0  0  0  0  0  0  0  0
  -23.4290  -28.8420   23.3710 O   0  0  0  0  0  0  0  0  0  0  0  0
  -20.9370  -29.8560   21.7390 H   0  0  0  0  0  0  0  0  0  0  0  0
  -18.0490  -28.0850   22.9030 C   0  0  0  0  0  0  0  0  0  0  0  0
  -20.6060  -28.3490   23.1840 C   0  0  0  0  0  3  0  0  0  0  0  0
  -20.7130  -26.9220   22.5990 C   0  0  0  0  0  2  0  0  0  0  0  0
  -19.6170  -26.6040   21.5780 C   0  0  0  0  0  2  0  0  0  0  0  0
  -18.2310  -26.7400   22.2180 C   0  0  0  0  0  2  0  0  0  0  0  0
  -19.1640  -28.8470   23.3420 C   0  0  0  0  0  0  0  0  0  0  0  0
  -18.9400  -30.1040   23.9420 C   0  0  0  0  0  3  0  0  0  0  0  0
  -17.6330  -30.6010   24.1080 C   0  0  0  0  0  3  0  0  0  0  0  0
  -16.5320  -29.8360   23.6840 C   0  0  0  0  0  3  0  0  0  0  0  0
  -16.7410  -28.5800   23.0870 C   0  0  0  0  0  3  0  0  0  0  0  0
  -25.9110  -32.4990   23.8860 C   0  0  0  0  0  3  0  0  0  0  0  0
  -26.4160  -31.7240   25.1650 C   0  0  1  0  0  0  0  0  0  0  0  0
  -25.3160  -31.4960   26.2280 C   0  0  0  0  0  1  0  0  0  0  0  0
  -26.9900  -30.3410   24.7770 C   0  0  0  0  0  1  0  0  0  0  0  0
  -27.5680  -32.5100   25.8320 C   0  0  0  0  0  1  0  0  0  0  0  0
  -25.6100  -33.8990   24.2160 N   0  0  0  0  0  0  0  0  0  0  0  0
  -25.9340  -34.9480   23.4500 C   0  0  0  0  0  0  0  0  0  0  0  0
  -26.5860  -34.8410   22.4070 O   0  0  0  0  0  0  0  0  0  0  0  0
  -25.0290  -34.0580   25.0260 H   0  0  0  0  0  0  0  0  0  0  0  0
  -24.2000  -36.7430   23.1270 C   0  0  0  0  0  1  0  0  0  0  0  0
  -25.4590  -36.3400   23.9110 C   0  0  0  0  0  3  0  0  0  0  0  0
  -27.6100  -37.2310   24.6930 C   0  0  0  0  0  1  0  0  0  0  0  0
  -26.4900  -37.3910   23.7690 N   0  0  0  0  0  0  0  0  0  0  0  0
  -26.0870  -38.3140   23.9160 H   0  0  0  0  0  0  0  0  0  0  0  0
  1  2  2  0
  2  8  1  0
  2  6  1  0
  3  5  1  0
  3  6  1  0
  4  1  1  0
  4  3  2  0
  5  7  1  0
  9 17  1  0
 10 15  1  0
 11 12  1  0
 11 10  1  0
 13 12  1  0
 13 22  1  0
 13 14  1  0
 15  9  1  0
 15 14  1  0
 16  9  2  0
 17 18  1  0
 17  8  1  0
 19 20  2  0
 20 39  1  0
 21 20  1  0
 21 24  1  0
 22 19  1  0
 22 23  1  0
 23 21  2  0
 24 25  1  0
 25 26  2  0
 27 30  1  0
 27 26  1  0
 28 27  2  0
 29 28  1  0
 29 24  2  0
 30 31  1  0
 31 32  1  0
 32 33  2  0
 34 33  1  0
 34 38  1  0
 35 34  2  0
 36 31  2  0
 36 35  1  0
 37 36  1  0
 39 40  1  0
 40 43  1  0
 40 42  1  0
 41 39  2  0
 44 45  1  0
 44 19  1  0
 46 44  1  0
 47  5  1  0
 48 49  1  0
 48 47  2  0
 50 61  2  0
 51 49  1  0
 51 56  1  0
 52 60  1  0
 52 62  1  0
 53 59  1  0
 53 55  1  0
 54 60  1  0
 55 54  1  0
 56 55  2  0
 57 58  1  0
 57 51  2  0
 58 53  2  0
 59 52  1  0
 60 50  1  0
 62 64  2  0
 63 62  1  0
 65 63  1  0
 66 75  2  0
 66 71  1  0
 67 63  1  0
 67 71  1  0
 68 67  1  0
 69 70  1  0
 69 68  1  0
 70 66  1  0
 71 72  2  0
 72 73  1  0
 74 73  2  0
 75 74  1  0
 76 50  1  0
 76 81  1  0
 76 77  1  0
 77 80  1  1
 77 78  1  0
 79 77  1  0
 81 84  1  0
 82 86  1  0
 82 81  1  0
 83 82  2  0
 86 85  1  0
 88 86  1  0
 88 89  1  0
 88 87  1  0
M  ISO  4   9 100  17 100  48 101  49 101
M  END
>  <TORSDO>  (85) 
F 19

>  <SCORE>  (85) 
-13.290

>  <name>  (85) 
84

>  <ligand_id>  (85) 
84

>  <original_smiles>  (85) 
[H]c1nc(N([H])C([H])([H])C([H])([H])Oc2c([H])c([H])c3c(c2[H])C([H])([H])N(C(=O)C([H])(N([H])C(=O)C([H])(N([H])C([H])([H])[H])C([H])([H])[H])C(C([H])([H])[H])(C([H])([H])[H])C([H])([H])[H])C([H])(C(=O)N([H])C2([H])c4c([H])c([H])c([H])c([H])c4C([H])([H])C([H])([H])C2([H])[H])C3([H])[H])sc1C([H])([H])N([H])C(=O)N1C([H])([H])C([H])([H])C([H])([H])C([H])(n2nc(-c3c([H])c([H])c(Oc4c([H])c([H])c(F)c([H])c4F)c([H])c3[H])c(C(=O)N([H])[H])c2N([H])[H])C1([H])[H]

>  <smiles>  (85) 
[H]c1nc(N([H])C([H])([H])C([H])([H])Oc2c([H])c([H])c3c(c2[H])C([H])([H])N(C(=O)C([H])(N([H])C(=O)C([H])(N([H])C([H])([H])[H])C([H])([H])[H])C(C([H])([H])[H])(C([H])([H])[H])C([H])([H])[H])C([H])(C(=O)N([H])C2([H])c4c([H])c([H])c([H])c([H])c4C([H])([H])C([H])([H])C2([H])[H])C3([H])[H])sc1C([H])([H])N([H])C(=O)N1C([H])([H])C([H])([H])C([H])([H])C([H])(n2nc(-c3c([H])c([H])c(Oc4c([H])c([H])c(F)c([H])c4F)c([H])c3[H])c(C(=O)N([H])[H])c2N([H])[H])C1([H])[H]

$$$$
85:0:0
     RDKit          3D

 95103  0  0  1  0  0  0  0  0999 V2000
  -29.7350  -22.5820   19.9210 C   0  0  0  0  0  3  0  0  0  0  0  0
  -29.5230  -17.8760   21.6540 C   0  0  0  0  0  3  0  0  0  0  0  0
  -30.3450  -19.3040   19.5430 C   0  0  0  0  0  3  0  0  0  0  0  0
  -30.0790  -17.1700   20.5470 C   0  0  0  0  0  0  0  0  0  0  0  0
  -29.7980  -20.0010   20.6720 C   0  0  0  0  0  0  0  0  0  0  0  0
  -30.4940  -17.9330   19.4880 N   0  0  0  0  0  0  0  0  0  0  0  0
  -29.3980  -19.2380   21.7230 N   0  0  0  0  0  0  0  0  0  0  0  0
  -29.6330  -21.4220   20.8780 N   0  0  0  0  0  0  0  0  0  0  0  0
  -29.2520  -21.6590   21.7870 H   0  0  0  0  0  0  0  0  0  0  0  0
  -30.7770  -14.7020   20.0310 C   0  0  0  0  0  0  0  0  0  0  0  0
  -30.5150  -12.4820   18.9210 C   0  0  0  0  0  2  0  0  0  0  0  0
  -29.4930  -12.6270   17.7710 C   0  0  0  0  0  2  0  0  0  0  0  0
  -28.0510  -12.4500   18.2870 C   0  0  0  0  0  2  0  0  0  0  0  0
  -27.7710  -13.2800   19.5670 C   0  0  0  0  0  3  0  0  0  0  0  0
  -28.8980  -13.0980   20.6090 C   0  0  0  0  0  2  0  0  0  0  0  0
  -30.1690  -13.4700   19.9660 N   0  0  0  0  0  0  0  0  0  0  0  0
  -31.8830  -14.8900   19.5120 O   0  0  0  0  0  0  0  0  0  0  0  0
  -30.0520  -15.7050   20.6220 N   0  0  0  0  0  0  0  0  0  0  0  0
  -29.2810  -15.3450   21.1620 H   0  0  0  0  0  0  0  0  0  0  0  0
  -25.4310  -13.8560   20.4610 C   0  0  0  0  0  0  0  0  0  0  0  0
  -24.3880  -13.0730   20.8720 C   0  0  0  0  0  0  0  0  0  0  0  0
  -24.8410  -11.7220   20.7630 C   0  0  0  0  0  0  0  0  0  0  0  0
  -26.4540  -12.9830   20.1260 N   0  0  0  0  0  0  0  0  0  0  0  0
  -26.1080  -11.6920   20.3670 N   0  0  0  0  0  0  0  0  0  0  0  0
  -24.1230  -10.4550   20.9550 C   0  0  0  0  0  0  0  0  0  0  0  0
  -24.5480   -9.5020   21.9050 C   0  0  0  0  0  3  0  0  0  0  0  0
  -23.8300   -8.2990   22.0850 C   0  0  0  0  0  3  0  0  0  0  0  0
  -22.6720   -8.0430   21.3130 C   0  0  0  0  0  0  0  0  0  0  0  0
  -22.2640   -8.9850   20.3520 C   0  0  0  0  0  3  0  0  0  0  0  0
  -22.9840  -10.1790   20.1710 C   0  0  0  0  0  3  0  0  0  0  0  0
  -21.9260   -6.8920   21.4000 O   0  0  0  0  0  0  0  0  0  0  0  0
  -21.7840   -6.2150   22.5860 C   0  0  0  0  0  0  0  0  0  0  0  0
  -21.2260   -6.8270   23.7300 C   0  0  0  0  0  3  0  0  0  0  0  0
  -21.0330   -6.0750   24.9070 C   0  0  0  0  0  3  0  0  0  0  0  0
  -21.3870   -4.7140   24.9380 C   0  0  0  0  0  0  0  0  0  0  0  0
  -21.9390   -4.1020   23.7980 C   0  0  0  0  0  3  0  0  0  0  0  0
  -22.1330   -4.8510   22.6240 C   0  0  0  0  0  0  0  0  0  0  0  0
  -22.6440   -4.2520   21.5220 F   0  0  0  0  0  0  0  0  0  0  0  0
  -21.1950   -3.9890   26.0650 F   0  0  0  0  0  0  0  0  0  0  0  0
  -23.0140  -13.5430   21.2540 C   0  0  0  0  0  0  0  0  0  0  0  0
  -22.3430  -12.8190   22.1430 N   0  0  0  0  0  0  0  0  0  0  0  0
  -22.5460  -14.5870   20.8000 O   0  0  0  0  0  0  0  0  0  0  0  0
  -22.7350  -11.9740   22.5320 H   0  0  0  0  0  0  0  0  0  0  0  0
  -21.4250  -13.1150   22.4410 H   0  0  0  0  0  0  0  0  0  0  0  0
  -25.5910  -15.2320   20.3220 N   0  0  0  0  0  0  0  0  0  0  0  0
  -24.8330  -15.8820   20.4990 H   0  0  0  0  0  0  0  0  0  0  0  0
  -26.4050  -15.6740   19.9170 H   0  0  0  0  0  0  0  0  0  0  0  0
  -31.0510  -22.5270   19.1200 C   0  0  0  0  0  0  0  0  0  0  0  0
  -31.0710  -22.3560   17.9000 O   0  0  0  0  0  0  0  0  0  0  0  0
  -33.5690  -22.0340   19.2070 C   0  0  0  0  0  1  0  0  0  0  0  0
  -32.3580  -22.6740   19.9070 C   0  0  0  0  0  2  0  0  0  0  0  0
  -29.6020  -24.0900   20.5260 C   0  0  0  0  0  2  0  0  0  0  0  0
  -27.1210  -24.1350   19.9150 C   0  0  0  0  0  1  0  0  0  0  0  0
  -28.2620  -24.9700   20.5310 C   0  0  0  0  0  3  0  0  0  0  0  0
  -28.4040  -26.4130   20.1040 O   0  0  0  0  0  0  0  0  0  0  0  0
  -24.6460  -31.8270   23.1620 C   0  0  0  0  0  0  0  0  0  0  0  0
  -27.2940  -27.2870   20.0870 C   0  0  0  0  0  0  0  0  0  0  0  0
  -23.4590  -30.4290   21.5130 C   0  0  0  0  0  3  0  0  0  0  0  0
  -24.9270  -28.9080   20.0760 C   0  0  0  0  0  0  0  0  0  0  0  0
  -25.9990  -30.7610   21.3450 C   0  0  0  0  0  2  0  0  0  0  0  0
  -26.0910  -29.3850   20.6940 C   0  0  0  0  0  0  0  0  0  0  0  0
  -27.2750  -28.5820   20.7010 C   0  0  0  0  0  3  0  0  0  0  0  0
  -26.1290  -26.9180   19.3810 C   0  0  0  0  0  3  0  0  0  0  0  0
  -24.9480  -27.6790   19.4110 C   0  0  0  0  0  3  0  0  0  0  0  0
  -23.6840  -29.7720   20.1270 C   0  0  0  0  0  2  0  0  0  0  0  0
  -24.7200  -31.0240   22.0620 N   0  0  0  0  0  0  0  0  0  0  0  0
  -23.5590  -32.0920   23.6950 O   0  0  0  0  0  0  0  0  0  0  0  0
  -22.8070  -29.3950   22.4620 C   0  0  0  0  0  0  0  0  0  0  0  0
  -21.4790  -29.2200   22.3450 N   0  0  0  0  0  0  0  0  0  0  0  0
  -23.4920  -28.7570   23.2650 O   0  0  0  0  0  0  0  0  0  0  0  0
  -20.9840  -29.7850   21.6700 H   0  0  0  0  0  0  0  0  0  0  0  0
  -18.1030  -28.0340   22.8810 C   0  0  0  0  0  0  0  0  0  0  0  0
  -20.6670  -28.2730   23.1120 C   0  0  0  0  0  3  0  0  0  0  0  0
  -20.7500  -26.8520   22.5080 C   0  0  0  0  0  2  0  0  0  0  0  0
  -19.6280  -26.5560   21.5060 C   0  0  0  0  0  2  0  0  0  0  0  0
  -18.2580  -26.6970   22.1770 C   0  0  0  0  0  2  0  0  0  0  0  0
  -19.2330  -28.7810   23.3060 C   0  0  0  0  0  0  0  0  0  0  0  0
  -19.0320  -30.0330   23.9260 C   0  0  0  0  0  3  0  0  0  0  0  0
  -17.7340  -30.5390   24.1240 C   0  0  0  0  0  3  0  0  0  0  0  0
  -16.6180  -29.7890   23.7140 C   0  0  0  0  0  3  0  0  0  0  0  0
  -16.8030  -28.5390   23.1000 C   0  0  0  0  0  3  0  0  0  0  0  0
  -25.9220  -32.4680   23.7890 C   0  0  0  0  0  3  0  0  0  0  0  0
  -25.5950  -33.8580   24.1360 N   0  0  0  0  0  0  0  0  0  0  0  0
  -25.9050  -34.9240   23.3860 C   0  0  0  0  0  0  0  0  0  0  0  0
  -26.5690  -34.8430   22.3480 O   0  0  0  0  0  0  0  0  0  0  0  0
  -25.0040  -33.9960   24.9430 H   0  0  0  0  0  0  0  0  0  0  0  0
  -24.1520  -36.6990   23.0620 C   0  0  0  0  0  1  0  0  0  0  0  0
  -25.4010  -36.3010   23.8630 C   0  0  0  0  0  3  0  0  0  0  0  0
  -27.5250  -37.2060   24.7010 C   0  0  0  0  0  1  0  0  0  0  0  0
  -26.4200  -37.3690   23.7600 N   0  0  0  0  0  0  0  0  0  0  0  0
  -26.0030  -38.2810   23.9160 H   0  0  0  0  0  0  0  0  0  0  0  0
  -26.4510  -31.6890   25.0550 C   0  0  1  0  0  0  0  0  0  0  0  0
  -25.3610  -31.4230   26.1200 C   0  0  0  0  0  1  0  0  0  0  0  0
  -27.0530  -30.3230   24.6480 C   0  0  0  0  0  1  0  0  0  0  0  0
  -27.5900  -32.4920   25.7250 C   0  0  0  0  0  1  0  0  0  0  0  0
  1 52  1  0
  1  8  1  0
  2  7  1  0
  3  5  1  0
  4 18  1  0
  4  2  2  0
  5  8  1  0
  5  7  2  0
  6  3  2  0
  6  4  1  0
  8  9  1  0
 10 18  1  0
 11 16  1  0
 12 13  1  0
 12 11  1  0
 14 13  1  0
 14 23  1  0
 14 15  1  0
 16 10  1  0
 16 15  1  0
 17 10  2  0
 18 19  1  0
 20 21  2  0
 21 40  1  0
 22 21  1  0
 22 25  1  0
 23 24  1  0
 23 20  1  0
 24 22  2  0
 25 26  1  0
 26 27  2  0
 28 31  1  0
 28 27  1  0
 29 28  2  0
 30 29  1  0
 30 25  2  0
 31 32  1  0
 32 37  2  0
 32 33  1  0
 33 34  2  0
 34 35  1  0
 35 39  1  0
 36 35  2  0
 37 36  1  0
 38 37  1  0
 40 41  1  0
 41 44  1  0
 41 43  1  0
 42 40  2  0
 45 20  1  0
 45 46  1  0
 47 45  1  0
 48 51  1  0
 48  1  1  0
 49 48  2  0
 50 51  1  0
 52 54  1  0
 54 53  1  0
 55 54  1  0
 56 67  2  0
 57 55  1  0
 57 62  1  0
 58 66  1  0
 58 68  1  0
 59 65  1  0
 59 61  1  0
 60 66  1  0
 61 62  2  0
 61 60  1  0
 63 64  1  0
 63 57  2  0
 64 59  2  0
 65 58  1  0
 66 56  1  0
 68 70  2  0
 69 68  1  0
 71 69  1  0
 72 81  2  0
 72 77  1  0
 73 69  1  0
 73 77  1  0
 74 73  1  0
 75 76  1  0
 75 74  1  0
 76 72  1  0
 77 78  2  0
 78 79  1  0
 80 79  2  0
 81 80  1  0
 82 56  1  0
 82 83  1  0
 82 92  1  0
 83 86  1  0
 84 88  1  0
 84 83  1  0
 85 84  2  0
 88 87  1  0
 90 88  1  0
 90 91  1  0
 90 89  1  0
 92 95  1  1
 92 93  1  0
 94 92  1  0
M  ISO  4  10 100  18 100  54 101  55 101
M  END
>  <TORSDO>  (86) 
F 21

>  <SCORE>  (86) 
-12.369

>  <name>  (86) 
85

>  <ligand_id>  (86) 
85

>  <original_smiles>  (86) 
[H]c1nc(N([H])C([H])(C(=O)C([H])([H])C([H])([H])[H])C([H])([H])C([H])(Oc2c([H])c([H])c3c(c2[H])C([H])([H])N(C(=O)C([H])(N([H])C(=O)C([H])(N([H])C([H])([H])[H])C([H])([H])[H])C(C([H])([H])[H])(C([H])([H])[H])C([H])([H])[H])C([H])(C(=O)N([H])C2([H])c4c([H])c([H])c([H])c([H])c4C([H])([H])C([H])([H])C2([H])[H])C3([H])[H])C([H])([H])[H])c([H])nc1N([H])C(=O)N1C([H])([H])C([H])([H])C([H])([H])C([H])(n2nc(-c3c([H])c([H])c(Oc4c([H])c([H])c(F)c([H])c4F)c([H])c3[H])c(C(=O)N([H])[H])c2N([H])[H])C1([H])[H]

>  <smiles>  (86) 
[H]c1nc(N([H])C([H])(C(=O)C([H])([H])C([H])([H])[H])C([H])([H])C([H])(Oc2c([H])c([H])c3c(c2[H])C([H])([H])N(C(=O)C([H])(N([H])C(=O)C([H])(N([H])C([H])([H])[H])C([H])([H])[H])C(C([H])([H])[H])(C([H])([H])[H])C([H])([H])[H])C([H])(C(=O)N([H])C2([H])c4c([H])c([H])c([H])c([H])c4C([H])([H])C([H])([H])C2([H])[H])C3([H])[H])C([H])([H])[H])c([H])nc1N([H])C(=O)N1C([H])([H])C([H])([H])C([H])([H])C([H])(n2nc(-c3c([H])c([H])c(Oc4c([H])c([H])c(F)c([H])c4F)c([H])c3[H])c(C(=O)N([H])[H])c2N([H])[H])C1([H])[H]

$$$$
86:0:0
     RDKit          3D

 90 98  0  0  1  0  0  0  0  0999 V2000
  -29.5760  -22.0140   20.0640 C   0  0  0  0  0  2  0  0  0  0  0  0
  -29.5950  -23.5560   20.2170 C   0  0  0  0  0  2  0  0  0  0  0  0
  -28.4230  -24.2740   19.5060 C   0  0  0  0  0  2  0  0  0  0  0  0
  -28.7010  -25.7470   19.1100 C   0  0  0  0  0  2  0  0  0  0  0  0
  -28.4800  -26.7080   20.1500 O   0  0  0  0  0  0  0  0  0  0  0  0
  -24.6790  -31.8020   23.3650 C   0  0  0  0  0  0  0  0  0  0  0  0
  -27.2970  -27.4230   20.1600 C   0  0  0  0  0  0  0  0  0  0  0  0
  -23.4720  -30.4750   21.6640 C   0  0  0  0  0  3  0  0  0  0  0  0
  -24.9170  -28.9600   20.2070 C   0  0  0  0  0  0  0  0  0  0  0  0
  -26.0040  -30.7960   21.5110 C   0  0  0  0  0  2  0  0  0  0  0  0
  -26.0740  -29.4430   20.8290 C   0  0  0  0  0  0  0  0  0  0  0  0
  -27.2620  -28.6770   20.8110 C   0  0  0  0  0  3  0  0  0  0  0  0
  -26.1120  -26.9470   19.5490 C   0  0  0  0  0  3  0  0  0  0  0  0
  -24.9300  -27.7080   19.5710 C   0  0  0  0  0  3  0  0  0  0  0  0
  -23.6870  -29.8370   20.2650 C   0  0  0  0  0  2  0  0  0  0  0  0
  -24.7360  -31.0380   22.2380 N   0  0  0  0  0  0  0  0  0  0  0  0
  -23.5950  -32.0750   23.9000 O   0  0  0  0  0  0  0  0  0  0  0  0
  -22.7930  -29.4330   22.5820 C   0  0  0  0  0  0  0  0  0  0  0  0
  -21.4700  -29.2660   22.4220 N   0  0  0  0  0  0  0  0  0  0  0  0
  -23.4540  -28.7790   23.3920 O   0  0  0  0  0  0  0  0  0  0  0  0
  -20.9990  -29.8460   21.7420 H   0  0  0  0  0  0  0  0  0  0  0  0
  -18.0750  -28.0950   22.8170 C   0  0  0  0  0  0  0  0  0  0  0  0
  -20.6290  -28.3140   23.1460 C   0  0  0  0  0  3  0  0  0  0  0  0
  -20.7270  -26.9000   22.5280 C   0  0  0  0  0  2  0  0  0  0  0  0
  -19.6420  -26.6210   21.4830 C   0  0  0  0  0  2  0  0  0  0  0  0
  -18.2500  -26.7640   22.1040 C   0  0  0  0  0  2  0  0  0  0  0  0
  -19.1940  -28.8300   23.2910 C   0  0  0  0  0  0  0  0  0  0  0  0
  -18.9790  -30.0790   23.9150 C   0  0  0  0  0  3  0  0  0  0  0  0
  -17.6780  -30.5910   24.0690 C   0  0  0  0  0  3  0  0  0  0  0  0
  -16.5730  -29.8520   23.6120 C   0  0  0  0  0  3  0  0  0  0  0  0
  -16.7720  -28.6060   22.9910 C   0  0  0  0  0  3  0  0  0  0  0  0
  -25.9680  -32.3910   24.0200 C   0  0  0  0  0  3  0  0  0  0  0  0
  -25.6880  -33.7910   24.3670 N   0  0  0  0  0  0  0  0  0  0  0  0
  -26.0710  -34.8460   23.6350 C   0  0  0  0  0  0  0  0  0  0  0  0
  -26.7670  -34.7420   22.6230 O   0  0  0  0  0  0  0  0  0  0  0  0
  -25.0780  -33.9490   25.1560 H   0  0  0  0  0  0  0  0  0  0  0  0
  -24.4150  -36.6970   23.2470 C   0  0  0  0  0  1  0  0  0  0  0  0
  -25.6060  -36.2390   24.1030 C   0  0  0  0  0  3  0  0  0  0  0  0
  -27.7270  -37.0400   25.0460 C   0  0  0  0  0  1  0  0  0  0  0  0
  -26.6740  -37.2600   24.0570 N   0  0  0  0  0  0  0  0  0  0  0  0
  -26.2900  -38.1900   24.2050 H   0  0  0  0  0  0  0  0  0  0  0  0
  -26.4420  -31.5860   25.2920 C   0  0  1  0  0  0  0  0  0  0  0  0
  -25.3230  -31.3510   26.3330 C   0  0  0  0  0  1  0  0  0  0  0  0
  -27.0040  -30.2050   24.8830 C   0  0  0  0  0  1  0  0  0  0  0  0
  -27.5960  -32.3430   25.9910 C   0  0  0  0  0  1  0  0  0  0  0  0
  -30.8790  -21.3350   20.5580 C   0  0  0  0  0  2  0  0  0  0  0  0
  -31.2240  -19.9670   19.9060 C   0  0  0  0  0  2  0  0  0  0  0  0
  -30.9110  -14.4300   20.1070 C   0  0  0  0  0  0  0  0  0  0  0  0
  -30.5660  -12.3130   18.8780 C   0  0  0  0  0  2  0  0  0  0  0  0
  -29.5430  -12.5470   17.7470 C   0  0  0  0  0  2  0  0  0  0  0  0
  -28.0990  -12.3880   18.2620 C   0  0  0  0  0  2  0  0  0  0  0  0
  -27.8410  -13.1830   19.5690 C   0  0  0  0  0  3  0  0  0  0  0  0
  -28.9600  -12.9060   20.5980 C   0  0  0  0  0  2  0  0  0  0  0  0
  -30.2540  -13.2440   19.9740 N   0  0  0  0  0  0  0  0  0  0  0  0
  -31.9590  -14.6840   19.5030 O   0  0  0  0  0  0  0  0  0  0  0  0
  -29.4550  -17.5180   21.6960 C   0  0  0  0  0  3  0  0  0  0  0  0
  -30.3240  -16.7330   20.8980 C   0  0  0  0  0  0  0  0  0  0  0  0
  -29.6520  -18.7900   21.4460 N   0  0  0  0  0  0  0  0  0  0  0  0
  -31.0670  -17.5210   20.1550 N   0  0  0  0  0  0  0  0  0  0  0  0
  -30.6430  -18.7700   20.5120 N   0  0  0  0  0  0  0  0  0  0  0  0
  -30.2970  -15.3110   20.9190 N   0  0  0  0  0  0  0  0  0  0  0  0
  -29.5470  -14.9080   21.4580 H   0  0  0  0  0  0  0  0  0  0  0  0
  -25.4840  -13.7700   20.4260 C   0  0  0  0  0  0  0  0  0  0  0  0
  -24.4430  -12.9850   20.8450 C   0  0  0  0  0  0  0  0  0  0  0  0
  -24.9070  -11.6370   20.7610 C   0  0  0  0  0  0  0  0  0  0  0  0
  -26.5180  -12.8970   20.1190 N   0  0  0  0  0  0  0  0  0  0  0  0
  -26.1750  -11.6080   20.3740 N   0  0  0  0  0  0  0  0  0  0  0  0
  -24.1990  -10.3670   20.9720 C   0  0  0  0  0  0  0  0  0  0  0  0
  -24.6360   -9.4300   21.9340 C   0  0  0  0  0  3  0  0  0  0  0  0
  -23.9290   -8.2240   22.1310 C   0  0  0  0  0  3  0  0  0  0  0  0
  -22.7720   -7.9470   21.3650 C   0  0  0  0  0  0  0  0  0  0  0  0
  -22.3550   -8.8730   20.3930 C   0  0  0  0  0  3  0  0  0  0  0  0
  -23.0620  -10.0700   20.1940 C   0  0  0  0  0  3  0  0  0  0  0  0
  -22.0370   -6.7900   21.4690 O   0  0  0  0  0  0  0  0  0  0  0  0
  -21.9100   -6.1230   22.6610 C   0  0  0  0  0  0  0  0  0  0  0  0
  -21.3620   -6.7430   23.8060 C   0  0  0  0  0  3  0  0  0  0  0  0
  -21.1860   -6.0000   24.9900 C   0  0  0  0  0  3  0  0  0  0  0  0
  -21.5450   -4.6390   25.0290 C   0  0  0  0  0  0  0  0  0  0  0  0
  -22.0850   -4.0200   23.8880 C   0  0  0  0  0  3  0  0  0  0  0  0
  -22.2640   -4.7600   22.7070 C   0  0  0  0  0  0  0  0  0  0  0  0
  -22.7640   -4.1540   21.6040 F   0  0  0  0  0  0  0  0  0  0  0  0
  -21.3680   -3.9230   26.1640 F   0  0  0  0  0  0  0  0  0  0  0  0
  -23.0620  -13.4490   21.2120 C   0  0  0  0  0  0  0  0  0  0  0  0
  -22.3990  -12.7400   22.1190 N   0  0  0  0  0  0  0  0  0  0  0  0
  -22.5840  -14.4750   20.7320 O   0  0  0  0  0  0  0  0  0  0  0  0
  -22.8010  -11.9100   22.5290 H   0  0  0  0  0  0  0  0  0  0  0  0
  -21.4760  -13.0330   22.4080 H   0  0  0  0  0  0  0  0  0  0  0  0
  -25.6330  -15.1440   20.2630 N   0  0  0  0  0  0  0  0  0  0  0  0
  -24.8690  -15.7920   20.4210 H   0  0  0  0  0  0  0  0  0  0  0  0
  -26.4570  -15.5900   19.8810 H   0  0  0  0  0  0  0  0  0  0  0  0
  1  2  1  0
  1 46  1  0
  3  2  1  0
  4  3  1  0
  4  5  1  0
  5  7  1  0
  6 17  2  0
  7 12  1  0
  8 16  1  0
  8 18  1  0
  9 15  1  0
  9 11  1  0
 10 16  1  0
 11 10  1  0
 12 11  2  0
 13 14  1  0
 13  7  2  0
 14  9  2  0
 15  8  1  0
 16  6  1  0
 18 20  2  0
 19 18  1  0
 21 19  1  0
 22 31  2  0
 22 27  1  0
 23 19  1  0
 23 27  1  0
 24 23  1  0
 25 26  1  0
 25 24  1  0
 26 22  1  0
 27 28  2  0
 28 29  1  0
 30 29  2  0
 31 30  1  0
 32  6  1  0
 32 33  1  0
 32 42  1  0
 33 36  1  0
 34 38  1  0
 34 33  1  0
 35 34  2  0
 38 37  1  0
 40 38  1  0
 40 41  1  0
 40 39  1  0
 42 45  1  1
 42 43  1  0
 44 42  1  0
 47 60  1  0
 47 46  1  0
 48 61  1  0
 49 54  1  0
 50 51  1  0
 50 49  1  0
 52 51  1  0
 52 66  1  0
 52 53  1  0
 54 48  1  0
 54 53  1  0
 55 48  2  0
 57 61  1  0
 57 56  1  0
 58 56  2  0
 59 60  1  0
 59 57  2  0
 60 58  1  0
 61 62  1  0
 63 64  2  0
 64 83  1  0
 65 64  1  0
 65 68  1  0
 66 67  1  0
 66 63  1  0
 67 65  2  0
 68 69  1  0
 69 70  2  0
 71 74  1  0
 71 70  1  0
 72 71  2  0
 73 72  1  0
 73 68  2  0
 74 75  1  0
 75 80  2  0
 75 76  1  0
 76 77  2  0
 77 78  1  0
 78 82  1  0
 79 78  2  0
 80 79  1  0
 81 80  1  0
 83 84  1  0
 84 87  1  0
 84 86  1  0
 85 83  2  0
 88 89  1  0
 88 63  1  0
 90 88  1  0
M  ISO  4   4 101   5 101  48 100  61 100
M  END
>  <TORSDO>  (87) 
F 21

>  <SCORE>  (87) 
-12.328

>  <name>  (87) 
86

>  <ligand_id>  (87) 
86

>  <original_smiles>  (87) 
[H]c1nn(C([H])([H])C([H])([H])C([H])([H])C([H])([H])C([H])([H])C([H])([H])Oc2c([H])c([H])c3c(c2[H])C([H])([H])N(C(=O)C([H])(N([H])C(=O)C([H])(N([H])C([H])([H])[H])C([H])([H])[H])C(C([H])([H])[H])(C([H])([H])[H])C([H])([H])[H])C([H])(C(=O)N([H])C2([H])c4c([H])c([H])c([H])c([H])c4C([H])([H])C([H])([H])C2([H])[H])C3([H])[H])nc1N([H])C(=O)N1C([H])([H])C([H])([H])C([H])([H])C([H])(n2nc(-c3c([H])c([H])c(Oc4c([H])c([H])c(F)c([H])c4F)c([H])c3[H])c(C(=O)N([H])[H])c2N([H])[H])C1([H])[H]

>  <smiles>  (87) 
[H]c1nn(C([H])([H])C([H])([H])C([H])([H])C([H])([H])C([H])([H])C([H])([H])Oc2c([H])c([H])c3c(c2[H])C([H])([H])N(C(=O)C([H])(N([H])C(=O)C([H])(N([H])C([H])([H])[H])C([H])([H])[H])C(C([H])([H])[H])(C([H])([H])[H])C([H])([H])[H])C([H])(C(=O)N([H])C2([H])c4c([H])c([H])c([H])c([H])c4C([H])([H])C([H])([H])C2([H])[H])C3([H])[H])nc1N([H])C(=O)N1C([H])([H])C([H])([H])C([H])([H])C([H])(n2nc(-c3c([H])c([H])c(Oc4c([H])c([H])c(F)c([H])c4F)c([H])c3[H])c(C(=O)N([H])[H])c2N([H])[H])C1([H])[H]

$$$$
87:0:0
     RDKit          3D

 91 99  0  0  1  0  0  0  0  0999 V2000
  -30.7120  -22.1720   22.3530 C   0  0  0  0  0  1  0  0  0  0  0  0
  -30.1550  -21.8570   20.9550 C   0  0  0  0  0  3  0  0  0  0  0  0
  -31.8220  -17.2890   21.0550 C   0  0  0  0  0  3  0  0  0  0  0  0
  -30.4970  -16.9300   20.9390 C   0  0  0  0  0  0  0  0  0  0  0  0
  -30.2940  -19.2120   20.9440 C   0  0  0  0  0  0  0  0  0  0  0  0
  -29.6330  -18.0430   20.9050 N   0  0  0  0  0  0  0  0  0  0  0  0
  -29.6830  -20.4670   20.8930 N   0  0  0  0  0  0  0  0  0  0  0  0
  -32.0390  -19.0200   21.0600 S   0  0  0  0  0  0  0  0  0  0  0  0
  -28.6770  -20.3950   20.7910 H   0  0  0  0  0  0  0  0  0  0  0  0
  -30.6680  -14.5000   20.3890 C   0  0  0  0  0  0  0  0  0  0  0  0
  -30.2960  -12.3400   19.2600 C   0  0  0  0  0  2  0  0  0  0  0  0
  -29.3490  -12.5490   18.0610 C   0  0  0  0  0  2  0  0  0  0  0  0
  -27.8820  -12.4170   18.5090 C   0  0  0  0  0  2  0  0  0  0  0  0
  -27.5590  -13.2580   19.7750 C   0  0  0  0  0  3  0  0  0  0  0  0
  -28.6320  -13.0690   20.8730 C   0  0  0  0  0  2  0  0  0  0  0  0
  -29.9490  -13.3470   20.2770 N   0  0  0  0  0  0  0  0  0  0  0  0
  -31.7990  -14.6060   19.9100 O   0  0  0  0  0  0  0  0  0  0  0  0
  -30.0210  -15.5770   20.8900 N   0  0  0  0  0  0  0  0  0  0  0  0
  -29.0550  -15.4280   21.1310 H   0  0  0  0  0  0  0  0  0  0  0  0
  -25.1660  -13.8550   20.5120 C   0  0  0  0  0  0  0  0  0  0  0  0
  -24.1040  -13.0780   20.8880 C   0  0  0  0  0  0  0  0  0  0  0  0
  -24.5680  -11.7280   20.8540 C   0  0  0  0  0  0  0  0  0  0  0  0
  -26.2130  -12.9780   20.2720 N   0  0  0  0  0  0  0  0  0  0  0  0
  -25.8560  -11.6920   20.5340 N   0  0  0  0  0  0  0  0  0  0  0  0
  -23.8460  -10.4630   21.0490 C   0  0  0  0  0  0  0  0  0  0  0  0
  -24.2930   -9.4910   21.9700 C   0  0  0  0  0  3  0  0  0  0  0  0
  -23.5710   -8.2920   22.1540 C   0  0  0  0  0  3  0  0  0  0  0  0
  -22.3870   -8.0560   21.4140 C   0  0  0  0  0  0  0  0  0  0  0  0
  -21.9590   -9.0170   20.4820 C   0  0  0  0  0  3  0  0  0  0  0  0
  -22.6820  -10.2080   20.2960 C   0  0  0  0  0  3  0  0  0  0  0  0
  -21.6350   -6.9090   21.5080 O   0  0  0  0  0  0  0  0  0  0  0  0
  -21.6120   -6.1550   22.6540 C   0  0  0  0  0  0  0  0  0  0  0  0
  -21.2240   -6.7000   23.8980 C   0  0  0  0  0  3  0  0  0  0  0  0
  -21.1480   -5.8730   25.0360 C   0  0  0  0  0  3  0  0  0  0  0  0
  -21.4490   -4.5010   24.9310 C   0  0  0  0  0  0  0  0  0  0  0  0
  -21.8300   -3.9560   23.6920 C   0  0  0  0  0  3  0  0  0  0  0  0
  -21.9080   -4.7810   22.5570 C   0  0  0  0  0  0  0  0  0  0  0  0
  -22.2550   -4.2450   21.3610 F   0  0  0  0  0  0  0  0  0  0  0  0
  -21.3680   -3.7050   26.0230 F   0  0  0  0  0  0  0  0  0  0  0  0
  -22.7060  -13.5520   21.1720 C   0  0  0  0  0  0  0  0  0  0  0  0
  -21.9880  -12.8530   22.0440 N   0  0  0  0  0  0  0  0  0  0  0  0
  -22.2610  -14.5760   20.6560 O   0  0  0  0  0  0  0  0  0  0  0  0
  -22.3600  -12.0250   22.4830 H   0  0  0  0  0  0  0  0  0  0  0  0
  -21.0520  -13.1540   22.2770 H   0  0  0  0  0  0  0  0  0  0  0  0
  -25.3240  -15.2260   20.3340 N   0  0  0  0  0  0  0  0  0  0  0  0
  -24.5580  -15.8770   20.4620 H   0  0  0  0  0  0  0  0  0  0  0  0
  -26.1670  -15.6720   19.9960 H   0  0  0  0  0  0  0  0  0  0  0  0
  -29.0280  -22.8480   20.5350 C   0  0  0  0  0  2  0  0  0  0  0  0
  -29.3640  -24.3720   20.5400 C   0  0  0  0  0  2  0  0  0  0  0  0
  -28.1660  -25.2430   20.0760 C   0  0  0  0  0  2  0  0  0  0  0  0
  -28.3320  -26.6730   20.2200 O   0  0  0  0  0  0  0  0  0  0  0  0
  -24.5880  -31.9400   23.2680 C   0  0  0  0  0  0  0  0  0  0  0  0
  -27.1730  -27.4420   20.1870 C   0  0  0  0  0  0  0  0  0  0  0  0
  -23.3610  -30.5480   21.6360 C   0  0  0  0  0  3  0  0  0  0  0  0
  -24.7930  -28.9950   20.2050 C   0  0  0  0  0  0  0  0  0  0  0  0
  -25.8920  -30.8760   21.4260 C   0  0  0  0  0  2  0  0  0  0  0  0
  -25.9640  -29.5020   20.7850 C   0  0  0  0  0  0  0  0  0  0  0  0
  -27.1560  -28.7340   20.7700 C   0  0  0  0  0  3  0  0  0  0  0  0
  -25.9780  -26.9640   19.5940 C   0  0  0  0  0  3  0  0  0  0  0  0
  -24.7970  -27.7260   19.6070 C   0  0  0  0  0  3  0  0  0  0  0  0
  -23.5590  -29.8660   20.2560 C   0  0  0  0  0  2  0  0  0  0  0  0
  -24.6320  -31.1350   22.1690 N   0  0  0  0  0  0  0  0  0  0  0  0
  -23.5110  -32.2230   23.8130 O   0  0  0  0  0  0  0  0  0  0  0  0
  -22.7050  -29.5330   22.6000 C   0  0  0  0  0  0  0  0  0  0  0  0
  -21.3790  -29.3560   22.4750 N   0  0  0  0  0  0  0  0  0  0  0  0
  -23.3850  -28.9070   23.4190 O   0  0  0  0  0  0  0  0  0  0  0  0
  -20.8910  -29.9130   21.7860 H   0  0  0  0  0  0  0  0  0  0  0  0
  -18.0030  -28.1680   22.9670 C   0  0  0  0  0  0  0  0  0  0  0  0
  -20.5580  -28.4270   23.2500 C   0  0  0  0  0  3  0  0  0  0  0  0
  -20.6630  -26.9900   22.6890 C   0  0  0  0  0  2  0  0  0  0  0  0
  -19.5660  -26.6590   21.6720 C   0  0  0  0  0  2  0  0  0  0  0  0
  -18.1810  -26.8120   22.3070 C   0  0  0  0  0  2  0  0  0  0  0  0
  -19.1180  -28.9340   23.3970 C   0  0  0  0  0  0  0  0  0  0  0  0
  -18.8990  -30.2040   23.9730 C   0  0  0  0  0  3  0  0  0  0  0  0
  -17.5930  -30.7080   24.1260 C   0  0  0  0  0  3  0  0  0  0  0  0
  -16.4910  -29.9400   23.7140 C   0  0  0  0  0  3  0  0  0  0  0  0
  -16.6960  -28.6720   23.1390 C   0  0  0  0  0  3  0  0  0  0  0  0
  -25.8810  -32.5600   23.8800 C   0  0  0  0  0  3  0  0  0  0  0  0
  -26.4060  -31.7810   25.1480 C   0  0  1  0  0  0  0  0  0  0  0  0
  -25.3230  -31.5450   26.2250 C   0  0  0  0  0  1  0  0  0  0  0  0
  -26.9770  -30.4030   24.7400 C   0  0  0  0  0  1  0  0  0  0  0  0
  -27.5680  -32.5660   25.8030 C   0  0  0  0  0  1  0  0  0  0  0  0
  -25.5840  -33.9580   24.2150 N   0  0  0  0  0  0  0  0  0  0  0  0
  -25.9050  -35.0100   23.4500 C   0  0  0  0  0  0  0  0  0  0  0  0
  -26.5540  -34.9060   22.4050 O   0  0  0  0  0  0  0  0  0  0  0  0
  -25.0060  -34.1150   25.0280 H   0  0  0  0  0  0  0  0  0  0  0  0
  -24.1660  -36.7990   23.1400 C   0  0  0  0  0  1  0  0  0  0  0  0
  -25.4300  -36.3990   23.9170 C   0  0  0  0  0  3  0  0  0  0  0  0
  -27.5880  -37.2870   24.6800 C   0  0  0  0  0  1  0  0  0  0  0  0
  -26.4580  -37.4530   23.7690 N   0  0  0  0  0  0  0  0  0  0  0  0
  -26.0560  -38.3720   23.9290 H   0  0  0  0  0  0  0  0  0  0  0  0
  2  1  1  0
  3  8  1  0
  4  3  2  0
  5  8  1  0
  6  4  1  0
  6  5  2  0
  7  5  1  0
  7  2  1  0
  9  7  1  0
 10 18  1  0
 11 16  1  0
 12 13  1  0
 12 11  1  0
 14 13  1  0
 14 23  1  0
 14 15  1  0
 16 10  1  0
 16 15  1  0
 17 10  2  0
 18  4  1  0
 18 19  1  0
 20 21  2  0
 21 40  1  0
 22 21  1  0
 22 25  1  0
 23 20  1  0
 23 24  1  0
 24 22  2  0
 25 26  1  0
 26 27  2  0
 28 31  1  0
 28 27  1  0
 29 28  2  0
 30 29  1  0
 30 25  2  0
 31 32  1  0
 32 33  1  0
 33 34  2  0
 35 34  1  0
 35 39  1  0
 36 35  2  0
 37 32  2  0
 37 36  1  0
 38 37  1  0
 40 41  1  0
 41 44  1  0
 41 43  1  0
 42 40  2  0
 45 46  1  0
 45 20  1  0
 47 45  1  0
 48 49  1  0
 48  2  1  0
 50 51  1  0
 50 49  1  0
 52 63  2  0
 53 51  1  0
 53 58  1  0
 54 62  1  0
 54 64  1  0
 55 61  1  0
 55 57  1  0
 56 62  1  0
 57 56  1  0
 58 57  2  0
 59 60  1  0
 59 53  2  0
 60 55  2  0
 61 54  1  0
 62 52  1  0
 64 66  2  0
 65 64  1  0
 67 65  1  0
 68 77  2  0
 68 73  1  0
 69 65  1  0
 69 73  1  0
 70 69  1  0
 71 72  1  0
 71 70  1  0
 72 68  1  0
 73 74  2  0
 74 75  1  0
 76 75  2  0
 77 76  1  0
 78 52  1  0
 78 83  1  0
 78 79  1  0
 79 82  1  1
 79 80  1  0
 81 79  1  0
 83 86  1  0
 84 88  1  0
 84 83  1  0
 85 84  2  0
 88 87  1  0
 90 88  1  0
 90 91  1  0
 90 89  1  0
M  ISO  4  10 100  18 100  50 101  51 101
M  END
>  <TORSDO>  (88) 
F 20

>  <SCORE>  (88) 
-13.920

>  <name>  (88) 
87

>  <ligand_id>  (88) 
87

>  <original_smiles>  (88) 
[H]c1sc(N([H])C([H])(C([H])([H])[H])C([H])([H])C([H])([H])C([H])([H])Oc2c([H])c([H])c3c(c2[H])C([H])([H])N(C(=O)C([H])(N([H])C(=O)C([H])(N([H])C([H])([H])[H])C([H])([H])[H])C(C([H])([H])[H])(C([H])([H])[H])C([H])([H])[H])C([H])(C(=O)N([H])C2([H])c4c([H])c([H])c([H])c([H])c4C([H])([H])C([H])([H])C2([H])[H])C3([H])[H])nc1N([H])C(=O)N1C([H])([H])C([H])([H])C([H])([H])C([H])(n2nc(-c3c([H])c([H])c(Oc4c([H])c([H])c(F)c([H])c4F)c([H])c3[H])c(C(=O)N([H])[H])c2N([H])[H])C1([H])[H]

>  <smiles>  (88) 
[H]c1sc(N([H])C([H])(C([H])([H])[H])C([H])([H])C([H])([H])C([H])([H])Oc2c([H])c([H])c3c(c2[H])C([H])([H])N(C(=O)C([H])(N([H])C(=O)C([H])(N([H])C([H])([H])[H])C([H])([H])[H])C(C([H])([H])[H])(C([H])([H])[H])C([H])([H])[H])C([H])(C(=O)N([H])C2([H])c4c([H])c([H])c([H])c([H])c4C([H])([H])C([H])([H])C2([H])[H])C3([H])[H])nc1N([H])C(=O)N1C([H])([H])C([H])([H])C([H])([H])C([H])(n2nc(-c3c([H])c([H])c(Oc4c([H])c([H])c(F)c([H])c4F)c([H])c3[H])c(C(=O)N([H])[H])c2N([H])[H])C1([H])[H]

$$$$
88:0:0
     RDKit          3D

 96104  0  0  1  0  0  0  0  0999 V2000
  -29.8500  -21.8000   21.2420 C   0  0  0  0  0  3  0  0  0  0  0  0
  -29.1070  -20.5330   21.1950 N   0  0  0  0  0  0  0  0  0  0  0  0
  -28.2070  -20.5360   21.6660 H   0  0  0  0  0  0  0  0  0  0  0  0
  -30.7060  -14.5060   20.1230 C   0  0  0  0  0  0  0  0  0  0  0  0
  -30.3600  -12.3800   18.9150 C   0  0  0  0  0  2  0  0  0  0  0  0
  -29.3540  -12.6200   17.7700 C   0  0  0  0  0  2  0  0  0  0  0  0
  -27.9030  -12.4680   18.2710 C   0  0  0  0  0  2  0  0  0  0  0  0
  -27.6340  -13.2670   19.5730 C   0  0  0  0  0  3  0  0  0  0  0  0
  -28.7430  -12.9960   20.6170 C   0  0  0  0  0  2  0  0  0  0  0  0
  -30.0420  -13.3230   19.9980 N   0  0  0  0  0  0  0  0  0  0  0  0
  -31.7800  -14.7270   19.5540 O   0  0  0  0  0  0  0  0  0  0  0  0
  -30.8450  -18.9430   20.2560 C   0  0  0  0  0  3  0  0  0  0  0  0
  -29.6890  -19.2850   20.9260 C   0  0  0  0  0  0  0  0  0  0  0  0
  -30.1170  -16.8490   20.7930 C   0  0  0  0  0  0  0  0  0  0  0  0
  -31.0800  -17.5580   20.1900 N   0  0  0  0  0  0  0  0  0  0  0  0
  -30.0540  -15.4280   20.8530 N   0  0  0  0  0  0  0  0  0  0  0  0
  -28.8590  -17.8570   21.5000 S   0  0  0  0  0  0  0  0  0  0  0  0
  -29.2430  -15.0640   21.3280 H   0  0  0  0  0  0  0  0  0  0  0  0
  -25.2660  -13.8560   20.4010 C   0  0  0  0  0  0  0  0  0  0  0  0
  -24.2200  -13.0730   20.8100 C   0  0  0  0  0  0  0  0  0  0  0  0
  -24.6830  -11.7240   20.7370 C   0  0  0  0  0  0  0  0  0  0  0  0
  -26.3040  -12.9830   20.1090 N   0  0  0  0  0  0  0  0  0  0  0  0
  -25.9570  -11.6950   20.3660 N   0  0  0  0  0  0  0  0  0  0  0  0
  -23.9720  -10.4560   20.9430 C   0  0  0  0  0  0  0  0  0  0  0  0
  -24.4180   -9.5060   21.8870 C   0  0  0  0  0  3  0  0  0  0  0  0
  -23.7080   -8.3010   22.0800 C   0  0  0  0  0  3  0  0  0  0  0  0
  -22.5370   -8.0390   21.3290 C   0  0  0  0  0  0  0  0  0  0  0  0
  -22.1100   -8.9800   20.3750 C   0  0  0  0  0  3  0  0  0  0  0  0
  -22.8210  -10.1750   20.1800 C   0  0  0  0  0  3  0  0  0  0  0  0
  -21.7980   -6.8860   21.4310 O   0  0  0  0  0  0  0  0  0  0  0  0
  -21.7070   -6.1900   22.6100 C   0  0  0  0  0  0  0  0  0  0  0  0
  -21.2090   -6.7860   23.7890 C   0  0  0  0  0  3  0  0  0  0  0  0
  -21.0670   -6.0170   24.9620 C   0  0  0  0  0  3  0  0  0  0  0  0
  -21.4130   -4.6530   24.9550 C   0  0  0  0  0  0  0  0  0  0  0  0
  -21.9040   -4.0550   23.7800 C   0  0  0  0  0  3  0  0  0  0  0  0
  -22.0470   -4.8230   22.6110 C   0  0  0  0  0  0  0  0  0  0  0  0
  -22.5010   -4.2370   21.4750 F   0  0  0  0  0  0  0  0  0  0  0  0
  -21.2690   -3.9100   26.0790 F   0  0  0  0  0  0  0  0  0  0  0  0
  -22.8360  -13.5410   21.1590 C   0  0  0  0  0  0  0  0  0  0  0  0
  -22.1590  -12.8330   22.0580 N   0  0  0  0  0  0  0  0  0  0  0  0
  -22.3640  -14.5660   20.6710 O   0  0  0  0  0  0  0  0  0  0  0  0
  -22.5530  -12.0020   22.4720 H   0  0  0  0  0  0  0  0  0  0  0  0
  -21.2340  -13.1280   22.3370 H   0  0  0  0  0  0  0  0  0  0  0  0
  -25.4180  -15.2290   20.2330 N   0  0  0  0  0  0  0  0  0  0  0  0
  -24.6500  -15.8770   20.3730 H   0  0  0  0  0  0  0  0  0  0  0  0
  -26.2430  -15.6730   19.8490 H   0  0  0  0  0  0  0  0  0  0  0  0
  -30.3850  -22.0680   22.6740 C   0  0  0  0  0  2  0  0  0  0  0  0
  -31.5300  -21.2940   24.7980 C   0  0  0  0  0  1  0  0  0  0  0  0
  -32.6670  -20.9070   22.5810 C   0  0  0  0  0  1  0  0  0  0  0  0
  -31.3130  -21.0040   23.3040 C   0  0  0  0  0  3  0  0  0  0  0  0
  -28.8800  -22.9240   20.7580 C   0  0  0  0  0  2  0  0  0  0  0  0
  -29.3160  -24.4270   20.7530 C   0  0  0  0  0  3  0  0  0  0  0  0
  -29.2750  -24.9380   22.0760 O   0  0  0  0  0  0  0  0  0  0  0  0
  -29.2820  -25.8890   21.9990 H   0  0  0  0  0  0  0  0  0  0  0  0
  -28.2810  -25.2700   19.9720 C   0  0  0  0  0  2  0  0  0  0  0  0
  -28.4670  -26.6990   20.0810 O   0  0  0  0  0  0  0  0  0  0  0  0
  -24.5580  -31.7830   23.1880 C   0  0  0  0  0  0  0  0  0  0  0  0
  -27.3040  -27.4510   20.0300 C   0  0  0  0  0  0  0  0  0  0  0  0
  -23.3950  -30.4050   21.4990 C   0  0  0  0  0  3  0  0  0  0  0  0
  -24.8890  -28.9360   20.0480 C   0  0  0  0  0  0  0  0  0  0  0  0
  -25.9200  -30.8050   21.3430 C   0  0  0  0  0  2  0  0  0  0  0  0
  -26.0340  -29.4550   20.6660 C   0  0  0  0  0  0  0  0  0  0  0  0
  -27.2450  -28.7200   20.6560 C   0  0  0  0  0  3  0  0  0  0  0  0
  -26.1410  -26.9670   19.3830 C   0  0  0  0  0  3  0  0  0  0  0  0
  -24.9380  -27.6920   19.4030 C   0  0  0  0  0  3  0  0  0  0  0  0
  -23.6310  -29.7720   20.1040 C   0  0  0  0  0  2  0  0  0  0  0  0
  -24.6420  -31.0110   22.0690 N   0  0  0  0  0  0  0  0  0  0  0  0
  -23.4660  -32.0240   23.7210 O   0  0  0  0  0  0  0  0  0  0  0  0
  -22.7520  -29.3450   22.4230 C   0  0  0  0  0  0  0  0  0  0  0  0
  -21.4340  -29.1380   22.2730 N   0  0  0  0  0  0  0  0  0  0  0  0
  -23.4370  -28.7130   23.2320 O   0  0  0  0  0  0  0  0  0  0  0  0
  -20.9400  -29.7060   21.5970 H   0  0  0  0  0  0  0  0  0  0  0  0
  -18.0740  -27.8770   22.7030 C   0  0  0  0  0  0  0  0  0  0  0  0
  -20.6240  -28.1670   23.0100 C   0  0  0  0  0  3  0  0  0  0  0  0
  -20.7550  -26.7530   22.3980 C   0  0  0  0  0  2  0  0  0  0  0  0
  -19.6690  -26.4410   21.3630 C   0  0  0  0  0  2  0  0  0  0  0  0
  -18.2770  -26.5480   21.9950 C   0  0  0  0  0  2  0  0  0  0  0  0
  -19.1760  -28.6440   23.1640 C   0  0  0  0  0  0  0  0  0  0  0  0
  -18.9320  -29.8880   23.7830 C   0  0  0  0  0  3  0  0  0  0  0  0
  -17.6180  -30.3660   23.9490 C   0  0  0  0  0  3  0  0  0  0  0  0
  -16.5300  -29.5960   23.5030 C   0  0  0  0  0  3  0  0  0  0  0  0
  -16.7590  -28.3530   22.8860 C   0  0  0  0  0  3  0  0  0  0  0  0
  -25.8250  -32.4200   23.8370 C   0  0  0  0  0  3  0  0  0  0  0  0
  -25.4970  -33.8120   24.1720 N   0  0  0  0  0  0  0  0  0  0  0  0
  -25.8190  -34.8720   23.4190 C   0  0  0  0  0  0  0  0  0  0  0  0
  -26.4950  -34.7830   22.3910 O   0  0  0  0  0  0  0  0  0  0  0  0
  -24.8950  -33.9550   24.9700 H   0  0  0  0  0  0  0  0  0  0  0  0
  -24.0600  -36.6360   23.0720 C   0  0  0  0  0  1  0  0  0  0  0  0
  -25.3110  -36.2510   23.8790 C   0  0  0  0  0  3  0  0  0  0  0  0
  -27.4310  -37.1710   24.7050 C   0  0  0  0  0  1  0  0  0  0  0  0
  -26.3250  -37.3220   23.7640 N   0  0  0  0  0  0  0  0  0  0  0  0
  -25.9030  -38.2350   23.9150 H   0  0  0  0  0  0  0  0  0  0  0  0
  -26.3300  -31.6400   25.1130 C   0  0  1  0  0  0  0  0  0  0  0  0
  -25.2220  -31.3770   26.1590 C   0  0  0  0  0  1  0  0  0  0  0  0
  -26.9370  -30.2740   24.7130 C   0  0  0  0  0  1  0  0  0  0  0  0
  -27.4590  -32.4420   25.8040 C   0  0  0  0  0  1  0  0  0  0  0  0
  1 51  1  0
  1 47  1  0
  2  1  1  0
  2  3  1  0
  4 16  1  0
  5 10  1  0
  6  7  1  0
  6  5  1  0
  8  7  1  0
  8 22  1  0
  8  9  1  0
 10  4  1  0
 10  9  1  0
 11  4  2  0
 12 13  2  0
 13  2  1  0
 13 17  1  0
 14 16  1  0
 14 17  1  0
 15 12  1  0
 15 14  2  0
 16 18  1  0
 19 20  2  0
 20 39  1  0
 21 20  1  0
 21 24  1  0
 22 23  1  0
 22 19  1  0
 23 21  2  0
 24 25  1  0
 25 26  2  0
 27 30  1  0
 27 26  1  0
 28 27  2  0
 29 28  1  0
 29 24  2  0
 30 31  1  0
 31 36  2  0
 31 32  1  0
 32 33  2  0
 34 33  1  0
 34 38  1  0
 35 34  2  0
 36 35  1  0
 37 36  1  0
 39 40  1  0
 40 43  1  0
 40 42  1  0
 41 39  2  0
 44 45  1  0
 44 19  1  0
 46 44  1  0
 47 50  1  0
 49 50  1  0
 50 48  1  0
 52 55  1  0
 52 51  1  0
 52 53  1  0
 54 53  1  0
 55 56  1  0
 57 68  2  0
 58 56  1  0
 58 63  1  0
 59 67  1  0
 59 69  1  0
 60 66  1  0
 60 62  1  0
 61 67  1  0
 62 61  1  0
 63 62  2  0
 64 65  1  0
 64 58  2  0
 65 60  2  0
 66 59  1  0
 67 57  1  0
 69 71  2  0
 70 69  1  0
 72 70  1  0
 73 82  2  0
 73 78  1  0
 74 70  1  0
 74 78  1  0
 75 74  1  0
 76 77  1  0
 76 75  1  0
 77 73  1  0
 78 79  2  0
 79 80  1  0
 81 80  2  0
 82 81  1  0
 83 57  1  0
 83 84  1  0
 83 93  1  0
 84 87  1  0
 85 89  1  0
 85 84  1  0
 86 85  2  0
 89 88  1  0
 91 89  1  0
 91 92  1  0
 91 90  1  0
 93 96  1  1
 93 94  1  0
 95 93  1  0
M  ISO  4   4 100  16 100  55 101  56 101
M  END
>  <TORSDO>  (89) 
F 23

>  <SCORE>  (89) 
-12.492

>  <name>  (89) 
88

>  <ligand_id>  (89) 
88

>  <original_smiles>  (89) 
[H]OC([H])(C([H])([H])Oc1c([H])c([H])c2c(c1[H])C([H])([H])N(C(=O)C([H])(N([H])C(=O)C([H])(N([H])C([H])([H])[H])C([H])([H])[H])C(C([H])([H])[H])(C([H])([H])[H])C([H])([H])[H])C([H])(C(=O)N([H])C1([H])c3c([H])c([H])c([H])c([H])c3C([H])([H])C([H])([H])C1([H])[H])C2([H])[H])C([H])([H])C([H])(N([H])c1sc(N([H])C(=O)N2C([H])([H])C([H])([H])C([H])([H])C([H])(n3nc(-c4c([H])c([H])c(Oc5c([H])c([H])c(F)c([H])c5F)c([H])c4[H])c(C(=O)N([H])[H])c3N([H])[H])C2([H])[H])nc1[H])C([H])([H])C([H])(C([H])([H])[H])C([H])([H])[H]

>  <smiles>  (89) 
[H]OC([H])(C([H])([H])Oc1c([H])c([H])c2c(c1[H])C([H])([H])N(C(=O)C([H])(N([H])C(=O)C([H])(N([H])C([H])([H])[H])C([H])([H])[H])C(C([H])([H])[H])(C([H])([H])[H])C([H])([H])[H])C([H])(C(=O)N([H])C1([H])c3c([H])c([H])c([H])c([H])c3C([H])([H])C([H])([H])C1([H])[H])C2([H])[H])C([H])([H])C([H])(N([H])c1sc(N([H])C(=O)N2C([H])([H])C([H])([H])C([H])([H])C([H])(n3nc(-c4c([H])c([H])c(Oc5c([H])c([H])c(F)c([H])c5F)c([H])c4[H])c(C(=O)N([H])[H])c3N([H])[H])C2([H])[H])nc1[H])C([H])([H])C([H])(C([H])([H])[H])C([H])([H])[H]

$$$$
89:0:0
     RDKit          3D

 92100  0  0  1  0  0  0  0  0999 V2000
  -28.6990  -22.1490   19.9310 C   0  0  0  0  0  2  0  0  0  0  0  0
  -30.6070  -14.7910   20.4270 C   0  0  0  0  0  0  0  0  0  0  0  0
  -30.4130  -12.4930   19.4720 C   0  0  0  0  0  2  0  0  0  0  0  0
  -29.5000  -12.5540   18.2280 C   0  0  0  0  0  2  0  0  0  0  0  0
  -28.0240  -12.3800   18.6320 C   0  0  0  0  0  2  0  0  0  0  0  0
  -27.6270  -13.2760   19.8360 C   0  0  0  0  0  3  0  0  0  0  0  0
  -28.6680  -13.2170   20.9770 C   0  0  0  0  0  2  0  0  0  0  0  0
  -29.9740  -13.5630   20.4020 N   0  0  0  0  0  0  0  0  0  0  0  0
  -31.8020  -14.8410   20.1130 O   0  0  0  0  0  0  0  0  0  0  0  0
  -29.9760  -19.6420   18.6910 C   0  0  0  0  0  3  0  0  0  0  0  0
  -30.3710  -18.4290   18.1200 C   0  0  0  0  0  3  0  0  0  0  0  0
  -29.5530  -19.6400   20.0210 C   0  0  0  0  0  0  0  0  0  0  0  0
  -29.9500  -17.2590   20.0640 C   0  0  0  0  0  0  0  0  0  0  0  0
  -30.3510  -17.2670   18.7970 N   0  0  0  0  0  0  0  0  0  0  0  0
  -29.5340  -18.4180   20.6910 N   0  0  0  0  0  0  0  0  0  0  0  0
  -29.2020  -20.8980   20.6480 N   0  0  0  0  0  0  0  0  0  0  0  0
  -29.8690  -15.9530   20.6640 N   0  0  0  0  0  0  0  0  0  0  0  0
  -28.9500  -20.8600   21.6300 H   0  0  0  0  0  0  0  0  0  0  0  0
  -29.0180  -15.8020   21.1760 H   0  0  0  0  0  0  0  0  0  0  0  0
  -25.2260  -13.8550   20.5270 C   0  0  0  0  0  0  0  0  0  0  0  0
  -24.1590  -13.0770   20.8860 C   0  0  0  0  0  0  0  0  0  0  0  0
  -24.6290  -11.7290   20.8680 C   0  0  0  0  0  0  0  0  0  0  0  0
  -26.2780  -12.9800   20.3100 N   0  0  0  0  0  0  0  0  0  0  0  0
  -25.9250  -11.6960   20.5790 N   0  0  0  0  0  0  0  0  0  0  0  0
  -23.9040  -10.4640   21.0540 C   0  0  0  0  0  0  0  0  0  0  0  0
  -24.3290   -9.4990   21.9930 C   0  0  0  0  0  3  0  0  0  0  0  0
  -23.6030   -8.3010   22.1670 C   0  0  0  0  0  3  0  0  0  0  0  0
  -22.4390   -8.0580   21.3990 C   0  0  0  0  0  0  0  0  0  0  0  0
  -22.0340   -9.0110   20.4490 C   0  0  0  0  0  3  0  0  0  0  0  0
  -22.7600  -10.2010   20.2740 C   0  0  0  0  0  3  0  0  0  0  0  0
  -21.6850   -6.9110   21.4820 O   0  0  0  0  0  0  0  0  0  0  0  0
  -21.6250   -6.1720   22.6360 C   0  0  0  0  0  0  0  0  0  0  0  0
  -21.1730   -6.7260   23.8530 C   0  0  0  0  0  3  0  0  0  0  0  0
  -21.0600   -5.9120   24.9980 C   0  0  0  0  0  3  0  0  0  0  0  0
  -21.3870   -4.5460   24.9260 C   0  0  0  0  0  0  0  0  0  0  0  0
  -21.8320   -3.9910   23.7130 C   0  0  0  0  0  3  0  0  0  0  0  0
  -21.9460   -4.8020   22.5710 C   0  0  0  0  0  0  0  0  0  0  0  0
  -22.3550   -4.2570   21.3990 F   0  0  0  0  0  0  0  0  0  0  0  0
  -21.2710   -3.7620   26.0230 F   0  0  0  0  0  0  0  0  0  0  0  0
  -22.7560  -13.5500   21.1310 C   0  0  0  0  0  0  0  0  0  0  0  0
  -22.0160  -12.8560   21.9870 N   0  0  0  0  0  0  0  0  0  0  0  0
  -22.3250  -14.5730   20.6010 O   0  0  0  0  0  0  0  0  0  0  0  0
  -22.3790  -12.0290   22.4410 H   0  0  0  0  0  0  0  0  0  0  0  0
  -21.0740  -13.1550   22.1940 H   0  0  0  0  0  0  0  0  0  0  0  0
  -25.3840  -15.2250   20.3430 N   0  0  0  0  0  0  0  0  0  0  0  0
  -24.6060  -15.8700   20.4350 H   0  0  0  0  0  0  0  0  0  0  0  0
  -26.2240  -15.6670   19.9900 H   0  0  0  0  0  0  0  0  0  0  0  0
  -28.8790  -23.6220   20.6020 C   0  0  0  0  0  3  0  0  0  0  0  0
  -28.5080  -23.4330   21.9580 O   0  0  0  0  0  0  0  0  0  0  0  0
  -28.6800  -24.2530   22.4130 H   0  0  0  0  0  0  0  0  0  0  0  0
  -28.0000  -24.8700   20.0180 C   0  0  0  0  0  2  0  0  0  0  0  0
  -28.2540  -26.3400   20.2890 O   0  0  0  0  0  0  0  0  0  0  0  0
  -24.5700  -31.8760   23.2400 C   0  0  0  0  0  0  0  0  0  0  0  0
  -27.1770  -27.2630   20.1940 C   0  0  0  0  0  0  0  0  0  0  0  0
  -23.3760  -30.4850   21.5900 C   0  0  0  0  0  3  0  0  0  0  0  0
  -24.8320  -28.9360   20.1610 C   0  0  0  0  0  0  0  0  0  0  0  0
  -25.9220  -30.7810   21.4300 C   0  0  0  0  0  2  0  0  0  0  0  0
  -26.0010  -29.4000   20.7770 C   0  0  0  0  0  0  0  0  0  0  0  0
  -27.1750  -28.5750   20.7850 C   0  0  0  0  0  3  0  0  0  0  0  0
  -25.9890  -26.8890   19.5220 C   0  0  0  0  0  3  0  0  0  0  0  0
  -24.8330  -27.6900   19.5210 C   0  0  0  0  0  3  0  0  0  0  0  0
  -23.5990  -29.8180   20.2080 C   0  0  0  0  0  2  0  0  0  0  0  0
  -24.6420  -31.0660   22.1420 N   0  0  0  0  0  0  0  0  0  0  0  0
  -23.4820  -32.1560   23.7670 O   0  0  0  0  0  0  0  0  0  0  0  0
  -22.7020  -29.4670   22.5410 C   0  0  0  0  0  0  0  0  0  0  0  0
  -21.3740  -29.3030   22.4160 N   0  0  0  0  0  0  0  0  0  0  0  0
  -23.3740  -28.8290   23.3570 O   0  0  0  0  0  0  0  0  0  0  0  0
  -20.8900  -29.8690   21.7330 H   0  0  0  0  0  0  0  0  0  0  0  0
  -17.9850  -28.1400   22.9260 C   0  0  0  0  0  0  0  0  0  0  0  0
  -20.5480  -28.3660   23.1810 C   0  0  0  0  0  3  0  0  0  0  0  0
  -20.6280  -26.9400   22.5900 C   0  0  0  0  0  2  0  0  0  0  0  0
  -19.5170  -26.6410   21.5790 C   0  0  0  0  0  2  0  0  0  0  0  0
  -18.1410  -26.7960   22.2340 C   0  0  0  0  0  2  0  0  0  0  0  0
  -19.1150  -28.8840   23.3570 C   0  0  0  0  0  0  0  0  0  0  0  0
  -18.9140  -30.1420   23.9650 C   0  0  0  0  0  3  0  0  0  0  0  0
  -17.6170  -30.6560   24.1470 C   0  0  0  0  0  3  0  0  0  0  0  0
  -16.5010  -29.9090   23.7310 C   0  0  0  0  0  3  0  0  0  0  0  0
  -16.6850  -28.6520   23.1270 C   0  0  0  0  0  3  0  0  0  0  0  0
  -25.8490  -32.5070   23.8720 C   0  0  0  0  0  3  0  0  0  0  0  0
  -26.3430  -31.7450   25.1620 C   0  0  1  0  0  0  0  0  0  0  0  0
  -25.2340  -31.5260   26.2190 C   0  0  0  0  0  1  0  0  0  0  0  0
  -26.9220  -30.3590   24.7950 C   0  0  0  0  0  1  0  0  0  0  0  0
  -27.4890  -32.5380   25.8320 C   0  0  0  0  0  1  0  0  0  0  0  0
  -25.5430  -33.9100   24.1860 N   0  0  0  0  0  0  0  0  0  0  0  0
  -25.8930  -34.9560   23.4250 C   0  0  0  0  0  0  0  0  0  0  0  0
  -26.5750  -34.8410   22.4040 O   0  0  0  0  0  0  0  0  0  0  0  0
  -24.9390  -34.0750   24.9780 H   0  0  0  0  0  0  0  0  0  0  0  0
  -24.1890  -36.7650   23.0310 C   0  0  0  0  0  1  0  0  0  0  0  0
  -25.4110  -36.3520   23.8670 C   0  0  0  0  0  3  0  0  0  0  0  0
  -27.5380  -37.2220   24.7340 C   0  0  0  0  0  1  0  0  0  0  0  0
  -26.4560  -37.3950   23.7690 N   0  0  0  0  0  0  0  0  0  0  0  0
  -26.0560  -38.3190   23.9030 H   0  0  0  0  0  0  0  0  0  0  0  0
  1 16  1  0
  2 17  1  0
  3  8  1  0
  4  5  1  0
  4  3  1  0
  6  5  1  0
  6 23  1  0
  6  7  1  0
  8  2  1  0
  8  7  1  0
  9  2  2  0
 10 12  1  0
 11 10  2  0
 11 14  1  0
 12 16  1  0
 12 15  2  0
 13 17  1  0
 13 15  1  0
 14 13  2  0
 16 18  1  0
 17 19  1  0
 20 21  2  0
 21 40  1  0
 22 21  1  0
 22 25  1  0
 23 20  1  0
 23 24  1  0
 24 22  2  0
 25 26  1  0
 26 27  2  0
 28 31  1  0
 28 27  1  0
 29 28  2  0
 30 29  1  0
 30 25  2  0
 31 32  1  0
 32 33  1  0
 33 34  2  0
 35 34  1  0
 35 39  1  0
 36 35  2  0
 37 32  2  0
 37 36  1  0
 38 37  1  0
 40 41  1  0
 41 44  1  0
 41 43  1  0
 42 40  2  0
 45 46  1  0
 45 20  1  0
 47 45  1  0
 48  1  1  0
 48 49  1  0
 49 50  1  0
 51 52  1  0
 51 48  1  0
 53 64  2  0
 54 52  1  0
 54 59  1  0
 55 63  1  0
 55 65  1  0
 56 62  1  0
 56 58  1  0
 57 63  1  0
 58 59  2  0
 58 57  1  0
 60 54  2  0
 61 60  1  0
 61 56  2  0
 62 55  1  0
 63 53  1  0
 65 67  2  0
 66 65  1  0
 68 66  1  0
 69 78  2  0
 69 74  1  0
 70 66  1  0
 70 74  1  0
 71 70  1  0
 72 73  1  0
 72 71  1  0
 73 69  1  0
 74 75  2  0
 75 76  1  0
 77 76  2  0
 78 77  1  0
 79 53  1  0
 79 84  1  0
 79 80  1  0
 80 83  1  1
 80 81  1  0
 82 80  1  0
 84 87  1  0
 85 89  1  0
 85 84  1  0
 86 85  2  0
 89 88  1  0
 91 89  1  0
 91 92  1  0
 91 90  1  0
M  ISO  4   2 100  17 100  51 101  52 101
M  END
>  <TORSDO>  (90) 
F 19

>  <SCORE>  (90) 
-14.554

>  <name>  (90) 
89

>  <ligand_id>  (90) 
89

>  <original_smiles>  (90) 
[H]OC([H])(C([H])([H])Oc1c([H])c([H])c2c(c1[H])C([H])([H])N(C(=O)C([H])(N([H])C(=O)C([H])(N([H])C([H])([H])[H])C([H])([H])[H])C(C([H])([H])[H])(C([H])([H])[H])C([H])([H])[H])C([H])(C(=O)N([H])C1([H])c3c([H])c([H])c([H])c([H])c3C([H])([H])C([H])([H])C1([H])[H])C2([H])[H])C([H])([H])N([H])c1nc(N([H])C(=O)N2C([H])([H])C([H])([H])C([H])([H])C([H])(n3nc(-c4c([H])c([H])c(Oc5c([H])c([H])c(F)c([H])c5F)c([H])c4[H])c(C(=O)N([H])[H])c3N([H])[H])C2([H])[H])nc([H])c1[H]

>  <smiles>  (90) 
[H]OC([H])(C([H])([H])Oc1c([H])c([H])c2c(c1[H])C([H])([H])N(C(=O)C([H])(N([H])C(=O)C([H])(N([H])C([H])([H])[H])C([H])([H])[H])C(C([H])([H])[H])(C([H])([H])[H])C([H])([H])[H])C([H])(C(=O)N([H])C1([H])c3c([H])c([H])c([H])c([H])c3C([H])([H])C([H])([H])C1([H])[H])C2([H])[H])C([H])([H])N([H])c1nc(N([H])C(=O)N2C([H])([H])C([H])([H])C([H])([H])C([H])(n3nc(-c4c([H])c([H])c(Oc5c([H])c([H])c(F)c([H])c5F)c([H])c4[H])c(C(=O)N([H])[H])c3N([H])[H])C2([H])[H])nc([H])c1[H]

$$$$
90:0:0
     RDKit          3D

 93101  0  0  1  0  0  0  0  0999 V2000
  -29.2860  -24.1680   21.6260 C   0  0  0  0  0  0  0  0  0  0  0  0
  -30.2590  -23.3930   22.1180 N   0  0  0  0  0  0  0  0  0  0  0  0
  -28.1950  -24.2910   22.1880 O   0  0  0  0  0  0  0  0  0  0  0  0
  -31.1300  -23.3650   21.6040 H   0  0  0  0  0  0  0  0  0  0  0  0
  -29.5840  -24.8650   20.2920 C   0  0  0  0  0  2  0  0  0  0  0  0
  -28.3720  -25.5730   19.6620 C   0  0  0  0  0  2  0  0  0  0  0  0
  -28.3090  -26.9140   20.1490 O   0  0  0  0  0  0  0  0  0  0  0  0
  -24.5400  -32.0110   23.3130 C   0  0  0  0  0  0  0  0  0  0  0  0
  -27.1100  -27.5910   20.1480 C   0  0  0  0  0  0  0  0  0  0  0  0
  -23.2960  -30.6210   21.6880 C   0  0  0  0  0  3  0  0  0  0  0  0
  -24.7140  -29.0930   20.2240 C   0  0  0  0  0  0  0  0  0  0  0  0
  -25.8170  -30.9770   21.4420 C   0  0  0  0  0  2  0  0  0  0  0  0
  -25.8820  -29.6100   20.7940 C   0  0  0  0  0  0  0  0  0  0  0  0
  -27.0780  -28.8630   20.7600 C   0  0  0  0  0  3  0  0  0  0  0  0
  -25.9210  -27.0890   19.5650 C   0  0  0  0  0  3  0  0  0  0  0  0
  -24.7270  -27.8300   19.6100 C   0  0  0  0  0  3  0  0  0  0  0  0
  -23.4750  -29.9530   20.2980 C   0  0  0  0  0  2  0  0  0  0  0  0
  -24.5700  -31.2170   22.2060 N   0  0  0  0  0  0  0  0  0  0  0  0
  -23.4700  -32.2820   23.8750 O   0  0  0  0  0  0  0  0  0  0  0  0
  -22.6630  -29.5930   22.6540 C   0  0  0  0  0  0  0  0  0  0  0  0
  -21.3440  -29.3800   22.5190 N   0  0  0  0  0  0  0  0  0  0  0  0
  -23.3560  -28.9910   23.4790 O   0  0  0  0  0  0  0  0  0  0  0  0
  -20.8470  -29.9200   21.8240 H   0  0  0  0  0  0  0  0  0  0  0  0
  -18.0050  -28.0740   22.9510 C   0  0  0  0  0  0  0  0  0  0  0  0
  -20.5410  -28.4350   23.2940 C   0  0  0  0  0  3  0  0  0  0  0  0
  -20.7160  -26.9920   22.7640 C   0  0  0  0  0  2  0  0  0  0  0  0
  -19.6590  -26.6000   21.7280 C   0  0  0  0  0  2  0  0  0  0  0  0
  -18.2530  -26.7120   22.3240 C   0  0  0  0  0  2  0  0  0  0  0  0
  -19.0810  -28.8890   23.3920 C   0  0  0  0  0  0  0  0  0  0  0  0
  -18.7990  -30.1610   23.9340 C   0  0  0  0  0  3  0  0  0  0  0  0
  -17.4720  -30.6190   24.0440 C   0  0  0  0  0  3  0  0  0  0  0  0
  -16.4100  -29.8000   23.6230 C   0  0  0  0  0  3  0  0  0  0  0  0
  -16.6770  -28.5310   23.0800 C   0  0  0  0  0  3  0  0  0  0  0  0
  -25.8410  -32.6330   23.9090 C   0  0  0  0  0  3  0  0  0  0  0  0
  -25.5500  -34.0350   24.2370 N   0  0  0  0  0  0  0  0  0  0  0  0
  -25.8830  -35.0800   23.4680 C   0  0  0  0  0  0  0  0  0  0  0  0
  -26.5420  -34.9640   22.4300 O   0  0  0  0  0  0  0  0  0  0  0  0
  -24.9650  -34.1990   25.0430 H   0  0  0  0  0  0  0  0  0  0  0  0
  -24.1630  -36.8810   23.1230 C   0  0  0  0  0  1  0  0  0  0  0  0
  -25.4120  -36.4740   23.9220 C   0  0  0  0  0  3  0  0  0  0  0  0
  -27.5640  -37.3460   24.7170 C   0  0  0  0  0  1  0  0  0  0  0  0
  -26.4500  -37.5180   23.7890 N   0  0  0  0  0  0  0  0  0  0  0  0
  -26.0540  -38.4420   23.9390 H   0  0  0  0  0  0  0  0  0  0  0  0
  -26.3750  -31.8610   25.1780 C   0  0  1  0  0  0  0  0  0  0  0  0
  -25.2960  -31.6250   26.2610 C   0  0  0  0  0  1  0  0  0  0  0  0
  -26.9490  -30.4830   24.7730 C   0  0  0  0  0  1  0  0  0  0  0  0
  -27.5370  -32.6520   25.8220 C   0  0  0  0  0  1  0  0  0  0  0  0
  -30.1470  -22.5080   23.2790 C   0  0  0  0  0  2  0  0  0  0  0  0
  -30.7450  -21.1210   22.9750 C   0  0  0  0  0  2  0  0  0  0  0  0
  -30.2290  -20.5050   21.6600 C   0  0  0  0  0  2  0  0  0  0  0  0
  -32.0940  -17.4370   20.7690 C   0  0  0  0  0  3  0  0  0  0  0  0
  -31.0330  -16.6690   21.1950 C   0  0  0  0  0  0  0  0  0  0  0  0
  -30.7060  -19.1080   21.4410 C   0  0  0  0  0  0  0  0  0  0  0  0
  -31.8930  -18.8130   20.9060 N   0  0  0  0  0  0  0  0  0  0  0  0
  -29.7750  -17.6810   21.8670 S   0  0  0  0  0  0  0  0  0  0  0  0
  -31.3560  -14.4730   20.2370 C   0  0  0  0  0  0  0  0  0  0  0  0
  -30.9120  -12.3940   18.9840 C   0  0  0  0  0  2  0  0  0  0  0  0
  -29.9590  -12.6830   17.8070 C   0  0  0  0  0  2  0  0  0  0  0  0
  -28.4860  -12.6270   18.2570 C   0  0  0  0  0  2  0  0  0  0  0  0
  -28.2220  -13.4570   19.5410 C   0  0  0  0  0  3  0  0  0  0  0  0
  -29.2690  -13.1160   20.6230 C   0  0  0  0  0  2  0  0  0  0  0  0
  -30.6130  -13.3490   20.0600 N   0  0  0  0  0  0  0  0  0  0  0  0
  -32.4030  -14.6940   19.6190 O   0  0  0  0  0  0  0  0  0  0  0  0
  -30.8530  -15.3250   21.1450 N   0  0  0  0  0  0  0  0  0  0  0  0
  -30.0520  -14.9720   21.6450 H   0  0  0  0  0  0  0  0  0  0  0  0
  -25.8700  -14.2040   20.2850 C   0  0  0  0  0  0  0  0  0  0  0  0
  -24.7630  -13.4920   20.6640 C   0  0  0  0  0  0  0  0  0  0  0  0
  -25.1410  -12.1170   20.6110 C   0  0  0  0  0  0  0  0  0  0  0  0
  -26.8580  -13.2640   20.0310 N   0  0  0  0  0  0  0  0  0  0  0  0
  -26.4220  -12.0030   20.2790 N   0  0  0  0  0  0  0  0  0  0  0  0
  -24.3450  -10.8980   20.8000 C   0  0  0  0  0  0  0  0  0  0  0  0
  -24.7180   -9.9100   21.7380 C   0  0  0  0  0  3  0  0  0  0  0  0
  -23.9270   -8.7550   21.9150 C   0  0  0  0  0  3  0  0  0  0  0  0
  -22.7480   -8.5790   21.1520 C   0  0  0  0  0  0  0  0  0  0  0  0
  -22.3930   -9.5530   20.2030 C   0  0  0  0  0  3  0  0  0  0  0  0
  -23.1840  -10.7000   20.0250 C   0  0  0  0  0  3  0  0  0  0  0  0
  -21.9320   -7.4770   21.2390 O   0  0  0  0  0  0  0  0  0  0  0  0
  -21.7990   -6.7680   22.4070 C   0  0  0  0  0  0  0  0  0  0  0  0
  -21.3780   -7.3810   23.6060 C   0  0  0  0  0  3  0  0  0  0  0  0
  -21.1880   -6.6030   24.7650 C   0  0  0  0  0  3  0  0  0  0  0  0
  -21.4100   -5.2130   24.7260 C   0  0  0  0  0  0  0  0  0  0  0  0
  -21.8240   -4.6000   23.5300 C   0  0  0  0  0  3  0  0  0  0  0  0
  -22.0150   -5.3760   22.3730 C   0  0  0  0  0  0  0  0  0  0  0  0
  -22.3940   -4.7770   21.2180 F   0  0  0  0  0  0  0  0  0  0  0  0
  -21.2190   -4.4640   25.8360 F   0  0  0  0  0  0  0  0  0  0  0  0
  -23.4010  -14.0480   20.9670 C   0  0  0  0  0  0  0  0  0  0  0  0
  -22.6520  -13.3950   21.8480 N   0  0  0  0  0  0  0  0  0  0  0  0
  -23.0110  -15.0980   20.4570 O   0  0  0  0  0  0  0  0  0  0  0  0
  -22.9790  -12.5430   22.2820 H   0  0  0  0  0  0  0  0  0  0  0  0
  -21.7370  -13.7480   22.0910 H   0  0  0  0  0  0  0  0  0  0  0  0
  -26.1160  -15.5630   20.1170 N   0  0  0  0  0  0  0  0  0  0  0  0
  -25.3980  -16.2680   20.2420 H   0  0  0  0  0  0  0  0  0  0  0  0
  -26.9930  -15.9470   19.7860 H   0  0  0  0  0  0  0  0  0  0  0  0
  1  2  1  0
  1  3  2  0
  2 48  1  0
  4  2  1  0
  5  1  1  0
  6  7  1  0
  6  5  1  0
  8 19  2  0
  9  7  1  0
  9 14  1  0
 10 18  1  0
 10 20  1  0
 11 17  1  0
 11 13  1  0
 12 18  1  0
 13 12  1  0
 14 13  2  0
 15 16  1  0
 15  9  2  0
 16 11  2  0
 17 10  1  0
 18  8  1  0
 20 22  2  0
 21 20  1  0
 23 21  1  0
 24 33  2  0
 24 29  1  0
 25 21  1  0
 25 29  1  0
 26 25  1  0
 27 28  1  0
 27 26  1  0
 28 24  1  0
 29 30  2  0
 30 31  1  0
 32 31  2  0
 33 32  1  0
 34  8  1  0
 34 35  1  0
 34 44  1  0
 35 38  1  0
 36 40  1  0
 36 35  1  0
 37 36  2  0
 40 39  1  0
 42 40  1  0
 42 43  1  0
 42 41  1  0
 44 47  1  1
 44 45  1  0
 46 44  1  0
 49 48  1  0
 50 49  1  0
 51 54  1  0
 51 52  2  0
 52 55  1  0
 53 50  1  0
 53 55  1  0
 54 53  2  0
 56 64  1  0
 57 62  1  0
 58 59  1  0
 58 57  1  0
 60 59  1  0
 60 69  1  0
 60 61  1  0
 62 56  1  0
 62 61  1  0
 63 56  2  0
 64 52  1  0
 64 65  1  0
 66 67  2  0
 67 86  1  0
 68 67  1  0
 68 71  1  0
 69 70  1  0
 69 66  1  0
 70 68  2  0
 71 72  1  0
 72 73  2  0
 74 77  1  0
 74 73  1  0
 75 74  2  0
 76 75  1  0
 76 71  2  0
 77 78  1  0
 78 79  1  0
 79 80  2  0
 81 80  1  0
 81 85  1  0
 82 81  2  0
 83 78  2  0
 83 82  1  0
 84 83  1  0
 86 87  1  0
 87 90  1  0
 87 89  1  0
 88 86  2  0
 91 92  1  0
 91 66  1  0
 93 91  1  0
M  ISO  4   6 101   7 101  56 100  64 100
M  END
>  <TORSDO>  (91) 
F 22

>  <SCORE>  (91) 
-12.574

>  <name>  (91) 
90

>  <ligand_id>  (91) 
90

>  <original_smiles>  (91) 
[H]c1nc(C([H])([H])C([H])([H])C([H])([H])N([H])C(=O)C([H])([H])C([H])([H])Oc2c([H])c([H])c3c(c2[H])C([H])([H])N(C(=O)C([H])(N([H])C(=O)C([H])(N([H])C([H])([H])[H])C([H])([H])[H])C(C([H])([H])[H])(C([H])([H])[H])C([H])([H])[H])C([H])(C(=O)N([H])C2([H])c4c([H])c([H])c([H])c([H])c4C([H])([H])C([H])([H])C2([H])[H])C3([H])[H])sc1N([H])C(=O)N1C([H])([H])C([H])([H])C([H])([H])C([H])(n2nc(-c3c([H])c([H])c(Oc4c([H])c([H])c(F)c([H])c4F)c([H])c3[H])c(C(=O)N([H])[H])c2N([H])[H])C1([H])[H]

>  <smiles>  (91) 
[H]c1nc(C([H])([H])C([H])([H])C([H])([H])N([H])C(=O)C([H])([H])C([H])([H])Oc2c([H])c([H])c3c(c2[H])C([H])([H])N(C(=O)C([H])(N([H])C(=O)C([H])(N([H])C([H])([H])[H])C([H])([H])[H])C(C([H])([H])[H])(C([H])([H])[H])C([H])([H])[H])C([H])(C(=O)N([H])C2([H])c4c([H])c([H])c([H])c([H])c4C([H])([H])C([H])([H])C2([H])[H])C3([H])[H])sc1N([H])C(=O)N1C([H])([H])C([H])([H])C([H])([H])C([H])(n2nc(-c3c([H])c([H])c(Oc4c([H])c([H])c(F)c([H])c4F)c([H])c3[H])c(C(=O)N([H])[H])c2N([H])[H])C1([H])[H]

$$$$
91:0:0
     RDKit          3D

 93101  0  0  1  0  0  0  0  0999 V2000
  -30.2530  -18.3040   19.6520 C   0  0  0  0  0  0  0  0  0  0  0  0
  -29.2090  -18.3000   20.5500 C   0  0  0  0  0  0  0  0  0  0  0  0
  -29.5990  -20.5330   19.5420 C   0  0  0  0  0  0  0  0  0  0  0  0
  -28.7310  -17.1810   21.4180 C   0  0  0  0  0  1  0  0  0  0  0  0
  -30.4610  -19.5990   19.0920 N   0  0  0  0  0  0  0  0  0  0  0  0
  -29.5440  -21.9080   19.2310 N   0  0  0  0  0  0  0  0  0  0  0  0
  -28.4360  -19.8640   20.6720 S   0  0  0  0  0  0  0  0  0  0  0  0
  -28.7920  -22.3570   19.7450 H   0  0  0  0  0  0  0  0  0  0  0  0
  -31.1990  -17.1320   19.3330 C   0  0  0  0  0  2  0  0  0  0  0  0
  -31.5260  -14.6320   19.5210 C   0  0  0  0  0  0  0  0  0  0  0  0
  -31.1770  -12.3120   18.7460 C   0  0  0  0  0  2  0  0  0  0  0  0
  -30.1340  -12.3400   17.6070 C   0  0  0  0  0  2  0  0  0  0  0  0
  -28.7020  -12.2630   18.1730 C   0  0  0  0  0  2  0  0  0  0  0  0
  -28.4610  -13.2730   19.3270 C   0  0  0  0  0  3  0  0  0  0  0  0
  -29.6080  -13.2230   20.3620 C   0  0  0  0  0  2  0  0  0  0  0  0
  -30.8710  -13.4440   19.6420 N   0  0  0  0  0  0  0  0  0  0  0  0
  -32.6600  -14.7070   19.0400 O   0  0  0  0  0  0  0  0  0  0  0  0
  -30.7870  -15.7540   19.7220 N   0  0  0  0  0  0  0  0  0  0  0  0
  -29.8440  -15.6360   20.0480 H   0  0  0  0  0  0  0  0  0  0  0  0
  -26.2550  -14.0210   20.4130 C   0  0  0  0  0  0  0  0  0  0  0  0
  -25.1650  -13.3170   20.8480 C   0  0  0  0  0  0  0  0  0  0  0  0
  -25.4730  -11.9380   20.6350 C   0  0  0  0  0  0  0  0  0  0  0  0
  -27.1610  -13.0750   19.9600 N   0  0  0  0  0  0  0  0  0  0  0  0
  -26.7040  -11.8120   20.1560 N   0  0  0  0  0  0  0  0  0  0  0  0
  -24.6480  -10.7370   20.8050 C   0  0  0  0  0  0  0  0  0  0  0  0
  -25.0030   -9.7180   21.7180 C   0  0  0  0  0  3  0  0  0  0  0  0
  -24.1830   -8.5800   21.8750 C   0  0  0  0  0  3  0  0  0  0  0  0
  -22.9930   -8.4520   21.1180 C   0  0  0  0  0  0  0  0  0  0  0  0
  -22.6550   -9.4580   20.1960 C   0  0  0  0  0  3  0  0  0  0  0  0
  -23.4760  -10.5870   20.0360 C   0  0  0  0  0  3  0  0  0  0  0  0
  -22.1490   -7.3700   21.1850 O   0  0  0  0  0  0  0  0  0  0  0  0
  -21.9010   -6.7230   22.3700 C   0  0  0  0  0  0  0  0  0  0  0  0
  -21.3250   -7.3860   23.4740 C   0  0  0  0  0  3  0  0  0  0  0  0
  -21.0240   -6.6660   24.6480 C   0  0  0  0  0  3  0  0  0  0  0  0
  -21.2890   -5.2850   24.7150 C   0  0  0  0  0  0  0  0  0  0  0  0
  -21.8590   -4.6220   23.6140 C   0  0  0  0  0  3  0  0  0  0  0  0
  -22.1620   -5.3390   22.4430 C   0  0  0  0  0  0  0  0  0  0  0  0
  -22.6910   -4.6920   21.3770 F   0  0  0  0  0  0  0  0  0  0  0  0
  -20.9940   -4.5910   25.8400 F   0  0  0  0  0  0  0  0  0  0  0  0
  -23.8670  -13.8920   21.3390 C   0  0  0  0  0  0  0  0  0  0  0  0
  -23.1940  -13.1980   22.2520 N   0  0  0  0  0  0  0  0  0  0  0  0
  -23.4680  -14.9880   20.9510 O   0  0  0  0  0  0  0  0  0  0  0  0
  -23.5320  -12.3090   22.5860 H   0  0  0  0  0  0  0  0  0  0  0  0
  -22.3280  -13.5640   22.6220 H   0  0  0  0  0  0  0  0  0  0  0  0
  -26.5390  -15.3810   20.3400 N   0  0  0  0  0  0  0  0  0  0  0  0
  -25.8530  -16.0830   20.5940 H   0  0  0  0  0  0  0  0  0  0  0  0
  -27.3640  -15.7770   19.9080 H   0  0  0  0  0  0  0  0  0  0  0  0
  -30.3180  -22.8730   18.4370 C   0  0  0  0  0  2  0  0  0  0  0  0
  -29.6990  -24.3200   18.2300 C   0  0  0  0  0  3  0  0  0  0  0  0
  -30.4990  -24.8900   17.2110 O   0  0  0  0  0  0  0  0  0  0  0  0
  -30.3780  -24.3620   16.4280 H   0  0  0  0  0  0  0  0  0  0  0  0
  -29.7360  -25.3140   19.4510 C   0  0  0  0  0  2  0  0  0  0  0  0
  -29.4630  -26.7330   19.2180 O   0  0  0  0  0  0  0  0  0  0  0  0
  -24.9060  -30.6890   23.0870 C   0  0  0  0  0  0  0  0  0  0  0  0
  -28.1870  -27.2540   19.3590 C   0  0  0  0  0  0  0  0  0  0  0  0
  -23.9280  -29.4620   21.1770 C   0  0  0  0  0  3  0  0  0  0  0  0
  -25.6010  -28.4120   19.5550 C   0  0  0  0  0  0  0  0  0  0  0  0
  -26.3810  -30.1840   21.1370 C   0  0  0  0  0  2  0  0  0  0  0  0
  -26.6690  -28.9730   20.2670 C   0  0  0  0  0  0  0  0  0  0  0  0
  -27.9650  -28.4070   20.1600 C   0  0  0  0  0  3  0  0  0  0  0  0
  -27.1000  -26.7130   18.6480 C   0  0  0  0  0  3  0  0  0  0  0  0
  -25.8130  -27.2820   18.7450 C   0  0  0  0  0  3  0  0  0  0  0  0
  -24.2490  -29.0750   19.7090 C   0  0  0  0  0  2  0  0  0  0  0  0
  -25.0870  -30.1210   21.8620 N   0  0  0  0  0  0  0  0  0  0  0  0
  -23.7930  -30.7080   23.6290 O   0  0  0  0  0  0  0  0  0  0  0  0
  -23.4150  -28.2070   21.9190 C   0  0  0  0  0  0  0  0  0  0  0  0
  -22.1480  -27.8370   21.6670 N   0  0  0  0  0  0  0  0  0  0  0  0
  -24.1560  -27.5760   22.6770 O   0  0  0  0  0  0  0  0  0  0  0  0
  -21.6070  -28.4010   21.0250 H   0  0  0  0  0  0  0  0  0  0  0  0
  -19.0280  -26.0160   21.6930 C   0  0  0  0  0  0  0  0  0  0  0  0
  -21.4720  -26.6630   22.2210 C   0  0  0  0  0  3  0  0  0  0  0  0
  -21.8660  -25.3890   21.4420 C   0  0  0  0  0  2  0  0  0  0  0  0
  -20.9030  -25.0680   20.2960 C   0  0  0  0  0  2  0  0  0  0  0  0
  -19.4880  -24.8460   20.8400 C   0  0  0  0  0  2  0  0  0  0  0  0
  -19.9590  -26.8780   22.3330 C   0  0  0  0  0  0  0  0  0  0  0  0
  -19.4780  -27.9650   23.0960 C   0  0  0  0  0  3  0  0  0  0  0  0
  -18.0950  -28.2010   23.2190 C   0  0  0  0  0  3  0  0  0  0  0  0
  -17.1780  -27.3420   22.5880 C   0  0  0  0  0  3  0  0  0  0  0  0
  -17.6430  -26.2500   21.8360 C   0  0  0  0  0  3  0  0  0  0  0  0
  -26.0850  -31.3690   23.8560 C   0  0  0  0  0  3  0  0  0  0  0  0
  -25.6430  -32.7140   24.2480 N   0  0  0  0  0  0  0  0  0  0  0  0
  -25.9790  -33.8440   23.6080 C   0  0  0  0  0  0  0  0  0  0  0  0
  -26.7650  -33.8640   22.6560 O   0  0  0  0  0  0  0  0  0  0  0  0
  -24.9530  -32.7680   24.9830 H   0  0  0  0  0  0  0  0  0  0  0  0
  -24.1810  -35.5480   23.1800 C   0  0  0  0  0  1  0  0  0  0  0  0
  -25.3460  -35.1580   24.1050 C   0  0  0  0  0  3  0  0  0  0  0  0
  -27.2950  -36.1070   25.2570 C   0  0  0  0  0  1  0  0  0  0  0  0
  -26.3090  -36.2780   24.1930 N   0  0  0  0  0  0  0  0  0  0  0  0
  -25.8250  -37.1590   24.3460 H   0  0  0  0  0  0  0  0  0  0  0  0
  -26.5590  -30.5490   25.1180 C   0  0  1  0  0  0  0  0  0  0  0  0
  -25.4090  -30.1690   26.0780 C   0  0  0  0  0  1  0  0  0  0  0  0
  -27.2660  -29.2430   24.6890 C   0  0  0  0  0  1  0  0  0  0  0  0
  -27.6000  -31.3710   25.9160 C   0  0  0  0  0  1  0  0  0  0  0  0
  1  2  2  0
  2  7  1  0
  2  4  1  0
  3  7  1  0
  5  3  2  0
  5  1  1  0
  6  3  1  0
  6  8  1  0
  9  1  1  0
  9 18  1  0
 10 16  1  0
 10 18  1  0
 11 16  1  0
 12 13  1  0
 12 11  1  0
 14 13  1  0
 14 23  1  0
 14 15  1  0
 16 15  1  0
 17 10  2  0
 18 19  1  0
 20 21  2  0
 21 40  1  0
 22 25  1  0
 22 21  1  0
 23 24  1  0
 23 20  1  0
 24 22  2  0
 25 26  1  0
 26 27  2  0
 28 31  1  0
 28 27  1  0
 29 28  2  0
 30 29  1  0
 30 25  2  0
 31 32  1  0
 32 37  2  0
 32 33  1  0
 33 34  2  0
 34 35  1  0
 35 39  1  0
 36 35  2  0
 37 36  1  0
 38 37  1  0
 40 41  1  0
 41 43  1  0
 41 44  1  0
 42 40  2  0
 45 20  1  0
 45 46  1  0
 47 45  1  0
 48  6  1  0
 49 48  1  0
 49 52  1  0
 50 49  1  0
 51 50  1  0
 53 55  1  0
 53 52  1  0
 54 65  2  0
 55 60  1  0
 56 64  1  0
 56 66  1  0
 57 63  1  0
 57 59  1  0
 58 64  1  0
 59 58  1  0
 60 59  2  0
 61 62  1  0
 61 55  2  0
 62 57  2  0
 63 56  1  0
 64 54  1  0
 66 68  2  0
 67 66  1  0
 69 67  1  0
 70 79  2  0
 70 75  1  0
 71 67  1  0
 71 75  1  0
 72 71  1  0
 73 74  1  0
 73 72  1  0
 74 70  1  0
 75 76  2  0
 76 77  1  0
 78 77  2  0
 79 78  1  0
 80 54  1  0
 80 81  1  0
 80 90  1  0
 81 84  1  0
 82 86  1  0
 82 81  1  0
 83 82  2  0
 86 85  1  0
 86 88  1  0
 88 89  1  0
 88 87  1  0
 90 93  1  1
 90 91  1  0
 92 90  1  0
M  ISO  4  10 100  18 100  52 101  53 101
M  END
>  <TORSDO>  (92) 
F 21

>  <SCORE>  (92) 
-9.055

>  <name>  (92) 
91

>  <ligand_id>  (92) 
91

>  <original_smiles>  (92) 
[H]OC([H])(C([H])([H])Oc1c([H])c([H])c2c(c1[H])C([H])([H])N(C(=O)C([H])(N([H])C(=O)C([H])(N([H])C([H])([H])[H])C([H])([H])[H])C(C([H])([H])[H])(C([H])([H])[H])C([H])([H])[H])C([H])(C(=O)N([H])C1([H])c3c([H])c([H])c([H])c([H])c3C([H])([H])C([H])([H])C1([H])[H])C2([H])[H])C([H])([H])N([H])c1nc(C([H])([H])N([H])C(=O)N2C([H])([H])C([H])([H])C([H])([H])C([H])(n3nc(-c4c([H])c([H])c(Oc5c([H])c([H])c(F)c([H])c5F)c([H])c4[H])c(C(=O)N([H])[H])c3N([H])[H])C2([H])[H])c(C([H])([H])[H])s1

>  <smiles>  (92) 
[H]OC([H])(C([H])([H])Oc1c([H])c([H])c2c(c1[H])C([H])([H])N(C(=O)C([H])(N([H])C(=O)C([H])(N([H])C([H])([H])[H])C([H])([H])[H])C(C([H])([H])[H])(C([H])([H])[H])C([H])([H])[H])C([H])(C(=O)N([H])C1([H])c3c([H])c([H])c([H])c([H])c3C([H])([H])C([H])([H])C1([H])[H])C2([H])[H])C([H])([H])N([H])c1nc(C([H])([H])N([H])C(=O)N2C([H])([H])C([H])([H])C([H])([H])C([H])(n3nc(-c4c([H])c([H])c(Oc5c([H])c([H])c(F)c([H])c5F)c([H])c4[H])c(C(=O)N([H])[H])c3N([H])[H])C2([H])[H])c(C([H])([H])[H])s1

$$$$
92:0:0
     RDKit          3D

 90 98  0  0  1  0  0  0  0  0999 V2000
  -28.7130  -22.7040   19.5260 N   0  0  0  0  0  0  0  0  0  0  0  0
  -28.5050  -22.8620   18.5400 H   0  0  0  0  0  0  0  0  0  0  0  0
  -29.1080  -20.3500   18.8740 C   0  0  0  0  0  3  0  0  0  0  0  0
  -29.4880  -20.8590   21.1390 C   0  0  0  0  0  3  0  0  0  0  0  0
  -29.0940  -21.3590   19.8710 C   0  0  0  0  0  0  0  0  0  0  0  0
  -29.9070  -18.7200   20.3060 C   0  0  0  0  0  0  0  0  0  0  0  0
  -29.5120  -19.0710   19.0840 N   0  0  0  0  0  0  0  0  0  0  0  0
  -29.8840  -19.5670   21.3430 N   0  0  0  0  0  0  0  0  0  0  0  0
  -30.6410  -17.3460   20.4630 C   0  0  0  0  0  3  0  0  0  0  0  0
  -29.8340  -15.9860   20.3890 C   0  0  0  0  0  3  0  0  0  0  0  0
  -30.6710  -14.6620   20.1640 C   0  0  0  0  0  0  0  0  0  0  0  0
  -30.4220  -12.4320   19.1080 C   0  0  0  0  0  2  0  0  0  0  0  0
  -29.4490  -12.5990   17.9200 C   0  0  0  0  0  2  0  0  0  0  0  0
  -27.9820  -12.4640   18.3790 C   0  0  0  0  0  2  0  0  0  0  0  0
  -27.6680  -13.2980   19.6490 C   0  0  0  0  0  3  0  0  0  0  0  0
  -28.7580  -13.1200   20.7270 C   0  0  0  0  0  2  0  0  0  0  0  0
  -30.0540  -13.4410   20.1210 N   0  0  0  0  0  0  0  0  0  0  0  0
  -31.8500  -14.7780   19.8110 O   0  0  0  0  0  0  0  0  0  0  0  0
  -25.2970  -13.8920   20.4310 C   0  0  0  0  0  0  0  0  0  0  0  0
  -24.2400  -13.1170   20.8210 C   0  0  0  0  0  0  0  0  0  0  0  0
  -24.7030  -11.7660   20.7780 C   0  0  0  0  0  0  0  0  0  0  0  0
  -26.3360  -13.0130   20.1690 N   0  0  0  0  0  0  0  0  0  0  0  0
  -25.9850  -11.7290   20.4410 N   0  0  0  0  0  0  0  0  0  0  0  0
  -23.9810  -10.5030   20.9830 C   0  0  0  0  0  0  0  0  0  0  0  0
  -24.4290   -9.5360   21.9090 C   0  0  0  0  0  3  0  0  0  0  0  0
  -23.7070   -8.3380   22.0990 C   0  0  0  0  0  3  0  0  0  0  0  0
  -22.5210   -8.0990   21.3640 C   0  0  0  0  0  0  0  0  0  0  0  0
  -22.0940   -9.0560   20.4250 C   0  0  0  0  0  3  0  0  0  0  0  0
  -22.8170  -10.2450   20.2330 C   0  0  0  0  0  3  0  0  0  0  0  0
  -21.7640   -6.9560   21.4670 O   0  0  0  0  0  0  0  0  0  0  0  0
  -21.7290   -6.2200   22.6240 C   0  0  0  0  0  0  0  0  0  0  0  0
  -21.3040   -6.7790   23.8500 C   0  0  0  0  0  3  0  0  0  0  0  0
  -21.2140   -5.9670   24.9980 C   0  0  0  0  0  3  0  0  0  0  0  0
  -21.5390   -4.5990   24.9230 C   0  0  0  0  0  0  0  0  0  0  0  0
  -21.9580   -4.0420   23.7030 C   0  0  0  0  0  3  0  0  0  0  0  0
  -22.0510   -4.8500   22.5560 C   0  0  0  0  0  0  0  0  0  0  0  0
  -22.4320   -4.3030   21.3770 F   0  0  0  0  0  0  0  0  0  0  0  0
  -21.4480   -3.8170   26.0250 F   0  0  0  0  0  0  0  0  0  0  0  0
  -22.8470  -13.5910   21.1290 C   0  0  0  0  0  0  0  0  0  0  0  0
  -22.1440  -12.8920   22.0110 N   0  0  0  0  0  0  0  0  0  0  0  0
  -22.3970  -14.6200   20.6240 O   0  0  0  0  0  0  0  0  0  0  0  0
  -22.5250  -12.0580   22.4370 H   0  0  0  0  0  0  0  0  0  0  0  0
  -21.2140  -13.1890   22.2630 H   0  0  0  0  0  0  0  0  0  0  0  0
  -25.4580  -15.2630   20.2490 N   0  0  0  0  0  0  0  0  0  0  0  0
  -24.7010  -15.9260   20.3830 H   0  0  0  0  0  0  0  0  0  0  0  0
  -26.3040  -15.6940   19.9000 H   0  0  0  0  0  0  0  0  0  0  0  0
  -27.4180  -23.8220   21.3260 C   0  0  0  0  0  1  0  0  0  0  0  0
  -28.6170  -23.9260   20.3800 C   0  0  0  0  0  3  0  0  0  0  0  0
  -28.5300  -25.2710   19.5240 C   0  0  0  0  0  2  0  0  0  0  0  0
  -28.4080  -26.5770   20.2000 O   0  0  0  0  0  0  0  0  0  0  0  0
  -24.6090  -31.8800   23.2540 C   0  0  0  0  0  0  0  0  0  0  0  0
  -27.2410  -27.3540   20.1600 C   0  0  0  0  0  0  0  0  0  0  0  0
  -23.4070  -30.4820   21.6110 C   0  0  0  0  0  3  0  0  0  0  0  0
  -24.8580  -28.9420   20.1800 C   0  0  0  0  0  0  0  0  0  0  0  0
  -25.9450  -30.8100   21.4290 C   0  0  0  0  0  2  0  0  0  0  0  0
  -26.0250  -29.4390   20.7700 C   0  0  0  0  0  0  0  0  0  0  0  0
  -27.2160  -28.6560   20.7500 C   0  0  0  0  0  3  0  0  0  0  0  0
  -26.0390  -26.8950   19.5760 C   0  0  0  0  0  3  0  0  0  0  0  0
  -24.8640  -27.6740   19.5790 C   0  0  0  0  0  3  0  0  0  0  0  0
  -23.6150  -29.8070   20.2310 C   0  0  0  0  0  2  0  0  0  0  0  0
  -24.6720  -31.0730   22.1530 N   0  0  0  0  0  0  0  0  0  0  0  0
  -23.5250  -32.1560   23.7870 O   0  0  0  0  0  0  0  0  0  0  0  0
  -22.7480  -29.4620   22.5680 C   0  0  0  0  0  0  0  0  0  0  0  0
  -21.4220  -29.2800   22.4390 N   0  0  0  0  0  0  0  0  0  0  0  0
  -23.4280  -28.8320   23.3840 O   0  0  0  0  0  0  0  0  0  0  0  0
  -20.9310  -29.8430   21.7580 H   0  0  0  0  0  0  0  0  0  0  0  0
  -18.0480  -28.0840   22.9390 C   0  0  0  0  0  0  0  0  0  0  0  0
  -20.6060  -28.3390   23.2050 C   0  0  0  0  0  3  0  0  0  0  0  0
  -20.7060  -26.9100   22.6250 C   0  0  0  0  0  2  0  0  0  0  0  0
  -19.6050  -26.5910   21.6110 C   0  0  0  0  0  2  0  0  0  0  0  0
  -18.2230  -26.7370   22.2550 C   0  0  0  0  0  2  0  0  0  0  0  0
  -19.1680  -28.8430   23.3690 C   0  0  0  0  0  0  0  0  0  0  0  0
  -18.9520  -30.1050   23.9640 C   0  0  0  0  0  3  0  0  0  0  0  0
  -17.6480  -30.6090   24.1310 C   0  0  0  0  0  3  0  0  0  0  0  0
  -16.5420  -29.8460   23.7180 C   0  0  0  0  0  3  0  0  0  0  0  0
  -16.7420  -28.5840   23.1300 C   0  0  0  0  0  3  0  0  0  0  0  0
  -25.8910  -32.5110   23.8800 C   0  0  0  0  0  3  0  0  0  0  0  0
  -25.5850  -33.9120   24.2000 N   0  0  0  0  0  0  0  0  0  0  0  0
  -25.9190  -34.9610   23.4380 C   0  0  0  0  0  0  0  0  0  0  0  0
  -26.5900  -34.8520   22.4070 O   0  0  0  0  0  0  0  0  0  0  0  0
  -24.9900  -34.0720   25.0000 H   0  0  0  0  0  0  0  0  0  0  0  0
  -24.1920  -36.7570   23.0840 C   0  0  0  0  0  1  0  0  0  0  0  0
  -25.4360  -36.3530   23.8910 C   0  0  0  0  0  3  0  0  0  0  0  0
  -27.5720  -37.2410   24.7160 C   0  0  0  0  0  1  0  0  0  0  0  0
  -26.4700  -37.4050   23.7720 N   0  0  0  0  0  0  0  0  0  0  0  0
  -26.0640  -38.3270   23.9160 H   0  0  0  0  0  0  0  0  0  0  0  0
  -26.4040  -31.7460   25.1610 C   0  0  1  0  0  0  0  0  0  0  0  0
  -25.3080  -31.5100   26.2260 C   0  0  0  0  0  1  0  0  0  0  0  0
  -26.9870  -30.3650   24.7810 C   0  0  0  0  0  1  0  0  0  0  0  0
  -27.5510  -32.5460   25.8250 C   0  0  0  0  0  1  0  0  0  0  0  0
  1  5  1  0
  1 48  1  0
  2  1  1  0
  3  7  1  0
  3  5  2  0
  4  8  2  0
  5  4  1  0
  6  9  1  0
  6  8  1  0
  7  6  2  0
 10  9  2  0
 11 10  1  0
 12 17  1  0
 13 14  1  0
 13 12  1  0
 15 14  1  0
 15 22  1  0
 15 16  1  0
 17 11  1  0
 17 16  1  0
 18 11  2  0
 19 20  2  0
 20 39  1  0
 21 20  1  0
 21 24  1  0
 22 19  1  0
 22 23  1  0
 23 21  2  0
 24 25  1  0
 25 26  2  0
 27 30  1  0
 27 26  1  0
 28 27  2  0
 29 28  1  0
 29 24  2  0
 30 31  1  0
 31 32  1  0
 32 33  2  0
 34 33  1  0
 34 38  1  0
 35 34  2  0
 36 31  2  0
 36 35  1  0
 37 36  1  0
 39 40  1  0
 40 43  1  0
 40 42  1  0
 41 39  2  0
 44 45  1  0
 44 19  1  0
 46 44  1  0
 48 47  1  0
 49 50  1  0
 49 48  1  0
 51 62  2  0
 52 50  1  0
 52 57  1  0
 53 61  1  0
 53 63  1  0
 54 60  1  0
 54 56  1  0
 55 61  1  0
 56 55  1  0
 57 56  2  0
 58 59  1  0
 58 52  2  0
 59 54  2  0
 60 53  1  0
 61 51  1  0
 63 65  2  0
 64 63  1  0
 66 64  1  0
 67 76  2  0
 67 72  1  0
 68 64  1  0
 68 72  1  0
 69 68  1  0
 70 71  1  0
 70 69  1  0
 71 67  1  0
 72 73  2  0
 73 74  1  0
 75 74  2  0
 76 75  1  0
 77 51  1  0
 77 78  1  0
 77 87  1  0
 78 81  1  0
 79 83  1  0
 79 78  1  0
 80 79  2  0
 83 82  1  0
 85 83  1  0
 85 86  1  0
 85 84  1  0
 87 90  1  1
 87 88  1  0
 89 87  1  0
M  ISO  4  10 100  11 100  49 101  50 101
M  END
>  <TORSDO>  (93) 
F 21

>  <SCORE>  (93) 
-13.418

>  <name>  (93) 
92

>  <ligand_id>  (93) 
92

>  <original_smiles>  (93) 
[H]c1nc(C([H])([H])C([H])([H])C(=O)N2C([H])([H])C([H])([H])C([H])([H])C([H])(n3nc(-c4c([H])c([H])c(Oc5c([H])c([H])c(F)c([H])c5F)c([H])c4[H])c(C(=O)N([H])[H])c3N([H])[H])C2([H])[H])nc([H])c1N([H])C([H])(C([H])([H])[H])C([H])([H])Oc1c([H])c([H])c2c(c1[H])C([H])([H])N(C(=O)C([H])(N([H])C(=O)C([H])(N([H])C([H])([H])[H])C([H])([H])[H])C(C([H])([H])[H])(C([H])([H])[H])C([H])([H])[H])C([H])(C(=O)N([H])C1([H])c3c([H])c([H])c([H])c([H])c3C([H])([H])C([H])([H])C1([H])[H])C2([H])[H]

>  <smiles>  (93) 
[H]c1nc(C([H])([H])C([H])([H])C(=O)N2C([H])([H])C([H])([H])C([H])([H])C([H])(n3nc(-c4c([H])c([H])c(Oc5c([H])c([H])c(F)c([H])c5F)c([H])c4[H])c(C(=O)N([H])[H])c3N([H])[H])C2([H])[H])nc([H])c1N([H])C([H])(C([H])([H])[H])C([H])([H])Oc1c([H])c([H])c2c(c1[H])C([H])([H])N(C(=O)C([H])(N([H])C(=O)C([H])(N([H])C([H])([H])[H])C([H])([H])[H])C(C([H])([H])[H])(C([H])([H])[H])C([H])([H])[H])C([H])(C(=O)N([H])C1([H])c3c([H])c([H])c([H])c([H])c3C([H])([H])C([H])([H])C1([H])[H])C2([H])[H]

$$$$
93:0:0
     RDKit          3D

 93101  0  0  1  0  0  0  0  0999 V2000
  -30.1090  -17.3350   18.8930 C   0  0  0  0  0  3  0  0  0  0  0  0
  -29.9580  -17.3430   20.3020 C   0  0  0  0  0  0  0  0  0  0  0  0
  -29.6570  -19.7610   20.1450 C   0  0  0  0  0  0  0  0  0  0  0  0
  -29.8440  -19.6410   18.7400 C   0  0  0  0  0  0  0  0  0  0  0  0
  -30.0530  -18.4460   18.1300 N   0  0  0  0  0  0  0  0  0  0  0  0
  -29.7190  -18.5880   20.9090 N   0  0  0  0  0  0  0  0  0  0  0  0
  -29.4820  -21.0690   20.7630 N   0  0  0  0  0  0  0  0  0  0  0  0
  -29.5920  -21.0520   21.7700 H   0  0  0  0  0  0  0  0  0  0  0  0
  -30.6790  -14.8740   20.6000 C   0  0  0  0  0  0  0  0  0  0  0  0
  -30.5180  -12.5560   19.6960 C   0  0  0  0  0  2  0  0  0  0  0  0
  -29.6590  -12.6100   18.4140 C   0  0  0  0  0  2  0  0  0  0  0  0
  -28.1640  -12.4550   18.7530 C   0  0  0  0  0  2  0  0  0  0  0  0
  -27.7270  -13.3670   19.9310 C   0  0  0  0  0  3  0  0  0  0  0  0
  -28.7190  -13.3190   21.1140 C   0  0  0  0  0  2  0  0  0  0  0  0
  -30.0550  -13.6430   20.5960 N   0  0  0  0  0  0  0  0  0  0  0  0
  -31.8390  -14.9680   20.1890 O   0  0  0  0  0  0  0  0  0  0  0  0
  -29.9630  -16.0120   20.9550 N   0  0  0  0  0  0  0  0  0  0  0  0
  -29.2020  -15.8580   21.5990 H   0  0  0  0  0  0  0  0  0  0  0  0
  -25.3130  -13.9730   20.5530 C   0  0  0  0  0  0  0  0  0  0  0  0
  -24.2290  -13.2130   20.8940 C   0  0  0  0  0  0  0  0  0  0  0  0
  -24.6820  -11.8580   20.8900 C   0  0  0  0  0  0  0  0  0  0  0  0
  -26.3600  -13.0870   20.3610 N   0  0  0  0  0  0  0  0  0  0  0  0
  -25.9830  -11.8080   20.6220 N   0  0  0  0  0  0  0  0  0  0  0  0
  -23.9360  -10.6040   21.0660 C   0  0  0  0  0  0  0  0  0  0  0  0
  -24.3320   -9.6350   22.0180 C   0  0  0  0  0  3  0  0  0  0  0  0
  -23.5860   -8.4470   22.1810 C   0  0  0  0  0  3  0  0  0  0  0  0
  -22.4280   -8.2200   21.3960 C   0  0  0  0  0  0  0  0  0  0  0  0
  -22.0550   -9.1770   20.4380 C   0  0  0  0  0  3  0  0  0  0  0  0
  -22.8000  -10.3560   20.2710 C   0  0  0  0  0  3  0  0  0  0  0  0
  -21.6580   -7.0840   21.4680 O   0  0  0  0  0  0  0  0  0  0  0  0
  -21.5780   -6.3440   22.6200 C   0  0  0  0  0  0  0  0  0  0  0  0
  -21.1280   -6.9020   23.8360 C   0  0  0  0  0  3  0  0  0  0  0  0
  -20.9900   -6.0850   24.9770 C   0  0  0  0  0  3  0  0  0  0  0  0
  -21.2950   -4.7130   24.9030 C   0  0  0  0  0  0  0  0  0  0  0  0
  -21.7380   -4.1560   23.6900 C   0  0  0  0  0  3  0  0  0  0  0  0
  -21.8770   -4.9680   22.5520 C   0  0  0  0  0  0  0  0  0  0  0  0
  -22.2830   -4.4230   21.3810 F   0  0  0  0  0  0  0  0  0  0  0  0
  -21.1580   -3.9270   25.9950 F   0  0  0  0  0  0  0  0  0  0  0  0
  -22.8270  -13.7060   21.1130 C   0  0  0  0  0  0  0  0  0  0  0  0
  -22.0610  -13.0260   21.9610 N   0  0  0  0  0  0  0  0  0  0  0  0
  -22.4200  -14.7330   20.5720 O   0  0  0  0  0  0  0  0  0  0  0  0
  -22.4000  -12.1980   22.4290 H   0  0  0  0  0  0  0  0  0  0  0  0
  -21.1210  -13.3430   22.1460 H   0  0  0  0  0  0  0  0  0  0  0  0
  -25.4880  -15.3430   20.3700 N   0  0  0  0  0  0  0  0  0  0  0  0
  -24.7060  -15.9850   20.4150 H   0  0  0  0  0  0  0  0  0  0  0  0
  -26.3400  -15.7850   20.0560 H   0  0  0  0  0  0  0  0  0  0  0  0
  -27.1830  -21.9780   20.8070 C   0  0  0  0  0  1  0  0  0  0  0  0
  -28.6000  -22.2050   20.2480 C   0  0  0  0  0  3  0  0  0  0  0  0
  -29.0420  -23.7610   20.5120 C   0  0  0  0  0  3  0  0  0  0  0  0
  -28.1600  -24.9870   19.8920 C   0  0  0  0  0  3  0  0  0  0  0  0
  -28.4050  -26.4610   20.1540 O   0  0  0  0  0  0  0  0  0  0  0  0
  -24.6380  -31.8660   23.2070 C   0  0  0  0  0  0  0  0  0  0  0  0
  -27.3200  -27.3700   20.0650 C   0  0  0  0  0  0  0  0  0  0  0  0
  -23.4710  -30.4850   21.5320 C   0  0  0  0  0  3  0  0  0  0  0  0
  -24.9510  -29.0030   20.0610 C   0  0  0  0  0  0  0  0  0  0  0  0
  -26.0070  -30.8450   21.3600 C   0  0  0  0  0  2  0  0  0  0  0  0
  -26.1110  -29.4770   20.6850 C   0  0  0  0  0  0  0  0  0  0  0  0
  -27.2990  -28.6750   20.6740 C   0  0  0  0  0  3  0  0  0  0  0  0
  -26.1400  -26.9860   19.3850 C   0  0  0  0  0  3  0  0  0  0  0  0
  -24.9740  -27.7740   19.3890 C   0  0  0  0  0  3  0  0  0  0  0  0
  -23.7000  -29.8560   20.1330 C   0  0  0  0  0  2  0  0  0  0  0  0
  -24.7250  -31.0830   22.0910 N   0  0  0  0  0  0  0  0  0  0  0  0
  -23.5450  -32.1110   23.7410 O   0  0  0  0  0  0  0  0  0  0  0  0
  -22.8230  -29.4330   22.4650 C   0  0  0  0  0  0  0  0  0  0  0  0
  -21.4980  -29.2410   22.3390 N   0  0  0  0  0  0  0  0  0  0  0  0
  -23.5100  -28.7900   23.2640 O   0  0  0  0  0  0  0  0  0  0  0  0
  -21.0010  -29.8140   21.6720 H   0  0  0  0  0  0  0  0  0  0  0  0
  -18.1300  -28.0040   22.8310 C   0  0  0  0  0  0  0  0  0  0  0  0
  -20.6900  -28.2730   23.0840 C   0  0  0  0  0  3  0  0  0  0  0  0
  -20.7940  -26.8640   22.4570 C   0  0  0  0  0  2  0  0  0  0  0  0
  -19.6840  -26.5700   21.4430 C   0  0  0  0  0  2  0  0  0  0  0  0
  -18.3070  -26.6810   22.1050 C   0  0  0  0  0  2  0  0  0  0  0  0
  -19.2480  -28.7590   23.2750 C   0  0  0  0  0  0  0  0  0  0  0  0
  -19.0240  -29.9980   23.9150 C   0  0  0  0  0  3  0  0  0  0  0  0
  -17.7170  -30.4800   24.1140 C   0  0  0  0  0  3  0  0  0  0  0  0
  -16.6150  -29.7230   23.6830 C   0  0  0  0  0  3  0  0  0  0  0  0
  -16.8230  -28.4850   23.0480 C   0  0  0  0  0  3  0  0  0  0  0  0
  -25.9000  -32.5140   23.8510 C   0  0  0  0  0  3  0  0  0  0  0  0
  -26.3980  -31.7480   25.1390 C   0  0  1  0  0  0  0  0  0  0  0  0
  -25.2860  -31.5090   26.1900 C   0  0  0  0  0  1  0  0  0  0  0  0
  -26.9930  -30.3740   24.7560 C   0  0  0  0  0  1  0  0  0  0  0  0
  -27.5330  -32.5490   25.8190 C   0  0  0  0  0  1  0  0  0  0  0  0
  -25.5730  -33.9100   24.1780 N   0  0  0  0  0  0  0  0  0  0  0  0
  -25.8960  -34.9640   23.4170 C   0  0  0  0  0  0  0  0  0  0  0  0
  -26.5720  -34.8650   22.3900 O   0  0  0  0  0  0  0  0  0  0  0  0
  -24.9720  -34.0580   24.9750 H   0  0  0  0  0  0  0  0  0  0  0  0
  -24.1400  -36.7330   23.0660 C   0  0  0  0  0  1  0  0  0  0  0  0
  -25.3930  -36.3500   23.8700 C   0  0  0  0  0  3  0  0  0  0  0  0
  -27.5210  -37.2680   24.6850 C   0  0  0  0  0  1  0  0  0  0  0  0
  -26.4130  -37.4160   23.7450 N   0  0  0  0  0  0  0  0  0  0  0  0
  -25.9950  -38.3330   23.8870 H   0  0  0  0  0  0  0  0  0  0  0  0
  -29.4410  -20.6060   16.5950 C   0  0  0  0  0  1  0  0  0  0  0  0
  -29.8860  -20.7580   17.9370 O   0  0  0  0  0  0  0  0  0  0  0  0
  1  2  2  0
  2  6  1  0
  2 17  1  0
  3  7  1  0
  3  6  2  0
  4  3  1  0
  5  4  2  0
  5  1  1  0
  7  8  1  0
  9 17  1  0
 10 15  1  0
 11 12  1  0
 11 10  1  0
 13 12  1  0
 13 22  1  0
 13 14  1  0
 15  9  1  0
 15 14  1  0
 16  9  2  0
 17 18  1  0
 19 20  2  0
 20 39  1  0
 21 20  1  0
 21 24  1  0
 22 19  1  0
 22 23  1  0
 23 21  2  0
 24 25  1  0
 25 26  2  0
 27 30  1  0
 27 26  1  0
 28 27  2  0
 29 28  1  0
 29 24  2  0
 30 31  1  0
 31 32  1  0
 32 33  2  0
 34 33  1  0
 34 38  1  0
 35 34  2  0
 36 31  2  0
 36 35  1  0
 37 36  1  0
 39 40  1  0
 40 43  1  0
 40 42  1  0
 41 39  2  0
 44 45  1  0
 44 19  1  0
 46 44  1  0
 48 49  1  0
 48  7  1  0
 48 47  1  0
 50 51  1  0
 50 49  2  0
 52 63  2  0
 53 51  1  0
 53 58  1  0
 54 62  1  0
 54 64  1  0
 55 61  1  0
 55 57  1  0
 56 62  1  0
 57 56  1  0
 58 57  2  0
 59 60  1  0
 59 53  2  0
 60 55  2  0
 61 54  1  0
 62 52  1  0
 64 66  2  0
 65 64  1  0
 67 65  1  0
 68 77  2  0
 68 73  1  0
 69 65  1  0
 69 73  1  0
 70 69  1  0
 71 72  1  0
 71 70  1  0
 72 68  1  0
 73 74  2  0
 74 75  1  0
 76 75  2  0
 77 76  1  0
 78 52  1  0
 78 83  1  0
 78 79  1  0
 79 82  1  1
 79 80  1  0
 81 79  1  0
 83 86  1  0
 84 88  1  0
 84 83  1  0
 85 84  2  0
 88 87  1  0
 90 88  1  0
 90 91  1  0
 90 89  1  0
 92 93  1  0
 93  4  1  0
M  ISO  4   9 100  17 100  50 101  51 101
M  END
>  <TORSDO>  (94) 
F 20

>  <SCORE>  (94) 
-13.704

>  <name>  (94) 
93

>  <ligand_id>  (94) 
93

>  <original_smiles>  (94) 
[H]c1nc(OC([H])([H])[H])c(N([H])C([H])(C([H])([H])[H])C([H])([H])C([H])([H])Oc2c([H])c([H])c3c(c2[H])C([H])([H])N(C(=O)C([H])(N([H])C(=O)C([H])(N([H])C([H])([H])[H])C([H])([H])[H])C(C([H])([H])[H])(C([H])([H])[H])C([H])([H])[H])C([H])(C(=O)N([H])C2([H])c4c([H])c([H])c([H])c([H])c4C([H])([H])C([H])([H])C2([H])[H])C3([H])[H])nc1N([H])C(=O)N1C([H])([H])C([H])([H])C([H])([H])C([H])(n2nc(-c3c([H])c([H])c(Oc4c([H])c([H])c(F)c([H])c4F)c([H])c3[H])c(C(=O)N([H])[H])c2N([H])[H])C1([H])[H]

>  <smiles>  (94) 
[H]c1nc(OC([H])([H])[H])c(N([H])C([H])(C([H])([H])[H])C([H])([H])C([H])([H])Oc2c([H])c([H])c3c(c2[H])C([H])([H])N(C(=O)C([H])(N([H])C(=O)C([H])(N([H])C([H])([H])[H])C([H])([H])[H])C(C([H])([H])[H])(C([H])([H])[H])C([H])([H])[H])C([H])(C(=O)N([H])C2([H])c4c([H])c([H])c([H])c([H])c4C([H])([H])C([H])([H])C2([H])[H])C3([H])[H])nc1N([H])C(=O)N1C([H])([H])C([H])([H])C([H])([H])C([H])(n2nc(-c3c([H])c([H])c(Oc4c([H])c([H])c(F)c([H])c4F)c([H])c3[H])c(C(=O)N([H])[H])c2N([H])[H])C1([H])[H]

$$$$
