0:0:0
     RDKit          3D

 97105  0  0  1  0  0  0  0  0999 V2000
  -29.6360  -21.7280   20.7940 N   0  0  0  0  0  4  0  0  0  0  0  0
  -29.2040  -21.3470   21.6210 H   0  0  0  0  0  0  0  0  0  0  0  0
  -30.5120  -22.0990   21.1280 H   0  0  0  0  0  0  0  0  0  0  0  0
  -29.9110  -20.7890   18.3990 C   0  0  0  0  0  1  0  0  0  0  0  0
  -30.0070  -20.5400   19.9170 C   0  0  0  0  0  3  0  0  0  0  0  0
  -29.4290  -19.1080   20.3250 C   0  0  0  0  0  2  0  0  0  0  0  0
  -30.9130  -16.8800   22.8940 C   0  0  0  0  0  3  0  0  0  0  0  0
  -30.8270  -18.9540   22.3930 C   0  0  0  0  0  3  0  0  0  0  0  0
  -30.1880  -16.9720   21.7200 C   0  0  0  0  0  0  0  0  0  0  0  0
  -31.3160  -18.1390   23.3180 N   0  0  0  0  0  0  0  0  0  0  0  0
  -30.1270  -18.3630   21.4060 N   0  0  0  0  0  0  0  0  0  0  0  0
  -30.3080  -14.9140   20.4500 C   0  0  0  0  0  0  0  0  0  0  0  0
  -30.0870  -12.7710   19.2070 C   0  0  0  0  0  2  0  0  0  0  0  0
  -29.0870  -12.8870   18.0400 C   0  0  0  0  0  2  0  0  0  0  0  0
  -27.6500  -12.6220   18.5280 C   0  0  0  0  0  2  0  0  0  0  0  0
  -27.2950  -13.4150   19.8160 C   0  0  0  0  0  3  0  0  0  0  0  0
  -28.4070  -13.2970   20.8820 C   0  0  0  0  0  2  0  0  0  0  0  0
  -29.6710  -13.7200   20.2600 N   0  0  0  0  0  0  0  0  0  0  0  0
  -31.4290  -15.1230   19.9770 O   0  0  0  0  0  0  0  0  0  0  0  0
  -29.6090  -15.9470   21.0060 N   0  0  0  0  0  0  0  0  0  0  0  0
  -28.6120  -15.8230   21.1060 H   0  0  0  0  0  0  0  0  0  0  0  0
  -24.9040  -13.8290   20.6630 C   0  0  0  0  0  0  0  0  0  0  0  0
  -23.9060  -12.9730   21.0420 C   0  0  0  0  0  0  0  0  0  0  0  0
  -24.4480  -11.6560   20.9310 C   0  0  0  0  0  0  0  0  0  0  0  0
  -25.9900  -13.0290   20.3450 N   0  0  0  0  0  0  0  0  0  0  0  0
  -25.7230  -11.7150   20.5640 N   0  0  0  0  0  0  0  0  0  0  0  0
  -23.8100  -10.3430   21.0920 C   0  0  0  0  0  0  0  0  0  0  0  0
  -24.2880   -9.3980   22.0250 C   0  0  0  0  0  3  0  0  0  0  0  0
  -23.6450   -8.1500   22.1750 C   0  0  0  0  0  3  0  0  0  0  0  0
  -22.5080   -7.8400   21.3900 C   0  0  0  0  0  0  0  0  0  0  0  0
  -22.0520   -8.7750   20.4430 C   0  0  0  0  0  3  0  0  0  0  0  0
  -22.6960  -10.0130   20.2930 C   0  0  0  0  0  3  0  0  0  0  0  0
  -21.8360   -6.6420   21.4480 O   0  0  0  0  0  0  0  0  0  0  0  0
  -21.7710   -5.9090   22.6050 C   0  0  0  0  0  0  0  0  0  0  0  0
  -21.2100   -6.4340   23.7890 C   0  0  0  0  0  3  0  0  0  0  0  0
  -21.1010   -5.6220   24.9360 C   0  0  0  0  0  3  0  0  0  0  0  0
  -21.5400   -4.2850   24.8980 C   0  0  0  0  0  0  0  0  0  0  0  0
  -22.0940   -3.7600   23.7170 C   0  0  0  0  0  3  0  0  0  0  0  0
  -22.2050   -4.5690   22.5730 C   0  0  0  0  0  0  0  0  0  0  0  0
  -22.7190   -4.0490   21.4320 F   0  0  0  0  0  0  0  0  0  0  0  0
  -21.4280   -3.5020   25.9960 F   0  0  0  0  0  0  0  0  0  0  0  0
  -22.4930  -13.3480   21.3910 C   0  0  0  0  0  0  0  0  0  0  0  0
  -21.8450  -12.5700   22.2500 N   0  0  0  0  0  0  0  0  0  0  0  0
  -21.9750  -14.3700   20.9420 O   0  0  0  0  0  0  0  0  0  0  0  0
  -22.2800  -11.7460   22.6380 H   0  0  0  0  0  0  0  0  0  0  0  0
  -20.9010  -12.8010   22.5210 H   0  0  0  0  0  0  0  0  0  0  0  0
  -24.9720  -15.2110   20.5400 N   0  0  0  0  0  0  0  0  0  0  0  0
  -24.1600  -15.7970   20.6990 H   0  0  0  0  0  0  0  0  0  0  0  0
  -25.7590  -15.7240   20.1640 H   0  0  0  0  0  0  0  0  0  0  0  0
  -28.7910  -22.9440   20.4220 C   0  0  0  0  0  3  0  0  0  0  0  0
  -27.8530  -22.6880   19.2160 C   0  0  0  0  0  0  0  0  0  0  0  0
  -26.8990  -21.5040   19.2750 C   0  0  0  0  0  1  0  0  0  0  0  0
  -27.8420  -23.3990   18.2080 O   0  0  0  0  0  0  0  0  0  0  0  0
  -29.4770  -24.3930   20.3660 C   0  0  0  0  0  2  0  0  0  0  0  0
  -27.3120  -25.2620   21.6160 C   0  0  0  0  0  1  0  0  0  0  0  0
  -28.7150  -25.6210   21.0590 C   0  0  0  0  0  3  0  0  0  0  0  0
  -28.7740  -26.9120   20.3380 O   0  0  0  0  0  0  0  0  0  0  0  0
  -24.5650  -31.9500   23.2470 C   0  0  0  0  0  0  0  0  0  0  0  0
  -27.6170  -27.6880   20.2370 C   0  0  0  0  0  0  0  0  0  0  0  0
  -23.5350  -30.5270   21.5050 C   0  0  0  0  0  3  0  0  0  0  0  0
  -25.1540  -29.1080   20.1230 C   0  0  0  0  0  0  0  0  0  0  0  0
  -26.0490  -31.0150   21.4640 C   0  0  0  0  0  2  0  0  0  0  0  0
  -26.2510  -29.6660   20.7900 C   0  0  0  0  0  0  0  0  0  0  0  0
  -27.4870  -28.9700   20.8410 C   0  0  0  0  0  3  0  0  0  0  0  0
  -26.5130  -27.1760   19.5260 C   0  0  0  0  0  3  0  0  0  0  0  0
  -25.2840  -27.8630   19.4820 C   0  0  0  0  0  3  0  0  0  0  0  0
  -23.8640  -29.9030   20.1240 C   0  0  0  0  0  2  0  0  0  0  0  0
  -24.7310  -31.1810   22.1300 N   0  0  0  0  0  0  0  0  0  0  0  0
  -23.4430  -32.1450   23.7300 O   0  0  0  0  0  0  0  0  0  0  0  0
  -22.8850  -29.4510   22.4060 C   0  0  0  0  0  0  0  0  0  0  0  0
  -21.5660  -29.2500   22.2500 N   0  0  0  0  0  0  0  0  0  0  0  0
  -23.5670  -28.8060   23.2070 O   0  0  0  0  0  0  0  0  0  0  0  0
  -21.0720  -29.8360   21.5900 H   0  0  0  0  0  0  0  0  0  0  0  0
  -18.1890  -28.0470   22.7420 C   0  0  0  0  0  0  0  0  0  0  0  0
  -20.7570  -28.2560   22.9570 C   0  0  0  0  0  3  0  0  0  0  0  0
  -20.8230  -26.8780   22.2570 C   0  0  0  0  0  2  0  0  0  0  0  0
  -19.6890  -26.6560   21.2520 C   0  0  0  0  0  2  0  0  0  0  0  0
  -18.3280  -26.7610   21.9470 C   0  0  0  0  0  2  0  0  0  0  0  0
  -19.3280  -28.7580   23.2020 C   0  0  0  0  0  0  0  0  0  0  0  0
  -19.1440  -29.9700   23.9050 C   0  0  0  0  0  3  0  0  0  0  0  0
  -17.8510  -30.4650   24.1550 C   0  0  0  0  0  3  0  0  0  0  0  0
  -16.7260  -29.7510   23.7040 C   0  0  0  0  0  3  0  0  0  0  0  0
  -16.8950  -28.5440   23.0040 C   0  0  0  0  0  3  0  0  0  0  0  0
  -25.7750  -32.6350   23.9560 C   0  0  0  0  0  3  0  0  0  0  0  0
  -25.4040  -34.0350   24.2190 N   0  0  0  0  0  0  0  0  0  0  0  0
  -25.7600  -35.0720   23.4480 C   0  0  0  0  0  0  0  0  0  0  0  0
  -26.5070  -34.9590   22.4710 O   0  0  0  0  0  0  0  0  0  0  0  0
  -24.7530  -34.1980   24.9740 H   0  0  0  0  0  0  0  0  0  0  0  0
  -24.0020  -36.7930   22.9230 C   0  0  0  0  0  1  0  0  0  0  0  0
  -25.2030  -36.4590   23.8250 C   0  0  0  0  0  3  0  0  0  0  0  0
  -27.2470  -37.4460   24.7570 C   0  0  0  0  0  1  0  0  0  0  0  0
  -26.2060  -37.5420   23.7380 N   0  0  0  0  0  0  0  0  0  0  0  0
  -25.7650  -38.4540   23.8180 H   0  0  0  0  0  0  0  0  0  0  0  0
  -26.2020  -31.9130   25.2940 C   0  0  1  0  0  0  0  0  0  0  0  0
  -25.0240  -31.6440   26.2550 C   0  0  0  0  0  1  0  0  0  0  0  0
  -26.8830  -30.5580   24.9900 C   0  0  0  0  0  1  0  0  0  0  0  0
  -27.2480  -32.7740   26.0400 C   0  0  0  0  0  1  0  0  0  0  0  0
  1  3  1  0
  1  2  1  0
  5  4  1  0
  5  6  1  0
  5  1  1  0
  6 11  1  0
  7 10  1  0
  8 10  2  0
  9  7  2  0
 11  9  1  0
 11  8  1  0
 12 20  1  0
 13 18  1  0
 14 15  1  0
 14 13  1  0
 16 15  1  0
 16 25  1  0
 16 17  1  0
 18 12  1  0
 18 17  1  0
 19 12  2  0
 20 21  1  0
 20  9  1  0
 22 23  2  0
 23 42  1  0
 24 23  1  0
 24 27  1  0
 25 26  1  0
 25 22  1  0
 26 24  2  0
 27 28  1  0
 28 29  2  0
 30 33  1  0
 30 29  1  0
 31 30  2  0
 32 31  1  0
 32 27  2  0
 33 34  1  0
 34 35  1  0
 35 36  2  0
 37 36  1  0
 37 41  1  0
 38 37  2  0
 39 34  2  0
 39 38  1  0
 40 39  1  0
 42 43  1  0
 43 46  1  0
 43 45  1  0
 44 42  2  0
 47 22  1  0
 47 48  1  0
 49 47  1  0
 50 54  1  0
 50  1  1  0
 51 52  1  0
 51 50  1  0
 53 51  2  0
 54 56  1  0
 56 55  1  0
 57 56  1  0
 58 69  2  0
 59 57  1  0
 59 64  1  0
 60 68  1  0
 60 70  1  0
 61 67  1  0
 61 63  1  0
 62 68  1  0
 63 64  2  0
 63 62  1  0
 65 59  2  0
 66 65  1  0
 66 61  2  0
 67 60  1  0
 68 58  1  0
 70 72  2  0
 71 70  1  0
 73 71  1  0
 74 83  2  0
 74 79  1  0
 75 71  1  0
 75 79  1  0
 76 75  1  0
 77 78  1  0
 77 76  1  0
 78 74  1  0
 79 80  2  0
 80 81  1  0
 82 81  2  0
 83 82  1  0
 84 58  1  0
 84 85  1  0
 84 94  1  0
 85 88  1  0
 86 90  1  0
 86 85  1  0
 87 86  2  0
 90 89  1  0
 92 93  1  0
 92 90  1  0
 92 91  1  0
 94 97  1  1
 94 95  1  0
 96 94  1  0
M  ISO  4  12 100  20 100  56 101  57 101
M  END
>  <TORSDO>  (1) 
F 23

>  <SCORE>  (1) 
-11.942

>  <name>  (1) 
0

>  <ligand_id>  (1) 
0

>  <original_smiles>  (1) 
[H]c1nc([H])n(C([H])([H])C([H])(C([H])([H])[H])[N+]([H])([H])C([H])(C(=O)C([H])([H])[H])C([H])([H])C([H])(Oc2c([H])c([H])c3c(c2[H])C([H])([H])N(C(=O)C([H])(N([H])C(=O)C([H])(N([H])C([H])([H])[H])C([H])([H])[H])C(C([H])([H])[H])(C([H])([H])[H])C([H])([H])[H])C([H])(C(=O)N([H])C2([H])c4c([H])c([H])c([H])c([H])c4C([H])([H])C([H])([H])C2([H])[H])C3([H])[H])C([H])([H])[H])c1N([H])C(=O)N1C([H])([H])C([H])([H])C([H])([H])C([H])(n2nc(-c3c([H])c([H])c(Oc4c([H])c([H])c(F)c([H])c4F)c([H])c3[H])c(C(=O)N([H])[H])c2N([H])[H])C1([H])[H]

>  <smiles>  (1) 
[H]c1nc([H])n(C([H])([H])C([H])(C([H])([H])[H])[N+]([H])([H])C([H])(C(=O)C([H])([H])[H])C([H])([H])C([H])(Oc2c([H])c([H])c3c(c2[H])C([H])([H])N(C(=O)C([H])(N([H])C(=O)C([H])(N([H])C([H])([H])[H])C([H])([H])[H])C(C([H])([H])[H])(C([H])([H])[H])C([H])([H])[H])C([H])(C(=O)N([H])C2([H])c4c([H])c([H])c([H])c([H])c4C([H])([H])C([H])([H])C2([H])[H])C3([H])[H])C([H])([H])[H])c1N([H])C(=O)N1C([H])([H])C([H])([H])C([H])([H])C([H])(n2nc(-c3c([H])c([H])c(Oc4c([H])c([H])c(F)c([H])c4F)c([H])c3[H])c(C(=O)N([H])[H])c2N([H])[H])C1([H])[H]

$$$$
1:0:0
     RDKit          3D

 96104  0  0  1  0  0  0  0  0999 V2000
  -29.2590  -21.3120   19.7680 N   0  0  0  0  0  0  0  0  0  0  0  0
  -28.9520  -21.5750   18.8340 H   0  0  0  0  0  0  0  0  0  0  0  0
  -30.6560  -14.6530   19.8920 C   0  0  0  0  0  0  0  0  0  0  0  0
  -30.3860  -12.4400   18.7890 C   0  0  0  0  0  2  0  0  0  0  0  0
  -29.3480  -12.6090   17.6600 C   0  0  0  0  0  2  0  0  0  0  0  0
  -27.9120  -12.4440   18.1980 C   0  0  0  0  0  2  0  0  0  0  0  0
  -27.6600  -13.2540   19.4970 C   0  0  0  0  0  3  0  0  0  0  0  0
  -28.8040  -13.0470   20.5150 C   0  0  0  0  0  2  0  0  0  0  0  0
  -30.0610  -13.4170   19.8490 N   0  0  0  0  0  0  0  0  0  0  0  0
  -31.7750  -14.8350   19.3980 O   0  0  0  0  0  0  0  0  0  0  0  0
  -29.4760  -19.0140   18.8340 C   0  0  0  0  0  3  0  0  0  0  0  0
  -29.4570  -19.8980   19.9600 C   0  0  0  0  0  0  0  0  0  0  0  0
  -29.8720  -17.1080   20.1540 C   0  0  0  0  0  0  0  0  0  0  0  0
  -29.8470  -17.9950   21.2770 C   0  0  0  0  0  0  0  0  0  0  0  0
  -29.6810  -17.6610   18.9230 N   0  0  0  0  0  0  0  0  0  0  0  0
  -29.6530  -19.3510   21.1900 N   0  0  0  0  0  0  0  0  0  0  0  0
  -30.0120  -17.4960   22.5640 N   0  0  0  0  0  0  0  0  0  0  0  0
  -29.8990  -15.6690   20.4110 N   0  0  0  0  0  0  0  0  0  0  0  0
  -30.4790  -16.6000   22.6520 H   0  0  0  0  0  0  0  0  0  0  0  0
  -30.2340  -18.1570   23.2980 H   0  0  0  0  0  0  0  0  0  0  0  0
  -29.1080  -15.3580   20.9520 H   0  0  0  0  0  0  0  0  0  0  0  0
  -25.3330  -13.8410   20.4150 C   0  0  0  0  0  0  0  0  0  0  0  0
  -24.2970  -13.0650   20.8560 C   0  0  0  0  0  0  0  0  0  0  0  0
  -24.7490  -11.7150   20.7510 C   0  0  0  0  0  0  0  0  0  0  0  0
  -26.3510  -12.9640   20.0750 N   0  0  0  0  0  0  0  0  0  0  0  0
  -26.0110  -11.6770   20.3420 N   0  0  0  0  0  0  0  0  0  0  0  0
  -24.0360  -10.4480   20.9660 C   0  0  0  0  0  0  0  0  0  0  0  0
  -24.5020   -9.4840   21.8900 C   0  0  0  0  0  3  0  0  0  0  0  0
  -23.7860   -8.2860   22.0950 C   0  0  0  0  0  3  0  0  0  0  0  0
  -22.5930   -8.0390   21.3800 C   0  0  0  0  0  0  0  0  0  0  0  0
  -22.1450   -8.9890   20.4470 C   0  0  0  0  0  3  0  0  0  0  0  0
  -22.8590  -10.1810   20.2360 C   0  0  0  0  0  3  0  0  0  0  0  0
  -21.8490   -6.8880   21.4910 O   0  0  0  0  0  0  0  0  0  0  0  0
  -21.7840   -6.1840   22.6650 C   0  0  0  0  0  0  0  0  0  0  0  0
  -21.3320   -6.7760   23.8650 C   0  0  0  0  0  3  0  0  0  0  0  0
  -21.2150   -5.9970   25.0340 C   0  0  0  0  0  3  0  0  0  0  0  0
  -21.5440   -4.6270   25.0030 C   0  0  0  0  0  0  0  0  0  0  0  0
  -21.9920   -4.0370   23.8080 C   0  0  0  0  0  3  0  0  0  0  0  0
  -22.1090   -4.8140   22.6430 C   0  0  0  0  0  0  0  0  0  0  0  0
  -22.5180   -4.2330   21.4870 F   0  0  0  0  0  0  0  0  0  0  0  0
  -21.4280   -3.8770   26.1240 F   0  0  0  0  0  0  0  0  0  0  0  0
  -22.9270  -13.5380   21.2470 C   0  0  0  0  0  0  0  0  0  0  0  0
  -22.2760  -12.8350   22.1680 N   0  0  0  0  0  0  0  0  0  0  0  0
  -22.4450  -14.5630   20.7700 O   0  0  0  0  0  0  0  0  0  0  0  0
  -22.6870  -12.0110   22.5800 H   0  0  0  0  0  0  0  0  0  0  0  0
  -21.3600  -13.1330   22.4680 H   0  0  0  0  0  0  0  0  0  0  0  0
  -25.4850  -15.2180   20.2540 N   0  0  0  0  0  0  0  0  0  0  0  0
  -24.7190  -15.8600   20.4280 H   0  0  0  0  0  0  0  0  0  0  0  0
  -26.2780  -15.6640   19.8120 H   0  0  0  0  0  0  0  0  0  0  0  0
  -30.1350  -22.5180   21.8000 C   0  0  0  0  0  1  0  0  0  0  0  0
  -29.0120  -22.4210   20.7470 C   0  0  0  0  0  3  0  0  0  0  0  0
  -28.8330  -23.8560   20.0340 C   0  0  0  0  0  3  0  0  0  0  0  0
  -27.8970  -23.6780   18.9840 O   0  0  0  0  0  0  0  0  0  0  0  0
  -27.8320  -24.5110   18.5290 H   0  0  0  0  0  0  0  0  0  0  0  0
  -28.3320  -25.1040   20.8930 C   0  0  0  0  0  2  0  0  0  0  0  0
  -28.5340  -26.4800   20.3820 O   0  0  0  0  0  0  0  0  0  0  0  0
  -24.6740  -31.8530   23.2320 C   0  0  0  0  0  0  0  0  0  0  0  0
  -27.4100  -27.3070   20.3150 C   0  0  0  0  0  0  0  0  0  0  0  0
  -23.5270  -30.4340   21.5670 C   0  0  0  0  0  3  0  0  0  0  0  0
  -25.0310  -28.8770   20.2030 C   0  0  0  0  0  0  0  0  0  0  0  0
  -26.0630  -30.7810   21.4490 C   0  0  0  0  0  2  0  0  0  0  0  0
  -26.1780  -29.3970   20.8220 C   0  0  0  0  0  0  0  0  0  0  0  0
  -27.3710  -28.6210   20.8700 C   0  0  0  0  0  3  0  0  0  0  0  0
  -26.2480  -26.8330   19.6740 C   0  0  0  0  0  3  0  0  0  0  0  0
  -25.0700  -27.6020   19.6160 C   0  0  0  0  0  3  0  0  0  0  0  0
  -23.7880  -29.7430   20.2000 C   0  0  0  0  0  2  0  0  0  0  0  0
  -24.7700  -31.0400   22.1390 N   0  0  0  0  0  0  0  0  0  0  0  0
  -23.5740  -32.1230   23.7340 O   0  0  0  0  0  0  0  0  0  0  0  0
  -22.8460  -29.4200   22.5180 C   0  0  0  0  0  0  0  0  0  0  0  0
  -21.5200  -29.2420   22.3630 N   0  0  0  0  0  0  0  0  0  0  0  0
  -23.5080  -28.7950   23.3480 O   0  0  0  0  0  0  0  0  0  0  0  0
  -21.0440  -29.8020   21.6670 H   0  0  0  0  0  0  0  0  0  0  0  0
  -18.1340  -28.0570   22.8060 C   0  0  0  0  0  0  0  0  0  0  0  0
  -20.6880  -28.3070   23.1220 C   0  0  0  0  0  3  0  0  0  0  0  0
  -20.7960  -26.8760   22.5480 C   0  0  0  0  0  2  0  0  0  0  0  0
  -19.7110  -26.5560   21.5150 C   0  0  0  0  0  2  0  0  0  0  0  0
  -18.3180  -26.7070   22.1320 C   0  0  0  0  0  2  0  0  0  0  0  0
  -19.2480  -28.8130   23.2560 C   0  0  0  0  0  0  0  0  0  0  0  0
  -19.0230  -30.0780   23.8430 C   0  0  0  0  0  3  0  0  0  0  0  0
  -17.7170  -30.5840   23.9850 C   0  0  0  0  0  3  0  0  0  0  0  0
  -16.6170  -29.8240   23.5500 C   0  0  0  0  0  3  0  0  0  0  0  0
  -16.8270  -28.5620   22.9640 C   0  0  0  0  0  3  0  0  0  0  0  0
  -25.9330  -32.4970   23.8870 C   0  0  0  0  0  3  0  0  0  0  0  0
  -26.4220  -31.7370   25.1800 C   0  0  1  0  0  0  0  0  0  0  0  0
  -25.3030  -31.4930   26.2200 C   0  0  0  0  0  1  0  0  0  0  0  0
  -27.0290  -30.3640   24.8100 C   0  0  0  0  0  1  0  0  0  0  0  0
  -27.5450  -32.5460   25.8720 C   0  0  0  0  0  1  0  0  0  0  0  0
  -25.6030  -33.8950   24.2040 N   0  0  0  0  0  0  0  0  0  0  0  0
  -25.9420  -34.9480   23.4490 C   0  0  0  0  0  0  0  0  0  0  0  0
  -26.6340  -34.8470   22.4330 O   0  0  0  0  0  0  0  0  0  0  0  0
  -24.9930  -34.0460   24.9920 H   0  0  0  0  0  0  0  0  0  0  0  0
  -24.2060  -36.7230   23.0500 C   0  0  0  0  0  1  0  0  0  0  0  0
  -25.4310  -36.3340   23.8900 C   0  0  0  0  0  3  0  0  0  0  0  0
  -27.5370  -37.2430   24.7620 C   0  0  0  0  0  1  0  0  0  0  0  0
  -26.4540  -37.3960   23.7960 N   0  0  0  0  0  0  0  0  0  0  0  0
  -26.0350  -38.3130   23.9340 H   0  0  0  0  0  0  0  0  0  0  0  0
  1 12  1  0
  1 51  1  0
  2  1  1  0
  3 18  1  0
  4  9  1  0
  5  6  1  0
  5  4  1  0
  7  6  1  0
  7 25  1  0
  7  8  1  0
  9  3  1  0
  9  8  1  0
 10  3  2  0
 11 15  2  0
 11 12  1  0
 12 16  2  0
 13 18  1  0
 13 14  2  0
 14 17  1  0
 15 13  1  0
 16 14  1  0
 17 19  1  0
 17 20  1  0
 18 21  1  0
 22 23  2  0
 23 42  1  0
 24 23  1  0
 24 27  1  0
 25 26  1  0
 25 22  1  0
 26 24  2  0
 27 28  1  0
 28 29  2  0
 30 33  1  0
 30 29  1  0
 31 30  2  0
 32 31  1  0
 32 27  2  0
 33 34  1  0
 34 35  1  0
 35 36  2  0
 37 36  1  0
 37 41  1  0
 38 37  2  0
 39 34  2  0
 39 38  1  0
 40 39  1  0
 42 43  1  0
 43 46  1  0
 43 45  1  0
 44 42  2  0
 47 22  1  0
 47 48  1  0
 49 47  1  0
 51 50  1  0
 52 51  1  0
 52 55  1  0
 53 52  1  0
 54 53  1  0
 56 55  1  0
 57 68  2  0
 58 56  1  0
 58 63  1  0
 59 67  1  0
 59 69  1  0
 60 62  1  0
 61 67  1  0
 62 63  2  0
 62 61  1  0
 64 58  2  0
 65 64  1  0
 65 60  2  0
 66 60  1  0
 66 59  1  0
 67 57  1  0
 69 71  2  0
 70 69  1  0
 72 70  1  0
 73 82  2  0
 73 78  1  0
 74 70  1  0
 74 78  1  0
 75 74  1  0
 76 77  1  0
 76 75  1  0
 77 73  1  0
 78 79  2  0
 79 80  1  0
 81 80  2  0
 82 81  1  0
 83 57  1  0
 83 88  1  0
 83 84  1  0
 84 87  1  1
 84 85  1  0
 86 84  1  0
 88 91  1  0
 89 93  1  0
 89 88  1  0
 90 89  2  0
 93 92  1  0
 95 93  1  0
 95 96  1  0
 95 94  1  0
M  ISO  4   3 100  18 100  55 101  56 101
M  END
>  <TORSDO>  (2) 
F 20

>  <SCORE>  (2) 
-13.665

>  <name>  (2) 
1

>  <ligand_id>  (2) 
1

>  <original_smiles>  (2) 
[H]OC([H])(C([H])([H])Oc1c([H])c([H])c2c(c1[H])C([H])([H])N(C(=O)C([H])(N([H])C(=O)C([H])(N([H])C([H])([H])[H])C([H])([H])[H])C(C([H])([H])[H])(C([H])([H])[H])C([H])([H])[H])C([H])(C(=O)N([H])C1([H])c3c([H])c([H])c([H])c([H])c3C([H])([H])C([H])([H])C1([H])[H])C2([H])[H])C([H])(N([H])c1nc(N([H])[H])c(N([H])C(=O)N2C([H])([H])C([H])([H])C([H])([H])C([H])(n3nc(-c4c([H])c([H])c(Oc5c([H])c([H])c(F)c([H])c5F)c([H])c4[H])c(C(=O)N([H])[H])c3N([H])[H])C2([H])[H])nc1[H])C([H])([H])[H]

>  <smiles>  (2) 
[H]OC([H])(C([H])([H])Oc1c([H])c([H])c2c(c1[H])C([H])([H])N(C(=O)C([H])(N([H])C(=O)C([H])(N([H])C([H])([H])[H])C([H])([H])[H])C(C([H])([H])[H])(C([H])([H])[H])C([H])([H])[H])C([H])(C(=O)N([H])C1([H])c3c([H])c([H])c([H])c([H])c3C([H])([H])C([H])([H])C1([H])[H])C2([H])[H])C([H])(N([H])c1nc(N([H])[H])c(N([H])C(=O)N2C([H])([H])C([H])([H])C([H])([H])C([H])(n3nc(-c4c([H])c([H])c(Oc5c([H])c([H])c(F)c([H])c5F)c([H])c4[H])c(C(=O)N([H])[H])c3N([H])[H])C2([H])[H])nc1[H])C([H])([H])[H]

$$$$
2:0:0
     RDKit          3D

 95103  0  0  1  0  0  0  0  0999 V2000
  -29.1650  -18.5340   20.2190 C   0  0  0  0  0  3  0  0  0  0  0  0
  -29.9740  -17.4630   20.7760 C   0  0  0  0  0  0  0  0  0  0  0  0
  -29.3550  -19.9110   20.6180 C   0  0  0  0  0  0  0  0  0  0  0  0
  -30.8640  -19.1100   22.1410 C   0  0  0  0  0  0  0  0  0  0  0  0
  -30.8210  -17.8340   21.7660 N   0  0  0  0  0  0  0  0  0  0  0  0
  -30.2320  -20.1580   21.6130 N   0  0  0  0  0  0  0  0  0  0  0  0
  -31.5790  -19.3590   23.2760 N   0  0  0  0  0  0  0  0  0  0  0  0
  -28.5880  -21.0470   20.1390 N   0  0  0  0  0  0  0  0  0  0  0  0
  -31.6470  -18.5850   23.9290 H   0  0  0  0  0  0  0  0  0  0  0  0
  -31.3400  -20.2300   23.7370 H   0  0  0  0  0  0  0  0  0  0  0  0
  -27.9820  -20.7720   19.3700 H   0  0  0  0  0  0  0  0  0  0  0  0
  -30.5970  -14.8990   20.3720 C   0  0  0  0  0  0  0  0  0  0  0  0
  -30.4370  -12.5880   19.3750 C   0  0  0  0  0  2  0  0  0  0  0  0
  -29.4990  -12.5880   18.1460 C   0  0  0  0  0  2  0  0  0  0  0  0
  -28.0310  -12.4030   18.5780 C   0  0  0  0  0  2  0  0  0  0  0  0
  -27.6320  -13.3330   19.7490 C   0  0  0  0  0  3  0  0  0  0  0  0
  -28.6820  -13.3250   20.8780 C   0  0  0  0  0  2  0  0  0  0  0  0
  -29.9790  -13.6700   20.2800 N   0  0  0  0  0  0  0  0  0  0  0  0
  -31.8120  -14.9740   20.1300 O   0  0  0  0  0  0  0  0  0  0  0  0
  -29.7720  -16.0300   20.4210 N   0  0  0  0  0  0  0  0  0  0  0  0
  -28.8070  -15.8060   20.2390 H   0  0  0  0  0  0  0  0  0  0  0  0
  -25.2600  -13.9290   20.5240 C   0  0  0  0  0  0  0  0  0  0  0  0
  -24.2000  -13.1590   20.9010 C   0  0  0  0  0  0  0  0  0  0  0  0
  -24.6560  -11.8050   20.8470 C   0  0  0  0  0  0  0  0  0  0  0  0
  -26.2960  -13.0450   20.2590 N   0  0  0  0  0  0  0  0  0  0  0  0
  -25.9400  -11.7630   20.5190 N   0  0  0  0  0  0  0  0  0  0  0  0
  -23.9260  -10.5480   21.0280 C   0  0  0  0  0  0  0  0  0  0  0  0
  -24.3500   -9.5720   21.9560 C   0  0  0  0  0  3  0  0  0  0  0  0
  -23.6230   -8.3760   22.1240 C   0  0  0  0  0  3  0  0  0  0  0  0
  -22.4550   -8.1430   21.3630 C   0  0  0  0  0  0  0  0  0  0  0  0
  -22.0480   -9.1050   20.4230 C   0  0  0  0  0  3  0  0  0  0  0  0
  -22.7750  -10.2930   20.2560 C   0  0  0  0  0  3  0  0  0  0  0  0
  -21.6920   -7.0030   21.4450 O   0  0  0  0  0  0  0  0  0  0  0  0
  -21.6200   -6.2660   22.5960 C   0  0  0  0  0  0  0  0  0  0  0  0
  -21.1440   -6.8160   23.8060 C   0  0  0  0  0  3  0  0  0  0  0  0
  -21.0250   -6.0050   24.9510 C   0  0  0  0  0  3  0  0  0  0  0  0
  -21.3630   -4.6420   24.8870 C   0  0  0  0  0  0  0  0  0  0  0  0
  -21.8290   -4.0870   23.6840 C   0  0  0  0  0  3  0  0  0  0  0  0
  -21.9560   -4.8980   22.5390 C   0  0  0  0  0  0  0  0  0  0  0  0
  -22.3860   -4.3530   21.3770 F   0  0  0  0  0  0  0  0  0  0  0  0
  -21.2380   -3.8600   25.9870 F   0  0  0  0  0  0  0  0  0  0  0  0
  -22.8090  -13.6360   21.1970 C   0  0  0  0  0  0  0  0  0  0  0  0
  -22.0960  -12.9250   22.0590 N   0  0  0  0  0  0  0  0  0  0  0  0
  -22.3750  -14.6770   20.7030 O   0  0  0  0  0  0  0  0  0  0  0  0
  -22.4570  -12.0750   22.4670 H   0  0  0  0  0  0  0  0  0  0  0  0
  -21.1720  -13.2320   22.3160 H   0  0  0  0  0  0  0  0  0  0  0  0
  -25.4270  -15.3050   20.3560 N   0  0  0  0  0  0  0  0  0  0  0  0
  -24.6380  -15.9410   20.4210 H   0  0  0  0  0  0  0  0  0  0  0  0
  -26.2410  -15.7370   19.9390 H   0  0  0  0  0  0  0  0  0  0  0  0
  -29.1060  -22.4660   19.9630 C   0  0  0  0  0  2  0  0  0  0  0  0
  -28.1490  -23.7310   20.3070 C   0  0  0  0  0  3  0  0  0  0  0  0
  -26.8770  -23.2490   19.9200 O   0  0  0  0  0  0  0  0  0  0  0  0
  -26.9220  -22.3170   20.1140 H   0  0  0  0  0  0  0  0  0  0  0  0
  -28.4140  -25.1670   19.5880 C   0  0  0  0  0  2  0  0  0  0  0  0
  -28.2990  -26.5110   20.2290 O   0  0  0  0  0  0  0  0  0  0  0  0
  -24.5690  -31.9480   23.2010 C   0  0  0  0  0  0  0  0  0  0  0  0
  -27.1720  -27.3500   20.1520 C   0  0  0  0  0  0  0  0  0  0  0  0
  -23.3590  -30.5360   21.5720 C   0  0  0  0  0  3  0  0  0  0  0  0
  -24.8140  -28.9750   20.1450 C   0  0  0  0  0  0  0  0  0  0  0  0
  -25.8890  -30.8600   21.3610 C   0  0  0  0  0  2  0  0  0  0  0  0
  -25.9830  -29.4720   20.7350 C   0  0  0  0  0  0  0  0  0  0  0  0
  -27.1600  -28.6630   20.7330 C   0  0  0  0  0  3  0  0  0  0  0  0
  -25.9810  -26.9140   19.5420 C   0  0  0  0  0  3  0  0  0  0  0  0
  -24.8130  -27.7040   19.5460 C   0  0  0  0  0  3  0  0  0  0  0  0
  -23.5730  -29.8470   20.1970 C   0  0  0  0  0  2  0  0  0  0  0  0
  -24.6280  -31.1250   22.1090 N   0  0  0  0  0  0  0  0  0  0  0  0
  -23.4880  -32.2160   23.7400 O   0  0  0  0  0  0  0  0  0  0  0  0
  -22.7000  -29.5300   22.5450 C   0  0  0  0  0  0  0  0  0  0  0  0
  -21.3730  -29.3550   22.4230 N   0  0  0  0  0  0  0  0  0  0  0  0
  -23.3840  -28.8980   23.3600 O   0  0  0  0  0  0  0  0  0  0  0  0
  -20.8800  -29.9070   21.7340 H   0  0  0  0  0  0  0  0  0  0  0  0
  -18.0050  -28.1570   22.9350 C   0  0  0  0  0  0  0  0  0  0  0  0
  -20.5620  -28.4150   23.1970 C   0  0  0  0  0  3  0  0  0  0  0  0
  -20.6660  -26.9870   22.6140 C   0  0  0  0  0  2  0  0  0  0  0  0
  -19.5600  -26.6600   21.6100 C   0  0  0  0  0  2  0  0  0  0  0  0
  -18.1820  -26.8040   22.2620 C   0  0  0  0  0  2  0  0  0  0  0  0
  -19.1260  -28.9160   23.3650 C   0  0  0  0  0  0  0  0  0  0  0  0
  -18.9090  -30.1760   23.9650 C   0  0  0  0  0  3  0  0  0  0  0  0
  -17.6050  -30.6680   24.1470 C   0  0  0  0  0  3  0  0  0  0  0  0
  -16.4980  -29.9090   23.7360 C   0  0  0  0  0  3  0  0  0  0  0  0
  -16.6990  -28.6550   23.1360 C   0  0  0  0  0  3  0  0  0  0  0  0
  -25.8510  -32.5840   23.8180 C   0  0  0  0  0  3  0  0  0  0  0  0
  -26.3780  -31.8160   25.0950 C   0  0  1  0  0  0  0  0  0  0  0  0
  -25.2930  -31.5720   26.1690 C   0  0  0  0  0  1  0  0  0  0  0  0
  -26.9630  -30.4450   24.6930 C   0  0  0  0  0  1  0  0  0  0  0  0
  -27.5320  -32.6090   25.7590 C   0  0  0  0  0  1  0  0  0  0  0  0
  -25.5390  -33.9810   24.1570 N   0  0  0  0  0  0  0  0  0  0  0  0
  -25.8690  -35.0360   23.4040 C   0  0  0  0  0  0  0  0  0  0  0  0
  -26.5340  -34.9380   22.3680 O   0  0  0  0  0  0  0  0  0  0  0  0
  -24.9480  -34.1360   24.9610 H   0  0  0  0  0  0  0  0  0  0  0  0
  -24.1530  -36.8430   23.0400 C   0  0  0  0  0  1  0  0  0  0  0  0
  -25.3790  -36.4230   23.8660 C   0  0  0  0  0  3  0  0  0  0  0  0
  -27.4990  -37.2960   24.7450 C   0  0  0  0  0  1  0  0  0  0  0  0
  -26.4170  -37.4760   23.7810 N   0  0  0  0  0  0  0  0  0  0  0  0
  -26.0090  -38.3960   23.9290 H   0  0  0  0  0  0  0  0  0  0  0  0
  1  3  1  0
  1  2  2  0
  2  5  1  0
  3  6  2  0
  4  7  1  0
  5  4  2  0
  6  4  1  0
  7 10  1  0
  7  9  1  0
  8  3  1  0
 11  8  1  0
 12 20  1  0
 13 18  1  0
 14 15  1  0
 14 13  1  0
 16 15  1  0
 16 25  1  0
 16 17  1  0
 18 12  1  0
 18 17  1  0
 19 12  2  0
 20  2  1  0
 21 20  1  0
 22 23  2  0
 23 42  1  0
 24 23  1  0
 24 27  1  0
 25 26  1  0
 25 22  1  0
 26 24  2  0
 27 28  1  0
 28 29  2  0
 30 33  1  0
 30 29  1  0
 31 30  2  0
 32 31  1  0
 32 27  2  0
 33 34  1  0
 34 35  1  0
 35 36  2  0
 37 36  1  0
 37 41  1  0
 38 37  2  0
 39 34  2  0
 39 38  1  0
 40 39  1  0
 42 43  1  0
 43 46  1  0
 43 45  1  0
 44 42  2  0
 47 48  1  0
 47 22  1  0
 49 47  1  0
 50  8  1  0
 50 51  1  0
 51 54  1  0
 52 53  1  0
 52 51  1  0
 54 55  1  0
 56 67  2  0
 57 55  1  0
 57 62  1  0
 58 66  1  0
 58 68  1  0
 59 65  1  0
 59 61  1  0
 60 66  1  0
 61 60  1  0
 62 61  2  0
 63 64  1  0
 63 57  2  0
 64 59  2  0
 65 58  1  0
 66 56  1  0
 68 70  2  0
 69 68  1  0
 71 69  1  0
 72 81  2  0
 72 77  1  0
 73 69  1  0
 73 77  1  0
 74 73  1  0
 75 76  1  0
 75 74  1  0
 76 72  1  0
 77 78  2  0
 78 79  1  0
 80 79  2  0
 81 80  1  0
 82 56  1  0
 82 87  1  0
 82 83  1  0
 83 86  1  1
 83 84  1  0
 85 83  1  0
 87 90  1  0
 88 92  1  0
 88 87  1  0
 89 88  2  0
 92 91  1  0
 94 92  1  0
 94 95  1  0
 94 93  1  0
M  ISO  4  12 100  20 100  54 101  55 101
M  END
>  <TORSDO>  (3) 
F 20

>  <SCORE>  (3) 
-14.191

>  <name>  (3) 
2

>  <ligand_id>  (3) 
2

>  <original_smiles>  (3) 
[H]OC([H])(C([H])([H])Oc1c([H])c([H])c2c(c1[H])C([H])([H])N(C(=O)C([H])(N([H])C(=O)C([H])(N([H])C([H])([H])[H])C([H])([H])[H])C(C([H])([H])[H])(C([H])([H])[H])C([H])([H])[H])C([H])(C(=O)N([H])C1([H])c3c([H])c([H])c([H])c([H])c3C([H])([H])C([H])([H])C1([H])[H])C2([H])[H])C([H])([H])N([H])c1nc(N([H])[H])nc(N([H])C(=O)N2C([H])([H])C([H])([H])C([H])([H])C([H])(n3nc(-c4c([H])c([H])c(Oc5c([H])c([H])c(F)c([H])c5F)c([H])c4[H])c(C(=O)N([H])[H])c3N([H])[H])C2([H])[H])c1[H]

>  <smiles>  (3) 
[H]OC([H])(C([H])([H])Oc1c([H])c([H])c2c(c1[H])C([H])([H])N(C(=O)C([H])(N([H])C(=O)C([H])(N([H])C([H])([H])[H])C([H])([H])[H])C(C([H])([H])[H])(C([H])([H])[H])C([H])([H])[H])C([H])(C(=O)N([H])C1([H])c3c([H])c([H])c([H])c([H])c3C([H])([H])C([H])([H])C1([H])[H])C2([H])[H])C([H])([H])N([H])c1nc(N([H])[H])nc(N([H])C(=O)N2C([H])([H])C([H])([H])C([H])([H])C([H])(n3nc(-c4c([H])c([H])c(Oc5c([H])c([H])c(F)c([H])c5F)c([H])c4[H])c(C(=O)N([H])[H])c3N([H])[H])C2([H])[H])c1[H]

$$$$
3:0:0
     RDKit          3D

 97105  0  0  1  0  0  0  0  0999 V2000
  -30.2110  -21.6390   19.9470 C   0  0  0  0  0  3  0  0  0  0  0  0
  -29.6900  -20.2410   19.9030 N   0  0  0  0  0  0  0  0  0  0  0  0
  -29.4690  -19.9220   18.9660 H   0  0  0  0  0  0  0  0  0  0  0  0
  -30.7320  -14.5320   20.0970 C   0  0  0  0  0  0  0  0  0  0  0  0
  -30.4200  -12.3930   18.8710 C   0  0  0  0  0  2  0  0  0  0  0  0
  -29.3930  -12.6190   17.7380 C   0  0  0  0  0  2  0  0  0  0  0  0
  -27.9430  -12.4790   18.2500 C   0  0  0  0  0  2  0  0  0  0  0  0
  -27.6930  -13.2520   19.5720 C   0  0  0  0  0  3  0  0  0  0  0  0
  -28.8170  -12.9680   20.5930 C   0  0  0  0  0  2  0  0  0  0  0  0
  -30.0970  -13.3300   19.9600 N   0  0  0  0  0  0  0  0  0  0  0  0
  -31.8330  -14.7580   19.5760 O   0  0  0  0  0  0  0  0  0  0  0  0
  -30.5960  -18.3350   22.9830 C   0  0  0  0  0  3  0  0  0  0  0  0
  -30.5630  -17.0350   22.4490 C   0  0  0  0  0  3  0  0  0  0  0  0
  -30.2960  -19.4250   22.1490 C   0  0  0  0  0  3  0  0  0  0  0  0
  -30.2490  -16.8390   21.0890 C   0  0  0  0  0  0  0  0  0  0  0  0
  -30.0100  -19.1890   20.7940 C   0  0  0  0  0  0  0  0  0  0  0  0
  -29.9750  -17.9210   20.2910 N   0  0  0  0  0  0  0  0  0  0  0  0
  -29.9830  -15.4820   20.7120 N   0  0  0  0  0  0  0  0  0  0  0  0
  -29.1110  -15.1220   21.0620 H   0  0  0  0  0  0  0  0  0  0  0  0
  -25.3530  -13.8500   20.4560 C   0  0  0  0  0  0  0  0  0  0  0  0
  -24.3050  -13.0750   20.8730 C   0  0  0  0  0  0  0  0  0  0  0  0
  -24.7510  -11.7210   20.7680 C   0  0  0  0  0  0  0  0  0  0  0  0
  -26.3730  -12.9700   20.1300 N   0  0  0  0  0  0  0  0  0  0  0  0
  -26.0160  -11.6820   20.3730 N   0  0  0  0  0  0  0  0  0  0  0  0
  -24.0250  -10.4590   20.9660 C   0  0  0  0  0  0  0  0  0  0  0  0
  -24.4730   -9.4890   21.8890 C   0  0  0  0  0  3  0  0  0  0  0  0
  -23.7510   -8.2910   22.0750 C   0  0  0  0  0  3  0  0  0  0  0  0
  -22.5660   -8.0550   21.3390 C   0  0  0  0  0  0  0  0  0  0  0  0
  -22.1380   -9.0130   20.4040 C   0  0  0  0  0  3  0  0  0  0  0  0
  -22.8610  -10.2030   20.2160 C   0  0  0  0  0  3  0  0  0  0  0  0
  -21.8130   -6.9090   21.4350 O   0  0  0  0  0  0  0  0  0  0  0  0
  -21.7330   -6.1960   22.6050 C   0  0  0  0  0  0  0  0  0  0  0  0
  -21.2760   -6.7810   23.8070 C   0  0  0  0  0  3  0  0  0  0  0  0
  -21.1460   -5.9950   24.9680 C   0  0  0  0  0  3  0  0  0  0  0  0
  -21.4600   -4.6220   24.9290 C   0  0  0  0  0  0  0  0  0  0  0  0
  -21.9130   -4.0380   23.7320 C   0  0  0  0  0  3  0  0  0  0  0  0
  -22.0450   -4.8230   22.5730 C   0  0  0  0  0  0  0  0  0  0  0  0
  -22.4590   -4.2490   21.4180 F   0  0  0  0  0  0  0  0  0  0  0  0
  -21.3290   -3.8640   26.0420 F   0  0  0  0  0  0  0  0  0  0  0  0
  -22.9330  -13.5540   21.2490 C   0  0  0  0  0  0  0  0  0  0  0  0
  -22.2640  -12.8510   22.1560 N   0  0  0  0  0  0  0  0  0  0  0  0
  -22.4660  -14.5890   20.7740 O   0  0  0  0  0  0  0  0  0  0  0  0
  -22.6540  -12.0130   22.5610 H   0  0  0  0  0  0  0  0  0  0  0  0
  -21.3450  -13.1520   22.4440 H   0  0  0  0  0  0  0  0  0  0  0  0
  -25.5190  -15.2240   20.3080 N   0  0  0  0  0  0  0  0  0  0  0  0
  -24.7630  -15.8780   20.4740 H   0  0  0  0  0  0  0  0  0  0  0  0
  -26.3400  -15.6620   19.9080 H   0  0  0  0  0  0  0  0  0  0  0  0
  -31.6870  -21.7210   20.4210 C   0  0  0  0  0  2  0  0  0  0  0  0
  -33.8110  -20.3220   20.5120 C   0  0  0  0  0  1  0  0  0  0  0  0
  -33.2720  -21.6160   18.4060 C   0  0  0  0  0  1  0  0  0  0  0  0
  -32.6900  -20.8560   19.6090 C   0  0  0  0  0  3  0  0  0  0  0  0
  -29.2390  -22.6790   20.6260 C   0  0  0  0  0  2  0  0  0  0  0  0
  -29.5530  -24.2220   20.4780 C   0  0  0  0  0  3  0  0  0  0  0  0
  -30.4480  -24.5970   21.5150 O   0  0  0  0  0  0  0  0  0  0  0  0
  -30.5840  -25.5370   21.4400 H   0  0  0  0  0  0  0  0  0  0  0  0
  -28.2970  -25.1530   20.6090 C   0  0  0  0  0  2  0  0  0  0  0  0
  -28.4840  -26.5590   20.2630 O   0  0  0  0  0  0  0  0  0  0  0  0
  -24.6260  -31.8400   23.2140 C   0  0  0  0  0  0  0  0  0  0  0  0
  -27.3310  -27.3410   20.2190 C   0  0  0  0  0  0  0  0  0  0  0  0
  -23.4520  -30.4200   21.5640 C   0  0  0  0  0  3  0  0  0  0  0  0
  -24.9350  -28.8780   20.1730 C   0  0  0  0  0  0  0  0  0  0  0  0
  -25.9830  -30.7780   21.4040 C   0  0  0  0  0  2  0  0  0  0  0  0
  -26.0870  -29.3990   20.7750 C   0  0  0  0  0  0  0  0  0  0  0  0
  -27.2880  -28.6410   20.7920 C   0  0  0  0  0  3  0  0  0  0  0  0
  -26.1590  -26.8580   19.5910 C   0  0  0  0  0  3  0  0  0  0  0  0
  -24.9690  -27.6090   19.5760 C   0  0  0  0  0  3  0  0  0  0  0  0
  -23.6880  -29.7320   20.1940 C   0  0  0  0  0  2  0  0  0  0  0  0
  -24.7040  -31.0290   22.1190 N   0  0  0  0  0  0  0  0  0  0  0  0
  -23.5350  -32.1140   23.7340 O   0  0  0  0  0  0  0  0  0  0  0  0
  -22.7890  -29.4040   22.5240 C   0  0  0  0  0  0  0  0  0  0  0  0
  -21.4640  -29.2260   22.3880 N   0  0  0  0  0  0  0  0  0  0  0  0
  -23.4640  -28.7810   23.3490 O   0  0  0  0  0  0  0  0  0  0  0  0
  -20.9820  -29.7810   21.6960 H   0  0  0  0  0  0  0  0  0  0  0  0
  -18.0840  -28.0320   22.8590 C   0  0  0  0  0  0  0  0  0  0  0  0
  -20.6400  -28.2910   23.1540 C   0  0  0  0  0  3  0  0  0  0  0  0
  -20.7470  -26.8580   22.5820 C   0  0  0  0  0  2  0  0  0  0  0  0
  -19.6540  -26.5320   21.5600 C   0  0  0  0  0  2  0  0  0  0  0  0
  -18.2670  -26.6790   22.1900 C   0  0  0  0  0  2  0  0  0  0  0  0
  -19.1990  -28.7960   23.2970 C   0  0  0  0  0  0  0  0  0  0  0  0
  -18.9750  -30.0610   23.8820 C   0  0  0  0  0  3  0  0  0  0  0  0
  -17.6700  -30.5640   24.0330 C   0  0  0  0  0  3  0  0  0  0  0  0
  -16.5690  -29.7970   23.6120 C   0  0  0  0  0  3  0  0  0  0  0  0
  -16.7770  -28.5330   23.0320 C   0  0  0  0  0  3  0  0  0  0  0  0
  -25.8990  -32.4820   23.8480 C   0  0  0  0  0  3  0  0  0  0  0  0
  -25.5770  -33.8770   24.1770 N   0  0  0  0  0  0  0  0  0  0  0  0
  -25.9140  -34.9330   23.4250 C   0  0  0  0  0  0  0  0  0  0  0  0
  -26.6000  -34.8360   22.4040 O   0  0  0  0  0  0  0  0  0  0  0  0
  -24.9690  -34.0260   24.9700 H   0  0  0  0  0  0  0  0  0  0  0  0
  -24.1830  -36.7170   23.0410 C   0  0  0  0  0  1  0  0  0  0  0  0
  -25.4090  -36.3160   23.8770 C   0  0  0  0  0  3  0  0  0  0  0  0
  -27.5230  -37.2070   24.7560 C   0  0  0  0  0  1  0  0  0  0  0  0
  -26.4380  -37.3760   23.7910 N   0  0  0  0  0  0  0  0  0  0  0  0
  -26.0240  -38.2920   23.9380 H   0  0  0  0  0  0  0  0  0  0  0  0
  -26.4150  -31.7110   25.1260 C   0  0  1  0  0  0  0  0  0  0  0  0
  -25.3150  -31.4610   26.1830 C   0  0  0  0  0  1  0  0  0  0  0  0
  -27.0130  -30.3400   24.7330 C   0  0  0  0  0  1  0  0  0  0  0  0
  -27.5530  -32.5130   25.7990 C   0  0  0  0  0  1  0  0  0  0  0  0
  1 48  1  0
  1 52  1  0
  2  1  1  0
  2 16  1  0
  3  2  1  0
  4 18  1  0
  5 10  1  0
  6  7  1  0
  6  5  1  0
  8  7  1  0
  8 23  1  0
  8  9  1  0
 10  4  1  0
 10  9  1  0
 11  4  2  0
 13 12  1  0
 14 12  2  0
 15 13  2  0
 16 14  1  0
 17 16  2  0
 17 15  1  0
 18 19  1  0
 18 15  1  0
 20 21  2  0
 21 40  1  0
 22 21  1  0
 22 25  1  0
 23 24  1  0
 23 20  1  0
 24 22  2  0
 25 26  1  0
 26 27  2  0
 28 31  1  0
 28 27  1  0
 29 28  2  0
 30 29  1  0
 30 25  2  0
 31 32  1  0
 32 33  1  0
 33 34  2  0
 35 34  1  0
 35 39  1  0
 36 35  2  0
 37 32  2  0
 37 36  1  0
 38 37  1  0
 40 41  1  0
 41 44  1  0
 41 43  1  0
 42 40  2  0
 45 20  1  0
 45 46  1  0
 47 45  1  0
 50 51  1  0
 51 48  1  0
 51 49  1  0
 53 56  1  0
 53 52  1  0
 53 54  1  0
 55 54  1  0
 57 56  1  0
 58 69  2  0
 59 57  1  0
 59 64  1  0
 60 68  1  0
 60 70  1  0
 61 67  1  0
 61 63  1  0
 62 68  1  0
 63 64  2  0
 63 62  1  0
 65 59  2  0
 66 65  1  0
 66 61  2  0
 67 60  1  0
 68 58  1  0
 70 72  2  0
 71 70  1  0
 73 71  1  0
 74 83  2  0
 74 79  1  0
 75 71  1  0
 75 79  1  0
 76 75  1  0
 77 78  1  0
 77 76  1  0
 78 74  1  0
 79 80  2  0
 80 81  1  0
 82 81  2  0
 83 82  1  0
 84 58  1  0
 84 85  1  0
 84 94  1  0
 85 88  1  0
 86 90  1  0
 86 85  1  0
 87 86  2  0
 90 89  1  0
 92 90  1  0
 92 93  1  0
 92 91  1  0
 94 97  1  1
 94 95  1  0
 96 94  1  0
M  ISO  4   4 100  18 100  56 101  57 101
M  END
>  <TORSDO>  (4) 
F 23

>  <SCORE>  (4) 
-12.383

>  <name>  (4) 
3

>  <ligand_id>  (4) 
3

>  <original_smiles>  (4) 
[H]OC([H])(C([H])([H])Oc1c([H])c([H])c2c(c1[H])C([H])([H])N(C(=O)C([H])(N([H])C(=O)C([H])(N([H])C([H])([H])[H])C([H])([H])[H])C(C([H])([H])[H])(C([H])([H])[H])C([H])([H])[H])C([H])(C(=O)N([H])C1([H])c3c([H])c([H])c([H])c([H])c3C([H])([H])C([H])([H])C1([H])[H])C2([H])[H])C([H])([H])C([H])(N([H])c1nc(N([H])C(=O)N2C([H])([H])C([H])([H])C([H])([H])C([H])(n3nc(-c4c([H])c([H])c(Oc5c([H])c([H])c(F)c([H])c5F)c([H])c4[H])c(C(=O)N([H])[H])c3N([H])[H])C2([H])[H])c([H])c([H])c1[H])C([H])([H])C([H])(C([H])([H])[H])C([H])([H])[H]

>  <smiles>  (4) 
[H]OC([H])(C([H])([H])Oc1c([H])c([H])c2c(c1[H])C([H])([H])N(C(=O)C([H])(N([H])C(=O)C([H])(N([H])C([H])([H])[H])C([H])([H])[H])C(C([H])([H])[H])(C([H])([H])[H])C([H])([H])[H])C([H])(C(=O)N([H])C1([H])c3c([H])c([H])c([H])c([H])c3C([H])([H])C([H])([H])C1([H])[H])C2([H])[H])C([H])([H])C([H])(N([H])c1nc(N([H])C(=O)N2C([H])([H])C([H])([H])C([H])([H])C([H])(n3nc(-c4c([H])c([H])c(Oc5c([H])c([H])c(F)c([H])c5F)c([H])c4[H])c(C(=O)N([H])[H])c3N([H])[H])C2([H])[H])c([H])c([H])c1[H])C([H])([H])C([H])(C([H])([H])[H])C([H])([H])[H]

$$$$
4:0:0
     RDKit          3D

 93101  0  0  1  0  0  0  0  0999 V2000
  -29.5690  -22.3390   20.0910 C   0  0  0  0  0  3  0  0  0  0  0  0
  -29.0350  -23.7950   20.6470 C   0  0  0  0  0  2  0  0  0  0  0  0
  -28.3470  -24.9720   19.7610 C   0  0  0  0  0  2  0  0  0  0  0  0
  -28.3310  -26.4070   20.2360 O   0  0  0  0  0  0  0  0  0  0  0  0
  -24.6040  -31.8700   23.2350 C   0  0  0  0  0  0  0  0  0  0  0  0
  -27.2050  -27.2680   20.1580 C   0  0  0  0  0  0  0  0  0  0  0  0
  -23.3970  -30.4730   21.5980 C   0  0  0  0  0  3  0  0  0  0  0  0
  -24.8410  -28.9170   20.1650 C   0  0  0  0  0  0  0  0  0  0  0  0
  -25.9390  -30.7730   21.4160 C   0  0  0  0  0  2  0  0  0  0  0  0
  -26.0140  -29.3930   20.7610 C   0  0  0  0  0  0  0  0  0  0  0  0
  -27.1940  -28.5790   20.7490 C   0  0  0  0  0  3  0  0  0  0  0  0
  -26.0050  -26.8660   19.5260 C   0  0  0  0  0  3  0  0  0  0  0  0
  -24.8410  -27.6610   19.5410 C   0  0  0  0  0  3  0  0  0  0  0  0
  -23.6070  -29.7960   20.2170 C   0  0  0  0  0  2  0  0  0  0  0  0
  -24.6650  -31.0570   22.1390 N   0  0  0  0  0  0  0  0  0  0  0  0
  -23.5210  -32.1500   23.7710 O   0  0  0  0  0  0  0  0  0  0  0  0
  -22.7320  -29.4600   22.5620 C   0  0  0  0  0  0  0  0  0  0  0  0
  -21.4050  -29.2830   22.4370 N   0  0  0  0  0  0  0  0  0  0  0  0
  -23.4110  -28.8360   23.3810 O   0  0  0  0  0  0  0  0  0  0  0  0
  -20.9180  -29.8370   21.7470 H   0  0  0  0  0  0  0  0  0  0  0  0
  -18.0300  -28.0800   22.9430 C   0  0  0  0  0  0  0  0  0  0  0  0
  -20.5870  -28.3450   23.2100 C   0  0  0  0  0  3  0  0  0  0  0  0
  -20.6910  -26.9130   22.6370 C   0  0  0  0  0  2  0  0  0  0  0  0
  -19.5890  -26.5850   21.6250 C   0  0  0  0  0  2  0  0  0  0  0  0
  -18.2080  -26.7290   22.2700 C   0  0  0  0  0  2  0  0  0  0  0  0
  -19.1470  -28.8460   23.3710 C   0  0  0  0  0  0  0  0  0  0  0  0
  -18.9240  -30.1080   23.9620 C   0  0  0  0  0  3  0  0  0  0  0  0
  -17.6180  -30.6050   24.1280 C   0  0  0  0  0  3  0  0  0  0  0  0
  -16.5150  -29.8360   23.7170 C   0  0  0  0  0  3  0  0  0  0  0  0
  -16.7220  -28.5750   23.1320 C   0  0  0  0  0  3  0  0  0  0  0  0
  -25.8870  -32.5030   23.8550 C   0  0  0  0  0  3  0  0  0  0  0  0
  -25.5790  -33.9010   24.1890 N   0  0  0  0  0  0  0  0  0  0  0  0
  -25.9100  -34.9570   23.4320 C   0  0  0  0  0  0  0  0  0  0  0  0
  -26.5740  -34.8540   22.3970 O   0  0  0  0  0  0  0  0  0  0  0  0
  -24.9880  -34.0540   24.9930 H   0  0  0  0  0  0  0  0  0  0  0  0
  -24.1820  -36.7510   23.0910 C   0  0  0  0  0  1  0  0  0  0  0  0
  -25.4270  -36.3450   23.8950 C   0  0  0  0  0  3  0  0  0  0  0  0
  -27.5680  -37.2250   24.7150 C   0  0  0  0  0  1  0  0  0  0  0  0
  -26.4610  -37.3970   23.7770 N   0  0  0  0  0  0  0  0  0  0  0  0
  -26.0580  -38.3180   23.9270 H   0  0  0  0  0  0  0  0  0  0  0  0
  -26.4030  -31.7340   25.1340 C   0  0  1  0  0  0  0  0  0  0  0  0
  -25.3100  -31.5000   26.2020 C   0  0  0  0  0  1  0  0  0  0  0  0
  -26.9830  -30.3540   24.7460 C   0  0  0  0  0  1  0  0  0  0  0  0
  -27.5600  -32.5250   25.7880 C   0  0  0  0  0  1  0  0  0  0  0  0
  -29.7990  -22.2970   18.5510 C   0  0  0  0  0  2  0  0  0  0  0  0
  -31.6660  -24.0710   18.4610 C   0  0  0  0  0  1  0  0  0  0  0  0
  -31.1790  -22.6500   16.4740 C   0  0  0  0  0  1  0  0  0  0  0  0
  -32.2690  -21.6310   18.4770 C   0  0  0  0  0  1  0  0  0  0  0  0
  -31.2190  -22.6650   18.0180 C   0  0  2  0  0  0  0  0  0  0  0  0
  -28.8860  -20.9690   20.6340 C   0  0  0  0  0  2  0  0  0  0  0  0
  -31.1140  -18.0590   20.6220 C   0  0  0  0  0  3  0  0  0  0  0  0
  -28.9410  -18.2960   20.4560 C   0  0  0  0  0  3  0  0  0  0  0  0
  -29.9110  -17.2990   20.5320 C   0  0  0  0  0  0  0  0  0  0  0  0
  -30.8840  -19.3890   20.6320 N   0  0  0  0  0  0  0  0  0  0  0  0
  -29.5380  -19.5830   20.5040 N   0  0  0  0  0  0  0  0  0  0  0  0
  -30.5570  -14.7490   20.3660 C   0  0  0  0  0  0  0  0  0  0  0  0
  -30.3940  -12.4840   19.3230 C   0  0  0  0  0  2  0  0  0  0  0  0
  -29.4430  -12.5670   18.1080 C   0  0  0  0  0  2  0  0  0  0  0  0
  -27.9690  -12.4030   18.5370 C   0  0  0  0  0  2  0  0  0  0  0  0
  -27.6030  -13.2650   19.7750 C   0  0  0  0  0  3  0  0  0  0  0  0
  -28.6680  -13.1350   20.8870 C   0  0  0  0  0  2  0  0  0  0  0  0
  -29.9630  -13.5100   20.2980 N   0  0  0  0  0  0  0  0  0  0  0  0
  -31.7390  -14.8980   20.0430 O   0  0  0  0  0  0  0  0  0  0  0  0
  -29.7140  -15.8280   20.5800 N   0  0  0  0  0  0  0  0  0  0  0  0
  -28.7640  -15.5310   20.7430 H   0  0  0  0  0  0  0  0  0  0  0  0
  -25.2120  -13.8560   20.5020 C   0  0  0  0  0  0  0  0  0  0  0  0
  -24.1470  -13.0810   20.8780 C   0  0  0  0  0  0  0  0  0  0  0  0
  -24.6140  -11.7310   20.8510 C   0  0  0  0  0  0  0  0  0  0  0  0
  -26.2570  -12.9780   20.2670 N   0  0  0  0  0  0  0  0  0  0  0  0
  -25.9050  -11.6960   20.5380 N   0  0  0  0  0  0  0  0  0  0  0  0
  -23.8920  -10.4680   21.0440 C   0  0  0  0  0  0  0  0  0  0  0  0
  -24.3330   -9.4990   21.9740 C   0  0  0  0  0  3  0  0  0  0  0  0
  -23.6100   -8.3010   22.1560 C   0  0  0  0  0  3  0  0  0  0  0  0
  -22.4320   -8.0620   21.4090 C   0  0  0  0  0  0  0  0  0  0  0  0
  -22.0110   -9.0180   20.4680 C   0  0  0  0  0  3  0  0  0  0  0  0
  -22.7340  -10.2080   20.2830 C   0  0  0  0  0  3  0  0  0  0  0  0
  -21.6790   -6.9160   21.5030 O   0  0  0  0  0  0  0  0  0  0  0  0
  -21.6480   -6.1640   22.6500 C   0  0  0  0  0  0  0  0  0  0  0  0
  -21.2390   -6.7100   23.8870 C   0  0  0  0  0  3  0  0  0  0  0  0
  -21.1560   -5.8860   25.0270 C   0  0  0  0  0  3  0  0  0  0  0  0
  -21.4700   -4.5170   24.9320 C   0  0  0  0  0  0  0  0  0  0  0  0
  -21.8700   -3.9700   23.6990 C   0  0  0  0  0  3  0  0  0  0  0  0
  -21.9540   -4.7920   22.5620 C   0  0  0  0  0  0  0  0  0  0  0  0
  -22.3200   -4.2540   21.3730 F   0  0  0  0  0  0  0  0  0  0  0  0
  -21.3820   -3.7220   26.0250 F   0  0  0  0  0  0  0  0  0  0  0  0
  -22.7490  -13.5550   21.1460 C   0  0  0  0  0  0  0  0  0  0  0  0
  -22.0170  -12.8610   22.0120 N   0  0  0  0  0  0  0  0  0  0  0  0
  -22.3100  -14.5780   20.6220 O   0  0  0  0  0  0  0  0  0  0  0  0
  -22.3810  -12.0340   22.4590 H   0  0  0  0  0  0  0  0  0  0  0  0
  -21.0780  -13.1640   22.2300 H   0  0  0  0  0  0  0  0  0  0  0  0
  -25.3710  -15.2270   20.3160 N   0  0  0  0  0  0  0  0  0  0  0  0
  -24.6020  -15.8790   20.4300 H   0  0  0  0  0  0  0  0  0  0  0  0
  -26.1960  -15.6540   19.9120 H   0  0  0  0  0  0  0  0  0  0  0  0
  1 45  1  0
  1 50  1  0
  1  2  1  0
  3  4  1  0
  3  2  1  0
  5 16  2  0
  6  4  1  0
  6 11  1  0
  7 15  1  0
  7 17  1  0
  8 14  1  0
  8 10  1  0
  9 15  1  0
 10  9  1  0
 11 10  2  0
 12 13  1  0
 12  6  2  0
 13  8  2  0
 14  7  1  0
 15  5  1  0
 17 19  2  0
 18 17  1  0
 20 18  1  0
 21 30  2  0
 21 26  1  0
 22 18  1  0
 22 26  1  0
 23 22  1  0
 24 25  1  0
 24 23  1  0
 25 21  1  0
 26 27  2  0
 27 28  1  0
 29 28  2  0
 30 29  1  0
 31  5  1  0
 31 32  1  0
 31 41  1  0
 32 35  1  0
 33 37  1  0
 33 32  1  0
 34 33  2  0
 37 36  1  0
 39 37  1  0
 39 40  1  0
 39 38  1  0
 41 44  1  1
 41 42  1  0
 43 41  1  0
 49 47  1  6
 49 46  1  0
 49 48  1  0
 49 45  1  0
 51 54  2  0
 52 55  1  0
 52 53  2  0
 53 64  1  0
 53 51  1  0
 55 54  1  0
 55 50  1  0
 56 64  1  0
 57 62  1  0
 58 59  1  0
 58 57  1  0
 60 59  1  0
 60 69  1  0
 60 61  1  0
 62 56  1  0
 62 61  1  0
 63 56  2  0
 64 65  1  0
 66 67  2  0
 67 86  1  0
 68 67  1  0
 68 71  1  0
 69 66  1  0
 69 70  1  0
 70 68  2  0
 71 72  1  0
 72 73  2  0
 74 77  1  0
 74 73  1  0
 75 74  2  0
 76 75  1  0
 76 71  2  0
 77 78  1  0
 78 79  1  0
 79 80  2  0
 81 80  1  0
 81 85  1  0
 82 81  2  0
 83 78  2  0
 83 82  1  0
 84 83  1  0
 86 87  1  0
 87 90  1  0
 87 89  1  0
 88 86  2  0
 91 92  1  0
 91 66  1  0
 93 91  1  0
M  ISO  4   3 101   4 101  56 100  64 100
M  END
>  <TORSDO>  (5) 
F 22

>  <SCORE>  (5) 
-13.235

>  <name>  (5) 
4

>  <ligand_id>  (5) 
4

>  <original_smiles>  (5) 
[H]c1nn(C([H])([H])C([H])(C([H])([H])C([H])([H])Oc2c([H])c([H])c3c(c2[H])C([H])([H])N(C(=O)C([H])(N([H])C(=O)C([H])(N([H])C([H])([H])[H])C([H])([H])[H])C(C([H])([H])[H])(C([H])([H])[H])C([H])([H])[H])C([H])(C(=O)N([H])C2([H])c4c([H])c([H])c([H])c([H])c4C([H])([H])C([H])([H])C2([H])[H])C3([H])[H])C([H])([H])C(C([H])([H])[H])(C([H])([H])[H])C([H])([H])[H])c([H])c1N([H])C(=O)N1C([H])([H])C([H])([H])C([H])([H])C([H])(n2nc(-c3c([H])c([H])c(Oc4c([H])c([H])c(F)c([H])c4F)c([H])c3[H])c(C(=O)N([H])[H])c2N([H])[H])C1([H])[H]

>  <smiles>  (5) 
[H]c1nn(C([H])([H])C([H])(C([H])([H])C([H])([H])Oc2c([H])c([H])c3c(c2[H])C([H])([H])N(C(=O)C([H])(N([H])C(=O)C([H])(N([H])C([H])([H])[H])C([H])([H])[H])C(C([H])([H])[H])(C([H])([H])[H])C([H])([H])[H])C([H])(C(=O)N([H])C2([H])c4c([H])c([H])c([H])c([H])c4C([H])([H])C([H])([H])C2([H])[H])C3([H])[H])C([H])([H])C(C([H])([H])[H])(C([H])([H])[H])C([H])([H])[H])c([H])c1N([H])C(=O)N1C([H])([H])C([H])([H])C([H])([H])C([H])(n2nc(-c3c([H])c([H])c(Oc4c([H])c([H])c(F)c([H])c4F)c([H])c3[H])c(C(=O)N([H])[H])c2N([H])[H])C1([H])[H]

$$$$
5:0:0
     RDKit          3D

 93101  0  0  1  0  0  0  0  0999 V2000
  -30.4900  -22.8120   20.9180 C   0  0  0  0  0  1  0  0  0  0  0  0
  -28.9980  -22.6630   20.5730 C   0  0  0  0  0  3  0  0  0  0  0  0
  -29.6170  -18.2090   20.5810 C   0  0  0  0  0  0  0  0  0  0  0  0
  -28.8890  -20.1120   19.9520 C   0  0  0  0  0  0  0  0  0  0  0  0
  -29.8380  -19.5330   20.7540 N   0  0  0  0  0  0  0  0  0  0  0  0
  -28.1010  -19.2410   19.3350 N   0  0  0  0  0  0  0  0  0  0  0  0
  -28.7690  -21.5100   19.6710 N   0  0  0  0  0  0  0  0  0  0  0  0
  -28.5700  -17.9780   19.7490 O   0  0  0  0  0  0  0  0  0  0  0  0
  -27.9850  -21.7220   19.0590 H   0  0  0  0  0  0  0  0  0  0  0  0
  -30.4080  -17.0390   21.1790 C   0  0  0  0  0  2  0  0  0  0  0  0
  -30.5980  -14.6010   20.4620 C   0  0  0  0  0  0  0  0  0  0  0  0
  -30.3390  -12.4000   19.3480 C   0  0  0  0  0  2  0  0  0  0  0  0
  -29.3940  -12.5580   18.1380 C   0  0  0  0  0  2  0  0  0  0  0  0
  -27.9190  -12.4090   18.5640 C   0  0  0  0  0  2  0  0  0  0  0  0
  -27.5720  -13.2570   19.8180 C   0  0  0  0  0  3  0  0  0  0  0  0
  -28.6320  -13.0800   20.9270 C   0  0  0  0  0  2  0  0  0  0  0  0
  -29.9410  -13.4090   20.3470 N   0  0  0  0  0  0  0  0  0  0  0  0
  -31.7520  -14.7460   20.0520 O   0  0  0  0  0  0  0  0  0  0  0  0
  -29.8830  -15.6640   20.9130 N   0  0  0  0  0  0  0  0  0  0  0  0
  -28.9220  -15.4990   21.1670 H   0  0  0  0  0  0  0  0  0  0  0  0
  -25.1810  -13.8530   20.5470 C   0  0  0  0  0  0  0  0  0  0  0  0
  -24.1160  -13.0780   20.9180 C   0  0  0  0  0  0  0  0  0  0  0  0
  -24.5780  -11.7270   20.8820 C   0  0  0  0  0  0  0  0  0  0  0  0
  -26.2250  -12.9750   20.3070 N   0  0  0  0  0  0  0  0  0  0  0  0
  -25.8670  -11.6910   20.5700 N   0  0  0  0  0  0  0  0  0  0  0  0
  -23.8530  -10.4640   21.0720 C   0  0  0  0  0  0  0  0  0  0  0  0
  -24.3010   -9.4830   21.9830 C   0  0  0  0  0  3  0  0  0  0  0  0
  -23.5760   -8.2850   22.1590 C   0  0  0  0  0  3  0  0  0  0  0  0
  -22.3880   -8.0610   21.4250 C   0  0  0  0  0  0  0  0  0  0  0  0
  -21.9590   -9.0290   20.5010 C   0  0  0  0  0  3  0  0  0  0  0  0
  -22.6850  -10.2190   20.3230 C   0  0  0  0  0  3  0  0  0  0  0  0
  -21.6320   -6.9170   21.5150 O   0  0  0  0  0  0  0  0  0  0  0  0
  -21.6190   -6.1490   22.6510 C   0  0  0  0  0  0  0  0  0  0  0  0
  -21.2520   -6.6800   23.9070 C   0  0  0  0  0  3  0  0  0  0  0  0
  -21.1860   -5.8380   25.0350 C   0  0  0  0  0  3  0  0  0  0  0  0
  -21.4760   -4.4660   24.9100 C   0  0  0  0  0  0  0  0  0  0  0  0
  -21.8350   -3.9340   23.6580 C   0  0  0  0  0  3  0  0  0  0  0  0
  -21.9040   -4.7730   22.5330 C   0  0  0  0  0  0  0  0  0  0  0  0
  -22.2300   -4.2510   21.3250 F   0  0  0  0  0  0  0  0  0  0  0  0
  -21.4050   -3.6560   25.9920 F   0  0  0  0  0  0  0  0  0  0  0  0
  -22.7170  -13.5550   21.1920 C   0  0  0  0  0  0  0  0  0  0  0  0
  -21.9900  -12.8570   22.0590 N   0  0  0  0  0  0  0  0  0  0  0  0
  -22.2770  -14.5790   20.6720 O   0  0  0  0  0  0  0  0  0  0  0  0
  -22.3580  -12.0300   22.5040 H   0  0  0  0  0  0  0  0  0  0  0  0
  -21.0520  -13.1560   22.2800 H   0  0  0  0  0  0  0  0  0  0  0  0
  -25.3440  -15.2250   20.3690 N   0  0  0  0  0  0  0  0  0  0  0  0
  -24.5720  -15.8730   20.4740 H   0  0  0  0  0  0  0  0  0  0  0  0
  -26.1780  -15.6620   19.9960 H   0  0  0  0  0  0  0  0  0  0  0  0
  -28.4360  -23.9920   19.9070 C   0  0  0  0  0  3  0  0  0  0  0  0
  -27.1540  -23.6320   19.4130 O   0  0  0  0  0  0  0  0  0  0  0  0
  -26.8290  -24.3700   18.9100 H   0  0  0  0  0  0  0  0  0  0  0  0
  -28.2830  -25.2840   20.8130 C   0  0  0  0  0  2  0  0  0  0  0  0
  -28.3580  -26.5970   20.1720 O   0  0  0  0  0  0  0  0  0  0  0  0
  -24.5880  -31.8910   23.2370 C   0  0  0  0  0  0  0  0  0  0  0  0
  -27.2130  -27.3830   20.1870 C   0  0  0  0  0  0  0  0  0  0  0  0
  -23.3800  -30.4830   21.6020 C   0  0  0  0  0  3  0  0  0  0  0  0
  -24.8310  -28.9360   20.1800 C   0  0  0  0  0  0  0  0  0  0  0  0
  -25.9110  -30.8270   21.4030 C   0  0  0  0  0  2  0  0  0  0  0  0
  -25.9950  -29.4480   20.7680 C   0  0  0  0  0  0  0  0  0  0  0  0
  -27.1900  -28.6810   20.7650 C   0  0  0  0  0  3  0  0  0  0  0  0
  -26.0300  -26.9030   19.5870 C   0  0  0  0  0  3  0  0  0  0  0  0
  -24.8460  -27.6650   19.5840 C   0  0  0  0  0  3  0  0  0  0  0  0
  -23.5910  -29.8030   20.2230 C   0  0  0  0  0  2  0  0  0  0  0  0
  -24.6450  -31.0830   22.1380 N   0  0  0  0  0  0  0  0  0  0  0  0
  -23.5080  -32.1630   23.7800 O   0  0  0  0  0  0  0  0  0  0  0  0
  -22.7300  -29.4650   22.5670 C   0  0  0  0  0  0  0  0  0  0  0  0
  -21.4040  -29.2810   22.4450 N   0  0  0  0  0  0  0  0  0  0  0  0
  -23.4150  -28.8430   23.3820 O   0  0  0  0  0  0  0  0  0  0  0  0
  -20.9090  -29.8330   21.7590 H   0  0  0  0  0  0  0  0  0  0  0  0
  -18.0370  -28.0680   22.9520 C   0  0  0  0  0  0  0  0  0  0  0  0
  -20.5940  -28.3440   23.2220 C   0  0  0  0  0  3  0  0  0  0  0  0
  -20.7050  -26.9090   22.6540 C   0  0  0  0  0  2  0  0  0  0  0  0
  -19.6060  -26.5740   21.6420 C   0  0  0  0  0  2  0  0  0  0  0  0
  -18.2220  -26.7160   22.2830 C   0  0  0  0  0  2  0  0  0  0  0  0
  -19.1510  -28.8390   23.3780 C   0  0  0  0  0  0  0  0  0  0  0  0
  -18.9260  -30.1050   23.9610 C   0  0  0  0  0  3  0  0  0  0  0  0
  -17.6180  -30.6020   24.1200 C   0  0  0  0  0  3  0  0  0  0  0  0
  -16.5180  -29.8280   23.7090 C   0  0  0  0  0  3  0  0  0  0  0  0
  -16.7290  -28.5640   23.1310 C   0  0  0  0  0  3  0  0  0  0  0  0
  -25.8750  -32.5260   23.8490 C   0  0  0  0  0  3  0  0  0  0  0  0
  -25.5620  -33.9200   24.1850 N   0  0  0  0  0  0  0  0  0  0  0  0
  -25.8810  -34.9770   23.4240 C   0  0  0  0  0  0  0  0  0  0  0  0
  -26.5410  -34.8800   22.3870 O   0  0  0  0  0  0  0  0  0  0  0  0
  -24.9750  -34.0690   24.9930 H   0  0  0  0  0  0  0  0  0  0  0  0
  -24.1360  -36.7590   23.0940 C   0  0  0  0  0  1  0  0  0  0  0  0
  -25.3890  -36.3600   23.8900 C   0  0  0  0  0  3  0  0  0  0  0  0
  -27.5290  -37.2570   24.6940 C   0  0  0  0  0  1  0  0  0  0  0  0
  -26.4120  -37.4220   23.7680 N   0  0  0  0  0  0  0  0  0  0  0  0
  -26.0010  -38.3370   23.9280 H   0  0  0  0  0  0  0  0  0  0  0  0
  -26.4070  -31.7530   25.1180 C   0  0  1  0  0  0  0  0  0  0  0  0
  -25.3250  -31.5120   26.1960 C   0  0  0  0  0  1  0  0  0  0  0  0
  -26.9910  -30.3780   24.7200 C   0  0  0  0  0  1  0  0  0  0  0  0
  -27.5570  -32.5530   25.7760 C   0  0  0  0  0  1  0  0  0  0  0  0
  2  1  1  0
  3  5  2  0
  3 10  1  0
  4  5  1  0
  6  8  1  0
  6  4  2  0
  7  4  1  0
  7  2  1  0
  8  3  1  0
  9  7  1  0
 11 19  1  0
 12 17  1  0
 13 14  1  0
 13 12  1  0
 15 14  1  0
 15 24  1  0
 15 16  1  0
 17 11  1  0
 17 16  1  0
 18 11  2  0
 19 20  1  0
 19 10  1  0
 21 22  2  0
 22 41  1  0
 23 22  1  0
 23 26  1  0
 24 21  1  0
 24 25  1  0
 25 23  2  0
 26 27  1  0
 27 28  2  0
 29 32  1  0
 29 28  1  0
 30 29  2  0
 31 30  1  0
 31 26  2  0
 32 33  1  0
 33 34  1  0
 34 35  2  0
 36 35  1  0
 36 40  1  0
 37 36  2  0
 38 33  2  0
 38 37  1  0
 39 38  1  0
 41 42  1  0
 42 45  1  0
 42 44  1  0
 43 41  2  0
 46 47  1  0
 46 21  1  0
 48 46  1  0
 49  2  1  0
 49 52  1  0
 50 49  1  0
 51 50  1  0
 53 55  1  0
 53 52  1  0
 54 65  2  0
 55 60  1  0
 56 64  1  0
 56 66  1  0
 57 63  1  0
 57 59  1  0
 58 64  1  0
 59 58  1  0
 60 59  2  0
 61 55  2  0
 62 61  1  0
 62 57  2  0
 63 56  1  0
 64 54  1  0
 66 68  2  0
 67 66  1  0
 69 67  1  0
 70 79  2  0
 70 75  1  0
 71 67  1  0
 71 75  1  0
 72 71  1  0
 73 74  1  0
 73 72  1  0
 74 70  1  0
 75 76  2  0
 76 77  1  0
 78 77  2  0
 79 78  1  0
 80 54  1  0
 80 81  1  0
 80 90  1  0
 81 84  1  0
 82 86  1  0
 82 81  1  0
 83 82  2  0
 86 85  1  0
 88 86  1  0
 88 89  1  0
 88 87  1  0
 90 93  1  1
 90 91  1  0
 92 90  1  0
M  ISO  4  11 100  19 100  52 101  53 101
M  END
>  <TORSDO>  (6) 
F 21

>  <SCORE>  (6) 
-13.842

>  <name>  (6) 
5

>  <ligand_id>  (6) 
5

>  <original_smiles>  (6) 
[H]OC([H])(C([H])([H])Oc1c([H])c([H])c2c(c1[H])C([H])([H])N(C(=O)C([H])(N([H])C(=O)C([H])(N([H])C([H])([H])[H])C([H])([H])[H])C(C([H])([H])[H])(C([H])([H])[H])C([H])([H])[H])C([H])(C(=O)N([H])C1([H])c3c([H])c([H])c([H])c([H])c3C([H])([H])C([H])([H])C1([H])[H])C2([H])[H])C([H])(N([H])c1noc(C([H])([H])N([H])C(=O)N2C([H])([H])C([H])([H])C([H])([H])C([H])(n3nc(-c4c([H])c([H])c(Oc5c([H])c([H])c(F)c([H])c5F)c([H])c4[H])c(C(=O)N([H])[H])c3N([H])[H])C2([H])[H])n1)C([H])([H])[H]

>  <smiles>  (6) 
[H]OC([H])(C([H])([H])Oc1c([H])c([H])c2c(c1[H])C([H])([H])N(C(=O)C([H])(N([H])C(=O)C([H])(N([H])C([H])([H])[H])C([H])([H])[H])C(C([H])([H])[H])(C([H])([H])[H])C([H])([H])[H])C([H])(C(=O)N([H])C1([H])c3c([H])c([H])c([H])c([H])c3C([H])([H])C([H])([H])C1([H])[H])C2([H])[H])C([H])(N([H])c1noc(C([H])([H])N([H])C(=O)N2C([H])([H])C([H])([H])C([H])([H])C([H])(n3nc(-c4c([H])c([H])c(Oc5c([H])c([H])c(F)c([H])c5F)c([H])c4[H])c(C(=O)N([H])[H])c3N([H])[H])C2([H])[H])n1)C([H])([H])[H]

$$$$
6:0:0
     RDKit          3D

 89 97  0  0  1  0  0  0  0  0999 V2000
  -30.4550  -18.0200   19.3020 C   0  0  0  0  0  3  0  0  0  0  0  0
  -30.1430  -17.3840   20.4910 C   0  0  0  0  0  0  0  0  0  0  0  0
  -29.7230  -19.9340   20.4190 C   0  0  0  0  0  0  0  0  0  0  0  0
  -29.3220  -22.4810   19.9340 C   0  0  0  0  0  0  0  0  0  0  0  0
  -30.2190  -19.4300   19.2730 N   0  0  0  0  0  0  0  0  0  0  0  0
  -29.3790  -21.3370   20.6980 N   0  0  0  0  0  0  0  0  0  0  0  0
  -29.5710  -22.4700   18.7260 O   0  0  0  0  0  0  0  0  0  0  0  0
  -29.5520  -18.6240   21.6210 S   0  0  0  0  0  0  0  0  0  0  0  0
  -29.1190  -21.4890   21.6620 H   0  0  0  0  0  0  0  0  0  0  0  0
  -30.1320  -15.8810   20.9330 C   0  0  0  0  0  2  0  0  0  0  0  0
  -30.8390  -14.6900   20.1420 C   0  0  0  0  0  0  0  0  0  0  0  0
  -30.5660  -12.5180   18.9260 C   0  0  0  0  0  2  0  0  0  0  0  0
  -29.5510  -12.7170   17.7770 C   0  0  0  0  0  2  0  0  0  0  0  0
  -28.1010  -12.5530   18.2770 C   0  0  0  0  0  2  0  0  0  0  0  0
  -27.8300  -13.3490   19.5800 C   0  0  0  0  0  3  0  0  0  0  0  0
  -28.9430  -13.0830   20.6180 C   0  0  0  0  0  2  0  0  0  0  0  0
  -30.2200  -13.4700   20.0020 N   0  0  0  0  0  0  0  0  0  0  0  0
  -31.9410  -14.8860   19.6160 O   0  0  0  0  0  0  0  0  0  0  0  0
  -25.4790  -13.9660   20.4160 C   0  0  0  0  0  0  0  0  0  0  0  0
  -24.4180  -13.1990   20.8160 C   0  0  0  0  0  0  0  0  0  0  0  0
  -24.8580  -11.8430   20.7350 C   0  0  0  0  0  0  0  0  0  0  0  0
  -26.4990  -13.0770   20.1170 N   0  0  0  0  0  0  0  0  0  0  0  0
  -26.1330  -11.7940   20.3670 N   0  0  0  0  0  0  0  0  0  0  0  0
  -24.1230  -10.5870   20.9350 C   0  0  0  0  0  0  0  0  0  0  0  0
  -24.5570   -9.6170   21.8660 C   0  0  0  0  0  3  0  0  0  0  0  0
  -23.8250   -8.4250   22.0530 C   0  0  0  0  0  3  0  0  0  0  0  0
  -22.6440   -8.1940   21.3070 C   0  0  0  0  0  0  0  0  0  0  0  0
  -22.2300   -9.1530   20.3640 C   0  0  0  0  0  3  0  0  0  0  0  0
  -22.9630  -10.3360   20.1760 C   0  0  0  0  0  3  0  0  0  0  0  0
  -21.8820   -7.0550   21.4020 O   0  0  0  0  0  0  0  0  0  0  0  0
  -21.8030   -6.3380   22.5690 C   0  0  0  0  0  0  0  0  0  0  0  0
  -21.2900   -6.9030   23.7560 C   0  0  0  0  0  3  0  0  0  0  0  0
  -21.1620   -6.1110   24.9150 C   0  0  0  0  0  3  0  0  0  0  0  0
  -21.5360   -4.7540   24.8850 C   0  0  0  0  0  0  0  0  0  0  0  0
  -22.0440   -4.1880   23.7020 C   0  0  0  0  0  3  0  0  0  0  0  0
  -22.1750   -4.9770   22.5460 C   0  0  0  0  0  0  0  0  0  0  0  0
  -22.6450   -4.4230   21.4030 F   0  0  0  0  0  0  0  0  0  0  0  0
  -21.4050   -3.9900   25.9940 F   0  0  0  0  0  0  0  0  0  0  0  0
  -23.0420  -13.6890   21.1640 C   0  0  0  0  0  0  0  0  0  0  0  0
  -22.3440  -12.9790   22.0440 N   0  0  0  0  0  0  0  0  0  0  0  0
  -22.5960  -14.7320   20.6900 O   0  0  0  0  0  0  0  0  0  0  0  0
  -22.7210  -12.1330   22.4440 H   0  0  0  0  0  0  0  0  0  0  0  0
  -21.4210  -13.2860   22.3190 H   0  0  0  0  0  0  0  0  0  0  0  0
  -25.6520  -15.3390   20.2620 N   0  0  0  0  0  0  0  0  0  0  0  0
  -24.8930  -15.9940   20.4160 H   0  0  0  0  0  0  0  0  0  0  0  0
  -26.4880  -15.7770   19.8990 H   0  0  0  0  0  0  0  0  0  0  0  0
  -28.9370  -23.8680   20.6200 C   0  0  0  0  0  3  0  0  0  0  0  0
  -28.7060  -25.1730   19.7140 C   0  0  0  0  0  3  0  0  0  0  0  0
  -28.5350  -26.5100   20.3490 O   0  0  0  0  0  0  0  0  0  0  0  0
  -24.6070  -31.8050   23.2900 C   0  0  0  0  0  0  0  0  0  0  0  0
  -27.3750  -27.3060   20.2560 C   0  0  0  0  0  0  0  0  0  0  0  0
  -23.4770  -30.4290   21.5790 C   0  0  0  0  0  3  0  0  0  0  0  0
  -24.9900  -28.9040   20.1880 C   0  0  0  0  0  0  0  0  0  0  0  0
  -26.0190  -30.7620   21.4990 C   0  0  0  0  0  2  0  0  0  0  0  0
  -26.1320  -29.3900   20.8380 C   0  0  0  0  0  0  0  0  0  0  0  0
  -27.3210  -28.6030   20.8620 C   0  0  0  0  0  3  0  0  0  0  0  0
  -26.2040  -26.8660   19.5980 C   0  0  0  0  0  3  0  0  0  0  0  0
  -25.0300  -27.6470   19.5620 C   0  0  0  0  0  3  0  0  0  0  0  0
  -23.7480  -29.7710   20.2000 C   0  0  0  0  0  2  0  0  0  0  0  0
  -24.7190  -31.0160   22.1810 N   0  0  0  0  0  0  0  0  0  0  0  0
  -23.5010  -32.0700   23.7840 O   0  0  0  0  0  0  0  0  0  0  0  0
  -22.7810  -29.3960   22.4970 C   0  0  0  0  0  0  0  0  0  0  0  0
  -21.4600  -29.2260   22.3220 N   0  0  0  0  0  0  0  0  0  0  0  0
  -23.4300  -28.7510   23.3250 O   0  0  0  0  0  0  0  0  0  0  0  0
  -20.9970  -29.7990   21.6300 H   0  0  0  0  0  0  0  0  0  0  0  0
  -18.0590  -28.0540   22.7010 C   0  0  0  0  0  0  0  0  0  0  0  0
  -20.6120  -28.2750   23.0420 C   0  0  0  0  0  3  0  0  0  0  0  0
  -20.7120  -26.8600   22.4250 C   0  0  0  0  0  2  0  0  0  0  0  0
  -19.6320  -26.5810   21.3750 C   0  0  0  0  0  2  0  0  0  0  0  0
  -18.2370  -26.7230   21.9890 C   0  0  0  0  0  2  0  0  0  0  0  0
  -19.1740  -28.7890   23.1810 C   0  0  0  0  0  0  0  0  0  0  0  0
  -18.9540  -30.0360   23.8060 C   0  0  0  0  0  3  0  0  0  0  0  0
  -17.6510  -30.5470   23.9540 C   0  0  0  0  0  3  0  0  0  0  0  0
  -16.5490  -29.8080   23.4900 C   0  0  0  0  0  3  0  0  0  0  0  0
  -16.7540  -28.5630   22.8690 C   0  0  0  0  0  3  0  0  0  0  0  0
  -25.8600  -32.4320   23.9750 C   0  0  0  0  0  3  0  0  0  0  0  0
  -26.2840  -31.6800   25.2970 C   0  0  1  0  0  0  0  0  0  0  0  0
  -25.1220  -31.4760   26.2970 C   0  0  0  0  0  1  0  0  0  0  0  0
  -26.8700  -30.2860   24.9690 C   0  0  0  0  0  1  0  0  0  0  0  0
  -27.4020  -32.4710   26.0150 C   0  0  0  0  0  1  0  0  0  0  0  0
  -25.5540  -33.8410   24.2570 N   0  0  0  0  0  0  0  0  0  0  0  0
  -25.9460  -34.8730   23.4970 C   0  0  0  0  0  0  0  0  0  0  0  0
  -26.6720  -34.7380   22.5090 O   0  0  0  0  0  0  0  0  0  0  0  0
  -24.9090  -34.0210   25.0130 H   0  0  0  0  0  0  0  0  0  0  0  0
  -24.2800  -36.6920   22.9980 C   0  0  0  0  0  1  0  0  0  0  0  0
  -25.4560  -36.2780   23.8970 C   0  0  0  0  0  3  0  0  0  0  0  0
  -27.5380  -37.1510   24.8660 C   0  0  0  0  0  1  0  0  0  0  0  0
  -26.5140  -37.3100   23.8350 N   0  0  0  0  0  0  0  0  0  0  0  0
  -26.1170  -38.2410   23.9230 H   0  0  0  0  0  0  0  0  0  0  0  0
  1  2  2  0
  2 10  1  0
  2  8  1  0
  3  6  1  0
  3  8  1  0
  4 47  1  0
  4  6  1  0
  5  1  1  0
  5  3  2  0
  6  9  1  0
  7  4  2  0
 11 10  1  0
 12 17  1  0
 13 14  1  0
 13 12  1  0
 15 14  1  0
 15 22  1  0
 15 16  1  0
 17 11  1  0
 17 16  1  0
 18 11  2  0
 19 20  2  0
 20 39  1  0
 21 20  1  0
 21 24  1  0
 22 23  1  0
 22 19  1  0
 23 21  2  0
 24 25  1  0
 25 26  2  0
 27 30  1  0
 27 26  1  0
 28 27  2  0
 29 28  1  0
 29 24  2  0
 30 31  1  0
 31 32  1  0
 32 33  2  0
 34 33  1  0
 34 38  1  0
 35 34  2  0
 36 31  2  0
 36 35  1  0
 37 36  1  0
 39 40  1  0
 40 43  1  0
 40 42  1  0
 41 39  2  0
 44 45  1  0
 44 19  1  0
 46 44  1  0
 48 49  1  0
 48 47  2  0
 50 61  2  0
 51 49  1  0
 51 56  1  0
 52 60  1  0
 52 62  1  0
 53 59  1  0
 53 55  1  0
 54 60  1  0
 55 56  2  0
 55 54  1  0
 57 51  2  0
 58 57  1  0
 58 53  2  0
 59 52  1  0
 60 50  1  0
 62 64  2  0
 63 62  1  0
 65 63  1  0
 66 75  2  0
 66 71  1  0
 67 63  1  0
 67 71  1  0
 68 67  1  0
 69 70  1  0
 69 68  1  0
 70 66  1  0
 71 72  2  0
 72 73  1  0
 74 73  2  0
 75 74  1  0
 76 50  1  0
 76 81  1  0
 76 77  1  0
 77 80  1  1
 77 78  1  0
 79 77  1  0
 81 84  1  0
 82 86  1  0
 82 81  1  0
 83 82  2  0
 86 85  1  0
 88 86  1  0
 88 89  1  0
 88 87  1  0
M  ISO  4  10 100  11 100  48 101  49 101
M  END
>  <TORSDO>  (7) 
F 19

>  <SCORE>  (7) 
-13.268

>  <name>  (7) 
6

>  <ligand_id>  (7) 
6

>  <original_smiles>  (7) 
[H]c1nc(N([H])C(=O)C([H])([H])C([H])([H])Oc2c([H])c([H])c3c(c2[H])C([H])([H])N(C(=O)C([H])(N([H])C(=O)C([H])(N([H])C([H])([H])[H])C([H])([H])[H])C(C([H])([H])[H])(C([H])([H])[H])C([H])([H])[H])C([H])(C(=O)N([H])C2([H])c4c([H])c([H])c([H])c([H])c4C([H])([H])C([H])([H])C2([H])[H])C3([H])[H])sc1C([H])([H])C(=O)N1C([H])([H])C([H])([H])C([H])([H])C([H])(n2nc(-c3c([H])c([H])c(Oc4c([H])c([H])c(F)c([H])c4F)c([H])c3[H])c(C(=O)N([H])[H])c2N([H])[H])C1([H])[H]

>  <smiles>  (7) 
[H]c1nc(N([H])C(=O)C([H])([H])C([H])([H])Oc2c([H])c([H])c3c(c2[H])C([H])([H])N(C(=O)C([H])(N([H])C(=O)C([H])(N([H])C([H])([H])[H])C([H])([H])[H])C(C([H])([H])[H])(C([H])([H])[H])C([H])([H])[H])C([H])(C(=O)N([H])C2([H])c4c([H])c([H])c([H])c([H])c4C([H])([H])C([H])([H])C2([H])[H])C3([H])[H])sc1C([H])([H])C(=O)N1C([H])([H])C([H])([H])C([H])([H])C([H])(n2nc(-c3c([H])c([H])c(Oc4c([H])c([H])c(F)c([H])c4F)c([H])c3[H])c(C(=O)N([H])[H])c2N([H])[H])C1([H])[H]

$$$$
7:0:0
     RDKit          3D

 92100  0  0  1  0  0  0  0  0999 V2000
  -28.0780  -23.6120   19.8440 C   0  0  0  0  0  3  0  0  0  0  0  0
  -26.6430  -23.2290   19.8890 N   0  0  0  0  0  4  0  0  0  0  0  0
  -26.3940  -22.8420   20.7840 H   0  0  0  0  0  0  0  0  0  0  0  0
  -26.4130  -22.5600   19.1730 H   0  0  0  0  0  0  0  0  0  0  0  0
  -26.0530  -24.0280   19.7420 H   0  0  0  0  0  0  0  0  0  0  0  0
  -29.0350  -22.2720   20.0320 C   0  0  0  0  0  3  0  0  0  0  0  0
  -28.5120  -20.8240   20.5890 C   0  0  0  0  0  3  0  0  0  0  0  0
  -30.5130  -14.8130   20.2290 C   0  0  0  0  0  0  0  0  0  0  0  0
  -30.3670  -12.5280   19.2050 C   0  0  0  0  0  2  0  0  0  0  0  0
  -29.4050  -12.6080   17.9950 C   0  0  0  0  0  2  0  0  0  0  0  0
  -27.9400  -12.4080   18.4410 C   0  0  0  0  0  2  0  0  0  0  0  0
  -27.5760  -13.2790   19.6740 C   0  0  0  0  0  3  0  0  0  0  0  0
  -28.6560  -13.1650   20.7750 C   0  0  0  0  0  2  0  0  0  0  0  0
  -29.9370  -13.5580   20.1760 N   0  0  0  0  0  0  0  0  0  0  0  0
  -31.6830  -14.9630   19.8610 O   0  0  0  0  0  0  0  0  0  0  0  0
  -30.9570  -18.1470   20.3730 C   0  0  0  0  0  3  0  0  0  0  0  0
  -29.7720  -17.3660   20.4600 C   0  0  0  0  0  0  0  0  0  0  0  0
  -30.6850  -19.4480   20.3930 N   0  0  0  0  0  0  0  0  0  0  0  0
  -28.7550  -18.2360   20.5320 N   0  0  0  0  0  0  0  0  0  0  0  0
  -29.3200  -19.5180   20.4600 N   0  0  0  0  0  0  0  0  0  0  0  0
  -29.6600  -15.8800   20.5150 N   0  0  0  0  0  0  0  0  0  0  0  0
  -28.7330  -15.5650   20.7510 H   0  0  0  0  0  0  0  0  0  0  0  0
  -25.2040  -13.8670   20.4480 C   0  0  0  0  0  0  0  0  0  0  0  0
  -24.1470  -13.0930   20.8400 C   0  0  0  0  0  0  0  0  0  0  0  0
  -24.6120  -11.7440   20.8000 C   0  0  0  0  0  0  0  0  0  0  0  0
  -26.2420  -12.9900   20.1860 N   0  0  0  0  0  0  0  0  0  0  0  0
  -25.8950  -11.7050   20.4590 N   0  0  0  0  0  0  0  0  0  0  0  0
  -23.8910  -10.4800   21.0030 C   0  0  0  0  0  0  0  0  0  0  0  0
  -24.3410   -9.5120   21.9300 C   0  0  0  0  0  3  0  0  0  0  0  0
  -23.6200   -8.3130   22.1210 C   0  0  0  0  0  3  0  0  0  0  0  0
  -22.4350   -8.0740   21.3840 C   0  0  0  0  0  0  0  0  0  0  0  0
  -22.0040   -9.0300   20.4460 C   0  0  0  0  0  3  0  0  0  0  0  0
  -22.7260  -10.2200   20.2550 C   0  0  0  0  0  3  0  0  0  0  0  0
  -21.6870   -6.9250   21.4860 O   0  0  0  0  0  0  0  0  0  0  0  0
  -21.6590   -6.1830   22.6410 C   0  0  0  0  0  0  0  0  0  0  0  0
  -21.2400   -6.7360   23.8710 C   0  0  0  0  0  3  0  0  0  0  0  0
  -21.1590   -5.9210   25.0160 C   0  0  0  0  0  3  0  0  0  0  0  0
  -21.4860   -4.5540   24.9330 C   0  0  0  0  0  0  0  0  0  0  0  0
  -21.8990   -4.0010   23.7090 C   0  0  0  0  0  3  0  0  0  0  0  0
  -21.9820   -4.8140   22.5650 C   0  0  0  0  0  0  0  0  0  0  0  0
  -22.3600   -4.2700   21.3820 F   0  0  0  0  0  0  0  0  0  0  0  0
  -21.4010   -3.7710   26.0320 F   0  0  0  0  0  0  0  0  0  0  0  0
  -22.7560  -13.5690   21.1410 C   0  0  0  0  0  0  0  0  0  0  0  0
  -22.0480  -12.8750   22.0220 N   0  0  0  0  0  0  0  0  0  0  0  0
  -22.3090  -14.5950   20.6320 O   0  0  0  0  0  0  0  0  0  0  0  0
  -22.4250  -12.0420   22.4520 H   0  0  0  0  0  0  0  0  0  0  0  0
  -21.1160  -13.1790   22.2690 H   0  0  0  0  0  0  0  0  0  0  0  0
  -25.3590  -15.2400   20.2730 N   0  0  0  0  0  0  0  0  0  0  0  0
  -24.5950  -15.8910   20.4150 H   0  0  0  0  0  0  0  0  0  0  0  0
  -26.1950  -15.6910   19.9250 H   0  0  0  0  0  0  0  0  0  0  0  0
  -28.2830  -25.0000   20.6840 C   0  0  0  0  0  2  0  0  0  0  0  0
  -28.3200  -26.4020   20.1160 O   0  0  0  0  0  0  0  0  0  0  0  0
  -24.6090  -31.8690   23.2260 C   0  0  0  0  0  0  0  0  0  0  0  0
  -27.2030  -27.2650   20.1640 C   0  0  0  0  0  0  0  0  0  0  0  0
  -23.4030  -30.4730   21.5890 C   0  0  0  0  0  3  0  0  0  0  0  0
  -24.8510  -28.9130   20.1600 C   0  0  0  0  0  0  0  0  0  0  0  0
  -25.9480  -30.7810   21.3970 C   0  0  0  0  0  2  0  0  0  0  0  0
  -26.0260  -29.3950   20.7540 C   0  0  0  0  0  0  0  0  0  0  0  0
  -27.2070  -28.5850   20.7420 C   0  0  0  0  0  3  0  0  0  0  0  0
  -26.0080  -26.8520   19.5440 C   0  0  0  0  0  3  0  0  0  0  0  0
  -24.8450  -27.6500   19.5500 C   0  0  0  0  0  3  0  0  0  0  0  0
  -23.6190  -29.7980   20.2080 C   0  0  0  0  0  2  0  0  0  0  0  0
  -24.6740  -31.0600   22.1260 N   0  0  0  0  0  0  0  0  0  0  0  0
  -23.5250  -32.1450   23.7640 O   0  0  0  0  0  0  0  0  0  0  0  0
  -22.7410  -29.4520   22.5470 C   0  0  0  0  0  0  0  0  0  0  0  0
  -21.4170  -29.2760   22.4270 N   0  0  0  0  0  0  0  0  0  0  0  0
  -23.4240  -28.8260   23.3630 O   0  0  0  0  0  0  0  0  0  0  0  0
  -20.9270  -29.8350   21.7420 H   0  0  0  0  0  0  0  0  0  0  0  0
  -18.0410  -28.0730   22.9430 C   0  0  0  0  0  0  0  0  0  0  0  0
  -20.6000  -28.3380   23.1980 C   0  0  0  0  0  3  0  0  0  0  0  0
  -20.7010  -26.9070   22.6210 C   0  0  0  0  0  2  0  0  0  0  0  0
  -19.5930  -26.5830   21.6140 C   0  0  0  0  0  2  0  0  0  0  0  0
  -18.2170  -26.7240   22.2680 C   0  0  0  0  0  2  0  0  0  0  0  0
  -19.1620  -28.8380   23.3650 C   0  0  0  0  0  0  0  0  0  0  0  0
  -18.9430  -30.1010   23.9550 C   0  0  0  0  0  3  0  0  0  0  0  0
  -17.6390  -30.5980   24.1330 C   0  0  0  0  0  3  0  0  0  0  0  0
  -16.5340  -29.8300   23.7320 C   0  0  0  0  0  3  0  0  0  0  0  0
  -16.7360  -28.5690   23.1390 C   0  0  0  0  0  3  0  0  0  0  0  0
  -25.8910  -32.5060   23.8450 C   0  0  0  0  0  3  0  0  0  0  0  0
  -26.4030  -31.7410   25.1260 C   0  0  1  0  0  0  0  0  0  0  0  0
  -25.3070  -31.5080   26.1930 C   0  0  0  0  0  1  0  0  0  0  0  0
  -26.9880  -30.3630   24.7410 C   0  0  0  0  0  1  0  0  0  0  0  0
  -27.5530  -32.5360   25.7860 C   0  0  0  0  0  1  0  0  0  0  0  0
  -25.5740  -33.9040   24.1730 N   0  0  0  0  0  0  0  0  0  0  0  0
  -25.9070  -34.9600   23.4190 C   0  0  0  0  0  0  0  0  0  0  0  0
  -26.5780  -34.8580   22.3880 O   0  0  0  0  0  0  0  0  0  0  0  0
  -24.9780  -34.0560   24.9750 H   0  0  0  0  0  0  0  0  0  0  0  0
  -24.1820  -36.7570   23.0610 C   0  0  0  0  0  1  0  0  0  0  0  0
  -25.4180  -36.3490   23.8770 C   0  0  0  0  0  3  0  0  0  0  0  0
  -27.5480  -37.2310   24.7220 C   0  0  0  0  0  1  0  0  0  0  0  0
  -26.4530  -37.4010   23.7720 N   0  0  0  0  0  0  0  0  0  0  0  0
  -26.0460  -38.3200   23.9180 H   0  0  0  0  0  0  0  0  0  0  0  0
  1  2  1  0
  1  6  1  0
  1 51  1  0
  2  3  1  0
  4  2  1  0
  5  2  1  0
  6  7  2  0
  8 21  1  0
  9 14  1  0
 10 11  1  0
 10  9  1  0
 12 11  1  0
 12 26  1  0
 12 13  1  0
 14  8  1  0
 14 13  1  0
 15  8  2  0
 16 18  2  0
 16 17  1  0
 17 21  1  0
 17 19  2  0
 18 20  1  0
 20 19  1  0
 20  7  1  0
 21 22  1  0
 23 24  2  0
 24 43  1  0
 25 24  1  0
 25 28  1  0
 26 23  1  0
 26 27  1  0
 27 25  2  0
 28 29  1  0
 29 30  2  0
 31 34  1  0
 31 30  1  0
 32 31  2  0
 33 32  1  0
 33 28  2  0
 34 35  1  0
 35 36  1  0
 36 37  2  0
 38 37  1  0
 38 42  1  0
 39 38  2  0
 40 35  2  0
 40 39  1  0
 41 40  1  0
 43 44  1  0
 44 47  1  0
 44 46  1  0
 45 43  2  0
 48 49  1  0
 48 23  1  0
 50 48  1  0
 52 54  1  0
 52 51  1  0
 53 64  2  0
 54 59  1  0
 55 63  1  0
 55 65  1  0
 56 62  1  0
 56 58  1  0
 57 63  1  0
 58 57  1  0
 59 58  2  0
 60 61  1  0
 60 54  2  0
 61 56  2  0
 62 55  1  0
 63 53  1  0
 65 67  2  0
 66 65  1  0
 68 66  1  0
 69 78  2  0
 69 74  1  0
 70 66  1  0
 70 74  1  0
 71 70  1  0
 72 73  1  0
 72 71  1  0
 73 69  1  0
 74 75  2  0
 75 76  1  0
 77 76  2  0
 78 77  1  0
 79 53  1  0
 79 84  1  0
 79 80  1  0
 80 83  1  1
 80 81  1  0
 82 80  1  0
 84 87  1  0
 85 89  1  0
 85 84  1  0
 86 85  2  0
 89 88  1  0
 91 89  1  0
 91 92  1  0
 91 90  1  0
M  ISO  4   8 100  21 100  51 101  52 101
M  END
>  <TORSDO>  (8) 
F 20

>  <SCORE>  (8) 
-14.140

>  <name>  (8) 
7

>  <ligand_id>  (8) 
7

>  <original_smiles>  (8) 
[H]c1nn(C([H])([H])C([H])([H])C([H])(C([H])([H])Oc2c([H])c([H])c3c(c2[H])C([H])([H])N(C(=O)C([H])(N([H])C(=O)C([H])(N([H])C([H])([H])[H])C([H])([H])[H])C(C([H])([H])[H])(C([H])([H])[H])C([H])([H])[H])C([H])(C(=O)N([H])C2([H])c4c([H])c([H])c([H])c([H])c4C([H])([H])C([H])([H])C2([H])[H])C3([H])[H])[N+]([H])([H])[H])nc1N([H])C(=O)N1C([H])([H])C([H])([H])C([H])([H])C([H])(n2nc(-c3c([H])c([H])c(Oc4c([H])c([H])c(F)c([H])c4F)c([H])c3[H])c(C(=O)N([H])[H])c2N([H])[H])C1([H])[H]

>  <smiles>  (8) 
[H]c1nn(C([H])([H])C([H])([H])C([H])(C([H])([H])Oc2c([H])c([H])c3c(c2[H])C([H])([H])N(C(=O)C([H])(N([H])C(=O)C([H])(N([H])C([H])([H])[H])C([H])([H])[H])C(C([H])([H])[H])(C([H])([H])[H])C([H])([H])[H])C([H])(C(=O)N([H])C2([H])c4c([H])c([H])c([H])c([H])c4C([H])([H])C([H])([H])C2([H])[H])C3([H])[H])[N+]([H])([H])[H])nc1N([H])C(=O)N1C([H])([H])C([H])([H])C([H])([H])C([H])(n2nc(-c3c([H])c([H])c(Oc4c([H])c([H])c(F)c([H])c4F)c([H])c3[H])c(C(=O)N([H])[H])c2N([H])[H])C1([H])[H]

$$$$
8:0:0
     RDKit          3D

 93101  0  0  1  0  0  0  0  0999 V2000
  -30.6850  -14.6680   20.3460 C   0  0  0  0  0  0  0  0  0  0  0  0
  -30.5540  -12.3040   19.5700 C   0  0  0  0  0  2  0  0  0  0  0  0
  -29.6670  -12.2560   18.3060 C   0  0  0  0  0  2  0  0  0  0  0  0
  -28.1770  -12.1290   18.6810 C   0  0  0  0  0  2  0  0  0  0  0  0
  -27.7500  -13.1400   19.7770 C   0  0  0  0  0  3  0  0  0  0  0  0
  -28.7540  -13.1410   20.9530 C   0  0  0  0  0  2  0  0  0  0  0  0
  -30.0900  -13.4330   20.4030 N   0  0  0  0  0  0  0  0  0  0  0  0
  -31.8540  -14.7910   19.9620 O   0  0  0  0  0  0  0  0  0  0  0  0
  -28.7500  -19.3460   20.3710 C   0  0  0  0  0  3  0  0  0  0  0  0
  -28.7940  -17.9590   20.7070 C   0  0  0  0  0  0  0  0  0  0  0  0
  -29.8240  -19.9170   19.6530 C   0  0  0  0  0  0  0  0  0  0  0  0
  -29.9030  -17.1560   20.2930 C   0  0  0  0  0  0  0  0  0  0  0  0
  -27.6500  -17.3880   21.5340 C   0  0  0  0  0  1  0  0  0  0  0  0
  -30.8640  -19.1070   19.2990 N   0  0  0  0  0  0  0  0  0  0  0  0
  -30.8980  -17.7830   19.5960 N   0  0  0  0  0  0  0  0  0  0  0  0
  -29.8680  -15.7320   20.6220 N   0  0  0  0  0  0  0  0  0  0  0  0
  -29.9370  -21.2990   19.3040 N   0  0  0  0  0  0  0  0  0  0  0  0
  -28.9910  -15.4410   21.0190 H   0  0  0  0  0  0  0  0  0  0  0  0
  -30.8070  -21.5610   18.8550 H   0  0  0  0  0  0  0  0  0  0  0  0
  -25.3510  -13.8180   20.4060 C   0  0  0  0  0  0  0  0  0  0  0  0
  -24.2560  -13.0850   20.7720 C   0  0  0  0  0  0  0  0  0  0  0  0
  -24.6820  -11.7210   20.7850 C   0  0  0  0  0  0  0  0  0  0  0  0
  -26.3800  -12.9070   20.2270 N   0  0  0  0  0  0  0  0  0  0  0  0
  -25.9790  -11.6410   20.5140 N   0  0  0  0  0  0  0  0  0  0  0  0
  -23.9160  -10.4840   20.9820 C   0  0  0  0  0  0  0  0  0  0  0  0
  -24.3210   -9.5060   21.9160 C   0  0  0  0  0  3  0  0  0  0  0  0
  -23.5570   -8.3330   22.1010 C   0  0  0  0  0  3  0  0  0  0  0  0
  -22.3730   -8.1310   21.3520 C   0  0  0  0  0  0  0  0  0  0  0  0
  -21.9880   -9.0980   20.4060 C   0  0  0  0  0  3  0  0  0  0  0  0
  -22.7520  -10.2610   20.2190 C   0  0  0  0  0  3  0  0  0  0  0  0
  -21.5830   -7.0120   21.4460 O   0  0  0  0  0  0  0  0  0  0  0  0
  -21.5380   -6.2570   22.5910 C   0  0  0  0  0  0  0  0  0  0  0  0
  -21.1790   -6.8140   23.8370 C   0  0  0  0  0  3  0  0  0  0  0  0
  -21.0770   -5.9880   24.9740 C   0  0  0  0  0  3  0  0  0  0  0  0
  -21.3250   -4.6060   24.8670 C   0  0  0  0  0  0  0  0  0  0  0  0
  -21.6790   -4.0500   23.6260 C   0  0  0  0  0  3  0  0  0  0  0  0
  -21.7820   -4.8730   22.4900 C   0  0  0  0  0  0  0  0  0  0  0  0
  -22.1020   -4.3260   21.2920 F   0  0  0  0  0  0  0  0  0  0  0  0
  -21.2200   -3.8120   25.9570 F   0  0  0  0  0  0  0  0  0  0  0  0
  -22.8660  -13.6070   20.9920 C   0  0  0  0  0  0  0  0  0  0  0  0
  -22.0980  -12.9590   21.8610 N   0  0  0  0  0  0  0  0  0  0  0  0
  -22.4680  -14.6250   20.4290 O   0  0  0  0  0  0  0  0  0  0  0  0
  -22.4300  -12.1360   22.3410 H   0  0  0  0  0  0  0  0  0  0  0  0
  -21.1630  -13.2920   22.0510 H   0  0  0  0  0  0  0  0  0  0  0  0
  -25.5500  -15.1770   20.1830 N   0  0  0  0  0  0  0  0  0  0  0  0
  -24.7780  -15.8340   20.2140 H   0  0  0  0  0  0  0  0  0  0  0  0
  -26.3760  -15.5620   19.7420 H   0  0  0  0  0  0  0  0  0  0  0  0
  -28.8240  -22.2950   19.1990 C   0  0  0  0  0  2  0  0  0  0  0  0
  -29.2390  -23.8450   19.2120 C   0  0  0  0  0  3  0  0  0  0  0  0
  -29.8030  -24.0690   20.4900 O   0  0  0  0  0  0  0  0  0  0  0  0
  -30.0330  -24.9930   20.5310 H   0  0  0  0  0  0  0  0  0  0  0  0
  -28.0610  -24.9070   19.0280 C   0  0  0  0  0  2  0  0  0  0  0  0
  -28.3120  -26.3690   19.1320 O   0  0  0  0  0  0  0  0  0  0  0  0
  -24.6800  -31.3680   22.8850 C   0  0  0  0  0  0  0  0  0  0  0  0
  -27.1830  -27.2060   19.2300 C   0  0  0  0  0  0  0  0  0  0  0  0
  -23.4080  -30.1280   21.1710 C   0  0  0  0  0  3  0  0  0  0  0  0
  -24.8000  -28.7680   19.5150 C   0  0  0  0  0  0  0  0  0  0  0  0
  -25.9310  -30.5120   20.8910 C   0  0  0  0  0  2  0  0  0  0  0  0
  -25.9940  -29.2120   20.0980 C   0  0  0  0  0  0  0  0  0  0  0  0
  -27.1890  -28.4440   19.9450 C   0  0  0  0  0  3  0  0  0  0  0  0
  -25.9600  -26.8220   18.6310 C   0  0  0  0  0  3  0  0  0  0  0  0
  -24.7840  -27.5800   18.7740 C   0  0  0  0  0  3  0  0  0  0  0  0
  -23.5560  -29.6090   19.7190 C   0  0  0  0  0  2  0  0  0  0  0  0
  -24.6950  -30.6800   21.7070 N   0  0  0  0  0  0  0  0  0  0  0  0
  -23.6230  -31.5680   23.5010 O   0  0  0  0  0  0  0  0  0  0  0  0
  -22.8120  -29.0020   22.0500 C   0  0  0  0  0  0  0  0  0  0  0  0
  -21.4800  -28.8300   21.9900 N   0  0  0  0  0  0  0  0  0  0  0  0
  -23.5430  -28.2930   22.7460 O   0  0  0  0  0  0  0  0  0  0  0  0
  -20.9470  -29.4570   21.4040 H   0  0  0  0  0  0  0  0  0  0  0  0
  -18.1420  -27.5680   22.5810 C   0  0  0  0  0  0  0  0  0  0  0  0
  -20.7130  -27.8050   22.7010 C   0  0  0  0  0  3  0  0  0  0  0  0
  -20.7700  -26.4500   21.9590 C   0  0  0  0  0  2  0  0  0  0  0  0
  -19.6000  -26.2420   20.9940 C   0  0  0  0  0  2  0  0  0  0  0  0
  -18.2660  -26.3060   21.7440 C   0  0  0  0  0  2  0  0  0  0  0  0
  -19.2900  -28.2800   23.0180 C   0  0  0  0  0  0  0  0  0  0  0  0
  -19.1170  -29.4660   23.7650 C   0  0  0  0  0  3  0  0  0  0  0  0
  -17.8290  -29.9380   24.0790 C   0  0  0  0  0  3  0  0  0  0  0  0
  -16.6960  -29.2210   23.6560 C   0  0  0  0  0  3  0  0  0  0  0  0
  -16.8540  -28.0370   22.9140 C   0  0  0  0  0  3  0  0  0  0  0  0
  -25.9860  -31.9540   23.5030 C   0  0  0  0  0  3  0  0  0  0  0  0
  -26.5870  -31.0560   24.6530 C   0  0  1  0  0  0  0  0  0  0  0  0
  -25.5640  -30.6810   25.7500 C   0  0  0  0  0  1  0  0  0  0  0  0
  -27.1600  -29.7400   24.0770 C   0  0  0  0  0  1  0  0  0  0  0  0
  -27.7670  -31.7910   25.3300 C   0  0  0  0  0  1  0  0  0  0  0  0
  -25.6720  -33.2980   24.0080 N   0  0  0  0  0  0  0  0  0  0  0  0
  -25.9360  -34.4380   23.3550 C   0  0  0  0  0  0  0  0  0  0  0  0
  -26.5390  -34.4670   22.2780 O   0  0  0  0  0  0  0  0  0  0  0  0
  -25.1270  -33.3470   24.8560 H   0  0  0  0  0  0  0  0  0  0  0  0
  -24.1510  -36.2120   23.3200 C   0  0  0  0  0  1  0  0  0  0  0  0
  -25.4540  -35.7540   23.9960 C   0  0  0  0  0  3  0  0  0  0  0  0
  -27.6250  -36.6010   24.7710 C   0  0  0  0  0  1  0  0  0  0  0  0
  -26.4550  -36.8420   23.9310 N   0  0  0  0  0  0  0  0  0  0  0  0
  -26.0420  -37.7280   24.2080 H   0  0  0  0  0  0  0  0  0  0  0  0
  1  7  1  0
  1 16  1  0
  2  7  1  0
  3  4  1  0
  3  2  1  0
  5  4  1  0
  5 23  1  0
  5  6  1  0
  7  6  1  0
  8  1  2  0
  9 10  1  0
 10 13  1  0
 11  9  2  0
 12 16  1  0
 12 10  2  0
 14 15  2  0
 14 11  1  0
 15 12  1  0
 16 18  1  0
 17 11  1  0
 19 17  1  0
 20 21  2  0
 21 22  1  0
 21 40  1  0
 22 25  1  0
 23 20  1  0
 23 24  1  0
 24 22  2  0
 25 26  1  0
 26 27  2  0
 28 31  1  0
 28 27  1  0
 29 28  2  0
 30 29  1  0
 30 25  2  0
 31 32  1  0
 32 33  1  0
 33 34  2  0
 35 34  1  0
 35 39  1  0
 36 35  2  0
 37 32  2  0
 37 36  1  0
 38 37  1  0
 40 41  1  0
 41 44  1  0
 41 43  1  0
 42 40  2  0
 45 46  1  0
 45 20  1  0
 47 45  1  0
 48 49  1  0
 48 17  1  0
 49 52  1  0
 49 50  1  0
 50 51  1  0
 52 53  1  0
 53 55  1  0
 54 65  2  0
 55 60  1  0
 56 64  1  0
 56 66  1  0
 57 63  1  0
 57 59  1  0
 58 64  1  0
 59 58  1  0
 60 59  2  0
 61 62  1  0
 61 55  2  0
 62 57  2  0
 63 56  1  0
 64 54  1  0
 66 68  2  0
 67 66  1  0
 69 67  1  0
 70 79  2  0
 70 75  1  0
 71 67  1  0
 71 75  1  0
 72 71  1  0
 73 74  1  0
 73 72  1  0
 74 70  1  0
 75 76  2  0
 76 77  1  0
 78 77  2  0
 79 78  1  0
 80 54  1  0
 80 85  1  0
 80 81  1  0
 81 84  1  1
 81 82  1  0
 83 81  1  0
 85 88  1  0
 86 90  1  0
 86 85  1  0
 87 86  2  0
 90 89  1  0
 92 90  1  0
 92 93  1  0
 92 91  1  0
M  ISO  4   1 100  16 100  52 101  53 101
M  END
>  <TORSDO>  (9) 
F 19

>  <SCORE>  (9) 
-10.700

>  <name>  (9) 
8

>  <ligand_id>  (9) 
8

>  <original_smiles>  (9) 
[H]OC([H])(C([H])([H])Oc1c([H])c([H])c2c(c1[H])C([H])([H])N(C(=O)C([H])(N([H])C(=O)C([H])(N([H])C([H])([H])[H])C([H])([H])[H])C(C([H])([H])[H])(C([H])([H])[H])C([H])([H])[H])C([H])(C(=O)N([H])C1([H])c3c([H])c([H])c([H])c([H])c3C([H])([H])C([H])([H])C1([H])[H])C2([H])[H])C([H])([H])N([H])c1nnc(N([H])C(=O)N2C([H])([H])C([H])([H])C([H])([H])C([H])(n3nc(-c4c([H])c([H])c(Oc5c([H])c([H])c(F)c([H])c5F)c([H])c4[H])c(C(=O)N([H])[H])c3N([H])[H])C2([H])[H])c(C([H])([H])[H])c1[H]

>  <smiles>  (9) 
[H]OC([H])(C([H])([H])Oc1c([H])c([H])c2c(c1[H])C([H])([H])N(C(=O)C([H])(N([H])C(=O)C([H])(N([H])C([H])([H])[H])C([H])([H])[H])C(C([H])([H])[H])(C([H])([H])[H])C([H])([H])[H])C([H])(C(=O)N([H])C1([H])c3c([H])c([H])c([H])c([H])c3C([H])([H])C([H])([H])C1([H])[H])C2([H])[H])C([H])([H])N([H])c1nnc(N([H])C(=O)N2C([H])([H])C([H])([H])C([H])([H])C([H])(n3nc(-c4c([H])c([H])c(Oc5c([H])c([H])c(F)c([H])c5F)c([H])c4[H])c(C(=O)N([H])[H])c3N([H])[H])C2([H])[H])c(C([H])([H])[H])c1[H]

$$$$
9:0:0
     RDKit          3D

 98106  0  0  1  0  0  0  0  0999 V2000
  -27.8240  -20.1280   19.0650 C   0  0  0  0  0  0  0  0  0  0  0  0
  -28.9660  -19.9080   19.9240 C   0  0  0  0  0  0  0  0  0  0  0  0
  -27.2460  -21.4370   19.0780 C   0  0  0  0  0  0  0  0  0  0  0  0
  -28.7560  -22.1520   20.6110 C   0  0  0  0  0  0  0  0  0  0  0  0
  -29.3830  -20.9660   20.6920 N   0  0  0  0  0  0  0  0  0  0  0  0
  -27.7310  -22.4340   19.8280 N   0  0  0  0  0  0  0  0  0  0  0  0
  -26.1250  -21.8130   18.3210 N   0  0  0  0  0  0  0  0  0  0  0  0
  -29.2860  -23.2030   21.3630 N   0  0  0  0  0  0  0  0  0  0  0  0
  -25.6320  -22.6890   18.4750 H   0  0  0  0  0  0  0  0  0  0  0  0
  -25.4980  -21.1130   17.9530 H   0  0  0  0  0  0  0  0  0  0  0  0
  -30.1090  -22.9330   21.8950 H   0  0  0  0  0  0  0  0  0  0  0  0
  -26.8760  -17.7850   19.0260 C   0  0  0  0  0  1  0  0  0  0  0  0
  -27.7540  -18.6980   16.8640 C   0  0  0  0  0  1  0  0  0  0  0  0
  -27.1240  -19.0430   18.2200 C   0  0  0  0  0  3  0  0  0  0  0  0
  -27.7020  -24.8990   22.4540 C   0  0  0  0  0  1  0  0  0  0  0  0
  -28.9060  -24.6440   21.5110 C   0  0  0  0  0  3  0  0  0  0  0  0
  -28.8700  -25.5100   20.1930 C   0  0  0  0  0  2  0  0  0  0  0  0
  -28.8300  -26.9710   20.3640 O   0  0  0  0  0  0  0  0  0  0  0  0
  -24.7170  -31.9790   23.3590 C   0  0  0  0  0  0  0  0  0  0  0  0
  -27.6340  -27.6910   20.2740 C   0  0  0  0  0  0  0  0  0  0  0  0
  -23.6200  -30.5670   21.6490 C   0  0  0  0  0  3  0  0  0  0  0  0
  -25.1850  -29.1510   20.2170 C   0  0  0  0  0  0  0  0  0  0  0  0
  -26.1360  -31.0510   21.5270 C   0  0  0  0  0  2  0  0  0  0  0  0
  -26.3060  -29.7020   20.8510 C   0  0  0  0  0  0  0  0  0  0  0  0
  -27.5310  -28.9880   20.8660 C   0  0  0  0  0  3  0  0  0  0  0  0
  -26.4900  -27.1930   19.6010 C   0  0  0  0  0  3  0  0  0  0  0  0
  -25.2790  -27.9130   19.5760 C   0  0  0  0  0  3  0  0  0  0  0  0
  -23.8970  -29.9410   20.2580 C   0  0  0  0  0  2  0  0  0  0  0  0
  -24.8400  -31.2130   22.2360 N   0  0  0  0  0  0  0  0  0  0  0  0
  -23.6110  -32.1750   23.8780 O   0  0  0  0  0  0  0  0  0  0  0  0
  -22.9980  -29.4870   22.5600 C   0  0  0  0  0  0  0  0  0  0  0  0
  -21.6970  -29.2180   22.3700 N   0  0  0  0  0  0  0  0  0  0  0  0
  -23.6860  -28.8980   23.3960 O   0  0  0  0  0  0  0  0  0  0  0  0
  -21.1960  -29.7580   21.6800 H   0  0  0  0  0  0  0  0  0  0  0  0
  -18.3890  -27.8080   22.7040 C   0  0  0  0  0  0  0  0  0  0  0  0
  -20.9130  -28.2140   23.0900 C   0  0  0  0  0  3  0  0  0  0  0  0
  -21.1180  -26.8000   22.4910 C   0  0  0  0  0  2  0  0  0  0  0  0
  -20.0820  -26.4350   21.4220 C   0  0  0  0  0  2  0  0  0  0  0  0
  -18.6690  -26.4870   22.0060 C   0  0  0  0  0  2  0  0  0  0  0  0
  -19.4420  -28.6240   23.2030 C   0  0  0  0  0  0  0  0  0  0  0  0
  -19.1170  -29.8610   23.8030 C   0  0  0  0  0  3  0  0  0  0  0  0
  -17.7810  -30.2820   23.9190 C   0  0  0  0  0  3  0  0  0  0  0  0
  -16.7430  -29.4630   23.4450 C   0  0  0  0  0  3  0  0  0  0  0  0
  -17.0460  -28.2220   22.8510 C   0  0  0  0  0  3  0  0  0  0  0  0
  -25.9510  -32.6510   24.0350 C   0  0  0  0  0  3  0  0  0  0  0  0
  -25.5910  -34.0460   24.3150 N   0  0  0  0  0  0  0  0  0  0  0  0
  -25.9360  -35.0900   23.5520 C   0  0  0  0  0  0  0  0  0  0  0  0
  -26.6560  -34.9820   22.5570 O   0  0  0  0  0  0  0  0  0  0  0  0
  -24.9460  -34.1990   25.0780 H   0  0  0  0  0  0  0  0  0  0  0  0
  -24.1770  -36.8270   23.0760 C   0  0  0  0  0  1  0  0  0  0  0  0
  -25.3870  -36.4760   23.9520 C   0  0  0  0  0  3  0  0  0  0  0  0
  -27.4540  -37.4400   24.8670 C   0  0  0  0  0  1  0  0  0  0  0  0
  -26.4020  -37.5480   23.8630 N   0  0  0  0  0  0  0  0  0  0  0  0
  -25.9660  -38.4650   23.9600 H   0  0  0  0  0  0  0  0  0  0  0  0
  -26.4210  -31.9190   25.3500 C   0  0  1  0  0  0  0  0  0  0  0  0
  -25.2730  -31.6320   26.3460 C   0  0  0  0  0  1  0  0  0  0  0  0
  -27.1060  -30.5760   25.0130 C   0  0  0  0  0  1  0  0  0  0  0  0
  -27.4820  -32.7780   26.0770 C   0  0  0  0  0  1  0  0  0  0  0  0
  -29.8630  -18.5890   19.9460 C   0  0  0  0  0  2  0  0  0  0  0  0
  -29.8470  -17.5480   21.1620 C   0  0  0  0  0  2  0  0  0  0  0  0
  -30.7370  -15.0310   20.6360 C   0  0  0  0  0  0  0  0  0  0  0  0
  -30.6750  -12.7970   19.4870 C   0  0  0  0  0  2  0  0  0  0  0  0
  -29.7660  -12.9060   18.2400 C   0  0  0  0  0  2  0  0  0  0  0  0
  -28.2850  -12.7060   18.6140 C   0  0  0  0  0  2  0  0  0  0  0  0
  -27.8810  -13.5480   19.8590 C   0  0  0  0  0  3  0  0  0  0  0  0
  -28.8920  -13.3720   21.0110 C   0  0  0  0  0  2  0  0  0  0  0  0
  -30.2050  -13.7780   20.4930 N   0  0  0  0  0  0  0  0  0  0  0  0
  -31.9230  -15.2570   20.3480 O   0  0  0  0  0  0  0  0  0  0  0  0
  -29.8210  -16.0260   20.9390 N   0  0  0  0  0  0  0  0  0  0  0  0
  -28.9150  -15.6240   21.1620 H   0  0  0  0  0  0  0  0  0  0  0  0
  -25.4810  -14.1300   20.5690 C   0  0  0  0  0  0  0  0  0  0  0  0
  -24.3980  -13.3490   20.8510 C   0  0  0  0  0  0  0  0  0  0  0  0
  -24.8750  -12.0060   20.8220 C   0  0  0  0  0  0  0  0  0  0  0  0
  -26.5270  -13.2580   20.3030 N   0  0  0  0  0  0  0  0  0  0  0  0
  -26.1730  -11.9730   20.5470 N   0  0  0  0  0  0  0  0  0  0  0  0
  -24.1570  -10.7410   20.9630 C   0  0  0  0  0  0  0  0  0  0  0  0
  -24.5490   -9.7860   21.9220 C   0  0  0  0  0  3  0  0  0  0  0  0
  -23.8260   -8.5830   22.0580 C   0  0  0  0  0  3  0  0  0  0  0  0
  -22.7000   -8.3370   21.2340 C   0  0  0  0  0  0  0  0  0  0  0  0
  -22.3380   -9.2820   20.2580 C   0  0  0  0  0  3  0  0  0  0  0  0
  -23.0610  -10.4760   20.1190 C   0  0  0  0  0  3  0  0  0  0  0  0
  -21.9530   -7.1880   21.2750 O   0  0  0  0  0  0  0  0  0  0  0  0
  -21.7980   -6.4660   22.4360 C   0  0  0  0  0  0  0  0  0  0  0  0
  -21.1740   -7.0210   23.5750 C   0  0  0  0  0  3  0  0  0  0  0  0
  -20.9640   -6.2230   24.7240 C   0  0  0  0  0  3  0  0  0  0  0  0
  -21.3730   -4.8740   24.7270 C   0  0  0  0  0  0  0  0  0  0  0  0
  -22.0000   -4.3260   23.5960 C   0  0  0  0  0  3  0  0  0  0  0  0
  -22.2070   -5.1190   22.4530 C   0  0  0  0  0  0  0  0  0  0  0  0
  -22.7780   -4.5730   21.3540 F   0  0  0  0  0  0  0  0  0  0  0  0
  -21.1730   -4.1100   25.8270 F   0  0  0  0  0  0  0  0  0  0  0  0
  -22.9930  -13.8250   21.0740 C   0  0  0  0  0  0  0  0  0  0  0  0
  -22.2420  -13.1170   21.9140 N   0  0  0  0  0  0  0  0  0  0  0  0
  -22.5720  -14.8580   20.5590 O   0  0  0  0  0  0  0  0  0  0  0  0
  -22.6010  -12.2760   22.3430 H   0  0  0  0  0  0  0  0  0  0  0  0
  -21.2970  -13.4150   22.1180 H   0  0  0  0  0  0  0  0  0  0  0  0
  -25.6520  -15.4960   20.5220 N   0  0  0  0  0  0  0  0  0  0  0  0
  -24.8770  -16.1250   20.7080 H   0  0  0  0  0  0  0  0  0  0  0  0
  -26.5250  -15.9880   20.3530 H   0  0  0  0  0  0  0  0  0  0  0  0
  1  3  1  0
  1  2  2  0
  2 59  1  0
  2  5  1  0
  3  6  2  0
  4  5  2  0
  4  8  1  0
  6  4  1  0
  7  9  1  0
  7  3  1  0
  8 16  1  0
  8 11  1  0
 10  7  1  0
 13 14  1  0
 14 12  1  0
 14  1  1  0
 16 15  1  0
 17 18  1  0
 17 16  1  0
 19 30  2  0
 20 18  1  0
 20 25  1  0
 21 29  1  0
 21 31  1  0
 22 28  1  0
 22 24  1  0
 23 29  1  0
 24 25  2  0
 24 23  1  0
 26 20  2  0
 27 26  1  0
 27 22  2  0
 28 21  1  0
 29 19  1  0
 31 33  2  0
 32 31  1  0
 34 32  1  0
 35 44  2  0
 35 40  1  0
 36 32  1  0
 36 40  1  0
 37 36  1  0
 38 39  1  0
 38 37  1  0
 39 35  1  0
 40 41  2  0
 41 42  1  0
 43 42  2  0
 44 43  1  0
 45 19  1  0
 45 46  1  0
 45 55  1  0
 46 49  1  0
 47 51  1  0
 47 46  1  0
 48 47  2  0
 51 50  1  0
 53 51  1  0
 53 54  1  0
 53 52  1  0
 55 58  1  1
 55 56  1  0
 57 55  1  0
 59 60  1  0
 61 69  1  0
 62 67  1  0
 63 64  1  0
 63 62  1  0
 65 64  1  0
 65 74  1  0
 65 66  1  0
 67 61  1  0
 67 66  1  0
 68 61  2  0
 69 60  1  0
 69 70  1  0
 71 72  2  0
 72 91  1  0
 73 72  1  0
 73 76  1  0
 74 75  1  0
 74 71  1  0
 75 73  2  0
 76 77  1  0
 77 78  2  0
 79 82  1  0
 79 78  1  0
 80 79  2  0
 81 80  1  0
 81 76  2  0
 82 83  1  0
 83 88  2  0
 83 84  1  0
 84 85  2  0
 85 86  1  0
 86 90  1  0
 87 86  2  0
 88 87  1  0
 89 88  1  0
 91 92  1  0
 92 95  1  0
 92 94  1  0
 93 91  2  0
 96 71  1  0
 96 97  1  0
 98 96  1  0
M  ISO  4  17 101  18 101  61 100  69 100
M  END
>  <TORSDO>  (10) 
F 21

>  <SCORE>  (10) 
-13.148

>  <name>  (10) 
9

>  <ligand_id>  (10) 
9

>  <original_smiles>  (10) 
[H]c1c([H])c([H])c2c(c1[H])C([H])([H])C([H])([H])C([H])([H])C2([H])N([H])C(=O)C1([H])N(C(=O)C([H])(N([H])C(=O)C([H])(N([H])C([H])([H])[H])C([H])([H])[H])C(C([H])([H])[H])(C([H])([H])[H])C([H])([H])[H])C([H])([H])c2c([H])c(OC([H])([H])C([H])(N([H])c3nc(N([H])[H])c(C([H])(C([H])([H])[H])C([H])([H])[H])c(C([H])([H])C([H])([H])N([H])C(=O)N4C([H])([H])C([H])([H])C([H])([H])C([H])(n5nc(-c6c([H])c([H])c(Oc7c([H])c([H])c(F)c([H])c7F)c([H])c6[H])c(C(=O)N([H])[H])c5N([H])[H])C4([H])[H])n3)C([H])([H])[H])c([H])c([H])c2C1([H])[H]

>  <smiles>  (10) 
[H]c1c([H])c([H])c2c(c1[H])C([H])([H])C([H])([H])C([H])([H])C2([H])N([H])C(=O)C1([H])N(C(=O)C([H])(N([H])C(=O)C([H])(N([H])C([H])([H])[H])C([H])([H])[H])C(C([H])([H])[H])(C([H])([H])[H])C([H])([H])[H])C([H])([H])c2c([H])c(OC([H])([H])C([H])(N([H])c3nc(N([H])[H])c(C([H])(C([H])([H])[H])C([H])([H])[H])c(C([H])([H])C([H])([H])N([H])C(=O)N4C([H])([H])C([H])([H])C([H])([H])C([H])(n5nc(-c6c([H])c([H])c(Oc7c([H])c([H])c(F)c([H])c7F)c([H])c6[H])c(C(=O)N([H])[H])c5N([H])[H])C4([H])[H])n3)C([H])([H])[H])c([H])c([H])c2C1([H])[H]

$$$$
10:0:0
     RDKit          3D

 90 98  0  0  1  0  0  0  0  0999 V2000
  -29.0450  -19.8980   21.9100 C   0  0  0  0  0  3  0  0  0  0  0  0
  -29.3880  -19.5810   20.6150 C   0  0  0  0  0  0  0  0  0  0  0  0
  -29.1610  -21.8740   20.4490 C   0  0  0  0  0  0  0  0  0  0  0  0
  -29.4660  -20.7370   19.8000 N   0  0  0  0  0  0  0  0  0  0  0  0
  -29.1050  -23.1420   19.8590 N   0  0  0  0  0  0  0  0  0  0  0  0
  -28.8010  -21.6150   22.1510 S   0  0  0  0  0  0  0  0  0  0  0  0
  -29.3880  -23.1310   18.8820 H   0  0  0  0  0  0  0  0  0  0  0  0
  -29.5630  -18.1720   20.0380 C   0  0  0  0  0  2  0  0  0  0  0  0
  -30.4360  -17.1690   20.8650 C   0  0  0  0  0  2  0  0  0  0  0  0
  -30.8310  -14.7530   20.0780 C   0  0  0  0  0  0  0  0  0  0  0  0
  -30.5230  -12.5880   18.9270 C   0  0  0  0  0  2  0  0  0  0  0  0
  -29.4950  -12.7640   17.7880 C   0  0  0  0  0  2  0  0  0  0  0  0
  -28.0470  -12.6380   18.3070 C   0  0  0  0  0  2  0  0  0  0  0  0
  -27.7870  -13.4590   19.5980 C   0  0  0  0  0  3  0  0  0  0  0  0
  -28.9130  -13.2180   20.6300 C   0  0  0  0  0  2  0  0  0  0  0  0
  -30.1890  -13.5570   19.9800 N   0  0  0  0  0  0  0  0  0  0  0  0
  -31.9330  -14.9640   19.5640 O   0  0  0  0  0  0  0  0  0  0  0  0
  -30.1040  -15.7410   20.6440 N   0  0  0  0  0  0  0  0  0  0  0  0
  -29.2040  -15.4490   20.9940 H   0  0  0  0  0  0  0  0  0  0  0  0
  -25.4420  -14.0650   20.4750 C   0  0  0  0  0  0  0  0  0  0  0  0
  -24.3910  -13.2920   20.8900 C   0  0  0  0  0  0  0  0  0  0  0  0
  -24.8330  -11.9390   20.7820 C   0  0  0  0  0  0  0  0  0  0  0  0
  -26.4620  -13.1820   20.1520 N   0  0  0  0  0  0  0  0  0  0  0  0
  -26.1010  -11.8950   20.3900 N   0  0  0  0  0  0  0  0  0  0  0  0
  -24.1030  -10.6780   20.9750 C   0  0  0  0  0  0  0  0  0  0  0  0
  -24.5450   -9.7010   21.8920 C   0  0  0  0  0  3  0  0  0  0  0  0
  -23.8180   -8.5060   22.0730 C   0  0  0  0  0  3  0  0  0  0  0  0
  -22.6300   -8.2810   21.3380 C   0  0  0  0  0  0  0  0  0  0  0  0
  -22.2030   -9.2500   20.4090 C   0  0  0  0  0  3  0  0  0  0  0  0
  -22.9330  -10.4360   20.2270 C   0  0  0  0  0  3  0  0  0  0  0  0
  -21.8690   -7.1410   21.4330 O   0  0  0  0  0  0  0  0  0  0  0  0
  -21.8000   -6.4140   22.5950 C   0  0  0  0  0  0  0  0  0  0  0  0
  -21.3290   -6.9780   23.8020 C   0  0  0  0  0  3  0  0  0  0  0  0
  -21.2100   -6.1770   24.9540 C   0  0  0  0  0  3  0  0  0  0  0  0
  -21.5530   -4.8130   24.9020 C   0  0  0  0  0  0  0  0  0  0  0  0
  -22.0170   -4.2480   23.7010 C   0  0  0  0  0  3  0  0  0  0  0  0
  -22.1390   -5.0470   22.5500 C   0  0  0  0  0  0  0  0  0  0  0  0
  -22.5670   -4.4930   21.3910 F   0  0  0  0  0  0  0  0  0  0  0  0
  -21.4330   -4.0400   26.0070 F   0  0  0  0  0  0  0  0  0  0  0  0
  -23.0190  -13.7750   21.2630 C   0  0  0  0  0  0  0  0  0  0  0  0
  -22.3360  -13.0670   22.1530 N   0  0  0  0  0  0  0  0  0  0  0  0
  -22.5620  -14.8190   20.8010 O   0  0  0  0  0  0  0  0  0  0  0  0
  -22.7090  -12.2160   22.5460 H   0  0  0  0  0  0  0  0  0  0  0  0
  -21.4200  -13.3790   22.4400 H   0  0  0  0  0  0  0  0  0  0  0  0
  -25.6060  -15.4400   20.3260 N   0  0  0  0  0  0  0  0  0  0  0  0
  -24.8410  -16.0860   20.4900 H   0  0  0  0  0  0  0  0  0  0  0  0
  -26.4170  -15.8880   19.9160 H   0  0  0  0  0  0  0  0  0  0  0  0
  -28.6970  -24.4750   20.3380 C   0  0  0  0  0  2  0  0  0  0  0  0
  -28.8300  -25.6000   19.2690 C   0  0  0  0  0  2  0  0  0  0  0  0
  -28.6670  -26.9430   19.7820 O   0  0  0  0  0  0  0  0  0  0  0  0
  -24.6790  -31.8220   23.1140 C   0  0  0  0  0  0  0  0  0  0  0  0
  -27.4400  -27.5900   19.8100 C   0  0  0  0  0  0  0  0  0  0  0  0
  -23.4970  -30.4450   21.4340 C   0  0  0  0  0  3  0  0  0  0  0  0
  -24.9820  -29.0210   19.9220 C   0  0  0  0  0  0  0  0  0  0  0  0
  -26.0060  -30.9010   21.2090 C   0  0  0  0  0  2  0  0  0  0  0  0
  -26.1290  -29.5600   20.5100 C   0  0  0  0  0  0  0  0  0  0  0  0
  -27.3560  -28.8560   20.4460 C   0  0  0  0  0  3  0  0  0  0  0  0
  -26.2620  -27.0580   19.2370 C   0  0  0  0  0  3  0  0  0  0  0  0
  -25.0430  -27.7680   19.2850 C   0  0  0  0  0  3  0  0  0  0  0  0
  -23.7050  -29.8280   20.0230 C   0  0  0  0  0  2  0  0  0  0  0  0
  -24.7460  -31.0710   21.9760 N   0  0  0  0  0  0  0  0  0  0  0  0
  -23.5980  -32.0280   23.6840 O   0  0  0  0  0  0  0  0  0  0  0  0
  -22.9020  -29.3600   22.3600 C   0  0  0  0  0  0  0  0  0  0  0  0
  -21.5850  -29.1250   22.2360 N   0  0  0  0  0  0  0  0  0  0  0  0
  -23.6190  -28.7370   23.1450 O   0  0  0  0  0  0  0  0  0  0  0  0
  -21.0640  -29.6820   21.5730 H   0  0  0  0  0  0  0  0  0  0  0  0
  -18.2760  -27.7520   22.7180 C   0  0  0  0  0  0  0  0  0  0  0  0
  -20.8220  -28.1220   22.9790 C   0  0  0  0  0  3  0  0  0  0  0  0
  -20.9870  -26.7190   22.3510 C   0  0  0  0  0  2  0  0  0  0  0  0
  -19.8930  -26.3800   21.3340 C   0  0  0  0  0  2  0  0  0  0  0  0
  -18.5110  -26.4380   21.9910 C   0  0  0  0  0  2  0  0  0  0  0  0
  -19.3610  -28.5500   23.1680 C   0  0  0  0  0  0  0  0  0  0  0  0
  -19.0890  -29.7800   23.8050 C   0  0  0  0  0  3  0  0  0  0  0  0
  -17.7640  -30.2160   23.9920 C   0  0  0  0  0  3  0  0  0  0  0  0
  -16.6930  -29.4150   23.5590 C   0  0  0  0  0  3  0  0  0  0  0  0
  -16.9510  -28.1850   22.9280 C   0  0  0  0  0  3  0  0  0  0  0  0
  -25.9510  -32.4790   23.7370 C   0  0  0  0  0  3  0  0  0  0  0  0
  -26.5000  -31.6960   24.9940 C   0  0  1  0  0  0  0  0  0  0  0  0
  -25.4220  -31.4050   26.0640 C   0  0  0  0  0  1  0  0  0  0  0  0
  -27.1210  -30.3470   24.5680 C   0  0  0  0  0  1  0  0  0  0  0  0
  -27.6340  -32.5080   25.6620 C   0  0  0  0  0  1  0  0  0  0  0  0
  -25.6070  -33.8600   24.1000 N   0  0  0  0  0  0  0  0  0  0  0  0
  -25.9150  -34.9370   23.3650 C   0  0  0  0  0  0  0  0  0  0  0  0
  -26.5880  -34.8730   22.3330 O   0  0  0  0  0  0  0  0  0  0  0  0
  -25.0020  -33.9810   24.8990 H   0  0  0  0  0  0  0  0  0  0  0  0
  -24.1450  -36.6940   23.0400 C   0  0  0  0  0  1  0  0  0  0  0  0
  -25.3900  -36.3000   23.8520 C   0  0  0  0  0  3  0  0  0  0  0  0
  -27.4910  -37.2180   24.7250 C   0  0  0  0  0  1  0  0  0  0  0  0
  -26.3970  -37.3820   23.7730 N   0  0  0  0  0  0  0  0  0  0  0  0
  -25.9670  -38.2880   23.9340 H   0  0  0  0  0  0  0  0  0  0  0  0
  1  6  1  0
  2  1  2  0
  3  6  1  0
  4  3  2  0
  4  2  1  0
  5 48  1  0
  5  3  1  0
  7  5  1  0
  8  2  1  0
  8  9  1  0
 10 18  1  0
 11 16  1  0
 12 13  1  0
 12 11  1  0
 14 13  1  0
 14 23  1  0
 14 15  1  0
 16 10  1  0
 16 15  1  0
 17 10  2  0
 18  9  1  0
 18 19  1  0
 20 21  2  0
 21 40  1  0
 22 21  1  0
 22 25  1  0
 23 24  1  0
 23 20  1  0
 24 22  2  0
 25 26  1  0
 26 27  2  0
 28 31  1  0
 28 27  1  0
 29 28  2  0
 30 29  1  0
 30 25  2  0
 31 32  1  0
 32 33  1  0
 33 34  2  0
 35 34  1  0
 35 39  1  0
 36 35  2  0
 37 32  2  0
 37 36  1  0
 38 37  1  0
 40 41  1  0
 41 44  1  0
 41 43  1  0
 42 40  2  0
 45 20  1  0
 45 46  1  0
 47 45  1  0
 49 50  1  0
 49 48  1  0
 50 52  1  0
 51 62  2  0
 52 57  1  0
 53 61  1  0
 53 63  1  0
 54 60  1  0
 54 56  1  0
 55 61  1  0
 56 55  1  0
 57 56  2  0
 58 59  1  0
 58 52  2  0
 59 54  2  0
 60 53  1  0
 61 51  1  0
 63 65  2  0
 64 63  1  0
 66 64  1  0
 67 76  2  0
 67 72  1  0
 68 64  1  0
 68 72  1  0
 69 68  1  0
 70 71  1  0
 70 69  1  0
 71 67  1  0
 72 73  2  0
 73 74  1  0
 75 74  2  0
 76 75  1  0
 77 51  1  0
 77 82  1  0
 77 78  1  0
 78 81  1  1
 78 79  1  0
 80 78  1  0
 82 85  1  0
 83 87  1  0
 83 82  1  0
 84 83  2  0
 87 86  1  0
 89 87  1  0
 89 90  1  0
 89 88  1  0
M  ISO  4  10 100  18 100  49 101  50 101
M  END
>  <TORSDO>  (11) 
F 20

>  <SCORE>  (11) 
-11.901

>  <name>  (11) 
10

>  <ligand_id>  (11) 
10

>  <original_smiles>  (11) 
[H]c1sc(N([H])C([H])([H])C([H])([H])Oc2c([H])c([H])c3c(c2[H])C([H])([H])N(C(=O)C([H])(N([H])C(=O)C([H])(N([H])C([H])([H])[H])C([H])([H])[H])C(C([H])([H])[H])(C([H])([H])[H])C([H])([H])[H])C([H])(C(=O)N([H])C2([H])c4c([H])c([H])c([H])c([H])c4C([H])([H])C([H])([H])C2([H])[H])C3([H])[H])nc1C([H])([H])C([H])([H])N([H])C(=O)N1C([H])([H])C([H])([H])C([H])([H])C([H])(n2nc(-c3c([H])c([H])c(Oc4c([H])c([H])c(F)c([H])c4F)c([H])c3[H])c(C(=O)N([H])[H])c2N([H])[H])C1([H])[H]

>  <smiles>  (11) 
[H]c1sc(N([H])C([H])([H])C([H])([H])Oc2c([H])c([H])c3c(c2[H])C([H])([H])N(C(=O)C([H])(N([H])C(=O)C([H])(N([H])C([H])([H])[H])C([H])([H])[H])C(C([H])([H])[H])(C([H])([H])[H])C([H])([H])[H])C([H])(C(=O)N([H])C2([H])c4c([H])c([H])c([H])c([H])c4C([H])([H])C([H])([H])C2([H])[H])C3([H])[H])nc1C([H])([H])C([H])([H])N([H])C(=O)N1C([H])([H])C([H])([H])C([H])([H])C([H])(n2nc(-c3c([H])c([H])c(Oc4c([H])c([H])c(F)c([H])c4F)c([H])c3[H])c(C(=O)N([H])[H])c2N([H])[H])C1([H])[H]

$$$$
11:0:0
     RDKit          3D

 92100  0  0  1  0  0  0  0  0999 V2000
  -28.7830  -21.6410   18.8010 C   0  0  0  0  0  1  0  0  0  0  0  0
  -28.1660  -21.5330   20.2030 C   0  0  0  0  0  3  0  0  0  0  0  0
  -30.6340  -14.5960   20.3330 C   0  0  0  0  0  0  0  0  0  0  0  0
  -30.3580  -12.3850   19.2330 C   0  0  0  0  0  2  0  0  0  0  0  0
  -29.4130  -12.5410   18.0240 C   0  0  0  0  0  2  0  0  0  0  0  0
  -27.9410  -12.3960   18.4590 C   0  0  0  0  0  2  0  0  0  0  0  0
  -27.5980  -13.2560   19.7060 C   0  0  0  0  0  3  0  0  0  0  0  0
  -28.6610  -13.0840   20.8150 C   0  0  0  0  0  2  0  0  0  0  0  0
  -29.9710  -13.4020   20.2310 N   0  0  0  0  0  0  0  0  0  0  0  0
  -31.7960  -14.6920   19.9210 O   0  0  0  0  0  0  0  0  0  0  0  0
  -30.6660  -19.7340   20.8860 C   0  0  0  0  0  3  0  0  0  0  0  0
  -31.6820  -18.7750   20.9540 C   0  0  0  0  0  3  0  0  0  0  0  0
  -29.3590  -19.2640   20.7800 C   0  0  0  0  0  0  0  0  0  0  0  0
  -30.1600  -17.0550   20.7760 C   0  0  0  0  0  0  0  0  0  0  0  0
  -31.4250  -17.4540   20.9000 N   0  0  0  0  0  0  0  0  0  0  0  0
  -29.1200  -17.9200   20.7460 N   0  0  0  0  0  0  0  0  0  0  0  0
  -28.2460  -20.1440   20.7520 N   0  0  0  0  0  0  0  0  0  0  0  0
  -29.8830  -15.6790   20.7120 N   0  0  0  0  0  0  0  0  0  0  0  0
  -27.3570  -19.6560   20.7630 H   0  0  0  0  0  0  0  0  0  0  0  0
  -28.9240  -15.4570   20.9150 H   0  0  0  0  0  0  0  0  0  0  0  0
  -25.2130  -13.8640   20.4420 C   0  0  0  0  0  0  0  0  0  0  0  0
  -24.1480  -13.0950   20.8230 C   0  0  0  0  0  0  0  0  0  0  0  0
  -24.6050  -11.7420   20.7900 C   0  0  0  0  0  0  0  0  0  0  0  0
  -26.2520  -12.9790   20.2000 N   0  0  0  0  0  0  0  0  0  0  0  0
  -25.8930  -11.6990   20.4730 N   0  0  0  0  0  0  0  0  0  0  0  0
  -23.8760  -10.4820   20.9850 C   0  0  0  0  0  0  0  0  0  0  0  0
  -24.3020   -9.5220   21.9280 C   0  0  0  0  0  3  0  0  0  0  0  0
  -23.5740   -8.3270   22.1130 C   0  0  0  0  0  3  0  0  0  0  0  0
  -22.4060   -8.0820   21.3520 C   0  0  0  0  0  0  0  0  0  0  0  0
  -21.9980   -9.0310   20.3990 C   0  0  0  0  0  3  0  0  0  0  0  0
  -22.7270  -10.2180   20.2130 C   0  0  0  0  0  3  0  0  0  0  0  0
  -21.6510   -6.9380   21.4450 O   0  0  0  0  0  0  0  0  0  0  0  0
  -21.5810   -6.2130   22.6080 C   0  0  0  0  0  0  0  0  0  0  0  0
  -21.1110   -6.7800   23.8130 C   0  0  0  0  0  3  0  0  0  0  0  0
  -20.9910   -5.9790   24.9670 C   0  0  0  0  0  3  0  0  0  0  0  0
  -21.3300   -4.6150   24.9160 C   0  0  0  0  0  0  0  0  0  0  0  0
  -21.7940   -4.0470   23.7160 C   0  0  0  0  0  3  0  0  0  0  0  0
  -21.9140   -4.8450   22.5650 C   0  0  0  0  0  0  0  0  0  0  0  0
  -22.3410   -4.2890   21.4050 F   0  0  0  0  0  0  0  0  0  0  0  0
  -21.2080   -3.8430   26.0220 F   0  0  0  0  0  0  0  0  0  0  0  0
  -22.7550  -13.5770   21.1050 C   0  0  0  0  0  0  0  0  0  0  0  0
  -22.0300  -12.8810   21.9770 N   0  0  0  0  0  0  0  0  0  0  0  0
  -22.3170  -14.6040   20.5880 O   0  0  0  0  0  0  0  0  0  0  0  0
  -22.3980  -12.0540   22.4230 H   0  0  0  0  0  0  0  0  0  0  0  0
  -21.0920  -13.1820   22.2030 H   0  0  0  0  0  0  0  0  0  0  0  0
  -25.3830  -15.2320   20.2610 N   0  0  0  0  0  0  0  0  0  0  0  0
  -24.6180  -15.8890   20.3670 H   0  0  0  0  0  0  0  0  0  0  0  0
  -26.2230  -15.6670   19.9010 H   0  0  0  0  0  0  0  0  0  0  0  0
  -28.6200  -22.7040   21.1480 C   0  0  0  0  0  2  0  0  0  0  0  0
  -27.9700  -24.1500   21.0060 C   0  0  0  0  0  2  0  0  0  0  0  0
  -28.4720  -25.1680   19.9160 C   0  0  0  0  0  2  0  0  0  0  0  0
  -28.4280  -26.5960   20.2580 O   0  0  0  0  0  0  0  0  0  0  0  0
  -24.6050  -31.8710   23.2320 C   0  0  0  0  0  0  0  0  0  0  0  0
  -27.2640  -27.3580   20.1970 C   0  0  0  0  0  0  0  0  0  0  0  0
  -23.4180  -30.4670   21.5780 C   0  0  0  0  0  3  0  0  0  0  0  0
  -24.8840  -28.9260   20.1630 C   0  0  0  0  0  0  0  0  0  0  0  0
  -25.9500  -30.8100   21.4100 C   0  0  0  0  0  2  0  0  0  0  0  0
  -26.0390  -29.4340   20.7670 C   0  0  0  0  0  0  0  0  0  0  0  0
  -27.2290  -28.6590   20.7750 C   0  0  0  0  0  3  0  0  0  0  0  0
  -26.0860  -26.8840   19.5790 C   0  0  0  0  0  3  0  0  0  0  0  0
  -24.9070  -27.6560   19.5600 C   0  0  0  0  0  3  0  0  0  0  0  0
  -23.6430  -29.7900   20.2000 C   0  0  0  0  0  2  0  0  0  0  0  0
  -24.6740  -31.0680   22.1310 N   0  0  0  0  0  0  0  0  0  0  0  0
  -23.5160  -32.1420   23.7610 O   0  0  0  0  0  0  0  0  0  0  0  0
  -22.7570  -29.4470   22.5350 C   0  0  0  0  0  0  0  0  0  0  0  0
  -21.4310  -29.2750   22.4080 N   0  0  0  0  0  0  0  0  0  0  0  0
  -23.4350  -28.8130   23.3480 O   0  0  0  0  0  0  0  0  0  0  0  0
  -20.9430  -29.8410   21.7290 H   0  0  0  0  0  0  0  0  0  0  0  0
  -18.0450  -28.1100   22.9180 C   0  0  0  0  0  0  0  0  0  0  0  0
  -20.6080  -28.3350   23.1730 C   0  0  0  0  0  3  0  0  0  0  0  0
  -20.6890  -26.9110   22.5750 C   0  0  0  0  0  2  0  0  0  0  0  0
  -19.5740  -26.6150   21.5660 C   0  0  0  0  0  2  0  0  0  0  0  0
  -18.2010  -26.7670   22.2230 C   0  0  0  0  0  2  0  0  0  0  0  0
  -19.1750  -28.8520   23.3500 C   0  0  0  0  0  0  0  0  0  0  0  0
  -18.9770  -30.1100   23.9600 C   0  0  0  0  0  3  0  0  0  0  0  0
  -17.6790  -30.6250   24.1420 C   0  0  0  0  0  3  0  0  0  0  0  0
  -16.5630  -29.8780   23.7280 C   0  0  0  0  0  3  0  0  0  0  0  0
  -16.7470  -28.6220   23.1220 C   0  0  0  0  0  3  0  0  0  0  0  0
  -25.8820  -32.5070   23.8640 C   0  0  0  0  0  3  0  0  0  0  0  0
  -26.3900  -31.7390   25.1450 C   0  0  1  0  0  0  0  0  0  0  0  0
  -25.2900  -31.5000   26.2050 C   0  0  0  0  0  1  0  0  0  0  0  0
  -26.9810  -30.3630   24.7610 C   0  0  0  0  0  1  0  0  0  0  0  0
  -27.5320  -32.5380   25.8180 C   0  0  0  0  0  1  0  0  0  0  0  0
  -25.5670  -33.9060   24.1900 N   0  0  0  0  0  0  0  0  0  0  0  0
  -25.9020  -34.9570   23.4310 C   0  0  0  0  0  0  0  0  0  0  0  0
  -26.5790  -34.8530   22.4050 O   0  0  0  0  0  0  0  0  0  0  0  0
  -24.9660  -34.0590   24.9860 H   0  0  0  0  0  0  0  0  0  0  0  0
  -24.1770  -36.7500   23.0580 C   0  0  0  0  0  1  0  0  0  0  0  0
  -25.4080  -36.3450   23.8840 C   0  0  0  0  0  3  0  0  0  0  0  0
  -27.5300  -37.2360   24.7430 C   0  0  0  0  0  1  0  0  0  0  0  0
  -26.4400  -37.4000   23.7830 N   0  0  0  0  0  0  0  0  0  0  0  0
  -26.0310  -38.3190   23.9230 H   0  0  0  0  0  0  0  0  0  0  0  0
  2  1  1  0
  2 17  1  0
  2 49  1  0
  3 18  1  0
  4  9  1  0
  5  6  1  0
  5  4  1  0
  7  6  1  0
  7 24  1  0
  7  8  1  0
  9  3  1  0
  9  8  1  0
 10  3  2  0
 11 12  2  0
 13 11  1  0
 14 15  2  0
 15 12  1  0
 16 14  1  0
 16 13  2  0
 17 19  1  0
 17 13  1  0
 18 14  1  0
 18 20  1  0
 21 22  2  0
 22 41  1  0
 23 22  1  0
 23 26  1  0
 24 21  1  0
 24 25  1  0
 25 23  2  0
 26 27  1  0
 27 28  2  0
 29 32  1  0
 29 28  1  0
 30 29  2  0
 31 30  1  0
 31 26  2  0
 32 33  1  0
 33 34  1  0
 34 35  2  0
 36 35  1  0
 36 40  1  0
 37 36  2  0
 38 33  2  0
 38 37  1  0
 39 38  1  0
 41 42  1  0
 42 45  1  0
 42 44  1  0
 43 41  2  0
 46 47  1  0
 46 21  1  0
 48 46  1  0
 50 49  1  0
 51 52  1  0
 51 50  1  0
 53 64  2  0
 54 52  1  0
 54 59  1  0
 55 63  1  0
 55 65  1  0
 56 62  1  0
 56 58  1  0
 57 63  1  0
 58 59  2  0
 58 57  1  0
 60 54  2  0
 61 60  1  0
 61 56  2  0
 62 55  1  0
 63 53  1  0
 65 67  2  0
 66 65  1  0
 68 66  1  0
 69 78  2  0
 69 74  1  0
 70 66  1  0
 70 74  1  0
 71 70  1  0
 72 73  1  0
 72 71  1  0
 73 69  1  0
 74 75  2  0
 75 76  1  0
 77 76  2  0
 78 77  1  0
 79 53  1  0
 79 84  1  0
 79 80  1  0
 80 83  1  1
 80 81  1  0
 82 80  1  0
 84 87  1  0
 85 89  1  0
 85 84  1  0
 86 85  2  0
 89 88  1  0
 91 89  1  0
 91 92  1  0
 91 90  1  0
M  ISO  4   3 100  18 100  51 101  52 101
M  END
>  <TORSDO>  (12) 
F 19

>  <SCORE>  (12) 
-14.652

>  <name>  (12) 
11

>  <ligand_id>  (12) 
11

>  <original_smiles>  (12) 
[H]c1nc(N([H])C(=O)N2C([H])([H])C([H])([H])C([H])([H])C([H])(n3nc(-c4c([H])c([H])c(Oc5c([H])c([H])c(F)c([H])c5F)c([H])c4[H])c(C(=O)N([H])[H])c3N([H])[H])C2([H])[H])nc(N([H])C([H])(C([H])([H])[H])C([H])([H])C([H])([H])C([H])([H])Oc2c([H])c([H])c3c(c2[H])C([H])([H])N(C(=O)C([H])(N([H])C(=O)C([H])(N([H])C([H])([H])[H])C([H])([H])[H])C(C([H])([H])[H])(C([H])([H])[H])C([H])([H])[H])C([H])(C(=O)N([H])C2([H])c4c([H])c([H])c([H])c([H])c4C([H])([H])C([H])([H])C2([H])[H])C3([H])[H])c1[H]

>  <smiles>  (12) 
[H]c1nc(N([H])C(=O)N2C([H])([H])C([H])([H])C([H])([H])C([H])(n3nc(-c4c([H])c([H])c(Oc5c([H])c([H])c(F)c([H])c5F)c([H])c4[H])c(C(=O)N([H])[H])c3N([H])[H])C2([H])[H])nc(N([H])C([H])(C([H])([H])[H])C([H])([H])C([H])([H])C([H])([H])Oc2c([H])c([H])c3c(c2[H])C([H])([H])N(C(=O)C([H])(N([H])C(=O)C([H])(N([H])C([H])([H])[H])C([H])([H])[H])C(C([H])([H])[H])(C([H])([H])[H])C([H])([H])[H])C([H])(C(=O)N([H])C2([H])c4c([H])c([H])c([H])c([H])c4C([H])([H])C([H])([H])C2([H])[H])C3([H])[H])c1[H]

$$$$
12:0:0
     RDKit          3D

 91 99  0  0  1  0  0  0  0  0999 V2000
  -29.4230  -24.3320   20.2480 C   0  0  0  0  0  0  0  0  0  0  0  0
  -29.1880  -23.0090   20.4070 N   0  0  0  0  0  0  0  0  0  0  0  0
  -30.5090  -24.7510   19.8380 O   0  0  0  0  0  0  0  0  0  0  0  0
  -28.2790  -22.7170   20.7410 H   0  0  0  0  0  0  0  0  0  0  0  0
  -30.1580  -21.9480   20.0880 C   0  0  0  0  0  2  0  0  0  0  0  0
  -28.6470  -20.0440   21.0720 C   0  0  0  0  0  3  0  0  0  0  0  0
  -29.7000  -20.5140   20.3200 C   0  0  0  0  0  0  0  0  0  0  0  0
  -29.9940  -18.2230   20.0640 C   0  0  0  0  0  0  0  0  0  0  0  0
  -30.4380  -19.4550   19.7600 N   0  0  0  0  0  0  0  0  0  0  0  0
  -28.5580  -18.2880   21.0810 S   0  0  0  0  0  0  0  0  0  0  0  0
  -30.7030  -16.9870   19.5570 C   0  0  0  0  0  2  0  0  0  0  0  0
  -31.0260  -14.5720   19.9020 C   0  0  0  0  0  0  0  0  0  0  0  0
  -30.6460  -12.3890   18.8490 C   0  0  0  0  0  2  0  0  0  0  0  0
  -29.6370  -12.5900   17.6990 C   0  0  0  0  0  2  0  0  0  0  0  0
  -28.1900  -12.4620   18.2200 C   0  0  0  0  0  2  0  0  0  0  0  0
  -27.9310  -13.2930   19.5060 C   0  0  0  0  0  3  0  0  0  0  0  0
  -29.0650  -13.1080   20.5440 C   0  0  0  0  0  2  0  0  0  0  0  0
  -30.3390  -13.3990   19.8760 N   0  0  0  0  0  0  0  0  0  0  0  0
  -32.1640  -14.6720   19.4440 O   0  0  0  0  0  0  0  0  0  0  0  0
  -30.3140  -15.6930   20.1660 N   0  0  0  0  0  0  0  0  0  0  0  0
  -29.3690  -15.5940   20.5040 H   0  0  0  0  0  0  0  0  0  0  0  0
  -25.5950  -13.8760   20.4130 C   0  0  0  0  0  0  0  0  0  0  0  0
  -24.5530  -13.0950   20.8360 C   0  0  0  0  0  0  0  0  0  0  0  0
  -25.0040  -11.7440   20.7240 C   0  0  0  0  0  0  0  0  0  0  0  0
  -26.6160  -13.0020   20.0750 N   0  0  0  0  0  0  0  0  0  0  0  0
  -26.2680  -11.7120   20.3210 N   0  0  0  0  0  0  0  0  0  0  0  0
  -24.2840  -10.4780   20.9230 C   0  0  0  0  0  0  0  0  0  0  0  0
  -24.7240   -9.5180   21.8600 C   0  0  0  0  0  3  0  0  0  0  0  0
  -24.0040   -8.3180   22.0490 C   0  0  0  0  0  3  0  0  0  0  0  0
  -22.8310   -8.0700   21.2980 C   0  0  0  0  0  0  0  0  0  0  0  0
  -22.4090   -9.0180   20.3500 C   0  0  0  0  0  3  0  0  0  0  0  0
  -23.1300  -10.2100   20.1590 C   0  0  0  0  0  3  0  0  0  0  0  0
  -22.0830   -6.9220   21.3930 O   0  0  0  0  0  0  0  0  0  0  0  0
  -21.9740   -6.2270   22.5710 C   0  0  0  0  0  0  0  0  0  0  0  0
  -21.4660   -6.8270   23.7430 C   0  0  0  0  0  3  0  0  0  0  0  0
  -21.3050   -6.0610   24.9140 C   0  0  0  0  0  3  0  0  0  0  0  0
  -21.6440   -4.6940   24.9150 C   0  0  0  0  0  0  0  0  0  0  0  0
  -22.1460   -4.0940   23.7480 C   0  0  0  0  0  3  0  0  0  0  0  0
  -22.3070   -4.8580   22.5780 C   0  0  0  0  0  0  0  0  0  0  0  0
  -22.7710   -4.2700   21.4490 F   0  0  0  0  0  0  0  0  0  0  0  0
  -21.4850   -3.9560   26.0370 F   0  0  0  0  0  0  0  0  0  0  0  0
  -23.1830  -13.5690   21.2280 C   0  0  0  0  0  0  0  0  0  0  0  0
  -22.5200  -12.8510   22.1290 N   0  0  0  0  0  0  0  0  0  0  0  0
  -22.7100  -14.6090   20.7700 O   0  0  0  0  0  0  0  0  0  0  0  0
  -22.9140  -12.0100   22.5200 H   0  0  0  0  0  0  0  0  0  0  0  0
  -21.6040  -13.1500   22.4350 H   0  0  0  0  0  0  0  0  0  0  0  0
  -25.7550  -15.2510   20.2700 N   0  0  0  0  0  0  0  0  0  0  0  0
  -25.0030  -15.9070   20.4540 H   0  0  0  0  0  0  0  0  0  0  0  0
  -26.5680  -15.6940   19.8640 H   0  0  0  0  0  0  0  0  0  0  0  0
  -28.2840  -25.3240   20.5860 C   0  0  0  0  0  2  0  0  0  0  0  0
  -28.5690  -26.6870   20.1600 O   0  0  0  0  0  0  0  0  0  0  0  0
  -24.9560  -31.8950   23.4450 C   0  0  0  0  0  0  0  0  0  0  0  0
  -27.4630  -27.5190   20.1520 C   0  0  0  0  0  0  0  0  0  0  0  0
  -23.7120  -30.6180   21.7300 C   0  0  0  0  0  3  0  0  0  0  0  0
  -25.1270  -29.1250   20.2180 C   0  0  0  0  0  0  0  0  0  0  0  0
  -26.2510  -30.9080   21.5570 C   0  0  0  0  0  2  0  0  0  0  0  0
  -26.2990  -29.5720   20.8420 C   0  0  0  0  0  0  0  0  0  0  0  0
  -27.4740  -28.7770   20.8050 C   0  0  0  0  0  3  0  0  0  0  0  0
  -26.2820  -27.1120   19.4930 C   0  0  0  0  0  3  0  0  0  0  0  0
  -25.1170  -27.8990   19.5320 C   0  0  0  0  0  3  0  0  0  0  0  0
  -23.9060  -30.0120   20.3140 C   0  0  0  0  0  2  0  0  0  0  0  0
  -24.9910  -31.1530   22.3030 N   0  0  0  0  0  0  0  0  0  0  0  0
  -23.8840  -32.1670   24.0020 O   0  0  0  0  0  0  0  0  0  0  0  0
  -23.0350  -29.5630   22.6340 C   0  0  0  0  0  0  0  0  0  0  0  0
  -21.7090  -29.4080   22.4860 N   0  0  0  0  0  0  0  0  0  0  0  0
  -23.6990  -28.8900   23.4270 O   0  0  0  0  0  0  0  0  0  0  0  0
  -21.2310  -30.0060   21.8250 H   0  0  0  0  0  0  0  0  0  0  0  0
  -18.3180  -28.2160   22.8660 C   0  0  0  0  0  0  0  0  0  0  0  0
  -20.8700  -28.4490   23.2050 C   0  0  0  0  0  3  0  0  0  0  0  0
  -20.9770  -27.0360   22.5840 C   0  0  0  0  0  2  0  0  0  0  0  0
  -19.8990  -26.7560   21.5310 C   0  0  0  0  0  2  0  0  0  0  0  0
  -18.5030  -26.8900   22.1480 C   0  0  0  0  0  2  0  0  0  0  0  0
  -19.4300  -28.9560   23.3490 C   0  0  0  0  0  0  0  0  0  0  0  0
  -19.2060  -30.1990   23.9790 C   0  0  0  0  0  3  0  0  0  0  0  0
  -17.9020  -30.7060   24.1270 C   0  0  0  0  0  3  0  0  0  0  0  0
  -16.8030  -29.9630   23.6610 C   0  0  0  0  0  3  0  0  0  0  0  0
  -17.0120  -28.7190   23.0390 C   0  0  0  0  0  3  0  0  0  0  0  0
  -26.2600  -32.4580   24.0920 C   0  0  0  0  0  3  0  0  0  0  0  0
  -26.7440  -31.6260   25.3430 C   0  0  1  0  0  0  0  0  0  0  0  0
  -25.6370  -31.3880   26.3960 C   0  0  0  0  0  1  0  0  0  0  0  0
  -27.2800  -30.2430   24.9060 C   0  0  0  0  0  1  0  0  0  0  0  0
  -27.9150  -32.3570   26.0400 C   0  0  0  0  0  1  0  0  0  0  0  0
  -26.0010  -33.8540   24.4670 N   0  0  0  0  0  0  0  0  0  0  0  0
  -26.3890  -34.9190   23.7510 C   0  0  0  0  0  0  0  0  0  0  0  0
  -27.0750  -34.8250   22.7300 O   0  0  0  0  0  0  0  0  0  0  0  0
  -25.3980  -34.0040   25.2620 H   0  0  0  0  0  0  0  0  0  0  0  0
  -24.7480  -36.7970   23.4170 C   0  0  0  0  0  1  0  0  0  0  0  0
  -25.9470  -36.3080   24.2480 C   0  0  0  0  0  3  0  0  0  0  0  0
  -28.0900  -37.0720   25.1730 C   0  0  0  0  0  1  0  0  0  0  0  0
  -27.0250  -37.3200   24.2040 N   0  0  0  0  0  0  0  0  0  0  0  0
  -26.6510  -38.2500   24.3770 H   0  0  0  0  0  0  0  0  0  0  0  0
  1  2  1  0
  1 50  1  0
  2  4  1  0
  3  1  2  0
  5  7  1  0
  5  2  1  0
  6 10  1  0
  7  6  2  0
  8 10  1  0
  9  8  2  0
  9  7  1  0
 11  8  1  0
 11 20  1  0
 12 20  1  0
 13 18  1  0
 14 15  1  0
 14 13  1  0
 16 15  1  0
 16 25  1  0
 16 17  1  0
 18 12  1  0
 18 17  1  0
 19 12  2  0
 20 21  1  0
 22 23  2  0
 23 42  1  0
 24 23  1  0
 24 27  1  0
 25 26  1  0
 25 22  1  0
 26 24  2  0
 27 28  1  0
 28 29  2  0
 30 33  1  0
 30 29  1  0
 31 30  2  0
 32 31  1  0
 32 27  2  0
 33 34  1  0
 34 39  2  0
 34 35  1  0
 35 36  2  0
 36 37  1  0
 37 41  1  0
 38 37  2  0
 39 38  1  0
 40 39  1  0
 42 43  1  0
 43 46  1  0
 43 45  1  0
 44 42  2  0
 47 22  1  0
 47 48  1  0
 49 47  1  0
 51 50  1  0
 52 63  2  0
 53 51  1  0
 53 58  1  0
 54 62  1  0
 54 64  1  0
 55 61  1  0
 55 57  1  0
 56 62  1  0
 57 56  1  0
 58 57  2  0
 59 60  1  0
 59 53  2  0
 60 55  2  0
 61 54  1  0
 62 52  1  0
 64 66  2  0
 65 64  1  0
 67 65  1  0
 68 77  2  0
 68 73  1  0
 69 65  1  0
 69 73  1  0
 70 69  1  0
 71 72  1  0
 71 70  1  0
 72 68  1  0
 73 74  2  0
 74 75  1  0
 76 75  2  0
 77 76  1  0
 78 52  1  0
 78 83  1  0
 78 79  1  0
 79 82  1  1
 79 80  1  0
 81 79  1  0
 83 86  1  0
 84 88  1  0
 84 83  1  0
 85 84  2  0
 88 87  1  0
 90 88  1  0
 90 91  1  0
 90 89  1  0
M  ISO  4  12 100  20 100  50 101  51 101
M  END
>  <TORSDO>  (13) 
F 20

>  <SCORE>  (13) 
-11.988

>  <name>  (13) 
12

>  <ligand_id>  (13) 
12

>  <original_smiles>  (13) 
[H]c1sc(C([H])([H])N([H])C(=O)N2C([H])([H])C([H])([H])C([H])([H])C([H])(n3nc(-c4c([H])c([H])c(Oc5c([H])c([H])c(F)c([H])c5F)c([H])c4[H])c(C(=O)N([H])[H])c3N([H])[H])C2([H])[H])nc1C([H])([H])N([H])C(=O)C([H])([H])Oc1c([H])c([H])c2c(c1[H])C([H])([H])N(C(=O)C([H])(N([H])C(=O)C([H])(N([H])C([H])([H])[H])C([H])([H])[H])C(C([H])([H])[H])(C([H])([H])[H])C([H])([H])[H])C([H])(C(=O)N([H])C1([H])c3c([H])c([H])c([H])c([H])c3C([H])([H])C([H])([H])C1([H])[H])C2([H])[H]

>  <smiles>  (13) 
[H]c1sc(C([H])([H])N([H])C(=O)N2C([H])([H])C([H])([H])C([H])([H])C([H])(n3nc(-c4c([H])c([H])c(Oc5c([H])c([H])c(F)c([H])c5F)c([H])c4[H])c(C(=O)N([H])[H])c3N([H])[H])C2([H])[H])nc1C([H])([H])N([H])C(=O)C([H])([H])Oc1c([H])c([H])c2c(c1[H])C([H])([H])N(C(=O)C([H])(N([H])C(=O)C([H])(N([H])C([H])([H])[H])C([H])([H])[H])C(C([H])([H])[H])(C([H])([H])[H])C([H])([H])[H])C([H])(C(=O)N([H])C1([H])c3c([H])c([H])c([H])c([H])c3C([H])([H])C([H])([H])C1([H])[H])C2([H])[H]

$$$$
13:0:0
     RDKit          3D

 91 99  0  0  1  0  0  0  0  0999 V2000
  -30.6000  -14.7870   20.4040 C   0  0  0  0  0  0  0  0  0  0  0  0
  -30.3830  -12.5040   19.4250 C   0  0  0  0  0  2  0  0  0  0  0  0
  -29.4680  -12.5770   18.1830 C   0  0  0  0  0  2  0  0  0  0  0  0
  -27.9910  -12.4170   18.5920 C   0  0  0  0  0  2  0  0  0  0  0  0
  -27.6020  -13.3100   19.8010 C   0  0  0  0  0  3  0  0  0  0  0  0
  -28.6470  -13.2400   20.9380 C   0  0  0  0  0  2  0  0  0  0  0  0
  -29.9530  -13.5710   20.3590 N   0  0  0  0  0  0  0  0  0  0  0  0
  -31.8090  -14.8210   20.1500 O   0  0  0  0  0  0  0  0  0  0  0  0
  -30.9060  -17.4940   18.9370 C   0  0  0  0  0  3  0  0  0  0  0  0
  -31.0950  -18.7620   18.3840 C   0  0  0  0  0  3  0  0  0  0  0  0
  -30.0820  -17.3450   20.0640 C   0  0  0  0  0  0  0  0  0  0  0  0
  -29.7550  -19.7470   19.9620 C   0  0  0  0  0  0  0  0  0  0  0  0
  -30.5180  -19.8590   18.8920 N   0  0  0  0  0  0  0  0  0  0  0  0
  -29.4970  -18.5290   20.5430 N   0  0  0  0  0  0  0  0  0  0  0  0
  -29.8470  -15.9540   20.5550 N   0  0  0  0  0  0  0  0  0  0  0  0
  -29.1620  -20.9880   20.4190 N   0  0  0  0  0  4  0  0  0  0  0  0
  -28.9180  -15.7920   20.9110 H   0  0  0  0  0  0  0  0  0  0  0  0
  -28.5160  -20.8330   21.1850 H   0  0  0  0  0  0  0  0  0  0  0  0
  -25.2090  -13.9110   20.5060 C   0  0  0  0  0  0  0  0  0  0  0  0
  -24.1350  -13.1430   20.8670 C   0  0  0  0  0  0  0  0  0  0  0  0
  -24.5950  -11.7910   20.8540 C   0  0  0  0  0  0  0  0  0  0  0  0
  -26.2520  -13.0270   20.2840 N   0  0  0  0  0  0  0  0  0  0  0  0
  -25.8910  -11.7470   20.5610 N   0  0  0  0  0  0  0  0  0  0  0  0
  -23.8610  -10.5340   21.0460 C   0  0  0  0  0  0  0  0  0  0  0  0
  -24.2870   -9.5660   21.9820 C   0  0  0  0  0  3  0  0  0  0  0  0
  -23.5560   -8.3720   22.1590 C   0  0  0  0  0  3  0  0  0  0  0  0
  -22.3840   -8.1370   21.3990 C   0  0  0  0  0  0  0  0  0  0  0  0
  -21.9770   -9.0950   20.4540 C   0  0  0  0  0  3  0  0  0  0  0  0
  -22.7090  -10.2810   20.2740 C   0  0  0  0  0  3  0  0  0  0  0  0
  -21.6230   -6.9990   21.4880 O   0  0  0  0  0  0  0  0  0  0  0  0
  -21.5760   -6.2500   22.6380 C   0  0  0  0  0  0  0  0  0  0  0  0
  -21.1680   -6.8040   23.8700 C   0  0  0  0  0  3  0  0  0  0  0  0
  -21.0620   -5.9830   25.0100 C   0  0  0  0  0  3  0  0  0  0  0  0
  -21.3590   -4.6100   24.9210 C   0  0  0  0  0  0  0  0  0  0  0  0
  -21.7590   -4.0540   23.6930 C   0  0  0  0  0  3  0  0  0  0  0  0
  -21.8640   -4.8740   22.5540 C   0  0  0  0  0  0  0  0  0  0  0  0
  -22.2310   -4.3290   21.3700 F   0  0  0  0  0  0  0  0  0  0  0  0
  -21.2510   -3.8200   26.0140 F   0  0  0  0  0  0  0  0  0  0  0  0
  -22.7350  -13.6290   21.1110 C   0  0  0  0  0  0  0  0  0  0  0  0
  -21.9900  -12.9490   21.9740 N   0  0  0  0  0  0  0  0  0  0  0  0
  -22.3110  -14.6510   20.5720 O   0  0  0  0  0  0  0  0  0  0  0  0
  -22.3480  -12.1280   22.4410 H   0  0  0  0  0  0  0  0  0  0  0  0
  -21.0490  -13.2550   22.1720 H   0  0  0  0  0  0  0  0  0  0  0  0
  -25.3750  -15.2810   20.3250 N   0  0  0  0  0  0  0  0  0  0  0  0
  -24.5970  -15.9210   20.4340 H   0  0  0  0  0  0  0  0  0  0  0  0
  -26.2170  -15.7350   19.9930 H   0  0  0  0  0  0  0  0  0  0  0  0
  -30.6660  -22.7500   19.2100 C   0  0  0  0  0  1  0  0  0  0  0  0
  -29.6210  -22.4580   20.3120 C   0  0  0  0  0  0  0  0  0  0  0  0
  -28.5420  -23.6890   20.4980 C   0  0  0  0  0  2  0  0  0  0  0  0
  -28.6400  -25.1330   19.7270 C   0  0  0  0  0  2  0  0  0  0  0  0
  -28.4440  -26.4780   20.3650 O   0  0  0  0  0  0  0  0  0  0  0  0
  -24.6070  -31.8880   23.2490 C   0  0  0  0  0  0  0  0  0  0  0  0
  -27.2990  -27.3000   20.2520 C   0  0  0  0  0  0  0  0  0  0  0  0
  -23.4360  -30.4600   21.6100 C   0  0  0  0  0  3  0  0  0  0  0  0
  -24.9140  -28.9040   20.2100 C   0  0  0  0  0  0  0  0  0  0  0  0
  -25.9750  -30.7930   21.4510 C   0  0  0  0  0  2  0  0  0  0  0  0
  -26.0720  -29.4070   20.8140 C   0  0  0  0  0  0  0  0  0  0  0  0
  -27.2620  -28.6140   20.8260 C   0  0  0  0  0  3  0  0  0  0  0  0
  -26.1160  -26.8490   19.6280 C   0  0  0  0  0  3  0  0  0  0  0  0
  -24.9410  -27.6310   19.6110 C   0  0  0  0  0  3  0  0  0  0  0  0
  -23.6720  -29.7730   20.2390 C   0  0  0  0  0  2  0  0  0  0  0  0
  -24.6910  -31.0700   22.1580 N   0  0  0  0  0  0  0  0  0  0  0  0
  -23.5160  -32.1610   23.7690 O   0  0  0  0  0  0  0  0  0  0  0  0
  -22.7720  -29.4520   22.5750 C   0  0  0  0  0  0  0  0  0  0  0  0
  -21.4460  -29.2760   22.4470 N   0  0  0  0  0  0  0  0  0  0  0  0
  -23.4480  -28.8310   23.4010 O   0  0  0  0  0  0  0  0  0  0  0  0
  -20.9620  -29.8210   21.7470 H   0  0  0  0  0  0  0  0  0  0  0  0
  -18.0630  -28.0900   22.9510 C   0  0  0  0  0  0  0  0  0  0  0  0
  -20.6240  -28.3420   23.2180 C   0  0  0  0  0  3  0  0  0  0  0  0
  -20.7220  -26.9110   22.6380 C   0  0  0  0  0  2  0  0  0  0  0  0
  -19.6150  -26.5940   21.6270 C   0  0  0  0  0  2  0  0  0  0  0  0
  -18.2350  -26.7420   22.2730 C   0  0  0  0  0  2  0  0  0  0  0  0
  -19.1850  -28.8490   23.3800 C   0  0  0  0  0  0  0  0  0  0  0  0
  -18.9690  -30.1120   23.9720 C   0  0  0  0  0  3  0  0  0  0  0  0
  -17.6660  -30.6150   24.1450 C   0  0  0  0  0  3  0  0  0  0  0  0
  -16.5600  -29.8540   23.7320 C   0  0  0  0  0  3  0  0  0  0  0  0
  -16.7590  -28.5940   23.1410 C   0  0  0  0  0  3  0  0  0  0  0  0
  -25.8770  -32.5410   23.8800 C   0  0  0  0  0  3  0  0  0  0  0  0
  -25.5470  -33.9390   24.1960 N   0  0  0  0  0  0  0  0  0  0  0  0
  -25.8770  -34.9920   23.4350 C   0  0  0  0  0  0  0  0  0  0  0  0
  -26.5590  -34.8890   22.4120 O   0  0  0  0  0  0  0  0  0  0  0  0
  -24.9430  -34.0910   24.9890 H   0  0  0  0  0  0  0  0  0  0  0  0
  -24.1330  -36.7680   23.0580 C   0  0  0  0  0  1  0  0  0  0  0  0
  -25.3720  -36.3780   23.8810 C   0  0  0  0  0  3  0  0  0  0  0  0
  -27.4930  -37.2900   24.7220 C   0  0  0  0  0  1  0  0  0  0  0  0
  -26.3940  -37.4430   23.7710 N   0  0  0  0  0  0  0  0  0  0  0  0
  -25.9750  -38.3580   23.9160 H   0  0  0  0  0  0  0  0  0  0  0  0
  -26.3810  -31.7880   25.1730 C   0  0  1  0  0  0  0  0  0  0  0  0
  -25.2780  -31.5550   26.2320 C   0  0  0  0  0  1  0  0  0  0  0  0
  -26.9790  -30.4110   24.8030 C   0  0  0  0  0  1  0  0  0  0  0  0
  -27.5170  -32.6010   25.8420 C   0  0  0  0  0  1  0  0  0  0  0  0
  1 15  1  0
  2  7  1  0
  3  4  1  0
  3  2  1  0
  5  4  1  0
  5 22  1  0
  5  6  1  0
  7  1  1  0
  7  6  1  0
  8  1  2  0
  9 11  1  0
 10 13  1  0
 10  9  2  0
 11 14  2  0
 11 15  1  0
 12 16  1  0
 12 14  1  0
 13 12  2  0
 15 17  1  0
 16 18  1  0
 19 20  2  0
 20 39  1  0
 21 20  1  0
 21 24  1  0
 22 19  1  0
 22 23  1  0
 23 21  2  0
 24 25  1  0
 25 26  2  0
 27 30  1  0
 27 26  1  0
 28 27  2  0
 29 28  1  0
 29 24  2  0
 30 31  1  0
 31 32  1  0
 32 33  2  0
 34 33  1  0
 34 38  1  0
 35 34  2  0
 36 31  2  0
 36 35  1  0
 37 36  1  0
 39 40  1  0
 40 43  1  0
 40 42  1  0
 41 39  2  0
 44 45  1  0
 44 19  1  0
 46 44  1  0
 47 48  1  0
 48 16  2  0
 48 49  1  0
 50 51  1  0
 50 49  1  0
 52 63  2  0
 53 51  1  0
 53 58  1  0
 54 62  1  0
 54 64  1  0
 55 61  1  0
 55 57  1  0
 56 62  1  0
 57 58  2  0
 57 56  1  0
 59 53  2  0
 60 59  1  0
 60 55  2  0
 61 54  1  0
 62 52  1  0
 64 66  2  0
 65 64  1  0
 67 65  1  0
 68 77  2  0
 68 73  1  0
 69 65  1  0
 69 73  1  0
 70 69  1  0
 71 72  1  0
 71 70  1  0
 72 68  1  0
 73 74  2  0
 74 75  1  0
 76 75  2  0
 77 76  1  0
 78 52  1  0
 78 79  1  0
 78 88  1  0
 79 82  1  0
 80 84  1  0
 80 79  1  0
 81 80  2  0
 84 83  1  0
 86 84  1  0
 86 87  1  0
 86 85  1  0
 88 91  1  1
 88 89  1  0
 90 88  1  0
M  ISO  4   1 100  15 100  50 101  51 101
M  END
>  <TORSDO>  (14) 
F 18

>  <SCORE>  (14) 
-14.590

>  <name>  (14) 
13

>  <ligand_id>  (14) 
13

>  <original_smiles>  (14) 
[H]c1nc(N([H])C([H])(C([H])([H])[H])C([H])([H])C([H])([H])Oc2c([H])c([H])c3c(c2[H])C([H])([H])N(C(=O)C([H])(N([H])C(=O)C([H])(N([H])C([H])([H])[H])C([H])([H])[H])C(C([H])([H])[H])(C([H])([H])[H])C([H])([H])[H])C([H])(C(=O)N([H])C2([H])c4c([H])c([H])c([H])c([H])c4C([H])([H])C([H])([H])C2([H])[H])C3([H])[H])nc(N([H])C(=O)N2C([H])([H])C([H])([H])C([H])([H])C([H])(n3nc(-c4c([H])c([H])c(Oc5c([H])c([H])c(F)c([H])c5F)c([H])c4[H])c(C(=O)N([H])[H])c3N([H])[H])C2([H])[H])c1[H]

>  <smiles>  (14) 
[H]c1nc(N([H])C([H])(C([H])([H])[H])C([H])([H])C([H])([H])Oc2c([H])c([H])c3c(c2[H])C([H])([H])N(C(=O)C([H])(N([H])C(=O)C([H])(N([H])C([H])([H])[H])C([H])([H])[H])C(C([H])([H])[H])(C([H])([H])[H])C([H])([H])[H])C([H])(C(=O)N([H])C2([H])c4c([H])c([H])c([H])c([H])c4C([H])([H])C([H])([H])C2([H])[H])C3([H])[H])nc(N([H])C(=O)N2C([H])([H])C([H])([H])C([H])([H])C([H])(n3nc(-c4c([H])c([H])c(Oc5c([H])c([H])c(F)c([H])c5F)c([H])c4[H])c(C(=O)N([H])[H])c3N([H])[H])C2([H])[H])c1[H]

$$$$
14:0:0
     RDKit          3D

 94102  0  0  1  0  0  0  0  0999 V2000
  -27.4540  -19.6960   20.0850 C   0  0  0  0  0  3  0  0  0  0  0  0
  -28.2710  -18.5430   20.1540 C   0  0  0  0  0  0  0  0  0  0  0  0
  -29.6700  -18.7360   20.0860 C   0  0  0  0  0  0  0  0  0  0  0  0
  -29.2400  -21.1070   20.1290 C   0  0  0  0  0  0  0  0  0  0  0  0
  -27.9340  -20.9560   20.0640 N   0  0  0  0  0  0  0  0  0  0  0  0
  -30.1210  -20.0580   20.1180 N   0  0  0  0  0  0  0  0  0  0  0  0
  -29.6750  -22.4610   20.3090 N   0  0  0  0  0  0  0  0  0  0  0  0
  -30.6690  -22.5280   20.4850 H   0  0  0  0  0  0  0  0  0  0  0  0
  -27.6770  -17.2940   20.3620 N   0  0  0  0  0  0  0  0  0  0  0  0
  -26.6710  -17.3370   20.5140 H   0  0  0  0  0  0  0  0  0  0  0  0
  -28.0810  -16.7770   21.1400 H   0  0  0  0  0  0  0  0  0  0  0  0
  -30.6900  -17.4920   20.0080 C   0  0  0  0  0  2  0  0  0  0  0  0
  -30.9550  -14.8550   19.8470 C   0  0  0  0  0  0  0  0  0  0  0  0
  -30.6680  -12.5470   18.9070 C   0  0  0  0  0  2  0  0  0  0  0  0
  -29.6410  -12.5730   17.7520 C   0  0  0  0  0  2  0  0  0  0  0  0
  -28.2090  -12.4130   18.2950 C   0  0  0  0  0  2  0  0  0  0  0  0
  -27.9220  -13.3350   19.5110 C   0  0  0  0  0  3  0  0  0  0  0  0
  -29.0640  -13.2920   20.5500 C   0  0  0  0  0  2  0  0  0  0  0  0
  -30.3060  -13.6360   19.8460 N   0  0  0  0  0  0  0  0  0  0  0  0
  -32.1220  -14.9160   19.4530 O   0  0  0  0  0  0  0  0  0  0  0  0
  -30.2390  -16.0220   20.0860 N   0  0  0  0  0  0  0  0  0  0  0  0
  -29.2470  -15.9360   20.2710 H   0  0  0  0  0  0  0  0  0  0  0  0
  -25.6260  -13.9420   20.4760 C   0  0  0  0  0  0  0  0  0  0  0  0
  -24.5730  -13.1810   20.9010 C   0  0  0  0  0  0  0  0  0  0  0  0
  -24.9860  -11.8230   20.7500 C   0  0  0  0  0  0  0  0  0  0  0  0
  -26.6210  -13.0530   20.1090 N   0  0  0  0  0  0  0  0  0  0  0  0
  -26.2450  -11.7650   20.3290 N   0  0  0  0  0  0  0  0  0  0  0  0
  -24.2300  -10.5770   20.9260 C   0  0  0  0  0  0  0  0  0  0  0  0
  -24.6280   -9.5950   21.8590 C   0  0  0  0  0  3  0  0  0  0  0  0
  -23.8700   -8.4160   22.0240 C   0  0  0  0  0  3  0  0  0  0  0  0
  -22.7000   -8.2110   21.2550 C   0  0  0  0  0  0  0  0  0  0  0  0
  -22.3200   -9.1820   20.3110 C   0  0  0  0  0  3  0  0  0  0  0  0
  -23.0790  -10.3520   20.1440 C   0  0  0  0  0  3  0  0  0  0  0  0
  -21.9150   -7.0860   21.3300 O   0  0  0  0  0  0  0  0  0  0  0  0
  -21.7470   -6.4040   22.5090 C   0  0  0  0  0  0  0  0  0  0  0  0
  -21.1390   -7.0010   23.6360 C   0  0  0  0  0  3  0  0  0  0  0  0
  -20.9220   -6.2430   24.8030 C   0  0  0  0  0  3  0  0  0  0  0  0
  -21.3020   -4.8890   24.8450 C   0  0  0  0  0  0  0  0  0  0  0  0
  -21.9040   -4.2910   23.7230 C   0  0  0  0  0  3  0  0  0  0  0  0
  -22.1220   -5.0470   22.5580 C   0  0  0  0  0  0  0  0  0  0  0  0
  -22.6810   -4.4600   21.4720 F   0  0  0  0  0  0  0  0  0  0  0  0
  -21.0870   -4.1570   25.9630 F   0  0  0  0  0  0  0  0  0  0  0  0
  -23.2270  -13.6880   21.3290 C   0  0  0  0  0  0  0  0  0  0  0  0
  -22.5590  -12.9690   22.2220 N   0  0  0  0  0  0  0  0  0  0  0  0
  -22.7830  -14.7570   20.9100 O   0  0  0  0  0  0  0  0  0  0  0  0
  -22.9330  -12.1030   22.5810 H   0  0  0  0  0  0  0  0  0  0  0  0
  -21.6590  -13.2880   22.5510 H   0  0  0  0  0  0  0  0  0  0  0  0
  -25.7970  -15.3140   20.3560 N   0  0  0  0  0  0  0  0  0  0  0  0
  -25.0380  -15.9540   20.5620 H   0  0  0  0  0  0  0  0  0  0  0  0
  -26.6750  -15.7920   20.1580 H   0  0  0  0  0  0  0  0  0  0  0  0
  -29.0760  -23.7780   19.8040 C   0  0  0  0  0  2  0  0  0  0  0  0
  -29.5010  -24.9390   22.1000 C   0  0  0  0  0  1  0  0  0  0  0  0
  -28.6670  -25.0000   20.8130 C   0  0  0  0  0  3  0  0  0  0  0  0
  -28.7590  -26.4530   20.4020 O   0  0  0  0  0  0  0  0  0  0  0  0
  -24.6590  -31.7750   23.2490 C   0  0  0  0  0  0  0  0  0  0  0  0
  -27.6120  -27.2810   20.3640 C   0  0  0  0  0  0  0  0  0  0  0  0
  -23.6070  -30.3370   21.5410 C   0  0  0  0  0  3  0  0  0  0  0  0
  -25.1970  -28.8350   20.2050 C   0  0  0  0  0  0  0  0  0  0  0  0
  -26.1420  -30.7420   21.5050 C   0  0  0  0  0  2  0  0  0  0  0  0
  -26.3140  -29.3620   20.8670 C   0  0  0  0  0  0  0  0  0  0  0  0
  -27.5260  -28.6010   20.9280 C   0  0  0  0  0  3  0  0  0  0  0  0
  -26.4710  -26.8150   19.6810 C   0  0  0  0  0  3  0  0  0  0  0  0
  -25.2810  -27.5680   19.6020 C   0  0  0  0  0  3  0  0  0  0  0  0
  -23.9290  -29.6690   20.1780 C   0  0  0  0  0  2  0  0  0  0  0  0
  -24.8180  -30.9710   22.1560 N   0  0  0  0  0  0  0  0  0  0  0  0
  -23.5370  -32.0100   23.7210 O   0  0  0  0  0  0  0  0  0  0  0  0
  -22.9280  -29.2960   22.4630 C   0  0  0  0  0  0  0  0  0  0  0  0
  -21.6100  -29.0950   22.2850 N   0  0  0  0  0  0  0  0  0  0  0  0
  -23.5860  -28.6730   23.2980 O   0  0  0  0  0  0  0  0  0  0  0  0
  -21.1350  -29.6520   21.5890 H   0  0  0  0  0  0  0  0  0  0  0  0
  -18.2280  -27.8770   22.7070 C   0  0  0  0  0  0  0  0  0  0  0  0
  -20.7840  -28.1280   23.0110 C   0  0  0  0  0  3  0  0  0  0  0  0
  -20.8930  -26.7190   22.3830 C   0  0  0  0  0  2  0  0  0  0  0  0
  -19.8020  -26.4350   21.3460 C   0  0  0  0  0  2  0  0  0  0  0  0
  -18.4130  -26.5550   21.9810 C   0  0  0  0  0  2  0  0  0  0  0  0
  -19.3420  -28.6230   23.1770 C   0  0  0  0  0  0  0  0  0  0  0  0
  -19.1160  -29.8610   23.8170 C   0  0  0  0  0  3  0  0  0  0  0  0
  -17.8090  -30.3540   23.9900 C   0  0  0  0  0  3  0  0  0  0  0  0
  -16.7090  -29.6060   23.5360 C   0  0  0  0  0  3  0  0  0  0  0  0
  -16.9200  -28.3690   22.9000 C   0  0  0  0  0  3  0  0  0  0  0  0
  -25.8760  -32.4580   23.9460 C   0  0  0  0  0  3  0  0  0  0  0  0
  -26.3070  -31.7420   25.2850 C   0  0  1  0  0  0  0  0  0  0  0  0
  -25.1380  -31.5070   26.2690 C   0  0  0  0  0  1  0  0  0  0  0  0
  -26.9550  -30.3690   24.9870 C   0  0  0  0  0  1  0  0  0  0  0  0
  -27.3790  -32.5870   26.0120 C   0  0  0  0  0  1  0  0  0  0  0  0
  -25.5160  -33.8590   24.2060 N   0  0  0  0  0  0  0  0  0  0  0  0
  -25.8680  -34.8950   23.4310 C   0  0  0  0  0  0  0  0  0  0  0  0
  -26.5990  -34.7720   22.4450 O   0  0  0  0  0  0  0  0  0  0  0  0
  -24.8710  -34.0270   24.9650 H   0  0  0  0  0  0  0  0  0  0  0  0
  -24.1230  -36.6330   22.9180 C   0  0  0  0  0  1  0  0  0  0  0  0
  -25.3250  -36.2860   23.8110 C   0  0  0  0  0  3  0  0  0  0  0  0
  -27.3740  -37.2670   24.7440 C   0  0  0  0  0  1  0  0  0  0  0  0
  -26.3380  -37.3600   23.7180 N   0  0  0  0  0  0  0  0  0  0  0  0
  -25.9020  -38.2750   23.7890 H   0  0  0  0  0  0  0  0  0  0  0  0
  1  2  2  0
  2  9  1  0
  3  6  2  0
  3  2  1  0
  4  7  1  0
  5  1  1  0
  5  4  2  0
  6  4  1  0
  7  8  1  0
  9 10  1  0
  9 11  1  0
 12 21  1  0
 12  3  1  0
 13 21  1  0
 14 19  1  0
 15 16  1  0
 15 14  1  0
 17 16  1  0
 17 26  1  0
 17 18  1  0
 19 13  1  0
 19 18  1  0
 20 13  2  0
 21 22  1  0
 23 24  2  0
 24 43  1  0
 25 24  1  0
 25 28  1  0
 26 27  1  0
 26 23  1  0
 27 25  2  0
 28 29  1  0
 29 30  2  0
 31 34  1  0
 31 30  1  0
 32 31  2  0
 33 32  1  0
 33 28  2  0
 34 35  1  0
 35 40  2  0
 35 36  1  0
 36 37  2  0
 37 38  1  0
 38 42  1  0
 39 38  2  0
 40 39  1  0
 41 40  1  0
 43 44  1  0
 44 47  1  0
 44 46  1  0
 45 43  2  0
 48 23  1  0
 48 49  1  0
 50 48  1  0
 51  7  1  0
 51 53  1  0
 53 52  1  0
 54 53  1  0
 55 66  2  0
 56 54  1  0
 56 61  1  0
 57 65  1  0
 57 67  1  0
 58 60  1  0
 59 65  1  0
 60 61  2  0
 60 59  1  0
 62 56  2  0
 63 62  1  0
 63 58  2  0
 64 58  1  0
 64 57  1  0
 65 55  1  0
 67 69  2  0
 68 67  1  0
 70 68  1  0
 71 80  2  0
 71 76  1  0
 72 68  1  0
 72 76  1  0
 73 72  1  0
 74 75  1  0
 74 73  1  0
 75 71  1  0
 76 77  2  0
 77 78  1  0
 79 78  2  0
 80 79  1  0
 81 55  1  0
 81 86  1  0
 81 82  1  0
 82 85  1  1
 82 83  1  0
 84 82  1  0
 86 89  1  0
 87 91  1  0
 87 86  1  0
 88 87  2  0
 91 90  1  0
 93 94  1  0
 93 91  1  0
 93 92  1  0
M  ISO  4  13 100  21 100  53 101  54 101
M  END
>  <TORSDO>  (15) 
F 20

>  <SCORE>  (15) 
-13.448

>  <name>  (15) 
14

>  <ligand_id>  (15) 
14

>  <original_smiles>  (15) 
[H]c1nc(N([H])C([H])([H])C([H])(Oc2c([H])c([H])c3c(c2[H])C([H])([H])N(C(=O)C([H])(N([H])C(=O)C([H])(N([H])C([H])([H])[H])C([H])([H])[H])C(C([H])([H])[H])(C([H])([H])[H])C([H])([H])[H])C([H])(C(=O)N([H])C2([H])c4c([H])c([H])c([H])c([H])c4C([H])([H])C([H])([H])C2([H])[H])C3([H])[H])C([H])([H])[H])nc(C([H])([H])N([H])C(=O)N2C([H])([H])C([H])([H])C([H])([H])C([H])(n3nc(-c4c([H])c([H])c(Oc5c([H])c([H])c(F)c([H])c5F)c([H])c4[H])c(C(=O)N([H])[H])c3N([H])[H])C2([H])[H])c1N([H])[H]

>  <smiles>  (15) 
[H]c1nc(N([H])C([H])([H])C([H])(Oc2c([H])c([H])c3c(c2[H])C([H])([H])N(C(=O)C([H])(N([H])C(=O)C([H])(N([H])C([H])([H])[H])C([H])([H])[H])C(C([H])([H])[H])(C([H])([H])[H])C([H])([H])[H])C([H])(C(=O)N([H])C2([H])c4c([H])c([H])c([H])c([H])c4C([H])([H])C([H])([H])C2([H])[H])C3([H])[H])C([H])([H])[H])nc(C([H])([H])N([H])C(=O)N2C([H])([H])C([H])([H])C([H])([H])C([H])(n3nc(-c4c([H])c([H])c(Oc5c([H])c([H])c(F)c([H])c5F)c([H])c4[H])c(C(=O)N([H])[H])c3N([H])[H])C2([H])[H])c1N([H])[H]

$$$$
15:0:0
     RDKit          3D

 93101  0  0  1  0  0  0  0  0999 V2000
  -29.3050  -18.8030   21.5700 C   0  0  0  0  0  3  0  0  0  0  0  0
  -30.6620  -20.2370   19.7330 C   0  0  0  0  0  3  0  0  0  0  0  0
  -30.3630  -18.2140   20.8330 C   0  0  0  0  0  0  0  0  0  0  0  0
  -29.6350  -20.8390   20.5120 C   0  0  0  0  0  0  0  0  0  0  0  0
  -31.0280  -18.9350   19.8920 N   0  0  0  0  0  0  0  0  0  0  0  0
  -28.9400  -20.1060   21.4130 N   0  0  0  0  0  0  0  0  0  0  0  0
  -29.2700  -22.1980   20.4380 N   0  0  0  0  0  0  0  0  0  0  0  0
  -28.6210  -22.5230   21.1490 H   0  0  0  0  0  0  0  0  0  0  0  0
  -30.9580  -16.8460   21.2210 C   0  0  0  0  0  2  0  0  0  0  0  0
  -30.9050  -14.6110   20.0780 C   0  0  0  0  0  0  0  0  0  0  0  0
  -30.5180  -12.4700   18.9000 C   0  0  0  0  0  2  0  0  0  0  0  0
  -29.5170  -12.6780   17.7470 C   0  0  0  0  0  2  0  0  0  0  0  0
  -28.0720  -12.5260   18.2590 C   0  0  0  0  0  2  0  0  0  0  0  0
  -27.8000  -13.3730   19.5310 C   0  0  0  0  0  3  0  0  0  0  0  0
  -28.9060  -13.1510   20.5860 C   0  0  0  0  0  2  0  0  0  0  0  0
  -30.1990  -13.4530   19.9490 N   0  0  0  0  0  0  0  0  0  0  0  0
  -32.0060  -14.7760   19.5470 O   0  0  0  0  0  0  0  0  0  0  0  0
  -30.2970  -15.6110   20.7500 N   0  0  0  0  0  0  0  0  0  0  0  0
  -29.3670  -15.4270   21.0930 H   0  0  0  0  0  0  0  0  0  0  0  0
  -25.4530  -13.9960   20.3820 C   0  0  0  0  0  0  0  0  0  0  0  0
  -24.3970  -13.2300   20.7960 C   0  0  0  0  0  0  0  0  0  0  0  0
  -24.8380  -11.8730   20.7200 C   0  0  0  0  0  0  0  0  0  0  0  0
  -26.4720  -13.1060   20.0790 N   0  0  0  0  0  0  0  0  0  0  0  0
  -26.1090  -11.8240   20.3420 N   0  0  0  0  0  0  0  0  0  0  0  0
  -24.1080  -10.6170   20.9290 C   0  0  0  0  0  0  0  0  0  0  0  0
  -24.5490   -9.6540   21.8640 C   0  0  0  0  0  3  0  0  0  0  0  0
  -23.8210   -8.4590   22.0570 C   0  0  0  0  0  3  0  0  0  0  0  0
  -22.6380   -8.2220   21.3160 C   0  0  0  0  0  0  0  0  0  0  0  0
  -22.2160   -9.1740   20.3700 C   0  0  0  0  0  3  0  0  0  0  0  0
  -22.9460  -10.3580   20.1760 C   0  0  0  0  0  3  0  0  0  0  0  0
  -21.8780   -7.0830   21.4220 O   0  0  0  0  0  0  0  0  0  0  0  0
  -21.8010   -6.3740   22.5940 C   0  0  0  0  0  0  0  0  0  0  0  0
  -21.3020   -6.9530   23.7820 C   0  0  0  0  0  3  0  0  0  0  0  0
  -21.1750   -6.1690   24.9460 C   0  0  0  0  0  3  0  0  0  0  0  0
  -21.5360   -4.8090   24.9240 C   0  0  0  0  0  0  0  0  0  0  0  0
  -22.0270   -4.2300   23.7410 C   0  0  0  0  0  3  0  0  0  0  0  0
  -22.1560   -5.0110   22.5780 C   0  0  0  0  0  0  0  0  0  0  0  0
  -22.6110   -4.4430   21.4360 F   0  0  0  0  0  0  0  0  0  0  0  0
  -21.4050   -4.0540   26.0400 F   0  0  0  0  0  0  0  0  0  0  0  0
  -23.0230  -13.7200   21.1500 C   0  0  0  0  0  0  0  0  0  0  0  0
  -22.3330  -13.0210   22.0460 N   0  0  0  0  0  0  0  0  0  0  0  0
  -22.5680  -14.7540   20.6620 O   0  0  0  0  0  0  0  0  0  0  0  0
  -22.7130  -12.1840   22.4610 H   0  0  0  0  0  0  0  0  0  0  0  0
  -21.4140  -13.3310   22.3250 H   0  0  0  0  0  0  0  0  0  0  0  0
  -25.6260  -15.3660   20.2160 N   0  0  0  0  0  0  0  0  0  0  0  0
  -24.8660  -16.0230   20.3590 H   0  0  0  0  0  0  0  0  0  0  0  0
  -26.4510  -15.7960   19.8170 H   0  0  0  0  0  0  0  0  0  0  0  0
  -30.2510  -23.2090   20.0240 C   0  0  0  0  0  2  0  0  0  0  0  0
  -29.9110  -24.6480   20.5210 C   0  0  0  0  0  3  0  0  0  0  0  0
  -29.6810  -24.5430   21.9210 O   0  0  0  0  0  0  0  0  0  0  0  0
  -30.3660  -23.9860   22.2790 H   0  0  0  0  0  0  0  0  0  0  0  0
  -28.6990  -25.3450   19.8370 C   0  0  0  0  0  2  0  0  0  0  0  0
  -28.7460  -26.7820   19.9810 O   0  0  0  0  0  0  0  0  0  0  0  0
  -24.7370  -31.7190   23.1630 C   0  0  0  0  0  0  0  0  0  0  0  0
  -27.5500  -27.4800   19.9470 C   0  0  0  0  0  0  0  0  0  0  0  0
  -23.5910  -30.3420   21.4600 C   0  0  0  0  0  3  0  0  0  0  0  0
  -25.1050  -28.9170   19.9800 C   0  0  0  0  0  0  0  0  0  0  0  0
  -26.1030  -30.7950   21.2920 C   0  0  0  0  0  2  0  0  0  0  0  0
  -26.2410  -29.4540   20.5990 C   0  0  0  0  0  0  0  0  0  0  0  0
  -27.4650  -28.7450   20.5750 C   0  0  0  0  0  3  0  0  0  0  0  0
  -26.3960  -26.9660   19.3090 C   0  0  0  0  0  3  0  0  0  0  0  0
  -25.1790  -27.6740   19.3290 C   0  0  0  0  0  3  0  0  0  0  0  0
  -23.8320  -29.7280   20.0530 C   0  0  0  0  0  2  0  0  0  0  0  0
  -24.8280  -30.9650   22.0320 N   0  0  0  0  0  0  0  0  0  0  0  0
  -23.6420  -31.9320   23.7040 O   0  0  0  0  0  0  0  0  0  0  0  0
  -22.9700  -29.2610   22.3730 C   0  0  0  0  0  0  0  0  0  0  0  0
  -21.6530  -29.0390   22.2290 N   0  0  0  0  0  0  0  0  0  0  0  0
  -23.6690  -28.6270   23.1680 O   0  0  0  0  0  0  0  0  0  0  0  0
  -21.1500  -29.6050   21.5600 H   0  0  0  0  0  0  0  0  0  0  0  0
  -18.3140  -27.7320   22.6690 C   0  0  0  0  0  0  0  0  0  0  0  0
  -20.8640  -28.0450   22.9530 C   0  0  0  0  0  3  0  0  0  0  0  0
  -21.0040  -26.6460   22.3100 C   0  0  0  0  0  2  0  0  0  0  0  0
  -19.9090  -26.3430   21.2820 C   0  0  0  0  0  2  0  0  0  0  0  0
  -18.5250  -26.4210   21.9310 C   0  0  0  0  0  2  0  0  0  0  0  0
  -19.4110  -28.5030   23.1340 C   0  0  0  0  0  0  0  0  0  0  0  0
  -19.1590  -29.7320   23.7810 C   0  0  0  0  0  3  0  0  0  0  0  0
  -17.8420  -30.1900   23.9700 C   0  0  0  0  0  3  0  0  0  0  0  0
  -16.7580  -29.4150   23.5200 C   0  0  0  0  0  3  0  0  0  0  0  0
  -16.9950  -28.1880   22.8760 C   0  0  0  0  0  3  0  0  0  0  0  0
  -25.9960  -32.3670   23.8180 C   0  0  0  0  0  3  0  0  0  0  0  0
  -25.6510  -33.7520   24.1630 N   0  0  0  0  0  0  0  0  0  0  0  0
  -25.9650  -34.8220   23.4200 C   0  0  0  0  0  0  0  0  0  0  0  0
  -26.6450  -34.7470   22.3930 O   0  0  0  0  0  0  0  0  0  0  0  0
  -25.0460  -33.8830   24.9620 H   0  0  0  0  0  0  0  0  0  0  0  0
  -24.1920  -36.5710   23.0730 C   0  0  0  0  0  1  0  0  0  0  0  0
  -25.4380  -36.1920   23.8890 C   0  0  0  0  0  3  0  0  0  0  0  0
  -27.5350  -37.1300   24.7550 C   0  0  0  0  0  1  0  0  0  0  0  0
  -26.4450  -37.2720   23.7940 N   0  0  0  0  0  0  0  0  0  0  0  0
  -26.0130  -38.1810   23.9360 H   0  0  0  0  0  0  0  0  0  0  0  0
  -26.5100  -31.5860   25.0880 C   0  0  1  0  0  0  0  0  0  0  0  0
  -25.4010  -31.2990   26.1300 C   0  0  0  0  0  1  0  0  0  0  0  0
  -27.1350  -30.2320   24.6800 C   0  0  0  0  0  1  0  0  0  0  0  0
  -27.6280  -32.3940   25.7860 C   0  0  0  0  0  1  0  0  0  0  0  0
  2  5  2  0
  2  4  1  0
  3  9  1  0
  3  1  2  0
  4  6  2  0
  5  3  1  0
  6  1  1  0
  7  4  1  0
  7  8  1  0
 10 18  1  0
 11 16  1  0
 12 13  1  0
 12 11  1  0
 14 13  1  0
 14 23  1  0
 14 15  1  0
 16 10  1  0
 16 15  1  0
 17 10  2  0
 18 19  1  0
 18  9  1  0
 20 21  2  0
 21 40  1  0
 22 21  1  0
 22 25  1  0
 23 24  1  0
 23 20  1  0
 24 22  2  0
 25 26  1  0
 26 27  2  0
 28 31  1  0
 28 27  1  0
 29 28  2  0
 30 29  1  0
 30 25  2  0
 31 32  1  0
 32 33  1  0
 33 34  2  0
 35 34  1  0
 35 39  1  0
 36 35  2  0
 37 32  2  0
 37 36  1  0
 38 37  1  0
 40 41  1  0
 41 44  1  0
 41 43  1  0
 42 40  2  0
 45 46  1  0
 45 20  1  0
 47 45  1  0
 48  7  1  0
 48 49  1  0
 49 52  1  0
 49 50  1  0
 50 51  1  0
 52 53  1  0
 54 65  2  0
 55 53  1  0
 55 60  1  0
 56 64  1  0
 56 66  1  0
 57 63  1  0
 57 59  1  0
 58 64  1  0
 59 58  1  0
 60 59  2  0
 61 62  1  0
 61 55  2  0
 62 57  2  0
 63 56  1  0
 64 54  1  0
 66 68  2  0
 67 66  1  0
 69 67  1  0
 70 79  2  0
 70 75  1  0
 71 67  1  0
 71 75  1  0
 72 71  1  0
 73 74  1  0
 73 72  1  0
 74 70  1  0
 75 76  2  0
 76 77  1  0
 78 77  2  0
 79 78  1  0
 80 54  1  0
 80 81  1  0
 80 90  1  0
 81 84  1  0
 82 86  1  0
 82 81  1  0
 83 82  2  0
 86 85  1  0
 88 86  1  0
 88 89  1  0
 88 87  1  0
 90 93  1  1
 90 91  1  0
 92 90  1  0
M  ISO  4  10 100  18 100  52 101  53 101
M  END
>  <TORSDO>  (16) 
F 21

>  <SCORE>  (16) 
-12.233

>  <name>  (16) 
15

>  <ligand_id>  (16) 
15

>  <original_smiles>  (16) 
[H]OC([H])(C([H])([H])Oc1c([H])c([H])c2c(c1[H])C([H])([H])N(C(=O)C([H])(N([H])C(=O)C([H])(N([H])C([H])([H])[H])C([H])([H])[H])C(C([H])([H])[H])(C([H])([H])[H])C([H])([H])[H])C([H])(C(=O)N([H])C1([H])c3c([H])c([H])c([H])c([H])c3C([H])([H])C([H])([H])C1([H])[H])C2([H])[H])C([H])([H])N([H])c1nc([H])c(C([H])([H])N([H])C(=O)N2C([H])([H])C([H])([H])C([H])([H])C([H])(n3nc(-c4c([H])c([H])c(Oc5c([H])c([H])c(F)c([H])c5F)c([H])c4[H])c(C(=O)N([H])[H])c3N([H])[H])C2([H])[H])nc1[H]

>  <smiles>  (16) 
[H]OC([H])(C([H])([H])Oc1c([H])c([H])c2c(c1[H])C([H])([H])N(C(=O)C([H])(N([H])C(=O)C([H])(N([H])C([H])([H])[H])C([H])([H])[H])C(C([H])([H])[H])(C([H])([H])[H])C([H])([H])[H])C([H])(C(=O)N([H])C1([H])c3c([H])c([H])c([H])c([H])c3C([H])([H])C([H])([H])C1([H])[H])C2([H])[H])C([H])([H])N([H])c1nc([H])c(C([H])([H])N([H])C(=O)N2C([H])([H])C([H])([H])C([H])([H])C([H])(n3nc(-c4c([H])c([H])c(Oc5c([H])c([H])c(F)c([H])c5F)c([H])c4[H])c(C(=O)N([H])[H])c3N([H])[H])C2([H])[H])nc1[H]

$$$$
16:0:0
     RDKit          3D

 90 98  0  0  1  0  0  0  0  0999 V2000
  -28.4330  -22.2100   18.3020 C   0  0  0  0  0  1  0  0  0  0  0  0
  -29.1450  -22.3880   19.6510 C   0  0  0  0  0  3  0  0  0  0  0  0
  -30.6530  -14.6940   19.9950 C   0  0  0  0  0  0  0  0  0  0  0  0
  -30.3950  -12.4540   18.9220 C   0  0  0  0  0  2  0  0  0  0  0  0
  -29.3760  -12.5890   17.7680 C   0  0  0  0  0  2  0  0  0  0  0  0
  -27.9330  -12.4190   18.2840 C   0  0  0  0  0  2  0  0  0  0  0  0
  -27.6530  -13.2610   19.5560 C   0  0  0  0  0  3  0  0  0  0  0  0
  -28.7790  -13.0940   20.6020 C   0  0  0  0  0  2  0  0  0  0  0  0
  -30.0470  -13.4590   19.9510 N   0  0  0  0  0  0  0  0  0  0  0  0
  -31.7840  -14.8470   19.5200 O   0  0  0  0  0  0  0  0  0  0  0  0
  -29.9230  -17.2020   20.2880 C   0  0  0  0  0  0  0  0  0  0  0  0
  -29.5200  -19.7080   20.2280 C   0  0  0  0  0  0  0  0  0  0  0  0
  -30.6370  -17.8520   19.3440 N   0  0  0  0  0  0  0  0  0  0  0  0
  -30.3980  -19.2620   19.3040 N   0  0  0  0  0  0  0  0  0  0  0  0
  -29.8940  -15.7380   20.4780 N   0  0  0  0  0  0  0  0  0  0  0  0
  -29.0860  -21.0770   20.4020 N   0  0  0  0  0  0  0  0  0  0  0  0
  -28.9010  -18.3480   21.2250 S   0  0  0  0  0  0  0  0  0  0  0  0
  -29.0800  -15.4200   20.9770 H   0  0  0  0  0  0  0  0  0  0  0  0
  -28.5040  -21.1500   21.2300 H   0  0  0  0  0  0  0  0  0  0  0  0
  -25.3160  -13.8540   20.4400 C   0  0  0  0  0  0  0  0  0  0  0  0
  -24.2700  -13.0780   20.8590 C   0  0  0  0  0  0  0  0  0  0  0  0
  -24.7190  -11.7250   20.7680 C   0  0  0  0  0  0  0  0  0  0  0  0
  -26.3370  -12.9720   20.1190 N   0  0  0  0  0  0  0  0  0  0  0  0
  -25.9870  -11.6870   20.3770 N   0  0  0  0  0  0  0  0  0  0  0  0
  -23.9970  -10.4630   20.9750 C   0  0  0  0  0  0  0  0  0  0  0  0
  -24.4580   -9.4900   21.8890 C   0  0  0  0  0  3  0  0  0  0  0  0
  -23.7350   -8.2920   22.0850 C   0  0  0  0  0  3  0  0  0  0  0  0
  -22.5390   -8.0600   21.3650 C   0  0  0  0  0  0  0  0  0  0  0  0
  -22.0980   -9.0220   20.4390 C   0  0  0  0  0  3  0  0  0  0  0  0
  -22.8210  -10.2100   20.2420 C   0  0  0  0  0  3  0  0  0  0  0  0
  -21.7860   -6.9160   21.4700 O   0  0  0  0  0  0  0  0  0  0  0  0
  -21.7410   -6.1890   22.6320 C   0  0  0  0  0  0  0  0  0  0  0  0
  -21.3050   -6.7560   23.8490 C   0  0  0  0  0  3  0  0  0  0  0  0
  -21.2060   -5.9550   25.0040 C   0  0  0  0  0  3  0  0  0  0  0  0
  -21.5330   -4.5880   24.9440 C   0  0  0  0  0  0  0  0  0  0  0  0
  -21.9630   -4.0200   23.7320 C   0  0  0  0  0  3  0  0  0  0  0  0
  -22.0630   -4.8170   22.5780 C   0  0  0  0  0  0  0  0  0  0  0  0
  -22.4560   -4.2610   21.4080 F   0  0  0  0  0  0  0  0  0  0  0  0
  -21.4330   -3.8150   26.0510 F   0  0  0  0  0  0  0  0  0  0  0  0
  -22.8960  -13.5570   21.2310 C   0  0  0  0  0  0  0  0  0  0  0  0
  -22.2200  -12.8470   22.1270 N   0  0  0  0  0  0  0  0  0  0  0  0
  -22.4330  -14.5940   20.7610 O   0  0  0  0  0  0  0  0  0  0  0  0
  -22.6110  -12.0070   22.5290 H   0  0  0  0  0  0  0  0  0  0  0  0
  -21.3010  -13.1470   22.4180 H   0  0  0  0  0  0  0  0  0  0  0  0
  -25.4780  -15.2270   20.2820 N   0  0  0  0  0  0  0  0  0  0  0  0
  -24.7170  -15.8770   20.4450 H   0  0  0  0  0  0  0  0  0  0  0  0
  -26.2880  -15.6650   19.8630 H   0  0  0  0  0  0  0  0  0  0  0  0
  -28.6170  -23.7310   20.3930 C   0  0  0  0  0  3  0  0  0  0  0  0
  -28.5890  -25.1300   19.5820 C   0  0  0  0  0  3  0  0  0  0  0  0
  -28.4280  -26.4610   20.2410 O   0  0  0  0  0  0  0  0  0  0  0  0
  -24.6280  -31.8410   23.2000 C   0  0  0  0  0  0  0  0  0  0  0  0
  -27.2810  -27.2770   20.1560 C   0  0  0  0  0  0  0  0  0  0  0  0
  -23.4420  -30.4440   21.5460 C   0  0  0  0  0  3  0  0  0  0  0  0
  -24.9070  -28.8940   20.1290 C   0  0  0  0  0  0  0  0  0  0  0  0
  -25.9820  -30.7630   21.3860 C   0  0  0  0  0  2  0  0  0  0  0  0
  -26.0690  -29.3830   20.7360 C   0  0  0  0  0  0  0  0  0  0  0  0
  -27.2530  -28.5860   20.7400 C   0  0  0  0  0  3  0  0  0  0  0  0
  -26.0900  -26.8370   19.5350 C   0  0  0  0  0  3  0  0  0  0  0  0
  -24.9220  -27.6280   19.5200 C   0  0  0  0  0  3  0  0  0  0  0  0
  -23.6680  -29.7670   20.1670 C   0  0  0  0  0  2  0  0  0  0  0  0
  -24.7030  -31.0340   22.1010 N   0  0  0  0  0  0  0  0  0  0  0  0
  -23.5400  -32.1160   23.7260 O   0  0  0  0  0  0  0  0  0  0  0  0
  -22.7700  -29.4270   22.4990 C   0  0  0  0  0  0  0  0  0  0  0  0
  -21.4410  -29.2710   22.3800 N   0  0  0  0  0  0  0  0  0  0  0  0
  -23.4450  -28.7810   23.3060 O   0  0  0  0  0  0  0  0  0  0  0  0
  -20.9570  -29.8420   21.7020 H   0  0  0  0  0  0  0  0  0  0  0  0
  -18.0480  -28.1310   22.9030 C   0  0  0  0  0  0  0  0  0  0  0  0
  -20.6140  -28.3350   23.1440 C   0  0  0  0  0  3  0  0  0  0  0  0
  -20.6800  -26.9130   22.5410 C   0  0  0  0  0  2  0  0  0  0  0  0
  -19.5590  -26.6310   21.5350 C   0  0  0  0  0  2  0  0  0  0  0  0
  -18.1890  -26.7920   22.1990 C   0  0  0  0  0  2  0  0  0  0  0  0
  -19.1870  -28.8640   23.3320 C   0  0  0  0  0  0  0  0  0  0  0  0
  -19.0000  -30.1190   23.9490 C   0  0  0  0  0  3  0  0  0  0  0  0
  -17.7070  -30.6420   24.1420 C   0  0  0  0  0  3  0  0  0  0  0  0
  -16.5830  -29.9060   23.7290 C   0  0  0  0  0  3  0  0  0  0  0  0
  -16.7540  -28.6530   23.1150 C   0  0  0  0  0  3  0  0  0  0  0  0
  -25.9040  -32.4750   23.8370 C   0  0  0  0  0  3  0  0  0  0  0  0
  -25.5820  -33.8650   24.1900 N   0  0  0  0  0  0  0  0  0  0  0  0
  -25.8940  -34.9330   23.4430 C   0  0  0  0  0  0  0  0  0  0  0  0
  -26.5530  -34.8520   22.4030 O   0  0  0  0  0  0  0  0  0  0  0  0
  -24.9940  -34.0000   24.9990 H   0  0  0  0  0  0  0  0  0  0  0  0
  -24.1380  -36.7090   23.1430 C   0  0  0  0  0  1  0  0  0  0  0  0
  -25.3990  -36.3090   23.9270 C   0  0  0  0  0  3  0  0  0  0  0  0
  -27.5340  -37.2130   24.7340 C   0  0  0  0  0  1  0  0  0  0  0  0
  -26.4150  -37.3770   23.8090 N   0  0  0  0  0  0  0  0  0  0  0  0
  -26.0000  -38.2910   23.9720 H   0  0  0  0  0  0  0  0  0  0  0  0
  -26.4220  -31.6890   25.1040 C   0  0  1  0  0  0  0  0  0  0  0  0
  -25.3270  -31.4270   26.1650 C   0  0  0  0  0  1  0  0  0  0  0  0
  -27.0170  -30.3200   24.6940 C   0  0  0  0  0  1  0  0  0  0  0  0
  -27.5650  -32.4820   25.7820 C   0  0  0  0  0  1  0  0  0  0  0  0
  2  1  1  0
  2 48  1  0
  2 16  1  0
  3 15  1  0
  4  9  1  0
  5  6  1  0
  5  4  1  0
  7  6  1  0
  7 23  1  0
  7  8  1  0
  9  3  1  0
  9  8  1  0
 10  3  2  0
 11 15  1  0
 11 17  1  0
 12 16  1  0
 12 17  1  0
 13 11  2  0
 14 13  1  0
 14 12  2  0
 15 18  1  0
 16 19  1  0
 20 21  2  0
 21 40  1  0
 22 21  1  0
 22 25  1  0
 23 24  1  0
 23 20  1  0
 24 22  2  0
 25 26  1  0
 26 27  2  0
 28 31  1  0
 28 27  1  0
 29 28  2  0
 30 29  1  0
 30 25  2  0
 31 32  1  0
 32 33  1  0
 33 34  2  0
 35 34  1  0
 35 39  1  0
 36 35  2  0
 37 32  2  0
 37 36  1  0
 38 37  1  0
 40 41  1  0
 41 44  1  0
 41 43  1  0
 42 40  2  0
 45 20  1  0
 45 46  1  0
 47 45  1  0
 49 50  1  0
 49 48  2  0
 51 62  2  0
 52 50  1  0
 52 57  1  0
 53 61  1  0
 53 63  1  0
 54 60  1  0
 54 56  1  0
 55 61  1  0
 56 57  2  0
 56 55  1  0
 58 52  2  0
 59 58  1  0
 59 54  2  0
 60 53  1  0
 61 51  1  0
 63 65  2  0
 64 63  1  0
 66 64  1  0
 67 76  2  0
 67 72  1  0
 68 64  1  0
 68 72  1  0
 69 68  1  0
 70 71  1  0
 70 69  1  0
 71 67  1  0
 72 73  2  0
 73 74  1  0
 75 74  2  0
 76 75  1  0
 77 51  1  0
 77 78  1  0
 77 87  1  0
 78 81  1  0
 79 83  1  0
 79 78  1  0
 80 79  2  0
 83 82  1  0
 85 83  1  0
 85 86  1  0
 85 84  1  0
 87 90  1  1
 87 88  1  0
 89 87  1  0
M  ISO  4   3 100  15 100  49 101  50 101
M  END
>  <TORSDO>  (17) 
F 18

>  <SCORE>  (17) 
-13.800

>  <name>  (17) 
16

>  <ligand_id>  (17) 
16

>  <original_smiles>  (17) 
[H]c1c([H])c([H])c2c(c1[H])C([H])([H])C([H])([H])C([H])([H])C2([H])N([H])C(=O)C1([H])N(C(=O)C([H])(N([H])C(=O)C([H])(N([H])C([H])([H])[H])C([H])([H])[H])C(C([H])([H])[H])(C([H])([H])[H])C([H])([H])[H])C([H])([H])c2c([H])c(OC([H])([H])C([H])([H])C([H])(N([H])c3nnc(N([H])C(=O)N4C([H])([H])C([H])([H])C([H])([H])C([H])(n5nc(-c6c([H])c([H])c(Oc7c([H])c([H])c(F)c([H])c7F)c([H])c6[H])c(C(=O)N([H])[H])c5N([H])[H])C4([H])[H])s3)C([H])([H])[H])c([H])c([H])c2C1([H])[H]

>  <smiles>  (17) 
[H]c1c([H])c([H])c2c(c1[H])C([H])([H])C([H])([H])C([H])([H])C2([H])N([H])C(=O)C1([H])N(C(=O)C([H])(N([H])C(=O)C([H])(N([H])C([H])([H])[H])C([H])([H])[H])C(C([H])([H])[H])(C([H])([H])[H])C([H])([H])[H])C([H])([H])c2c([H])c(OC([H])([H])C([H])([H])C([H])(N([H])c3nnc(N([H])C(=O)N4C([H])([H])C([H])([H])C([H])([H])C([H])(n5nc(-c6c([H])c([H])c(Oc7c([H])c([H])c(F)c([H])c7F)c([H])c6[H])c(C(=O)N([H])[H])c5N([H])[H])C4([H])[H])s3)C([H])([H])[H])c([H])c([H])c2C1([H])[H]

$$$$
17:0:0
     RDKit          3D

 93101  0  0  1  0  0  0  0  0999 V2000
  -27.8810  -19.7560   21.0060 C   0  0  0  0  0  3  0  0  0  0  0  0
  -28.5330  -18.5770   20.5770 C   0  0  0  0  0  0  0  0  0  0  0  0
  -29.6860  -18.7440   19.7680 C   0  0  0  0  0  0  0  0  0  0  0  0
  -29.3220  -21.1230   19.8850 C   0  0  0  0  0  0  0  0  0  0  0  0
  -28.2720  -21.0000   20.6700 N   0  0  0  0  0  0  0  0  0  0  0  0
  -30.0400  -20.0520   19.4290 N   0  0  0  0  0  0  0  0  0  0  0  0
  -29.6420  -22.4760   19.5210 N   0  0  0  0  0  0  0  0  0  0  0  0
  -30.4460  -22.5590   18.9110 H   0  0  0  0  0  0  0  0  0  0  0  0
  -28.0150  -17.3310   20.9650 N   0  0  0  0  0  0  0  0  0  0  0  0
  -27.4550  -17.3830   21.8120 H   0  0  0  0  0  0  0  0  0  0  0  0
  -27.3860  -16.9240   20.2750 H   0  0  0  0  0  0  0  0  0  0  0  0
  -30.5890  -17.4990   19.3030 C   0  0  0  0  0  2  0  0  0  0  0  0
  -31.0640  -14.9080   19.4520 C   0  0  0  0  0  0  0  0  0  0  0  0
  -30.8170  -12.5740   18.5870 C   0  0  0  0  0  2  0  0  0  0  0  0
  -29.7650  -12.5750   17.4560 C   0  0  0  0  0  2  0  0  0  0  0  0
  -28.3480  -12.4030   18.0320 C   0  0  0  0  0  2  0  0  0  0  0  0
  -28.0780  -13.3390   19.2410 C   0  0  0  0  0  3  0  0  0  0  0  0
  -29.2410  -13.3240   20.2570 C   0  0  0  0  0  2  0  0  0  0  0  0
  -30.4660  -13.6670   19.5270 N   0  0  0  0  0  0  0  0  0  0  0  0
  -32.1950  -15.0070   18.9680 O   0  0  0  0  0  0  0  0  0  0  0  0
  -30.3120  -16.0450   19.7090 N   0  0  0  0  0  0  0  0  0  0  0  0
  -29.4350  -15.9360   20.2010 H   0  0  0  0  0  0  0  0  0  0  0  0
  -25.8190  -13.9410   20.2910 C   0  0  0  0  0  0  0  0  0  0  0  0
  -24.7850  -13.1720   20.7510 C   0  0  0  0  0  0  0  0  0  0  0  0
  -25.1960  -11.8140   20.5840 C   0  0  0  0  0  0  0  0  0  0  0  0
  -26.7960  -13.0510   19.8760 N   0  0  0  0  0  0  0  0  0  0  0  0
  -26.4370  -11.7640   20.1130 N   0  0  0  0  0  0  0  0  0  0  0  0
  -24.4570  -10.5600   20.7870 C   0  0  0  0  0  0  0  0  0  0  0  0
  -24.8650   -9.6100   21.7490 C   0  0  0  0  0  3  0  0  0  0  0  0
  -24.1260   -8.4210   21.9400 C   0  0  0  0  0  3  0  0  0  0  0  0
  -22.9670   -8.1740   21.1670 C   0  0  0  0  0  0  0  0  0  0  0  0
  -22.5780   -9.1130   20.1950 C   0  0  0  0  0  3  0  0  0  0  0  0
  -23.3180  -10.2920   20.0020 C   0  0  0  0  0  3  0  0  0  0  0  0
  -22.2020   -7.0370   21.2650 O   0  0  0  0  0  0  0  0  0  0  0  0
  -21.9740   -6.4260   22.4720 C   0  0  0  0  0  0  0  0  0  0  0  0
  -21.3440   -7.1000   23.5410 C   0  0  0  0  0  3  0  0  0  0  0  0
  -21.0650   -6.4130   24.7390 C   0  0  0  0  0  3  0  0  0  0  0  0
  -21.4050   -5.0530   24.8690 C   0  0  0  0  0  0  0  0  0  0  0  0
  -22.0280   -4.3780   23.8020 C   0  0  0  0  0  3  0  0  0  0  0  0
  -22.3080   -5.0630   22.6070 C   0  0  0  0  0  0  0  0  0  0  0  0
  -22.8880   -4.4040   21.5760 F   0  0  0  0  0  0  0  0  0  0  0  0
  -21.1310   -4.3900   26.0170 F   0  0  0  0  0  0  0  0  0  0  0  0
  -23.4460  -13.6670   21.2160 C   0  0  0  0  0  0  0  0  0  0  0  0
  -22.8130  -12.9500   22.1390 N   0  0  0  0  0  0  0  0  0  0  0  0
  -22.9740  -14.7230   20.7970 O   0  0  0  0  0  0  0  0  0  0  0  0
  -23.2110  -12.0960   22.5000 H   0  0  0  0  0  0  0  0  0  0  0  0
  -21.9210  -13.2630   22.4940 H   0  0  0  0  0  0  0  0  0  0  0  0
  -26.0030  -15.3150   20.1620 N   0  0  0  0  0  0  0  0  0  0  0  0
  -25.2200  -15.9430   20.3050 H   0  0  0  0  0  0  0  0  0  0  0  0
  -26.7020  -15.6940   19.5370 H   0  0  0  0  0  0  0  0  0  0  0  0
  -29.1660  -23.7850   20.1570 C   0  0  0  0  0  3  0  0  0  0  0  0
  -29.1120  -25.1630   19.2840 C   0  0  0  0  0  3  0  0  0  0  0  0
  -28.8930  -26.5390   19.8780 O   0  0  0  0  0  0  0  0  0  0  0  0
  -24.6590  -31.5430   22.9930 C   0  0  0  0  0  0  0  0  0  0  0  0
  -27.7010  -27.3050   19.8050 C   0  0  0  0  0  0  0  0  0  0  0  0
  -23.6110  -30.1300   21.2620 C   0  0  0  0  0  3  0  0  0  0  0  0
  -25.2150  -28.7610   19.8020 C   0  0  0  0  0  0  0  0  0  0  0  0
  -26.1230  -30.6460   21.1590 C   0  0  0  0  0  2  0  0  0  0  0  0
  -26.3290  -29.3060   20.4510 C   0  0  0  0  0  0  0  0  0  0  0  0
  -27.5700  -28.5900   20.4390 C   0  0  0  0  0  3  0  0  0  0  0  0
  -26.5520  -26.8230   19.1380 C   0  0  0  0  0  3  0  0  0  0  0  0
  -25.3330  -27.5300   19.1360 C   0  0  0  0  0  3  0  0  0  0  0  0
  -23.9100  -29.5350   19.8600 C   0  0  0  0  0  2  0  0  0  0  0  0
  -24.8140  -30.7920   21.8620 N   0  0  0  0  0  0  0  0  0  0  0  0
  -23.5450  -31.7090   23.5100 O   0  0  0  0  0  0  0  0  0  0  0  0
  -23.0090  -29.0230   22.1610 C   0  0  0  0  0  0  0  0  0  0  0  0
  -21.7030  -28.7500   21.9980 N   0  0  0  0  0  0  0  0  0  0  0  0
  -23.7180  -28.4140   22.9660 O   0  0  0  0  0  0  0  0  0  0  0  0
  -21.1850  -29.2970   21.3240 H   0  0  0  0  0  0  0  0  0  0  0  0
  -18.4170  -27.2860   22.3900 C   0  0  0  0  0  0  0  0  0  0  0  0
  -20.9480  -27.7150   22.7060 C   0  0  0  0  0  3  0  0  0  0  0  0
  -21.1590  -26.3280   22.0550 C   0  0  0  0  0  2  0  0  0  0  0  0
  -20.0920  -25.9840   21.0110 C   0  0  0  0  0  2  0  0  0  0  0  0
  -18.6970  -25.9930   21.6440 C   0  0  0  0  0  2  0  0  0  0  0  0
  -19.4730  -28.1020   22.8750 C   0  0  0  0  0  0  0  0  0  0  0  0
  -19.1560  -29.3110   23.5330 C   0  0  0  0  0  3  0  0  0  0  0  0
  -17.8170  -29.7060   23.7110 C   0  0  0  0  0  3  0  0  0  0  0  0
  -16.7750  -28.8860   23.2400 C   0  0  0  0  0  3  0  0  0  0  0  0
  -17.0770  -27.6780   22.5870 C   0  0  0  0  0  3  0  0  0  0  0  0
  -25.8700  -32.2510   23.6770 C   0  0  0  0  0  3  0  0  0  0  0  0
  -26.4010  -31.4800   24.9470 C   0  0  1  0  0  0  0  0  0  0  0  0
  -25.2940  -31.1250   25.9670 C   0  0  0  0  0  1  0  0  0  0  0  0
  -27.1010  -30.1630   24.5370 C   0  0  0  0  0  1  0  0  0  0  0  0
  -27.4640  -32.3370   25.6730 C   0  0  0  0  0  1  0  0  0  0  0  0
  -25.4450  -33.6110   24.0390 N   0  0  0  0  0  0  0  0  0  0  0  0
  -25.7110  -34.7100   23.3220 C   0  0  0  0  0  0  0  0  0  0  0  0
  -26.4080  -34.6910   22.3030 O   0  0  0  0  0  0  0  0  0  0  0  0
  -24.8250  -33.6940   24.8310 H   0  0  0  0  0  0  0  0  0  0  0  0
  -23.8540  -36.3740   22.9890 C   0  0  0  0  0  1  0  0  0  0  0  0
  -25.1110  -36.0430   23.8090 C   0  0  0  0  0  3  0  0  0  0  0  0
  -27.1520  -37.0720   24.7080 C   0  0  0  0  0  1  0  0  0  0  0  0
  -26.0600  -37.1760   23.7430 N   0  0  0  0  0  0  0  0  0  0  0  0
  -25.5810  -38.0580   23.9000 H   0  0  0  0  0  0  0  0  0  0  0  0
  2  9  1  0
  2  1  2  0
  3  2  1  0
  4  5  2  0
  5  1  1  0
  6  3  2  0
  6  4  1  0
  7  4  1  0
  7 51  1  0
  8  7  1  0
  9 10  1  0
 11  9  1  0
 12 21  1  0
 12  3  1  0
 13 19  1  0
 13 21  1  0
 14 19  1  0
 15 16  1  0
 15 14  1  0
 17 16  1  0
 17 26  1  0
 17 18  1  0
 19 18  1  0
 20 13  2  0
 21 22  1  0
 23 24  2  0
 24 43  1  0
 25 24  1  0
 25 28  1  0
 26 27  1  0
 26 23  1  0
 27 25  2  0
 28 29  1  0
 29 30  2  0
 31 34  1  0
 31 30  1  0
 32 31  2  0
 33 32  1  0
 33 28  2  0
 34 35  1  0
 35 40  2  0
 35 36  1  0
 36 37  2  0
 37 38  1  0
 38 42  1  0
 39 38  2  0
 40 39  1  0
 41 40  1  0
 43 44  1  0
 44 47  1  0
 44 46  1  0
 45 43  2  0
 48 23  1  0
 48 49  1  0
 50 48  1  0
 52 53  1  0
 52 51  2  0
 54 65  2  0
 55 53  1  0
 55 60  1  0
 56 64  1  0
 56 66  1  0
 57 63  1  0
 57 59  1  0
 58 64  1  0
 59 58  1  0
 60 59  2  0
 61 55  2  0
 62 61  1  0
 62 57  2  0
 63 56  1  0
 64 54  1  0
 66 68  2  0
 67 66  1  0
 69 67  1  0
 70 79  2  0
 70 75  1  0
 71 67  1  0
 71 75  1  0
 72 71  1  0
 73 74  1  0
 73 72  1  0
 74 70  1  0
 75 76  2  0
 76 77  1  0
 78 77  2  0
 79 78  1  0
 80 54  1  0
 80 85  1  0
 80 81  1  0
 81 84  1  1
 81 82  1  0
 83 81  1  0
 85 88  1  0
 86 90  1  0
 86 85  1  0
 87 86  2  0
 90 89  1  0
 92 90  1  0
 92 93  1  0
 92 91  1  0
M  ISO  4  13 100  21 100  52 101  53 101
M  END
>  <TORSDO>  (18) 
F 20

>  <SCORE>  (18) 
-11.170

>  <name>  (18) 
17

>  <ligand_id>  (18) 
17

>  <original_smiles>  (18) 
[H]c1nc(N([H])C([H])([H])C([H])([H])Oc2c([H])c([H])c3c(c2[H])C([H])([H])N(C(=O)C([H])(N([H])C(=O)C([H])(N([H])C([H])([H])[H])C([H])([H])[H])C(C([H])([H])[H])(C([H])([H])[H])C([H])([H])[H])C([H])(C(=O)N([H])C2([H])c4c([H])c([H])c([H])c([H])c4C([H])([H])C([H])([H])C2([H])[H])C3([H])[H])nc(C([H])([H])N([H])C(=O)N2C([H])([H])C([H])([H])C([H])([H])C([H])(n3nc(-c4c([H])c([H])c(Oc5c([H])c([H])c(F)c([H])c5F)c([H])c4[H])c(C(=O)N([H])[H])c3N([H])[H])C2([H])[H])c1N([H])[H]

>  <smiles>  (18) 
[H]c1nc(N([H])C([H])([H])C([H])([H])Oc2c([H])c([H])c3c(c2[H])C([H])([H])N(C(=O)C([H])(N([H])C(=O)C([H])(N([H])C([H])([H])[H])C([H])([H])[H])C(C([H])([H])[H])(C([H])([H])[H])C([H])([H])[H])C([H])(C(=O)N([H])C2([H])c4c([H])c([H])c([H])c([H])c4C([H])([H])C([H])([H])C2([H])[H])C3([H])[H])nc(C([H])([H])N([H])C(=O)N2C([H])([H])C([H])([H])C([H])([H])C([H])(n3nc(-c4c([H])c([H])c(Oc5c([H])c([H])c(F)c([H])c5F)c([H])c4[H])c(C(=O)N([H])[H])c3N([H])[H])C2([H])[H])c1N([H])[H]

$$$$
18:0:0
     RDKit          3D

 96104  0  0  1  0  0  0  0  0999 V2000
  -28.8810  -21.2840   20.0920 C   0  0  0  0  0  3  0  0  0  0  0  0
  -31.4340  -17.8430   17.5300 C   0  0  0  0  0  3  0  0  0  0  0  0
  -31.1600  -19.2090   17.3360 C   0  0  0  0  0  3  0  0  0  0  0  0
  -30.7880  -18.0120   19.7550 C   0  0  0  0  0  0  0  0  0  0  0  0
  -30.4690  -19.4140   19.5490 C   0  0  0  0  0  0  0  0  0  0  0  0
  -31.2520  -17.2510   18.7300 N   0  0  0  0  0  0  0  0  0  0  0  0
  -30.6830  -19.9830   18.3350 N   0  0  0  0  0  0  0  0  0  0  0  0
  -29.9370  -20.3130   20.5100 N   0  0  0  0  0  0  0  0  0  0  0  0
  -29.8000  -19.9120   21.4330 H   0  0  0  0  0  0  0  0  0  0  0  0
  -30.7140  -17.2360   21.0930 C   0  0  0  0  0  2  0  0  0  0  0  0
  -31.1190  -14.7300   20.6180 C   0  0  0  0  0  0  0  0  0  0  0  0
  -30.8310  -12.5820   19.4200 C   0  0  0  0  0  2  0  0  0  0  0  0
  -29.9290  -12.8220   18.1900 C   0  0  0  0  0  2  0  0  0  0  0  0
  -28.4380  -12.7120   18.5730 C   0  0  0  0  0  2  0  0  0  0  0  0
  -28.0820  -13.5330   19.8400 C   0  0  0  0  0  3  0  0  0  0  0  0
  -29.0960  -13.2630   20.9750 C   0  0  0  0  0  2  0  0  0  0  0  0
  -30.4400  -13.5580   20.4520 N   0  0  0  0  0  0  0  0  0  0  0  0
  -32.2940  -14.8670   20.2690 O   0  0  0  0  0  0  0  0  0  0  0  0
  -30.3650  -15.7840   21.0190 N   0  0  0  0  0  0  0  0  0  0  0  0
  -29.4080  -15.5600   21.2400 H   0  0  0  0  0  0  0  0  0  0  0  0
  -25.6850  -14.2030   20.4890 C   0  0  0  0  0  0  0  0  0  0  0  0
  -24.5800  -13.4580   20.8040 C   0  0  0  0  0  0  0  0  0  0  0  0
  -24.9970  -12.0930   20.7520 C   0  0  0  0  0  0  0  0  0  0  0  0
  -26.7070  -13.2920   20.2700 N   0  0  0  0  0  0  0  0  0  0  0  0
  -26.2940  -12.0160   20.4860 N   0  0  0  0  0  0  0  0  0  0  0  0
  -24.2220  -10.8520   20.8830 C   0  0  0  0  0  0  0  0  0  0  0  0
  -24.5770   -9.8550   21.8190 C   0  0  0  0  0  3  0  0  0  0  0  0
  -23.8070   -8.6780   21.9390 C   0  0  0  0  0  3  0  0  0  0  0  0
  -22.6660   -8.4910   21.1220 C   0  0  0  0  0  0  0  0  0  0  0  0
  -22.3300   -9.4760   20.1780 C   0  0  0  0  0  3  0  0  0  0  0  0
  -23.1010  -10.6440   20.0550 C   0  0  0  0  0  3  0  0  0  0  0  0
  -21.8730   -7.3700   21.1520 O   0  0  0  0  0  0  0  0  0  0  0  0
  -21.7000   -6.6400   22.3010 C   0  0  0  0  0  0  0  0  0  0  0  0
  -21.1600   -7.2140   23.4730 C   0  0  0  0  0  3  0  0  0  0  0  0
  -20.9350   -6.4110   24.6090 C   0  0  0  0  0  3  0  0  0  0  0  0
  -21.2380   -5.0360   24.5730 C   0  0  0  0  0  0  0  0  0  0  0  0
  -21.7700   -4.4630   23.4050 C   0  0  0  0  0  3  0  0  0  0  0  0
  -21.9970   -5.2620   22.2720 C   0  0  0  0  0  0  0  0  0  0  0  0
  -22.4900   -4.7010   21.1420 F   0  0  0  0  0  0  0  0  0  0  0  0
  -21.0140   -4.2640   25.6630 F   0  0  0  0  0  0  0  0  0  0  0  0
  -23.1900  -13.9750   21.0430 C   0  0  0  0  0  0  0  0  0  0  0  0
  -22.4160  -13.2890   21.8770 N   0  0  0  0  0  0  0  0  0  0  0  0
  -22.8000  -15.0230   20.5260 O   0  0  0  0  0  0  0  0  0  0  0  0
  -22.7460  -12.4410   22.3150 H   0  0  0  0  0  0  0  0  0  0  0  0
  -21.4830  -13.6160   22.0790 H   0  0  0  0  0  0  0  0  0  0  0  0
  -25.9000  -15.5710   20.3510 N   0  0  0  0  0  0  0  0  0  0  0  0
  -25.1470  -16.2450   20.4420 H   0  0  0  0  0  0  0  0  0  0  0  0
  -26.7620  -15.9850   20.0210 H   0  0  0  0  0  0  0  0  0  0  0  0
  -27.2260  -19.3500   19.6120 C   0  0  0  0  0  1  0  0  0  0  0  0
  -27.5000  -20.6500   20.3850 C   0  0  0  0  0  2  0  0  0  0  0  0
  -28.9880  -22.7250   20.7430 C   0  0  0  0  0  2  0  0  0  0  0  0
  -28.4290  -23.9840   19.9480 C   0  0  0  0  0  3  0  0  0  0  0  0
  -27.1630  -23.6790   19.3900 O   0  0  0  0  0  0  0  0  0  0  0  0
  -27.2950  -23.0330   18.7030 H   0  0  0  0  0  0  0  0  0  0  0  0
  -28.2480  -25.2990   20.8050 C   0  0  0  0  0  2  0  0  0  0  0  0
  -28.2890  -26.5910   20.1290 O   0  0  0  0  0  0  0  0  0  0  0  0
  -24.5710  -31.9040   23.2210 C   0  0  0  0  0  0  0  0  0  0  0  0
  -27.1420  -27.3730   20.1620 C   0  0  0  0  0  0  0  0  0  0  0  0
  -23.3400  -30.5020   21.6000 C   0  0  0  0  0  3  0  0  0  0  0  0
  -24.7680  -28.9370   20.1740 C   0  0  0  0  0  0  0  0  0  0  0  0
  -25.8710  -30.8260   21.3790 C   0  0  0  0  0  2  0  0  0  0  0  0
  -25.9400  -29.4450   20.7490 C   0  0  0  0  0  0  0  0  0  0  0  0
  -27.1330  -28.6740   20.7330 C   0  0  0  0  0  3  0  0  0  0  0  0
  -25.9530  -26.8960   19.5750 C   0  0  0  0  0  3  0  0  0  0  0  0
  -24.7720  -27.6630   19.5820 C   0  0  0  0  0  3  0  0  0  0  0  0
  -23.5330  -29.8110   20.2240 C   0  0  0  0  0  2  0  0  0  0  0  0
  -24.6130  -31.0930   22.1240 N   0  0  0  0  0  0  0  0  0  0  0  0
  -23.4960  -32.1900   23.7660 O   0  0  0  0  0  0  0  0  0  0  0  0
  -22.6850  -29.4950   22.5730 C   0  0  0  0  0  0  0  0  0  0  0  0
  -21.3660  -29.2860   22.4250 N   0  0  0  0  0  0  0  0  0  0  0  0
  -23.3630  -28.9020   23.4170 O   0  0  0  0  0  0  0  0  0  0  0  0
  -20.8810  -29.8160   21.7160 H   0  0  0  0  0  0  0  0  0  0  0  0
  -18.0130  -28.0090   22.8590 C   0  0  0  0  0  0  0  0  0  0  0  0
  -20.5520  -28.3510   23.2010 C   0  0  0  0  0  3  0  0  0  0  0  0
  -20.7130  -26.9050   22.6790 C   0  0  0  0  0  2  0  0  0  0  0  0
  -19.6540  -26.5160   21.6430 C   0  0  0  0  0  2  0  0  0  0  0  0
  -18.2490  -26.6420   22.2380 C   0  0  0  0  0  2  0  0  0  0  0  0
  -19.0950  -28.8170   23.2970 C   0  0  0  0  0  0  0  0  0  0  0  0
  -18.8210  -30.0940   23.8370 C   0  0  0  0  0  3  0  0  0  0  0  0
  -17.4990  -30.5630   23.9430 C   0  0  0  0  0  3  0  0  0  0  0  0
  -16.4310  -29.7520   23.5220 C   0  0  0  0  0  3  0  0  0  0  0  0
  -16.6870  -28.4770   22.9860 C   0  0  0  0  0  3  0  0  0  0  0  0
  -25.8660  -32.5290   23.8260 C   0  0  0  0  0  3  0  0  0  0  0  0
  -25.5650  -33.9250   24.1730 N   0  0  0  0  0  0  0  0  0  0  0  0
  -25.8960  -34.9830   23.4220 C   0  0  0  0  0  0  0  0  0  0  0  0
  -26.5580  -34.8880   22.3850 O   0  0  0  0  0  0  0  0  0  0  0  0
  -24.9780  -34.0730   24.9810 H   0  0  0  0  0  0  0  0  0  0  0  0
  -24.1820  -36.7910   23.0860 C   0  0  0  0  0  1  0  0  0  0  0  0
  -25.4170  -36.3680   23.8970 C   0  0  0  0  0  3  0  0  0  0  0  0
  -27.5490  -37.2310   24.7540 C   0  0  0  0  0  1  0  0  0  0  0  0
  -26.4570  -37.4150   23.8020 N   0  0  0  0  0  0  0  0  0  0  0  0
  -26.0560  -38.3360   23.9530 H   0  0  0  0  0  0  0  0  0  0  0  0
  -26.4050  -31.7450   25.0860 C   0  0  1  0  0  0  0  0  0  0  0  0
  -25.3270  -31.4870   26.1650 C   0  0  0  0  0  1  0  0  0  0  0  0
  -26.9900  -30.3760   24.6660 C   0  0  0  0  0  1  0  0  0  0  0  0
  -27.5600  -32.5370   25.7410 C   0  0  0  0  0  1  0  0  0  0  0  0
  1 50  1  0
  1  8  1  0
  1 51  1  0
  2  6  1  0
  3  2  2  0
  3  7  1  0
  4 10  1  0
  5  4  1  0
  5  8  1  0
  6  4  2  0
  7  5  2  0
  8  9  1  0
 11 19  1  0
 12 17  1  0
 13 14  1  0
 13 12  1  0
 15 14  1  0
 15 24  1  0
 15 16  1  0
 17 11  1  0
 17 16  1  0
 18 11  2  0
 19 10  1  0
 19 20  1  0
 21 22  2  0
 22 41  1  0
 23 22  1  0
 23 26  1  0
 24 25  1  0
 24 21  1  0
 25 23  2  0
 26 27  1  0
 27 28  2  0
 29 32  1  0
 29 28  1  0
 30 29  2  0
 31 30  1  0
 31 26  2  0
 32 33  1  0
 33 34  1  0
 34 35  2  0
 36 35  1  0
 36 40  1  0
 37 36  2  0
 38 33  2  0
 38 37  1  0
 39 38  1  0
 41 42  1  0
 42 45  1  0
 42 44  1  0
 43 41  2  0
 46 47  1  0
 46 21  1  0
 48 46  1  0
 49 50  1  0
 52 51  1  0
 52 55  1  0
 53 52  1  0
 54 53  1  0
 56 58  1  0
 56 55  1  0
 57 68  2  0
 58 63  1  0
 59 67  1  0
 59 69  1  0
 60 66  1  0
 60 62  1  0
 61 67  1  0
 62 61  1  0
 63 62  2  0
 64 65  1  0
 64 58  2  0
 65 60  2  0
 66 59  1  0
 67 57  1  0
 69 71  2  0
 70 69  1  0
 72 70  1  0
 73 82  2  0
 73 78  1  0
 74 70  1  0
 74 78  1  0
 75 74  1  0
 76 77  1  0
 76 75  1  0
 77 73  1  0
 78 79  2  0
 79 80  1  0
 81 80  2  0
 82 81  1  0
 83 57  1  0
 83 84  1  0
 83 93  1  0
 84 87  1  0
 85 89  1  0
 85 84  1  0
 86 85  2  0
 89 88  1  0
 91 89  1  0
 91 92  1  0
 91 90  1  0
 93 96  1  1
 93 94  1  0
 95 93  1  0
M  ISO  4  11 100  19 100  55 101  56 101
M  END
>  <TORSDO>  (19) 
F 23

>  <SCORE>  (19) 
-12.421

>  <name>  (19) 
18

>  <ligand_id>  (19) 
18

>  <original_smiles>  (19) 
[H]OC([H])(C([H])([H])Oc1c([H])c([H])c2c(c1[H])C([H])([H])N(C(=O)C([H])(N([H])C(=O)C([H])(N([H])C([H])([H])[H])C([H])([H])[H])C(C([H])([H])[H])(C([H])([H])[H])C([H])([H])[H])C([H])(C(=O)N([H])C1([H])c3c([H])c([H])c([H])c([H])c3C([H])([H])C([H])([H])C1([H])[H])C2([H])[H])C([H])([H])C([H])(N([H])c1nc([H])c([H])nc1C([H])([H])N([H])C(=O)N1C([H])([H])C([H])([H])C([H])([H])C([H])(n2nc(-c3c([H])c([H])c(Oc4c([H])c([H])c(F)c([H])c4F)c([H])c3[H])c(C(=O)N([H])[H])c2N([H])[H])C1([H])[H])C([H])([H])C([H])([H])[H]

>  <smiles>  (19) 
[H]OC([H])(C([H])([H])Oc1c([H])c([H])c2c(c1[H])C([H])([H])N(C(=O)C([H])(N([H])C(=O)C([H])(N([H])C([H])([H])[H])C([H])([H])[H])C(C([H])([H])[H])(C([H])([H])[H])C([H])([H])[H])C([H])(C(=O)N([H])C1([H])c3c([H])c([H])c([H])c([H])c3C([H])([H])C([H])([H])C1([H])[H])C2([H])[H])C([H])([H])C([H])(N([H])c1nc([H])c([H])nc1C([H])([H])N([H])C(=O)N1C([H])([H])C([H])([H])C([H])([H])C([H])(n2nc(-c3c([H])c([H])c(Oc4c([H])c([H])c(F)c([H])c4F)c([H])c3[H])c(C(=O)N([H])[H])c2N([H])[H])C1([H])[H])C([H])([H])C([H])([H])[H]

$$$$
19:0:0
     RDKit          3D

 90 98  0  0  1  0  0  0  0  0999 V2000
  -28.8290  -22.2540   20.0830 C   0  0  0  0  0  3  0  0  0  0  0  0
  -27.4530  -21.9680   19.8830 O   0  0  0  0  0  0  0  0  0  0  0  0
  -27.0330  -21.9130   20.7360 H   0  0  0  0  0  0  0  0  0  0  0  0
  -29.4280  -21.0550   20.9820 C   0  0  0  0  0  2  0  0  0  0  0  0
  -29.4440  -18.3120   20.9800 C   0  0  0  0  0  3  0  0  0  0  0  0
  -30.5710  -19.4300   19.3050 C   0  0  0  0  0  3  0  0  0  0  0  0
  -29.7730  -19.6260   20.4060 C   0  0  0  0  0  0  0  0  0  0  0  0
  -30.0060  -17.1730   20.3740 C   0  0  0  0  0  0  0  0  0  0  0  0
  -30.9400  -17.7380   19.0020 S   0  0  0  0  0  0  0  0  0  0  0  0
  -30.6040  -14.7130   20.3270 C   0  0  0  0  0  0  0  0  0  0  0  0
  -30.3850  -12.4540   19.3000 C   0  0  0  0  0  2  0  0  0  0  0  0
  -29.4540  -12.5700   18.0740 C   0  0  0  0  0  2  0  0  0  0  0  0
  -27.9800  -12.4070   18.4950 C   0  0  0  0  0  2  0  0  0  0  0  0
  -27.6130  -13.2770   19.7280 C   0  0  0  0  0  3  0  0  0  0  0  0
  -28.6670  -13.1510   20.8500 C   0  0  0  0  0  2  0  0  0  0  0  0
  -29.9740  -13.4900   20.2740 N   0  0  0  0  0  0  0  0  0  0  0  0
  -31.7720  -14.8210   19.9430 O   0  0  0  0  0  0  0  0  0  0  0  0
  -29.8540  -15.8170   20.6920 N   0  0  0  0  0  0  0  0  0  0  0  0
  -28.9870  -15.5800   21.1520 H   0  0  0  0  0  0  0  0  0  0  0  0
  -25.2150  -13.8710   20.4290 C   0  0  0  0  0  0  0  0  0  0  0  0
  -24.1490  -13.0980   20.7990 C   0  0  0  0  0  0  0  0  0  0  0  0
  -24.6150  -11.7480   20.7830 C   0  0  0  0  0  0  0  0  0  0  0  0
  -26.2640  -12.9910   20.2080 N   0  0  0  0  0  0  0  0  0  0  0  0
  -25.9070  -11.7090   20.4830 N   0  0  0  0  0  0  0  0  0  0  0  0
  -23.8890  -10.4860   20.9790 C   0  0  0  0  0  0  0  0  0  0  0  0
  -24.3140   -9.5290   21.9280 C   0  0  0  0  0  3  0  0  0  0  0  0
  -23.5890   -8.3310   22.1120 C   0  0  0  0  0  3  0  0  0  0  0  0
  -22.4240   -8.0830   21.3470 C   0  0  0  0  0  0  0  0  0  0  0  0
  -22.0180   -9.0280   20.3890 C   0  0  0  0  0  3  0  0  0  0  0  0
  -22.7450  -10.2160   20.2020 C   0  0  0  0  0  3  0  0  0  0  0  0
  -21.6710   -6.9370   21.4400 O   0  0  0  0  0  0  0  0  0  0  0  0
  -21.6060   -6.2110   22.6010 C   0  0  0  0  0  0  0  0  0  0  0  0
  -21.1490   -6.7780   23.8110 C   0  0  0  0  0  3  0  0  0  0  0  0
  -21.0320   -5.9760   24.9650 C   0  0  0  0  0  3  0  0  0  0  0  0
  -21.3630   -4.6090   24.9100 C   0  0  0  0  0  0  0  0  0  0  0  0
  -21.8130   -4.0410   23.7040 C   0  0  0  0  0  3  0  0  0  0  0  0
  -21.9310   -4.8390   22.5530 C   0  0  0  0  0  0  0  0  0  0  0  0
  -22.3450   -4.2830   21.3890 F   0  0  0  0  0  0  0  0  0  0  0  0
  -21.2430   -3.8380   26.0150 F   0  0  0  0  0  0  0  0  0  0  0  0
  -22.7490  -13.5750   21.0570 C   0  0  0  0  0  0  0  0  0  0  0  0
  -22.0150  -12.8840   21.9230 N   0  0  0  0  0  0  0  0  0  0  0  0
  -22.3140  -14.5960   20.5280 O   0  0  0  0  0  0  0  0  0  0  0  0
  -22.3790  -12.0580   22.3760 H   0  0  0  0  0  0  0  0  0  0  0  0
  -21.0750  -13.1880   22.1380 H   0  0  0  0  0  0  0  0  0  0  0  0
  -25.3780  -15.2410   20.2390 N   0  0  0  0  0  0  0  0  0  0  0  0
  -24.6070  -15.8920   20.3320 H   0  0  0  0  0  0  0  0  0  0  0  0
  -26.2220  -15.6760   19.8870 H   0  0  0  0  0  0  0  0  0  0  0  0
  -28.9560  -23.7800   20.6170 C   0  0  0  0  0  3  0  0  0  0  0  0
  -28.0960  -24.9560   19.9310 C   0  0  0  0  0  3  0  0  0  0  0  0
  -28.2810  -26.4070   20.2660 O   0  0  0  0  0  0  0  0  0  0  0  0
  -24.5920  -31.8840   23.2380 C   0  0  0  0  0  0  0  0  0  0  0  0
  -27.1820  -27.2930   20.1800 C   0  0  0  0  0  0  0  0  0  0  0  0
  -23.3830  -30.4880   21.6000 C   0  0  0  0  0  3  0  0  0  0  0  0
  -24.8280  -28.9370   20.1680 C   0  0  0  0  0  0  0  0  0  0  0  0
  -25.9260  -30.7910   21.4190 C   0  0  0  0  0  2  0  0  0  0  0  0
  -25.9990  -29.4110   20.7700 C   0  0  0  0  0  0  0  0  0  0  0  0
  -27.1770  -28.5990   20.7720 C   0  0  0  0  0  3  0  0  0  0  0  0
  -25.9910  -26.8970   19.5240 C   0  0  0  0  0  3  0  0  0  0  0  0
  -24.8280  -27.6870   19.5340 C   0  0  0  0  0  3  0  0  0  0  0  0
  -23.5950  -29.8160   20.2200 C   0  0  0  0  0  2  0  0  0  0  0  0
  -24.6530  -31.0720   22.1410 N   0  0  0  0  0  0  0  0  0  0  0  0
  -23.5090  -32.1640   23.7730 O   0  0  0  0  0  0  0  0  0  0  0  0
  -22.7190  -29.4720   22.5610 C   0  0  0  0  0  0  0  0  0  0  0  0
  -21.3920  -29.2980   22.4360 N   0  0  0  0  0  0  0  0  0  0  0  0
  -23.3970  -28.8450   23.3800 O   0  0  0  0  0  0  0  0  0  0  0  0
  -20.9040  -29.8550   21.7500 H   0  0  0  0  0  0  0  0  0  0  0  0
  -18.0110  -28.1140   22.9490 C   0  0  0  0  0  0  0  0  0  0  0  0
  -20.5720  -28.3620   23.2090 C   0  0  0  0  0  3  0  0  0  0  0  0
  -20.6660  -26.9310   22.6320 C   0  0  0  0  0  2  0  0  0  0  0  0
  -19.5580  -26.6140   21.6210 C   0  0  0  0  0  2  0  0  0  0  0  0
  -18.1790  -26.7650   22.2700 C   0  0  0  0  0  2  0  0  0  0  0  0
  -19.1350  -28.8700   23.3750 C   0  0  0  0  0  0  0  0  0  0  0  0
  -18.9230  -30.1330   23.9690 C   0  0  0  0  0  3  0  0  0  0  0  0
  -17.6210  -30.6410   24.1410 C   0  0  0  0  0  3  0  0  0  0  0  0
  -16.5120  -29.8800   23.7310 C   0  0  0  0  0  3  0  0  0  0  0  0
  -16.7090  -28.6190   23.1400 C   0  0  0  0  0  3  0  0  0  0  0  0
  -25.8770  -32.5150   23.8580 C   0  0  0  0  0  3  0  0  0  0  0  0
  -25.5690  -33.9130   24.1900 N   0  0  0  0  0  0  0  0  0  0  0  0
  -25.8960  -34.9670   23.4290 C   0  0  0  0  0  0  0  0  0  0  0  0
  -26.5580  -34.8630   22.3930 O   0  0  0  0  0  0  0  0  0  0  0  0
  -24.9790  -34.0670   24.9940 H   0  0  0  0  0  0  0  0  0  0  0  0
  -24.1670  -36.7630   23.0890 C   0  0  0  0  0  1  0  0  0  0  0  0
  -25.4140  -36.3550   23.8920 C   0  0  0  0  0  3  0  0  0  0  0  0
  -27.5540  -37.2390   24.7100 C   0  0  0  0  0  1  0  0  0  0  0  0
  -26.4460  -37.4070   23.7720 N   0  0  0  0  0  0  0  0  0  0  0  0
  -26.0430  -38.3280   23.9210 H   0  0  0  0  0  0  0  0  0  0  0  0
  -26.3920  -31.7430   25.1340 C   0  0  1  0  0  0  0  0  0  0  0  0
  -25.3000  -31.5070   26.2030 C   0  0  0  0  0  1  0  0  0  0  0  0
  -26.9720  -30.3630   24.7440 C   0  0  0  0  0  1  0  0  0  0  0  0
  -27.5450  -32.5340   25.7940 C   0  0  0  0  0  1  0  0  0  0  0  0
  1 48  1  0
  1  4  1  0
  2  1  1  0
  2  3  1  0
  6  7  2  0
  7  5  1  0
  7  4  1  0
  8 18  1  0
  8  5  2  0
  9  6  1  0
  9  8  1  0
 10 18  1  0
 11 16  1  0
 12 13  1  0
 12 11  1  0
 14 13  1  0
 14 23  1  0
 14 15  1  0
 16 10  1  0
 16 15  1  0
 17 10  2  0
 18 19  1  0
 20 21  2  0
 21 40  1  0
 22 21  1  0
 22 25  1  0
 23 20  1  0
 23 24  1  0
 24 22  2  0
 25 26  1  0
 26 27  2  0
 28 31  1  0
 28 27  1  0
 29 28  2  0
 30 29  1  0
 30 25  2  0
 31 32  1  0
 32 33  1  0
 33 34  2  0
 35 34  1  0
 35 39  1  0
 36 35  2  0
 37 32  2  0
 37 36  1  0
 38 37  1  0
 40 41  1  0
 41 44  1  0
 41 43  1  0
 42 40  2  0
 45 46  1  0
 45 20  1  0
 47 45  1  0
 49 50  1  0
 49 48  2  0
 51 62  2  0
 52 50  1  0
 52 57  1  0
 53 61  1  0
 53 63  1  0
 54 60  1  0
 54 56  1  0
 55 61  1  0
 56 57  2  0
 56 55  1  0
 58 59  1  0
 58 52  2  0
 59 54  2  0
 60 53  1  0
 61 51  1  0
 63 65  2  0
 64 63  1  0
 66 64  1  0
 67 76  2  0
 67 72  1  0
 68 64  1  0
 68 72  1  0
 69 68  1  0
 70 71  1  0
 70 69  1  0
 71 67  1  0
 72 73  2  0
 73 74  1  0
 75 74  2  0
 76 75  1  0
 77 51  1  0
 77 78  1  0
 77 87  1  0
 78 81  1  0
 79 83  1  0
 79 78  1  0
 80 79  2  0
 83 82  1  0
 85 83  1  0
 85 86  1  0
 85 84  1  0
 87 90  1  1
 87 88  1  0
 89 87  1  0
M  ISO  4  10 100  18 100  49 101  50 101
M  END
>  <TORSDO>  (20) 
F 21

>  <SCORE>  (20) 
-13.598

>  <name>  (20) 
19

>  <ligand_id>  (20) 
19

>  <original_smiles>  (20) 
[H]OC([H])(C([H])([H])c1c([H])sc(N([H])C(=O)N2C([H])([H])C([H])([H])C([H])([H])C([H])(n3nc(-c4c([H])c([H])c(Oc5c([H])c([H])c(F)c([H])c5F)c([H])c4[H])c(C(=O)N([H])[H])c3N([H])[H])C2([H])[H])c1[H])C([H])([H])C([H])([H])Oc1c([H])c([H])c2c(c1[H])C([H])([H])N(C(=O)C([H])(N([H])C(=O)C([H])(N([H])C([H])([H])[H])C([H])([H])[H])C(C([H])([H])[H])(C([H])([H])[H])C([H])([H])[H])C([H])(C(=O)N([H])C1([H])c3c([H])c([H])c([H])c([H])c3C([H])([H])C([H])([H])C1([H])[H])C2([H])[H]

>  <smiles>  (20) 
[H]OC([H])(C([H])([H])c1c([H])sc(N([H])C(=O)N2C([H])([H])C([H])([H])C([H])([H])C([H])(n3nc(-c4c([H])c([H])c(Oc5c([H])c([H])c(F)c([H])c5F)c([H])c4[H])c(C(=O)N([H])[H])c3N([H])[H])C2([H])[H])c1[H])C([H])([H])C([H])([H])Oc1c([H])c([H])c2c(c1[H])C([H])([H])N(C(=O)C([H])(N([H])C(=O)C([H])(N([H])C([H])([H])[H])C([H])([H])[H])C(C([H])([H])[H])(C([H])([H])[H])C([H])([H])[H])C([H])(C(=O)N([H])C1([H])c3c([H])c([H])c([H])c([H])c3C([H])([H])C([H])([H])C1([H])[H])C2([H])[H]

$$$$
20:0:0
     RDKit          3D

 92100  0  0  1  0  0  0  0  0999 V2000
  -28.8860  -23.1220   20.8290 C   0  0  0  0  0  2  0  0  0  0  0  0
  -28.2350  -18.2670   20.4850 C   0  0  0  0  0  3  0  0  0  0  0  0
  -29.5430  -18.2720   20.0580 C   0  0  0  0  0  0  0  0  0  0  0  0
  -29.1300  -20.5560   20.1580 C   0  0  0  0  0  0  0  0  0  0  0  0
  -30.0140  -19.5930   19.8500 N   0  0  0  0  0  0  0  0  0  0  0  0
  -29.3950  -21.9380   20.0850 N   0  0  0  0  0  0  0  0  0  0  0  0
  -27.5980  -19.8880   20.7100 S   0  0  0  0  0  0  0  0  0  0  0  0
  -30.3380  -22.0980   19.7420 H   0  0  0  0  0  0  0  0  0  0  0  0
  -30.4910  -17.0900   19.8450 C   0  0  0  0  0  2  0  0  0  0  0  0
  -30.7280  -14.6150   19.8160 C   0  0  0  0  0  0  0  0  0  0  0  0
  -30.3650  -12.3940   18.8010 C   0  0  0  0  0  2  0  0  0  0  0  0
  -29.3490  -12.5520   17.6500 C   0  0  0  0  0  2  0  0  0  0  0  0
  -27.9080  -12.4280   18.1820 C   0  0  0  0  0  2  0  0  0  0  0  0
  -27.6520  -13.3160   19.4310 C   0  0  0  0  0  3  0  0  0  0  0  0
  -28.7800  -13.1510   20.4750 C   0  0  0  0  0  2  0  0  0  0  0  0
  -30.0550  -13.4310   19.8020 N   0  0  0  0  0  0  0  0  0  0  0  0
  -31.8570  -14.7280   19.3310 O   0  0  0  0  0  0  0  0  0  0  0  0
  -30.0260  -15.7180   20.1680 N   0  0  0  0  0  0  0  0  0  0  0  0
  -29.0860  -15.6010   20.5150 H   0  0  0  0  0  0  0  0  0  0  0  0
  -25.3390  -13.9630   20.3460 C   0  0  0  0  0  0  0  0  0  0  0  0
  -24.2820  -13.2070   20.7780 C   0  0  0  0  0  0  0  0  0  0  0  0
  -24.7010  -11.8470   20.6750 C   0  0  0  0  0  0  0  0  0  0  0  0
  -26.3350  -13.0610   20.0100 N   0  0  0  0  0  0  0  0  0  0  0  0
  -25.9610  -11.7810   20.2670 N   0  0  0  0  0  0  0  0  0  0  0  0
  -23.9570  -10.5970   20.8860 C   0  0  0  0  0  0  0  0  0  0  0  0
  -24.4010   -9.6180   21.8040 C   0  0  0  0  0  3  0  0  0  0  0  0
  -23.6580   -8.4360   22.0030 C   0  0  0  0  0  3  0  0  0  0  0  0
  -22.4570   -8.2220   21.2870 C   0  0  0  0  0  0  0  0  0  0  0  0
  -22.0310   -9.1880   20.3580 C   0  0  0  0  0  3  0  0  0  0  0  0
  -22.7750  -10.3630   20.1560 C   0  0  0  0  0  3  0  0  0  0  0  0
  -21.6840   -7.0910   21.3970 O   0  0  0  0  0  0  0  0  0  0  0  0
  -21.6140   -6.3780   22.5670 C   0  0  0  0  0  0  0  0  0  0  0  0
  -21.1900   -6.9710   23.7760 C   0  0  0  0  0  3  0  0  0  0  0  0
  -21.0650   -6.1860   24.9400 C   0  0  0  0  0  3  0  0  0  0  0  0
  -21.3550   -4.8090   24.8950 C   0  0  0  0  0  0  0  0  0  0  0  0
  -21.7740   -4.2160   23.6920 C   0  0  0  0  0  3  0  0  0  0  0  0
  -21.9000   -4.9990   22.5300 C   0  0  0  0  0  0  0  0  0  0  0  0
  -22.2810   -4.4180   21.3670 F   0  0  0  0  0  0  0  0  0  0  0  0
  -21.2290   -4.0530   26.0110 F   0  0  0  0  0  0  0  0  0  0  0  0
  -22.9240  -13.7120   21.1710 C   0  0  0  0  0  0  0  0  0  0  0  0
  -22.2530  -13.0160   22.0840 N   0  0  0  0  0  0  0  0  0  0  0  0
  -22.4690  -14.7570   20.7060 O   0  0  0  0  0  0  0  0  0  0  0  0
  -22.6330  -12.1690   22.4790 H   0  0  0  0  0  0  0  0  0  0  0  0
  -21.3460  -13.3340   22.3940 H   0  0  0  0  0  0  0  0  0  0  0  0
  -25.5280  -15.3340   20.1910 N   0  0  0  0  0  0  0  0  0  0  0  0
  -24.7810  -16.0010   20.3570 H   0  0  0  0  0  0  0  0  0  0  0  0
  -26.3490  -15.7570   19.7800 H   0  0  0  0  0  0  0  0  0  0  0  0
  -28.0450  -24.1640   20.0040 C   0  0  0  0  0  3  0  0  0  0  0  0
  -27.5610  -23.3890   18.9290 O   0  0  0  0  0  0  0  0  0  0  0  0
  -28.1170  -22.6050   18.9820 H   0  0  0  0  0  0  0  0  0  0  0  0
  -28.7540  -25.4650   19.4640 C   0  0  0  0  0  2  0  0  0  0  0  0
  -28.5530  -26.7180   20.1720 O   0  0  0  0  0  0  0  0  0  0  0  0
  -24.5250  -31.7520   23.2430 C   0  0  0  0  0  0  0  0  0  0  0  0
  -27.3500  -27.4140   20.1150 C   0  0  0  0  0  0  0  0  0  0  0  0
  -23.3820  -30.3300   21.5730 C   0  0  0  0  0  3  0  0  0  0  0  0
  -24.9020  -28.8660   20.1270 C   0  0  0  0  0  0  0  0  0  0  0  0
  -25.8990  -30.7720   21.4020 C   0  0  0  0  0  2  0  0  0  0  0  0
  -26.0380  -29.4130   20.7370 C   0  0  0  0  0  0  0  0  0  0  0  0
  -27.2600  -28.6920   20.7270 C   0  0  0  0  0  3  0  0  0  0  0  0
  -26.1900  -26.8930   19.4950 C   0  0  0  0  0  3  0  0  0  0  0  0
  -24.9770  -27.6110   19.5000 C   0  0  0  0  0  3  0  0  0  0  0  0
  -23.6250  -29.6790   20.1840 C   0  0  0  0  0  2  0  0  0  0  0  0
  -24.6190  -30.9680   22.1300 N   0  0  0  0  0  0  0  0  0  0  0  0
  -23.4310  -31.9760   23.7810 O   0  0  0  0  0  0  0  0  0  0  0  0
  -22.7640  -29.2720   22.5150 C   0  0  0  0  0  0  0  0  0  0  0  0
  -21.4450  -29.0490   22.3840 N   0  0  0  0  0  0  0  0  0  0  0  0
  -23.4670  -28.6580   23.3210 O   0  0  0  0  0  0  0  0  0  0  0  0
  -20.9370  -29.5970   21.7050 H   0  0  0  0  0  0  0  0  0  0  0  0
  -18.1130  -27.7450   22.8820 C   0  0  0  0  0  0  0  0  0  0  0  0
  -20.6640  -28.0720   23.1410 C   0  0  0  0  0  3  0  0  0  0  0  0
  -20.8030  -26.6570   22.5340 C   0  0  0  0  0  2  0  0  0  0  0  0
  -19.7030  -26.3230   21.5220 C   0  0  0  0  0  2  0  0  0  0  0  0
  -18.3220  -26.4160   22.1760 C   0  0  0  0  0  2  0  0  0  0  0  0
  -19.2110  -28.5300   23.3200 C   0  0  0  0  0  0  0  0  0  0  0  0
  -18.9610  -29.7720   23.9420 C   0  0  0  0  0  3  0  0  0  0  0  0
  -17.6440  -30.2310   24.1290 C   0  0  0  0  0  3  0  0  0  0  0  0
  -16.5600  -29.4440   23.7060 C   0  0  0  0  0  3  0  0  0  0  0  0
  -16.7950  -28.2020   23.0890 C   0  0  0  0  0  3  0  0  0  0  0  0
  -25.7830  -32.4220   23.8790 C   0  0  0  0  0  3  0  0  0  0  0  0
  -25.4260  -33.8090   24.2090 N   0  0  0  0  0  0  0  0  0  0  0  0
  -25.7330  -34.8740   23.4560 C   0  0  0  0  0  0  0  0  0  0  0  0
  -26.4160  -34.7950   22.4310 O   0  0  0  0  0  0  0  0  0  0  0  0
  -24.8160  -33.9420   25.0030 H   0  0  0  0  0  0  0  0  0  0  0  0
  -23.9480  -36.6090   23.0900 C   0  0  0  0  0  1  0  0  0  0  0  0
  -25.1950  -36.2450   23.9100 C   0  0  0  0  0  3  0  0  0  0  0  0
  -27.2910  -37.2010   24.7600 C   0  0  0  0  0  1  0  0  0  0  0  0
  -26.1940  -37.3320   23.8060 N   0  0  0  0  0  0  0  0  0  0  0  0
  -25.7570  -38.2380   23.9490 H   0  0  0  0  0  0  0  0  0  0  0  0
  -26.3140  -31.6660   25.1580 C   0  0  1  0  0  0  0  0  0  0  0  0
  -25.2190  -31.3850   26.2130 C   0  0  0  0  0  1  0  0  0  0  0  0
  -26.9500  -30.3120   24.7690 C   0  0  0  0  0  1  0  0  0  0  0  0
  -27.4290  -32.4980   25.8340 C   0  0  0  0  0  1  0  0  0  0  0  0
  2  7  1  0
  3  2  2  0
  4  7  1  0
  5  3  1  0
  5  4  2  0
  6  4  1  0
  6  1  1  0
  8  6  1  0
  9  3  1  0
  9 18  1  0
 10 18  1  0
 11 16  1  0
 12 13  1  0
 12 11  1  0
 14 13  1  0
 14 23  1  0
 14 15  1  0
 16 10  1  0
 16 15  1  0
 17 10  2  0
 18 19  1  0
 20 21  2  0
 21 40  1  0
 22 21  1  0
 22 25  1  0
 23 24  1  0
 23 20  1  0
 24 22  2  0
 25 26  1  0
 26 27  2  0
 28 31  1  0
 28 27  1  0
 29 28  2  0
 30 29  1  0
 30 25  2  0
 31 32  1  0
 32 33  1  0
 33 34  2  0
 35 34  1  0
 35 39  1  0
 36 35  2  0
 37 32  2  0
 37 36  1  0
 38 37  1  0
 40 41  1  0
 41 44  1  0
 41 43  1  0
 42 40  2  0
 45 20  1  0
 45 46  1  0
 47 45  1  0
 48 51  1  0
 48  1  1  0
 49 50  1  0
 49 48  1  0
 51 52  1  0
 53 64  2  0
 54 52  1  0
 54 59  1  0
 55 63  1  0
 55 65  1  0
 56 62  1  0
 56 58  1  0
 57 63  1  0
 58 57  1  0
 59 58  2  0
 60 61  1  0
 60 54  2  0
 61 56  2  0
 62 55  1  0
 63 53  1  0
 65 67  2  0
 66 65  1  0
 68 66  1  0
 69 78  2  0
 69 74  1  0
 70 66  1  0
 70 74  1  0
 71 70  1  0
 72 73  1  0
 72 71  1  0
 73 69  1  0
 74 75  2  0
 75 76  1  0
 77 76  2  0
 78 77  1  0
 79 53  1  0
 79 80  1  0
 79 89  1  0
 80 83  1  0
 81 85  1  0
 81 80  1  0
 82 81  2  0
 85 84  1  0
 87 85  1  0
 87 88  1  0
 87 86  1  0
 89 92  1  1
 89 90  1  0
 91 89  1  0
M  ISO  4  10 100  18 100  51 101  52 101
M  END
>  <TORSDO>  (21) 
F 21

>  <SCORE>  (21) 
-12.364

>  <name>  (21) 
20

>  <ligand_id>  (21) 
20

>  <original_smiles>  (21) 
[H]OC([H])(C([H])([H])Oc1c([H])c([H])c2c(c1[H])C([H])([H])N(C(=O)C([H])(N([H])C(=O)C([H])(N([H])C([H])([H])[H])C([H])([H])[H])C(C([H])([H])[H])(C([H])([H])[H])C([H])([H])[H])C([H])(C(=O)N([H])C1([H])c3c([H])c([H])c([H])c([H])c3C([H])([H])C([H])([H])C1([H])[H])C2([H])[H])C([H])([H])N([H])c1nc(C([H])([H])N([H])C(=O)N2C([H])([H])C([H])([H])C([H])([H])C([H])(n3nc(-c4c([H])c([H])c(Oc5c([H])c([H])c(F)c([H])c5F)c([H])c4[H])c(C(=O)N([H])[H])c3N([H])[H])C2([H])[H])c([H])s1

>  <smiles>  (21) 
[H]OC([H])(C([H])([H])Oc1c([H])c([H])c2c(c1[H])C([H])([H])N(C(=O)C([H])(N([H])C(=O)C([H])(N([H])C([H])([H])[H])C([H])([H])[H])C(C([H])([H])[H])(C([H])([H])[H])C([H])([H])[H])C([H])(C(=O)N([H])C1([H])c3c([H])c([H])c([H])c([H])c3C([H])([H])C([H])([H])C1([H])[H])C2([H])[H])C([H])([H])N([H])c1nc(C([H])([H])N([H])C(=O)N2C([H])([H])C([H])([H])C([H])([H])C([H])(n3nc(-c4c([H])c([H])c(Oc5c([H])c([H])c(F)c([H])c5F)c([H])c4[H])c(C(=O)N([H])[H])c3N([H])[H])C2([H])[H])c([H])s1

$$$$
21:0:0
     RDKit          3D

 96104  0  0  1  0  0  0  0  0999 V2000
  -30.0060  -21.6790   20.5920 C   0  0  0  0  0  3  0  0  0  0  0  0
  -30.6320  -14.5530   20.3490 C   0  0  0  0  0  0  0  0  0  0  0  0
  -30.3450  -12.3880   19.1850 C   0  0  0  0  0  2  0  0  0  0  0  0
  -29.3860  -12.5900   17.9930 C   0  0  0  0  0  2  0  0  0  0  0  0
  -27.9180  -12.4510   18.4410 C   0  0  0  0  0  2  0  0  0  0  0  0
  -27.5940  -13.2760   19.7150 C   0  0  0  0  0  3  0  0  0  0  0  0
  -28.6640  -13.0550   20.8080 C   0  0  0  0  0  2  0  0  0  0  0  0
  -29.9730  -13.3690   20.2170 N   0  0  0  0  0  0  0  0  0  0  0  0
  -31.7860  -14.7130   19.9380 O   0  0  0  0  0  0  0  0  0  0  0  0
  -30.2460  -16.9200   21.0740 C   0  0  0  0  0  0  0  0  0  0  0  0
  -30.0350  -19.1330   21.2040 C   0  0  0  0  0  3  0  0  0  0  0  0
  -29.4840  -17.9990   20.7450 N   0  0  0  0  0  0  0  0  0  0  0  0
  -31.3370  -17.1250   21.8340 N   0  0  0  0  0  2  0  0  0  0  0  0
  -29.8510  -15.5950   20.7230 N   0  0  0  0  0  0  0  0  0  0  0  0
  -29.3920  -20.3880   21.0280 N   0  0  0  0  0  0  0  0  0  0  0  0
  -31.4490  -18.7750   22.1780 S   0  0  0  0  0  0  0  0  0  0  0  0
  -28.8700  -15.3940   20.8060 H   0  0  0  0  0  0  0  0  0  0  0  0
  -28.4400  -20.2790   20.6920 H   0  0  0  0  0  0  0  0  0  0  0  0
  -25.2050  -13.8780   20.4510 C   0  0  0  0  0  0  0  0  0  0  0  0
  -24.1430  -13.1040   20.8330 C   0  0  0  0  0  0  0  0  0  0  0  0
  -24.6080  -11.7520   20.7970 C   0  0  0  0  0  0  0  0  0  0  0  0
  -26.2480  -12.9990   20.2090 N   0  0  0  0  0  0  0  0  0  0  0  0
  -25.8940  -11.7160   20.4750 N   0  0  0  0  0  0  0  0  0  0  0  0
  -23.8860  -10.4880   20.9900 C   0  0  0  0  0  0  0  0  0  0  0  0
  -24.3150   -9.5290   21.9340 C   0  0  0  0  0  3  0  0  0  0  0  0
  -23.5920   -8.3300   22.1140 C   0  0  0  0  0  3  0  0  0  0  0  0
  -22.4270   -8.0820   21.3510 C   0  0  0  0  0  0  0  0  0  0  0  0
  -22.0180   -9.0300   20.3960 C   0  0  0  0  0  3  0  0  0  0  0  0
  -22.7420  -10.2200   20.2140 C   0  0  0  0  0  3  0  0  0  0  0  0
  -21.6760   -6.9350   21.4400 O   0  0  0  0  0  0  0  0  0  0  0  0
  -21.6150   -6.2050   22.6000 C   0  0  0  0  0  0  0  0  0  0  0  0
  -21.1500   -6.7650   23.8100 C   0  0  0  0  0  3  0  0  0  0  0  0
  -21.0370   -5.9600   24.9620 C   0  0  0  0  0  3  0  0  0  0  0  0
  -21.3790   -4.5950   24.9030 C   0  0  0  0  0  0  0  0  0  0  0  0
  -21.8370   -4.0350   23.6990 C   0  0  0  0  0  3  0  0  0  0  0  0
  -21.9510   -4.8360   22.5490 C   0  0  0  0  0  0  0  0  0  0  0  0
  -22.3730   -4.2860   21.3850 F   0  0  0  0  0  0  0  0  0  0  0  0
  -21.2630   -3.8190   26.0070 F   0  0  0  0  0  0  0  0  0  0  0  0
  -22.7480  -13.5780   21.1180 C   0  0  0  0  0  0  0  0  0  0  0  0
  -22.0240  -12.8730   21.9800 N   0  0  0  0  0  0  0  0  0  0  0  0
  -22.3080  -14.6100   20.6120 O   0  0  0  0  0  0  0  0  0  0  0  0
  -22.3910  -12.0370   22.4100 H   0  0  0  0  0  0  0  0  0  0  0  0
  -21.0890  -13.1760   22.2130 H   0  0  0  0  0  0  0  0  0  0  0  0
  -25.3640  -15.2500   20.2710 N   0  0  0  0  0  0  0  0  0  0  0  0
  -24.5880  -15.8960   20.3740 H   0  0  0  0  0  0  0  0  0  0  0  0
  -26.1930  -15.6920   19.8960 H   0  0  0  0  0  0  0  0  0  0  0  0
  -31.5360  -21.7990   20.8510 C   0  0  0  0  0  2  0  0  0  0  0  0
  -32.3280  -20.3700   18.8130 C   0  0  0  0  0  1  0  0  0  0  0  0
  -33.9000  -21.9390   19.9860 C   0  0  0  0  0  1  0  0  0  0  0  0
  -32.4360  -21.6900   19.5980 C   0  0  0  0  0  3  0  0  0  0  0  0
  -29.1890  -22.9170   21.1420 C   0  0  0  0  0  2  0  0  0  0  0  0
  -29.4310  -24.3630   20.5450 C   0  0  0  0  0  3  0  0  0  0  0  0
  -30.6040  -24.9370   21.0940 O   0  0  0  0  0  0  0  0  0  0  0  0
  -30.6400  -25.8390   20.7840 H   0  0  0  0  0  0  0  0  0  0  0  0
  -28.3050  -25.3860   20.9030 C   0  0  0  0  0  2  0  0  0  0  0  0
  -28.4380  -26.6860   20.2670 O   0  0  0  0  0  0  0  0  0  0  0  0
  -24.6020  -31.9260   23.2730 C   0  0  0  0  0  0  0  0  0  0  0  0
  -27.2850  -27.4560   20.2480 C   0  0  0  0  0  0  0  0  0  0  0  0
  -23.4130  -30.5180   21.6230 C   0  0  0  0  0  3  0  0  0  0  0  0
  -24.8850  -28.9760   20.2160 C   0  0  0  0  0  0  0  0  0  0  0  0
  -25.9420  -30.8790   21.4450 C   0  0  0  0  0  2  0  0  0  0  0  0
  -26.0390  -29.5030   20.8110 C   0  0  0  0  0  0  0  0  0  0  0  0
  -27.2460  -28.7550   20.8170 C   0  0  0  0  0  3  0  0  0  0  0  0
  -26.1150  -26.9550   19.6390 C   0  0  0  0  0  3  0  0  0  0  0  0
  -24.9200  -27.7020   19.6230 C   0  0  0  0  0  3  0  0  0  0  0  0
  -23.6360  -29.8320   20.2470 C   0  0  0  0  0  2  0  0  0  0  0  0
  -24.6700  -31.1240   22.1720 N   0  0  0  0  0  0  0  0  0  0  0  0
  -23.5180  -32.1990   23.8040 O   0  0  0  0  0  0  0  0  0  0  0  0
  -22.7560  -29.4980   22.5820 C   0  0  0  0  0  0  0  0  0  0  0  0
  -21.4320  -29.3180   22.4480 N   0  0  0  0  0  0  0  0  0  0  0  0
  -23.4350  -28.8700   23.3980 O   0  0  0  0  0  0  0  0  0  0  0  0
  -20.9460  -29.8810   21.7650 H   0  0  0  0  0  0  0  0  0  0  0  0
  -18.0520  -28.1400   22.9400 C   0  0  0  0  0  0  0  0  0  0  0  0
  -20.6100  -28.3800   23.2130 C   0  0  0  0  0  3  0  0  0  0  0  0
  -20.7040  -26.9510   22.6280 C   0  0  0  0  0  2  0  0  0  0  0  0
  -19.6010  -26.6420   21.6100 C   0  0  0  0  0  2  0  0  0  0  0  0
  -18.2200  -26.7920   22.2550 C   0  0  0  0  0  2  0  0  0  0  0  0
  -19.1750  -28.8910   23.3740 C   0  0  0  0  0  0  0  0  0  0  0  0
  -18.9660  -30.1530   23.9700 C   0  0  0  0  0  3  0  0  0  0  0  0
  -17.6650  -30.6620   24.1410 C   0  0  0  0  0  3  0  0  0  0  0  0
  -16.5550  -29.9070   23.7220 C   0  0  0  0  0  3  0  0  0  0  0  0
  -16.7500  -28.6470   23.1270 C   0  0  0  0  0  3  0  0  0  0  0  0
  -25.8830  -32.5610   23.9020 C   0  0  0  0  0  3  0  0  0  0  0  0
  -25.5720  -33.9620   24.2130 N   0  0  0  0  0  0  0  0  0  0  0  0
  -25.9260  -35.0060   23.4510 C   0  0  0  0  0  0  0  0  0  0  0  0
  -26.6160  -34.8890   22.4350 O   0  0  0  0  0  0  0  0  0  0  0  0
  -24.9650  -34.1280   25.0010 H   0  0  0  0  0  0  0  0  0  0  0  0
  -24.2250  -36.8080   23.0280 C   0  0  0  0  0  1  0  0  0  0  0  0
  -25.4330  -36.3990   23.8840 C   0  0  0  0  0  3  0  0  0  0  0  0
  -27.5440  -37.2740   24.7820 C   0  0  0  0  0  1  0  0  0  0  0  0
  -26.4770  -37.4430   23.8000 N   0  0  0  0  0  0  0  0  0  0  0  0
  -26.0740  -38.3680   23.9260 H   0  0  0  0  0  0  0  0  0  0  0  0
  -26.3800  -31.8020   25.1930 C   0  0  1  0  0  0  0  0  0  0  0  0
  -25.2720  -31.5750   26.2470 C   0  0  0  0  0  1  0  0  0  0  0  0
  -26.9690  -30.4210   24.8180 C   0  0  0  0  0  1  0  0  0  0  0  0
  -27.5240  -32.5990   25.8630 C   0  0  0  0  0  1  0  0  0  0  0  0
  1 47  1  0
  1 15  1  0
  1 51  1  0
  2 14  1  0
  3  8  1  0
  4  5  1  0
  4  3  1  0
  6  5  1  0
  6 22  1  0
  6  7  1  0
  8  2  1  0
  8  7  1  0
  9  2  2  0
 10 13  1  0
 11 15  1  0
 11 16  1  0
 12 10  2  0
 12 11  1  0
 13 16  1  0
 14 17  1  0
 14 10  1  0
 18 15  1  0
 19 20  2  0
 20 39  1  0
 21 20  1  0
 21 24  1  0
 22 19  1  0
 22 23  1  0
 23 21  2  0
 24 25  1  0
 25 26  2  0
 27 30  1  0
 27 26  1  0
 28 27  2  0
 29 28  1  0
 29 24  2  0
 30 31  1  0
 31 32  1  0
 32 33  2  0
 34 33  1  0
 34 38  1  0
 35 34  2  0
 36 31  2  0
 36 35  1  0
 37 36  1  0
 39 40  1  0
 40 43  1  0
 40 42  1  0
 41 39  2  0
 44 45  1  0
 44 19  1  0
 46 44  1  0
 48 50  1  0
 50 49  1  0
 50 47  1  0
 52 55  1  0
 52 53  1  0
 52 51  1  0
 54 53  1  0
 56 55  1  0
 57 68  2  0
 58 56  1  0
 58 63  1  0
 59 67  1  0
 59 69  1  0
 60 66  1  0
 60 62  1  0
 61 67  1  0
 62 63  2  0
 62 61  1  0
 64 58  2  0
 65 64  1  0
 65 60  2  0
 66 59  1  0
 67 57  1  0
 69 71  2  0
 70 69  1  0
 72 70  1  0
 73 82  2  0
 73 78  1  0
 74 70  1  0
 74 78  1  0
 75 74  1  0
 76 77  1  0
 76 75  1  0
 77 73  1  0
 78 79  2  0
 79 80  1  0
 81 80  2  0
 82 81  1  0
 83 57  1  0
 83 84  1  0
 83 93  1  0
 84 87  1  0
 85 89  1  0
 85 84  1  0
 86 85  2  0
 89 88  1  0
 91 89  1  0
 91 92  1  0
 91 90  1  0
 93 96  1  1
 93 94  1  0
 95 93  1  0
M  ISO  4   2 100  14 100  55 101  56 101
M  END
>  <TORSDO>  (22) 
F 22

>  <SCORE>  (22) 
-13.486

>  <name>  (22) 
21

>  <ligand_id>  (22) 
21

>  <original_smiles>  (22) 
[H]OC([H])(C([H])([H])Oc1c([H])c([H])c2c(c1[H])C([H])([H])N(C(=O)C([H])(N([H])C(=O)C([H])(N([H])C([H])([H])[H])C([H])([H])[H])C(C([H])([H])[H])(C([H])([H])[H])C([H])([H])[H])C([H])(C(=O)N([H])C1([H])c3c([H])c([H])c([H])c([H])c3C([H])([H])C([H])([H])C1([H])[H])C2([H])[H])C([H])([H])C([H])(N([H])c1nc(N([H])C(=O)N2C([H])([H])C([H])([H])C([H])([H])C([H])(n3nc(-c4c([H])c([H])c(Oc5c([H])c([H])c(F)c([H])c5F)c([H])c4[H])c(C(=O)N([H])[H])c3N([H])[H])C2([H])[H])ns1)C([H])([H])C([H])(C([H])([H])[H])C([H])([H])[H]

>  <smiles>  (22) 
[H]OC([H])(C([H])([H])Oc1c([H])c([H])c2c(c1[H])C([H])([H])N(C(=O)C([H])(N([H])C(=O)C([H])(N([H])C([H])([H])[H])C([H])([H])[H])C(C([H])([H])[H])(C([H])([H])[H])C([H])([H])[H])C([H])(C(=O)N([H])C1([H])c3c([H])c([H])c([H])c([H])c3C([H])([H])C([H])([H])C1([H])[H])C2([H])[H])C([H])([H])C([H])(N([H])c1nc(N([H])C(=O)N2C([H])([H])C([H])([H])C([H])([H])C([H])(n3nc(-c4c([H])c([H])c(Oc5c([H])c([H])c(F)c([H])c5F)c([H])c4[H])c(C(=O)N([H])[H])c3N([H])[H])C2([H])[H])ns1)C([H])([H])C([H])(C([H])([H])[H])C([H])([H])[H]

$$$$
22:0:0
     RDKit          3D

 93101  0  0  1  0  0  0  0  0999 V2000
  -29.3050  -18.8030   21.5700 C   0  0  0  0  0  3  0  0  0  0  0  0
  -30.6620  -20.2370   19.7330 C   0  0  0  0  0  3  0  0  0  0  0  0
  -30.3630  -18.2140   20.8330 C   0  0  0  0  0  0  0  0  0  0  0  0
  -29.6350  -20.8390   20.5120 C   0  0  0  0  0  0  0  0  0  0  0  0
  -31.0280  -18.9350   19.8920 N   0  0  0  0  0  0  0  0  0  0  0  0
  -28.9400  -20.1060   21.4130 N   0  0  0  0  0  0  0  0  0  0  0  0
  -29.2700  -22.1980   20.4380 N   0  0  0  0  0  0  0  0  0  0  0  0
  -28.6210  -22.5230   21.1490 H   0  0  0  0  0  0  0  0  0  0  0  0
  -30.9580  -16.8460   21.2210 C   0  0  0  0  0  2  0  0  0  0  0  0
  -30.9050  -14.6110   20.0780 C   0  0  0  0  0  0  0  0  0  0  0  0
  -30.5180  -12.4700   18.9000 C   0  0  0  0  0  2  0  0  0  0  0  0
  -29.5170  -12.6780   17.7470 C   0  0  0  0  0  2  0  0  0  0  0  0
  -28.0720  -12.5260   18.2590 C   0  0  0  0  0  2  0  0  0  0  0  0
  -27.8000  -13.3730   19.5310 C   0  0  0  0  0  3  0  0  0  0  0  0
  -28.9060  -13.1510   20.5860 C   0  0  0  0  0  2  0  0  0  0  0  0
  -30.1990  -13.4530   19.9490 N   0  0  0  0  0  0  0  0  0  0  0  0
  -32.0060  -14.7760   19.5470 O   0  0  0  0  0  0  0  0  0  0  0  0
  -30.2970  -15.6110   20.7500 N   0  0  0  0  0  0  0  0  0  0  0  0
  -29.3670  -15.4270   21.0930 H   0  0  0  0  0  0  0  0  0  0  0  0
  -25.4530  -13.9960   20.3820 C   0  0  0  0  0  0  0  0  0  0  0  0
  -24.3970  -13.2300   20.7960 C   0  0  0  0  0  0  0  0  0  0  0  0
  -24.8380  -11.8730   20.7200 C   0  0  0  0  0  0  0  0  0  0  0  0
  -26.4720  -13.1060   20.0790 N   0  0  0  0  0  0  0  0  0  0  0  0
  -26.1090  -11.8240   20.3420 N   0  0  0  0  0  0  0  0  0  0  0  0
  -24.1080  -10.6170   20.9290 C   0  0  0  0  0  0  0  0  0  0  0  0
  -24.5490   -9.6540   21.8640 C   0  0  0  0  0  3  0  0  0  0  0  0
  -23.8210   -8.4590   22.0570 C   0  0  0  0  0  3  0  0  0  0  0  0
  -22.6380   -8.2220   21.3160 C   0  0  0  0  0  0  0  0  0  0  0  0
  -22.2160   -9.1740   20.3700 C   0  0  0  0  0  3  0  0  0  0  0  0
  -22.9460  -10.3580   20.1760 C   0  0  0  0  0  3  0  0  0  0  0  0
  -21.8780   -7.0830   21.4220 O   0  0  0  0  0  0  0  0  0  0  0  0
  -21.8010   -6.3740   22.5940 C   0  0  0  0  0  0  0  0  0  0  0  0
  -21.3020   -6.9530   23.7820 C   0  0  0  0  0  3  0  0  0  0  0  0
  -21.1750   -6.1690   24.9460 C   0  0  0  0  0  3  0  0  0  0  0  0
  -21.5360   -4.8090   24.9240 C   0  0  0  0  0  0  0  0  0  0  0  0
  -22.0270   -4.2300   23.7410 C   0  0  0  0  0  3  0  0  0  0  0  0
  -22.1560   -5.0110   22.5780 C   0  0  0  0  0  0  0  0  0  0  0  0
  -22.6110   -4.4430   21.4360 F   0  0  0  0  0  0  0  0  0  0  0  0
  -21.4050   -4.0540   26.0400 F   0  0  0  0  0  0  0  0  0  0  0  0
  -23.0230  -13.7200   21.1500 C   0  0  0  0  0  0  0  0  0  0  0  0
  -22.3330  -13.0210   22.0460 N   0  0  0  0  0  0  0  0  0  0  0  0
  -22.5680  -14.7540   20.6620 O   0  0  0  0  0  0  0  0  0  0  0  0
  -22.7130  -12.1840   22.4610 H   0  0  0  0  0  0  0  0  0  0  0  0
  -21.4140  -13.3310   22.3250 H   0  0  0  0  0  0  0  0  0  0  0  0
  -25.6260  -15.3660   20.2160 N   0  0  0  0  0  0  0  0  0  0  0  0
  -24.8660  -16.0230   20.3590 H   0  0  0  0  0  0  0  0  0  0  0  0
  -26.4510  -15.7960   19.8170 H   0  0  0  0  0  0  0  0  0  0  0  0
  -30.2510  -23.2090   20.0240 C   0  0  0  0  0  2  0  0  0  0  0  0
  -29.9110  -24.6480   20.5210 C   0  0  0  0  0  3  0  0  0  0  0  0
  -29.6810  -24.5430   21.9210 O   0  0  0  0  0  0  0  0  0  0  0  0
  -30.3660  -23.9860   22.2790 H   0  0  0  0  0  0  0  0  0  0  0  0
  -28.6990  -25.3450   19.8370 C   0  0  0  0  0  2  0  0  0  0  0  0
  -28.7460  -26.7820   19.9810 O   0  0  0  0  0  0  0  0  0  0  0  0
  -24.7370  -31.7190   23.1630 C   0  0  0  0  0  0  0  0  0  0  0  0
  -27.5500  -27.4800   19.9470 C   0  0  0  0  0  0  0  0  0  0  0  0
  -23.5910  -30.3420   21.4600 C   0  0  0  0  0  3  0  0  0  0  0  0
  -25.1050  -28.9170   19.9800 C   0  0  0  0  0  0  0  0  0  0  0  0
  -26.1030  -30.7950   21.2920 C   0  0  0  0  0  2  0  0  0  0  0  0
  -26.2410  -29.4540   20.5990 C   0  0  0  0  0  0  0  0  0  0  0  0
  -27.4650  -28.7450   20.5750 C   0  0  0  0  0  3  0  0  0  0  0  0
  -26.3960  -26.9660   19.3090 C   0  0  0  0  0  3  0  0  0  0  0  0
  -25.1790  -27.6740   19.3290 C   0  0  0  0  0  3  0  0  0  0  0  0
  -23.8320  -29.7280   20.0530 C   0  0  0  0  0  2  0  0  0  0  0  0
  -24.8280  -30.9650   22.0320 N   0  0  0  0  0  0  0  0  0  0  0  0
  -23.6420  -31.9320   23.7040 O   0  0  0  0  0  0  0  0  0  0  0  0
  -22.9700  -29.2610   22.3730 C   0  0  0  0  0  0  0  0  0  0  0  0
  -21.6530  -29.0390   22.2290 N   0  0  0  0  0  0  0  0  0  0  0  0
  -23.6690  -28.6270   23.1680 O   0  0  0  0  0  0  0  0  0  0  0  0
  -21.1500  -29.6050   21.5600 H   0  0  0  0  0  0  0  0  0  0  0  0
  -18.3140  -27.7320   22.6690 C   0  0  0  0  0  0  0  0  0  0  0  0
  -20.8640  -28.0450   22.9530 C   0  0  0  0  0  3  0  0  0  0  0  0
  -21.0040  -26.6460   22.3100 C   0  0  0  0  0  2  0  0  0  0  0  0
  -19.9090  -26.3430   21.2820 C   0  0  0  0  0  2  0  0  0  0  0  0
  -18.5250  -26.4210   21.9310 C   0  0  0  0  0  2  0  0  0  0  0  0
  -19.4110  -28.5030   23.1340 C   0  0  0  0  0  0  0  0  0  0  0  0
  -19.1590  -29.7320   23.7810 C   0  0  0  0  0  3  0  0  0  0  0  0
  -17.8420  -30.1900   23.9700 C   0  0  0  0  0  3  0  0  0  0  0  0
  -16.7580  -29.4150   23.5200 C   0  0  0  0  0  3  0  0  0  0  0  0
  -16.9950  -28.1880   22.8760 C   0  0  0  0  0  3  0  0  0  0  0  0
  -25.9960  -32.3670   23.8180 C   0  0  0  0  0  3  0  0  0  0  0  0
  -25.6510  -33.7520   24.1630 N   0  0  0  0  0  0  0  0  0  0  0  0
  -25.9650  -34.8220   23.4200 C   0  0  0  0  0  0  0  0  0  0  0  0
  -26.6450  -34.7470   22.3930 O   0  0  0  0  0  0  0  0  0  0  0  0
  -25.0460  -33.8830   24.9620 H   0  0  0  0  0  0  0  0  0  0  0  0
  -24.1920  -36.5710   23.0730 C   0  0  0  0  0  1  0  0  0  0  0  0
  -25.4380  -36.1920   23.8890 C   0  0  0  0  0  3  0  0  0  0  0  0
  -27.5350  -37.1300   24.7550 C   0  0  0  0  0  1  0  0  0  0  0  0
  -26.4450  -37.2720   23.7940 N   0  0  0  0  0  0  0  0  0  0  0  0
  -26.0130  -38.1810   23.9360 H   0  0  0  0  0  0  0  0  0  0  0  0
  -26.5100  -31.5860   25.0880 C   0  0  1  0  0  0  0  0  0  0  0  0
  -25.4010  -31.2990   26.1300 C   0  0  0  0  0  1  0  0  0  0  0  0
  -27.1350  -30.2320   24.6800 C   0  0  0  0  0  1  0  0  0  0  0  0
  -27.6280  -32.3940   25.7860 C   0  0  0  0  0  1  0  0  0  0  0  0
  2  5  2  0
  2  4  1  0
  3  9  1  0
  3  1  2  0
  4  6  2  0
  5  3  1  0
  6  1  1  0
  7  4  1  0
  7  8  1  0
 10 18  1  0
 11 16  1  0
 12 13  1  0
 12 11  1  0
 14 13  1  0
 14 23  1  0
 14 15  1  0
 16 10  1  0
 16 15  1  0
 17 10  2  0
 18 19  1  0
 18  9  1  0
 20 21  2  0
 21 40  1  0
 22 21  1  0
 22 25  1  0
 23 24  1  0
 23 20  1  0
 24 22  2  0
 25 26  1  0
 26 27  2  0
 28 31  1  0
 28 27  1  0
 29 28  2  0
 30 29  1  0
 30 25  2  0
 31 32  1  0
 32 33  1  0
 33 34  2  0
 35 34  1  0
 35 39  1  0
 36 35  2  0
 37 32  2  0
 37 36  1  0
 38 37  1  0
 40 41  1  0
 41 44  1  0
 41 43  1  0
 42 40  2  0
 45 46  1  0
 45 20  1  0
 47 45  1  0
 48  7  1  0
 48 49  1  0
 49 52  1  0
 49 50  1  0
 50 51  1  0
 52 53  1  0
 54 65  2  0
 55 53  1  0
 55 60  1  0
 56 64  1  0
 56 66  1  0
 57 63  1  0
 57 59  1  0
 58 64  1  0
 59 58  1  0
 60 59  2  0
 61 62  1  0
 61 55  2  0
 62 57  2  0
 63 56  1  0
 64 54  1  0
 66 68  2  0
 67 66  1  0
 69 67  1  0
 70 79  2  0
 70 75  1  0
 71 67  1  0
 71 75  1  0
 72 71  1  0
 73 74  1  0
 73 72  1  0
 74 70  1  0
 75 76  2  0
 76 77  1  0
 78 77  2  0
 79 78  1  0
 80 54  1  0
 80 81  1  0
 80 90  1  0
 81 84  1  0
 82 86  1  0
 82 81  1  0
 83 82  2  0
 86 85  1  0
 88 86  1  0
 88 89  1  0
 88 87  1  0
 90 93  1  1
 90 91  1  0
 92 90  1  0
M  ISO  4  10 100  18 100  52 101  53 101
M  END
>  <TORSDO>  (23) 
F 21

>  <SCORE>  (23) 
-12.233

>  <name>  (23) 
22

>  <ligand_id>  (23) 
22

>  <original_smiles>  (23) 
[H]OC([H])(C([H])([H])Oc1c([H])c([H])c2c(c1[H])C([H])([H])N(C(=O)C([H])(N([H])C(=O)C([H])(N([H])C([H])([H])[H])C([H])([H])[H])C(C([H])([H])[H])(C([H])([H])[H])C([H])([H])[H])C([H])(C(=O)N([H])C1([H])c3c([H])c([H])c([H])c([H])c3C([H])([H])C([H])([H])C1([H])[H])C2([H])[H])C([H])([H])N([H])c1nc([H])c(C([H])([H])N([H])C(=O)N2C([H])([H])C([H])([H])C([H])([H])C([H])(n3nc(-c4c([H])c([H])c(Oc5c([H])c([H])c(F)c([H])c5F)c([H])c4[H])c(C(=O)N([H])[H])c3N([H])[H])C2([H])[H])nc1[H]

>  <smiles>  (23) 
[H]OC([H])(C([H])([H])Oc1c([H])c([H])c2c(c1[H])C([H])([H])N(C(=O)C([H])(N([H])C(=O)C([H])(N([H])C([H])([H])[H])C([H])([H])[H])C(C([H])([H])[H])(C([H])([H])[H])C([H])([H])[H])C([H])(C(=O)N([H])C1([H])c3c([H])c([H])c([H])c([H])c3C([H])([H])C([H])([H])C1([H])[H])C2([H])[H])C([H])([H])N([H])c1nc([H])c(C([H])([H])N([H])C(=O)N2C([H])([H])C([H])([H])C([H])([H])C([H])(n3nc(-c4c([H])c([H])c(Oc5c([H])c([H])c(F)c([H])c5F)c([H])c4[H])c(C(=O)N([H])[H])c3N([H])[H])C2([H])[H])nc1[H]

$$$$
23:0:0
     RDKit          3D

102110  0  0  1  0  0  0  0  0999 V2000
  -30.4350  -20.5130   19.9670 C   0  0  0  0  0  3  0  0  0  0  0  0
  -30.6120  -14.5550   20.4820 C   0  0  0  0  0  0  0  0  0  0  0  0
  -30.3490  -12.3700   19.3500 C   0  0  0  0  0  2  0  0  0  0  0  0
  -29.4090  -12.5370   18.1380 C   0  0  0  0  0  2  0  0  0  0  0  0
  -27.9310  -12.3980   18.5620 C   0  0  0  0  0  2  0  0  0  0  0  0
  -27.5810  -13.2440   19.8160 C   0  0  0  0  0  3  0  0  0  0  0  0
  -28.6350  -13.0470   20.9300 C   0  0  0  0  0  2  0  0  0  0  0  0
  -29.9530  -13.3650   20.3580 N   0  0  0  0  0  0  0  0  0  0  0  0
  -31.7760  -14.7080   20.0990 O   0  0  0  0  0  0  0  0  0  0  0  0
  -30.4370  -19.2450   20.8420 C   0  0  0  0  0  0  0  0  0  0  0  0
  -30.9720  -19.0960   22.1090 C   0  0  0  0  0  0  0  0  0  0  0  0
  -30.2540  -16.9460   21.1250 C   0  0  0  0  0  0  0  0  0  0  0  0
  -30.0150  -17.9950   20.3120 N   0  0  0  0  0  0  0  0  0  0  0  0
  -29.8370  -15.6080   20.8320 N   0  0  0  0  0  0  0  0  0  0  0  0
  -30.9530  -17.4310   22.6590 S   0  0  0  0  0  0  0  0  0  0  0  0
  -28.8730  -15.3940   21.0300 H   0  0  0  0  0  0  0  0  0  0  0  0
  -25.1820  -13.8600   20.5080 C   0  0  0  0  0  0  0  0  0  0  0  0
  -24.1090  -13.0940   20.8720 C   0  0  0  0  0  0  0  0  0  0  0  0
  -24.5650  -11.7410   20.8530 C   0  0  0  0  0  0  0  0  0  0  0  0
  -26.2250  -12.9740   20.2880 N   0  0  0  0  0  0  0  0  0  0  0  0
  -25.8580  -11.6940   20.5570 N   0  0  0  0  0  0  0  0  0  0  0  0
  -23.8330  -10.4830   21.0480 C   0  0  0  0  0  0  0  0  0  0  0  0
  -24.2580   -9.5190   21.9870 C   0  0  0  0  0  3  0  0  0  0  0  0
  -23.5290   -8.3240   22.1690 C   0  0  0  0  0  3  0  0  0  0  0  0
  -22.3600   -8.0840   21.4100 C   0  0  0  0  0  0  0  0  0  0  0  0
  -21.9530   -9.0360   20.4580 C   0  0  0  0  0  3  0  0  0  0  0  0
  -22.6840  -10.2230   20.2750 C   0  0  0  0  0  3  0  0  0  0  0  0
  -21.6040   -6.9400   21.4980 O   0  0  0  0  0  0  0  0  0  0  0  0
  -21.5600   -6.1950   22.6470 C   0  0  0  0  0  0  0  0  0  0  0  0
  -21.1430   -6.7470   23.8780 C   0  0  0  0  0  3  0  0  0  0  0  0
  -21.0450   -5.9290   25.0210 C   0  0  0  0  0  3  0  0  0  0  0  0
  -21.3550   -4.5580   24.9350 C   0  0  0  0  0  0  0  0  0  0  0  0
  -21.7630   -4.0040   23.7090 C   0  0  0  0  0  3  0  0  0  0  0  0
  -21.8630   -4.8210   22.5680 C   0  0  0  0  0  0  0  0  0  0  0  0
  -22.2390   -4.2780   21.3850 F   0  0  0  0  0  0  0  0  0  0  0  0
  -21.2530   -3.7690   26.0300 F   0  0  0  0  0  0  0  0  0  0  0  0
  -22.7090  -13.5780   21.1270 C   0  0  0  0  0  0  0  0  0  0  0  0
  -21.9690  -12.8870   21.9870 N   0  0  0  0  0  0  0  0  0  0  0  0
  -22.2800  -14.6030   20.5980 O   0  0  0  0  0  0  0  0  0  0  0  0
  -22.3250  -12.0570   22.4370 H   0  0  0  0  0  0  0  0  0  0  0  0
  -21.0310  -13.1950   22.2000 H   0  0  0  0  0  0  0  0  0  0  0  0
  -25.3500  -15.2300   20.3210 N   0  0  0  0  0  0  0  0  0  0  0  0
  -24.5840  -15.8840   20.4370 H   0  0  0  0  0  0  0  0  0  0  0  0
  -26.1890  -15.6670   19.9570 H   0  0  0  0  0  0  0  0  0  0  0  0
  -31.5490  -20.0560   22.9410 N   0  0  0  0  0  0  0  0  0  0  0  0
  -32.2840  -20.6320   22.5400 H   0  0  0  0  0  0  0  0  0  0  0  0
  -31.9080  -19.6700   23.8110 H   0  0  0  0  0  0  0  0  0  0  0  0
  -30.1280  -21.7840   20.7060 N   0  0  0  0  0  4  0  0  0  0  0  0
  -29.8410  -21.5510   21.6440 H   0  0  0  0  0  0  0  0  0  0  0  0
  -30.9930  -22.2910   20.7850 H   0  0  0  0  0  0  0  0  0  0  0  0
  -29.1350  -22.7280   20.0910 C   0  0  0  0  0  2  0  0  0  0  0  0
  -29.3730  -24.2460   20.4350 C   0  0  0  0  0  3  0  0  0  0  0  0
  -30.6680  -24.5720   19.9590 O   0  0  0  0  0  0  0  0  0  0  0  0
  -30.7690  -25.5160   20.0510 H   0  0  0  0  0  0  0  0  0  0  0  0
  -28.3260  -25.2160   19.7750 C   0  0  0  0  0  2  0  0  0  0  0  0
  -28.3640  -26.6110   20.2010 O   0  0  0  0  0  0  0  0  0  0  0  0
  -24.5790  -31.8740   23.2350 C   0  0  0  0  0  0  0  0  0  0  0  0
  -27.1970  -27.3770   20.1480 C   0  0  0  0  0  0  0  0  0  0  0  0
  -23.3580  -30.4720   21.6020 C   0  0  0  0  0  3  0  0  0  0  0  0
  -24.8020  -28.9280   20.1700 C   0  0  0  0  0  0  0  0  0  0  0  0
  -25.8870  -30.8170   21.3910 C   0  0  0  0  0  2  0  0  0  0  0  0
  -25.9690  -29.4390   20.7510 C   0  0  0  0  0  0  0  0  0  0  0  0
  -27.1640  -28.6700   20.7400 C   0  0  0  0  0  3  0  0  0  0  0  0
  -26.0070  -26.9100   19.5360 C   0  0  0  0  0  3  0  0  0  0  0  0
  -24.8180  -27.6660   19.5580 C   0  0  0  0  0  3  0  0  0  0  0  0
  -23.5570  -29.7870   20.2230 C   0  0  0  0  0  2  0  0  0  0  0  0
  -24.6260  -31.0690   22.1350 N   0  0  0  0  0  0  0  0  0  0  0  0
  -23.5010  -32.1510   23.7810 O   0  0  0  0  0  0  0  0  0  0  0  0
  -22.7100  -29.4570   22.5730 C   0  0  0  0  0  0  0  0  0  0  0  0
  -21.3850  -29.2710   22.4510 N   0  0  0  0  0  0  0  0  0  0  0  0
  -23.3960  -28.8400   23.3900 O   0  0  0  0  0  0  0  0  0  0  0  0
  -20.8920  -29.8220   21.7630 H   0  0  0  0  0  0  0  0  0  0  0  0
  -18.0150  -28.0620   22.9510 C   0  0  0  0  0  0  0  0  0  0  0  0
  -20.5720  -28.3360   23.2280 C   0  0  0  0  0  3  0  0  0  0  0  0
  -20.6820  -26.9020   22.6620 C   0  0  0  0  0  2  0  0  0  0  0  0
  -19.5850  -26.5660   21.6470 C   0  0  0  0  0  2  0  0  0  0  0  0
  -18.2010  -26.7080   22.2880 C   0  0  0  0  0  2  0  0  0  0  0  0
  -19.1290  -28.8330   23.3790 C   0  0  0  0  0  0  0  0  0  0  0  0
  -18.9020  -30.1010   23.9590 C   0  0  0  0  0  3  0  0  0  0  0  0
  -17.5950  -30.5970   24.1150 C   0  0  0  0  0  3  0  0  0  0  0  0
  -16.4960  -29.8220   23.7070 C   0  0  0  0  0  3  0  0  0  0  0  0
  -16.7070  -28.5570   23.1320 C   0  0  0  0  0  3  0  0  0  0  0  0
  -25.8710  -32.5030   23.8420 C   0  0  0  0  0  3  0  0  0  0  0  0
  -26.4040  -31.7290   25.1100 C   0  0  1  0  0  0  0  0  0  0  0  0
  -25.3210  -31.4920   26.1880 C   0  0  0  0  0  1  0  0  0  0  0  0
  -26.9800  -30.3520   24.7080 C   0  0  0  0  0  1  0  0  0  0  0  0
  -27.5610  -32.5210   25.7650 C   0  0  0  0  0  1  0  0  0  0  0  0
  -25.5670  -33.9010   24.1780 N   0  0  0  0  0  0  0  0  0  0  0  0
  -25.9000  -34.9550   23.4220 C   0  0  0  0  0  0  0  0  0  0  0  0
  -26.5660  -34.8540   22.3880 O   0  0  0  0  0  0  0  0  0  0  0  0
  -24.9710  -34.0560   24.9770 H   0  0  0  0  0  0  0  0  0  0  0  0
  -24.1770  -36.7550   23.0800 C   0  0  0  0  0  1  0  0  0  0  0  0
  -25.4170  -36.3410   23.8880 C   0  0  0  0  0  3  0  0  0  0  0  0
  -27.5540  -37.2150   24.7270 C   0  0  0  0  0  1  0  0  0  0  0  0
  -26.4530  -37.3920   23.7830 N   0  0  0  0  0  0  0  0  0  0  0  0
  -26.0480  -38.3110   23.9380 H   0  0  0  0  0  0  0  0  0  0  0  0
  -31.8330  -20.6030   19.3030 C   0  0  0  0  0  2  0  0  0  0  0  0
  -32.0140  -21.6270   18.1610 C   0  0  0  0  0  2  0  0  0  0  0  0
  -34.1040  -22.8410   18.9290 C   0  0  0  0  0  1  0  0  0  0  0  0
  -33.5340  -22.7380   16.4990 C   0  0  0  0  0  1  0  0  0  0  0  0
  -34.3540  -20.6850   17.6550 C   0  0  0  0  0  1  0  0  0  0  0  0
  -33.4940  -21.9560   17.8230 C   0  0  2  0  0  0  0  0  0  0  0  0
  1 97  1  0
  1 48  1  0
  1 10  1  0
  2 14  1  0
  3  8  1  0
  4  5  1  0
  4  3  1  0
  6  5  1  0
  6 20  1  0
  6  7  1  0
  8  2  1  0
  8  7  1  0
  9  2  2  0
 10 11  2  0
 11 15  1  0
 11 45  1  0
 12 15  1  0
 13 10  1  0
 13 12  2  0
 14 16  1  0
 14 12  1  0
 17 18  2  0
 18 37  1  0
 19 18  1  0
 19 22  1  0
 20 17  1  0
 20 21  1  0
 21 19  2  0
 22 23  1  0
 23 24  2  0
 25 28  1  0
 25 24  1  0
 26 25  2  0
 27 26  1  0
 27 22  2  0
 28 29  1  0
 29 30  1  0
 30 31  2  0
 32 31  1  0
 32 36  1  0
 33 32  2  0
 34 29  2  0
 34 33  1  0
 35 34  1  0
 37 38  1  0
 38 41  1  0
 38 40  1  0
 39 37  2  0
 42 43  1  0
 42 17  1  0
 44 42  1  0
 45 47  1  0
 46 45  1  0
 48 50  1  0
 48 49  1  0
 51 52  1  0
 51 48  1  0
 52 55  1  0
 53 54  1  0
 53 52  1  0
 55 56  1  0
 57 68  2  0
 58 56  1  0
 58 63  1  0
 59 67  1  0
 59 69  1  0
 60 66  1  0
 60 62  1  0
 61 67  1  0
 62 61  1  0
 63 62  2  0
 64 65  1  0
 64 58  2  0
 65 60  2  0
 66 59  1  0
 67 57  1  0
 69 71  2  0
 70 69  1  0
 72 70  1  0
 73 82  2  0
 73 78  1  0
 74 70  1  0
 74 78  1  0
 75 74  1  0
 76 77  1  0
 76 75  1  0
 77 73  1  0
 78 79  2  0
 79 80  1  0
 81 80  2  0
 82 81  1  0
 83 57  1  0
 83 88  1  0
 83 84  1  0
 84 87  1  1
 84 85  1  0
 86 84  1  0
 88 91  1  0
 89 93  1  0
 89 88  1  0
 90 89  2  0
 93 92  1  0
 95 93  1  0
 95 96  1  0
 95 94  1  0
 98 97  1  0
102100  1  6
101102  1  0
102 98  1  0
102 99  1  0
M  ISO  4   2 100  14 100  55 101  56 101
M  END
>  <TORSDO>  (24) 
F 25

>  <SCORE>  (24) 
-12.421

>  <name>  (24) 
23

>  <ligand_id>  (24) 
23

>  <original_smiles>  (24) 
[H]OC([H])(C([H])([H])Oc1c([H])c([H])c2c(c1[H])C([H])([H])N(C(=O)C([H])(N([H])C(=O)C([H])(N([H])C([H])([H])[H])C([H])([H])[H])C(C([H])([H])[H])(C([H])([H])[H])C([H])([H])[H])C([H])(C(=O)N([H])C1([H])c3c([H])c([H])c([H])c([H])c3C([H])([H])C([H])([H])C1([H])[H])C2([H])[H])C([H])([H])[N+]([H])([H])C([H])(c1nc(N([H])C(=O)N2C([H])([H])C([H])([H])C([H])([H])C([H])(n3nc(-c4c([H])c([H])c(Oc5c([H])c([H])c(F)c([H])c5F)c([H])c4[H])c(C(=O)N([H])[H])c3N([H])[H])C2([H])[H])sc1N([H])[H])C([H])([H])C([H])([H])C(C([H])([H])[H])(C([H])([H])[H])C([H])([H])[H]

>  <smiles>  (24) 
[H]OC([H])(C([H])([H])Oc1c([H])c([H])c2c(c1[H])C([H])([H])N(C(=O)C([H])(N([H])C(=O)C([H])(N([H])C([H])([H])[H])C([H])([H])[H])C(C([H])([H])[H])(C([H])([H])[H])C([H])([H])[H])C([H])(C(=O)N([H])C1([H])c3c([H])c([H])c([H])c([H])c3C([H])([H])C([H])([H])C1([H])[H])C2([H])[H])C([H])([H])[N+]([H])([H])C([H])(c1nc(N([H])C(=O)N2C([H])([H])C([H])([H])C([H])([H])C([H])(n3nc(-c4c([H])c([H])c(Oc5c([H])c([H])c(F)c([H])c5F)c([H])c4[H])c(C(=O)N([H])[H])c3N([H])[H])C2([H])[H])sc1N([H])[H])C([H])([H])C([H])([H])C(C([H])([H])[H])(C([H])([H])[H])C([H])([H])[H]

$$$$
24:0:0
     RDKit          3D

 92100  0  0  1  0  0  0  0  0999 V2000
  -28.6920  -22.1850   19.9490 C   0  0  0  0  0  2  0  0  0  0  0  0
  -29.2140  -20.9440   20.6610 N   0  0  0  0  0  0  0  0  0  0  0  0
  -28.9140  -20.8810   21.6290 H   0  0  0  0  0  0  0  0  0  0  0  0
  -30.5960  -14.7570   20.3930 C   0  0  0  0  0  0  0  0  0  0  0  0
  -30.3960  -12.4670   19.4250 C   0  0  0  0  0  2  0  0  0  0  0  0
  -29.4780  -12.5410   18.1840 C   0  0  0  0  0  2  0  0  0  0  0  0
  -28.0030  -12.3730   18.5950 C   0  0  0  0  0  2  0  0  0  0  0  0
  -27.6140  -13.2650   19.8050 C   0  0  0  0  0  3  0  0  0  0  0  0
  -28.6590  -13.1890   20.9400 C   0  0  0  0  0  2  0  0  0  0  0  0
  -29.9650  -13.5310   20.3640 N   0  0  0  0  0  0  0  0  0  0  0  0
  -31.7860  -14.8230   20.0660 O   0  0  0  0  0  0  0  0  0  0  0  0
  -30.6760  -18.6130   18.1280 C   0  0  0  0  0  3  0  0  0  0  0  0
  -30.5640  -17.3770   18.7850 C   0  0  0  0  0  3  0  0  0  0  0  0
  -30.2050  -19.7820   18.7470 C   0  0  0  0  0  3  0  0  0  0  0  0
  -29.9900  -17.2800   20.0720 C   0  0  0  0  0  0  0  0  0  0  0  0
  -29.6280  -19.7130   20.0240 C   0  0  0  0  0  0  0  0  0  0  0  0
  -29.5270  -18.4710   20.6550 N   0  0  0  0  0  0  0  0  0  0  0  0
  -29.8470  -15.9080   20.6310 N   0  0  0  0  0  0  0  0  0  0  0  0
  -28.9760  -15.7450   21.1090 H   0  0  0  0  0  0  0  0  0  0  0  0
  -25.2140  -13.8490   20.4980 C   0  0  0  0  0  0  0  0  0  0  0  0
  -24.1480  -13.0730   20.8640 C   0  0  0  0  0  0  0  0  0  0  0  0
  -24.6180  -11.7240   20.8510 C   0  0  0  0  0  0  0  0  0  0  0  0
  -26.2650  -12.9730   20.2820 N   0  0  0  0  0  0  0  0  0  0  0  0
  -25.9120  -11.6910   20.5570 N   0  0  0  0  0  0  0  0  0  0  0  0
  -23.8940  -10.4610   21.0440 C   0  0  0  0  0  0  0  0  0  0  0  0
  -24.3290   -9.4950   21.9790 C   0  0  0  0  0  3  0  0  0  0  0  0
  -23.6050   -8.2970   22.1610 C   0  0  0  0  0  3  0  0  0  0  0  0
  -22.4320   -8.0550   21.4070 C   0  0  0  0  0  0  0  0  0  0  0  0
  -22.0150   -9.0100   20.4630 C   0  0  0  0  0  3  0  0  0  0  0  0
  -22.7400  -10.1990   20.2780 C   0  0  0  0  0  3  0  0  0  0  0  0
  -21.6780   -6.9100   21.4990 O   0  0  0  0  0  0  0  0  0  0  0  0
  -21.6440   -6.1610   22.6480 C   0  0  0  0  0  0  0  0  0  0  0  0
  -21.2400   -6.7100   23.8840 C   0  0  0  0  0  3  0  0  0  0  0  0
  -21.1520   -5.8880   25.0240 C   0  0  0  0  0  3  0  0  0  0  0  0
  -21.4580   -4.5160   24.9300 C   0  0  0  0  0  0  0  0  0  0  0  0
  -21.8560   -3.9670   23.6990 C   0  0  0  0  0  3  0  0  0  0  0  0
  -21.9450   -4.7860   22.5610 C   0  0  0  0  0  0  0  0  0  0  0  0
  -22.3080   -4.2470   21.3720 F   0  0  0  0  0  0  0  0  0  0  0  0
  -21.3670   -3.7250   26.0250 F   0  0  0  0  0  0  0  0  0  0  0  0
  -22.7450  -13.5470   21.1120 C   0  0  0  0  0  0  0  0  0  0  0  0
  -22.0090  -12.8580   21.9770 N   0  0  0  0  0  0  0  0  0  0  0  0
  -22.3100  -14.5650   20.5750 O   0  0  0  0  0  0  0  0  0  0  0  0
  -22.3740  -12.0370   22.4350 H   0  0  0  0  0  0  0  0  0  0  0  0
  -21.0680  -13.1590   22.1850 H   0  0  0  0  0  0  0  0  0  0  0  0
  -25.3740  -15.2190   20.3090 N   0  0  0  0  0  0  0  0  0  0  0  0
  -24.5990  -15.8660   20.4050 H   0  0  0  0  0  0  0  0  0  0  0  0
  -26.2170  -15.6600   19.9660 H   0  0  0  0  0  0  0  0  0  0  0  0
  -28.8890  -23.6570   20.6070 C   0  0  0  0  0  3  0  0  0  0  0  0
  -28.5310  -23.4990   21.9710 O   0  0  0  0  0  0  0  0  0  0  0  0
  -28.6990  -24.3320   22.4010 H   0  0  0  0  0  0  0  0  0  0  0  0
  -28.0000  -24.8850   20.0170 C   0  0  0  0  0  2  0  0  0  0  0  0
  -28.2580  -26.3500   20.2770 O   0  0  0  0  0  0  0  0  0  0  0  0
  -24.6150  -31.8890   23.2450 C   0  0  0  0  0  0  0  0  0  0  0  0
  -27.1770  -27.2660   20.1890 C   0  0  0  0  0  0  0  0  0  0  0  0
  -23.3980  -30.4940   21.6150 C   0  0  0  0  0  3  0  0  0  0  0  0
  -24.8340  -28.9360   20.1760 C   0  0  0  0  0  0  0  0  0  0  0  0
  -25.9430  -30.7840   21.4250 C   0  0  0  0  0  2  0  0  0  0  0  0
  -26.0110  -29.4020   20.7760 C   0  0  0  0  0  0  0  0  0  0  0  0
  -27.1840  -28.5780   20.7760 C   0  0  0  0  0  3  0  0  0  0  0  0
  -25.9820  -26.8860   19.5350 C   0  0  0  0  0  3  0  0  0  0  0  0
  -24.8270  -27.6860   19.5420 C   0  0  0  0  0  3  0  0  0  0  0  0
  -23.6030  -29.8200   20.2330 C   0  0  0  0  0  2  0  0  0  0  0  0
  -24.6710  -31.0740   22.1500 N   0  0  0  0  0  0  0  0  0  0  0  0
  -23.5350  -32.1730   23.7830 O   0  0  0  0  0  0  0  0  0  0  0  0
  -22.7340  -29.4820   22.5790 C   0  0  0  0  0  0  0  0  0  0  0  0
  -21.4070  -29.3060   22.4570 N   0  0  0  0  0  0  0  0  0  0  0  0
  -23.4130  -28.8560   23.3980 O   0  0  0  0  0  0  0  0  0  0  0  0
  -20.9170  -29.8640   21.7710 H   0  0  0  0  0  0  0  0  0  0  0  0
  -18.0300  -28.1090   22.9660 C   0  0  0  0  0  0  0  0  0  0  0  0
  -20.5880  -28.3750   23.2340 C   0  0  0  0  0  3  0  0  0  0  0  0
  -20.6920  -26.9380   22.6710 C   0  0  0  0  0  2  0  0  0  0  0  0
  -19.5910  -26.6060   21.6580 C   0  0  0  0  0  2  0  0  0  0  0  0
  -18.2090  -26.7550   22.3000 C   0  0  0  0  0  2  0  0  0  0  0  0
  -19.1470  -28.8750   23.3900 C   0  0  0  0  0  0  0  0  0  0  0  0
  -18.9270  -30.1420   23.9750 C   0  0  0  0  0  3  0  0  0  0  0  0
  -17.6210  -30.6420   24.1370 C   0  0  0  0  0  3  0  0  0  0  0  0
  -16.5180  -29.8730   23.7280 C   0  0  0  0  0  3  0  0  0  0  0  0
  -16.7230  -28.6080   23.1480 C   0  0  0  0  0  3  0  0  0  0  0  0
  -25.9030  -32.5190   23.8590 C   0  0  0  0  0  3  0  0  0  0  0  0
  -26.4210  -31.7490   25.1360 C   0  0  1  0  0  0  0  0  0  0  0  0
  -25.3310  -31.5210   26.2110 C   0  0  0  0  0  1  0  0  0  0  0  0
  -26.9950  -30.3680   24.7490 C   0  0  0  0  0  1  0  0  0  0  0  0
  -27.5790  -32.5400   25.7900 C   0  0  0  0  0  1  0  0  0  0  0  0
  -25.5980  -33.9190   24.1880 N   0  0  0  0  0  0  0  0  0  0  0  0
  -25.9270  -34.9700   23.4250 C   0  0  0  0  0  0  0  0  0  0  0  0
  -26.5880  -34.8640   22.3890 O   0  0  0  0  0  0  0  0  0  0  0  0
  -25.0100  -34.0750   24.9940 H   0  0  0  0  0  0  0  0  0  0  0  0
  -24.2000  -36.7690   23.0870 C   0  0  0  0  0  1  0  0  0  0  0  0
  -25.4480  -36.3610   23.8860 C   0  0  0  0  0  3  0  0  0  0  0  0
  -27.5950  -37.2410   24.6920 C   0  0  0  0  0  1  0  0  0  0  0  0
  -26.4830  -37.4110   23.7600 N   0  0  0  0  0  0  0  0  0  0  0  0
  -26.0810  -38.3330   23.9100 H   0  0  0  0  0  0  0  0  0  0  0  0
  1  2  1  0
  2  3  1  0
  4 18  1  0
  5 10  1  0
  6  7  1  0
  6  5  1  0
  8  7  1  0
  8 23  1  0
  8  9  1  0
 10  4  1  0
 10  9  1  0
 11  4  2  0
 12 14  2  0
 12 13  1  0
 13 15  2  0
 14 16  1  0
 15 18  1  0
 15 17  1  0
 16 17  2  0
 16  2  1  0
 18 19  1  0
 20 21  2  0
 21 40  1  0
 22 21  1  0
 22 25  1  0
 23 20  1  0
 23 24  1  0
 24 22  2  0
 25 26  1  0
 26 27  2  0
 28 31  1  0
 28 27  1  0
 29 28  2  0
 30 29  1  0
 30 25  2  0
 31 32  1  0
 32 33  1  0
 33 34  2  0
 35 34  1  0
 35 39  1  0
 36 35  2  0
 37 32  2  0
 37 36  1  0
 38 37  1  0
 40 41  1  0
 41 44  1  0
 41 43  1  0
 42 40  2  0
 45 46  1  0
 45 20  1  0
 47 45  1  0
 48  1  1  0
 48 49  1  0
 49 50  1  0
 51 52  1  0
 51 48  1  0
 53 64  2  0
 54 52  1  0
 54 59  1  0
 55 63  1  0
 55 65  1  0
 56 62  1  0
 56 58  1  0
 57 63  1  0
 58 57  1  0
 59 58  2  0
 60 61  1  0
 60 54  2  0
 61 56  2  0
 62 55  1  0
 63 53  1  0
 65 67  2  0
 66 65  1  0
 68 66  1  0
 69 78  2  0
 69 74  1  0
 70 66  1  0
 70 74  1  0
 71 70  1  0
 72 73  1  0
 72 71  1  0
 73 69  1  0
 74 75  2  0
 75 76  1  0
 77 76  2  0
 78 77  1  0
 79 53  1  0
 79 84  1  0
 79 80  1  0
 80 83  1  1
 80 81  1  0
 82 80  1  0
 84 87  1  0
 85 89  1  0
 85 84  1  0
 86 85  2  0
 89 88  1  0
 91 89  1  0
 91 92  1  0
 91 90  1  0
M  ISO  4   4 100  18 100  51 101  52 101
M  END
>  <TORSDO>  (25) 
F 20

>  <SCORE>  (25) 
-14.127

>  <name>  (25) 
24

>  <ligand_id>  (25) 
24

>  <original_smiles>  (25) 
[H]OC([H])(C([H])([H])Oc1c([H])c([H])c2c(c1[H])C([H])([H])N(C(=O)C([H])(N([H])C(=O)C([H])(N([H])C([H])([H])[H])C([H])([H])[H])C(C([H])([H])[H])(C([H])([H])[H])C([H])([H])[H])C([H])(C(=O)N([H])C1([H])c3c([H])c([H])c([H])c([H])c3C([H])([H])C([H])([H])C1([H])[H])C2([H])[H])C([H])([H])N([H])c1nc(N([H])C(=O)N2C([H])([H])C([H])([H])C([H])([H])C([H])(n3nc(-c4c([H])c([H])c(Oc5c([H])c([H])c(F)c([H])c5F)c([H])c4[H])c(C(=O)N([H])[H])c3N([H])[H])C2([H])[H])c([H])c([H])c1[H]

>  <smiles>  (25) 
[H]OC([H])(C([H])([H])Oc1c([H])c([H])c2c(c1[H])C([H])([H])N(C(=O)C([H])(N([H])C(=O)C([H])(N([H])C([H])([H])[H])C([H])([H])[H])C(C([H])([H])[H])(C([H])([H])[H])C([H])([H])[H])C([H])(C(=O)N([H])C1([H])c3c([H])c([H])c([H])c([H])c3C([H])([H])C([H])([H])C1([H])[H])C2([H])[H])C([H])([H])N([H])c1nc(N([H])C(=O)N2C([H])([H])C([H])([H])C([H])([H])C([H])(n3nc(-c4c([H])c([H])c(Oc5c([H])c([H])c(F)c([H])c5F)c([H])c4[H])c(C(=O)N([H])[H])c3N([H])[H])C2([H])[H])c([H])c([H])c1[H]

$$$$
25:0:0
     RDKit          3D

 92100  0  0  1  0  0  0  0  0999 V2000
  -29.2600  -21.7490   20.9160 C   0  0  0  0  0  2  0  0  0  0  0  0
  -30.6700  -14.4880   20.3390 C   0  0  0  0  0  0  0  0  0  0  0  0
  -30.3590  -12.3640   19.1110 C   0  0  0  0  0  2  0  0  0  0  0  0
  -29.3780  -12.6080   17.9450 C   0  0  0  0  0  2  0  0  0  0  0  0
  -27.9160  -12.4570   18.4090 C   0  0  0  0  0  2  0  0  0  0  0  0
  -27.6210  -13.2510   19.7090 C   0  0  0  0  0  3  0  0  0  0  0  0
  -28.7020  -12.9700   20.7760 C   0  0  0  0  0  2  0  0  0  0  0  0
  -30.0160  -13.3020   20.1920 N   0  0  0  0  0  0  0  0  0  0  0  0
  -31.7390  -14.7400   19.7710 O   0  0  0  0  0  0  0  0  0  0  0  0
  -30.0770  -16.7950   20.9780 C   0  0  0  0  0  0  0  0  0  0  0  0
  -29.6570  -19.1540   20.6460 C   0  0  0  0  0  0  0  0  0  0  0  0
  -30.7410  -17.5590   21.8610 N   0  0  0  0  0  0  0  0  0  0  0  0
  -30.5040  -18.9230   21.6600 N   0  0  0  0  0  0  0  0  0  0  0  0
  -30.0440  -15.3830   21.1220 N   0  0  0  0  0  0  0  0  0  0  0  0
  -29.2010  -20.4250   20.2890 N   0  0  0  0  0  0  0  0  0  0  0  0
  -29.1060  -17.6970   19.8090 S   0  0  0  0  0  0  0  0  0  0  0  0
  -29.2200  -15.0240   21.5730 H   0  0  0  0  0  0  0  0  0  0  0  0
  -28.5850  -20.4280   19.4790 H   0  0  0  0  0  0  0  0  0  0  0  0
  -25.2360  -13.8530   20.4760 C   0  0  0  0  0  0  0  0  0  0  0  0
  -24.1770  -13.0770   20.8660 C   0  0  0  0  0  0  0  0  0  0  0  0
  -24.6390  -11.7260   20.8130 C   0  0  0  0  0  0  0  0  0  0  0  0
  -26.2770  -12.9740   20.2140 N   0  0  0  0  0  0  0  0  0  0  0  0
  -25.9190  -11.6900   20.4680 N   0  0  0  0  0  0  0  0  0  0  0  0
  -23.9170  -10.4630   21.0110 C   0  0  0  0  0  0  0  0  0  0  0  0
  -24.3680   -9.4930   21.9320 C   0  0  0  0  0  3  0  0  0  0  0  0
  -23.6500   -8.2930   22.1190 C   0  0  0  0  0  3  0  0  0  0  0  0
  -22.4650   -8.0540   21.3810 C   0  0  0  0  0  0  0  0  0  0  0  0
  -22.0340   -9.0130   20.4470 C   0  0  0  0  0  3  0  0  0  0  0  0
  -22.7530  -10.2040   20.2590 C   0  0  0  0  0  3  0  0  0  0  0  0
  -21.7180   -6.9060   21.4760 O   0  0  0  0  0  0  0  0  0  0  0  0
  -21.6760   -6.1660   22.6300 C   0  0  0  0  0  0  0  0  0  0  0  0
  -21.2400   -6.7180   23.8540 C   0  0  0  0  0  3  0  0  0  0  0  0
  -21.1480   -5.9050   25.0010 C   0  0  0  0  0  3  0  0  0  0  0  0
  -21.4830   -4.5390   24.9230 C   0  0  0  0  0  0  0  0  0  0  0  0
  -21.9140   -3.9850   23.7040 C   0  0  0  0  0  3  0  0  0  0  0  0
  -22.0060   -4.7970   22.5600 C   0  0  0  0  0  0  0  0  0  0  0  0
  -22.4010   -4.2560   21.3830 F   0  0  0  0  0  0  0  0  0  0  0  0
  -21.3870   -3.7540   26.0210 F   0  0  0  0  0  0  0  0  0  0  0  0
  -22.7880  -13.5510   21.1820 C   0  0  0  0  0  0  0  0  0  0  0  0
  -22.0830  -12.8430   22.0580 N   0  0  0  0  0  0  0  0  0  0  0  0
  -22.3350  -14.5820   20.6860 O   0  0  0  0  0  0  0  0  0  0  0  0
  -22.4630  -12.0080   22.4770 H   0  0  0  0  0  0  0  0  0  0  0  0
  -21.1530  -13.1410   22.3140 H   0  0  0  0  0  0  0  0  0  0  0  0
  -25.3940  -15.2250   20.3050 N   0  0  0  0  0  0  0  0  0  0  0  0
  -24.6220  -15.8690   20.4310 H   0  0  0  0  0  0  0  0  0  0  0  0
  -26.2210  -15.6680   19.9240 H   0  0  0  0  0  0  0  0  0  0  0  0
  -28.8190  -22.8780   19.9420 C   0  0  0  0  0  3  0  0  0  0  0  0
  -27.5780  -22.4760   19.3830 O   0  0  0  0  0  0  0  0  0  0  0  0
  -26.9930  -22.2630   20.1020 H   0  0  0  0  0  0  0  0  0  0  0  0
  -28.6670  -24.2840   20.5990 C   0  0  0  0  0  2  0  0  0  0  0  0
  -28.6580  -25.4680   19.5900 C   0  0  0  0  0  2  0  0  0  0  0  0
  -28.4900  -26.7610   20.2110 O   0  0  0  0  0  0  0  0  0  0  0  0
  -24.5820  -31.9000   23.2330 C   0  0  0  0  0  0  0  0  0  0  0  0
  -27.2810  -27.4420   20.1860 C   0  0  0  0  0  0  0  0  0  0  0  0
  -23.4010  -30.4900   21.5810 C   0  0  0  0  0  3  0  0  0  0  0  0
  -24.8740  -28.9520   20.1770 C   0  0  0  0  0  0  0  0  0  0  0  0
  -25.9300  -30.8520   21.4130 C   0  0  0  0  0  2  0  0  0  0  0  0
  -26.0240  -29.4790   20.7750 C   0  0  0  0  0  0  0  0  0  0  0  0
  -27.2260  -28.7300   20.7760 C   0  0  0  0  0  3  0  0  0  0  0  0
  -26.0990  -26.9280   19.6010 C   0  0  0  0  0  3  0  0  0  0  0  0
  -24.9070  -27.6770   19.5910 C   0  0  0  0  0  3  0  0  0  0  0  0
  -23.6260  -29.8070   20.2060 C   0  0  0  0  0  2  0  0  0  0  0  0
  -24.6560  -31.0970   22.1340 N   0  0  0  0  0  0  0  0  0  0  0  0
  -23.4940  -32.1730   23.7580 O   0  0  0  0  0  0  0  0  0  0  0  0
  -22.7440  -29.4690   22.5370 C   0  0  0  0  0  0  0  0  0  0  0  0
  -21.4190  -29.2900   22.4010 N   0  0  0  0  0  0  0  0  0  0  0  0
  -23.4210  -28.8410   23.3550 O   0  0  0  0  0  0  0  0  0  0  0  0
  -20.9350  -29.8540   21.7170 H   0  0  0  0  0  0  0  0  0  0  0  0
  -18.0350  -28.1230   22.8920 C   0  0  0  0  0  0  0  0  0  0  0  0
  -20.5950  -28.3520   23.1630 C   0  0  0  0  0  3  0  0  0  0  0  0
  -20.6810  -26.9270   22.5680 C   0  0  0  0  0  2  0  0  0  0  0  0
  -19.5730  -26.6260   21.5540 C   0  0  0  0  0  2  0  0  0  0  0  0
  -18.1960  -26.7790   22.2030 C   0  0  0  0  0  2  0  0  0  0  0  0
  -19.1620  -28.8700   23.3280 C   0  0  0  0  0  0  0  0  0  0  0  0
  -18.9560  -30.1300   23.9290 C   0  0  0  0  0  3  0  0  0  0  0  0
  -17.6570  -30.6430   24.1030 C   0  0  0  0  0  3  0  0  0  0  0  0
  -16.5440  -29.8930   23.6830 C   0  0  0  0  0  3  0  0  0  0  0  0
  -16.7340  -28.6350   23.0840 C   0  0  0  0  0  3  0  0  0  0  0  0
  -25.8600  -32.5360   23.8680 C   0  0  0  0  0  3  0  0  0  0  0  0
  -26.3630  -31.7700   25.1530 C   0  0  1  0  0  0  0  0  0  0  0  0
  -25.2580  -31.5310   26.2090 C   0  0  0  0  0  1  0  0  0  0  0  0
  -26.9530  -30.3930   24.7700 C   0  0  0  0  0  1  0  0  0  0  0  0
  -27.5040  -32.5700   25.8260 C   0  0  0  0  0  1  0  0  0  0  0  0
  -25.5460  -33.9350   24.1870 N   0  0  0  0  0  0  0  0  0  0  0  0
  -25.8940  -34.9840   23.4310 C   0  0  0  0  0  0  0  0  0  0  0  0
  -26.5830  -34.8780   22.4120 O   0  0  0  0  0  0  0  0  0  0  0  0
  -24.9320  -34.0950   24.9720 H   0  0  0  0  0  0  0  0  0  0  0  0
  -24.1750  -36.7790   23.0360 C   0  0  0  0  0  1  0  0  0  0  0  0
  -25.3980  -36.3750   23.8730 C   0  0  0  0  0  3  0  0  0  0  0  0
  -27.5140  -37.2600   24.7490 C   0  0  0  0  0  1  0  0  0  0  0  0
  -26.4350  -37.4260   23.7800 N   0  0  0  0  0  0  0  0  0  0  0  0
  -26.0260  -38.3460   23.9160 H   0  0  0  0  0  0  0  0  0  0  0  0
  2 14  1  0
  3  8  1  0
  4  5  1  0
  4  3  1  0
  6  5  1  0
  6 22  1  0
  6  7  1  0
  8  2  1  0
  8  7  1  0
  9  2  2  0
 10 14  1  0
 10 12  2  0
 11 13  2  0
 13 12  1  0
 14 17  1  0
 15 11  1  0
 15  1  1  0
 16 11  1  0
 16 10  1  0
 18 15  1  0
 19 20  2  0
 20 39  1  0
 21 20  1  0
 21 24  1  0
 22 23  1  0
 22 19  1  0
 23 21  2  0
 24 25  1  0
 25 26  2  0
 27 30  1  0
 27 26  1  0
 28 27  2  0
 29 28  1  0
 29 24  2  0
 30 31  1  0
 31 32  1  0
 32 33  2  0
 34 33  1  0
 34 38  1  0
 35 34  2  0
 36 31  2  0
 36 35  1  0
 37 36  1  0
 39 40  1  0
 40 43  1  0
 40 42  1  0
 41 39  2  0
 44 45  1  0
 44 19  1  0
 46 44  1  0
 47 50  1  0
 47  1  1  0
 48 47  1  0
 48 49  1  0
 51 52  1  0
 51 50  1  0
 53 64  2  0
 54 52  1  0
 54 59  1  0
 55 63  1  0
 55 65  1  0
 56 62  1  0
 56 58  1  0
 57 63  1  0
 58 59  2  0
 58 57  1  0
 60 54  2  0
 61 60  1  0
 61 56  2  0
 62 55  1  0
 63 53  1  0
 65 67  2  0
 66 65  1  0
 68 66  1  0
 69 78  2  0
 69 74  1  0
 70 66  1  0
 70 74  1  0
 71 70  1  0
 72 73  1  0
 72 71  1  0
 73 69  1  0
 74 75  2  0
 75 76  1  0
 77 76  2  0
 78 77  1  0
 79 53  1  0
 79 84  1  0
 79 80  1  0
 80 83  1  1
 80 81  1  0
 82 80  1  0
 84 87  1  0
 85 89  1  0
 85 84  1  0
 86 85  2  0
 89 88  1  0
 91 89  1  0
 91 92  1  0
 91 90  1  0
M  ISO  4   2 100  14 100  51 101  52 101
M  END
>  <TORSDO>  (26) 
F 20

>  <SCORE>  (26) 
-14.186

>  <name>  (26) 
25

>  <ligand_id>  (26) 
25

>  <original_smiles>  (26) 
[H]OC([H])(C([H])([H])N([H])c1nnc(N([H])C(=O)N2C([H])([H])C([H])([H])C([H])([H])C([H])(n3nc(-c4c([H])c([H])c(Oc5c([H])c([H])c(F)c([H])c5F)c([H])c4[H])c(C(=O)N([H])[H])c3N([H])[H])C2([H])[H])s1)C([H])([H])C([H])([H])Oc1c([H])c([H])c2c(c1[H])C([H])([H])N(C(=O)C([H])(N([H])C(=O)C([H])(N([H])C([H])([H])[H])C([H])([H])[H])C(C([H])([H])[H])(C([H])([H])[H])C([H])([H])[H])C([H])(C(=O)N([H])C1([H])c3c([H])c([H])c([H])c([H])c3C([H])([H])C([H])([H])C1([H])[H])C2([H])[H]

>  <smiles>  (26) 
[H]OC([H])(C([H])([H])N([H])c1nnc(N([H])C(=O)N2C([H])([H])C([H])([H])C([H])([H])C([H])(n3nc(-c4c([H])c([H])c(Oc5c([H])c([H])c(F)c([H])c5F)c([H])c4[H])c(C(=O)N([H])[H])c3N([H])[H])C2([H])[H])s1)C([H])([H])C([H])([H])Oc1c([H])c([H])c2c(c1[H])C([H])([H])N(C(=O)C([H])(N([H])C(=O)C([H])(N([H])C([H])([H])[H])C([H])([H])[H])C(C([H])([H])[H])(C([H])([H])[H])C([H])([H])[H])C([H])(C(=O)N([H])C1([H])c3c([H])c([H])c([H])c([H])c3C([H])([H])C([H])([H])C1([H])[H])C2([H])[H]

$$$$
26:0:0
     RDKit          3D

 91 99  0  0  1  0  0  0  0  0999 V2000
  -27.9920  -21.7130   21.7260 C   0  0  0  0  0  1  0  0  0  0  0  0
  -28.7180  -22.0470   20.4150 C   0  0  0  0  0  3  0  0  0  0  0  0
  -30.0790  -23.9850   21.5170 C   0  0  0  0  0  1  0  0  0  0  0  0
  -29.1520  -23.6400   20.3400 C   0  0  0  0  0  3  0  0  0  0  0  0
  -28.0220  -24.8170   20.1880 C   0  0  0  0  0  2  0  0  0  0  0  0
  -28.3070  -26.3110   20.1870 O   0  0  0  0  0  0  0  0  0  0  0  0
  -24.6340  -31.8530   23.1960 C   0  0  0  0  0  0  0  0  0  0  0  0
  -27.2210  -27.2300   20.1350 C   0  0  0  0  0  0  0  0  0  0  0  0
  -23.4340  -30.4740   21.5410 C   0  0  0  0  0  3  0  0  0  0  0  0
  -24.8810  -28.9190   20.1130 C   0  0  0  0  0  0  0  0  0  0  0  0
  -25.9830  -30.7580   21.3790 C   0  0  0  0  0  2  0  0  0  0  0  0
  -26.0560  -29.3780   20.7210 C   0  0  0  0  0  0  0  0  0  0  0  0
  -27.2300  -28.5490   20.7180 C   0  0  0  0  0  3  0  0  0  0  0  0
  -26.0180  -26.8490   19.4970 C   0  0  0  0  0  3  0  0  0  0  0  0
  -24.8690  -27.6630   19.4890 C   0  0  0  0  0  3  0  0  0  0  0  0
  -23.6530  -29.8090   20.1580 C   0  0  0  0  0  2  0  0  0  0  0  0
  -24.7030  -31.0470   22.0950 N   0  0  0  0  0  0  0  0  0  0  0  0
  -23.5490  -32.1360   23.7230 O   0  0  0  0  0  0  0  0  0  0  0  0
  -22.7530  -29.4580   22.4900 C   0  0  0  0  0  0  0  0  0  0  0  0
  -21.4230  -29.3040   22.3650 N   0  0  0  0  0  0  0  0  0  0  0  0
  -23.4220  -28.8110   23.3000 O   0  0  0  0  0  0  0  0  0  0  0  0
  -20.9420  -29.8760   21.6840 H   0  0  0  0  0  0  0  0  0  0  0  0
  -18.0300  -28.1380   22.8490 C   0  0  0  0  0  0  0  0  0  0  0  0
  -20.5900  -28.3700   23.1260 C   0  0  0  0  0  3  0  0  0  0  0  0
  -20.6790  -26.9410   22.5400 C   0  0  0  0  0  2  0  0  0  0  0  0
  -19.5760  -26.6380   21.5210 C   0  0  0  0  0  2  0  0  0  0  0  0
  -18.1940  -26.7920   22.1620 C   0  0  0  0  0  2  0  0  0  0  0  0
  -19.1550  -28.8860   23.2870 C   0  0  0  0  0  0  0  0  0  0  0  0
  -18.9470  -30.1460   23.8880 C   0  0  0  0  0  3  0  0  0  0  0  0
  -17.6470  -30.6590   24.0560 C   0  0  0  0  0  3  0  0  0  0  0  0
  -16.5360  -29.9080   23.6330 C   0  0  0  0  0  3  0  0  0  0  0  0
  -16.7280  -28.6500   23.0350 C   0  0  0  0  0  3  0  0  0  0  0  0
  -25.9160  -32.4740   23.8320 C   0  0  0  0  0  3  0  0  0  0  0  0
  -26.4510  -31.6570   25.0720 C   0  0  1  0  0  0  0  0  0  0  0  0
  -25.3710  -31.3730   26.1430 C   0  0  0  0  0  1  0  0  0  0  0  0
  -27.0370  -30.3000   24.6220 C   0  0  0  0  0  1  0  0  0  0  0  0
  -27.6050  -32.4330   25.7500 C   0  0  0  0  0  1  0  0  0  0  0  0
  -25.5920  -33.8550   24.2240 N   0  0  0  0  0  0  0  0  0  0  0  0
  -25.9060  -34.9430   23.5090 C   0  0  0  0  0  0  0  0  0  0  0  0
  -26.5650  -34.8920   22.4680 O   0  0  0  0  0  0  0  0  0  0  0  0
  -25.0020  -33.9670   25.0350 H   0  0  0  0  0  0  0  0  0  0  0  0
  -24.1490  -36.7280   23.2650 C   0  0  0  0  0  1  0  0  0  0  0  0
  -25.4120  -36.3060   24.0330 C   0  0  0  0  0  3  0  0  0  0  0  0
  -27.5580  -37.1790   24.8470 C   0  0  0  0  0  1  0  0  0  0  0  0
  -26.4290  -37.3760   23.9410 N   0  0  0  0  0  0  0  0  0  0  0  0
  -26.0170  -38.2830   24.1400 H   0  0  0  0  0  0  0  0  0  0  0  0
  -29.7990  -21.0180   20.1150 N   0  0  0  0  0  0  0  0  0  0  0  0
  -30.6980  -21.4880   20.0360 H   0  0  0  0  0  0  0  0  0  0  0  0
  -30.6000  -14.7930   20.4570 C   0  0  0  0  0  0  0  0  0  0  0  0
  -30.4390  -12.4910   19.4680 C   0  0  0  0  0  2  0  0  0  0  0  0
  -29.5090  -12.5030   18.2340 C   0  0  0  0  0  2  0  0  0  0  0  0
  -28.0380  -12.3170   18.6560 C   0  0  0  0  0  2  0  0  0  0  0  0
  -27.6380  -13.2300   19.8440 C   0  0  0  0  0  3  0  0  0  0  0  0
  -28.6880  -13.1920   20.9770 C   0  0  0  0  0  2  0  0  0  0  0  0
  -29.9780  -13.5620   20.3830 N   0  0  0  0  0  0  0  0  0  0  0  0
  -31.8050  -14.8660   20.1950 O   0  0  0  0  0  0  0  0  0  0  0  0
  -31.0950  -19.2300   21.4110 C   0  0  0  0  0  3  0  0  0  0  0  0
  -30.0350  -19.6730   20.6460 C   0  0  0  0  0  0  0  0  0  0  0  0
  -30.1280  -17.3760   20.7070 C   0  0  0  0  0  0  0  0  0  0  0  0
  -31.1420  -17.8270   21.4500 N   0  0  0  0  0  0  0  0  0  0  0  0
  -29.8020  -15.9350   20.5390 N   0  0  0  0  0  0  0  0  0  0  0  0
  -29.3930  -18.4740   20.2080 O   0  0  0  0  0  0  0  0  0  0  0  0
  -28.8160  -15.7480   20.4860 H   0  0  0  0  0  0  0  0  0  0  0  0
  -25.2510  -13.8190   20.5700 C   0  0  0  0  0  0  0  0  0  0  0  0
  -24.1800  -13.0430   20.9220 C   0  0  0  0  0  0  0  0  0  0  0  0
  -24.6390  -11.6910   20.8760 C   0  0  0  0  0  0  0  0  0  0  0  0
  -26.2920  -12.9390   20.3260 N   0  0  0  0  0  0  0  0  0  0  0  0
  -25.9320  -11.6530   20.5770 N   0  0  0  0  0  0  0  0  0  0  0  0
  -23.9070  -10.4290   21.0410 C   0  0  0  0  0  0  0  0  0  0  0  0
  -24.3620   -9.4200   21.9190 C   0  0  0  0  0  3  0  0  0  0  0  0
  -23.6290   -8.2240   22.0760 C   0  0  0  0  0  3  0  0  0  0  0  0
  -22.4280   -8.0280   21.3550 C   0  0  0  0  0  0  0  0  0  0  0  0
  -21.9910   -9.0250   20.4650 C   0  0  0  0  0  3  0  0  0  0  0  0
  -22.7240  -10.2130   20.3060 C   0  0  0  0  0  3  0  0  0  0  0  0
  -21.6640   -6.8870   21.4240 O   0  0  0  0  0  0  0  0  0  0  0  0
  -21.6850   -6.0730   22.5280 C   0  0  0  0  0  0  0  0  0  0  0  0
  -21.4010   -6.5640   23.8210 C   0  0  0  0  0  3  0  0  0  0  0  0
  -21.3660   -5.6790   24.9170 C   0  0  0  0  0  3  0  0  0  0  0  0
  -21.6040   -4.3060   24.7230 C   0  0  0  0  0  0  0  0  0  0  0  0
  -21.8820   -3.8150   23.4350 C   0  0  0  0  0  3  0  0  0  0  0  0
  -21.9200   -4.6960   22.3400 C   0  0  0  0  0  0  0  0  0  0  0  0
  -22.1660   -4.2150   21.0980 F   0  0  0  0  0  0  0  0  0  0  0  0
  -21.5630   -3.4540   25.7740 F   0  0  0  0  0  0  0  0  0  0  0  0
  -22.7830  -13.5220   21.1870 C   0  0  0  0  0  0  0  0  0  0  0  0
  -22.0470  -12.8200   22.0430 N   0  0  0  0  0  0  0  0  0  0  0  0
  -22.3510  -14.5520   20.6720 O   0  0  0  0  0  0  0  0  0  0  0  0
  -22.4110  -11.9870   22.4800 H   0  0  0  0  0  0  0  0  0  0  0  0
  -21.1090  -13.1220   22.2640 H   0  0  0  0  0  0  0  0  0  0  0  0
  -25.4180  -15.1910   20.4090 N   0  0  0  0  0  0  0  0  0  0  0  0
  -24.6420  -15.8360   20.5110 H   0  0  0  0  0  0  0  0  0  0  0  0
  -26.2420  -15.6310   20.0230 H   0  0  0  0  0  0  0  0  0  0  0  0
  2  1  1  0
  4  2  1  0
  4  3  1  0
  5  4  1  0
  6  5  1  0
  7 18  2  0
  8  6  1  0
  8 13  1  0
  9 17  1  0
  9 19  1  0
 10 16  1  0
 10 12  1  0
 11 17  1  0
 12 11  1  0
 13 12  2  0
 14  8  2  0
 15 14  1  0
 15 10  2  0
 16  9  1  0
 17  7  1  0
 19 21  2  0
 20 19  1  0
 22 20  1  0
 23 32  2  0
 23 28  1  0
 24 20  1  0
 24 28  1  0
 25 24  1  0
 26 27  1  0
 26 25  1  0
 27 23  1  0
 28 29  2  0
 29 30  1  0
 31 30  2  0
 32 31  1  0
 33  7  1  0
 33 38  1  0
 33 34  1  0
 34 37  1  1
 34 35  1  0
 36 34  1  0
 38 41  1  0
 39 43  1  0
 39 38  1  0
 40 39  2  0
 43 42  1  0
 45 43  1  0
 45 46  1  0
 45 44  1  0
 47  2  1  0
 47 58  1  0
 48 47  1  0
 49 61  1  0
 50 55  1  0
 51 52  1  0
 51 50  1  0
 53 52  1  0
 53 67  1  0
 53 54  1  0
 55 49  1  0
 55 54  1  0
 56 49  2  0
 57 60  1  0
 58 57  2  0
 59 60  2  0
 61 59  1  0
 62 58  1  0
 62 59  1  0
 63 61  1  0
 64 65  2  0
 65 84  1  0
 66 65  1  0
 66 69  1  0
 67 64  1  0
 67 68  1  0
 68 66  2  0
 69 70  1  0
 70 71  2  0
 72 75  1  0
 72 71  1  0
 73 72  2  0
 74 73  1  0
 74 69  2  0
 75 76  1  0
 76 77  1  0
 77 78  2  0
 79 78  1  0
 79 83  1  0
 80 79  2  0
 81 76  2  0
 81 80  1  0
 82 81  1  0
 84 85  1  0
 85 88  1  0
 85 87  1  0
 86 84  2  0
 89 90  1  0
 89 64  1  0
 91 89  1  0
M  ISO  4   5 101   6 101  49 100  61 100
M  END
>  <TORSDO>  (27) 
F 19

>  <SCORE>  (27) 
-14.121

>  <name>  (27) 
26

>  <ligand_id>  (27) 
26

>  <original_smiles>  (27) 
[H]c1nc(N([H])C(=O)N2C([H])([H])C([H])([H])C([H])([H])C([H])(n3nc(-c4c([H])c([H])c(Oc5c([H])c([H])c(F)c([H])c5F)c([H])c4[H])c(C(=O)N([H])[H])c3N([H])[H])C2([H])[H])oc1N([H])C([H])(C([H])([H])[H])C([H])(C([H])([H])[H])C([H])([H])Oc1c([H])c([H])c2c(c1[H])C([H])([H])N(C(=O)C([H])(N([H])C(=O)C([H])(N([H])C([H])([H])[H])C([H])([H])[H])C(C([H])([H])[H])(C([H])([H])[H])C([H])([H])[H])C([H])(C(=O)N([H])C1([H])c3c([H])c([H])c([H])c([H])c3C([H])([H])C([H])([H])C1([H])[H])C2([H])[H]

>  <smiles>  (27) 
[H]c1nc(N([H])C(=O)N2C([H])([H])C([H])([H])C([H])([H])C([H])(n3nc(-c4c([H])c([H])c(Oc5c([H])c([H])c(F)c([H])c5F)c([H])c4[H])c(C(=O)N([H])[H])c3N([H])[H])C2([H])[H])oc1N([H])C([H])(C([H])([H])[H])C([H])(C([H])([H])[H])C([H])([H])Oc1c([H])c([H])c2c(c1[H])C([H])([H])N(C(=O)C([H])(N([H])C(=O)C([H])(N([H])C([H])([H])[H])C([H])([H])[H])C(C([H])([H])[H])(C([H])([H])[H])C([H])([H])[H])C([H])(C(=O)N([H])C1([H])c3c([H])c([H])c([H])c([H])c3C([H])([H])C([H])([H])C1([H])[H])C2([H])[H]

$$$$
27:0:0
     RDKit          3D

 90 98  0  0  1  0  0  0  0  0999 V2000
  -30.6660  -19.4980   19.5300 C   0  0  0  0  0  3  0  0  0  0  0  0
  -29.9730  -18.6770   20.4070 C   0  0  0  0  0  0  0  0  0  0  0  0
  -29.2300  -21.1720   20.2680 C   0  0  0  0  0  0  0  0  0  0  0  0
  -29.0070  -23.7950   20.1390 C   0  0  0  0  0  0  0  0  0  0  0  0
  -30.2600  -20.8620   19.4630 N   0  0  0  0  0  0  0  0  0  0  0  0
  -28.5720  -22.4920   20.3160 N   0  0  0  0  0  0  0  0  0  0  0  0
  -30.2050  -24.0910   20.1010 O   0  0  0  0  0  0  0  0  0  0  0  0
  -28.6830  -19.6820   21.1300 S   0  0  0  0  0  0  0  0  0  0  0  0
  -27.5800  -22.4310   20.5030 H   0  0  0  0  0  0  0  0  0  0  0  0
  -30.4220  -17.2600   20.9380 C   0  0  0  0  0  2  0  0  0  0  0  0
  -30.5620  -14.7770   20.1660 C   0  0  0  0  0  0  0  0  0  0  0  0
  -30.2800  -12.5430   19.0840 C   0  0  0  0  0  2  0  0  0  0  0  0
  -29.2940  -12.6450   17.9010 C   0  0  0  0  0  2  0  0  0  0  0  0
  -27.8420  -12.4710   18.3880 C   0  0  0  0  0  2  0  0  0  0  0  0
  -27.5220  -13.3370   19.6360 C   0  0  0  0  0  3  0  0  0  0  0  0
  -28.6240  -13.2240   20.7100 C   0  0  0  0  0  2  0  0  0  0  0  0
  -29.8950  -13.5780   20.0690 N   0  0  0  0  0  0  0  0  0  0  0  0
  -31.7390  -14.8570   19.8070 O   0  0  0  0  0  0  0  0  0  0  0  0
  -29.8540  -15.9180   20.5010 N   0  0  0  0  0  0  0  0  0  0  0  0
  -28.8700  -15.7810   20.6730 H   0  0  0  0  0  0  0  0  0  0  0  0
  -25.1630  -13.9180   20.4600 C   0  0  0  0  0  0  0  0  0  0  0  0
  -24.1100  -13.1380   20.8570 C   0  0  0  0  0  0  0  0  0  0  0  0
  -24.5730  -11.7880   20.7920 C   0  0  0  0  0  0  0  0  0  0  0  0
  -26.1970  -13.0420   20.1740 N   0  0  0  0  0  0  0  0  0  0  0  0
  -25.8520  -11.7550   20.4380 N   0  0  0  0  0  0  0  0  0  0  0  0
  -23.8530  -10.5230   20.9910 C   0  0  0  0  0  0  0  0  0  0  0  0
  -24.3020   -9.5540   21.9160 C   0  0  0  0  0  3  0  0  0  0  0  0
  -23.5820   -8.3540   22.1030 C   0  0  0  0  0  3  0  0  0  0  0  0
  -22.3990   -8.1140   21.3640 C   0  0  0  0  0  0  0  0  0  0  0  0
  -21.9690   -9.0720   20.4280 C   0  0  0  0  0  3  0  0  0  0  0  0
  -22.6900  -10.2620   20.2400 C   0  0  0  0  0  3  0  0  0  0  0  0
  -21.6480   -6.9670   21.4600 O   0  0  0  0  0  0  0  0  0  0  0  0
  -21.5980   -6.2360   22.6200 C   0  0  0  0  0  0  0  0  0  0  0  0
  -21.1280   -6.7890   23.8310 C   0  0  0  0  0  3  0  0  0  0  0  0
  -21.0290   -5.9810   24.9820 C   0  0  0  0  0  3  0  0  0  0  0  0
  -21.3880   -4.6220   24.9230 C   0  0  0  0  0  0  0  0  0  0  0  0
  -21.8520   -4.0680   23.7160 C   0  0  0  0  0  3  0  0  0  0  0  0
  -21.9530   -4.8730   22.5670 C   0  0  0  0  0  0  0  0  0  0  0  0
  -22.3800   -4.3280   21.4020 F   0  0  0  0  0  0  0  0  0  0  0  0
  -21.2860   -3.8440   26.0260 F   0  0  0  0  0  0  0  0  0  0  0  0
  -22.7240  -13.6100   21.1830 C   0  0  0  0  0  0  0  0  0  0  0  0
  -22.0250  -12.9020   22.0630 N   0  0  0  0  0  0  0  0  0  0  0  0
  -22.2680  -14.6430   20.6920 O   0  0  0  0  0  0  0  0  0  0  0  0
  -22.4070  -12.0670   22.4820 H   0  0  0  0  0  0  0  0  0  0  0  0
  -21.0960  -13.2010   22.3240 H   0  0  0  0  0  0  0  0  0  0  0  0
  -25.3180  -15.2900   20.2930 N   0  0  0  0  0  0  0  0  0  0  0  0
  -24.5520  -15.9390   20.4340 H   0  0  0  0  0  0  0  0  0  0  0  0
  -26.1450  -15.7340   19.9130 H   0  0  0  0  0  0  0  0  0  0  0  0
  -27.9140  -24.9470   19.9670 C   0  0  0  0  0  2  0  0  0  0  0  0
  -28.2640  -26.4030   20.1320 O   0  0  0  0  0  0  0  0  0  0  0  0
  -24.5840  -31.8840   23.1940 C   0  0  0  0  0  0  0  0  0  0  0  0
  -27.1820  -27.3200   20.0830 C   0  0  0  0  0  0  0  0  0  0  0  0
  -23.3830  -30.5090   21.5370 C   0  0  0  0  0  3  0  0  0  0  0  0
  -24.8320  -28.9810   20.0900 C   0  0  0  0  0  0  0  0  0  0  0  0
  -25.9290  -30.8130   21.3670 C   0  0  0  0  0  2  0  0  0  0  0  0
  -26.0070  -29.4430   20.6970 C   0  0  0  0  0  0  0  0  0  0  0  0
  -27.1860  -28.6260   20.6830 C   0  0  0  0  0  3  0  0  0  0  0  0
  -25.9770  -26.9370   19.4430 C   0  0  0  0  0  3  0  0  0  0  0  0
  -24.8230  -27.7360   19.4520 C   0  0  0  0  0  3  0  0  0  0  0  0
  -23.5990  -29.8590   20.1480 C   0  0  0  0  0  2  0  0  0  0  0  0
  -24.6500  -31.0860   22.0880 N   0  0  0  0  0  0  0  0  0  0  0  0
  -23.4980  -32.1560   23.7280 O   0  0  0  0  0  0  0  0  0  0  0  0
  -22.7160  -29.4790   22.4810 C   0  0  0  0  0  0  0  0  0  0  0  0
  -21.3930  -29.2880   22.3360 N   0  0  0  0  0  0  0  0  0  0  0  0
  -23.3880  -28.8550   23.3060 O   0  0  0  0  0  0  0  0  0  0  0  0
  -20.9080  -29.8440   21.6440 H   0  0  0  0  0  0  0  0  0  0  0  0
  -18.0200  -28.0530   22.7850 C   0  0  0  0  0  0  0  0  0  0  0  0
  -20.5720  -28.3390   23.0910 C   0  0  0  0  0  3  0  0  0  0  0  0
  -20.6970  -26.9110   22.5130 C   0  0  0  0  0  2  0  0  0  0  0  0
  -19.6130  -26.5790   21.4830 C   0  0  0  0  0  2  0  0  0  0  0  0
  -18.2210  -26.7080   22.1080 C   0  0  0  0  0  2  0  0  0  0  0  0
  -19.1250  -28.8260   23.2330 C   0  0  0  0  0  0  0  0  0  0  0  0
  -18.8840  -30.0840   23.8260 C   0  0  0  0  0  3  0  0  0  0  0  0
  -17.5710  -30.5700   23.9760 C   0  0  0  0  0  3  0  0  0  0  0  0
  -16.4810  -29.7950   23.5440 C   0  0  0  0  0  3  0  0  0  0  0  0
  -16.7060  -28.5380   22.9540 C   0  0  0  0  0  3  0  0  0  0  0  0
  -25.8630  -32.5090   23.8260 C   0  0  0  0  0  3  0  0  0  0  0  0
  -25.5690  -33.9190   24.1240 N   0  0  0  0  0  0  0  0  0  0  0  0
  -25.9080  -34.9500   23.3410 C   0  0  0  0  0  0  0  0  0  0  0  0
  -26.5710  -34.8170   22.3090 O   0  0  0  0  0  0  0  0  0  0  0  0
  -24.9810  -34.0980   24.9250 H   0  0  0  0  0  0  0  0  0  0  0  0
  -24.1930  -36.7510   22.9600 C   0  0  0  0  0  1  0  0  0  0  0  0
  -25.4380  -36.3540   23.7700 C   0  0  0  0  0  3  0  0  0  0  0  0
  -27.5820  -37.2460   24.5680 C   0  0  0  0  0  1  0  0  0  0  0  0
  -26.4790  -37.3940   23.6220 N   0  0  0  0  0  0  0  0  0  0  0  0
  -26.0810  -38.3230   23.7420 H   0  0  0  0  0  0  0  0  0  0  0  0
  -26.3440  -31.7570   25.1270 C   0  0  1  0  0  0  0  0  0  0  0  0
  -25.2270  -31.5540   26.1770 C   0  0  0  0  0  1  0  0  0  0  0  0
  -26.9160  -30.3630   24.7750 C   0  0  0  0  0  1  0  0  0  0  0  0
  -27.4920  -32.5480   25.7950 C   0  0  0  0  0  1  0  0  0  0  0  0
  1  2  2  0
  2 10  1  0
  2  8  1  0
  3  6  1  0
  3  8  1  0
  4  6  1  0
  5  1  1  0
  5  3  2  0
  6  9  1  0
  7  4  2  0
 11 19  1  0
 12 17  1  0
 13 14  1  0
 13 12  1  0
 15 14  1  0
 15 24  1  0
 15 16  1  0
 17 11  1  0
 17 16  1  0
 18 11  2  0
 19 20  1  0
 19 10  1  0
 21 22  2  0
 22 41  1  0
 23 22  1  0
 23 26  1  0
 24 25  1  0
 24 21  1  0
 25 23  2  0
 26 27  1  0
 27 28  2  0
 29 32  1  0
 29 28  1  0
 30 29  2  0
 31 30  1  0
 31 26  2  0
 32 33  1  0
 33 34  1  0
 34 35  2  0
 36 35  1  0
 36 40  1  0
 37 36  2  0
 38 33  2  0
 38 37  1  0
 39 38  1  0
 41 42  1  0
 42 45  1  0
 42 44  1  0
 43 41  2  0
 46 47  1  0
 46 21  1  0
 48 46  1  0
 49 50  1  0
 49  4  1  0
 51 62  2  0
 52 50  1  0
 52 57  1  0
 53 61  1  0
 53 63  1  0
 54 60  1  0
 54 56  1  0
 55 61  1  0
 56 55  1  0
 57 56  2  0
 58 59  1  0
 58 52  2  0
 59 54  2  0
 60 53  1  0
 61 51  1  0
 63 65  2  0
 64 63  1  0
 66 64  1  0
 67 76  2  0
 67 72  1  0
 68 64  1  0
 68 72  1  0
 69 68  1  0
 70 71  1  0
 70 69  1  0
 71 67  1  0
 72 73  2  0
 73 74  1  0
 75 74  2  0
 76 75  1  0
 77 51  1  0
 77 78  1  0
 77 87  1  0
 78 81  1  0
 79 83  1  0
 79 78  1  0
 80 79  2  0
 83 82  1  0
 85 86  1  0
 85 83  1  0
 85 84  1  0
 87 90  1  1
 87 88  1  0
 89 87  1  0
M  ISO  4  11 100  19 100  49 101  50 101
M  END
>  <TORSDO>  (28) 
F 18

>  <SCORE>  (28) 
-13.967

>  <name>  (28) 
27

>  <ligand_id>  (28) 
27

>  <original_smiles>  (28) 
[H]c1nc(N([H])C(=O)C([H])([H])Oc2c([H])c([H])c3c(c2[H])C([H])([H])N(C(=O)C([H])(N([H])C(=O)C([H])(N([H])C([H])([H])[H])C([H])([H])[H])C(C([H])([H])[H])(C([H])([H])[H])C([H])([H])[H])C([H])(C(=O)N([H])C2([H])c4c([H])c([H])c([H])c([H])c4C([H])([H])C([H])([H])C2([H])[H])C3([H])[H])sc1C([H])([H])N([H])C(=O)N1C([H])([H])C([H])([H])C([H])([H])C([H])(n2nc(-c3c([H])c([H])c(Oc4c([H])c([H])c(F)c([H])c4F)c([H])c3[H])c(C(=O)N([H])[H])c2N([H])[H])C1([H])[H]

>  <smiles>  (28) 
[H]c1nc(N([H])C(=O)C([H])([H])Oc2c([H])c([H])c3c(c2[H])C([H])([H])N(C(=O)C([H])(N([H])C(=O)C([H])(N([H])C([H])([H])[H])C([H])([H])[H])C(C([H])([H])[H])(C([H])([H])[H])C([H])([H])[H])C([H])(C(=O)N([H])C2([H])c4c([H])c([H])c([H])c([H])c4C([H])([H])C([H])([H])C2([H])[H])C3([H])[H])sc1C([H])([H])N([H])C(=O)N1C([H])([H])C([H])([H])C([H])([H])C([H])(n2nc(-c3c([H])c([H])c(Oc4c([H])c([H])c(F)c([H])c4F)c([H])c3[H])c(C(=O)N([H])[H])c2N([H])[H])C1([H])[H]

$$$$
28:0:0
     RDKit          3D

 94102  0  0  1  0  0  0  0  0999 V2000
  -30.5770  -14.6750   20.4200 C   0  0  0  0  0  0  0  0  0  0  0  0
  -30.4230  -12.4250   19.3740 C   0  0  0  0  0  2  0  0  0  0  0  0
  -29.5150  -12.6020   18.1380 C   0  0  0  0  0  2  0  0  0  0  0  0
  -28.0220  -12.4760   18.5160 C   0  0  0  0  0  2  0  0  0  0  0  0
  -27.6500  -13.2930   19.7860 C   0  0  0  0  0  3  0  0  0  0  0  0
  -28.6830  -13.0770   20.9130 C   0  0  0  0  0  2  0  0  0  0  0  0
  -30.0050  -13.4300   20.3720 N   0  0  0  0  0  0  0  0  0  0  0  0
  -31.7420  -14.8560   20.0420 O   0  0  0  0  0  0  0  0  0  0  0  0
  -29.7700  -17.5940   19.1460 C   0  0  0  0  0  3  0  0  0  0  0  0
  -29.5830  -18.9840   18.8820 C   0  0  0  0  0  0  0  0  0  0  0  0
  -29.7330  -17.1260   20.4900 C   0  0  0  0  0  0  0  0  0  0  0  0
  -29.3650  -19.8840   19.9650 C   0  0  0  0  0  0  0  0  0  0  0  0
  -29.4960  -18.0520   21.4700 N   0  0  0  0  0  0  0  0  0  0  0  0
  -29.3300  -19.3790   21.2290 N   0  0  0  0  0  0  0  0  0  0  0  0
  -29.7460  -15.6990   20.7920 N   0  0  0  0  0  0  0  0  0  0  0  0
  -29.2110  -21.2850   19.6800 N   0  0  0  0  0  0  0  0  0  0  0  0
  -28.8980  -15.3770   21.2330 H   0  0  0  0  0  0  0  0  0  0  0  0
  -29.0590  -21.4430   18.6920 H   0  0  0  0  0  0  0  0  0  0  0  0
  -25.2440  -13.9120   20.4390 C   0  0  0  0  0  0  0  0  0  0  0  0
  -24.1670  -13.1510   20.8020 C   0  0  0  0  0  0  0  0  0  0  0  0
  -24.6230  -11.7970   20.8030 C   0  0  0  0  0  0  0  0  0  0  0  0
  -26.2890  -13.0210   20.2400 N   0  0  0  0  0  0  0  0  0  0  0  0
  -25.9190  -11.7440   20.5170 N   0  0  0  0  0  0  0  0  0  0  0  0
  -23.8850  -10.5440   21.0000 C   0  0  0  0  0  0  0  0  0  0  0  0
  -24.2990   -9.5860   21.9510 C   0  0  0  0  0  3  0  0  0  0  0  0
  -23.5620   -8.3950   22.1350 C   0  0  0  0  0  3  0  0  0  0  0  0
  -22.3970   -8.1560   21.3670 C   0  0  0  0  0  0  0  0  0  0  0  0
  -22.0020   -9.1050   20.4050 C   0  0  0  0  0  3  0  0  0  0  0  0
  -22.7400  -10.2860   20.2210 C   0  0  0  0  0  3  0  0  0  0  0  0
  -21.6270   -7.0210   21.4630 O   0  0  0  0  0  0  0  0  0  0  0  0
  -21.5630   -6.2920   22.6220 C   0  0  0  0  0  0  0  0  0  0  0  0
  -21.1350   -6.8620   23.8400 C   0  0  0  0  0  3  0  0  0  0  0  0
  -21.0160   -6.0570   24.9910 C   0  0  0  0  0  3  0  0  0  0  0  0
  -21.3140   -4.6820   24.9220 C   0  0  0  0  0  0  0  0  0  0  0  0
  -21.7330   -4.1100   23.7070 C   0  0  0  0  0  3  0  0  0  0  0  0
  -21.8510   -4.9130   22.5600 C   0  0  0  0  0  0  0  0  0  0  0  0
  -22.2380   -4.3540   21.3870 F   0  0  0  0  0  0  0  0  0  0  0  0
  -21.1900   -3.9080   26.0240 F   0  0  0  0  0  0  0  0  0  0  0  0
  -22.7660  -13.6430   21.0350 C   0  0  0  0  0  0  0  0  0  0  0  0
  -22.0120  -12.9670   21.8940 N   0  0  0  0  0  0  0  0  0  0  0  0
  -22.3490  -14.6620   20.4840 O   0  0  0  0  0  0  0  0  0  0  0  0
  -22.3570  -12.1440   22.3660 H   0  0  0  0  0  0  0  0  0  0  0  0
  -21.0720  -13.2850   22.0850 H   0  0  0  0  0  0  0  0  0  0  0  0
  -25.4150  -15.2810   20.2410 N   0  0  0  0  0  0  0  0  0  0  0  0
  -24.6430  -15.9350   20.3210 H   0  0  0  0  0  0  0  0  0  0  0  0
  -26.2520  -15.7120   19.8710 H   0  0  0  0  0  0  0  0  0  0  0  0
  -29.6080  -19.4660   17.5660 N   0  0  0  0  0  0  0  0  0  0  0  0
  -30.0700  -18.9080   16.8580 H   0  0  0  0  0  0  0  0  0  0  0  0
  -29.8110  -20.4510   17.4510 H   0  0  0  0  0  0  0  0  0  0  0  0
  -29.9970  -22.5960   21.6650 C   0  0  0  0  0  1  0  0  0  0  0  0
  -28.9140  -22.4500   20.5780 C   0  0  0  0  0  3  0  0  0  0  0  0
  -28.7360  -23.8600   19.8100 C   0  0  0  0  0  3  0  0  0  0  0  0
  -28.2370  -25.1380   20.6360 C   0  0  0  0  0  3  0  0  0  0  0  0
  -28.4060  -26.5160   20.1130 O   0  0  0  0  0  0  0  0  0  0  0  0
  -24.6180  -31.8620   23.1740 C   0  0  0  0  0  0  0  0  0  0  0  0
  -27.2850  -27.3530   20.1110 C   0  0  0  0  0  0  0  0  0  0  0  0
  -23.4350  -30.4670   21.5160 C   0  0  0  0  0  3  0  0  0  0  0  0
  -24.9090  -28.9300   20.0970 C   0  0  0  0  0  0  0  0  0  0  0  0
  -25.9710  -30.8090   21.3490 C   0  0  0  0  0  2  0  0  0  0  0  0
  -26.0700  -29.4350   20.6980 C   0  0  0  0  0  0  0  0  0  0  0  0
  -27.2680  -28.6610   20.6890 C   0  0  0  0  0  3  0  0  0  0  0  0
  -26.1050  -26.8970   19.4910 C   0  0  0  0  0  3  0  0  0  0  0  0
  -24.9270  -27.6660   19.4880 C   0  0  0  0  0  3  0  0  0  0  0  0
  -23.6640  -29.7950   20.1350 C   0  0  0  0  0  2  0  0  0  0  0  0
  -24.6940  -31.0620   22.0710 N   0  0  0  0  0  0  0  0  0  0  0  0
  -23.5290  -32.1280   23.7020 O   0  0  0  0  0  0  0  0  0  0  0  0
  -22.7730  -29.4400   22.4640 C   0  0  0  0  0  0  0  0  0  0  0  0
  -21.4460  -29.2710   22.3390 N   0  0  0  0  0  0  0  0  0  0  0  0
  -23.4520  -28.8000   23.2710 O   0  0  0  0  0  0  0  0  0  0  0  0
  -20.9560  -29.8390   21.6600 H   0  0  0  0  0  0  0  0  0  0  0  0
  -18.0630  -28.1020   22.8450 C   0  0  0  0  0  0  0  0  0  0  0  0
  -20.6260  -28.3270   23.1000 C   0  0  0  0  0  3  0  0  0  0  0  0
  -20.7110  -26.9070   22.4980 C   0  0  0  0  0  2  0  0  0  0  0  0
  -19.5990  -26.6120   21.4870 C   0  0  0  0  0  2  0  0  0  0  0  0
  -18.2210  -26.7620   22.1410 C   0  0  0  0  0  2  0  0  0  0  0  0
  -19.1930  -28.8430   23.2800 C   0  0  0  0  0  0  0  0  0  0  0  0
  -18.9950  -30.0980   23.8950 C   0  0  0  0  0  3  0  0  0  0  0  0
  -17.6970  -30.6130   24.0800 C   0  0  0  0  0  3  0  0  0  0  0  0
  -16.5810  -29.8670   23.6630 C   0  0  0  0  0  3  0  0  0  0  0  0
  -16.7640  -28.6150   23.0500 C   0  0  0  0  0  3  0  0  0  0  0  0
  -25.8930  -32.4980   23.8100 C   0  0  0  0  0  3  0  0  0  0  0  0
  -26.3990  -31.7220   25.0880 C   0  0  1  0  0  0  0  0  0  0  0  0
  -25.2940  -31.4780   26.1430 C   0  0  0  0  0  1  0  0  0  0  0  0
  -26.9910  -30.3490   24.6950 C   0  0  0  0  0  1  0  0  0  0  0  0
  -27.5370  -32.5190   25.7680 C   0  0  0  0  0  1  0  0  0  0  0  0
  -25.5730  -33.8920   24.1450 N   0  0  0  0  0  0  0  0  0  0  0  0
  -25.9050  -34.9530   23.3960 C   0  0  0  0  0  0  0  0  0  0  0  0
  -26.5840  -34.8610   22.3690 O   0  0  0  0  0  0  0  0  0  0  0  0
  -24.9700  -34.0340   24.9400 H   0  0  0  0  0  0  0  0  0  0  0  0
  -24.1700  -36.7380   23.0390 C   0  0  0  0  0  1  0  0  0  0  0  0
  -25.4040  -36.3340   23.8600 C   0  0  0  0  0  3  0  0  0  0  0  0
  -27.5230  -37.2280   24.7210 C   0  0  0  0  0  1  0  0  0  0  0  0
  -26.4300  -37.3960   23.7670 N   0  0  0  0  0  0  0  0  0  0  0  0
  -26.0150  -38.3120   23.9150 H   0  0  0  0  0  0  0  0  0  0  0  0
  1 15  1  0
  2  7  1  0
  3  4  1  0
  3  2  1  0
  5  4  1  0
  5 22  1  0
  5  6  1  0
  7  1  1  0
  7  6  1  0
  8  1  2  0
  9 11  1  0
 10  9  2  0
 10 12  1  0
 11 15  1  0
 11 13  2  0
 12 14  2  0
 14 13  1  0
 15 17  1  0
 16 12  1  0
 16 51  1  0
 18 16  1  0
 19 20  2  0
 20 21  1  0
 20 39  1  0
 21 24  1  0
 22 19  1  0
 22 23  1  0
 23 21  2  0
 24 25  1  0
 25 26  2  0
 27 30  1  0
 27 26  1  0
 28 27  2  0
 29 28  1  0
 29 24  2  0
 30 31  1  0
 31 32  1  0
 32 33  2  0
 34 33  1  0
 34 38  1  0
 35 34  2  0
 36 31  2  0
 36 35  1  0
 37 36  1  0
 39 40  1  0
 40 43  1  0
 40 42  1  0
 41 39  2  0
 44 45  1  0
 44 19  1  0
 46 44  1  0
 47 10  1  0
 48 47  1  0
 49 47  1  0
 51 50  1  0
 52 51  1  0
 52 53  2  0
 54 53  1  0
 55 66  2  0
 56 54  1  0
 56 61  1  0
 57 65  1  0
 57 67  1  0
 58 64  1  0
 58 60  1  0
 59 65  1  0
 60 59  1  0
 61 60  2  0
 62 56  2  0
 63 62  1  0
 63 58  2  0
 64 57  1  0
 65 55  1  0
 67 69  2  0
 68 67  1  0
 70 68  1  0
 71 80  2  0
 71 76  1  0
 72 68  1  0
 72 76  1  0
 73 72  1  0
 74 75  1  0
 74 73  1  0
 75 71  1  0
 76 77  2  0
 77 78  1  0
 79 78  2  0
 80 79  1  0
 81 55  1  0
 81 86  1  0
 81 82  1  0
 82 85  1  1
 82 83  1  0
 84 82  1  0
 86 89  1  0
 87 91  1  0
 87 86  1  0
 88 87  2  0
 91 90  1  0
 93 91  1  0
 93 94  1  0
 93 92  1  0
M  ISO  4   1 100  15 100  53 101  54 101
M  END
>  <TORSDO>  (29) 
F 19

>  <SCORE>  (29) 
-14.044

>  <name>  (29) 
28

>  <ligand_id>  (29) 
28

>  <original_smiles>  (29) 
[H]c1c([H])c([H])c2c(c1[H])C([H])([H])C([H])([H])C([H])([H])C2([H])N([H])C(=O)C1([H])N(C(=O)C([H])(N([H])C(=O)C([H])(N([H])C([H])([H])[H])C([H])([H])[H])C(C([H])([H])[H])(C([H])([H])[H])C([H])([H])[H])C([H])([H])c2c([H])c(OC([H])([H])C([H])([H])C([H])(N([H])c3nnc(N([H])C(=O)N4C([H])([H])C([H])([H])C([H])([H])C([H])(n5nc(-c6c([H])c([H])c(Oc7c([H])c([H])c(F)c([H])c7F)c([H])c6[H])c(C(=O)N([H])[H])c5N([H])[H])C4([H])[H])c([H])c3N([H])[H])C([H])([H])[H])c([H])c([H])c2C1([H])[H]

>  <smiles>  (29) 
[H]c1c([H])c([H])c2c(c1[H])C([H])([H])C([H])([H])C([H])([H])C2([H])N([H])C(=O)C1([H])N(C(=O)C([H])(N([H])C(=O)C([H])(N([H])C([H])([H])[H])C([H])([H])[H])C(C([H])([H])[H])(C([H])([H])[H])C([H])([H])[H])C([H])([H])c2c([H])c(OC([H])([H])C([H])([H])C([H])(N([H])c3nnc(N([H])C(=O)N4C([H])([H])C([H])([H])C([H])([H])C([H])(n5nc(-c6c([H])c([H])c(Oc7c([H])c([H])c(F)c([H])c7F)c([H])c6[H])c(C(=O)N([H])[H])c5N([H])[H])C4([H])[H])c([H])c3N([H])[H])C([H])([H])[H])c([H])c([H])c2C1([H])[H]

$$$$
29:0:0
     RDKit          3D

 93101  0  0  1  0  0  0  0  0999 V2000
  -29.0960  -21.3620   19.9290 N   0  0  0  0  0  4  0  0  0  0  0  0
  -28.5360  -20.8060   19.3010 H   0  0  0  0  0  0  0  0  0  0  0  0
  -29.8970  -21.6530   19.3900 H   0  0  0  0  0  0  0  0  0  0  0  0
  -27.2850  -22.3600   21.4320 C   0  0  0  0  0  1  0  0  0  0  0  0
  -28.2370  -22.5710   20.2320 C   0  0  0  0  0  3  0  0  0  0  0  0
  -28.9400  -23.9960   20.2510 C   0  0  0  0  0  2  0  0  0  0  0  0
  -27.9630  -25.1610   19.8430 C   0  0  0  0  0  2  0  0  0  0  0  0
  -28.2620  -26.5840   20.0700 O   0  0  0  0  0  0  0  0  0  0  0  0
  -24.5930  -31.9240   23.2140 C   0  0  0  0  0  0  0  0  0  0  0  0
  -27.1510  -27.4390   20.0360 C   0  0  0  0  0  0  0  0  0  0  0  0
  -23.3590  -30.5440   21.5830 C   0  0  0  0  0  3  0  0  0  0  0  0
  -24.7840  -29.0310   20.1030 C   0  0  0  0  0  0  0  0  0  0  0  0
  -25.8940  -30.8790   21.3520 C   0  0  0  0  0  2  0  0  0  0  0  0
  -25.9610  -29.5130   20.6860 C   0  0  0  0  0  0  0  0  0  0  0  0
  -27.1500  -28.7270   20.6520 C   0  0  0  0  0  3  0  0  0  0  0  0
  -25.9490  -27.0240   19.4080 C   0  0  0  0  0  3  0  0  0  0  0  0
  -24.7780  -27.7920   19.4550 C   0  0  0  0  0  3  0  0  0  0  0  0
  -23.5440  -29.8940   20.1890 C   0  0  0  0  0  2  0  0  0  0  0  0
  -24.6370  -31.1290   22.1070 N   0  0  0  0  0  0  0  0  0  0  0  0
  -23.5210  -32.1900   23.7730 O   0  0  0  0  0  0  0  0  0  0  0  0
  -22.7220  -29.5090   22.5410 C   0  0  0  0  0  0  0  0  0  0  0  0
  -21.3960  -29.3190   22.4270 N   0  0  0  0  0  0  0  0  0  0  0  0
  -23.4170  -28.8820   23.3440 O   0  0  0  0  0  0  0  0  0  0  0  0
  -20.8950  -29.8770   21.7510 H   0  0  0  0  0  0  0  0  0  0  0  0
  -18.0410  -28.0810   22.9450 C   0  0  0  0  0  0  0  0  0  0  0  0
  -20.5970  -28.3670   23.2000 C   0  0  0  0  0  3  0  0  0  0  0  0
  -20.7130  -26.9400   22.6190 C   0  0  0  0  0  2  0  0  0  0  0  0
  -19.6100  -26.6110   21.6080 C   0  0  0  0  0  2  0  0  0  0  0  0
  -18.2280  -26.7380   22.2590 C   0  0  0  0  0  2  0  0  0  0  0  0
  -19.1540  -28.8520   23.3720 C   0  0  0  0  0  0  0  0  0  0  0  0
  -18.9240  -30.1090   23.9730 C   0  0  0  0  0  3  0  0  0  0  0  0
  -17.6160  -30.5960   24.1520 C   0  0  0  0  0  3  0  0  0  0  0  0
  -16.5160  -29.8210   23.7410 C   0  0  0  0  0  3  0  0  0  0  0  0
  -16.7310  -28.5670   23.1420 C   0  0  0  0  0  3  0  0  0  0  0  0
  -25.8890  -32.5510   23.8150 C   0  0  0  0  0  3  0  0  0  0  0  0
  -25.5830  -33.9450   24.1690 N   0  0  0  0  0  0  0  0  0  0  0  0
  -25.8890  -35.0060   23.4100 C   0  0  0  0  0  0  0  0  0  0  0  0
  -26.5300  -34.9170   22.3600 O   0  0  0  0  0  0  0  0  0  0  0  0
  -25.0100  -34.0890   24.9860 H   0  0  0  0  0  0  0  0  0  0  0  0
  -24.1410  -36.7940   23.1200 C   0  0  0  0  0  1  0  0  0  0  0  0
  -25.4060  -36.3870   23.8940 C   0  0  0  0  0  3  0  0  0  0  0  0
  -27.5550  -37.2770   24.6800 C   0  0  0  0  0  1  0  0  0  0  0  0
  -26.4280  -37.4470   23.7650 N   0  0  0  0  0  0  0  0  0  0  0  0
  -26.0210  -38.3640   23.9300 H   0  0  0  0  0  0  0  0  0  0  0  0
  -26.4330  -31.7660   25.0700 C   0  0  1  0  0  0  0  0  0  0  0  0
  -25.3620  -31.5100   26.1560 C   0  0  0  0  0  1  0  0  0  0  0  0
  -27.0150  -30.3960   24.6480 C   0  0  0  0  0  1  0  0  0  0  0  0
  -27.5930  -32.5570   25.7200 C   0  0  0  0  0  1  0  0  0  0  0  0
  -29.5420  -20.4110   21.0060 C   0  0  0  0  0  3  0  0  0  0  0  0
  -29.6840  -18.8950   20.5600 C   0  0  0  0  0  3  0  0  0  0  0  0
  -30.6760  -14.6320   20.1590 C   0  0  0  0  0  0  0  0  0  0  0  0
  -30.3530  -12.4820   18.9600 C   0  0  0  0  0  2  0  0  0  0  0  0
  -29.3670  -12.6580   17.7880 C   0  0  0  0  0  2  0  0  0  0  0  0
  -27.9070  -12.5090   18.2660 C   0  0  0  0  0  2  0  0  0  0  0  0
  -27.6020  -13.3300   19.5480 C   0  0  0  0  0  3  0  0  0  0  0  0
  -28.7000  -13.1260   20.6150 C   0  0  0  0  0  2  0  0  0  0  0  0
  -29.9850  -13.4660   19.9910 N   0  0  0  0  0  0  0  0  0  0  0  0
  -31.8180  -14.7810   19.7100 O   0  0  0  0  0  0  0  0  0  0  0  0
  -31.3000  -17.3030   23.4540 C   0  0  0  0  0  3  0  0  0  0  0  0
  -30.8340  -18.4070   22.7860 C   0  0  0  0  0  3  0  0  0  0  0  0
  -30.4550  -16.6280   21.5900 C   0  0  0  0  0  0  0  0  0  0  0  0
  -31.0550  -16.1730   22.6870 N   0  0  0  0  0  0  0  0  0  0  0  0
  -30.2760  -17.9870   21.5740 N   0  0  0  0  0  0  0  0  0  0  0  0
  -29.9740  -15.6990   20.6190 N   0  0  0  0  0  0  0  0  0  0  0  0
  -28.9730  -15.5980   20.6030 H   0  0  0  0  0  0  0  0  0  0  0  0
  -25.2260  -13.9090   20.3340 C   0  0  0  0  0  0  0  0  0  0  0  0
  -24.1740  -13.1270   20.7310 C   0  0  0  0  0  0  0  0  0  0  0  0
  -24.6480  -11.7790   20.6860 C   0  0  0  0  0  0  0  0  0  0  0  0
  -26.2710  -13.0380   20.0710 N   0  0  0  0  0  0  0  0  0  0  0  0
  -25.9300  -11.7520   20.3430 N   0  0  0  0  0  0  0  0  0  0  0  0
  -23.9370  -10.5100   20.8930 C   0  0  0  0  0  0  0  0  0  0  0  0
  -24.3860   -9.5590   21.8360 C   0  0  0  0  0  3  0  0  0  0  0  0
  -23.6760   -8.3550   22.0300 C   0  0  0  0  0  3  0  0  0  0  0  0
  -22.5040   -8.0930   21.2820 C   0  0  0  0  0  0  0  0  0  0  0  0
  -22.0730   -9.0330   20.3280 C   0  0  0  0  0  3  0  0  0  0  0  0
  -22.7840  -10.2290   20.1320 C   0  0  0  0  0  3  0  0  0  0  0  0
  -21.7630   -6.9410   21.3850 O   0  0  0  0  0  0  0  0  0  0  0  0
  -21.7160   -6.2190   22.5510 C   0  0  0  0  0  0  0  0  0  0  0  0
  -21.2680   -6.7890   23.7630 C   0  0  0  0  0  3  0  0  0  0  0  0
  -21.1680   -5.9910   24.9210 C   0  0  0  0  0  3  0  0  0  0  0  0
  -21.5050   -4.6260   24.8680 C   0  0  0  0  0  0  0  0  0  0  0  0
  -21.9460   -4.0560   23.6600 C   0  0  0  0  0  3  0  0  0  0  0  0
  -22.0480   -4.8500   22.5050 C   0  0  0  0  0  0  0  0  0  0  0  0
  -22.4530   -4.2900   21.3390 F   0  0  0  0  0  0  0  0  0  0  0  0
  -21.4030   -3.8580   25.9780 F   0  0  0  0  0  0  0  0  0  0  0  0
  -22.7800  -13.5930   21.0340 C   0  0  0  0  0  0  0  0  0  0  0  0
  -22.0760  -12.8880   21.9130 N   0  0  0  0  0  0  0  0  0  0  0  0
  -22.3240  -14.6190   20.5300 O   0  0  0  0  0  0  0  0  0  0  0  0
  -22.4560  -12.0610   22.3480 H   0  0  0  0  0  0  0  0  0  0  0  0
  -21.1410  -13.1830   22.1560 H   0  0  0  0  0  0  0  0  0  0  0  0
  -25.3700  -15.2820   20.1540 N   0  0  0  0  0  0  0  0  0  0  0  0
  -24.5890  -15.9180   20.2740 H   0  0  0  0  0  0  0  0  0  0  0  0
  -26.1840  -15.7300   19.7550 H   0  0  0  0  0  0  0  0  0  0  0  0
  1  5  1  0
  1 49  1  0
  2  1  1  0
  3  1  1  0
  5  6  1  0
  5  4  1  0
  7  8  1  0
  7  6  1  0
  9 20  2  0
 10  8  1  0
 10 15  1  0
 11 19  1  0
 11 21  1  0
 12 18  1  0
 12 14  1  0
 13 19  1  0
 14 13  1  0
 15 14  2  0
 16 17  1  0
 16 10  2  0
 17 12  2  0
 18 11  1  0
 19  9  1  0
 21 23  2  0
 22 21  1  0
 24 22  1  0
 25 34  2  0
 25 30  1  0
 26 22  1  0
 26 30  1  0
 27 26  1  0
 28 29  1  0
 28 27  1  0
 29 25  1  0
 30 31  2  0
 31 32  1  0
 33 32  2  0
 34 33  1  0
 35  9  1  0
 35 36  1  0
 35 45  1  0
 36 39  1  0
 37 41  1  0
 37 36  1  0
 38 37  2  0
 41 40  1  0
 43 41  1  0
 43 44  1  0
 43 42  1  0
 45 48  1  1
 45 46  1  0
 47 45  1  0
 50 49  2  0
 50 63  1  0
 51 64  1  0
 52 57  1  0
 53 54  1  0
 53 52  1  0
 55 54  1  0
 55 69  1  0
 55 56  1  0
 57 51  1  0
 57 56  1  0
 58 51  2  0
 60 59  2  0
 61 62  2  0
 62 59  1  0
 63 61  1  0
 63 60  1  0
 64 61  1  0
 65 64  1  0
 66 67  2  0
 67 86  1  0
 68 67  1  0
 68 71  1  0
 69 66  1  0
 69 70  1  0
 70 68  2  0
 71 72  1  0
 72 73  2  0
 74 77  1  0
 74 73  1  0
 75 74  2  0
 76 75  1  0
 76 71  2  0
 77 78  1  0
 78 79  1  0
 79 80  2  0
 81 80  1  0
 81 85  1  0
 82 81  2  0
 83 78  2  0
 83 82  1  0
 84 83  1  0
 86 87  1  0
 87 90  1  0
 87 89  1  0
 88 86  2  0
 91 92  1  0
 91 66  1  0
 93 91  1  0
M  ISO  4   7 101   8 101  51 100  64 100
M  END
>  <TORSDO>  (30) 
F 21

>  <SCORE>  (30) 
-12.069

>  <name>  (30) 
29

>  <ligand_id>  (30) 
29

>  <original_smiles>  (30) 
[H]c1nc(N([H])C(=O)N2C([H])([H])C([H])([H])C([H])([H])C([H])(n3nc(-c4c([H])c([H])c(Oc5c([H])c([H])c(F)c([H])c5F)c([H])c4[H])c(C(=O)N([H])[H])c3N([H])[H])C2([H])[H])n(C([H])([H])C([H])([H])[N+]([H])([H])C([H])(C([H])([H])[H])C([H])([H])C([H])([H])Oc2c([H])c([H])c3c(c2[H])C([H])([H])N(C(=O)C([H])(N([H])C(=O)C([H])(N([H])C([H])([H])[H])C([H])([H])[H])C(C([H])([H])[H])(C([H])([H])[H])C([H])([H])[H])C([H])(C(=O)N([H])C2([H])c4c([H])c([H])c([H])c([H])c4C([H])([H])C([H])([H])C2([H])[H])C3([H])[H])c1[H]

>  <smiles>  (30) 
[H]c1nc(N([H])C(=O)N2C([H])([H])C([H])([H])C([H])([H])C([H])(n3nc(-c4c([H])c([H])c(Oc5c([H])c([H])c(F)c([H])c5F)c([H])c4[H])c(C(=O)N([H])[H])c3N([H])[H])C2([H])[H])n(C([H])([H])C([H])([H])[N+]([H])([H])C([H])(C([H])([H])[H])C([H])([H])C([H])([H])Oc2c([H])c([H])c3c(c2[H])C([H])([H])N(C(=O)C([H])(N([H])C(=O)C([H])(N([H])C([H])([H])[H])C([H])([H])[H])C(C([H])([H])[H])(C([H])([H])[H])C([H])([H])[H])C([H])(C(=O)N([H])C2([H])c4c([H])c([H])c([H])c([H])c4C([H])([H])C([H])([H])C2([H])[H])C3([H])[H])c1[H]

$$$$
30:0:0
     RDKit          3D

 92100  0  0  1  0  0  0  0  0999 V2000
  -29.8500  -21.9300   20.9280 N   0  0  0  0  0  4  0  0  0  0  0  0
  -29.4530  -21.7270   20.0260 H   0  0  0  0  0  0  0  0  0  0  0  0
  -30.8350  -22.0900   20.7990 H   0  0  0  0  0  0  0  0  0  0  0  0
  -29.7450  -23.5540   22.8570 C   0  0  0  0  0  1  0  0  0  0  0  0
  -29.2070  -23.1820   21.4540 C   0  0  0  0  0  3  0  0  0  0  0  0
  -29.3200  -24.3990   20.4750 C   0  0  0  0  0  2  0  0  0  0  0  0
  -28.4360  -25.6110   20.8870 C   0  0  0  0  0  2  0  0  0  0  0  0
  -28.5420  -26.7680   20.0400 O   0  0  0  0  0  0  0  0  0  0  0  0
  -24.5790  -31.8160   23.1610 C   0  0  0  0  0  0  0  0  0  0  0  0
  -27.3870  -27.5170   20.0240 C   0  0  0  0  0  0  0  0  0  0  0  0
  -23.4360  -30.4190   21.4710 C   0  0  0  0  0  3  0  0  0  0  0  0
  -24.9540  -28.9560   20.0340 C   0  0  0  0  0  0  0  0  0  0  0  0
  -25.9540  -30.8520   21.3180 C   0  0  0  0  0  2  0  0  0  0  0  0
  -26.0900  -29.4980   20.6490 C   0  0  0  0  0  0  0  0  0  0  0  0
  -27.3130  -28.7890   20.6400 C   0  0  0  0  0  3  0  0  0  0  0  0
  -26.2390  -26.9920   19.3970 C   0  0  0  0  0  3  0  0  0  0  0  0
  -25.0240  -27.7020   19.4010 C   0  0  0  0  0  3  0  0  0  0  0  0
  -23.6850  -29.7770   20.0800 C   0  0  0  0  0  2  0  0  0  0  0  0
  -24.6730  -31.0430   22.0430 N   0  0  0  0  0  0  0  0  0  0  0  0
  -23.4820  -32.0460   23.6900 O   0  0  0  0  0  0  0  0  0  0  0  0
  -22.7980  -29.3600   22.3990 C   0  0  0  0  0  0  0  0  0  0  0  0
  -21.4780  -29.1550   22.2570 N   0  0  0  0  0  0  0  0  0  0  0  0
  -23.4880  -28.7280   23.2030 O   0  0  0  0  0  0  0  0  0  0  0  0
  -20.9810  -29.7210   21.5830 H   0  0  0  0  0  0  0  0  0  0  0  0
  -18.1220  -27.8870   22.6950 C   0  0  0  0  0  0  0  0  0  0  0  0
  -20.6730  -28.1830   22.9960 C   0  0  0  0  0  3  0  0  0  0  0  0
  -20.8050  -26.7680   22.3820 C   0  0  0  0  0  2  0  0  0  0  0  0
  -19.7180  -26.4550   21.3500 C   0  0  0  0  0  2  0  0  0  0  0  0
  -18.3290  -26.5580   21.9870 C   0  0  0  0  0  2  0  0  0  0  0  0
  -19.2240  -28.6560   23.1560 C   0  0  0  0  0  0  0  0  0  0  0  0
  -18.9770  -29.8990   23.7760 C   0  0  0  0  0  3  0  0  0  0  0  0
  -17.6630  -30.3730   23.9430 C   0  0  0  0  0  3  0  0  0  0  0  0
  -16.5750  -29.6010   23.4990 C   0  0  0  0  0  3  0  0  0  0  0  0
  -16.8060  -28.3580   22.8810 C   0  0  0  0  0  3  0  0  0  0  0  0
  -25.8380  -32.4680   23.8140 C   0  0  0  0  0  3  0  0  0  0  0  0
  -26.3550  -31.6860   25.0840 C   0  0  1  0  0  0  0  0  0  0  0  0
  -25.2510  -31.3970   26.1290 C   0  0  0  0  0  1  0  0  0  0  0  0
  -26.9800  -30.3330   24.6720 C   0  0  0  0  0  1  0  0  0  0  0  0
  -27.4710  -32.4970   25.7820 C   0  0  0  0  0  1  0  0  0  0  0  0
  -25.4910  -33.8520   24.1610 N   0  0  0  0  0  0  0  0  0  0  0  0
  -25.8130  -34.9230   23.4230 C   0  0  0  0  0  0  0  0  0  0  0  0
  -26.5030  -34.8510   22.4030 O   0  0  0  0  0  0  0  0  0  0  0  0
  -24.8780  -33.9800   24.9530 H   0  0  0  0  0  0  0  0  0  0  0  0
  -24.0520  -36.6820   23.0590 C   0  0  0  0  0  1  0  0  0  0  0  0
  -25.2830  -36.2920   23.8920 C   0  0  0  0  0  3  0  0  0  0  0  0
  -27.3750  -37.2120   24.7920 C   0  0  0  0  0  1  0  0  0  0  0  0
  -26.2950  -37.3690   23.8210 N   0  0  0  0  0  0  0  0  0  0  0  0
  -25.8650  -38.2780   23.9710 H   0  0  0  0  0  0  0  0  0  0  0  0
  -29.6640  -20.7210   21.7830 C   0  0  0  0  0  2  0  0  0  0  0  0
  -30.9080  -14.5890   20.0760 C   0  0  0  0  0  0  0  0  0  0  0  0
  -30.5660  -12.4590   18.8690 C   0  0  0  0  0  2  0  0  0  0  0  0
  -29.5410  -12.6890   17.7380 C   0  0  0  0  0  2  0  0  0  0  0  0
  -28.0960  -12.5390   18.2560 C   0  0  0  0  0  2  0  0  0  0  0  0
  -27.8450  -13.3360   19.5630 C   0  0  0  0  0  3  0  0  0  0  0  0
  -28.9650  -13.0600   20.5910 C   0  0  0  0  0  2  0  0  0  0  0  0
  -30.2530  -13.3990   19.9560 N   0  0  0  0  0  0  0  0  0  0  0  0
  -31.9910  -14.8070   19.5200 O   0  0  0  0  0  0  0  0  0  0  0  0
  -31.2230  -19.0300   20.5240 C   0  0  0  0  0  3  0  0  0  0  0  0
  -30.0830  -19.3800   21.2130 C   0  0  0  0  0  0  0  0  0  0  0  0
  -30.3440  -16.9410   20.8020 C   0  0  0  0  0  0  0  0  0  0  0  0
  -31.3580  -17.6490   20.2880 N   0  0  0  0  0  0  0  0  0  0  0  0
  -30.2210  -15.5210   20.7660 N   0  0  0  0  0  0  0  0  0  0  0  0
  -29.1270  -17.9550   21.5710 S   0  0  0  0  0  0  0  0  0  0  0  0
  -29.3900  -15.1620   21.2060 H   0  0  0  0  0  0  0  0  0  0  0  0
  -25.5020  -13.9390   20.4480 C   0  0  0  0  0  0  0  0  0  0  0  0
  -24.4510  -13.1610   20.8540 C   0  0  0  0  0  0  0  0  0  0  0  0
  -24.8950  -11.8070   20.7390 C   0  0  0  0  0  0  0  0  0  0  0  0
  -26.5200  -13.0580   20.1150 N   0  0  0  0  0  0  0  0  0  0  0  0
  -26.1610  -11.7700   20.3450 N   0  0  0  0  0  0  0  0  0  0  0  0
  -24.1680  -10.5440   20.9240 C   0  0  0  0  0  0  0  0  0  0  0  0
  -24.5900   -9.5840   21.8710 C   0  0  0  0  0  3  0  0  0  0  0  0
  -23.8660   -8.3840   22.0440 C   0  0  0  0  0  3  0  0  0  0  0  0
  -22.7080   -8.1360   21.2690 C   0  0  0  0  0  0  0  0  0  0  0  0
  -22.3060   -9.0850   20.3120 C   0  0  0  0  0  3  0  0  0  0  0  0
  -23.0310  -10.2760   20.1380 C   0  0  0  0  0  3  0  0  0  0  0  0
  -21.9560   -6.9890   21.3500 O   0  0  0  0  0  0  0  0  0  0  0  0
  -21.7970   -6.3150   22.5350 C   0  0  0  0  0  0  0  0  0  0  0  0
  -21.2180   -6.9280   23.6680 C   0  0  0  0  0  3  0  0  0  0  0  0
  -21.0080   -6.1790   24.8430 C   0  0  0  0  0  3  0  0  0  0  0  0
  -21.3700   -4.8190   24.8860 C   0  0  0  0  0  0  0  0  0  0  0  0
  -21.9410   -4.2060   23.7570 C   0  0  0  0  0  3  0  0  0  0  0  0
  -22.1520   -4.9520   22.5850 C   0  0  0  0  0  0  0  0  0  0  0  0
  -22.6840   -4.3530   21.4920 F   0  0  0  0  0  0  0  0  0  0  0  0
  -21.1620   -4.0970   26.0120 F   0  0  0  0  0  0  0  0  0  0  0  0
  -23.0790  -13.6370   21.2370 C   0  0  0  0  0  0  0  0  0  0  0  0
  -22.4020  -12.9100   22.1190 N   0  0  0  0  0  0  0  0  0  0  0  0
  -22.6200  -14.6870   20.7920 O   0  0  0  0  0  0  0  0  0  0  0  0
  -22.7880  -12.0570   22.4990 H   0  0  0  0  0  0  0  0  0  0  0  0
  -21.4850  -13.2090   22.4190 H   0  0  0  0  0  0  0  0  0  0  0  0
  -25.6730  -15.3130   20.3150 N   0  0  0  0  0  0  0  0  0  0  0  0
  -24.9250  -15.9720   20.5020 H   0  0  0  0  0  0  0  0  0  0  0  0
  -26.4970  -15.7520   19.9240 H   0  0  0  0  0  0  0  0  0  0  0  0
  1  5  1  0
  1 49  1  0
  2  1  1  0
  3  1  1  0
  5  4  1  0
  6  7  1  0
  6  5  1  0
  8  7  1  0
  9 20  2  0
 10  8  1  0
 10 15  1  0
 11 19  1  0
 11 21  1  0
 12 18  1  0
 12 14  1  0
 13 19  1  0
 14 13  1  0
 15 14  2  0
 16 17  1  0
 16 10  2  0
 17 12  2  0
 18 11  1  0
 19  9  1  0
 21 23  2  0
 22 21  1  0
 24 22  1  0
 25 34  2  0
 25 30  1  0
 26 22  1  0
 26 30  1  0
 27 26  1  0
 28 29  1  0
 28 27  1  0
 29 25  1  0
 30 31  2  0
 31 32  1  0
 33 32  2  0
 34 33  1  0
 35  9  1  0
 35 40  1  0
 35 36  1  0
 36 39  1  1
 36 37  1  0
 38 36  1  0
 40 43  1  0
 41 45  1  0
 41 40  1  0
 42 41  2  0
 45 44  1  0
 47 45  1  0
 47 48  1  0
 47 46  1  0
 50 62  1  0
 51 56  1  0
 52 53  1  0
 52 51  1  0
 54 53  1  0
 54 68  1  0
 54 55  1  0
 56 50  1  0
 56 55  1  0
 57 50  2  0
 58 59  2  0
 59 63  1  0
 59 49  1  0
 60 63  1  0
 61 58  1  0
 61 60  2  0
 62 60  1  0
 62 64  1  0
 65 66  2  0
 66 85  1  0
 67 66  1  0
 67 70  1  0
 68 69  1  0
 68 65  1  0
 69 67  2  0
 70 71  1  0
 71 72  2  0
 73 76  1  0
 73 72  1  0
 74 73  2  0
 75 74  1  0
 75 70  2  0
 76 77  1  0
 77 82  2  0
 77 78  1  0
 78 79  2  0
 79 80  1  0
 80 84  1  0
 81 80  2  0
 82 81  1  0
 83 82  1  0
 85 86  1  0
 86 89  1  0
 86 88  1  0
 87 85  2  0
 90 65  1  0
 90 91  1  0
 92 90  1  0
M  ISO  4   7 101   8 101  50 100  62 100
M  END
>  <TORSDO>  (31) 
F 20

>  <SCORE>  (31) 
-12.445

>  <name>  (31) 
30

>  <ligand_id>  (31) 
30

>  <original_smiles>  (31) 
[H]c1nc(N([H])C(=O)N2C([H])([H])C([H])([H])C([H])([H])C([H])(n3nc(-c4c([H])c([H])c(Oc5c([H])c([H])c(F)c([H])c5F)c([H])c4[H])c(C(=O)N([H])[H])c3N([H])[H])C2([H])[H])sc1C([H])([H])[N+]([H])([H])C([H])(C([H])([H])[H])C([H])([H])C([H])([H])Oc1c([H])c([H])c2c(c1[H])C([H])([H])N(C(=O)C([H])(N([H])C(=O)C([H])(N([H])C([H])([H])[H])C([H])([H])[H])C(C([H])([H])[H])(C([H])([H])[H])C([H])([H])[H])C([H])(C(=O)N([H])C1([H])c3c([H])c([H])c([H])c([H])c3C([H])([H])C([H])([H])C1([H])[H])C2([H])[H]

>  <smiles>  (31) 
[H]c1nc(N([H])C(=O)N2C([H])([H])C([H])([H])C([H])([H])C([H])(n3nc(-c4c([H])c([H])c(Oc5c([H])c([H])c(F)c([H])c5F)c([H])c4[H])c(C(=O)N([H])[H])c3N([H])[H])C2([H])[H])sc1C([H])([H])[N+]([H])([H])C([H])(C([H])([H])[H])C([H])([H])C([H])([H])Oc1c([H])c([H])c2c(c1[H])C([H])([H])N(C(=O)C([H])(N([H])C(=O)C([H])(N([H])C([H])([H])[H])C([H])([H])[H])C(C([H])([H])[H])(C([H])([H])[H])C([H])([H])[H])C([H])(C(=O)N([H])C1([H])c3c([H])c([H])c([H])c([H])c3C([H])([H])C([H])([H])C1([H])[H])C2([H])[H]

$$$$
31:0:0
     RDKit          3D

 94102  0  0  1  0  0  0  0  0999 V2000
  -29.5650  -18.5320   20.0980 C   0  0  0  0  0  0  0  0  0  0  0  0
  -27.4930  -19.1330   19.5960 C   0  0  0  0  0  0  0  0  0  0  0  0
  -28.9570  -20.7720   19.9360 C   0  0  0  0  0  0  0  0  0  0  0  0
  -28.3330  -18.1340   19.8080 N   0  0  0  0  0  4  0  0  0  0  0  0
  -29.9340  -19.8530   20.1930 N   0  0  0  0  0  0  0  0  0  0  0  0
  -27.7090  -20.4460   19.6260 N   0  0  0  0  0  2  0  0  0  0  0  0
  -26.2320  -18.7310   19.2710 N   0  0  0  0  0  0  0  0  0  0  0  0
  -29.2450  -22.1840   20.0920 N   0  0  0  0  0  0  0  0  0  0  0  0
  -25.4860  -19.4080   19.3680 H   0  0  0  0  0  0  0  0  0  0  0  0
  -25.9780  -17.7800   19.5070 H   0  0  0  0  0  0  0  0  0  0  0  0
  -30.1980  -22.3090   20.4050 H   0  0  0  0  0  0  0  0  0  0  0  0
  -29.6310  -23.8280   18.2390 C   0  0  0  0  0  1  0  0  0  0  0  0
  -28.7000  -23.4560   19.4160 C   0  0  0  0  0  3  0  0  0  0  0  0
  -28.3450  -24.7910   20.3280 C   0  0  0  0  0  2  0  0  0  0  0  0
  -28.4630  -26.2640   19.9600 O   0  0  0  0  0  0  0  0  0  0  0  0
  -24.5760  -31.6310   23.1080 C   0  0  0  0  0  0  0  0  0  0  0  0
  -27.3480  -27.1390   19.9950 C   0  0  0  0  0  0  0  0  0  0  0  0
  -23.4580  -30.2570   21.3920 C   0  0  0  0  0  3  0  0  0  0  0  0
  -24.9780  -28.7660   19.9690 C   0  0  0  0  0  0  0  0  0  0  0  0
  -26.0040  -30.6020   21.3110 C   0  0  0  0  0  2  0  0  0  0  0  0
  -26.1260  -29.2390   20.6200 C   0  0  0  0  0  0  0  0  0  0  0  0
  -27.3190  -28.4380   20.6160 C   0  0  0  0  0  3  0  0  0  0  0  0
  -26.1760  -26.7350   19.3300 C   0  0  0  0  0  3  0  0  0  0  0  0
  -25.0080  -27.5230   19.3160 C   0  0  0  0  0  3  0  0  0  0  0  0
  -23.7330  -29.6330   19.9990 C   0  0  0  0  0  2  0  0  0  0  0  0
  -24.6970  -30.8480   21.9930 N   0  0  0  0  0  0  0  0  0  0  0  0
  -23.4690  -31.8720   23.6120 O   0  0  0  0  0  0  0  0  0  0  0  0
  -22.7790  -29.2020   22.2990 C   0  0  0  0  0  0  0  0  0  0  0  0
  -21.4500  -29.0420   22.1600 N   0  0  0  0  0  0  0  0  0  0  0  0
  -23.4460  -28.5340   23.0930 O   0  0  0  0  0  0  0  0  0  0  0  0
  -20.9640  -29.6310   21.4980 H   0  0  0  0  0  0  0  0  0  0  0  0
  -18.0570  -27.8810   22.6450 C   0  0  0  0  0  0  0  0  0  0  0  0
  -20.6240  -28.0700   22.8820 C   0  0  0  0  0  3  0  0  0  0  0  0
  -20.6870  -26.6800   22.2110 C   0  0  0  0  0  2  0  0  0  0  0  0
  -19.5620  -26.4490   21.1990 C   0  0  0  0  0  2  0  0  0  0  0  0
  -18.1960  -26.5770   21.8760 C   0  0  0  0  0  2  0  0  0  0  0  0
  -19.2010  -28.5880   23.1030 C   0  0  0  0  0  0  0  0  0  0  0  0
  -19.0220  -29.8120   23.7870 C   0  0  0  0  0  3  0  0  0  0  0  0
  -17.7300  -30.3270   24.0130 C   0  0  0  0  0  3  0  0  0  0  0  0
  -16.6030  -29.6160   23.5660 C   0  0  0  0  0  3  0  0  0  0  0  0
  -16.7650  -28.3910   22.8940 C   0  0  0  0  0  3  0  0  0  0  0  0
  -25.8220  -32.2740   23.7870 C   0  0  0  0  0  3  0  0  0  0  0  0
  -26.2940  -31.4960   25.0760 C   0  0  1  0  0  0  0  0  0  0  0  0
  -25.1600  -31.2360   26.0960 C   0  0  0  0  0  1  0  0  0  0  0  0
  -26.9070  -30.1250   24.6990 C   0  0  0  0  0  1  0  0  0  0  0  0
  -27.4070  -32.2960   25.7940 C   0  0  0  0  0  1  0  0  0  0  0  0
  -25.4770  -33.6620   24.1230 N   0  0  0  0  0  0  0  0  0  0  0  0
  -25.8350  -34.7340   23.4020 C   0  0  0  0  0  0  0  0  0  0  0  0
  -26.5580  -34.6580   22.4050 O   0  0  0  0  0  0  0  0  0  0  0  0
  -24.8410  -33.7960   24.8950 H   0  0  0  0  0  0  0  0  0  0  0  0
  -24.0980  -36.5140   23.0040 C   0  0  0  0  0  1  0  0  0  0  0  0
  -25.3080  -36.1100   23.8600 C   0  0  0  0  0  3  0  0  0  0  0  0
  -27.3880  -37.0160   24.8030 C   0  0  0  0  0  1  0  0  0  0  0  0
  -26.3300  -37.1800   23.8070 N   0  0  0  0  0  0  0  0  0  0  0  0
  -25.9030  -38.0920   23.9470 H   0  0  0  0  0  0  0  0  0  0  0  0
  -30.6050  -17.3450   20.3510 C   0  0  0  0  0  2  0  0  0  0  0  0
  -30.8510  -14.7180   20.3580 C   0  0  0  0  0  0  0  0  0  0  0  0
  -30.5930  -12.4280   19.3800 C   0  0  0  0  0  2  0  0  0  0  0  0
  -29.6780  -12.5040   18.1390 C   0  0  0  0  0  2  0  0  0  0  0  0
  -28.2090  -12.3270   18.5580 C   0  0  0  0  0  2  0  0  0  0  0  0
  -27.8270  -13.2540   19.7410 C   0  0  0  0  0  3  0  0  0  0  0  0
  -28.8670  -13.2020   20.8810 C   0  0  0  0  0  2  0  0  0  0  0  0
  -30.1800  -13.5120   20.3030 N   0  0  0  0  0  0  0  0  0  0  0  0
  -32.0420  -14.7640   20.0440 O   0  0  0  0  0  0  0  0  0  0  0  0
  -30.1390  -15.8970   20.5530 N   0  0  0  0  0  0  0  0  0  0  0  0
  -29.1620  -15.8250   20.7900 H   0  0  0  0  0  0  0  0  0  0  0  0
  -25.4490  -13.8890   20.4420 C   0  0  0  0  0  0  0  0  0  0  0  0
  -24.3660  -13.1370   20.8000 C   0  0  0  0  0  0  0  0  0  0  0  0
  -24.8080  -11.7790   20.7990 C   0  0  0  0  0  0  0  0  0  0  0  0
  -26.4790  -12.9920   20.2260 N   0  0  0  0  0  0  0  0  0  0  0  0
  -26.1020  -11.7170   20.5080 N   0  0  0  0  0  0  0  0  0  0  0  0
  -24.0580  -10.5280   20.9920 C   0  0  0  0  0  0  0  0  0  0  0  0
  -24.4620   -9.5640   21.9420 C   0  0  0  0  0  3  0  0  0  0  0  0
  -23.7140   -8.3810   22.1210 C   0  0  0  0  0  3  0  0  0  0  0  0
  -22.5480   -8.1510   21.3550 C   0  0  0  0  0  0  0  0  0  0  0  0
  -22.1650   -9.1020   20.3940 C   0  0  0  0  0  3  0  0  0  0  0  0
  -22.9130  -10.2780   20.2110 C   0  0  0  0  0  3  0  0  0  0  0  0
  -21.7750   -7.0190   21.4460 O   0  0  0  0  0  0  0  0  0  0  0  0
  -21.6950   -6.2940   22.6090 C   0  0  0  0  0  0  0  0  0  0  0  0
  -21.2440   -6.8710   23.8160 C   0  0  0  0  0  3  0  0  0  0  0  0
  -21.1090   -6.0730   24.9690 C   0  0  0  0  0  3  0  0  0  0  0  0
  -21.4130   -4.7010   24.9160 C   0  0  0  0  0  0  0  0  0  0  0  0
  -21.8630   -4.1240   23.7150 C   0  0  0  0  0  3  0  0  0  0  0  0
  -22.0000   -4.9190   22.5640 C   0  0  0  0  0  0  0  0  0  0  0  0
  -22.4090   -4.3560   21.4010 F   0  0  0  0  0  0  0  0  0  0  0  0
  -21.2740   -3.9290   26.0210 F   0  0  0  0  0  0  0  0  0  0  0  0
  -22.9730  -13.6380   21.0440 C   0  0  0  0  0  0  0  0  0  0  0  0
  -22.2260  -12.9760   21.9210 N   0  0  0  0  0  0  0  0  0  0  0  0
  -22.5550  -14.6530   20.4880 O   0  0  0  0  0  0  0  0  0  0  0  0
  -22.5770  -12.1520   22.3880 H   0  0  0  0  0  0  0  0  0  0  0  0
  -21.2940  -13.3030   22.1300 H   0  0  0  0  0  0  0  0  0  0  0  0
  -25.6480  -15.2520   20.2520 N   0  0  0  0  0  0  0  0  0  0  0  0
  -24.8980  -15.9310   20.2980 H   0  0  0  0  0  0  0  0  0  0  0  0
  -26.5280  -15.6580   19.9570 H   0  0  0  0  0  0  0  0  0  0  0  0
  1  5  1  0
  1 56  1  0
  2  6  1  0
  2  4  2  0
  3  8  1  0
  3  5  2  0
  4  1  2  0
  6  3  1  0
  7  9  1  0
  7 10  1  0
  7  2  1  0
  8 11  1  0
 13 12  1  0
 13  8  1  0
 13 14  1  0
 15 17  1  0
 15 14  1  0
 16 27  2  0
 17 22  1  0
 18 26  1  0
 18 28  1  0
 19 25  1  0
 19 21  1  0
 20 26  1  0
 21 20  1  0
 22 21  2  0
 23 17  2  0
 24 23  1  0
 24 19  2  0
 25 18  1  0
 26 16  1  0
 28 30  2  0
 29 28  1  0
 31 29  1  0
 32 41  2  0
 32 37  1  0
 33 29  1  0
 33 37  1  0
 34 33  1  0
 35 36  1  0
 35 34  1  0
 36 32  1  0
 37 38  2  0
 38 39  1  0
 40 39  2  0
 41 40  1  0
 42 16  1  0
 42 47  1  0
 42 43  1  0
 43 46  1  1
 43 44  1  0
 45 43  1  0
 47 50  1  0
 48 52  1  0
 48 47  1  0
 49 48  2  0
 52 51  1  0
 54 52  1  0
 54 55  1  0
 54 53  1  0
 56 65  1  0
 57 65  1  0
 58 63  1  0
 59 60  1  0
 59 58  1  0
 61 60  1  0
 61 70  1  0
 61 62  1  0
 63 57  1  0
 63 62  1  0
 64 57  2  0
 65 66  1  0
 67 68  2  0
 68 87  1  0
 69 68  1  0
 69 72  1  0
 70 67  1  0
 70 71  1  0
 71 69  2  0
 72 73  1  0
 73 74  2  0
 75 78  1  0
 75 74  1  0
 76 75  2  0
 77 76  1  0
 77 72  2  0
 78 79  1  0
 79 80  1  0
 80 81  2  0
 82 81  1  0
 82 86  1  0
 83 82  2  0
 84 79  2  0
 84 83  1  0
 85 84  1  0
 87 88  1  0
 88 91  1  0
 88 90  1  0
 89 87  2  0
 92 93  1  0
 92 67  1  0
 94 92  1  0
M  ISO  4  14 101  15 101  57 100  65 100
M  END
>  <TORSDO>  (32) 
F 19

>  <SCORE>  (32) 
-13.900

>  <name>  (32) 
31

>  <ligand_id>  (32) 
31

>  <original_smiles>  (32) 
[H]c1c([H])c([H])c2c(c1[H])C([H])([H])C([H])([H])C([H])([H])C2([H])N([H])C(=O)C1([H])N(C(=O)C([H])(N([H])C(=O)C([H])(N([H])C([H])([H])[H])C([H])([H])[H])C(C([H])([H])[H])(C([H])([H])[H])C([H])([H])[H])C([H])([H])c2c([H])c(OC([H])([H])C([H])(N([H])c3nc(N([H])[H])nc(C([H])([H])N([H])C(=O)N4C([H])([H])C([H])([H])C([H])([H])C([H])(n5nc(-c6c([H])c([H])c(Oc7c([H])c([H])c(F)c([H])c7F)c([H])c6[H])c(C(=O)N([H])[H])c5N([H])[H])C4([H])[H])n3)C([H])([H])[H])c([H])c([H])c2C1([H])[H]

>  <smiles>  (32) 
[H]c1c([H])c([H])c2c(c1[H])C([H])([H])C([H])([H])C([H])([H])C2([H])N([H])C(=O)C1([H])N(C(=O)C([H])(N([H])C(=O)C([H])(N([H])C([H])([H])[H])C([H])([H])[H])C(C([H])([H])[H])(C([H])([H])[H])C([H])([H])[H])C([H])([H])c2c([H])c(OC([H])([H])C([H])(N([H])c3nc(N([H])[H])nc(C([H])([H])N([H])C(=O)N4C([H])([H])C([H])([H])C([H])([H])C([H])(n5nc(-c6c([H])c([H])c(Oc7c([H])c([H])c(F)c([H])c7F)c([H])c6[H])c(C(=O)N([H])[H])c5N([H])[H])C4([H])[H])n3)C([H])([H])[H])c([H])c([H])c2C1([H])[H]

$$$$
32:0:0
     RDKit          3D

 94102  0  0  1  0  0  0  0  0999 V2000
  -30.5880  -14.8390   20.4110 C   0  0  0  0  0  0  0  0  0  0  0  0
  -30.3770  -12.5450   19.4440 C   0  0  0  0  0  2  0  0  0  0  0  0
  -29.4670  -12.6090   18.2000 C   0  0  0  0  0  2  0  0  0  0  0  0
  -27.9830  -12.4570   18.5960 C   0  0  0  0  0  2  0  0  0  0  0  0
  -27.5960  -13.3240   19.8270 C   0  0  0  0  0  3  0  0  0  0  0  0
  -28.6460  -13.2500   20.9560 C   0  0  0  0  0  2  0  0  0  0  0  0
  -29.9340  -13.6190   20.3660 N   0  0  0  0  0  0  0  0  0  0  0  0
  -31.8020  -14.8330   20.1880 O   0  0  0  0  0  0  0  0  0  0  0  0
  -31.5760  -18.7660   18.8690 C   0  0  0  0  0  3  0  0  0  0  0  0
  -30.8110  -19.9190   19.1180 C   0  0  0  0  0  0  0  0  0  0  0  0
  -29.6770  -19.7820   19.9360 C   0  0  0  0  0  0  0  0  0  0  0  0
  -30.1590  -17.4090   20.0990 C   0  0  0  0  0  0  0  0  0  0  0  0
  -31.2440  -17.5550   19.3470 N   0  0  0  0  0  0  0  0  0  0  0  0
  -29.3490  -18.5010   20.3840 N   0  0  0  0  0  0  0  0  0  0  0  0
  -28.8170  -20.9510   20.0690 N   0  0  0  0  0  0  0  0  0  0  0  0
  -29.8570  -16.0420   20.5070 N   0  0  0  0  0  0  0  0  0  0  0  0
  -27.8310  -20.7130   19.9480 H   0  0  0  0  0  0  0  0  0  0  0  0
  -28.9130  -15.9230   20.8330 H   0  0  0  0  0  0  0  0  0  0  0  0
  -25.2060  -13.9070   20.5320 C   0  0  0  0  0  0  0  0  0  0  0  0
  -24.1370  -13.1370   20.8990 C   0  0  0  0  0  0  0  0  0  0  0  0
  -24.6020  -11.7870   20.8740 C   0  0  0  0  0  0  0  0  0  0  0  0
  -26.2520  -13.0290   20.3120 N   0  0  0  0  0  0  0  0  0  0  0  0
  -25.8960  -11.7450   20.5750 N   0  0  0  0  0  0  0  0  0  0  0  0
  -23.8720  -10.5260   21.0590 C   0  0  0  0  0  0  0  0  0  0  0  0
  -24.2930   -9.5600   21.9980 C   0  0  0  0  0  3  0  0  0  0  0  0
  -23.5640   -8.3610   22.1720 C   0  0  0  0  0  3  0  0  0  0  0  0
  -22.4000   -8.1200   21.4000 C   0  0  0  0  0  0  0  0  0  0  0  0
  -21.9970   -9.0780   20.4520 C   0  0  0  0  0  3  0  0  0  0  0  0
  -22.7270  -10.2660   20.2790 C   0  0  0  0  0  3  0  0  0  0  0  0
  -21.6430   -6.9760   21.4860 O   0  0  0  0  0  0  0  0  0  0  0  0
  -21.5830   -6.2370   22.6400 C   0  0  0  0  0  0  0  0  0  0  0  0
  -21.1470   -6.7970   23.8610 C   0  0  0  0  0  3  0  0  0  0  0  0
  -21.0260   -5.9830   25.0050 C   0  0  0  0  0  3  0  0  0  0  0  0
  -21.3360   -4.6130   24.9280 C   0  0  0  0  0  0  0  0  0  0  0  0
  -21.7560   -4.0500   23.7090 C   0  0  0  0  0  3  0  0  0  0  0  0
  -21.8740   -4.8600   22.5680 C   0  0  0  0  0  0  0  0  0  0  0  0
  -22.2640   -4.3120   21.3920 F   0  0  0  0  0  0  0  0  0  0  0  0
  -21.2120   -3.8290   26.0240 F   0  0  0  0  0  0  0  0  0  0  0  0
  -22.7370  -13.6180   21.1480 C   0  0  0  0  0  0  0  0  0  0  0  0
  -21.9930  -12.9260   22.0040 N   0  0  0  0  0  0  0  0  0  0  0  0
  -22.3080  -14.6400   20.6120 O   0  0  0  0  0  0  0  0  0  0  0  0
  -22.3510  -12.1020   22.4660 H   0  0  0  0  0  0  0  0  0  0  0  0
  -21.0500  -13.2290   22.2070 H   0  0  0  0  0  0  0  0  0  0  0  0
  -25.3860  -15.2760   20.3530 N   0  0  0  0  0  0  0  0  0  0  0  0
  -24.6350  -15.9480   20.4540 H   0  0  0  0  0  0  0  0  0  0  0  0
  -26.2300  -15.6790   19.9670 H   0  0  0  0  0  0  0  0  0  0  0  0
  -31.1160  -21.1370   18.4980 N   0  0  0  0  0  0  0  0  0  0  0  0
  -32.0740  -21.3790   18.2730 H   0  0  0  0  0  0  0  0  0  0  0  0
  -30.5340  -21.9220   18.7710 H   0  0  0  0  0  0  0  0  0  0  0  0
  -30.2930  -22.3470   21.6530 C   0  0  0  0  0  1  0  0  0  0  0  0
  -29.0080  -22.2830   20.7960 C   0  0  0  0  0  3  0  0  0  0  0  0
  -28.7740  -23.7070   20.0200 C   0  0  0  0  0  2  0  0  0  0  0  0
  -28.2820  -25.0320   20.8440 C   0  0  0  0  0  2  0  0  0  0  0  0
  -28.4510  -26.4560   20.3830 O   0  0  0  0  0  0  0  0  0  0  0  0
  -24.6350  -31.9470   23.2930 C   0  0  0  0  0  0  0  0  0  0  0  0
  -27.3370  -27.3240   20.3620 C   0  0  0  0  0  0  0  0  0  0  0  0
  -23.4760  -30.5190   21.6430 C   0  0  0  0  0  3  0  0  0  0  0  0
  -24.9730  -28.9550   20.2620 C   0  0  0  0  0  0  0  0  0  0  0  0
  -26.0200  -30.8370   21.5190 C   0  0  0  0  0  2  0  0  0  0  0  0
  -26.1210  -29.4410   20.9020 C   0  0  0  0  0  0  0  0  0  0  0  0
  -27.3060  -28.6380   20.9400 C   0  0  0  0  0  3  0  0  0  0  0  0
  -26.1710  -26.9060   19.6890 C   0  0  0  0  0  3  0  0  0  0  0  0
  -25.0020  -27.6950   19.6430 C   0  0  0  0  0  3  0  0  0  0  0  0
  -23.7340  -29.8330   20.2730 C   0  0  0  0  0  2  0  0  0  0  0  0
  -24.7270  -31.1210   22.2080 N   0  0  0  0  0  0  0  0  0  0  0  0
  -23.5390  -32.2290   23.7980 O   0  0  0  0  0  0  0  0  0  0  0  0
  -22.7940  -29.5100   22.5980 C   0  0  0  0  0  0  0  0  0  0  0  0
  -21.4650  -29.3500   22.4660 N   0  0  0  0  0  0  0  0  0  0  0  0
  -23.4600  -28.8880   23.4300 O   0  0  0  0  0  0  0  0  0  0  0  0
  -20.9870  -29.9160   21.7750 H   0  0  0  0  0  0  0  0  0  0  0  0
  -18.0710  -28.1940   22.9500 C   0  0  0  0  0  0  0  0  0  0  0  0
  -20.6320  -28.4240   23.2330 C   0  0  0  0  0  3  0  0  0  0  0  0
  -20.7210  -26.9920   22.6600 C   0  0  0  0  0  2  0  0  0  0  0  0
  -19.6190  -26.6780   21.6430 C   0  0  0  0  0  2  0  0  0  0  0  0
  -18.2330  -26.8430   22.2760 C   0  0  0  0  0  2  0  0  0  0  0  0
  -19.1990  -28.9420   23.3860 C   0  0  0  0  0  0  0  0  0  0  0  0
  -18.9910  -30.2080   23.9750 C   0  0  0  0  0  3  0  0  0  0  0  0
  -17.6910  -30.7250   24.1370 C   0  0  0  0  0  3  0  0  0  0  0  0
  -16.5790  -29.9760   23.7160 C   0  0  0  0  0  3  0  0  0  0  0  0
  -16.7710  -28.7120   23.1250 C   0  0  0  0  0  3  0  0  0  0  0  0
  -25.9040  -32.5890   23.9390 C   0  0  0  0  0  3  0  0  0  0  0  0
  -26.3920  -31.8350   25.2360 C   0  0  1  0  0  0  0  0  0  0  0  0
  -25.2750  -31.6120   26.2810 C   0  0  0  0  0  1  0  0  0  0  0  0
  -26.9820  -30.4530   24.8720 C   0  0  0  0  0  1  0  0  0  0  0  0
  -27.5200  -32.6460   25.9170 C   0  0  0  0  0  1  0  0  0  0  0  0
  -25.5870  -33.9930   24.2390 N   0  0  0  0  0  0  0  0  0  0  0  0
  -25.9200  -35.0360   23.4660 C   0  0  0  0  0  0  0  0  0  0  0  0
  -26.6040  -34.9180   22.4450 O   0  0  0  0  0  0  0  0  0  0  0  0
  -24.9960  -34.1630   25.0390 H   0  0  0  0  0  0  0  0  0  0  0  0
  -24.1870  -36.8150   23.0670 C   0  0  0  0  0  1  0  0  0  0  0  0
  -25.4230  -36.4290   23.8950 C   0  0  0  0  0  3  0  0  0  0  0  0
  -27.5420  -37.3430   24.7300 C   0  0  0  0  0  1  0  0  0  0  0  0
  -26.4490  -37.4880   23.7720 N   0  0  0  0  0  0  0  0  0  0  0  0
  -26.0320  -38.4060   23.9040 H   0  0  0  0  0  0  0  0  0  0  0  0
  1 16  1  0
  2  7  1  0
  3  4  1  0
  3  2  1  0
  5  4  1  0
  5 22  1  0
  5  6  1  0
  7  1  1  0
  7  6  1  0
  8  1  2  0
  9 10  2  0
  9 13  1  0
 10 11  1  0
 11 15  1  0
 11 14  2  0
 12 14  1  0
 12 16  1  0
 13 12  2  0
 15 51  1  0
 16 18  1  0
 17 15  1  0
 19 20  2  0
 20 39  1  0
 21 20  1  0
 21 24  1  0
 22 19  1  0
 22 23  1  0
 23 21  2  0
 24 25  1  0
 25 26  2  0
 27 30  1  0
 27 26  1  0
 28 27  2  0
 29 28  1  0
 29 24  2  0
 30 31  1  0
 31 32  1  0
 32 33  2  0
 34 33  1  0
 34 38  1  0
 35 34  2  0
 36 31  2  0
 36 35  1  0
 37 36  1  0
 39 40  1  0
 40 43  1  0
 40 42  1  0
 41 39  2  0
 44 45  1  0
 44 19  1  0
 46 44  1  0
 47 49  1  0
 47 10  1  0
 48 47  1  0
 51 50  1  0
 52 51  1  0
 52 53  1  0
 54 53  1  0
 55 66  2  0
 56 54  1  0
 56 61  1  0
 57 65  1  0
 57 67  1  0
 58 64  1  0
 58 60  1  0
 59 65  1  0
 60 61  2  0
 60 59  1  0
 62 56  2  0
 63 62  1  0
 63 58  2  0
 64 57  1  0
 65 55  1  0
 67 69  2  0
 68 67  1  0
 70 68  1  0
 71 80  2  0
 71 76  1  0
 72 68  1  0
 72 76  1  0
 73 72  1  0
 74 75  1  0
 74 73  1  0
 75 71  1  0
 76 77  2  0
 77 78  1  0
 79 78  2  0
 80 79  1  0
 81 55  1  0
 81 86  1  0
 81 82  1  0
 82 85  1  1
 82 83  1  0
 84 82  1  0
 86 89  1  0
 87 91  1  0
 87 86  1  0
 88 87  2  0
 91 90  1  0
 93 91  1  0
 93 94  1  0
 93 92  1  0
M  ISO  4   1 100  16 100  53 101  54 101
M  END
>  <TORSDO>  (33) 
F 19

>  <SCORE>  (33) 
-14.503

>  <name>  (33) 
32

>  <ligand_id>  (33) 
32

>  <original_smiles>  (33) 
[H]c1nc(N([H])C(=O)N2C([H])([H])C([H])([H])C([H])([H])C([H])(n3nc(-c4c([H])c([H])c(Oc5c([H])c([H])c(F)c([H])c5F)c([H])c4[H])c(C(=O)N([H])[H])c3N([H])[H])C2([H])[H])nc(N([H])C([H])(C([H])([H])[H])C([H])([H])C([H])([H])Oc2c([H])c([H])c3c(c2[H])C([H])([H])N(C(=O)C([H])(N([H])C(=O)C([H])(N([H])C([H])([H])[H])C([H])([H])[H])C(C([H])([H])[H])(C([H])([H])[H])C([H])([H])[H])C([H])(C(=O)N([H])C2([H])c4c([H])c([H])c([H])c([H])c4C([H])([H])C([H])([H])C2([H])[H])C3([H])[H])c1N([H])[H]

>  <smiles>  (33) 
[H]c1nc(N([H])C(=O)N2C([H])([H])C([H])([H])C([H])([H])C([H])(n3nc(-c4c([H])c([H])c(Oc5c([H])c([H])c(F)c([H])c5F)c([H])c4[H])c(C(=O)N([H])[H])c3N([H])[H])C2([H])[H])nc(N([H])C([H])(C([H])([H])[H])C([H])([H])C([H])([H])Oc2c([H])c([H])c3c(c2[H])C([H])([H])N(C(=O)C([H])(N([H])C(=O)C([H])(N([H])C([H])([H])[H])C([H])([H])[H])C(C([H])([H])[H])(C([H])([H])[H])C([H])([H])[H])C([H])(C(=O)N([H])C2([H])c4c([H])c([H])c([H])c([H])c4C([H])([H])C([H])([H])C2([H])[H])C3([H])[H])c1N([H])[H]

$$$$
33:0:0
     RDKit          3D

 92100  0  0  1  0  0  0  0  0999 V2000
  -28.3370  -21.5460   18.8420 C   0  0  0  0  0  1  0  0  0  0  0  0
  -28.7880  -21.6540   20.3100 C   0  0  0  0  0  3  0  0  0  0  0  0
  -29.9630  -20.8230   20.5800 N   0  0  0  0  0  0  0  0  0  0  0  0
  -30.8150  -21.2940   20.8680 H   0  0  0  0  0  0  0  0  0  0  0  0
  -30.6820  -14.4750   20.5380 C   0  0  0  0  0  0  0  0  0  0  0  0
  -30.4130  -12.3210   19.3620 C   0  0  0  0  0  2  0  0  0  0  0  0
  -29.4800  -12.5300   18.1490 C   0  0  0  0  0  2  0  0  0  0  0  0
  -28.0010  -12.3910   18.5640 C   0  0  0  0  0  2  0  0  0  0  0  0
  -27.6490  -13.2230   19.8250 C   0  0  0  0  0  3  0  0  0  0  0  0
  -28.6900  -12.9840   20.9430 C   0  0  0  0  0  2  0  0  0  0  0  0
  -30.0270  -13.2900   20.3990 N   0  0  0  0  0  0  0  0  0  0  0  0
  -31.8050  -14.6730   20.0540 O   0  0  0  0  0  0  0  0  0  0  0  0
  -31.1310  -18.7610   21.1520 C   0  0  0  0  0  3  0  0  0  0  0  0
  -29.9530  -19.4280   20.7430 C   0  0  0  0  0  0  0  0  0  0  0  0
  -30.0200  -16.7820   20.9920 C   0  0  0  0  0  0  0  0  0  0  0  0
  -31.1630  -17.4150   21.2820 N   0  0  0  0  0  0  0  0  0  0  0  0
  -28.8270  -18.7110   20.5010 N   0  0  0  0  0  0  0  0  0  0  0  0
  -28.8610  -17.3740   20.6450 N   0  0  0  0  0  0  0  0  0  0  0  0
  -29.9550  -15.4300   21.1410 N   0  0  0  0  0  0  0  0  0  0  0  0
  -29.0520  -15.1030   21.4370 H   0  0  0  0  0  0  0  0  0  0  0  0
  -25.2400  -13.8370   20.5010 C   0  0  0  0  0  0  0  0  0  0  0  0
  -24.1680  -13.0650   20.8610 C   0  0  0  0  0  0  0  0  0  0  0  0
  -24.6310  -11.7140   20.8440 C   0  0  0  0  0  0  0  0  0  0  0  0
  -26.2880  -12.9550   20.2850 N   0  0  0  0  0  0  0  0  0  0  0  0
  -25.9240  -11.6740   20.5500 N   0  0  0  0  0  0  0  0  0  0  0  0
  -23.9060  -10.4500   21.0350 C   0  0  0  0  0  0  0  0  0  0  0  0
  -24.3300   -9.4910   21.9800 C   0  0  0  0  0  3  0  0  0  0  0  0
  -23.6060   -8.2930   22.1560 C   0  0  0  0  0  3  0  0  0  0  0  0
  -22.4450   -8.0450   21.3870 C   0  0  0  0  0  0  0  0  0  0  0  0
  -22.0400   -8.9940   20.4300 C   0  0  0  0  0  3  0  0  0  0  0  0
  -22.7650  -10.1840   20.2530 C   0  0  0  0  0  3  0  0  0  0  0  0
  -21.6960   -6.8980   21.4680 O   0  0  0  0  0  0  0  0  0  0  0  0
  -21.6310   -6.1620   22.6240 C   0  0  0  0  0  0  0  0  0  0  0  0
  -21.1710   -6.7200   23.8370 C   0  0  0  0  0  3  0  0  0  0  0  0
  -21.0550   -5.9100   24.9850 C   0  0  0  0  0  3  0  0  0  0  0  0
  -21.3880   -4.5440   24.9200 C   0  0  0  0  0  0  0  0  0  0  0  0
  -21.8390   -3.9860   23.7110 C   0  0  0  0  0  3  0  0  0  0  0  0
  -21.9580   -4.7930   22.5660 C   0  0  0  0  0  0  0  0  0  0  0  0
  -22.3760   -4.2450   21.3990 F   0  0  0  0  0  0  0  0  0  0  0  0
  -21.2680   -3.7640   26.0190 F   0  0  0  0  0  0  0  0  0  0  0  0
  -22.7660  -13.5420   21.1140 C   0  0  0  0  0  0  0  0  0  0  0  0
  -22.0270  -12.8490   21.9730 N   0  0  0  0  0  0  0  0  0  0  0  0
  -22.3350  -14.5650   20.5860 O   0  0  0  0  0  0  0  0  0  0  0  0
  -22.3900  -12.0250   22.4260 H   0  0  0  0  0  0  0  0  0  0  0  0
  -21.0850  -13.1510   22.1820 H   0  0  0  0  0  0  0  0  0  0  0  0
  -25.4060  -15.2070   20.3220 N   0  0  0  0  0  0  0  0  0  0  0  0
  -24.6330  -15.8560   20.4210 H   0  0  0  0  0  0  0  0  0  0  0  0
  -26.2630  -15.6560   20.0220 H   0  0  0  0  0  0  0  0  0  0  0  0
  -29.1280  -23.1110   20.7150 C   0  0  0  0  0  2  0  0  0  0  0  0
  -28.2420  -24.2540   20.1620 C   0  0  0  0  0  2  0  0  0  0  0  0
  -28.4920  -25.5820   20.9180 C   0  0  0  0  0  2  0  0  0  0  0  0
  -28.4020  -26.7540   20.1040 O   0  0  0  0  0  0  0  0  0  0  0  0
  -24.5720  -31.8850   23.2480 C   0  0  0  0  0  0  0  0  0  0  0  0
  -27.2220  -27.4530   20.1710 C   0  0  0  0  0  0  0  0  0  0  0  0
  -23.3690  -30.4810   21.6020 C   0  0  0  0  0  3  0  0  0  0  0  0
  -24.8240  -28.9380   20.1880 C   0  0  0  0  0  0  0  0  0  0  0  0
  -25.8900  -30.8480   21.4030 C   0  0  0  0  0  2  0  0  0  0  0  0
  -25.9800  -29.4730   20.7730 C   0  0  0  0  0  0  0  0  0  0  0  0
  -27.1840  -28.7350   20.7630 C   0  0  0  0  0  3  0  0  0  0  0  0
  -26.0530  -26.9220   19.5920 C   0  0  0  0  0  3  0  0  0  0  0  0
  -24.8540  -27.6600   19.5990 C   0  0  0  0  0  3  0  0  0  0  0  0
  -23.5810  -29.7960   20.2270 C   0  0  0  0  0  2  0  0  0  0  0  0
  -24.6290  -31.0870   22.1450 N   0  0  0  0  0  0  0  0  0  0  0  0
  -23.4880  -32.1570   23.7870 O   0  0  0  0  0  0  0  0  0  0  0  0
  -22.7150  -29.4630   22.5640 C   0  0  0  0  0  0  0  0  0  0  0  0
  -21.3890  -29.2860   22.4360 N   0  0  0  0  0  0  0  0  0  0  0  0
  -23.3960  -28.8350   23.3780 O   0  0  0  0  0  0  0  0  0  0  0  0
  -20.9020  -29.8410   21.7470 H   0  0  0  0  0  0  0  0  0  0  0  0
  -18.0130  -28.1070   22.9430 C   0  0  0  0  0  0  0  0  0  0  0  0
  -20.5730  -28.3490   23.2060 C   0  0  0  0  0  3  0  0  0  0  0  0
  -20.6660  -26.9210   22.6220 C   0  0  0  0  0  2  0  0  0  0  0  0
  -19.5590  -26.6100   21.6110 C   0  0  0  0  0  2  0  0  0  0  0  0
  -18.1800  -26.7610   22.2590 C   0  0  0  0  0  2  0  0  0  0  0  0
  -19.1380  -28.8600   23.3730 C   0  0  0  0  0  0  0  0  0  0  0  0
  -18.9280  -30.1210   23.9720 C   0  0  0  0  0  3  0  0  0  0  0  0
  -17.6280  -30.6290   24.1460 C   0  0  0  0  0  3  0  0  0  0  0  0
  -16.5180  -29.8730   23.7300 C   0  0  0  0  0  3  0  0  0  0  0  0
  -16.7110  -28.6140   23.1350 C   0  0  0  0  0  3  0  0  0  0  0  0
  -25.8560  -32.5170   23.8720 C   0  0  0  0  0  3  0  0  0  0  0  0
  -26.3720  -31.7490   25.1500 C   0  0  1  0  0  0  0  0  0  0  0  0
  -25.2800  -31.5150   26.2200 C   0  0  0  0  0  1  0  0  0  0  0  0
  -26.9520  -30.3690   24.7580 C   0  0  0  0  0  1  0  0  0  0  0  0
  -27.5230  -32.5440   25.8100 C   0  0  0  0  0  1  0  0  0  0  0  0
  -25.5490  -33.9170   24.1950 N   0  0  0  0  0  0  0  0  0  0  0  0
  -25.8850  -34.9650   23.4300 C   0  0  0  0  0  0  0  0  0  0  0  0
  -26.5560  -34.8540   22.4000 O   0  0  0  0  0  0  0  0  0  0  0  0
  -24.9580  -34.0770   24.9960 H   0  0  0  0  0  0  0  0  0  0  0  0
  -24.1640  -36.7610   23.0570 C   0  0  0  0  0  1  0  0  0  0  0  0
  -25.3990  -36.3570   23.8780 C   0  0  0  0  0  3  0  0  0  0  0  0
  -27.5310  -37.2400   24.7170 C   0  0  0  0  0  1  0  0  0  0  0  0
  -26.4340  -37.4060   23.7650 N   0  0  0  0  0  0  0  0  0  0  0  0
  -26.0300  -38.3280   23.9060 H   0  0  0  0  0  0  0  0  0  0  0  0
  2  1  1  0
  2  3  1  0
  2 49  1  0
  3 14  1  0
  3  4  1  0
  5 19  1  0
  6 11  1  0
  7  8  1  0
  7  6  1  0
  9  8  1  0
  9 24  1  0
  9 10  1  0
 11  5  1  0
 11 10  1  0
 12  5  2  0
 13 16  1  0
 14 13  2  0
 15 19  1  0
 15 16  2  0
 17 18  2  0
 17 14  1  0
 18 15  1  0
 19 20  1  0
 21 22  2  0
 22 41  1  0
 23 22  1  0
 23 26  1  0
 24 21  1  0
 24 25  1  0
 25 23  2  0
 26 27  1  0
 27 28  2  0
 29 32  1  0
 29 28  1  0
 30 29  2  0
 31 30  1  0
 31 26  2  0
 32 33  1  0
 33 34  1  0
 34 35  2  0
 36 35  1  0
 36 40  1  0
 37 36  2  0
 38 33  2  0
 38 37  1  0
 39 38  1  0
 41 42  1  0
 42 45  1  0
 42 44  1  0
 43 41  2  0
 46 47  1  0
 46 21  1  0
 48 46  1  0
 50 49  1  0
 50 51  1  0
 52 54  1  0
 52 51  1  0
 53 64  2  0
 54 59  1  0
 55 63  1  0
 55 65  1  0
 56 62  1  0
 56 58  1  0
 57 63  1  0
 58 57  1  0
 59 58  2  0
 60 61  1  0
 60 54  2  0
 61 56  2  0
 62 55  1  0
 63 53  1  0
 65 67  2  0
 66 65  1  0
 68 66  1  0
 69 78  2  0
 69 74  1  0
 70 66  1  0
 70 74  1  0
 71 70  1  0
 72 73  1  0
 72 71  1  0
 73 69  1  0
 74 75  2  0
 75 76  1  0
 77 76  2  0
 78 77  1  0
 79 53  1  0
 79 84  1  0
 79 80  1  0
 80 83  1  1
 80 81  1  0
 82 80  1  0
 84 87  1  0
 85 89  1  0
 85 84  1  0
 86 85  2  0
 89 88  1  0
 91 89  1  0
 91 92  1  0
 91 90  1  0
M  ISO  4   5 100  19 100  51 101  52 101
M  END
>  <TORSDO>  (34) 
F 20

>  <SCORE>  (34) 
-14.137

>  <name>  (34) 
33

>  <ligand_id>  (34) 
33

>  <original_smiles>  (34) 
[H]c1nc(N([H])C(=O)N2C([H])([H])C([H])([H])C([H])([H])C([H])(n3nc(-c4c([H])c([H])c(Oc5c([H])c([H])c(F)c([H])c5F)c([H])c4[H])c(C(=O)N([H])[H])c3N([H])[H])C2([H])[H])nnc1N([H])C([H])(C([H])([H])[H])C([H])([H])C([H])([H])C([H])([H])Oc1c([H])c([H])c2c(c1[H])C([H])([H])N(C(=O)C([H])(N([H])C(=O)C([H])(N([H])C([H])([H])[H])C([H])([H])[H])C(C([H])([H])[H])(C([H])([H])[H])C([H])([H])[H])C([H])(C(=O)N([H])C1([H])c3c([H])c([H])c([H])c([H])c3C([H])([H])C([H])([H])C1([H])[H])C2([H])[H]

>  <smiles>  (34) 
[H]c1nc(N([H])C(=O)N2C([H])([H])C([H])([H])C([H])([H])C([H])(n3nc(-c4c([H])c([H])c(Oc5c([H])c([H])c(F)c([H])c5F)c([H])c4[H])c(C(=O)N([H])[H])c3N([H])[H])C2([H])[H])nnc1N([H])C([H])(C([H])([H])[H])C([H])([H])C([H])([H])C([H])([H])Oc1c([H])c([H])c2c(c1[H])C([H])([H])N(C(=O)C([H])(N([H])C(=O)C([H])(N([H])C([H])([H])[H])C([H])([H])[H])C(C([H])([H])[H])(C([H])([H])[H])C([H])([H])[H])C([H])(C(=O)N([H])C1([H])c3c([H])c([H])c([H])c([H])c3C([H])([H])C([H])([H])C1([H])[H])C2([H])[H]

$$$$
34:0:0
     RDKit          3D

 93101  0  0  1  0  0  0  0  0999 V2000
  -28.8100  -20.7510   18.6630 C   0  0  0  0  0  3  0  0  0  0  0  0
  -28.9610  -19.4560   18.1480 C   0  0  0  0  0  0  0  0  0  0  0  0
  -29.0540  -20.9540   20.0270 C   0  0  0  0  0  0  0  0  0  0  0  0
  -29.5810  -18.6090   20.1730 C   0  0  0  0  0  0  0  0  0  0  0  0
  -29.3260  -18.4010   18.8860 N   0  0  0  0  0  0  0  0  0  0  0  0
  -29.4490  -19.8480   20.7660 N   0  0  0  0  0  0  0  0  0  0  0  0
  -28.8750  -22.2660   20.6280 N   0  0  0  0  0  0  0  0  0  0  0  0
  -29.0440  -22.3100   21.6280 H   0  0  0  0  0  0  0  0  0  0  0  0
  -28.7370  -19.1890   16.8080 N   0  0  0  0  0  0  0  0  0  0  0  0
  -28.7800  -19.9600   16.1540 H   0  0  0  0  0  0  0  0  0  0  0  0
  -29.1130  -18.3240   16.4370 H   0  0  0  0  0  0  0  0  0  0  0  0
  -30.1910  -17.3480   20.9360 C   0  0  0  0  0  2  0  0  0  0  0  0
  -30.5670  -14.7760   20.3940 C   0  0  0  0  0  0  0  0  0  0  0  0
  -30.3920  -12.4920   19.3690 C   0  0  0  0  0  2  0  0  0  0  0  0
  -29.4470  -12.5290   18.1460 C   0  0  0  0  0  2  0  0  0  0  0  0
  -27.9790  -12.3460   18.5840 C   0  0  0  0  0  2  0  0  0  0  0  0
  -27.6020  -13.2470   19.7900 C   0  0  0  0  0  3  0  0  0  0  0  0
  -28.6610  -13.1750   20.9090 C   0  0  0  0  0  2  0  0  0  0  0  0
  -29.9470  -13.5480   20.3060 N   0  0  0  0  0  0  0  0  0  0  0  0
  -31.7630  -14.8780   20.1090 O   0  0  0  0  0  0  0  0  0  0  0  0
  -29.7900  -15.9000   20.6300 N   0  0  0  0  0  0  0  0  0  0  0  0
  -28.7990  -15.7320   20.7030 H   0  0  0  0  0  0  0  0  0  0  0  0
  -25.2160  -13.8400   20.5220 C   0  0  0  0  0  0  0  0  0  0  0  0
  -24.1500  -13.0650   20.8920 C   0  0  0  0  0  0  0  0  0  0  0  0
  -24.6160  -11.7150   20.8650 C   0  0  0  0  0  0  0  0  0  0  0  0
  -26.2590  -12.9600   20.2860 N   0  0  0  0  0  0  0  0  0  0  0  0
  -25.9060  -11.6770   20.5580 N   0  0  0  0  0  0  0  0  0  0  0  0
  -23.8910  -10.4530   21.0570 C   0  0  0  0  0  0  0  0  0  0  0  0
  -24.3310   -9.4810   21.9830 C   0  0  0  0  0  3  0  0  0  0  0  0
  -23.6060   -8.2840   22.1620 C   0  0  0  0  0  3  0  0  0  0  0  0
  -22.4260   -8.0490   21.4170 C   0  0  0  0  0  0  0  0  0  0  0  0
  -22.0050   -9.0110   20.4820 C   0  0  0  0  0  3  0  0  0  0  0  0
  -22.7300  -10.2000   20.3000 C   0  0  0  0  0  3  0  0  0  0  0  0
  -21.6710   -6.9050   21.5080 O   0  0  0  0  0  0  0  0  0  0  0  0
  -21.6420   -6.1500   22.6530 C   0  0  0  0  0  0  0  0  0  0  0  0
  -21.2490   -6.6940   23.8950 C   0  0  0  0  0  3  0  0  0  0  0  0
  -21.1680   -5.8670   25.0320 C   0  0  0  0  0  3  0  0  0  0  0  0
  -21.4690   -4.4960   24.9290 C   0  0  0  0  0  0  0  0  0  0  0  0
  -21.8550   -3.9510   23.6920 C   0  0  0  0  0  3  0  0  0  0  0  0
  -21.9390   -4.7760   22.5570 C   0  0  0  0  0  0  0  0  0  0  0  0
  -22.2910   -4.2420   21.3630 F   0  0  0  0  0  0  0  0  0  0  0  0
  -21.3830   -3.6990   26.0190 F   0  0  0  0  0  0  0  0  0  0  0  0
  -22.7520  -13.5430   21.1570 C   0  0  0  0  0  0  0  0  0  0  0  0
  -22.0240  -12.8490   22.0240 N   0  0  0  0  0  0  0  0  0  0  0  0
  -22.3150  -14.5650   20.6310 O   0  0  0  0  0  0  0  0  0  0  0  0
  -22.3910  -12.0220   22.4720 H   0  0  0  0  0  0  0  0  0  0  0  0
  -21.0840  -13.1480   22.2450 H   0  0  0  0  0  0  0  0  0  0  0  0
  -25.3780  -15.2100   20.3400 N   0  0  0  0  0  0  0  0  0  0  0  0
  -24.6070  -15.8590   20.4480 H   0  0  0  0  0  0  0  0  0  0  0  0
  -26.2110  -15.6490   19.9700 H   0  0  0  0  0  0  0  0  0  0  0  0
  -28.7950  -23.6180   19.9120 C   0  0  0  0  0  3  0  0  0  0  0  0
  -28.1510  -24.9190   20.6660 C   0  0  0  0  0  3  0  0  0  0  0  0
  -28.3300  -26.3500   20.1980 O   0  0  0  0  0  0  0  0  0  0  0  0
  -24.6260  -31.8600   23.2230 C   0  0  0  0  0  0  0  0  0  0  0  0
  -27.2280  -27.2420   20.1910 C   0  0  0  0  0  0  0  0  0  0  0  0
  -23.4220  -30.4570   21.5880 C   0  0  0  0  0  3  0  0  0  0  0  0
  -24.8720  -28.8930   20.1670 C   0  0  0  0  0  0  0  0  0  0  0  0
  -25.9670  -30.7620   21.4040 C   0  0  0  0  0  2  0  0  0  0  0  0
  -26.0450  -29.3750   20.7610 C   0  0  0  0  0  0  0  0  0  0  0  0
  -27.2300  -28.5670   20.7520 C   0  0  0  0  0  3  0  0  0  0  0  0
  -26.0320  -26.8260   19.5730 C   0  0  0  0  0  3  0  0  0  0  0  0
  -24.8710  -27.6260   19.5610 C   0  0  0  0  0  3  0  0  0  0  0  0
  -23.6360  -29.7740   20.2120 C   0  0  0  0  0  2  0  0  0  0  0  0
  -24.6910  -31.0460   22.1270 N   0  0  0  0  0  0  0  0  0  0  0  0
  -23.5430  -32.1400   23.7570 O   0  0  0  0  0  0  0  0  0  0  0  0
  -22.7570  -29.4480   22.5540 C   0  0  0  0  0  0  0  0  0  0  0  0
  -21.4290  -29.2740   22.4350 N   0  0  0  0  0  0  0  0  0  0  0  0
  -23.4360  -28.8200   23.3710 O   0  0  0  0  0  0  0  0  0  0  0  0
  -20.9390  -29.8330   21.7500 H   0  0  0  0  0  0  0  0  0  0  0  0
  -18.0500  -28.0780   22.9530 C   0  0  0  0  0  0  0  0  0  0  0  0
  -20.6100  -28.3380   23.2110 C   0  0  0  0  0  3  0  0  0  0  0  0
  -20.7080  -26.9050   22.6400 C   0  0  0  0  0  2  0  0  0  0  0  0
  -19.6020  -26.5820   21.6300 C   0  0  0  0  0  2  0  0  0  0  0  0
  -18.2230  -26.7280   22.2770 C   0  0  0  0  0  2  0  0  0  0  0  0
  -19.1710  -28.8410   23.3770 C   0  0  0  0  0  0  0  0  0  0  0  0
  -18.9560  -30.1050   23.9690 C   0  0  0  0  0  3  0  0  0  0  0  0
  -17.6520  -30.6050   24.1400 C   0  0  0  0  0  3  0  0  0  0  0  0
  -16.5460  -29.8410   23.7310 C   0  0  0  0  0  3  0  0  0  0  0  0
  -16.7450  -28.5790   23.1430 C   0  0  0  0  0  3  0  0  0  0  0  0
  -25.9080  -32.4970   23.8440 C   0  0  0  0  0  3  0  0  0  0  0  0
  -26.4260  -31.7300   25.1230 C   0  0  1  0  0  0  0  0  0  0  0  0
  -25.3320  -31.5010   26.1940 C   0  0  0  0  0  1  0  0  0  0  0  0
  -27.0050  -30.3500   24.7380 C   0  0  0  0  0  1  0  0  0  0  0  0
  -27.5810  -32.5260   25.7770 C   0  0  0  0  0  1  0  0  0  0  0  0
  -25.5940  -33.8960   24.1740 N   0  0  0  0  0  0  0  0  0  0  0  0
  -25.9180  -34.9510   23.4170 C   0  0  0  0  0  0  0  0  0  0  0  0
  -26.5820  -34.8490   22.3810 O   0  0  0  0  0  0  0  0  0  0  0  0
  -25.0000  -34.0470   24.9760 H   0  0  0  0  0  0  0  0  0  0  0  0
  -24.1840  -36.7450   23.0780 C   0  0  0  0  0  1  0  0  0  0  0  0
  -25.4320  -36.3400   23.8790 C   0  0  0  0  0  3  0  0  0  0  0  0
  -27.5700  -37.2260   24.6940 C   0  0  0  0  0  1  0  0  0  0  0  0
  -26.4610  -37.3950   23.7610 N   0  0  0  0  0  0  0  0  0  0  0  0
  -26.0530  -38.3140   23.9130 H   0  0  0  0  0  0  0  0  0  0  0  0
  1  3  1  0
  2  1  2  0
  2  5  1  0
  3  7  1  0
  3  6  2  0
  4  6  1  0
  4 12  1  0
  5  4  2  0
  7  8  1  0
  9  2  1  0
 10  9  1  0
 11  9  1  0
 13 21  1  0
 14 19  1  0
 15 16  1  0
 15 14  1  0
 17 16  1  0
 17 26  1  0
 17 18  1  0
 19 13  1  0
 19 18  1  0
 20 13  2  0
 21 22  1  0
 21 12  1  0
 23 24  2  0
 24 43  1  0
 25 24  1  0
 25 28  1  0
 26 23  1  0
 26 27  1  0
 27 25  2  0
 28 29  1  0
 29 30  2  0
 31 34  1  0
 31 30  1  0
 32 31  2  0
 33 32  1  0
 33 28  2  0
 34 35  1  0
 35 36  1  0
 36 37  2  0
 38 37  1  0
 38 42  1  0
 39 38  2  0
 40 35  2  0
 40 39  1  0
 41 40  1  0
 43 44  1  0
 44 47  1  0
 44 46  1  0
 45 43  2  0
 48 49  1  0
 48 23  1  0
 50 48  1  0
 51  7  1  0
 51 52  2  0
 53 52  1  0
 54 65  2  0
 55 53  1  0
 55 60  1  0
 56 64  1  0
 56 66  1  0
 57 63  1  0
 57 59  1  0
 58 64  1  0
 59 58  1  0
 60 59  2  0
 61 55  2  0
 62 61  1  0
 62 57  2  0
 63 56  1  0
 64 54  1  0
 66 68  2  0
 67 66  1  0
 69 67  1  0
 70 79  2  0
 70 75  1  0
 71 67  1  0
 71 75  1  0
 72 71  1  0
 73 74  1  0
 73 72  1  0
 74 70  1  0
 75 76  2  0
 76 77  1  0
 78 77  2  0
 79 78  1  0
 80 54  1  0
 80 85  1  0
 80 81  1  0
 81 84  1  1
 81 82  1  0
 83 81  1  0
 85 88  1  0
 86 90  1  0
 86 85  1  0
 87 86  2  0
 90 89  1  0
 92 90  1  0
 92 93  1  0
 92 91  1  0
M  ISO  4  13 100  21 100  52 101  53 101
M  END
>  <TORSDO>  (35) 
F 20

>  <SCORE>  (35) 
-14.102

>  <name>  (35) 
34

>  <ligand_id>  (35) 
34

>  <original_smiles>  (35) 
[H]c1c(N([H])[H])nc(C([H])([H])N([H])C(=O)N2C([H])([H])C([H])([H])C([H])([H])C([H])(n3nc(-c4c([H])c([H])c(Oc5c([H])c([H])c(F)c([H])c5F)c([H])c4[H])c(C(=O)N([H])[H])c3N([H])[H])C2([H])[H])nc1N([H])C([H])([H])C([H])([H])Oc1c([H])c([H])c2c(c1[H])C([H])([H])N(C(=O)C([H])(N([H])C(=O)C([H])(N([H])C([H])([H])[H])C([H])([H])[H])C(C([H])([H])[H])(C([H])([H])[H])C([H])([H])[H])C([H])(C(=O)N([H])C1([H])c3c([H])c([H])c([H])c([H])c3C([H])([H])C([H])([H])C1([H])[H])C2([H])[H]

>  <smiles>  (35) 
[H]c1c(N([H])[H])nc(C([H])([H])N([H])C(=O)N2C([H])([H])C([H])([H])C([H])([H])C([H])(n3nc(-c4c([H])c([H])c(Oc5c([H])c([H])c(F)c([H])c5F)c([H])c4[H])c(C(=O)N([H])[H])c3N([H])[H])C2([H])[H])nc1N([H])C([H])([H])C([H])([H])Oc1c([H])c([H])c2c(c1[H])C([H])([H])N(C(=O)C([H])(N([H])C(=O)C([H])(N([H])C([H])([H])[H])C([H])([H])[H])C(C([H])([H])[H])(C([H])([H])[H])C([H])([H])[H])C([H])(C(=O)N([H])C1([H])c3c([H])c([H])c([H])c([H])c3C([H])([H])C([H])([H])C1([H])[H])C2([H])[H]

$$$$
35:0:0
     RDKit          3D

 93102  0  0  1  0  0  0  0  0999 V2000
  -30.3330  -21.9220   21.1830 C   0  0  0  0  0  2  0  0  0  0  0  0
  -28.9020  -23.6190   19.2480 C   0  0  0  0  0  2  0  0  0  0  0  0
  -29.2930  -21.0080   20.5010 C   0  0  0  0  0  3  0  0  0  0  0  0
  -28.6820  -23.9730   20.7360 C   0  0  0  0  0  3  0  0  0  0  0  0
  -29.7950  -23.3210   21.6260 C   0  0  0  0  0  3  0  0  0  0  0  0
  -28.7900  -21.7950   18.9130 S   0  0  0  0  0  0  0  0  0  0  0  0
  -30.7220  -14.6410   20.0530 C   0  0  0  0  0  0  0  0  0  0  0  0
  -30.4130  -12.4500   18.9300 C   0  0  0  0  0  2  0  0  0  0  0  0
  -29.4050  -12.6380   17.7740 C   0  0  0  0  0  2  0  0  0  0  0  0
  -27.9580  -12.4800   18.2820 C   0  0  0  0  0  2  0  0  0  0  0  0
  -27.6810  -13.3030   19.5690 C   0  0  0  0  0  3  0  0  0  0  0  0
  -28.7980  -13.0920   20.6160 C   0  0  0  0  0  2  0  0  0  0  0  0
  -30.0830  -13.4320   19.9800 N   0  0  0  0  0  0  0  0  0  0  0  0
  -31.8260  -14.8150   19.5270 O   0  0  0  0  0  0  0  0  0  0  0  0
  -29.7090  -19.5310   20.3450 C   0  0  0  0  0  0  0  0  0  0  0  0
  -30.0720  -17.0780   20.4470 C   0  0  0  0  0  0  0  0  0  0  0  0
  -30.5960  -19.0750   19.4360 N   0  0  0  0  0  0  0  0  0  0  0  0
  -30.8070  -17.6820   19.4950 N   0  0  0  0  0  0  0  0  0  0  0  0
  -30.0270  -15.6460   20.6530 N   0  0  0  0  0  0  0  0  0  0  0  0
  -29.0820  -18.2220   21.3800 S   0  0  0  0  0  0  0  0  0  0  0  0
  -29.2430  -15.3300   21.1990 H   0  0  0  0  0  0  0  0  0  0  0  0
  -25.3330  -13.8890   20.4420 C   0  0  0  0  0  0  0  0  0  0  0  0
  -24.2870  -13.1080   20.8530 C   0  0  0  0  0  0  0  0  0  0  0  0
  -24.7400  -11.7570   20.7520 C   0  0  0  0  0  0  0  0  0  0  0  0
  -26.3590  -13.0130   20.1200 N   0  0  0  0  0  0  0  0  0  0  0  0
  -26.0090  -11.7240   20.3640 N   0  0  0  0  0  0  0  0  0  0  0  0
  -24.0220  -10.4910   20.9490 C   0  0  0  0  0  0  0  0  0  0  0  0
  -24.4720   -9.5220   21.8730 C   0  0  0  0  0  3  0  0  0  0  0  0
  -23.7550   -8.3210   22.0570 C   0  0  0  0  0  3  0  0  0  0  0  0
  -22.5740   -8.0790   21.3180 C   0  0  0  0  0  0  0  0  0  0  0  0
  -22.1410   -9.0360   20.3830 C   0  0  0  0  0  3  0  0  0  0  0  0
  -22.8590  -10.2290   20.1970 C   0  0  0  0  0  3  0  0  0  0  0  0
  -21.8260   -6.9290   21.4110 O   0  0  0  0  0  0  0  0  0  0  0  0
  -21.7460   -6.2170   22.5800 C   0  0  0  0  0  0  0  0  0  0  0  0
  -21.2540   -6.7930   23.7730 C   0  0  0  0  0  3  0  0  0  0  0  0
  -21.1250   -6.0060   24.9340 C   0  0  0  0  0  3  0  0  0  0  0  0
  -21.4750   -4.6420   24.9040 C   0  0  0  0  0  0  0  0  0  0  0  0
  -21.9590   -4.0660   23.7160 C   0  0  0  0  0  3  0  0  0  0  0  0
  -22.0910   -4.8500   22.5570 C   0  0  0  0  0  0  0  0  0  0  0  0
  -22.5380   -4.2850   21.4100 F   0  0  0  0  0  0  0  0  0  0  0  0
  -21.3430   -3.8820   26.0160 F   0  0  0  0  0  0  0  0  0  0  0  0
  -22.9120  -13.5790   21.2270 C   0  0  0  0  0  0  0  0  0  0  0  0
  -22.2350  -12.8560   22.1120 N   0  0  0  0  0  0  0  0  0  0  0  0
  -22.4470  -14.6230   20.7710 O   0  0  0  0  0  0  0  0  0  0  0  0
  -22.6230  -12.0100   22.5030 H   0  0  0  0  0  0  0  0  0  0  0  0
  -21.3150  -13.1520   22.4060 H   0  0  0  0  0  0  0  0  0  0  0  0
  -25.4940  -15.2640   20.2970 N   0  0  0  0  0  0  0  0  0  0  0  0
  -24.7330  -15.9150   20.4620 H   0  0  0  0  0  0  0  0  0  0  0  0
  -26.3160  -15.7090   19.9110 H   0  0  0  0  0  0  0  0  0  0  0  0
  -29.3040  -23.1830   22.9510 O   0  0  0  0  0  0  0  0  0  0  0  0
  -29.1780  -24.0540   23.3150 H   0  0  0  0  0  0  0  0  0  0  0  0
  -28.3570  -25.4840   21.1280 C   0  0  0  0  0  2  0  0  0  0  0  0
  -28.4990  -26.6190   20.2230 O   0  0  0  0  0  0  0  0  0  0  0  0
  -24.6820  -31.9170   23.2440 C   0  0  0  0  0  0  0  0  0  0  0  0
  -27.3830  -27.4450   20.1940 C   0  0  0  0  0  0  0  0  0  0  0  0
  -23.5050  -30.4980   21.6000 C   0  0  0  0  0  3  0  0  0  0  0  0
  -24.9850  -28.9690   20.1840 C   0  0  0  0  0  0  0  0  0  0  0  0
  -26.0330  -30.8680   21.4210 C   0  0  0  0  0  2  0  0  0  0  0  0
  -26.1410  -29.4940   20.7800 C   0  0  0  0  0  0  0  0  0  0  0  0
  -27.3470  -28.7400   20.7800 C   0  0  0  0  0  3  0  0  0  0  0  0
  -26.2120  -26.9530   19.5840 C   0  0  0  0  0  3  0  0  0  0  0  0
  -25.0190  -27.7000   19.5800 C   0  0  0  0  0  3  0  0  0  0  0  0
  -23.7320  -29.8180   20.2250 C   0  0  0  0  0  2  0  0  0  0  0  0
  -24.7590  -31.1100   22.1470 N   0  0  0  0  0  0  0  0  0  0  0  0
  -23.5930  -32.1800   23.7750 O   0  0  0  0  0  0  0  0  0  0  0  0
  -22.8540  -29.4760   22.5600 C   0  0  0  0  0  0  0  0  0  0  0  0
  -21.5310  -29.2800   22.4270 N   0  0  0  0  0  0  0  0  0  0  0  0
  -23.5370  -28.8580   23.3800 O   0  0  0  0  0  0  0  0  0  0  0  0
  -21.0390  -29.8290   21.7360 H   0  0  0  0  0  0  0  0  0  0  0  0
  -18.1660  -28.0570   22.9140 C   0  0  0  0  0  0  0  0  0  0  0  0
  -20.7200  -28.3360   23.1950 C   0  0  0  0  0  3  0  0  0  0  0  0
  -20.8380  -26.9060   22.6210 C   0  0  0  0  0  2  0  0  0  0  0  0
  -19.7420  -26.5740   21.6030 C   0  0  0  0  0  2  0  0  0  0  0  0
  -18.3560  -26.7090   22.2400 C   0  0  0  0  0  2  0  0  0  0  0  0
  -19.2760  -28.8280   23.3480 C   0  0  0  0  0  0  0  0  0  0  0  0
  -19.0430  -30.0910   23.9350 C   0  0  0  0  0  3  0  0  0  0  0  0
  -17.7330  -30.5820   24.0970 C   0  0  0  0  0  3  0  0  0  0  0  0
  -16.6370  -29.8070   23.6780 C   0  0  0  0  0  3  0  0  0  0  0  0
  -16.8550  -28.5470   23.0920 C   0  0  0  0  0  3  0  0  0  0  0  0
  -25.9550  -32.5660   23.8690 C   0  0  0  0  0  3  0  0  0  0  0  0
  -25.6280  -33.9640   24.1920 N   0  0  0  0  0  0  0  0  0  0  0  0
  -25.9590  -35.0160   23.4340 C   0  0  0  0  0  0  0  0  0  0  0  0
  -26.6410  -34.9170   22.4110 O   0  0  0  0  0  0  0  0  0  0  0  0
  -25.0240  -34.1140   24.9860 H   0  0  0  0  0  0  0  0  0  0  0  0
  -24.2240  -36.7950   23.0460 C   0  0  0  0  0  1  0  0  0  0  0  0
  -25.4540  -36.4020   23.8810 C   0  0  0  0  0  3  0  0  0  0  0  0
  -27.5640  -37.3060   24.7510 C   0  0  0  0  0  1  0  0  0  0  0  0
  -26.4800  -37.4620   23.7850 N   0  0  0  0  0  0  0  0  0  0  0  0
  -26.0640  -38.3790   23.9210 H   0  0  0  0  0  0  0  0  0  0  0  0
  -26.4710  -31.8060   25.1520 C   0  0  1  0  0  0  0  0  0  0  0  0
  -25.3730  -31.5590   26.2120 C   0  0  0  0  0  1  0  0  0  0  0  0
  -27.0760  -30.4360   24.7660 C   0  0  0  0  0  1  0  0  0  0  0  0
  -27.6060  -32.6180   25.8210 C   0  0  0  0  0  1  0  0  0  0  0  0
  1  5  1  0
  2  4  1  0
  3 15  1  0
  3  1  1  0
  4 52  1  0
  4  5  1  0
  5 50  1  0
  6  2  1  0
  6  3  1  0
  7 19  1  0
  8 13  1  0
  9 10  1  0
  9  8  1  0
 11 10  1  0
 11 25  1  0
 11 12  1  0
 13  7  1  0
 13 12  1  0
 14  7  2  0
 15 20  1  0
 16 19  1  0
 16 20  1  0
 17 18  1  0
 17 15  2  0
 18 16  2  0
 19 21  1  0
 22 23  2  0
 23 42  1  0
 24 23  1  0
 24 27  1  0
 25 26  1  0
 25 22  1  0
 26 24  2  0
 27 28  1  0
 28 29  2  0
 30 33  1  0
 30 29  1  0
 31 30  2  0
 32 31  1  0
 32 27  2  0
 33 34  1  0
 34 35  1  0
 35 36  2  0
 37 36  1  0
 37 41  1  0
 38 37  2  0
 39 34  2  0
 39 38  1  0
 40 39  1  0
 42 43  1  0
 43 46  1  0
 43 45  1  0
 44 42  2  0
 47 22  1  0
 47 48  1  0
 49 47  1  0
 50 51  1  0
 53 52  1  0
 54 65  2  0
 55 53  1  0
 55 60  1  0
 56 64  1  0
 56 66  1  0
 57 63  1  0
 57 59  1  0
 58 64  1  0
 59 58  1  0
 60 59  2  0
 61 55  2  0
 62 61  1  0
 62 57  2  0
 63 56  1  0
 64 54  1  0
 66 68  2  0
 67 66  1  0
 69 67  1  0
 70 79  2  0
 70 75  1  0
 71 67  1  0
 71 75  1  0
 72 71  1  0
 73 74  1  0
 73 72  1  0
 74 70  1  0
 75 76  2  0
 76 77  1  0
 78 77  2  0
 79 78  1  0
 80 54  1  0
 80 81  1  0
 80 90  1  0
 81 84  1  0
 82 86  1  0
 82 81  1  0
 83 82  2  0
 86 85  1  0
 88 86  1  0
 88 89  1  0
 88 87  1  0
 90 93  1  1
 90 91  1  0
 92 90  1  0
M  ISO  4   7 100  19 100  52 101  53 101
M  END
>  <TORSDO>  (36) 
F 18

>  <SCORE>  (36) 
-14.319

>  <name>  (36) 
35

>  <ligand_id>  (36) 
35

>  <original_smiles>  (36) 
[H]OC1([H])C([H])([H])C([H])(c2nnc(N([H])C(=O)N3C([H])([H])C([H])([H])C([H])([H])C([H])(n4nc(-c5c([H])c([H])c(Oc6c([H])c([H])c(F)c([H])c6F)c([H])c5[H])c(C(=O)N([H])[H])c4N([H])[H])C3([H])[H])s2)SC([H])([H])C1([H])C([H])([H])Oc1c([H])c([H])c2c(c1[H])C([H])([H])N(C(=O)C([H])(N([H])C(=O)C([H])(N([H])C([H])([H])[H])C([H])([H])[H])C(C([H])([H])[H])(C([H])([H])[H])C([H])([H])[H])C([H])(C(=O)N([H])C1([H])c3c([H])c([H])c([H])c([H])c3C([H])([H])C([H])([H])C1([H])[H])C2([H])[H]

>  <smiles>  (36) 
[H]OC1([H])C([H])([H])C([H])(c2nnc(N([H])C(=O)N3C([H])([H])C([H])([H])C([H])([H])C([H])(n4nc(-c5c([H])c([H])c(Oc6c([H])c([H])c(F)c([H])c6F)c([H])c5[H])c(C(=O)N([H])[H])c4N([H])[H])C3([H])[H])s2)SC([H])([H])C1([H])C([H])([H])Oc1c([H])c([H])c2c(c1[H])C([H])([H])N(C(=O)C([H])(N([H])C(=O)C([H])(N([H])C([H])([H])[H])C([H])([H])[H])C(C([H])([H])[H])(C([H])([H])[H])C([H])([H])[H])C([H])(C(=O)N([H])C1([H])c3c([H])c([H])c([H])c([H])c3C([H])([H])C([H])([H])C1([H])[H])C2([H])[H]

$$$$
36:0:0
     RDKit          3D

100108  0  0  1  0  0  0  0  0999 V2000
  -35.5440  -12.2380   21.5330 C   0  0  0  0  0  0  0  0  0  0  0  0
  -33.9390  -10.9330   22.9380 C   0  0  0  0  0  2  0  0  0  0  0  0
  -33.0640  -10.0390   22.0300 C   0  0  0  0  0  2  0  0  0  0  0  0
  -31.8480  -10.8180   21.4920 C   0  0  0  0  0  2  0  0  0  0  0  0
  -32.2380  -12.2050   20.9200 C   0  0  0  0  0  3  0  0  0  0  0  0
  -33.1440  -12.9750   21.9060 C   0  0  0  0  0  2  0  0  0  0  0  0
  -34.3290  -12.1400   22.1740 N   0  0  0  0  0  0  0  0  0  0  0  0
  -36.4850  -11.4950   21.8620 O   0  0  0  0  0  0  0  0  0  0  0  0
  -36.3740  -14.3170   18.3750 C   0  0  0  0  0  3  0  0  0  0  0  0
  -37.8270  -12.1400   17.5460 C   0  0  0  0  0  2  0  0  0  0  0  0
  -37.1040  -14.3960   17.1370 C   0  0  0  0  0  0  0  0  0  0  0  0
  -37.8420  -13.2620   16.6690 C   0  0  0  0  0  0  0  0  0  0  0  0
  -36.4050  -13.1680   19.2260 C   0  0  0  0  0  0  0  0  0  0  0  0
  -37.1530  -12.1330   18.7410 N   0  0  0  0  0  0  0  0  0  0  0  0
  -35.6180  -13.1250   20.4790 N   0  0  0  0  0  0  0  0  0  0  0  0
  -37.1990  -11.2660   19.2920 H   0  0  0  0  0  0  0  0  0  0  0  0
  -34.8770  -13.8030   20.5240 H   0  0  0  0  0  0  0  0  0  0  0  0
  -29.7460  -12.5780   20.4200 C   0  0  0  0  0  0  0  0  0  0  0  0
  -29.0330  -13.7040   20.1060 C   0  0  0  0  0  0  0  0  0  0  0  0
  -29.9830  -14.7700   20.0570 C   0  0  0  0  0  0  0  0  0  0  0  0
  -31.0650  -12.9850   20.5410 N   0  0  0  0  0  0  0  0  0  0  0  0
  -31.2090  -14.3020   20.2610 N   0  0  0  0  0  0  0  0  0  0  0  0
  -29.7900  -16.2140   19.8830 C   0  0  0  0  0  0  0  0  0  0  0  0
  -29.7500  -16.8030   18.6000 C   0  0  0  0  0  3  0  0  0  0  0  0
  -29.5440  -18.1930   18.4590 C   0  0  0  0  0  3  0  0  0  0  0  0
  -29.3720  -19.0060   19.6050 C   0  0  0  0  0  0  0  0  0  0  0  0
  -29.4350  -18.4160   20.8800 C   0  0  0  0  0  3  0  0  0  0  0  0
  -29.6450  -17.0330   21.0200 C   0  0  0  0  0  3  0  0  0  0  0  0
  -29.1930  -20.3680   19.5650 O   0  0  0  0  0  0  0  0  0  0  0  0
  -27.9870  -20.9240   19.2240 C   0  0  0  0  0  0  0  0  0  0  0  0
  -27.2140  -20.4290   18.1500 C   0  0  0  0  0  3  0  0  0  0  0  0
  -25.9490  -20.9860   17.8770 C   0  0  0  0  0  3  0  0  0  0  0  0
  -25.4520  -22.0300   18.6810 C   0  0  0  0  0  0  0  0  0  0  0  0
  -26.2170  -22.5210   19.7540 C   0  0  0  0  0  3  0  0  0  0  0  0
  -27.4800  -21.9670   20.0250 C   0  0  0  0  0  0  0  0  0  0  0  0
  -28.2040  -22.4290   21.0730 F   0  0  0  0  0  0  0  0  0  0  0  0
  -24.2320  -22.5600   18.4250 F   0  0  0  0  0  0  0  0  0  0  0  0
  -27.5430  -13.8050   19.9630 C   0  0  0  0  0  0  0  0  0  0  0  0
  -27.0720  -14.3590   18.8510 N   0  0  0  0  0  0  0  0  0  0  0  0
  -26.7830  -13.3460   20.8170 O   0  0  0  0  0  0  0  0  0  0  0  0
  -27.6950  -14.7200   18.1430 H   0  0  0  0  0  0  0  0  0  0  0  0
  -26.0750  -14.4260   18.7060 H   0  0  0  0  0  0  0  0  0  0  0  0
  -29.3860  -11.2510   20.6340 N   0  0  0  0  0  0  0  0  0  0  0  0
  -28.4150  -10.9580   20.6380 H   0  0  0  0  0  0  0  0  0  0  0  0
  -30.0020  -10.5510   21.0270 H   0  0  0  0  0  0  0  0  0  0  0  0
  -38.1160  -12.6640   14.1160 C   0  0  0  0  0  0  0  0  0  0  0  0
  -38.5100  -13.1030   15.3580 N   0  0  0  0  0  0  0  0  0  0  0  0
  -36.9390  -12.4170   13.8600 O   0  0  0  0  0  0  0  0  0  0  0  0
  -39.4720  -13.4070   15.3670 H   0  0  0  0  0  0  0  0  0  0  0  0
  -39.1630  -12.5160   12.9390 C   0  0  0  0  0  3  0  0  0  0  0  0
  -40.2960  -13.6250   12.8430 C   0  0  0  0  0  3  0  0  0  0  0  0
  -41.0120  -13.8090   11.5720 O   0  0  0  0  0  0  0  0  0  0  0  0
  -40.6830   -7.1200    8.9100 C   0  0  0  0  0  0  0  0  0  0  0  0
  -41.6690  -12.7080   11.0220 C   0  0  0  0  0  0  0  0  0  0  0  0
  -42.9370   -7.9820    9.4390 C   0  0  0  0  0  3  0  0  0  0  0  0
  -43.0860  -10.4900    9.9260 C   0  0  0  0  0  0  0  0  0  0  0  0
  -41.0540   -9.5910    8.7830 C   0  0  0  0  0  2  0  0  0  0  0  0
  -41.7220  -10.6480    9.6490 C   0  0  0  0  0  0  0  0  0  0  0  0
  -41.0140  -11.7600   10.1830 C   0  0  0  0  0  3  0  0  0  0  0  0
  -43.0470  -12.5280   11.2690 C   0  0  0  0  0  3  0  0  0  0  0  0
  -43.7520  -11.4330   10.7300 C   0  0  0  0  0  3  0  0  0  0  0  0
  -43.7800   -9.2810    9.3300 C   0  0  0  0  0  2  0  0  0  0  0  0
  -41.5040   -8.2000    9.0570 N   0  0  0  0  0  0  0  0  0  0  0  0
  -41.1110   -5.9660    9.0540 O   0  0  0  0  0  0  0  0  0  0  0  0
  -43.1080   -7.3980   10.8620 C   0  0  0  0  0  0  0  0  0  0  0  0
  -42.9740   -6.0660   10.9880 N   0  0  0  0  0  0  0  0  0  0  0  0
  -43.3850   -8.1300   11.8160 O   0  0  0  0  0  0  0  0  0  0  0  0
  -42.7450   -5.5330   10.1600 H   0  0  0  0  0  0  0  0  0  0  0  0
  -41.3390   -3.7310   13.2120 C   0  0  0  0  0  0  0  0  0  0  0  0
  -43.1400   -5.2970   12.2200 C   0  0  0  0  0  3  0  0  0  0  0  0
  -43.9720   -4.0170   11.9710 C   0  0  0  0  0  2  0  0  0  0  0  0
  -43.1080   -2.7890   11.6660 C   0  0  0  0  0  2  0  0  0  0  0  0
  -42.1500   -2.5050   12.8240 C   0  0  0  0  0  2  0  0  0  0  0  0
  -41.7980   -5.0420   12.9130 C   0  0  0  0  0  0  0  0  0  0  0  0
  -40.9920   -6.1460   13.2620 C   0  0  0  0  0  3  0  0  0  0  0  0
  -39.7510   -5.9570   13.9000 C   0  0  0  0  0  3  0  0  0  0  0  0
  -39.3080   -4.6580   14.2080 C   0  0  0  0  0  3  0  0  0  0  0  0
  -40.1020   -3.5500   13.8670 C   0  0  0  0  0  3  0  0  0  0  0  0
  -39.1780   -7.2820    8.5330 C   0  0  0  0  0  3  0  0  0  0  0  0
  -38.8410   -6.2130    7.5810 N   0  0  0  0  0  0  0  0  0  0  0  0
  -39.2360   -6.1790    6.3050 C   0  0  0  0  0  0  0  0  0  0  0  0
  -39.8750   -7.0950    5.7750 O   0  0  0  0  0  0  0  0  0  0  0  0
  -38.3630   -5.4050    7.9560 H   0  0  0  0  0  0  0  0  0  0  0  0
  -40.0620   -4.5170    4.6110 C   0  0  0  0  0  1  0  0  0  0  0  0
  -38.8620   -4.9360    5.4740 C   0  0  0  0  0  3  0  0  0  0  0  0
  -36.5230   -5.6650    5.3350 C   0  0  0  0  0  1  0  0  0  0  0  0
  -37.6770   -5.1360    4.6140 N   0  0  0  0  0  0  0  0  0  0  0  0
  -37.4010   -4.2620    4.1750 H   0  0  0  0  0  0  0  0  0  0  0  0
  -38.2170   -7.2370    9.7830 C   0  0  1  0  0  0  0  0  0  0  0  0
  -38.4190   -5.9930   10.6790 C   0  0  0  0  0  1  0  0  0  0  0  0
  -38.4110   -8.4920   10.6650 C   0  0  0  0  0  1  0  0  0  0  0  0
  -36.7430   -7.2490    9.3110 C   0  0  0  0  0  1  0  0  0  0  0  0
  -37.1210  -15.5520   16.3380 N   0  0  0  0  0  0  0  0  0  0  0  0
  -37.5160  -15.3940   15.4030 H   0  0  0  0  0  0  0  0  0  0  0  0
  -38.1150  -17.8020   16.5010 C   0  0  0  0  0  1  0  0  0  0  0  0
  -36.8620  -16.9360   16.7050 C   0  0  0  0  0  3  0  0  0  0  0  0
  -35.7250  -17.5110   15.8110 C   0  0  0  0  0  2  0  0  0  0  0  0
  -33.2610  -17.7220   15.1830 C   0  0  0  0  0  1  0  0  0  0  0  0
  -33.9470  -17.9870   17.5960 C   0  0  0  0  0  1  0  0  0  0  0  0
  -34.2620  -17.2850   16.2700 C   0  0  0  0  0  3  0  0  0  0  0  0
  1  8  2  0
  1  7  1  0
  3  2  1  0
  4  3  1  0
  5 21  1  0
  5  4  1  0
  5  6  1  0
  6  7  1  0
  7  2  1  0
  9 13  2  0
 10 14  1  0
 11  9  1  0
 12 11  2  0
 12 10  1  0
 13 15  1  0
 14 13  1  0
 14 16  1  0
 15 17  1  0
 15  1  1  0
 18 21  1  0
 18 43  1  0
 19 18  2  0
 20 19  1  0
 20 22  2  0
 22 21  1  0
 23 20  1  0
 23 28  1  0
 24 23  2  0
 25 24  1  0
 25 26  2  0
 26 27  1  0
 27 28  2  0
 29 26  1  0
 30 29  1  0
 30 35  1  0
 31 30  2  0
 32 31  1  0
 32 33  2  0
 33 34  1  0
 34 35  2  0
 35 36  1  0
 37 33  1  0
 38 19  1  0
 38 40  2  0
 39 38  1  0
 41 39  1  0
 42 39  1  0
 43 44  1  0
 43 45  1  0
 46 47  1  0
 47 49  1  0
 47 12  1  0
 48 46  2  0
 50 46  1  0
 51 50  2  0
 52 51  1  0
 53 64  2  0
 53 63  1  0
 54 60  1  0
 54 52  1  0
 55 65  1  0
 56 61  1  0
 57 63  1  0
 57 58  1  0
 58 56  2  0
 58 59  1  0
 59 54  2  0
 61 60  2  0
 62 55  1  0
 62 56  1  0
 63 55  1  0
 65 66  1  0
 65 67  2  0
 68 66  1  0
 69 78  1  0
 70 66  1  0
 70 74  1  0
 71 70  1  0
 72 71  1  0
 72 73  1  0
 73 69  1  0
 74 69  2  0
 74 75  1  0
 75 76  2  0
 76 77  1  0
 78 77  2  0
 79 53  1  0
 79 89  1  0
 80 83  1  0
 80 79  1  0
 81 80  1  0
 82 81  2  0
 85 84  1  0
 85 81  1  0
 87 86  1  0
 87 85  1  0
 88 87  1  0
 89 91  1  1
 89 90  1  0
 92 89  1  0
 93 96  1  0
 93 11  1  0
 94 93  1  0
 96 95  1  0
 97100  1  0
 97 96  1  0
 98100  1  0
100 99  1  0
M  ISO  4   1 100  15 100  51 101  52 101
M  END
>  <TORSDO>  (37) 
F 22

>  <SCORE>  (37) 
-2.510

>  <name>  (37) 
36

>  <ligand_id>  (37) 
36

>  <original_smiles>  (37) 
[H]c1c([H])c([H])c2c(c1[H])C([H])([H])C([H])([H])C([H])([H])C2([H])N([H])C(=O)C1([H])N(C(=O)C([H])(N([H])C(=O)C([H])(N([H])C([H])([H])[H])C([H])([H])[H])C(C([H])([H])[H])(C([H])([H])[H])C([H])([H])[H])C([H])([H])c2c([H])c(OC([H])([H])C([H])([H])C(=O)N([H])c3c(N([H])C([H])(C([H])([H])[H])C([H])([H])C([H])(C([H])([H])[H])C([H])([H])[H])c([H])c(N([H])C(=O)N4C([H])([H])C([H])([H])C([H])([H])C([H])(n5nc(-c6c([H])c([H])c(Oc7c([H])c([H])c(F)c([H])c7F)c([H])c6[H])c(C(=O)N([H])[H])c5N([H])[H])C4([H])[H])[n+]([H])c3[H])c([H])c([H])c2C1([H])[H]

>  <smiles>  (37) 
[H]c1c([H])c([H])c2c(c1[H])C([H])([H])C([H])([H])C([H])([H])C2([H])N([H])C(=O)C1([H])N(C(=O)C([H])(N([H])C(=O)C([H])(N([H])C([H])([H])[H])C([H])([H])[H])C(C([H])([H])[H])(C([H])([H])[H])C([H])([H])[H])C([H])([H])c2c([H])c(OC([H])([H])C([H])([H])C(=O)N([H])c3c(N([H])C([H])(C([H])([H])[H])C([H])([H])C([H])(C([H])([H])[H])C([H])([H])[H])c([H])c(N([H])C(=O)N4C([H])([H])C([H])([H])C([H])([H])C([H])(n5nc(-c6c([H])c([H])c(Oc7c([H])c([H])c(F)c([H])c7F)c([H])c6[H])c(C(=O)N([H])[H])c5N([H])[H])C4([H])[H])[n+]([H])c3[H])c([H])c([H])c2C1([H])[H]

$$$$
37:0:0
     RDKit          3D

 90 98  0  0  1  0  0  0  0  0999 V2000
  -30.6660  -19.4980   19.5300 C   0  0  0  0  0  3  0  0  0  0  0  0
  -29.9730  -18.6770   20.4070 C   0  0  0  0  0  0  0  0  0  0  0  0
  -29.2300  -21.1720   20.2680 C   0  0  0  0  0  0  0  0  0  0  0  0
  -29.0070  -23.7950   20.1390 C   0  0  0  0  0  0  0  0  0  0  0  0
  -30.2600  -20.8620   19.4630 N   0  0  0  0  0  0  0  0  0  0  0  0
  -28.5720  -22.4920   20.3160 N   0  0  0  0  0  0  0  0  0  0  0  0
  -30.2050  -24.0910   20.1010 O   0  0  0  0  0  0  0  0  0  0  0  0
  -28.6830  -19.6820   21.1300 S   0  0  0  0  0  0  0  0  0  0  0  0
  -27.5800  -22.4310   20.5030 H   0  0  0  0  0  0  0  0  0  0  0  0
  -30.4220  -17.2600   20.9380 C   0  0  0  0  0  2  0  0  0  0  0  0
  -30.5620  -14.7770   20.1660 C   0  0  0  0  0  0  0  0  0  0  0  0
  -30.2800  -12.5430   19.0840 C   0  0  0  0  0  2  0  0  0  0  0  0
  -29.2940  -12.6450   17.9010 C   0  0  0  0  0  2  0  0  0  0  0  0
  -27.8420  -12.4710   18.3880 C   0  0  0  0  0  2  0  0  0  0  0  0
  -27.5220  -13.3370   19.6360 C   0  0  0  0  0  3  0  0  0  0  0  0
  -28.6240  -13.2240   20.7100 C   0  0  0  0  0  2  0  0  0  0  0  0
  -29.8950  -13.5780   20.0690 N   0  0  0  0  0  0  0  0  0  0  0  0
  -31.7390  -14.8570   19.8070 O   0  0  0  0  0  0  0  0  0  0  0  0
  -29.8540  -15.9180   20.5010 N   0  0  0  0  0  0  0  0  0  0  0  0
  -28.8700  -15.7810   20.6730 H   0  0  0  0  0  0  0  0  0  0  0  0
  -25.1630  -13.9180   20.4600 C   0  0  0  0  0  0  0  0  0  0  0  0
  -24.1100  -13.1380   20.8570 C   0  0  0  0  0  0  0  0  0  0  0  0
  -24.5730  -11.7880   20.7920 C   0  0  0  0  0  0  0  0  0  0  0  0
  -26.1970  -13.0420   20.1740 N   0  0  0  0  0  0  0  0  0  0  0  0
  -25.8520  -11.7550   20.4380 N   0  0  0  0  0  0  0  0  0  0  0  0
  -23.8530  -10.5230   20.9910 C   0  0  0  0  0  0  0  0  0  0  0  0
  -24.3020   -9.5540   21.9160 C   0  0  0  0  0  3  0  0  0  0  0  0
  -23.5820   -8.3540   22.1030 C   0  0  0  0  0  3  0  0  0  0  0  0
  -22.3990   -8.1140   21.3640 C   0  0  0  0  0  0  0  0  0  0  0  0
  -21.9690   -9.0720   20.4280 C   0  0  0  0  0  3  0  0  0  0  0  0
  -22.6900  -10.2620   20.2400 C   0  0  0  0  0  3  0  0  0  0  0  0
  -21.6480   -6.9670   21.4600 O   0  0  0  0  0  0  0  0  0  0  0  0
  -21.5980   -6.2360   22.6200 C   0  0  0  0  0  0  0  0  0  0  0  0
  -21.1280   -6.7890   23.8310 C   0  0  0  0  0  3  0  0  0  0  0  0
  -21.0290   -5.9810   24.9820 C   0  0  0  0  0  3  0  0  0  0  0  0
  -21.3880   -4.6220   24.9230 C   0  0  0  0  0  0  0  0  0  0  0  0
  -21.8520   -4.0680   23.7160 C   0  0  0  0  0  3  0  0  0  0  0  0
  -21.9530   -4.8730   22.5670 C   0  0  0  0  0  0  0  0  0  0  0  0
  -22.3800   -4.3280   21.4020 F   0  0  0  0  0  0  0  0  0  0  0  0
  -21.2860   -3.8440   26.0260 F   0  0  0  0  0  0  0  0  0  0  0  0
  -22.7240  -13.6100   21.1830 C   0  0  0  0  0  0  0  0  0  0  0  0
  -22.0250  -12.9020   22.0630 N   0  0  0  0  0  0  0  0  0  0  0  0
  -22.2680  -14.6430   20.6920 O   0  0  0  0  0  0  0  0  0  0  0  0
  -22.4070  -12.0670   22.4820 H   0  0  0  0  0  0  0  0  0  0  0  0
  -21.0960  -13.2010   22.3240 H   0  0  0  0  0  0  0  0  0  0  0  0
  -25.3180  -15.2900   20.2930 N   0  0  0  0  0  0  0  0  0  0  0  0
  -24.5520  -15.9390   20.4340 H   0  0  0  0  0  0  0  0  0  0  0  0
  -26.1450  -15.7340   19.9130 H   0  0  0  0  0  0  0  0  0  0  0  0
  -27.9140  -24.9470   19.9670 C   0  0  0  0  0  2  0  0  0  0  0  0
  -28.2640  -26.4030   20.1320 O   0  0  0  0  0  0  0  0  0  0  0  0
  -24.5840  -31.8840   23.1940 C   0  0  0  0  0  0  0  0  0  0  0  0
  -27.1820  -27.3200   20.0830 C   0  0  0  0  0  0  0  0  0  0  0  0
  -23.3830  -30.5090   21.5370 C   0  0  0  0  0  3  0  0  0  0  0  0
  -24.8320  -28.9810   20.0900 C   0  0  0  0  0  0  0  0  0  0  0  0
  -25.9290  -30.8130   21.3670 C   0  0  0  0  0  2  0  0  0  0  0  0
  -26.0070  -29.4430   20.6970 C   0  0  0  0  0  0  0  0  0  0  0  0
  -27.1860  -28.6260   20.6830 C   0  0  0  0  0  3  0  0  0  0  0  0
  -25.9770  -26.9370   19.4430 C   0  0  0  0  0  3  0  0  0  0  0  0
  -24.8230  -27.7360   19.4520 C   0  0  0  0  0  3  0  0  0  0  0  0
  -23.5990  -29.8590   20.1480 C   0  0  0  0  0  2  0  0  0  0  0  0
  -24.6500  -31.0860   22.0880 N   0  0  0  0  0  0  0  0  0  0  0  0
  -23.4980  -32.1560   23.7280 O   0  0  0  0  0  0  0  0  0  0  0  0
  -22.7160  -29.4790   22.4810 C   0  0  0  0  0  0  0  0  0  0  0  0
  -21.3930  -29.2880   22.3360 N   0  0  0  0  0  0  0  0  0  0  0  0
  -23.3880  -28.8550   23.3060 O   0  0  0  0  0  0  0  0  0  0  0  0
  -20.9080  -29.8440   21.6440 H   0  0  0  0  0  0  0  0  0  0  0  0
  -18.0200  -28.0530   22.7850 C   0  0  0  0  0  0  0  0  0  0  0  0
  -20.5720  -28.3390   23.0910 C   0  0  0  0  0  3  0  0  0  0  0  0
  -20.6970  -26.9110   22.5130 C   0  0  0  0  0  2  0  0  0  0  0  0
  -19.6130  -26.5790   21.4830 C   0  0  0  0  0  2  0  0  0  0  0  0
  -18.2210  -26.7080   22.1080 C   0  0  0  0  0  2  0  0  0  0  0  0
  -19.1250  -28.8260   23.2330 C   0  0  0  0  0  0  0  0  0  0  0  0
  -18.8840  -30.0840   23.8260 C   0  0  0  0  0  3  0  0  0  0  0  0
  -17.5710  -30.5700   23.9760 C   0  0  0  0  0  3  0  0  0  0  0  0
  -16.4810  -29.7950   23.5440 C   0  0  0  0  0  3  0  0  0  0  0  0
  -16.7060  -28.5380   22.9540 C   0  0  0  0  0  3  0  0  0  0  0  0
  -25.8630  -32.5090   23.8260 C   0  0  0  0  0  3  0  0  0  0  0  0
  -25.5690  -33.9190   24.1240 N   0  0  0  0  0  0  0  0  0  0  0  0
  -25.9080  -34.9500   23.3410 C   0  0  0  0  0  0  0  0  0  0  0  0
  -26.5710  -34.8170   22.3090 O   0  0  0  0  0  0  0  0  0  0  0  0
  -24.9810  -34.0980   24.9250 H   0  0  0  0  0  0  0  0  0  0  0  0
  -24.1930  -36.7510   22.9600 C   0  0  0  0  0  1  0  0  0  0  0  0
  -25.4380  -36.3540   23.7700 C   0  0  0  0  0  3  0  0  0  0  0  0
  -27.5820  -37.2460   24.5680 C   0  0  0  0  0  1  0  0  0  0  0  0
  -26.4790  -37.3940   23.6220 N   0  0  0  0  0  0  0  0  0  0  0  0
  -26.0810  -38.3230   23.7420 H   0  0  0  0  0  0  0  0  0  0  0  0
  -26.3440  -31.7570   25.1270 C   0  0  1  0  0  0  0  0  0  0  0  0
  -25.2270  -31.5540   26.1770 C   0  0  0  0  0  1  0  0  0  0  0  0
  -26.9160  -30.3630   24.7750 C   0  0  0  0  0  1  0  0  0  0  0  0
  -27.4920  -32.5480   25.7950 C   0  0  0  0  0  1  0  0  0  0  0  0
  1  2  2  0
  2 10  1  0
  2  8  1  0
  3  6  1  0
  3  8  1  0
  4  6  1  0
  5  1  1  0
  5  3  2  0
  6  9  1  0
  7  4  2  0
 11 19  1  0
 12 17  1  0
 13 14  1  0
 13 12  1  0
 15 14  1  0
 15 24  1  0
 15 16  1  0
 17 11  1  0
 17 16  1  0
 18 11  2  0
 19 20  1  0
 19 10  1  0
 21 22  2  0
 22 41  1  0
 23 22  1  0
 23 26  1  0
 24 25  1  0
 24 21  1  0
 25 23  2  0
 26 27  1  0
 27 28  2  0
 29 32  1  0
 29 28  1  0
 30 29  2  0
 31 30  1  0
 31 26  2  0
 32 33  1  0
 33 34  1  0
 34 35  2  0
 36 35  1  0
 36 40  1  0
 37 36  2  0
 38 33  2  0
 38 37  1  0
 39 38  1  0
 41 42  1  0
 42 45  1  0
 42 44  1  0
 43 41  2  0
 46 47  1  0
 46 21  1  0
 48 46  1  0
 49 50  1  0
 49  4  1  0
 51 62  2  0
 52 50  1  0
 52 57  1  0
 53 61  1  0
 53 63  1  0
 54 60  1  0
 54 56  1  0
 55 61  1  0
 56 55  1  0
 57 56  2  0
 58 59  1  0
 58 52  2  0
 59 54  2  0
 60 53  1  0
 61 51  1  0
 63 65  2  0
 64 63  1  0
 66 64  1  0
 67 76  2  0
 67 72  1  0
 68 64  1  0
 68 72  1  0
 69 68  1  0
 70 71  1  0
 70 69  1  0
 71 67  1  0
 72 73  2  0
 73 74  1  0
 75 74  2  0
 76 75  1  0
 77 51  1  0
 77 78  1  0
 77 87  1  0
 78 81  1  0
 79 83  1  0
 79 78  1  0
 80 79  2  0
 83 82  1  0
 85 86  1  0
 85 83  1  0
 85 84  1  0
 87 90  1  1
 87 88  1  0
 89 87  1  0
M  ISO  4  11 100  19 100  49 101  50 101
M  END
>  <TORSDO>  (38) 
F 18

>  <SCORE>  (38) 
-13.967

>  <name>  (38) 
37

>  <ligand_id>  (38) 
37

>  <original_smiles>  (38) 
[H]c1nc(N([H])C(=O)C([H])([H])Oc2c([H])c([H])c3c(c2[H])C([H])([H])N(C(=O)C([H])(N([H])C(=O)C([H])(N([H])C([H])([H])[H])C([H])([H])[H])C(C([H])([H])[H])(C([H])([H])[H])C([H])([H])[H])C([H])(C(=O)N([H])C2([H])c4c([H])c([H])c([H])c([H])c4C([H])([H])C([H])([H])C2([H])[H])C3([H])[H])sc1C([H])([H])N([H])C(=O)N1C([H])([H])C([H])([H])C([H])([H])C([H])(n2nc(-c3c([H])c([H])c(Oc4c([H])c([H])c(F)c([H])c4F)c([H])c3[H])c(C(=O)N([H])[H])c2N([H])[H])C1([H])[H]

>  <smiles>  (38) 
[H]c1nc(N([H])C(=O)C([H])([H])Oc2c([H])c([H])c3c(c2[H])C([H])([H])N(C(=O)C([H])(N([H])C(=O)C([H])(N([H])C([H])([H])[H])C([H])([H])[H])C(C([H])([H])[H])(C([H])([H])[H])C([H])([H])[H])C([H])(C(=O)N([H])C2([H])c4c([H])c([H])c([H])c([H])c4C([H])([H])C([H])([H])C2([H])[H])C3([H])[H])sc1C([H])([H])N([H])C(=O)N1C([H])([H])C([H])([H])C([H])([H])C([H])(n2nc(-c3c([H])c([H])c(Oc4c([H])c([H])c(F)c([H])c4F)c([H])c3[H])c(C(=O)N([H])[H])c2N([H])[H])C1([H])[H]

$$$$
38:0:0
     RDKit          3D

 92100  0  0  1  0  0  0  0  0999 V2000
  -29.3400  -21.5300   20.1980 N   0  0  0  0  0  4  0  0  0  0  0  0
  -28.4920  -21.2130   20.6390 H   0  0  0  0  0  0  0  0  0  0  0  0
  -29.1840  -21.5060   19.2040 H   0  0  0  0  0  0  0  0  0  0  0  0
  -31.0560  -23.3900   20.3200 C   0  0  0  0  0  1  0  0  0  0  0  0
  -29.6100  -22.9510   20.6480 C   0  0  0  0  0  3  0  0  0  0  0  0
  -28.5980  -24.0390   20.0980 C   0  0  0  0  0  2  0  0  0  0  0  0
  -28.5300  -25.3970   20.9010 C   0  0  0  0  0  2  0  0  0  0  0  0
  -28.5080  -26.6420   20.1480 O   0  0  0  0  0  0  0  0  0  0  0  0
  -24.5930  -31.8130   23.2320 C   0  0  0  0  0  0  0  0  0  0  0  0
  -27.3420  -27.3910   20.1740 C   0  0  0  0  0  0  0  0  0  0  0  0
  -23.4380  -30.4200   21.5460 C   0  0  0  0  0  3  0  0  0  0  0  0
  -24.9390  -28.9050   20.1390 C   0  0  0  0  0  0  0  0  0  0  0  0
  -25.9680  -30.7950   21.4120 C   0  0  0  0  0  2  0  0  0  0  0  0
  -26.0820  -29.4270   20.7590 C   0  0  0  0  0  0  0  0  0  0  0  0
  -27.2880  -28.6800   20.7680 C   0  0  0  0  0  3  0  0  0  0  0  0
  -26.1830  -26.8910   19.5490 C   0  0  0  0  0  3  0  0  0  0  0  0
  -24.9880  -27.6390   19.5260 C   0  0  0  0  0  3  0  0  0  0  0  0
  -23.6880  -29.7570   20.1650 C   0  0  0  0  0  2  0  0  0  0  0  0
  -24.6830  -31.0250   22.1220 N   0  0  0  0  0  0  0  0  0  0  0  0
  -23.4970  -32.0690   23.7510 O   0  0  0  0  0  0  0  0  0  0  0  0
  -22.7710  -29.3850   22.4810 C   0  0  0  0  0  0  0  0  0  0  0  0
  -21.4520  -29.1900   22.3200 N   0  0  0  0  0  0  0  0  0  0  0  0
  -23.4410  -28.7580   23.3060 O   0  0  0  0  0  0  0  0  0  0  0  0
  -20.9720  -29.7490   21.6290 H   0  0  0  0  0  0  0  0  0  0  0  0
  -18.0790  -27.9550   22.7260 C   0  0  0  0  0  0  0  0  0  0  0  0
  -20.6280  -28.2340   23.0600 C   0  0  0  0  0  3  0  0  0  0  0  0
  -20.7580  -26.8130   22.4660 C   0  0  0  0  0  2  0  0  0  0  0  0
  -19.6820  -26.4940   21.4230 C   0  0  0  0  0  2  0  0  0  0  0  0
  -18.2840  -26.6170   22.0360 C   0  0  0  0  0  2  0  0  0  0  0  0
  -19.1800  -28.7210   23.1920 C   0  0  0  0  0  0  0  0  0  0  0  0
  -18.9360  -29.9740   23.7950 C   0  0  0  0  0  3  0  0  0  0  0  0
  -17.6230  -30.4610   23.9370 C   0  0  0  0  0  3  0  0  0  0  0  0
  -16.5360  -29.6920   23.4890 C   0  0  0  0  0  3  0  0  0  0  0  0
  -16.7650  -28.4400   22.8890 C   0  0  0  0  0  3  0  0  0  0  0  0
  -25.8570  -32.4490   23.8890 C   0  0  0  0  0  3  0  0  0  0  0  0
  -25.5300  -33.8410   24.2270 N   0  0  0  0  0  0  0  0  0  0  0  0
  -25.8650  -34.9040   23.4830 C   0  0  0  0  0  0  0  0  0  0  0  0
  -26.5540  -34.8160   22.4620 O   0  0  0  0  0  0  0  0  0  0  0  0
  -24.9220  -33.9830   25.0210 H   0  0  0  0  0  0  0  0  0  0  0  0
  -24.1200  -36.6780   23.1190 C   0  0  0  0  0  1  0  0  0  0  0  0
  -25.3570  -36.2830   23.9440 C   0  0  0  0  0  3  0  0  0  0  0  0
  -27.4720  -37.1860   24.8030 C   0  0  0  0  0  1  0  0  0  0  0  0
  -26.3780  -37.3490   23.8490 N   0  0  0  0  0  0  0  0  0  0  0  0
  -25.9610  -38.2630   23.9990 H   0  0  0  0  0  0  0  0  0  0  0  0
  -26.3550  -31.6670   25.1660 C   0  0  1  0  0  0  0  0  0  0  0  0
  -25.2420  -31.4070   26.2070 C   0  0  0  0  0  1  0  0  0  0  0  0
  -26.9600  -30.3000   24.7700 C   0  0  0  0  0  1  0  0  0  0  0  0
  -27.4840  -32.4630   25.8610 C   0  0  0  0  0  1  0  0  0  0  0  0
  -30.3930  -20.4970   20.5120 C   0  0  0  0  0  2  0  0  0  0  0  0
  -28.3550  -17.0740   20.4990 C   0  0  0  0  0  3  0  0  0  0  0  0
  -29.6920  -16.7690   20.5390 C   0  0  0  0  0  0  0  0  0  0  0  0
  -29.8000  -19.0870   20.4050 C   0  0  0  0  0  0  0  0  0  0  0  0
  -30.5090  -17.9250   20.4740 N   0  0  0  0  0  0  0  0  0  0  0  0
  -28.0610  -18.7860   20.3550 S   0  0  0  0  0  0  0  0  0  0  0  0
  -30.7060  -14.4760   20.0160 C   0  0  0  0  0  0  0  0  0  0  0  0
  -30.4000  -12.2570   18.9340 C   0  0  0  0  0  2  0  0  0  0  0  0
  -29.3820  -12.4070   17.7800 C   0  0  0  0  0  2  0  0  0  0  0  0
  -27.9290  -12.2960   18.2890 C   0  0  0  0  0  2  0  0  0  0  0  0
  -27.6700  -13.1790   19.5380 C   0  0  0  0  0  3  0  0  0  0  0  0
  -28.7770  -12.9510   20.5920 C   0  0  0  0  0  2  0  0  0  0  0  0
  -30.0760  -13.2630   19.9620 N   0  0  0  0  0  0  0  0  0  0  0  0
  -31.7690  -14.6990   19.4240 O   0  0  0  0  0  0  0  0  0  0  0  0
  -30.0510  -15.3940   20.7660 N   0  0  0  0  0  0  0  0  0  0  0  0
  -29.3610  -14.9150   21.3230 H   0  0  0  0  0  0  0  0  0  0  0  0
  -25.3360  -13.8720   20.3790 C   0  0  0  0  0  0  0  0  0  0  0  0
  -24.2660  -13.1400   20.8150 C   0  0  0  0  0  0  0  0  0  0  0  0
  -24.6740  -11.7730   20.7560 C   0  0  0  0  0  0  0  0  0  0  0  0
  -26.3350  -12.9540   20.0900 N   0  0  0  0  0  0  0  0  0  0  0  0
  -25.9410  -11.6850   20.3710 N   0  0  0  0  0  0  0  0  0  0  0  0
  -23.9140  -10.5390   20.9900 C   0  0  0  0  0  0  0  0  0  0  0  0
  -24.3590   -9.5610   21.9070 C   0  0  0  0  0  3  0  0  0  0  0  0
  -23.6040   -8.3890   22.1260 C   0  0  0  0  0  3  0  0  0  0  0  0
  -22.3880   -8.1880   21.4300 C   0  0  0  0  0  0  0  0  0  0  0  0
  -21.9610   -9.1530   20.5020 C   0  0  0  0  0  3  0  0  0  0  0  0
  -22.7170  -10.3170   20.2810 C   0  0  0  0  0  3  0  0  0  0  0  0
  -21.6020   -7.0680   21.5610 O   0  0  0  0  0  0  0  0  0  0  0  0
  -21.5730   -6.3400   22.7230 C   0  0  0  0  0  0  0  0  0  0  0  0
  -21.2160   -6.9230   23.9600 C   0  0  0  0  0  3  0  0  0  0  0  0
  -21.1330   -6.1220   25.1160 C   0  0  0  0  0  3  0  0  0  0  0  0
  -21.3960   -4.7410   25.0380 C   0  0  0  0  0  0  0  0  0  0  0  0
  -21.7460   -4.1580   23.8070 C   0  0  0  0  0  3  0  0  0  0  0  0
  -21.8310   -4.9560   22.6530 C   0  0  0  0  0  0  0  0  0  0  0  0
  -22.1480   -4.3870   21.4650 F   0  0  0  0  0  0  0  0  0  0  0  0
  -21.3090   -3.9690   26.1470 F   0  0  0  0  0  0  0  0  0  0  0  0
  -22.9040  -13.6690   21.1670 C   0  0  0  0  0  0  0  0  0  0  0  0
  -22.2060  -13.0080   22.0850 N   0  0  0  0  0  0  0  0  0  0  0  0
  -22.4710  -14.7030   20.6620 O   0  0  0  0  0  0  0  0  0  0  0  0
  -22.5700  -12.1720   22.5170 H   0  0  0  0  0  0  0  0  0  0  0  0
  -21.2950  -13.3470   22.3600 H   0  0  0  0  0  0  0  0  0  0  0  0
  -25.5380  -15.2350   20.1840 N   0  0  0  0  0  0  0  0  0  0  0  0
  -24.7820  -15.9010   20.3050 H   0  0  0  0  0  0  0  0  0  0  0  0
  -26.3270  -15.6200   19.6820 H   0  0  0  0  0  0  0  0  0  0  0  0
  1 49  1  0
  1  2  1  0
  1  5  1  0
  3  1  1  0
  5  4  1  0
  6  5  1  0
  6  7  1  0
  8 10  1  0
  8  7  1  0
  9 20  2  0
 10 15  1  0
 11 19  1  0
 11 21  1  0
 12 18  1  0
 12 14  1  0
 13 19  1  0
 14 15  2  0
 14 13  1  0
 16 10  2  0
 17 16  1  0
 17 12  2  0
 18 11  1  0
 19  9  1  0
 21 23  2  0
 22 21  1  0
 24 22  1  0
 25 34  2  0
 25 30  1  0
 26 22  1  0
 26 30  1  0
 27 26  1  0
 28 29  1  0
 28 27  1  0
 29 25  1  0
 30 31  2  0
 31 32  1  0
 33 32  2  0
 34 33  1  0
 35  9  1  0
 35 36  1  0
 35 45  1  0
 36 39  1  0
 37 41  1  0
 37 36  1  0
 38 37  2  0
 41 40  1  0
 43 41  1  0
 43 44  1  0
 43 42  1  0
 45 48  1  1
 45 46  1  0
 47 45  1  0
 50 51  2  0
 51 63  1  0
 52 53  2  0
 52 49  1  0
 53 51  1  0
 54 52  1  0
 54 50  1  0
 55 63  1  0
 56 61  1  0
 57 58  1  0
 57 56  1  0
 59 58  1  0
 59 68  1  0
 59 60  1  0
 61 55  1  0
 61 60  1  0
 62 55  2  0
 63 64  1  0
 65 66  2  0
 66 85  1  0
 67 66  1  0
 67 70  1  0
 68 69  1  0
 68 65  1  0
 69 67  2  0
 70 71  1  0
 71 72  2  0
 73 76  1  0
 73 72  1  0
 74 73  2  0
 75 74  1  0
 75 70  2  0
 76 77  1  0
 77 78  1  0
 78 79  2  0
 80 79  1  0
 80 84  1  0
 81 80  2  0
 82 77  2  0
 82 81  1  0
 83 82  1  0
 85 86  1  0
 86 89  1  0
 86 88  1  0
 87 85  2  0
 90 91  1  0
 90 65  1  0
 92 90  1  0
M  ISO  4   7 101   8 101  55 100  63 100
M  END
>  <TORSDO>  (39) 
F 21

>  <SCORE>  (39) 
-13.305

>  <name>  (39) 
38

>  <ligand_id>  (39) 
38

>  <original_smiles>  (39) 
[H]c1sc(C([H])([H])[N+]([H])([H])C([H])(C([H])([H])[H])C([H])([H])C([H])([H])Oc2c([H])c([H])c3c(c2[H])C([H])([H])N(C(=O)C([H])(N([H])C(=O)C([H])(N([H])C([H])([H])[H])C([H])([H])[H])C(C([H])([H])[H])(C([H])([H])[H])C([H])([H])[H])C([H])(C(=O)N([H])C2([H])c4c([H])c([H])c([H])c([H])c4C([H])([H])C([H])([H])C2([H])[H])C3([H])[H])nc1N([H])C(=O)N1C([H])([H])C([H])([H])C([H])([H])C([H])(n2nc(-c3c([H])c([H])c(Oc4c([H])c([H])c(F)c([H])c4F)c([H])c3[H])c(C(=O)N([H])[H])c2N([H])[H])C1([H])[H]

>  <smiles>  (39) 
[H]c1sc(C([H])([H])[N+]([H])([H])C([H])(C([H])([H])[H])C([H])([H])C([H])([H])Oc2c([H])c([H])c3c(c2[H])C([H])([H])N(C(=O)C([H])(N([H])C(=O)C([H])(N([H])C([H])([H])[H])C([H])([H])[H])C(C([H])([H])[H])(C([H])([H])[H])C([H])([H])[H])C([H])(C(=O)N([H])C2([H])c4c([H])c([H])c([H])c([H])c4C([H])([H])C([H])([H])C2([H])[H])C3([H])[H])nc1N([H])C(=O)N1C([H])([H])C([H])([H])C([H])([H])C([H])(n2nc(-c3c([H])c([H])c(Oc4c([H])c([H])c(F)c([H])c4F)c([H])c3[H])c(C(=O)N([H])[H])c2N([H])[H])C1([H])[H]

$$$$
39:0:0
     RDKit          3D

 99107  0  0  1  0  0  0  0  0999 V2000
  -29.8050  -22.3710   18.8340 C   0  0  0  0  0  3  0  0  0  0  0  0
  -30.2690  -21.6240   20.0170 N   0  0  0  0  0  0  0  0  0  0  0  0
  -31.1250  -22.0000   20.4100 H   0  0  0  0  0  0  0  0  0  0  0  0
  -28.9100  -19.4730   20.0660 C   0  0  0  0  0  3  0  0  0  0  0  0
  -30.0230  -20.2610   20.2670 C   0  0  0  0  0  0  0  0  0  0  0  0
  -30.2750  -17.8790   20.9830 C   0  0  0  0  0  0  0  0  0  0  0  0
  -29.0720  -18.1310   20.4500 N   0  0  0  0  0  0  0  0  0  0  0  0
  -31.2970  -19.3270   21.0110 S   0  0  0  0  0  0  0  0  0  0  0  0
  -30.6950  -14.4400   20.3690 C   0  0  0  0  0  0  0  0  0  0  0  0
  -30.2950  -12.3600   19.0940 C   0  0  0  0  0  2  0  0  0  0  0  0
  -29.3260  -12.6240   17.9250 C   0  0  0  0  0  2  0  0  0  0  0  0
  -27.8650  -12.4850   18.3900 C   0  0  0  0  0  2  0  0  0  0  0  0
  -27.5720  -13.2810   19.6900 C   0  0  0  0  0  3  0  0  0  0  0  0
  -28.6500  -13.0020   20.7610 C   0  0  0  0  0  2  0  0  0  0  0  0
  -29.9660  -13.3060   20.1720 N   0  0  0  0  0  0  0  0  0  0  0  0
  -31.7740  -14.6310   19.7960 O   0  0  0  0  0  0  0  0  0  0  0  0
  -30.7230  -16.5710   21.5390 C   0  0  0  0  0  0  0  0  0  0  0  0
  -31.6820  -16.6090   22.4020 N   0  0  0  0  0  0  0  0  0  0  0  0
  -30.1300  -15.3640   21.1700 N   0  0  0  0  0  0  0  0  0  0  0  0
  -31.9640  -17.5780   22.5360 H   0  0  0  0  0  0  0  0  0  0  0  0
  -29.1740  -15.2030   21.4410 H   0  0  0  0  0  0  0  0  0  0  0  0
  -25.1900  -13.8940   20.4460 C   0  0  0  0  0  0  0  0  0  0  0  0
  -24.1240  -13.1230   20.8290 C   0  0  0  0  0  0  0  0  0  0  0  0
  -24.5800  -11.7700   20.7810 C   0  0  0  0  0  0  0  0  0  0  0  0
  -26.2270  -13.0100   20.1900 N   0  0  0  0  0  0  0  0  0  0  0  0
  -25.8630  -11.7270   20.4490 N   0  0  0  0  0  0  0  0  0  0  0  0
  -23.8510  -10.5100   20.9750 C   0  0  0  0  0  0  0  0  0  0  0  0
  -24.2760   -9.5490   21.9210 C   0  0  0  0  0  3  0  0  0  0  0  0
  -23.5490   -8.3540   22.1020 C   0  0  0  0  0  3  0  0  0  0  0  0
  -22.3830   -8.1090   21.3390 C   0  0  0  0  0  0  0  0  0  0  0  0
  -21.9770   -9.0570   20.3830 C   0  0  0  0  0  3  0  0  0  0  0  0
  -22.7060  -10.2430   20.1990 C   0  0  0  0  0  3  0  0  0  0  0  0
  -21.6300   -6.9630   21.4290 O   0  0  0  0  0  0  0  0  0  0  0  0
  -21.5630   -6.2350   22.5890 C   0  0  0  0  0  0  0  0  0  0  0  0
  -21.0910   -6.7960   23.7950 C   0  0  0  0  0  3  0  0  0  0  0  0
  -20.9730   -5.9920   24.9480 C   0  0  0  0  0  3  0  0  0  0  0  0
  -21.3180   -4.6280   24.8930 C   0  0  0  0  0  0  0  0  0  0  0  0
  -21.7840   -4.0660   23.6910 C   0  0  0  0  0  3  0  0  0  0  0  0
  -21.9030   -4.8670   22.5420 C   0  0  0  0  0  0  0  0  0  0  0  0
  -22.3320   -4.3160   21.3810 F   0  0  0  0  0  0  0  0  0  0  0  0
  -21.1970   -3.8540   25.9960 F   0  0  0  0  0  0  0  0  0  0  0  0
  -22.7350  -13.6040   21.1290 C   0  0  0  0  0  0  0  0  0  0  0  0
  -22.0160  -12.8990   21.9960 N   0  0  0  0  0  0  0  0  0  0  0  0
  -22.2950  -14.6400   20.6330 O   0  0  0  0  0  0  0  0  0  0  0  0
  -22.3840  -12.0610   22.4210 H   0  0  0  0  0  0  0  0  0  0  0  0
  -21.0840  -13.2040   22.2390 H   0  0  0  0  0  0  0  0  0  0  0  0
  -25.3580  -15.2650   20.2750 N   0  0  0  0  0  0  0  0  0  0  0  0
  -24.5970  -15.9230   20.4030 H   0  0  0  0  0  0  0  0  0  0  0  0
  -26.2070  -15.7050   19.9380 H   0  0  0  0  0  0  0  0  0  0  0  0
  -31.9710  -23.7800   18.9700 C   0  0  0  0  0  1  0  0  0  0  0  0
  -30.4280  -23.8120   18.8930 C   0  0  0  0  0  3  0  0  0  0  0  0
  -29.8590  -24.7600   19.9870 C   0  0  0  0  0  2  0  0  0  0  0  0
  -28.5150  -25.4400   19.6370 C   0  0  0  0  0  2  0  0  0  0  0  0
  -28.4400  -26.7280   20.2680 O   0  0  0  0  0  0  0  0  0  0  0  0
  -24.5760  -31.9090   23.2520 C   0  0  0  0  0  0  0  0  0  0  0  0
  -27.2470  -27.4280   20.2330 C   0  0  0  0  0  0  0  0  0  0  0  0
  -23.3790  -30.4780   21.6290 C   0  0  0  0  0  3  0  0  0  0  0  0
  -24.8400  -28.9270   20.2300 C   0  0  0  0  0  0  0  0  0  0  0  0
  -25.9050  -30.8420   21.4320 C   0  0  0  0  0  2  0  0  0  0  0  0
  -25.9950  -29.4610   20.8120 C   0  0  0  0  0  0  0  0  0  0  0  0
  -27.1970  -28.7170   20.8170 C   0  0  0  0  0  3  0  0  0  0  0  0
  -26.0690  -26.9100   19.6440 C   0  0  0  0  0  3  0  0  0  0  0  0
  -24.8710  -27.6480   19.6470 C   0  0  0  0  0  3  0  0  0  0  0  0
  -23.5940  -29.7810   20.2600 C   0  0  0  0  0  2  0  0  0  0  0  0
  -24.6380  -31.0920   22.1620 N   0  0  0  0  0  0  0  0  0  0  0  0
  -23.4940  -32.1850   23.7870 O   0  0  0  0  0  0  0  0  0  0  0  0
  -22.7310  -29.4670   22.6030 C   0  0  0  0  0  0  0  0  0  0  0  0
  -21.4100  -29.2690   22.4680 N   0  0  0  0  0  0  0  0  0  0  0  0
  -23.4150  -28.8640   23.4350 O   0  0  0  0  0  0  0  0  0  0  0  0
  -20.9200  -29.8080   21.7690 H   0  0  0  0  0  0  0  0  0  0  0  0
  -18.0410  -28.0660   22.9750 C   0  0  0  0  0  0  0  0  0  0  0  0
  -20.5970  -28.3380   23.2490 C   0  0  0  0  0  3  0  0  0  0  0  0
  -20.7070  -26.8990   22.6920 C   0  0  0  0  0  2  0  0  0  0  0  0
  -19.6090  -26.5590   21.6800 C   0  0  0  0  0  2  0  0  0  0  0  0
  -18.2250  -26.7080   22.3200 C   0  0  0  0  0  2  0  0  0  0  0  0
  -19.1560  -28.8380   23.3980 C   0  0  0  0  0  0  0  0  0  0  0  0
  -18.9310  -30.1080   23.9710 C   0  0  0  0  0  3  0  0  0  0  0  0
  -17.6240  -30.6080   24.1250 C   0  0  0  0  0  3  0  0  0  0  0  0
  -16.5240  -29.8320   23.7180 C   0  0  0  0  0  3  0  0  0  0  0  0
  -16.7330  -28.5640   23.1500 C   0  0  0  0  0  3  0  0  0  0  0  0
  -25.8590  -32.5540   23.8640 C   0  0  0  0  0  3  0  0  0  0  0  0
  -25.5430  -33.9540   24.1780 N   0  0  0  0  0  0  0  0  0  0  0  0
  -25.8850  -35.0000   23.4160 C   0  0  0  0  0  0  0  0  0  0  0  0
  -26.5730  -34.8900   22.3970 O   0  0  0  0  0  0  0  0  0  0  0  0
  -24.9340  -34.1130   24.9670 H   0  0  0  0  0  0  0  0  0  0  0  0
  -24.1710  -36.7930   23.0030 C   0  0  0  0  0  1  0  0  0  0  0  0
  -25.3860  -36.3910   23.8530 C   0  0  0  0  0  3  0  0  0  0  0  0
  -27.4910  -37.2790   24.7510 C   0  0  0  0  0  1  0  0  0  0  0  0
  -26.4240  -37.4420   23.7680 N   0  0  0  0  0  0  0  0  0  0  0  0
  -26.0130  -38.3630   23.8950 H   0  0  0  0  0  0  0  0  0  0  0  0
  -26.3850  -31.7990   25.1460 C   0  0  1  0  0  0  0  0  0  0  0  0
  -25.2960  -31.5590   26.2160 C   0  0  0  0  0  1  0  0  0  0  0  0
  -26.9820  -30.4240   24.7620 C   0  0  0  0  0  1  0  0  0  0  0  0
  -27.5290  -32.6100   25.7990 C   0  0  0  0  0  1  0  0  0  0  0  0
  -30.1620  -21.6260   17.4940 C   0  0  0  0  0  3  0  0  0  0  0  0
  -29.4640  -23.5950   15.9290 C   0  0  0  0  0  1  0  0  0  0  0  0
  -30.4980  -22.5000   16.2610 C   0  0  0  0  0  2  0  0  0  0  0  0
  -29.0700  -20.8370   17.0660 O   0  0  0  0  0  0  0  0  0  0  0  0
  -28.3660  -21.4340   16.8420 H   0  0  0  0  0  0  0  0  0  0  0  0
  1 51  1  0
  1  2  1  0
  2  5  1  0
  2  3  1  0
  4  5  2  0
  4  7  1  0
  5  8  1  0
  6  8  1  0
  6 17  1  0
  7  6  2  0
  9 19  1  0
 10 15  1  0
 11 12  1  0
 11 10  1  0
 13 12  1  0
 13 25  1  0
 13 14  1  0
 15  9  1  0
 15 14  1  0
 16  9  2  0
 17 18  2  0
 18 20  1  0
 19 21  1  0
 19 17  1  0
 22 23  2  0
 23 42  1  0
 24 23  1  0
 24 27  1  0
 25 22  1  0
 25 26  1  0
 26 24  2  0
 27 28  1  0
 28 29  2  0
 30 33  1  0
 30 29  1  0
 31 30  2  0
 32 31  1  0
 32 27  2  0
 33 34  1  0
 34 35  1  0
 35 36  2  0
 37 36  1  0
 37 41  1  0
 38 37  2  0
 39 34  2  0
 39 38  1  0
 40 39  1  0
 42 43  1  0
 43 46  1  0
 43 45  1  0
 44 42  2  0
 47 48  1  0
 47 22  1  0
 49 47  1  0
 51 50  1  0
 51 52  1  0
 53 52  1  0
 53 54  1  0
 55 66  2  0
 56 54  1  0
 56 61  1  0
 57 65  1  0
 57 67  1  0
 58 64  1  0
 58 60  1  0
 59 65  1  0
 60 61  2  0
 60 59  1  0
 62 63  1  0
 62 56  2  0
 63 58  2  0
 64 57  1  0
 65 55  1  0
 67 69  2  0
 68 67  1  0
 70 68  1  0
 71 80  2  0
 71 76  1  0
 72 68  1  0
 72 76  1  0
 73 72  1  0
 74 75  1  0
 74 73  1  0
 75 71  1  0
 76 77  2  0
 77 78  1  0
 79 78  2  0
 80 79  1  0
 81 55  1  0
 81 82  1  0
 81 91  1  0
 82 85  1  0
 83 87  1  0
 83 82  1  0
 84 83  2  0
 87 86  1  0
 89 87  1  0
 89 90  1  0
 89 88  1  0
 91 94  1  1
 91 92  1  0
 93 91  1  0
 95 97  1  0
 95  1  1  0
 96 97  1  0
 98 95  1  0
 99 98  1  0
M  ISO  4   9 100  19 100  53 101  54 101
M  END
>  <TORSDO>  (40) 
F 24

>  <SCORE>  (40) 
-12.402

>  <name>  (40) 
39

>  <ligand_id>  (40) 
39

>  <original_smiles>  (40) 
[H]N=C(c1nc([H])c(N([H])C([H])(C([H])(O[H])C([H])([H])C([H])([H])[H])C([H])(C([H])([H])[H])C([H])([H])C([H])([H])Oc2c([H])c([H])c3c(c2[H])C([H])([H])N(C(=O)C([H])(N([H])C(=O)C([H])(N([H])C([H])([H])[H])C([H])([H])[H])C(C([H])([H])[H])(C([H])([H])[H])C([H])([H])[H])C([H])(C(=O)N([H])C2([H])c4c([H])c([H])c([H])c([H])c4C([H])([H])C([H])([H])C2([H])[H])C3([H])[H])s1)N([H])C(=O)N1C([H])([H])C([H])([H])C([H])([H])C([H])(n2nc(-c3c([H])c([H])c(Oc4c([H])c([H])c(F)c([H])c4F)c([H])c3[H])c(C(=O)N([H])[H])c2N([H])[H])C1([H])[H]

>  <smiles>  (40) 
[H]N=C(c1nc([H])c(N([H])C([H])(C([H])(O[H])C([H])([H])C([H])([H])[H])C([H])(C([H])([H])[H])C([H])([H])C([H])([H])Oc2c([H])c([H])c3c(c2[H])C([H])([H])N(C(=O)C([H])(N([H])C(=O)C([H])(N([H])C([H])([H])[H])C([H])([H])[H])C(C([H])([H])[H])(C([H])([H])[H])C([H])([H])[H])C([H])(C(=O)N([H])C2([H])c4c([H])c([H])c([H])c([H])c4C([H])([H])C([H])([H])C2([H])[H])C3([H])[H])s1)N([H])C(=O)N1C([H])([H])C([H])([H])C([H])([H])C([H])(n2nc(-c3c([H])c([H])c(Oc4c([H])c([H])c(F)c([H])c4F)c([H])c3[H])c(C(=O)N([H])[H])c2N([H])[H])C1([H])[H]

$$$$
40:0:0
     RDKit          3D

 90 98  0  0  1  0  0  0  0  0999 V2000
  -27.9570  -24.1210   18.6260 C   0  0  0  0  0  3  0  0  0  0  0  0
  -28.2130  -24.6080   19.9010 C   0  0  0  0  0  0  0  0  0  0  0  0
  -28.7240  -22.0990   20.0590 C   0  0  0  0  0  3  0  0  0  0  0  0
  -29.1420  -19.3240   20.1120 C   0  0  0  0  0  0  0  0  0  0  0  0
  -27.6530  -24.9100   17.3940 C   0  0  0  0  0  1  0  0  0  0  0  0
  -28.7250  -23.3990   20.6560 N   0  0  0  0  0  0  0  0  0  0  0  0
  -29.2670  -20.7050   20.5500 N   0  0  0  0  0  0  0  0  0  0  0  0
  -28.2990  -19.0720   19.2510 O   0  0  0  0  0  0  0  0  0  0  0  0
  -28.0800  -22.3440   18.4380 S   0  0  0  0  0  0  0  0  0  0  0  0
  -29.8950  -20.7910   21.3350 H   0  0  0  0  0  0  0  0  0  0  0  0
  -28.2290  -26.0440   20.2690 O   0  0  0  0  0  0  0  0  0  0  0  0
  -24.6010  -31.8670   23.2290 C   0  0  0  0  0  0  0  0  0  0  0  0
  -27.1750  -27.0700   20.1910 C   0  0  0  0  0  0  0  0  0  0  0  0
  -23.4030  -30.4670   21.5960 C   0  0  0  0  0  3  0  0  0  0  0  0
  -24.8480  -28.8760   20.1740 C   0  0  0  0  0  0  0  0  0  0  0  0
  -25.9650  -30.7110   21.4310 C   0  0  0  0  0  2  0  0  0  0  0  0
  -26.0370  -29.3110   20.7730 C   0  0  0  0  0  0  0  0  0  0  0  0
  -27.1970  -28.4280   20.7530 C   0  0  0  0  0  3  0  0  0  0  0  0
  -25.9370  -26.7500   19.5920 C   0  0  0  0  0  3  0  0  0  0  0  0
  -24.8140  -27.6100   19.5720 C   0  0  0  0  0  3  0  0  0  0  0  0
  -23.6280  -29.7860   20.2200 C   0  0  0  0  0  2  0  0  0  0  0  0
  -24.6770  -31.0400   22.1380 N   0  0  0  0  0  0  0  0  0  0  0  0
  -23.5150  -32.1520   23.7570 O   0  0  0  0  0  0  0  0  0  0  0  0
  -22.7200  -29.4680   22.5650 C   0  0  0  0  0  0  0  0  0  0  0  0
  -21.3910  -29.2920   22.4370 N   0  0  0  0  0  0  0  0  0  0  0  0
  -23.3900  -28.8500   23.3970 O   0  0  0  0  0  0  0  0  0  0  0  0
  -20.9070  -29.8390   21.7400 H   0  0  0  0  0  0  0  0  0  0  0  0
  -18.0150  -28.0620   22.9440 C   0  0  0  0  0  0  0  0  0  0  0  0
  -20.5730  -28.3540   23.2130 C   0  0  0  0  0  3  0  0  0  0  0  0
  -20.6880  -26.9180   22.6510 C   0  0  0  0  0  2  0  0  0  0  0  0
  -19.5920  -26.5770   21.6370 C   0  0  0  0  0  2  0  0  0  0  0  0
  -18.2070  -26.7120   22.2740 C   0  0  0  0  0  2  0  0  0  0  0  0
  -19.1250  -28.8400   23.3690 C   0  0  0  0  0  0  0  0  0  0  0  0
  -18.8910  -30.1020   23.9590 C   0  0  0  0  0  3  0  0  0  0  0  0
  -17.5790  -30.5870   24.1230 C   0  0  0  0  0  3  0  0  0  0  0  0
  -16.4840  -29.8070   23.7100 C   0  0  0  0  0  3  0  0  0  0  0  0
  -16.7040  -28.5460   23.1270 C   0  0  0  0  0  3  0  0  0  0  0  0
  -25.8750  -32.5100   23.8540 C   0  0  0  0  0  3  0  0  0  0  0  0
  -25.5580  -33.9100   24.1870 N   0  0  0  0  0  0  0  0  0  0  0  0
  -25.8900  -34.9720   23.4390 C   0  0  0  0  0  0  0  0  0  0  0  0
  -26.5610  -34.8760   22.4080 O   0  0  0  0  0  0  0  0  0  0  0  0
  -24.9600  -34.0570   24.9870 H   0  0  0  0  0  0  0  0  0  0  0  0
  -24.1700  -36.7790   23.0940 C   0  0  0  0  0  1  0  0  0  0  0  0
  -25.4040  -36.3590   23.9080 C   0  0  0  0  0  3  0  0  0  0  0  0
  -27.5320  -37.2350   24.7670 C   0  0  0  0  0  1  0  0  0  0  0  0
  -26.4420  -37.4100   23.8120 N   0  0  0  0  0  0  0  0  0  0  0  0
  -26.0360  -38.3310   23.9570 H   0  0  0  0  0  0  0  0  0  0  0  0
  -26.3860  -31.7510   25.1420 C   0  0  1  0  0  0  0  0  0  0  0  0
  -25.2860  -31.5250   26.2070 C   0  0  0  0  0  1  0  0  0  0  0  0
  -26.9720  -30.3690   24.7730 C   0  0  0  0  0  1  0  0  0  0  0  0
  -27.5340  -32.5520   25.8030 C   0  0  0  0  0  1  0  0  0  0  0  0
  -30.0270  -17.9600   20.6180 C   0  0  0  0  0  2  0  0  0  0  0  0
  -30.4490  -15.1500   20.4320 C   0  0  0  0  0  0  0  0  0  0  0  0
  -30.3910  -12.7560   19.5220 C   0  0  0  0  0  2  0  0  0  0  0  0
  -29.4800  -12.6170   18.2800 C   0  0  0  0  0  2  0  0  0  0  0  0
  -28.0200  -12.3690   18.6970 C   0  0  0  0  0  2  0  0  0  0  0  0
  -27.5660  -13.3150   19.8400 C   0  0  0  0  0  3  0  0  0  0  0  0
  -28.6050  -13.4160   20.9760 C   0  0  0  0  0  2  0  0  0  0  0  0
  -29.8610  -13.8750   20.3650 N   0  0  0  0  0  0  0  0  0  0  0  0
  -31.6700  -15.1800   20.2320 O   0  0  0  0  0  0  0  0  0  0  0  0
  -29.6830  -16.3760   20.5240 N   0  0  0  0  0  0  0  0  0  0  0  0
  -28.6910  -16.2020   20.5730 H   0  0  0  0  0  0  0  0  0  0  0  0
  -25.1770  -13.8620   20.5600 C   0  0  0  0  0  0  0  0  0  0  0  0
  -24.1170  -13.0760   20.9160 C   0  0  0  0  0  0  0  0  0  0  0  0
  -24.5980  -11.7300   20.8940 C   0  0  0  0  0  0  0  0  0  0  0  0
  -26.2310  -12.9950   20.3320 N   0  0  0  0  0  0  0  0  0  0  0  0
  -25.8930  -11.7080   20.6010 N   0  0  0  0  0  0  0  0  0  0  0  0
  -23.8800  -10.4610   21.0740 C   0  0  0  0  0  0  0  0  0  0  0  0
  -24.3110   -9.4930   22.0090 C   0  0  0  0  0  3  0  0  0  0  0  0
  -23.5920   -8.2900   22.1770 C   0  0  0  0  0  3  0  0  0  0  0  0
  -22.4290   -8.0450   21.4090 C   0  0  0  0  0  0  0  0  0  0  0  0
  -22.0180   -9.0000   20.4610 C   0  0  0  0  0  3  0  0  0  0  0  0
  -22.7370  -10.1940   20.2920 C   0  0  0  0  0  3  0  0  0  0  0  0
  -21.6820   -6.8940   21.4870 O   0  0  0  0  0  0  0  0  0  0  0  0
  -21.6260   -6.1490   22.6370 C   0  0  0  0  0  0  0  0  0  0  0  0
  -21.1630   -6.6910   23.8560 C   0  0  0  0  0  3  0  0  0  0  0  0
  -21.0550   -5.8710   24.9970 C   0  0  0  0  0  3  0  0  0  0  0  0
  -21.4020   -4.5080   24.9200 C   0  0  0  0  0  0  0  0  0  0  0  0
  -21.8570   -3.9650   23.7060 C   0  0  0  0  0  3  0  0  0  0  0  0
  -21.9660   -4.7820   22.5680 C   0  0  0  0  0  0  0  0  0  0  0  0
  -22.3850   -4.2480   21.3950 F   0  0  0  0  0  0  0  0  0  0  0  0
  -21.2900   -3.7190   26.0130 F   0  0  0  0  0  0  0  0  0  0  0  0
  -22.7110  -13.5390   21.1590 C   0  0  0  0  0  0  0  0  0  0  0  0
  -21.9710  -12.8360   22.0100 N   0  0  0  0  0  0  0  0  0  0  0  0
  -22.2750  -14.5610   20.6310 O   0  0  0  0  0  0  0  0  0  0  0  0
  -22.3350  -12.0110   22.4620 H   0  0  0  0  0  0  0  0  0  0  0  0
  -21.0270  -13.1310   22.2130 H   0  0  0  0  0  0  0  0  0  0  0  0
  -25.3270  -15.2340   20.3830 N   0  0  0  0  0  0  0  0  0  0  0  0
  -24.5490  -15.8780   20.4790 H   0  0  0  0  0  0  0  0  0  0  0  0
  -26.1630  -15.6790   20.0290 H   0  0  0  0  0  0  0  0  0  0  0  0
  1  5  1  0
  1  2  1  0
  2 11  1  0
  2  6  2  0
  3  7  1  0
  3  6  1  0
  4  7  1  0
  4 52  1  0
  7 10  1  0
  8  4  2  0
  9  1  1  0
  9  3  1  0
 12 23  2  0
 13 11  1  0
 13 18  1  0
 14 22  1  0
 14 24  1  0
 15 21  1  0
 15 17  1  0
 16 22  1  0
 17 16  1  0
 18 17  2  0
 19 13  2  0
 20 19  1  0
 20 15  2  0
 21 14  1  0
 22 12  1  0
 24 26  2  0
 25 24  1  0
 27 25  1  0
 28 37  2  0
 28 33  1  0
 29 25  1  0
 29 33  1  0
 30 29  1  0
 31 32  1  0
 31 30  1  0
 32 28  1  0
 33 34  2  0
 34 35  1  0
 36 35  2  0
 37 36  1  0
 38 12  1  0
 38 39  1  0
 38 48  1  0
 39 42  1  0
 40 44  1  0
 40 39  1  0
 41 40  2  0
 44 43  1  0
 46 44  1  0
 46 47  1  0
 46 45  1  0
 48 51  1  1
 48 49  1  0
 50 48  1  0
 53 61  1  0
 54 59  1  0
 55 56  1  0
 55 54  1  0
 57 56  1  0
 57 66  1  0
 57 58  1  0
 59 53  1  0
 59 58  1  0
 60 53  2  0
 61 62  1  0
 61 52  1  0
 63 64  2  0
 64 83  1  0
 65 64  1  0
 65 68  1  0
 66 63  1  0
 66 67  1  0
 67 65  2  0
 68 69  1  0
 69 70  2  0
 71 74  1  0
 71 70  1  0
 72 71  2  0
 73 72  1  0
 73 68  2  0
 74 75  1  0
 75 76  1  0
 76 77  2  0
 78 77  1  0
 78 82  1  0
 79 78  2  0
 80 75  2  0
 80 79  1  0
 81 80  1  0
 83 84  1  0
 84 87  1  0
 84 86  1  0
 85 83  2  0
 88 89  1  0
 88 63  1  0
 90 88  1  0
M  ISO  4   2 101  11 101  53 100  61 100
M  END
>  <TORSDO>  (41) 
F 17

>  <SCORE>  (41) 
-15.654

>  <name>  (41) 
40

>  <ligand_id>  (41) 
40

>  <original_smiles>  (41) 
[H]c1c([H])c([H])c2c(c1[H])C([H])([H])C([H])([H])C([H])([H])C2([H])N([H])C(=O)C1([H])N(C(=O)C([H])(N([H])C(=O)C([H])(N([H])C([H])([H])[H])C([H])([H])[H])C(C([H])([H])[H])(C([H])([H])[H])C([H])([H])[H])C([H])([H])c2c([H])c(Oc3nc(N([H])C(=O)C([H])([H])N([H])C(=O)N4C([H])([H])C([H])([H])C([H])([H])C([H])(n5nc(-c6c([H])c([H])c(Oc7c([H])c([H])c(F)c([H])c7F)c([H])c6[H])c(C(=O)N([H])[H])c5N([H])[H])C4([H])[H])sc3C([H])([H])[H])c([H])c([H])c2C1([H])[H]

>  <smiles>  (41) 
[H]c1c([H])c([H])c2c(c1[H])C([H])([H])C([H])([H])C([H])([H])C2([H])N([H])C(=O)C1([H])N(C(=O)C([H])(N([H])C(=O)C([H])(N([H])C([H])([H])[H])C([H])([H])[H])C(C([H])([H])[H])(C([H])([H])[H])C([H])([H])[H])C([H])([H])c2c([H])c(Oc3nc(N([H])C(=O)C([H])([H])N([H])C(=O)N4C([H])([H])C([H])([H])C([H])([H])C([H])(n5nc(-c6c([H])c([H])c(Oc7c([H])c([H])c(F)c([H])c7F)c([H])c6[H])c(C(=O)N([H])[H])c5N([H])[H])C4([H])[H])sc3C([H])([H])[H])c([H])c([H])c2C1([H])[H]

$$$$
41:0:0
     RDKit          3D

 92100  0  0  1  0  0  0  0  0999 V2000
  -28.7760  -22.1620   19.8990 C   0  0  0  0  0  2  0  0  0  0  0  0
  -30.6040  -14.7710   20.3280 C   0  0  0  0  0  0  0  0  0  0  0  0
  -30.4040  -12.4830   19.3480 C   0  0  0  0  0  2  0  0  0  0  0  0
  -29.4690  -12.5650   18.1200 C   0  0  0  0  0  2  0  0  0  0  0  0
  -27.9990  -12.3870   18.5490 C   0  0  0  0  0  2  0  0  0  0  0  0
  -27.6270  -13.2680   19.7730 C   0  0  0  0  0  3  0  0  0  0  0  0
  -28.6870  -13.1840   20.8920 C   0  0  0  0  0  2  0  0  0  0  0  0
  -29.9840  -13.5380   20.3040 N   0  0  0  0  0  0  0  0  0  0  0  0
  -31.7770  -14.8580   19.9460 O   0  0  0  0  0  0  0  0  0  0  0  0
  -29.9520  -17.2780   20.0990 C   0  0  0  0  0  0  0  0  0  0  0  0
  -29.5600  -19.6400   20.0600 C   0  0  0  0  0  0  0  0  0  0  0  0
  -29.5050  -18.4330   20.7500 N   0  0  0  0  0  4  0  0  0  0  0  0
  -30.4210  -17.3930   18.8320 N   0  0  0  0  0  0  0  0  0  0  0  0
  -30.0050  -19.6990   18.7900 N   0  0  0  0  0  2  0  0  0  0  0  0
  -30.4310  -18.5760   18.2040 N   0  0  0  0  0  0  0  0  0  0  0  0
  -29.8690  -15.9030   20.6600 N   0  0  0  0  0  0  0  0  0  0  0  0
  -29.2000  -20.9110   20.6590 N   0  0  0  0  0  0  0  0  0  0  0  0
  -29.0340  -15.7250   21.1930 H   0  0  0  0  0  0  0  0  0  0  0  0
  -28.8990  -20.8900   21.6280 H   0  0  0  0  0  0  0  0  0  0  0  0
  -25.2390  -13.8450   20.5120 C   0  0  0  0  0  0  0  0  0  0  0  0
  -24.1790  -13.0660   20.8870 C   0  0  0  0  0  0  0  0  0  0  0  0
  -24.6470  -11.7170   20.8510 C   0  0  0  0  0  0  0  0  0  0  0  0
  -26.2850  -12.9700   20.2670 N   0  0  0  0  0  0  0  0  0  0  0  0
  -25.9370  -11.6850   20.5340 N   0  0  0  0  0  0  0  0  0  0  0  0
  -23.9260  -10.4510   21.0430 C   0  0  0  0  0  0  0  0  0  0  0  0
  -24.3690   -9.4810   21.9680 C   0  0  0  0  0  3  0  0  0  0  0  0
  -23.6470   -8.2810   22.1480 C   0  0  0  0  0  3  0  0  0  0  0  0
  -22.4680   -8.0430   21.4020 C   0  0  0  0  0  0  0  0  0  0  0  0
  -22.0440   -9.0020   20.4650 C   0  0  0  0  0  3  0  0  0  0  0  0
  -22.7660  -10.1930   20.2840 C   0  0  0  0  0  3  0  0  0  0  0  0
  -21.7180   -6.8950   21.4920 O   0  0  0  0  0  0  0  0  0  0  0  0
  -21.6810   -6.1460   22.6400 C   0  0  0  0  0  0  0  0  0  0  0  0
  -21.2620   -6.6930   23.8730 C   0  0  0  0  0  3  0  0  0  0  0  0
  -21.1730   -5.8700   25.0140 C   0  0  0  0  0  3  0  0  0  0  0  0
  -21.4950   -4.5020   24.9230 C   0  0  0  0  0  0  0  0  0  0  0  0
  -21.9070   -3.9550   23.6950 C   0  0  0  0  0  3  0  0  0  0  0  0
  -21.9960   -4.7750   22.5560 C   0  0  0  0  0  0  0  0  0  0  0  0
  -22.3740   -4.2400   21.3700 F   0  0  0  0  0  0  0  0  0  0  0  0
  -21.4020   -3.7090   26.0160 F   0  0  0  0  0  0  0  0  0  0  0  0
  -22.7810  -13.5380   21.1660 C   0  0  0  0  0  0  0  0  0  0  0  0
  -22.0590  -12.8380   22.0340 N   0  0  0  0  0  0  0  0  0  0  0  0
  -22.3400  -14.5630   20.6500 O   0  0  0  0  0  0  0  0  0  0  0  0
  -22.4280  -12.0080   22.4750 H   0  0  0  0  0  0  0  0  0  0  0  0
  -21.1210  -13.1370   22.2610 H   0  0  0  0  0  0  0  0  0  0  0  0
  -25.3970  -15.2170   20.3370 N   0  0  0  0  0  0  0  0  0  0  0  0
  -24.6230  -15.8630   20.4470 H   0  0  0  0  0  0  0  0  0  0  0  0
  -26.2330  -15.6600   19.9800 H   0  0  0  0  0  0  0  0  0  0  0  0
  -28.8780  -23.6270   20.6030 C   0  0  0  0  0  3  0  0  0  0  0  0
  -28.4230  -23.4090   21.9290 O   0  0  0  0  0  0  0  0  0  0  0  0
  -28.5250  -24.2330   22.3980 H   0  0  0  0  0  0  0  0  0  0  0  0
  -28.0130  -24.8700   19.9910 C   0  0  0  0  0  2  0  0  0  0  0  0
  -28.2530  -26.3360   20.2900 O   0  0  0  0  0  0  0  0  0  0  0  0
  -24.6060  -31.8930   23.2390 C   0  0  0  0  0  0  0  0  0  0  0  0
  -27.1760  -27.2580   20.1970 C   0  0  0  0  0  0  0  0  0  0  0  0
  -23.3950  -30.4980   21.6040 C   0  0  0  0  0  3  0  0  0  0  0  0
  -24.8350  -28.9370   20.1730 C   0  0  0  0  0  0  0  0  0  0  0  0
  -25.9410  -30.7840   21.4260 C   0  0  0  0  0  2  0  0  0  0  0  0
  -26.0100  -29.4000   20.7800 C   0  0  0  0  0  0  0  0  0  0  0  0
  -27.1800  -28.5710   20.7860 C   0  0  0  0  0  3  0  0  0  0  0  0
  -25.9840  -26.8850   19.5330 C   0  0  0  0  0  3  0  0  0  0  0  0
  -24.8300  -27.6890   19.5370 C   0  0  0  0  0  3  0  0  0  0  0  0
  -23.6050  -29.8230   20.2240 C   0  0  0  0  0  2  0  0  0  0  0  0
  -24.6660  -31.0780   22.1450 N   0  0  0  0  0  0  0  0  0  0  0  0
  -23.5220  -32.1790   23.7720 O   0  0  0  0  0  0  0  0  0  0  0  0
  -22.7250  -29.4870   22.5670 C   0  0  0  0  0  0  0  0  0  0  0  0
  -21.3970  -29.3200   22.4450 N   0  0  0  0  0  0  0  0  0  0  0  0
  -23.4000  -28.8570   23.3860 O   0  0  0  0  0  0  0  0  0  0  0  0
  -20.9100  -29.8780   21.7590 H   0  0  0  0  0  0  0  0  0  0  0  0
  -18.0130  -28.1460   22.9610 C   0  0  0  0  0  0  0  0  0  0  0  0
  -20.5740  -28.3880   23.2190 C   0  0  0  0  0  3  0  0  0  0  0  0
  -20.6630  -26.9560   22.6450 C   0  0  0  0  0  2  0  0  0  0  0  0
  -19.5550  -26.6390   21.6360 C   0  0  0  0  0  2  0  0  0  0  0  0
  -18.1770  -26.7950   22.2850 C   0  0  0  0  0  2  0  0  0  0  0  0
  -19.1380  -28.9000   23.3850 C   0  0  0  0  0  0  0  0  0  0  0  0
  -18.9300  -30.1650   23.9780 C   0  0  0  0  0  3  0  0  0  0  0  0
  -17.6280  -30.6740   24.1500 C   0  0  0  0  0  3  0  0  0  0  0  0
  -16.5180  -29.9160   23.7410 C   0  0  0  0  0  3  0  0  0  0  0  0
  -16.7100  -28.6540   23.1530 C   0  0  0  0  0  3  0  0  0  0  0  0
  -25.8900  -32.5220   23.8590 C   0  0  0  0  0  3  0  0  0  0  0  0
  -26.4030  -31.7530   25.1390 C   0  0  1  0  0  0  0  0  0  0  0  0
  -25.3080  -31.5240   26.2070 C   0  0  0  0  0  1  0  0  0  0  0  0
  -26.9800  -30.3720   24.7530 C   0  0  0  0  0  1  0  0  0  0  0  0
  -27.5570  -32.5450   25.7980 C   0  0  0  0  0  1  0  0  0  0  0  0
  -25.5860  -33.9240   24.1870 N   0  0  0  0  0  0  0  0  0  0  0  0
  -25.9190  -34.9750   23.4270 C   0  0  0  0  0  0  0  0  0  0  0  0
  -26.5840  -34.8680   22.3920 O   0  0  0  0  0  0  0  0  0  0  0  0
  -24.9950  -34.0800   24.9900 H   0  0  0  0  0  0  0  0  0  0  0  0
  -24.1970  -36.7770   23.0780 C   0  0  0  0  0  1  0  0  0  0  0  0
  -25.4390  -36.3660   23.8850 C   0  0  0  0  0  3  0  0  0  0  0  0
  -27.5800  -37.2440   24.7100 C   0  0  0  0  0  1  0  0  0  0  0  0
  -26.4760  -37.4150   23.7680 N   0  0  0  0  0  0  0  0  0  0  0  0
  -26.0750  -38.3370   23.9150 H   0  0  0  0  0  0  0  0  0  0  0  0
  1 17  1  0
  2 16  1  0
  3  8  1  0
  4  5  1  0
  4  3  1  0
  6  5  1  0
  6 23  1  0
  6  7  1  0
  8  2  1  0
  8  7  1  0
  9  2  2  0
 10 16  1  0
 10 12  2  0
 11 17  1  0
 11 12  2  0
 13 10  1  0
 14 11  1  0
 15 14  1  0
 15 13  2  0
 16 18  1  0
 17 19  1  0
 20 21  2  0
 21 40  1  0
 22 21  1  0
 22 25  1  0
 23 20  1  0
 23 24  1  0
 24 22  2  0
 25 26  1  0
 26 27  2  0
 28 31  1  0
 28 27  1  0
 29 28  2  0
 30 29  1  0
 30 25  2  0
 31 32  1  0
 32 33  1  0
 33 34  2  0
 35 34  1  0
 35 39  1  0
 36 35  2  0
 37 32  2  0
 37 36  1  0
 38 37  1  0
 40 41  1  0
 41 44  1  0
 41 43  1  0
 42 40  2  0
 45 46  1  0
 45 20  1  0
 47 45  1  0
 48  1  1  0
 48 49  1  0
 49 50  1  0
 51 52  1  0
 51 48  1  0
 53 64  2  0
 54 52  1  0
 54 59  1  0
 55 63  1  0
 55 65  1  0
 56 62  1  0
 56 58  1  0
 57 63  1  0
 58 59  2  0
 58 57  1  0
 60 61  1  0
 60 54  2  0
 61 56  2  0
 62 55  1  0
 63 53  1  0
 65 67  2  0
 66 65  1  0
 68 66  1  0
 69 78  2  0
 69 74  1  0
 70 66  1  0
 70 74  1  0
 71 70  1  0
 72 73  1  0
 72 71  1  0
 73 69  1  0
 74 75  2  0
 75 76  1  0
 77 76  2  0
 78 77  1  0
 79 53  1  0
 79 84  1  0
 79 80  1  0
 80 83  1  1
 80 81  1  0
 82 80  1  0
 84 87  1  0
 85 89  1  0
 85 84  1  0
 86 85  2  0
 89 88  1  0
 91 89  1  0
 91 92  1  0
 91 90  1  0
M  ISO  4   2 100  16 100  51 101  52 101
M  END
>  <TORSDO>  (42) 
F 19

>  <SCORE>  (42) 
-14.582

>  <name>  (42) 
41

>  <ligand_id>  (42) 
41

>  <original_smiles>  (42) 
[H]OC([H])(C([H])([H])Oc1c([H])c([H])c2c(c1[H])C([H])([H])N(C(=O)C([H])(N([H])C(=O)C([H])(N([H])C([H])([H])[H])C([H])([H])[H])C(C([H])([H])[H])(C([H])([H])[H])C([H])([H])[H])C([H])(C(=O)N([H])C1([H])c3c([H])c([H])c([H])c([H])c3C([H])([H])C([H])([H])C1([H])[H])C2([H])[H])C([H])([H])N([H])c1nnnc(N([H])C(=O)N2C([H])([H])C([H])([H])C([H])([H])C([H])(n3nc(-c4c([H])c([H])c(Oc5c([H])c([H])c(F)c([H])c5F)c([H])c4[H])c(C(=O)N([H])[H])c3N([H])[H])C2([H])[H])n1

>  <smiles>  (42) 
[H]OC([H])(C([H])([H])Oc1c([H])c([H])c2c(c1[H])C([H])([H])N(C(=O)C([H])(N([H])C(=O)C([H])(N([H])C([H])([H])[H])C([H])([H])[H])C(C([H])([H])[H])(C([H])([H])[H])C([H])([H])[H])C([H])(C(=O)N([H])C1([H])c3c([H])c([H])c([H])c([H])c3C([H])([H])C([H])([H])C1([H])[H])C2([H])[H])C([H])([H])N([H])c1nnnc(N([H])C(=O)N2C([H])([H])C([H])([H])C([H])([H])C([H])(n3nc(-c4c([H])c([H])c(Oc5c([H])c([H])c(F)c([H])c5F)c([H])c4[H])c(C(=O)N([H])[H])c3N([H])[H])C2([H])[H])n1

$$$$
42:0:0
     RDKit          3D

 96104  0  0  1  0  0  0  0  0999 V2000
  -29.7000  -20.6680   19.0820 C   0  0  0  0  0  0  0  0  0  0  0  0
  -29.4500  -20.6440   17.7620 N   0  0  0  0  0  4  0  0  0  0  0  0
  -29.7850  -21.8610   19.7220 N   0  0  0  0  0  0  0  0  0  0  0  0
  -29.3020  -19.7370   17.3420 H   0  0  0  0  0  0  0  0  0  0  0  0
  -29.3640  -21.4570   17.1780 H   0  0  0  0  0  0  0  0  0  0  0  0
  -30.0020  -21.8780   20.7090 H   0  0  0  0  0  0  0  0  0  0  0  0
  -30.6660  -14.4640   20.5230 C   0  0  0  0  0  0  0  0  0  0  0  0
  -30.3560  -12.3180   19.3500 C   0  0  0  0  0  2  0  0  0  0  0  0
  -29.4210  -12.5420   18.1430 C   0  0  0  0  0  2  0  0  0  0  0  0
  -27.9440  -12.4080   18.5620 C   0  0  0  0  0  2  0  0  0  0  0  0
  -27.6060  -13.2350   19.8320 C   0  0  0  0  0  3  0  0  0  0  0  0
  -28.6540  -12.9930   20.9430 C   0  0  0  0  0  2  0  0  0  0  0  0
  -29.9890  -13.2900   20.3900 N   0  0  0  0  0  0  0  0  0  0  0  0
  -31.7800  -14.6560   20.0260 O   0  0  0  0  0  0  0  0  0  0  0  0
  -30.8830  -18.9630   20.6060 C   0  0  0  0  0  3  0  0  0  0  0  0
  -28.9440  -17.2240   19.8930 C   0  0  0  0  0  3  0  0  0  0  0  0
  -29.8270  -19.3500   19.7450 C   0  0  0  0  0  0  0  0  0  0  0  0
  -30.0140  -16.8010   20.7220 C   0  0  0  0  0  0  0  0  0  0  0  0
  -28.8450  -18.4790   19.3980 N   0  0  0  0  0  0  0  0  0  0  0  0
  -30.9790  -17.6910   21.0930 N   0  0  0  0  0  0  0  0  0  0  0  0
  -29.9900  -15.4460   21.1440 N   0  0  0  0  0  0  0  0  0  0  0  0
  -29.1070  -15.1310   21.5140 H   0  0  0  0  0  0  0  0  0  0  0  0
  -25.2030  -13.8590   20.5180 C   0  0  0  0  0  0  0  0  0  0  0  0
  -24.1300  -13.0930   20.8860 C   0  0  0  0  0  0  0  0  0  0  0  0
  -24.5850  -11.7400   20.8630 C   0  0  0  0  0  0  0  0  0  0  0  0
  -26.2470  -12.9720   20.2990 N   0  0  0  0  0  0  0  0  0  0  0  0
  -25.8770  -11.6930   20.5640 N   0  0  0  0  0  0  0  0  0  0  0  0
  -23.8520  -10.4820   21.0560 C   0  0  0  0  0  0  0  0  0  0  0  0
  -24.2830   -9.5120   21.9870 C   0  0  0  0  0  3  0  0  0  0  0  0
  -23.5530   -8.3170   22.1660 C   0  0  0  0  0  3  0  0  0  0  0  0
  -22.3770   -8.0850   21.4140 C   0  0  0  0  0  0  0  0  0  0  0  0
  -21.9640   -9.0450   20.4710 C   0  0  0  0  0  3  0  0  0  0  0  0
  -22.6950  -10.2300   20.2910 C   0  0  0  0  0  3  0  0  0  0  0  0
  -21.6160   -6.9440   21.5030 O   0  0  0  0  0  0  0  0  0  0  0  0
  -21.5750   -6.1930   22.6490 C   0  0  0  0  0  0  0  0  0  0  0  0
  -21.1710   -6.7440   23.8860 C   0  0  0  0  0  3  0  0  0  0  0  0
  -21.0770   -5.9200   25.0250 C   0  0  0  0  0  3  0  0  0  0  0  0
  -21.3780   -4.5470   24.9300 C   0  0  0  0  0  0  0  0  0  0  0  0
  -21.7760   -3.9970   23.7000 C   0  0  0  0  0  3  0  0  0  0  0  0
  -21.8720   -4.8180   22.5620 C   0  0  0  0  0  0  0  0  0  0  0  0
  -22.2350   -4.2800   21.3730 F   0  0  0  0  0  0  0  0  0  0  0  0
  -21.2800   -3.7550   26.0220 F   0  0  0  0  0  0  0  0  0  0  0  0
  -22.7330  -13.5780   21.1470 C   0  0  0  0  0  0  0  0  0  0  0  0
  -21.9950  -12.8860   22.0090 N   0  0  0  0  0  0  0  0  0  0  0  0
  -22.3040  -14.6050   20.6210 O   0  0  0  0  0  0  0  0  0  0  0  0
  -22.3530  -12.0560   22.4560 H   0  0  0  0  0  0  0  0  0  0  0  0
  -21.0580  -13.1940   22.2250 H   0  0  0  0  0  0  0  0  0  0  0  0
  -25.3750  -15.2280   20.3320 N   0  0  0  0  0  0  0  0  0  0  0  0
  -24.6010  -15.8780   20.4190 H   0  0  0  0  0  0  0  0  0  0  0  0
  -26.2060  -15.6580   19.9530 H   0  0  0  0  0  0  0  0  0  0  0  0
  -29.4860  -23.1570   19.0680 C   0  0  0  0  0  2  0  0  0  0  0  0
  -29.5010  -24.4200   19.9810 C   0  0  0  0  0  3  0  0  0  0  0  0
  -30.7930  -25.0030   19.8980 O   0  0  0  0  0  0  0  0  0  0  0  0
  -30.8720  -25.4150   19.0430 H   0  0  0  0  0  0  0  0  0  0  0  0
  -28.4630  -25.4430   19.4490 C   0  0  0  0  0  2  0  0  0  0  0  0
  -28.3840  -26.6850   20.1760 O   0  0  0  0  0  0  0  0  0  0  0  0
  -24.5740  -31.8780   23.2350 C   0  0  0  0  0  0  0  0  0  0  0  0
  -27.2050  -27.4180   20.1330 C   0  0  0  0  0  0  0  0  0  0  0  0
  -23.3640  -30.4830   21.5920 C   0  0  0  0  0  3  0  0  0  0  0  0
  -24.8120  -28.9510   20.1600 C   0  0  0  0  0  0  0  0  0  0  0  0
  -25.8940  -30.8260   21.4010 C   0  0  0  0  0  2  0  0  0  0  0  0
  -25.9720  -29.4570   20.7560 C   0  0  0  0  0  0  0  0  0  0  0  0
  -27.1660  -28.6940   20.7490 C   0  0  0  0  0  3  0  0  0  0  0  0
  -26.0190  -26.9450   19.5170 C   0  0  0  0  0  3  0  0  0  0  0  0
  -24.8300  -27.6930   19.5420 C   0  0  0  0  0  3  0  0  0  0  0  0
  -23.5700  -29.8110   20.2100 C   0  0  0  0  0  2  0  0  0  0  0  0
  -24.6290  -31.0770   22.1320 N   0  0  0  0  0  0  0  0  0  0  0  0
  -23.4930  -32.1520   23.7740 O   0  0  0  0  0  0  0  0  0  0  0  0
  -22.7110  -29.4580   22.5480 C   0  0  0  0  0  0  0  0  0  0  0  0
  -21.3860  -29.2800   22.4220 N   0  0  0  0  0  0  0  0  0  0  0  0
  -23.3940  -28.8270   23.3600 O   0  0  0  0  0  0  0  0  0  0  0  0
  -20.8970  -29.8420   21.7400 H   0  0  0  0  0  0  0  0  0  0  0  0
  -18.0050  -28.1110   22.9340 C   0  0  0  0  0  0  0  0  0  0  0  0
  -20.5660  -28.3440   23.1920 C   0  0  0  0  0  3  0  0  0  0  0  0
  -20.6530  -26.9170   22.6050 C   0  0  0  0  0  2  0  0  0  0  0  0
  -19.5420  -26.6100   21.5960 C   0  0  0  0  0  2  0  0  0  0  0  0
  -18.1660  -26.7640   22.2490 C   0  0  0  0  0  2  0  0  0  0  0  0
  -19.1330  -28.8610   23.3630 C   0  0  0  0  0  0  0  0  0  0  0  0
  -18.9300  -30.1220   23.9620 C   0  0  0  0  0  3  0  0  0  0  0  0
  -17.6310  -30.6340   24.1380 C   0  0  0  0  0  3  0  0  0  0  0  0
  -16.5170  -29.8820   23.7270 C   0  0  0  0  0  3  0  0  0  0  0  0
  -16.7050  -28.6220   23.1320 C   0  0  0  0  0  3  0  0  0  0  0  0
  -25.8610  -32.5050   23.8530 C   0  0  0  0  0  3  0  0  0  0  0  0
  -26.3800  -31.7310   25.1260 C   0  0  1  0  0  0  0  0  0  0  0  0
  -25.2890  -31.4920   26.1960 C   0  0  0  0  0  1  0  0  0  0  0  0
  -26.9610  -30.3540   24.7300 C   0  0  0  0  0  1  0  0  0  0  0  0
  -27.5330  -32.5220   25.7870 C   0  0  0  0  0  1  0  0  0  0  0  0
  -25.5560  -33.9030   24.1840 N   0  0  0  0  0  0  0  0  0  0  0  0
  -25.8900  -34.9540   23.4240 C   0  0  0  0  0  0  0  0  0  0  0  0
  -26.5590  -34.8500   22.3930 O   0  0  0  0  0  0  0  0  0  0  0  0
  -24.9610  -34.0590   24.9840 H   0  0  0  0  0  0  0  0  0  0  0  0
  -24.1670  -36.7510   23.0670 C   0  0  0  0  0  1  0  0  0  0  0  0
  -25.4050  -36.3430   23.8820 C   0  0  0  0  0  3  0  0  0  0  0  0
  -27.5380  -37.2210   24.7190 C   0  0  0  0  0  1  0  0  0  0  0  0
  -26.4400  -37.3940   23.7720 N   0  0  0  0  0  0  0  0  0  0  0  0
  -26.0360  -38.3150   23.9190 H   0  0  0  0  0  0  0  0  0  0  0  0
  1  3  1  0
  1 17  1  0
  2  1  2  0
  3  6  1  0
  4  2  1  0
  5  2  1  0
  7 21  1  0
  8 13  1  0
  9 10  1  0
  9  8  1  0
 11 10  1  0
 11 26  1  0
 11 12  1  0
 13  7  1  0
 13 12  1  0
 14  7  2  0
 15 20  1  0
 16 18  1  0
 17 15  2  0
 18 20  2  0
 18 21  1  0
 19 17  1  0
 19 16  2  0
 21 22  1  0
 23 24  2  0
 24 43  1  0
 25 24  1  0
 25 28  1  0
 26 23  1  0
 26 27  1  0
 27 25  2  0
 28 29  1  0
 29 30  2  0
 31 34  1  0
 31 30  1  0
 32 31  2  0
 33 32  1  0
 33 28  2  0
 34 35  1  0
 35 36  1  0
 36 37  2  0
 38 37  1  0
 38 42  1  0
 39 38  2  0
 40 35  2  0
 40 39  1  0
 41 40  1  0
 43 44  1  0
 44 47  1  0
 44 46  1  0
 45 43  2  0
 48 49  1  0
 48 23  1  0
 50 48  1  0
 51  3  1  0
 52 51  1  0
 53 52  1  0
 54 53  1  0
 55 52  1  0
 55 56  1  0
 57 68  2  0
 58 56  1  0
 58 63  1  0
 59 67  1  0
 59 69  1  0
 60 66  1  0
 60 62  1  0
 61 67  1  0
 62 61  1  0
 63 62  2  0
 64 65  1  0
 64 58  2  0
 65 60  2  0
 66 59  1  0
 67 57  1  0
 69 71  2  0
 70 69  1  0
 72 70  1  0
 73 82  2  0
 73 78  1  0
 74 70  1  0
 74 78  1  0
 75 74  1  0
 76 77  1  0
 76 75  1  0
 77 73  1  0
 78 79  2  0
 79 80  1  0
 81 80  2  0
 82 81  1  0
 83 57  1  0
 83 88  1  0
 83 84  1  0
 84 87  1  1
 84 85  1  0
 86 84  1  0
 88 91  1  0
 89 93  1  0
 89 88  1  0
 90 89  2  0
 93 92  1  0
 95 93  1  0
 95 96  1  0
 95 94  1  0
M  ISO  4   7 100  21 100  55 101  56 101
M  END
>  <TORSDO>  (43) 
F 20

>  <SCORE>  (43) 
-14.151

>  <name>  (43) 
42

>  <ligand_id>  (43) 
42

>  <original_smiles>  (43) 
[H]OC([H])(C([H])([H])Oc1c([H])c([H])c2c(c1[H])C([H])([H])N(C(=O)C([H])(N([H])C(=O)C([H])(N([H])C([H])([H])[H])C([H])([H])[H])C(C([H])([H])[H])(C([H])([H])[H])C([H])([H])[H])C([H])(C(=O)N([H])C1([H])c3c([H])c([H])c([H])c([H])c3C([H])([H])C([H])([H])C1([H])[H])C2([H])[H])C([H])([H])[N+]([H])=C(c1nc([H])c(N([H])C(=O)N2C([H])([H])C([H])([H])C([H])([H])C([H])(n3nc(-c4c([H])c([H])c(Oc5c([H])c([H])c(F)c([H])c5F)c([H])c4[H])c(C(=O)N([H])[H])c3N([H])[H])C2([H])[H])nc1[H])N([H])[H]

>  <smiles>  (43) 
[H]OC([H])(C([H])([H])Oc1c([H])c([H])c2c(c1[H])C([H])([H])N(C(=O)C([H])(N([H])C(=O)C([H])(N([H])C([H])([H])[H])C([H])([H])[H])C(C([H])([H])[H])(C([H])([H])[H])C([H])([H])[H])C([H])(C(=O)N([H])C1([H])c3c([H])c([H])c([H])c([H])c3C([H])([H])C([H])([H])C1([H])[H])C2([H])[H])C([H])([H])[N+]([H])=C(c1nc([H])c(N([H])C(=O)N2C([H])([H])C([H])([H])C([H])([H])C([H])(n3nc(-c4c([H])c([H])c(Oc5c([H])c([H])c(F)c([H])c5F)c([H])c4[H])c(C(=O)N([H])[H])c3N([H])[H])C2([H])[H])nc1[H])N([H])[H]

$$$$
43:0:0
     RDKit          3D

 96104  0  0  1  0  0  0  0  0999 V2000
  -30.2280  -21.8890   18.6160 C   0  0  0  0  0  1  0  0  0  0  0  0
  -30.0700  -21.6340   20.1230 C   0  0  0  0  0  3  0  0  0  0  0  0
  -28.8160  -18.0400   20.3820 C   0  0  0  0  0  3  0  0  0  0  0  0
  -30.0260  -20.0590   20.3840 C   0  0  0  0  0  0  0  0  0  0  0  0
  -29.9650  -17.2200   20.6100 C   0  0  0  0  0  0  0  0  0  0  0  0
  -31.1900  -19.2420   20.6230 C   0  0  0  0  0  0  0  0  0  0  0  0
  -28.8350  -19.4100   20.2630 N   0  0  0  0  0  0  0  0  0  0  0  0
  -31.1560  -17.8760   20.7290 N   0  0  0  0  0  0  0  0  0  0  0  0
  -32.4750  -19.7560   20.7510 N   0  0  0  0  0  0  0  0  0  0  0  0
  -32.6120  -20.7410   20.9440 H   0  0  0  0  0  0  0  0  0  0  0  0
  -33.1550  -19.1670   21.2210 H   0  0  0  0  0  0  0  0  0  0  0  0
  -30.5730  -14.6870   20.4940 C   0  0  0  0  0  0  0  0  0  0  0  0
  -30.3780  -12.4310   19.4570 C   0  0  0  0  0  2  0  0  0  0  0  0
  -29.4530  -12.5540   18.2270 C   0  0  0  0  0  2  0  0  0  0  0  0
  -27.9750  -12.3970   18.6350 C   0  0  0  0  0  2  0  0  0  0  0  0
  -27.5960  -13.2680   19.8640 C   0  0  0  0  0  3  0  0  0  0  0  0
  -28.6380  -13.1280   20.9950 C   0  0  0  0  0  2  0  0  0  0  0  0
  -29.9530  -13.4630   20.4290 N   0  0  0  0  0  0  0  0  0  0  0  0
  -31.7520  -14.8090   20.1460 O   0  0  0  0  0  0  0  0  0  0  0  0
  -29.7650  -15.7700   20.7470 N   0  0  0  0  0  0  0  0  0  0  0  0
  -28.8150  -15.5080   20.9520 H   0  0  0  0  0  0  0  0  0  0  0  0
  -25.1950  -13.8790   20.5410 C   0  0  0  0  0  0  0  0  0  0  0  0
  -24.1200  -13.1080   20.9030 C   0  0  0  0  0  0  0  0  0  0  0  0
  -24.5790  -11.7590   20.8870 C   0  0  0  0  0  0  0  0  0  0  0  0
  -26.2390  -12.9930   20.3320 N   0  0  0  0  0  0  0  0  0  0  0  0
  -25.8760  -11.7140   20.6010 N   0  0  0  0  0  0  0  0  0  0  0  0
  -23.8450  -10.4990   21.0780 C   0  0  0  0  0  0  0  0  0  0  0  0
  -24.2700   -9.5280   22.0120 C   0  0  0  0  0  3  0  0  0  0  0  0
  -23.5330   -8.3380   22.1930 C   0  0  0  0  0  3  0  0  0  0  0  0
  -22.3560   -8.1090   21.4380 C   0  0  0  0  0  0  0  0  0  0  0  0
  -21.9510   -9.0690   20.4940 C   0  0  0  0  0  3  0  0  0  0  0  0
  -22.6900  -10.2510   20.3130 C   0  0  0  0  0  3  0  0  0  0  0  0
  -21.5910   -6.9720   21.5250 O   0  0  0  0  0  0  0  0  0  0  0  0
  -21.5500   -6.2190   22.6700 C   0  0  0  0  0  0  0  0  0  0  0  0
  -21.1550   -6.7710   23.9090 C   0  0  0  0  0  3  0  0  0  0  0  0
  -21.0620   -5.9490   25.0480 C   0  0  0  0  0  3  0  0  0  0  0  0
  -21.3510   -4.5730   24.9500 C   0  0  0  0  0  0  0  0  0  0  0  0
  -21.7370   -4.0210   23.7140 C   0  0  0  0  0  3  0  0  0  0  0  0
  -21.8320   -4.8420   22.5780 C   0  0  0  0  0  0  0  0  0  0  0  0
  -22.1850   -4.3010   21.3860 F   0  0  0  0  0  0  0  0  0  0  0  0
  -21.2490   -3.7780   26.0400 F   0  0  0  0  0  0  0  0  0  0  0  0
  -22.7220  -13.5920   21.1480 C   0  0  0  0  0  0  0  0  0  0  0  0
  -21.9800  -12.9040   22.0120 N   0  0  0  0  0  0  0  0  0  0  0  0
  -22.2940  -14.6150   20.6150 O   0  0  0  0  0  0  0  0  0  0  0  0
  -22.3440  -12.0780   22.4640 H   0  0  0  0  0  0  0  0  0  0  0  0
  -21.0390  -13.2060   22.2200 H   0  0  0  0  0  0  0  0  0  0  0  0
  -25.3540  -15.2470   20.3510 N   0  0  0  0  0  0  0  0  0  0  0  0
  -24.5630  -15.8770   20.4220 H   0  0  0  0  0  0  0  0  0  0  0  0
  -26.1820  -15.6910   19.9750 H   0  0  0  0  0  0  0  0  0  0  0  0
  -28.9140  -22.4910   20.6220 N   0  0  0  0  0  4  0  0  0  0  0  0
  -28.6620  -22.0820   21.5080 H   0  0  0  0  0  0  0  0  0  0  0  0
  -28.1320  -22.3260   20.0090 H   0  0  0  0  0  0  0  0  0  0  0  0
  -28.6590  -24.2780   22.3430 C   0  0  0  0  0  1  0  0  0  0  0  0
  -29.0810  -24.0020   20.8710 C   0  0  0  0  0  3  0  0  0  0  0  0
  -28.2420  -25.0050   19.9280 C   0  0  0  0  0  2  0  0  0  0  0  0
  -28.3610  -26.4770   20.1740 O   0  0  0  0  0  0  0  0  0  0  0  0
  -24.6300  -31.8690   23.2060 C   0  0  0  0  0  0  0  0  0  0  0  0
  -27.2330  -27.3220   20.1060 C   0  0  0  0  0  0  0  0  0  0  0  0
  -23.4140  -30.4720   21.5770 C   0  0  0  0  0  3  0  0  0  0  0  0
  -24.8550  -28.9280   20.1290 C   0  0  0  0  0  0  0  0  0  0  0  0
  -25.9480  -30.8000   21.3600 C   0  0  0  0  0  2  0  0  0  0  0  0
  -26.0260  -29.4180   20.7200 C   0  0  0  0  0  0  0  0  0  0  0  0
  -27.2140  -28.6230   20.7050 C   0  0  0  0  0  3  0  0  0  0  0  0
  -26.0480  -26.9100   19.4530 C   0  0  0  0  0  3  0  0  0  0  0  0
  -24.8700  -27.6850   19.4810 C   0  0  0  0  0  3  0  0  0  0  0  0
  -23.6150  -29.7980   20.1920 C   0  0  0  0  0  2  0  0  0  0  0  0
  -24.6840  -31.0650   22.1040 N   0  0  0  0  0  0  0  0  0  0  0  0
  -23.5550  -32.1350   23.7610 O   0  0  0  0  0  0  0  0  0  0  0  0
  -22.7650  -29.4510   22.5400 C   0  0  0  0  0  0  0  0  0  0  0  0
  -21.4370  -29.2760   22.4280 N   0  0  0  0  0  0  0  0  0  0  0  0
  -23.4530  -28.8200   23.3460 O   0  0  0  0  0  0  0  0  0  0  0  0
  -20.9490  -29.8380   21.7470 H   0  0  0  0  0  0  0  0  0  0  0  0
  -18.0620  -28.0790   22.9530 C   0  0  0  0  0  0  0  0  0  0  0  0
  -20.6230  -28.3400   23.2050 C   0  0  0  0  0  3  0  0  0  0  0  0
  -20.7210  -26.9070   22.6340 C   0  0  0  0  0  2  0  0  0  0  0  0
  -19.6090  -26.5810   21.6290 C   0  0  0  0  0  2  0  0  0  0  0  0
  -18.2320  -26.7270   22.2820 C   0  0  0  0  0  2  0  0  0  0  0  0
  -19.1840  -28.8410   23.3750 C   0  0  0  0  0  0  0  0  0  0  0  0
  -18.9700  -30.1060   23.9650 C   0  0  0  0  0  3  0  0  0  0  0  0
  -17.6660  -30.6020   24.1470 C   0  0  0  0  0  3  0  0  0  0  0  0
  -16.5580  -29.8370   23.7430 C   0  0  0  0  0  3  0  0  0  0  0  0
  -16.7580  -28.5800   23.1450 C   0  0  0  0  0  3  0  0  0  0  0  0
  -25.9180  -32.5050   23.8120 C   0  0  0  0  0  3  0  0  0  0  0  0
  -26.4530  -31.7220   25.0740 C   0  0  1  0  0  0  0  0  0  0  0  0
  -25.3800  -31.4670   26.1580 C   0  0  0  0  0  1  0  0  0  0  0  0
  -27.0350  -30.3490   24.6620 C   0  0  0  0  0  1  0  0  0  0  0  0
  -27.6030  -32.5190   25.7320 C   0  0  0  0  0  1  0  0  0  0  0  0
  -25.6020  -33.8980   24.1580 N   0  0  0  0  0  0  0  0  0  0  0  0
  -25.9230  -34.9600   23.4080 C   0  0  0  0  0  0  0  0  0  0  0  0
  -26.5850  -34.8700   22.3700 O   0  0  0  0  0  0  0  0  0  0  0  0
  -24.9980  -34.0340   24.9550 H   0  0  0  0  0  0  0  0  0  0  0  0
  -24.1770  -36.7500   23.1010 C   0  0  0  0  0  1  0  0  0  0  0  0
  -25.4340  -36.3410   23.8860 C   0  0  0  0  0  3  0  0  0  0  0  0
  -27.5780  -37.2330   24.6850 C   0  0  0  0  0  1  0  0  0  0  0  0
  -26.4560  -37.4060   23.7670 N   0  0  0  0  0  0  0  0  0  0  0  0
  -26.0450  -38.3200   23.9360 H   0  0  0  0  0  0  0  0  0  0  0  0
  2  1  1  0
  2  4  1  0
  2 50  1  0
  3  5  1  0
  4  6  2  0
  5  8  2  0
  5 20  1  0
  6  8  1  0
  6  9  1  0
  7  3  2  0
  7  4  1  0
  9 10  1  0
  9 11  1  0
 12 20  1  0
 13 18  1  0
 14 15  1  0
 14 13  1  0
 16 15  1  0
 16 25  1  0
 16 17  1  0
 18 12  1  0
 18 17  1  0
 19 12  2  0
 20 21  1  0
 22 23  2  0
 23 42  1  0
 24 23  1  0
 24 27  1  0
 25 22  1  0
 25 26  1  0
 26 24  2  0
 27 28  1  0
 28 29  2  0
 30 33  1  0
 30 29  1  0
 31 30  2  0
 32 31  1  0
 32 27  2  0
 33 34  1  0
 34 35  1  0
 35 36  2  0
 37 36  1  0
 37 41  1  0
 38 37  2  0
 39 34  2  0
 39 38  1  0
 40 39  1  0
 42 43  1  0
 43 46  1  0
 43 45  1  0
 44 42  2  0
 47 48  1  0
 47 22  1  0
 49 47  1  0
 50 54  1  0
 50 51  1  0
 52 50  1  0
 54 53  1  0
 55 56  1  0
 55 54  1  0
 57 68  2  0
 58 56  1  0
 58 63  1  0
 59 67  1  0
 59 69  1  0
 60 66  1  0
 60 62  1  0
 61 67  1  0
 62 61  1  0
 63 62  2  0
 64 65  1  0
 64 58  2  0
 65 60  2  0
 66 59  1  0
 67 57  1  0
 69 71  2  0
 70 69  1  0
 72 70  1  0
 73 82  2  0
 73 78  1  0
 74 70  1  0
 74 78  1  0
 75 74  1  0
 76 77  1  0
 76 75  1  0
 77 73  1  0
 78 79  2  0
 79 80  1  0
 81 80  2  0
 82 81  1  0
 83 57  1  0
 83 88  1  0
 83 84  1  0
 84 87  1  1
 84 85  1  0
 86 84  1  0
 88 91  1  0
 89 93  1  0
 89 88  1  0
 90 89  2  0
 93 92  1  0
 95 93  1  0
 95 96  1  0
 95 94  1  0
M  ISO  4  12 100  20 100  55 101  56 101
M  END
>  <TORSDO>  (44) 
F 20

>  <SCORE>  (44) 
-13.951

>  <name>  (44) 
43

>  <ligand_id>  (44) 
43

>  <original_smiles>  (44) 
[H]c1nc(C([H])(C([H])([H])[H])[N+]([H])([H])C([H])(C([H])([H])[H])C([H])([H])Oc2c([H])c([H])c3c(c2[H])C([H])([H])N(C(=O)C([H])(N([H])C(=O)C([H])(N([H])C([H])([H])[H])C([H])([H])[H])C(C([H])([H])[H])(C([H])([H])[H])C([H])([H])[H])C([H])(C(=O)N([H])C2([H])c4c([H])c([H])c([H])c([H])c4C([H])([H])C([H])([H])C2([H])[H])C3([H])[H])c(N([H])[H])nc1N([H])C(=O)N1C([H])([H])C([H])([H])C([H])([H])C([H])(n2nc(-c3c([H])c([H])c(Oc4c([H])c([H])c(F)c([H])c4F)c([H])c3[H])c(C(=O)N([H])[H])c2N([H])[H])C1([H])[H]

>  <smiles>  (44) 
[H]c1nc(C([H])(C([H])([H])[H])[N+]([H])([H])C([H])(C([H])([H])[H])C([H])([H])Oc2c([H])c([H])c3c(c2[H])C([H])([H])N(C(=O)C([H])(N([H])C(=O)C([H])(N([H])C([H])([H])[H])C([H])([H])[H])C(C([H])([H])[H])(C([H])([H])[H])C([H])([H])[H])C([H])(C(=O)N([H])C2([H])c4c([H])c([H])c([H])c([H])c4C([H])([H])C([H])([H])C2([H])[H])C3([H])[H])c(N([H])[H])nc1N([H])C(=O)N1C([H])([H])C([H])([H])C([H])([H])C([H])(n2nc(-c3c([H])c([H])c(Oc4c([H])c([H])c(F)c([H])c4F)c([H])c3[H])c(C(=O)N([H])[H])c2N([H])[H])C1([H])[H]

$$$$
44:0:0
     RDKit          3D

 94102  0  0  1  0  0  0  0  0999 V2000
  -29.5280  -21.9680   20.1090 N   0  0  0  0  0  4  0  0  0  0  0  0
  -28.9980  -22.2410   20.9200 H   0  0  0  0  0  0  0  0  0  0  0  0
  -28.9750  -21.2760   19.6260 H   0  0  0  0  0  0  0  0  0  0  0  0
  -28.9380  -22.9690   17.9010 C   0  0  0  0  0  1  0  0  0  0  0  0
  -29.7640  -23.1290   19.1910 C   0  0  0  0  0  3  0  0  0  0  0  0
  -29.6440  -24.5490   19.8530 C   0  0  0  0  0  2  0  0  0  0  0  0
  -28.3110  -25.3210   19.6680 C   0  0  0  0  0  2  0  0  0  0  0  0
  -28.3680  -26.6830   20.1420 O   0  0  0  0  0  0  0  0  0  0  0  0
  -24.5850  -31.8950   23.2360 C   0  0  0  0  0  0  0  0  0  0  0  0
  -27.1940  -27.4240   20.1320 C   0  0  0  0  0  0  0  0  0  0  0  0
  -23.3670  -30.5000   21.6010 C   0  0  0  0  0  3  0  0  0  0  0  0
  -24.8060  -28.9610   20.1660 C   0  0  0  0  0  0  0  0  0  0  0  0
  -25.8980  -30.8400   21.3970 C   0  0  0  0  0  2  0  0  0  0  0  0
  -25.9720  -29.4700   20.7500 C   0  0  0  0  0  0  0  0  0  0  0  0
  -27.1670  -28.7080   20.7300 C   0  0  0  0  0  3  0  0  0  0  0  0
  -25.9990  -26.9370   19.5470 C   0  0  0  0  0  3  0  0  0  0  0  0
  -24.8140  -27.6940   19.5660 C   0  0  0  0  0  3  0  0  0  0  0  0
  -23.5660  -29.8260   20.2210 C   0  0  0  0  0  2  0  0  0  0  0  0
  -24.6350  -31.0920   22.1360 N   0  0  0  0  0  0  0  0  0  0  0  0
  -23.5060  -32.1730   23.7790 O   0  0  0  0  0  0  0  0  0  0  0  0
  -22.7160  -29.4780   22.5620 C   0  0  0  0  0  0  0  0  0  0  0  0
  -21.3900  -29.2970   22.4390 N   0  0  0  0  0  0  0  0  0  0  0  0
  -23.4000  -28.8520   23.3760 O   0  0  0  0  0  0  0  0  0  0  0  0
  -20.8980  -29.8540   21.7540 H   0  0  0  0  0  0  0  0  0  0  0  0
  -18.0160  -28.1060   22.9490 C   0  0  0  0  0  0  0  0  0  0  0  0
  -20.5750  -28.3600   23.2130 C   0  0  0  0  0  3  0  0  0  0  0  0
  -20.6740  -26.9290   22.6380 C   0  0  0  0  0  2  0  0  0  0  0  0
  -19.5690  -26.6060   21.6280 C   0  0  0  0  0  2  0  0  0  0  0  0
  -18.1890  -26.7550   22.2740 C   0  0  0  0  0  2  0  0  0  0  0  0
  -19.1370  -28.8670   23.3760 C   0  0  0  0  0  0  0  0  0  0  0  0
  -18.9220  -30.1310   23.9640 C   0  0  0  0  0  3  0  0  0  0  0  0
  -17.6190  -30.6360   24.1300 C   0  0  0  0  0  3  0  0  0  0  0  0
  -16.5120  -29.8730   23.7210 C   0  0  0  0  0  3  0  0  0  0  0  0
  -16.7130  -28.6100   23.1370 C   0  0  0  0  0  3  0  0  0  0  0  0
  -25.8760  -32.5210   23.8510 C   0  0  0  0  0  3  0  0  0  0  0  0
  -25.5740  -33.9200   24.1810 N   0  0  0  0  0  0  0  0  0  0  0  0
  -25.9070  -34.9700   23.4180 C   0  0  0  0  0  0  0  0  0  0  0  0
  -26.5720  -34.8640   22.3840 O   0  0  0  0  0  0  0  0  0  0  0  0
  -24.9820  -34.0800   24.9830 H   0  0  0  0  0  0  0  0  0  0  0  0
  -24.1840  -36.7680   23.0680 C   0  0  0  0  0  1  0  0  0  0  0  0
  -25.4260  -36.3600   23.8760 C   0  0  0  0  0  3  0  0  0  0  0  0
  -27.5660  -37.2330   24.7030 C   0  0  0  0  0  1  0  0  0  0  0  0
  -26.4630  -37.4080   23.7620 N   0  0  0  0  0  0  0  0  0  0  0  0
  -26.0620  -38.3310   23.9120 H   0  0  0  0  0  0  0  0  0  0  0  0
  -26.4000  -31.7490   25.1230 C   0  0  1  0  0  0  0  0  0  0  0  0
  -25.3120  -31.5150   26.1980 C   0  0  0  0  0  1  0  0  0  0  0  0
  -26.9780  -30.3710   24.7300 C   0  0  0  0  0  1  0  0  0  0  0  0
  -27.5560  -32.5430   25.7780 C   0  0  0  0  0  1  0  0  0  0  0  0
  -30.7290  -21.2030   20.5420 C   0  0  0  0  0  2  0  0  0  0  0  0
  -29.1350  -17.8280   20.4700 C   0  0  0  0  0  3  0  0  0  0  0  0
  -31.5310  -18.8260   21.1850 C   0  0  0  0  0  0  0  0  0  0  0  0
  -30.4960  -19.6890   20.7280 C   0  0  0  0  0  0  0  0  0  0  0  0
  -30.1770  -16.9500   20.8830 C   0  0  0  0  0  0  0  0  0  0  0  0
  -32.8930  -19.3480   21.6030 C   0  0  0  0  0  1  0  0  0  0  0  0
  -29.2870  -19.1790   20.3760 N   0  0  0  0  0  0  0  0  0  0  0  0
  -31.3710  -17.4770   21.2590 N   0  0  0  0  0  0  0  0  0  0  0  0
  -30.6500  -14.5270   20.4630 C   0  0  0  0  0  0  0  0  0  0  0  0
  -30.3780  -12.3550   19.3130 C   0  0  0  0  0  2  0  0  0  0  0  0
  -29.4350  -12.5570   18.1080 C   0  0  0  0  0  2  0  0  0  0  0  0
  -27.9600  -12.4120   18.5340 C   0  0  0  0  0  2  0  0  0  0  0  0
  -27.6180  -13.2400   19.8020 C   0  0  0  0  0  3  0  0  0  0  0  0
  -28.6750  -13.0190   20.9080 C   0  0  0  0  0  2  0  0  0  0  0  0
  -29.9940  -13.3380   20.3390 N   0  0  0  0  0  0  0  0  0  0  0  0
  -31.7940  -14.6940   20.0260 O   0  0  0  0  0  0  0  0  0  0  0  0
  -29.8890  -15.5500   20.9130 N   0  0  0  0  0  0  0  0  0  0  0  0
  -28.9350  -15.3030   21.1200 H   0  0  0  0  0  0  0  0  0  0  0  0
  -25.2170  -13.8430   20.5040 C   0  0  0  0  0  0  0  0  0  0  0  0
  -24.1520  -13.0680   20.8780 C   0  0  0  0  0  0  0  0  0  0  0  0
  -24.6170  -11.7180   20.8540 C   0  0  0  0  0  0  0  0  0  0  0  0
  -26.2660  -12.9630   20.2800 N   0  0  0  0  0  0  0  0  0  0  0  0
  -25.9080  -11.6810   20.5480 N   0  0  0  0  0  0  0  0  0  0  0  0
  -23.8950  -10.4550   21.0480 C   0  0  0  0  0  0  0  0  0  0  0  0
  -24.3340   -9.4870   21.9780 C   0  0  0  0  0  3  0  0  0  0  0  0
  -23.6130   -8.2880   22.1590 C   0  0  0  0  0  3  0  0  0  0  0  0
  -22.4350   -8.0480   21.4100 C   0  0  0  0  0  0  0  0  0  0  0  0
  -22.0140   -9.0040   20.4700 C   0  0  0  0  0  3  0  0  0  0  0  0
  -22.7370  -10.1950   20.2870 C   0  0  0  0  0  3  0  0  0  0  0  0
  -21.6850   -6.9010   21.5010 O   0  0  0  0  0  0  0  0  0  0  0  0
  -21.6550   -6.1500   22.6480 C   0  0  0  0  0  0  0  0  0  0  0  0
  -21.2440   -6.6950   23.8850 C   0  0  0  0  0  3  0  0  0  0  0  0
  -21.1600   -5.8690   25.0250 C   0  0  0  0  0  3  0  0  0  0  0  0
  -21.4780   -4.5010   24.9300 C   0  0  0  0  0  0  0  0  0  0  0  0
  -21.8820   -3.9560   23.6980 C   0  0  0  0  0  3  0  0  0  0  0  0
  -21.9660   -4.7780   22.5600 C   0  0  0  0  0  0  0  0  0  0  0  0
  -22.3370   -4.2440   21.3720 F   0  0  0  0  0  0  0  0  0  0  0  0
  -21.3900   -3.7060   26.0220 F   0  0  0  0  0  0  0  0  0  0  0  0
  -22.7530  -13.5420   21.1450 C   0  0  0  0  0  0  0  0  0  0  0  0
  -22.0270  -12.8470   22.0130 N   0  0  0  0  0  0  0  0  0  0  0  0
  -22.3120  -14.5630   20.6190 O   0  0  0  0  0  0  0  0  0  0  0  0
  -22.3980  -12.0210   22.4590 H   0  0  0  0  0  0  0  0  0  0  0  0
  -21.0870  -13.1450   22.2350 H   0  0  0  0  0  0  0  0  0  0  0  0
  -25.3750  -15.2120   20.3160 N   0  0  0  0  0  0  0  0  0  0  0  0
  -24.5880  -15.8500   20.3860 H   0  0  0  0  0  0  0  0  0  0  0  0
  -26.1960  -15.6430   19.9130 H   0  0  0  0  0  0  0  0  0  0  0  0
  1 49  1  0
  1  2  1  0
  3  1  1  0
  5  4  1  0
  5  6  1  0
  5  1  1  0
  7  6  1  0
  7  8  1  0
  9 20  2  0
 10  8  1  0
 10 15  1  0
 11 19  1  0
 11 21  1  0
 12 18  1  0
 12 14  1  0
 13 19  1  0
 14 13  1  0
 15 14  2  0
 16 17  1  0
 16 10  2  0
 17 12  2  0
 18 11  1  0
 19  9  1  0
 21 23  2  0
 22 21  1  0
 24 22  1  0
 25 34  2  0
 25 30  1  0
 26 22  1  0
 26 30  1  0
 27 26  1  0
 28 29  1  0
 28 27  1  0
 29 25  1  0
 30 31  2  0
 31 32  1  0
 33 32  2  0
 34 33  1  0
 35  9  1  0
 35 36  1  0
 35 45  1  0
 36 39  1  0
 37 41  1  0
 37 36  1  0
 38 37  2  0
 41 40  1  0
 43 41  1  0
 43 44  1  0
 43 42  1  0
 45 48  1  1
 45 46  1  0
 47 45  1  0
 49 52  1  0
 50 53  1  0
 51 56  1  0
 51 54  1  0
 52 51  2  0
 53 65  1  0
 53 56  2  0
 55 50  2  0
 55 52  1  0
 57 65  1  0
 58 63  1  0
 59 60  1  0
 59 58  1  0
 61 60  1  0
 61 70  1  0
 61 62  1  0
 63 57  1  0
 63 62  1  0
 64 57  2  0
 65 66  1  0
 67 68  2  0
 68 87  1  0
 69 68  1  0
 69 72  1  0
 70 67  1  0
 70 71  1  0
 71 69  2  0
 72 73  1  0
 73 74  2  0
 75 78  1  0
 75 74  1  0
 76 75  2  0
 77 76  1  0
 77 72  2  0
 78 79  1  0
 79 80  1  0
 80 81  2  0
 82 81  1  0
 82 86  1  0
 83 82  2  0
 84 79  2  0
 84 83  1  0
 85 84  1  0
 87 88  1  0
 88 91  1  0
 88 90  1  0
 89 87  2  0
 92 93  1  0
 92 67  1  0
 94 92  1  0
M  ISO  4   7 101   8 101  57 100  65 100
M  END
>  <TORSDO>  (45) 
F 21

>  <SCORE>  (45) 
-13.750

>  <name>  (45) 
44

>  <ligand_id>  (45) 
44

>  <original_smiles>  (45) 
[H]c1nc(C([H])([H])[N+]([H])([H])C([H])(C([H])([H])[H])C([H])([H])C([H])([H])Oc2c([H])c([H])c3c(c2[H])C([H])([H])N(C(=O)C([H])(N([H])C(=O)C([H])(N([H])C([H])([H])[H])C([H])([H])[H])C(C([H])([H])[H])(C([H])([H])[H])C([H])([H])[H])C([H])(C(=O)N([H])C2([H])c4c([H])c([H])c([H])c([H])c4C([H])([H])C([H])([H])C2([H])[H])C3([H])[H])c(C([H])([H])[H])nc1N([H])C(=O)N1C([H])([H])C([H])([H])C([H])([H])C([H])(n2nc(-c3c([H])c([H])c(Oc4c([H])c([H])c(F)c([H])c4F)c([H])c3[H])c(C(=O)N([H])[H])c2N([H])[H])C1([H])[H]

>  <smiles>  (45) 
[H]c1nc(C([H])([H])[N+]([H])([H])C([H])(C([H])([H])[H])C([H])([H])C([H])([H])Oc2c([H])c([H])c3c(c2[H])C([H])([H])N(C(=O)C([H])(N([H])C(=O)C([H])(N([H])C([H])([H])[H])C([H])([H])[H])C(C([H])([H])[H])(C([H])([H])[H])C([H])([H])[H])C([H])(C(=O)N([H])C2([H])c4c([H])c([H])c([H])c([H])c4C([H])([H])C([H])([H])C2([H])[H])C3([H])[H])c(C([H])([H])[H])nc1N([H])C(=O)N1C([H])([H])C([H])([H])C([H])([H])C([H])(n2nc(-c3c([H])c([H])c(Oc4c([H])c([H])c(F)c([H])c4F)c([H])c3[H])c(C(=O)N([H])[H])c2N([H])[H])C1([H])[H]

$$$$
45:0:0
     RDKit          3D

 94102  0  0  1  0  0  0  0  0999 V2000
  -29.3810  -19.9030   18.0880 C   0  0  0  0  0  3  0  0  0  0  0  0
  -29.7110  -18.6890   18.7300 C   0  0  0  0  0  0  0  0  0  0  0  0
  -29.7220  -18.6920   20.1440 C   0  0  0  0  0  0  0  0  0  0  0  0
  -29.1780  -21.0440   20.0560 C   0  0  0  0  0  0  0  0  0  0  0  0
  -29.1320  -21.0540   18.7390 N   0  0  0  0  0  0  0  0  0  0  0  0
  -29.4480  -19.9100   20.7810 N   0  0  0  0  0  0  0  0  0  0  0  0
  -28.9210  -22.3230   20.6600 N   0  0  0  0  0  0  0  0  0  0  0  0
  -28.9850  -22.3380   21.6700 H   0  0  0  0  0  0  0  0  0  0  0  0
  -30.0780  -17.5770   17.9620 N   0  0  0  0  0  0  0  0  0  0  0  0
  -30.3920  -17.7480   17.0090 H   0  0  0  0  0  0  0  0  0  0  0  0
  -30.6180  -16.8440   18.4160 H   0  0  0  0  0  0  0  0  0  0  0  0
  -30.2080  -17.3910   20.9590 C   0  0  0  0  0  2  0  0  0  0  0  0
  -30.5580  -14.7890   20.4390 C   0  0  0  0  0  0  0  0  0  0  0  0
  -30.3680  -12.4960   19.4380 C   0  0  0  0  0  2  0  0  0  0  0  0
  -29.4350  -12.5250   18.2070 C   0  0  0  0  0  2  0  0  0  0  0  0
  -27.9670  -12.3320   18.6350 C   0  0  0  0  0  2  0  0  0  0  0  0
  -27.5770  -13.2530   19.8220 C   0  0  0  0  0  3  0  0  0  0  0  0
  -28.6290  -13.2030   20.9520 C   0  0  0  0  0  2  0  0  0  0  0  0
  -29.9210  -13.5670   20.3590 N   0  0  0  0  0  0  0  0  0  0  0  0
  -31.7570  -14.8680   20.1570 O   0  0  0  0  0  0  0  0  0  0  0  0
  -29.7990  -15.9340   20.6570 N   0  0  0  0  0  0  0  0  0  0  0  0
  -28.8070  -15.7760   20.7290 H   0  0  0  0  0  0  0  0  0  0  0  0
  -25.1920  -13.8590   20.5360 C   0  0  0  0  0  0  0  0  0  0  0  0
  -24.1210  -13.0910   20.9070 C   0  0  0  0  0  0  0  0  0  0  0  0
  -24.5780  -11.7370   20.8840 C   0  0  0  0  0  0  0  0  0  0  0  0
  -26.2320  -12.9730   20.3110 N   0  0  0  0  0  0  0  0  0  0  0  0
  -25.8710  -11.6920   20.5840 N   0  0  0  0  0  0  0  0  0  0  0  0
  -23.8440  -10.4800   21.0750 C   0  0  0  0  0  0  0  0  0  0  0  0
  -24.2820   -9.5030   21.9950 C   0  0  0  0  0  3  0  0  0  0  0  0
  -23.5500   -8.3100   22.1740 C   0  0  0  0  0  3  0  0  0  0  0  0
  -22.3640   -8.0870   21.4320 C   0  0  0  0  0  0  0  0  0  0  0  0
  -21.9450   -9.0530   20.5000 C   0  0  0  0  0  3  0  0  0  0  0  0
  -22.6790  -10.2370   20.3190 C   0  0  0  0  0  3  0  0  0  0  0  0
  -21.6010   -6.9470   21.5220 O   0  0  0  0  0  0  0  0  0  0  0  0
  -21.5790   -6.1840   22.6610 C   0  0  0  0  0  0  0  0  0  0  0  0
  -21.2150   -6.7240   23.9140 C   0  0  0  0  0  3  0  0  0  0  0  0
  -21.1370   -5.8890   25.0450 C   0  0  0  0  0  3  0  0  0  0  0  0
  -21.4150   -4.5140   24.9270 C   0  0  0  0  0  0  0  0  0  0  0  0
  -21.7700   -3.9720   23.6800 C   0  0  0  0  0  3  0  0  0  0  0  0
  -21.8500   -4.8050   22.5500 C   0  0  0  0  0  0  0  0  0  0  0  0
  -22.1750   -4.2750   21.3460 F   0  0  0  0  0  0  0  0  0  0  0  0
  -21.3320   -3.7090   26.0120 F   0  0  0  0  0  0  0  0  0  0  0  0
  -22.7250  -13.5760   21.1650 C   0  0  0  0  0  0  0  0  0  0  0  0
  -21.9900  -12.8880   22.0320 N   0  0  0  0  0  0  0  0  0  0  0  0
  -22.2920  -14.5990   20.6340 O   0  0  0  0  0  0  0  0  0  0  0  0
  -22.3520  -12.0600   22.4810 H   0  0  0  0  0  0  0  0  0  0  0  0
  -21.0510  -13.1920   22.2500 H   0  0  0  0  0  0  0  0  0  0  0  0
  -25.3630  -15.2290   20.3540 N   0  0  0  0  0  0  0  0  0  0  0  0
  -24.5930  -15.8810   20.4560 H   0  0  0  0  0  0  0  0  0  0  0  0
  -26.2040  -15.6660   20.0000 H   0  0  0  0  0  0  0  0  0  0  0  0
  -28.9140  -23.7090   19.9970 C   0  0  0  0  0  2  0  0  0  0  0  0
  -28.1650  -24.9830   20.7010 C   0  0  0  0  0  3  0  0  0  0  0  0
  -28.5850  -24.9650   21.9900 F   0  0  0  0  0  0  0  0  0  0  0  0
  -28.3130  -26.3130   20.2110 O   0  0  0  0  0  0  0  0  0  0  0  0
  -24.6360  -31.8620   23.2210 C   0  0  0  0  0  0  0  0  0  0  0  0
  -27.2230  -27.2250   20.2060 C   0  0  0  0  0  0  0  0  0  0  0  0
  -23.4240  -30.4570   21.5930 C   0  0  0  0  0  3  0  0  0  0  0  0
  -24.8720  -28.8890   20.1700 C   0  0  0  0  0  0  0  0  0  0  0  0
  -25.9670  -30.7600   21.3990 C   0  0  0  0  0  2  0  0  0  0  0  0
  -26.0450  -29.3670   20.7660 C   0  0  0  0  0  0  0  0  0  0  0  0
  -27.2230  -28.5480   20.7740 C   0  0  0  0  0  3  0  0  0  0  0  0
  -26.0300  -26.8250   19.5690 C   0  0  0  0  0  3  0  0  0  0  0  0
  -24.8700  -27.6250   19.5590 C   0  0  0  0  0  3  0  0  0  0  0  0
  -23.6360  -29.7700   20.2170 C   0  0  0  0  0  2  0  0  0  0  0  0
  -24.6950  -31.0460   22.1270 N   0  0  0  0  0  0  0  0  0  0  0  0
  -23.5560  -32.1410   23.7620 O   0  0  0  0  0  0  0  0  0  0  0  0
  -22.7640  -29.4470   22.5640 C   0  0  0  0  0  0  0  0  0  0  0  0
  -21.4360  -29.2730   22.4490 N   0  0  0  0  0  0  0  0  0  0  0  0
  -23.4460  -28.8240   23.3800 O   0  0  0  0  0  0  0  0  0  0  0  0
  -20.9400  -29.8290   21.7670 H   0  0  0  0  0  0  0  0  0  0  0  0
  -18.0640  -28.0640   22.9740 C   0  0  0  0  0  0  0  0  0  0  0  0
  -20.6230  -28.3380   23.2310 C   0  0  0  0  0  3  0  0  0  0  0  0
  -20.7260  -26.9010   22.6680 C   0  0  0  0  0  2  0  0  0  0  0  0
  -19.6240  -26.5650   21.6610 C   0  0  0  0  0  2  0  0  0  0  0  0
  -18.2430  -26.7110   22.3080 C   0  0  0  0  0  2  0  0  0  0  0  0
  -19.1810  -28.8350   23.3930 C   0  0  0  0  0  0  0  0  0  0  0  0
  -18.9590  -30.1000   23.9760 C   0  0  0  0  0  3  0  0  0  0  0  0
  -17.6530  -30.5980   24.1420 C   0  0  0  0  0  3  0  0  0  0  0  0
  -16.5500  -29.8260   23.7380 C   0  0  0  0  0  3  0  0  0  0  0  0
  -16.7560  -28.5610   23.1600 C   0  0  0  0  0  3  0  0  0  0  0  0
  -25.9200  -32.5000   23.8340 C   0  0  0  0  0  3  0  0  0  0  0  0
  -26.4560  -31.7230   25.1000 C   0  0  1  0  0  0  0  0  0  0  0  0
  -25.3770  -31.4760   26.1810 C   0  0  0  0  0  1  0  0  0  0  0  0
  -27.0400  -30.3490   24.6960 C   0  0  0  0  0  1  0  0  0  0  0  0
  -27.6140  -32.5160   25.7500 C   0  0  0  0  0  1  0  0  0  0  0  0
  -25.6060  -33.8950   24.1790 N   0  0  0  0  0  0  0  0  0  0  0  0
  -25.9200  -34.9560   23.4240 C   0  0  0  0  0  0  0  0  0  0  0  0
  -26.5740  -34.8650   22.3830 O   0  0  0  0  0  0  0  0  0  0  0  0
  -25.0230  -34.0370   24.9910 H   0  0  0  0  0  0  0  0  0  0  0  0
  -24.1730  -36.7390   23.1170 C   0  0  0  0  0  1  0  0  0  0  0  0
  -25.4320  -36.3370   23.9020 C   0  0  0  0  0  3  0  0  0  0  0  0
  -27.5800  -37.2300   24.6920 C   0  0  0  0  0  1  0  0  0  0  0  0
  -26.4550  -37.3990   23.7750 N   0  0  0  0  0  0  0  0  0  0  0  0
  -26.0450  -38.3150   23.9400 H   0  0  0  0  0  0  0  0  0  0  0  0
  1  2  2  0
  1  5  1  0
  2  3  1  0
  3  6  2  0
  3 12  1  0
  4  7  1  0
  4  6  1  0
  5  4  2  0
  7  8  1  0
  9 11  1  0
  9  2  1  0
 10  9  1  0
 13 21  1  0
 14 19  1  0
 15 16  1  0
 15 14  1  0
 17 16  1  0
 17 26  1  0
 17 18  1  0
 19 13  1  0
 19 18  1  0
 20 13  2  0
 21 22  1  0
 21 12  1  0
 23 24  2  0
 24 43  1  0
 25 24  1  0
 25 28  1  0
 26 23  1  0
 26 27  1  0
 27 25  2  0
 28 29  1  0
 29 30  2  0
 31 34  1  0
 31 30  1  0
 32 31  2  0
 33 32  1  0
 33 28  2  0
 34 35  1  0
 35 36  1  0
 36 37  2  0
 38 37  1  0
 38 42  1  0
 39 38  2  0
 40 35  2  0
 40 39  1  0
 41 40  1  0
 43 44  1  0
 44 47  1  0
 44 46  1  0
 45 43  2  0
 48 49  1  0
 48 23  1  0
 50 48  1  0
 51  7  1  0
 51 52  1  0
 52 53  1  0
 54 52  1  0
 55 66  2  0
 56 54  1  0
 56 61  1  0
 57 65  1  0
 57 67  1  0
 58 64  1  0
 58 60  1  0
 59 65  1  0
 60 61  2  0
 60 59  1  0
 62 56  2  0
 63 62  1  0
 63 58  2  0
 64 57  1  0
 65 55  1  0
 67 69  2  0
 68 67  1  0
 70 68  1  0
 71 80  2  0
 71 76  1  0
 72 68  1  0
 72 76  1  0
 73 72  1  0
 74 75  1  0
 74 73  1  0
 75 71  1  0
 76 77  2  0
 77 78  1  0
 79 78  2  0
 80 79  1  0
 81 55  1  0
 81 86  1  0
 81 82  1  0
 82 85  1  1
 82 83  1  0
 84 82  1  0
 86 89  1  0
 87 91  1  0
 87 86  1  0
 88 87  2  0
 91 90  1  0
 93 91  1  0
 93 94  1  0
 93 92  1  0
M  ISO  4  13 100  21 100  52 101  54 101
M  END
>  <TORSDO>  (46) 
F 20

>  <SCORE>  (46) 
-14.175

>  <name>  (46) 
45

>  <ligand_id>  (46) 
45

>  <original_smiles>  (46) 
[H]c1nc(N([H])C([H])([H])C([H])(F)Oc2c([H])c([H])c3c(c2[H])C([H])([H])N(C(=O)C([H])(N([H])C(=O)C([H])(N([H])C([H])([H])[H])C([H])([H])[H])C(C([H])([H])[H])(C([H])([H])[H])C([H])([H])[H])C([H])(C(=O)N([H])C2([H])c4c([H])c([H])c([H])c([H])c4C([H])([H])C([H])([H])C2([H])[H])C3([H])[H])nc(C([H])([H])N([H])C(=O)N2C([H])([H])C([H])([H])C([H])([H])C([H])(n3nc(-c4c([H])c([H])c(Oc5c([H])c([H])c(F)c([H])c5F)c([H])c4[H])c(C(=O)N([H])[H])c3N([H])[H])C2([H])[H])c1N([H])[H]

>  <smiles>  (46) 
[H]c1nc(N([H])C([H])([H])C([H])(F)Oc2c([H])c([H])c3c(c2[H])C([H])([H])N(C(=O)C([H])(N([H])C(=O)C([H])(N([H])C([H])([H])[H])C([H])([H])[H])C(C([H])([H])[H])(C([H])([H])[H])C([H])([H])[H])C([H])(C(=O)N([H])C2([H])c4c([H])c([H])c([H])c([H])c4C([H])([H])C([H])([H])C2([H])[H])C3([H])[H])nc(C([H])([H])N([H])C(=O)N2C([H])([H])C([H])([H])C([H])([H])C([H])(n3nc(-c4c([H])c([H])c(Oc5c([H])c([H])c(F)c([H])c5F)c([H])c4[H])c(C(=O)N([H])[H])c3N([H])[H])C2([H])[H])c1N([H])[H]

$$$$
46:0:0
     RDKit          3D

 91 98  0  0  1  0  0  0  0  0999 V2000
  -27.9130  -18.1820   19.6510 N   0  0  0  0  0  0  0  0  0  0  0  0
  -28.6920  -17.9490   19.0370 H   0  0  0  0  0  0  0  0  0  0  0  0
  -24.7870  -16.1910   20.9280 C   0  0  0  0  0  2  0  0  0  0  0  0
  -26.9090  -15.3460   20.5100 C   0  0  0  0  0  3  0  0  0  0  0  0
  -27.0580  -16.8810   20.1120 C   0  0  0  0  0  3  0  0  0  0  0  0
  -25.6590  -15.2200   21.1350 N   0  0  0  0  0  2  0  0  0  0  0  0
  -25.4120  -17.5010   20.0050 S   0  0  0  0  0  0  0  0  0  0  0  0
  -27.4850  -13.5890   20.6980 C   0  0  0  0  0  2  0  0  0  0  0  0
  -30.5830  -14.0190   21.2650 C   0  0  0  0  0  0  0  0  0  0  0  0
  -32.0650  -11.9020   21.6030 C   0  0  0  0  0  2  0  0  0  0  0  0
  -31.8630  -10.8870   20.3980 C   0  0  0  0  0  2  0  0  0  0  0  0
  -30.4110  -10.4500   20.0710 C   0  0  0  0  0  2  0  0  0  0  0  0
  -29.6790  -11.7040   20.2600 C   0  0  0  0  0  3  0  0  0  0  0  0
  -29.8300  -11.9960   21.8270 C   0  0  0  0  0  2  0  0  0  0  0  0
  -30.9050  -12.8120   21.7830 N   0  0  0  0  0  0  0  0  0  0  0  0
  -31.6360  -14.6950   21.0690 O   0  0  0  0  0  0  0  0  0  0  0  0
  -29.1040  -14.2560   20.9480 N   0  0  0  0  0  0  0  0  0  0  0  0
  -29.0490  -15.2210   20.6560 H   0  0  0  0  0  0  0  0  0  0  0  0
  -27.0320  -12.6480   18.9520 C   0  0  0  0  0  2  0  0  0  0  0  0
  -25.5760  -12.4350   19.8810 C   0  0  0  0  0  3  0  0  0  0  0  0
  -25.8490  -11.3940   21.2820 C   0  0  0  0  0  3  0  0  0  0  0  0
  -28.3790  -11.7070   19.9810 N   0  0  0  0  0  2  0  0  0  0  0  0
  -27.4650  -11.0860   21.4140 N   0  0  0  0  0  2  0  0  0  0  0  0
  -25.1120   -9.9730   21.4470 C   0  0  0  0  0  0  0  0  0  0  0  0
  -24.9380   -9.3900   22.7320 C   0  0  0  0  0  3  0  0  0  0  0  0
  -24.2120   -8.1870   22.9830 C   0  0  0  0  0  3  0  0  0  0  0  0
  -23.6180   -7.4340   21.9440 C   0  0  0  0  0  0  0  0  0  0  0  0
  -23.8990   -7.8800   20.6310 C   0  0  0  0  0  3  0  0  0  0  0  0
  -24.6400   -9.0900   20.3930 C   0  0  0  0  0  3  0  0  0  0  0  0
  -22.8460   -6.2930   22.1620 O   0  0  0  0  0  0  0  0  0  0  0  0
  -21.9950   -6.1670   23.2510 C   0  0  0  0  0  0  0  0  0  0  0  0
  -20.9810   -7.1170   23.5190 C   0  0  0  0  0  3  0  0  0  0  0  0
  -20.1110   -6.9540   24.6190 C   0  0  0  0  0  3  0  0  0  0  0  0
  -20.2350   -5.8330   25.4600 C   0  0  0  0  0  0  0  0  0  0  0  0
  -21.2210   -4.8690   25.1920 C   0  0  0  0  0  3  0  0  0  0  0  0
  -22.0890   -5.0300   24.0920 C   0  0  0  0  0  0  0  0  0  0  0  0
  -23.0160   -4.0740   23.8430 F   0  0  0  0  0  0  0  0  0  0  0  0
  -19.4060   -5.6800   26.5220 F   0  0  0  0  0  0  0  0  0  0  0  0
  -24.2220  -12.4010   19.2610 C   0  0  0  0  0  0  0  0  0  0  0  0
  -23.1960  -11.9720   19.9980 N   0  0  0  0  0  0  0  0  0  0  0  0
  -24.0770  -12.7390   18.0980 O   0  0  0  0  0  0  0  0  0  0  0  0
  -23.3100  -11.6900   20.9580 H   0  0  0  0  0  0  0  0  0  0  0  0
  -22.2730  -11.9360   19.5880 H   0  0  0  0  0  0  0  0  0  0  0  0
  -27.3400  -13.5210   17.9710 N   0  0  0  0  0  0  0  0  0  0  0  0
  -26.6430  -14.0540   17.4640 H   0  0  0  0  0  0  0  0  0  0  0  0
  -28.2750  -13.6380   17.5980 H   0  0  0  0  0  0  0  0  0  0  0  0
  -28.5480  -20.0640   21.3530 C   0  0  0  0  0  1  0  0  0  0  0  0
  -27.8210  -19.8530   20.0130 C   0  0  0  0  0  3  0  0  0  0  0  0
  -28.2540  -21.4590   19.1310 C   0  0  0  0  0  2  0  0  0  0  0  0
  -28.1820  -23.3080   19.5130 C   0  0  0  0  0  2  0  0  0  0  0  0
  -28.9630  -24.8050   19.1850 O   0  0  0  0  0  0  0  0  0  0  0  0
  -26.8060  -30.5500   23.6140 C   0  0  0  0  0  0  0  0  0  0  0  0
  -28.4060  -26.1900   19.3980 C   0  0  0  0  0  0  0  0  0  0  0  0
  -25.4460  -29.8540   21.6940 C   0  0  0  0  0  3  0  0  0  0  0  0
  -26.6380  -28.5170   19.8360 C   0  0  0  0  0  0  0  0  0  0  0  0
  -28.0140  -29.6520   21.5550 C   0  0  0  0  0  2  0  0  0  0  0  0
  -27.8490  -28.4740   20.5400 C   0  0  0  0  0  0  0  0  0  0  0  0
  -28.7490  -27.3320   20.2990 C   0  0  0  0  0  3  0  0  0  0  0  0
  -27.2740  -26.4740   18.6200 C   0  0  0  0  0  3  0  0  0  0  0  0
  -26.4010  -27.5590   18.8430 C   0  0  0  0  0  3  0  0  0  0  0  0
  -25.6000  -29.5800   20.1730 C   0  0  0  0  0  2  0  0  0  0  0  0
  -26.7830  -30.0320   22.3440 N   0  0  0  0  0  0  0  0  0  0  0  0
  -25.7610  -30.8460   24.2190 O   0  0  0  0  0  0  0  0  0  0  0  0
  -24.6030  -28.7300   22.3550 C   0  0  0  0  0  0  0  0  0  0  0  0
  -23.2690  -28.7620   22.1730 N   0  0  0  0  0  0  0  0  0  0  0  0
  -25.1560  -27.8430   23.0100 O   0  0  0  0  0  0  0  0  0  0  0  0
  -22.8810  -29.5250   21.6370 H   0  0  0  0  0  0  0  0  0  0  0  0
  -19.7590  -27.8470   22.2680 C   0  0  0  0  0  0  0  0  0  0  0  0
  -22.3120  -27.7680   22.6750 C   0  0  0  0  0  3  0  0  0  0  0  0
  -22.3080  -26.5020   21.7870 C   0  0  0  0  0  2  0  0  0  0  0  0
  -21.2420  -26.5410   20.6870 C   0  0  0  0  0  2  0  0  0  0  0  0
  -19.8440  -26.6800   21.2970 C   0  0  0  0  0  2  0  0  0  0  0  0
  -20.9180  -28.3680   22.9020 C   0  0  0  0  0  0  0  0  0  0  0  0
  -20.7840  -29.4710   23.7720 C   0  0  0  0  0  3  0  0  0  0  0  0
  -19.5230  -30.0510   24.0100 C   0  0  0  0  0  3  0  0  0  0  0  0
  -18.3780  -29.5240   23.3890 C   0  0  0  0  0  3  0  0  0  0  0  0
  -18.4960  -28.4220   22.5230 C   0  0  0  0  0  3  0  0  0  0  0  0
  -28.1440  -30.8120   24.3640 C   0  0  0  0  0  3  0  0  0  0  0  0
  -27.9590  -32.0000   25.2190 N   0  0  0  0  0  0  0  0  0  0  0  0
  -28.4330  -33.2240   24.9510 C   0  0  0  0  0  0  0  0  0  0  0  0
  -29.1350  -33.4630   23.9660 O   0  0  0  0  0  0  0  0  0  0  0  0
  -27.3460  -31.8880   26.0130 H   0  0  0  0  0  0  0  0  0  0  0  0
  -26.9410  -35.2140   25.3420 C   0  0  0  0  0  1  0  0  0  0  0  0
  -28.0760  -34.3620   25.9300 C   0  0  0  0  0  3  0  0  0  0  0  0
  -30.2350  -34.5680   27.0840 C   0  0  0  0  0  1  0  0  0  0  0  0
  -29.2240  -35.2330   26.2670 N   0  0  0  0  0  0  0  0  0  0  0  0
  -28.9120  -36.0640   26.7630 H   0  0  0  0  0  0  0  0  0  0  0  0
  -28.6110  -29.5840   25.2420 C   0  0  1  0  0  0  0  0  0  0  0  0
  -27.5190  -29.0520   26.1990 C   0  0  0  0  0  1  0  0  0  0  0  0
  -29.0640  -28.4030   24.3540 C   0  0  0  0  0  1  0  0  0  0  0  0
  -29.8390  -29.9870   26.0910 C   0  0  0  0  0  1  0  0  0  0  0  0
  1 48  1  0
  2  1  1  0
  3  6  1  0
  4  8  1  0
  4  6  1  0
  5  1  1  0
  5  4  1  0
  7  5  1  0
  7  3  1  0
  8 17  1  0
  9 15  1  0
 10 15  1  0
 11 10  1  0
 12 13  1  0
 12 11  1  0
 13 22  1  0
 13 14  1  0
 15 14  1  0
 16  9  2  0
 17  9  1  0
 18 17  1  0
 20 19  1  0
 20 21  1  0
 21 23  1  0
 21 24  1  0
 22 23  1  0
 24 25  1  0
 25 26  2  0
 27 30  1  0
 27 26  1  0
 28 27  2  0
 29 28  1  0
 29 24  2  0
 30 31  1  0
 31 32  2  0
 31 36  1  0
 32 33  1  0
 33 34  2  0
 34 38  1  0
 35 34  1  0
 36 35  2  0
 37 36  1  0
 39 20  1  0
 39 40  1  0
 40 42  1  0
 41 39  2  0
 43 40  1  0
 44 19  1  0
 45 44  1  0
 46 44  1  0
 48 47  1  0
 49 50  1  0
 49 48  1  0
 51 53  1  0
 51 50  1  0
 52 63  2  0
 53 58  1  0
 54 62  1  0
 54 64  1  0
 55 61  1  0
 55 57  1  0
 56 62  1  0
 57 56  1  0
 58 57  2  0
 59 60  1  0
 59 53  2  0
 60 55  2  0
 61 54  1  0
 62 52  1  0
 64 66  2  0
 65 64  1  0
 67 65  1  0
 68 77  2  0
 68 73  1  0
 69 65  1  0
 69 73  1  0
 70 69  1  0
 71 72  1  0
 71 70  1  0
 72 68  1  0
 73 74  2  0
 74 75  1  0
 76 75  2  0
 77 76  1  0
 78 52  1  0
 78 79  1  0
 78 88  1  0
 79 82  1  0
 80 79  1  0
 80 84  1  0
 81 80  2  0
 84 83  1  0
 84 86  1  0
 86 87  1  0
 86 85  1  0
 88 91  1  1
 88 89  1  0
 90 88  1  0
M  ISO  4   9 100  17 100  50 101  51 101
M  END
>  <TORSDO>  (47) 
F 21

>  <SCORE>  (47) 
-1.409

>  <name>  (47) 
46

>  <ligand_id>  (47) 
46

>  <original_smiles>  (47) 
[H]c1nc(C([H])([H])N([H])C(=O)N2C([H])([H])C([H])([H])C([H])([H])C([H])(n3nc(-c4c([H])c([H])c(Oc5c([H])c([H])c(F)c([H])c5F)c([H])c4[H])c(C(=O)N([H])[H])c3N([H])[H])C2([H])[H])c(N([H])C([H])(C([H])([H])[H])C([H])([H])C([H])([H])Oc2c([H])c([H])c3c(c2[H])C([H])([H])N(C(=O)C([H])(N([H])C(=O)C([H])(N([H])C([H])([H])[H])C([H])([H])[H])C(C([H])([H])[H])(C([H])([H])[H])C([H])([H])[H])C([H])(C(=O)N([H])C2([H])c4c([H])c([H])c([H])c([H])c4C([H])([H])C([H])([H])C2([H])[H])C3([H])[H])s1

>  <smiles>  (47) 
[H]c1nc(C([H])([H])N([H])C(=O)N2C([H])([H])C([H])([H])C([H])([H])C([H])(n3nc(-c4c([H])c([H])c(Oc5c([H])c([H])c(F)c([H])c5F)c([H])c4[H])c(C(=O)N([H])[H])c3N([H])[H])C2([H])[H])c(N([H])C([H])(C([H])([H])[H])C([H])([H])C([H])([H])Oc2c([H])c([H])c3c(c2[H])C([H])([H])N(C(=O)C([H])(N([H])C(=O)C([H])(N([H])C([H])([H])[H])C([H])([H])[H])C(C([H])([H])[H])(C([H])([H])[H])C([H])([H])[H])C([H])(C(=O)N([H])C2([H])c4c([H])c([H])c([H])c([H])c4C([H])([H])C([H])([H])C2([H])[H])C3([H])[H])s1

$$$$
47:0:0
     RDKit          3D

 91 99  0  0  1  0  0  0  0  0999 V2000
  -30.4850  -15.1360   20.4070 C   0  0  0  0  0  0  0  0  0  0  0  0
  -30.4060  -12.7160   19.5420 C   0  0  0  0  0  2  0  0  0  0  0  0
  -29.5180  -12.5790   18.2830 C   0  0  0  0  0  2  0  0  0  0  0  0
  -28.0480  -12.3500   18.6810 C   0  0  0  0  0  2  0  0  0  0  0  0
  -27.5860  -13.3270   19.7960 C   0  0  0  0  0  3  0  0  0  0  0  0
  -28.6060  -13.4300   20.9490 C   0  0  0  0  0  2  0  0  0  0  0  0
  -29.8770  -13.8630   20.3520 N   0  0  0  0  0  0  0  0  0  0  0  0
  -31.7090  -15.1140   20.2050 O   0  0  0  0  0  0  0  0  0  0  0  0
  -30.7520  -20.5570   20.9570 C   0  0  0  0  0  3  0  0  0  0  0  0
  -31.5790  -19.4540   21.2340 C   0  0  0  0  0  0  0  0  0  0  0  0
  -29.4810  -20.3540   20.4230 C   0  0  0  0  0  0  0  0  0  0  0  0
  -30.0120  -17.8690   20.5400 C   0  0  0  0  0  0  0  0  0  0  0  0
  -32.9690  -19.6880   21.7870 C   0  0  0  0  0  1  0  0  0  0  0  0
  -31.2150  -18.1660   21.0300 N   0  0  0  0  0  0  0  0  0  0  0  0
  -29.1410  -18.9650   20.2400 N   0  0  0  0  0  0  0  0  0  0  0  0
  -28.6820  -21.5910   20.1030 N   0  0  0  0  0  0  0  0  0  0  0  0
  -29.7290  -16.3820   20.4420 N   0  0  0  0  0  0  0  0  0  0  0  0
  -27.8240  -21.4140   19.5870 H   0  0  0  0  0  0  0  0  0  0  0  0
  -28.7380  -16.1990   20.4270 H   0  0  0  0  0  0  0  0  0  0  0  0
  -25.1950  -13.9100   20.4870 C   0  0  0  0  0  0  0  0  0  0  0  0
  -24.1220  -13.1420   20.8420 C   0  0  0  0  0  0  0  0  0  0  0  0
  -24.5840  -11.7890   20.8390 C   0  0  0  0  0  0  0  0  0  0  0  0
  -26.2410  -13.0290   20.2730 N   0  0  0  0  0  0  0  0  0  0  0  0
  -25.8820  -11.7490   20.5550 N   0  0  0  0  0  0  0  0  0  0  0  0
  -23.8490  -10.5320   21.0260 C   0  0  0  0  0  0  0  0  0  0  0  0
  -24.2640   -9.5660   21.9710 C   0  0  0  0  0  3  0  0  0  0  0  0
  -23.5250   -8.3760   22.1480 C   0  0  0  0  0  3  0  0  0  0  0  0
  -22.3590   -8.1420   21.3810 C   0  0  0  0  0  0  0  0  0  0  0  0
  -21.9620   -9.0970   20.4290 C   0  0  0  0  0  3  0  0  0  0  0  0
  -22.7000  -10.2790   20.2490 C   0  0  0  0  0  3  0  0  0  0  0  0
  -21.5960   -7.0030   21.4690 O   0  0  0  0  0  0  0  0  0  0  0  0
  -21.5370   -6.2620   22.6210 C   0  0  0  0  0  0  0  0  0  0  0  0
  -21.1220   -6.8230   23.8490 C   0  0  0  0  0  3  0  0  0  0  0  0
  -21.0080   -6.0110   24.9940 C   0  0  0  0  0  3  0  0  0  0  0  0
  -21.2990   -4.6360   24.9120 C   0  0  0  0  0  0  0  0  0  0  0  0
  -21.7040   -4.0710   23.6900 C   0  0  0  0  0  3  0  0  0  0  0  0
  -21.8210   -4.8820   22.5480 C   0  0  0  0  0  0  0  0  0  0  0  0
  -22.1940   -4.3320   21.3670 F   0  0  0  0  0  0  0  0  0  0  0  0
  -21.1820   -3.8520   26.0080 F   0  0  0  0  0  0  0  0  0  0  0  0
  -22.7210  -13.6290   21.0680 C   0  0  0  0  0  0  0  0  0  0  0  0
  -21.9670  -12.9590   21.9330 N   0  0  0  0  0  0  0  0  0  0  0  0
  -22.3040  -14.6430   20.5130 O   0  0  0  0  0  0  0  0  0  0  0  0
  -22.3140  -12.1420   22.4120 H   0  0  0  0  0  0  0  0  0  0  0  0
  -21.0240  -13.2730   22.1190 H   0  0  0  0  0  0  0  0  0  0  0  0
  -25.3600  -15.2790   20.2990 N   0  0  0  0  0  0  0  0  0  0  0  0
  -24.5780  -15.9170   20.3920 H   0  0  0  0  0  0  0  0  0  0  0  0
  -26.1920  -15.7240   19.9370 H   0  0  0  0  0  0  0  0  0  0  0  0
  -28.7360  -23.2010   22.0670 C   0  0  0  0  0  1  0  0  0  0  0  0
  -28.8840  -23.1210   20.5320 C   0  0  0  0  0  3  0  0  0  0  0  0
  -28.0640  -24.5110   19.8940 C   0  0  0  0  0  2  0  0  0  0  0  0
  -28.2680  -26.0630   20.2110 O   0  0  0  0  0  0  0  0  0  0  0  0
  -24.6830  -31.8610   23.1950 C   0  0  0  0  0  0  0  0  0  0  0  0
  -27.2380  -27.0970   20.1330 C   0  0  0  0  0  0  0  0  0  0  0  0
  -23.4790  -30.4690   21.5580 C   0  0  0  0  0  3  0  0  0  0  0  0
  -24.9210  -28.8930   20.1160 C   0  0  0  0  0  0  0  0  0  0  0  0
  -26.0350  -30.7180   21.3870 C   0  0  0  0  0  2  0  0  0  0  0  0
  -26.1060  -29.3220   20.7270 C   0  0  0  0  0  0  0  0  0  0  0  0
  -27.2630  -28.4400   20.7180 C   0  0  0  0  0  3  0  0  0  0  0  0
  -26.0280  -26.7970   19.4690 C   0  0  0  0  0  3  0  0  0  0  0  0
  -24.9000  -27.6480   19.4720 C   0  0  0  0  0  3  0  0  0  0  0  0
  -23.6960  -29.7980   20.1760 C   0  0  0  0  0  2  0  0  0  0  0  0
  -24.7540  -31.0410   22.1020 N   0  0  0  0  0  0  0  0  0  0  0  0
  -23.5980  -32.1430   23.7290 O   0  0  0  0  0  0  0  0  0  0  0  0
  -22.8030  -29.4600   22.5220 C   0  0  0  0  0  0  0  0  0  0  0  0
  -21.4720  -29.2940   22.4070 N   0  0  0  0  0  0  0  0  0  0  0  0
  -23.4800  -28.8290   23.3370 O   0  0  0  0  0  0  0  0  0  0  0  0
  -20.9820  -29.8530   21.7210 H   0  0  0  0  0  0  0  0  0  0  0  0
  -18.0950  -28.0890   22.9340 C   0  0  0  0  0  0  0  0  0  0  0  0
  -20.6560  -28.3540   23.1800 C   0  0  0  0  0  3  0  0  0  0  0  0
  -20.7540  -26.9230   22.6010 C   0  0  0  0  0  2  0  0  0  0  0  0
  -19.6440  -26.6020   21.5950 C   0  0  0  0  0  2  0  0  0  0  0  0
  -18.2680  -26.7430   22.2510 C   0  0  0  0  0  2  0  0  0  0  0  0
  -19.2170  -28.8520   23.3570 C   0  0  0  0  0  0  0  0  0  0  0  0
  -18.9990  -30.1100   23.9600 C   0  0  0  0  0  3  0  0  0  0  0  0
  -17.6950  -30.6060   24.1430 C   0  0  0  0  0  3  0  0  0  0  0  0
  -16.5890  -29.8410   23.7340 C   0  0  0  0  0  3  0  0  0  0  0  0
  -16.7900  -28.5850   23.1340 C   0  0  0  0  0  3  0  0  0  0  0  0
  -25.9600  -32.4990   23.8230 C   0  0  0  0  0  3  0  0  0  0  0  0
  -25.6390  -33.8910   24.1790 N   0  0  0  0  0  0  0  0  0  0  0  0
  -25.9470  -34.9630   23.4360 C   0  0  0  0  0  0  0  0  0  0  0  0
  -26.5960  -34.8830   22.3890 O   0  0  0  0  0  0  0  0  0  0  0  0
  -25.0580  -34.0280   24.9940 H   0  0  0  0  0  0  0  0  0  0  0  0
  -24.1890  -36.7440   23.1630 C   0  0  0  0  0  1  0  0  0  0  0  0
  -25.4590  -36.3400   23.9290 C   0  0  0  0  0  3  0  0  0  0  0  0
  -27.6100  -37.2370   24.7060 C   0  0  0  0  0  1  0  0  0  0  0  0
  -26.4770  -37.4070   23.8010 N   0  0  0  0  0  0  0  0  0  0  0  0
  -26.0660  -38.3200   23.9750 H   0  0  0  0  0  0  0  0  0  0  0  0
  -26.4870  -31.7160   25.0890 C   0  0  1  0  0  0  0  0  0  0  0  0
  -25.4030  -31.4690   26.1650 C   0  0  0  0  0  1  0  0  0  0  0  0
  -27.0700  -30.3420   24.6860 C   0  0  0  0  0  1  0  0  0  0  0  0
  -27.6410  -32.5090   25.7490 C   0  0  0  0  0  1  0  0  0  0  0  0
  1 17  1  0
  2  7  1  0
  3  4  1  0
  3  2  1  0
  5  4  1  0
  5 23  1  0
  5  6  1  0
  7  1  1  0
  7  6  1  0
  8  1  2  0
  9 10  2  0
 10 13  1  0
 11  9  1  0
 12 14  2  0
 14 10  1  0
 15 11  2  0
 15 12  1  0
 16 11  1  0
 16 49  1  0
 17 12  1  0
 18 16  1  0
 19 17  1  0
 20 21  2  0
 21 40  1  0
 22 21  1  0
 22 25  1  0
 23 20  1  0
 23 24  1  0
 24 22  2  0
 25 26  1  0
 26 27  2  0
 28 31  1  0
 28 27  1  0
 29 28  2  0
 30 29  1  0
 30 25  2  0
 31 32  1  0
 32 33  1  0
 33 34  2  0
 35 34  1  0
 35 39  1  0
 36 35  2  0
 37 32  2  0
 37 36  1  0
 38 37  1  0
 40 41  1  0
 41 44  1  0
 41 43  1  0
 42 40  2  0
 45 46  1  0
 45 20  1  0
 47 45  1  0
 49 48  1  0
 50 51  1  0
 50 49  1  0
 52 63  2  0
 53 51  1  0
 53 58  1  0
 54 62  1  0
 54 64  1  0
 55 61  1  0
 55 57  1  0
 56 62  1  0
 57 56  1  0
 58 57  2  0
 59 60  1  0
 59 53  2  0
 60 55  2  0
 61 54  1  0
 62 52  1  0
 64 66  2  0
 65 64  1  0
 67 65  1  0
 68 77  2  0
 68 73  1  0
 69 65  1  0
 69 73  1  0
 70 69  1  0
 71 72  1  0
 71 70  1  0
 72 68  1  0
 73 74  2  0
 74 75  1  0
 76 75  2  0
 77 76  1  0
 78 52  1  0
 78 79  1  0
 78 88  1  0
 79 82  1  0
 80 84  1  0
 80 79  1  0
 81 80  2  0
 84 83  1  0
 86 84  1  0
 86 87  1  0
 86 85  1  0
 88 91  1  1
 88 89  1  0
 90 88  1  0
M  ISO  4   1 100  17 100  50 101  51 101
M  END
>  <TORSDO>  (48) 
F 17

>  <SCORE>  (48) 
-15.813

>  <name>  (48) 
47

>  <ligand_id>  (48) 
47

>  <original_smiles>  (48) 
[H]c1c(N([H])C([H])(C([H])([H])[H])C([H])([H])Oc2c([H])c([H])c3c(c2[H])C([H])([H])N(C(=O)C([H])(N([H])C(=O)C([H])(N([H])C([H])([H])[H])C([H])([H])[H])C(C([H])([H])[H])(C([H])([H])[H])C([H])([H])[H])C([H])(C(=O)N([H])C2([H])c4c([H])c([H])c([H])c([H])c4C([H])([H])C([H])([H])C2([H])[H])C3([H])[H])nc(N([H])C(=O)N2C([H])([H])C([H])([H])C([H])([H])C([H])(n3nc(-c4c([H])c([H])c(Oc5c([H])c([H])c(F)c([H])c5F)c([H])c4[H])c(C(=O)N([H])[H])c3N([H])[H])C2([H])[H])nc1C([H])([H])[H]

>  <smiles>  (48) 
[H]c1c(N([H])C([H])(C([H])([H])[H])C([H])([H])Oc2c([H])c([H])c3c(c2[H])C([H])([H])N(C(=O)C([H])(N([H])C(=O)C([H])(N([H])C([H])([H])[H])C([H])([H])[H])C(C([H])([H])[H])(C([H])([H])[H])C([H])([H])[H])C([H])(C(=O)N([H])C2([H])c4c([H])c([H])c([H])c([H])c4C([H])([H])C([H])([H])C2([H])[H])C3([H])[H])nc(N([H])C(=O)N2C([H])([H])C([H])([H])C([H])([H])C([H])(n3nc(-c4c([H])c([H])c(Oc5c([H])c([H])c(F)c([H])c5F)c([H])c4[H])c(C(=O)N([H])[H])c3N([H])[H])C2([H])[H])nc1C([H])([H])[H]

$$$$
48:0:0
     RDKit          3D

 92100  0  0  1  0  0  0  0  0999 V2000
  -29.1010  -23.1760   20.4030 C   0  0  0  0  0  2  0  0  0  0  0  0
  -30.3890  -18.2290   20.4730 C   0  0  0  0  0  0  0  0  0  0  0  0
  -29.4740  -20.5120   20.5130 C   0  0  0  0  0  0  0  0  0  0  0  0
  -30.5960  -18.9070   19.3270 N   0  0  0  0  0  0  0  0  0  0  0  0
  -30.0870  -20.2190   19.3560 N   0  0  0  0  0  0  0  0  0  0  0  0
  -28.9520  -21.7740   20.8630 N   0  0  0  0  0  0  0  0  0  0  0  0
  -29.4130  -19.1450   21.6400 S   0  0  0  0  0  0  0  0  0  0  0  0
  -28.5300  -21.7270   21.7840 H   0  0  0  0  0  0  0  0  0  0  0  0
  -31.1200  -16.9380   20.8400 C   0  0  0  0  0  2  0  0  0  0  0  0
  -31.1050  -14.5750   19.9560 C   0  0  0  0  0  0  0  0  0  0  0  0
  -30.7400  -12.3460   18.9380 C   0  0  0  0  0  2  0  0  0  0  0  0
  -29.7560  -12.4660   17.7560 C   0  0  0  0  0  2  0  0  0  0  0  0
  -28.2990  -12.3650   18.2500 C   0  0  0  0  0  2  0  0  0  0  0  0
  -28.0130  -13.2870   19.4650 C   0  0  0  0  0  3  0  0  0  0  0  0
  -29.1070  -13.1430   20.5460 C   0  0  0  0  0  2  0  0  0  0  0  0
  -30.4030  -13.4070   19.9040 N   0  0  0  0  0  0  0  0  0  0  0  0
  -32.2350  -14.6780   19.4680 O   0  0  0  0  0  0  0  0  0  0  0  0
  -30.4690  -15.6550   20.4680 N   0  0  0  0  0  0  0  0  0  0  0  0
  -29.5190  -15.5210   20.7800 H   0  0  0  0  0  0  0  0  0  0  0  0
  -25.6830  -13.9780   20.3020 C   0  0  0  0  0  0  0  0  0  0  0  0
  -24.6030  -13.2440   20.7140 C   0  0  0  0  0  0  0  0  0  0  0  0
  -25.0070  -11.8750   20.6460 C   0  0  0  0  0  0  0  0  0  0  0  0
  -26.6770  -13.0580   20.0100 N   0  0  0  0  0  0  0  0  0  0  0  0
  -26.2780  -11.7880   20.2760 N   0  0  0  0  0  0  0  0  0  0  0  0
  -24.2390  -10.6420   20.8570 C   0  0  0  0  0  0  0  0  0  0  0  0
  -24.6340   -9.6790   21.8110 C   0  0  0  0  0  3  0  0  0  0  0  0
  -23.8690   -8.5100   22.0080 C   0  0  0  0  0  3  0  0  0  0  0  0
  -22.6930   -8.2940   21.2500 C   0  0  0  0  0  0  0  0  0  0  0  0
  -22.3170   -9.2440   20.2850 C   0  0  0  0  0  3  0  0  0  0  0  0
  -23.0820  -10.4050   20.0860 C   0  0  0  0  0  3  0  0  0  0  0  0
  -21.9020   -7.1760   21.3550 O   0  0  0  0  0  0  0  0  0  0  0  0
  -21.7690   -6.4980   22.5400 C   0  0  0  0  0  0  0  0  0  0  0  0
  -21.2710   -7.1220   23.7050 C   0  0  0  0  0  3  0  0  0  0  0  0
  -21.0850   -6.3690   24.8820 C   0  0  0  0  0  3  0  0  0  0  0  0
  -21.3870   -4.9950   24.8950 C   0  0  0  0  0  0  0  0  0  0  0  0
  -21.8770   -4.3700   23.7340 C   0  0  0  0  0  3  0  0  0  0  0  0
  -22.0640   -5.1190   22.5590 C   0  0  0  0  0  0  0  0  0  0  0  0
  -22.5170   -4.5080   21.4380 F   0  0  0  0  0  0  0  0  0  0  0  0
  -21.2000   -4.2690   26.0230 F   0  0  0  0  0  0  0  0  0  0  0  0
  -23.2410  -13.7750   21.0570 C   0  0  0  0  0  0  0  0  0  0  0  0
  -22.5280  -13.1000   21.9510 N   0  0  0  0  0  0  0  0  0  0  0  0
  -22.8200  -14.8230   20.5680 O   0  0  0  0  0  0  0  0  0  0  0  0
  -22.8820  -12.2510   22.3680 H   0  0  0  0  0  0  0  0  0  0  0  0
  -21.6160  -13.4360   22.2260 H   0  0  0  0  0  0  0  0  0  0  0  0
  -25.8960  -15.3430   20.1300 N   0  0  0  0  0  0  0  0  0  0  0  0
  -25.1600  -16.0260   20.2760 H   0  0  0  0  0  0  0  0  0  0  0  0
  -26.7410  -15.7480   19.7460 H   0  0  0  0  0  0  0  0  0  0  0  0
  -28.2420  -24.1600   21.2650 C   0  0  0  0  0  3  0  0  0  0  0  0
  -26.8820  -23.9080   20.9730 O   0  0  0  0  0  0  0  0  0  0  0  0
  -26.8210  -22.9790   20.7730 H   0  0  0  0  0  0  0  0  0  0  0  0
  -28.5540  -25.7070   21.3410 C   0  0  0  0  0  2  0  0  0  0  0  0
  -28.3800  -26.5600   20.1860 O   0  0  0  0  0  0  0  0  0  0  0  0
  -24.5500  -31.8230   23.2340 C   0  0  0  0  0  0  0  0  0  0  0  0
  -27.2490  -27.3600   20.1970 C   0  0  0  0  0  0  0  0  0  0  0  0
  -23.3770  -30.4190   21.5700 C   0  0  0  0  0  3  0  0  0  0  0  0
  -24.8610  -28.8880   20.1640 C   0  0  0  0  0  0  0  0  0  0  0  0
  -25.9090  -30.7770   21.4190 C   0  0  0  0  0  2  0  0  0  0  0  0
  -26.0090  -29.4030   20.7790 C   0  0  0  0  0  0  0  0  0  0  0  0
  -27.2090  -28.6460   20.7970 C   0  0  0  0  0  3  0  0  0  0  0  0
  -26.0900  -26.8740   19.5640 C   0  0  0  0  0  3  0  0  0  0  0  0
  -24.8970  -27.6230   19.5520 C   0  0  0  0  0  3  0  0  0  0  0  0
  -23.6130  -29.7450   20.1920 C   0  0  0  0  0  2  0  0  0  0  0  0
  -24.6290  -31.0220   22.1320 N   0  0  0  0  0  0  0  0  0  0  0  0
  -23.4580  -32.0900   23.7570 O   0  0  0  0  0  0  0  0  0  0  0  0
  -22.7120  -29.3940   22.5180 C   0  0  0  0  0  0  0  0  0  0  0  0
  -21.3890  -29.2160   22.3760 N   0  0  0  0  0  0  0  0  0  0  0  0
  -23.3860  -28.7630   23.3370 O   0  0  0  0  0  0  0  0  0  0  0  0
  -20.9060  -29.7770   21.6890 H   0  0  0  0  0  0  0  0  0  0  0  0
  -18.0040  -28.0400   22.8520 C   0  0  0  0  0  0  0  0  0  0  0  0
  -20.5620  -28.2730   23.1320 C   0  0  0  0  0  3  0  0  0  0  0  0
  -20.6550  -26.8500   22.5360 C   0  0  0  0  0  2  0  0  0  0  0  0
  -19.5530  -26.5500   21.5160 C   0  0  0  0  0  2  0  0  0  0  0  0
  -18.1700  -26.6990   22.1590 C   0  0  0  0  0  2  0  0  0  0  0  0
  -19.1270  -28.7860   23.2950 C   0  0  0  0  0  0  0  0  0  0  0  0
  -18.9180  -30.0440   23.9020 C   0  0  0  0  0  3  0  0  0  0  0  0
  -17.6170  -30.5540   24.0720 C   0  0  0  0  0  3  0  0  0  0  0  0
  -16.5070  -29.8040   23.6460 C   0  0  0  0  0  3  0  0  0  0  0  0
  -16.7020  -28.5480   23.0420 C   0  0  0  0  0  3  0  0  0  0  0  0
  -25.8220  -32.4580   23.8760 C   0  0  0  0  0  3  0  0  0  0  0  0
  -25.5080  -33.8590   24.1890 N   0  0  0  0  0  0  0  0  0  0  0  0
  -25.8600  -34.9050   23.4300 C   0  0  0  0  0  0  0  0  0  0  0  0
  -26.5530  -34.7920   22.4150 O   0  0  0  0  0  0  0  0  0  0  0  0
  -24.8980  -34.0210   24.9770 H   0  0  0  0  0  0  0  0  0  0  0  0
  -24.1480  -36.6990   23.0150 C   0  0  0  0  0  1  0  0  0  0  0  0
  -25.3630  -36.2970   23.8650 C   0  0  0  0  0  3  0  0  0  0  0  0
  -27.4720  -37.1830   24.7580 C   0  0  0  0  0  1  0  0  0  0  0  0
  -26.4020  -37.3460   23.7770 N   0  0  0  0  0  0  0  0  0  0  0  0
  -25.9940  -38.2680   23.9020 H   0  0  0  0  0  0  0  0  0  0  0  0
  -26.3140  -31.6960   25.1680 C   0  0  1  0  0  0  0  0  0  0  0  0
  -25.2000  -31.4600   26.2140 C   0  0  0  0  0  1  0  0  0  0  0  0
  -26.9100  -30.3180   24.7940 C   0  0  0  0  0  1  0  0  0  0  0  0
  -27.4490  -32.4980   25.8490 C   0  0  0  0  0  1  0  0  0  0  0  0
  1  6  1  0
  2  9  1  0
  2  7  1  0
  3  6  1  0
  3  7  1  0
  4  5  1  0
  4  2  2  0
  5  3  2  0
  6  8  1  0
 10 18  1  0
 11 16  1  0
 12 13  1  0
 12 11  1  0
 14 13  1  0
 14 23  1  0
 14 15  1  0
 16 10  1  0
 16 15  1  0
 17 10  2  0
 18 19  1  0
 18  9  1  0
 20 21  2  0
 21 40  1  0
 22 21  1  0
 22 25  1  0
 23 24  1  0
 23 20  1  0
 24 22  2  0
 25 26  1  0
 26 27  2  0
 28 31  1  0
 28 27  1  0
 29 28  2  0
 30 29  1  0
 30 25  2  0
 31 32  1  0
 32 37  2  0
 32 33  1  0
 33 34  2  0
 34 35  1  0
 35 39  1  0
 36 35  2  0
 37 36  1  0
 38 37  1  0
 40 41  1  0
 41 44  1  0
 41 43  1  0
 42 40  2  0
 45 46  1  0
 45 20  1  0
 47 45  1  0
 48  1  1  0
 48 51  1  0
 49 48  1  0
 50 49  1  0
 52 54  1  0
 52 51  1  0
 53 64  2  0
 54 59  1  0
 55 63  1  0
 55 65  1  0
 56 62  1  0
 56 58  1  0
 57 63  1  0
 58 59  2  0
 58 57  1  0
 60 54  2  0
 61 60  1  0
 61 56  2  0
 62 55  1  0
 63 53  1  0
 65 67  2  0
 66 65  1  0
 68 66  1  0
 69 78  2  0
 69 74  1  0
 70 66  1  0
 70 74  1  0
 71 70  1  0
 72 73  1  0
 72 71  1  0
 73 69  1  0
 74 75  2  0
 75 76  1  0
 77 76  2  0
 78 77  1  0
 79 53  1  0
 79 80  1  0
 79 89  1  0
 80 83  1  0
 81 85  1  0
 81 80  1  0
 82 81  2  0
 85 84  1  0
 87 85  1  0
 87 88  1  0
 87 86  1  0
 89 92  1  1
 89 90  1  0
 91 89  1  0
M  ISO  4  10 100  18 100  51 101  52 101
M  END
>  <TORSDO>  (49) 
F 21

>  <SCORE>  (49) 
-12.665

>  <name>  (49) 
48

>  <ligand_id>  (49) 
48

>  <original_smiles>  (49) 
[H]OC([H])(C([H])([H])Oc1c([H])c([H])c2c(c1[H])C([H])([H])N(C(=O)C([H])(N([H])C(=O)C([H])(N([H])C([H])([H])[H])C([H])([H])[H])C(C([H])([H])[H])(C([H])([H])[H])C([H])([H])[H])C([H])(C(=O)N([H])C1([H])c3c([H])c([H])c([H])c([H])c3C([H])([H])C([H])([H])C1([H])[H])C2([H])[H])C([H])([H])N([H])c1nnc(C([H])([H])N([H])C(=O)N2C([H])([H])C([H])([H])C([H])([H])C([H])(n3nc(-c4c([H])c([H])c(Oc5c([H])c([H])c(F)c([H])c5F)c([H])c4[H])c(C(=O)N([H])[H])c3N([H])[H])C2([H])[H])s1

>  <smiles>  (49) 
[H]OC([H])(C([H])([H])Oc1c([H])c([H])c2c(c1[H])C([H])([H])N(C(=O)C([H])(N([H])C(=O)C([H])(N([H])C([H])([H])[H])C([H])([H])[H])C(C([H])([H])[H])(C([H])([H])[H])C([H])([H])[H])C([H])(C(=O)N([H])C1([H])c3c([H])c([H])c([H])c([H])c3C([H])([H])C([H])([H])C1([H])[H])C2([H])[H])C([H])([H])N([H])c1nnc(C([H])([H])N([H])C(=O)N2C([H])([H])C([H])([H])C([H])([H])C([H])(n3nc(-c4c([H])c([H])c(Oc5c([H])c([H])c(F)c([H])c5F)c([H])c4[H])c(C(=O)N([H])[H])c3N([H])[H])C2([H])[H])s1

$$$$
49:0:0
     RDKit          3D

 91 99  0  0  1  0  0  0  0  0999 V2000
  -30.5590  -14.8400   20.4320 C   0  0  0  0  0  0  0  0  0  0  0  0
  -30.4030  -12.5350   19.4500 C   0  0  0  0  0  2  0  0  0  0  0  0
  -29.4870  -12.6010   18.2060 C   0  0  0  0  0  2  0  0  0  0  0  0
  -28.0090  -12.4240   18.6070 C   0  0  0  0  0  2  0  0  0  0  0  0
  -27.6160  -13.3080   19.8220 C   0  0  0  0  0  3  0  0  0  0  0  0
  -28.6560  -13.2200   20.9620 C   0  0  0  0  0  2  0  0  0  0  0  0
  -29.9600  -13.5920   20.3970 N   0  0  0  0  0  0  0  0  0  0  0  0
  -31.7340  -14.9360   20.0550 O   0  0  0  0  0  0  0  0  0  0  0  0
  -29.7920  -17.3720   20.2990 C   0  0  0  0  0  0  0  0  0  0  0  0
  -29.3450  -19.5070   20.0530 C   0  0  0  0  0  3  0  0  0  0  0  0
  -29.7830  -19.5760   17.5580 C   0  0  0  0  0  1  0  0  0  0  0  0
  -29.3900  -18.5270   21.0120 N   0  0  0  0  0  0  0  0  0  0  0  0
  -30.0030  -17.6280   19.0070 N   0  0  0  0  0  2  0  0  0  0  0  0
  -29.6970  -18.9610   18.8690 N   0  0  0  0  0  0  0  0  0  0  0  0
  -29.8080  -15.9620   20.8020 N   0  0  0  0  0  0  0  0  0  0  0  0
  -28.9580  -20.9260   20.0760 N   0  0  0  0  0  0  0  0  0  0  0  0
  -29.0000  -15.7310   21.3570 H   0  0  0  0  0  0  0  0  0  0  0  0
  -28.7470  -21.1740   19.1150 H   0  0  0  0  0  0  0  0  0  0  0  0
  -25.2170  -13.8970   20.5040 C   0  0  0  0  0  0  0  0  0  0  0  0
  -24.1470  -13.1250   20.8640 C   0  0  0  0  0  0  0  0  0  0  0  0
  -24.6130  -11.7740   20.8530 C   0  0  0  0  0  0  0  0  0  0  0  0
  -26.2660  -13.0180   20.2920 N   0  0  0  0  0  0  0  0  0  0  0  0
  -25.9090  -11.7350   20.5650 N   0  0  0  0  0  0  0  0  0  0  0  0
  -23.8840  -10.5120   21.0440 C   0  0  0  0  0  0  0  0  0  0  0  0
  -24.3120   -9.5460   21.9820 C   0  0  0  0  0  3  0  0  0  0  0  0
  -23.5830   -8.3510   22.1600 C   0  0  0  0  0  3  0  0  0  0  0  0
  -22.4130   -8.1130   21.4010 C   0  0  0  0  0  0  0  0  0  0  0  0
  -22.0040   -9.0680   20.4520 C   0  0  0  0  0  3  0  0  0  0  0  0
  -22.7350  -10.2540   20.2710 C   0  0  0  0  0  3  0  0  0  0  0  0
  -21.6550   -6.9710   21.4880 O   0  0  0  0  0  0  0  0  0  0  0  0
  -21.6040   -6.2270   22.6400 C   0  0  0  0  0  0  0  0  0  0  0  0
  -21.1880   -6.7840   23.8700 C   0  0  0  0  0  3  0  0  0  0  0  0
  -21.0840   -5.9670   25.0130 C   0  0  0  0  0  3  0  0  0  0  0  0
  -21.3870   -4.5950   24.9290 C   0  0  0  0  0  0  0  0  0  0  0  0
  -21.7970   -4.0380   23.7050 C   0  0  0  0  0  3  0  0  0  0  0  0
  -21.9030   -4.8510   22.5640 C   0  0  0  0  0  0  0  0  0  0  0  0
  -22.2780   -4.3050   21.3820 F   0  0  0  0  0  0  0  0  0  0  0  0
  -21.2790   -3.8090   26.0250 F   0  0  0  0  0  0  0  0  0  0  0  0
  -22.7450  -13.6030   21.1060 C   0  0  0  0  0  0  0  0  0  0  0  0
  -22.0040  -12.9170   21.9690 N   0  0  0  0  0  0  0  0  0  0  0  0
  -22.3160  -14.6230   20.5680 O   0  0  0  0  0  0  0  0  0  0  0  0
  -22.3630  -12.0940   22.4280 H   0  0  0  0  0  0  0  0  0  0  0  0
  -21.0620  -13.2210   22.1730 H   0  0  0  0  0  0  0  0  0  0  0  0
  -25.3810  -15.2660   20.3170 N   0  0  0  0  0  0  0  0  0  0  0  0
  -24.6080  -15.9170   20.4080 H   0  0  0  0  0  0  0  0  0  0  0  0
  -26.2250  -15.7050   19.9710 H   0  0  0  0  0  0  0  0  0  0  0  0
  -30.6910  -22.6220   20.7060 C   0  0  0  0  0  1  0  0  0  0  0  0
  -29.2130  -22.2310   20.8280 C   0  0  0  0  0  3  0  0  0  0  0  0
  -28.2350  -23.5690   20.7090 C   0  0  0  0  0  2  0  0  0  0  0  0
  -28.5160  -24.9640   19.8780 C   0  0  0  0  0  2  0  0  0  0  0  0
  -28.3820  -26.3880   20.4050 O   0  0  0  0  0  0  0  0  0  0  0  0
  -24.6140  -31.9120   23.2450 C   0  0  0  0  0  0  0  0  0  0  0  0
  -27.2640  -27.2550   20.2810 C   0  0  0  0  0  0  0  0  0  0  0  0
  -23.4340  -30.4940   21.6050 C   0  0  0  0  0  3  0  0  0  0  0  0
  -24.9040  -28.9170   20.2090 C   0  0  0  0  0  0  0  0  0  0  0  0
  -25.9790  -30.7940   21.4550 C   0  0  0  0  0  2  0  0  0  0  0  0
  -26.0670  -29.4030   20.8200 C   0  0  0  0  0  0  0  0  0  0  0  0
  -27.2430  -28.5840   20.8430 C   0  0  0  0  0  3  0  0  0  0  0  0
  -26.0770  -26.8390   19.6400 C   0  0  0  0  0  3  0  0  0  0  0  0
  -24.9180  -27.6460   19.6080 C   0  0  0  0  0  3  0  0  0  0  0  0
  -23.6690  -29.8010   20.2350 C   0  0  0  0  0  2  0  0  0  0  0  0
  -24.6950  -31.0880   22.1580 N   0  0  0  0  0  0  0  0  0  0  0  0
  -23.5230  -32.1950   23.7620 O   0  0  0  0  0  0  0  0  0  0  0  0
  -22.7580  -29.4910   22.5720 C   0  0  0  0  0  0  0  0  0  0  0  0
  -21.4320  -29.3140   22.4360 N   0  0  0  0  0  0  0  0  0  0  0  0
  -23.4270  -28.8750   23.4050 O   0  0  0  0  0  0  0  0  0  0  0  0
  -20.9500  -29.8600   21.7350 H   0  0  0  0  0  0  0  0  0  0  0  0
  -18.0520  -28.1140   22.9170 C   0  0  0  0  0  0  0  0  0  0  0  0
  -20.6060  -28.3850   23.2090 C   0  0  0  0  0  3  0  0  0  0  0  0
  -20.7180  -26.9470   22.6500 C   0  0  0  0  0  2  0  0  0  0  0  0
  -19.6270  -26.6110   21.6280 C   0  0  0  0  0  2  0  0  0  0  0  0
  -18.2380  -26.7590   22.2560 C   0  0  0  0  0  2  0  0  0  0  0  0
  -19.1640  -28.8830   23.3500 C   0  0  0  0  0  0  0  0  0  0  0  0
  -18.9350  -30.1510   23.9290 C   0  0  0  0  0  3  0  0  0  0  0  0
  -17.6270  -30.6500   24.0770 C   0  0  0  0  0  3  0  0  0  0  0  0
  -16.5290  -29.8780   23.6600 C   0  0  0  0  0  3  0  0  0  0  0  0
  -16.7420  -28.6120   23.0850 C   0  0  0  0  0  3  0  0  0  0  0  0
  -25.8860  -32.5580   23.8780 C   0  0  0  0  0  3  0  0  0  0  0  0
  -25.5650  -33.9570   24.1950 N   0  0  0  0  0  0  0  0  0  0  0  0
  -25.9000  -35.0090   23.4360 C   0  0  0  0  0  0  0  0  0  0  0  0
  -26.5790  -34.9040   22.4110 O   0  0  0  0  0  0  0  0  0  0  0  0
  -24.9610  -34.1130   24.9880 H   0  0  0  0  0  0  0  0  0  0  0  0
  -24.1680  -36.7970   23.0600 C   0  0  0  0  0  1  0  0  0  0  0  0
  -25.4040  -36.3990   23.8830 C   0  0  0  0  0  3  0  0  0  0  0  0
  -27.5290  -37.2970   24.7260 C   0  0  0  0  0  1  0  0  0  0  0  0
  -26.4340  -37.4560   23.7730 N   0  0  0  0  0  0  0  0  0  0  0  0
  -26.0230  -38.3750   23.9130 H   0  0  0  0  0  0  0  0  0  0  0  0
  -26.3890  -31.8020   25.1690 C   0  0  1  0  0  0  0  0  0  0  0  0
  -25.2840  -31.5740   26.2260 C   0  0  0  0  0  1  0  0  0  0  0  0
  -26.9800  -30.4210   24.8010 C   0  0  0  0  0  1  0  0  0  0  0  0
  -27.5300  -32.6060   25.8350 C   0  0  0  0  0  1  0  0  0  0  0  0
  1 15  1  0
  2  7  1  0
  3  4  1  0
  3  2  1  0
  5  4  1  0
  5 22  1  0
  5  6  1  0
  7  1  1  0
  7  6  1  0
  8  1  2  0
  9 15  1  0
  9 12  2  0
 10 16  1  0
 10 12  1  0
 11 14  1  0
 13  9  1  0
 14 13  1  0
 14 10  1  0
 15 17  1  0
 16 48  1  0
 18 16  1  0
 19 20  2  0
 20 39  1  0
 21 20  1  0
 21 24  1  0
 22 19  1  0
 22 23  1  0
 23 21  2  0
 24 25  1  0
 25 26  2  0
 27 30  1  0
 27 26  1  0
 28 27  2  0
 29 28  1  0
 29 24  2  0
 30 31  1  0
 31 32  1  0
 32 33  2  0
 34 33  1  0
 34 38  1  0
 35 34  2  0
 36 31  2  0
 36 35  1  0
 37 36  1  0
 39 40  1  0
 40 43  1  0
 40 42  1  0
 41 39  2  0
 44 45  1  0
 44 19  1  0
 46 44  1  0
 48 47  1  0
 49 48  1  0
 50 51  1  0
 50 49  1  0
 52 63  2  0
 53 51  1  0
 53 58  1  0
 54 62  1  0
 54 64  1  0
 55 61  1  0
 55 57  1  0
 56 62  1  0
 57 58  2  0
 57 56  1  0
 59 53  2  0
 60 59  1  0
 60 55  2  0
 61 54  1  0
 62 52  1  0
 64 66  2  0
 65 64  1  0
 67 65  1  0
 68 77  2  0
 68 73  1  0
 69 65  1  0
 69 73  1  0
 70 69  1  0
 71 72  1  0
 71 70  1  0
 72 68  1  0
 73 74  2  0
 74 75  1  0
 76 75  2  0
 77 76  1  0
 78 52  1  0
 78 79  1  0
 78 88  1  0
 79 82  1  0
 80 84  1  0
 80 79  1  0
 81 80  2  0
 84 83  1  0
 86 84  1  0
 86 87  1  0
 86 85  1  0
 88 91  1  1
 88 89  1  0
 90 88  1  0
M  ISO  4   1 100  15 100  50 101  51 101
M  END
>  <TORSDO>  (50) 
F 18

>  <SCORE>  (50) 
-14.646

>  <name>  (50) 
49

>  <ligand_id>  (50) 
49

>  <original_smiles>  (50) 
[H]c1c([H])c([H])c2c(c1[H])C([H])([H])C([H])([H])C([H])([H])C2([H])N([H])C(=O)C1([H])N(C(=O)C([H])(N([H])C(=O)C([H])(N([H])C([H])([H])[H])C([H])([H])[H])C(C([H])([H])[H])(C([H])([H])[H])C([H])([H])[H])C([H])([H])c2c([H])c(OC([H])([H])C([H])([H])C([H])(N([H])c3nc(N([H])C(=O)N4C([H])([H])C([H])([H])C([H])([H])C([H])(n5nc(-c6c([H])c([H])c(Oc7c([H])c([H])c(F)c([H])c7F)c([H])c6[H])c(C(=O)N([H])[H])c5N([H])[H])C4([H])[H])nn3C([H])([H])[H])C([H])([H])[H])c([H])c([H])c2C1([H])[H]

>  <smiles>  (50) 
[H]c1c([H])c([H])c2c(c1[H])C([H])([H])C([H])([H])C([H])([H])C2([H])N([H])C(=O)C1([H])N(C(=O)C([H])(N([H])C(=O)C([H])(N([H])C([H])([H])[H])C([H])([H])[H])C(C([H])([H])[H])(C([H])([H])[H])C([H])([H])[H])C([H])([H])c2c([H])c(OC([H])([H])C([H])([H])C([H])(N([H])c3nc(N([H])C(=O)N4C([H])([H])C([H])([H])C([H])([H])C([H])(n5nc(-c6c([H])c([H])c(Oc7c([H])c([H])c(F)c([H])c7F)c([H])c6[H])c(C(=O)N([H])[H])c5N([H])[H])C4([H])[H])nn3C([H])([H])[H])C([H])([H])[H])c([H])c([H])c2C1([H])[H]

$$$$
50:0:0
     RDKit          3D

 93101  0  0  1  0  0  0  0  0999 V2000
  -28.3880  -21.6010   20.4630 N   0  0  0  0  0  0  0  0  0  0  0  0
  -27.8010  -21.2080   21.1950 H   0  0  0  0  0  0  0  0  0  0  0  0
  -29.2720  -20.4770   18.4430 C   0  0  0  0  0  3  0  0  0  0  0  0
  -29.7300  -19.4400   20.4850 C   0  0  0  0  0  0  0  0  0  0  0  0
  -29.1230  -20.5690   19.8010 C   0  0  0  0  0  0  0  0  0  0  0  0
  -30.3120  -18.5070   19.6270 C   0  0  0  0  0  0  0  0  0  0  0  0
  -29.7750  -19.3030   21.9800 C   0  0  0  0  0  1  0  0  0  0  0  0
  -30.1120  -19.0180   17.9700 S   0  0  0  0  0  0  0  0  0  0  0  0
  -31.1970  -17.2920   19.9430 C   0  0  0  0  0  2  0  0  0  0  0  0
  -31.3340  -14.7900   19.4610 C   0  0  0  0  0  0  0  0  0  0  0  0
  -31.0050  -12.4370   18.7430 C   0  0  0  0  0  2  0  0  0  0  0  0
  -29.9680  -12.3770   17.6030 C   0  0  0  0  0  2  0  0  0  0  0  0
  -28.5390  -12.2980   18.1720 C   0  0  0  0  0  2  0  0  0  0  0  0
  -28.2720  -13.3580   19.2750 C   0  0  0  0  0  3  0  0  0  0  0  0
  -29.4140  -13.3840   20.3140 C   0  0  0  0  0  2  0  0  0  0  0  0
  -30.6720  -13.6020   19.5840 N   0  0  0  0  0  0  0  0  0  0  0  0
  -32.4590  -14.8550   18.9580 O   0  0  0  0  0  0  0  0  0  0  0  0
  -30.6450  -15.9180   19.7850 N   0  0  0  0  0  0  0  0  0  0  0  0
  -29.6970  -15.7800   20.0990 H   0  0  0  0  0  0  0  0  0  0  0  0
  -26.0490  -14.1130   20.3190 C   0  0  0  0  0  0  0  0  0  0  0  0
  -24.9620  -13.4110   20.7660 C   0  0  0  0  0  0  0  0  0  0  0  0
  -25.2840  -12.0310   20.5930 C   0  0  0  0  0  0  0  0  0  0  0  0
  -26.9690  -13.1640   19.9030 N   0  0  0  0  0  0  0  0  0  0  0  0
  -26.5200  -11.9020   20.1290 N   0  0  0  0  0  0  0  0  0  0  0  0
  -24.4660  -10.8270   20.7890 C   0  0  0  0  0  0  0  0  0  0  0  0
  -24.8210   -9.8390   21.7330 C   0  0  0  0  0  3  0  0  0  0  0  0
  -24.0080   -8.7000   21.9160 C   0  0  0  0  0  3  0  0  0  0  0  0
  -22.8250   -8.5430   21.1550 C   0  0  0  0  0  0  0  0  0  0  0  0
  -22.4900   -9.5190   20.2010 C   0  0  0  0  0  3  0  0  0  0  0  0
  -23.3040  -10.6490   20.0160 C   0  0  0  0  0  3  0  0  0  0  0  0
  -21.9880   -7.4570   21.2460 O   0  0  0  0  0  0  0  0  0  0  0  0
  -21.7570   -6.8240   22.4420 C   0  0  0  0  0  0  0  0  0  0  0  0
  -21.1950   -7.5000   23.5460 C   0  0  0  0  0  3  0  0  0  0  0  0
  -20.9120   -6.7960   24.7340 C   0  0  0  0  0  3  0  0  0  0  0  0
  -21.1780   -5.4160   24.8150 C   0  0  0  0  0  0  0  0  0  0  0  0
  -21.7340   -4.7400   23.7140 C   0  0  0  0  0  3  0  0  0  0  0  0
  -22.0200   -5.4410   22.5300 C   0  0  0  0  0  0  0  0  0  0  0  0
  -22.5350   -4.7810   21.4650 F   0  0  0  0  0  0  0  0  0  0  0  0
  -20.9000   -4.7370   25.9530 F   0  0  0  0  0  0  0  0  0  0  0  0
  -23.6580  -13.9900   21.2360 C   0  0  0  0  0  0  0  0  0  0  0  0
  -22.9850  -13.3120   22.1580 N   0  0  0  0  0  0  0  0  0  0  0  0
  -23.2520  -15.0740   20.8190 O   0  0  0  0  0  0  0  0  0  0  0  0
  -23.3280  -12.4320   22.5140 H   0  0  0  0  0  0  0  0  0  0  0  0
  -22.1120  -13.6770   22.5140 H   0  0  0  0  0  0  0  0  0  0  0  0
  -26.3220  -15.4750   20.2100 N   0  0  0  0  0  0  0  0  0  0  0  0
  -25.6310  -16.1780   20.4530 H   0  0  0  0  0  0  0  0  0  0  0  0
  -27.1590  -15.8660   19.7970 H   0  0  0  0  0  0  0  0  0  0  0  0
  -28.9530  -22.8900   20.9270 C   0  0  0  0  0  2  0  0  0  0  0  0
  -28.3470  -24.1540   20.2210 C   0  0  0  0  0  3  0  0  0  0  0  0
  -28.8630  -23.9860   18.9210 O   0  0  0  0  0  0  0  0  0  0  0  0
  -28.8460  -23.0370   18.8110 H   0  0  0  0  0  0  0  0  0  0  0  0
  -28.7840  -25.5350   20.8370 C   0  0  0  0  0  2  0  0  0  0  0  0
  -28.5810  -26.7390   20.0500 O   0  0  0  0  0  0  0  0  0  0  0  0
  -24.5480  -31.7510   23.2400 C   0  0  0  0  0  0  0  0  0  0  0  0
  -27.3820  -27.4230   20.1380 C   0  0  0  0  0  0  0  0  0  0  0  0
  -23.4110  -30.3410   21.5570 C   0  0  0  0  0  3  0  0  0  0  0  0
  -24.9370  -28.8660   20.1340 C   0  0  0  0  0  0  0  0  0  0  0  0
  -25.9280  -30.7800   21.3970 C   0  0  0  0  0  2  0  0  0  0  0  0
  -26.0700  -29.4170   20.7480 C   0  0  0  0  0  0  0  0  0  0  0  0
  -27.2980  -28.7030   20.7410 C   0  0  0  0  0  3  0  0  0  0  0  0
  -26.2320  -26.8920   19.5230 C   0  0  0  0  0  3  0  0  0  0  0  0
  -25.0140  -27.6030   19.5180 C   0  0  0  0  0  3  0  0  0  0  0  0
  -23.6650  -29.6870   20.1710 C   0  0  0  0  0  2  0  0  0  0  0  0
  -24.6480  -30.9730   22.1250 N   0  0  0  0  0  0  0  0  0  0  0  0
  -23.4510  -31.9770   23.7700 O   0  0  0  0  0  0  0  0  0  0  0  0
  -22.7800  -29.2830   22.4890 C   0  0  0  0  0  0  0  0  0  0  0  0
  -21.4670  -29.0470   22.3300 N   0  0  0  0  0  0  0  0  0  0  0  0
  -23.4720  -28.6750   23.3110 O   0  0  0  0  0  0  0  0  0  0  0  0
  -20.9690  -29.5940   21.6410 H   0  0  0  0  0  0  0  0  0  0  0  0
  -18.1380  -27.7010   22.7340 C   0  0  0  0  0  0  0  0  0  0  0  0
  -20.6750  -28.0640   23.0680 C   0  0  0  0  0  3  0  0  0  0  0  0
  -20.8520  -26.6470   22.4740 C   0  0  0  0  0  2  0  0  0  0  0  0
  -19.7880  -26.2940   21.4310 C   0  0  0  0  0  2  0  0  0  0  0  0
  -18.3870  -26.3690   22.0430 C   0  0  0  0  0  2  0  0  0  0  0  0
  -19.2130  -28.5030   23.1990 C   0  0  0  0  0  0  0  0  0  0  0  0
  -18.9260  -29.7490   23.8000 C   0  0  0  0  0  3  0  0  0  0  0  0
  -17.5980  -30.1920   23.9420 C   0  0  0  0  0  3  0  0  0  0  0  0
  -16.5370  -29.3860   23.4940 C   0  0  0  0  0  3  0  0  0  0  0  0
  -16.8080  -28.1420   22.8980 C   0  0  0  0  0  3  0  0  0  0  0  0
  -25.8020  -32.4120   23.8910 C   0  0  0  0  0  3  0  0  0  0  0  0
  -25.4500  -33.8000   24.2190 N   0  0  0  0  0  0  0  0  0  0  0  0
  -25.7660  -34.8640   23.4680 C   0  0  0  0  0  0  0  0  0  0  0  0
  -26.4570  -34.7830   22.4470 O   0  0  0  0  0  0  0  0  0  0  0  0
  -24.8350  -33.9350   25.0090 H   0  0  0  0  0  0  0  0  0  0  0  0
  -23.9970  -36.6140   23.0840 C   0  0  0  0  0  1  0  0  0  0  0  0
  -25.2310  -36.2380   23.9190 C   0  0  0  0  0  3  0  0  0  0  0  0
  -27.3200  -37.1810   24.8030 C   0  0  0  0  0  1  0  0  0  0  0  0
  -26.2370  -37.3200   23.8340 N   0  0  0  0  0  0  0  0  0  0  0  0
  -25.8020  -38.2280   23.9720 H   0  0  0  0  0  0  0  0  0  0  0  0
  -26.3170  -31.6480   25.1710 C   0  0  1  0  0  0  0  0  0  0  0  0
  -25.2100  -31.3600   26.2120 C   0  0  0  0  0  1  0  0  0  0  0  0
  -26.9550  -30.2940   24.7780 C   0  0  0  0  0  1  0  0  0  0  0  0
  -27.4280  -32.4740   25.8630 C   0  0  0  0  0  1  0  0  0  0  0  0
  1 48  1  0
  1  2  1  0
  3  5  2  0
  4  7  1  0
  5  1  1  0
  5  4  1  0
  6  9  1  0
  6  4  2  0
  8  3  1  0
  8  6  1  0
 10 16  1  0
 10 18  1  0
 11 16  1  0
 12 13  1  0
 12 11  1  0
 14 13  1  0
 14 23  1  0
 14 15  1  0
 16 15  1  0
 17 10  2  0
 18  9  1  0
 18 19  1  0
 20 21  2  0
 21 40  1  0
 22 21  1  0
 22 25  1  0
 23 24  1  0
 23 20  1  0
 24 22  2  0
 25 26  1  0
 26 27  2  0
 28 31  1  0
 28 27  1  0
 29 28  2  0
 30 29  1  0
 30 25  2  0
 31 32  1  0
 32 37  2  0
 32 33  1  0
 33 34  2  0
 34 35  1  0
 35 39  1  0
 36 35  2  0
 37 36  1  0
 38 37  1  0
 40 41  1  0
 41 43  1  0
 41 44  1  0
 42 40  2  0
 45 20  1  0
 45 46  1  0
 47 45  1  0
 49 52  1  0
 49 48  1  0
 50 49  1  0
 51 50  1  0
 53 55  1  0
 53 52  1  0
 54 65  2  0
 55 60  1  0
 56 64  1  0
 56 66  1  0
 57 63  1  0
 57 59  1  0
 58 64  1  0
 59 58  1  0
 60 59  2  0
 61 55  2  0
 62 61  1  0
 62 57  2  0
 63 56  1  0
 64 54  1  0
 66 68  2  0
 67 66  1  0
 69 67  1  0
 70 79  2  0
 70 75  1  0
 71 67  1  0
 71 75  1  0
 72 71  1  0
 73 74  1  0
 73 72  1  0
 74 70  1  0
 75 76  2  0
 76 77  1  0
 78 77  2  0
 79 78  1  0
 80 54  1  0
 80 81  1  0
 80 90  1  0
 81 84  1  0
 82 86  1  0
 82 81  1  0
 83 82  2  0
 86 85  1  0
 88 86  1  0
 88 89  1  0
 88 87  1  0
 90 93  1  1
 90 91  1  0
 92 90  1  0
M  ISO  4  10 100  18 100  52 101  53 101
M  END
>  <TORSDO>  (51) 
F 22

>  <SCORE>  (51) 
-11.585

>  <name>  (51) 
50

>  <ligand_id>  (51) 
50

>  <original_smiles>  (51) 
[H]OC([H])(C([H])([H])Oc1c([H])c([H])c2c(c1[H])C([H])([H])N(C(=O)C([H])(N([H])C(=O)C([H])(N([H])C([H])([H])[H])C([H])([H])[H])C(C([H])([H])[H])(C([H])([H])[H])C([H])([H])[H])C([H])(C(=O)N([H])C1([H])c3c([H])c([H])c([H])c([H])c3C([H])([H])C([H])([H])C1([H])[H])C2([H])[H])C([H])([H])N([H])c1c([H])sc(C([H])([H])N([H])C(=O)N2C([H])([H])C([H])([H])C([H])([H])C([H])(n3nc(-c4c([H])c([H])c(Oc5c([H])c([H])c(F)c([H])c5F)c([H])c4[H])c(C(=O)N([H])[H])c3N([H])[H])C2([H])[H])c1C([H])([H])[H]

>  <smiles>  (51) 
[H]OC([H])(C([H])([H])Oc1c([H])c([H])c2c(c1[H])C([H])([H])N(C(=O)C([H])(N([H])C(=O)C([H])(N([H])C([H])([H])[H])C([H])([H])[H])C(C([H])([H])[H])(C([H])([H])[H])C([H])([H])[H])C([H])(C(=O)N([H])C1([H])c3c([H])c([H])c([H])c([H])c3C([H])([H])C([H])([H])C1([H])[H])C2([H])[H])C([H])([H])N([H])c1c([H])sc(C([H])([H])N([H])C(=O)N2C([H])([H])C([H])([H])C([H])([H])C([H])(n3nc(-c4c([H])c([H])c(Oc5c([H])c([H])c(F)c([H])c5F)c([H])c4[H])c(C(=O)N([H])[H])c3N([H])[H])C2([H])[H])c1C([H])([H])[H]

$$$$
51:0:0
     RDKit          3D

 93101  0  0  1  0  0  0  0  0999 V2000
  -28.8080  -19.0310   20.5440 C   0  0  0  0  0  3  0  0  0  0  0  0
  -31.1220  -19.4410   21.7980 C   0  0  0  0  0  3  0  0  0  0  0  0
  -29.5830  -17.9450   21.0230 C   0  0  0  0  0  0  0  0  0  0  0  0
  -29.2870  -20.3390   20.7730 C   0  0  0  0  0  0  0  0  0  0  0  0
  -30.7580  -18.1710   21.6310 N   0  0  0  0  0  0  0  0  0  0  0  0
  -30.4500  -20.5240   21.4120 N   0  0  0  0  0  0  0  0  0  0  0  0
  -28.6120  -21.4900   20.3030 N   0  0  0  0  0  0  0  0  0  0  0  0
  -27.7330  -21.2830   19.8400 H   0  0  0  0  0  0  0  0  0  0  0  0
  -29.1790  -16.4630   20.8900 C   0  0  0  0  0  2  0  0  0  0  0  0
  -30.7320  -14.5820   20.1000 C   0  0  0  0  0  0  0  0  0  0  0  0
  -30.3510  -12.4200   18.9810 C   0  0  0  0  0  2  0  0  0  0  0  0
  -29.3640  -12.6220   17.8150 C   0  0  0  0  0  2  0  0  0  0  0  0
  -27.9130  -12.4760   18.3130 C   0  0  0  0  0  2  0  0  0  0  0  0
  -27.6270  -13.3100   19.5900 C   0  0  0  0  0  3  0  0  0  0  0  0
  -28.7360  -13.1250   20.6510 C   0  0  0  0  0  2  0  0  0  0  0  0
  -30.0150  -13.4270   20.0020 N   0  0  0  0  0  0  0  0  0  0  0  0
  -31.9120  -14.6390   19.7620 O   0  0  0  0  0  0  0  0  0  0  0  0
  -30.0480  -15.7340   19.9600 N   0  0  0  0  0  0  0  0  0  0  0  0
  -30.6400  -16.4100   19.5010 H   0  0  0  0  0  0  0  0  0  0  0  0
  -25.2690  -13.9080   20.4130 C   0  0  0  0  0  0  0  0  0  0  0  0
  -24.2180  -13.1340   20.8220 C   0  0  0  0  0  0  0  0  0  0  0  0
  -24.6740  -11.7820   20.7600 C   0  0  0  0  0  0  0  0  0  0  0  0
  -26.3010  -13.0270   20.1300 N   0  0  0  0  0  0  0  0  0  0  0  0
  -25.9510  -11.7430   20.3990 N   0  0  0  0  0  0  0  0  0  0  0  0
  -23.9520  -10.5190   20.9650 C   0  0  0  0  0  0  0  0  0  0  0  0
  -24.4050   -9.5520   21.8880 C   0  0  0  0  0  3  0  0  0  0  0  0
  -23.6840   -8.3540   22.0800 C   0  0  0  0  0  3  0  0  0  0  0  0
  -22.4950   -8.1160   21.3500 C   0  0  0  0  0  0  0  0  0  0  0  0
  -22.0620   -9.0730   20.4150 C   0  0  0  0  0  3  0  0  0  0  0  0
  -22.7840  -10.2620   20.2200 C   0  0  0  0  0  3  0  0  0  0  0  0
  -21.7430   -6.9710   21.4550 O   0  0  0  0  0  0  0  0  0  0  0  0
  -21.7030   -6.2390   22.6150 C   0  0  0  0  0  0  0  0  0  0  0  0
  -21.2730   -6.8030   23.8360 C   0  0  0  0  0  3  0  0  0  0  0  0
  -21.1800   -5.9970   24.9880 C   0  0  0  0  0  3  0  0  0  0  0  0
  -21.5070   -4.6300   24.9230 C   0  0  0  0  0  0  0  0  0  0  0  0
  -21.9290   -4.0650   23.7060 C   0  0  0  0  0  3  0  0  0  0  0  0
  -22.0240   -4.8680   22.5540 C   0  0  0  0  0  0  0  0  0  0  0  0
  -22.4110   -4.3150   21.3810 F   0  0  0  0  0  0  0  0  0  0  0  0
  -21.4100   -3.8540   26.0270 F   0  0  0  0  0  0  0  0  0  0  0  0
  -22.8330  -13.6120   21.1530 C   0  0  0  0  0  0  0  0  0  0  0  0
  -22.1370  -12.9070   22.0380 N   0  0  0  0  0  0  0  0  0  0  0  0
  -22.3790  -14.6440   20.6610 O   0  0  0  0  0  0  0  0  0  0  0  0
  -22.5160  -12.0700   22.4540 H   0  0  0  0  0  0  0  0  0  0  0  0
  -21.2090  -13.2080   22.3010 H   0  0  0  0  0  0  0  0  0  0  0  0
  -25.4260  -15.2790   20.2330 N   0  0  0  0  0  0  0  0  0  0  0  0
  -24.6530  -15.9260   20.3480 H   0  0  0  0  0  0  0  0  0  0  0  0
  -26.2260  -15.6980   19.7800 H   0  0  0  0  0  0  0  0  0  0  0  0
  -28.6100  -22.7590   21.0720 C   0  0  0  0  0  2  0  0  0  0  0  0
  -28.5180  -24.0500   20.1820 C   0  0  0  0  0  3  0  0  0  0  0  0
  -29.7200  -23.9690   19.4440 O   0  0  0  0  0  0  0  0  0  0  0  0
  -29.8400  -23.0340   19.2920 H   0  0  0  0  0  0  0  0  0  0  0  0
  -28.4550  -25.4060   20.9790 C   0  0  0  0  0  2  0  0  0  0  0  0
  -28.4560  -26.6460   20.2120 O   0  0  0  0  0  0  0  0  0  0  0  0
  -24.6030  -31.8940   23.2230 C   0  0  0  0  0  0  0  0  0  0  0  0
  -27.3000  -27.4070   20.2220 C   0  0  0  0  0  0  0  0  0  0  0  0
  -23.4270  -30.4800   21.5710 C   0  0  0  0  0  3  0  0  0  0  0  0
  -24.9080  -28.9330   20.1780 C   0  0  0  0  0  0  0  0  0  0  0  0
  -25.9560  -30.8400   21.4070 C   0  0  0  0  0  2  0  0  0  0  0  0
  -26.0580  -29.4610   20.7780 C   0  0  0  0  0  0  0  0  0  0  0  0
  -27.2610  -28.7080   20.7890 C   0  0  0  0  0  3  0  0  0  0  0  0
  -26.1330  -26.9020   19.6130 C   0  0  0  0  0  3  0  0  0  0  0  0
  -24.9430  -27.6560   19.5880 C   0  0  0  0  0  3  0  0  0  0  0  0
  -23.6620  -29.7910   20.1990 C   0  0  0  0  0  2  0  0  0  0  0  0
  -24.6790  -31.0890   22.1250 N   0  0  0  0  0  0  0  0  0  0  0  0
  -23.5120  -32.1620   23.7480 O   0  0  0  0  0  0  0  0  0  0  0  0
  -22.7640  -29.4640   22.5300 C   0  0  0  0  0  0  0  0  0  0  0  0
  -21.4400  -29.2820   22.3920 N   0  0  0  0  0  0  0  0  0  0  0  0
  -23.4380  -28.8420   23.3550 O   0  0  0  0  0  0  0  0  0  0  0  0
  -20.9560  -29.8340   21.6980 H   0  0  0  0  0  0  0  0  0  0  0  0
  -18.0610  -28.0880   22.8630 C   0  0  0  0  0  0  0  0  0  0  0  0
  -20.6160  -28.3450   23.1600 C   0  0  0  0  0  3  0  0  0  0  0  0
  -20.7210  -26.9110   22.5920 C   0  0  0  0  0  2  0  0  0  0  0  0
  -19.6330  -26.5930   21.5600 C   0  0  0  0  0  2  0  0  0  0  0  0
  -18.2420  -26.7390   22.1860 C   0  0  0  0  0  2  0  0  0  0  0  0
  -19.1760  -28.8480   23.3060 C   0  0  0  0  0  0  0  0  0  0  0  0
  -18.9530  -30.1120   23.8960 C   0  0  0  0  0  3  0  0  0  0  0  0
  -17.6470  -30.6140   24.0500 C   0  0  0  0  0  3  0  0  0  0  0  0
  -16.5460  -29.8490   23.6260 C   0  0  0  0  0  3  0  0  0  0  0  0
  -16.7550  -28.5880   23.0390 C   0  0  0  0  0  3  0  0  0  0  0  0
  -25.8750  -32.5350   23.8590 C   0  0  0  0  0  3  0  0  0  0  0  0
  -25.5530  -33.9320   24.1830 N   0  0  0  0  0  0  0  0  0  0  0  0
  -25.8870  -34.9850   23.4240 C   0  0  0  0  0  0  0  0  0  0  0  0
  -26.5670  -34.8820   22.4000 O   0  0  0  0  0  0  0  0  0  0  0  0
  -24.9490  -34.0850   24.9770 H   0  0  0  0  0  0  0  0  0  0  0  0
  -24.1520  -36.7660   23.0470 C   0  0  0  0  0  1  0  0  0  0  0  0
  -25.3870  -36.3710   23.8730 C   0  0  0  0  0  3  0  0  0  0  0  0
  -27.5060  -37.2730   24.7250 C   0  0  0  0  0  1  0  0  0  0  0  0
  -26.4150  -37.4300   23.7670 N   0  0  0  0  0  0  0  0  0  0  0  0
  -26.0020  -38.3490   23.9050 H   0  0  0  0  0  0  0  0  0  0  0  0
  -26.3840  -31.7690   25.1410 C   0  0  1  0  0  0  0  0  0  0  0  0
  -25.2820  -31.5220   26.1990 C   0  0  0  0  0  1  0  0  0  0  0  0
  -26.9810  -30.3950   24.7540 C   0  0  0  0  0  1  0  0  0  0  0  0
  -27.5230  -32.5700   25.8140 C   0  0  0  0  0  1  0  0  0  0  0  0
  1  4  2  0
  1  3  1  0
  3  5  2  0
  4  6  1  0
  5  2  1  0
  6  2  2  0
  7  4  1  0
  7 48  1  0
  8  7  1  0
  9  3  1  0
 11 16  1  0
 12 13  1  0
 12 11  1  0
 14 13  1  0
 14 23  1  0
 14 15  1  0
 16 10  1  0
 16 15  1  0
 17 10  2  0
 18 10  1  0
 18  9  1  0
 19 18  1  0
 20 21  2  0
 21 40  1  0
 22 21  1  0
 22 25  1  0
 23 24  1  0
 23 20  1  0
 24 22  2  0
 25 26  1  0
 26 27  2  0
 28 31  1  0
 28 27  1  0
 29 28  2  0
 30 29  1  0
 30 25  2  0
 31 32  1  0
 32 33  1  0
 33 34  2  0
 35 34  1  0
 35 39  1  0
 36 35  2  0
 37 32  2  0
 37 36  1  0
 38 37  1  0
 40 41  1  0
 41 44  1  0
 41 43  1  0
 42 40  2  0
 45 46  1  0
 45 20  1  0
 47 45  1  0
 49 52  1  0
 49 48  1  0
 50 49  1  0
 51 50  1  0
 53 55  1  0
 53 52  1  0
 54 65  2  0
 55 60  1  0
 56 64  1  0
 56 66  1  0
 57 63  1  0
 57 59  1  0
 58 64  1  0
 59 60  2  0
 59 58  1  0
 61 55  2  0
 62 61  1  0
 62 57  2  0
 63 56  1  0
 64 54  1  0
 66 68  2  0
 67 66  1  0
 69 67  1  0
 70 79  2  0
 70 75  1  0
 71 67  1  0
 71 75  1  0
 72 71  1  0
 73 74  1  0
 73 72  1  0
 74 70  1  0
 75 76  2  0
 76 77  1  0
 78 77  2  0
 79 78  1  0
 80 54  1  0
 80 81  1  0
 80 90  1  0
 81 84  1  0
 82 86  1  0
 82 81  1  0
 83 82  2  0
 86 85  1  0
 88 86  1  0
 88 89  1  0
 88 87  1  0
 90 93  1  1
 90 91  1  0
 92 90  1  0
M  ISO  4  10 100  18 100  52 101  53 101
M  END
>  <TORSDO>  (52) 
F 21

>  <SCORE>  (52) 
-13.841

>  <name>  (52) 
51

>  <ligand_id>  (52) 
51

>  <original_smiles>  (52) 
[H]OC([H])(C([H])([H])Oc1c([H])c([H])c2c(c1[H])C([H])([H])N(C(=O)C([H])(N([H])C(=O)C([H])(N([H])C([H])([H])[H])C([H])([H])[H])C(C([H])([H])[H])(C([H])([H])[H])C([H])([H])[H])C([H])(C(=O)N([H])C1([H])c3c([H])c([H])c([H])c([H])c3C([H])([H])C([H])([H])C1([H])[H])C2([H])[H])C([H])([H])N([H])c1nc([H])nc(C([H])([H])N([H])C(=O)N2C([H])([H])C([H])([H])C([H])([H])C([H])(n3nc(-c4c([H])c([H])c(Oc5c([H])c([H])c(F)c([H])c5F)c([H])c4[H])c(C(=O)N([H])[H])c3N([H])[H])C2([H])[H])c1[H]

>  <smiles>  (52) 
[H]OC([H])(C([H])([H])Oc1c([H])c([H])c2c(c1[H])C([H])([H])N(C(=O)C([H])(N([H])C(=O)C([H])(N([H])C([H])([H])[H])C([H])([H])[H])C(C([H])([H])[H])(C([H])([H])[H])C([H])([H])[H])C([H])(C(=O)N([H])C1([H])c3c([H])c([H])c([H])c([H])c3C([H])([H])C([H])([H])C1([H])[H])C2([H])[H])C([H])([H])N([H])c1nc([H])nc(C([H])([H])N([H])C(=O)N2C([H])([H])C([H])([H])C([H])([H])C([H])(n3nc(-c4c([H])c([H])c(Oc5c([H])c([H])c(F)c([H])c5F)c([H])c4[H])c(C(=O)N([H])[H])c3N([H])[H])C2([H])[H])c1[H]

$$$$
52:0:0
     RDKit          3D

 94102  0  0  1  0  0  0  0  0999 V2000
  -30.0400  -18.6200   20.8010 C   0  0  0  0  0  0  0  0  0  0  0  0
  -30.8010  -19.7820   21.1670 C   0  0  0  0  0  3  0  0  0  0  0  0
  -29.0840  -21.1650   20.5180 C   0  0  0  0  0  0  0  0  0  0  0  0
  -28.7910  -18.8340   20.2980 N   0  0  0  0  0  0  0  0  0  0  0  0
  -30.3110  -21.0500   21.0280 N   0  0  0  0  0  0  0  0  0  0  0  0
  -28.3210  -20.1060   20.1580 N   0  0  0  0  0  2  0  0  0  0  0  0
  -28.5310  -22.4500   20.3050 N   0  0  0  0  0  0  0  0  0  0  0  0
  -27.6020  -22.4110   19.9040 H   0  0  0  0  0  0  0  0  0  0  0  0
  -32.9350  -20.8510   21.8940 C   0  0  0  0  0  1  0  0  0  0  0  0
  -32.1080  -19.6680   21.6770 N   0  0  0  0  0  0  0  0  0  0  0  0
  -32.5400  -18.7520   21.7560 H   0  0  0  0  0  0  0  0  0  0  0  0
  -30.6690  -17.1660   20.9060 C   0  0  0  0  0  2  0  0  0  0  0  0
  -30.6150  -14.6750   20.3910 C   0  0  0  0  0  0  0  0  0  0  0  0
  -30.3090  -12.4630   19.2990 C   0  0  0  0  0  2  0  0  0  0  0  0
  -29.3700  -12.5990   18.0830 C   0  0  0  0  0  2  0  0  0  0  0  0
  -27.9020  -12.4370   18.5230 C   0  0  0  0  0  2  0  0  0  0  0  0
  -27.5510  -13.3010   19.7630 C   0  0  0  0  0  3  0  0  0  0  0  0
  -28.6160  -13.1780   20.8740 C   0  0  0  0  0  2  0  0  0  0  0  0
  -29.9150  -13.5000   20.2760 N   0  0  0  0  0  0  0  0  0  0  0  0
  -31.7940  -14.7270   20.0410 O   0  0  0  0  0  0  0  0  0  0  0  0
  -29.9580  -15.8380   20.7240 N   0  0  0  0  0  0  0  0  0  0  0  0
  -28.9720  -15.7940   20.9350 H   0  0  0  0  0  0  0  0  0  0  0  0
  -25.1650  -13.8910   20.5020 C   0  0  0  0  0  0  0  0  0  0  0  0
  -24.1000  -13.1150   20.8720 C   0  0  0  0  0  0  0  0  0  0  0  0
  -24.5630  -11.7630   20.8330 C   0  0  0  0  0  0  0  0  0  0  0  0
  -26.2090  -13.0120   20.2590 N   0  0  0  0  0  0  0  0  0  0  0  0
  -25.8530  -11.7270   20.5210 N   0  0  0  0  0  0  0  0  0  0  0  0
  -23.8380  -10.5000   21.0190 C   0  0  0  0  0  0  0  0  0  0  0  0
  -24.2610   -9.5350   21.9600 C   0  0  0  0  0  3  0  0  0  0  0  0
  -23.5340   -8.3380   22.1330 C   0  0  0  0  0  3  0  0  0  0  0  0
  -22.3700   -8.0950   21.3660 C   0  0  0  0  0  0  0  0  0  0  0  0
  -21.9670   -9.0480   20.4140 C   0  0  0  0  0  3  0  0  0  0  0  0
  -22.6930  -10.2380   20.2390 C   0  0  0  0  0  3  0  0  0  0  0  0
  -21.6160   -6.9500   21.4480 O   0  0  0  0  0  0  0  0  0  0  0  0
  -21.5390   -6.2210   22.6080 C   0  0  0  0  0  0  0  0  0  0  0  0
  -21.0490   -6.7800   23.8080 C   0  0  0  0  0  3  0  0  0  0  0  0
  -20.9210   -5.9760   24.9580 C   0  0  0  0  0  3  0  0  0  0  0  0
  -21.2730   -4.6130   24.9090 C   0  0  0  0  0  0  0  0  0  0  0  0
  -21.7570   -4.0540   23.7130 C   0  0  0  0  0  3  0  0  0  0  0  0
  -21.8860   -4.8560   22.5650 C   0  0  0  0  0  0  0  0  0  0  0  0
  -22.3310   -4.3060   21.4100 F   0  0  0  0  0  0  0  0  0  0  0  0
  -21.1440   -3.8380   26.0110 F   0  0  0  0  0  0  0  0  0  0  0  0
  -22.7030  -13.5910   21.1470 C   0  0  0  0  0  0  0  0  0  0  0  0
  -21.9740  -12.8870   22.0050 N   0  0  0  0  0  0  0  0  0  0  0  0
  -22.2680  -14.6210   20.6360 O   0  0  0  0  0  0  0  0  0  0  0  0
  -22.3390  -12.0540   22.4420 H   0  0  0  0  0  0  0  0  0  0  0  0
  -21.0360  -13.1870   22.2300 H   0  0  0  0  0  0  0  0  0  0  0  0
  -25.3280  -15.2620   20.3300 N   0  0  0  0  0  0  0  0  0  0  0  0
  -24.5590  -15.9130   20.4410 H   0  0  0  0  0  0  0  0  0  0  0  0
  -26.1710  -15.7040   19.9860 H   0  0  0  0  0  0  0  0  0  0  0  0
  -29.0240  -23.8310   20.6380 C   0  0  0  0  0  2  0  0  0  0  0  0
  -28.6010  -24.9680   18.3940 C   0  0  0  0  0  1  0  0  0  0  0  0
  -28.2480  -25.0180   19.8920 C   0  0  0  0  0  3  0  0  0  0  0  0
  -28.3920  -26.4440   20.3220 O   0  0  0  0  0  0  0  0  0  0  0  0
  -24.6420  -31.9030   23.2440 C   0  0  0  0  0  0  0  0  0  0  0  0
  -27.2860  -27.3200   20.2290 C   0  0  0  0  0  0  0  0  0  0  0  0
  -23.4610  -30.4990   21.5950 C   0  0  0  0  0  3  0  0  0  0  0  0
  -24.9280  -28.9550   20.1880 C   0  0  0  0  0  0  0  0  0  0  0  0
  -26.0040  -30.8140   21.4440 C   0  0  0  0  0  2  0  0  0  0  0  0
  -26.0910  -29.4340   20.8010 C   0  0  0  0  0  0  0  0  0  0  0  0
  -27.2720  -28.6280   20.8160 C   0  0  0  0  0  3  0  0  0  0  0  0
  -26.0970  -26.9150   19.5750 C   0  0  0  0  0  3  0  0  0  0  0  0
  -24.9340  -27.7010   19.5660 C   0  0  0  0  0  3  0  0  0  0  0  0
  -23.6930  -29.8290   20.2180 C   0  0  0  0  0  2  0  0  0  0  0  0
  -24.7210  -31.0890   22.1500 N   0  0  0  0  0  0  0  0  0  0  0  0
  -23.5510  -32.1790   23.7640 O   0  0  0  0  0  0  0  0  0  0  0  0
  -22.7890  -29.4800   22.5470 C   0  0  0  0  0  0  0  0  0  0  0  0
  -21.4640  -29.3050   22.4090 N   0  0  0  0  0  0  0  0  0  0  0  0
  -23.4590  -28.8530   23.3710 O   0  0  0  0  0  0  0  0  0  0  0  0
  -20.9810  -29.8620   21.7190 H   0  0  0  0  0  0  0  0  0  0  0  0
  -18.0740  -28.1410   22.9100 C   0  0  0  0  0  0  0  0  0  0  0  0
  -20.6370  -28.3700   23.1760 C   0  0  0  0  0  3  0  0  0  0  0  0
  -20.7200  -26.9410   22.5880 C   0  0  0  0  0  2  0  0  0  0  0  0
  -19.6130  -26.6390   21.5740 C   0  0  0  0  0  2  0  0  0  0  0  0
  -18.2340  -26.7950   22.2230 C   0  0  0  0  0  2  0  0  0  0  0  0
  -19.2030  -28.8870   23.3430 C   0  0  0  0  0  0  0  0  0  0  0  0
  -18.9990  -30.1470   23.9460 C   0  0  0  0  0  3  0  0  0  0  0  0
  -17.7010  -30.6610   24.1200 C   0  0  0  0  0  3  0  0  0  0  0  0
  -16.5870  -29.9120   23.7020 C   0  0  0  0  0  3  0  0  0  0  0  0
  -16.7750  -28.6540   23.1030 C   0  0  0  0  0  3  0  0  0  0  0  0
  -25.9160  -32.5410   23.8780 C   0  0  0  0  0  3  0  0  0  0  0  0
  -26.4110  -31.7820   25.1700 C   0  0  1  0  0  0  0  0  0  0  0  0
  -25.3000  -31.5500   26.2190 C   0  0  0  0  0  1  0  0  0  0  0  0
  -27.0040  -30.4020   24.8000 C   0  0  0  0  0  1  0  0  0  0  0  0
  -27.5480  -32.5840   25.8440 C   0  0  0  0  0  1  0  0  0  0  0  0
  -25.6010  -33.9420   24.1910 N   0  0  0  0  0  0  0  0  0  0  0  0
  -25.9330  -34.9880   23.4200 C   0  0  0  0  0  0  0  0  0  0  0  0
  -26.6060  -34.8730   22.3920 O   0  0  0  0  0  0  0  0  0  0  0  0
  -25.0070  -34.1040   24.9900 H   0  0  0  0  0  0  0  0  0  0  0  0
  -24.2060  -36.7740   23.0350 C   0  0  0  0  0  1  0  0  0  0  0  0
  -25.4410  -36.3790   23.8600 C   0  0  0  0  0  3  0  0  0  0  0  0
  -27.5630  -37.2800   24.7040 C   0  0  0  0  0  1  0  0  0  0  0  0
  -26.4720  -37.4330   23.7450 N   0  0  0  0  0  0  0  0  0  0  0  0
  -26.0630  -38.3550   23.8730 H   0  0  0  0  0  0  0  0  0  0  0  0
  1 12  1  0
  1  2  1  0
  2 10  1  0
  3  5  2  0
  4  1  2  0
  5  2  1  0
  6  4  1  0
  6  3  1  0
  7  3  1  0
  7 51  1  0
  8  7  1  0
 10 11  1  0
 10  9  1  0
 13 21  1  0
 14 19  1  0
 15 16  1  0
 15 14  1  0
 17 16  1  0
 17 26  1  0
 17 18  1  0
 19 13  1  0
 19 18  1  0
 20 13  2  0
 21 12  1  0
 21 22  1  0
 23 24  2  0
 24 43  1  0
 25 24  1  0
 25 28  1  0
 26 23  1  0
 26 27  1  0
 27 25  2  0
 28 29  1  0
 29 30  2  0
 31 34  1  0
 31 30  1  0
 32 31  2  0
 33 32  1  0
 33 28  2  0
 34 35  1  0
 35 36  1  0
 36 37  2  0
 38 37  1  0
 38 42  1  0
 39 38  2  0
 40 35  2  0
 40 39  1  0
 41 40  1  0
 43 44  1  0
 44 47  1  0
 44 46  1  0
 45 43  2  0
 48 49  1  0
 48 23  1  0
 50 48  1  0
 53 52  1  0
 53 54  1  0
 53 51  1  0
 55 66  2  0
 56 54  1  0
 56 61  1  0
 57 65  1  0
 57 67  1  0
 58 64  1  0
 58 60  1  0
 59 65  1  0
 60 61  2  0
 60 59  1  0
 62 56  2  0
 63 62  1  0
 63 58  2  0
 64 57  1  0
 65 55  1  0
 67 69  2  0
 68 67  1  0
 70 68  1  0
 71 80  2  0
 71 76  1  0
 72 68  1  0
 72 76  1  0
 73 72  1  0
 74 75  1  0
 74 73  1  0
 75 71  1  0
 76 77  2  0
 77 78  1  0
 79 78  2  0
 80 79  1  0
 81 55  1  0
 81 86  1  0
 81 82  1  0
 82 85  1  1
 82 83  1  0
 84 82  1  0
 86 89  1  0
 87 91  1  0
 87 86  1  0
 88 87  2  0
 91 90  1  0
 93 91  1  0
 93 94  1  0
 93 92  1  0
M  ISO  4  13 100  21 100  53 101  54 101
M  END
>  <TORSDO>  (53) 
F 20

>  <SCORE>  (53) 
-14.167

>  <name>  (53) 
52

>  <ligand_id>  (53) 
52

>  <original_smiles>  (53) 
[H]c1c([H])c([H])c2c(c1[H])C([H])([H])C([H])([H])C([H])([H])C2([H])N([H])C(=O)C1([H])N(C(=O)C([H])(N([H])C(=O)C([H])(N([H])C([H])([H])[H])C([H])([H])[H])C(C([H])([H])[H])(C([H])([H])[H])C([H])([H])[H])C([H])([H])c2c([H])c(OC([H])(C([H])([H])[H])C([H])([H])N([H])c3nnc(C([H])([H])N([H])C(=O)N4C([H])([H])C([H])([H])C([H])([H])C([H])(n5nc(-c6c([H])c([H])c(Oc7c([H])c([H])c(F)c([H])c7F)c([H])c6[H])c(C(=O)N([H])[H])c5N([H])[H])C4([H])[H])c(N([H])C([H])([H])[H])n3)c([H])c([H])c2C1([H])[H]

>  <smiles>  (53) 
[H]c1c([H])c([H])c2c(c1[H])C([H])([H])C([H])([H])C([H])([H])C2([H])N([H])C(=O)C1([H])N(C(=O)C([H])(N([H])C(=O)C([H])(N([H])C([H])([H])[H])C([H])([H])[H])C(C([H])([H])[H])(C([H])([H])[H])C([H])([H])[H])C([H])([H])c2c([H])c(OC([H])(C([H])([H])[H])C([H])([H])N([H])c3nnc(C([H])([H])N([H])C(=O)N4C([H])([H])C([H])([H])C([H])([H])C([H])(n5nc(-c6c([H])c([H])c(Oc7c([H])c([H])c(F)c([H])c7F)c([H])c6[H])c(C(=O)N([H])[H])c5N([H])[H])C4([H])[H])c(N([H])C([H])([H])[H])n3)c([H])c([H])c2C1([H])[H]

$$$$
53:0:0
     RDKit          3D

 94102  0  0  1  0  0  0  0  0999 V2000
  -28.5790  -18.1080   19.9010 C   0  0  0  0  0  3  0  0  0  0  0  0
  -29.8510  -18.4420   20.3850 C   0  0  0  0  0  0  0  0  0  0  0  0
  -27.7190  -19.1590   19.5760 C   0  0  0  0  0  0  0  0  0  0  0  0
  -29.2550  -20.7650   20.1710 C   0  0  0  0  0  0  0  0  0  0  0  0
  -30.1710  -19.7990   20.4970 N   0  0  0  0  0  0  0  0  0  0  0  0
  -28.0490  -20.4520   19.7150 N   0  0  0  0  0  0  0  0  0  0  0  0
  -26.4470  -18.9020   19.0950 N   0  0  0  0  0  0  0  0  0  0  0  0
  -29.5730  -22.1780   20.2370 N   0  0  0  0  0  0  0  0  0  0  0  0
  -26.2270  -17.9720   18.7600 H   0  0  0  0  0  0  0  0  0  0  0  0
  -25.9500  -19.6430   18.6180 H   0  0  0  0  0  0  0  0  0  0  0  0
  -30.5410  -22.3310   20.4930 H   0  0  0  0  0  0  0  0  0  0  0  0
  -27.2280  -23.2630   20.1040 C   0  0  0  0  0  1  0  0  0  0  0  0
  -28.7210  -23.4520   20.4250 C   0  0  0  0  0  3  0  0  0  0  0  0
  -29.2110  -24.8430   19.7200 C   0  0  0  0  0  2  0  0  0  0  0  0
  -29.0430  -26.2160   20.3400 O   0  0  0  0  0  0  0  0  0  0  0  0
  -24.9660  -31.4700   23.2480 C   0  0  0  0  0  0  0  0  0  0  0  0
  -27.9110  -27.0590   20.2060 C   0  0  0  0  0  0  0  0  0  0  0  0
  -23.9310  -30.1300   21.4510 C   0  0  0  0  0  3  0  0  0  0  0  0
  -25.5270  -28.6710   20.0730 C   0  0  0  0  0  0  0  0  0  0  0  0
  -26.4730  -30.4890   21.4960 C   0  0  0  0  0  2  0  0  0  0  0  0
  -26.6340  -29.1410   20.7900 C   0  0  0  0  0  0  0  0  0  0  0  0
  -27.8250  -28.3470   20.8450 C   0  0  0  0  0  3  0  0  0  0  0  0
  -26.7780  -26.6560   19.4680 C   0  0  0  0  0  3  0  0  0  0  0  0
  -25.6050  -27.4390   19.4040 C   0  0  0  0  0  3  0  0  0  0  0  0
  -24.2730  -29.5260   20.0630 C   0  0  0  0  0  2  0  0  0  0  0  0
  -25.1370  -30.7150   22.1230 N   0  0  0  0  0  0  0  0  0  0  0  0
  -23.8370  -31.7020   23.7040 O   0  0  0  0  0  0  0  0  0  0  0  0
  -23.2130  -29.0600   22.3070 C   0  0  0  0  0  0  0  0  0  0  0  0
  -21.8850  -28.9360   22.1380 N   0  0  0  0  0  0  0  0  0  0  0  0
  -23.8510  -28.3470   23.0850 O   0  0  0  0  0  0  0  0  0  0  0  0
  -21.4300  -29.5650   21.4900 H   0  0  0  0  0  0  0  0  0  0  0  0
  -18.4470  -27.8910   22.5720 C   0  0  0  0  0  0  0  0  0  0  0  0
  -21.0220  -27.9610   22.8070 C   0  0  0  0  0  3  0  0  0  0  0  0
  -21.0210  -26.6090   22.0560 C   0  0  0  0  0  2  0  0  0  0  0  0
  -19.8840  -26.4860   21.0360 C   0  0  0  0  0  2  0  0  0  0  0  0
  -18.5260  -26.6300   21.7290 C   0  0  0  0  0  2  0  0  0  0  0  0
  -19.6200  -28.5240   23.0670 C   0  0  0  0  0  0  0  0  0  0  0  0
  -19.4910  -29.7120   23.8170 C   0  0  0  0  0  3  0  0  0  0  0  0
  -18.2240  -30.2660   24.0770 C   0  0  0  0  0  3  0  0  0  0  0  0
  -17.0670  -29.6280   23.5990 C   0  0  0  0  0  3  0  0  0  0  0  0
  -17.1790  -28.4410   22.8540 C   0  0  0  0  0  3  0  0  0  0  0  0
  -26.1780  -32.0960   24.0020 C   0  0  0  0  0  3  0  0  0  0  0  0
  -26.5850  -31.2940   25.3000 C   0  0  1  0  0  0  0  0  0  0  0  0
  -25.4060  -31.0350   26.2650 C   0  0  0  0  0  1  0  0  0  0  0  0
  -27.1990  -29.9250   24.9290 C   0  0  0  0  0  1  0  0  0  0  0  0
  -27.6740  -32.0720   26.0760 C   0  0  0  0  0  1  0  0  0  0  0  0
  -25.8220  -33.4820   24.3460 N   0  0  0  0  0  0  0  0  0  0  0  0
  -26.2290  -34.5650   23.6700 C   0  0  0  0  0  0  0  0  0  0  0  0
  -27.0110  -34.5020   22.7180 O   0  0  0  0  0  0  0  0  0  0  0  0
  -25.1400  -33.6040   25.0780 H   0  0  0  0  0  0  0  0  0  0  0  0
  -24.5270  -36.3580   23.2030 C   0  0  0  0  0  1  0  0  0  0  0  0
  -25.6840  -35.9340   24.1220 C   0  0  0  0  0  3  0  0  0  0  0  0
  -27.7040  -36.8150   25.2070 C   0  0  0  0  0  1  0  0  0  0  0  0
  -26.7120  -36.9970   24.1500 N   0  0  0  0  0  0  0  0  0  0  0  0
  -26.2830  -37.9100   24.2730 H   0  0  0  0  0  0  0  0  0  0  0  0
  -30.8510  -17.2710   20.8150 C   0  0  0  0  0  2  0  0  0  0  0  0
  -31.1390  -14.6570   20.6820 C   0  0  0  0  0  0  0  0  0  0  0  0
  -30.9200  -12.4140   19.5890 C   0  0  0  0  0  2  0  0  0  0  0  0
  -30.0320  -12.5540   18.3330 C   0  0  0  0  0  2  0  0  0  0  0  0
  -28.5430  -12.4070   18.7020 C   0  0  0  0  0  2  0  0  0  0  0  0
  -28.1480  -13.2570   19.9400 C   0  0  0  0  0  3  0  0  0  0  0  0
  -29.1640  -13.1060   21.0950 C   0  0  0  0  0  2  0  0  0  0  0  0
  -30.4860  -13.4490   20.5580 N   0  0  0  0  0  0  0  0  0  0  0  0
  -32.3370  -14.7330   20.3970 O   0  0  0  0  0  0  0  0  0  0  0  0
  -30.3980  -15.8070   20.9120 N   0  0  0  0  0  0  0  0  0  0  0  0
  -29.4190  -15.6780   21.1100 H   0  0  0  0  0  0  0  0  0  0  0  0
  -25.7530  -13.8830   20.6030 C   0  0  0  0  0  0  0  0  0  0  0  0
  -24.6580  -13.1250   20.9140 C   0  0  0  0  0  0  0  0  0  0  0  0
  -25.0890  -11.7640   20.8580 C   0  0  0  0  0  0  0  0  0  0  0  0
  -26.7830  -12.9850   20.3750 N   0  0  0  0  0  0  0  0  0  0  0  0
  -26.3880  -11.7040   20.5930 N   0  0  0  0  0  0  0  0  0  0  0  0
  -24.3250  -10.5160   20.9840 C   0  0  0  0  0  0  0  0  0  0  0  0
  -24.6750   -9.5250   21.9280 C   0  0  0  0  0  3  0  0  0  0  0  0
  -23.9120   -8.3430   22.0410 C   0  0  0  0  0  3  0  0  0  0  0  0
  -22.7850   -8.1430   21.2090 C   0  0  0  0  0  0  0  0  0  0  0  0
  -22.4540   -9.1220   20.2540 C   0  0  0  0  0  3  0  0  0  0  0  0
  -23.2180  -10.2950   20.1410 C   0  0  0  0  0  3  0  0  0  0  0  0
  -21.9990   -7.0150   21.2320 O   0  0  0  0  0  0  0  0  0  0  0  0
  -21.8150   -6.2900   22.3820 C   0  0  0  0  0  0  0  0  0  0  0  0
  -21.2360   -6.8590   23.5370 C   0  0  0  0  0  3  0  0  0  0  0  0
  -21.0010   -6.0600   24.6730 C   0  0  0  0  0  3  0  0  0  0  0  0
  -21.3340   -4.6930   24.6550 C   0  0  0  0  0  0  0  0  0  0  0  0
  -21.9060   -4.1230   23.5040 C   0  0  0  0  0  3  0  0  0  0  0  0
  -22.1430   -4.9190   22.3690 C   0  0  0  0  0  0  0  0  0  0  0  0
  -22.6740   -4.3600   21.2550 F   0  0  0  0  0  0  0  0  0  0  0  0
  -21.1030   -3.9230   25.7430 F   0  0  0  0  0  0  0  0  0  0  0  0
  -23.2640  -13.6310   21.1470 C   0  0  0  0  0  0  0  0  0  0  0  0
  -22.4950  -12.9440   21.9840 N   0  0  0  0  0  0  0  0  0  0  0  0
  -22.8650  -14.6690   20.6220 O   0  0  0  0  0  0  0  0  0  0  0  0
  -22.8290  -12.1040   22.4320 H   0  0  0  0  0  0  0  0  0  0  0  0
  -21.5590  -13.2680   22.1840 H   0  0  0  0  0  0  0  0  0  0  0  0
  -25.9510  -15.2540   20.4670 N   0  0  0  0  0  0  0  0  0  0  0  0
  -25.1670  -15.8940   20.5100 H   0  0  0  0  0  0  0  0  0  0  0  0
  -26.7700  -15.6650   20.0370 H   0  0  0  0  0  0  0  0  0  0  0  0
  1  2  2  0
  2  5  1  0
  2 56  1  0
  3  6  2  0
  3  1  1  0
  4  8  1  0
  4  5  2  0
  6  4  1  0
  7  3  1  0
  8 13  1  0
  8 11  1  0
  9  7  1  0
 10  7  1  0
 13 12  1  0
 14 15  1  0
 14 13  1  0
 16 27  2  0
 17 15  1  0
 17 22  1  0
 18 26  1  0
 18 28  1  0
 19 21  1  0
 20 26  1  0
 21 22  2  0
 21 20  1  0
 23 17  2  0
 24 23  1  0
 24 19  2  0
 25 19  1  0
 25 18  1  0
 26 16  1  0
 28 30  2  0
 29 28  1  0
 31 29  1  0
 32 41  2  0
 32 37  1  0
 33 29  1  0
 33 37  1  0
 34 33  1  0
 35 36  1  0
 35 34  1  0
 36 32  1  0
 37 38  2  0
 38 39  1  0
 40 39  2  0
 41 40  1  0
 42 16  1  0
 42 47  1  0
 42 43  1  0
 43 46  1  1
 43 44  1  0
 45 43  1  0
 47 50  1  0
 48 52  1  0
 48 47  1  0
 49 48  2  0
 52 51  1  0
 52 54  1  0
 54 55  1  0
 54 53  1  0
 56 65  1  0
 57 65  1  0
 58 63  1  0
 59 60  1  0
 59 58  1  0
 61 60  1  0
 61 70  1  0
 61 62  1  0
 63 57  1  0
 63 62  1  0
 64 57  2  0
 65 66  1  0
 67 68  2  0
 68 87  1  0
 69 68  1  0
 69 72  1  0
 70 71  1  0
 70 67  1  0
 71 69  2  0
 72 73  1  0
 73 74  2  0
 75 78  1  0
 75 74  1  0
 76 75  2  0
 77 76  1  0
 77 72  2  0
 78 79  1  0
 79 80  1  0
 80 81  2  0
 82 81  1  0
 82 86  1  0
 83 82  2  0
 84 79  2  0
 84 83  1  0
 85 84  1  0
 87 88  1  0
 88 91  1  0
 88 90  1  0
 89 87  2  0
 92 93  1  0
 92 67  1  0
 94 92  1  0
M  ISO  4  14 101  15 101  57 100  65 100
M  END
>  <TORSDO>  (54) 
F 19

>  <SCORE>  (54) 
-12.963

>  <name>  (54) 
53

>  <ligand_id>  (54) 
53

>  <original_smiles>  (54) 
[H]c1c(N([H])[H])nc(N([H])C([H])(C([H])([H])[H])C([H])([H])Oc2c([H])c([H])c3c(c2[H])C([H])([H])N(C(=O)C([H])(N([H])C(=O)C([H])(N([H])C([H])([H])[H])C([H])([H])[H])C(C([H])([H])[H])(C([H])([H])[H])C([H])([H])[H])C([H])(C(=O)N([H])C2([H])c4c([H])c([H])c([H])c([H])c4C([H])([H])C([H])([H])C2([H])[H])C3([H])[H])nc1C([H])([H])N([H])C(=O)N1C([H])([H])C([H])([H])C([H])([H])C([H])(n2nc(-c3c([H])c([H])c(Oc4c([H])c([H])c(F)c([H])c4F)c([H])c3[H])c(C(=O)N([H])[H])c2N([H])[H])C1([H])[H]

>  <smiles>  (54) 
[H]c1c(N([H])[H])nc(N([H])C([H])(C([H])([H])[H])C([H])([H])Oc2c([H])c([H])c3c(c2[H])C([H])([H])N(C(=O)C([H])(N([H])C(=O)C([H])(N([H])C([H])([H])[H])C([H])([H])[H])C(C([H])([H])[H])(C([H])([H])[H])C([H])([H])[H])C([H])(C(=O)N([H])C2([H])c4c([H])c([H])c([H])c([H])c4C([H])([H])C([H])([H])C2([H])[H])C3([H])[H])nc1C([H])([H])N([H])C(=O)N1C([H])([H])C([H])([H])C([H])([H])C([H])(n2nc(-c3c([H])c([H])c(Oc4c([H])c([H])c(F)c([H])c4F)c([H])c3[H])c(C(=O)N([H])[H])c2N([H])[H])C1([H])[H]

$$$$
54:0:0
     RDKit          3D

 95103  0  0  1  0  0  0  0  0999 V2000
  -29.9040  -21.3750   20.3790 N   0  0  0  0  0  0  0  0  0  0  0  0
  -30.8120  -21.7680   20.6060 H   0  0  0  0  0  0  0  0  0  0  0  0
  -30.5870  -14.7100   20.3950 C   0  0  0  0  0  0  0  0  0  0  0  0
  -30.3910  -12.4510   19.3690 C   0  0  0  0  0  2  0  0  0  0  0  0
  -29.4490  -12.5550   18.1480 C   0  0  0  0  0  2  0  0  0  0  0  0
  -27.9760  -12.3860   18.5750 C   0  0  0  0  0  2  0  0  0  0  0  0
  -27.6060  -13.2580   19.8060 C   0  0  0  0  0  3  0  0  0  0  0  0
  -28.6670  -13.1370   20.9230 C   0  0  0  0  0  2  0  0  0  0  0  0
  -29.9710  -13.4830   20.3380 N   0  0  0  0  0  0  0  0  0  0  0  0
  -31.7720  -14.8230   20.0580 O   0  0  0  0  0  0  0  0  0  0  0  0
  -31.0600  -19.1720   20.3880 C   0  0  0  0  0  0  0  0  0  0  0  0
  -29.8570  -19.9400   20.3990 C   0  0  0  0  0  0  0  0  0  0  0  0
  -29.8780  -17.1940   20.5210 C   0  0  0  0  0  0  0  0  0  0  0  0
  -31.0720  -17.8140   20.4520 N   0  0  0  0  0  0  0  0  0  0  0  0
  -28.6870  -19.2410   20.4510 N   0  0  0  0  0  0  0  0  0  0  0  0
  -28.7030  -17.8800   20.5210 N   0  0  0  0  0  0  0  0  0  0  0  0
  -29.7670  -15.7880   20.6300 N   0  0  0  0  0  0  0  0  0  0  0  0
  -28.8240  -15.5070   20.8350 H   0  0  0  0  0  0  0  0  0  0  0  0
  -25.2110  -13.8450   20.5230 C   0  0  0  0  0  0  0  0  0  0  0  0
  -24.1470  -13.0700   20.8930 C   0  0  0  0  0  0  0  0  0  0  0  0
  -24.6140  -11.7200   20.8670 C   0  0  0  0  0  0  0  0  0  0  0  0
  -26.2590  -12.9690   20.2920 N   0  0  0  0  0  0  0  0  0  0  0  0
  -25.9060  -11.6860   20.5610 N   0  0  0  0  0  0  0  0  0  0  0  0
  -23.8920  -10.4550   21.0590 C   0  0  0  0  0  0  0  0  0  0  0  0
  -24.3350   -9.4850   21.9850 C   0  0  0  0  0  3  0  0  0  0  0  0
  -23.6140   -8.2860   22.1650 C   0  0  0  0  0  3  0  0  0  0  0  0
  -22.4350   -8.0470   21.4200 C   0  0  0  0  0  0  0  0  0  0  0  0
  -22.0110   -9.0060   20.4840 C   0  0  0  0  0  3  0  0  0  0  0  0
  -22.7330  -10.1970   20.3010 C   0  0  0  0  0  3  0  0  0  0  0  0
  -21.6850   -6.9000   21.5090 O   0  0  0  0  0  0  0  0  0  0  0  0
  -21.6550   -6.1460   22.6560 C   0  0  0  0  0  0  0  0  0  0  0  0
  -21.2470   -6.6880   23.8930 C   0  0  0  0  0  3  0  0  0  0  0  0
  -21.1640   -5.8610   25.0320 C   0  0  0  0  0  3  0  0  0  0  0  0
  -21.4820   -4.4930   24.9330 C   0  0  0  0  0  0  0  0  0  0  0  0
  -21.8850   -3.9510   23.7000 C   0  0  0  0  0  3  0  0  0  0  0  0
  -21.9680   -4.7750   22.5640 C   0  0  0  0  0  0  0  0  0  0  0  0
  -22.3370   -4.2440   21.3730 F   0  0  0  0  0  0  0  0  0  0  0  0
  -21.3970   -3.6960   26.0240 F   0  0  0  0  0  0  0  0  0  0  0  0
  -22.7470  -13.5420   21.1600 C   0  0  0  0  0  0  0  0  0  0  0  0
  -22.0170  -12.8460   22.0250 N   0  0  0  0  0  0  0  0  0  0  0  0
  -22.3070  -14.5650   20.6360 O   0  0  0  0  0  0  0  0  0  0  0  0
  -22.3840  -12.0210   22.4750 H   0  0  0  0  0  0  0  0  0  0  0  0
  -21.0760  -13.1460   22.2420 H   0  0  0  0  0  0  0  0  0  0  0  0
  -25.3670  -15.2160   20.3400 N   0  0  0  0  0  0  0  0  0  0  0  0
  -24.5900  -15.8600   20.4450 H   0  0  0  0  0  0  0  0  0  0  0  0
  -26.2010  -15.6660   19.9850 H   0  0  0  0  0  0  0  0  0  0  0  0
  -32.3030  -19.7950   20.2970 N   0  0  0  0  0  0  0  0  0  0  0  0
  -32.2890  -20.7030   19.8490 H   0  0  0  0  0  0  0  0  0  0  0  0
  -33.0610  -19.2110   19.9680 H   0  0  0  0  0  0  0  0  0  0  0  0
  -28.7850  -22.3600   20.2430 C   0  0  0  0  0  2  0  0  0  0  0  0
  -29.1880  -23.9140   20.3740 C   0  0  0  0  0  3  0  0  0  0  0  0
  -29.6570  -24.0610   21.7030 O   0  0  0  0  0  0  0  0  0  0  0  0
  -29.9030  -24.9760   21.8080 H   0  0  0  0  0  0  0  0  0  0  0  0
  -28.0330  -24.9990   20.1520 C   0  0  0  0  0  2  0  0  0  0  0  0
  -28.3020  -26.4640   20.2360 O   0  0  0  0  0  0  0  0  0  0  0  0
  -24.6160  -31.9130   23.2650 C   0  0  0  0  0  0  0  0  0  0  0  0
  -27.1920  -27.3330   20.1950 C   0  0  0  0  0  0  0  0  0  0  0  0
  -23.4000  -30.5270   21.6270 C   0  0  0  0  0  3  0  0  0  0  0  0
  -24.8370  -28.9710   20.1970 C   0  0  0  0  0  0  0  0  0  0  0  0
  -25.9420  -30.8260   21.4390 C   0  0  0  0  0  2  0  0  0  0  0  0
  -26.0130  -29.4470   20.7890 C   0  0  0  0  0  0  0  0  0  0  0  0
  -27.1940  -28.6410   20.7780 C   0  0  0  0  0  3  0  0  0  0  0  0
  -25.9870  -26.9160   19.5810 C   0  0  0  0  0  3  0  0  0  0  0  0
  -24.8270  -27.7100   19.5840 C   0  0  0  0  0  3  0  0  0  0  0  0
  -23.6060  -29.8520   20.2470 C   0  0  0  0  0  2  0  0  0  0  0  0
  -24.6720  -31.1040   22.1670 N   0  0  0  0  0  0  0  0  0  0  0  0
  -23.5350  -32.1970   23.8030 O   0  0  0  0  0  0  0  0  0  0  0  0
  -22.7310  -29.5120   22.5850 C   0  0  0  0  0  0  0  0  0  0  0  0
  -21.4040  -29.3440   22.4590 N   0  0  0  0  0  0  0  0  0  0  0  0
  -23.4060  -28.8790   23.4030 O   0  0  0  0  0  0  0  0  0  0  0  0
  -20.9180  -29.9040   21.7730 H   0  0  0  0  0  0  0  0  0  0  0  0
  -18.0180  -28.1700   22.9580 C   0  0  0  0  0  0  0  0  0  0  0  0
  -20.5780  -28.4110   23.2300 C   0  0  0  0  0  3  0  0  0  0  0  0
  -20.6700  -26.9790   22.6560 C   0  0  0  0  0  2  0  0  0  0  0  0
  -19.5660  -26.6630   21.6400 C   0  0  0  0  0  2  0  0  0  0  0  0
  -18.1860  -26.8190   22.2830 C   0  0  0  0  0  2  0  0  0  0  0  0
  -19.1430  -28.9250   23.3890 C   0  0  0  0  0  0  0  0  0  0  0  0
  -18.9320  -30.1890   23.9800 C   0  0  0  0  0  3  0  0  0  0  0  0
  -17.6310  -30.6990   24.1460 C   0  0  0  0  0  3  0  0  0  0  0  0
  -16.5210  -29.9420   23.7320 C   0  0  0  0  0  3  0  0  0  0  0  0
  -16.7160  -28.6800   23.1440 C   0  0  0  0  0  3  0  0  0  0  0  0
  -25.9040  -32.5360   23.8860 C   0  0  0  0  0  3  0  0  0  0  0  0
  -25.6020  -33.9350   24.2200 N   0  0  0  0  0  0  0  0  0  0  0  0
  -25.9210  -34.9870   23.4540 C   0  0  0  0  0  0  0  0  0  0  0  0
  -26.5710  -34.8810   22.4100 O   0  0  0  0  0  0  0  0  0  0  0  0
  -25.0190  -34.0910   25.0300 H   0  0  0  0  0  0  0  0  0  0  0  0
  -24.1790  -36.7770   23.1480 C   0  0  0  0  0  1  0  0  0  0  0  0
  -25.4480  -36.3780   23.9200 C   0  0  0  0  0  3  0  0  0  0  0  0
  -27.6070  -37.2700   24.6750 C   0  0  0  0  0  1  0  0  0  0  0  0
  -26.4740  -37.4320   23.7670 N   0  0  0  0  0  0  0  0  0  0  0  0
  -26.0720  -38.3530   23.9240 H   0  0  0  0  0  0  0  0  0  0  0  0
  -26.4150  -31.7590   25.1610 C   0  0  1  0  0  0  0  0  0  0  0  0
  -25.3200  -31.5290   26.2300 C   0  0  0  0  0  1  0  0  0  0  0  0
  -26.9850  -30.3760   24.7660 C   0  0  0  0  0  1  0  0  0  0  0  0
  -27.5730  -32.5420   25.8220 C   0  0  0  0  0  1  0  0  0  0  0  0
  1 12  1  0
  1  2  1  0
  3 17  1  0
  4  9  1  0
  5  6  1  0
  5  4  1  0
  7  6  1  0
  7 22  1  0
  7  8  1  0
  9  3  1  0
  9  8  1  0
 10  3  2  0
 11 12  2  0
 11 14  1  0
 12 15  1  0
 13 17  1  0
 14 13  2  0
 15 16  2  0
 16 13  1  0
 17 18  1  0
 19 20  2  0
 20 39  1  0
 21 20  1  0
 21 24  1  0
 22 19  1  0
 22 23  1  0
 23 21  2  0
 24 25  1  0
 25 26  2  0
 27 30  1  0
 27 26  1  0
 28 27  2  0
 29 28  1  0
 29 24  2  0
 30 31  1  0
 31 32  1  0
 32 33  2  0
 34 33  1  0
 34 38  1  0
 35 34  2  0
 36 31  2  0
 36 35  1  0
 37 36  1  0
 39 40  1  0
 40 43  1  0
 40 42  1  0
 41 39  2  0
 44 45  1  0
 44 19  1  0
 46 44  1  0
 47 11  1  0
 48 47  1  0
 49 47  1  0
 50 51  1  0
 50  1  1  0
 51 54  1  0
 51 52  1  0
 52 53  1  0
 54 55  1  0
 56 67  2  0
 57 55  1  0
 57 62  1  0
 58 66  1  0
 58 68  1  0
 59 65  1  0
 59 61  1  0
 60 66  1  0
 61 60  1  0
 62 61  2  0
 63 64  1  0
 63 57  2  0
 64 59  2  0
 65 58  1  0
 66 56  1  0
 68 70  2  0
 69 68  1  0
 71 69  1  0
 72 81  2  0
 72 77  1  0
 73 69  1  0
 73 77  1  0
 74 73  1  0
 75 76  1  0
 75 74  1  0
 76 72  1  0
 77 78  2  0
 78 79  1  0
 80 79  2  0
 81 80  1  0
 82 56  1  0
 82 83  1  0
 82 92  1  0
 83 86  1  0
 84 88  1  0
 84 83  1  0
 85 84  2  0
 88 87  1  0
 90 88  1  0
 90 91  1  0
 90 89  1  0
 92 95  1  1
 92 93  1  0
 94 92  1  0
M  ISO  4   3 100  17 100  54 101  55 101
M  END
>  <TORSDO>  (55) 
F 21

>  <SCORE>  (55) 
-14.068

>  <name>  (55) 
54

>  <ligand_id>  (55) 
54

>  <original_smiles>  (55) 
[H]OC([H])(C([H])([H])Oc1c([H])c([H])c2c(c1[H])C([H])([H])N(C(=O)C([H])(N([H])C(=O)C([H])(N([H])C([H])([H])[H])C([H])([H])[H])C(C([H])([H])[H])(C([H])([H])[H])C([H])([H])[H])C([H])(C(=O)N([H])C1([H])c3c([H])c([H])c([H])c([H])c3C([H])([H])C([H])([H])C1([H])[H])C2([H])[H])C([H])([H])N([H])c1nnc(N([H])C(=O)N2C([H])([H])C([H])([H])C([H])([H])C([H])(n3nc(-c4c([H])c([H])c(Oc5c([H])c([H])c(F)c([H])c5F)c([H])c4[H])c(C(=O)N([H])[H])c3N([H])[H])C2([H])[H])nc1N([H])[H]

>  <smiles>  (55) 
[H]OC([H])(C([H])([H])Oc1c([H])c([H])c2c(c1[H])C([H])([H])N(C(=O)C([H])(N([H])C(=O)C([H])(N([H])C([H])([H])[H])C([H])([H])[H])C(C([H])([H])[H])(C([H])([H])[H])C([H])([H])[H])C([H])(C(=O)N([H])C1([H])c3c([H])c([H])c([H])c([H])c3C([H])([H])C([H])([H])C1([H])[H])C2([H])[H])C([H])([H])N([H])c1nnc(N([H])C(=O)N2C([H])([H])C([H])([H])C([H])([H])C([H])(n3nc(-c4c([H])c([H])c(Oc5c([H])c([H])c(F)c([H])c5F)c([H])c4[H])c(C(=O)N([H])[H])c3N([H])[H])C2([H])[H])nc1N([H])[H]

$$$$
55:0:0
     RDKit          3D

 95103  0  0  1  0  0  0  0  0999 V2000
  -30.7420  -17.4390   18.9550 C   0  0  0  0  0  3  0  0  0  0  0  0
  -30.0300  -17.2790   20.1740 C   0  0  0  0  0  0  0  0  0  0  0  0
  -30.4520  -19.7330   18.9440 C   0  0  0  0  0  0  0  0  0  0  0  0
  -29.6910  -19.6970   20.1450 C   0  0  0  0  0  0  0  0  0  0  0  0
  -30.9550  -18.6320   18.3520 N   0  0  0  0  0  0  0  0  0  0  0  0
  -29.4990  -18.4500   20.7470 N   0  0  0  0  0  0  0  0  0  0  0  0
  -30.8180  -20.9320   18.3510 N   0  0  0  0  0  0  0  0  0  0  0  0
  -29.2550  -20.9340   20.7720 N   0  0  0  0  0  0  0  0  0  0  0  0
  -30.7200  -21.7090   18.9950 H   0  0  0  0  0  0  0  0  0  0  0  0
  -31.6930  -20.9340   17.8450 H   0  0  0  0  0  0  0  0  0  0  0  0
  -28.9500  -20.8280   21.7330 H   0  0  0  0  0  0  0  0  0  0  0  0
  -30.5920  -14.7420   20.4000 C   0  0  0  0  0  0  0  0  0  0  0  0
  -30.3860  -12.4640   19.4060 C   0  0  0  0  0  2  0  0  0  0  0  0
  -29.4590  -12.5490   18.1720 C   0  0  0  0  0  2  0  0  0  0  0  0
  -27.9880  -12.3730   18.5930 C   0  0  0  0  0  2  0  0  0  0  0  0
  -27.6060  -13.2570   19.8110 C   0  0  0  0  0  3  0  0  0  0  0  0
  -28.6580  -13.1720   20.9400 C   0  0  0  0  0  2  0  0  0  0  0  0
  -29.9610  -13.5180   20.3580 N   0  0  0  0  0  0  0  0  0  0  0  0
  -31.7770  -14.8200   20.0580 O   0  0  0  0  0  0  0  0  0  0  0  0
  -29.8480  -15.8870   20.6700 N   0  0  0  0  0  0  0  0  0  0  0  0
  -28.9710  -15.7160   21.1370 H   0  0  0  0  0  0  0  0  0  0  0  0
  -25.2110  -13.8390   20.5200 C   0  0  0  0  0  0  0  0  0  0  0  0
  -24.1470  -13.0620   20.8870 C   0  0  0  0  0  0  0  0  0  0  0  0
  -24.6150  -11.7130   20.8630 C   0  0  0  0  0  0  0  0  0  0  0  0
  -26.2600  -12.9630   20.2930 N   0  0  0  0  0  0  0  0  0  0  0  0
  -25.9080  -11.6790   20.5620 N   0  0  0  0  0  0  0  0  0  0  0  0
  -23.8920  -10.4480   21.0530 C   0  0  0  0  0  0  0  0  0  0  0  0
  -24.3280   -9.4800   21.9830 C   0  0  0  0  0  3  0  0  0  0  0  0
  -23.6050   -8.2800   22.1610 C   0  0  0  0  0  3  0  0  0  0  0  0
  -22.4310   -8.0420   21.4080 C   0  0  0  0  0  0  0  0  0  0  0  0
  -22.0140   -8.9980   20.4660 C   0  0  0  0  0  3  0  0  0  0  0  0
  -22.7380  -10.1890   20.2860 C   0  0  0  0  0  3  0  0  0  0  0  0
  -21.6780   -6.8960   21.4950 O   0  0  0  0  0  0  0  0  0  0  0  0
  -21.6380   -6.1470   22.6440 C   0  0  0  0  0  0  0  0  0  0  0  0
  -21.2240   -6.6950   23.8780 C   0  0  0  0  0  3  0  0  0  0  0  0
  -21.1310   -5.8730   25.0180 C   0  0  0  0  0  3  0  0  0  0  0  0
  -21.4430   -4.5030   24.9260 C   0  0  0  0  0  0  0  0  0  0  0  0
  -21.8500   -3.9540   23.6980 C   0  0  0  0  0  3  0  0  0  0  0  0
  -21.9440   -4.7730   22.5600 C   0  0  0  0  0  0  0  0  0  0  0  0
  -22.3170   -4.2350   21.3740 F   0  0  0  0  0  0  0  0  0  0  0  0
  -21.3450   -3.7110   26.0200 F   0  0  0  0  0  0  0  0  0  0  0  0
  -22.7460  -13.5350   21.1450 C   0  0  0  0  0  0  0  0  0  0  0  0
  -22.0130  -12.8400   22.0090 N   0  0  0  0  0  0  0  0  0  0  0  0
  -22.3080  -14.5570   20.6180 O   0  0  0  0  0  0  0  0  0  0  0  0
  -22.3790  -12.0160   22.4610 H   0  0  0  0  0  0  0  0  0  0  0  0
  -21.0720  -13.1390   22.2240 H   0  0  0  0  0  0  0  0  0  0  0  0
  -25.3710  -15.2100   20.3380 N   0  0  0  0  0  0  0  0  0  0  0  0
  -24.5970  -15.8590   20.4350 H   0  0  0  0  0  0  0  0  0  0  0  0
  -26.2140  -15.6510   19.9940 H   0  0  0  0  0  0  0  0  0  0  0  0
  -28.6020  -22.1410   20.1040 C   0  0  0  0  0  2  0  0  0  0  0  0
  -28.9050  -23.6400   20.6600 C   0  0  0  0  0  3  0  0  0  0  0  0
  -28.7040  -23.5400   22.0600 O   0  0  0  0  0  0  0  0  0  0  0  0
  -28.8990  -24.3960   22.4320 H   0  0  0  0  0  0  0  0  0  0  0  0
  -27.9730  -24.8670   20.1340 C   0  0  0  0  0  2  0  0  0  0  0  0
  -28.2530  -26.3330   20.3680 O   0  0  0  0  0  0  0  0  0  0  0  0
  -24.5930  -31.9060   23.2590 C   0  0  0  0  0  0  0  0  0  0  0  0
  -27.1770  -27.2530   20.2670 C   0  0  0  0  0  0  0  0  0  0  0  0
  -23.3910  -30.5040   21.6230 C   0  0  0  0  0  3  0  0  0  0  0  0
  -24.8390  -28.9300   20.2150 C   0  0  0  0  0  0  0  0  0  0  0  0
  -25.9400  -30.7850   21.4600 C   0  0  0  0  0  2  0  0  0  0  0  0
  -26.0120  -29.3980   20.8240 C   0  0  0  0  0  0  0  0  0  0  0  0
  -27.1830  -28.5720   20.8390 C   0  0  0  0  0  3  0  0  0  0  0  0
  -25.9860  -26.8680   19.6080 C   0  0  0  0  0  3  0  0  0  0  0  0
  -24.8330  -27.6740   19.5940 C   0  0  0  0  0  3  0  0  0  0  0  0
  -23.6110  -29.8190   20.2490 C   0  0  0  0  0  2  0  0  0  0  0  0
  -24.6600  -31.0830   22.1710 N   0  0  0  0  0  0  0  0  0  0  0  0
  -23.5060  -32.1970   23.7810 O   0  0  0  0  0  0  0  0  0  0  0  0
  -22.7100  -29.5000   22.5870 C   0  0  0  0  0  0  0  0  0  0  0  0
  -21.3830  -29.3390   22.4580 N   0  0  0  0  0  0  0  0  0  0  0  0
  -23.3790  -28.8710   23.4120 O   0  0  0  0  0  0  0  0  0  0  0  0
  -20.9020  -29.9000   21.7690 H   0  0  0  0  0  0  0  0  0  0  0  0
  -17.9870  -28.1900   22.9680 C   0  0  0  0  0  0  0  0  0  0  0  0
  -20.5500  -28.4160   23.2330 C   0  0  0  0  0  3  0  0  0  0  0  0
  -20.6310  -26.9800   22.6670 C   0  0  0  0  0  2  0  0  0  0  0  0
  -19.5250  -26.6670   21.6540 C   0  0  0  0  0  2  0  0  0  0  0  0
  -18.1450  -26.8350   22.2980 C   0  0  0  0  0  2  0  0  0  0  0  0
  -19.1170  -28.9380   23.3940 C   0  0  0  0  0  0  0  0  0  0  0  0
  -18.9150  -30.2060   23.9820 C   0  0  0  0  0  3  0  0  0  0  0  0
  -17.6180  -30.7260   24.1470 C   0  0  0  0  0  3  0  0  0  0  0  0
  -16.5030  -29.9740   23.7350 C   0  0  0  0  0  3  0  0  0  0  0  0
  -16.6890  -28.7070   23.1530 C   0  0  0  0  0  3  0  0  0  0  0  0
  -25.8730  -32.5360   23.8850 C   0  0  0  0  0  3  0  0  0  0  0  0
  -26.3760  -31.7730   25.1710 C   0  0  1  0  0  0  0  0  0  0  0  0
  -25.2740  -31.5510   26.2350 C   0  0  0  0  0  1  0  0  0  0  0  0
  -26.9510  -30.3870   24.7970 C   0  0  0  0  0  1  0  0  0  0  0  0
  -27.5270  -32.5650   25.8340 C   0  0  0  0  0  1  0  0  0  0  0  0
  -25.5690  -33.9390   24.2030 N   0  0  0  0  0  0  0  0  0  0  0  0
  -25.9030  -34.9850   23.4370 C   0  0  0  0  0  0  0  0  0  0  0  0
  -26.5700  -34.8710   22.4040 O   0  0  0  0  0  0  0  0  0  0  0  0
  -24.9770  -34.1010   25.0050 H   0  0  0  0  0  0  0  0  0  0  0  0
  -24.1790  -36.7830   23.0770 C   0  0  0  0  0  1  0  0  0  0  0  0
  -25.4230  -36.3800   23.8850 C   0  0  0  0  0  3  0  0  0  0  0  0
  -27.5670  -37.2650   24.6940 C   0  0  0  0  0  1  0  0  0  0  0  0
  -26.4600  -37.4280   23.7560 N   0  0  0  0  0  0  0  0  0  0  0  0
  -26.0570  -38.3510   23.8960 H   0  0  0  0  0  0  0  0  0  0  0  0
  1  2  1  0
  2 20  1  0
  2  6  2  0
  3  4  2  0
  4  6  1  0
  4  8  1  0
  5  3  1  0
  5  1  2  0
  7  3  1  0
  7  9  1  0
  8 11  1  0
 10  7  1  0
 12 20  1  0
 13 18  1  0
 14 15  1  0
 14 13  1  0
 16 15  1  0
 16 25  1  0
 16 17  1  0
 18 12  1  0
 18 17  1  0
 19 12  2  0
 20 21  1  0
 22 23  2  0
 23 42  1  0
 24 23  1  0
 24 27  1  0
 25 22  1  0
 25 26  1  0
 26 24  2  0
 27 28  1  0
 28 29  2  0
 30 33  1  0
 30 29  1  0
 31 30  2  0
 32 31  1  0
 32 27  2  0
 33 34  1  0
 34 35  1  0
 35 36  2  0
 37 36  1  0
 37 41  1  0
 38 37  2  0
 39 34  2  0
 39 38  1  0
 40 39  1  0
 42 43  1  0
 43 46  1  0
 43 45  1  0
 44 42  2  0
 47 48  1  0
 47 22  1  0
 49 47  1  0
 50  8  1  0
 51 50  1  0
 51 52  1  0
 52 53  1  0
 54 55  1  0
 54 51  1  0
 56 67  2  0
 57 55  1  0
 57 62  1  0
 58 66  1  0
 58 68  1  0
 59 65  1  0
 59 61  1  0
 60 66  1  0
 61 62  2  0
 61 60  1  0
 63 57  2  0
 64 63  1  0
 64 59  2  0
 65 58  1  0
 66 56  1  0
 68 70  2  0
 69 68  1  0
 71 69  1  0
 72 81  2  0
 72 77  1  0
 73 69  1  0
 73 77  1  0
 74 73  1  0
 75 76  1  0
 75 74  1  0
 76 72  1  0
 77 78  2  0
 78 79  1  0
 80 79  2  0
 81 80  1  0
 82 56  1  0
 82 87  1  0
 82 83  1  0
 83 86  1  1
 83 84  1  0
 85 83  1  0
 87 90  1  0
 88 92  1  0
 88 87  1  0
 89 88  2  0
 92 91  1  0
 94 92  1  0
 94 95  1  0
 94 93  1  0
M  ISO  4  12 100  20 100  54 101  55 101
M  END
>  <TORSDO>  (56) 
F 20

>  <SCORE>  (56) 
-14.174

>  <name>  (56) 
55

>  <ligand_id>  (56) 
55

>  <original_smiles>  (56) 
[H]OC([H])(C([H])([H])Oc1c([H])c([H])c2c(c1[H])C([H])([H])N(C(=O)C([H])(N([H])C(=O)C([H])(N([H])C([H])([H])[H])C([H])([H])[H])C(C([H])([H])[H])(C([H])([H])[H])C([H])([H])[H])C([H])(C(=O)N([H])C1([H])c3c([H])c([H])c([H])c([H])c3C([H])([H])C([H])([H])C1([H])[H])C2([H])[H])C([H])([H])N([H])c1nc(N([H])C(=O)N2C([H])([H])C([H])([H])C([H])([H])C([H])(n3nc(-c4c([H])c([H])c(Oc5c([H])c([H])c(F)c([H])c5F)c([H])c4[H])c(C(=O)N([H])[H])c3N([H])[H])C2([H])[H])c([H])nc1N([H])[H]

>  <smiles>  (56) 
[H]OC([H])(C([H])([H])Oc1c([H])c([H])c2c(c1[H])C([H])([H])N(C(=O)C([H])(N([H])C(=O)C([H])(N([H])C([H])([H])[H])C([H])([H])[H])C(C([H])([H])[H])(C([H])([H])[H])C([H])([H])[H])C([H])(C(=O)N([H])C1([H])c3c([H])c([H])c([H])c([H])c3C([H])([H])C([H])([H])C1([H])[H])C2([H])[H])C([H])([H])N([H])c1nc(N([H])C(=O)N2C([H])([H])C([H])([H])C([H])([H])C([H])(n3nc(-c4c([H])c([H])c(Oc5c([H])c([H])c(F)c([H])c5F)c([H])c4[H])c(C(=O)N([H])[H])c3N([H])[H])C2([H])[H])c([H])nc1N([H])[H]

$$$$
56:0:0
     RDKit          3D

 92100  0  0  1  0  0  0  0  0999 V2000
  -28.8860  -23.1220   20.8290 C   0  0  0  0  0  2  0  0  0  0  0  0
  -28.2350  -18.2670   20.4850 C   0  0  0  0  0  3  0  0  0  0  0  0
  -29.5430  -18.2720   20.0580 C   0  0  0  0  0  0  0  0  0  0  0  0
  -29.1300  -20.5560   20.1580 C   0  0  0  0  0  0  0  0  0  0  0  0
  -30.0140  -19.5930   19.8500 N   0  0  0  0  0  0  0  0  0  0  0  0
  -29.3950  -21.9380   20.0850 N   0  0  0  0  0  0  0  0  0  0  0  0
  -27.5980  -19.8880   20.7100 S   0  0  0  0  0  0  0  0  0  0  0  0
  -30.3380  -22.0980   19.7420 H   0  0  0  0  0  0  0  0  0  0  0  0
  -30.4910  -17.0900   19.8450 C   0  0  0  0  0  2  0  0  0  0  0  0
  -30.7280  -14.6150   19.8160 C   0  0  0  0  0  0  0  0  0  0  0  0
  -30.3650  -12.3940   18.8010 C   0  0  0  0  0  2  0  0  0  0  0  0
  -29.3490  -12.5520   17.6500 C   0  0  0  0  0  2  0  0  0  0  0  0
  -27.9080  -12.4280   18.1820 C   0  0  0  0  0  2  0  0  0  0  0  0
  -27.6520  -13.3160   19.4310 C   0  0  0  0  0  3  0  0  0  0  0  0
  -28.7800  -13.1510   20.4750 C   0  0  0  0  0  2  0  0  0  0  0  0
  -30.0550  -13.4310   19.8020 N   0  0  0  0  0  0  0  0  0  0  0  0
  -31.8570  -14.7280   19.3310 O   0  0  0  0  0  0  0  0  0  0  0  0
  -30.0260  -15.7180   20.1680 N   0  0  0  0  0  0  0  0  0  0  0  0
  -29.0860  -15.6010   20.5150 H   0  0  0  0  0  0  0  0  0  0  0  0
  -25.3390  -13.9630   20.3460 C   0  0  0  0  0  0  0  0  0  0  0  0
  -24.2820  -13.2070   20.7780 C   0  0  0  0  0  0  0  0  0  0  0  0
  -24.7010  -11.8470   20.6750 C   0  0  0  0  0  0  0  0  0  0  0  0
  -26.3350  -13.0610   20.0100 N   0  0  0  0  0  0  0  0  0  0  0  0
  -25.9610  -11.7810   20.2670 N   0  0  0  0  0  0  0  0  0  0  0  0
  -23.9570  -10.5970   20.8860 C   0  0  0  0  0  0  0  0  0  0  0  0
  -24.4010   -9.6180   21.8040 C   0  0  0  0  0  3  0  0  0  0  0  0
  -23.6580   -8.4360   22.0030 C   0  0  0  0  0  3  0  0  0  0  0  0
  -22.4570   -8.2220   21.2870 C   0  0  0  0  0  0  0  0  0  0  0  0
  -22.0310   -9.1880   20.3580 C   0  0  0  0  0  3  0  0  0  0  0  0
  -22.7750  -10.3630   20.1560 C   0  0  0  0  0  3  0  0  0  0  0  0
  -21.6840   -7.0910   21.3970 O   0  0  0  0  0  0  0  0  0  0  0  0
  -21.6140   -6.3780   22.5670 C   0  0  0  0  0  0  0  0  0  0  0  0
  -21.1900   -6.9710   23.7760 C   0  0  0  0  0  3  0  0  0  0  0  0
  -21.0650   -6.1860   24.9400 C   0  0  0  0  0  3  0  0  0  0  0  0
  -21.3550   -4.8090   24.8950 C   0  0  0  0  0  0  0  0  0  0  0  0
  -21.7740   -4.2160   23.6920 C   0  0  0  0  0  3  0  0  0  0  0  0
  -21.9000   -4.9990   22.5300 C   0  0  0  0  0  0  0  0  0  0  0  0
  -22.2810   -4.4180   21.3670 F   0  0  0  0  0  0  0  0  0  0  0  0
  -21.2290   -4.0530   26.0110 F   0  0  0  0  0  0  0  0  0  0  0  0
  -22.9240  -13.7120   21.1710 C   0  0  0  0  0  0  0  0  0  0  0  0
  -22.2530  -13.0160   22.0840 N   0  0  0  0  0  0  0  0  0  0  0  0
  -22.4690  -14.7570   20.7060 O   0  0  0  0  0  0  0  0  0  0  0  0
  -22.6330  -12.1690   22.4790 H   0  0  0  0  0  0  0  0  0  0  0  0
  -21.3460  -13.3340   22.3940 H   0  0  0  0  0  0  0  0  0  0  0  0
  -25.5280  -15.3340   20.1910 N   0  0  0  0  0  0  0  0  0  0  0  0
  -24.7810  -16.0010   20.3570 H   0  0  0  0  0  0  0  0  0  0  0  0
  -26.3490  -15.7570   19.7800 H   0  0  0  0  0  0  0  0  0  0  0  0
  -28.0450  -24.1640   20.0040 C   0  0  0  0  0  3  0  0  0  0  0  0
  -27.5610  -23.3890   18.9290 O   0  0  0  0  0  0  0  0  0  0  0  0
  -28.1170  -22.6050   18.9820 H   0  0  0  0  0  0  0  0  0  0  0  0
  -28.7540  -25.4650   19.4640 C   0  0  0  0  0  2  0  0  0  0  0  0
  -28.5530  -26.7180   20.1720 O   0  0  0  0  0  0  0  0  0  0  0  0
  -24.5250  -31.7520   23.2430 C   0  0  0  0  0  0  0  0  0  0  0  0
  -27.3500  -27.4140   20.1150 C   0  0  0  0  0  0  0  0  0  0  0  0
  -23.3820  -30.3300   21.5730 C   0  0  0  0  0  3  0  0  0  0  0  0
  -24.9020  -28.8660   20.1270 C   0  0  0  0  0  0  0  0  0  0  0  0
  -25.8990  -30.7720   21.4020 C   0  0  0  0  0  2  0  0  0  0  0  0
  -26.0380  -29.4130   20.7370 C   0  0  0  0  0  0  0  0  0  0  0  0
  -27.2600  -28.6920   20.7270 C   0  0  0  0  0  3  0  0  0  0  0  0
  -26.1900  -26.8930   19.4950 C   0  0  0  0  0  3  0  0  0  0  0  0
  -24.9770  -27.6110   19.5000 C   0  0  0  0  0  3  0  0  0  0  0  0
  -23.6250  -29.6790   20.1840 C   0  0  0  0  0  2  0  0  0  0  0  0
  -24.6190  -30.9680   22.1300 N   0  0  0  0  0  0  0  0  0  0  0  0
  -23.4310  -31.9760   23.7810 O   0  0  0  0  0  0  0  0  0  0  0  0
  -22.7640  -29.2720   22.5150 C   0  0  0  0  0  0  0  0  0  0  0  0
  -21.4450  -29.0490   22.3840 N   0  0  0  0  0  0  0  0  0  0  0  0
  -23.4670  -28.6580   23.3210 O   0  0  0  0  0  0  0  0  0  0  0  0
  -20.9370  -29.5970   21.7050 H   0  0  0  0  0  0  0  0  0  0  0  0
  -18.1130  -27.7450   22.8820 C   0  0  0  0  0  0  0  0  0  0  0  0
  -20.6640  -28.0720   23.1410 C   0  0  0  0  0  3  0  0  0  0  0  0
  -20.8030  -26.6570   22.5340 C   0  0  0  0  0  2  0  0  0  0  0  0
  -19.7030  -26.3230   21.5220 C   0  0  0  0  0  2  0  0  0  0  0  0
  -18.3220  -26.4160   22.1760 C   0  0  0  0  0  2  0  0  0  0  0  0
  -19.2110  -28.5300   23.3200 C   0  0  0  0  0  0  0  0  0  0  0  0
  -18.9610  -29.7720   23.9420 C   0  0  0  0  0  3  0  0  0  0  0  0
  -17.6440  -30.2310   24.1290 C   0  0  0  0  0  3  0  0  0  0  0  0
  -16.5600  -29.4440   23.7060 C   0  0  0  0  0  3  0  0  0  0  0  0
  -16.7950  -28.2020   23.0890 C   0  0  0  0  0  3  0  0  0  0  0  0
  -25.7830  -32.4220   23.8790 C   0  0  0  0  0  3  0  0  0  0  0  0
  -25.4260  -33.8090   24.2090 N   0  0  0  0  0  0  0  0  0  0  0  0
  -25.7330  -34.8740   23.4560 C   0  0  0  0  0  0  0  0  0  0  0  0
  -26.4160  -34.7950   22.4310 O   0  0  0  0  0  0  0  0  0  0  0  0
  -24.8160  -33.9420   25.0030 H   0  0  0  0  0  0  0  0  0  0  0  0
  -23.9480  -36.6090   23.0900 C   0  0  0  0  0  1  0  0  0  0  0  0
  -25.1950  -36.2450   23.9100 C   0  0  0  0  0  3  0  0  0  0  0  0
  -27.2910  -37.2010   24.7600 C   0  0  0  0  0  1  0  0  0  0  0  0
  -26.1940  -37.3320   23.8060 N   0  0  0  0  0  0  0  0  0  0  0  0
  -25.7570  -38.2380   23.9490 H   0  0  0  0  0  0  0  0  0  0  0  0
  -26.3140  -31.6660   25.1580 C   0  0  1  0  0  0  0  0  0  0  0  0
  -25.2190  -31.3850   26.2130 C   0  0  0  0  0  1  0  0  0  0  0  0
  -26.9500  -30.3120   24.7690 C   0  0  0  0  0  1  0  0  0  0  0  0
  -27.4290  -32.4980   25.8340 C   0  0  0  0  0  1  0  0  0  0  0  0
  2  7  1  0
  3  2  2  0
  4  7  1  0
  5  3  1  0
  5  4  2  0
  6  4  1  0
  6  1  1  0
  8  6  1  0
  9  3  1  0
  9 18  1  0
 10 18  1  0
 11 16  1  0
 12 13  1  0
 12 11  1  0
 14 13  1  0
 14 23  1  0
 14 15  1  0
 16 10  1  0
 16 15  1  0
 17 10  2  0
 18 19  1  0
 20 21  2  0
 21 40  1  0
 22 21  1  0
 22 25  1  0
 23 24  1  0
 23 20  1  0
 24 22  2  0
 25 26  1  0
 26 27  2  0
 28 31  1  0
 28 27  1  0
 29 28  2  0
 30 29  1  0
 30 25  2  0
 31 32  1  0
 32 33  1  0
 33 34  2  0
 35 34  1  0
 35 39  1  0
 36 35  2  0
 37 32  2  0
 37 36  1  0
 38 37  1  0
 40 41  1  0
 41 44  1  0
 41 43  1  0
 42 40  2  0
 45 20  1  0
 45 46  1  0
 47 45  1  0
 48 51  1  0
 48  1  1  0
 49 50  1  0
 49 48  1  0
 51 52  1  0
 53 64  2  0
 54 52  1  0
 54 59  1  0
 55 63  1  0
 55 65  1  0
 56 62  1  0
 56 58  1  0
 57 63  1  0
 58 57  1  0
 59 58  2  0
 60 61  1  0
 60 54  2  0
 61 56  2  0
 62 55  1  0
 63 53  1  0
 65 67  2  0
 66 65  1  0
 68 66  1  0
 69 78  2  0
 69 74  1  0
 70 66  1  0
 70 74  1  0
 71 70  1  0
 72 73  1  0
 72 71  1  0
 73 69  1  0
 74 75  2  0
 75 76  1  0
 77 76  2  0
 78 77  1  0
 79 53  1  0
 79 80  1  0
 79 89  1  0
 80 83  1  0
 81 85  1  0
 81 80  1  0
 82 81  2  0
 85 84  1  0
 87 85  1  0
 87 88  1  0
 87 86  1  0
 89 92  1  1
 89 90  1  0
 91 89  1  0
M  ISO  4  10 100  18 100  51 101  52 101
M  END
>  <TORSDO>  (57) 
F 21

>  <SCORE>  (57) 
-12.364

>  <name>  (57) 
56

>  <ligand_id>  (57) 
56

>  <original_smiles>  (57) 
[H]OC([H])(C([H])([H])Oc1c([H])c([H])c2c(c1[H])C([H])([H])N(C(=O)C([H])(N([H])C(=O)C([H])(N([H])C([H])([H])[H])C([H])([H])[H])C(C([H])([H])[H])(C([H])([H])[H])C([H])([H])[H])C([H])(C(=O)N([H])C1([H])c3c([H])c([H])c([H])c([H])c3C([H])([H])C([H])([H])C1([H])[H])C2([H])[H])C([H])([H])N([H])c1nc(C([H])([H])N([H])C(=O)N2C([H])([H])C([H])([H])C([H])([H])C([H])(n3nc(-c4c([H])c([H])c(Oc5c([H])c([H])c(F)c([H])c5F)c([H])c4[H])c(C(=O)N([H])[H])c3N([H])[H])C2([H])[H])c([H])s1

>  <smiles>  (57) 
[H]OC([H])(C([H])([H])Oc1c([H])c([H])c2c(c1[H])C([H])([H])N(C(=O)C([H])(N([H])C(=O)C([H])(N([H])C([H])([H])[H])C([H])([H])[H])C(C([H])([H])[H])(C([H])([H])[H])C([H])([H])[H])C([H])(C(=O)N([H])C1([H])c3c([H])c([H])c([H])c([H])c3C([H])([H])C([H])([H])C1([H])[H])C2([H])[H])C([H])([H])N([H])c1nc(C([H])([H])N([H])C(=O)N2C([H])([H])C([H])([H])C([H])([H])C([H])(n3nc(-c4c([H])c([H])c(Oc5c([H])c([H])c(F)c([H])c5F)c([H])c4[H])c(C(=O)N([H])[H])c3N([H])[H])C2([H])[H])c([H])s1

$$$$
57:0:0
     RDKit          3D

 94102  0  0  1  0  0  0  0  0999 V2000
  -28.6570  -21.1370   22.0930 C   0  0  0  0  0  1  0  0  0  0  0  0
  -29.1160  -21.5040   20.7260 N   0  0  1  0  0  4  0  0  0  0  0  0
  -30.0560  -21.8560   20.8210 H   0  0  0  0  0  0  0  0  0  0  0  0
  -29.2170  -20.2820   19.8520 C   0  0  0  0  0  2  0  0  0  0  0  0
  -30.7130  -14.6420   20.0700 C   0  0  0  0  0  0  0  0  0  0  0  0
  -30.2400  -12.5230   18.8660 C   0  0  0  0  0  2  0  0  0  0  0  0
  -29.2270  -12.7520   17.7270 C   0  0  0  0  0  2  0  0  0  0  0  0
  -27.7910  -12.5690   18.2510 C   0  0  0  0  0  2  0  0  0  0  0  0
  -27.5400  -13.3810   19.5460 C   0  0  0  0  0  3  0  0  0  0  0  0
  -28.6650  -13.1730   20.5750 C   0  0  0  0  0  2  0  0  0  0  0  0
  -29.9580  -13.4990   19.9430 N   0  0  0  0  0  0  0  0  0  0  0  0
  -31.6940  -14.8020   19.3340 O   0  0  0  0  0  0  0  0  0  0  0  0
  -31.5380  -19.5470   20.6240 C   0  0  0  0  0  3  0  0  0  0  0  0
  -32.3990  -18.5230   21.0240 C   0  0  0  0  0  3  0  0  0  0  0  0
  -30.2130  -19.1950   20.3290 C   0  0  0  0  0  0  0  0  0  0  0  0
  -30.7290  -16.9590   20.7640 C   0  0  0  0  0  0  0  0  0  0  0  0
  -30.1460  -15.2760   22.3790 C   0  0  0  0  0  1  0  0  0  0  0  0
  -31.9820  -17.2510   21.1110 N   0  0  0  0  0  0  0  0  0  0  0  0
  -29.8160  -17.8890   20.4170 N   0  0  0  0  0  0  0  0  0  0  0  0
  -30.3420  -15.6270   20.9580 N   0  0  0  0  0  0  0  0  0  0  0  0
  -25.2230  -13.9630   20.4940 C   0  0  0  0  0  0  0  0  0  0  0  0
  -24.1840  -13.1820   20.9200 C   0  0  0  0  0  0  0  0  0  0  0  0
  -24.6290  -11.8290   20.7900 C   0  0  0  0  0  0  0  0  0  0  0  0
  -26.2320  -13.0870   20.1250 N   0  0  0  0  0  0  0  0  0  0  0  0
  -25.8860  -11.7970   20.3650 N   0  0  0  0  0  0  0  0  0  0  0  0
  -23.9110  -10.5650   20.9920 C   0  0  0  0  0  0  0  0  0  0  0  0
  -24.3870   -9.5770   21.8840 C   0  0  0  0  0  3  0  0  0  0  0  0
  -23.6680   -8.3750   22.0700 C   0  0  0  0  0  3  0  0  0  0  0  0
  -22.4620   -8.1540   21.3640 C   0  0  0  0  0  0  0  0  0  0  0  0
  -22.0070   -9.1280   20.4590 C   0  0  0  0  0  3  0  0  0  0  0  0
  -22.7240  -10.3210   20.2700 C   0  0  0  0  0  3  0  0  0  0  0  0
  -21.7090   -7.0100   21.4640 O   0  0  0  0  0  0  0  0  0  0  0  0
  -21.6720   -6.2730   22.6200 C   0  0  0  0  0  0  0  0  0  0  0  0
  -21.2610   -6.8310   23.8510 C   0  0  0  0  0  3  0  0  0  0  0  0
  -21.1720   -6.0160   24.9980 C   0  0  0  0  0  3  0  0  0  0  0  0
  -21.4820   -4.6470   24.9140 C   0  0  0  0  0  0  0  0  0  0  0  0
  -21.8820   -4.0870   23.6880 C   0  0  0  0  0  3  0  0  0  0  0  0
  -21.9740   -4.8990   22.5440 C   0  0  0  0  0  0  0  0  0  0  0  0
  -22.3410   -4.3510   21.3610 F   0  0  0  0  0  0  0  0  0  0  0  0
  -21.3890   -3.8630   26.0140 F   0  0  0  0  0  0  0  0  0  0  0  0
  -22.8200  -13.6540   21.3380 C   0  0  0  0  0  0  0  0  0  0  0  0
  -22.1780  -12.9410   22.2560 N   0  0  0  0  0  0  0  0  0  0  0  0
  -22.3400  -14.6920   20.8870 O   0  0  0  0  0  0  0  0  0  0  0  0
  -22.5850  -12.1010   22.6420 H   0  0  0  0  0  0  0  0  0  0  0  0
  -21.2680  -13.2380   22.5780 H   0  0  0  0  0  0  0  0  0  0  0  0
  -25.3840  -15.3380   20.3660 N   0  0  0  0  0  0  0  0  0  0  0  0
  -24.6360  -15.9880   20.5780 H   0  0  0  0  0  0  0  0  0  0  0  0
  -26.2210  -15.7930   20.0210 H   0  0  0  0  0  0  0  0  0  0  0  0
  -28.3110  -22.6400   20.1400 C   0  0  0  0  0  2  0  0  0  0  0  0
  -28.8660  -24.1060   20.3700 C   0  0  0  0  0  3  0  0  0  0  0  0
  -29.0670  -24.3260   21.7550 O   0  0  0  0  0  0  0  0  0  0  0  0
  -29.3250  -25.2410   21.8480 H   0  0  0  0  0  0  0  0  0  0  0  0
  -27.8570  -25.2040   19.8840 C   0  0  0  0  0  2  0  0  0  0  0  0
  -28.1690  -26.6310   20.0540 O   0  0  0  0  0  0  0  0  0  0  0  0
  -24.5490  -31.9470   23.2790 C   0  0  0  0  0  0  0  0  0  0  0  0
  -27.0620  -27.4860   20.0380 C   0  0  0  0  0  0  0  0  0  0  0  0
  -23.2950  -30.5880   21.6420 C   0  0  0  0  0  3  0  0  0  0  0  0
  -24.7010  -29.0800   20.1400 C   0  0  0  0  0  0  0  0  0  0  0  0
  -25.8320  -30.9060   21.4050 C   0  0  0  0  0  2  0  0  0  0  0  0
  -25.8860  -29.5520   20.7210 C   0  0  0  0  0  0  0  0  0  0  0  0
  -27.0700  -28.7620   20.6690 C   0  0  0  0  0  3  0  0  0  0  0  0
  -25.8560  -27.0780   19.4180 C   0  0  0  0  0  3  0  0  0  0  0  0
  -24.6850  -27.8450   19.4840 C   0  0  0  0  0  3  0  0  0  0  0  0
  -23.4730  -29.9560   20.2380 C   0  0  0  0  0  2  0  0  0  0  0  0
  -24.5760  -31.1630   22.1620 N   0  0  0  0  0  0  0  0  0  0  0  0
  -23.4820  -32.2140   23.8510 O   0  0  0  0  0  0  0  0  0  0  0  0
  -22.6620  -29.5440   22.5930 C   0  0  0  0  0  0  0  0  0  0  0  0
  -21.3490  -29.3050   22.4420 N   0  0  0  0  0  0  0  0  0  0  0  0
  -23.3530  -28.9550   23.4280 O   0  0  0  0  0  0  0  0  0  0  0  0
  -20.8510  -29.8420   21.7460 H   0  0  0  0  0  0  0  0  0  0  0  0
  -18.0330  -27.9170   22.8400 C   0  0  0  0  0  0  0  0  0  0  0  0
  -20.5570  -28.3430   23.2080 C   0  0  0  0  0  3  0  0  0  0  0  0
  -20.7690  -26.9030   22.6870 C   0  0  0  0  0  2  0  0  0  0  0  0
  -19.7350  -26.4800   21.6390 C   0  0  0  0  0  2  0  0  0  0  0  0
  -18.3180  -26.5620   22.2170 C   0  0  0  0  0  2  0  0  0  0  0  0
  -19.0840  -28.7600   23.2920 C   0  0  0  0  0  0  0  0  0  0  0  0
  -18.7630  -30.0240   23.8330 C   0  0  0  0  0  3  0  0  0  0  0  0
  -17.4260  -30.4490   23.9250 C   0  0  0  0  0  3  0  0  0  0  0  0
  -16.3890  -29.6050   23.4910 C   0  0  0  0  0  3  0  0  0  0  0  0
  -16.6930  -28.3420   22.9550 C   0  0  0  0  0  3  0  0  0  0  0  0
  -25.8510  -32.5620   23.8730 C   0  0  0  0  0  3  0  0  0  0  0  0
  -25.5650  -33.9650   24.2080 N   0  0  0  0  0  0  0  0  0  0  0  0
  -25.8720  -35.0110   23.4300 C   0  0  0  0  0  0  0  0  0  0  0  0
  -26.5050  -34.8990   22.3760 O   0  0  0  0  0  0  0  0  0  0  0  0
  -25.0110  -34.1270   25.0370 H   0  0  0  0  0  0  0  0  0  0  0  0
  -24.1410  -36.8100   23.1190 C   0  0  0  0  0  1  0  0  0  0  0  0
  -25.4060  -36.4050   23.8940 C   0  0  0  0  0  3  0  0  0  0  0  0
  -27.5730  -37.2830   24.6460 C   0  0  0  0  0  1  0  0  0  0  0  0
  -26.4380  -37.4530   23.7410 N   0  0  0  0  0  0  0  0  0  0  0  0
  -26.0400  -38.3740   23.9050 H   0  0  0  0  0  0  0  0  0  0  0  0
  -26.3850  -31.7860   25.1390 C   0  0  1  0  0  0  0  0  0  0  0  0
  -25.3080  -31.5390   26.2200 C   0  0  0  0  0  1  0  0  0  0  0  0
  -26.9700  -30.4110   24.7380 C   0  0  0  0  0  1  0  0  0  0  0  0
  -27.5410  -32.5810   25.7910 C   0  0  0  0  0  1  0  0  0  0  0  0
  2  3  1  1
  2  1  1  0
  4 15  1  0
  4  2  1  0
  5 20  1  0
  6 11  1  0
  7  8  1  0
  7  6  1  0
  9  8  1  0
  9 24  1  0
  9 10  1  0
 11  5  1  0
 11 10  1  0
 12  5  2  0
 13 14  2  0
 14 18  1  0
 15 19  2  0
 15 13  1  0
 16 20  1  0
 16 18  2  0
 19 16  1  0
 20 17  1  0
 21 22  2  0
 22 41  1  0
 23 22  1  0
 23 26  1  0
 24 25  1  0
 24 21  1  0
 25 23  2  0
 26 27  1  0
 27 28  2  0
 29 32  1  0
 29 28  1  0
 30 29  2  0
 31 30  1  0
 31 26  2  0
 32 33  1  0
 33 34  1  0
 34 35  2  0
 36 35  1  0
 36 40  1  0
 37 36  2  0
 38 33  2  0
 38 37  1  0
 39 38  1  0
 41 42  1  0
 42 45  1  0
 42 44  1  0
 43 41  2  0
 46 21  1  0
 46 47  1  0
 48 46  1  0
 49 50  1  0
 49  2  1  0
 50 53  1  0
 50 51  1  0
 51 52  1  0
 53 54  1  0
 55 66  2  0
 56 54  1  0
 56 61  1  0
 57 65  1  0
 57 67  1  0
 58 64  1  0
 58 60  1  0
 59 65  1  0
 60 59  1  0
 61 60  2  0
 62 63  1  0
 62 56  2  0
 63 58  2  0
 64 57  1  0
 65 55  1  0
 67 69  2  0
 68 67  1  0
 70 68  1  0
 71 80  2  0
 71 76  1  0
 72 68  1  0
 72 76  1  0
 73 72  1  0
 74 75  1  0
 74 73  1  0
 75 71  1  0
 76 77  2  0
 77 78  1  0
 79 78  2  0
 80 79  1  0
 81 55  1  0
 81 82  1  0
 81 91  1  0
 82 85  1  0
 83 87  1  0
 83 82  1  0
 84 83  2  0
 87 86  1  0
 89 87  1  0
 89 90  1  0
 89 88  1  0
 91 94  1  1
 91 92  1  0
 93 91  1  0
M  ISO  4   5 100  20 100  53 101  54 101
M  END
>  <TORSDO>  (58) 
F 21

>  <SCORE>  (58) 
-12.143

>  <name>  (58) 
57

>  <ligand_id>  (58) 
57

>  <original_smiles>  (58) 
[H]OC([H])(C([H])([H])Oc1c([H])c([H])c2c(c1[H])C([H])([H])N(C(=O)C([H])(N([H])C(=O)C([H])(N([H])C([H])([H])[H])C([H])([H])[H])C(C([H])([H])[H])(C([H])([H])[H])C([H])([H])[H])C([H])(C(=O)N([H])C1([H])c3c([H])c([H])c([H])c([H])c3C([H])([H])C([H])([H])C1([H])[H])C2([H])[H])C([H])([H])[N+]([H])(C([H])([H])[H])C([H])([H])c1nc(N(C(=O)N2C([H])([H])C([H])([H])C([H])([H])C([H])(n3nc(-c4c([H])c([H])c(Oc5c([H])c([H])c(F)c([H])c5F)c([H])c4[H])c(C(=O)N([H])[H])c3N([H])[H])C2([H])[H])C([H])([H])[H])nc([H])c1[H]

>  <smiles>  (58) 
[H]OC([H])(C([H])([H])Oc1c([H])c([H])c2c(c1[H])C([H])([H])N(C(=O)C([H])(N([H])C(=O)C([H])(N([H])C([H])([H])[H])C([H])([H])[H])C(C([H])([H])[H])(C([H])([H])[H])C([H])([H])[H])C([H])(C(=O)N([H])C1([H])c3c([H])c([H])c([H])c([H])c3C([H])([H])C([H])([H])C1([H])[H])C2([H])[H])C([H])([H])[N+]([H])(C([H])([H])[H])C([H])([H])c1nc(N(C(=O)N2C([H])([H])C([H])([H])C([H])([H])C([H])(n3nc(-c4c([H])c([H])c(Oc5c([H])c([H])c(F)c([H])c5F)c([H])c4[H])c(C(=O)N([H])[H])c3N([H])[H])C2([H])[H])C([H])([H])[H])nc([H])c1[H]

$$$$
58:0:0
     RDKit          3D

101109  0  0  1  0  0  0  0  0999 V2000
  -28.2270  -21.0370   19.3290 N   0  0  0  0  0  4  0  0  0  0  0  0
  -27.3090  -20.6170   19.3270 H   0  0  0  0  0  0  0  0  0  0  0  0
  -28.6490  -20.8070   18.4460 H   0  0  0  0  0  0  0  0  0  0  0  0
  -28.9940  -20.3450   20.3980 C   0  0  0  0  0  2  0  0  0  0  0  0
  -30.6180  -14.4180   20.3800 C   0  0  0  0  0  0  0  0  0  0  0  0
  -30.2840  -12.2890   19.2470 C   0  0  0  0  0  2  0  0  0  0  0  0
  -29.3360  -12.5730   18.0620 C   0  0  0  0  0  2  0  0  0  0  0  0
  -27.8640  -12.4210   18.4970 C   0  0  0  0  0  2  0  0  0  0  0  0
  -27.5460  -13.2230   19.7880 C   0  0  0  0  0  3  0  0  0  0  0  0
  -28.6130  -12.9870   20.8830 C   0  0  0  0  0  2  0  0  0  0  0  0
  -29.9390  -13.2480   20.3050 N   0  0  0  0  0  0  0  0  0  0  0  0
  -31.8270  -14.5010   20.1450 O   0  0  0  0  0  0  0  0  0  0  0  0
  -30.5440  -19.2480   18.7270 C   0  0  0  0  0  3  0  0  0  0  0  0
  -29.6880  -19.1080   19.8410 C   0  0  0  0  0  0  0  0  0  0  0  0
  -30.8500  -16.9770   18.6610 C   0  0  0  0  0  0  0  0  0  0  0  0
  -30.0760  -16.8010   19.8620 C   0  0  0  0  0  0  0  0  0  0  0  0
  -31.0950  -18.1830   18.1200 N   0  0  0  0  0  0  0  0  0  0  0  0
  -29.4630  -17.8900   20.4100 N   0  0  0  0  0  0  0  0  0  0  0  0
  -31.3680  -15.9540   17.8840 N   0  0  0  0  0  0  0  0  0  0  0  0
  -29.8370  -15.5110   20.4360 N   0  0  0  0  0  0  0  0  0  0  0  0
  -32.0500  -16.2460   17.1970 H   0  0  0  0  0  0  0  0  0  0  0  0
  -31.7200  -15.1870   18.4600 H   0  0  0  0  0  0  0  0  0  0  0  0
  -28.9030  -15.3600   20.7790 H   0  0  0  0  0  0  0  0  0  0  0  0
  -25.1630  -13.8360   20.5340 C   0  0  0  0  0  0  0  0  0  0  0  0
  -24.0950  -13.0650   20.9050 C   0  0  0  0  0  0  0  0  0  0  0  0
  -24.5470  -11.7120   20.8560 C   0  0  0  0  0  0  0  0  0  0  0  0
  -26.2000  -12.9500   20.2810 N   0  0  0  0  0  0  0  0  0  0  0  0
  -25.8340  -11.6680   20.5330 N   0  0  0  0  0  0  0  0  0  0  0  0
  -23.8160  -10.4510   21.0430 C   0  0  0  0  0  0  0  0  0  0  0  0
  -24.2240   -9.5010   22.0040 C   0  0  0  0  0  3  0  0  0  0  0  0
  -23.5000   -8.3020   22.1770 C   0  0  0  0  0  3  0  0  0  0  0  0
  -22.3550   -8.0460   21.3840 C   0  0  0  0  0  0  0  0  0  0  0  0
  -21.9630   -8.9870   20.4160 C   0  0  0  0  0  3  0  0  0  0  0  0
  -22.6900  -10.1780   20.2410 C   0  0  0  0  0  3  0  0  0  0  0  0
  -21.6030   -6.8980   21.4670 O   0  0  0  0  0  0  0  0  0  0  0  0
  -21.4970   -6.1860   22.6330 C   0  0  0  0  0  0  0  0  0  0  0  0
  -20.9500   -6.7530   23.8070 C   0  0  0  0  0  3  0  0  0  0  0  0
  -20.7970   -5.9640   24.9620 C   0  0  0  0  0  3  0  0  0  0  0  0
  -21.1780   -4.6110   24.9470 C   0  0  0  0  0  0  0  0  0  0  0  0
  -21.7180   -4.0410   23.7790 C   0  0  0  0  0  3  0  0  0  0  0  0
  -21.8740   -4.8270   22.6240 C   0  0  0  0  0  0  0  0  0  0  0  0
  -22.3750   -4.2730   21.4950 F   0  0  0  0  0  0  0  0  0  0  0  0
  -21.0220   -3.8510   26.0540 F   0  0  0  0  0  0  0  0  0  0  0  0
  -22.7010  -13.5450   21.1860 C   0  0  0  0  0  0  0  0  0  0  0  0
  -21.9670  -12.8440   22.0430 N   0  0  0  0  0  0  0  0  0  0  0  0
  -22.2690  -14.5810   20.6840 O   0  0  0  0  0  0  0  0  0  0  0  0
  -22.3180  -12.0030   22.4760 H   0  0  0  0  0  0  0  0  0  0  0  0
  -21.0340  -13.1580   22.2730 H   0  0  0  0  0  0  0  0  0  0  0  0
  -25.3280  -15.2080   20.3640 N   0  0  0  0  0  0  0  0  0  0  0  0
  -24.5680  -15.8650   20.5160 H   0  0  0  0  0  0  0  0  0  0  0  0
  -26.1460  -15.6440   19.9590 H   0  0  0  0  0  0  0  0  0  0  0  0
  -28.0550  -22.5180   19.4180 C   0  0  0  0  0  3  0  0  0  0  0  0
  -27.6520  -22.9310   16.8800 C   0  0  0  0  0  1  0  0  0  0  0  0
  -25.6970  -22.3200   18.3760 C   0  0  0  0  0  1  0  0  0  0  0  0
  -27.0730  -23.0060   18.3090 C   0  0  0  0  0  3  0  0  0  0  0  0
  -29.4120  -23.2970   19.3850 C   0  0  0  0  0  2  0  0  0  0  0  0
  -29.3320  -24.8480   19.4530 C   0  0  0  0  0  3  0  0  0  0  0  0
  -30.6650  -25.3320   19.4940 O   0  0  0  0  0  0  0  0  0  0  0  0
  -30.6020  -26.2620   19.7060 H   0  0  0  0  0  0  0  0  0  0  0  0
  -28.6430  -25.3960   20.7170 C   0  0  0  0  0  2  0  0  0  0  0  0
  -28.5880  -26.8250   20.6490 O   0  0  0  0  0  0  0  0  0  0  0  0
  -24.5090  -31.9870   23.3100 C   0  0  0  0  0  0  0  0  0  0  0  0
  -27.3730  -27.4690   20.5580 C   0  0  0  0  0  0  0  0  0  0  0  0
  -23.4080  -30.5130   21.6510 C   0  0  0  0  0  3  0  0  0  0  0  0
  -24.9540  -28.9280   20.3800 C   0  0  0  0  0  0  0  0  0  0  0  0
  -25.9370  -30.8890   21.5850 C   0  0  0  0  0  2  0  0  0  0  0  0
  -26.0680  -29.4970   21.0060 C   0  0  0  0  0  0  0  0  0  0  0  0
  -27.2770  -28.7730   21.0920 C   0  0  0  0  0  3  0  0  0  0  0  0
  -26.2360  -26.9060   19.9300 C   0  0  0  0  0  3  0  0  0  0  0  0
  -25.0340  -27.6310   19.8400 C   0  0  0  0  0  3  0  0  0  0  0  0
  -23.7020  -29.7730   20.3180 C   0  0  0  0  0  2  0  0  0  0  0  0
  -24.6320  -31.1480   22.2410 N   0  0  0  0  0  0  0  0  0  0  0  0
  -23.3960  -32.2670   23.7770 O   0  0  0  0  0  0  0  0  0  0  0  0
  -22.7060  -29.5280   22.6120 C   0  0  0  0  0  0  0  0  0  0  0  0
  -21.3900  -29.3410   22.4210 N   0  0  0  0  0  0  0  0  0  0  0  0
  -23.3450  -28.9300   23.4820 O   0  0  0  0  0  0  0  0  0  0  0  0
  -20.9380  -29.8760   21.6940 H   0  0  0  0  0  0  0  0  0  0  0  0
  -17.9810  -28.2110   22.8230 C   0  0  0  0  0  0  0  0  0  0  0  0
  -20.5330  -28.4260   23.1750 C   0  0  0  0  0  3  0  0  0  0  0  0
  -20.6290  -26.9870   22.6190 C   0  0  0  0  0  2  0  0  0  0  0  0
  -19.5540  -26.6720   21.5740 C   0  0  0  0  0  2  0  0  0  0  0  0
  -18.1560  -26.8500   22.1710 C   0  0  0  0  0  2  0  0  0  0  0  0
  -19.0980  -28.9580   23.2810 C   0  0  0  0  0  0  0  0  0  0  0  0
  -18.8850  -30.2330   23.8470 C   0  0  0  0  0  3  0  0  0  0  0  0
  -17.5840  -30.7600   23.9620 C   0  0  0  0  0  3  0  0  0  0  0  0
  -16.4800  -30.0090   23.5220 C   0  0  0  0  0  3  0  0  0  0  0  0
  -16.6790  -28.7360   22.9580 C   0  0  0  0  0  3  0  0  0  0  0  0
  -25.7530  -32.6480   23.9810 C   0  0  0  0  0  3  0  0  0  0  0  0
  -25.4170  -34.0510   24.2500 N   0  0  0  0  0  0  0  0  0  0  0  0
  -25.7830  -35.0820   23.4760 C   0  0  0  0  0  0  0  0  0  0  0  0
  -26.5080  -34.9530   22.4860 O   0  0  0  0  0  0  0  0  0  0  0  0
  -24.7800  -34.2250   25.0120 H   0  0  0  0  0  0  0  0  0  0  0  0
  -24.0660  -36.8500   22.9630 C   0  0  0  0  0  1  0  0  0  0  0  0
  -25.2590  -36.4800   23.8610 C   0  0  0  0  0  3  0  0  0  0  0  0
  -27.3290  -37.4130   24.7980 C   0  0  0  0  0  1  0  0  0  0  0  0
  -26.2890  -37.5380   23.7770 N   0  0  0  0  0  0  0  0  0  0  0  0
  -25.8690  -38.4590   23.8670 H   0  0  0  0  0  0  0  0  0  0  0  0
  -26.2090  -31.9200   25.3070 C   0  0  1  0  0  0  0  0  0  0  0  0
  -25.0580  -31.6820   26.3120 C   0  0  0  0  0  1  0  0  0  0  0  0
  -26.8450  -30.5470   24.9850 C   0  0  0  0  0  1  0  0  0  0  0  0
  -27.2970  -32.7580   26.0180 C   0  0  0  0  0  1  0  0  0  0  0  0
  1 52  1  0
  1  4  1  0
  2  1  1  0
  3  1  1  0
  5 20  1  0
  6 11  1  0
  7  8  1  0
  7  6  1  0
  9  8  1  0
  9 27  1  0
  9 10  1  0
 11  5  1  0
 11 10  1  0
 12  5  2  0
 13 14  1  0
 14  4  1  0
 14 18  2  0
 15 16  2  0
 16 18  1  0
 16 20  1  0
 17 15  1  0
 17 13  2  0
 19 22  1  0
 19 15  1  0
 20 23  1  0
 21 19  1  0
 24 25  2  0
 25 44  1  0
 26 25  1  0
 26 29  1  0
 27 28  1  0
 27 24  1  0
 28 26  2  0
 29 30  1  0
 30 31  2  0
 32 35  1  0
 32 31  1  0
 33 32  2  0
 34 33  1  0
 34 29  2  0
 35 36  1  0
 36 37  1  0
 37 38  2  0
 39 38  1  0
 39 43  1  0
 40 39  2  0
 41 36  2  0
 41 40  1  0
 42 41  1  0
 44 45  1  0
 45 48  1  0
 45 47  1  0
 46 44  2  0
 49 50  1  0
 49 24  1  0
 51 49  1  0
 52 56  1  0
 53 55  1  0
 55 54  1  0
 55 52  1  0
 57 56  1  0
 57 58  1  0
 57 60  1  0
 58 59  1  0
 61 60  1  0
 62 73  2  0
 63 61  1  0
 63 68  1  0
 64 72  1  0
 64 74  1  0
 65 67  1  0
 66 72  1  0
 67 68  2  0
 67 66  1  0
 69 63  2  0
 70 69  1  0
 70 65  2  0
 71 65  1  0
 71 64  1  0
 72 62  1  0
 74 76  2  0
 75 74  1  0
 77 75  1  0
 78 87  2  0
 78 83  1  0
 79 75  1  0
 79 83  1  0
 80 79  1  0
 81 82  1  0
 81 80  1  0
 82 78  1  0
 83 84  2  0
 84 85  1  0
 86 85  2  0
 87 86  1  0
 88 62  1  0
 88 89  1  0
 88 98  1  0
 89 92  1  0
 90 94  1  0
 90 89  1  0
 91 90  2  0
 94 93  1  0
 96 94  1  0
 96 97  1  0
 96 95  1  0
 98101  1  1
 98 99  1  0
100 98  1  0
M  ISO  4   5 100  20 100  60 101  61 101
M  END
>  <TORSDO>  (59) 
F 23

>  <SCORE>  (59) 
-12.580

>  <name>  (59) 
58

>  <ligand_id>  (59) 
58

>  <original_smiles>  (59) 
[H]OC([H])(C([H])([H])Oc1c([H])c([H])c2c(c1[H])C([H])([H])N(C(=O)C([H])(N([H])C(=O)C([H])(N([H])C([H])([H])[H])C([H])([H])[H])C(C([H])([H])[H])(C([H])([H])[H])C([H])([H])[H])C([H])(C(=O)N([H])C1([H])c3c([H])c([H])c([H])c([H])c3C([H])([H])C([H])([H])C1([H])[H])C2([H])[H])C([H])([H])C([H])(C([H])(C([H])([H])[H])C([H])([H])[H])[N+]([H])([H])C([H])([H])c1nc(N([H])C(=O)N2C([H])([H])C([H])([H])C([H])([H])C([H])(n3nc(-c4c([H])c([H])c(Oc5c([H])c([H])c(F)c([H])c5F)c([H])c4[H])c(C(=O)N([H])[H])c3N([H])[H])C2([H])[H])c(N([H])[H])nc1[H]

>  <smiles>  (59) 
[H]OC([H])(C([H])([H])Oc1c([H])c([H])c2c(c1[H])C([H])([H])N(C(=O)C([H])(N([H])C(=O)C([H])(N([H])C([H])([H])[H])C([H])([H])[H])C(C([H])([H])[H])(C([H])([H])[H])C([H])([H])[H])C([H])(C(=O)N([H])C1([H])c3c([H])c([H])c([H])c([H])c3C([H])([H])C([H])([H])C1([H])[H])C2([H])[H])C([H])([H])C([H])(C([H])(C([H])([H])[H])C([H])([H])[H])[N+]([H])([H])C([H])([H])c1nc(N([H])C(=O)N2C([H])([H])C([H])([H])C([H])([H])C([H])(n3nc(-c4c([H])c([H])c(Oc5c([H])c([H])c(F)c([H])c5F)c([H])c4[H])c(C(=O)N([H])[H])c3N([H])[H])C2([H])[H])c(N([H])[H])nc1[H]

$$$$
59:0:0
     RDKit          3D

 91 99  0  0  1  0  0  0  0  0999 V2000
  -28.8920  -22.2350   20.7140 C   0  0  0  0  0  2  0  0  0  0  0  0
  -28.7930  -20.9390   19.9250 N   0  0  0  0  0  0  0  0  0  0  0  0
  -27.9980  -20.9190   19.2940 H   0  0  0  0  0  0  0  0  0  0  0  0
  -30.5190  -14.7980   20.3720 C   0  0  0  0  0  0  0  0  0  0  0  0
  -30.3720  -12.5030   19.3690 C   0  0  0  0  0  2  0  0  0  0  0  0
  -29.4260  -12.5510   18.1470 C   0  0  0  0  0  2  0  0  0  0  0  0
  -27.9560  -12.3730   18.5800 C   0  0  0  0  0  2  0  0  0  0  0  0
  -27.5770  -13.2660   19.7910 C   0  0  0  0  0  3  0  0  0  0  0  0
  -28.6370  -13.1790   20.9110 C   0  0  0  0  0  2  0  0  0  0  0  0
  -29.9280  -13.5520   20.3150 N   0  0  0  0  0  0  0  0  0  0  0  0
  -31.7170  -14.9170   20.0910 O   0  0  0  0  0  0  0  0  0  0  0  0
  -28.8160  -18.3200   20.0200 C   0  0  0  0  0  3  0  0  0  0  0  0
  -29.8110  -17.3670   20.4900 C   0  0  0  0  0  0  0  0  0  0  0  0
  -29.2830  -19.6110   20.2710 C   0  0  0  0  0  0  0  0  0  0  0  0
  -30.8230  -18.0650   21.0060 N   0  0  0  0  0  0  0  0  0  0  0  0
  -29.6560  -15.8860   20.4760 N   0  0  0  0  0  0  0  0  0  0  0  0
  -30.4960  -19.4480   20.8900 O   0  0  0  0  0  0  0  0  0  0  0  0
  -28.6950  -15.5910   20.5100 H   0  0  0  0  0  0  0  0  0  0  0  0
  -25.1910  -13.8610   20.5210 C   0  0  0  0  0  0  0  0  0  0  0  0
  -24.1260  -13.0900   20.8970 C   0  0  0  0  0  0  0  0  0  0  0  0
  -24.5900  -11.7390   20.8690 C   0  0  0  0  0  0  0  0  0  0  0  0
  -26.2340  -12.9810   20.2850 N   0  0  0  0  0  0  0  0  0  0  0  0
  -25.8790  -11.6990   20.5580 N   0  0  0  0  0  0  0  0  0  0  0  0
  -23.8620  -10.4770   21.0630 C   0  0  0  0  0  0  0  0  0  0  0  0
  -24.3060   -9.5040   21.9840 C   0  0  0  0  0  3  0  0  0  0  0  0
  -23.5780   -8.3070   22.1660 C   0  0  0  0  0  3  0  0  0  0  0  0
  -22.3960   -8.0770   21.4240 C   0  0  0  0  0  0  0  0  0  0  0  0
  -21.9720   -9.0390   20.4910 C   0  0  0  0  0  3  0  0  0  0  0  0
  -22.7000  -10.2270   20.3080 C   0  0  0  0  0  3  0  0  0  0  0  0
  -21.6390   -6.9330   21.5160 O   0  0  0  0  0  0  0  0  0  0  0  0
  -21.6170   -6.1750   22.6590 C   0  0  0  0  0  0  0  0  0  0  0  0
  -21.2330   -6.7180   23.9050 C   0  0  0  0  0  3  0  0  0  0  0  0
  -21.1560   -5.8870   25.0410 C   0  0  0  0  0  3  0  0  0  0  0  0
  -21.4530   -4.5140   24.9320 C   0  0  0  0  0  0  0  0  0  0  0  0
  -21.8310   -3.9720   23.6910 C   0  0  0  0  0  3  0  0  0  0  0  0
  -21.9090   -4.8000   22.5570 C   0  0  0  0  0  0  0  0  0  0  0  0
  -22.2530   -4.2680   21.3600 F   0  0  0  0  0  0  0  0  0  0  0  0
  -21.3710   -3.7150   26.0210 F   0  0  0  0  0  0  0  0  0  0  0  0
  -22.7290  -13.5690   21.1650 C   0  0  0  0  0  0  0  0  0  0  0  0
  -21.9990  -12.8760   22.0320 N   0  0  0  0  0  0  0  0  0  0  0  0
  -22.2930  -14.5940   20.6410 O   0  0  0  0  0  0  0  0  0  0  0  0
  -22.3640  -12.0490   22.4790 H   0  0  0  0  0  0  0  0  0  0  0  0
  -21.0610  -13.1790   22.2540 H   0  0  0  0  0  0  0  0  0  0  0  0
  -25.3510  -15.2320   20.3360 N   0  0  0  0  0  0  0  0  0  0  0  0
  -24.5680  -15.8710   20.4310 H   0  0  0  0  0  0  0  0  0  0  0  0
  -26.1650  -15.6680   19.9270 H   0  0  0  0  0  0  0  0  0  0  0  0
  -28.6500  -23.6640   19.9430 C   0  0  0  0  0  3  0  0  0  0  0  0
  -29.9000  -23.9500   19.3460 O   0  0  0  0  0  0  0  0  0  0  0  0
  -29.8210  -24.8140   18.9500 H   0  0  0  0  0  0  0  0  0  0  0  0
  -28.2480  -25.0180   20.7640 C   0  0  0  0  0  2  0  0  0  0  0  0
  -28.3330  -26.4090   20.1800 O   0  0  0  0  0  0  0  0  0  0  0  0
  -24.6250  -31.8930   23.2300 C   0  0  0  0  0  0  0  0  0  0  0  0
  -27.2200  -27.2760   20.2030 C   0  0  0  0  0  0  0  0  0  0  0  0
  -23.4160  -30.4850   21.6020 C   0  0  0  0  0  3  0  0  0  0  0  0
  -24.8610  -28.9150   20.1830 C   0  0  0  0  0  0  0  0  0  0  0  0
  -25.9560  -30.7950   21.4070 C   0  0  0  0  0  2  0  0  0  0  0  0
  -26.0350  -29.4060   20.7700 C   0  0  0  0  0  0  0  0  0  0  0  0
  -27.2200  -28.6010   20.7610 C   0  0  0  0  0  3  0  0  0  0  0  0
  -26.0220  -26.8460   19.5980 C   0  0  0  0  0  3  0  0  0  0  0  0
  -24.8590  -27.6440   19.5860 C   0  0  0  0  0  3  0  0  0  0  0  0
  -23.6270  -29.7980   20.2260 C   0  0  0  0  0  2  0  0  0  0  0  0
  -24.6850  -31.0770   22.1350 N   0  0  0  0  0  0  0  0  0  0  0  0
  -23.5440  -32.1730   23.7670 O   0  0  0  0  0  0  0  0  0  0  0  0
  -22.7540  -29.4770   22.5720 C   0  0  0  0  0  0  0  0  0  0  0  0
  -21.4270  -29.2990   22.4530 N   0  0  0  0  0  0  0  0  0  0  0  0
  -23.4360  -28.8560   23.3930 O   0  0  0  0  0  0  0  0  0  0  0  0
  -20.9360  -29.8520   21.7650 H   0  0  0  0  0  0  0  0  0  0  0  0
  -18.0540  -28.0920   22.9680 C   0  0  0  0  0  0  0  0  0  0  0  0
  -20.6130  -28.3650   23.2330 C   0  0  0  0  0  3  0  0  0  0  0  0
  -20.7190  -26.9300   22.6690 C   0  0  0  0  0  2  0  0  0  0  0  0
  -19.6180  -26.5940   21.6590 C   0  0  0  0  0  2  0  0  0  0  0  0
  -18.2360  -26.7380   22.3030 C   0  0  0  0  0  2  0  0  0  0  0  0
  -19.1710  -28.8630   23.3900 C   0  0  0  0  0  0  0  0  0  0  0  0
  -18.9470  -30.1290   23.9730 C   0  0  0  0  0  3  0  0  0  0  0  0
  -17.6400  -30.6250   24.1380 C   0  0  0  0  0  3  0  0  0  0  0  0
  -16.5390  -29.8520   23.7300 C   0  0  0  0  0  3  0  0  0  0  0  0
  -16.7470  -28.5880   23.1510 C   0  0  0  0  0  3  0  0  0  0  0  0
  -25.9090  -32.5310   23.8450 C   0  0  0  0  0  3  0  0  0  0  0  0
  -26.4350  -31.7610   25.1190 C   0  0  1  0  0  0  0  0  0  0  0  0
  -25.3500  -31.5240   26.1950 C   0  0  0  0  0  1  0  0  0  0  0  0
  -27.0160  -30.3830   24.7260 C   0  0  0  0  0  1  0  0  0  0  0  0
  -27.5900  -32.5570   25.7710 C   0  0  0  0  0  1  0  0  0  0  0  0
  -25.5970  -33.9280   24.1790 N   0  0  0  0  0  0  0  0  0  0  0  0
  -25.9220  -34.9840   23.4220 C   0  0  0  0  0  0  0  0  0  0  0  0
  -26.5830  -34.8850   22.3850 O   0  0  0  0  0  0  0  0  0  0  0  0
  -25.0100  -34.0780   24.9860 H   0  0  0  0  0  0  0  0  0  0  0  0
  -24.1860  -36.7740   23.0870 C   0  0  0  0  0  1  0  0  0  0  0  0
  -25.4350  -36.3700   23.8870 C   0  0  0  0  0  3  0  0  0  0  0  0
  -27.5760  -37.2580   24.7010 C   0  0  0  0  0  1  0  0  0  0  0  0
  -26.4640  -37.4270   23.7680 N   0  0  0  0  0  0  0  0  0  0  0  0
  -26.0580  -38.3450   23.9220 H   0  0  0  0  0  0  0  0  0  0  0  0
  2 14  1  0
  2  1  1  0
  3  2  1  0
  4 16  1  0
  5 10  1  0
  6  7  1  0
  6  5  1  0
  8  7  1  0
  8 22  1  0
  8  9  1  0
 10  4  1  0
 10  9  1  0
 11  4  2  0
 12 14  2  0
 12 13  1  0
 13 15  2  0
 14 17  1  0
 16 13  1  0
 16 18  1  0
 17 15  1  0
 19 20  2  0
 20 39  1  0
 21 20  1  0
 21 24  1  0
 22 19  1  0
 22 23  1  0
 23 21  2  0
 24 25  1  0
 25 26  2  0
 27 30  1  0
 27 26  1  0
 28 27  2  0
 29 28  1  0
 29 24  2  0
 30 31  1  0
 31 32  1  0
 32 33  2  0
 34 33  1  0
 34 38  1  0
 35 34  2  0
 36 31  2  0
 36 35  1  0
 37 36  1  0
 39 40  1  0
 40 43  1  0
 40 42  1  0
 41 39  2  0
 44 45  1  0
 44 19  1  0
 46 44  1  0
 47  1  1  0
 47 50  1  0
 48 47  1  0
 49 48  1  0
 51 53  1  0
 51 50  1  0
 52 63  2  0
 53 58  1  0
 54 62  1  0
 54 64  1  0
 55 61  1  0
 55 57  1  0
 56 62  1  0
 57 56  1  0
 58 57  2  0
 59 53  2  0
 60 59  1  0
 60 55  2  0
 61 54  1  0
 62 52  1  0
 64 66  2  0
 65 64  1  0
 67 65  1  0
 68 77  2  0
 68 73  1  0
 69 65  1  0
 69 73  1  0
 70 69  1  0
 71 72  1  0
 71 70  1  0
 72 68  1  0
 73 74  2  0
 74 75  1  0
 76 75  2  0
 77 76  1  0
 78 52  1  0
 78 83  1  0
 78 79  1  0
 79 82  1  1
 79 80  1  0
 81 79  1  0
 83 86  1  0
 84 88  1  0
 84 83  1  0
 85 84  2  0
 88 87  1  0
 90 88  1  0
 90 91  1  0
 90 89  1  0
M  ISO  4   4 100  16 100  50 101  51 101
M  END
>  <TORSDO>  (60) 
F 20

>  <SCORE>  (60) 
-14.061

>  <name>  (60) 
59

>  <ligand_id>  (60) 
59

>  <original_smiles>  (60) 
[H]OC([H])(C([H])([H])Oc1c([H])c([H])c2c(c1[H])C([H])([H])N(C(=O)C([H])(N([H])C(=O)C([H])(N([H])C([H])([H])[H])C([H])([H])[H])C(C([H])([H])[H])(C([H])([H])[H])C([H])([H])[H])C([H])(C(=O)N([H])C1([H])c3c([H])c([H])c([H])c([H])c3C([H])([H])C([H])([H])C1([H])[H])C2([H])[H])C([H])([H])N([H])c1onc(N([H])C(=O)N2C([H])([H])C([H])([H])C([H])([H])C([H])(n3nc(-c4c([H])c([H])c(Oc5c([H])c([H])c(F)c([H])c5F)c([H])c4[H])c(C(=O)N([H])[H])c3N([H])[H])C2([H])[H])c1[H]

>  <smiles>  (60) 
[H]OC([H])(C([H])([H])Oc1c([H])c([H])c2c(c1[H])C([H])([H])N(C(=O)C([H])(N([H])C(=O)C([H])(N([H])C([H])([H])[H])C([H])([H])[H])C(C([H])([H])[H])(C([H])([H])[H])C([H])([H])[H])C([H])(C(=O)N([H])C1([H])c3c([H])c([H])c([H])c([H])c3C([H])([H])C([H])([H])C1([H])[H])C2([H])[H])C([H])([H])N([H])c1onc(N([H])C(=O)N2C([H])([H])C([H])([H])C([H])([H])C([H])(n3nc(-c4c([H])c([H])c(Oc5c([H])c([H])c(F)c([H])c5F)c([H])c4[H])c(C(=O)N([H])[H])c3N([H])[H])C2([H])[H])c1[H]

$$$$
60:0:0
     RDKit          3D

 94102  0  0  1  0  0  0  0  0999 V2000
  -30.9850  -21.4790   19.3040 C   0  0  0  0  0  1  0  0  0  0  0  0
  -29.9390  -21.6850   20.4170 C   0  0  0  0  0  3  0  0  0  0  0  0
  -29.1690  -20.4440   20.5990 N   0  0  0  0  0  0  0  0  0  0  0  0
  -28.2840  -20.4100   20.0990 H   0  0  0  0  0  0  0  0  0  0  0  0
  -30.6620  -14.4670   20.4400 C   0  0  0  0  0  0  0  0  0  0  0  0
  -30.3580  -12.3520   19.1910 C   0  0  0  0  0  2  0  0  0  0  0  0
  -29.4060  -12.5960   18.0020 C   0  0  0  0  0  2  0  0  0  0  0  0
  -27.9320  -12.4580   18.4360 C   0  0  0  0  0  2  0  0  0  0  0  0
  -27.6130  -13.2540   19.7300 C   0  0  0  0  0  3  0  0  0  0  0  0
  -28.6690  -12.9640   20.8180 C   0  0  0  0  0  2  0  0  0  0  0  0
  -29.9970  -13.2920   20.2640 N   0  0  0  0  0  0  0  0  0  0  0  0
  -31.7310  -14.7230   19.8710 O   0  0  0  0  0  0  0  0  0  0  0  0
  -30.8630  -18.8610   21.6650 C   0  0  0  0  0  0  0  0  0  0  0  0
  -29.7380  -19.1980   20.9320 C   0  0  0  0  0  0  0  0  0  0  0  0
  -30.1240  -16.7560   21.1650 C   0  0  0  0  0  0  0  0  0  0  0  0
  -31.8230  -19.7840   22.3540 C   0  0  0  0  0  1  0  0  0  0  0  0
  -31.0650  -17.4730   21.7920 N   0  0  0  0  0  0  0  0  0  0  0  0
  -30.0550  -15.3420   21.2600 N   0  0  0  0  0  0  0  0  0  0  0  0
  -28.8950  -17.7540   20.3980 S   0  0  0  0  0  0  0  0  0  0  0  0
  -29.2080  -14.9840   21.6740 H   0  0  0  0  0  0  0  0  0  0  0  0
  -25.2120  -13.8640   20.4340 C   0  0  0  0  0  0  0  0  0  0  0  0
  -24.1450  -13.0930   20.8100 C   0  0  0  0  0  0  0  0  0  0  0  0
  -24.6050  -11.7400   20.7790 C   0  0  0  0  0  0  0  0  0  0  0  0
  -26.2570  -12.9820   20.2050 N   0  0  0  0  0  0  0  0  0  0  0  0
  -25.8930  -11.7000   20.4640 N   0  0  0  0  0  0  0  0  0  0  0  0
  -23.8800  -10.4780   20.9750 C   0  0  0  0  0  0  0  0  0  0  0  0
  -24.3060   -9.5230   21.9240 C   0  0  0  0  0  3  0  0  0  0  0  0
  -23.5810   -8.3260   22.1090 C   0  0  0  0  0  3  0  0  0  0  0  0
  -22.4190   -8.0740   21.3420 C   0  0  0  0  0  0  0  0  0  0  0  0
  -22.0120   -9.0190   20.3820 C   0  0  0  0  0  3  0  0  0  0  0  0
  -22.7370  -10.2090   20.1970 C   0  0  0  0  0  3  0  0  0  0  0  0
  -21.6680   -6.9280   21.4330 O   0  0  0  0  0  0  0  0  0  0  0  0
  -21.5940   -6.2070   22.5970 C   0  0  0  0  0  0  0  0  0  0  0  0
  -21.1240   -6.7790   23.8000 C   0  0  0  0  0  3  0  0  0  0  0  0
  -20.9980   -5.9840   24.9570 C   0  0  0  0  0  3  0  0  0  0  0  0
  -21.3300   -4.6170   24.9110 C   0  0  0  0  0  0  0  0  0  0  0  0
  -21.7910   -4.0430   23.7130 C   0  0  0  0  0  3  0  0  0  0  0  0
  -21.9190   -4.8360   22.5590 C   0  0  0  0  0  0  0  0  0  0  0  0
  -22.3440   -4.2730   21.4030 F   0  0  0  0  0  0  0  0  0  0  0  0
  -21.2010   -3.8520   26.0200 F   0  0  0  0  0  0  0  0  0  0  0  0
  -22.7490  -13.5720   21.0900 C   0  0  0  0  0  0  0  0  0  0  0  0
  -22.0240  -12.8760   21.9600 N   0  0  0  0  0  0  0  0  0  0  0  0
  -22.3070  -14.5950   20.5690 O   0  0  0  0  0  0  0  0  0  0  0  0
  -22.3920  -12.0470   22.4010 H   0  0  0  0  0  0  0  0  0  0  0  0
  -21.0880  -13.1790   22.1900 H   0  0  0  0  0  0  0  0  0  0  0  0
  -25.3750  -15.2340   20.2550 N   0  0  0  0  0  0  0  0  0  0  0  0
  -24.6050  -15.8840   20.3660 H   0  0  0  0  0  0  0  0  0  0  0  0
  -26.2210  -15.6770   19.9220 H   0  0  0  0  0  0  0  0  0  0  0  0
  -28.9610  -22.8590   20.0840 C   0  0  0  0  0  2  0  0  0  0  0  0
  -29.4170  -24.3550   20.2120 C   0  0  0  0  0  3  0  0  0  0  0  0
  -30.5110  -24.6360   19.3530 O   0  0  0  0  0  0  0  0  0  0  0  0
  -31.2830  -24.2280   19.7310 H   0  0  0  0  0  0  0  0  0  0  0  0
  -28.2600  -25.2970   19.7820 C   0  0  0  0  0  2  0  0  0  0  0  0
  -28.3800  -26.6800   20.1730 O   0  0  0  0  0  0  0  0  0  0  0  0
  -24.5930  -31.8940   23.2470 C   0  0  0  0  0  0  0  0  0  0  0  0
  -27.2160  -27.4390   20.1380 C   0  0  0  0  0  0  0  0  0  0  0  0
  -23.3810  -30.5030   21.6030 C   0  0  0  0  0  3  0  0  0  0  0  0
  -24.8280  -28.9760   20.1650 C   0  0  0  0  0  0  0  0  0  0  0  0
  -25.9120  -30.8500   21.4050 C   0  0  0  0  0  2  0  0  0  0  0  0
  -25.9900  -29.4820   20.7570 C   0  0  0  0  0  0  0  0  0  0  0  0
  -27.1870  -28.7210   20.7420 C   0  0  0  0  0  3  0  0  0  0  0  0
  -26.0270  -26.9650   19.5290 C   0  0  0  0  0  3  0  0  0  0  0  0
  -24.8410  -27.7170   19.5480 C   0  0  0  0  0  3  0  0  0  0  0  0
  -23.5860  -29.8360   20.2180 C   0  0  0  0  0  2  0  0  0  0  0  0
  -24.6480  -31.0970   22.1420 N   0  0  0  0  0  0  0  0  0  0  0  0
  -23.5140  -32.1650   23.7910 O   0  0  0  0  0  0  0  0  0  0  0  0
  -22.7310  -29.4750   22.5580 C   0  0  0  0  0  0  0  0  0  0  0  0
  -21.4060  -29.2940   22.4320 N   0  0  0  0  0  0  0  0  0  0  0  0
  -23.4170  -28.8450   23.3680 O   0  0  0  0  0  0  0  0  0  0  0  0
  -20.9160  -29.8560   21.7510 H   0  0  0  0  0  0  0  0  0  0  0  0
  -18.0280  -28.1160   22.9370 C   0  0  0  0  0  0  0  0  0  0  0  0
  -20.5880  -28.3560   23.2010 C   0  0  0  0  0  3  0  0  0  0  0  0
  -20.6790  -26.9280   22.6130 C   0  0  0  0  0  2  0  0  0  0  0  0
  -19.5710  -26.6190   21.6020 C   0  0  0  0  0  2  0  0  0  0  0  0
  -18.1930  -26.7690   22.2520 C   0  0  0  0  0  2  0  0  0  0  0  0
  -19.1530  -28.8670   23.3670 C   0  0  0  0  0  0  0  0  0  0  0  0
  -18.9450  -30.1290   23.9650 C   0  0  0  0  0  3  0  0  0  0  0  0
  -17.6440  -30.6380   24.1380 C   0  0  0  0  0  3  0  0  0  0  0  0
  -16.5330  -29.8830   23.7240 C   0  0  0  0  0  3  0  0  0  0  0  0
  -16.7260  -28.6230   23.1290 C   0  0  0  0  0  3  0  0  0  0  0  0
  -25.8830  -32.5180   23.8660 C   0  0  0  0  0  3  0  0  0  0  0  0
  -25.5810  -33.9170   24.1990 N   0  0  0  0  0  0  0  0  0  0  0  0
  -25.9050  -34.9670   23.4330 C   0  0  0  0  0  0  0  0  0  0  0  0
  -26.5650  -34.8630   22.3950 O   0  0  0  0  0  0  0  0  0  0  0  0
  -24.9990  -34.0750   25.0080 H   0  0  0  0  0  0  0  0  0  0  0  0
  -24.1700  -36.7560   23.0930 C   0  0  0  0  0  1  0  0  0  0  0  0
  -25.4200  -36.3550   23.8920 C   0  0  0  0  0  3  0  0  0  0  0  0
  -27.5600  -37.2430   24.7050 C   0  0  0  0  0  1  0  0  0  0  0  0
  -26.4510  -37.4090   23.7710 N   0  0  0  0  0  0  0  0  0  0  0  0
  -26.0440  -38.3290   23.9210 H   0  0  0  0  0  0  0  0  0  0  0  0
  -26.4020  -31.7420   25.1380 C   0  0  1  0  0  0  0  0  0  0  0  0
  -25.3120  -31.5070   26.2080 C   0  0  0  0  0  1  0  0  0  0  0  0
  -26.9790  -30.3640   24.7390 C   0  0  0  0  0  1  0  0  0  0  0  0
  -27.5540  -32.5330   25.8020 C   0  0  0  0  0  1  0  0  0  0  0  0
  2  1  1  0
  2  3  1  0
  3 14  1  0
  4  3  1  0
  5 18  1  0
  6 11  1  0
  7  8  1  0
  7  6  1  0
  9  8  1  0
  9 24  1  0
  9 10  1  0
 11  5  1  0
 11 10  1  0
 12  5  2  0
 13 17  1  0
 13 16  1  0
 14 13  2  0
 15 18  1  0
 15 17  2  0
 18 20  1  0
 19 14  1  0
 19 15  1  0
 21 22  2  0
 22 41  1  0
 23 22  1  0
 23 26  1  0
 24 21  1  0
 24 25  1  0
 25 23  2  0
 26 27  1  0
 27 28  2  0
 29 32  1  0
 29 28  1  0
 30 29  2  0
 31 30  1  0
 31 26  2  0
 32 33  1  0
 33 34  1  0
 34 35  2  0
 36 35  1  0
 36 40  1  0
 37 36  2  0
 38 33  2  0
 38 37  1  0
 39 38  1  0
 41 42  1  0
 42 45  1  0
 42 44  1  0
 43 41  2  0
 46 47  1  0
 46 21  1  0
 48 46  1  0
 49 50  1  0
 49  2  1  0
 50 53  1  0
 51 52  1  0
 51 50  1  0
 53 54  1  0
 55 66  2  0
 56 54  1  0
 56 61  1  0
 57 65  1  0
 57 67  1  0
 58 64  1  0
 58 60  1  0
 59 65  1  0
 60 59  1  0
 61 60  2  0
 62 63  1  0
 62 56  2  0
 63 58  2  0
 64 57  1  0
 65 55  1  0
 67 69  2  0
 68 67  1  0
 70 68  1  0
 71 80  2  0
 71 76  1  0
 72 68  1  0
 72 76  1  0
 73 72  1  0
 74 75  1  0
 74 73  1  0
 75 71  1  0
 76 77  2  0
 77 78  1  0
 79 78  2  0
 80 79  1  0
 81 55  1  0
 81 82  1  0
 81 91  1  0
 82 85  1  0
 83 87  1  0
 83 82  1  0
 84 83  2  0
 87 86  1  0
 89 87  1  0
 89 90  1  0
 89 88  1  0
 91 94  1  1
 91 92  1  0
 93 91  1  0
M  ISO  4   5 100  18 100  53 101  54 101
M  END
>  <TORSDO>  (61) 
F 21

>  <SCORE>  (61) 
-13.919

>  <name>  (61) 
60

>  <ligand_id>  (61) 
60

>  <original_smiles>  (61) 
[H]OC([H])(C([H])([H])Oc1c([H])c([H])c2c(c1[H])C([H])([H])N(C(=O)C([H])(N([H])C(=O)C([H])(N([H])C([H])([H])[H])C([H])([H])[H])C(C([H])([H])[H])(C([H])([H])[H])C([H])([H])[H])C([H])(C(=O)N([H])C1([H])c3c([H])c([H])c([H])c([H])c3C([H])([H])C([H])([H])C1([H])[H])C2([H])[H])C([H])([H])C([H])(N([H])c1sc(N([H])C(=O)N2C([H])([H])C([H])([H])C([H])([H])C([H])(n3nc(-c4c([H])c([H])c(Oc5c([H])c([H])c(F)c([H])c5F)c([H])c4[H])c(C(=O)N([H])[H])c3N([H])[H])C2([H])[H])nc1C([H])([H])[H])C([H])([H])[H]

>  <smiles>  (61) 
[H]OC([H])(C([H])([H])Oc1c([H])c([H])c2c(c1[H])C([H])([H])N(C(=O)C([H])(N([H])C(=O)C([H])(N([H])C([H])([H])[H])C([H])([H])[H])C(C([H])([H])[H])(C([H])([H])[H])C([H])([H])[H])C([H])(C(=O)N([H])C1([H])c3c([H])c([H])c([H])c([H])c3C([H])([H])C([H])([H])C1([H])[H])C2([H])[H])C([H])([H])C([H])(N([H])c1sc(N([H])C(=O)N2C([H])([H])C([H])([H])C([H])([H])C([H])(n3nc(-c4c([H])c([H])c(Oc5c([H])c([H])c(F)c([H])c5F)c([H])c4[H])c(C(=O)N([H])[H])c3N([H])[H])C2([H])[H])nc1C([H])([H])[H])C([H])([H])[H]

$$$$
61:0:0
     RDKit          3D

 92 96  0  0  1  0  0  0  0  0999 V2000
  -27.1250  -12.5810   20.3340 C   0  0  0  0  0  1  0  0  0  0  0  0
  -26.3970  -13.6170   18.9320 C   0  0  0  0  0  3  0  0  0  0  0  0
  -27.7550  -13.7830   21.8090 C   0  0  0  0  0  2  0  0  0  0  0  0
  -27.0710  -16.4000   20.2660 C   0  0  0  0  0  0  0  0  0  0  0  0
  -26.5090  -15.3820   19.0590 N   0  0  0  0  0  0  0  0  0  0  0  0
  -27.6230  -15.5140   21.5390 N   0  0  0  0  0  2  0  0  0  0  0  0
  -27.0320  -18.2760   20.1030 N   0  0  0  0  0  0  0  0  0  0  0  0
  -26.6200  -18.4120   19.1850 H   0  0  0  0  0  0  0  0  0  0  0  0
  -26.7920  -20.2060   22.0240 C   0  0  0  0  0  1  0  0  0  0  0  0
  -27.3110  -20.1860   20.5820 C   0  0  0  0  0  1  0  0  0  0  0  0
  -27.0750  -22.4330   20.1190 C   0  0  0  0  0 15  0  0  0  0  0  0
  -27.4720  -24.4440   20.3820 O   0  0  0  0  0  1  0  0  0  0  0  0
  -24.7320  -31.7350   23.1150 C   0  0  0  0  0  0  0  0  0  0  0  0
  -26.8660  -26.0350   20.2720 C   0  0  0  0  0  0  0  0  0  0  0  0
  -23.5590  -30.3420   21.4860 C   0  0  0  0  0  3  0  0  0  0  0  0
  -24.9460  -28.5730   20.1010 C   0  0  0  0  0  0  0  0  0  0  0  0
  -26.1480  -30.2310   21.4760 C   0  0  0  0  0  2  0  0  0  0  0  0
  -26.1300  -28.7380   20.8210 C   0  0  0  0  0  0  0  0  0  0  0  0
  -27.0720  -27.5060   20.8660 C   0  0  0  0  0  3  0  0  0  0  0  0
  -25.7450  -26.2630   19.4280 C   0  0  0  0  0  3  0  0  0  0  0  0
  -24.8400  -27.3810   19.3670 C   0  0  0  0  0  3  0  0  0  0  0  0
  -23.8190  -29.6350   20.1200 C   0  0  0  0  0  2  0  0  0  0  0  0
  -24.8490  -30.8220   22.0730 N   0  0  0  0  0  0  0  0  0  0  0  0
  -23.6260  -32.0760   23.5780 O   0  0  0  0  0  0  0  0  0  0  0  0
  -22.7890  -29.4010   22.4550 C   0  0  0  0  0  0  0  0  0  0  0  0
  -21.4500  -29.2960   22.3330 N   0  0  0  0  0  0  0  0  0  0  0  0
  -23.4150  -28.7650   23.3060 O   0  0  0  0  0  0  0  0  0  0  0  0
  -20.9880  -29.8610   21.6330 H   0  0  0  0  0  0  0  0  0  0  0  0
  -18.0350  -28.1440   22.8430 C   0  0  0  0  0  0  0  0  0  0  0  0
  -20.5990  -28.3800   23.1070 C   0  0  0  0  0  3  0  0  0  0  0  0
  -20.6780  -26.9420   22.5410 C   0  0  0  0  0  2  0  0  0  0  0  0
  -19.5770  -26.6340   21.5220 C   0  0  0  0  0  2  0  0  0  0  0  0
  -18.1950  -26.7960   22.1610 C   0  0  0  0  0  2  0  0  0  0  0  0
  -19.1620  -28.8950   23.2720 C   0  0  0  0  0  0  0  0  0  0  0  0
  -18.9520  -30.1530   23.8780 C   0  0  0  0  0  3  0  0  0  0  0  0
  -17.6510  -30.6610   24.0540 C   0  0  0  0  0  3  0  0  0  0  0  0
  -16.5400  -29.9090   23.6360 C   0  0  0  0  0  3  0  0  0  0  0  0
  -16.7330  -28.6510   23.0370 C   0  0  0  0  0  3  0  0  0  0  0  0
  -25.9680  -32.4130   23.7830 C   0  0  0  0  0  3  0  0  0  0  0  0
  -26.4680  -31.6440   25.0700 C   0  0  1  0  0  0  0  0  0  0  0  0
  -25.3600  -31.3930   26.1220 C   0  0  0  0  0  1  0  0  0  0  0  0
  -27.0710  -30.2720   24.7060 C   0  0  0  0  0  1  0  0  0  0  0  0
  -27.6020  -32.4450   25.7530 C   0  0  0  0  0  1  0  0  0  0  0  0
  -25.6060  -33.8000   24.1640 N   0  0  0  0  0  0  0  0  0  0  0  0
  -25.9190  -34.9110   23.4820 C   0  0  0  0  0  0  0  0  0  0  0  0
  -26.5900  -34.8790   22.4480 O   0  0  0  0  0  0  0  0  0  0  0  0
  -25.0030  -33.8950   24.9690 H   0  0  0  0  0  0  0  0  0  0  0  0
  -24.1500  -36.7000   23.2670 C   0  0  0  0  0  1  0  0  0  0  0  0
  -25.4170  -36.2700   24.0240 C   0  0  0  0  0  3  0  0  0  0  0  0
  -27.5540  -37.1660   24.8470 C   0  0  0  0  0  1  0  0  0  0  0  0
  -26.4250  -37.3530   23.9410 N   0  0  0  0  0  0  0  0  0  0  0  0
  -26.0020  -38.2550   24.1430 H   0  0  0  0  0  0  0  0  0  0  0  0
  -28.5910  -13.5000   23.0660 C   0  0  0  0  0  2  0  0  0  0  0  0
  -29.9270  -14.3670   23.1370 C   0  0  0  0  0  2  0  0  0  0  0  0
  -31.2090  -14.3240   20.8170 C   0  0  0  0  0  0  0  0  0  0  0  0
  -31.1380  -12.5680   18.9700 C   0  0  0  0  0  2  0  0  0  0  0  0
  -30.1590  -12.9690   17.8330 C   0  0  0  0  0  2  0  0  0  0  0  0
  -28.7510  -13.3910   18.2520 C   0  0  0  0  0  2  0  0  0  0  0  0
  -28.4390  -14.2450   19.7130 C   0  0  0  0  0  2  0  0  0  0  0  0
  -29.5110  -12.9830   20.3140 C   0  0  0  0  0  2  0  0  0  0  0  0
  -30.7850  -13.2300   20.2080 N   0  0  0  0  0  0  0  0  0  0  0  0
  -31.9990  -15.0460   20.2300 O   0  0  0  0  0  0  0  0  0  0  0  0
  -31.0880  -14.3070   22.1750 N   0  0  0  0  0  0  0  0  0  0  0  0
  -31.8690  -14.8110   22.5690 H   0  0  0  0  0  0  0  0  0  0  0  0
  -24.5010  -14.4840   20.6710 C   0  0  0  0  0  3  0  0  0  0  0  0
  -23.6910  -13.3820   20.8170 C   0  0  2  0  0  0  0  0  0  0  0  0
  -24.3720  -12.1780   21.0370 C   0  0  0  0  0  3  0  0  0  0  0  0
  -25.7410  -14.1930   20.9900 N   0  0  0  0  0  2  0  0  0  0  0  0
  -25.2570  -12.9040   21.7310 N   0  0  0  0  0  0  0  0  0  0  0  0
  -23.8780  -10.7020   21.1330 C   0  0  0  0  0  0  0  0  0  0  0  0
  -24.3640   -9.6520   21.9740 C   0  0  0  0  0  3  0  0  0  0  0  0
  -23.6950   -8.3880   22.0910 C   0  0  0  0  0  3  0  0  0  0  0  0
  -22.5070   -8.1150   21.3620 C   0  0  0  0  0  0  0  0  0  0  0  0
  -22.0770   -9.1000   20.4560 C   0  0  0  0  0  3  0  0  0  0  0  0
  -22.7570  -10.3370   20.3330 C   0  0  0  0  0  3  0  0  0  0  0  0
  -21.7670   -6.9430   21.4190 O   0  0  0  0  0  0  0  0  0  0  0  0
  -21.7410   -6.1130   22.5210 C   0  0  0  0  0  0  0  0  0  0  0  0
  -21.4410   -6.5910   23.8160 C   0  0  0  0  0  3  0  0  0  0  0  0
  -21.3760   -5.6980   24.9070 C   0  0  0  0  0  3  0  0  0  0  0  0
  -21.6010   -4.3220   24.7110 C   0  0  0  0  0  0  0  0  0  0  0  0
  -21.8760   -3.8360   23.4210 C   0  0  0  0  0  3  0  0  0  0  0  0
  -21.9360   -4.7250   22.3310 C   0  0  0  0  0  0  0  0  0  0  0  0
  -22.1750   -4.2370   21.0900 F   0  0  0  0  0  0  0  0  0  0  0  0
  -21.5510   -3.4660   25.7590 F   0  0  0  0  0  0  0  0  0  0  0  0
  -22.2850  -13.5730   21.0820 C   0  0  0  0  0  0  0  0  0  0  0  0
  -21.7440  -12.8050   22.0160 N   0  0  0  0  0  0  0  0  0  0  0  0
  -21.7240  -14.5290   20.5760 O   0  0  0  0  0  0  0  0  0  0  0  0
  -22.2840  -12.0820   22.4690 H   0  0  0  0  0  0  0  0  0  0  0  0
  -20.7820  -12.9480   22.2890 H   0  0  0  0  0  0  0  0  0  0  0  0
  -24.3270  -15.7990   20.4140 N   0  0  0  0  0  0  0  0  0  0  0  0
  -24.7100  -16.3180   21.1940 H   0  0  0  0  0  0  0  0  0  0  0  0
  -25.0450  -15.8730   19.6790 H   0  0  0  0  0  0  0  0  0  0  0  0
  2  5  2  0
  2  1  1  0
  3 53  1  0
  4  6  1  0
  5  4  1  0
  6  3  1  0
  7  4  2  0
  8  7  1  0
 10  9  1  0
 13 24  2  0
 14 12  1  0
 14 19  1  0
 15 23  1  0
 15 25  1  0
 16 22  1  0
 16 18  1  0
 17 23  1  0
 18 19  2  0
 18 17  1  0
 20 14  2  0
 21 20  1  0
 21 16  2  0
 22 15  1  0
 23 13  1  0
 25 27  2  0
 26 25  1  0
 28 26  1  0
 29 38  2  0
 29 34  1  0
 30 26  1  0
 30 34  1  0
 31 30  1  0
 32 33  1  0
 32 31  1  0
 33 29  1  0
 34 35  2  0
 35 36  1  0
 37 36  2  0
 38 37  1  0
 39 13  1  0
 39 44  1  0
 39 40  1  0
 40 43  1  1
 40 41  1  0
 42 40  1  0
 44 47  1  0
 45 49  1  0
 45 44  1  0
 46 45  2  0
 49 48  1  0
 51 49  1  0
 51 52  1  0
 51 50  1  0
 53 54  1  0
 55 63  1  0
 56 61  1  0
 57 58  1  0
 57 56  1  0
 58 59  1  0
 59 60  1  0
 61 60  1  0
 61 55  1  0
 62 55  2  0
 63 64  1  0
 63 54  1  0
 65 90  1  0
 65 66  1  0
 65 68  1  0
 66 67  1  0
 66 85  1  6
 66 69  1  0
 67 70  1  0
 67 69  1  0
 69 68  1  0
 70 71  1  0
 71 72  2  0
 73 76  1  0
 73 72  1  0
 74 73  2  0
 75 74  1  0
 75 70  2  0
 76 77  1  0
 77 78  1  0
 78 79  2  0
 80 79  1  0
 80 84  1  0
 81 80  2  0
 82 77  2  0
 82 81  1  0
 83 82  1  0
 85 86  1  0
 86 89  1  0
 86 88  1  0
 87 85  2  0
 90 91  1  0
 92 90  1  0
M  ISO  4  11 101  12 101  55 100  63 100
M  END
>  <TORSDO>  (62) 
F 20

>  <SCORE>  (62) 
2.710

>  <name>  (62) 
61

>  <ligand_id>  (62) 
61

>  <original_smiles>  (62) 
[H]c1nc(N([H])C([H])(C([H])([H])[H])C([H])([H])Oc2c([H])c([H])c3c(c2[H])C([H])([H])N(C(=O)C([H])(N([H])C(=O)C([H])(N([H])C([H])([H])[H])C([H])([H])[H])C(C([H])([H])[H])(C([H])([H])[H])C([H])([H])[H])C([H])(C(=O)N([H])C2([H])c4c([H])c([H])c([H])c([H])c4C([H])([H])C([H])([H])C2([H])[H])C3([H])[H])nc(C([H])([H])C([H])([H])N([H])C(=O)N2C([H])([H])C([H])([H])C([H])([H])C([H])(n3nc(-c4c([H])c([H])c(Oc5c([H])c([H])c(F)c([H])c5F)c([H])c4[H])c(C(=O)N([H])[H])c3N([H])[H])C2([H])[H])c1[H]

>  <smiles>  (62) 
[H]c1nc(N([H])C([H])(C([H])([H])[H])C([H])([H])Oc2c([H])c([H])c3c(c2[H])C([H])([H])N(C(=O)C([H])(N([H])C(=O)C([H])(N([H])C([H])([H])[H])C([H])([H])[H])C(C([H])([H])[H])(C([H])([H])[H])C([H])([H])[H])C([H])(C(=O)N([H])C2([H])c4c([H])c([H])c([H])c([H])c4C([H])([H])C([H])([H])C2([H])[H])C3([H])[H])nc(C([H])([H])C([H])([H])N([H])C(=O)N2C([H])([H])C([H])([H])C([H])([H])C([H])(n3nc(-c4c([H])c([H])c(Oc5c([H])c([H])c(F)c([H])c5F)c([H])c4[H])c(C(=O)N([H])[H])c3N([H])[H])C2([H])[H])c1[H]

$$$$
62:0:0
     RDKit          3D

 92100  0  0  1  0  0  0  0  0999 V2000
  -29.3850  -21.6270   20.5230 C   0  0  0  0  0  0  0  0  0  0  0  0
  -29.4900  -21.4850   19.3000 O   0  0  0  0  0  0  0  0  0  0  0  0
  -29.0090  -22.9900   21.1600 C   0  0  0  0  0  2  0  0  0  0  0  0
  -28.5380  -24.1510   20.2240 C   0  0  0  0  0  3  0  0  0  0  0  0
  -27.2630  -23.8160   19.6910 O   0  0  0  0  0  0  0  0  0  0  0  0
  -26.6240  -23.8660   20.3940 H   0  0  0  0  0  0  0  0  0  0  0  0
  -28.3970  -25.5040   20.9940 C   0  0  0  0  0  2  0  0  0  0  0  0
  -28.4380  -26.6950   20.1790 O   0  0  0  0  0  0  0  0  0  0  0  0
  -24.5990  -31.8950   23.2200 C   0  0  0  0  0  0  0  0  0  0  0  0
  -27.2810  -27.4460   20.1790 C   0  0  0  0  0  0  0  0  0  0  0  0
  -23.4110  -30.4820   21.5750 C   0  0  0  0  0  3  0  0  0  0  0  0
  -24.8820  -28.9450   20.1660 C   0  0  0  0  0  0  0  0  0  0  0  0
  -25.9370  -30.8500   21.3930 C   0  0  0  0  0  2  0  0  0  0  0  0
  -26.0350  -29.4760   20.7600 C   0  0  0  0  0  0  0  0  0  0  0  0
  -27.2400  -28.7350   20.7620 C   0  0  0  0  0  3  0  0  0  0  0  0
  -26.1150  -26.9330   19.5730 C   0  0  0  0  0  3  0  0  0  0  0  0
  -24.9180  -27.6730   19.5680 C   0  0  0  0  0  3  0  0  0  0  0  0
  -23.6330  -29.7980   20.1990 C   0  0  0  0  0  2  0  0  0  0  0  0
  -24.6660  -31.0910   22.1210 N   0  0  0  0  0  0  0  0  0  0  0  0
  -23.5130  -32.1640   23.7520 O   0  0  0  0  0  0  0  0  0  0  0  0
  -22.7570  -29.4620   22.5350 C   0  0  0  0  0  0  0  0  0  0  0  0
  -21.4330  -29.2730   22.3980 N   0  0  0  0  0  0  0  0  0  0  0  0
  -23.4370  -28.8410   23.3560 O   0  0  0  0  0  0  0  0  0  0  0  0
  -20.9470  -29.8260   21.7080 H   0  0  0  0  0  0  0  0  0  0  0  0
  -18.0600  -28.0710   22.8790 C   0  0  0  0  0  0  0  0  0  0  0  0
  -20.6160  -28.3350   23.1660 C   0  0  0  0  0  3  0  0  0  0  0  0
  -20.7240  -26.9030   22.5920 C   0  0  0  0  0  2  0  0  0  0  0  0
  -19.6290  -26.5780   21.5710 C   0  0  0  0  0  2  0  0  0  0  0  0
  -18.2440  -26.7210   22.2070 C   0  0  0  0  0  2  0  0  0  0  0  0
  -19.1740  -28.8360   23.3150 C   0  0  0  0  0  0  0  0  0  0  0  0
  -18.9500  -30.1000   23.9020 C   0  0  0  0  0  3  0  0  0  0  0  0
  -17.6440  -30.5990   24.0590 C   0  0  0  0  0  3  0  0  0  0  0  0
  -16.5440  -29.8320   23.6400 C   0  0  0  0  0  3  0  0  0  0  0  0
  -16.7520  -28.5690   23.0570 C   0  0  0  0  0  3  0  0  0  0  0  0
  -25.8780  -32.5330   23.8460 C   0  0  0  0  0  3  0  0  0  0  0  0
  -25.5610  -33.9300   24.1730 N   0  0  0  0  0  0  0  0  0  0  0  0
  -25.8920  -34.9820   23.4120 C   0  0  0  0  0  0  0  0  0  0  0  0
  -26.5680  -34.8790   22.3840 O   0  0  0  0  0  0  0  0  0  0  0  0
  -24.9620  -34.0840   24.9700 H   0  0  0  0  0  0  0  0  0  0  0  0
  -24.1590  -36.7650   23.0390 C   0  0  0  0  0  1  0  0  0  0  0  0
  -25.3940  -36.3690   23.8620 C   0  0  0  0  0  3  0  0  0  0  0  0
  -27.5160  -37.2640   24.7120 C   0  0  0  0  0  1  0  0  0  0  0  0
  -26.4240  -37.4250   23.7570 N   0  0  0  0  0  0  0  0  0  0  0  0
  -26.0120  -38.3440   23.8980 H   0  0  0  0  0  0  0  0  0  0  0  0
  -26.3940  -31.7650   25.1250 C   0  0  1  0  0  0  0  0  0  0  0  0
  -25.2980  -31.5200   26.1890 C   0  0  0  0  0  1  0  0  0  0  0  0
  -26.9880  -30.3920   24.7330 C   0  0  0  0  0  1  0  0  0  0  0  0
  -27.5370  -32.5670   25.7920 C   0  0  0  0  0  1  0  0  0  0  0  0
  -29.6280  -20.4550   21.5060 C   0  0  0  0  0  2  0  0  0  0  0  0
  -31.4080  -17.6240   20.3030 C   0  0  0  0  0  3  0  0  0  0  0  0
  -29.4150  -17.9030   21.2400 C   0  0  0  0  0  3  0  0  0  0  0  0
  -30.2610  -16.9270   20.7800 C   0  0  0  0  0  0  0  0  0  0  0  0
  -31.2830  -18.9360   20.4870 N   0  0  0  0  0  0  0  0  0  0  0  0
  -30.0550  -19.1220   21.0460 N   0  0  0  0  0  0  0  0  0  0  0  0
  -30.7150  -14.5280   20.2050 C   0  0  0  0  0  0  0  0  0  0  0  0
  -30.3850  -12.3960   19.0030 C   0  0  0  0  0  2  0  0  0  0  0  0
  -29.3990  -12.6400   17.8410 C   0  0  0  0  0  2  0  0  0  0  0  0
  -27.9390  -12.4960   18.3200 C   0  0  0  0  0  2  0  0  0  0  0  0
  -27.6550  -13.2940   19.6210 C   0  0  0  0  0  3  0  0  0  0  0  0
  -28.7480  -13.0230   20.6810 C   0  0  0  0  0  2  0  0  0  0  0  0
  -30.0520  -13.3460   20.0770 N   0  0  0  0  0  0  0  0  0  0  0  0
  -31.8240  -14.7260   19.6990 O   0  0  0  0  0  0  0  0  0  0  0  0
  -30.0110  -15.5140   20.8030 N   0  0  0  0  0  0  0  0  0  0  0  0
  -29.1310  -15.2190   21.1990 H   0  0  0  0  0  0  0  0  0  0  0  0
  -25.2790  -13.8980   20.4060 C   0  0  0  0  0  0  0  0  0  0  0  0
  -24.2220  -13.1250   20.8060 C   0  0  0  0  0  0  0  0  0  0  0  0
  -24.6820  -11.7730   20.7530 C   0  0  0  0  0  0  0  0  0  0  0  0
  -26.3170  -13.0180   20.1390 N   0  0  0  0  0  0  0  0  0  0  0  0
  -25.9620  -11.7350   20.4030 N   0  0  0  0  0  0  0  0  0  0  0  0
  -23.9630  -10.5090   20.9590 C   0  0  0  0  0  0  0  0  0  0  0  0
  -24.4100   -9.5490   21.8930 C   0  0  0  0  0  3  0  0  0  0  0  0
  -23.6910   -8.3490   22.0860 C   0  0  0  0  0  3  0  0  0  0  0  0
  -22.5120   -8.1030   21.3460 C   0  0  0  0  0  0  0  0  0  0  0  0
  -22.0830   -9.0510   20.4020 C   0  0  0  0  0  3  0  0  0  0  0  0
  -22.8030  -10.2420   20.2060 C   0  0  0  0  0  3  0  0  0  0  0  0
  -21.7620   -6.9540   21.4490 O   0  0  0  0  0  0  0  0  0  0  0  0
  -21.7100   -6.2310   22.6140 C   0  0  0  0  0  0  0  0  0  0  0  0
  -21.2580   -6.8010   23.8240 C   0  0  0  0  0  3  0  0  0  0  0  0
  -21.1530   -6.0030   24.9820 C   0  0  0  0  0  3  0  0  0  0  0  0
  -21.4910   -4.6370   24.9290 C   0  0  0  0  0  0  0  0  0  0  0  0
  -21.9370   -4.0680   23.7230 C   0  0  0  0  0  3  0  0  0  0  0  0
  -22.0430   -4.8630   22.5680 C   0  0  0  0  0  0  0  0  0  0  0  0
  -22.4530   -4.3050   21.4040 F   0  0  0  0  0  0  0  0  0  0  0  0
  -21.3840   -3.8700   26.0380 F   0  0  0  0  0  0  0  0  0  0  0  0
  -22.8350  -13.6000   21.1260 C   0  0  0  0  0  0  0  0  0  0  0  0
  -22.1350  -12.8990   22.0110 N   0  0  0  0  0  0  0  0  0  0  0  0
  -22.3800  -14.6280   20.6260 O   0  0  0  0  0  0  0  0  0  0  0  0
  -22.5160  -12.0670   22.4380 H   0  0  0  0  0  0  0  0  0  0  0  0
  -21.2050  -13.1980   22.2660 H   0  0  0  0  0  0  0  0  0  0  0  0
  -25.4390  -15.2700   20.2300 N   0  0  0  0  0  0  0  0  0  0  0  0
  -24.6740  -15.9230   20.3580 H   0  0  0  0  0  0  0  0  0  0  0  0
  -26.2710  -15.7070   19.8540 H   0  0  0  0  0  0  0  0  0  0  0  0
  1  3  1  0
  1 49  1  0
  2  1  2  0
  4  7  1  0
  4  3  1  0
  5  4  1  0
  5  6  1  0
  8  7  1  0
  9 20  2  0
 10  8  1  0
 10 15  1  0
 11 19  1  0
 11 21  1  0
 12 18  1  0
 12 14  1  0
 13 19  1  0
 14 15  2  0
 14 13  1  0
 16 10  2  0
 17 16  1  0
 17 12  2  0
 18 11  1  0
 19  9  1  0
 21 23  2  0
 22 21  1  0
 24 22  1  0
 25 34  2  0
 25 30  1  0
 26 22  1  0
 26 30  1  0
 27 26  1  0
 28 29  1  0
 28 27  1  0
 29 25  1  0
 30 31  2  0
 31 32  1  0
 33 32  2  0
 34 33  1  0
 35  9  1  0
 35 36  1  0
 35 45  1  0
 36 39  1  0
 37 41  1  0
 37 36  1  0
 38 37  2  0
 41 40  1  0
 43 41  1  0
 43 44  1  0
 43 42  1  0
 45 48  1  1
 45 46  1  0
 47 45  1  0
 50 53  2  0
 50 52  1  0
 52 63  1  0
 52 51  2  0
 53 54  1  0
 54 51  1  0
 54 49  1  0
 55 63  1  0
 56 61  1  0
 57 58  1  0
 57 56  1  0
 59 58  1  0
 59 68  1  0
 59 60  1  0
 61 55  1  0
 61 60  1  0
 62 55  2  0
 63 64  1  0
 65 66  2  0
 66 85  1  0
 67 66  1  0
 67 70  1  0
 68 69  1  0
 68 65  1  0
 69 67  2  0
 70 71  1  0
 71 72  2  0
 73 76  1  0
 73 72  1  0
 74 73  2  0
 75 74  1  0
 75 70  2  0
 76 77  1  0
 77 78  1  0
 78 79  2  0
 80 79  1  0
 80 84  1  0
 81 80  2  0
 82 77  2  0
 82 81  1  0
 83 82  1  0
 85 86  1  0
 86 89  1  0
 86 88  1  0
 87 85  2  0
 90 91  1  0
 90 65  1  0
 92 90  1  0
M  ISO  4   7 101   8 101  55 100  63 100
M  END
>  <TORSDO>  (63) 
F 22

>  <SCORE>  (63) 
-13.122

>  <name>  (63) 
62

>  <ligand_id>  (63) 
62

>  <original_smiles>  (63) 
[H]OC([H])(C([H])([H])Oc1c([H])c([H])c2c(c1[H])C([H])([H])N(C(=O)C([H])(N([H])C(=O)C([H])(N([H])C([H])([H])[H])C([H])([H])[H])C(C([H])([H])[H])(C([H])([H])[H])C([H])([H])[H])C([H])(C(=O)N([H])C1([H])c3c([H])c([H])c([H])c([H])c3C([H])([H])C([H])([H])C1([H])[H])C2([H])[H])C([H])([H])C(=O)C([H])([H])n1nc([H])c(N([H])C(=O)N2C([H])([H])C([H])([H])C([H])([H])C([H])(n3nc(-c4c([H])c([H])c(Oc5c([H])c([H])c(F)c([H])c5F)c([H])c4[H])c(C(=O)N([H])[H])c3N([H])[H])C2([H])[H])c1[H]

>  <smiles>  (63) 
[H]OC([H])(C([H])([H])Oc1c([H])c([H])c2c(c1[H])C([H])([H])N(C(=O)C([H])(N([H])C(=O)C([H])(N([H])C([H])([H])[H])C([H])([H])[H])C(C([H])([H])[H])(C([H])([H])[H])C([H])([H])[H])C([H])(C(=O)N([H])C1([H])c3c([H])c([H])c([H])c([H])c3C([H])([H])C([H])([H])C1([H])[H])C2([H])[H])C([H])([H])C(=O)C([H])([H])n1nc([H])c(N([H])C(=O)N2C([H])([H])C([H])([H])C([H])([H])C([H])(n3nc(-c4c([H])c([H])c(Oc5c([H])c([H])c(F)c([H])c5F)c([H])c4[H])c(C(=O)N([H])[H])c3N([H])[H])C2([H])[H])c1[H]

$$$$
63:0:0
     RDKit          3D

 90 98  0  0  1  0  0  0  0  0999 V2000
  -29.7950  -19.0580   21.7100 C   0  0  0  0  0  3  0  0  0  0  0  0
  -29.7760  -18.7760   20.3650 C   0  0  0  0  0  0  0  0  0  0  0  0
  -29.2930  -21.1280   20.3690 C   0  0  0  0  0  0  0  0  0  0  0  0
  -29.4620  -19.9850   19.6340 N   0  0  0  0  0  0  0  0  0  0  0  0
  -29.0110  -22.4620   19.8950 N   0  0  0  0  0  0  0  0  0  0  0  0
  -29.4870  -20.7600   22.0830 S   0  0  0  0  0  0  0  0  0  0  0  0
  -28.8350  -22.4510   18.8930 H   0  0  0  0  0  0  0  0  0  0  0  0
  -30.6530  -24.2820   20.2060 C   0  0  0  0  0  1  0  0  0  0  0  0
  -29.1850  -23.8840   20.3980 C   0  0  0  0  0  3  0  0  0  0  0  0
  -28.2150  -25.0470   19.8130 C   0  0  0  0  0  2  0  0  0  0  0  0
  -28.3600  -26.4970   20.2070 O   0  0  0  0  0  0  0  0  0  0  0  0
  -24.6250  -31.9280   23.2630 C   0  0  0  0  0  0  0  0  0  0  0  0
  -27.2540  -27.3840   20.1430 C   0  0  0  0  0  0  0  0  0  0  0  0
  -23.4290  -30.5400   21.6080 C   0  0  0  0  0  3  0  0  0  0  0  0
  -24.8880  -29.0180   20.1550 C   0  0  0  0  0  0  0  0  0  0  0  0
  -25.9680  -30.8710   21.4250 C   0  0  0  0  0  2  0  0  0  0  0  0
  -26.0570  -29.4970   20.7610 C   0  0  0  0  0  0  0  0  0  0  0  0
  -27.2410  -28.6890   20.7470 C   0  0  0  0  0  3  0  0  0  0  0  0
  -26.0630  -26.9870   19.4940 C   0  0  0  0  0  3  0  0  0  0  0  0
  -24.8960  -27.7720   19.5110 C   0  0  0  0  0  3  0  0  0  0  0  0
  -23.6450  -29.8850   20.2190 C   0  0  0  0  0  2  0  0  0  0  0  0
  -24.6940  -31.1310   22.1570 N   0  0  0  0  0  0  0  0  0  0  0  0
  -23.5400  -32.1900   23.8040 O   0  0  0  0  0  0  0  0  0  0  0  0
  -22.7730  -29.5080   22.5570 C   0  0  0  0  0  0  0  0  0  0  0  0
  -21.4490  -29.3150   22.4240 N   0  0  0  0  0  0  0  0  0  0  0  0
  -23.4570  -28.8830   23.3710 O   0  0  0  0  0  0  0  0  0  0  0  0
  -20.9540  -29.8740   21.7430 H   0  0  0  0  0  0  0  0  0  0  0  0
  -18.0840  -28.0740   22.9070 C   0  0  0  0  0  0  0  0  0  0  0  0
  -20.6390  -28.3630   23.1870 C   0  0  0  0  0  3  0  0  0  0  0  0
  -20.7600  -26.9370   22.6000 C   0  0  0  0  0  2  0  0  0  0  0  0
  -19.6660  -26.6090   21.5800 C   0  0  0  0  0  2  0  0  0  0  0  0
  -18.2810  -26.7320   22.2200 C   0  0  0  0  0  2  0  0  0  0  0  0
  -19.1920  -28.8460   23.3470 C   0  0  0  0  0  0  0  0  0  0  0  0
  -18.9560  -30.1000   23.9510 C   0  0  0  0  0  3  0  0  0  0  0  0
  -17.6450  -30.5840   24.1170 C   0  0  0  0  0  3  0  0  0  0  0  0
  -16.5520  -29.8080   23.6970 C   0  0  0  0  0  3  0  0  0  0  0  0
  -16.7720  -28.5540   23.0970 C   0  0  0  0  0  3  0  0  0  0  0  0
  -25.9020  -32.5650   23.8910 C   0  0  0  0  0  3  0  0  0  0  0  0
  -26.4090  -31.8030   25.1770 C   0  0  1  0  0  0  0  0  0  0  0  0
  -25.3070  -31.5720   26.2370 C   0  0  0  0  0  1  0  0  0  0  0  0
  -26.9970  -30.4230   24.8030 C   0  0  0  0  0  1  0  0  0  0  0  0
  -27.5520  -32.6030   25.8450 C   0  0  0  0  0  1  0  0  0  0  0  0
  -25.5900  -33.9660   24.2100 N   0  0  0  0  0  0  0  0  0  0  0  0
  -25.9100  -35.0130   23.4380 C   0  0  0  0  0  0  0  0  0  0  0  0
  -26.5670  -34.9020   22.4000 O   0  0  0  0  0  0  0  0  0  0  0  0
  -25.0070  -34.1260   25.0190 H   0  0  0  0  0  0  0  0  0  0  0  0
  -24.1700  -36.7980   23.0910 C   0  0  0  0  0  1  0  0  0  0  0  0
  -25.4250  -36.4050   23.8880 C   0  0  0  0  0  3  0  0  0  0  0  0
  -27.5640  -37.3120   24.6830 C   0  0  0  0  0  1  0  0  0  0  0  0
  -26.4510  -37.4610   23.7480 N   0  0  0  0  0  0  0  0  0  0  0  0
  -26.0430  -38.3810   23.8860 H   0  0  0  0  0  0  0  0  0  0  0  0
  -30.1540  -17.4030   19.6760 C   0  0  0  0  0  2  0  0  0  0  0  0
  -30.7120  -14.9030   20.1720 C   0  0  0  0  0  0  0  0  0  0  0  0
  -30.5120  -12.6160   19.2100 C   0  0  0  0  0  2  0  0  0  0  0  0
  -29.5660  -12.6880   17.9900 C   0  0  0  0  0  2  0  0  0  0  0  0
  -28.1010  -12.5040   18.4340 C   0  0  0  0  0  2  0  0  0  0  0  0
  -27.7300  -13.3990   19.6440 C   0  0  0  0  0  3  0  0  0  0  0  0
  -28.7970  -13.3350   20.7590 C   0  0  0  0  0  2  0  0  0  0  0  0
  -30.0920  -13.6740   20.1570 N   0  0  0  0  0  0  0  0  0  0  0  0
  -31.8910  -14.9960   19.8160 O   0  0  0  0  0  0  0  0  0  0  0  0
  -29.9330  -16.0380   20.3240 N   0  0  0  0  0  0  0  0  0  0  0  0
  -28.9860  -15.8650   20.6250 H   0  0  0  0  0  0  0  0  0  0  0  0
  -25.3480  -13.9830   20.3950 C   0  0  0  0  0  0  0  0  0  0  0  0
  -24.2870  -13.2080   20.7780 C   0  0  0  0  0  0  0  0  0  0  0  0
  -24.7540  -11.8580   20.7460 C   0  0  0  0  0  0  0  0  0  0  0  0
  -26.3910  -13.1060   20.1480 N   0  0  0  0  0  0  0  0  0  0  0  0
  -26.0410  -11.8230   20.4230 N   0  0  0  0  0  0  0  0  0  0  0  0
  -24.0340  -10.5930   20.9490 C   0  0  0  0  0  0  0  0  0  0  0  0
  -24.4710   -9.6400   21.8950 C   0  0  0  0  0  3  0  0  0  0  0  0
  -23.7530   -8.4400   22.0840 C   0  0  0  0  0  3  0  0  0  0  0  0
  -22.5850   -8.1850   21.3290 C   0  0  0  0  0  0  0  0  0  0  0  0
  -22.1660   -9.1270   20.3730 C   0  0  0  0  0  3  0  0  0  0  0  0
  -22.8840  -10.3190   20.1810 C   0  0  0  0  0  3  0  0  0  0  0  0
  -21.8410   -7.0350   21.4240 O   0  0  0  0  0  0  0  0  0  0  0  0
  -21.7820   -6.3100   22.5870 C   0  0  0  0  0  0  0  0  0  0  0  0
  -21.3080   -6.8740   23.7920 C   0  0  0  0  0  3  0  0  0  0  0  0
  -21.2000   -6.0750   24.9480 C   0  0  0  0  0  3  0  0  0  0  0  0
  -21.5550   -4.7130   24.9000 C   0  0  0  0  0  0  0  0  0  0  0  0
  -22.0210   -4.1490   23.6990 C   0  0  0  0  0  3  0  0  0  0  0  0
  -22.1310   -4.9450   22.5460 C   0  0  0  0  0  0  0  0  0  0  0  0
  -22.5620   -4.3920   21.3860 F   0  0  0  0  0  0  0  0  0  0  0  0
  -21.4420   -3.9430   26.0060 F   0  0  0  0  0  0  0  0  0  0  0  0
  -22.8920  -13.6830   21.0600 C   0  0  0  0  0  0  0  0  0  0  0  0
  -22.1750  -12.9930   21.9400 N   0  0  0  0  0  0  0  0  0  0  0  0
  -22.4460  -14.7040   20.5380 O   0  0  0  0  0  0  0  0  0  0  0  0
  -22.5440  -12.1680   22.3880 H   0  0  0  0  0  0  0  0  0  0  0  0
  -21.2400  -13.3000   22.1730 H   0  0  0  0  0  0  0  0  0  0  0  0
  -25.5040  -15.3530   20.2090 N   0  0  0  0  0  0  0  0  0  0  0  0
  -24.7330  -16.0040   20.3160 H   0  0  0  0  0  0  0  0  0  0  0  0
  -26.3370  -15.7880   19.8340 H   0  0  0  0  0  0  0  0  0  0  0  0
  1  6  1  0
  2  1  2  0
  3  6  1  0
  4  2  1  0
  4  3  2  0
  5  3  1  0
  5  9  1  0
  7  5  1  0
  9  8  1  0
 10 11  1  0
 10  9  1  0
 12 23  2  0
 13 11  1  0
 13 18  1  0
 14 22  1  0
 14 24  1  0
 15 21  1  0
 15 17  1  0
 16 22  1  0
 17 16  1  0
 18 17  2  0
 19 20  1  0
 19 13  2  0
 20 15  2  0
 21 14  1  0
 22 12  1  0
 24 26  2  0
 25 24  1  0
 27 25  1  0
 28 37  2  0
 28 33  1  0
 29 25  1  0
 29 33  1  0
 30 29  1  0
 31 32  1  0
 31 30  1  0
 32 28  1  0
 33 34  2  0
 34 35  1  0
 36 35  2  0
 37 36  1  0
 38 12  1  0
 38 43  1  0
 38 39  1  0
 39 42  1  1
 39 40  1  0
 41 39  1  0
 43 46  1  0
 44 48  1  0
 44 43  1  0
 45 44  2  0
 48 47  1  0
 50 51  1  0
 50 48  1  0
 50 49  1  0
 52 61  1  0
 52  2  1  0
 53 61  1  0
 54 59  1  0
 55 56  1  0
 55 54  1  0
 57 56  1  0
 57 66  1  0
 57 58  1  0
 59 53  1  0
 59 58  1  0
 60 53  2  0
 61 62  1  0
 63 64  2  0
 64 83  1  0
 65 64  1  0
 65 68  1  0
 66 63  1  0
 66 67  1  0
 67 65  2  0
 68 69  1  0
 69 70  2  0
 71 74  1  0
 71 70  1  0
 72 71  2  0
 73 72  1  0
 73 68  2  0
 74 75  1  0
 75 76  1  0
 76 77  2  0
 78 77  1  0
 78 82  1  0
 79 78  2  0
 80 75  2  0
 80 79  1  0
 81 80  1  0
 83 84  1  0
 84 87  1  0
 84 86  1  0
 85 83  2  0
 88 89  1  0
 88 63  1  0
 90 88  1  0
M  ISO  4  10 101  11 101  53 100  61 100
M  END
>  <TORSDO>  (64) 
F 19

>  <SCORE>  (64) 
-13.294

>  <name>  (64) 
63

>  <ligand_id>  (64) 
63

>  <original_smiles>  (64) 
[H]c1sc(N([H])C([H])(C([H])([H])[H])C([H])([H])Oc2c([H])c([H])c3c(c2[H])C([H])([H])N(C(=O)C([H])(N([H])C(=O)C([H])(N([H])C([H])([H])[H])C([H])([H])[H])C(C([H])([H])[H])(C([H])([H])[H])C([H])([H])[H])C([H])(C(=O)N([H])C2([H])c4c([H])c([H])c([H])c([H])c4C([H])([H])C([H])([H])C2([H])[H])C3([H])[H])nc1C([H])([H])N([H])C(=O)N1C([H])([H])C([H])([H])C([H])([H])C([H])(n2nc(-c3c([H])c([H])c(Oc4c([H])c([H])c(F)c([H])c4F)c([H])c3[H])c(C(=O)N([H])[H])c2N([H])[H])C1([H])[H]

>  <smiles>  (64) 
[H]c1sc(N([H])C([H])(C([H])([H])[H])C([H])([H])Oc2c([H])c([H])c3c(c2[H])C([H])([H])N(C(=O)C([H])(N([H])C(=O)C([H])(N([H])C([H])([H])[H])C([H])([H])[H])C(C([H])([H])[H])(C([H])([H])[H])C([H])([H])[H])C([H])(C(=O)N([H])C2([H])c4c([H])c([H])c([H])c([H])c4C([H])([H])C([H])([H])C2([H])[H])C3([H])[H])nc1C([H])([H])N([H])C(=O)N1C([H])([H])C([H])([H])C([H])([H])C([H])(n2nc(-c3c([H])c([H])c(Oc4c([H])c([H])c(F)c([H])c4F)c([H])c3[H])c(C(=O)N([H])[H])c2N([H])[H])C1([H])[H]

$$$$
64:0:0
     RDKit          3D

 92100  0  0  1  0  0  0  0  0999 V2000
  -30.5680  -14.8620   20.4010 C   0  0  0  0  0  0  0  0  0  0  0  0
  -30.4480  -12.5050   19.5450 C   0  0  0  0  0  2  0  0  0  0  0  0
  -29.5400  -12.4340   18.2980 C   0  0  0  0  0  2  0  0  0  0  0  0
  -28.0650  -12.2510   18.7070 C   0  0  0  0  0  2  0  0  0  0  0  0
  -27.6310  -13.2270   19.8330 C   0  0  0  0  0  3  0  0  0  0  0  0
  -28.6620  -13.2760   20.9800 C   0  0  0  0  0  2  0  0  0  0  0  0
  -29.9560  -13.6240   20.3820 N   0  0  0  0  0  0  0  0  0  0  0  0
  -31.7780  -14.9280   20.1580 O   0  0  0  0  0  0  0  0  0  0  0  0
  -30.3330  -19.9900   21.4730 C   0  0  0  0  0  3  0  0  0  0  0  0
  -30.9140  -18.9020   22.1410 C   0  0  0  0  0  0  0  0  0  0  0  0
  -29.5450  -19.7340   20.3520 C   0  0  0  0  0  0  0  0  0  0  0  0
  -29.9970  -17.3850   20.6590 C   0  0  0  0  0  0  0  0  0  0  0  0
  -31.7800  -19.1140   23.3630 C   0  0  0  0  0  1  0  0  0  0  0  0
  -30.7450  -17.6270   21.7330 N   0  0  0  0  0  0  0  0  0  0  0  0
  -29.3830  -18.4080   19.9650 N   0  0  0  0  0  0  0  0  0  0  0  0
  -29.0250  -20.8460   19.5790 N   0  0  0  0  0  4  0  0  0  0  0  0
  -29.7600  -15.9990   20.3780 N   0  0  0  0  0  0  0  0  0  0  0  0
  -28.6940  -20.5250   18.6740 H   0  0  0  0  0  0  0  0  0  0  0  0
  -28.7900  -15.7920   20.2230 H   0  0  0  0  0  0  0  0  0  0  0  0
  -25.2440  -13.8230   20.5570 C   0  0  0  0  0  0  0  0  0  0  0  0
  -24.1710  -13.0510   20.9070 C   0  0  0  0  0  0  0  0  0  0  0  0
  -24.6250  -11.6970   20.8600 C   0  0  0  0  0  0  0  0  0  0  0  0
  -26.2840  -12.9400   20.3150 N   0  0  0  0  0  0  0  0  0  0  0  0
  -25.9180  -11.6550   20.5620 N   0  0  0  0  0  0  0  0  0  0  0  0
  -23.8870  -10.4380   21.0230 C   0  0  0  0  0  0  0  0  0  0  0  0
  -24.3130   -9.4440   21.9330 C   0  0  0  0  0  3  0  0  0  0  0  0
  -23.5750   -8.2510   22.0850 C   0  0  0  0  0  3  0  0  0  0  0  0
  -22.3980   -8.0420   21.3280 C   0  0  0  0  0  0  0  0  0  0  0  0
  -21.9910   -9.0230   20.4080 C   0  0  0  0  0  3  0  0  0  0  0  0
  -22.7290  -10.2090   20.2530 C   0  0  0  0  0  3  0  0  0  0  0  0
  -21.6320   -6.9030   21.3920 O   0  0  0  0  0  0  0  0  0  0  0  0
  -21.5830   -6.1300   22.5250 C   0  0  0  0  0  0  0  0  0  0  0  0
  -21.1820   -6.6600   23.7710 C   0  0  0  0  0  3  0  0  0  0  0  0
  -21.0800   -5.8150   24.8950 C   0  0  0  0  0  3  0  0  0  0  0  0
  -21.3690   -4.4430   24.7730 C   0  0  0  0  0  0  0  0  0  0  0  0
  -21.7640   -3.9130   23.5320 C   0  0  0  0  0  3  0  0  0  0  0  0
  -21.8670   -4.7540   22.4100 C   0  0  0  0  0  0  0  0  0  0  0  0
  -22.2270   -4.2360   21.2120 F   0  0  0  0  0  0  0  0  0  0  0  0
  -21.2640   -3.6290   25.8500 F   0  0  0  0  0  0  0  0  0  0  0  0
  -22.7750  -13.5340   21.1710 C   0  0  0  0  0  0  0  0  0  0  0  0
  -22.0370  -12.8400   22.0310 N   0  0  0  0  0  0  0  0  0  0  0  0
  -22.3470  -14.5640   20.6500 O   0  0  0  0  0  0  0  0  0  0  0  0
  -22.3970  -12.0070   22.4740 H   0  0  0  0  0  0  0  0  0  0  0  0
  -21.1000  -13.1460   22.2500 H   0  0  0  0  0  0  0  0  0  0  0  0
  -25.4160  -15.1950   20.3990 N   0  0  0  0  0  0  0  0  0  0  0  0
  -24.6410  -15.8410   20.5000 H   0  0  0  0  0  0  0  0  0  0  0  0
  -26.2460  -15.6360   20.0290 H   0  0  0  0  0  0  0  0  0  0  0  0
  -27.8710  -22.0720   21.5070 C   0  0  0  0  0  1  0  0  0  0  0  0
  -28.2870  -22.1130   20.0260 C   0  0  0  0  0  0  0  0  0  0  0  0
  -28.8050  -23.6090   19.6050 C   0  0  0  0  0  3  0  0  0  0  0  0
  -27.7430  -24.8490   19.6050 C   0  0  0  0  0  3  0  0  0  0  0  0
  -28.0690  -26.3310   19.5390 O   0  0  0  0  0  0  0  0  0  0  0  0
  -24.5950  -31.7280   23.0140 C   0  0  0  0  0  0  0  0  0  0  0  0
  -26.9950  -27.2620   19.5920 C   0  0  0  0  0  0  0  0  0  0  0  0
  -23.3030  -30.4360   21.3590 C   0  0  0  0  0  3  0  0  0  0  0  0
  -24.6680  -28.9550   19.7810 C   0  0  0  0  0  0  0  0  0  0  0  0
  -25.8440  -30.7210   21.0800 C   0  0  0  0  0  2  0  0  0  0  0  0
  -25.8750  -29.3770   20.3510 C   0  0  0  0  0  0  0  0  0  0  0  0
  -27.0420  -28.5460   20.2440 C   0  0  0  0  0  3  0  0  0  0  0  0
  -25.7590  -26.9260   18.9920 C   0  0  0  0  0  3  0  0  0  0  0  0
  -24.6150  -27.7390   19.0900 C   0  0  0  0  0  3  0  0  0  0  0  0
  -23.4480  -29.8440   19.9340 C   0  0  0  0  0  2  0  0  0  0  0  0
  -24.6030  -30.9770   21.8730 N   0  0  0  0  0  0  0  0  0  0  0  0
  -23.5380  -31.9860   23.6110 O   0  0  0  0  0  0  0  0  0  0  0  0
  -22.6710  -29.3720   22.2900 C   0  0  0  0  0  0  0  0  0  0  0  0
  -21.3380  -29.2160   22.2180 N   0  0  0  0  0  0  0  0  0  0  0  0
  -23.3780  -28.6920   23.0380 O   0  0  0  0  0  0  0  0  0  0  0  0
  -20.8240  -29.8170   21.5900 H   0  0  0  0  0  0  0  0  0  0  0  0
  -17.9730  -28.0160   22.8080 C   0  0  0  0  0  0  0  0  0  0  0  0
  -20.5430  -28.2450   22.9750 C   0  0  0  0  0  3  0  0  0  0  0  0
  -20.6070  -26.8450   22.3210 C   0  0  0  0  0  2  0  0  0  0  0  0
  -19.4580  -26.5840   21.3420 C   0  0  0  0  0  2  0  0  0  0  0  0
  -18.1070  -26.7040   22.0540 C   0  0  0  0  0  2  0  0  0  0  0  0
  -19.1160  -28.7470   23.2260 C   0  0  0  0  0  0  0  0  0  0  0  0
  -18.9350  -29.9780   23.8940 C   0  0  0  0  0  3  0  0  0  0  0  0
  -17.6430  -30.4770   24.1460 C   0  0  0  0  0  3  0  0  0  0  0  0
  -16.5150  -29.7420   23.7420 C   0  0  0  0  0  3  0  0  0  0  0  0
  -16.6810  -28.5130   23.0790 C   0  0  0  0  0  3  0  0  0  0  0  0
  -25.9090  -32.3170   23.6110 C   0  0  0  0  0  3  0  0  0  0  0  0
  -25.6230  -33.6920   24.0460 N   0  0  0  0  0  0  0  0  0  0  0  0
  -25.9200  -34.7920   23.3420 C   0  0  0  0  0  0  0  0  0  0  0  0
  -26.5330  -34.7560   22.2720 O   0  0  0  0  0  0  0  0  0  0  0  0
  -25.0730  -33.7940   24.8870 H   0  0  0  0  0  0  0  0  0  0  0  0
  -24.1820  -36.6060   23.2070 C   0  0  0  0  0  1  0  0  0  0  0  0
  -25.4670  -36.1480   23.9170 C   0  0  0  0  0  3  0  0  0  0  0  0
  -27.6510  -36.9770   24.6740 C   0  0  0  0  0  1  0  0  0  0  0  0
  -26.4950  -37.2070   23.8100 N   0  0  0  0  0  0  0  0  0  0  0  0
  -26.1030  -38.1150   24.0410 H   0  0  0  0  0  0  0  0  0  0  0  0
  -26.4810  -31.4640   24.8100 C   0  0  1  0  0  0  0  0  0  0  0  0
  -25.4430  -31.1740   25.9180 C   0  0  0  0  0  1  0  0  0  0  0  0
  -27.0250  -30.1070   24.3080 C   0  0  0  0  0  1  0  0  0  0  0  0
  -27.6760  -32.2050   25.4550 C   0  0  0  0  0  1  0  0  0  0  0  0
  2  7  1  0
  3  4  1  0
  3  2  1  0
  5  4  1  0
  5 23  1  0
  5  6  1  0
  7  1  1  0
  7  6  1  0
  8  1  2  0
  9 10  2  0
 10 13  1  0
 11  9  1  0
 12 14  2  0
 14 10  1  0
 15 11  2  0
 15 12  1  0
 16 49  2  0
 16 11  1  0
 17  1  1  0
 17 12  1  0
 18 16  1  0
 19 17  1  0
 20 21  2  0
 21 40  1  0
 22 21  1  0
 22 25  1  0
 23 20  1  0
 23 24  1  0
 24 22  2  0
 25 26  1  0
 26 27  2  0
 28 31  1  0
 28 27  1  0
 29 28  2  0
 30 29  1  0
 30 25  2  0
 31 32  1  0
 32 33  1  0
 33 34  2  0
 35 34  1  0
 35 39  1  0
 36 35  2  0
 37 32  2  0
 37 36  1  0
 38 37  1  0
 40 41  1  0
 41 44  1  0
 41 43  1  0
 42 40  2  0
 45 46  1  0
 45 20  1  0
 47 45  1  0
 49 48  1  0
 50 49  1  0
 51 50  2  0
 52 54  1  0
 52 51  1  0
 53 64  2  0
 54 59  1  0
 55 63  1  0
 55 65  1  0
 56 62  1  0
 56 58  1  0
 57 63  1  0
 58 57  1  0
 59 58  2  0
 60 61  1  0
 60 54  2  0
 61 56  2  0
 62 55  1  0
 63 53  1  0
 65 67  2  0
 66 65  1  0
 68 66  1  0
 69 78  2  0
 69 74  1  0
 70 66  1  0
 70 74  1  0
 71 70  1  0
 72 73  1  0
 72 71  1  0
 73 69  1  0
 74 75  2  0
 75 76  1  0
 77 76  2  0
 78 77  1  0
 79 53  1  0
 79 80  1  0
 79 89  1  0
 80 83  1  0
 81 85  1  0
 81 80  1  0
 82 81  2  0
 85 84  1  0
 87 85  1  0
 87 88  1  0
 87 86  1  0
 89 92  1  1
 89 90  1  0
 91 89  1  0
M  ISO  4   1 100  17 100  51 101  52 101
M  END
>  <TORSDO>  (65) 
F 18

>  <SCORE>  (65) 
-13.942

>  <name>  (65) 
64

>  <ligand_id>  (65) 
64

>  <original_smiles>  (65) 
[H]c1c(N([H])C([H])(C([H])([H])[H])C([H])([H])C([H])([H])Oc2c([H])c([H])c3c(c2[H])C([H])([H])N(C(=O)C([H])(N([H])C(=O)C([H])(N([H])C([H])([H])[H])C([H])([H])[H])C(C([H])([H])[H])(C([H])([H])[H])C([H])([H])[H])C([H])(C(=O)N([H])C2([H])c4c([H])c([H])c([H])c([H])c4C([H])([H])C([H])([H])C2([H])[H])C3([H])[H])nc(N([H])C(=O)N2C([H])([H])C([H])([H])C([H])([H])C([H])(n3nc(-c4c([H])c([H])c(Oc5c([H])c([H])c(F)c([H])c5F)c([H])c4[H])c(C(=O)N([H])[H])c3N([H])[H])C2([H])[H])nc1C([H])([H])[H]

>  <smiles>  (65) 
[H]c1c(N([H])C([H])(C([H])([H])[H])C([H])([H])C([H])([H])Oc2c([H])c([H])c3c(c2[H])C([H])([H])N(C(=O)C([H])(N([H])C(=O)C([H])(N([H])C([H])([H])[H])C([H])([H])[H])C(C([H])([H])[H])(C([H])([H])[H])C([H])([H])[H])C([H])(C(=O)N([H])C2([H])c4c([H])c([H])c([H])c([H])c4C([H])([H])C([H])([H])C2([H])[H])C3([H])[H])nc(N([H])C(=O)N2C([H])([H])C([H])([H])C([H])([H])C([H])(n3nc(-c4c([H])c([H])c(Oc5c([H])c([H])c(F)c([H])c5F)c([H])c4[H])c(C(=O)N([H])[H])c3N([H])[H])C2([H])[H])nc1C([H])([H])[H]

$$$$
65:0:0
     RDKit          3D

 93101  0  0  1  0  0  0  0  0999 V2000
  -29.4590  -18.5920   20.2680 C   0  0  0  0  0  0  0  0  0  0  0  0
  -27.5480  -19.3680   19.4450 C   0  0  0  0  0  0  0  0  0  0  0  0
  -28.9740  -20.8660   20.2250 C   0  0  0  0  0  0  0  0  0  0  0  0
  -28.2840  -18.3030   19.7040 N   0  0  0  0  0  4  0  0  0  0  0  0
  -29.8470  -19.8760   20.5710 N   0  0  0  0  0  0  0  0  0  0  0  0
  -27.8060  -20.6510   19.6420 N   0  0  0  0  0  2  0  0  0  0  0  0
  -26.3390  -19.0900   18.8950 N   0  0  0  0  0  0  0  0  0  0  0  0
  -29.2480  -22.2420   20.5550 N   0  0  0  0  0  0  0  0  0  0  0  0
  -26.0050  -18.1450   19.0360 H   0  0  0  0  0  0  0  0  0  0  0  0
  -25.6340  -19.8070   18.9950 H   0  0  0  0  0  0  0  0  0  0  0  0
  -30.1090  -22.3390   21.0820 H   0  0  0  0  0  0  0  0  0  0  0  0
  -30.3850  -17.3170   20.5760 C   0  0  0  0  0  2  0  0  0  0  0  0
  -30.7360  -14.6970   20.3970 C   0  0  0  0  0  0  0  0  0  0  0  0
  -30.5150  -12.4270   19.3590 C   0  0  0  0  0  2  0  0  0  0  0  0
  -29.5720  -12.5040   18.1380 C   0  0  0  0  0  2  0  0  0  0  0  0
  -28.1060  -12.3370   18.5760 C   0  0  0  0  0  2  0  0  0  0  0  0
  -27.7430  -13.2340   19.7890 C   0  0  0  0  0  3  0  0  0  0  0  0
  -28.8000  -13.1300   20.9100 C   0  0  0  0  0  2  0  0  0  0  0  0
  -30.0970  -13.4780   20.3170 N   0  0  0  0  0  0  0  0  0  0  0  0
  -31.9230  -14.7850   20.0710 O   0  0  0  0  0  0  0  0  0  0  0  0
  -29.9840  -15.8360   20.6340 N   0  0  0  0  0  0  0  0  0  0  0  0
  -29.0020  -15.6980   20.8220 H   0  0  0  0  0  0  0  0  0  0  0  0
  -25.3640  -13.8540   20.5170 C   0  0  0  0  0  0  0  0  0  0  0  0
  -24.2890  -13.0930   20.8810 C   0  0  0  0  0  0  0  0  0  0  0  0
  -24.7350  -11.7350   20.8500 C   0  0  0  0  0  0  0  0  0  0  0  0
  -26.3970  -12.9620   20.2820 N   0  0  0  0  0  0  0  0  0  0  0  0
  -26.0260  -11.6830   20.5460 N   0  0  0  0  0  0  0  0  0  0  0  0
  -23.9920  -10.4820   21.0340 C   0  0  0  0  0  0  0  0  0  0  0  0
  -24.3990   -9.5150   21.9800 C   0  0  0  0  0  3  0  0  0  0  0  0
  -23.6570   -8.3260   22.1510 C   0  0  0  0  0  3  0  0  0  0  0  0
  -22.4950   -8.0960   21.3760 C   0  0  0  0  0  0  0  0  0  0  0  0
  -22.1110   -9.0510   20.4190 C   0  0  0  0  0  3  0  0  0  0  0  0
  -22.8520  -10.2320   20.2460 C   0  0  0  0  0  3  0  0  0  0  0  0
  -21.7280   -6.9600   21.4560 O   0  0  0  0  0  0  0  0  0  0  0  0
  -21.6350   -6.2350   22.6180 C   0  0  0  0  0  0  0  0  0  0  0  0
  -21.1350   -6.8000   23.8110 C   0  0  0  0  0  3  0  0  0  0  0  0
  -20.9920   -6.0000   24.9630 C   0  0  0  0  0  3  0  0  0  0  0  0
  -21.3370   -4.6370   24.9210 C   0  0  0  0  0  0  0  0  0  0  0  0
  -21.8290   -4.0710   23.7320 C   0  0  0  0  0  3  0  0  0  0  0  0
  -21.9740   -4.8680   22.5820 C   0  0  0  0  0  0  0  0  0  0  0  0
  -22.4280   -4.3120   21.4330 F   0  0  0  0  0  0  0  0  0  0  0  0
  -21.1910   -3.8660   26.0240 F   0  0  0  0  0  0  0  0  0  0  0  0
  -22.8980  -13.5860   21.1490 C   0  0  0  0  0  0  0  0  0  0  0  0
  -22.1660  -12.9080   22.0260 N   0  0  0  0  0  0  0  0  0  0  0  0
  -22.4680  -14.6080   20.6150 O   0  0  0  0  0  0  0  0  0  0  0  0
  -22.5280  -12.0810   22.4780 H   0  0  0  0  0  0  0  0  0  0  0  0
  -21.2310  -13.2180   22.2490 H   0  0  0  0  0  0  0  0  0  0  0  0
  -25.5440  -15.2240   20.3390 N   0  0  0  0  0  0  0  0  0  0  0  0
  -24.7630  -15.8670   20.4090 H   0  0  0  0  0  0  0  0  0  0  0  0
  -26.3870  -15.6610   19.9890 H   0  0  0  0  0  0  0  0  0  0  0  0
  -28.8370  -23.5420   19.8540 C   0  0  0  0  0  2  0  0  0  0  0  0
  -28.3480  -24.8560   20.6970 C   0  0  0  0  0  2  0  0  0  0  0  0
  -28.4700  -26.2920   20.2290 O   0  0  0  0  0  0  0  0  0  0  0  0
  -24.5970  -31.7160   23.1980 C   0  0  0  0  0  0  0  0  0  0  0  0
  -27.3530  -27.1590   20.2120 C   0  0  0  0  0  0  0  0  0  0  0  0
  -23.4710  -30.3200   21.5030 C   0  0  0  0  0  3  0  0  0  0  0  0
  -24.9870  -28.7870   20.1160 C   0  0  0  0  0  0  0  0  0  0  0  0
  -26.0150  -30.6530   21.4150 C   0  0  0  0  0  2  0  0  0  0  0  0
  -26.1320  -29.2750   20.7590 C   0  0  0  0  0  0  0  0  0  0  0  0
  -27.3230  -28.4760   20.7870 C   0  0  0  0  0  3  0  0  0  0  0  0
  -26.1860  -26.7330   19.5490 C   0  0  0  0  0  3  0  0  0  0  0  0
  -25.0180  -27.5250   19.4980 C   0  0  0  0  0  3  0  0  0  0  0  0
  -23.7440  -29.6600   20.1250 C   0  0  0  0  0  2  0  0  0  0  0  0
  -24.7120  -30.9150   22.0970 N   0  0  0  0  0  0  0  0  0  0  0  0
  -23.4910  -31.9770   23.6950 O   0  0  0  0  0  0  0  0  0  0  0  0
  -22.7810  -29.2910   22.4310 C   0  0  0  0  0  0  0  0  0  0  0  0
  -21.4540  -29.1310   22.2820 N   0  0  0  0  0  0  0  0  0  0  0  0
  -23.4390  -28.6410   23.2470 O   0  0  0  0  0  0  0  0  0  0  0  0
  -20.9820  -29.7020   21.5960 H   0  0  0  0  0  0  0  0  0  0  0  0
  -18.0480  -28.0050   22.7700 C   0  0  0  0  0  0  0  0  0  0  0  0
  -20.6160  -28.1860   23.0230 C   0  0  0  0  0  3  0  0  0  0  0  0
  -20.6710  -26.7790   22.3850 C   0  0  0  0  0  2  0  0  0  0  0  0
  -19.5520  -26.5360   21.3650 C   0  0  0  0  0  2  0  0  0  0  0  0
  -18.1830  -26.6830   22.0350 C   0  0  0  0  0  2  0  0  0  0  0  0
  -19.1910  -28.7180   23.2210 C   0  0  0  0  0  0  0  0  0  0  0  0
  -19.0110  -29.9580   23.8740 C   0  0  0  0  0  3  0  0  0  0  0  0
  -17.7220  -30.4850   24.0750 C   0  0  0  0  0  3  0  0  0  0  0  0
  -16.5940  -29.7680   23.6370 C   0  0  0  0  0  3  0  0  0  0  0  0
  -16.7580  -28.5310   22.9890 C   0  0  0  0  0  3  0  0  0  0  0  0
  -25.8480  -32.3580   23.8720 C   0  0  0  0  0  3  0  0  0  0  0  0
  -26.3050  -31.6000   25.1790 C   0  0  1  0  0  0  0  0  0  0  0  0
  -25.1640  -31.3720   26.2000 C   0  0  0  0  0  1  0  0  0  0  0  0
  -26.9050  -30.2190   24.8310 C   0  0  0  0  0  1  0  0  0  0  0  0
  -27.4260  -32.4000   25.8840 C   0  0  0  0  0  1  0  0  0  0  0  0
  -25.5200  -33.7590   24.1790 N   0  0  0  0  0  0  0  0  0  0  0  0
  -25.8870  -34.8080   23.4300 C   0  0  0  0  0  0  0  0  0  0  0  0
  -26.6030  -34.6990   22.4320 O   0  0  0  0  0  0  0  0  0  0  0  0
  -24.8880  -33.9160   24.9500 H   0  0  0  0  0  0  0  0  0  0  0  0
  -24.1710  -36.5950   22.9940 C   0  0  0  0  0  1  0  0  0  0  0  0
  -25.3800  -36.2010   23.8560 C   0  0  0  0  0  3  0  0  0  0  0  0
  -27.4730  -37.1040   24.7700 C   0  0  0  0  0  1  0  0  0  0  0  0
  -26.4150  -37.2550   23.7750 N   0  0  0  0  0  0  0  0  0  0  0  0
  -26.0010  -38.1760   23.8880 H   0  0  0  0  0  0  0  0  0  0  0  0
  1  5  1  0
  1 12  1  0
  2  6  1  0
  2  4  2  0
  3  8  1  0
  3  5  2  0
  4  1  2  0
  6  3  1  0
  7 10  1  0
  7  9  1  0
  7  2  1  0
  8 11  1  0
 12 21  1  0
 13 21  1  0
 14 19  1  0
 15 16  1  0
 15 14  1  0
 17 16  1  0
 17 26  1  0
 17 18  1  0
 19 13  1  0
 19 18  1  0
 20 13  2  0
 21 22  1  0
 23 24  2  0
 24 43  1  0
 25 24  1  0
 25 28  1  0
 26 23  1  0
 26 27  1  0
 27 25  2  0
 28 29  1  0
 29 30  2  0
 31 34  1  0
 31 30  1  0
 32 31  2  0
 33 32  1  0
 33 28  2  0
 34 35  1  0
 35 36  1  0
 36 37  2  0
 38 37  1  0
 38 42  1  0
 39 38  2  0
 40 35  2  0
 40 39  1  0
 41 40  1  0
 43 44  1  0
 44 47  1  0
 44 46  1  0
 45 43  2  0
 48 49  1  0
 48 23  1  0
 50 48  1  0
 51  8  1  0
 51 52  1  0
 53 52  1  0
 54 65  2  0
 55 53  1  0
 55 60  1  0
 56 64  1  0
 56 66  1  0
 57 63  1  0
 57 59  1  0
 58 64  1  0
 59 60  2  0
 59 58  1  0
 61 55  2  0
 62 61  1  0
 62 57  2  0
 63 56  1  0
 64 54  1  0
 66 68  2  0
 67 66  1  0
 69 67  1  0
 70 79  2  0
 70 75  1  0
 71 67  1  0
 71 75  1  0
 72 71  1  0
 73 74  1  0
 73 72  1  0
 74 70  1  0
 75 76  2  0
 76 77  1  0
 78 77  2  0
 79 78  1  0
 80 54  1  0
 80 85  1  0
 80 81  1  0
 81 84  1  1
 81 82  1  0
 83 81  1  0
 85 88  1  0
 86 90  1  0
 86 85  1  0
 87 86  2  0
 90 89  1  0
 92 90  1  0
 92 93  1  0
 92 91  1  0
M  ISO  4  13 100  21 100  52 101  53 101
M  END
>  <TORSDO>  (66) 
F 19

>  <SCORE>  (66) 
-14.116

>  <name>  (66) 
65

>  <ligand_id>  (66) 
65

>  <original_smiles>  (66) 
[H]c1c([H])c([H])c2c(c1[H])C([H])([H])C([H])([H])C([H])([H])C2([H])N([H])C(=O)C1([H])N(C(=O)C([H])(N([H])C(=O)C([H])(N([H])C([H])([H])[H])C([H])([H])[H])C(C([H])([H])[H])(C([H])([H])[H])C([H])([H])[H])C([H])([H])c2c([H])c(OC([H])([H])C([H])([H])N([H])c3nc(N([H])[H])nc(C([H])([H])N([H])C(=O)N4C([H])([H])C([H])([H])C([H])([H])C([H])(n5nc(-c6c([H])c([H])c(Oc7c([H])c([H])c(F)c([H])c7F)c([H])c6[H])c(C(=O)N([H])[H])c5N([H])[H])C4([H])[H])n3)c([H])c([H])c2C1([H])[H]

>  <smiles>  (66) 
[H]c1c([H])c([H])c2c(c1[H])C([H])([H])C([H])([H])C([H])([H])C2([H])N([H])C(=O)C1([H])N(C(=O)C([H])(N([H])C(=O)C([H])(N([H])C([H])([H])[H])C([H])([H])[H])C(C([H])([H])[H])(C([H])([H])[H])C([H])([H])[H])C([H])([H])c2c([H])c(OC([H])([H])C([H])([H])N([H])c3nc(N([H])[H])nc(C([H])([H])N([H])C(=O)N4C([H])([H])C([H])([H])C([H])([H])C([H])(n5nc(-c6c([H])c([H])c(Oc7c([H])c([H])c(F)c([H])c7F)c([H])c6[H])c(C(=O)N([H])[H])c5N([H])[H])C4([H])[H])n3)c([H])c([H])c2C1([H])[H]

$$$$
66:0:0
     RDKit          3D

 90 98  0  0  1  0  0  0  0  0999 V2000
  -29.7950  -19.0580   21.7100 C   0  0  0  0  0  3  0  0  0  0  0  0
  -29.7760  -18.7760   20.3650 C   0  0  0  0  0  0  0  0  0  0  0  0
  -29.2930  -21.1280   20.3690 C   0  0  0  0  0  0  0  0  0  0  0  0
  -29.4620  -19.9850   19.6340 N   0  0  0  0  0  0  0  0  0  0  0  0
  -29.0110  -22.4620   19.8950 N   0  0  0  0  0  0  0  0  0  0  0  0
  -29.4870  -20.7600   22.0830 S   0  0  0  0  0  0  0  0  0  0  0  0
  -28.8350  -22.4510   18.8930 H   0  0  0  0  0  0  0  0  0  0  0  0
  -30.6530  -24.2820   20.2060 C   0  0  0  0  0  1  0  0  0  0  0  0
  -29.1850  -23.8840   20.3980 C   0  0  0  0  0  3  0  0  0  0  0  0
  -28.2150  -25.0470   19.8130 C   0  0  0  0  0  2  0  0  0  0  0  0
  -28.3600  -26.4970   20.2070 O   0  0  0  0  0  0  0  0  0  0  0  0
  -24.6250  -31.9280   23.2630 C   0  0  0  0  0  0  0  0  0  0  0  0
  -27.2540  -27.3840   20.1430 C   0  0  0  0  0  0  0  0  0  0  0  0
  -23.4290  -30.5400   21.6080 C   0  0  0  0  0  3  0  0  0  0  0  0
  -24.8880  -29.0180   20.1550 C   0  0  0  0  0  0  0  0  0  0  0  0
  -25.9680  -30.8710   21.4250 C   0  0  0  0  0  2  0  0  0  0  0  0
  -26.0570  -29.4970   20.7610 C   0  0  0  0  0  0  0  0  0  0  0  0
  -27.2410  -28.6890   20.7470 C   0  0  0  0  0  3  0  0  0  0  0  0
  -26.0630  -26.9870   19.4940 C   0  0  0  0  0  3  0  0  0  0  0  0
  -24.8960  -27.7720   19.5110 C   0  0  0  0  0  3  0  0  0  0  0  0
  -23.6450  -29.8850   20.2190 C   0  0  0  0  0  2  0  0  0  0  0  0
  -24.6940  -31.1310   22.1570 N   0  0  0  0  0  0  0  0  0  0  0  0
  -23.5400  -32.1900   23.8040 O   0  0  0  0  0  0  0  0  0  0  0  0
  -22.7730  -29.5080   22.5570 C   0  0  0  0  0  0  0  0  0  0  0  0
  -21.4490  -29.3150   22.4240 N   0  0  0  0  0  0  0  0  0  0  0  0
  -23.4570  -28.8830   23.3710 O   0  0  0  0  0  0  0  0  0  0  0  0
  -20.9540  -29.8740   21.7430 H   0  0  0  0  0  0  0  0  0  0  0  0
  -18.0840  -28.0740   22.9070 C   0  0  0  0  0  0  0  0  0  0  0  0
  -20.6390  -28.3630   23.1870 C   0  0  0  0  0  3  0  0  0  0  0  0
  -20.7600  -26.9370   22.6000 C   0  0  0  0  0  2  0  0  0  0  0  0
  -19.6660  -26.6090   21.5800 C   0  0  0  0  0  2  0  0  0  0  0  0
  -18.2810  -26.7320   22.2200 C   0  0  0  0  0  2  0  0  0  0  0  0
  -19.1920  -28.8460   23.3470 C   0  0  0  0  0  0  0  0  0  0  0  0
  -18.9560  -30.1000   23.9510 C   0  0  0  0  0  3  0  0  0  0  0  0
  -17.6450  -30.5840   24.1170 C   0  0  0  0  0  3  0  0  0  0  0  0
  -16.5520  -29.8080   23.6970 C   0  0  0  0  0  3  0  0  0  0  0  0
  -16.7720  -28.5540   23.0970 C   0  0  0  0  0  3  0  0  0  0  0  0
  -25.9020  -32.5650   23.8910 C   0  0  0  0  0  3  0  0  0  0  0  0
  -26.4090  -31.8030   25.1770 C   0  0  1  0  0  0  0  0  0  0  0  0
  -25.3070  -31.5720   26.2370 C   0  0  0  0  0  1  0  0  0  0  0  0
  -26.9970  -30.4230   24.8030 C   0  0  0  0  0  1  0  0  0  0  0  0
  -27.5520  -32.6030   25.8450 C   0  0  0  0  0  1  0  0  0  0  0  0
  -25.5900  -33.9660   24.2100 N   0  0  0  0  0  0  0  0  0  0  0  0
  -25.9100  -35.0130   23.4380 C   0  0  0  0  0  0  0  0  0  0  0  0
  -26.5670  -34.9020   22.4000 O   0  0  0  0  0  0  0  0  0  0  0  0
  -25.0070  -34.1260   25.0190 H   0  0  0  0  0  0  0  0  0  0  0  0
  -24.1700  -36.7980   23.0910 C   0  0  0  0  0  1  0  0  0  0  0  0
  -25.4250  -36.4050   23.8880 C   0  0  0  0  0  3  0  0  0  0  0  0
  -27.5640  -37.3120   24.6830 C   0  0  0  0  0  1  0  0  0  0  0  0
  -26.4510  -37.4610   23.7480 N   0  0  0  0  0  0  0  0  0  0  0  0
  -26.0430  -38.3810   23.8860 H   0  0  0  0  0  0  0  0  0  0  0  0
  -30.1540  -17.4030   19.6760 C   0  0  0  0  0  2  0  0  0  0  0  0
  -30.7120  -14.9030   20.1720 C   0  0  0  0  0  0  0  0  0  0  0  0
  -30.5120  -12.6160   19.2100 C   0  0  0  0  0  2  0  0  0  0  0  0
  -29.5660  -12.6880   17.9900 C   0  0  0  0  0  2  0  0  0  0  0  0
  -28.1010  -12.5040   18.4340 C   0  0  0  0  0  2  0  0  0  0  0  0
  -27.7300  -13.3990   19.6440 C   0  0  0  0  0  3  0  0  0  0  0  0
  -28.7970  -13.3350   20.7590 C   0  0  0  0  0  2  0  0  0  0  0  0
  -30.0920  -13.6740   20.1570 N   0  0  0  0  0  0  0  0  0  0  0  0
  -31.8910  -14.9960   19.8160 O   0  0  0  0  0  0  0  0  0  0  0  0
  -29.9330  -16.0380   20.3240 N   0  0  0  0  0  0  0  0  0  0  0  0
  -28.9860  -15.8650   20.6250 H   0  0  0  0  0  0  0  0  0  0  0  0
  -25.3480  -13.9830   20.3950 C   0  0  0  0  0  0  0  0  0  0  0  0
  -24.2870  -13.2080   20.7780 C   0  0  0  0  0  0  0  0  0  0  0  0
  -24.7540  -11.8580   20.7460 C   0  0  0  0  0  0  0  0  0  0  0  0
  -26.3910  -13.1060   20.1480 N   0  0  0  0  0  0  0  0  0  0  0  0
  -26.0410  -11.8230   20.4230 N   0  0  0  0  0  0  0  0  0  0  0  0
  -24.0340  -10.5930   20.9490 C   0  0  0  0  0  0  0  0  0  0  0  0
  -24.4710   -9.6400   21.8950 C   0  0  0  0  0  3  0  0  0  0  0  0
  -23.7530   -8.4400   22.0840 C   0  0  0  0  0  3  0  0  0  0  0  0
  -22.5850   -8.1850   21.3290 C   0  0  0  0  0  0  0  0  0  0  0  0
  -22.1660   -9.1270   20.3730 C   0  0  0  0  0  3  0  0  0  0  0  0
  -22.8840  -10.3190   20.1810 C   0  0  0  0  0  3  0  0  0  0  0  0
  -21.8410   -7.0350   21.4240 O   0  0  0  0  0  0  0  0  0  0  0  0
  -21.7820   -6.3100   22.5870 C   0  0  0  0  0  0  0  0  0  0  0  0
  -21.3080   -6.8740   23.7920 C   0  0  0  0  0  3  0  0  0  0  0  0
  -21.2000   -6.0750   24.9480 C   0  0  0  0  0  3  0  0  0  0  0  0
  -21.5550   -4.7130   24.9000 C   0  0  0  0  0  0  0  0  0  0  0  0
  -22.0210   -4.1490   23.6990 C   0  0  0  0  0  3  0  0  0  0  0  0
  -22.1310   -4.9450   22.5460 C   0  0  0  0  0  0  0  0  0  0  0  0
  -22.5620   -4.3920   21.3860 F   0  0  0  0  0  0  0  0  0  0  0  0
  -21.4420   -3.9430   26.0060 F   0  0  0  0  0  0  0  0  0  0  0  0
  -22.8920  -13.6830   21.0600 C   0  0  0  0  0  0  0  0  0  0  0  0
  -22.1750  -12.9930   21.9400 N   0  0  0  0  0  0  0  0  0  0  0  0
  -22.4460  -14.7040   20.5380 O   0  0  0  0  0  0  0  0  0  0  0  0
  -22.5440  -12.1680   22.3880 H   0  0  0  0  0  0  0  0  0  0  0  0
  -21.2400  -13.3000   22.1730 H   0  0  0  0  0  0  0  0  0  0  0  0
  -25.5040  -15.3530   20.2090 N   0  0  0  0  0  0  0  0  0  0  0  0
  -24.7330  -16.0040   20.3160 H   0  0  0  0  0  0  0  0  0  0  0  0
  -26.3370  -15.7880   19.8340 H   0  0  0  0  0  0  0  0  0  0  0  0
  1  6  1  0
  2  1  2  0
  3  6  1  0
  4  2  1  0
  4  3  2  0
  5  3  1  0
  5  9  1  0
  7  5  1  0
  9  8  1  0
 10 11  1  0
 10  9  1  0
 12 23  2  0
 13 11  1  0
 13 18  1  0
 14 22  1  0
 14 24  1  0
 15 21  1  0
 15 17  1  0
 16 22  1  0
 17 16  1  0
 18 17  2  0
 19 20  1  0
 19 13  2  0
 20 15  2  0
 21 14  1  0
 22 12  1  0
 24 26  2  0
 25 24  1  0
 27 25  1  0
 28 37  2  0
 28 33  1  0
 29 25  1  0
 29 33  1  0
 30 29  1  0
 31 32  1  0
 31 30  1  0
 32 28  1  0
 33 34  2  0
 34 35  1  0
 36 35  2  0
 37 36  1  0
 38 12  1  0
 38 43  1  0
 38 39  1  0
 39 42  1  1
 39 40  1  0
 41 39  1  0
 43 46  1  0
 44 48  1  0
 44 43  1  0
 45 44  2  0
 48 47  1  0
 50 51  1  0
 50 48  1  0
 50 49  1  0
 52 61  1  0
 52  2  1  0
 53 61  1  0
 54 59  1  0
 55 56  1  0
 55 54  1  0
 57 56  1  0
 57 66  1  0
 57 58  1  0
 59 53  1  0
 59 58  1  0
 60 53  2  0
 61 62  1  0
 63 64  2  0
 64 83  1  0
 65 64  1  0
 65 68  1  0
 66 63  1  0
 66 67  1  0
 67 65  2  0
 68 69  1  0
 69 70  2  0
 71 74  1  0
 71 70  1  0
 72 71  2  0
 73 72  1  0
 73 68  2  0
 74 75  1  0
 75 76  1  0
 76 77  2  0
 78 77  1  0
 78 82  1  0
 79 78  2  0
 80 75  2  0
 80 79  1  0
 81 80  1  0
 83 84  1  0
 84 87  1  0
 84 86  1  0
 85 83  2  0
 88 89  1  0
 88 63  1  0
 90 88  1  0
M  ISO  4  10 101  11 101  53 100  61 100
M  END
>  <TORSDO>  (67) 
F 19

>  <SCORE>  (67) 
-13.294

>  <name>  (67) 
66

>  <ligand_id>  (67) 
66

>  <original_smiles>  (67) 
[H]c1sc(N([H])C([H])(C([H])([H])[H])C([H])([H])Oc2c([H])c([H])c3c(c2[H])C([H])([H])N(C(=O)C([H])(N([H])C(=O)C([H])(N([H])C([H])([H])[H])C([H])([H])[H])C(C([H])([H])[H])(C([H])([H])[H])C([H])([H])[H])C([H])(C(=O)N([H])C2([H])c4c([H])c([H])c([H])c([H])c4C([H])([H])C([H])([H])C2([H])[H])C3([H])[H])nc1C([H])([H])N([H])C(=O)N1C([H])([H])C([H])([H])C([H])([H])C([H])(n2nc(-c3c([H])c([H])c(Oc4c([H])c([H])c(F)c([H])c4F)c([H])c3[H])c(C(=O)N([H])[H])c2N([H])[H])C1([H])[H]

>  <smiles>  (67) 
[H]c1sc(N([H])C([H])(C([H])([H])[H])C([H])([H])Oc2c([H])c([H])c3c(c2[H])C([H])([H])N(C(=O)C([H])(N([H])C(=O)C([H])(N([H])C([H])([H])[H])C([H])([H])[H])C(C([H])([H])[H])(C([H])([H])[H])C([H])([H])[H])C([H])(C(=O)N([H])C2([H])c4c([H])c([H])c([H])c([H])c4C([H])([H])C([H])([H])C2([H])[H])C3([H])[H])nc1C([H])([H])N([H])C(=O)N1C([H])([H])C([H])([H])C([H])([H])C([H])(n2nc(-c3c([H])c([H])c(Oc4c([H])c([H])c(F)c([H])c4F)c([H])c3[H])c(C(=O)N([H])[H])c2N([H])[H])C1([H])[H]

$$$$
67:0:0
     RDKit          3D

 91 99  0  0  1  0  0  0  0  0999 V2000
  -29.2400  -22.7080   19.6870 C   0  0  0  0  0  3  0  0  0  0  0  0
  -29.8930  -22.7900   18.4310 O   0  0  0  0  0  0  0  0  0  0  0  0
  -29.4000  -23.3850   17.8720 H   0  0  0  0  0  0  0  0  0  0  0  0
  -29.8730  -21.5080   20.4750 C   0  0  0  0  0  2  0  0  0  0  0  0
  -29.8480  -20.1310   19.7150 C   0  0  0  0  0  2  0  0  0  0  0  0
  -30.8230  -14.5120   20.0850 C   0  0  0  0  0  0  0  0  0  0  0  0
  -30.4520  -12.3810   18.8690 C   0  0  0  0  0  2  0  0  0  0  0  0
  -29.4280  -12.6280   17.7400 C   0  0  0  0  0  2  0  0  0  0  0  0
  -27.9840  -12.4890   18.2620 C   0  0  0  0  0  2  0  0  0  0  0  0
  -27.7460  -13.2820   19.5750 C   0  0  0  0  0  3  0  0  0  0  0  0
  -28.8680  -12.9920   20.5970 C   0  0  0  0  0  2  0  0  0  0  0  0
  -30.1600  -13.3230   19.9650 N   0  0  0  0  0  0  0  0  0  0  0  0
  -31.8650  -14.7550   19.4660 O   0  0  0  0  0  0  0  0  0  0  0  0
  -29.9580  -17.5680   22.1190 C   0  0  0  0  0  3  0  0  0  0  0  0
  -30.2490  -16.8370   20.9400 C   0  0  0  0  0  0  0  0  0  0  0  0
  -29.8570  -18.8470   21.8460 N   0  0  0  0  0  0  0  0  0  0  0  0
  -30.3380  -17.6780   19.9260 N   0  0  0  0  0  0  0  0  0  0  0  0
  -30.0910  -18.9060   20.5050 N   0  0  0  0  0  0  0  0  0  0  0  0
  -30.2550  -15.4000   20.9320 N   0  0  0  0  0  0  0  0  0  0  0  0
  -29.5960  -14.9760   21.5660 H   0  0  0  0  0  0  0  0  0  0  0  0
  -25.4060  -13.9040   20.4510 C   0  0  0  0  0  0  0  0  0  0  0  0
  -24.3530  -13.1390   20.8710 C   0  0  0  0  0  0  0  0  0  0  0  0
  -24.7890  -11.7810   20.7760 C   0  0  0  0  0  0  0  0  0  0  0  0
  -26.4210  -13.0140   20.1310 N   0  0  0  0  0  0  0  0  0  0  0  0
  -26.0550  -11.7310   20.3810 N   0  0  0  0  0  0  0  0  0  0  0  0
  -24.0570  -10.5250   20.9830 C   0  0  0  0  0  0  0  0  0  0  0  0
  -24.5210   -9.5390   21.8810 C   0  0  0  0  0  3  0  0  0  0  0  0
  -23.7910   -8.3480   22.0770 C   0  0  0  0  0  3  0  0  0  0  0  0
  -22.5800   -8.1340   21.3770 C   0  0  0  0  0  0  0  0  0  0  0  0
  -22.1330   -9.1100   20.4680 C   0  0  0  0  0  3  0  0  0  0  0  0
  -22.8650  -10.2920   20.2700 C   0  0  0  0  0  3  0  0  0  0  0  0
  -21.8170   -6.9960   21.4840 O   0  0  0  0  0  0  0  0  0  0  0  0
  -21.7930   -6.2520   22.6360 C   0  0  0  0  0  0  0  0  0  0  0  0
  -21.4260   -6.8140   23.8780 C   0  0  0  0  0  3  0  0  0  0  0  0
  -21.3460   -5.9980   25.0240 C   0  0  0  0  0  3  0  0  0  0  0  0
  -21.6240   -4.6210   24.9300 C   0  0  0  0  0  0  0  0  0  0  0  0
  -21.9830   -4.0590   23.6930 C   0  0  0  0  0  3  0  0  0  0  0  0
  -22.0640   -4.8720   22.5480 C   0  0  0  0  0  0  0  0  0  0  0  0
  -22.3910   -4.3210   21.3540 F   0  0  0  0  0  0  0  0  0  0  0  0
  -21.5400   -3.8350   26.0280 F   0  0  0  0  0  0  0  0  0  0  0  0
  -22.9840  -13.6290   21.2490 C   0  0  0  0  0  0  0  0  0  0  0  0
  -22.3100  -12.9260   22.1540 N   0  0  0  0  0  0  0  0  0  0  0  0
  -22.5240  -14.6670   20.7790 O   0  0  0  0  0  0  0  0  0  0  0  0
  -22.6960  -12.0850   22.5560 H   0  0  0  0  0  0  0  0  0  0  0  0
  -21.3950  -13.2360   22.4500 H   0  0  0  0  0  0  0  0  0  0  0  0
  -25.5810  -15.2770   20.2960 N   0  0  0  0  0  0  0  0  0  0  0  0
  -24.8370  -15.9420   20.4740 H   0  0  0  0  0  0  0  0  0  0  0  0
  -26.4200  -15.7090   19.9280 H   0  0  0  0  0  0  0  0  0  0  0  0
  -29.2950  -24.1330   20.3570 C   0  0  0  0  0  2  0  0  0  0  0  0
  -28.2270  -25.1430   19.8150 C   0  0  0  0  0  2  0  0  0  0  0  0
  -28.3430  -26.5420   20.2120 O   0  0  0  0  0  0  0  0  0  0  0  0
  -24.6100  -31.8780   23.2100 C   0  0  0  0  0  0  0  0  0  0  0  0
  -27.1960  -27.3340   20.1600 C   0  0  0  0  0  0  0  0  0  0  0  0
  -23.3820  -30.4560   21.6060 C   0  0  0  0  0  3  0  0  0  0  0  0
  -24.8130  -28.8990   20.1770 C   0  0  0  0  0  0  0  0  0  0  0  0
  -25.9130  -30.7890   21.3780 C   0  0  0  0  0  2  0  0  0  0  0  0
  -25.9850  -29.4070   20.7510 C   0  0  0  0  0  0  0  0  0  0  0  0
  -27.1750  -28.6330   20.7410 C   0  0  0  0  0  3  0  0  0  0  0  0
  -26.0010  -26.8750   19.5520 C   0  0  0  0  0  3  0  0  0  0  0  0
  -24.8200  -27.6340   19.5730 C   0  0  0  0  0  3  0  0  0  0  0  0
  -23.5730  -29.7640   20.2320 C   0  0  0  0  0  2  0  0  0  0  0  0
  -24.6540  -31.0570   22.1220 N   0  0  0  0  0  0  0  0  0  0  0  0
  -23.5360  -32.1610   23.7580 O   0  0  0  0  0  0  0  0  0  0  0  0
  -22.7400  -29.4470   22.5890 C   0  0  0  0  0  0  0  0  0  0  0  0
  -21.4150  -29.2590   22.4780 N   0  0  0  0  0  0  0  0  0  0  0  0
  -23.4330  -28.8380   23.4090 O   0  0  0  0  0  0  0  0  0  0  0  0
  -20.9170  -29.8020   21.7870 H   0  0  0  0  0  0  0  0  0  0  0  0
  -18.0520  -28.0440   23.0100 C   0  0  0  0  0  0  0  0  0  0  0  0
  -20.6080  -28.3310   23.2710 C   0  0  0  0  0  3  0  0  0  0  0  0
  -20.7230  -26.8890   22.7280 C   0  0  0  0  0  2  0  0  0  0  0  0
  -19.6230  -26.5310   21.7240 C   0  0  0  0  0  2  0  0  0  0  0  0
  -18.2410  -26.6790   22.3670 C   0  0  0  0  0  2  0  0  0  0  0  0
  -19.1640  -28.8250   23.4200 C   0  0  0  0  0  0  0  0  0  0  0  0
  -18.9340  -30.1010   23.9800 C   0  0  0  0  0  3  0  0  0  0  0  0
  -17.6260  -30.5940   24.1350 C   0  0  0  0  0  3  0  0  0  0  0  0
  -16.5280  -29.8090   23.7430 C   0  0  0  0  0  3  0  0  0  0  0  0
  -16.7420  -28.5360   23.1850 C   0  0  0  0  0  3  0  0  0  0  0  0
  -25.9040  -32.5170   23.8030 C   0  0  0  0  0  3  0  0  0  0  0  0
  -25.5980  -33.9180   24.1240 N   0  0  0  0  0  0  0  0  0  0  0  0
  -25.9120  -34.9620   23.3460 C   0  0  0  0  0  0  0  0  0  0  0  0
  -26.5630  -34.8490   22.3030 O   0  0  0  0  0  0  0  0  0  0  0  0
  -25.0180  -34.0800   24.9340 H   0  0  0  0  0  0  0  0  0  0  0  0
  -24.1680  -36.7430   23.0110 C   0  0  0  0  0  1  0  0  0  0  0  0
  -25.4300  -36.3540   23.7970 C   0  0  0  0  0  3  0  0  0  0  0  0
  -27.5800  -37.2560   24.5650 C   0  0  0  0  0  1  0  0  0  0  0  0
  -26.4550  -37.4100   23.6480 N   0  0  0  0  0  0  0  0  0  0  0  0
  -26.0480  -38.3300   23.7940 H   0  0  0  0  0  0  0  0  0  0  0  0
  -26.4440  -31.7570   25.0760 C   0  0  1  0  0  0  0  0  0  0  0  0
  -25.3710  -31.5280   26.1650 C   0  0  0  0  0  1  0  0  0  0  0  0
  -27.0240  -30.3770   24.6860 C   0  0  0  0  0  1  0  0  0  0  0  0
  -27.6050  -32.5600   25.7110 C   0  0  0  0  0  1  0  0  0  0  0  0
  1 49  1  0
  1  4  1  0
  2  1  1  0
  3  2  1  0
  5  4  1  0
  5 18  1  0
  6 19  1  0
  7 12  1  0
  8  9  1  0
  8  7  1  0
 10  9  1  0
 10 24  1  0
 10 11  1  0
 12  6  1  0
 12 11  1  0
 13  6  2  0
 15 14  1  0
 16 14  2  0
 17 18  1  0
 17 15  2  0
 18 16  1  0
 19 15  1  0
 19 20  1  0
 21 22  2  0
 22 41  1  0
 23 22  1  0
 23 26  1  0
 24 25  1  0
 24 21  1  0
 25 23  2  0
 26 27  1  0
 27 28  2  0
 29 32  1  0
 29 28  1  0
 30 29  2  0
 31 30  1  0
 31 26  2  0
 32 33  1  0
 33 34  1  0
 34 35  2  0
 36 35  1  0
 36 40  1  0
 37 36  2  0
 38 33  2  0
 38 37  1  0
 39 38  1  0
 41 42  1  0
 42 45  1  0
 42 44  1  0
 43 41  2  0
 46 21  1  0
 46 47  1  0
 48 46  1  0
 50 51  1  0
 50 49  1  0
 52 63  2  0
 53 51  1  0
 53 58  1  0
 54 62  1  0
 54 64  1  0
 55 61  1  0
 55 57  1  0
 56 62  1  0
 57 56  1  0
 58 57  2  0
 59 60  1  0
 59 53  2  0
 60 55  2  0
 61 54  1  0
 62 52  1  0
 64 66  2  0
 65 64  1  0
 67 65  1  0
 68 77  2  0
 68 73  1  0
 69 65  1  0
 69 73  1  0
 70 69  1  0
 71 72  1  0
 71 70  1  0
 72 68  1  0
 73 74  2  0
 74 75  1  0
 76 75  2  0
 77 76  1  0
 78 52  1  0
 78 79  1  0
 78 88  1  0
 79 82  1  0
 80 84  1  0
 80 79  1  0
 81 80  2  0
 84 83  1  0
 86 87  1  0
 86 84  1  0
 86 85  1  0
 88 91  1  1
 88 89  1  0
 90 88  1  0
M  ISO  4   6 100  19 100  50 101  51 101
M  END
>  <TORSDO>  (68) 
F 21

>  <SCORE>  (68) 
-12.635

>  <name>  (68) 
67

>  <ligand_id>  (68) 
67

>  <original_smiles>  (68) 
[H]OC([H])(C([H])([H])C([H])([H])Oc1c([H])c([H])c2c(c1[H])C([H])([H])N(C(=O)C([H])(N([H])C(=O)C([H])(N([H])C([H])([H])[H])C([H])([H])[H])C(C([H])([H])[H])(C([H])([H])[H])C([H])([H])[H])C([H])(C(=O)N([H])C1([H])c3c([H])c([H])c([H])c([H])c3C([H])([H])C([H])([H])C1([H])[H])C2([H])[H])C([H])([H])C([H])([H])n1nc([H])c(N([H])C(=O)N2C([H])([H])C([H])([H])C([H])([H])C([H])(n3nc(-c4c([H])c([H])c(Oc5c([H])c([H])c(F)c([H])c5F)c([H])c4[H])c(C(=O)N([H])[H])c3N([H])[H])C2([H])[H])n1

>  <smiles>  (68) 
[H]OC([H])(C([H])([H])C([H])([H])Oc1c([H])c([H])c2c(c1[H])C([H])([H])N(C(=O)C([H])(N([H])C(=O)C([H])(N([H])C([H])([H])[H])C([H])([H])[H])C(C([H])([H])[H])(C([H])([H])[H])C([H])([H])[H])C([H])(C(=O)N([H])C1([H])c3c([H])c([H])c([H])c([H])c3C([H])([H])C([H])([H])C1([H])[H])C2([H])[H])C([H])([H])C([H])([H])n1nc([H])c(N([H])C(=O)N2C([H])([H])C([H])([H])C([H])([H])C([H])(n3nc(-c4c([H])c([H])c(Oc5c([H])c([H])c(F)c([H])c5F)c([H])c4[H])c(C(=O)N([H])[H])c3N([H])[H])C2([H])[H])n1

$$$$
68:0:0
     RDKit          3D

103111  0  0  1  0  0  0  0  0999 V2000
  -31.4190  -20.4320   20.0270 N   0  0  0  0  0  0  0  0  0  0  0  0
  -30.6490  -20.8950   20.5010 H   0  0  0  0  0  0  0  0  0  0  0  0
  -31.4440  -13.8850   19.1390 C   0  0  0  0  0  0  0  0  0  0  0  0
  -30.8040  -11.6920   18.1930 C   0  0  0  0  0  2  0  0  0  0  0  0
  -29.7250  -11.9110   17.1110 C   0  0  0  0  0  2  0  0  0  0  0  0
  -28.3120  -11.9650   17.7310 C   0  0  0  0  0  2  0  0  0  0  0  0
  -28.2320  -12.9060   18.9630 C   0  0  0  0  0  3  0  0  0  0  0  0
  -29.3980  -12.6290   19.9380 C   0  0  0  0  0  2  0  0  0  0  0  0
  -30.6630  -12.7680   19.1900 N   0  0  0  0  0  0  0  0  0  0  0  0
  -32.4960  -13.9220   18.4890 O   0  0  0  0  0  0  0  0  0  0  0  0
  -32.2120  -18.2290   19.1060 C   0  0  0  0  0  3  0  0  0  0  0  0
  -31.3330  -19.0270   19.8770 C   0  0  0  0  0  0  0  0  0  0  0  0
  -30.3170  -18.3030   20.5460 C   0  0  0  0  0  0  0  0  0  0  0  0
  -31.1310  -16.3070   19.7540 C   0  0  0  0  0  0  0  0  0  0  0  0
  -32.1070  -16.8790   19.0510 N   0  0  0  0  0  0  0  0  0  0  0  0
  -30.2480  -16.9600   20.4880 N   0  0  0  0  0  0  0  0  0  0  0  0
  -30.9230  -14.9490   19.7850 N   0  0  0  0  0  0  0  0  0  0  0  0
  -30.1090  -14.7070   20.3220 H   0  0  0  0  0  0  0  0  0  0  0  0
  -26.0590  -13.8230   19.9920 C   0  0  0  0  0  0  0  0  0  0  0  0
  -24.9570  -13.2030   20.5120 C   0  0  0  0  0  0  0  0  0  0  0  0
  -25.2170  -11.8020   20.4230 C   0  0  0  0  0  0  0  0  0  0  0  0
  -26.9310  -12.8110   19.6260 N   0  0  0  0  0  0  0  0  0  0  0  0
  -26.4330  -11.5870   19.9380 N   0  0  0  0  0  0  0  0  0  0  0  0
  -24.3570  -10.6510   20.7230 C   0  0  0  0  0  0  0  0  0  0  0  0
  -24.8210   -9.5640   21.4980 C   0  0  0  0  0  3  0  0  0  0  0  0
  -23.9710   -8.4740   21.7850 C   0  0  0  0  0  3  0  0  0  0  0  0
  -22.6400   -8.4650   21.3000 C   0  0  0  0  0  0  0  0  0  0  0  0
  -22.1910   -9.5380   20.5100 C   0  0  0  0  0  3  0  0  0  0  0  0
  -23.0400  -10.6190   20.2200 C   0  0  0  0  0  3  0  0  0  0  0  0
  -21.7500   -7.4400   21.5090 O   0  0  0  0  0  0  0  0  0  0  0  0
  -21.6250   -6.8350   22.7350 C   0  0  0  0  0  0  0  0  0  0  0  0
  -21.3490   -7.5730   23.9070 C   0  0  0  0  0  3  0  0  0  0  0  0
  -21.1620   -6.9030   25.1330 C   0  0  0  0  0  3  0  0  0  0  0  0
  -21.2360   -5.4980   25.1860 C   0  0  0  0  0  0  0  0  0  0  0  0
  -21.5040   -4.7610   24.0180 C   0  0  0  0  0  3  0  0  0  0  0  0
  -21.6940   -5.4280   22.7950 C   0  0  0  0  0  0  0  0  0  0  0  0
  -21.9330   -4.7130   21.6690 F   0  0  0  0  0  0  0  0  0  0  0  0
  -21.0450   -4.8520   26.3600 F   0  0  0  0  0  0  0  0  0  0  0  0
  -23.6900  -13.8660   20.9740 C   0  0  0  0  0  0  0  0  0  0  0  0
  -23.0360  -13.3030   21.9860 N   0  0  0  0  0  0  0  0  0  0  0  0
  -23.2980  -14.9160   20.4700 O   0  0  0  0  0  0  0  0  0  0  0  0
  -23.3670  -12.4530   22.4150 H   0  0  0  0  0  0  0  0  0  0  0  0
  -22.1890  -13.7300   22.3340 H   0  0  0  0  0  0  0  0  0  0  0  0
  -26.3880  -15.1570   19.7860 N   0  0  0  0  0  0  0  0  0  0  0  0
  -25.7400  -15.9070   19.9940 H   0  0  0  0  0  0  0  0  0  0  0  0
  -27.2470  -15.4740   19.3560 H   0  0  0  0  0  0  0  0  0  0  0  0
  -29.5620  -18.5940   22.9180 C   0  0  0  0  0  1  0  0  0  0  0  0
  -29.2760  -18.9620   21.4520 C   0  0  0  0  0  3  0  0  0  0  0  0
  -27.8090  -18.6430   21.0550 C   0  0  0  0  0  2  0  0  0  0  0  0
  -26.0150  -18.2780   19.3560 C   0  0  0  0  0  1  0  0  0  0  0  0
  -27.8330  -16.5860   19.5020 C   0  0  0  0  0  1  0  0  0  0  0  0
  -28.2990  -18.8630   18.5470 C   0  0  0  0  0  1  0  0  0  0  0  0
  -27.5190  -18.0890   19.6280 C   0  0  2  0  0  0  0  0  0  0  0  0
  -32.6000  -21.2690   19.8010 C   0  0  0  0  0  3  0  0  0  0  0  0
  -33.6970  -20.0760   21.8600 C   0  0  0  0  0  1  0  0  0  0  0  0
  -33.8750  -20.6480   20.4380 C   0  0  0  0  0  2  0  0  0  0  0  0
  -32.3320  -22.7160   20.3350 C   0  0  0  0  0  2  0  0  0  0  0  0
  -32.6800  -23.9010   19.3850 C   0  0  0  0  0  3  0  0  0  0  0  0
  -34.0830  -23.9690   19.1810 O   0  0  0  0  0  0  0  0  0  0  0  0
  -34.4950  -24.1980   20.0080 H   0  0  0  0  0  0  0  0  0  0  0  0
  -32.2480  -25.2970   19.9220 C   0  0  0  0  0  2  0  0  0  0  0  0
  -30.7340  -25.5810   20.0130 C   0  0  0  0  0  2  0  0  0  0  0  0
  -30.2240  -26.1880   18.8190 O   0  0  0  0  0  0  0  0  0  0  0  0
  -25.3950  -29.4220   22.9270 C   0  0  0  0  0  0  0  0  0  0  0  0
  -28.9410  -26.6620   18.9460 C   0  0  0  0  0  0  0  0  0  0  0  0
  -24.5210  -28.3440   20.8730 C   0  0  0  0  0  3  0  0  0  0  0  0
  -26.2830  -27.5880   19.1850 C   0  0  0  0  0  0  0  0  0  0  0  0
  -26.9110  -29.2380   20.9600 C   0  0  0  0  0  2  0  0  0  0  0  0
  -27.2910  -28.1470   19.9800 C   0  0  0  0  0  0  0  0  0  0  0  0
  -28.6210  -27.6890   19.8630 C   0  0  0  0  0  3  0  0  0  0  0  0
  -27.9190  -26.1180   18.1390 C   0  0  0  0  0  3  0  0  0  0  0  0
  -26.5890  -26.5700   18.2630 C   0  0  0  0  0  3  0  0  0  0  0  0
  -24.8870  -28.1380   19.3770 C   0  0  0  0  0  2  0  0  0  0  0  0
  -25.6230  -29.0000   21.6490 N   0  0  0  0  0  0  0  0  0  0  0  0
  -24.2760  -29.3120   23.4460 O   0  0  0  0  0  0  0  0  0  0  0  0
  -24.0790  -26.9880   21.4680 C   0  0  0  0  0  0  0  0  0  0  0  0
  -22.8440  -26.5660   21.1470 N   0  0  0  0  0  0  0  0  0  0  0  0
  -24.8450  -26.3300   22.1780 O   0  0  0  0  0  0  0  0  0  0  0  0
  -22.2740  -27.1710   20.5730 H   0  0  0  0  0  0  0  0  0  0  0  0
  -19.8730  -24.5380   20.8400 C   0  0  0  0  0  0  0  0  0  0  0  0
  -22.2360  -25.3010   21.5570 C   0  0  0  0  0  3  0  0  0  0  0  0
  -22.7640  -24.1270   20.7040 C   0  0  0  0  0  2  0  0  0  0  0  0
  -21.8880  -23.8250   19.4840 C   0  0  0  0  0  2  0  0  0  0  0  0
  -20.4600  -23.4810   19.9200 C   0  0  0  0  0  2  0  0  0  0  0  0
  -20.7070  -25.4020   21.5960 C   0  0  0  0  0  0  0  0  0  0  0  0
  -20.1100  -26.3920   22.4070 C   0  0  0  0  0  3  0  0  0  0  0  0
  -18.7100  -26.5230   22.4730 C   0  0  0  0  0  3  0  0  0  0  0  0
  -17.8890  -25.6530   21.7350 C   0  0  0  0  0  3  0  0  0  0  0  0
  -18.4700  -24.6610   20.9240 C   0  0  0  0  0  3  0  0  0  0  0  0
  -26.5210  -30.0830   23.7840 C   0  0  0  0  0  3  0  0  0  0  0  0
  -27.0680  -29.1410   24.9260 C   0  0  1  0  0  0  0  0  0  0  0  0
  -25.9610  -28.5540   25.8290 C   0  0  0  0  0  1  0  0  0  0  0  0
  -27.8650  -27.9600   24.3210 C   0  0  0  0  0  1  0  0  0  0  0  0
  -28.0490  -29.9240   25.8270 C   0  0  0  0  0  1  0  0  0  0  0  0
  -25.9770  -31.3230   24.3500 N   0  0  0  0  0  0  0  0  0  0  0  0
  -26.2150  -32.5500   23.8650 C   0  0  0  0  0  0  0  0  0  0  0  0
  -26.9830  -32.7590   22.9210 O   0  0  0  0  0  0  0  0  0  0  0  0
  -25.2990  -31.2230   25.0900 H   0  0  0  0  0  0  0  0  0  0  0  0
  -24.2950  -34.1570   23.6450 C   0  0  0  0  0  1  0  0  0  0  0  0
  -25.4800  -33.7310   24.5270 C   0  0  0  0  0  3  0  0  0  0  0  0
  -27.3510  -34.6500   25.8240 C   0  0  0  0  0  1  0  0  0  0  0  0
  -26.3500  -34.8970   24.7900 N   0  0  0  0  0  0  0  0  0  0  0  0
  -25.7980  -35.7020   25.0700 H   0  0  0  0  0  0  0  0  0  0  0  0
  1  2  1  0
  3  9  1  0
  3 17  1  0
  4  9  1  0
  5  6  1  0
  5  4  1  0
  7  6  1  0
  7 22  1  0
  7  8  1  0
  9  8  1  0
 10  3  2  0
 11 12  2  0
 12  1  1  0
 12 13  1  0
 13 48  1  0
 14 17  1  0
 14 16  1  0
 15 11  1  0
 15 14  2  0
 16 13  2  0
 17 18  1  0
 19 20  2  0
 20 39  1  0
 21 20  1  0
 21 24  1  0
 22 23  1  0
 22 19  1  0
 23 21  2  0
 24 25  1  0
 25 26  2  0
 27 30  1  0
 27 26  1  0
 28 27  2  0
 29 28  1  0
 29 24  2  0
 30 31  1  0
 31 36  2  0
 31 32  1  0
 32 33  2  0
 33 34  1  0
 34 38  1  0
 35 34  2  0
 36 35  1  0
 37 36  1  0
 39 40  1  0
 40 43  1  0
 40 42  1  0
 41 39  2  0
 44 19  1  0
 44 45  1  0
 46 44  1  0
 48 47  1  0
 49 48  1  0
 53 50  1  6
 51 53  1  0
 52 53  1  0
 53 49  1  0
 54  1  1  0
 54 57  1  0
 54 56  1  0
 56 55  1  0
 58 61  1  0
 58 57  1  0
 59 58  1  0
 59 60  1  0
 61 62  1  0
 63 65  1  0
 63 62  1  0
 64 75  2  0
 65 70  1  0
 66 76  1  0
 66 74  1  0
 67 73  1  0
 67 69  1  0
 68 74  1  0
 69 68  1  0
 70 69  2  0
 71 72  1  0
 71 65  2  0
 72 67  2  0
 73 66  1  0
 74 64  1  0
 76 78  2  0
 77 76  1  0
 79 77  1  0
 80 89  2  0
 80 85  1  0
 81 77  1  0
 81 85  1  0
 82 81  1  0
 83 84  1  0
 83 82  1  0
 84 80  1  0
 85 86  2  0
 86 87  1  0
 88 87  2  0
 89 88  1  0
 90 64  1  0
 90 95  1  0
 90 91  1  0
 91 94  1  1
 91 92  1  0
 93 91  1  0
 95 98  1  0
 96 95  1  0
 96100  1  0
 97 96  2  0
100 99  1  0
100102  1  0
102103  1  0
102101  1  0
M  ISO  4   3 100  17 100  62 101  63 101
M  END
>  <TORSDO>  (69) 
F 26

>  <SCORE>  (69) 
-4.367

>  <name>  (69) 
68

>  <ligand_id>  (69) 
68

>  <original_smiles>  (69) 
[H]OC([H])(C([H])([H])C([H])([H])Oc1c([H])c([H])c2c(c1[H])C([H])([H])N(C(=O)C([H])(N([H])C(=O)C([H])(N([H])C([H])([H])[H])C([H])([H])[H])C(C([H])([H])[H])(C([H])([H])[H])C([H])([H])[H])C([H])(C(=O)N([H])C1([H])c3c([H])c([H])c([H])c([H])c3C([H])([H])C([H])([H])C1([H])[H])C2([H])[H])C([H])([H])C([H])(N([H])c1c([H])nc(N([H])C(=O)N2C([H])([H])C([H])([H])C([H])([H])C([H])(n3nc(-c4c([H])c([H])c(Oc5c([H])c([H])c(F)c([H])c5F)c([H])c4[H])c(C(=O)N([H])[H])c3N([H])[H])C2([H])[H])nc1C([H])(C([H])([H])[H])C([H])([H])C(C([H])([H])[H])(C([H])([H])[H])C([H])([H])[H])C([H])([H])C([H])([H])[H]

>  <smiles>  (69) 
[H]OC([H])(C([H])([H])C([H])([H])Oc1c([H])c([H])c2c(c1[H])C([H])([H])N(C(=O)C([H])(N([H])C(=O)C([H])(N([H])C([H])([H])[H])C([H])([H])[H])C(C([H])([H])[H])(C([H])([H])[H])C([H])([H])[H])C([H])(C(=O)N([H])C1([H])c3c([H])c([H])c([H])c([H])c3C([H])([H])C([H])([H])C1([H])[H])C2([H])[H])C([H])([H])C([H])(N([H])c1c([H])nc(N([H])C(=O)N2C([H])([H])C([H])([H])C([H])([H])C([H])(n3nc(-c4c([H])c([H])c(Oc5c([H])c([H])c(F)c([H])c5F)c([H])c4[H])c(C(=O)N([H])[H])c3N([H])[H])C2([H])[H])nc1C([H])(C([H])([H])[H])C([H])([H])C(C([H])([H])[H])(C([H])([H])[H])C([H])([H])[H])C([H])([H])C([H])([H])[H]

$$$$
69:0:0
     RDKit          3D

 92 98  0  0  1  0  0  0  0  0999 V2000
  -26.9000  -15.2380   18.2970 C   0  0  0  0  0  3  0  0  0  0  0  0
  -26.7710  -13.4380   18.7680 C   0  0  0  0  0  3  0  0  0  0  0  0
  -27.7680  -16.5620   19.1380 C   0  0  0  0  0  0  0  0  0  0  0  0
  -28.6190  -14.2880   21.0900 C   0  0  0  0  0  3  0  0  0  0  0  0
  -27.7530  -12.9010   20.2070 N   0  0  0  0  0  0  0  0  0  0  0  0
  -28.5340  -15.8940   20.4780 N   0  0  0  0  0  0  0  0  0  0  0  0
  -27.8060  -18.3250   18.6160 N   0  0  0  0  0  2  0  0  0  0  0  0
  -27.2050  -18.2890   17.7960 H   0  0  0  0  0  0  0  0  0  0  0  0
  -28.9190  -20.4050   20.0270 C   0  0  0  0  0  1  0  0  0  0  0  0
  -28.3040  -20.2620   18.6320 C   0  0  0  0  0  1  0  0  0  0  0  0
  -27.7720  -22.4950   18.3170 C   0  0  0  0  0 15  0  0  0  0  0  0
  -28.0790  -24.5390   18.4930 O   0  0  0  0  0  1  0  0  0  0  0  0
  -24.8830  -31.1690   22.2680 C   0  0  0  0  0  0  0  0  0  0  0  0
  -27.3510  -26.0820   18.6220 C   0  0  0  0  0  0  0  0  0  0  0  0
  -23.7670  -29.9120   20.4970 C   0  0  0  0  0  3  0  0  0  0  0  0
  -25.2380  -28.4630   18.8500 C   0  0  0  0  0  0  0  0  0  0  0  0
  -26.3560  -30.0150   20.4070 C   0  0  0  0  0  2  0  0  0  0  0  0
  -26.4310  -28.6240   19.5560 C   0  0  0  0  0  0  0  0  0  0  0  0
  -27.4670  -27.4750   19.4050 C   0  0  0  0  0  3  0  0  0  0  0  0
  -26.1850  -26.3350   17.8490 C   0  0  0  0  0  3  0  0  0  0  0  0
  -25.2000  -27.3760   17.9610 C   0  0  0  0  0  3  0  0  0  0  0  0
  -24.0330  -29.4170   19.0430 C   0  0  0  0  0  2  0  0  0  0  0  0
  -25.0370  -30.4140   21.1110 N   0  0  0  0  0  0  0  0  0  0  0  0
  -23.7720  -31.3520   22.8010 O   0  0  0  0  0  0  0  0  0  0  0  0
  -23.1090  -28.7910   21.3490 C   0  0  0  0  0  0  0  0  0  0  0  0
  -21.7810  -28.5880   21.2440 N   0  0  0  0  0  0  0  0  0  0  0  0
  -23.8130  -28.1050   22.0950 O   0  0  0  0  0  0  0  0  0  0  0  0
  -21.2520  -29.1960   20.6350 H   0  0  0  0  0  0  0  0  0  0  0  0
  -18.4820  -27.1200   21.7150 C   0  0  0  0  0  0  0  0  0  0  0  0
  -21.0350  -27.5090   21.9070 C   0  0  0  0  0  3  0  0  0  0  0  0
  -21.1830  -26.1780   21.1330 C   0  0  0  0  0  2  0  0  0  0  0  0
  -20.0540  -25.9370   20.1240 C   0  0  0  0  0  2  0  0  0  0  0  0
  -18.6980  -25.9020   20.8350 C   0  0  0  0  0  2  0  0  0  0  0  0
  -19.5770  -27.8850   22.2050 C   0  0  0  0  0  0  0  0  0  0  0  0
  -19.3110  -29.0230   22.9970 C   0  0  0  0  0  3  0  0  0  0  0  0
  -17.9880  -29.4000   23.2990 C   0  0  0  0  0  3  0  0  0  0  0  0
  -16.9110  -28.6340   22.8170 C   0  0  0  0  0  3  0  0  0  0  0  0
  -17.1600  -27.4950   22.0330 C   0  0  0  0  0  3  0  0  0  0  0  0
  -26.0850  -31.8520   22.9910 C   0  0  0  0  0  3  0  0  0  0  0  0
  -26.6810  -30.9710   24.1600 C   0  0  1  0  0  0  0  0  0  0  0  0
  -25.6280  -30.5070   25.1940 C   0  0  0  0  0  1  0  0  0  0  0  0
  -27.3720  -29.7050   23.6140 C   0  0  0  0  0  1  0  0  0  0  0  0
  -27.7730  -31.7680   24.9120 C   0  0  0  0  0  1  0  0  0  0  0  0
  -25.6300  -33.1490   23.5530 N   0  0  0  0  0  0  0  0  0  0  0  0
  -25.8530  -34.3590   23.0210 C   0  0  0  0  0  0  0  0  0  0  0  0
  -26.5060  -34.5110   21.9880 O   0  0  0  0  0  0  0  0  0  0  0  0
  -25.0330  -33.0940   24.3670 H   0  0  0  0  0  0  0  0  0  0  0  0
  -23.9660  -36.0400   23.0470 C   0  0  0  0  0  1  0  0  0  0  0  0
  -25.2650  -35.5950   23.7410 C   0  0  0  0  0  3  0  0  0  0  0  0
  -27.3310  -36.5210   24.7010 C   0  0  0  0  0  1  0  0  0  0  0  0
  -26.1970  -36.7440   23.8090 N   0  0  0  0  0  0  0  0  0  0  0  0
  -25.7110  -37.5840   24.1160 H   0  0  0  0  0  0  0  0  0  0  0  0
  -29.7110  -14.1840   22.1670 C   0  0  0  0  0  2  0  0  0  0  0  0
  -31.0800  -14.8970   21.7610 C   0  0  0  0  0  2  0  0  0  0  0  0
  -32.2090  -13.3470   19.9410 C   0  0  0  0  0  0  0  0  0  0  0  0
  -32.5820  -10.8280   19.9710 C   0  0  0  0  0  2  0  0  0  0  0  0
  -31.4740  -10.0930   19.1770 C   0  0  0  0  0  2  0  0  0  0  0  0
  -30.0330  -10.4170   19.5600 C   0  0  0  0  0  2  0  0  0  0  0  0
  -29.5390  -11.9930   20.0420 C   0  0  0  0  0  2  0  0  0  0  0  0
  -30.9870  -11.8350   21.0130 C   0  0  0  0  0  2  0  0  0  0  0  0
  -32.1100  -12.1190   20.4200 N   0  0  0  0  0  0  0  0  0  0  0  0
  -32.7170  -13.5040   18.8450 O   0  0  0  0  0  0  0  0  0  0  0  0
  -32.1610  -14.3340   20.8760 N   0  0  0  0  0  0  0  0  0  0  0  0
  -32.7650  -15.0830   20.5670 H   0  0  0  0  0  0  0  0  0  0  0  0
  -25.8840  -13.0470   21.4630 C   0  0  0  0  0  3  0  0  0  0  0  0
  -24.8440  -12.1460   21.5450 C   0  0  2  0  0  0  0  0  0  0  0  0
  -25.2300  -10.7970   21.5800 C   0  0  0  0  0  3  0  0  0  0  0  0
  -27.0350  -12.4400   21.6240 N   0  0  0  0  0  0  0  0  0  0  0  0
  -26.2870  -11.2350   22.2740 N   0  0  0  0  0  0  0  0  0  0  0  0
  -24.4040   -9.4730   21.6090 C   0  0  0  0  0  0  0  0  0  0  0  0
  -24.4220   -8.4270   22.5860 C   0  0  0  0  0  3  0  0  0  0  0  0
  -23.4810   -7.3450   22.5720 C   0  0  0  0  0  3  0  0  0  0  0  0
  -22.4790   -7.2570   21.5700 C   0  0  0  0  0  0  0  0  0  0  0  0
  -22.5160   -8.2220   20.5490 C   0  0  0  0  0  3  0  0  0  0  0  0
  -23.4610   -9.2760   20.5620 C   0  0  0  0  0  3  0  0  0  0  0  0
  -21.5060   -6.2720   21.4720 O   0  0  0  0  0  0  0  0  0  0  0  0
  -20.7900   -5.8030   22.5530 C   0  0  0  0  0  0  0  0  0  0  0  0
  -19.9640   -6.6430   23.3330 C   0  0  0  0  0  3  0  0  0  0  0  0
  -19.2120   -6.1090   24.4000 C   0  0  0  0  0  3  0  0  0  0  0  0
  -19.2670   -4.7320   24.6890 C   0  0  0  0  0  0  0  0  0  0  0  0
  -20.0660   -3.8850   23.9010 C   0  0  0  0  0  3  0  0  0  0  0  0
  -20.8160   -4.4170   22.8340 C   0  0  0  0  0  0  0  0  0  0  0  0
  -21.5600   -3.5830   22.0680 F   0  0  0  0  0  0  0  0  0  0  0  0
  -18.5540   -4.2200   25.7210 F   0  0  0  0  0  0  0  0  0  0  0  0
  -23.5620  -12.6230   22.0090 C   0  0  0  0  0  0  0  0  0  0  0  0
  -22.9710  -11.9260   22.9690 N   0  0  0  0  0  0  0  0  0  0  0  0
  -23.1930  -13.7240   21.6340 O   0  0  0  0  0  0  0  0  0  0  0  0
  -23.3650  -11.0590   23.3020 H   0  0  0  0  0  0  0  0  0  0  0  0
  -22.1140  -12.2640   23.3830 H   0  0  0  0  0  0  0  0  0  0  0  0
  -26.0030  -14.4000   21.4470 N   0  0  0  0  0  0  0  0  0  0  0  0
  -25.1350  -14.9200   21.5320 H   0  0  0  0  0  0  0  0  0  0  0  0
  -26.7600  -14.8400   21.9550 H   0  0  0  0  0  0  0  0  0  0  0  0
  1  2  2  0
  1  3  1  0
  2  5  1  0
  3  6  2  0
  4 53  1  0
  5  4  1  0
  6  4  1  0
  7  3  1  0
  8  7  1  0
 10  9  1  0
 12 14  1  0
 13 24  2  0
 14 19  1  0
 15 23  1  0
 15 25  1  0
 16 22  1  0
 16 18  1  0
 17 23  1  0
 18 17  1  0
 19 18  2  0
 20 21  1  0
 20 14  2  0
 21 16  2  0
 22 15  1  0
 23 13  1  0
 25 27  2  0
 26 25  1  0
 28 26  1  0
 29 38  2  0
 29 34  1  0
 30 26  1  0
 30 34  1  0
 31 30  1  0
 32 33  1  0
 32 31  1  0
 33 29  1  0
 34 35  2  0
 35 36  1  0
 37 36  2  0
 38 37  1  0
 39 13  1  0
 39 44  1  0
 39 40  1  0
 40 43  1  1
 40 41  1  0
 42 40  1  0
 44 47  1  0
 45 44  1  0
 45 49  1  0
 46 45  2  0
 49 48  1  0
 49 51  1  0
 51 52  1  0
 51 50  1  0
 54 53  1  0
 55 61  1  0
 55 63  1  0
 56 61  1  0
 57 58  1  0
 57 56  1  0
 58 59  1  0
 59 60  1  0
 61 60  1  0
 62 55  2  0
 63 54  1  0
 64 63  1  0
 65 90  1  0
 65 66  1  0
 65 68  1  0
 66 67  1  0
 66 85  1  6
 66 69  1  0
 67 70  1  0
 67 69  1  0
 68  5  1  0
 68 69  1  0
 70 71  1  0
 72 71  2  0
 73 72  1  0
 74 75  1  0
 74 73  2  0
 75 70  2  0
 76 73  1  0
 76 77  1  0
 77 82  2  0
 77 78  1  0
 78 79  2  0
 79 80  1  0
 80 84  1  0
 81 80  2  0
 82 81  1  0
 83 82  1  0
 85 86  1  0
 86 88  1  0
 86 89  1  0
 87 85  2  0
 90 91  1  0
 90 92  1  0
M  ISO  4  11 101  12 101  55 100  63 100
M  END
>  <TORSDO>  (70) 
F 20

>  <SCORE>  (70) 
-3.810

>  <name>  (70) 
69

>  <ligand_id>  (70) 
69

>  <original_smiles>  (70) 
[H]c1nc(C([H])([H])C([H])([H])N([H])C(=O)N2C([H])([H])C([H])([H])C([H])([H])C([H])(n3nc(-c4c([H])c([H])c(Oc5c([H])c([H])c(F)c([H])c5F)c([H])c4[H])c(C(=O)N([H])[H])c3N([H])[H])C2([H])[H])nc(N([H])C([H])(C([H])([H])[H])C([H])([H])Oc2c([H])c([H])c3c(c2[H])C([H])([H])N(C(=O)C([H])(N([H])C(=O)C([H])(N([H])C([H])([H])[H])C([H])([H])[H])C(C([H])([H])[H])(C([H])([H])[H])C([H])([H])[H])C([H])(C(=O)N([H])C2([H])c4c([H])c([H])c([H])c([H])c4C([H])([H])C([H])([H])C2([H])[H])C3([H])[H])c1[H]

>  <smiles>  (70) 
[H]c1nc(C([H])([H])C([H])([H])N([H])C(=O)N2C([H])([H])C([H])([H])C([H])([H])C([H])(n3nc(-c4c([H])c([H])c(Oc5c([H])c([H])c(F)c([H])c5F)c([H])c4[H])c(C(=O)N([H])[H])c3N([H])[H])C2([H])[H])nc(N([H])C([H])(C([H])([H])[H])C([H])([H])Oc2c([H])c([H])c3c(c2[H])C([H])([H])N(C(=O)C([H])(N([H])C(=O)C([H])(N([H])C([H])([H])[H])C([H])([H])[H])C(C([H])([H])[H])(C([H])([H])[H])C([H])([H])[H])C([H])(C(=O)N([H])C2([H])c4c([H])c([H])c([H])c([H])c4C([H])([H])C([H])([H])C2([H])[H])C3([H])[H])c1[H]

$$$$
70:0:0
     RDKit          3D

 94102  0  0  1  0  0  0  0  0999 V2000
  -28.2980  -18.2730   19.8920 C   0  0  0  0  0  3  0  0  0  0  0  0
  -29.6690  -18.5010   20.1200 C   0  0  0  0  0  0  0  0  0  0  0  0
  -27.4790  -19.3840   19.6690 C   0  0  0  0  0  0  0  0  0  0  0  0
  -29.2270  -20.8480   19.9290 C   0  0  0  0  0  0  0  0  0  0  0  0
  -30.1130  -19.8220   20.0950 N   0  0  0  0  0  0  0  0  0  0  0  0
  -27.9310  -20.6510   19.7100 N   0  0  0  0  0  0  0  0  0  0  0  0
  -26.1350  -19.2170   19.3510 N   0  0  0  0  0  0  0  0  0  0  0  0
  -29.6970  -22.1820   19.6940 N   0  0  0  0  0  0  0  0  0  0  0  0
  -25.7190  -18.2940   19.2900 H   0  0  0  0  0  0  0  0  0  0  0  0
  -25.6610  -19.9250   18.7990 H   0  0  0  0  0  0  0  0  0  0  0  0
  -30.6600  -22.1190   19.3860 H   0  0  0  0  0  0  0  0  0  0  0  0
  -30.6550  -17.2580   20.3400 C   0  0  0  0  0  2  0  0  0  0  0  0
  -31.0130  -14.6290   20.3070 C   0  0  0  0  0  0  0  0  0  0  0  0
  -30.6930  -12.4140   19.1880 C   0  0  0  0  0  2  0  0  0  0  0  0
  -29.7160  -12.5840   18.0030 C   0  0  0  0  0  2  0  0  0  0  0  0
  -28.2620  -12.4270   18.4890 C   0  0  0  0  0  2  0  0  0  0  0  0
  -27.9560  -13.2850   19.7450 C   0  0  0  0  0  3  0  0  0  0  0  0
  -29.0450  -13.1020   20.8220 C   0  0  0  0  0  2  0  0  0  0  0  0
  -30.3370  -13.4320   20.2060 N   0  0  0  0  0  0  0  0  0  0  0  0
  -32.2060  -14.6940   20.0040 O   0  0  0  0  0  0  0  0  0  0  0  0
  -30.2710  -15.7830   20.5050 N   0  0  0  0  0  0  0  0  0  0  0  0
  -29.2910  -15.6380   20.6870 H   0  0  0  0  0  0  0  0  0  0  0  0
  -25.6190  -13.9220   20.5920 C   0  0  0  0  0  0  0  0  0  0  0  0
  -24.5410  -13.1660   20.9580 C   0  0  0  0  0  0  0  0  0  0  0  0
  -24.9510  -11.8030   20.8340 C   0  0  0  0  0  0  0  0  0  0  0  0
  -26.6200  -13.0210   20.2710 N   0  0  0  0  0  0  0  0  0  0  0  0
  -26.2280  -11.7380   20.4820 N   0  0  0  0  0  0  0  0  0  0  0  0
  -24.1840  -10.5580   20.9640 C   0  0  0  0  0  0  0  0  0  0  0  0
  -24.6190   -9.5040   21.7980 C   0  0  0  0  0  3  0  0  0  0  0  0
  -23.8520   -8.3250   21.9180 C   0  0  0  0  0  3  0  0  0  0  0  0
  -22.6360   -8.1930   21.2050 C   0  0  0  0  0  0  0  0  0  0  0  0
  -22.2230   -9.2350   20.3570 C   0  0  0  0  0  3  0  0  0  0  0  0
  -22.9900  -10.4040   20.2340 C   0  0  0  0  0  3  0  0  0  0  0  0
  -21.8370   -7.0780   21.2440 O   0  0  0  0  0  0  0  0  0  0  0  0
  -21.8320   -6.2310   22.3270 C   0  0  0  0  0  0  0  0  0  0  0  0
  -21.4780   -6.6790   23.6180 C   0  0  0  0  0  3  0  0  0  0  0  0
  -21.4250   -5.7650   24.6880 C   0  0  0  0  0  3  0  0  0  0  0  0
  -21.7090   -4.4030   24.4670 C   0  0  0  0  0  0  0  0  0  0  0  0
  -22.0530   -3.9560   23.1810 C   0  0  0  0  0  3  0  0  0  0  0  0
  -22.1130   -4.8690   22.1130 C   0  0  0  0  0  0  0  0  0  0  0  0
  -22.4280   -4.4270   20.8700 F   0  0  0  0  0  0  0  0  0  0  0  0
  -21.6450   -3.5240   25.4930 F   0  0  0  0  0  0  0  0  0  0  0  0
  -23.1680  -13.6730   21.3020 C   0  0  0  0  0  0  0  0  0  0  0  0
  -22.4560  -12.9700   22.1710 N   0  0  0  0  0  0  0  0  0  0  0  0
  -22.7450  -14.7310   20.8350 O   0  0  0  0  0  0  0  0  0  0  0  0
  -22.8140  -12.1090   22.5610 H   0  0  0  0  0  0  0  0  0  0  0  0
  -21.5360  -13.2880   22.4430 H   0  0  0  0  0  0  0  0  0  0  0  0
  -25.8220  -15.2940   20.4650 N   0  0  0  0  0  0  0  0  0  0  0  0
  -25.0010  -15.8900   20.4720 H   0  0  0  0  0  0  0  0  0  0  0  0
  -26.5440  -15.6460   19.8510 H   0  0  0  0  0  0  0  0  0  0  0  0
  -29.5780  -23.4890   20.4820 C   0  0  0  0  0  2  0  0  0  0  0  0
  -27.1290  -23.9860   20.8080 C   0  0  0  0  0  1  0  0  0  0  0  0
  -28.4160  -24.5940   20.1980 C   0  0  0  0  0  3  0  0  0  0  0  0
  -28.5980  -26.0700   20.5930 O   0  0  0  0  0  0  0  0  0  0  0  0
  -24.5610  -31.6670   23.1300 C   0  0  0  0  0  0  0  0  0  0  0  0
  -27.5320  -27.0090   20.4280 C   0  0  0  0  0  0  0  0  0  0  0  0
  -23.5600  -30.1830   21.4420 C   0  0  0  0  0  3  0  0  0  0  0  0
  -25.1670  -28.6450   20.1890 C   0  0  0  0  0  0  0  0  0  0  0  0
  -26.1100  -30.5430   21.4930 C   0  0  0  0  0  2  0  0  0  0  0  0
  -26.2770  -29.1490   20.8770 C   0  0  0  0  0  0  0  0  0  0  0  0
  -27.4660  -28.3410   20.9850 C   0  0  0  0  0  3  0  0  0  0  0  0
  -26.3930  -26.6100   19.6930 C   0  0  0  0  0  3  0  0  0  0  0  0
  -25.2300  -27.3820   19.5940 C   0  0  0  0  0  3  0  0  0  0  0  0
  -23.9130  -29.4890   20.1050 C   0  0  0  0  0  2  0  0  0  0  0  0
  -24.7600  -30.8210   22.0730 N   0  0  0  0  0  0  0  0  0  0  0  0
  -23.4220  -31.9240   23.5490 O   0  0  0  0  0  0  0  0  0  0  0  0
  -22.8380  -29.1690   22.3670 C   0  0  0  0  0  0  0  0  0  0  0  0
  -21.5100  -29.0280   22.2020 N   0  0  0  0  0  0  0  0  0  0  0  0
  -23.4760  -28.5130   23.1920 O   0  0  0  0  0  0  0  0  0  0  0  0
  -21.0630  -29.5880   21.4880 H   0  0  0  0  0  0  0  0  0  0  0  0
  -18.0670  -28.0560   22.7830 C   0  0  0  0  0  0  0  0  0  0  0  0
  -20.6480  -28.1070   22.9480 C   0  0  0  0  0  3  0  0  0  0  0  0
  -20.6210  -26.7130   22.2810 C   0  0  0  0  0  2  0  0  0  0  0  0
  -19.4410  -26.5120   21.3210 C   0  0  0  0  0  2  0  0  0  0  0  0
  -18.1100  -26.7290   22.0460 C   0  0  0  0  0  2  0  0  0  0  0  0
  -19.2590  -28.7060   23.2020 C   0  0  0  0  0  0  0  0  0  0  0  0
  -19.1610  -29.9400   23.8810 C   0  0  0  0  0  3  0  0  0  0  0  0
  -17.9080  -30.5210   24.1470 C   0  0  0  0  0  3  0  0  0  0  0  0
  -16.7320  -29.8720   23.7340 C   0  0  0  0  0  3  0  0  0  0  0  0
  -16.8110  -28.6450   23.0560 C   0  0  0  0  0  3  0  0  0  0  0  0
  -25.7530  -32.3650   23.8480 C   0  0  0  0  0  3  0  0  0  0  0  0
  -26.1790  -31.6450   25.1860 C   0  0  1  0  0  0  0  0  0  0  0  0
  -25.0060  -31.3860   26.1600 C   0  0  0  0  0  1  0  0  0  0  0  0
  -26.8450  -30.2830   24.8850 C   0  0  0  0  0  1  0  0  0  0  0  0
  -27.2420  -32.4950   25.9220 C   0  0  0  0  0  1  0  0  0  0  0  0
  -25.3610  -33.7570   24.1180 N   0  0  0  0  0  0  0  0  0  0  0  0
  -25.7550  -34.8140   23.3960 C   0  0  0  0  0  0  0  0  0  0  0  0
  -26.5570  -34.7190   22.4640 O   0  0  0  0  0  0  0  0  0  0  0  0
  -24.6760  -33.9000   24.8430 H   0  0  0  0  0  0  0  0  0  0  0  0
  -24.0570  -36.5580   22.7750 C   0  0  0  0  0  1  0  0  0  0  0  0
  -25.1740  -36.1930   23.7650 C   0  0  0  0  0  3  0  0  0  0  0  0
  -27.1280  -37.1430   24.9050 C   0  0  0  0  0  1  0  0  0  0  0  0
  -26.1880  -37.2680   23.7910 N   0  0  0  0  0  0  0  0  0  0  0  0
  -25.7460  -38.1820   23.8500 H   0  0  0  0  0  0  0  0  0  0  0  0
  1  2  2  0
  2 12  1  0
  3  6  2  0
  3  1  1  0
  4  5  2  0
  5  2  1  0
  6  4  1  0
  7  3  1  0
  8  4  1  0
  8 51  1  0
  9  7  1  0
 10  7  1  0
 11  8  1  0
 12 21  1  0
 13 21  1  0
 14 19  1  0
 15 16  1  0
 15 14  1  0
 17 16  1  0
 17 26  1  0
 17 18  1  0
 19 13  1  0
 19 18  1  0
 20 13  2  0
 21 22  1  0
 23 24  2  0
 24 43  1  0
 25 24  1  0
 25 28  1  0
 26 27  1  0
 26 23  1  0
 27 25  2  0
 28 29  1  0
 29 30  2  0
 31 34  1  0
 31 30  1  0
 32 31  2  0
 33 32  1  0
 33 28  2  0
 34 35  1  0
 35 36  1  0
 36 37  2  0
 38 37  1  0
 38 42  1  0
 39 38  2  0
 40 35  2  0
 40 39  1  0
 41 40  1  0
 43 44  1  0
 44 47  1  0
 44 46  1  0
 45 43  2  0
 48 49  1  0
 48 23  1  0
 50 48  1  0
 53 51  1  0
 53 54  1  0
 53 52  1  0
 55 66  2  0
 56 54  1  0
 56 61  1  0
 57 65  1  0
 57 67  1  0
 58 60  1  0
 59 65  1  0
 60 61  2  0
 60 59  1  0
 62 56  2  0
 63 62  1  0
 63 58  2  0
 64 58  1  0
 64 57  1  0
 65 55  1  0
 67 69  2  0
 68 67  1  0
 70 68  1  0
 71 80  2  0
 71 76  1  0
 72 68  1  0
 72 76  1  0
 73 72  1  0
 74 75  1  0
 74 73  1  0
 75 71  1  0
 76 77  2  0
 77 78  1  0
 79 78  2  0
 80 79  1  0
 81 55  1  0
 81 86  1  0
 81 82  1  0
 82 85  1  1
 82 83  1  0
 84 82  1  0
 86 89  1  0
 87 91  1  0
 87 86  1  0
 88 87  2  0
 91 90  1  0
 91 93  1  0
 93 94  1  0
 93 92  1  0
M  ISO  4  13 100  21 100  53 101  54 101
M  END
>  <TORSDO>  (71) 
F 19

>  <SCORE>  (71) 
-13.530

>  <name>  (71) 
70

>  <ligand_id>  (71) 
70

>  <original_smiles>  (71) 
[H]c1c(N([H])[H])nc(N([H])C([H])([H])C([H])(Oc2c([H])c([H])c3c(c2[H])C([H])([H])N(C(=O)C([H])(N([H])C(=O)C([H])(N([H])C([H])([H])[H])C([H])([H])[H])C(C([H])([H])[H])(C([H])([H])[H])C([H])([H])[H])C([H])(C(=O)N([H])C2([H])c4c([H])c([H])c([H])c([H])c4C([H])([H])C([H])([H])C2([H])[H])C3([H])[H])C([H])([H])[H])nc1C([H])([H])N([H])C(=O)N1C([H])([H])C([H])([H])C([H])([H])C([H])(n2nc(-c3c([H])c([H])c(Oc4c([H])c([H])c(F)c([H])c4F)c([H])c3[H])c(C(=O)N([H])[H])c2N([H])[H])C1([H])[H]

>  <smiles>  (71) 
[H]c1c(N([H])[H])nc(N([H])C([H])([H])C([H])(Oc2c([H])c([H])c3c(c2[H])C([H])([H])N(C(=O)C([H])(N([H])C(=O)C([H])(N([H])C([H])([H])[H])C([H])([H])[H])C(C([H])([H])[H])(C([H])([H])[H])C([H])([H])[H])C([H])(C(=O)N([H])C2([H])c4c([H])c([H])c([H])c([H])c4C([H])([H])C([H])([H])C2([H])[H])C3([H])[H])C([H])([H])[H])nc1C([H])([H])N([H])C(=O)N1C([H])([H])C([H])([H])C([H])([H])C([H])(n2nc(-c3c([H])c([H])c(Oc4c([H])c([H])c(F)c([H])c4F)c([H])c3[H])c(C(=O)N([H])[H])c2N([H])[H])C1([H])[H]

$$$$
71:0:0
     RDKit          3D

 97105  0  0  1  0  0  0  0  0999 V2000
  -28.6300  -20.8140   19.3150 C   0  0  0  0  0  3  0  0  0  0  0  0
  -27.3320  -20.0030   17.3010 C   0  0  0  0  0  1  0  0  0  0  0  0
  -28.7170  -22.0610   18.7720 N   0  0  0  0  0  0  0  0  0  0  0  0
  -27.9610  -19.8650   18.6220 N   0  0  0  0  0  0  0  0  0  0  0  0
  -28.3490  -22.1380   17.8350 H   0  0  0  0  0  0  0  0  0  0  0  0
  -27.8980  -18.9400   19.0250 H   0  0  0  0  0  0  0  0  0  0  0  0
  -29.2220  -20.4140   20.6580 C   0  0  0  0  0  2  0  0  0  0  0  0
  -31.2490  -17.5350   20.2310 C   0  0  0  0  0  3  0  0  0  0  0  0
  -29.2420  -17.8690   21.1220 C   0  0  0  0  0  3  0  0  0  0  0  0
  -30.1300  -16.8720   20.8160 C   0  0  0  0  0  0  0  0  0  0  0  0
  -31.0340  -18.8430   20.1390 N   0  0  0  0  0  0  0  0  0  0  0  0
  -29.8010  -19.0580   20.6690 N   0  0  0  0  0  0  0  0  0  0  0  0
  -30.6620  -14.4580   20.4920 C   0  0  0  0  0  0  0  0  0  0  0  0
  -30.3770  -12.2980   19.3360 C   0  0  0  0  0  2  0  0  0  0  0  0
  -29.4440  -12.5290   18.1280 C   0  0  0  0  0  2  0  0  0  0  0  0
  -27.9640  -12.4030   18.5430 C   0  0  0  0  0  2  0  0  0  0  0  0
  -27.6250  -13.2230   19.8170 C   0  0  0  0  0  3  0  0  0  0  0  0
  -28.6710  -12.9680   20.9260 C   0  0  0  0  0  2  0  0  0  0  0  0
  -30.0040  -13.2720   20.3740 N   0  0  0  0  0  0  0  0  0  0  0  0
  -31.7950  -14.6390   20.0350 O   0  0  0  0  0  0  0  0  0  0  0  0
  -29.9300  -15.4660   21.0120 N   0  0  0  0  0  0  0  0  0  0  0  0
  -29.0350  -15.1850   21.3870 H   0  0  0  0  0  0  0  0  0  0  0  0
  -25.2240  -13.8430   20.5060 C   0  0  0  0  0  0  0  0  0  0  0  0
  -24.1510  -13.0740   20.8710 C   0  0  0  0  0  0  0  0  0  0  0  0
  -24.6090  -11.7220   20.8500 C   0  0  0  0  0  0  0  0  0  0  0  0
  -26.2670  -12.9560   20.2850 N   0  0  0  0  0  0  0  0  0  0  0  0
  -25.9000  -11.6760   20.5490 N   0  0  0  0  0  0  0  0  0  0  0  0
  -23.8790  -10.4640   21.0420 C   0  0  0  0  0  0  0  0  0  0  0  0
  -24.3090   -9.4950   21.9750 C   0  0  0  0  0  3  0  0  0  0  0  0
  -23.5810   -8.2990   22.1550 C   0  0  0  0  0  3  0  0  0  0  0  0
  -22.4070   -8.0640   21.3990 C   0  0  0  0  0  0  0  0  0  0  0  0
  -21.9970   -9.0210   20.4540 C   0  0  0  0  0  3  0  0  0  0  0  0
  -22.7270  -10.2070   20.2730 C   0  0  0  0  0  3  0  0  0  0  0  0
  -21.6490   -6.9220   21.4890 O   0  0  0  0  0  0  0  0  0  0  0  0
  -21.6050   -6.1740   22.6390 C   0  0  0  0  0  0  0  0  0  0  0  0
  -21.1890   -6.7260   23.8700 C   0  0  0  0  0  3  0  0  0  0  0  0
  -21.0910   -5.9050   25.0110 C   0  0  0  0  0  3  0  0  0  0  0  0
  -21.4000   -4.5340   24.9220 C   0  0  0  0  0  0  0  0  0  0  0  0
  -21.8060   -3.9820   23.6950 C   0  0  0  0  0  3  0  0  0  0  0  0
  -21.9050   -4.8000   22.5550 C   0  0  0  0  0  0  0  0  0  0  0  0
  -22.2800   -4.2580   21.3710 F   0  0  0  0  0  0  0  0  0  0  0  0
  -21.2970   -3.7430   26.0150 F   0  0  0  0  0  0  0  0  0  0  0  0
  -22.7540  -13.5550   21.1330 C   0  0  0  0  0  0  0  0  0  0  0  0
  -22.0190  -12.8640   21.9990 N   0  0  0  0  0  0  0  0  0  0  0  0
  -22.3200  -14.5780   20.6050 O   0  0  0  0  0  0  0  0  0  0  0  0
  -22.3840  -12.0370   22.4470 H   0  0  0  0  0  0  0  0  0  0  0  0
  -21.0800  -13.1640   22.2140 H   0  0  0  0  0  0  0  0  0  0  0  0
  -25.3940  -15.2130   20.3280 N   0  0  0  0  0  0  0  0  0  0  0  0
  -24.6250  -15.8680   20.4320 H   0  0  0  0  0  0  0  0  0  0  0  0
  -26.2460  -15.6500   19.9990 H   0  0  0  0  0  0  0  0  0  0  0  0
  -29.3510  -23.3310   19.2200 C   0  0  0  0  0  3  0  0  0  0  0  0
  -31.7020  -22.1870   19.0380 C   0  0  0  0  0  1  0  0  0  0  0  0
  -30.8000  -23.3750   18.6720 C   0  0  0  0  0  2  0  0  0  0  0  0
  -28.4600  -24.5040   18.6700 C   0  0  0  0  0  2  0  0  0  0  0  0
  -30.1570  -26.5310   18.5000 C   0  0  0  0  0  1  0  0  0  0  0  0
  -28.7500  -26.0410   18.8600 C   0  0  0  0  0  3  0  0  0  0  0  0
  -28.3780  -26.6580   20.1090 O   0  0  0  0  0  0  0  0  0  0  0  0
  -24.5760  -31.8700   23.2360 C   0  0  0  0  0  0  0  0  0  0  0  0
  -27.2100  -27.4060   20.1320 C   0  0  0  0  0  0  0  0  0  0  0  0
  -23.3710  -30.4750   21.5910 C   0  0  0  0  0  3  0  0  0  0  0  0
  -24.8200  -28.9310   20.1700 C   0  0  0  0  0  0  0  0  0  0  0  0
  -25.9030  -30.8120   21.4080 C   0  0  0  0  0  2  0  0  0  0  0  0
  -25.9820  -29.4380   20.7670 C   0  0  0  0  0  0  0  0  0  0  0  0
  -27.1770  -28.6760   20.7590 C   0  0  0  0  0  3  0  0  0  0  0  0
  -26.0190  -26.9090   19.5550 C   0  0  0  0  0  3  0  0  0  0  0  0
  -24.8320  -27.6620   19.5690 C   0  0  0  0  0  3  0  0  0  0  0  0
  -23.5830  -29.8010   20.2100 C   0  0  0  0  0  2  0  0  0  0  0  0
  -24.6340  -31.0700   22.1350 N   0  0  0  0  0  0  0  0  0  0  0  0
  -23.4940  -32.1460   23.7710 O   0  0  0  0  0  0  0  0  0  0  0  0
  -22.7120  -29.4550   22.5460 C   0  0  0  0  0  0  0  0  0  0  0  0
  -21.3870  -29.2780   22.4170 N   0  0  0  0  0  0  0  0  0  0  0  0
  -23.3910  -28.8250   23.3610 O   0  0  0  0  0  0  0  0  0  0  0  0
  -20.9010  -29.8410   21.7320 H   0  0  0  0  0  0  0  0  0  0  0  0
  -18.0030  -28.1060   22.9170 C   0  0  0  0  0  0  0  0  0  0  0  0
  -20.5630  -28.3440   23.1840 C   0  0  0  0  0  3  0  0  0  0  0  0
  -20.6530  -26.9150   22.6000 C   0  0  0  0  0  2  0  0  0  0  0  0
  -19.5460  -26.6050   21.5860 C   0  0  0  0  0  2  0  0  0  0  0  0
  -18.1670  -26.7590   22.2340 C   0  0  0  0  0  2  0  0  0  0  0  0
  -19.1290  -28.8570   23.3480 C   0  0  0  0  0  0  0  0  0  0  0  0
  -18.9220  -30.1190   23.9460 C   0  0  0  0  0  3  0  0  0  0  0  0
  -17.6220  -30.6310   24.1150 C   0  0  0  0  0  3  0  0  0  0  0  0
  -16.5100  -29.8780   23.6990 C   0  0  0  0  0  3  0  0  0  0  0  0
  -16.7020  -28.6160   23.1070 C   0  0  0  0  0  3  0  0  0  0  0  0
  -25.8610  -32.4970   23.8600 C   0  0  0  0  0  3  0  0  0  0  0  0
  -25.5570  -33.8960   24.1860 N   0  0  0  0  0  0  0  0  0  0  0  0
  -25.8970  -34.9460   23.4270 C   0  0  0  0  0  0  0  0  0  0  0  0
  -26.5730  -34.8380   22.4000 O   0  0  0  0  0  0  0  0  0  0  0  0
  -24.9580  -34.0560   24.9850 H   0  0  0  0  0  0  0  0  0  0  0  0
  -24.1800  -36.7460   23.0550 C   0  0  0  0  0  1  0  0  0  0  0  0
  -25.4130  -36.3390   23.8780 C   0  0  0  0  0  3  0  0  0  0  0  0
  -27.5470  -37.2110   24.7240 C   0  0  0  0  0  1  0  0  0  0  0  0
  -26.4520  -37.3860   23.7730 N   0  0  0  0  0  0  0  0  0  0  0  0
  -26.0490  -38.3080   23.9190 H   0  0  0  0  0  0  0  0  0  0  0  0
  -26.3730  -31.7230   25.1360 C   0  0  1  0  0  0  0  0  0  0  0  0
  -25.2790  -31.4880   26.2040 C   0  0  0  0  0  1  0  0  0  0  0  0
  -26.9530  -30.3450   24.7440 C   0  0  0  0  0  1  0  0  0  0  0  0
  -27.5290  -32.5110   25.7970 C   0  0  0  0  0  1  0  0  0  0  0  0
  1  7  1  0
  2  4  1  0
  3 51  1  0
  3  1  1  0
  4  6  1  0
  4  1  1  0
  5  3  1  0
  7 12  1  0
  8 10  1  0
 10 21  1  0
 10  9  2  0
 11  8  2  0
 11 12  1  0
 12  9  1  0
 13 21  1  0
 14 19  1  0
 15 16  1  0
 15 14  1  0
 17 16  1  0
 17 26  1  0
 17 18  1  0
 19 13  1  0
 19 18  1  0
 20 13  2  0
 21 22  1  0
 23 24  2  0
 24 43  1  0
 25 24  1  0
 25 28  1  0
 26 23  1  0
 26 27  1  0
 27 25  2  0
 28 29  1  0
 29 30  2  0
 31 34  1  0
 31 30  1  0
 32 31  2  0
 33 32  1  0
 33 28  2  0
 34 35  1  0
 35 36  1  0
 36 37  2  0
 38 37  1  0
 38 42  1  0
 39 38  2  0
 40 35  2  0
 40 39  1  0
 41 40  1  0
 43 44  1  0
 44 47  1  0
 44 46  1  0
 45 43  2  0
 48 49  1  0
 48 23  1  0
 50 48  1  0
 51 54  1  0
 53 52  1  0
 53 51  1  0
 54 56  1  0
 56 55  1  0
 56 57  1  0
 57 59  1  0
 58 69  2  0
 59 64  1  0
 60 68  1  0
 60 70  1  0
 61 67  1  0
 61 63  1  0
 62 68  1  0
 63 62  1  0
 64 63  2  0
 65 66  1  0
 65 59  2  0
 66 61  2  0
 67 60  1  0
 68 58  1  0
 70 72  2  0
 71 70  1  0
 73 71  1  0
 74 83  2  0
 74 79  1  0
 75 71  1  0
 75 79  1  0
 76 75  1  0
 77 78  1  0
 77 76  1  0
 78 74  1  0
 79 80  2  0
 80 81  1  0
 82 81  2  0
 83 82  1  0
 84 58  1  0
 84 85  1  0
 84 94  1  0
 85 88  1  0
 86 90  1  0
 86 85  1  0
 87 86  2  0
 90 89  1  0
 92 90  1  0
 92 93  1  0
 92 91  1  0
 94 97  1  1
 94 95  1  0
 96 94  1  0
M  ISO  4  13 100  21 100  56 101  57 101
M  END
>  <TORSDO>  (72) 
F 22

>  <SCORE>  (72) 
-13.325

>  <name>  (72) 
71

>  <ligand_id>  (72) 
71

>  <original_smiles>  (72) 
[H]c1nn(C([H])([H])C(N([H])C([H])(C([H])([H])C([H])([H])[H])C([H])([H])C([H])(Oc2c([H])c([H])c3c(c2[H])C([H])([H])N(C(=O)C([H])(N([H])C(=O)C([H])(N([H])C([H])([H])[H])C([H])([H])[H])C(C([H])([H])[H])(C([H])([H])[H])C([H])([H])[H])C([H])(C(=O)N([H])C2([H])c4c([H])c([H])c([H])c([H])c4C([H])([H])C([H])([H])C2([H])[H])C3([H])[H])C([H])([H])[H])=[N+]([H])C([H])([H])[H])c([H])c1N([H])C(=O)N1C([H])([H])C([H])([H])C([H])([H])C([H])(n2nc(-c3c([H])c([H])c(Oc4c([H])c([H])c(F)c([H])c4F)c([H])c3[H])c(C(=O)N([H])[H])c2N([H])[H])C1([H])[H]

>  <smiles>  (72) 
[H]c1nn(C([H])([H])C(N([H])C([H])(C([H])([H])C([H])([H])[H])C([H])([H])C([H])(Oc2c([H])c([H])c3c(c2[H])C([H])([H])N(C(=O)C([H])(N([H])C(=O)C([H])(N([H])C([H])([H])[H])C([H])([H])[H])C(C([H])([H])[H])(C([H])([H])[H])C([H])([H])[H])C([H])(C(=O)N([H])C2([H])c4c([H])c([H])c([H])c([H])c4C([H])([H])C([H])([H])C2([H])[H])C3([H])[H])C([H])([H])[H])=[N+]([H])C([H])([H])[H])c([H])c1N([H])C(=O)N1C([H])([H])C([H])([H])C([H])([H])C([H])(n2nc(-c3c([H])c([H])c(Oc4c([H])c([H])c(F)c([H])c4F)c([H])c3[H])c(C(=O)N([H])[H])c2N([H])[H])C1([H])[H]

$$$$
72:0:0
     RDKit          3D

 94102  0  0  1  0  0  0  0  0999 V2000
  -28.7640  -22.1160   22.4320 C   0  0  0  0  0  1  0  0  0  0  0  0
  -29.1090  -21.9110   20.9480 C   0  0  0  0  0  3  0  0  0  0  0  0
  -29.0620  -17.6560   21.1120 C   0  0  0  0  0  3  0  0  0  0  0  0
  -31.4070  -18.8740   20.6320 C   0  0  0  0  0  3  0  0  0  0  0  0
  -30.2300  -16.8880   20.8690 C   0  0  0  0  0  0  0  0  0  0  0  0
  -30.2280  -19.6290   20.8530 C   0  0  0  0  0  0  0  0  0  0  0  0
  -31.4130  -17.5180   20.6380 N   0  0  0  0  0  0  0  0  0  0  0  0
  -29.0500  -19.0140   21.1010 N   0  0  0  0  0  0  0  0  0  0  0  0
  -30.2760  -21.0330   20.8060 N   0  0  0  0  0  0  0  0  0  0  0  0
  -31.1670  -21.4540   20.5590 H   0  0  0  0  0  0  0  0  0  0  0  0
  -30.7020  -14.5390   20.1630 C   0  0  0  0  0  0  0  0  0  0  0  0
  -30.3170  -12.4440   18.9160 C   0  0  0  0  0  2  0  0  0  0  0  0
  -29.3110  -12.7220   17.7790 C   0  0  0  0  0  2  0  0  0  0  0  0
  -27.8620  -12.5690   18.2820 C   0  0  0  0  0  2  0  0  0  0  0  0
  -27.6030  -13.3460   19.6000 C   0  0  0  0  0  3  0  0  0  0  0  0
  -28.7140  -13.0530   20.6360 C   0  0  0  0  0  2  0  0  0  0  0  0
  -30.0150  -13.3730   20.0160 N   0  0  0  0  0  0  0  0  0  0  0  0
  -31.7820  -14.7480   19.6010 O   0  0  0  0  0  0  0  0  0  0  0  0
  -30.0600  -15.4750   20.8860 N   0  0  0  0  0  0  0  0  0  0  0  0
  -29.2020  -15.1520   21.3030 H   0  0  0  0  0  0  0  0  0  0  0  0
  -25.2410  -13.9360   20.4350 C   0  0  0  0  0  0  0  0  0  0  0  0
  -24.1940  -13.1540   20.8410 C   0  0  0  0  0  0  0  0  0  0  0  0
  -24.6550  -11.8040   20.7620 C   0  0  0  0  0  0  0  0  0  0  0  0
  -26.2750  -13.0620   20.1370 N   0  0  0  0  0  0  0  0  0  0  0  0
  -25.9270  -11.7740   20.3890 N   0  0  0  0  0  0  0  0  0  0  0  0
  -23.9420  -10.5360   20.9640 C   0  0  0  0  0  0  0  0  0  0  0  0
  -24.4050   -9.5660   21.8810 C   0  0  0  0  0  3  0  0  0  0  0  0
  -23.6920   -8.3620   22.0700 C   0  0  0  0  0  3  0  0  0  0  0  0
  -22.5040   -8.1210   21.3410 C   0  0  0  0  0  0  0  0  0  0  0  0
  -22.0620   -9.0780   20.4120 C   0  0  0  0  0  3  0  0  0  0  0  0
  -22.7750  -10.2730   20.2210 C   0  0  0  0  0  3  0  0  0  0  0  0
  -21.7590   -6.9700   21.4400 O   0  0  0  0  0  0  0  0  0  0  0  0
  -21.7110   -6.2430   22.6030 C   0  0  0  0  0  0  0  0  0  0  0  0
  -21.2820   -6.8120   23.8220 C   0  0  0  0  0  3  0  0  0  0  0  0
  -21.1820   -6.0110   24.9760 C   0  0  0  0  0  3  0  0  0  0  0  0
  -21.5010   -4.6410   24.9130 C   0  0  0  0  0  0  0  0  0  0  0  0
  -21.9220   -4.0710   23.6990 C   0  0  0  0  0  3  0  0  0  0  0  0
  -22.0250   -4.8700   22.5460 C   0  0  0  0  0  0  0  0  0  0  0  0
  -22.4130   -4.3110   21.3740 F   0  0  0  0  0  0  0  0  0  0  0  0
  -21.3980   -3.8680   26.0200 F   0  0  0  0  0  0  0  0  0  0  0  0
  -22.8110  -13.6210   21.1950 C   0  0  0  0  0  0  0  0  0  0  0  0
  -22.1300  -12.9050   22.0830 N   0  0  0  0  0  0  0  0  0  0  0  0
  -22.3450  -14.6550   20.7170 O   0  0  0  0  0  0  0  0  0  0  0  0
  -22.5230  -12.0670   22.4880 H   0  0  0  0  0  0  0  0  0  0  0  0
  -21.2050  -13.1970   22.3620 H   0  0  0  0  0  0  0  0  0  0  0  0
  -25.3950  -15.3100   20.2740 N   0  0  0  0  0  0  0  0  0  0  0  0
  -24.6260  -15.9560   20.4120 H   0  0  0  0  0  0  0  0  0  0  0  0
  -26.2110  -15.7490   19.8690 H   0  0  0  0  0  0  0  0  0  0  0  0
  -29.3720  -23.2570   20.2120 C   0  0  0  0  0  2  0  0  0  0  0  0
  -28.2630  -24.3470   20.2570 C   0  0  0  0  0  3  0  0  0  0  0  0
  -27.0390  -23.8060   19.7830 O   0  0  0  0  0  0  0  0  0  0  0  0
  -27.1550  -23.5590   18.8700 H   0  0  0  0  0  0  0  0  0  0  0  0
  -28.6440  -25.6020   19.4170 C   0  0  0  0  0  2  0  0  0  0  0  0
  -28.4950  -26.8460   20.1150 O   0  0  0  0  0  0  0  0  0  0  0  0
  -24.6310  -31.9190   23.2470 C   0  0  0  0  0  0  0  0  0  0  0  0
  -27.2890  -27.5190   20.1120 C   0  0  0  0  0  0  0  0  0  0  0  0
  -23.4240  -30.5230   21.6020 C   0  0  0  0  0  3  0  0  0  0  0  0
  -24.8780  -29.0050   20.1580 C   0  0  0  0  0  0  0  0  0  0  0  0
  -25.9470  -30.8980   21.3910 C   0  0  0  0  0  2  0  0  0  0  0  0
  -26.0350  -29.5320   20.7410 C   0  0  0  0  0  0  0  0  0  0  0  0
  -27.2400  -28.7960   20.7170 C   0  0  0  0  0  3  0  0  0  0  0  0
  -26.1080  -27.0020   19.5310 C   0  0  0  0  0  3  0  0  0  0  0  0
  -24.9090  -27.7370   19.5530 C   0  0  0  0  0  3  0  0  0  0  0  0
  -23.6300  -29.8570   20.2150 C   0  0  0  0  0  2  0  0  0  0  0  0
  -24.6870  -31.1280   22.1380 N   0  0  0  0  0  0  0  0  0  0  0  0
  -23.5510  -32.1800   23.7940 O   0  0  0  0  0  0  0  0  0  0  0  0
  -22.7870  -29.4890   22.5570 C   0  0  0  0  0  0  0  0  0  0  0  0
  -21.4630  -29.2970   22.4340 N   0  0  0  0  0  0  0  0  0  0  0  0
  -23.4780  -28.8620   23.3640 O   0  0  0  0  0  0  0  0  0  0  0  0
  -20.9660  -29.8540   21.7520 H   0  0  0  0  0  0  0  0  0  0  0  0
  -18.1000  -28.0760   22.9370 C   0  0  0  0  0  0  0  0  0  0  0  0
  -20.6560  -28.3490   23.2020 C   0  0  0  0  0  3  0  0  0  0  0  0
  -20.7670  -26.9230   22.6150 C   0  0  0  0  0  2  0  0  0  0  0  0
  -19.6650  -26.5990   21.6030 C   0  0  0  0  0  2  0  0  0  0  0  0
  -18.2840  -26.7320   22.2510 C   0  0  0  0  0  2  0  0  0  0  0  0
  -19.2140  -28.8420   23.3670 C   0  0  0  0  0  0  0  0  0  0  0  0
  -18.9910  -30.1000   23.9660 C   0  0  0  0  0  3  0  0  0  0  0  0
  -17.6840  -30.5930   24.1400 C   0  0  0  0  0  3  0  0  0  0  0  0
  -16.5830  -29.8240   23.7240 C   0  0  0  0  0  3  0  0  0  0  0  0
  -16.7920  -28.5680   23.1280 C   0  0  0  0  0  3  0  0  0  0  0  0
  -25.9160  -32.5530   23.8650 C   0  0  0  0  0  3  0  0  0  0  0  0
  -25.6010  -33.9470   24.2040 N   0  0  0  0  0  0  0  0  0  0  0  0
  -25.9180  -35.0040   23.4460 C   0  0  0  0  0  0  0  0  0  0  0  0
  -26.5820  -34.9100   22.4090 O   0  0  0  0  0  0  0  0  0  0  0  0
  -25.0150  -34.0940   25.0130 H   0  0  0  0  0  0  0  0  0  0  0  0
  -24.1730  -36.7850   23.1080 C   0  0  0  0  0  1  0  0  0  0  0  0
  -25.4220  -36.3880   23.9100 C   0  0  0  0  0  3  0  0  0  0  0  0
  -27.5560  -37.2870   24.7270 C   0  0  0  0  0  1  0  0  0  0  0  0
  -26.4460  -37.4490   23.7920 N   0  0  0  0  0  0  0  0  0  0  0  0
  -26.0340  -38.3660   23.9430 H   0  0  0  0  0  0  0  0  0  0  0  0
  -26.4460  -31.7760   25.1330 C   0  0  1  0  0  0  0  0  0  0  0  0
  -25.3610  -31.5250   26.2060 C   0  0  0  0  0  1  0  0  0  0  0  0
  -27.0380  -30.4050   24.7280 C   0  0  0  0  0  1  0  0  0  0  0  0
  -27.5940  -32.5740   25.7960 C   0  0  0  0  0  1  0  0  0  0  0  0
  2  1  1  0
  4  7  2  0
  4  6  1  0
  5 19  1  0
  5  3  2  0
  6  8  2  0
  7  5  1  0
  8  3  1  0
  9  6  1  0
  9  2  1  0
 10  9  1  0
 11 19  1  0
 12 17  1  0
 13 14  1  0
 13 12  1  0
 15 14  1  0
 15 24  1  0
 15 16  1  0
 17 11  1  0
 17 16  1  0
 18 11  2  0
 19 20  1  0
 21 22  2  0
 22 41  1  0
 23 22  1  0
 23 26  1  0
 24 25  1  0
 24 21  1  0
 25 23  2  0
 26 27  1  0
 27 28  2  0
 29 32  1  0
 29 28  1  0
 30 29  2  0
 31 30  1  0
 31 26  2  0
 32 33  1  0
 33 34  1  0
 34 35  2  0
 36 35  1  0
 36 40  1  0
 37 36  2  0
 38 33  2  0
 38 37  1  0
 39 38  1  0
 41 42  1  0
 42 45  1  0
 42 44  1  0
 43 41  2  0
 46 47  1  0
 46 21  1  0
 48 46  1  0
 49 50  1  0
 49  2  1  0
 50 53  1  0
 51 50  1  0
 52 51  1  0
 53 54  1  0
 55 66  2  0
 56 54  1  0
 56 61  1  0
 57 65  1  0
 57 67  1  0
 58 64  1  0
 58 60  1  0
 59 65  1  0
 60 59  1  0
 61 60  2  0
 62 63  1  0
 62 56  2  0
 63 58  2  0
 64 57  1  0
 65 55  1  0
 67 69  2  0
 68 67  1  0
 70 68  1  0
 71 80  2  0
 71 76  1  0
 72 68  1  0
 72 76  1  0
 73 72  1  0
 74 75  1  0
 74 73  1  0
 75 71  1  0
 76 77  2  0
 77 78  1  0
 79 78  2  0
 80 79  1  0
 81 55  1  0
 81 82  1  0
 81 91  1  0
 82 85  1  0
 83 87  1  0
 83 82  1  0
 84 83  2  0
 87 86  1  0
 89 87  1  0
 89 90  1  0
 89 88  1  0
 91 94  1  1
 91 92  1  0
 93 91  1  0
M  ISO  4  11 100  19 100  53 101  54 101
M  END
>  <TORSDO>  (73) 
F 21

>  <SCORE>  (73) 
-13.314

>  <name>  (73) 
72

>  <ligand_id>  (73) 
72

>  <original_smiles>  (73) 
[H]OC([H])(C([H])([H])Oc1c([H])c([H])c2c(c1[H])C([H])([H])N(C(=O)C([H])(N([H])C(=O)C([H])(N([H])C([H])([H])[H])C([H])([H])[H])C(C([H])([H])[H])(C([H])([H])[H])C([H])([H])[H])C([H])(C(=O)N([H])C1([H])c3c([H])c([H])c([H])c([H])c3C([H])([H])C([H])([H])C1([H])[H])C2([H])[H])C([H])([H])C([H])(N([H])c1nc([H])c(N([H])C(=O)N2C([H])([H])C([H])([H])C([H])([H])C([H])(n3nc(-c4c([H])c([H])c(Oc5c([H])c([H])c(F)c([H])c5F)c([H])c4[H])c(C(=O)N([H])[H])c3N([H])[H])C2([H])[H])nc1[H])C([H])([H])[H]

>  <smiles>  (73) 
[H]OC([H])(C([H])([H])Oc1c([H])c([H])c2c(c1[H])C([H])([H])N(C(=O)C([H])(N([H])C(=O)C([H])(N([H])C([H])([H])[H])C([H])([H])[H])C(C([H])([H])[H])(C([H])([H])[H])C([H])([H])[H])C([H])(C(=O)N([H])C1([H])c3c([H])c([H])c([H])c([H])c3C([H])([H])C([H])([H])C1([H])[H])C2([H])[H])C([H])([H])C([H])(N([H])c1nc([H])c(N([H])C(=O)N2C([H])([H])C([H])([H])C([H])([H])C([H])(n3nc(-c4c([H])c([H])c(Oc5c([H])c([H])c(F)c([H])c5F)c([H])c4[H])c(C(=O)N([H])[H])c3N([H])[H])C2([H])[H])nc1[H])C([H])([H])[H]

$$$$
73:0:0
     RDKit          3D

 96104  0  0  1  0  0  0  0  0999 V2000
  -30.0190  -19.7840   22.0970 C   0  0  0  0  0  3  0  0  0  0  0  0
  -29.9380  -18.5520   20.0150 C   0  0  0  0  0  3  0  0  0  0  0  0
  -29.7990  -19.8260   20.6990 C   0  0  0  0  0  0  0  0  0  0  0  0
  -30.3670  -18.5740   22.7380 C   0  0  0  0  0  3  0  0  0  0  0  0
  -30.3080  -17.3160   20.6880 C   0  0  0  0  0  0  0  0  0  0  0  0
  -30.5090  -17.4310   22.0320 N   0  0  0  0  0  0  0  0  0  0  0  0
  -30.5540  -18.4860   24.1180 N   0  0  0  0  0  0  0  0  0  0  0  0
  -30.7430  -16.5880   22.5630 H   0  0  0  0  0  0  0  0  0  0  0  0
  -30.3870  -19.2890   24.7150 H   0  0  0  0  0  0  0  0  0  0  0  0
  -30.5440  -17.5990   24.6090 H   0  0  0  0  0  0  0  0  0  0  0  0
  -31.0500  -14.8450   20.0430 C   0  0  0  0  0  0  0  0  0  0  0  0
  -30.7990  -12.5860   18.9710 C   0  0  0  0  0  2  0  0  0  0  0  0
  -29.8120  -12.6600   17.7830 C   0  0  0  0  0  2  0  0  0  0  0  0
  -28.3520  -12.5210   18.2650 C   0  0  0  0  0  2  0  0  0  0  0  0
  -28.0350  -13.4240   19.4840 C   0  0  0  0  0  3  0  0  0  0  0  0
  -29.1240  -13.2890   20.5710 C   0  0  0  0  0  2  0  0  0  0  0  0
  -30.4060  -13.6310   19.9400 N   0  0  0  0  0  0  0  0  0  0  0  0
  -32.2570  -14.9260   19.7740 O   0  0  0  0  0  0  0  0  0  0  0  0
  -30.2220  -15.9620   20.0940 N   0  0  0  0  0  0  0  0  0  0  0  0
  -29.2810  -15.7060   19.8580 H   0  0  0  0  0  0  0  0  0  0  0  0
  -25.6880  -14.1000   20.2670 C   0  0  0  0  0  0  0  0  0  0  0  0
  -24.6110  -13.3610   20.6680 C   0  0  0  0  0  0  0  0  0  0  0  0
  -25.0330  -11.9970   20.6350 C   0  0  0  0  0  0  0  0  0  0  0  0
  -26.6980  -13.1860   20.0100 N   0  0  0  0  0  0  0  0  0  0  0  0
  -26.3130  -11.9180   20.3000 N   0  0  0  0  0  0  0  0  0  0  0  0
  -24.2760  -10.7590   20.8490 C   0  0  0  0  0  0  0  0  0  0  0  0
  -24.6730   -9.8100   21.8170 C   0  0  0  0  0  3  0  0  0  0  0  0
  -23.9200   -8.6340   22.0180 C   0  0  0  0  0  3  0  0  0  0  0  0
  -22.7550   -8.3990   21.2480 C   0  0  0  0  0  0  0  0  0  0  0  0
  -22.3770   -9.3370   20.2700 C   0  0  0  0  0  3  0  0  0  0  0  0
  -23.1320  -10.5040   20.0700 C   0  0  0  0  0  3  0  0  0  0  0  0
  -21.9730   -7.2740   21.3560 O   0  0  0  0  0  0  0  0  0  0  0  0
  -21.8500   -6.5970   22.5420 C   0  0  0  0  0  0  0  0  0  0  0  0
  -21.3600   -7.2230   23.7090 C   0  0  0  0  0  3  0  0  0  0  0  0
  -21.1800   -6.4700   24.8860 C   0  0  0  0  0  3  0  0  0  0  0  0
  -21.4820   -5.0960   24.8990 C   0  0  0  0  0  0  0  0  0  0  0  0
  -21.9660   -4.4710   23.7370 C   0  0  0  0  0  3  0  0  0  0  0  0
  -22.1460   -5.2200   22.5600 C   0  0  0  0  0  0  0  0  0  0  0  0
  -22.5930   -4.6090   21.4360 F   0  0  0  0  0  0  0  0  0  0  0  0
  -21.3030   -4.3720   26.0280 F   0  0  0  0  0  0  0  0  0  0  0  0
  -23.2330  -13.8810   20.9600 C   0  0  0  0  0  0  0  0  0  0  0  0
  -22.5080  -13.2190   21.8540 N   0  0  0  0  0  0  0  0  0  0  0  0
  -22.8130  -14.9110   20.4330 O   0  0  0  0  0  0  0  0  0  0  0  0
  -22.8630  -12.3870   22.3020 H   0  0  0  0  0  0  0  0  0  0  0  0
  -21.5840  -13.5500   22.0930 H   0  0  0  0  0  0  0  0  0  0  0  0
  -25.8780  -15.4640   20.0710 N   0  0  0  0  0  0  0  0  0  0  0  0
  -25.1000  -16.1060   20.1750 H   0  0  0  0  0  0  0  0  0  0  0  0
  -26.6550  -15.8770   19.5780 H   0  0  0  0  0  0  0  0  0  0  0  0
  -29.4990  -21.0900   20.0450 N   0  0  0  0  0  0  0  0  0  0  0  0
  -29.3980  -21.0130   19.0360 H   0  0  0  0  0  0  0  0  0  0  0  0
  -28.7140  -22.2410   20.6490 C   0  0  0  0  0  2  0  0  0  0  0  0
  -29.1790  -23.7520   20.3080 C   0  0  0  0  0  3  0  0  0  0  0  0
  -30.4240  -23.7790   20.9720 O   0  0  0  0  0  0  0  0  0  0  0  0
  -30.7980  -22.9160   20.8010 H   0  0  0  0  0  0  0  0  0  0  0  0
  -28.2630  -25.0080   20.7920 C   0  0  0  0  0  2  0  0  0  0  0  0
  -28.5190  -26.4510   20.4220 O   0  0  0  0  0  0  0  0  0  0  0  0
  -24.6850  -31.8730   23.3910 C   0  0  0  0  0  0  0  0  0  0  0  0
  -27.4150  -27.3330   20.3670 C   0  0  0  0  0  0  0  0  0  0  0  0
  -23.5310  -30.4600   21.7270 C   0  0  0  0  0  3  0  0  0  0  0  0
  -25.0350  -28.9440   20.3100 C   0  0  0  0  0  0  0  0  0  0  0  0
  -26.0710  -30.8110   21.5920 C   0  0  0  0  0  2  0  0  0  0  0  0
  -26.1860  -29.4350   20.9380 C   0  0  0  0  0  0  0  0  0  0  0  0
  -27.3810  -28.6450   20.9510 C   0  0  0  0  0  3  0  0  0  0  0  0
  -26.2480  -26.9230   19.6840 C   0  0  0  0  0  3  0  0  0  0  0  0
  -25.0720  -27.6980   19.6670 C   0  0  0  0  0  3  0  0  0  0  0  0
  -23.7800  -29.7970   20.3480 C   0  0  0  0  0  2  0  0  0  0  0  0
  -24.7800  -31.0660   22.2940 N   0  0  0  0  0  0  0  0  0  0  0  0
  -23.5900  -32.1310   23.9090 O   0  0  0  0  0  0  0  0  0  0  0  0
  -22.8680  -29.4300   22.6740 C   0  0  0  0  0  0  0  0  0  0  0  0
  -21.5620  -29.1780   22.4800 N   0  0  0  0  0  0  0  0  0  0  0  0
  -23.5330  -28.8560   23.5410 O   0  0  0  0  0  0  0  0  0  0  0  0
  -21.0850  -29.6940   21.7550 H   0  0  0  0  0  0  0  0  0  0  0  0
  -18.2440  -27.7650   22.7740 C   0  0  0  0  0  0  0  0  0  0  0  0
  -20.7540  -28.2080   23.2220 C   0  0  0  0  0  3  0  0  0  0  0  0
  -20.9970  -26.7680   22.7100 C   0  0  0  0  0  2  0  0  0  0  0  0
  -19.9940  -26.3230   21.6400 C   0  0  0  0  0  2  0  0  0  0  0  0
  -18.5560  -26.4090   22.1590 C   0  0  0  0  0  2  0  0  0  0  0  0
  -19.2750  -28.6160   23.2550 C   0  0  0  0  0  0  0  0  0  0  0  0
  -18.9280  -29.8780   23.7840 C   0  0  0  0  0  3  0  0  0  0  0  0
  -17.5840  -30.2910   23.8390 C   0  0  0  0  0  3  0  0  0  0  0  0
  -16.5650  -29.4360   23.3810 C   0  0  0  0  0  3  0  0  0  0  0  0
  -16.8990  -28.1750   22.8550 C   0  0  0  0  0  3  0  0  0  0  0  0
  -25.9460  -32.5290   24.0350 C   0  0  0  0  0  3  0  0  0  0  0  0
  -25.6320  -33.9410   24.2990 N   0  0  0  0  0  0  0  0  0  0  0  0
  -26.0110  -34.9640   23.5190 C   0  0  0  0  0  0  0  0  0  0  0  0
  -26.7290  -34.8190   22.5270 O   0  0  0  0  0  0  0  0  0  0  0  0
  -25.0070  -34.1290   25.0680 H   0  0  0  0  0  0  0  0  0  0  0  0
  -24.3160  -36.7510   23.0130 C   0  0  0  0  0  1  0  0  0  0  0  0
  -25.5100  -36.3700   23.9020 C   0  0  0  0  0  3  0  0  0  0  0  0
  -27.6050  -37.2700   24.8130 C   0  0  0  0  0  1  0  0  0  0  0  0
  -26.5570  -37.4120   23.8060 N   0  0  0  0  0  0  0  0  0  0  0  0
  -26.1500  -38.3400   23.9010 H   0  0  0  0  0  0  0  0  0  0  0  0
  -26.4090  -31.8090   25.3610 C   0  0  1  0  0  0  0  0  0  0  0  0
  -25.2740  -31.6100   26.3910 C   0  0  0  0  0  1  0  0  0  0  0  0
  -27.0110  -30.4190   25.0480 C   0  0  0  0  0  1  0  0  0  0  0  0
  -27.5330  -32.6310   26.0380 C   0  0  0  0  0  1  0  0  0  0  0  0
  1  4  1  0
  2  5  2  0
  2  3  1  0
  3  1  2  0
  4  7  1  0
  5  6  1  0
  6  8  1  0
  6  4  1  0
  7 10  1  0
  7  9  1  0
 11 19  1  0
 12 17  1  0
 13 14  1  0
 13 12  1  0
 15 14  1  0
 15 24  1  0
 15 16  1  0
 17 11  1  0
 17 16  1  0
 18 11  2  0
 19  5  1  0
 20 19  1  0
 21 22  2  0
 22 41  1  0
 23 22  1  0
 23 26  1  0
 24 21  1  0
 24 25  1  0
 25 23  2  0
 26 27  1  0
 27 28  2  0
 29 32  1  0
 29 28  1  0
 30 29  2  0
 31 30  1  0
 31 26  2  0
 32 33  1  0
 33 38  2  0
 33 34  1  0
 34 35  2  0
 35 36  1  0
 36 40  1  0
 37 36  2  0
 38 37  1  0
 39 38  1  0
 41 42  1  0
 42 45  1  0
 42 44  1  0
 43 41  2  0
 46 47  1  0
 46 21  1  0
 48 46  1  0
 49 51  1  0
 49  3  1  0
 50 49  1  0
 52 51  1  0
 52 55  1  0
 52 53  1  0
 54 53  1  0
 56 55  1  0
 57 68  2  0
 58 56  1  0
 58 63  1  0
 59 67  1  0
 59 69  1  0
 60 66  1  0
 60 62  1  0
 61 67  1  0
 62 63  2  0
 62 61  1  0
 64 58  2  0
 65 64  1  0
 65 60  2  0
 66 59  1  0
 67 57  1  0
 69 71  2  0
 70 69  1  0
 72 70  1  0
 73 82  2  0
 73 78  1  0
 74 70  1  0
 74 78  1  0
 75 74  1  0
 76 77  1  0
 76 75  1  0
 77 73  1  0
 78 79  2  0
 79 80  1  0
 81 80  2  0
 82 81  1  0
 83 57  1  0
 83 84  1  0
 83 93  1  0
 84 87  1  0
 85 89  1  0
 85 84  1  0
 86 85  2  0
 89 88  1  0
 91 92  1  0
 91 89  1  0
 91 90  1  0
 93 96  1  1
 93 94  1  0
 95 93  1  0
M  ISO  4  11 100  19 100  55 101  56 101
M  END
>  <TORSDO>  (74) 
F 21

>  <SCORE>  (74) 
-12.346

>  <name>  (74) 
73

>  <ligand_id>  (74) 
73

>  <original_smiles>  (74) 
[H]OC([H])(C([H])([H])Oc1c([H])c([H])c2c(c1[H])C([H])([H])N(C(=O)C([H])(N([H])C(=O)C([H])(N([H])C([H])([H])[H])C([H])([H])[H])C(C([H])([H])[H])(C([H])([H])[H])C([H])([H])[H])C([H])(C(=O)N([H])C1([H])c3c([H])c([H])c([H])c([H])c3C([H])([H])C([H])([H])C1([H])[H])C2([H])[H])C([H])([H])N([H])c1c([H])c(N([H])[H])[n+]([H])c(N([H])C(=O)N2C([H])([H])C([H])([H])C([H])([H])C([H])(n3nc(-c4c([H])c([H])c(Oc5c([H])c([H])c(F)c([H])c5F)c([H])c4[H])c(C(=O)N([H])[H])c3N([H])[H])C2([H])[H])c1[H]

>  <smiles>  (74) 
[H]OC([H])(C([H])([H])Oc1c([H])c([H])c2c(c1[H])C([H])([H])N(C(=O)C([H])(N([H])C(=O)C([H])(N([H])C([H])([H])[H])C([H])([H])[H])C(C([H])([H])[H])(C([H])([H])[H])C([H])([H])[H])C([H])(C(=O)N([H])C1([H])c3c([H])c([H])c([H])c([H])c3C([H])([H])C([H])([H])C1([H])[H])C2([H])[H])C([H])([H])N([H])c1c([H])c(N([H])[H])[n+]([H])c(N([H])C(=O)N2C([H])([H])C([H])([H])C([H])([H])C([H])(n3nc(-c4c([H])c([H])c(Oc5c([H])c([H])c(F)c([H])c5F)c([H])c4[H])c(C(=O)N([H])[H])c3N([H])[H])C2([H])[H])c1[H]

$$$$
74:0:0
     RDKit          3D

 96104  0  0  1  0  0  0  0  0999 V2000
  -29.3210  -19.3560   20.4540 C   0  0  0  0  0  3  0  0  0  0  0  0
  -30.0780  -18.1540   20.3010 C   0  0  0  0  0  0  0  0  0  0  0  0
  -29.5170  -20.3770   19.4940 C   0  0  0  0  0  0  0  0  0  0  0  0
  -31.0770  -19.0570   18.4600 C   0  0  0  0  0  0  0  0  0  0  0  0
  -32.9760  -17.8620   17.3460 C   0  0  0  0  0  1  0  0  0  0  0  0
  -30.9490  -18.0310   19.2840 N   0  0  0  0  0  0  0  0  0  0  0  0
  -30.4050  -20.1990   18.5030 N   0  0  0  0  0  0  0  0  0  0  0  0
  -28.7750  -21.5770   19.3790 N   0  0  0  0  0  0  0  0  0  0  0  0
  -32.0150  -18.9540   17.4610 N   0  0  0  0  0  0  0  0  0  0  0  0
  -28.9850  -22.0220   18.4900 H   0  0  0  0  0  0  0  0  0  0  0  0
  -32.1520  -19.7780   16.8900 H   0  0  0  0  0  0  0  0  0  0  0  0
  -30.0790  -16.9870   21.3140 C   0  0  0  0  0  2  0  0  0  0  0  0
  -30.5880  -14.6020   20.4470 C   0  0  0  0  0  0  0  0  0  0  0  0
  -30.3780  -12.4060   19.3040 C   0  0  0  0  0  2  0  0  0  0  0  0
  -29.4130  -12.5510   18.1070 C   0  0  0  0  0  2  0  0  0  0  0  0
  -27.9420  -12.3940   18.5490 C   0  0  0  0  0  2  0  0  0  0  0  0
  -27.6010  -13.2400   19.8040 C   0  0  0  0  0  3  0  0  0  0  0  0
  -28.6660  -13.0390   20.9020 C   0  0  0  0  0  2  0  0  0  0  0  0
  -29.9690  -13.3920   20.3170 N   0  0  0  0  0  0  0  0  0  0  0  0
  -31.7590  -14.7810   20.1020 O   0  0  0  0  0  0  0  0  0  0  0  0
  -29.7750  -15.6130   20.8410 N   0  0  0  0  0  0  0  0  0  0  0  0
  -28.8140  -15.3420   20.9680 H   0  0  0  0  0  0  0  0  0  0  0  0
  -25.2100  -13.8510   20.5290 C   0  0  0  0  0  0  0  0  0  0  0  0
  -24.1420  -13.0800   20.9030 C   0  0  0  0  0  0  0  0  0  0  0  0
  -24.6040  -11.7280   20.8720 C   0  0  0  0  0  0  0  0  0  0  0  0
  -26.2520  -12.9680   20.2930 N   0  0  0  0  0  0  0  0  0  0  0  0
  -25.8930  -11.6870   20.5600 N   0  0  0  0  0  0  0  0  0  0  0  0
  -23.8760  -10.4660   21.0640 C   0  0  0  0  0  0  0  0  0  0  0  0
  -24.3210   -9.4940   21.9850 C   0  0  0  0  0  3  0  0  0  0  0  0
  -23.5950   -8.2960   22.1650 C   0  0  0  0  0  3  0  0  0  0  0  0
  -22.4120   -8.0650   21.4250 C   0  0  0  0  0  0  0  0  0  0  0  0
  -21.9880   -9.0270   20.4910 C   0  0  0  0  0  3  0  0  0  0  0  0
  -22.7140  -10.2170   20.3100 C   0  0  0  0  0  3  0  0  0  0  0  0
  -21.6570   -6.9210   21.5170 O   0  0  0  0  0  0  0  0  0  0  0  0
  -21.6340   -6.1650   22.6610 C   0  0  0  0  0  0  0  0  0  0  0  0
  -21.2470   -6.7070   23.9050 C   0  0  0  0  0  3  0  0  0  0  0  0
  -21.1680   -5.8750   25.0400 C   0  0  0  0  0  3  0  0  0  0  0  0
  -21.4680   -4.5050   24.9340 C   0  0  0  0  0  0  0  0  0  0  0  0
  -21.8490   -3.9630   23.6940 C   0  0  0  0  0  3  0  0  0  0  0  0
  -21.9290   -4.7900   22.5600 C   0  0  0  0  0  0  0  0  0  0  0  0
  -22.2740   -4.2570   21.3640 F   0  0  0  0  0  0  0  0  0  0  0  0
  -21.3860   -3.7050   26.0230 F   0  0  0  0  0  0  0  0  0  0  0  0
  -22.7460  -13.5580   21.1770 C   0  0  0  0  0  0  0  0  0  0  0  0
  -22.0210  -12.8610   22.0460 N   0  0  0  0  0  0  0  0  0  0  0  0
  -22.3070  -14.5830   20.6550 O   0  0  0  0  0  0  0  0  0  0  0  0
  -22.3880  -12.0300   22.4860 H   0  0  0  0  0  0  0  0  0  0  0  0
  -21.0840  -13.1630   22.2720 H   0  0  0  0  0  0  0  0  0  0  0  0
  -25.3740  -15.2210   20.3430 N   0  0  0  0  0  0  0  0  0  0  0  0
  -24.5990  -15.8690   20.4290 H   0  0  0  0  0  0  0  0  0  0  0  0
  -26.2030  -15.6550   19.9550 H   0  0  0  0  0  0  0  0  0  0  0  0
  -28.7060  -22.6370   20.4100 C   0  0  0  0  0  2  0  0  0  0  0  0
  -28.5540  -24.0750   19.7630 C   0  0  0  0  0  3  0  0  0  0  0  0
  -29.7440  -24.2590   19.0070 O   0  0  0  0  0  0  0  0  0  0  0  0
  -30.4550  -24.4000   19.6260 H   0  0  0  0  0  0  0  0  0  0  0  0
  -28.4080  -25.2920   20.7570 C   0  0  0  0  0  2  0  0  0  0  0  0
  -28.4220  -26.6350   20.1810 O   0  0  0  0  0  0  0  0  0  0  0  0
  -24.6100  -31.8920   23.2500 C   0  0  0  0  0  0  0  0  0  0  0  0
  -27.2580  -27.3910   20.2040 C   0  0  0  0  0  0  0  0  0  0  0  0
  -23.4100  -30.4880   21.6070 C   0  0  0  0  0  3  0  0  0  0  0  0
  -24.8690  -28.9330   20.1930 C   0  0  0  0  0  0  0  0  0  0  0  0
  -25.9380  -30.8340   21.4170 C   0  0  0  0  0  2  0  0  0  0  0  0
  -26.0280  -29.4550   20.7810 C   0  0  0  0  0  0  0  0  0  0  0  0
  -27.2260  -28.6950   20.7730 C   0  0  0  0  0  3  0  0  0  0  0  0
  -26.0790  -26.8950   19.6110 C   0  0  0  0  0  3  0  0  0  0  0  0
  -24.8930  -27.6560   19.6040 C   0  0  0  0  0  3  0  0  0  0  0  0
  -23.6250  -29.8000   20.2330 C   0  0  0  0  0  2  0  0  0  0  0  0
  -24.6720  -31.0870   22.1500 N   0  0  0  0  0  0  0  0  0  0  0  0
  -23.5270  -32.1660   23.7870 O   0  0  0  0  0  0  0  0  0  0  0  0
  -22.7500  -29.4730   22.5700 C   0  0  0  0  0  0  0  0  0  0  0  0
  -21.4240  -29.2970   22.4430 N   0  0  0  0  0  0  0  0  0  0  0  0
  -23.4300  -28.8460   23.3870 O   0  0  0  0  0  0  0  0  0  0  0  0
  -20.9370  -29.8500   21.7520 H   0  0  0  0  0  0  0  0  0  0  0  0
  -18.0440  -28.1210   22.9490 C   0  0  0  0  0  0  0  0  0  0  0  0
  -20.6040  -28.3610   23.2140 C   0  0  0  0  0  3  0  0  0  0  0  0
  -20.6970  -26.9320   22.6340 C   0  0  0  0  0  2  0  0  0  0  0  0
  -19.5890  -26.6190   21.6230 C   0  0  0  0  0  2  0  0  0  0  0  0
  -18.2090  -26.7710   22.2700 C   0  0  0  0  0  2  0  0  0  0  0  0
  -19.1690  -28.8730   23.3790 C   0  0  0  0  0  0  0  0  0  0  0  0
  -18.9620  -30.1360   23.9750 C   0  0  0  0  0  3  0  0  0  0  0  0
  -17.6620  -30.6480   24.1440 C   0  0  0  0  0  3  0  0  0  0  0  0
  -16.5520  -29.8910   23.7350 C   0  0  0  0  0  3  0  0  0  0  0  0
  -16.7420  -28.6290   23.1430 C   0  0  0  0  0  3  0  0  0  0  0  0
  -25.8920  -32.5240   23.8730 C   0  0  0  0  0  3  0  0  0  0  0  0
  -25.5830  -33.9230   24.2000 N   0  0  0  0  0  0  0  0  0  0  0  0
  -25.9200  -34.9740   23.4390 C   0  0  0  0  0  0  0  0  0  0  0  0
  -26.5920  -34.8680   22.4090 O   0  0  0  0  0  0  0  0  0  0  0  0
  -24.9910  -34.0840   25.0020 H   0  0  0  0  0  0  0  0  0  0  0  0
  -24.1900  -36.7640   23.0790 C   0  0  0  0  0  1  0  0  0  0  0  0
  -25.4290  -36.3610   23.8930 C   0  0  0  0  0  3  0  0  0  0  0  0
  -27.5610  -37.2490   24.7250 C   0  0  0  0  0  1  0  0  0  0  0  0
  -26.4590  -37.4160   23.7810 N   0  0  0  0  0  0  0  0  0  0  0  0
  -26.0510  -38.3330   23.9300 H   0  0  0  0  0  0  0  0  0  0  0  0
  -26.4120  -31.7510   25.1470 C   0  0  1  0  0  0  0  0  0  0  0  0
  -25.3190  -31.5110   26.2130 C   0  0  0  0  0  1  0  0  0  0  0  0
  -26.9960  -30.3750   24.7530 C   0  0  0  0  0  1  0  0  0  0  0  0
  -27.5650  -32.5440   25.8070 C   0  0  0  0  0  1  0  0  0  0  0  0
  2  1  2  0
  2 12  1  0
  3  1  1  0
  4  7  1  0
  4  6  2  0
  5  9  1  0
  6  2  1  0
  7  3  2  0
  8  3  1  0
  8 51  1  0
  9  4  1  0
 10  8  1  0
 11  9  1  0
 13 21  1  0
 14 19  1  0
 15 16  1  0
 15 14  1  0
 17 16  1  0
 17 26  1  0
 17 18  1  0
 19 13  1  0
 19 18  1  0
 20 13  2  0
 21 22  1  0
 21 12  1  0
 23 24  2  0
 24 43  1  0
 25 24  1  0
 25 28  1  0
 26 23  1  0
 26 27  1  0
 27 25  2  0
 28 29  1  0
 29 30  2  0
 31 34  1  0
 31 30  1  0
 32 31  2  0
 33 32  1  0
 33 28  2  0
 34 35  1  0
 35 36  1  0
 36 37  2  0
 38 37  1  0
 38 42  1  0
 39 38  2  0
 40 35  2  0
 40 39  1  0
 41 40  1  0
 43 44  1  0
 44 47  1  0
 44 46  1  0
 45 43  2  0
 48 49  1  0
 48 23  1  0
 50 48  1  0
 52 51  1  0
 52 55  1  0
 53 54  1  0
 53 52  1  0
 56 58  1  0
 56 55  1  0
 57 68  2  0
 58 63  1  0
 59 67  1  0
 59 69  1  0
 60 66  1  0
 60 62  1  0
 61 67  1  0
 62 61  1  0
 63 62  2  0
 64 58  2  0
 65 64  1  0
 65 60  2  0
 66 59  1  0
 67 57  1  0
 69 71  2  0
 70 69  1  0
 72 70  1  0
 73 82  2  0
 73 78  1  0
 74 70  1  0
 74 78  1  0
 75 74  1  0
 76 77  1  0
 76 75  1  0
 77 73  1  0
 78 79  2  0
 79 80  1  0
 81 80  2  0
 82 81  1  0
 83 57  1  0
 83 84  1  0
 83 93  1  0
 84 87  1  0
 85 89  1  0
 85 84  1  0
 86 85  2  0
 89 88  1  0
 91 89  1  0
 91 92  1  0
 91 90  1  0
 93 96  1  1
 93 94  1  0
 95 93  1  0
M  ISO  4  13 100  21 100  55 101  56 101
M  END
>  <TORSDO>  (75) 
F 21

>  <SCORE>  (75) 
-13.831

>  <name>  (75) 
74

>  <ligand_id>  (75) 
74

>  <original_smiles>  (75) 
[H]OC([H])(C([H])([H])Oc1c([H])c([H])c2c(c1[H])C([H])([H])N(C(=O)C([H])(N([H])C(=O)C([H])(N([H])C([H])([H])[H])C([H])([H])[H])C(C([H])([H])[H])(C([H])([H])[H])C([H])([H])[H])C([H])(C(=O)N([H])C1([H])c3c([H])c([H])c([H])c([H])c3C([H])([H])C([H])([H])C1([H])[H])C2([H])[H])C([H])([H])N([H])c1nc(N([H])C([H])([H])[H])nc(C([H])([H])N([H])C(=O)N2C([H])([H])C([H])([H])C([H])([H])C([H])(n3nc(-c4c([H])c([H])c(Oc5c([H])c([H])c(F)c([H])c5F)c([H])c4[H])c(C(=O)N([H])[H])c3N([H])[H])C2([H])[H])c1[H]

>  <smiles>  (75) 
[H]OC([H])(C([H])([H])Oc1c([H])c([H])c2c(c1[H])C([H])([H])N(C(=O)C([H])(N([H])C(=O)C([H])(N([H])C([H])([H])[H])C([H])([H])[H])C(C([H])([H])[H])(C([H])([H])[H])C([H])([H])[H])C([H])(C(=O)N([H])C1([H])c3c([H])c([H])c([H])c([H])c3C([H])([H])C([H])([H])C1([H])[H])C2([H])[H])C([H])([H])N([H])c1nc(N([H])C([H])([H])[H])nc(C([H])([H])N([H])C(=O)N2C([H])([H])C([H])([H])C([H])([H])C([H])(n3nc(-c4c([H])c([H])c(Oc5c([H])c([H])c(F)c([H])c5F)c([H])c4[H])c(C(=O)N([H])[H])c3N([H])[H])C2([H])[H])c1[H]

$$$$
75:0:0
     RDKit          3D

 93101  0  0  1  0  0  0  0  0999 V2000
  -29.2210  -21.6240   20.4030 N   0  0  0  0  0  4  0  0  0  0  0  0
  -29.8200  -21.5120   19.6030 H   0  0  0  0  0  0  0  0  0  0  0  0
  -28.2680  -21.5610   20.0840 H   0  0  0  0  0  0  0  0  0  0  0  0
  -30.9940  -23.2620   21.0090 C   0  0  0  0  0  1  0  0  0  0  0  0
  -29.4730  -22.9860   20.9920 C   0  0  0  0  0  3  0  0  0  0  0  0
  -28.6910  -24.1720   20.2890 C   0  0  0  0  0  2  0  0  0  0  0  0
  -27.9040  -25.5990   22.3250 C   0  0  0  0  0  1  0  0  0  0  0  0
  -28.7190  -25.5700   21.0160 C   0  0  0  0  0  3  0  0  0  0  0  0
  -28.4750  -26.7110   20.1430 O   0  0  0  0  0  0  0  0  0  0  0  0
  -24.6080  -31.8960   23.2230 C   0  0  0  0  0  0  0  0  0  0  0  0
  -27.2880  -27.4250   20.1980 C   0  0  0  0  0  0  0  0  0  0  0  0
  -23.4110  -30.4780   21.5830 C   0  0  0  0  0  3  0  0  0  0  0  0
  -24.8820  -28.9280   20.1750 C   0  0  0  0  0  0  0  0  0  0  0  0
  -25.9370  -30.8390   21.3980 C   0  0  0  0  0  2  0  0  0  0  0  0
  -26.0320  -29.4610   20.7700 C   0  0  0  0  0  0  0  0  0  0  0  0
  -27.2410  -28.7190   20.7740 C   0  0  0  0  0  3  0  0  0  0  0  0
  -26.1280  -26.9120   19.5870 C   0  0  0  0  0  3  0  0  0  0  0  0
  -24.9270  -27.6560   19.5730 C   0  0  0  0  0  3  0  0  0  0  0  0
  -23.6300  -29.7800   20.2110 C   0  0  0  0  0  2  0  0  0  0  0  0
  -24.6680  -31.0890   22.1260 N   0  0  0  0  0  0  0  0  0  0  0  0
  -23.5250  -32.1680   23.7620 O   0  0  0  0  0  0  0  0  0  0  0  0
  -22.7560  -29.4670   22.5520 C   0  0  0  0  0  0  0  0  0  0  0  0
  -21.4310  -29.2860   22.4260 N   0  0  0  0  0  0  0  0  0  0  0  0
  -23.4390  -28.8450   23.3700 O   0  0  0  0  0  0  0  0  0  0  0  0
  -20.9440  -29.8380   21.7360 H   0  0  0  0  0  0  0  0  0  0  0  0
  -18.0540  -28.1040   22.9370 C   0  0  0  0  0  0  0  0  0  0  0  0
  -20.6130  -28.3520   23.2000 C   0  0  0  0  0  3  0  0  0  0  0  0
  -20.7070  -26.9200   22.6210 C   0  0  0  0  0  2  0  0  0  0  0  0
  -19.6000  -26.6060   21.6090 C   0  0  0  0  0  2  0  0  0  0  0  0
  -18.2240  -26.7540   22.2600 C   0  0  0  0  0  2  0  0  0  0  0  0
  -19.1770  -28.8620   23.3640 C   0  0  0  0  0  0  0  0  0  0  0  0
  -18.9660  -30.1260   23.9560 C   0  0  0  0  0  3  0  0  0  0  0  0
  -17.6640  -30.6320   24.1240 C   0  0  0  0  0  3  0  0  0  0  0  0
  -16.5550  -29.8710   23.7150 C   0  0  0  0  0  3  0  0  0  0  0  0
  -16.7510  -28.6090   23.1290 C   0  0  0  0  0  3  0  0  0  0  0  0
  -25.8940  -32.5320   23.8430 C   0  0  0  0  0  3  0  0  0  0  0  0
  -26.4160  -31.7630   25.1190 C   0  0  1  0  0  0  0  0  0  0  0  0
  -25.3270  -31.5240   26.1900 C   0  0  0  0  0  1  0  0  0  0  0  0
  -27.0000  -30.3850   24.7310 C   0  0  0  0  0  1  0  0  0  0  0  0
  -27.5650  -32.5620   25.7800 C   0  0  0  0  0  1  0  0  0  0  0  0
  -25.5820  -33.9290   24.1700 N   0  0  0  0  0  0  0  0  0  0  0  0
  -25.9130  -34.9800   23.4070 C   0  0  0  0  0  0  0  0  0  0  0  0
  -26.5830  -34.8770   22.3770 O   0  0  0  0  0  0  0  0  0  0  0  0
  -24.9830  -34.0850   24.9680 H   0  0  0  0  0  0  0  0  0  0  0  0
  -24.1770  -36.7640   23.0480 C   0  0  0  0  0  1  0  0  0  0  0  0
  -25.4210  -36.3700   23.8600 C   0  0  0  0  0  3  0  0  0  0  0  0
  -27.5550  -37.2600   24.6850 C   0  0  0  0  0  1  0  0  0  0  0  0
  -26.4520  -37.4250   23.7430 N   0  0  0  0  0  0  0  0  0  0  0  0
  -26.0430  -38.3430   23.8940 H   0  0  0  0  0  0  0  0  0  0  0  0
  -29.4480  -20.4630   21.3290 C   0  0  0  0  0  3  0  0  0  0  0  0
  -30.6450  -14.5180   20.2840 C   0  0  0  0  0  0  0  0  0  0  0  0
  -30.3210  -12.3750   19.0950 C   0  0  0  0  0  2  0  0  0  0  0  0
  -29.3490  -12.6130   17.9200 C   0  0  0  0  0  2  0  0  0  0  0  0
  -27.8880  -12.4660   18.3880 C   0  0  0  0  0  2  0  0  0  0  0  0
  -27.5880  -13.2760   19.6780 C   0  0  0  0  0  3  0  0  0  0  0  0
  -28.6670  -13.0230   20.7560 C   0  0  0  0  0  2  0  0  0  0  0  0
  -29.9830  -13.3310   20.1700 N   0  0  0  0  0  0  0  0  0  0  0  0
  -31.7420  -14.7120   19.7480 O   0  0  0  0  0  0  0  0  0  0  0  0
  -29.5250  -19.0620   20.6820 C   0  0  0  0  0  0  0  0  0  0  0  0
  -29.8380  -16.8420   20.4850 C   0  0  0  0  0  0  0  0  0  0  0  0
  -29.7220  -17.8930   21.3330 N   0  0  0  0  0  0  0  0  0  0  0  0
  -29.6920  -17.0890   19.1700 N   0  0  0  0  0  2  0  0  0  0  0  0
  -30.0070  -15.5030   20.9570 N   0  0  0  0  0  0  0  0  0  0  0  0
  -29.4110  -18.7420   18.9650 S   0  0  0  0  0  0  0  0  0  0  0  0
  -29.3190  -15.2000   21.6260 H   0  0  0  0  0  0  0  0  0  0  0  0
  -25.2060  -13.8790   20.4400 C   0  0  0  0  0  0  0  0  0  0  0  0
  -24.1460  -13.1060   20.8310 C   0  0  0  0  0  0  0  0  0  0  0  0
  -24.6050  -11.7530   20.7840 C   0  0  0  0  0  0  0  0  0  0  0  0
  -26.2440  -12.9970   20.1820 N   0  0  0  0  0  0  0  0  0  0  0  0
  -25.8870  -11.7140   20.4440 N   0  0  0  0  0  0  0  0  0  0  0  0
  -23.8810  -10.4910   20.9870 C   0  0  0  0  0  0  0  0  0  0  0  0
  -24.3350   -9.5210   21.9080 C   0  0  0  0  0  3  0  0  0  0  0  0
  -23.6130   -8.3230   22.0990 C   0  0  0  0  0  3  0  0  0  0  0  0
  -22.4230   -8.0880   21.3690 C   0  0  0  0  0  0  0  0  0  0  0  0
  -21.9860   -9.0480   20.4400 C   0  0  0  0  0  3  0  0  0  0  0  0
  -22.7090  -10.2370   20.2470 C   0  0  0  0  0  3  0  0  0  0  0  0
  -21.6680   -6.9430   21.4730 O   0  0  0  0  0  0  0  0  0  0  0  0
  -21.6460   -6.1960   22.6240 C   0  0  0  0  0  0  0  0  0  0  0  0
  -21.2510   -6.7460   23.8620 C   0  0  0  0  0  3  0  0  0  0  0  0
  -21.1750   -5.9270   25.0060 C   0  0  0  0  0  3  0  0  0  0  0  0
  -21.4830   -4.5560   24.9120 C   0  0  0  0  0  0  0  0  0  0  0  0
  -21.8720   -4.0040   23.6780 C   0  0  0  0  0  3  0  0  0  0  0  0
  -21.9480   -4.8210   22.5360 C   0  0  0  0  0  0  0  0  0  0  0  0
  -22.3020   -4.2810   21.3460 F   0  0  0  0  0  0  0  0  0  0  0  0
  -21.4020   -3.7650   26.0070 F   0  0  0  0  0  0  0  0  0  0  0  0
  -22.7560  -13.5840   21.1380 C   0  0  0  0  0  0  0  0  0  0  0  0
  -22.0470  -12.8860   22.0200 N   0  0  0  0  0  0  0  0  0  0  0  0
  -22.3080  -14.6130   20.6350 O   0  0  0  0  0  0  0  0  0  0  0  0
  -22.4220  -12.0530   22.4470 H   0  0  0  0  0  0  0  0  0  0  0  0
  -21.1160  -13.1890   22.2670 H   0  0  0  0  0  0  0  0  0  0  0  0
  -25.3750  -15.2500   20.2640 N   0  0  0  0  0  0  0  0  0  0  0  0
  -24.6270  -15.9190   20.4060 H   0  0  0  0  0  0  0  0  0  0  0  0
  -26.2150  -15.6720   19.8890 H   0  0  0  0  0  0  0  0  0  0  0  0
  1  5  1  0
  1 50  1  0
  2  1  1  0
  3  1  1  0
  5  4  1  0
  6  5  1  0
  6  8  1  0
  8  7  1  0
  9 11  1  0
  9  8  1  0
 10 21  2  0
 11 16  1  0
 12 20  1  0
 12 22  1  0
 13 19  1  0
 13 15  1  0
 14 20  1  0
 15 16  2  0
 15 14  1  0
 17 11  2  0
 18 17  1  0
 18 13  2  0
 19 12  1  0
 20 10  1  0
 22 24  2  0
 23 22  1  0
 25 23  1  0
 26 35  2  0
 26 31  1  0
 27 23  1  0
 27 31  1  0
 28 27  1  0
 29 30  1  0
 29 28  1  0
 30 26  1  0
 31 32  2  0
 32 33  1  0
 34 33  2  0
 35 34  1  0
 36 10  1  0
 36 41  1  0
 36 37  1  0
 37 40  1  1
 37 38  1  0
 39 37  1  0
 41 44  1  0
 42 46  1  0
 42 41  1  0
 43 42  2  0
 46 45  1  0
 48 46  1  0
 48 49  1  0
 48 47  1  0
 51 63  1  0
 52 57  1  0
 53 54  1  0
 53 52  1  0
 55 54  1  0
 55 69  1  0
 55 56  1  0
 57 51  1  0
 57 56  1  0
 58 51  2  0
 59 50  2  0
 59 61  1  0
 60 63  1  0
 60 61  2  0
 62 60  1  0
 63 65  1  0
 64 62  1  0
 64 59  1  0
 66 67  2  0
 67 86  1  0
 68 67  1  0
 68 71  1  0
 69 66  1  0
 69 70  1  0
 70 68  2  0
 71 72  1  0
 72 73  2  0
 74 77  1  0
 74 73  1  0
 75 74  2  0
 76 75  1  0
 76 71  2  0
 77 78  1  0
 78 79  1  0
 79 80  2  0
 81 80  1  0
 81 85  1  0
 82 81  2  0
 83 78  2  0
 83 82  1  0
 84 83  1  0
 86 87  1  0
 87 90  1  0
 87 89  1  0
 88 86  2  0
 91 92  1  0
 91 66  1  0
 93 91  1  0
M  ISO  4   8 101   9 101  51 100  63 100
M  END
>  <TORSDO>  (76) 
F 20

>  <SCORE>  (76) 
-13.844

>  <name>  (76) 
75

>  <ligand_id>  (76) 
75

>  <original_smiles>  (76) 
[H]c1c([H])c([H])c2c(c1[H])C([H])([H])C([H])([H])C([H])([H])C2([H])N([H])C(=O)C1([H])N(C(=O)C([H])(N([H])C(=O)C([H])(N([H])C([H])([H])[H])C([H])([H])[H])C(C([H])([H])[H])(C([H])([H])[H])C([H])([H])[H])C([H])([H])c2c([H])c(OC([H])(C([H])([H])[H])C([H])([H])C([H])(C([H])([H])[H])[N+]([H])([H])C([H])([H])c3nc(N([H])C(=O)N4C([H])([H])C([H])([H])C([H])([H])C([H])(n5nc(-c6c([H])c([H])c(Oc7c([H])c([H])c(F)c([H])c7F)c([H])c6[H])c(C(=O)N([H])[H])c5N([H])[H])C4([H])[H])ns3)c([H])c([H])c2C1([H])[H]

>  <smiles>  (76) 
[H]c1c([H])c([H])c2c(c1[H])C([H])([H])C([H])([H])C([H])([H])C2([H])N([H])C(=O)C1([H])N(C(=O)C([H])(N([H])C(=O)C([H])(N([H])C([H])([H])[H])C([H])([H])[H])C(C([H])([H])[H])(C([H])([H])[H])C([H])([H])[H])C([H])([H])c2c([H])c(OC([H])(C([H])([H])[H])C([H])([H])C([H])(C([H])([H])[H])[N+]([H])([H])C([H])([H])c3nc(N([H])C(=O)N4C([H])([H])C([H])([H])C([H])([H])C([H])(n5nc(-c6c([H])c([H])c(Oc7c([H])c([H])c(F)c([H])c7F)c([H])c6[H])c(C(=O)N([H])[H])c5N([H])[H])C4([H])[H])ns3)c([H])c([H])c2C1([H])[H]

$$$$
76:0:0
     RDKit          3D

100108  0  0  1  0  0  0  0  0999 V2000
  -29.6480  -22.8710   18.3520 N   0  0  0  0  0  4  0  0  0  0  0  0
  -29.0590  -23.0310   19.1510 H   0  0  0  0  0  0  0  0  0  0  0  0
  -29.0680  -22.4640   17.6340 H   0  0  0  0  0  0  0  0  0  0  0  0
  -30.7000  -21.8980   18.7600 C   0  0  0  0  0  2  0  0  0  0  0  0
  -30.1730  -20.6590   19.5280 C   0  0  0  0  0  2  0  0  0  0  0  0
  -31.3390  -19.7470   19.9830 C   0  0  0  0  0  2  0  0  0  0  0  0
  -30.9750  -14.3520   20.0370 C   0  0  0  0  0  0  0  0  0  0  0  0
  -30.5190  -12.3280   18.6870 C   0  0  0  0  0  2  0  0  0  0  0  0
  -29.4640  -12.6220   17.6020 C   0  0  0  0  0  2  0  0  0  0  0  0
  -28.0320  -12.4850   18.1580 C   0  0  0  0  0  2  0  0  0  0  0  0
  -27.8400  -13.2400   19.5000 C   0  0  0  0  0  3  0  0  0  0  0  0
  -28.9760  -12.8840   20.4800 C   0  0  0  0  0  2  0  0  0  0  0  0
  -30.2650  -13.2090   19.8350 N   0  0  0  0  0  0  0  0  0  0  0  0
  -31.9320  -14.6870   19.3250 O   0  0  0  0  0  0  0  0  0  0  0  0
  -30.6130  -17.9920   23.3020 C   0  0  0  0  0  3  0  0  0  0  0  0
  -30.5620  -16.6650   22.8440 C   0  0  0  0  0  3  0  0  0  0  0  0
  -30.8330  -19.0200   22.3700 C   0  0  0  0  0  0  0  0  0  0  0  0
  -30.9930  -18.6740   21.0130 C   0  0  0  0  0  0  0  0  0  0  0  0
  -30.7270  -16.3880   21.4740 C   0  0  0  0  0  0  0  0  0  0  0  0
  -30.9260  -17.3900   20.5750 N   0  0  0  0  0  0  0  0  0  0  0  0
  -30.6010  -15.0220   21.1390 N   0  0  0  0  0  0  0  0  0  0  0  0
  -30.9040  -20.3090   22.7800 F   0  0  0  0  0  0  0  0  0  0  0  0
  -29.9900  -14.4960   21.7430 H   0  0  0  0  0  0  0  0  0  0  0  0
  -25.5240  -13.8620   20.4490 C   0  0  0  0  0  0  0  0  0  0  0  0
  -24.4770  -13.0910   20.8830 C   0  0  0  0  0  0  0  0  0  0  0  0
  -24.9030  -11.7360   20.7450 C   0  0  0  0  0  0  0  0  0  0  0  0
  -26.5250  -12.9730   20.0820 N   0  0  0  0  0  0  0  0  0  0  0  0
  -26.1570  -11.6870   20.3150 N   0  0  0  0  0  0  0  0  0  0  0  0
  -24.1700  -10.4790   20.9450 C   0  0  0  0  0  0  0  0  0  0  0  0
  -24.5960   -9.5200   21.8900 C   0  0  0  0  0  3  0  0  0  0  0  0
  -23.8650   -8.3250   22.0770 C   0  0  0  0  0  3  0  0  0  0  0  0
  -22.6950   -8.0830   21.3170 C   0  0  0  0  0  0  0  0  0  0  0  0
  -22.2880   -9.0330   20.3620 C   0  0  0  0  0  3  0  0  0  0  0  0
  -23.0180  -10.2190   20.1750 C   0  0  0  0  0  3  0  0  0  0  0  0
  -21.9360   -6.9420   21.4140 O   0  0  0  0  0  0  0  0  0  0  0  0
  -21.7890   -6.2740   22.6040 C   0  0  0  0  0  0  0  0  0  0  0  0
  -21.2580   -6.9030   23.7520 C   0  0  0  0  0  3  0  0  0  0  0  0
  -21.0570   -6.1580   24.9330 C   0  0  0  0  0  3  0  0  0  0  0  0
  -21.3770   -4.7880   24.9640 C   0  0  0  0  0  0  0  0  0  0  0  0
  -21.9030   -4.1600   23.8210 C   0  0  0  0  0  3  0  0  0  0  0  0
  -22.1040   -4.9000   22.6440 C   0  0  0  0  0  0  0  0  0  0  0  0
  -22.5880   -4.2840   21.5370 F   0  0  0  0  0  0  0  0  0  0  0  0
  -21.1790   -4.0710   26.0940 F   0  0  0  0  0  0  0  0  0  0  0  0
  -23.1220  -13.5780   21.3090 C   0  0  0  0  0  0  0  0  0  0  0  0
  -22.4710  -12.8660   22.2230 N   0  0  0  0  0  0  0  0  0  0  0  0
  -22.6500  -14.6250   20.8670 O   0  0  0  0  0  0  0  0  0  0  0  0
  -22.8640  -12.0210   22.6080 H   0  0  0  0  0  0  0  0  0  0  0  0
  -21.5620  -13.1720   22.5390 H   0  0  0  0  0  0  0  0  0  0  0  0
  -25.6990  -15.2370   20.3180 N   0  0  0  0  0  0  0  0  0  0  0  0
  -24.9590  -15.8940   20.5360 H   0  0  0  0  0  0  0  0  0  0  0  0
  -26.5260  -15.6810   19.9390 H   0  0  0  0  0  0  0  0  0  0  0  0
  -30.1700  -24.1920   17.8880 C   0  0  0  0  0  3  0  0  0  0  0  0
  -31.6830  -25.2340   16.0250 C   0  0  0  0  0  1  0  0  0  0  0  0
  -29.6600  -23.8900   15.3430 C   0  0  0  0  0  1  0  0  0  0  0  0
  -30.7360  -24.0870   16.4280 C   0  0  0  0  0  3  0  0  0  0  0  0
  -29.1680  -25.3740   18.1700 C   0  0  0  0  0  3  0  0  0  0  0  0
  -29.8630  -26.6000   18.0130 O   0  0  0  0  0  0  0  0  0  0  0  0
  -29.4490  -27.2120   18.6180 H   0  0  0  0  0  0  0  0  0  0  0  0
  -28.6580  -25.4280   19.6380 C   0  0  0  0  0  2  0  0  0  0  0  0
  -28.5030  -26.7740   20.1180 O   0  0  0  0  0  0  0  0  0  0  0  0
  -24.6220  -31.8420   23.2210 C   0  0  0  0  0  0  0  0  0  0  0  0
  -27.2890  -27.4250   20.1090 C   0  0  0  0  0  0  0  0  0  0  0  0
  -23.4220  -30.4510   21.5620 C   0  0  0  0  0  3  0  0  0  0  0  0
  -24.8820  -28.9130   20.1430 C   0  0  0  0  0  0  0  0  0  0  0  0
  -25.9500  -30.8020   21.3890 C   0  0  0  0  0  2  0  0  0  0  0  0
  -26.0330  -29.4370   20.7390 C   0  0  0  0  0  0  0  0  0  0  0  0
  -27.2350  -28.6970   20.7220 C   0  0  0  0  0  3  0  0  0  0  0  0
  -26.1160  -26.9070   19.5150 C   0  0  0  0  0  3  0  0  0  0  0  0
  -24.9150  -27.6450   19.5350 C   0  0  0  0  0  3  0  0  0  0  0  0
  -23.6400  -29.7730   20.1820 C   0  0  0  0  0  2  0  0  0  0  0  0
  -24.6820  -31.0470   22.1150 N   0  0  0  0  0  0  0  0  0  0  0  0
  -23.5380  -32.1140   23.7560 O   0  0  0  0  0  0  0  0  0  0  0  0
  -22.7640  -29.4270   22.5140 C   0  0  0  0  0  0  0  0  0  0  0  0
  -21.4390  -29.2520   22.3780 N   0  0  0  0  0  0  0  0  0  0  0  0
  -23.4410  -28.7910   23.3250 O   0  0  0  0  0  0  0  0  0  0  0  0
  -20.9570  -29.8180   21.6940 H   0  0  0  0  0  0  0  0  0  0  0  0
  -18.0550  -28.0840   22.8590 C   0  0  0  0  0  0  0  0  0  0  0  0
  -20.6150  -28.3140   23.1370 C   0  0  0  0  0  3  0  0  0  0  0  0
  -20.7050  -26.8890   22.5440 C   0  0  0  0  0  2  0  0  0  0  0  0
  -19.6010  -26.5870   21.5260 C   0  0  0  0  0  2  0  0  0  0  0  0
  -18.2190  -26.7400   22.1700 C   0  0  0  0  0  2  0  0  0  0  0  0
  -19.1810  -28.8310   23.2990 C   0  0  0  0  0  0  0  0  0  0  0  0
  -18.9770  -30.0900   23.9020 C   0  0  0  0  0  3  0  0  0  0  0  0
  -17.6770  -30.6030   24.0710 C   0  0  0  0  0  3  0  0  0  0  0  0
  -16.5650  -29.8550   23.6480 C   0  0  0  0  0  3  0  0  0  0  0  0
  -16.7550  -28.5970   23.0480 C   0  0  0  0  0  3  0  0  0  0  0  0
  -25.9060  -32.4640   23.8530 C   0  0  0  0  0  3  0  0  0  0  0  0
  -25.6020  -33.8620   24.1880 N   0  0  0  0  0  0  0  0  0  0  0  0
  -25.9460  -34.9160   23.4350 C   0  0  0  0  0  0  0  0  0  0  0  0
  -26.6250  -34.8140   22.4090 O   0  0  0  0  0  0  0  0  0  0  0  0
  -25.0010  -34.0170   24.9840 H   0  0  0  0  0  0  0  0  0  0  0  0
  -24.2320  -36.7180   23.0670 C   0  0  0  0  0  1  0  0  0  0  0  0
  -25.4580  -36.3030   23.8950 C   0  0  0  0  0  3  0  0  0  0  0  0
  -27.5830  -37.1720   24.7660 C   0  0  0  0  0  1  0  0  0  0  0  0
  -26.4980  -37.3520   23.8050 N   0  0  0  0  0  0  0  0  0  0  0  0
  -26.0940  -38.2730   23.9510 H   0  0  0  0  0  0  0  0  0  0  0  0
  -26.4160  -31.6850   25.1270 C   0  0  1  0  0  0  0  0  0  0  0  0
  -25.3150  -31.4420   26.1860 C   0  0  0  0  0  1  0  0  0  0  0  0
  -26.9990  -30.3090   24.7290 C   0  0  0  0  0  1  0  0  0  0  0  0
  -27.5670  -32.4710   25.7980 C   0  0  0  0  0  1  0  0  0  0  0  0
  1  4  1  0
  1  2  1  0
  3  1  1  0
  4  5  1  0
  5  6  1  0
  6 18  1  0
  7 21  1  0
  8 13  1  0
  9 10  1  0
  9  8  1  0
 11 10  1  0
 11 27  1  0
 11 12  1  0
 13  7  1  0
 13 12  1  0
 14  7  2  0
 16 15  1  0
 17 22  1  0
 17 15  2  0
 18 17  1  0
 19 16  2  0
 20 18  2  0
 20 19  1  0
 21 19  1  0
 21 23  1  0
 24 25  2  0
 25 44  1  0
 26 25  1  0
 26 29  1  0
 27 28  1  0
 27 24  1  0
 28 26  2  0
 29 30  1  0
 30 31  2  0
 32 35  1  0
 32 31  1  0
 33 32  2  0
 34 33  1  0
 34 29  2  0
 35 36  1  0
 36 41  2  0
 36 37  1  0
 37 38  2  0
 38 39  1  0
 39 43  1  0
 40 39  2  0
 41 40  1  0
 42 41  1  0
 44 45  1  0
 45 48  1  0
 45 47  1  0
 46 44  2  0
 49 24  1  0
 49 50  1  0
 51 49  1  0
 52 55  1  0
 52 56  1  0
 52  1  1  0
 53 55  1  0
 54 55  1  0
 56 59  1  0
 57 56  1  0
 57 58  1  0
 59 60  1  0
 61 72  2  0
 62 60  1  0
 62 67  1  0
 63 71  1  0
 63 73  1  0
 64 70  1  0
 64 66  1  0
 65 71  1  0
 66 65  1  0
 67 66  2  0
 68 69  1  0
 68 62  2  0
 69 64  2  0
 70 63  1  0
 71 61  1  0
 73 75  2  0
 74 73  1  0
 76 74  1  0
 77 86  2  0
 77 82  1  0
 78 74  1  0
 78 82  1  0
 79 78  1  0
 80 81  1  0
 80 79  1  0
 81 77  1  0
 82 83  2  0
 83 84  1  0
 85 84  2  0
 86 85  1  0
 87 61  1  0
 87 88  1  0
 87 97  1  0
 88 91  1  0
 89 93  1  0
 89 88  1  0
 90 89  2  0
 93 92  1  0
 95 93  1  0
 95 96  1  0
 95 94  1  0
 97100  1  1
 97 98  1  0
 99 97  1  0
M  ISO  4   7 100  21 100  59 101  60 101
M  END
>  <TORSDO>  (77) 
F 24

>  <SCORE>  (77) 
-11.560

>  <name>  (77) 
76

>  <ligand_id>  (77) 
76

>  <original_smiles>  (77) 
[H]OC([H])(C([H])([H])Oc1c([H])c([H])c2c(c1[H])C([H])([H])N(C(=O)C([H])(N([H])C(=O)C([H])(N([H])C([H])([H])[H])C([H])([H])[H])C(C([H])([H])[H])(C([H])([H])[H])C([H])([H])[H])C([H])(C(=O)N([H])C1([H])c3c([H])c([H])c([H])c([H])c3C([H])([H])C([H])([H])C1([H])[H])C2([H])[H])C([H])(C([H])(C([H])([H])[H])C([H])([H])[H])[N+]([H])([H])C([H])([H])C([H])([H])C([H])([H])c1nc(N([H])C(=O)N2C([H])([H])C([H])([H])C([H])([H])C([H])(n3nc(-c4c([H])c([H])c(Oc5c([H])c([H])c(F)c([H])c5F)c([H])c4[H])c(C(=O)N([H])[H])c3N([H])[H])C2([H])[H])c([H])c([H])c1F

>  <smiles>  (77) 
[H]OC([H])(C([H])([H])Oc1c([H])c([H])c2c(c1[H])C([H])([H])N(C(=O)C([H])(N([H])C(=O)C([H])(N([H])C([H])([H])[H])C([H])([H])[H])C(C([H])([H])[H])(C([H])([H])[H])C([H])([H])[H])C([H])(C(=O)N([H])C1([H])c3c([H])c([H])c([H])c([H])c3C([H])([H])C([H])([H])C1([H])[H])C2([H])[H])C([H])(C([H])(C([H])([H])[H])C([H])([H])[H])[N+]([H])([H])C([H])([H])C([H])([H])C([H])([H])c1nc(N([H])C(=O)N2C([H])([H])C([H])([H])C([H])([H])C([H])(n3nc(-c4c([H])c([H])c(Oc5c([H])c([H])c(F)c([H])c5F)c([H])c4[H])c(C(=O)N([H])[H])c3N([H])[H])C2([H])[H])c([H])c([H])c1F

$$$$
77:0:0
     RDKit          3D

 97105  0  0  1  0  0  0  0  0999 V2000
  -29.2610  -21.1810   18.9890 C   0  0  0  0  0  0  0  0  0  0  0  0
  -30.2020  -20.3070   19.4370 N   0  0  0  0  0  0  0  0  0  0  0  0
  -28.5580  -20.9050   18.0150 O   0  0  0  0  0  0  0  0  0  0  0  0
  -30.7360  -20.5770   20.2490 H   0  0  0  0  0  0  0  0  0  0  0  0
  -30.4690  -18.9050   19.0060 C   0  0  0  0  0  2  0  0  0  0  0  0
  -30.1100  -17.4100   22.4370 C   0  0  0  0  0  2  0  0  0  0  0  0
  -29.7750  -18.2340   21.4010 C   0  0  0  0  0  0  0  0  0  0  0  0
  -30.4870  -17.9200   20.1860 C   0  0  0  0  0  0  0  0  0  0  0  0
  -31.1060  -16.6610   20.2630 C   0  0  0  0  0  3  0  0  0  0  0  0
  -28.7640  -19.3320   21.5930 C   0  0  0  0  0  1  0  0  0  0  0  0
  -31.2160  -16.1790   21.9450 S   0  0  0  0  0  0  0  0  0  0  0  0
  -32.2790  -14.6860   19.2520 C   0  0  0  0  0  0  0  0  0  0  0  0
  -31.6660  -12.5370   18.2110 C   0  0  0  0  0  2  0  0  0  0  0  0
  -30.5450  -12.8150   17.1830 C   0  0  0  0  0  2  0  0  0  0  0  0
  -29.1570  -12.7770   17.8590 C   0  0  0  0  0  2  0  0  0  0  0  0
  -29.1080  -13.6210   19.1620 C   0  0  0  0  0  3  0  0  0  0  0  0
  -30.3130  -13.2790   20.0560 C   0  0  0  0  0  2  0  0  0  0  0  0
  -31.5220  -13.5470   19.2750 N   0  0  0  0  0  0  0  0  0  0  0  0
  -33.4120  -14.6860   18.7670 O   0  0  0  0  0  0  0  0  0  0  0  0
  -31.6160  -15.8840   19.2510 N   0  0  0  0  0  0  0  0  0  0  0  0
  -31.8980  -16.4340   18.4530 H   0  0  0  0  0  0  0  0  0  0  0  0
  -27.0480  -14.4280   20.4670 C   0  0  0  0  0  0  0  0  0  0  0  0
  -25.9450  -13.7660   20.9390 C   0  0  0  0  0  0  0  0  0  0  0  0
  -26.1360  -12.3910   20.5980 C   0  0  0  0  0  0  0  0  0  0  0  0
  -27.8450  -13.4630   19.8760 N   0  0  0  0  0  0  0  0  0  0  0  0
  -27.3140  -12.2230   20.0110 N   0  0  0  0  0  0  0  0  0  0  0  0
  -25.2390  -11.2390   20.7440 C   0  0  0  0  0  0  0  0  0  0  0  0
  -25.5580  -10.1650   21.6030 C   0  0  0  0  0  3  0  0  0  0  0  0
  -24.6730   -9.0720   21.7420 C   0  0  0  0  0  3  0  0  0  0  0  0
  -23.4570   -9.0500   21.0220 C   0  0  0  0  0  0  0  0  0  0  0  0
  -23.1540  -10.1130   20.1510 C   0  0  0  0  0  3  0  0  0  0  0  0
  -24.0370  -11.1970   20.0080 C   0  0  0  0  0  3  0  0  0  0  0  0
  -22.5480   -8.0220   21.0740 O   0  0  0  0  0  0  0  0  0  0  0  0
  -22.2890   -7.3470   22.2400 C   0  0  0  0  0  0  0  0  0  0  0  0
  -21.8530   -8.0120   23.4080 C   0  0  0  0  0  3  0  0  0  0  0  0
  -21.5350   -7.2700   24.5630 C   0  0  0  0  0  3  0  0  0  0  0  0
  -21.6410   -5.8680   24.5490 C   0  0  0  0  0  0  0  0  0  0  0  0
  -22.0730   -5.2030   23.3880 C   0  0  0  0  0  3  0  0  0  0  0  0
  -22.3940   -5.9420   22.2360 C   0  0  0  0  0  0  0  0  0  0  0  0
  -22.7860   -5.2960   21.1110 F   0  0  0  0  0  0  0  0  0  0  0  0
  -21.3290   -5.1540   25.6560 F   0  0  0  0  0  0  0  0  0  0  0  0
  -24.7360  -14.3850   21.5760 C   0  0  0  0  0  0  0  0  0  0  0  0
  -24.1160  -13.6890   22.5250 N   0  0  0  0  0  0  0  0  0  0  0  0
  -24.3560  -15.5130   21.2690 O   0  0  0  0  0  0  0  0  0  0  0  0
  -24.4290  -12.7710   22.8040 H   0  0  0  0  0  0  0  0  0  0  0  0
  -23.3020  -14.0820   22.9760 H   0  0  0  0  0  0  0  0  0  0  0  0
  -27.4250  -15.7670   20.4790 N   0  0  0  0  0  0  0  0  0  0  0  0
  -26.8820  -16.4780   20.9550 H   0  0  0  0  0  0  0  0  0  0  0  0
  -28.3240  -16.1110   20.1640 H   0  0  0  0  0  0  0  0  0  0  0  0
  -29.0690  -22.5510   19.7330 C   0  0  0  0  0  3  0  0  0  0  0  0
  -30.3020  -22.9310   20.4540 N   0  0  0  0  0  4  0  0  0  0  0  0
  -31.0830  -22.9140   19.8210 H   0  0  0  0  0  0  0  0  0  0  0  0
  -30.4890  -22.2950   21.2090 H   0  0  0  0  0  0  0  0  0  0  0  0
  -30.2270  -23.8520   20.8440 H   0  0  0  0  0  0  0  0  0  0  0  0
  -28.5170  -23.7610   18.8680 C   0  0  0  0  0  2  0  0  0  0  0  0
  -28.1280  -25.0560   19.6710 C   0  0  0  0  0  2  0  0  0  0  0  0
  -28.1640  -26.3230   18.9520 O   0  0  0  0  0  0  0  0  0  0  0  0
  -24.6930  -31.4010   22.6410 C   0  0  0  0  0  0  0  0  0  0  0  0
  -27.0460  -27.1310   19.0800 C   0  0  0  0  0  0  0  0  0  0  0  0
  -23.3680  -30.1580   20.9660 C   0  0  0  0  0  3  0  0  0  0  0  0
  -24.7040  -28.7100   19.3410 C   0  0  0  0  0  0  0  0  0  0  0  0
  -25.8890  -30.4780   20.6510 C   0  0  0  0  0  2  0  0  0  0  0  0
  -25.9080  -29.1570   19.8990 C   0  0  0  0  0  0  0  0  0  0  0  0
  -27.0870  -28.3780   19.7590 C   0  0  0  0  0  3  0  0  0  0  0  0
  -25.8240  -26.7130   18.5150 C   0  0  0  0  0  3  0  0  0  0  0  0
  -24.6580  -27.4900   18.6440 C   0  0  0  0  0  3  0  0  0  0  0  0
  -23.4850  -29.5850   19.5280 C   0  0  0  0  0  2  0  0  0  0  0  0
  -24.6720  -30.6890   21.4770 N   0  0  0  0  0  0  0  0  0  0  0  0
  -23.6500  -31.6470   23.2630 O   0  0  0  0  0  0  0  0  0  0  0  0
  -22.7460  -29.0770   21.8780 C   0  0  0  0  0  0  0  0  0  0  0  0
  -21.4060  -28.9740   21.8590 N   0  0  0  0  0  0  0  0  0  0  0  0
  -23.4610  -28.3390   22.5590 O   0  0  0  0  0  0  0  0  0  0  0  0
  -20.8890  -29.6180   21.2770 H   0  0  0  0  0  0  0  0  0  0  0  0
  -18.0270  -27.9440   22.6180 C   0  0  0  0  0  0  0  0  0  0  0  0
  -20.6110  -28.0010   22.6080 C   0  0  0  0  0  3  0  0  0  0  0  0
  -20.5370  -26.6520   21.8580 C   0  0  0  0  0  2  0  0  0  0  0  0
  -19.3060  -26.5300   20.9540 C   0  0  0  0  0  2  0  0  0  0  0  0
  -18.0200  -26.6810   21.7710 C   0  0  0  0  0  2  0  0  0  0  0  0
  -19.2430  -28.5700   22.9980 C   0  0  0  0  0  0  0  0  0  0  0  0
  -19.1910  -29.7590   23.7590 C   0  0  0  0  0  3  0  0  0  0  0  0
  -17.9580  -30.3190   24.1390 C   0  0  0  0  0  3  0  0  0  0  0  0
  -16.7570  -29.6860   23.7720 C   0  0  0  0  0  3  0  0  0  0  0  0
  -16.7930  -28.5000   23.0180 C   0  0  0  0  0  3  0  0  0  0  0  0
  -26.0230  -31.9580   23.2350 C   0  0  0  0  0  3  0  0  0  0  0  0
  -25.7140  -33.2320   23.9000 N   0  0  0  0  0  0  0  0  0  0  0  0
  -25.9750  -34.4400   23.3850 C   0  0  0  0  0  0  0  0  0  0  0  0
  -26.5700  -34.5990   22.3160 O   0  0  0  0  0  0  0  0  0  0  0  0
  -25.1740  -33.1760   24.7500 H   0  0  0  0  0  0  0  0  0  0  0  0
  -24.2040  -36.2170   23.5540 C   0  0  0  0  0  1  0  0  0  0  0  0
  -25.4950  -35.6690   24.1810 C   0  0  0  0  0  3  0  0  0  0  0  0
  -27.6600  -36.3910   25.0830 C   0  0  0  0  0  1  0  0  0  0  0  0
  -26.5050  -36.7460   24.2660 N   0  0  0  0  0  0  0  0  0  0  0  0
  -26.0950  -37.5940   24.6480 H   0  0  0  0  0  0  0  0  0  0  0  0
  -26.7200  -30.9610   24.2400 C   0  0  1  0  0  0  0  0  0  0  0  0
  -25.7710  -30.4110   25.3300 C   0  0  0  0  0  1  0  0  0  0  0  0
  -27.3200  -29.7530   23.4840 C   0  0  0  0  0  1  0  0  0  0  0  0
  -27.9000  -31.6690   24.9470 C   0  0  0  0  0  1  0  0  0  0  0  0
  1  2  1  0
  1 50  1  0
  2  4  1  0
  3  1  2  0
  5  2  1  0
  5  8  1  0
  7 10  1  0
  7  6  1  0
  8  9  1  0
  8  7  2  0
  9 20  1  0
  9 11  1  0
 11  6  1  0
 12 18  1  0
 13 18  1  0
 14 15  1  0
 14 13  1  0
 16 15  1  0
 16 25  1  0
 16 17  1  0
 18 17  1  0
 19 12  2  0
 20 12  1  0
 21 20  1  0
 22 47  1  0
 22 23  2  0
 23 42  1  0
 24 27  1  0
 24 23  1  0
 25 26  1  0
 25 22  1  0
 26 24  2  0
 27 28  1  0
 28 29  2  0
 30 33  1  0
 30 29  1  0
 31 30  2  0
 32 31  1  0
 32 27  2  0
 33 34  1  0
 34 35  1  0
 35 36  2  0
 37 36  1  0
 37 41  1  0
 38 37  2  0
 39 34  2  0
 39 38  1  0
 40 39  1  0
 42 43  1  0
 43 45  1  0
 43 46  1  0
 44 42  2  0
 47 48  1  0
 49 47  1  0
 50 55  1  0
 50 51  1  0
 51 54  1  0
 51 53  1  0
 52 51  1  0
 55 56  1  0
 57 59  1  0
 57 56  1  0
 58 69  2  0
 59 64  1  0
 60 68  1  0
 60 70  1  0
 61 67  1  0
 61 63  1  0
 62 68  1  0
 63 62  1  0
 64 63  2  0
 65 66  1  0
 65 59  2  0
 66 61  2  0
 67 60  1  0
 68 58  1  0
 70 72  2  0
 71 70  1  0
 73 71  1  0
 74 79  2  0
 74 83  1  0
 75 71  1  0
 75 79  1  0
 76 75  1  0
 77 78  1  0
 77 76  1  0
 78 74  1  0
 79 80  1  0
 80 81  2  0
 82 81  1  0
 83 82  2  0
 84 58  1  0
 84 85  1  0
 84 94  1  0
 85 88  1  0
 86 85  1  0
 86 90  1  0
 87 86  2  0
 90 89  1  0
 90 92  1  0
 92 93  1  0
 92 91  1  0
 94 97  1  1
 94 95  1  0
 96 94  1  0
M  ISO  4  12 100  20 100  56 101  57 101
M  END
>  <TORSDO>  (78) 
F 22

>  <SCORE>  (78) 
-7.373

>  <name>  (78) 
77

>  <ligand_id>  (78) 
77

>  <original_smiles>  (78) 
[H]c1sc(N([H])C(=O)N2C([H])([H])C([H])([H])C([H])([H])C([H])(n3nc(-c4c([H])c([H])c(Oc5c([H])c([H])c(F)c([H])c5F)c([H])c4[H])c(C(=O)N([H])[H])c3N([H])[H])C2([H])[H])c(C([H])([H])N([H])C(=O)C([H])(C([H])([H])C([H])([H])Oc2c([H])c([H])c3c(c2[H])C([H])([H])N(C(=O)C([H])(N([H])C(=O)C([H])(N([H])C([H])([H])[H])C([H])([H])[H])C(C([H])([H])[H])(C([H])([H])[H])C([H])([H])[H])C([H])(C(=O)N([H])C2([H])c4c([H])c([H])c([H])c([H])c4C([H])([H])C([H])([H])C2([H])[H])C3([H])[H])[N+]([H])([H])[H])c1C([H])([H])[H]

>  <smiles>  (78) 
[H]c1sc(N([H])C(=O)N2C([H])([H])C([H])([H])C([H])([H])C([H])(n3nc(-c4c([H])c([H])c(Oc5c([H])c([H])c(F)c([H])c5F)c([H])c4[H])c(C(=O)N([H])[H])c3N([H])[H])C2([H])[H])c(C([H])([H])N([H])C(=O)C([H])(C([H])([H])C([H])([H])Oc2c([H])c([H])c3c(c2[H])C([H])([H])N(C(=O)C([H])(N([H])C(=O)C([H])(N([H])C([H])([H])[H])C([H])([H])[H])C(C([H])([H])[H])(C([H])([H])[H])C([H])([H])[H])C([H])(C(=O)N([H])C2([H])c4c([H])c([H])c([H])c([H])c4C([H])([H])C([H])([H])C2([H])[H])C3([H])[H])[N+]([H])([H])[H])c1C([H])([H])[H]

$$$$
78:0:0
     RDKit          3D

 94102  0  0  1  0  0  0  0  0999 V2000
  -30.6490  -14.7720   20.4580 C   0  0  0  0  0  0  0  0  0  0  0  0
  -30.3820  -12.5030   19.4480 C   0  0  0  0  0  2  0  0  0  0  0  0
  -29.4750  -12.5760   18.2030 C   0  0  0  0  0  2  0  0  0  0  0  0
  -28.0010  -12.4150   18.6140 C   0  0  0  0  0  2  0  0  0  0  0  0
  -27.6110  -13.3210   19.8110 C   0  0  0  0  0  3  0  0  0  0  0  0
  -28.6490  -13.2590   20.9540 C   0  0  0  0  0  2  0  0  0  0  0  0
  -29.9580  -13.5820   20.3750 N   0  0  0  0  0  0  0  0  0  0  0  0
  -31.8500  -14.7480   20.1660 O   0  0  0  0  0  0  0  0  0  0  0  0
  -32.1040  -18.8230   20.2160 C   0  0  0  0  0  3  0  0  0  0  0  0
  -31.3010  -19.9490   20.4570 C   0  0  0  0  0  0  0  0  0  0  0  0
  -29.9340  -19.7180   20.7240 C   0  0  0  0  0  0  0  0  0  0  0  0
  -30.3630  -17.3500   20.5770 C   0  0  0  0  0  0  0  0  0  0  0  0
  -31.6390  -17.5700   20.2860 N   0  0  0  0  0  0  0  0  0  0  0  0
  -29.4910  -18.3950   20.7870 N   0  0  0  0  0  0  0  0  0  0  0  0
  -29.9570  -15.9710   20.6620 N   0  0  0  0  0  0  0  0  0  0  0  0
  -28.9800  -15.8510   20.8580 H   0  0  0  0  0  0  0  0  0  0  0  0
  -25.2130  -13.9230   20.4860 C   0  0  0  0  0  0  0  0  0  0  0  0
  -24.1400  -13.1560   20.8440 C   0  0  0  0  0  0  0  0  0  0  0  0
  -24.6020  -11.8040   20.8430 C   0  0  0  0  0  0  0  0  0  0  0  0
  -26.2600  -13.0400   20.2830 N   0  0  0  0  0  0  0  0  0  0  0  0
  -25.8990  -11.7610   20.5650 N   0  0  0  0  0  0  0  0  0  0  0  0
  -23.8700  -10.5450   21.0350 C   0  0  0  0  0  0  0  0  0  0  0  0
  -24.2900   -9.5800   21.9770 C   0  0  0  0  0  3  0  0  0  0  0  0
  -23.5570   -8.3870   22.1560 C   0  0  0  0  0  3  0  0  0  0  0  0
  -22.3900   -8.1500   21.3920 C   0  0  0  0  0  0  0  0  0  0  0  0
  -21.9890   -9.1040   20.4380 C   0  0  0  0  0  3  0  0  0  0  0  0
  -22.7220  -10.2880   20.2580 C   0  0  0  0  0  3  0  0  0  0  0  0
  -21.6280   -7.0090   21.4800 O   0  0  0  0  0  0  0  0  0  0  0  0
  -21.5760   -6.2670   22.6320 C   0  0  0  0  0  0  0  0  0  0  0  0
  -21.1650   -6.8270   23.8620 C   0  0  0  0  0  3  0  0  0  0  0  0
  -21.0590   -6.0120   25.0060 C   0  0  0  0  0  3  0  0  0  0  0  0
  -21.3520   -4.6370   24.9220 C   0  0  0  0  0  0  0  0  0  0  0  0
  -21.7560   -4.0770   23.6980 C   0  0  0  0  0  3  0  0  0  0  0  0
  -21.8640   -4.8890   22.5550 C   0  0  0  0  0  0  0  0  0  0  0  0
  -22.2330   -4.3400   21.3730 F   0  0  0  0  0  0  0  0  0  0  0  0
  -21.2430   -3.8520   26.0190 F   0  0  0  0  0  0  0  0  0  0  0  0
  -22.7370  -13.6380   21.0750 C   0  0  0  0  0  0  0  0  0  0  0  0
  -21.9890  -12.9590   21.9360 N   0  0  0  0  0  0  0  0  0  0  0  0
  -22.3130  -14.6560   20.5270 O   0  0  0  0  0  0  0  0  0  0  0  0
  -22.3430  -12.1340   22.3990 H   0  0  0  0  0  0  0  0  0  0  0  0
  -21.0470  -13.2660   22.1350 H   0  0  0  0  0  0  0  0  0  0  0  0
  -25.3830  -15.2920   20.2890 N   0  0  0  0  0  0  0  0  0  0  0  0
  -24.6120  -15.9460   20.3720 H   0  0  0  0  0  0  0  0  0  0  0  0
  -26.2280  -15.7230   19.9380 H   0  0  0  0  0  0  0  0  0  0  0  0
  -31.8830  -21.2230   20.4800 N   0  0  0  0  0  0  0  0  0  0  0  0
  -32.8950  -21.3050   20.5420 H   0  0  0  0  0  0  0  0  0  0  0  0
  -31.3880  -21.9790   20.9500 H   0  0  0  0  0  0  0  0  0  0  0  0
  -29.0110  -20.9590   21.1120 C   0  0  0  0  0  2  0  0  0  0  0  0
  -28.8780  -22.2770   20.1690 C   0  0  0  0  0  2  0  0  0  0  0  0
  -28.8100  -23.7700   20.8020 C   0  0  0  0  0  3  0  0  0  0  0  0
  -30.1070  -24.0120   21.3220 O   0  0  0  0  0  0  0  0  0  0  0  0
  -30.6550  -24.3110   20.6010 H   0  0  0  0  0  0  0  0  0  0  0  0
  -28.4520  -25.0220   19.8380 C   0  0  0  0  0  2  0  0  0  0  0  0
  -28.3860  -26.4390   20.3440 O   0  0  0  0  0  0  0  0  0  0  0  0
  -24.6240  -31.9020   23.2430 C   0  0  0  0  0  0  0  0  0  0  0  0
  -27.2590  -27.2900   20.2370 C   0  0  0  0  0  0  0  0  0  0  0  0
  -23.4360  -30.4900   21.6040 C   0  0  0  0  0  3  0  0  0  0  0  0
  -24.8990  -28.9340   20.1930 C   0  0  0  0  0  0  0  0  0  0  0  0
  -25.9770  -30.8020   21.4390 C   0  0  0  0  0  2  0  0  0  0  0  0
  -26.0630  -29.4170   20.8010 C   0  0  0  0  0  0  0  0  0  0  0  0
  -27.2420  -28.6050   20.8150 C   0  0  0  0  0  3  0  0  0  0  0  0
  -26.0690  -26.8790   19.5920 C   0  0  0  0  0  3  0  0  0  0  0  0
  -24.9080  -27.6740   19.5790 C   0  0  0  0  0  3  0  0  0  0  0  0
  -23.6610  -29.8090   20.2290 C   0  0  0  0  0  2  0  0  0  0  0  0
  -24.6980  -31.0840   22.1520 N   0  0  0  0  0  0  0  0  0  0  0  0
  -23.5360  -32.1810   23.7690 O   0  0  0  0  0  0  0  0  0  0  0  0
  -22.7670  -29.4780   22.5650 C   0  0  0  0  0  0  0  0  0  0  0  0
  -21.4410  -29.3040   22.4370 N   0  0  0  0  0  0  0  0  0  0  0  0
  -23.4420  -28.8520   23.3860 O   0  0  0  0  0  0  0  0  0  0  0  0
  -20.9560  -29.8630   21.7490 H   0  0  0  0  0  0  0  0  0  0  0  0
  -18.0610  -28.1150   22.9360 C   0  0  0  0  0  0  0  0  0  0  0  0
  -20.6190  -28.3700   23.2080 C   0  0  0  0  0  3  0  0  0  0  0  0
  -20.7180  -26.9360   22.6370 C   0  0  0  0  0  2  0  0  0  0  0  0
  -19.6180  -26.6140   21.6220 C   0  0  0  0  0  2  0  0  0  0  0  0
  -18.2360  -26.7630   22.2630 C   0  0  0  0  0  2  0  0  0  0  0  0
  -19.1800  -28.8760   23.3650 C   0  0  0  0  0  0  0  0  0  0  0  0
  -18.9620  -30.1400   23.9560 C   0  0  0  0  0  3  0  0  0  0  0  0
  -17.6590  -30.6440   24.1180 C   0  0  0  0  0  3  0  0  0  0  0  0
  -16.5530  -29.8790   23.7060 C   0  0  0  0  0  3  0  0  0  0  0  0
  -16.7550  -28.6170   23.1210 C   0  0  0  0  0  3  0  0  0  0  0  0
  -25.9000  -32.5450   23.8690 C   0  0  0  0  0  3  0  0  0  0  0  0
  -25.5810  -33.9420   24.1960 N   0  0  0  0  0  0  0  0  0  0  0  0
  -25.9090  -34.9970   23.4370 C   0  0  0  0  0  0  0  0  0  0  0  0
  -26.5810  -34.8940   22.4070 O   0  0  0  0  0  0  0  0  0  0  0  0
  -24.9830  -34.0930   24.9950 H   0  0  0  0  0  0  0  0  0  0  0  0
  -24.1720  -36.7810   23.0770 C   0  0  0  0  0  1  0  0  0  0  0  0
  -25.4140  -36.3840   23.8900 C   0  0  0  0  0  3  0  0  0  0  0  0
  -27.5440  -37.2810   24.7190 C   0  0  0  0  0  1  0  0  0  0  0  0
  -26.4420  -37.4410   23.7750 N   0  0  0  0  0  0  0  0  0  0  0  0
  -26.0320  -38.3600   23.9220 H   0  0  0  0  0  0  0  0  0  0  0  0
  -26.4110  -31.7820   25.1520 C   0  0  1  0  0  0  0  0  0  0  0  0
  -25.3140  -31.5440   26.2170 C   0  0  0  0  0  1  0  0  0  0  0  0
  -27.0010  -30.4040   24.7700 C   0  0  0  0  0  1  0  0  0  0  0  0
  -27.5570  -32.5820   25.8170 C   0  0  0  0  0  1  0  0  0  0  0  0
  1 15  1  0
  2  7  1  0
  3  4  1  0
  3  2  1  0
  5  4  1  0
  5 20  1  0
  5  6  1  0
  7  1  1  0
  7  6  1  0
  8  1  2  0
  9 13  1  0
  9 10  2  0
 10 45  1  0
 10 11  1  0
 11 14  2  0
 11 48  1  0
 12 15  1  0
 12 14  1  0
 13 12  2  0
 15 16  1  0
 17 18  2  0
 18 37  1  0
 19 18  1  0
 19 22  1  0
 20 17  1  0
 20 21  1  0
 21 19  2  0
 22 23  1  0
 23 24  2  0
 25 28  1  0
 25 24  1  0
 26 25  2  0
 27 26  1  0
 27 22  2  0
 28 29  1  0
 29 30  1  0
 30 31  2  0
 32 31  1  0
 32 36  1  0
 33 32  2  0
 34 29  2  0
 34 33  1  0
 35 34  1  0
 37 38  1  0
 38 41  1  0
 38 40  1  0
 39 37  2  0
 42 43  1  0
 42 17  1  0
 44 42  1  0
 45 46  1  0
 45 47  1  0
 49 50  1  0
 49 48  1  0
 50 53  1  0
 50 51  1  0
 52 51  1  0
 53 54  1  0
 55 66  2  0
 56 54  1  0
 56 61  1  0
 57 65  1  0
 57 67  1  0
 58 64  1  0
 58 60  1  0
 59 65  1  0
 60 61  2  0
 60 59  1  0
 62 56  2  0
 63 62  1  0
 63 58  2  0
 64 57  1  0
 65 55  1  0
 67 69  2  0
 68 67  1  0
 70 68  1  0
 71 80  2  0
 71 76  1  0
 72 68  1  0
 72 76  1  0
 73 72  1  0
 74 75  1  0
 74 73  1  0
 75 71  1  0
 76 77  2  0
 77 78  1  0
 79 78  2  0
 80 79  1  0
 81 55  1  0
 81 82  1  0
 81 91  1  0
 82 85  1  0
 83 87  1  0
 83 82  1  0
 84 83  2  0
 87 86  1  0
 89 87  1  0
 89 90  1  0
 89 88  1  0
 91 94  1  1
 91 92  1  0
 93 91  1  0
M  ISO  4   1 100  15 100  53 101  54 101
M  END
>  <TORSDO>  (79) 
F 21

>  <SCORE>  (79) 
-14.004

>  <name>  (79) 
78

>  <ligand_id>  (79) 
78

>  <original_smiles>  (79) 
[H]OC([H])(C([H])([H])Oc1c([H])c([H])c2c(c1[H])C([H])([H])N(C(=O)C([H])(N([H])C(=O)C([H])(N([H])C([H])([H])[H])C([H])([H])[H])C(C([H])([H])[H])(C([H])([H])[H])C([H])([H])[H])C([H])(C(=O)N([H])C1([H])c3c([H])c([H])c([H])c([H])c3C([H])([H])C([H])([H])C1([H])[H])C2([H])[H])C([H])([H])C([H])([H])c1nc(N([H])C(=O)N2C([H])([H])C([H])([H])C([H])([H])C([H])(n3nc(-c4c([H])c([H])c(Oc5c([H])c([H])c(F)c([H])c5F)c([H])c4[H])c(C(=O)N([H])[H])c3N([H])[H])C2([H])[H])nc([H])c1N([H])[H]

>  <smiles>  (79) 
[H]OC([H])(C([H])([H])Oc1c([H])c([H])c2c(c1[H])C([H])([H])N(C(=O)C([H])(N([H])C(=O)C([H])(N([H])C([H])([H])[H])C([H])([H])[H])C(C([H])([H])[H])(C([H])([H])[H])C([H])([H])[H])C([H])(C(=O)N([H])C1([H])c3c([H])c([H])c([H])c([H])c3C([H])([H])C([H])([H])C1([H])[H])C2([H])[H])C([H])([H])C([H])([H])c1nc(N([H])C(=O)N2C([H])([H])C([H])([H])C([H])([H])C([H])(n3nc(-c4c([H])c([H])c(Oc5c([H])c([H])c(F)c([H])c5F)c([H])c4[H])c(C(=O)N([H])[H])c3N([H])[H])C2([H])[H])nc([H])c1N([H])[H]

$$$$
79:0:0
     RDKit          3D

 91 99  0  0  1  0  0  0  0  0999 V2000
  -31.7360  -18.2430   20.3290 C   0  0  0  0  0  3  0  0  0  0  0  0
  -30.3740  -18.0950   20.2530 C   0  0  0  0  0  0  0  0  0  0  0  0
  -30.5370  -20.4060   20.4220 C   0  0  0  0  0  0  0  0  0  0  0  0
  -29.7020  -19.3490   20.3170 N   0  0  0  0  0  0  0  0  0  0  0  0
  -30.2180  -21.7770   20.5030 N   0  0  0  0  0  0  0  0  0  0  0  0
  -32.2260  -19.9140   20.4690 S   0  0  0  0  0  0  0  0  0  0  0  0
  -31.0770  -22.3200   20.5390 H   0  0  0  0  0  0  0  0  0  0  0  0
  -28.2800  -22.3630   21.8960 C   0  0  0  0  0  1  0  0  0  0  0  0
  -29.0290  -22.6450   20.5820 C   0  0  0  0  0  3  0  0  0  0  0  0
  -29.3650  -24.1850   20.4480 C   0  0  0  0  0  3  0  0  0  0  0  0
  -28.1260  -25.1270   20.2300 C   0  0  0  0  0  3  0  0  0  0  0  0
  -28.3480  -26.5720   20.1390 O   0  0  0  0  0  0  0  0  0  0  0  0
  -24.5940  -31.8590   23.2110 C   0  0  0  0  0  0  0  0  0  0  0  0
  -27.2040  -27.3720   20.1060 C   0  0  0  0  0  0  0  0  0  0  0  0
  -23.3780  -30.4730   21.5680 C   0  0  0  0  0  3  0  0  0  0  0  0
  -24.8230  -28.9380   20.1280 C   0  0  0  0  0  0  0  0  0  0  0  0
  -25.9110  -30.8120   21.3630 C   0  0  0  0  0  2  0  0  0  0  0  0
  -25.9930  -29.4410   20.7120 C   0  0  0  0  0  0  0  0  0  0  0  0
  -27.1880  -28.6700   20.6880 C   0  0  0  0  0  3  0  0  0  0  0  0
  -26.0060  -26.9060   19.5120 C   0  0  0  0  0  3  0  0  0  0  0  0
  -24.8290  -27.6740   19.5240 C   0  0  0  0  0  3  0  0  0  0  0  0
  -23.5810  -29.8030   20.1850 C   0  0  0  0  0  2  0  0  0  0  0  0
  -24.6460  -31.0630   22.1050 N   0  0  0  0  0  0  0  0  0  0  0  0
  -23.5150  -32.1320   23.7560 O   0  0  0  0  0  0  0  0  0  0  0  0
  -22.7250  -29.4480   22.5260 C   0  0  0  0  0  0  0  0  0  0  0  0
  -21.3990  -29.2720   22.4060 N   0  0  0  0  0  0  0  0  0  0  0  0
  -23.4100  -28.8120   23.3310 O   0  0  0  0  0  0  0  0  0  0  0  0
  -20.9040  -29.8380   21.7300 H   0  0  0  0  0  0  0  0  0  0  0  0
  -18.0210  -28.0880   22.9270 C   0  0  0  0  0  0  0  0  0  0  0  0
  -20.5830  -28.3330   23.1750 C   0  0  0  0  0  3  0  0  0  0  0  0
  -20.6710  -26.9050   22.5860 C   0  0  0  0  0  2  0  0  0  0  0  0
  -19.5590  -26.5970   21.5800 C   0  0  0  0  0  2  0  0  0  0  0  0
  -18.1830  -26.7440   22.2370 C   0  0  0  0  0  2  0  0  0  0  0  0
  -19.1470  -28.8410   23.3520 C   0  0  0  0  0  0  0  0  0  0  0  0
  -18.9410  -30.1000   23.9550 C   0  0  0  0  0  3  0  0  0  0  0  0
  -17.6410  -30.6070   24.1390 C   0  0  0  0  0  3  0  0  0  0  0  0
  -16.5290  -29.8520   23.7290 C   0  0  0  0  0  3  0  0  0  0  0  0
  -16.7200  -28.5940   23.1300 C   0  0  0  0  0  3  0  0  0  0  0  0
  -25.8820  -32.4860   23.8300 C   0  0  0  0  0  3  0  0  0  0  0  0
  -26.4070  -31.7060   25.0980 C   0  0  1  0  0  0  0  0  0  0  0  0
  -25.3200  -31.4600   26.1710 C   0  0  0  0  0  1  0  0  0  0  0  0
  -26.9870  -30.3320   24.6910 C   0  0  0  0  0  1  0  0  0  0  0  0
  -27.5650  -32.4940   25.7560 C   0  0  0  0  0  1  0  0  0  0  0  0
  -25.5770  -33.8820   24.1690 N   0  0  0  0  0  0  0  0  0  0  0  0
  -25.9100  -34.9380   23.4140 C   0  0  0  0  0  0  0  0  0  0  0  0
  -26.5740  -34.8380   22.3790 O   0  0  0  0  0  0  0  0  0  0  0  0
  -24.9860  -34.0340   24.9740 H   0  0  0  0  0  0  0  0  0  0  0  0
  -24.1840  -36.7360   23.0740 C   0  0  0  0  0  1  0  0  0  0  0  0
  -25.4280  -36.3260   23.8790 C   0  0  0  0  0  3  0  0  0  0  0  0
  -27.5710  -37.1960   24.7060 C   0  0  0  0  0  1  0  0  0  0  0  0
  -26.4630  -37.3780   23.7700 N   0  0  0  0  0  0  0  0  0  0  0  0
  -26.0600  -38.2970   23.9340 H   0  0  0  0  0  0  0  0  0  0  0  0
  -29.6250  -16.7740   20.0370 C   0  0  0  0  0  2  0  0  0  0  0  0
  -30.7310  -14.5250   20.1350 C   0  0  0  0  0  0  0  0  0  0  0  0
  -30.3460  -12.3990   18.9190 C   0  0  0  0  0  2  0  0  0  0  0  0
  -29.3390  -12.6270   17.7690 C   0  0  0  0  0  2  0  0  0  0  0  0
  -27.8880  -12.4940   18.2720 C   0  0  0  0  0  2  0  0  0  0  0  0
  -27.6300  -13.3030   19.5710 C   0  0  0  0  0  3  0  0  0  0  0  0
  -28.7360  -13.0370   20.6160 C   0  0  0  0  0  2  0  0  0  0  0  0
  -30.0320  -13.3580   19.9950 N   0  0  0  0  0  0  0  0  0  0  0  0
  -31.8120  -14.7080   19.5670 O   0  0  0  0  0  0  0  0  0  0  0  0
  -30.2950  -15.7350   22.2030 C   0  0  0  0  0  1  0  0  0  0  0  0
  -30.0950  -15.5560   20.7610 N   0  0  0  0  0  0  0  0  0  0  0  0
  -25.2760  -13.9360   20.3950 C   0  0  0  0  0  0  0  0  0  0  0  0
  -24.2150  -13.1760   20.8060 C   0  0  0  0  0  0  0  0  0  0  0  0
  -24.6550  -11.8170   20.7440 C   0  0  0  0  0  0  0  0  0  0  0  0
  -26.2960  -13.0430   20.1100 N   0  0  0  0  0  0  0  0  0  0  0  0
  -25.9290  -11.7630   20.3770 N   0  0  0  0  0  0  0  0  0  0  0  0
  -23.9190  -10.5640   20.9560 C   0  0  0  0  0  0  0  0  0  0  0  0
  -24.3730   -9.5880   21.8690 C   0  0  0  0  0  3  0  0  0  0  0  0
  -23.6380   -8.3990   22.0690 C   0  0  0  0  0  3  0  0  0  0  0  0
  -22.4340   -8.1790   21.3570 C   0  0  0  0  0  0  0  0  0  0  0  0
  -21.9990   -9.1460   20.4350 C   0  0  0  0  0  3  0  0  0  0  0  0
  -22.7340  -10.3270   20.2310 C   0  0  0  0  0  3  0  0  0  0  0  0
  -21.6690   -7.0450   21.4690 O   0  0  0  0  0  0  0  0  0  0  0  0
  -21.6480   -6.3020   22.6220 C   0  0  0  0  0  0  0  0  0  0  0  0
  -21.2700   -6.8620   23.8610 C   0  0  0  0  0  3  0  0  0  0  0  0
  -21.1930   -6.0480   25.0080 C   0  0  0  0  0  3  0  0  0  0  0  0
  -21.4840   -4.6730   24.9180 C   0  0  0  0  0  0  0  0  0  0  0  0
  -21.8560   -4.1120   23.6840 C   0  0  0  0  0  3  0  0  0  0  0  0
  -21.9330   -4.9240   22.5380 C   0  0  0  0  0  0  0  0  0  0  0  0
  -22.2710   -4.3750   21.3460 F   0  0  0  0  0  0  0  0  0  0  0  0
  -21.4010   -3.8870   26.0170 F   0  0  0  0  0  0  0  0  0  0  0  0
  -22.8380  -13.6710   21.1460 C   0  0  0  0  0  0  0  0  0  0  0  0
  -22.1430  -12.9800   22.0410 N   0  0  0  0  0  0  0  0  0  0  0  0
  -22.3920  -14.7050   20.6540 O   0  0  0  0  0  0  0  0  0  0  0  0
  -22.5200  -12.1430   22.4620 H   0  0  0  0  0  0  0  0  0  0  0  0
  -21.2220  -13.2940   22.3120 H   0  0  0  0  0  0  0  0  0  0  0  0
  -25.4520  -15.3050   20.2200 N   0  0  0  0  0  0  0  0  0  0  0  0
  -24.7010  -15.9690   20.3780 H   0  0  0  0  0  0  0  0  0  0  0  0
  -26.2940  -15.7360   19.8610 H   0  0  0  0  0  0  0  0  0  0  0  0
  1  6  1  0
  2  4  1  0
  2  1  2  0
  3  6  1  0
  3  5  1  0
  4  3  2  0
  5  7  1  0
  5  9  1  0
  9  8  1  0
 10  9  1  0
 11 10  2  0
 12 11  1  0
 13 24  2  0
 14 12  1  0
 14 19  1  0
 15 23  1  0
 15 25  1  0
 16 22  1  0
 16 18  1  0
 17 23  1  0
 18 17  1  0
 19 18  2  0
 20 21  1  0
 20 14  2  0
 21 16  2  0
 22 15  1  0
 23 13  1  0
 25 27  2  0
 26 25  1  0
 28 26  1  0
 29 38  2  0
 29 34  1  0
 30 26  1  0
 30 34  1  0
 31 30  1  0
 32 33  1  0
 32 31  1  0
 33 29  1  0
 34 35  2  0
 35 36  1  0
 37 36  2  0
 38 37  1  0
 39 13  1  0
 39 44  1  0
 39 40  1  0
 40 43  1  1
 40 41  1  0
 42 40  1  0
 44 47  1  0
 45 49  1  0
 45 44  1  0
 46 45  2  0
 49 48  1  0
 51 49  1  0
 51 52  1  0
 51 50  1  0
 53  2  1  0
 53 63  1  0
 54 63  1  0
 55 60  1  0
 56 57  1  0
 56 55  1  0
 58 57  1  0
 58 67  1  0
 58 59  1  0
 60 54  1  0
 60 59  1  0
 61 54  2  0
 63 62  1  0
 64 65  2  0
 65 84  1  0
 66 65  1  0
 66 69  1  0
 67 68  1  0
 67 64  1  0
 68 66  2  0
 69 70  1  0
 70 71  2  0
 72 75  1  0
 72 71  1  0
 73 72  2  0
 74 73  1  0
 74 69  2  0
 75 76  1  0
 76 77  1  0
 77 78  2  0
 79 78  1  0
 79 83  1  0
 80 79  2  0
 81 76  2  0
 81 80  1  0
 82 81  1  0
 84 85  1  0
 85 88  1  0
 85 87  1  0
 86 84  2  0
 89 90  1  0
 89 64  1  0
 91 89  1  0
M  ISO  4  11 101  12 101  54 100  63 100
M  END
>  <TORSDO>  (80) 
F 20

>  <SCORE>  (80) 
-13.384

>  <name>  (80) 
79

>  <ligand_id>  (80) 
79

>  <original_smiles>  (80) 
[H]c1sc(N([H])C([H])(C([H])([H])[H])C([H])([H])C([H])([H])Oc2c([H])c([H])c3c(c2[H])C([H])([H])N(C(=O)C([H])(N([H])C(=O)C([H])(N([H])C([H])([H])[H])C([H])([H])[H])C(C([H])([H])[H])(C([H])([H])[H])C([H])([H])[H])C([H])(C(=O)N([H])C2([H])c4c([H])c([H])c([H])c([H])c4C([H])([H])C([H])([H])C2([H])[H])C3([H])[H])nc1C([H])([H])N(C(=O)N1C([H])([H])C([H])([H])C([H])([H])C([H])(n2nc(-c3c([H])c([H])c(Oc4c([H])c([H])c(F)c([H])c4F)c([H])c3[H])c(C(=O)N([H])[H])c2N([H])[H])C1([H])[H])C([H])([H])[H]

>  <smiles>  (80) 
[H]c1sc(N([H])C([H])(C([H])([H])[H])C([H])([H])C([H])([H])Oc2c([H])c([H])c3c(c2[H])C([H])([H])N(C(=O)C([H])(N([H])C(=O)C([H])(N([H])C([H])([H])[H])C([H])([H])[H])C(C([H])([H])[H])(C([H])([H])[H])C([H])([H])[H])C([H])(C(=O)N([H])C2([H])c4c([H])c([H])c([H])c([H])c4C([H])([H])C([H])([H])C2([H])[H])C3([H])[H])nc1C([H])([H])N(C(=O)N1C([H])([H])C([H])([H])C([H])([H])C([H])(n2nc(-c3c([H])c([H])c(Oc4c([H])c([H])c(F)c([H])c4F)c([H])c3[H])c(C(=O)N([H])[H])c2N([H])[H])C1([H])[H])C([H])([H])[H]

$$$$
80:0:0
     RDKit          3D

 90 98  0  0  1  0  0  0  0  0999 V2000
  -30.1960  -18.9660   21.9940 C   0  0  0  0  0  3  0  0  0  0  0  0
  -30.0410  -20.2060   22.6340 C   0  0  0  0  0  3  0  0  0  0  0  0
  -29.9290  -18.8970   20.6240 C   0  0  0  0  0  0  0  0  0  0  0  0
  -29.4110  -21.2460   20.6900 C   0  0  0  0  0  0  0  0  0  0  0  0
  -29.6530  -21.3270   21.9850 N   0  0  0  0  0  0  0  0  0  0  0  0
  -29.5310  -20.0770   19.9880 N   0  0  0  0  0  0  0  0  0  0  0  0
  -29.0560  -22.4880   20.0600 N   0  0  0  0  0  0  0  0  0  0  0  0
  -28.8880  -22.4280   19.0610 H   0  0  0  0  0  0  0  0  0  0  0  0
  -30.2080  -17.5370   19.8370 C   0  0  0  0  0  2  0  0  0  0  0  0
  -30.7290  -14.9840   20.1720 C   0  0  0  0  0  0  0  0  0  0  0  0
  -30.5020  -12.6890   19.1960 C   0  0  0  0  0  2  0  0  0  0  0  0
  -29.5580  -12.7510   17.9740 C   0  0  0  0  0  2  0  0  0  0  0  0
  -28.1060  -12.5220   18.4290 C   0  0  0  0  0  2  0  0  0  0  0  0
  -27.7240  -13.4400   19.6220 C   0  0  0  0  0  3  0  0  0  0  0  0
  -28.7920  -13.4290   20.7410 C   0  0  0  0  0  2  0  0  0  0  0  0
  -30.0900  -13.7630   20.1380 N   0  0  0  0  0  0  0  0  0  0  0  0
  -31.8890  -15.0710   19.7570 O   0  0  0  0  0  0  0  0  0  0  0  0
  -29.9940  -16.1350   20.4340 N   0  0  0  0  0  0  0  0  0  0  0  0
  -29.0880  -15.9950   20.8490 H   0  0  0  0  0  0  0  0  0  0  0  0
  -25.3590  -14.0180   20.4130 C   0  0  0  0  0  0  0  0  0  0  0  0
  -24.3030  -13.2380   20.8030 C   0  0  0  0  0  0  0  0  0  0  0  0
  -24.7700  -11.8890   20.7560 C   0  0  0  0  0  0  0  0  0  0  0  0
  -26.3970  -13.1420   20.1450 N   0  0  0  0  0  0  0  0  0  0  0  0
  -26.0550  -11.8560   20.4200 N   0  0  0  0  0  0  0  0  0  0  0  0
  -24.0490  -10.6240   20.9560 C   0  0  0  0  0  0  0  0  0  0  0  0
  -24.4810   -9.6690   21.9030 C   0  0  0  0  0  3  0  0  0  0  0  0
  -23.7600   -8.4700   22.0900 C   0  0  0  0  0  3  0  0  0  0  0  0
  -22.5940   -8.2180   21.3300 C   0  0  0  0  0  0  0  0  0  0  0  0
  -22.1810   -9.1620   20.3740 C   0  0  0  0  0  3  0  0  0  0  0  0
  -22.9030  -10.3520   20.1840 C   0  0  0  0  0  3  0  0  0  0  0  0
  -21.8420   -7.0710   21.4260 O   0  0  0  0  0  0  0  0  0  0  0  0
  -21.7800   -6.3480   22.5900 C   0  0  0  0  0  0  0  0  0  0  0  0
  -21.3090   -6.9140   23.7940 C   0  0  0  0  0  3  0  0  0  0  0  0
  -21.1950   -6.1150   24.9500 C   0  0  0  0  0  3  0  0  0  0  0  0
  -21.5420   -4.7520   24.9010 C   0  0  0  0  0  0  0  0  0  0  0  0
  -22.0020   -4.1850   23.7010 C   0  0  0  0  0  3  0  0  0  0  0  0
  -22.1190   -4.9810   22.5480 C   0  0  0  0  0  0  0  0  0  0  0  0
  -22.5450   -4.4250   21.3880 F   0  0  0  0  0  0  0  0  0  0  0  0
  -21.4240   -3.9820   26.0090 F   0  0  0  0  0  0  0  0  0  0  0  0
  -22.9100  -13.7100   21.0990 C   0  0  0  0  0  0  0  0  0  0  0  0
  -22.2050  -13.0080   21.9800 N   0  0  0  0  0  0  0  0  0  0  0  0
  -22.4590  -14.7330   20.5880 O   0  0  0  0  0  0  0  0  0  0  0  0
  -22.5850  -12.1710   22.3990 H   0  0  0  0  0  0  0  0  0  0  0  0
  -21.2760  -13.3040   22.2410 H   0  0  0  0  0  0  0  0  0  0  0  0
  -25.5190  -15.3890   20.2390 N   0  0  0  0  0  0  0  0  0  0  0  0
  -24.7470  -16.0390   20.3450 H   0  0  0  0  0  0  0  0  0  0  0  0
  -26.3420  -15.8270   19.8430 H   0  0  0  0  0  0  0  0  0  0  0  0
  -28.8430  -23.8620   20.6930 C   0  0  0  0  0  3  0  0  0  0  0  0
  -28.6390  -25.1680   19.7500 C   0  0  0  0  0  3  0  0  0  0  0  0
  -28.5440  -26.5740   20.2930 O   0  0  0  0  0  0  0  0  0  0  0  0
  -24.6350  -31.9130   23.2760 C   0  0  0  0  0  0  0  0  0  0  0  0
  -27.4020  -27.4060   20.2040 C   0  0  0  0  0  0  0  0  0  0  0  0
  -23.5040  -30.5240   21.5780 C   0  0  0  0  0  3  0  0  0  0  0  0
  -25.0150  -29.0190   20.1630 C   0  0  0  0  0  0  0  0  0  0  0  0
  -26.0430  -30.8730   21.4750 C   0  0  0  0  0  2  0  0  0  0  0  0
  -26.1620  -29.5050   20.8020 C   0  0  0  0  0  0  0  0  0  0  0  0
  -27.3500  -28.7100   20.8150 C   0  0  0  0  0  3  0  0  0  0  0  0
  -26.2240  -26.9880   19.5440 C   0  0  0  0  0  3  0  0  0  0  0  0
  -25.0520  -27.7700   19.5280 C   0  0  0  0  0  3  0  0  0  0  0  0
  -23.7650  -29.8770   20.1920 C   0  0  0  0  0  2  0  0  0  0  0  0
  -24.7460  -31.1220   22.1650 N   0  0  0  0  0  0  0  0  0  0  0  0
  -23.5320  -32.1590   23.7850 O   0  0  0  0  0  0  0  0  0  0  0  0
  -22.8350  -29.4780   22.5030 C   0  0  0  0  0  0  0  0  0  0  0  0
  -21.5190  -29.2700   22.3350 N   0  0  0  0  0  0  0  0  0  0  0  0
  -23.4980  -28.8590   23.3390 O   0  0  0  0  0  0  0  0  0  0  0  0
  -21.0370  -29.8180   21.6360 H   0  0  0  0  0  0  0  0  0  0  0  0
  -18.1620  -27.9720   22.7130 C   0  0  0  0  0  0  0  0  0  0  0  0
  -20.7020  -28.2990   23.0690 C   0  0  0  0  0  3  0  0  0  0  0  0
  -20.8600  -26.8770   22.4800 C   0  0  0  0  0  2  0  0  0  0  0  0
  -19.8030  -26.5420   21.4240 C   0  0  0  0  0  2  0  0  0  0  0  0
  -18.3970  -26.6380   22.0230 C   0  0  0  0  0  2  0  0  0  0  0  0
  -19.2450  -28.7580   23.1900 C   0  0  0  0  0  0  0  0  0  0  0  0
  -18.9690  -30.0060   23.7950 C   0  0  0  0  0  3  0  0  0  0  0  0
  -17.6460  -30.4660   23.9250 C   0  0  0  0  0  3  0  0  0  0  0  0
  -16.5780  -29.6780   23.4620 C   0  0  0  0  0  3  0  0  0  0  0  0
  -16.8380  -28.4310   22.8650 C   0  0  0  0  0  3  0  0  0  0  0  0
  -25.8860  -32.5620   23.9400 C   0  0  0  0  0  3  0  0  0  0  0  0
  -26.3390  -31.8250   25.2610 C   0  0  1  0  0  0  0  0  0  0  0  0
  -25.1970  -31.6110   26.2800 C   0  0  0  0  0  1  0  0  0  0  0  0
  -26.9450  -30.4400   24.9360 C   0  0  0  0  0  1  0  0  0  0  0  0
  -27.4530  -32.6390   25.9610 C   0  0  0  0  0  1  0  0  0  0  0  0
  -25.5600  -33.9690   24.2230 N   0  0  0  0  0  0  0  0  0  0  0  0
  -25.9060  -35.0040   23.4460 C   0  0  0  0  0  0  0  0  0  0  0  0
  -26.6030  -34.8780   22.4350 O   0  0  0  0  0  0  0  0  0  0  0  0
  -24.9400  -34.1390   25.0010 H   0  0  0  0  0  0  0  0  0  0  0  0
  -24.1790  -36.7830   23.0020 C   0  0  0  0  0  1  0  0  0  0  0  0
  -25.4010  -36.4030   23.8550 C   0  0  0  0  0  3  0  0  0  0  0  0
  -27.5050  -37.3280   24.7210 C   0  0  0  0  0  1  0  0  0  0  0  0
  -26.4330  -37.4590   23.7380 N   0  0  0  0  0  0  0  0  0  0  0  0
  -26.0180  -38.3810   23.8400 H   0  0  0  0  0  0  0  0  0  0  0  0
  1  2  2  0
  3  1  1  0
  4  5  2  0
  5  2  1  0
  6  3  2  0
  6  4  1  0
  7  4  1  0
  7 48  1  0
  8  7  1  0
  9 18  1  0
  9  3  1  0
 10 18  1  0
 11 16  1  0
 12 13  1  0
 12 11  1  0
 14 13  1  0
 14 23  1  0
 14 15  1  0
 16 10  1  0
 16 15  1  0
 17 10  2  0
 18 19  1  0
 20 21  2  0
 21 40  1  0
 22 21  1  0
 22 25  1  0
 23 20  1  0
 23 24  1  0
 24 22  2  0
 25 26  1  0
 26 27  2  0
 28 31  1  0
 28 27  1  0
 29 28  2  0
 30 29  1  0
 30 25  2  0
 31 32  1  0
 32 33  1  0
 33 34  2  0
 35 34  1  0
 35 39  1  0
 36 35  2  0
 37 32  2  0
 37 36  1  0
 38 37  1  0
 40 41  1  0
 41 44  1  0
 41 43  1  0
 42 40  2  0
 45 46  1  0
 45 20  1  0
 47 45  1  0
 49 50  1  0
 49 48  2  0
 51 62  2  0
 52 50  1  0
 52 57  1  0
 53 61  1  0
 53 63  1  0
 54 60  1  0
 54 56  1  0
 55 61  1  0
 56 57  2  0
 56 55  1  0
 58 52  2  0
 59 58  1  0
 59 54  2  0
 60 53  1  0
 61 51  1  0
 63 65  2  0
 64 63  1  0
 66 64  1  0
 67 76  2  0
 67 72  1  0
 68 64  1  0
 68 72  1  0
 69 68  1  0
 70 71  1  0
 70 69  1  0
 71 67  1  0
 72 73  2  0
 73 74  1  0
 75 74  2  0
 76 75  1  0
 77 51  1  0
 77 82  1  0
 77 78  1  0
 78 81  1  1
 78 79  1  0
 80 78  1  0
 82 85  1  0
 83 87  1  0
 83 82  1  0
 84 83  2  0
 87 86  1  0
 89 90  1  0
 89 87  1  0
 89 88  1  0
M  ISO  4  10 100  18 100  49 101  50 101
M  END
>  <TORSDO>  (81) 
F 19

>  <SCORE>  (81) 
-13.309

>  <name>  (81) 
80

>  <ligand_id>  (81) 
80

>  <original_smiles>  (81) 
[H]c1nc(N([H])C([H])([H])C([H])([H])Oc2c([H])c([H])c3c(c2[H])C([H])([H])N(C(=O)C([H])(N([H])C(=O)C([H])(N([H])C([H])([H])[H])C([H])([H])[H])C(C([H])([H])[H])(C([H])([H])[H])C([H])([H])[H])C([H])(C(=O)N([H])C2([H])c4c([H])c([H])c([H])c([H])c4C([H])([H])C([H])([H])C2([H])[H])C3([H])[H])nc(C([H])([H])N([H])C(=O)N2C([H])([H])C([H])([H])C([H])([H])C([H])(n3nc(-c4c([H])c([H])c(Oc5c([H])c([H])c(F)c([H])c5F)c([H])c4[H])c(C(=O)N([H])[H])c3N([H])[H])C2([H])[H])c1[H]

>  <smiles>  (81) 
[H]c1nc(N([H])C([H])([H])C([H])([H])Oc2c([H])c([H])c3c(c2[H])C([H])([H])N(C(=O)C([H])(N([H])C(=O)C([H])(N([H])C([H])([H])[H])C([H])([H])[H])C(C([H])([H])[H])(C([H])([H])[H])C([H])([H])[H])C([H])(C(=O)N([H])C2([H])c4c([H])c([H])c([H])c([H])c4C([H])([H])C([H])([H])C2([H])[H])C3([H])[H])nc(C([H])([H])N([H])C(=O)N2C([H])([H])C([H])([H])C([H])([H])C([H])(n3nc(-c4c([H])c([H])c(Oc5c([H])c([H])c(F)c([H])c5F)c([H])c4[H])c(C(=O)N([H])[H])c3N([H])[H])C2([H])[H])c1[H]

$$$$
81:0:0
     RDKit          3D

 92100  0  0  1  0  0  0  0  0999 V2000
  -28.8860  -23.1220   20.8290 C   0  0  0  0  0  2  0  0  0  0  0  0
  -28.2350  -18.2670   20.4850 C   0  0  0  0  0  3  0  0  0  0  0  0
  -29.5430  -18.2720   20.0580 C   0  0  0  0  0  0  0  0  0  0  0  0
  -29.1300  -20.5560   20.1580 C   0  0  0  0  0  0  0  0  0  0  0  0
  -30.0140  -19.5930   19.8500 N   0  0  0  0  0  0  0  0  0  0  0  0
  -29.3950  -21.9380   20.0850 N   0  0  0  0  0  0  0  0  0  0  0  0
  -27.5980  -19.8880   20.7100 S   0  0  0  0  0  0  0  0  0  0  0  0
  -30.3380  -22.0980   19.7420 H   0  0  0  0  0  0  0  0  0  0  0  0
  -30.4910  -17.0900   19.8450 C   0  0  0  0  0  2  0  0  0  0  0  0
  -30.7280  -14.6150   19.8160 C   0  0  0  0  0  0  0  0  0  0  0  0
  -30.3650  -12.3940   18.8010 C   0  0  0  0  0  2  0  0  0  0  0  0
  -29.3490  -12.5520   17.6500 C   0  0  0  0  0  2  0  0  0  0  0  0
  -27.9080  -12.4280   18.1820 C   0  0  0  0  0  2  0  0  0  0  0  0
  -27.6520  -13.3160   19.4310 C   0  0  0  0  0  3  0  0  0  0  0  0
  -28.7800  -13.1510   20.4750 C   0  0  0  0  0  2  0  0  0  0  0  0
  -30.0550  -13.4310   19.8020 N   0  0  0  0  0  0  0  0  0  0  0  0
  -31.8570  -14.7280   19.3310 O   0  0  0  0  0  0  0  0  0  0  0  0
  -30.0260  -15.7180   20.1680 N   0  0  0  0  0  0  0  0  0  0  0  0
  -29.0860  -15.6010   20.5150 H   0  0  0  0  0  0  0  0  0  0  0  0
  -25.3390  -13.9630   20.3460 C   0  0  0  0  0  0  0  0  0  0  0  0
  -24.2820  -13.2070   20.7780 C   0  0  0  0  0  0  0  0  0  0  0  0
  -24.7010  -11.8470   20.6750 C   0  0  0  0  0  0  0  0  0  0  0  0
  -26.3350  -13.0610   20.0100 N   0  0  0  0  0  0  0  0  0  0  0  0
  -25.9610  -11.7810   20.2670 N   0  0  0  0  0  0  0  0  0  0  0  0
  -23.9570  -10.5970   20.8860 C   0  0  0  0  0  0  0  0  0  0  0  0
  -24.4010   -9.6180   21.8040 C   0  0  0  0  0  3  0  0  0  0  0  0
  -23.6580   -8.4360   22.0030 C   0  0  0  0  0  3  0  0  0  0  0  0
  -22.4570   -8.2220   21.2870 C   0  0  0  0  0  0  0  0  0  0  0  0
  -22.0310   -9.1880   20.3580 C   0  0  0  0  0  3  0  0  0  0  0  0
  -22.7750  -10.3630   20.1560 C   0  0  0  0  0  3  0  0  0  0  0  0
  -21.6840   -7.0910   21.3970 O   0  0  0  0  0  0  0  0  0  0  0  0
  -21.6140   -6.3780   22.5670 C   0  0  0  0  0  0  0  0  0  0  0  0
  -21.1900   -6.9710   23.7760 C   0  0  0  0  0  3  0  0  0  0  0  0
  -21.0650   -6.1860   24.9400 C   0  0  0  0  0  3  0  0  0  0  0  0
  -21.3550   -4.8090   24.8950 C   0  0  0  0  0  0  0  0  0  0  0  0
  -21.7740   -4.2160   23.6920 C   0  0  0  0  0  3  0  0  0  0  0  0
  -21.9000   -4.9990   22.5300 C   0  0  0  0  0  0  0  0  0  0  0  0
  -22.2810   -4.4180   21.3670 F   0  0  0  0  0  0  0  0  0  0  0  0
  -21.2290   -4.0530   26.0110 F   0  0  0  0  0  0  0  0  0  0  0  0
  -22.9240  -13.7120   21.1710 C   0  0  0  0  0  0  0  0  0  0  0  0
  -22.2530  -13.0160   22.0840 N   0  0  0  0  0  0  0  0  0  0  0  0
  -22.4690  -14.7570   20.7060 O   0  0  0  0  0  0  0  0  0  0  0  0
  -22.6330  -12.1690   22.4790 H   0  0  0  0  0  0  0  0  0  0  0  0
  -21.3460  -13.3340   22.3940 H   0  0  0  0  0  0  0  0  0  0  0  0
  -25.5280  -15.3340   20.1910 N   0  0  0  0  0  0  0  0  0  0  0  0
  -24.7810  -16.0010   20.3570 H   0  0  0  0  0  0  0  0  0  0  0  0
  -26.3490  -15.7570   19.7800 H   0  0  0  0  0  0  0  0  0  0  0  0
  -28.0450  -24.1640   20.0040 C   0  0  0  0  0  3  0  0  0  0  0  0
  -27.5610  -23.3890   18.9290 O   0  0  0  0  0  0  0  0  0  0  0  0
  -28.1170  -22.6050   18.9820 H   0  0  0  0  0  0  0  0  0  0  0  0
  -28.7540  -25.4650   19.4640 C   0  0  0  0  0  2  0  0  0  0  0  0
  -28.5530  -26.7180   20.1720 O   0  0  0  0  0  0  0  0  0  0  0  0
  -24.5250  -31.7520   23.2430 C   0  0  0  0  0  0  0  0  0  0  0  0
  -27.3500  -27.4140   20.1150 C   0  0  0  0  0  0  0  0  0  0  0  0
  -23.3820  -30.3300   21.5730 C   0  0  0  0  0  3  0  0  0  0  0  0
  -24.9020  -28.8660   20.1270 C   0  0  0  0  0  0  0  0  0  0  0  0
  -25.8990  -30.7720   21.4020 C   0  0  0  0  0  2  0  0  0  0  0  0
  -26.0380  -29.4130   20.7370 C   0  0  0  0  0  0  0  0  0  0  0  0
  -27.2600  -28.6920   20.7270 C   0  0  0  0  0  3  0  0  0  0  0  0
  -26.1900  -26.8930   19.4950 C   0  0  0  0  0  3  0  0  0  0  0  0
  -24.9770  -27.6110   19.5000 C   0  0  0  0  0  3  0  0  0  0  0  0
  -23.6250  -29.6790   20.1840 C   0  0  0  0  0  2  0  0  0  0  0  0
  -24.6190  -30.9680   22.1300 N   0  0  0  0  0  0  0  0  0  0  0  0
  -23.4310  -31.9760   23.7810 O   0  0  0  0  0  0  0  0  0  0  0  0
  -22.7640  -29.2720   22.5150 C   0  0  0  0  0  0  0  0  0  0  0  0
  -21.4450  -29.0490   22.3840 N   0  0  0  0  0  0  0  0  0  0  0  0
  -23.4670  -28.6580   23.3210 O   0  0  0  0  0  0  0  0  0  0  0  0
  -20.9370  -29.5970   21.7050 H   0  0  0  0  0  0  0  0  0  0  0  0
  -18.1130  -27.7450   22.8820 C   0  0  0  0  0  0  0  0  0  0  0  0
  -20.6640  -28.0720   23.1410 C   0  0  0  0  0  3  0  0  0  0  0  0
  -20.8030  -26.6570   22.5340 C   0  0  0  0  0  2  0  0  0  0  0  0
  -19.7030  -26.3230   21.5220 C   0  0  0  0  0  2  0  0  0  0  0  0
  -18.3220  -26.4160   22.1760 C   0  0  0  0  0  2  0  0  0  0  0  0
  -19.2110  -28.5300   23.3200 C   0  0  0  0  0  0  0  0  0  0  0  0
  -18.9610  -29.7720   23.9420 C   0  0  0  0  0  3  0  0  0  0  0  0
  -17.6440  -30.2310   24.1290 C   0  0  0  0  0  3  0  0  0  0  0  0
  -16.5600  -29.4440   23.7060 C   0  0  0  0  0  3  0  0  0  0  0  0
  -16.7950  -28.2020   23.0890 C   0  0  0  0  0  3  0  0  0  0  0  0
  -25.7830  -32.4220   23.8790 C   0  0  0  0  0  3  0  0  0  0  0  0
  -25.4260  -33.8090   24.2090 N   0  0  0  0  0  0  0  0  0  0  0  0
  -25.7330  -34.8740   23.4560 C   0  0  0  0  0  0  0  0  0  0  0  0
  -26.4160  -34.7950   22.4310 O   0  0  0  0  0  0  0  0  0  0  0  0
  -24.8160  -33.9420   25.0030 H   0  0  0  0  0  0  0  0  0  0  0  0
  -23.9480  -36.6090   23.0900 C   0  0  0  0  0  1  0  0  0  0  0  0
  -25.1950  -36.2450   23.9100 C   0  0  0  0  0  3  0  0  0  0  0  0
  -27.2910  -37.2010   24.7600 C   0  0  0  0  0  1  0  0  0  0  0  0
  -26.1940  -37.3320   23.8060 N   0  0  0  0  0  0  0  0  0  0  0  0
  -25.7570  -38.2380   23.9490 H   0  0  0  0  0  0  0  0  0  0  0  0
  -26.3140  -31.6660   25.1580 C   0  0  1  0  0  0  0  0  0  0  0  0
  -25.2190  -31.3850   26.2130 C   0  0  0  0  0  1  0  0  0  0  0  0
  -26.9500  -30.3120   24.7690 C   0  0  0  0  0  1  0  0  0  0  0  0
  -27.4290  -32.4980   25.8340 C   0  0  0  0  0  1  0  0  0  0  0  0
  2  7  1  0
  3  2  2  0
  4  7  1  0
  5  3  1  0
  5  4  2  0
  6  4  1  0
  6  1  1  0
  8  6  1  0
  9  3  1  0
  9 18  1  0
 10 18  1  0
 11 16  1  0
 12 13  1  0
 12 11  1  0
 14 13  1  0
 14 23  1  0
 14 15  1  0
 16 10  1  0
 16 15  1  0
 17 10  2  0
 18 19  1  0
 20 21  2  0
 21 40  1  0
 22 21  1  0
 22 25  1  0
 23 24  1  0
 23 20  1  0
 24 22  2  0
 25 26  1  0
 26 27  2  0
 28 31  1  0
 28 27  1  0
 29 28  2  0
 30 29  1  0
 30 25  2  0
 31 32  1  0
 32 33  1  0
 33 34  2  0
 35 34  1  0
 35 39  1  0
 36 35  2  0
 37 32  2  0
 37 36  1  0
 38 37  1  0
 40 41  1  0
 41 44  1  0
 41 43  1  0
 42 40  2  0
 45 20  1  0
 45 46  1  0
 47 45  1  0
 48 51  1  0
 48  1  1  0
 49 50  1  0
 49 48  1  0
 51 52  1  0
 53 64  2  0
 54 52  1  0
 54 59  1  0
 55 63  1  0
 55 65  1  0
 56 62  1  0
 56 58  1  0
 57 63  1  0
 58 57  1  0
 59 58  2  0
 60 61  1  0
 60 54  2  0
 61 56  2  0
 62 55  1  0
 63 53  1  0
 65 67  2  0
 66 65  1  0
 68 66  1  0
 69 78  2  0
 69 74  1  0
 70 66  1  0
 70 74  1  0
 71 70  1  0
 72 73  1  0
 72 71  1  0
 73 69  1  0
 74 75  2  0
 75 76  1  0
 77 76  2  0
 78 77  1  0
 79 53  1  0
 79 80  1  0
 79 89  1  0
 80 83  1  0
 81 85  1  0
 81 80  1  0
 82 81  2  0
 85 84  1  0
 87 85  1  0
 87 88  1  0
 87 86  1  0
 89 92  1  1
 89 90  1  0
 91 89  1  0
M  ISO  4  10 100  18 100  51 101  52 101
M  END
>  <TORSDO>  (82) 
F 21

>  <SCORE>  (82) 
-12.364

>  <name>  (82) 
81

>  <ligand_id>  (82) 
81

>  <original_smiles>  (82) 
[H]OC([H])(C([H])([H])Oc1c([H])c([H])c2c(c1[H])C([H])([H])N(C(=O)C([H])(N([H])C(=O)C([H])(N([H])C([H])([H])[H])C([H])([H])[H])C(C([H])([H])[H])(C([H])([H])[H])C([H])([H])[H])C([H])(C(=O)N([H])C1([H])c3c([H])c([H])c([H])c([H])c3C([H])([H])C([H])([H])C1([H])[H])C2([H])[H])C([H])([H])N([H])c1nc(C([H])([H])N([H])C(=O)N2C([H])([H])C([H])([H])C([H])([H])C([H])(n3nc(-c4c([H])c([H])c(Oc5c([H])c([H])c(F)c([H])c5F)c([H])c4[H])c(C(=O)N([H])[H])c3N([H])[H])C2([H])[H])c([H])s1

>  <smiles>  (82) 
[H]OC([H])(C([H])([H])Oc1c([H])c([H])c2c(c1[H])C([H])([H])N(C(=O)C([H])(N([H])C(=O)C([H])(N([H])C([H])([H])[H])C([H])([H])[H])C(C([H])([H])[H])(C([H])([H])[H])C([H])([H])[H])C([H])(C(=O)N([H])C1([H])c3c([H])c([H])c([H])c([H])c3C([H])([H])C([H])([H])C1([H])[H])C2([H])[H])C([H])([H])N([H])c1nc(C([H])([H])N([H])C(=O)N2C([H])([H])C([H])([H])C([H])([H])C([H])(n3nc(-c4c([H])c([H])c(Oc5c([H])c([H])c(F)c([H])c5F)c([H])c4[H])c(C(=O)N([H])[H])c3N([H])[H])C2([H])[H])c([H])s1

$$$$
82:0:0
     RDKit          3D

 96104  0  0  1  0  0  0  0  0999 V2000
  -29.5690  -21.1180   19.6940 C   0  0  0  0  0  2  0  0  0  0  0  0
  -29.1290  -17.7180   21.1730 C   0  0  0  0  0  3  0  0  0  0  0  0
  -29.7590  -19.6140   19.9860 C   0  0  0  0  0  0  0  0  0  0  0  0
  -30.0130  -16.8930   20.4250 C   0  0  0  0  0  0  0  0  0  0  0  0
  -30.6590  -18.8030   19.2390 C   0  0  0  0  0  0  0  0  0  0  0  0
  -28.9990  -19.0600   20.9680 N   0  0  0  0  0  0  0  0  0  0  0  0
  -30.7820  -17.4700   19.4590 N   0  0  0  0  0  0  0  0  0  0  0  0
  -31.4660  -19.2970   18.2200 N   0  0  0  0  0  0  0  0  0  0  0  0
  -32.1280  -18.6970   17.7430 H   0  0  0  0  0  0  0  0  0  0  0  0
  -31.5070  -20.2750   17.9590 H   0  0  0  0  0  0  0  0  0  0  0  0
  -30.6710  -14.4860   20.1000 C   0  0  0  0  0  0  0  0  0  0  0  0
  -30.3210  -12.3460   18.9210 C   0  0  0  0  0  2  0  0  0  0  0  0
  -29.3210  -12.5960   17.7740 C   0  0  0  0  0  2  0  0  0  0  0  0
  -27.8670  -12.4520   18.2700 C   0  0  0  0  0  2  0  0  0  0  0  0
  -27.6010  -13.2390   19.5810 C   0  0  0  0  0  3  0  0  0  0  0  0
  -28.7120  -12.9780   20.6250 C   0  0  0  0  0  2  0  0  0  0  0  0
  -30.0070  -13.2980   20.0010 N   0  0  0  0  0  0  0  0  0  0  0  0
  -31.7820  -14.6610   19.5890 O   0  0  0  0  0  0  0  0  0  0  0  0
  -29.9850  -15.4840   20.7020 N   0  0  0  0  0  0  0  0  0  0  0  0
  -29.1990  -15.1770   21.2540 H   0  0  0  0  0  0  0  0  0  0  0  0
  -25.2400  -13.8300   20.4150 C   0  0  0  0  0  0  0  0  0  0  0  0
  -24.1910  -13.0500   20.8250 C   0  0  0  0  0  0  0  0  0  0  0  0
  -24.6530  -11.7000   20.7540 C   0  0  0  0  0  0  0  0  0  0  0  0
  -26.2730  -12.9540   20.1190 N   0  0  0  0  0  0  0  0  0  0  0  0
  -25.9260  -11.6680   20.3820 N   0  0  0  0  0  0  0  0  0  0  0  0
  -23.9350  -10.4350   20.9620 C   0  0  0  0  0  0  0  0  0  0  0  0
  -24.3790   -9.4830   21.9080 C   0  0  0  0  0  3  0  0  0  0  0  0
  -23.6650   -8.2800   22.1020 C   0  0  0  0  0  3  0  0  0  0  0  0
  -22.4930   -8.0210   21.3510 C   0  0  0  0  0  0  0  0  0  0  0  0
  -22.0700   -8.9620   20.3950 C   0  0  0  0  0  3  0  0  0  0  0  0
  -22.7840  -10.1550   20.2000 C   0  0  0  0  0  3  0  0  0  0  0  0
  -21.7490   -6.8700   21.4550 O   0  0  0  0  0  0  0  0  0  0  0  0
  -21.6690   -6.1710   22.6320 C   0  0  0  0  0  0  0  0  0  0  0  0
  -21.1760   -6.7590   23.8170 C   0  0  0  0  0  3  0  0  0  0  0  0
  -21.0450   -5.9820   24.9860 C   0  0  0  0  0  3  0  0  0  0  0  0
  -21.3970   -4.6190   24.9700 C   0  0  0  0  0  0  0  0  0  0  0  0
  -21.8830   -4.0310   23.7880 C   0  0  0  0  0  3  0  0  0  0  0  0
  -22.0150   -4.8050   22.6230 C   0  0  0  0  0  0  0  0  0  0  0  0
  -22.4640   -4.2270   21.4820 F   0  0  0  0  0  0  0  0  0  0  0  0
  -21.2640   -3.8700   26.0900 F   0  0  0  0  0  0  0  0  0  0  0  0
  -22.8080  -13.5230   21.1700 C   0  0  0  0  0  0  0  0  0  0  0  0
  -22.1220  -12.8130   22.0590 N   0  0  0  0  0  0  0  0  0  0  0  0
  -22.3460  -14.5550   20.6860 O   0  0  0  0  0  0  0  0  0  0  0  0
  -22.5090  -11.9780   22.4740 H   0  0  0  0  0  0  0  0  0  0  0  0
  -21.1950  -13.1080   22.3290 H   0  0  0  0  0  0  0  0  0  0  0  0
  -25.3960  -15.2020   20.2470 N   0  0  0  0  0  0  0  0  0  0  0  0
  -24.6280  -15.8500   20.3850 H   0  0  0  0  0  0  0  0  0  0  0  0
  -26.2120  -15.6370   19.8350 H   0  0  0  0  0  0  0  0  0  0  0  0
  -28.8510  -21.8490   20.7690 N   0  0  0  0  0  4  0  0  0  0  0  0
  -28.7230  -21.1490   21.4850 H   0  0  0  0  0  0  0  0  0  0  0  0
  -27.9260  -22.0680   20.4380 H   0  0  0  0  0  0  0  0  0  0  0  0
  -30.9030  -22.7510   21.9240 C   0  0  0  0  0  1  0  0  0  0  0  0
  -29.4870  -23.0580   21.3870 C   0  0  0  0  0  3  0  0  0  0  0  0
  -29.4700  -24.3710   20.5260 C   0  0  0  0  0  2  0  0  0  0  0  0
  -28.1710  -25.2210   20.6090 C   0  0  0  0  0  2  0  0  0  0  0  0
  -28.3500  -26.5960   20.1930 O   0  0  0  0  0  0  0  0  0  0  0  0
  -24.5770  -31.8650   23.2120 C   0  0  0  0  0  0  0  0  0  0  0  0
  -27.1980  -27.3640   20.1780 C   0  0  0  0  0  0  0  0  0  0  0  0
  -23.3640  -30.4490   21.5880 C   0  0  0  0  0  3  0  0  0  0  0  0
  -24.8130  -28.8970   20.1720 C   0  0  0  0  0  0  0  0  0  0  0  0
  -25.8940  -30.7960   21.3830 C   0  0  0  0  0  2  0  0  0  0  0  0
  -25.9770  -29.4180   20.7550 C   0  0  0  0  0  0  0  0  0  0  0  0
  -27.1750  -28.6610   20.7500 C   0  0  0  0  0  3  0  0  0  0  0  0
  -26.0170  -26.8720   19.5800 C   0  0  0  0  0  3  0  0  0  0  0  0
  -24.8310  -27.6250   19.5780 C   0  0  0  0  0  3  0  0  0  0  0  0
  -23.5710  -29.7590   20.2130 C   0  0  0  0  0  2  0  0  0  0  0  0
  -24.6300  -31.0530   22.1180 N   0  0  0  0  0  0  0  0  0  0  0  0
  -23.4970  -32.1430   23.7530 O   0  0  0  0  0  0  0  0  0  0  0  0
  -22.7150  -29.4380   22.5600 C   0  0  0  0  0  0  0  0  0  0  0  0
  -21.3880  -29.2580   22.4400 N   0  0  0  0  0  0  0  0  0  0  0  0
  -23.4000  -28.8180   23.3760 O   0  0  0  0  0  0  0  0  0  0  0  0
  -20.8960  -29.8120   21.7530 H   0  0  0  0  0  0  0  0  0  0  0  0
  -18.0110  -28.0910   22.9760 C   0  0  0  0  0  0  0  0  0  0  0  0
  -20.5730  -28.3310   23.2230 C   0  0  0  0  0  3  0  0  0  0  0  0
  -20.6610  -26.8970   22.6540 C   0  0  0  0  0  2  0  0  0  0  0  0
  -19.5470  -26.5760   21.6520 C   0  0  0  0  0  2  0  0  0  0  0  0
  -18.1720  -26.7370   22.3070 C   0  0  0  0  0  2  0  0  0  0  0  0
  -19.1390  -28.8470   23.3930 C   0  0  0  0  0  0  0  0  0  0  0  0
  -18.9350  -30.1150   23.9780 C   0  0  0  0  0  3  0  0  0  0  0  0
  -17.6350  -30.6280   24.1510 C   0  0  0  0  0  3  0  0  0  0  0  0
  -16.5220  -29.8690   23.7520 C   0  0  0  0  0  3  0  0  0  0  0  0
  -16.7100  -28.6030   23.1700 C   0  0  0  0  0  3  0  0  0  0  0  0
  -25.8650  -32.5010   23.8200 C   0  0  0  0  0  3  0  0  0  0  0  0
  -25.5540  -33.8990   24.1490 N   0  0  0  0  0  0  0  0  0  0  0  0
  -25.8760  -34.9510   23.3830 C   0  0  0  0  0  0  0  0  0  0  0  0
  -26.5390  -34.8460   22.3480 O   0  0  0  0  0  0  0  0  0  0  0  0
  -24.9690  -34.0540   24.9560 H   0  0  0  0  0  0  0  0  0  0  0  0
  -24.1450  -36.7390   23.0270 C   0  0  0  0  0  1  0  0  0  0  0  0
  -25.3870  -36.3380   23.8390 C   0  0  0  0  0  3  0  0  0  0  0  0
  -27.5170  -37.2290   24.6740 C   0  0  0  0  0  1  0  0  0  0  0  0
  -26.4180  -37.3930   23.7260 N   0  0  0  0  0  0  0  0  0  0  0  0
  -26.0090  -38.3120   23.8710 H   0  0  0  0  0  0  0  0  0  0  0  0
  -26.3960  -31.7350   25.0930 C   0  0  1  0  0  0  0  0  0  0  0  0
  -25.3150  -31.4940   26.1710 C   0  0  0  0  0  1  0  0  0  0  0  0
  -26.9830  -30.3600   24.6970 C   0  0  0  0  0  1  0  0  0  0  0  0
  -27.5480  -32.5360   25.7460 C   0  0  0  0  0  1  0  0  0  0  0  0
  1  3  1  0
  1 49  1  0
  3  6  2  0
  4 19  1  0
  4  2  2  0
  5  7  2  0
  5  3  1  0
  6  2  1  0
  7  4  1  0
  8  5  1  0
  9  8  1  0
 10  8  1  0
 11 19  1  0
 12 17  1  0
 13 14  1  0
 13 12  1  0
 15 14  1  0
 15 24  1  0
 15 16  1  0
 17 11  1  0
 17 16  1  0
 18 11  2  0
 19 20  1  0
 21 22  2  0
 22 41  1  0
 23 22  1  0
 23 26  1  0
 24 25  1  0
 24 21  1  0
 25 23  2  0
 26 27  1  0
 27 28  2  0
 29 32  1  0
 29 28  1  0
 30 29  2  0
 31 30  1  0
 31 26  2  0
 32 33  1  0
 33 34  1  0
 34 35  2  0
 36 35  1  0
 36 40  1  0
 37 36  2  0
 38 33  2  0
 38 37  1  0
 39 38  1  0
 41 42  1  0
 42 45  1  0
 42 44  1  0
 43 41  2  0
 46 47  1  0
 46 21  1  0
 48 46  1  0
 49 53  1  0
 49 50  1  0
 51 49  1  0
 53 52  1  0
 54 55  1  0
 54 53  1  0
 56 55  1  0
 57 68  2  0
 58 56  1  0
 58 63  1  0
 59 67  1  0
 59 69  1  0
 60 66  1  0
 60 62  1  0
 61 67  1  0
 62 61  1  0
 63 62  2  0
 64 58  2  0
 65 64  1  0
 65 60  2  0
 66 59  1  0
 67 57  1  0
 69 71  2  0
 70 69  1  0
 72 70  1  0
 73 82  2  0
 73 78  1  0
 74 70  1  0
 74 78  1  0
 75 74  1  0
 76 77  1  0
 76 75  1  0
 77 73  1  0
 78 79  2  0
 79 80  1  0
 81 80  2  0
 82 81  1  0
 83 57  1  0
 83 84  1  0
 83 93  1  0
 84 87  1  0
 85 89  1  0
 85 84  1  0
 86 85  2  0
 89 88  1  0
 91 89  1  0
 91 92  1  0
 91 90  1  0
 93 96  1  1
 93 94  1  0
 95 93  1  0
M  ISO  4  11 100  19 100  55 101  56 101
M  END
>  <TORSDO>  (83) 
F 21

>  <SCORE>  (83) 
-13.095

>  <name>  (83) 
82

>  <ligand_id>  (83) 
82

>  <original_smiles>  (83) 
[H]c1nc(C([H])([H])[N+]([H])([H])C([H])(C([H])([H])[H])C([H])([H])C([H])([H])Oc2c([H])c([H])c3c(c2[H])C([H])([H])N(C(=O)C([H])(N([H])C(=O)C([H])(N([H])C([H])([H])[H])C([H])([H])[H])C(C([H])([H])[H])(C([H])([H])[H])C([H])([H])[H])C([H])(C(=O)N([H])C2([H])c4c([H])c([H])c([H])c([H])c4C([H])([H])C([H])([H])C2([H])[H])C3([H])[H])c(N([H])[H])nc1N([H])C(=O)N1C([H])([H])C([H])([H])C([H])([H])C([H])(n2nc(-c3c([H])c([H])c(Oc4c([H])c([H])c(F)c([H])c4F)c([H])c3[H])c(C(=O)N([H])[H])c2N([H])[H])C1([H])[H]

>  <smiles>  (83) 
[H]c1nc(C([H])([H])[N+]([H])([H])C([H])(C([H])([H])[H])C([H])([H])C([H])([H])Oc2c([H])c([H])c3c(c2[H])C([H])([H])N(C(=O)C([H])(N([H])C(=O)C([H])(N([H])C([H])([H])[H])C([H])([H])[H])C(C([H])([H])[H])(C([H])([H])[H])C([H])([H])[H])C([H])(C(=O)N([H])C2([H])c4c([H])c([H])c([H])c([H])c4C([H])([H])C([H])([H])C2([H])[H])C3([H])[H])c(N([H])[H])nc1N([H])C(=O)N1C([H])([H])C([H])([H])C([H])([H])C([H])(n2nc(-c3c([H])c([H])c(Oc4c([H])c([H])c(F)c([H])c4F)c([H])c3[H])c(C(=O)N([H])[H])c2N([H])[H])C1([H])[H]

$$$$
83:0:0
     RDKit          3D

 91 99  0  0  1  0  0  0  0  0999 V2000
  -29.8940  -23.9200   21.0260 C   0  0  0  0  0  3  0  0  0  0  0  0
  -30.5150  -22.9880   21.6380 N   0  0  0  0  0  0  0  0  0  0  0  0
  -30.0250  -19.7550   20.0850 C   0  0  0  0  0  3  0  0  0  0  0  0
  -30.5840  -19.1990   21.2090 C   0  0  0  0  0  0  0  0  0  0  0  0
  -30.4030  -21.6880   21.2590 C   0  0  0  0  0  0  0  0  0  0  0  0
  -29.9260  -21.1510   20.1290 N   0  0  0  0  0  0  0  0  0  0  0  0
  -31.0090  -20.4430   22.3580 S   0  0  0  0  0  0  0  0  0  0  0  0
  -30.8140  -17.7440   21.5160 C   0  0  0  0  0  2  0  0  0  0  0  0
  -29.9700  -16.8090   20.6340 C   0  0  0  0  0  2  0  0  0  0  0  0
  -30.7150  -14.4530   20.3850 C   0  0  0  0  0  0  0  0  0  0  0  0
  -30.4120  -12.3370   19.1700 C   0  0  0  0  0  2  0  0  0  0  0  0
  -29.4540  -12.5990   17.9870 C   0  0  0  0  0  2  0  0  0  0  0  0
  -27.9790  -12.4710   18.4240 C   0  0  0  0  0  2  0  0  0  0  0  0
  -27.6700  -13.2650   19.7210 C   0  0  0  0  0  3  0  0  0  0  0  0
  -28.7280  -12.9640   20.8070 C   0  0  0  0  0  2  0  0  0  0  0  0
  -30.0610  -13.2710   20.2500 N   0  0  0  0  0  0  0  0  0  0  0  0
  -31.7880  -14.7090   19.8300 O   0  0  0  0  0  0  0  0  0  0  0  0
  -30.0050  -15.3980   21.0200 N   0  0  0  0  0  0  0  0  0  0  0  0
  -29.1920  -15.0610   21.5150 H   0  0  0  0  0  0  0  0  0  0  0  0
  -25.2720  -13.8860   20.4370 C   0  0  0  0  0  0  0  0  0  0  0  0
  -24.2030  -13.1180   20.8170 C   0  0  0  0  0  0  0  0  0  0  0  0
  -24.6610  -11.7640   20.7860 C   0  0  0  0  0  0  0  0  0  0  0  0
  -26.3140  -13.0010   20.2030 N   0  0  0  0  0  0  0  0  0  0  0  0
  -25.9470  -11.7200   20.4660 N   0  0  0  0  0  0  0  0  0  0  0  0
  -23.9320  -10.5040   20.9900 C   0  0  0  0  0  0  0  0  0  0  0  0
  -24.3720   -9.5400   21.9230 C   0  0  0  0  0  3  0  0  0  0  0  0
  -23.6450   -8.3460   22.1160 C   0  0  0  0  0  3  0  0  0  0  0  0
  -22.4650   -8.1070   21.3720 C   0  0  0  0  0  0  0  0  0  0  0  0
  -22.0430   -9.0600   20.4280 C   0  0  0  0  0  3  0  0  0  0  0  0
  -22.7710  -10.2440   20.2340 C   0  0  0  0  0  3  0  0  0  0  0  0
  -21.7120   -6.9620   21.4690 O   0  0  0  0  0  0  0  0  0  0  0  0
  -21.6700   -6.2240   22.6250 C   0  0  0  0  0  0  0  0  0  0  0  0
  -21.2490   -6.7810   23.8510 C   0  0  0  0  0  3  0  0  0  0  0  0
  -21.1540   -5.9710   24.9980 C   0  0  0  0  0  3  0  0  0  0  0  0
  -21.4730   -4.6020   24.9230 C   0  0  0  0  0  0  0  0  0  0  0  0
  -21.8880   -4.0420   23.7010 C   0  0  0  0  0  3  0  0  0  0  0  0
  -21.9820   -4.8520   22.5550 C   0  0  0  0  0  0  0  0  0  0  0  0
  -22.3630   -4.3050   21.3750 F   0  0  0  0  0  0  0  0  0  0  0  0
  -21.3750   -3.8190   26.0220 F   0  0  0  0  0  0  0  0  0  0  0  0
  -22.8090  -13.6000   21.1000 C   0  0  0  0  0  0  0  0  0  0  0  0
  -22.0870  -12.9090   21.9770 N   0  0  0  0  0  0  0  0  0  0  0  0
  -22.3670  -14.6230   20.5800 O   0  0  0  0  0  0  0  0  0  0  0  0
  -22.4560  -12.0830   22.4220 H   0  0  0  0  0  0  0  0  0  0  0  0
  -21.1510  -13.2140   22.2070 H   0  0  0  0  0  0  0  0  0  0  0  0
  -25.4370  -15.2550   20.2500 N   0  0  0  0  0  0  0  0  0  0  0  0
  -24.6730  -15.9120   20.3660 H   0  0  0  0  0  0  0  0  0  0  0  0
  -26.2850  -15.6870   19.9070 H   0  0  0  0  0  0  0  0  0  0  0  0
  -31.2120  -26.0230   20.5370 C   0  0  0  0  0  1  0  0  0  0  0  0
  -30.0990  -25.3870   21.3920 C   0  0  0  0  0  3  0  0  0  0  0  0
  -28.8000  -26.2280   21.4170 C   0  0  0  0  0  2  0  0  0  0  0  0
  -28.4100  -26.7040   20.1270 O   0  0  0  0  0  0  0  0  0  0  0  0
  -24.5920  -31.8700   23.2330 C   0  0  0  0  0  0  0  0  0  0  0  0
  -27.2610  -27.4620   20.1470 C   0  0  0  0  0  0  0  0  0  0  0  0
  -23.3910  -30.4690   21.5840 C   0  0  0  0  0  3  0  0  0  0  0  0
  -24.8560  -28.9390   20.1570 C   0  0  0  0  0  0  0  0  0  0  0  0
  -25.9120  -30.8430   21.3890 C   0  0  0  0  0  2  0  0  0  0  0  0
  -26.0040  -29.4710   20.7540 C   0  0  0  0  0  0  0  0  0  0  0  0
  -27.2100  -28.7350   20.7580 C   0  0  0  0  0  3  0  0  0  0  0  0
  -26.1060  -26.9450   19.5310 C   0  0  0  0  0  3  0  0  0  0  0  0
  -24.8990  -27.6730   19.5440 C   0  0  0  0  0  3  0  0  0  0  0  0
  -23.6020  -29.7860   20.2040 C   0  0  0  0  0  2  0  0  0  0  0  0
  -24.6490  -31.0760   22.1270 N   0  0  0  0  0  0  0  0  0  0  0  0
  -23.5100  -32.1360   23.7750 O   0  0  0  0  0  0  0  0  0  0  0  0
  -22.7440  -29.4440   22.5410 C   0  0  0  0  0  0  0  0  0  0  0  0
  -21.4200  -29.2610   22.4150 N   0  0  0  0  0  0  0  0  0  0  0  0
  -23.4300  -28.8160   23.3520 O   0  0  0  0  0  0  0  0  0  0  0  0
  -20.9270  -29.8200   21.7330 H   0  0  0  0  0  0  0  0  0  0  0  0
  -18.0470  -28.0730   22.9210 C   0  0  0  0  0  0  0  0  0  0  0  0
  -20.6070  -28.3190   23.1820 C   0  0  0  0  0  3  0  0  0  0  0  0
  -20.7010  -26.8940   22.5920 C   0  0  0  0  0  2  0  0  0  0  0  0
  -19.5920  -26.5840   21.5800 C   0  0  0  0  0  2  0  0  0  0  0  0
  -18.2140  -26.7290   22.2330 C   0  0  0  0  0  2  0  0  0  0  0  0
  -19.1710  -28.8260   23.3530 C   0  0  0  0  0  0  0  0  0  0  0  0
  -18.9600  -30.0860   23.9550 C   0  0  0  0  0  3  0  0  0  0  0  0
  -17.6580  -30.5920   24.1310 C   0  0  0  0  0  3  0  0  0  0  0  0
  -16.5490  -29.8350   23.7150 C   0  0  0  0  0  3  0  0  0  0  0  0
  -16.7440  -28.5770   23.1170 C   0  0  0  0  0  3  0  0  0  0  0  0
  -25.8770  -32.5020   23.8560 C   0  0  0  0  0  3  0  0  0  0  0  0
  -25.5660  -33.9000   24.1840 N   0  0  0  0  0  0  0  0  0  0  0  0
  -25.9010  -34.9520   23.4260 C   0  0  0  0  0  0  0  0  0  0  0  0
  -26.5770  -34.8490   22.3980 O   0  0  0  0  0  0  0  0  0  0  0  0
  -24.9670  -34.0550   24.9810 H   0  0  0  0  0  0  0  0  0  0  0  0
  -24.1770  -36.7460   23.0580 C   0  0  0  0  0  1  0  0  0  0  0  0
  -25.4110  -36.3400   23.8800 C   0  0  0  0  0  3  0  0  0  0  0  0
  -27.5390  -37.2260   24.7280 C   0  0  0  0  0  1  0  0  0  0  0  0
  -26.4450  -37.3930   23.7750 N   0  0  0  0  0  0  0  0  0  0  0  0
  -26.0370  -38.3130   23.9170 H   0  0  0  0  0  0  0  0  0  0  0  0
  -26.3940  -31.7310   25.1320 C   0  0  1  0  0  0  0  0  0  0  0  0
  -25.3030  -31.4910   26.1990 C   0  0  0  0  0  1  0  0  0  0  0  0
  -26.9800  -30.3540   24.7360 C   0  0  0  0  0  1  0  0  0  0  0  0
  -27.5410  -32.5290   25.7960 C   0  0  0  0  0  1  0  0  0  0  0  0
  1 49  1  0
  1  2  2  0
  3  6  1  0
  3  4  2  0
  4  8  1  0
  4  7  1  0
  5  2  1  0
  5  7  1  0
  6  5  2  0
  9 18  1  0
  9  8  1  0
 10 18  1  0
 11 16  1  0
 12 13  1  0
 12 11  1  0
 14 13  1  0
 14 23  1  0
 14 15  1  0
 16 10  1  0
 16 15  1  0
 17 10  2  0
 18 19  1  0
 20 21  2  0
 21 40  1  0
 22 21  1  0
 22 25  1  0
 23 20  1  0
 23 24  1  0
 24 22  2  0
 25 26  1  0
 26 27  2  0
 28 31  1  0
 28 27  1  0
 29 28  2  0
 30 29  1  0
 30 25  2  0
 31 32  1  0
 32 33  1  0
 33 34  2  0
 35 34  1  0
 35 39  1  0
 36 35  2  0
 37 32  2  0
 37 36  1  0
 38 37  1  0
 40 41  1  0
 41 44  1  0
 41 43  1  0
 42 40  2  0
 45 46  1  0
 45 20  1  0
 47 45  1  0
 49 48  1  0
 49 50  1  0
 51 53  1  0
 51 50  1  0
 52 63  2  0
 53 58  1  0
 54 62  1  0
 54 64  1  0
 55 61  1  0
 55 57  1  0
 56 62  1  0
 57 58  2  0
 57 56  1  0
 59 60  1  0
 59 53  2  0
 60 55  2  0
 61 54  1  0
 62 52  1  0
 64 66  2  0
 65 64  1  0
 67 65  1  0
 68 77  2  0
 68 73  1  0
 69 65  1  0
 69 73  1  0
 70 69  1  0
 71 72  1  0
 71 70  1  0
 72 68  1  0
 73 74  2  0
 74 75  1  0
 76 75  2  0
 77 76  1  0
 78 52  1  0
 78 79  1  0
 78 88  1  0
 79 82  1  0
 80 84  1  0
 80 79  1  0
 81 80  2  0
 84 83  1  0
 86 84  1  0
 86 87  1  0
 86 85  1  0
 88 91  1  1
 88 89  1  0
 90 88  1  0
M  ISO  4  10 100  18 100  50 101  51 101
M  END
>  <TORSDO>  (84) 
F 21

>  <SCORE>  (84) 
-13.721

>  <name>  (84) 
83

>  <ligand_id>  (84) 
83

>  <original_smiles>  (84) 
[H]C(=Nc1nc([H])c(C([H])([H])C([H])([H])N([H])C(=O)N2C([H])([H])C([H])([H])C([H])([H])C([H])(n3nc(-c4c([H])c([H])c(Oc5c([H])c([H])c(F)c([H])c5F)c([H])c4[H])c(C(=O)N([H])[H])c3N([H])[H])C2([H])[H])s1)C([H])(C([H])([H])[H])C([H])([H])Oc1c([H])c([H])c2c(c1[H])C([H])([H])N(C(=O)C([H])(N([H])C(=O)C([H])(N([H])C([H])([H])[H])C([H])([H])[H])C(C([H])([H])[H])(C([H])([H])[H])C([H])([H])[H])C([H])(C(=O)N([H])C1([H])c3c([H])c([H])c([H])c([H])c3C([H])([H])C([H])([H])C1([H])[H])C2([H])[H]

>  <smiles>  (84) 
[H]C(=Nc1nc([H])c(C([H])([H])C([H])([H])N([H])C(=O)N2C([H])([H])C([H])([H])C([H])([H])C([H])(n3nc(-c4c([H])c([H])c(Oc5c([H])c([H])c(F)c([H])c5F)c([H])c4[H])c(C(=O)N([H])[H])c3N([H])[H])C2([H])[H])s1)C([H])(C([H])([H])[H])C([H])([H])Oc1c([H])c([H])c2c(c1[H])C([H])([H])N(C(=O)C([H])(N([H])C(=O)C([H])(N([H])C([H])([H])[H])C([H])([H])[H])C(C([H])([H])[H])(C([H])([H])[H])C([H])([H])[H])C([H])(C(=O)N([H])C1([H])c3c([H])c([H])c([H])c([H])c3C([H])([H])C([H])([H])C1([H])[H])C2([H])[H]

$$$$
84:0:0
     RDKit          3D

 96104  0  0  1  0  0  0  0  0999 V2000
  -29.6640  -21.3100   20.6890 C   0  0  0  0  0  2  0  0  0  0  0  0
  -30.3240  -20.0910   19.9110 C   0  0  0  0  0  2  0  0  0  0  0  0
  -31.5730  -14.5130   19.3990 C   0  0  0  0  0  0  0  0  0  0  0  0
  -31.0420  -12.4280   18.1340 C   0  0  0  0  0  2  0  0  0  0  0  0
  -29.7990  -12.6570   17.2420 C   0  0  0  0  0  2  0  0  0  0  0  0
  -28.4850  -12.4880   18.0360 C   0  0  0  0  0  2  0  0  0  0  0  0
  -28.5060  -13.2470   19.3890 C   0  0  0  0  0  3  0  0  0  0  0  0
  -29.7960  -12.8960   20.1570 C   0  0  0  0  0  2  0  0  0  0  0  0
  -30.9390  -13.3040   19.3170 N   0  0  0  0  0  0  0  0  0  0  0  0
  -32.4490  -14.8520   18.5880 O   0  0  0  0  0  0  0  0  0  0  0  0
  -30.2980  -17.0060   21.9520 C   0  0  0  0  0  3  0  0  0  0  0  0
  -30.8910  -16.6420   20.7100 C   0  0  0  0  0  0  0  0  0  0  0  0
  -30.0440  -18.3490   21.8510 C   0  0  0  0  0  0  0  0  0  0  0  0
  -31.0000  -17.7020   19.9000 N   0  0  0  0  0  0  0  0  0  0  0  0
  -30.4770  -18.7740   20.5970 N   0  0  0  0  0  0  0  0  0  0  0  0
  -31.1830  -15.2490   20.4740 N   0  0  0  0  0  0  0  0  0  0  0  0
  -30.7200  -14.6550   21.1460 H   0  0  0  0  0  0  0  0  0  0  0  0
  -26.6530  -13.7890   21.0940 C   0  0  0  0  0  0  0  0  0  0  0  0
  -25.5590  -13.0800   21.5080 C   0  0  0  0  0  0  0  0  0  0  0  0
  -25.6020  -11.8380   20.7990 C   0  0  0  0  0  0  0  0  0  0  0  0
  -27.3090  -12.9760   20.1810 N   0  0  0  0  0  0  0  0  0  0  0  0
  -26.6910  -11.7760   20.0450 N   0  0  0  0  0  0  0  0  0  0  0  0
  -24.6390  -10.7320   20.7470 C   0  0  0  0  0  0  0  0  0  0  0  0
  -24.9480   -9.4600   21.2780 C   0  0  0  0  0  3  0  0  0  0  0  0
  -24.0000   -8.4160   21.2290 C   0  0  0  0  0  3  0  0  0  0  0  0
  -22.7290   -8.6360   20.6490 C   0  0  0  0  0  0  0  0  0  0  0  0
  -22.4350   -9.8960   20.1010 C   0  0  0  0  0  3  0  0  0  0  0  0
  -23.3800  -10.9340   20.1460 C   0  0  0  0  0  3  0  0  0  0  0  0
  -21.7580   -7.6710   20.5350 O   0  0  0  0  0  0  0  0  0  0  0  0
  -21.5290   -6.7570   21.5330 C   0  0  0  0  0  0  0  0  0  0  0  0
  -21.1960   -7.1540   22.8450 C   0  0  0  0  0  3  0  0  0  0  0  0
  -20.9030   -6.1810   23.8220 C   0  0  0  0  0  3  0  0  0  0  0  0
  -20.9300   -4.8140   23.4870 C   0  0  0  0  0  0  0  0  0  0  0  0
  -21.2560   -4.4170   22.1780 C   0  0  0  0  0  3  0  0  0  0  0  0
  -21.5500   -5.3860   21.2030 C   0  0  0  0  0  0  0  0  0  0  0  0
  -21.8430   -4.9980   19.9380 F   0  0  0  0  0  0  0  0  0  0  0  0
  -20.6400   -3.8800   24.4220 F   0  0  0  0  0  0  0  0  0  0  0  0
  -24.4780  -13.5560   22.4360 C   0  0  0  0  0  0  0  0  0  0  0  0
  -23.8620  -12.6460   23.1810 N   0  0  0  0  0  0  0  0  0  0  0  0
  -24.2060  -14.7520   22.5390 O   0  0  0  0  0  0  0  0  0  0  0  0
  -24.0960  -11.6660   23.1130 H   0  0  0  0  0  0  0  0  0  0  0  0
  -23.1450  -12.9300   23.8340 H   0  0  0  0  0  0  0  0  0  0  0  0
  -27.1430  -15.0550   21.4030 N   0  0  0  0  0  0  0  0  0  0  0  0
  -26.6730  -15.6810   22.0460 H   0  0  0  0  0  0  0  0  0  0  0  0
  -27.9590  -15.4640   20.9650 H   0  0  0  0  0  0  0  0  0  0  0  0
  -29.8440  -19.2300   24.1470 C   0  0  0  0  0  1  0  0  0  0  0  0
  -29.4390  -19.2260   22.7480 N   0  0  0  0  0  0  0  0  0  0  0  0
  -29.0890  -20.1020   22.3740 H   0  0  0  0  0  0  0  0  0  0  0  0
  -30.0320  -22.7940   20.2440 C   0  0  0  0  0  3  0  0  0  0  0  0
  -31.7950  -24.6660   20.2670 C   0  0  0  0  0  1  0  0  0  0  0  0
  -31.3950  -23.4310   22.3850 C   0  0  0  0  0  1  0  0  0  0  0  0
  -32.5800  -22.3480   20.4950 C   0  0  0  0  0  1  0  0  0  0  0  0
  -31.4130  -23.2930   20.8460 C   0  0  1  0  0  0  0  0  0  0  0  0
  -28.8630  -23.8590   20.4650 C   0  0  0  0  0  2  0  0  0  0  0  0
  -28.7110  -25.0160   19.4010 C   0  0  0  0  0  2  0  0  0  0  0  0
  -28.6190  -26.3820   19.9060 O   0  0  0  0  0  0  0  0  0  0  0  0
  -24.8370  -31.5750   23.0450 C   0  0  0  0  0  0  0  0  0  0  0  0
  -27.4440  -27.1330   19.8670 C   0  0  0  0  0  0  0  0  0  0  0  0
  -23.6230  -30.2080   21.3830 C   0  0  0  0  0  3  0  0  0  0  0  0
  -25.0660  -28.7020   19.9120 C   0  0  0  0  0  0  0  0  0  0  0  0
  -26.1550  -30.5550   21.1810 C   0  0  0  0  0  2  0  0  0  0  0  0
  -26.2320  -29.1940   20.5100 C   0  0  0  0  0  0  0  0  0  0  0  0
  -27.4180  -28.4140   20.4820 C   0  0  0  0  0  3  0  0  0  0  0  0
  -26.2530  -26.6810   19.2490 C   0  0  0  0  0  3  0  0  0  0  0  0
  -25.0760  -27.4520   19.2750 C   0  0  0  0  0  3  0  0  0  0  0  0
  -23.8280  -29.5680   19.9850 C   0  0  0  0  0  2  0  0  0  0  0  0
  -24.8910  -30.7930   21.9300 N   0  0  0  0  0  0  0  0  0  0  0  0
  -23.7570  -31.8330   23.5960 O   0  0  0  0  0  0  0  0  0  0  0  0
  -22.9800  -29.1610   22.3240 C   0  0  0  0  0  0  0  0  0  0  0  0
  -21.6580  -28.9620   22.1930 N   0  0  0  0  0  0  0  0  0  0  0  0
  -23.6680  -28.5330   23.1330 O   0  0  0  0  0  0  0  0  0  0  0  0
  -21.1600  -29.5300   21.5200 H   0  0  0  0  0  0  0  0  0  0  0  0
  -18.3040  -27.6920   22.6360 C   0  0  0  0  0  0  0  0  0  0  0  0
  -20.8510  -28.0020   22.9480 C   0  0  0  0  0  3  0  0  0  0  0  0
  -20.9920  -26.5760   22.3660 C   0  0  0  0  0  2  0  0  0  0  0  0
  -19.9130  -26.2370   21.3340 C   0  0  0  0  0  2  0  0  0  0  0  0
  -18.5180  -26.3520   21.9550 C   0  0  0  0  0  2  0  0  0  0  0  0
  -19.4000  -28.4750   23.0870 C   0  0  0  0  0  0  0  0  0  0  0  0
  -19.1450  -29.7310   23.6800 C   0  0  0  0  0  3  0  0  0  0  0  0
  -17.8280  -30.2040   23.8270 C   0  0  0  0  0  3  0  0  0  0  0  0
  -16.7460  -29.4180   23.3930 C   0  0  0  0  0  3  0  0  0  0  0  0
  -16.9840  -28.1640   22.8040 C   0  0  0  0  0  3  0  0  0  0  0  0
  -26.1240  -32.2030   23.6670 C   0  0  0  0  0  3  0  0  0  0  0  0
  -25.7870  -33.5620   24.1110 N   0  0  0  0  0  0  0  0  0  0  0  0
  -26.0720  -34.6780   23.4250 C   0  0  0  0  0  0  0  0  0  0  0  0
  -26.7160  -34.6710   22.3730 O   0  0  0  0  0  0  0  0  0  0  0  0
  -25.2180  -33.6460   24.9390 H   0  0  0  0  0  0  0  0  0  0  0  0
  -24.2790  -36.4310   23.2600 C   0  0  0  0  0  1  0  0  0  0  0  0
  -25.5580  -36.0100   24.0010 C   0  0  0  0  0  3  0  0  0  0  0  0
  -27.6950  -36.8980   24.8210 C   0  0  0  0  0  1  0  0  0  0  0  0
  -26.5540  -37.1010   23.9330 N   0  0  0  0  0  0  0  0  0  0  0  0
  -26.1250  -37.9930   24.1710 H   0  0  0  0  0  0  0  0  0  0  0  0
  -26.7090  -31.3550   24.8610 C   0  0  1  0  0  0  0  0  0  0  0  0
  -25.6550  -30.9700   25.9240 C   0  0  0  0  0  1  0  0  0  0  0  0
  -27.3520  -30.0510   24.3380 C   0  0  0  0  0  1  0  0  0  0  0  0
  -27.8320  -32.1520   25.5690 C   0  0  0  0  0  1  0  0  0  0  0  0
  2 15  1  0
  2  1  1  0
  3 16  1  0
  4  9  1  0
  5  6  1  0
  5  4  1  0
  7  6  1  0
  7  8  1  0
  7 21  1  0
  9  3  1  0
  9  8  1  0
 10  3  2  0
 12 11  1  0
 13 11  2  0
 13 47  1  0
 14 15  1  0
 14 12  2  0
 15 13  1  0
 16 12  1  0
 16 17  1  0
 18 43  1  0
 18 19  2  0
 19 38  1  0
 20 19  1  0
 21 18  1  0
 22 21  1  0
 22 20  2  0
 23 20  1  0
 23 24  1  0
 25 24  2  0
 26 25  1  0
 27 28  1  0
 27 26  2  0
 28 23  2  0
 29 26  1  0
 29 30  1  0
 30 31  1  0
 31 32  2  0
 33 32  1  0
 33 37  1  0
 34 33  2  0
 35 30  2  0
 35 34  1  0
 36 35  1  0
 38 40  2  0
 38 39  1  0
 39 42  1  0
 41 39  1  0
 43 44  1  0
 45 43  1  0
 47 46  1  0
 48 47  1  0
 49 54  1  0
 49  1  1  0
 49 53  1  0
 53 50  1  6
 52 53  1  0
 53 51  1  0
 55 56  1  0
 55 54  1  0
 57 68  2  0
 58 56  1  0
 58 63  1  0
 59 67  1  0
 59 69  1  0
 60 66  1  0
 60 62  1  0
 61 67  1  0
 62 61  1  0
 63 62  2  0
 64 65  1  0
 64 58  2  0
 65 60  2  0
 66 59  1  0
 67 57  1  0
 69 71  2  0
 70 69  1  0
 72 70  1  0
 73 82  2  0
 73 78  1  0
 74 70  1  0
 74 78  1  0
 75 74  1  0
 76 77  1  0
 76 75  1  0
 77 73  1  0
 78 79  2  0
 79 80  1  0
 81 80  2  0
 82 81  1  0
 83 57  1  0
 83 84  1  0
 83 93  1  0
 84 87  1  0
 85 89  1  0
 85 84  1  0
 86 85  2  0
 89 88  1  0
 91 89  1  0
 91 92  1  0
 91 90  1  0
 93 96  1  1
 93 94  1  0
 95 93  1  0
M  ISO  4   3 100  16 100  55 101  56 101
M  END
>  <TORSDO>  (85) 
F 22

>  <SCORE>  (85) 
-2.313

>  <name>  (85) 
84

>  <ligand_id>  (85) 
84

>  <original_smiles>  (85) 
[H]c1c([H])c([H])c2c(c1[H])C([H])([H])C([H])([H])C([H])([H])C2([H])N([H])C(=O)C1([H])N(C(=O)C([H])(N([H])C(=O)C([H])(N([H])C([H])([H])[H])C([H])([H])[H])C(C([H])([H])[H])(C([H])([H])[H])C([H])([H])[H])C([H])([H])c2c([H])c(OC([H])([H])C([H])([H])C([H])(C([H])([H])C([H])([H])n3nc(N([H])C(=O)N4C([H])([H])C([H])([H])C([H])([H])C([H])(n5nc(-c6c([H])c([H])c(Oc7c([H])c([H])c(F)c([H])c7F)c([H])c6[H])c(C(=O)N([H])[H])c5N([H])[H])C4([H])[H])c([H])c3N([H])C([H])([H])[H])C(C([H])([H])[H])(C([H])([H])[H])C([H])([H])[H])c([H])c([H])c2C1([H])[H]

>  <smiles>  (85) 
[H]c1c([H])c([H])c2c(c1[H])C([H])([H])C([H])([H])C([H])([H])C2([H])N([H])C(=O)C1([H])N(C(=O)C([H])(N([H])C(=O)C([H])(N([H])C([H])([H])[H])C([H])([H])[H])C(C([H])([H])[H])(C([H])([H])[H])C([H])([H])[H])C([H])([H])c2c([H])c(OC([H])([H])C([H])([H])C([H])(C([H])([H])C([H])([H])n3nc(N([H])C(=O)N4C([H])([H])C([H])([H])C([H])([H])C([H])(n5nc(-c6c([H])c([H])c(Oc7c([H])c([H])c(F)c([H])c7F)c([H])c6[H])c(C(=O)N([H])[H])c5N([H])[H])C4([H])[H])c([H])c3N([H])C([H])([H])[H])C(C([H])([H])[H])(C([H])([H])[H])C([H])([H])[H])c([H])c([H])c2C1([H])[H]

$$$$
85:0:0
     RDKit          3D

 99107  0  0  1  0  0  0  0  0999 V2000
  -28.9350  -20.9170   21.2990 N   0  0  0  0  0  0  0  0  0  0  0  0
  -29.2210  -20.8050   22.2640 H   0  0  0  0  0  0  0  0  0  0  0  0
  -28.1740  -19.5020   19.5230 C   0  0  0  0  0  2  0  0  0  0  0  0
  -29.0120  -19.7630   20.5370 C   0  0  0  0  0  0  0  0  0  0  0  0
  -29.9960  -18.6970   20.7110 C   0  0  0  0  0  0  0  0  0  0  0  0
  -30.9530  -18.5130   21.5740 N   0  0  0  0  0  2  0  0  0  0  0  0
  -29.8260  -17.7230   19.7190 N   0  0  0  0  0  0  0  0  0  0  0  0
  -28.4630  -17.9920   18.7090 S   0  0  0  0  0  0  0  0  0  0  0  0
  -31.7490  -20.7620   22.3760 C   0  0  0  0  0  1  0  0  0  0  0  0
  -31.2830  -19.3340   22.7300 C   0  0  0  0  0  3  0  0  0  0  0  0
  -30.9350  -19.1570   25.2660 C   0  0  0  0  0  1  0  0  0  0  0  0
  -30.2610  -19.1990   23.8860 C   0  0  0  0  0  2  0  0  0  0  0  0
  -30.8830  -16.8310   19.2320 C   0  0  0  0  0  2  0  0  0  0  0  0
  -31.0290  -14.3680   18.8460 C   0  0  0  0  0  0  0  0  0  0  0  0
  -30.8060  -11.9400   18.4640 C   0  0  0  0  0  2  0  0  0  0  0  0
  -29.7200  -11.6660   17.4060 C   0  0  0  0  0  2  0  0  0  0  0  0
  -28.3290  -11.5890   18.0660 C   0  0  0  0  0  2  0  0  0  0  0  0
  -28.0450  -12.7890   19.0090 C   0  0  0  0  0  3  0  0  0  0  0  0
  -29.2310  -13.0120   19.9730 C   0  0  0  0  0  2  0  0  0  0  0  0
  -30.4540  -13.1820   19.1660 N   0  0  0  0  0  0  0  0  0  0  0  0
  -31.9730  -14.4710   18.0550 O   0  0  0  0  0  0  0  0  0  0  0  0
  -30.4770  -15.4410   19.4230 N   0  0  0  0  0  0  0  0  0  0  0  0
  -29.7140  -15.2750   20.0660 H   0  0  0  0  0  0  0  0  0  0  0  0
  -25.9170  -13.5640   20.2340 C   0  0  0  0  0  0  0  0  0  0  0  0
  -24.8630  -12.8710   20.7650 C   0  0  0  0  0  0  0  0  0  0  0  0
  -25.1510  -11.4880   20.5520 C   0  0  0  0  0  0  0  0  0  0  0  0
  -26.7900  -12.6090   19.7380 N   0  0  0  0  0  0  0  0  0  0  0  0
  -26.3420  -11.3500   19.9830 N   0  0  0  0  0  0  0  0  0  0  0  0
  -24.3370  -10.2920   20.8050 C   0  0  0  0  0  0  0  0  0  0  0  0
  -24.7460   -9.3030   21.7270 C   0  0  0  0  0  3  0  0  0  0  0  0
  -23.9400   -8.1690   21.9670 C   0  0  0  0  0  3  0  0  0  0  0  0
  -22.7100   -8.0160   21.2860 C   0  0  0  0  0  0  0  0  0  0  0  0
  -22.3170   -8.9930   20.3520 C   0  0  0  0  0  3  0  0  0  0  0  0
  -23.1230  -10.1180   20.1110 C   0  0  0  0  0  3  0  0  0  0  0  0
  -21.8740   -6.9370   21.4360 O   0  0  0  0  0  0  0  0  0  0  0  0
  -21.6950   -6.3280   22.6530 C   0  0  0  0  0  0  0  0  0  0  0  0
  -21.2070   -7.0340   23.7730 C   0  0  0  0  0  3  0  0  0  0  0  0
  -20.9740   -6.3550   24.9860 C   0  0  0  0  0  3  0  0  0  0  0  0
  -21.2160   -4.9720   25.0780 C   0  0  0  0  0  0  0  0  0  0  0  0
  -21.6990   -4.2660   23.9620 C   0  0  0  0  0  3  0  0  0  0  0  0
  -21.9360   -4.9420   22.7510 C   0  0  0  0  0  0  0  0  0  0  0  0
  -22.3800   -4.2530   21.6720 F   0  0  0  0  0  0  0  0  0  0  0  0
  -20.9840   -4.3180   26.2390 F   0  0  0  0  0  0  0  0  0  0  0  0
  -23.6130  -13.4570   21.3540 C   0  0  0  0  0  0  0  0  0  0  0  0
  -23.0160  -12.7790   22.3290 N   0  0  0  0  0  0  0  0  0  0  0  0
  -23.1820  -14.5490   20.9860 O   0  0  0  0  0  0  0  0  0  0  0  0
  -23.3760  -11.8910   22.6460 H   0  0  0  0  0  0  0  0  0  0  0  0
  -22.1870  -13.1560   22.7680 H   0  0  0  0  0  0  0  0  0  0  0  0
  -26.1980  -14.9220   20.1140 N   0  0  0  0  0  0  0  0  0  0  0  0
  -25.5580  -15.6400   20.4320 H   0  0  0  0  0  0  0  0  0  0  0  0
  -27.0270  -15.2980   19.6710 H   0  0  0  0  0  0  0  0  0  0  0  0
  -27.4040  -22.7540   21.7450 C   0  0  0  0  0  1  0  0  0  0  0  0
  -28.6010  -22.2800   20.9030 C   0  0  0  0  0  3  0  0  0  0  0  0
  -29.8680  -23.1670   21.0180 C   0  0  0  0  0  2  0  0  0  0  0  0
  -29.9030  -24.4600   20.1620 C   0  0  0  0  0  3  0  0  0  0  0  0
  -31.2480  -24.9230   20.1410 O   0  0  0  0  0  0  0  0  0  0  0  0
  -31.4570  -25.2550   21.0090 H   0  0  0  0  0  0  0  0  0  0  0  0
  -29.0320  -25.6080   20.7180 C   0  0  0  0  0  2  0  0  0  0  0  0
  -28.9420  -26.6650   19.7610 O   0  0  0  0  0  0  0  0  0  0  0  0
  -24.8450  -31.4030   23.1090 C   0  0  0  0  0  0  0  0  0  0  0  0
  -27.7410  -27.3210   19.8030 C   0  0  0  0  0  0  0  0  0  0  0  0
  -23.7110  -29.9870   21.4250 C   0  0  0  0  0  3  0  0  0  0  0  0
  -25.2450  -28.6210   19.9130 C   0  0  0  0  0  0  0  0  0  0  0  0
  -26.1940  -30.5480   21.1960 C   0  0  0  0  0  2  0  0  0  0  0  0
  -26.3700  -29.2140   20.5020 C   0  0  0  0  0  0  0  0  0  0  0  0
  -27.6240  -28.5710   20.4450 C   0  0  0  0  0  3  0  0  0  0  0  0
  -26.6060  -26.7370   19.2030 C   0  0  0  0  0  3  0  0  0  0  0  0
  -25.3570  -27.3800   19.2610 C   0  0  0  0  0  3  0  0  0  0  0  0
  -23.9410  -29.3770   20.0150 C   0  0  0  0  0  2  0  0  0  0  0  0
  -24.9360  -30.6580   21.9700 N   0  0  0  0  0  0  0  0  0  0  0  0
  -23.7580  -31.5700   23.6800 O   0  0  0  0  0  0  0  0  0  0  0  0
  -23.1560  -28.8810   22.3520 C   0  0  0  0  0  0  0  0  0  0  0  0
  -21.8770  -28.5210   22.1560 N   0  0  0  0  0  0  0  0  0  0  0  0
  -23.8760  -28.3490   23.2010 O   0  0  0  0  0  0  0  0  0  0  0  0
  -21.3520  -29.0030   21.4390 H   0  0  0  0  0  0  0  0  0  0  0  0
  -18.7170  -26.7860   22.3820 C   0  0  0  0  0  0  0  0  0  0  0  0
  -21.1570  -27.4770   22.8840 C   0  0  0  0  0  3  0  0  0  0  0  0
  -21.5510  -26.0710   22.3770 C   0  0  0  0  0  2  0  0  0  0  0  0
  -20.6240  -25.5460   21.2750 C   0  0  0  0  0  2  0  0  0  0  0  0
  -19.1800  -25.4700   21.7780 C   0  0  0  0  0  2  0  0  0  0  0  0
  -19.6450  -27.7350   22.8860 C   0  0  0  0  0  0  0  0  0  0  0  0
  -19.1640  -28.9560   23.4060 C   0  0  0  0  0  3  0  0  0  0  0  0
  -17.7840  -29.2350   23.4280 C   0  0  0  0  0  3  0  0  0  0  0  0
  -16.8690  -28.2860   22.9380 C   0  0  0  0  0  3  0  0  0  0  0  0
  -17.3350  -27.0640   22.4240 C   0  0  0  0  0  3  0  0  0  0  0  0
  -26.0940  -32.0980   23.7340 C   0  0  0  0  0  3  0  0  0  0  0  0
  -26.6750  -31.3280   24.9850 C   0  0  1  0  0  0  0  0  0  0  0  0
  -25.6140  -30.9920   26.0570 C   0  0  0  0  0  1  0  0  0  0  0  0
  -27.3380  -30.0030   24.5440 C   0  0  0  0  0  1  0  0  0  0  0  0
  -27.7810  -32.1770   25.6580 C   0  0  0  0  0  1  0  0  0  0  0  0
  -25.7030  -33.4650   24.1000 N   0  0  0  0  0  0  0  0  0  0  0  0
  -25.9700  -34.5530   23.3640 C   0  0  0  0  0  0  0  0  0  0  0  0
  -26.6470  -34.5160   22.3320 O   0  0  0  0  0  0  0  0  0  0  0  0
  -25.1060  -33.5650   24.9060 H   0  0  0  0  0  0  0  0  0  0  0  0
  -24.1270  -36.2350   23.0580 C   0  0  0  0  0  1  0  0  0  0  0  0
  -25.3980  -35.8980   23.8540 C   0  0  0  0  0  3  0  0  0  0  0  0
  -27.4780  -36.9070   24.6850 C   0  0  0  0  0  1  0  0  0  0  0  0
  -26.3590  -37.0180   23.7520 N   0  0  0  0  0  0  0  0  0  0  0  0
  -25.8950  -37.9060   23.9180 H   0  0  0  0  0  0  0  0  0  0  0  0
  1  2  1  0
  3  4  1  0
  4  5  2  0
  4  1  1  0
  5  6  1  0
  6 10  1  0
  7  5  1  0
  8  3  1  0
  8  7  1  0
 10  9  1  0
 10 12  1  0
 12 11  1  0
 13 22  1  0
 13  7  1  0
 14 20  1  0
 14 22  1  0
 15 20  1  0
 16 17  1  0
 16 15  1  0
 18 17  1  0
 18 27  1  0
 18 19  1  0
 20 19  1  0
 21 14  2  0
 22 23  1  0
 24 25  2  0
 25 44  1  0
 26 25  1  0
 26 29  1  0
 27 28  1  0
 27 24  1  0
 28 26  2  0
 29 30  1  0
 30 31  2  0
 32 35  1  0
 32 31  1  0
 33 32  2  0
 34 33  1  0
 34 29  2  0
 35 36  1  0
 36 41  2  0
 36 37  1  0
 37 38  2  0
 38 39  1  0
 39 43  1  0
 40 39  2  0
 41 40  1  0
 42 41  1  0
 44 45  1  0
 45 47  1  0
 45 48  1  0
 46 44  2  0
 49 24  1  0
 49 50  1  0
 51 49  1  0
 53 54  1  0
 53  1  1  0
 53 52  1  0
 55 58  1  0
 55 54  1  0
 56 55  1  0
 56 57  1  0
 59 61  1  0
 59 58  1  0
 60 71  2  0
 61 66  1  0
 62 70  1  0
 62 72  1  0
 63 69  1  0
 63 65  1  0
 64 70  1  0
 65 64  1  0
 66 65  2  0
 67 68  1  0
 67 61  2  0
 68 63  2  0
 69 62  1  0
 70 60  1  0
 72 74  2  0
 73 72  1  0
 75 73  1  0
 76 85  2  0
 76 81  1  0
 77 73  1  0
 77 81  1  0
 78 77  1  0
 79 80  1  0
 79 78  1  0
 80 76  1  0
 81 82  2  0
 82 83  1  0
 84 83  2  0
 85 84  1  0
 86 60  1  0
 86 91  1  0
 86 87  1  0
 87 90  1  1
 87 88  1  0
 89 87  1  0
 91 94  1  0
 92 96  1  0
 92 91  1  0
 93 92  2  0
 96 95  1  0
 98 96  1  0
 98 99  1  0
 98 97  1  0
M  ISO  4  14 100  22 100  58 101  59 101
M  END
>  <TORSDO>  (86) 
F 25

>  <SCORE>  (86) 
-7.785

>  <name>  (86) 
85

>  <ligand_id>  (86) 
85

>  <original_smiles>  (86) 
[H]OC([H])(C([H])([H])Oc1c([H])c([H])c2c(c1[H])C([H])([H])N(C(=O)C([H])(N([H])C(=O)C([H])(N([H])C([H])([H])[H])C([H])([H])[H])C(C([H])([H])[H])(C([H])([H])[H])C([H])([H])[H])C([H])(C(=O)N([H])C1([H])c3c([H])c([H])c([H])c([H])c3C([H])([H])C([H])([H])C1([H])[H])C2([H])[H])C([H])([H])C([H])(N([H])c1c([H])sn(C([H])([H])N([H])C(=O)N2C([H])([H])C([H])([H])C([H])([H])C([H])(n3nc(-c4c([H])c([H])c(Oc5c([H])c([H])c(F)c([H])c5F)c([H])c4[H])c(C(=O)N([H])[H])c3N([H])[H])C2([H])[H])c1=NC([H])(C([H])([H])[H])C([H])([H])C([H])([H])[H])C([H])([H])[H]

>  <smiles>  (86) 
[H]OC([H])(C([H])([H])Oc1c([H])c([H])c2c(c1[H])C([H])([H])N(C(=O)C([H])(N([H])C(=O)C([H])(N([H])C([H])([H])[H])C([H])([H])[H])C(C([H])([H])[H])(C([H])([H])[H])C([H])([H])[H])C([H])(C(=O)N([H])C1([H])c3c([H])c([H])c([H])c([H])c3C([H])([H])C([H])([H])C1([H])[H])C2([H])[H])C([H])([H])C([H])(N([H])c1c([H])sn(C([H])([H])N([H])C(=O)N2C([H])([H])C([H])([H])C([H])([H])C([H])(n3nc(-c4c([H])c([H])c(Oc5c([H])c([H])c(F)c([H])c5F)c([H])c4[H])c(C(=O)N([H])[H])c3N([H])[H])C2([H])[H])c1=NC([H])(C([H])([H])[H])C([H])([H])C([H])([H])[H])C([H])([H])[H]

$$$$
86:0:0
     RDKit          3D

 93101  0  0  1  0  0  0  0  0999 V2000
  -29.9600  -22.5460   20.3640 C   0  0  0  0  0  3  0  0  0  0  0  0
  -30.9480  -22.2920   19.3790 O   0  0  0  0  0  0  0  0  0  0  0  0
  -30.5350  -21.7970   18.6780 H   0  0  0  0  0  0  0  0  0  0  0  0
  -28.9630  -23.6040   19.8380 C   0  0  0  0  0  2  0  0  0  0  0  0
  -29.6490  -24.9010   19.3430 C   0  0  0  0  0  2  0  0  0  0  0  0
  -28.6810  -26.0230   18.9310 C   0  0  0  0  0  2  0  0  0  0  0  0
  -28.3460  -26.8260   20.0680 O   0  0  0  0  0  0  0  0  0  0  0  0
  -24.5360  -31.9360   23.2250 C   0  0  0  0  0  0  0  0  0  0  0  0
  -27.1610  -27.5320   20.0610 C   0  0  0  0  0  0  0  0  0  0  0  0
  -23.3160  -30.5410   21.5910 C   0  0  0  0  0  3  0  0  0  0  0  0
  -24.7560  -29.0230   20.1350 C   0  0  0  0  0  0  0  0  0  0  0  0
  -25.8380  -30.9110   21.3650 C   0  0  0  0  0  2  0  0  0  0  0  0
  -25.9190  -29.5450   20.7130 C   0  0  0  0  0  0  0  0  0  0  0  0
  -27.1210  -28.8020   20.6830 C   0  0  0  0  0  3  0  0  0  0  0  0
  -25.9700  -27.0120   19.5040 C   0  0  0  0  0  3  0  0  0  0  0  0
  -24.7740  -27.7530   19.5340 C   0  0  0  0  0  3  0  0  0  0  0  0
  -23.5100  -29.8750   20.2020 C   0  0  0  0  0  2  0  0  0  0  0  0
  -24.5820  -31.1430   22.1180 N   0  0  0  0  0  0  0  0  0  0  0  0
  -23.4610  -32.2000   23.7810 O   0  0  0  0  0  0  0  0  0  0  0  0
  -22.6840  -29.5070   22.5500 C   0  0  0  0  0  0  0  0  0  0  0  0
  -21.3590  -29.3130   22.4310 N   0  0  0  0  0  0  0  0  0  0  0  0
  -23.3790  -28.8840   23.3560 O   0  0  0  0  0  0  0  0  0  0  0  0
  -20.8600  -29.8690   21.7510 H   0  0  0  0  0  0  0  0  0  0  0  0
  -17.9980  -28.0950   22.9480 C   0  0  0  0  0  0  0  0  0  0  0  0
  -20.5560  -28.3660   23.2010 C   0  0  0  0  0  3  0  0  0  0  0  0
  -20.6630  -26.9380   22.6160 C   0  0  0  0  0  2  0  0  0  0  0  0
  -19.5540  -26.6150   21.6090 C   0  0  0  0  0  2  0  0  0  0  0  0
  -18.1770  -26.7500   22.2640 C   0  0  0  0  0  2  0  0  0  0  0  0
  -19.1150  -28.8610   23.3740 C   0  0  0  0  0  0  0  0  0  0  0  0
  -18.8940  -30.1210   23.9710 C   0  0  0  0  0  3  0  0  0  0  0  0
  -17.5880  -30.6130   24.1480 C   0  0  0  0  0  3  0  0  0  0  0  0
  -16.4850  -29.8440   23.7380 C   0  0  0  0  0  3  0  0  0  0  0  0
  -16.6910  -28.5860   23.1450 C   0  0  0  0  0  3  0  0  0  0  0  0
  -25.8270  -32.5690   23.8340 C   0  0  0  0  0  3  0  0  0  0  0  0
  -25.5210  -33.9670   24.1590 N   0  0  0  0  0  0  0  0  0  0  0  0
  -25.8640  -35.0160   23.4000 C   0  0  0  0  0  0  0  0  0  0  0  0
  -26.5410  -34.9080   22.3750 O   0  0  0  0  0  0  0  0  0  0  0  0
  -24.9190  -34.1260   24.9530 H   0  0  0  0  0  0  0  0  0  0  0  0
  -24.1560  -36.8210   23.0130 C   0  0  0  0  0  1  0  0  0  0  0  0
  -25.3770  -36.4070   23.8490 C   0  0  0  0  0  3  0  0  0  0  0  0
  -27.5010  -37.2730   24.7250 C   0  0  0  0  0  1  0  0  0  0  0  0
  -26.4190  -37.4530   23.7600 N   0  0  0  0  0  0  0  0  0  0  0  0
  -26.0170  -38.3750   23.9050 H   0  0  0  0  0  0  0  0  0  0  0  0
  -26.3530  -31.8010   25.1090 C   0  0  1  0  0  0  0  0  0  0  0  0
  -25.2680  -31.5640   26.1850 C   0  0  0  0  0  1  0  0  0  0  0  0
  -26.9360  -30.4240   24.7140 C   0  0  0  0  0  1  0  0  0  0  0  0
  -27.5080  -32.5980   25.7610 C   0  0  0  0  0  1  0  0  0  0  0  0
  -29.3350  -21.1760   20.7130 C   0  0  0  0  0  2  0  0  0  0  0  0
  -31.6400  -16.8180   21.9970 C   0  0  0  0  0  3  0  0  0  0  0  0
  -30.4410  -16.7270   21.3340 C   0  0  0  0  0  0  0  0  0  0  0  0
  -30.5990  -18.9820   21.4990 C   0  0  0  0  0  0  0  0  0  0  0  0
  -29.8240  -17.9690   21.0890 N   0  0  0  0  0  0  0  0  0  0  0  0
  -30.3420  -20.3350   21.3480 N   0  0  0  0  0  0  0  0  0  0  0  0
  -32.0870  -18.4720   22.2870 S   0  0  0  0  0  0  0  0  0  0  0  0
  -31.1340  -20.8930   21.6530 H   0  0  0  0  0  0  0  0  0  0  0  0
  -30.4870  -14.5230   20.2530 C   0  0  0  0  0  0  0  0  0  0  0  0
  -30.1040  -12.4570   18.9680 C   0  0  0  0  0  2  0  0  0  0  0  0
  -29.1040  -12.7330   17.8290 C   0  0  0  0  0  2  0  0  0  0  0  0
  -27.6550  -12.5700   18.3250 C   0  0  0  0  0  2  0  0  0  0  0  0
  -27.3840  -13.3290   19.6520 C   0  0  0  0  0  3  0  0  0  0  0  0
  -28.4910  -13.0410   20.6900 C   0  0  0  0  0  2  0  0  0  0  0  0
  -29.7830  -13.3750   20.0700 N   0  0  0  0  0  0  0  0  0  0  0  0
  -31.5710  -14.7340   19.6970 O   0  0  0  0  0  0  0  0  0  0  0  0
  -29.8690  -15.4810   20.9700 N   0  0  0  0  0  0  0  0  0  0  0  0
  -28.9070  -15.3170   21.2220 H   0  0  0  0  0  0  0  0  0  0  0  0
  -25.0060  -13.8780   20.4610 C   0  0  0  0  0  0  0  0  0  0  0  0
  -23.9690  -13.0800   20.8600 C   0  0  0  0  0  0  0  0  0  0  0  0
  -24.4550  -11.7370   20.7900 C   0  0  0  0  0  0  0  0  0  0  0  0
  -26.0580  -13.0220   20.1800 N   0  0  0  0  0  0  0  0  0  0  0  0
  -25.7320  -11.7290   20.4320 N   0  0  0  0  0  0  0  0  0  0  0  0
  -23.7610  -10.4590   20.9870 C   0  0  0  0  0  0  0  0  0  0  0  0
  -24.2090   -9.5130   21.9360 C   0  0  0  0  0  3  0  0  0  0  0  0
  -23.5130   -8.3010   22.1220 C   0  0  0  0  0  3  0  0  0  0  0  0
  -22.3550   -8.0230   21.3570 C   0  0  0  0  0  0  0  0  0  0  0  0
  -21.9260   -8.9560   20.3980 C   0  0  0  0  0  3  0  0  0  0  0  0
  -22.6230  -10.1610   20.2100 C   0  0  0  0  0  3  0  0  0  0  0  0
  -21.6310   -6.8590   21.4500 O   0  0  0  0  0  0  0  0  0  0  0  0
  -21.5550   -6.1500   22.6200 C   0  0  0  0  0  0  0  0  0  0  0  0
  -21.0540   -6.7250   23.8080 C   0  0  0  0  0  3  0  0  0  0  0  0
  -20.9290   -5.9420   24.9730 C   0  0  0  0  0  3  0  0  0  0  0  0
  -21.2930   -4.5820   24.9500 C   0  0  0  0  0  0  0  0  0  0  0  0
  -21.7860   -4.0050   23.7670 C   0  0  0  0  0  3  0  0  0  0  0  0
  -21.9140   -4.7870   22.6040 C   0  0  0  0  0  0  0  0  0  0  0  0
  -22.3680   -4.2200   21.4610 F   0  0  0  0  0  0  0  0  0  0  0  0
  -21.1650   -3.8260   26.0660 F   0  0  0  0  0  0  0  0  0  0  0  0
  -22.5740  -13.5250   21.1930 C   0  0  0  0  0  0  0  0  0  0  0  0
  -21.8960  -12.8000   22.0750 N   0  0  0  0  0  0  0  0  0  0  0  0
  -22.0980  -14.5510   20.7090 O   0  0  0  0  0  0  0  0  0  0  0  0
  -22.2950  -11.9690   22.4850 H   0  0  0  0  0  0  0  0  0  0  0  0
  -20.9630  -13.0810   22.3430 H   0  0  0  0  0  0  0  0  0  0  0  0
  -25.1360  -15.2540   20.2990 N   0  0  0  0  0  0  0  0  0  0  0  0
  -24.3570  -15.8890   20.4400 H   0  0  0  0  0  0  0  0  0  0  0  0
  -25.9600  -15.7150   19.9330 H   0  0  0  0  0  0  0  0  0  0  0  0
  1  4  1  0
  1 48  1  0
  2  1  1  0
  3  2  1  0
  5  4  1  0
  6  5  1  0
  6  7  1  0
  8 19  2  0
  9  7  1  0
  9 14  1  0
 10 18  1  0
 10 20  1  0
 11 17  1  0
 11 13  1  0
 12 18  1  0
 13 12  1  0
 14 13  2  0
 15 16  1  0
 15  9  2  0
 16 11  2  0
 17 10  1  0
 18  8  1  0
 20 22  2  0
 21 20  1  0
 23 21  1  0
 24 33  2  0
 24 29  1  0
 25 21  1  0
 25 29  1  0
 26 25  1  0
 27 28  1  0
 27 26  1  0
 28 24  1  0
 29 30  2  0
 30 31  1  0
 32 31  2  0
 33 32  1  0
 34  8  1  0
 34 35  1  0
 34 44  1  0
 35 38  1  0
 36 40  1  0
 36 35  1  0
 37 36  2  0
 40 39  1  0
 42 40  1  0
 42 43  1  0
 42 41  1  0
 44 47  1  1
 44 45  1  0
 46 44  1  0
 48 53  1  0
 49 54  1  0
 50 49  2  0
 51 54  1  0
 52 50  1  0
 52 51  2  0
 53 51  1  0
 53 55  1  0
 56 64  1  0
 57 62  1  0
 58 59  1  0
 58 57  1  0
 60 59  1  0
 60 69  1  0
 60 61  1  0
 62 56  1  0
 62 61  1  0
 63 56  2  0
 64 65  1  0
 64 50  1  0
 66 67  2  0
 67 86  1  0
 68 67  1  0
 68 71  1  0
 69 70  1  0
 69 66  1  0
 70 68  2  0
 71 72  1  0
 72 73  2  0
 74 77  1  0
 74 73  1  0
 75 74  2  0
 76 75  1  0
 76 71  2  0
 77 78  1  0
 78 79  1  0
 79 80  2  0
 81 80  1  0
 81 85  1  0
 82 81  2  0
 83 78  2  0
 83 82  1  0
 84 83  1  0
 86 87  1  0
 87 90  1  0
 87 89  1  0
 88 86  2  0
 91 92  1  0
 91 66  1  0
 93 91  1  0
M  ISO  4   6 101   7 101  56 100  64 100
M  END
>  <TORSDO>  (87) 
F 22

>  <SCORE>  (87) 
-12.062

>  <name>  (87) 
86

>  <ligand_id>  (87) 
86

>  <original_smiles>  (87) 
[H]OC([H])(C([H])([H])N([H])c1nc(N([H])C(=O)N2C([H])([H])C([H])([H])C([H])([H])C([H])(n3nc(-c4c([H])c([H])c(Oc5c([H])c([H])c(F)c([H])c5F)c([H])c4[H])c(C(=O)N([H])[H])c3N([H])[H])C2([H])[H])c([H])s1)C([H])([H])C([H])([H])C([H])([H])Oc1c([H])c([H])c2c(c1[H])C([H])([H])N(C(=O)C([H])(N([H])C(=O)C([H])(N([H])C([H])([H])[H])C([H])([H])[H])C(C([H])([H])[H])(C([H])([H])[H])C([H])([H])[H])C([H])(C(=O)N([H])C1([H])c3c([H])c([H])c([H])c([H])c3C([H])([H])C([H])([H])C1([H])[H])C2([H])[H]

>  <smiles>  (87) 
[H]OC([H])(C([H])([H])N([H])c1nc(N([H])C(=O)N2C([H])([H])C([H])([H])C([H])([H])C([H])(n3nc(-c4c([H])c([H])c(Oc5c([H])c([H])c(F)c([H])c5F)c([H])c4[H])c(C(=O)N([H])[H])c3N([H])[H])C2([H])[H])c([H])s1)C([H])([H])C([H])([H])C([H])([H])Oc1c([H])c([H])c2c(c1[H])C([H])([H])N(C(=O)C([H])(N([H])C(=O)C([H])(N([H])C([H])([H])[H])C([H])([H])[H])C(C([H])([H])[H])(C([H])([H])[H])C([H])([H])[H])C([H])(C(=O)N([H])C1([H])c3c([H])c([H])c([H])c([H])c3C([H])([H])C([H])([H])C1([H])[H])C2([H])[H]

$$$$
87:0:0
     RDKit          3D

 96104  0  0  1  0  0  0  0  0999 V2000
  -28.9020  -21.9810   19.7140 C   0  0  0  0  0  3  0  0  0  0  0  0
  -29.7220  -19.3180   20.1650 C   0  0  0  0  0  0  0  0  0  0  0  0
  -28.6140  -19.1610   20.8990 N   0  0  0  0  0  4  0  0  0  0  0  0
  -29.8790  -20.6820   19.7000 N   0  0  0  0  0  0  0  0  0  0  0  0
  -28.5370  -18.3600   21.5000 H   0  0  0  0  0  0  0  0  0  0  0  0
  -28.0300  -19.9460   21.1130 H   0  0  0  0  0  0  0  0  0  0  0  0
  -30.7260  -20.8120   19.1550 H   0  0  0  0  0  0  0  0  0  0  0  0
  -30.8720  -15.2890   20.1860 C   0  0  0  0  0  0  0  0  0  0  0  0
  -30.7520  -12.8090   19.5660 C   0  0  0  0  0  2  0  0  0  0  0  0
  -29.8900  -12.5820   18.2990 C   0  0  0  0  0  2  0  0  0  0  0  0
  -28.4160  -12.3730   18.6850 C   0  0  0  0  0  2  0  0  0  0  0  0
  -27.9340  -13.4090   19.7360 C   0  0  0  0  0  3  0  0  0  0  0  0
  -28.9520  -13.6580   20.8870 C   0  0  0  0  0  2  0  0  0  0  0  0
  -30.2520  -14.0220   20.2980 N   0  0  0  0  0  0  0  0  0  0  0  0
  -31.9880  -15.2850   19.6530 O   0  0  0  0  0  0  0  0  0  0  0  0
  -32.0150  -17.7330   21.8900 C   0  0  0  0  0  2  0  0  0  0  0  0
  -30.9690  -16.8390   22.0240 C   0  0  0  0  0  2  0  0  0  0  0  0
  -30.6940  -18.0240   20.1840 C   0  0  0  0  0  3  0  0  0  0  0  0
  -31.8830  -18.4150   20.6720 N   0  0  0  0  0  2  0  0  0  0  0  0
  -30.4140  -16.7060   20.7430 N   0  0  0  0  0  0  0  0  0  0  0  0
  -25.5640  -13.9920   20.4930 C   0  0  0  0  0  0  0  0  0  0  0  0
  -24.4810  -13.2240   20.8390 C   0  0  0  0  0  0  0  0  0  0  0  0
  -24.9190  -11.8680   20.7630 C   0  0  0  0  0  0  0  0  0  0  0  0
  -26.5920  -13.1020   20.2260 N   0  0  0  0  0  0  0  0  0  0  0  0
  -26.2120  -11.8150   20.4480 N   0  0  0  0  0  0  0  0  0  0  0  0
  -24.1640  -10.6140   20.9180 C   0  0  0  0  0  0  0  0  0  0  0  0
  -24.5720   -9.6100   21.8240 C   0  0  0  0  0  3  0  0  0  0  0  0
  -23.8170   -8.4270   21.9760 C   0  0  0  0  0  3  0  0  0  0  0  0
  -22.6370   -8.2400   21.2190 C   0  0  0  0  0  0  0  0  0  0  0  0
  -22.2440   -9.2320   20.3020 C   0  0  0  0  0  3  0  0  0  0  0  0
  -23.0000  -10.4060   20.1510 C   0  0  0  0  0  3  0  0  0  0  0  0
  -21.8530   -7.1120   21.2800 O   0  0  0  0  0  0  0  0  0  0  0  0
  -21.7850   -6.3400   22.4110 C   0  0  0  0  0  0  0  0  0  0  0  0
  -21.3660   -6.8730   23.6500 C   0  0  0  0  0  3  0  0  0  0  0  0
  -21.2420   -6.0300   24.7710 C   0  0  0  0  0  3  0  0  0  0  0  0
  -21.5300   -4.6560   24.6570 C   0  0  0  0  0  0  0  0  0  0  0  0
  -21.9420   -4.1250   23.4220 C   0  0  0  0  0  3  0  0  0  0  0  0
  -22.0670   -4.9640   22.3020 C   0  0  0  0  0  0  0  0  0  0  0  0
  -22.4440   -4.4410   21.1110 F   0  0  0  0  0  0  0  0  0  0  0  0
  -21.4020   -3.8440   25.7340 F   0  0  0  0  0  0  0  0  0  0  0  0
  -23.0970  -13.7210   21.1290 C   0  0  0  0  0  0  0  0  0  0  0  0
  -22.3630  -13.0280   21.9900 N   0  0  0  0  0  0  0  0  0  0  0  0
  -22.6780  -14.7620   20.6310 O   0  0  0  0  0  0  0  0  0  0  0  0
  -22.7090  -12.1840   22.4190 H   0  0  0  0  0  0  0  0  0  0  0  0
  -21.4380  -13.3560   22.2190 H   0  0  0  0  0  0  0  0  0  0  0  0
  -25.7500  -15.3640   20.3620 N   0  0  0  0  0  0  0  0  0  0  0  0
  -24.9960  -16.0280   20.4950 H   0  0  0  0  0  0  0  0  0  0  0  0
  -26.6070  -15.8130   20.0590 H   0  0  0  0  0  0  0  0  0  0  0  0
  -29.3280  -23.5900   20.1380 C   0  0  0  0  0  3  0  0  0  0  0  0
  -28.2630  -24.9240   20.1470 C   0  0  0  0  0  3  0  0  0  0  0  0
  -28.5030  -26.4510   20.3690 O   0  0  0  0  0  0  0  0  0  0  0  0
  -24.7290  -32.0260   23.4690 C   0  0  0  0  0  0  0  0  0  0  0  0
  -27.4220  -27.4160   20.3480 C   0  0  0  0  0  0  0  0  0  0  0  0
  -23.5770  -30.6720   21.7630 C   0  0  0  0  0  3  0  0  0  0  0  0
  -25.0640  -29.1450   20.3260 C   0  0  0  0  0  0  0  0  0  0  0  0
  -26.1300  -30.9490   21.6680 C   0  0  0  0  0  2  0  0  0  0  0  0
  -26.2280  -29.5750   20.9790 C   0  0  0  0  0  0  0  0  0  0  0  0
  -27.4070  -28.7330   20.9690 C   0  0  0  0  0  3  0  0  0  0  0  0
  -26.2290  -27.0940   19.6600 C   0  0  0  0  0  3  0  0  0  0  0  0
  -25.0810  -27.9220   19.6430 C   0  0  0  0  0  3  0  0  0  0  0  0
  -23.8350  -30.0430   20.3670 C   0  0  0  0  0  2  0  0  0  0  0  0
  -24.8300  -31.2370   22.3560 N   0  0  0  0  0  0  0  0  0  0  0  0
  -23.6290  -32.2870   23.9800 O   0  0  0  0  0  0  0  0  0  0  0  0
  -22.8830  -29.6310   22.6800 C   0  0  0  0  0  0  0  0  0  0  0  0
  -21.5590  -29.4560   22.5120 N   0  0  0  0  0  0  0  0  0  0  0  0
  -23.5350  -28.9870   23.5050 O   0  0  0  0  0  0  0  0  0  0  0  0
  -21.0880  -30.0380   21.8350 H   0  0  0  0  0  0  0  0  0  0  0  0
  -18.1550  -28.2670   22.9180 C   0  0  0  0  0  0  0  0  0  0  0  0
  -20.7150  -28.4950   23.2310 C   0  0  0  0  0  3  0  0  0  0  0  0
  -20.8100  -27.0850   22.6040 C   0  0  0  0  0  2  0  0  0  0  0  0
  -19.7160  -26.8050   21.5680 C   0  0  0  0  0  2  0  0  0  0  0  0
  -18.3300  -26.9370   22.2010 C   0  0  0  0  0  2  0  0  0  0  0  0
  -19.2760  -29.0020   23.3890 C   0  0  0  0  0  0  0  0  0  0  0  0
  -19.0540  -30.2420   24.0270 C   0  0  0  0  0  3  0  0  0  0  0  0
  -17.7510  -30.7440   24.2010 C   0  0  0  0  0  3  0  0  0  0  0  0
  -16.6470  -30.0060   23.7410 C   0  0  0  0  0  3  0  0  0  0  0  0
  -16.8490  -28.7690   23.1030 C   0  0  0  0  0  3  0  0  0  0  0  0
  -25.9860  -32.6480   24.1480 C   0  0  0  0  0  3  0  0  0  0  0  0
  -25.6890  -34.0590   24.4340 N   0  0  0  0  0  0  0  0  0  0  0  0
  -26.0570  -35.0880   23.6590 C   0  0  0  0  0  0  0  0  0  0  0  0
  -26.7520  -34.9500   22.6470 O   0  0  0  0  0  0  0  0  0  0  0  0
  -25.0790  -34.2420   25.2160 H   0  0  0  0  0  0  0  0  0  0  0  0
  -24.3610  -36.9030   23.2340 C   0  0  0  0  0  1  0  0  0  0  0  0
  -25.5820  -36.4940   24.0730 C   0  0  0  0  0  3  0  0  0  0  0  0
  -27.7160  -37.3820   24.9080 C   0  0  0  0  0  1  0  0  0  0  0  0
  -26.6300  -37.5310   23.9450 N   0  0  0  0  0  0  0  0  0  0  0  0
  -26.2320  -38.4620   24.0570 H   0  0  0  0  0  0  0  0  0  0  0  0
  -26.4080  -31.8910   25.4690 C   0  0  1  0  0  0  0  0  0  0  0  0
  -25.2480  -31.6840   26.4700 C   0  0  0  0  0  1  0  0  0  0  0  0
  -27.0010  -30.4990   25.1440 C   0  0  0  0  0  1  0  0  0  0  0  0
  -27.5170  -32.6930   26.1920 C   0  0  0  0  0  1  0  0  0  0  0  0
  -28.0610  -22.0500   18.3870 C   0  0  0  0  0  2  0  0  0  0  0  0
  -25.9440  -22.9080   17.2630 C   0  0  0  0  0  1  0  0  0  0  0  0
  -25.9480  -20.6230   18.2100 C   0  0  0  0  0  1  0  0  0  0  0  0
  -25.8720  -22.6230   19.7230 C   0  0  0  0  0  1  0  0  0  0  0  0
  -26.4880  -22.0490   18.4280 C   0  0  1  0  0  0  0  0  0  0  0  0
  1 92  1  0
  1 49  1  0
  2  3  2  0
  3  6  1  0
  3  5  1  0
  4  1  1  0
  4  2  1  0
  7  4  1  0
  8 14  1  0
  8 20  1  0
  9 14  1  0
 10 11  1  0
 10  9  1  0
 12 11  1  0
 12 24  1  0
 12 13  1  0
 14 13  1  0
 15  8  2  0
 16 17  1  0
 18  2  1  0
 18 19  1  0
 18 20  1  0
 19 16  1  0
 20 17  1  0
 21 22  2  0
 22 41  1  0
 23 22  1  0
 23 26  1  0
 24 25  1  0
 24 21  1  0
 25 23  2  0
 26 27  1  0
 27 28  2  0
 29 32  1  0
 29 28  1  0
 30 29  2  0
 31 30  1  0
 31 26  2  0
 32 33  1  0
 33 34  1  0
 34 35  2  0
 36 35  1  0
 36 40  1  0
 37 36  2  0
 38 33  2  0
 38 37  1  0
 39 38  1  0
 41 42  1  0
 42 45  1  0
 42 44  1  0
 43 41  2  0
 46 21  1  0
 46 47  1  0
 48 46  1  0
 49 50  2  0
 50 51  1  0
 52 63  2  0
 53 51  1  0
 53 58  1  0
 54 62  1  0
 54 64  1  0
 55 61  1  0
 55 57  1  0
 56 62  1  0
 57 56  1  0
 58 57  2  0
 59 53  2  0
 60 59  1  0
 60 55  2  0
 61 54  1  0
 62 52  1  0
 64 66  2  0
 65 64  1  0
 67 65  1  0
 68 77  2  0
 68 73  1  0
 69 65  1  0
 69 73  1  0
 70 69  1  0
 71 72  1  0
 71 70  1  0
 72 68  1  0
 73 74  2  0
 74 75  1  0
 76 75  2  0
 77 76  1  0
 78 52  1  0
 78 79  1  0
 78 88  1  0
 79 82  1  0
 80 84  1  0
 80 79  1  0
 81 80  2  0
 84 83  1  0
 86 87  1  0
 86 84  1  0
 86 85  1  0
 88 91  1  1
 88 89  1  0
 90 88  1  0
 92 96  1  0
 96 93  1  6
 94 96  1  0
 96 95  1  0
M  ISO  4   8 100  20 100  50 101  51 101
M  END
>  <TORSDO>  (88) 
F 21

>  <SCORE>  (88) 
-13.356

>  <name>  (88) 
87

>  <ligand_id>  (88) 
87

>  <original_smiles>  (88) 
[H]c1nc(C(N([H])[H])=[N+]([H])C([H])(C([H])([H])C([H])([H])Oc2c([H])c([H])c3c(c2[H])C([H])([H])N(C(=O)C([H])(N([H])C(=O)C([H])(N([H])C([H])([H])[H])C([H])([H])[H])C(C([H])([H])[H])(C([H])([H])[H])C([H])([H])[H])C([H])(C(=O)N([H])C2([H])c4c([H])c([H])c([H])c([H])c4C([H])([H])C([H])([H])C2([H])[H])C3([H])[H])C([H])([H])C(C([H])([H])[H])(C([H])([H])[H])C([H])([H])[H])n(C(=O)N2C([H])([H])C([H])([H])C([H])([H])C([H])(n3nc(-c4c([H])c([H])c(Oc5c([H])c([H])c(F)c([H])c5F)c([H])c4[H])c(C(=O)N([H])[H])c3N([H])[H])C2([H])[H])c1[H]

>  <smiles>  (88) 
[H]c1nc(C(N([H])[H])=[N+]([H])C([H])(C([H])([H])C([H])([H])Oc2c([H])c([H])c3c(c2[H])C([H])([H])N(C(=O)C([H])(N([H])C(=O)C([H])(N([H])C([H])([H])[H])C([H])([H])[H])C(C([H])([H])[H])(C([H])([H])[H])C([H])([H])[H])C([H])(C(=O)N([H])C2([H])c4c([H])c([H])c([H])c([H])c4C([H])([H])C([H])([H])C2([H])[H])C3([H])[H])C([H])([H])C(C([H])([H])[H])(C([H])([H])[H])C([H])([H])[H])n(C(=O)N2C([H])([H])C([H])([H])C([H])([H])C([H])(n3nc(-c4c([H])c([H])c(Oc5c([H])c([H])c(F)c([H])c5F)c([H])c4[H])c(C(=O)N([H])[H])c3N([H])[H])C2([H])[H])c1[H]

$$$$
88:0:0
     RDKit          3D

 93101  0  0  1  0  0  0  0  0999 V2000
  -29.1730  -21.3280   20.9150 C   0  0  0  0  0  0  0  0  0  0  0  0
  -28.9110  -21.4310   22.2260 N   0  0  0  0  0  4  0  0  0  0  0  0
  -29.1110  -22.5080   20.1780 N   0  0  0  0  0  0  0  0  0  0  0  0
  -28.9650  -20.6090   22.8100 H   0  0  0  0  0  0  0  0  0  0  0  0
  -28.6340  -22.2880   22.6710 H   0  0  0  0  0  0  0  0  0  0  0  0
  -29.2570  -22.4150   19.1810 H   0  0  0  0  0  0  0  0  0  0  0  0
  -30.6420  -14.8550   19.9980 C   0  0  0  0  0  0  0  0  0  0  0  0
  -30.4040  -12.6040   18.9380 C   0  0  0  0  0  2  0  0  0  0  0  0
  -29.3870  -12.7220   17.7800 C   0  0  0  0  0  2  0  0  0  0  0  0
  -27.9430  -12.5480   18.2940 C   0  0  0  0  0  2  0  0  0  0  0  0
  -27.6530  -13.4030   19.5560 C   0  0  0  0  0  3  0  0  0  0  0  0
  -28.7760  -13.2480   20.6050 C   0  0  0  0  0  2  0  0  0  0  0  0
  -30.0450  -13.6150   19.9570 N   0  0  0  0  0  0  0  0  0  0  0  0
  -31.7800  -15.0100   19.5390 O   0  0  0  0  0  0  0  0  0  0  0  0
  -30.5200  -19.4950   19.5800 C   0  0  0  0  0  3  0  0  0  0  0  0
  -29.5340  -19.9390   20.4470 C   0  0  0  0  0  0  0  0  0  0  0  0
  -29.9050  -17.3690   20.3130 C   0  0  0  0  0  0  0  0  0  0  0  0
  -30.7230  -18.0800   19.5130 N   0  0  0  0  0  0  0  0  0  0  0  0
  -29.8560  -15.8990   20.4390 N   0  0  0  0  0  0  0  0  0  0  0  0
  -28.7900  -18.4860   21.1700 S   0  0  0  0  0  0  0  0  0  0  0  0
  -29.0130  -15.5720   20.8850 H   0  0  0  0  0  0  0  0  0  0  0  0
  -25.3160  -13.9940   20.4390 C   0  0  0  0  0  0  0  0  0  0  0  0
  -24.2700  -13.2160   20.8600 C   0  0  0  0  0  0  0  0  0  0  0  0
  -24.7210  -11.8640   20.7670 C   0  0  0  0  0  0  0  0  0  0  0  0
  -26.3370  -13.1140   20.1180 N   0  0  0  0  0  0  0  0  0  0  0  0
  -25.9900  -11.8270   20.3750 N   0  0  0  0  0  0  0  0  0  0  0  0
  -24.0010  -10.6000   20.9680 C   0  0  0  0  0  0  0  0  0  0  0  0
  -24.4610   -9.6220   21.8770 C   0  0  0  0  0  3  0  0  0  0  0  0
  -23.7400   -8.4240   22.0660 C   0  0  0  0  0  3  0  0  0  0  0  0
  -22.5430   -8.1940   21.3480 C   0  0  0  0  0  0  0  0  0  0  0  0
  -22.1010   -9.1600   20.4260 C   0  0  0  0  0  3  0  0  0  0  0  0
  -22.8240  -10.3500   20.2340 C   0  0  0  0  0  3  0  0  0  0  0  0
  -21.7890   -7.0510   21.4510 O   0  0  0  0  0  0  0  0  0  0  0  0
  -21.7470   -6.3180   22.6100 C   0  0  0  0  0  0  0  0  0  0  0  0
  -21.2900   -6.8720   23.8250 C   0  0  0  0  0  3  0  0  0  0  0  0
  -21.1970   -6.0640   24.9760 C   0  0  0  0  0  3  0  0  0  0  0  0
  -21.5510   -4.7040   24.9120 C   0  0  0  0  0  0  0  0  0  0  0  0
  -22.0000   -4.1490   23.7020 C   0  0  0  0  0  3  0  0  0  0  0  0
  -22.0960   -4.9530   22.5530 C   0  0  0  0  0  0  0  0  0  0  0  0
  -22.5110   -4.4090   21.3840 F   0  0  0  0  0  0  0  0  0  0  0  0
  -21.4540   -3.9250   26.0150 F   0  0  0  0  0  0  0  0  0  0  0  0
  -22.8950  -13.6920   21.2310 C   0  0  0  0  0  0  0  0  0  0  0  0
  -22.2200  -12.9800   22.1270 N   0  0  0  0  0  0  0  0  0  0  0  0
  -22.4310  -14.7280   20.7600 O   0  0  0  0  0  0  0  0  0  0  0  0
  -22.6100  -12.1410   22.5310 H   0  0  0  0  0  0  0  0  0  0  0  0
  -21.2990  -13.2810   22.4160 H   0  0  0  0  0  0  0  0  0  0  0  0
  -25.4760  -15.3670   20.2790 N   0  0  0  0  0  0  0  0  0  0  0  0
  -24.7080  -16.0140   20.4230 H   0  0  0  0  0  0  0  0  0  0  0  0
  -26.2770  -15.8000   19.8400 H   0  0  0  0  0  0  0  0  0  0  0  0
  -30.5080  -24.4720   20.8580 C   0  0  0  0  0  1  0  0  0  0  0  0
  -29.0710  -23.9680   20.6820 C   0  0  0  0  0  3  0  0  0  0  0  0
  -28.2000  -25.0730   19.8970 C   0  0  0  0  0  2  0  0  0  0  0  0
  -28.3490  -26.5340   20.2310 O   0  0  0  0  0  0  0  0  0  0  0  0
  -24.6340  -31.9500   23.2720 C   0  0  0  0  0  0  0  0  0  0  0  0
  -27.2440  -27.4110   20.1540 C   0  0  0  0  0  0  0  0  0  0  0  0
  -23.4300  -30.5630   21.6210 C   0  0  0  0  0  3  0  0  0  0  0  0
  -24.8830  -29.0440   20.1630 C   0  0  0  0  0  0  0  0  0  0  0  0
  -25.9710  -30.8910   21.4330 C   0  0  0  0  0  2  0  0  0  0  0  0
  -26.0530  -29.5190   20.7680 C   0  0  0  0  0  0  0  0  0  0  0  0
  -27.2350  -28.7130   20.7580 C   0  0  0  0  0  3  0  0  0  0  0  0
  -26.0580  -27.0140   19.4970 C   0  0  0  0  0  3  0  0  0  0  0  0
  -24.8900  -27.8000   19.5150 C   0  0  0  0  0  3  0  0  0  0  0  0
  -23.6420  -29.9130   20.2300 C   0  0  0  0  0  2  0  0  0  0  0  0
  -24.6980  -31.1530   22.1650 N   0  0  0  0  0  0  0  0  0  0  0  0
  -23.5510  -32.2130   23.8150 O   0  0  0  0  0  0  0  0  0  0  0  0
  -22.7800  -29.5290   22.5710 C   0  0  0  0  0  0  0  0  0  0  0  0
  -21.4580  -29.3270   22.4370 N   0  0  0  0  0  0  0  0  0  0  0  0
  -23.4650  -28.9130   23.3930 O   0  0  0  0  0  0  0  0  0  0  0  0
  -20.9620  -29.8810   21.7510 H   0  0  0  0  0  0  0  0  0  0  0  0
  -18.1030  -28.0590   22.9040 C   0  0  0  0  0  0  0  0  0  0  0  0
  -20.6540  -28.3720   23.2000 C   0  0  0  0  0  3  0  0  0  0  0  0
  -20.7910  -26.9430   22.6260 C   0  0  0  0  0  2  0  0  0  0  0  0
  -19.7060  -26.5990   21.5990 C   0  0  0  0  0  2  0  0  0  0  0  0
  -18.3150  -26.7140   22.2310 C   0  0  0  0  0  2  0  0  0  0  0  0
  -19.2020  -28.8430   23.3460 C   0  0  0  0  0  0  0  0  0  0  0  0
  -18.9510  -30.1000   23.9390 C   0  0  0  0  0  3  0  0  0  0  0  0
  -17.6350  -30.5740   24.0930 C   0  0  0  0  0  3  0  0  0  0  0  0
  -16.5500  -29.7870   23.6680 C   0  0  0  0  0  3  0  0  0  0  0  0
  -16.7860  -28.5320   23.0780 C   0  0  0  0  0  3  0  0  0  0  0  0
  -25.9140  -32.5850   23.8950 C   0  0  0  0  0  3  0  0  0  0  0  0
  -25.6050  -33.9870   24.2130 N   0  0  0  0  0  0  0  0  0  0  0  0
  -25.9230  -35.0320   23.4380 C   0  0  0  0  0  0  0  0  0  0  0  0
  -26.5780  -34.9180   22.3990 O   0  0  0  0  0  0  0  0  0  0  0  0
  -25.0200  -34.1500   25.0200 H   0  0  0  0  0  0  0  0  0  0  0  0
  -24.1820  -36.8140   23.0990 C   0  0  0  0  0  1  0  0  0  0  0  0
  -25.4400  -36.4250   23.8880 C   0  0  0  0  0  3  0  0  0  0  0  0
  -27.5840  -37.3340   24.6680 C   0  0  0  0  0  1  0  0  0  0  0  0
  -26.4660  -37.4800   23.7400 N   0  0  0  0  0  0  0  0  0  0  0  0
  -26.0570  -38.4000   23.8780 H   0  0  0  0  0  0  0  0  0  0  0  0
  -26.4250  -31.8220   25.1790 C   0  0  1  0  0  0  0  0  0  0  0  0
  -25.3250  -31.5900   26.2420 C   0  0  0  0  0  1  0  0  0  0  0  0
  -27.0110  -30.4430   24.8000 C   0  0  0  0  0  1  0  0  0  0  0  0
  -27.5700  -32.6210   25.8430 C   0  0  0  0  0  1  0  0  0  0  0  0
  1  2  2  0
  2  5  1  0
  2  4  1  0
  3 51  1  0
  3  1  1  0
  6  3  1  0
  7 19  1  0
  8 13  1  0
  9 10  1  0
  9  8  1  0
 11 10  1  0
 11 25  1  0
 11 12  1  0
 13  7  1  0
 13 12  1  0
 14  7  2  0
 15 16  2  0
 16  1  1  0
 16 20  1  0
 17 19  1  0
 17 20  1  0
 18 15  1  0
 18 17  2  0
 19 21  1  0
 22 23  2  0
 23 42  1  0
 24 23  1  0
 24 27  1  0
 25 26  1  0
 25 22  1  0
 26 24  2  0
 27 28  1  0
 28 29  2  0
 30 33  1  0
 30 29  1  0
 31 30  2  0
 32 31  1  0
 32 27  2  0
 33 34  1  0
 34 35  1  0
 35 36  2  0
 37 36  1  0
 37 41  1  0
 38 37  2  0
 39 34  2  0
 39 38  1  0
 40 39  1  0
 42 43  1  0
 43 46  1  0
 43 45  1  0
 44 42  2  0
 47 48  1  0
 47 22  1  0
 49 47  1  0
 51 50  1  0
 52 53  1  0
 52 51  1  0
 54 65  2  0
 55 53  1  0
 55 60  1  0
 56 64  1  0
 56 66  1  0
 57 63  1  0
 57 59  1  0
 58 64  1  0
 59 58  1  0
 60 59  2  0
 61 62  1  0
 61 55  2  0
 62 57  2  0
 63 56  1  0
 64 54  1  0
 66 68  2  0
 67 66  1  0
 69 67  1  0
 70 79  2  0
 70 75  1  0
 71 67  1  0
 71 75  1  0
 72 71  1  0
 73 74  1  0
 73 72  1  0
 74 70  1  0
 75 76  2  0
 76 77  1  0
 78 77  2  0
 79 78  1  0
 80 54  1  0
 80 81  1  0
 80 90  1  0
 81 84  1  0
 82 86  1  0
 82 81  1  0
 83 82  2  0
 86 85  1  0
 88 89  1  0
 88 86  1  0
 88 87  1  0
 90 93  1  1
 90 91  1  0
 92 90  1  0
M  ISO  4   7 100  19 100  52 101  53 101
M  END
>  <TORSDO>  (89) 
F 18

>  <SCORE>  (89) 
-14.018

>  <name>  (89) 
88

>  <ligand_id>  (89) 
88

>  <original_smiles>  (89) 
[H]c1nc(N([H])C(=O)N2C([H])([H])C([H])([H])C([H])([H])C([H])(n3nc(-c4c([H])c([H])c(Oc5c([H])c([H])c(F)c([H])c5F)c([H])c4[H])c(C(=O)N([H])[H])c3N([H])[H])C2([H])[H])sc1C(N([H])[H])=[N+]([H])C([H])(C([H])([H])[H])C([H])([H])Oc1c([H])c([H])c2c(c1[H])C([H])([H])N(C(=O)C([H])(N([H])C(=O)C([H])(N([H])C([H])([H])[H])C([H])([H])[H])C(C([H])([H])[H])(C([H])([H])[H])C([H])([H])[H])C([H])(C(=O)N([H])C1([H])c3c([H])c([H])c([H])c([H])c3C([H])([H])C([H])([H])C1([H])[H])C2([H])[H]

>  <smiles>  (89) 
[H]c1nc(N([H])C(=O)N2C([H])([H])C([H])([H])C([H])([H])C([H])(n3nc(-c4c([H])c([H])c(Oc5c([H])c([H])c(F)c([H])c5F)c([H])c4[H])c(C(=O)N([H])[H])c3N([H])[H])C2([H])[H])sc1C(N([H])[H])=[N+]([H])C([H])(C([H])([H])[H])C([H])([H])Oc1c([H])c([H])c2c(c1[H])C([H])([H])N(C(=O)C([H])(N([H])C(=O)C([H])(N([H])C([H])([H])[H])C([H])([H])[H])C(C([H])([H])[H])(C([H])([H])[H])C([H])([H])[H])C([H])(C(=O)N([H])C1([H])c3c([H])c([H])c([H])c([H])c3C([H])([H])C([H])([H])C1([H])[H])C2([H])[H]

$$$$
89:0:0
     RDKit          3D

 92100  0  0  1  0  0  0  0  0999 V2000
  -28.9260  -21.3290   19.8580 N   0  0  0  0  0  0  0  0  0  0  0  0
  -28.5040  -21.5390   18.9570 H   0  0  0  0  0  0  0  0  0  0  0  0
  -30.5980  -14.6680   20.0560 C   0  0  0  0  0  0  0  0  0  0  0  0
  -30.3600  -12.4590   18.9260 C   0  0  0  0  0  2  0  0  0  0  0  0
  -29.3440  -12.6300   17.7740 C   0  0  0  0  0  2  0  0  0  0  0  0
  -27.8980  -12.4590   18.2830 C   0  0  0  0  0  2  0  0  0  0  0  0
  -27.6190  -13.2740   19.5740 C   0  0  0  0  0  3  0  0  0  0  0  0
  -28.7380  -13.0530   20.6160 C   0  0  0  0  0  2  0  0  0  0  0  0
  -30.0110  -13.4290   19.9840 N   0  0  0  0  0  0  0  0  0  0  0  0
  -31.7140  -14.8710   19.5600 O   0  0  0  0  0  0  0  0  0  0  0  0
  -29.1620  -17.5990   19.2280 C   0  0  0  0  0  3  0  0  0  0  0  0
  -29.7690  -19.3350   21.2470 C   0  0  0  0  0  3  0  0  0  0  0  0
  -28.8780  -18.9850   19.0660 C   0  0  0  0  0  0  0  0  0  0  0  0
  -29.2000  -19.9290   20.0840 C   0  0  0  0  0  0  0  0  0  0  0  0
  -29.7620  -17.0990   20.4070 C   0  0  0  0  0  0  0  0  0  0  0  0
  -28.1700  -19.4420   17.8010 C   0  0  0  0  0  1  0  0  0  0  0  0
  -30.0290  -17.9950   21.4010 N   0  0  0  0  0  0  0  0  0  0  0  0
  -29.8270  -15.6580   20.6180 N   0  0  0  0  0  0  0  0  0  0  0  0
  -29.0060  -15.2850   21.0690 H   0  0  0  0  0  0  0  0  0  0  0  0
  -25.2750  -13.8630   20.4460 C   0  0  0  0  0  0  0  0  0  0  0  0
  -24.2300  -13.0850   20.8630 C   0  0  0  0  0  0  0  0  0  0  0  0
  -24.6840  -11.7330   20.7710 C   0  0  0  0  0  0  0  0  0  0  0  0
  -26.2990  -12.9850   20.1260 N   0  0  0  0  0  0  0  0  0  0  0  0
  -25.9520  -11.6980   20.3810 N   0  0  0  0  0  0  0  0  0  0  0  0
  -23.9670  -10.4680   20.9720 C   0  0  0  0  0  0  0  0  0  0  0  0
  -24.4250   -9.4960   21.8890 C   0  0  0  0  0  3  0  0  0  0  0  0
  -23.7060   -8.2950   22.0780 C   0  0  0  0  0  3  0  0  0  0  0  0
  -22.5150   -8.0590   21.3510 C   0  0  0  0  0  0  0  0  0  0  0  0
  -22.0790   -9.0190   20.4220 C   0  0  0  0  0  3  0  0  0  0  0  0
  -22.7970  -10.2100   20.2290 C   0  0  0  0  0  3  0  0  0  0  0  0
  -21.7640   -6.9130   21.4520 O   0  0  0  0  0  0  0  0  0  0  0  0
  -21.7100   -6.1870   22.6160 C   0  0  0  0  0  0  0  0  0  0  0  0
  -21.2320   -6.7450   23.8210 C   0  0  0  0  0  3  0  0  0  0  0  0
  -21.1260   -5.9430   24.9740 C   0  0  0  0  0  3  0  0  0  0  0  0
  -21.4910   -4.5850   24.9240 C   0  0  0  0  0  0  0  0  0  0  0  0
  -21.9620   -4.0260   23.7230 C   0  0  0  0  0  3  0  0  0  0  0  0
  -22.0680   -4.8250   22.5710 C   0  0  0  0  0  0  0  0  0  0  0  0
  -22.5020   -4.2760   21.4110 F   0  0  0  0  0  0  0  0  0  0  0  0
  -21.3840   -3.8120   26.0300 F   0  0  0  0  0  0  0  0  0  0  0  0
  -22.8540  -13.5590   21.2320 C   0  0  0  0  0  0  0  0  0  0  0  0
  -22.1740  -12.8370   22.1170 N   0  0  0  0  0  0  0  0  0  0  0  0
  -22.3910  -14.6020   20.7710 O   0  0  0  0  0  0  0  0  0  0  0  0
  -22.5590  -11.9920   22.5120 H   0  0  0  0  0  0  0  0  0  0  0  0
  -21.2530  -13.1360   22.4060 H   0  0  0  0  0  0  0  0  0  0  0  0
  -25.4350  -15.2380   20.2930 N   0  0  0  0  0  0  0  0  0  0  0  0
  -24.6780  -15.8910   20.4620 H   0  0  0  0  0  0  0  0  0  0  0  0
  -26.2510  -15.6790   19.8890 H   0  0  0  0  0  0  0  0  0  0  0  0
  -30.4270  -22.6890   21.3310 C   0  0  0  0  0  1  0  0  0  0  0  0
  -29.0040  -22.5160   20.7670 C   0  0  0  0  0  3  0  0  0  0  0  0
  -28.5590  -23.8880   20.0570 C   0  0  0  0  0  2  0  0  0  0  0  0
  -28.3530  -25.2000   20.9390 C   0  0  0  0  0  2  0  0  0  0  0  0
  -28.4500  -26.5330   20.3120 O   0  0  0  0  0  0  0  0  0  0  0  0
  -24.5690  -31.8830   23.1970 C   0  0  0  0  0  0  0  0  0  0  0  0
  -27.3100  -27.3350   20.2820 C   0  0  0  0  0  0  0  0  0  0  0  0
  -23.4190  -30.4400   21.5550 C   0  0  0  0  0  3  0  0  0  0  0  0
  -24.9190  -28.8820   20.1910 C   0  0  0  0  0  0  0  0  0  0  0  0
  -25.9510  -30.8030   21.4080 C   0  0  0  0  0  2  0  0  0  0  0  0
  -26.0670  -29.4140   20.7950 C   0  0  0  0  0  0  0  0  0  0  0  0
  -27.2690  -28.6540   20.8230 C   0  0  0  0  0  3  0  0  0  0  0  0
  -26.1430  -26.8390   19.6650 C   0  0  0  0  0  3  0  0  0  0  0  0
  -24.9580  -27.5990   19.6160 C   0  0  0  0  0  3  0  0  0  0  0  0
  -23.6720  -29.7390   20.1930 C   0  0  0  0  0  2  0  0  0  0  0  0
  -24.6640  -31.0600   22.1110 N   0  0  0  0  0  0  0  0  0  0  0  0
  -23.4720  -32.1520   23.7080 O   0  0  0  0  0  0  0  0  0  0  0  0
  -22.7520  -29.4320   22.5200 C   0  0  0  0  0  0  0  0  0  0  0  0
  -21.4250  -29.2610   22.3940 N   0  0  0  0  0  0  0  0  0  0  0  0
  -23.4260  -28.8050   23.3410 O   0  0  0  0  0  0  0  0  0  0  0  0
  -20.9400  -29.8200   21.7060 H   0  0  0  0  0  0  0  0  0  0  0  0
  -18.0340  -28.1170   22.9270 C   0  0  0  0  0  0  0  0  0  0  0  0
  -20.6000  -28.3290   23.1660 C   0  0  0  0  0  3  0  0  0  0  0  0
  -20.6690  -26.9020   22.5750 C   0  0  0  0  0  2  0  0  0  0  0  0
  -19.5480  -26.6080   21.5720 C   0  0  0  0  0  2  0  0  0  0  0  0
  -18.1780  -26.7710   22.2360 C   0  0  0  0  0  2  0  0  0  0  0  0
  -19.1710  -28.8560   23.3500 C   0  0  0  0  0  0  0  0  0  0  0  0
  -18.9810  -30.1160   23.9580 C   0  0  0  0  0  3  0  0  0  0  0  0
  -17.6870  -30.6380   24.1450 C   0  0  0  0  0  3  0  0  0  0  0  0
  -16.5650  -29.8970   23.7370 C   0  0  0  0  0  3  0  0  0  0  0  0
  -16.7390  -28.6380   23.1360 C   0  0  0  0  0  3  0  0  0  0  0  0
  -25.8300  -32.5430   23.8370 C   0  0  0  0  0  3  0  0  0  0  0  0
  -26.3480  -31.7810   25.1180 C   0  0  1  0  0  0  0  0  0  0  0  0
  -25.2480  -31.5110   26.1730 C   0  0  0  0  0  1  0  0  0  0  0  0
  -26.9670  -30.4210   24.7250 C   0  0  0  0  0  1  0  0  0  0  0  0
  -27.4720  -32.6010   25.7960 C   0  0  0  0  0  1  0  0  0  0  0  0
  -25.4860  -33.9340   24.1690 N   0  0  0  0  0  0  0  0  0  0  0  0
  -25.7970  -34.9950   23.4130 C   0  0  0  0  0  0  0  0  0  0  0  0
  -26.4730  -34.9080   22.3840 O   0  0  0  0  0  0  0  0  0  0  0  0
  -24.8900  -34.0720   24.9710 H   0  0  0  0  0  0  0  0  0  0  0  0
  -24.0360  -36.7520   23.0480 C   0  0  0  0  0  1  0  0  0  0  0  0
  -25.2770  -36.3710   23.8710 C   0  0  0  0  0  3  0  0  0  0  0  0
  -27.3820  -37.3010   24.7300 C   0  0  0  0  0  1  0  0  0  0  0  0
  -26.2880  -37.4470   23.7720 N   0  0  0  0  0  0  0  0  0  0  0  0
  -25.8610  -38.3580   23.9130 H   0  0  0  0  0  0  0  0  0  0  0  0
  1 14  1  0
  1 49  1  0
  2  1  1  0
  3 18  1  0
  4  9  1  0
  5  6  1  0
  5  4  1  0
  7  6  1  0
  7 23  1  0
  7  8  1  0
  9  3  1  0
  9  8  1  0
 10  3  2  0
 11 15  1  0
 12 17  1  0
 13 11  2  0
 13 14  1  0
 14 12  2  0
 15 18  1  0
 15 17  2  0
 16 13  1  0
 18 19  1  0
 20 21  2  0
 21 40  1  0
 22 21  1  0
 22 25  1  0
 23 24  1  0
 23 20  1  0
 24 22  2  0
 25 26  1  0
 26 27  2  0
 28 31  1  0
 28 27  1  0
 29 28  2  0
 30 29  1  0
 30 25  2  0
 31 32  1  0
 32 33  1  0
 33 34  2  0
 35 34  1  0
 35 39  1  0
 36 35  2  0
 37 32  2  0
 37 36  1  0
 38 37  1  0
 40 41  1  0
 41 44  1  0
 41 43  1  0
 42 40  2  0
 45 20  1  0
 45 46  1  0
 47 45  1  0
 49 48  1  0
 50 49  1  0
 50 51  1  0
 52 51  1  0
 53 64  2  0
 54 52  1  0
 54 59  1  0
 55 63  1  0
 55 65  1  0
 56 62  1  0
 56 58  1  0
 57 63  1  0
 58 59  2  0
 58 57  1  0
 60 54  2  0
 61 60  1  0
 61 56  2  0
 62 55  1  0
 63 53  1  0
 65 67  2  0
 66 65  1  0
 68 66  1  0
 69 78  2  0
 69 74  1  0
 70 66  1  0
 70 74  1  0
 71 70  1  0
 72 73  1  0
 72 71  1  0
 73 69  1  0
 74 75  2  0
 75 76  1  0
 77 76  2  0
 78 77  1  0
 79 53  1  0
 79 84  1  0
 79 80  1  0
 80 83  1  1
 80 81  1  0
 82 80  1  0
 84 87  1  0
 85 89  1  0
 85 84  1  0
 86 85  2  0
 89 88  1  0
 91 89  1  0
 91 92  1  0
 91 90  1  0
M  ISO  4   3 100  18 100  51 101  52 101
M  END
>  <TORSDO>  (90) 
F 19

>  <SCORE>  (90) 
-14.208

>  <name>  (90) 
89

>  <ligand_id>  (90) 
89

>  <original_smiles>  (90) 
[H]c1nc(N([H])C(=O)N2C([H])([H])C([H])([H])C([H])([H])C([H])(n3nc(-c4c([H])c([H])c(Oc5c([H])c([H])c(F)c([H])c5F)c([H])c4[H])c(C(=O)N([H])[H])c3N([H])[H])C2([H])[H])c([H])c(C([H])([H])[H])c1N([H])C([H])(C([H])([H])[H])C([H])([H])C([H])([H])Oc1c([H])c([H])c2c(c1[H])C([H])([H])N(C(=O)C([H])(N([H])C(=O)C([H])(N([H])C([H])([H])[H])C([H])([H])[H])C(C([H])([H])[H])(C([H])([H])[H])C([H])([H])[H])C([H])(C(=O)N([H])C1([H])c3c([H])c([H])c([H])c([H])c3C([H])([H])C([H])([H])C1([H])[H])C2([H])[H]

>  <smiles>  (90) 
[H]c1nc(N([H])C(=O)N2C([H])([H])C([H])([H])C([H])([H])C([H])(n3nc(-c4c([H])c([H])c(Oc5c([H])c([H])c(F)c([H])c5F)c([H])c4[H])c(C(=O)N([H])[H])c3N([H])[H])C2([H])[H])c([H])c(C([H])([H])[H])c1N([H])C([H])(C([H])([H])[H])C([H])([H])C([H])([H])Oc1c([H])c([H])c2c(c1[H])C([H])([H])N(C(=O)C([H])(N([H])C(=O)C([H])(N([H])C([H])([H])[H])C([H])([H])[H])C(C([H])([H])[H])(C([H])([H])[H])C([H])([H])[H])C([H])(C(=O)N([H])C1([H])c3c([H])c([H])c([H])c([H])c3C([H])([H])C([H])([H])C1([H])[H])C2([H])[H]

$$$$
90:0:0
     RDKit          3D

 94102  0  0  1  0  0  0  0  0999 V2000
  -28.7120  -19.6920   21.5210 C   0  0  0  0  0  3  0  0  0  0  0  0
  -30.0070  -18.1330   20.3900 C   0  0  0  0  0  0  0  0  0  0  0  0
  -30.0670  -19.0350   19.2850 C   0  0  0  0  0  0  0  0  0  0  0  0
  -28.8170  -20.6100   20.4420 C   0  0  0  0  0  0  0  0  0  0  0  0
  -30.8220  -18.7060   18.0080 C   0  0  0  0  0  1  0  0  0  0  0  0
  -29.3030  -18.4680   21.5040 N   0  0  0  0  0  0  0  0  0  0  0  0
  -29.4760  -20.2600   19.3120 N   0  0  0  0  0  0  0  0  0  0  0  0
  -31.0120  -14.6080   19.8030 C   0  0  0  0  0  0  0  0  0  0  0  0
  -30.5770  -12.4310   18.7290 C   0  0  0  0  0  2  0  0  0  0  0  0
  -29.5360  -12.6080   17.6060 C   0  0  0  0  0  2  0  0  0  0  0  0
  -28.1090  -12.4770   18.1720 C   0  0  0  0  0  2  0  0  0  0  0  0
  -27.8830  -13.3430   19.4410 C   0  0  0  0  0  3  0  0  0  0  0  0
  -29.0360  -13.1730   20.4540 C   0  0  0  0  0  2  0  0  0  0  0  0
  -30.2940  -13.4540   19.7490 N   0  0  0  0  0  0  0  0  0  0  0  0
  -32.1250  -14.6890   19.2720 O   0  0  0  0  0  0  0  0  0  0  0  0
  -30.9130  -16.9220   20.4490 C   0  0  0  0  0  0  0  0  0  0  0  0
  -30.3620  -15.7000   20.2670 N   0  0  0  0  0  0  0  0  0  0  0  0
  -32.1210  -17.1220   20.6360 O   0  0  0  0  0  0  0  0  0  0  0  0
  -29.3680  -15.6320   20.3970 H   0  0  0  0  0  0  0  0  0  0  0  0
  -25.5960  -13.9640   20.4340 C   0  0  0  0  0  0  0  0  0  0  0  0
  -24.5500  -13.1980   20.8720 C   0  0  0  0  0  0  0  0  0  0  0  0
  -24.9630  -11.8390   20.7180 C   0  0  0  0  0  0  0  0  0  0  0  0
  -26.5820  -13.0720   20.0470 N   0  0  0  0  0  0  0  0  0  0  0  0
  -26.2120  -11.7850   20.2740 N   0  0  0  0  0  0  0  0  0  0  0  0
  -24.2220  -10.5860   20.9130 C   0  0  0  0  0  0  0  0  0  0  0  0
  -24.6540   -9.6090   21.8350 C   0  0  0  0  0  3  0  0  0  0  0  0
  -23.9150   -8.4210   22.0180 C   0  0  0  0  0  3  0  0  0  0  0  0
  -22.7290   -8.2020   21.2770 C   0  0  0  0  0  0  0  0  0  0  0  0
  -22.3150   -9.1670   20.3440 C   0  0  0  0  0  3  0  0  0  0  0  0
  -23.0540  -10.3470   20.1590 C   0  0  0  0  0  3  0  0  0  0  0  0
  -21.9600   -7.0670   21.3710 O   0  0  0  0  0  0  0  0  0  0  0  0
  -21.8360   -6.3760   22.5500 C   0  0  0  0  0  0  0  0  0  0  0  0
  -21.2890   -6.9700   23.7080 C   0  0  0  0  0  3  0  0  0  0  0  0
  -21.1170   -6.2050   24.8780 C   0  0  0  0  0  3  0  0  0  0  0  0
  -21.4800   -4.8450   24.8910 C   0  0  0  0  0  0  0  0  0  0  0  0
  -22.0190   -4.2500   23.7370 C   0  0  0  0  0  3  0  0  0  0  0  0
  -22.1940   -5.0130   22.5690 C   0  0  0  0  0  0  0  0  0  0  0  0
  -22.6950   -4.4300   21.4540 F   0  0  0  0  0  0  0  0  0  0  0  0
  -21.3060   -4.1060   26.0110 F   0  0  0  0  0  0  0  0  0  0  0  0
  -23.2030  -13.6930   21.3150 C   0  0  0  0  0  0  0  0  0  0  0  0
  -22.5470  -12.9620   22.2100 N   0  0  0  0  0  0  0  0  0  0  0  0
  -22.7470  -14.7590   20.9040 O   0  0  0  0  0  0  0  0  0  0  0  0
  -22.9330  -12.0990   22.5640 H   0  0  0  0  0  0  0  0  0  0  0  0
  -21.6470  -13.2710   22.5490 H   0  0  0  0  0  0  0  0  0  0  0  0
  -25.7830  -15.3380   20.3160 N   0  0  0  0  0  0  0  0  0  0  0  0
  -25.0440  -15.9980   20.5330 H   0  0  0  0  0  0  0  0  0  0  0  0
  -26.5880  -15.7750   19.8890 H   0  0  0  0  0  0  0  0  0  0  0  0
  -28.2590  -21.9030   20.5330 N   0  0  0  0  0  0  0  0  0  0  0  0
  -27.7990  -22.1490   21.4050 H   0  0  0  0  0  0  0  0  0  0  0  0
  -27.5660  -22.7810   18.3320 C   0  0  0  0  0  1  0  0  0  0  0  0
  -28.4980  -22.9680   19.5450 C   0  0  0  0  0  3  0  0  0  0  0  0
  -28.3340  -24.3870   20.1760 C   0  0  0  0  0  2  0  0  0  0  0  0
  -28.7920  -25.5720   19.2730 C   0  0  0  0  0  2  0  0  0  0  0  0
  -28.6690  -26.8730   19.8840 O   0  0  0  0  0  0  0  0  0  0  0  0
  -24.6820  -31.8020   23.1360 C   0  0  0  0  0  0  0  0  0  0  0  0
  -27.4590  -27.5440   19.8890 C   0  0  0  0  0  0  0  0  0  0  0  0
  -23.5210  -30.4320   21.4360 C   0  0  0  0  0  3  0  0  0  0  0  0
  -25.0210  -28.9940   19.9560 C   0  0  0  0  0  0  0  0  0  0  0  0
  -26.0380  -30.8660   21.2610 C   0  0  0  0  0  2  0  0  0  0  0  0
  -26.1630  -29.5230   20.5690 C   0  0  0  0  0  0  0  0  0  0  0  0
  -27.3810  -28.8040   20.5330 C   0  0  0  0  0  3  0  0  0  0  0  0
  -26.2890  -27.0300   19.2790 C   0  0  0  0  0  3  0  0  0  0  0  0
  -25.0800  -27.7480   19.3100 C   0  0  0  0  0  3  0  0  0  0  0  0
  -23.7530  -29.8150   20.0310 C   0  0  0  0  0  2  0  0  0  0  0  0
  -24.7650  -31.0470   22.0030 N   0  0  0  0  0  0  0  0  0  0  0  0
  -23.5920  -32.0200   23.6820 O   0  0  0  0  0  0  0  0  0  0  0  0
  -22.8980  -29.3540   22.3520 C   0  0  0  0  0  0  0  0  0  0  0  0
  -21.5800  -29.1360   22.2100 N   0  0  0  0  0  0  0  0  0  0  0  0
  -23.5970  -28.7200   23.1460 O   0  0  0  0  0  0  0  0  0  0  0  0
  -21.0770  -29.6990   21.5400 H   0  0  0  0  0  0  0  0  0  0  0  0
  -18.2400  -27.8340   22.6580 C   0  0  0  0  0  0  0  0  0  0  0  0
  -20.7900  -28.1440   22.9390 C   0  0  0  0  0  3  0  0  0  0  0  0
  -20.9300  -26.7440   22.2970 C   0  0  0  0  0  2  0  0  0  0  0  0
  -19.8340  -26.4390   21.2720 C   0  0  0  0  0  2  0  0  0  0  0  0
  -18.4490  -26.5200   21.9220 C   0  0  0  0  0  2  0  0  0  0  0  0
  -19.3400  -28.6030   23.1210 C   0  0  0  0  0  0  0  0  0  0  0  0
  -19.0900  -29.8340   23.7670 C   0  0  0  0  0  3  0  0  0  0  0  0
  -17.7740  -30.2970   23.9520 C   0  0  0  0  0  3  0  0  0  0  0  0
  -16.6890  -29.5230   23.5050 C   0  0  0  0  0  3  0  0  0  0  0  0
  -16.9220  -28.2930   22.8660 C   0  0  0  0  0  3  0  0  0  0  0  0
  -25.9480  -32.4450   23.7850 C   0  0  0  0  0  3  0  0  0  0  0  0
  -26.4610  -31.6630   25.0550 C   0  0  1  0  0  0  0  0  0  0  0  0
  -25.3550  -31.3810   26.0990 C   0  0  0  0  0  1  0  0  0  0  0  0
  -27.0810  -30.3060   24.6470 C   0  0  0  0  0  1  0  0  0  0  0  0
  -27.5820  -32.4700   25.7490 C   0  0  0  0  0  1  0  0  0  0  0  0
  -25.6120  -33.8330   24.1300 N   0  0  0  0  0  0  0  0  0  0  0  0
  -25.9270  -34.8990   23.3840 C   0  0  0  0  0  0  0  0  0  0  0  0
  -26.6040  -34.8210   22.3550 O   0  0  0  0  0  0  0  0  0  0  0  0
  -25.0130  -33.9680   24.9320 H   0  0  0  0  0  0  0  0  0  0  0  0
  -24.1630  -36.6580   23.0440 C   0  0  0  0  0  1  0  0  0  0  0  0
  -25.4120  -36.2730   23.8540 C   0  0  0  0  0  3  0  0  0  0  0  0
  -27.5200  -37.2000   24.7050 C   0  0  0  0  0  1  0  0  0  0  0  0
  -26.4230  -37.3480   23.7520 N   0  0  0  0  0  0  0  0  0  0  0  0
  -25.9970  -38.2580   23.8990 H   0  0  0  0  0  0  0  0  0  0  0  0
  2 16  1  0
  2  6  2  0
  3  7  2  0
  3  2  1  0
  4 48  1  0
  4  1  2  0
  5  3  1  0
  6  1  1  0
  7  4  1  0
  8 17  1  0
  9 14  1  0
 10 11  1  0
 10  9  1  0
 12 11  1  0
 12 23  1  0
 12 13  1  0
 14  8  1  0
 14 13  1  0
 15  8  2  0
 16 18  2  0
 17 19  1  0
 17 16  1  0
 20 21  2  0
 21 40  1  0
 22 21  1  0
 22 25  1  0
 23 24  1  0
 23 20  1  0
 24 22  2  0
 25 26  1  0
 26 27  2  0
 28 31  1  0
 28 27  1  0
 29 28  2  0
 30 29  1  0
 30 25  2  0
 31 32  1  0
 32 37  2  0
 32 33  1  0
 33 34  2  0
 34 35  1  0
 35 39  1  0
 36 35  2  0
 37 36  1  0
 38 37  1  0
 40 41  1  0
 41 44  1  0
 41 43  1  0
 42 40  2  0
 45 20  1  0
 45 46  1  0
 47 45  1  0
 48 49  1  0
 51 50  1  0
 51 52  1  0
 51 48  1  0
 53 54  1  0
 53 52  1  0
 54 56  1  0
 55 66  2  0
 56 61  1  0
 57 65  1  0
 57 67  1  0
 58 64  1  0
 58 60  1  0
 59 65  1  0
 60 59  1  0
 61 60  2  0
 62 63  1  0
 62 56  2  0
 63 58  2  0
 64 57  1  0
 65 55  1  0
 67 69  2  0
 68 67  1  0
 70 68  1  0
 71 80  2  0
 71 76  1  0
 72 68  1  0
 72 76  1  0
 73 72  1  0
 74 75  1  0
 74 73  1  0
 75 71  1  0
 76 77  2  0
 77 78  1  0
 79 78  2  0
 80 79  1  0
 81 55  1  0
 81 86  1  0
 81 82  1  0
 82 85  1  1
 82 83  1  0
 84 82  1  0
 86 89  1  0
 87 91  1  0
 87 86  1  0
 88 87  2  0
 91 90  1  0
 93 91  1  0
 93 94  1  0
 93 92  1  0
M  ISO  4   8 100  17 100  53 101  54 101
M  END
>  <TORSDO>  (91) 
F 20

>  <SCORE>  (91) 
-12.094

>  <name>  (91) 
90

>  <ligand_id>  (91) 
90

>  <original_smiles>  (91) 
[H]c1nc(C(=O)N([H])C(=O)N2C([H])([H])C([H])([H])C([H])([H])C([H])(n3nc(-c4c([H])c([H])c(Oc5c([H])c([H])c(F)c([H])c5F)c([H])c4[H])c(C(=O)N([H])[H])c3N([H])[H])C2([H])[H])c(C([H])([H])[H])nc1N([H])C([H])(C([H])([H])[H])C([H])([H])C([H])([H])Oc1c([H])c([H])c2c(c1[H])C([H])([H])N(C(=O)C([H])(N([H])C(=O)C([H])(N([H])C([H])([H])[H])C([H])([H])[H])C(C([H])([H])[H])(C([H])([H])[H])C([H])([H])[H])C([H])(C(=O)N([H])C1([H])c3c([H])c([H])c([H])c([H])c3C([H])([H])C([H])([H])C1([H])[H])C2([H])[H]

>  <smiles>  (91) 
[H]c1nc(C(=O)N([H])C(=O)N2C([H])([H])C([H])([H])C([H])([H])C([H])(n3nc(-c4c([H])c([H])c(Oc5c([H])c([H])c(F)c([H])c5F)c([H])c4[H])c(C(=O)N([H])[H])c3N([H])[H])C2([H])[H])c(C([H])([H])[H])nc1N([H])C([H])(C([H])([H])[H])C([H])([H])C([H])([H])Oc1c([H])c([H])c2c(c1[H])C([H])([H])N(C(=O)C([H])(N([H])C(=O)C([H])(N([H])C([H])([H])[H])C([H])([H])[H])C(C([H])([H])[H])(C([H])([H])[H])C([H])([H])[H])C([H])(C(=O)N([H])C1([H])c3c([H])c([H])c([H])c([H])c3C([H])([H])C([H])([H])C1([H])[H])C2([H])[H]

$$$$
91:0:0
     RDKit          3D

 93101  0  0  1  0  0  0  0  0999 V2000
  -30.2530  -18.3040   19.6520 C   0  0  0  0  0  0  0  0  0  0  0  0
  -29.2090  -18.3000   20.5500 C   0  0  0  0  0  0  0  0  0  0  0  0
  -29.5990  -20.5330   19.5420 C   0  0  0  0  0  0  0  0  0  0  0  0
  -28.7310  -17.1810   21.4180 C   0  0  0  0  0  1  0  0  0  0  0  0
  -30.4610  -19.5990   19.0920 N   0  0  0  0  0  0  0  0  0  0  0  0
  -29.5440  -21.9080   19.2310 N   0  0  0  0  0  0  0  0  0  0  0  0
  -28.4360  -19.8640   20.6720 S   0  0  0  0  0  0  0  0  0  0  0  0
  -28.7920  -22.3570   19.7450 H   0  0  0  0  0  0  0  0  0  0  0  0
  -31.1990  -17.1320   19.3330 C   0  0  0  0  0  2  0  0  0  0  0  0
  -31.5260  -14.6320   19.5210 C   0  0  0  0  0  0  0  0  0  0  0  0
  -31.1770  -12.3120   18.7460 C   0  0  0  0  0  2  0  0  0  0  0  0
  -30.1340  -12.3400   17.6070 C   0  0  0  0  0  2  0  0  0  0  0  0
  -28.7020  -12.2630   18.1730 C   0  0  0  0  0  2  0  0  0  0  0  0
  -28.4610  -13.2730   19.3270 C   0  0  0  0  0  3  0  0  0  0  0  0
  -29.6080  -13.2230   20.3620 C   0  0  0  0  0  2  0  0  0  0  0  0
  -30.8710  -13.4440   19.6420 N   0  0  0  0  0  0  0  0  0  0  0  0
  -32.6600  -14.7070   19.0400 O   0  0  0  0  0  0  0  0  0  0  0  0
  -30.7870  -15.7540   19.7220 N   0  0  0  0  0  0  0  0  0  0  0  0
  -29.8440  -15.6360   20.0480 H   0  0  0  0  0  0  0  0  0  0  0  0
  -26.2550  -14.0210   20.4130 C   0  0  0  0  0  0  0  0  0  0  0  0
  -25.1650  -13.3170   20.8480 C   0  0  0  0  0  0  0  0  0  0  0  0
  -25.4730  -11.9380   20.6350 C   0  0  0  0  0  0  0  0  0  0  0  0
  -27.1610  -13.0750   19.9600 N   0  0  0  0  0  0  0  0  0  0  0  0
  -26.7040  -11.8120   20.1560 N   0  0  0  0  0  0  0  0  0  0  0  0
  -24.6480  -10.7370   20.8050 C   0  0  0  0  0  0  0  0  0  0  0  0
  -25.0030   -9.7180   21.7180 C   0  0  0  0  0  3  0  0  0  0  0  0
  -24.1830   -8.5800   21.8750 C   0  0  0  0  0  3  0  0  0  0  0  0
  -22.9930   -8.4520   21.1180 C   0  0  0  0  0  0  0  0  0  0  0  0
  -22.6550   -9.4580   20.1960 C   0  0  0  0  0  3  0  0  0  0  0  0
  -23.4760  -10.5870   20.0360 C   0  0  0  0  0  3  0  0  0  0  0  0
  -22.1490   -7.3700   21.1850 O   0  0  0  0  0  0  0  0  0  0  0  0
  -21.9010   -6.7230   22.3700 C   0  0  0  0  0  0  0  0  0  0  0  0
  -21.3250   -7.3860   23.4740 C   0  0  0  0  0  3  0  0  0  0  0  0
  -21.0240   -6.6660   24.6480 C   0  0  0  0  0  3  0  0  0  0  0  0
  -21.2890   -5.2850   24.7150 C   0  0  0  0  0  0  0  0  0  0  0  0
  -21.8590   -4.6220   23.6140 C   0  0  0  0  0  3  0  0  0  0  0  0
  -22.1620   -5.3390   22.4430 C   0  0  0  0  0  0  0  0  0  0  0  0
  -22.6910   -4.6920   21.3770 F   0  0  0  0  0  0  0  0  0  0  0  0
  -20.9940   -4.5910   25.8400 F   0  0  0  0  0  0  0  0  0  0  0  0
  -23.8670  -13.8920   21.3390 C   0  0  0  0  0  0  0  0  0  0  0  0
  -23.1940  -13.1980   22.2520 N   0  0  0  0  0  0  0  0  0  0  0  0
  -23.4680  -14.9880   20.9510 O   0  0  0  0  0  0  0  0  0  0  0  0
  -23.5320  -12.3090   22.5860 H   0  0  0  0  0  0  0  0  0  0  0  0
  -22.3280  -13.5640   22.6220 H   0  0  0  0  0  0  0  0  0  0  0  0
  -26.5390  -15.3810   20.3400 N   0  0  0  0  0  0  0  0  0  0  0  0
  -25.8530  -16.0830   20.5940 H   0  0  0  0  0  0  0  0  0  0  0  0
  -27.3640  -15.7770   19.9080 H   0  0  0  0  0  0  0  0  0  0  0  0
  -30.3180  -22.8730   18.4370 C   0  0  0  0  0  2  0  0  0  0  0  0
  -29.6990  -24.3200   18.2300 C   0  0  0  0  0  3  0  0  0  0  0  0
  -30.4990  -24.8900   17.2110 O   0  0  0  0  0  0  0  0  0  0  0  0
  -30.3780  -24.3620   16.4280 H   0  0  0  0  0  0  0  0  0  0  0  0
  -29.7360  -25.3140   19.4510 C   0  0  0  0  0  2  0  0  0  0  0  0
  -29.4630  -26.7330   19.2180 O   0  0  0  0  0  0  0  0  0  0  0  0
  -24.9060  -30.6890   23.0870 C   0  0  0  0  0  0  0  0  0  0  0  0
  -28.1870  -27.2540   19.3590 C   0  0  0  0  0  0  0  0  0  0  0  0
  -23.9280  -29.4620   21.1770 C   0  0  0  0  0  3  0  0  0  0  0  0
  -25.6010  -28.4120   19.5550 C   0  0  0  0  0  0  0  0  0  0  0  0
  -26.3810  -30.1840   21.1370 C   0  0  0  0  0  2  0  0  0  0  0  0
  -26.6690  -28.9730   20.2670 C   0  0  0  0  0  0  0  0  0  0  0  0
  -27.9650  -28.4070   20.1600 C   0  0  0  0  0  3  0  0  0  0  0  0
  -27.1000  -26.7130   18.6480 C   0  0  0  0  0  3  0  0  0  0  0  0
  -25.8130  -27.2820   18.7450 C   0  0  0  0  0  3  0  0  0  0  0  0
  -24.2490  -29.0750   19.7090 C   0  0  0  0  0  2  0  0  0  0  0  0
  -25.0870  -30.1210   21.8620 N   0  0  0  0  0  0  0  0  0  0  0  0
  -23.7930  -30.7080   23.6290 O   0  0  0  0  0  0  0  0  0  0  0  0
  -23.4150  -28.2070   21.9190 C   0  0  0  0  0  0  0  0  0  0  0  0
  -22.1480  -27.8370   21.6670 N   0  0  0  0  0  0  0  0  0  0  0  0
  -24.1560  -27.5760   22.6770 O   0  0  0  0  0  0  0  0  0  0  0  0
  -21.6070  -28.4010   21.0250 H   0  0  0  0  0  0  0  0  0  0  0  0
  -19.0280  -26.0160   21.6930 C   0  0  0  0  0  0  0  0  0  0  0  0
  -21.4720  -26.6630   22.2210 C   0  0  0  0  0  3  0  0  0  0  0  0
  -21.8660  -25.3890   21.4420 C   0  0  0  0  0  2  0  0  0  0  0  0
  -20.9030  -25.0680   20.2960 C   0  0  0  0  0  2  0  0  0  0  0  0
  -19.4880  -24.8460   20.8400 C   0  0  0  0  0  2  0  0  0  0  0  0
  -19.9590  -26.8780   22.3330 C   0  0  0  0  0  0  0  0  0  0  0  0
  -19.4780  -27.9650   23.0960 C   0  0  0  0  0  3  0  0  0  0  0  0
  -18.0950  -28.2010   23.2190 C   0  0  0  0  0  3  0  0  0  0  0  0
  -17.1780  -27.3420   22.5880 C   0  0  0  0  0  3  0  0  0  0  0  0
  -17.6430  -26.2500   21.8360 C   0  0  0  0  0  3  0  0  0  0  0  0
  -26.0850  -31.3690   23.8560 C   0  0  0  0  0  3  0  0  0  0  0  0
  -25.6430  -32.7140   24.2480 N   0  0  0  0  0  0  0  0  0  0  0  0
  -25.9790  -33.8440   23.6080 C   0  0  0  0  0  0  0  0  0  0  0  0
  -26.7650  -33.8640   22.6560 O   0  0  0  0  0  0  0  0  0  0  0  0
  -24.9530  -32.7680   24.9830 H   0  0  0  0  0  0  0  0  0  0  0  0
  -24.1810  -35.5480   23.1800 C   0  0  0  0  0  1  0  0  0  0  0  0
  -25.3460  -35.1580   24.1050 C   0  0  0  0  0  3  0  0  0  0  0  0
  -27.2950  -36.1070   25.2570 C   0  0  0  0  0  1  0  0  0  0  0  0
  -26.3090  -36.2780   24.1930 N   0  0  0  0  0  0  0  0  0  0  0  0
  -25.8250  -37.1590   24.3460 H   0  0  0  0  0  0  0  0  0  0  0  0
  -26.5590  -30.5490   25.1180 C   0  0  1  0  0  0  0  0  0  0  0  0
  -25.4090  -30.1690   26.0780 C   0  0  0  0  0  1  0  0  0  0  0  0
  -27.2660  -29.2430   24.6890 C   0  0  0  0  0  1  0  0  0  0  0  0
  -27.6000  -31.3710   25.9160 C   0  0  0  0  0  1  0  0  0  0  0  0
  1  2  2  0
  2  7  1  0
  2  4  1  0
  3  7  1  0
  5  3  2  0
  5  1  1  0
  6  3  1  0
  6  8  1  0
  9  1  1  0
  9 18  1  0
 10 16  1  0
 10 18  1  0
 11 16  1  0
 12 13  1  0
 12 11  1  0
 14 13  1  0
 14 23  1  0
 14 15  1  0
 16 15  1  0
 17 10  2  0
 18 19  1  0
 20 21  2  0
 21 40  1  0
 22 25  1  0
 22 21  1  0
 23 24  1  0
 23 20  1  0
 24 22  2  0
 25 26  1  0
 26 27  2  0
 28 31  1  0
 28 27  1  0
 29 28  2  0
 30 29  1  0
 30 25  2  0
 31 32  1  0
 32 37  2  0
 32 33  1  0
 33 34  2  0
 34 35  1  0
 35 39  1  0
 36 35  2  0
 37 36  1  0
 38 37  1  0
 40 41  1  0
 41 43  1  0
 41 44  1  0
 42 40  2  0
 45 20  1  0
 45 46  1  0
 47 45  1  0
 48  6  1  0
 49 48  1  0
 49 52  1  0
 50 49  1  0
 51 50  1  0
 53 55  1  0
 53 52  1  0
 54 65  2  0
 55 60  1  0
 56 64  1  0
 56 66  1  0
 57 63  1  0
 57 59  1  0
 58 64  1  0
 59 58  1  0
 60 59  2  0
 61 62  1  0
 61 55  2  0
 62 57  2  0
 63 56  1  0
 64 54  1  0
 66 68  2  0
 67 66  1  0
 69 67  1  0
 70 79  2  0
 70 75  1  0
 71 67  1  0
 71 75  1  0
 72 71  1  0
 73 74  1  0
 73 72  1  0
 74 70  1  0
 75 76  2  0
 76 77  1  0
 78 77  2  0
 79 78  1  0
 80 54  1  0
 80 81  1  0
 80 90  1  0
 81 84  1  0
 82 86  1  0
 82 81  1  0
 83 82  2  0
 86 85  1  0
 86 88  1  0
 88 89  1  0
 88 87  1  0
 90 93  1  1
 90 91  1  0
 92 90  1  0
M  ISO  4  10 100  18 100  52 101  53 101
M  END
>  <TORSDO>  (92) 
F 21

>  <SCORE>  (92) 
-9.055

>  <name>  (92) 
91

>  <ligand_id>  (92) 
91

>  <original_smiles>  (92) 
[H]OC([H])(C([H])([H])Oc1c([H])c([H])c2c(c1[H])C([H])([H])N(C(=O)C([H])(N([H])C(=O)C([H])(N([H])C([H])([H])[H])C([H])([H])[H])C(C([H])([H])[H])(C([H])([H])[H])C([H])([H])[H])C([H])(C(=O)N([H])C1([H])c3c([H])c([H])c([H])c([H])c3C([H])([H])C([H])([H])C1([H])[H])C2([H])[H])C([H])([H])N([H])c1nc(C([H])([H])N([H])C(=O)N2C([H])([H])C([H])([H])C([H])([H])C([H])(n3nc(-c4c([H])c([H])c(Oc5c([H])c([H])c(F)c([H])c5F)c([H])c4[H])c(C(=O)N([H])[H])c3N([H])[H])C2([H])[H])c(C([H])([H])[H])s1

>  <smiles>  (92) 
[H]OC([H])(C([H])([H])Oc1c([H])c([H])c2c(c1[H])C([H])([H])N(C(=O)C([H])(N([H])C(=O)C([H])(N([H])C([H])([H])[H])C([H])([H])[H])C(C([H])([H])[H])(C([H])([H])[H])C([H])([H])[H])C([H])(C(=O)N([H])C1([H])c3c([H])c([H])c([H])c([H])c3C([H])([H])C([H])([H])C1([H])[H])C2([H])[H])C([H])([H])N([H])c1nc(C([H])([H])N([H])C(=O)N2C([H])([H])C([H])([H])C([H])([H])C([H])(n3nc(-c4c([H])c([H])c(Oc5c([H])c([H])c(F)c([H])c5F)c([H])c4[H])c(C(=O)N([H])[H])c3N([H])[H])C2([H])[H])c(C([H])([H])[H])s1

$$$$
92:0:0
     RDKit          3D

 97105  0  0  1  0  0  0  0  0999 V2000
  -29.8470  -21.5280   20.4400 N   0  0  0  0  0  4  0  0  0  0  0  0
  -30.5520  -21.1550   21.0760 H   0  0  0  0  0  0  0  0  0  0  0  0
  -29.0500  -21.7340   21.0170 H   0  0  0  0  0  0  0  0  0  0  0  0
  -28.0810  -20.0750   19.4750 C   0  0  0  0  0  1  0  0  0  0  0  0
  -29.5940  -20.2680   19.6950 C   0  0  0  0  0  3  0  0  0  0  0  0
  -30.6500  -14.5020   20.3580 C   0  0  0  0  0  0  0  0  0  0  0  0
  -30.3230  -12.3590   19.1770 C   0  0  0  0  0  2  0  0  0  0  0  0
  -29.3610  -12.5750   17.9920 C   0  0  0  0  0  2  0  0  0  0  0  0
  -27.8930  -12.4450   18.4450 C   0  0  0  0  0  2  0  0  0  0  0  0
  -27.5770  -13.2590   19.7280 C   0  0  0  0  0  3  0  0  0  0  0  0
  -28.6540  -13.0190   20.8120 C   0  0  0  0  0  2  0  0  0  0  0  0
  -29.9660  -13.3310   20.2220 N   0  0  0  0  0  0  0  0  0  0  0  0
  -31.7800  -14.6690   19.8860 O   0  0  0  0  0  0  0  0  0  0  0  0
  -31.2590  -17.1870   22.0610 C   0  0  0  0  0  3  0  0  0  0  0  0
  -31.5960  -18.5310   22.2460 C   0  0  0  0  0  3  0  0  0  0  0  0
  -30.3620  -16.8640   21.0340 C   0  0  0  0  0  0  0  0  0  0  0  0
  -30.2000  -19.1260   20.5350 C   0  0  0  0  0  0  0  0  0  0  0  0
  -31.0530  -19.5030   21.4890 N   0  0  0  0  0  0  0  0  0  0  0  0
  -29.8400  -17.8620   20.2810 N   0  0  0  0  0  0  0  0  0  0  0  0
  -29.9490  -15.5130   20.9040 N   0  0  0  0  0  0  0  0  0  0  0  0
  -29.0010  -15.3080   21.1660 H   0  0  0  0  0  0  0  0  0  0  0  0
  -25.1850  -13.8550   20.4560 C   0  0  0  0  0  0  0  0  0  0  0  0
  -24.1240  -13.0800   20.8360 C   0  0  0  0  0  0  0  0  0  0  0  0
  -24.5920  -11.7320   20.8070 C   0  0  0  0  0  0  0  0  0  0  0  0
  -26.2320  -12.9790   20.2210 N   0  0  0  0  0  0  0  0  0  0  0  0
  -25.8790  -11.6970   20.4880 N   0  0  0  0  0  0  0  0  0  0  0  0
  -23.8750  -10.4670   21.0080 C   0  0  0  0  0  0  0  0  0  0  0  0
  -24.3210   -9.5060   21.9410 C   0  0  0  0  0  3  0  0  0  0  0  0
  -23.6030   -8.3050   22.1300 C   0  0  0  0  0  3  0  0  0  0  0  0
  -22.4270   -8.0570   21.3840 C   0  0  0  0  0  0  0  0  0  0  0  0
  -21.9970   -9.0100   20.4410 C   0  0  0  0  0  3  0  0  0  0  0  0
  -22.7150  -10.2020   20.2530 C   0  0  0  0  0  3  0  0  0  0  0  0
  -21.6810   -6.9080   21.4820 O   0  0  0  0  0  0  0  0  0  0  0  0
  -21.6490   -6.1640   22.6350 C   0  0  0  0  0  0  0  0  0  0  0  0
  -21.2410   -6.7160   23.8680 C   0  0  0  0  0  3  0  0  0  0  0  0
  -21.1590   -5.8970   25.0130 C   0  0  0  0  0  3  0  0  0  0  0  0
  -21.4780   -4.5270   24.9240 C   0  0  0  0  0  0  0  0  0  0  0  0
  -21.8800   -3.9770   23.6940 C   0  0  0  0  0  3  0  0  0  0  0  0
  -21.9620   -4.7930   22.5520 C   0  0  0  0  0  0  0  0  0  0  0  0
  -22.3280   -4.2510   21.3650 F   0  0  0  0  0  0  0  0  0  0  0  0
  -21.3940   -3.7390   26.0210 F   0  0  0  0  0  0  0  0  0  0  0  0
  -22.7290  -13.5530   21.1180 C   0  0  0  0  0  0  0  0  0  0  0  0
  -22.0140  -12.8550   21.9920 N   0  0  0  0  0  0  0  0  0  0  0  0
  -22.2830  -14.5780   20.6040 O   0  0  0  0  0  0  0  0  0  0  0  0
  -22.3900  -12.0280   22.4310 H   0  0  0  0  0  0  0  0  0  0  0  0
  -21.0770  -13.1520   22.2240 H   0  0  0  0  0  0  0  0  0  0  0  0
  -25.3370  -15.2270   20.2770 N   0  0  0  0  0  0  0  0  0  0  0  0
  -24.5610  -15.8660   20.4100 H   0  0  0  0  0  0  0  0  0  0  0  0
  -26.1650  -15.6820   19.9150 H   0  0  0  0  0  0  0  0  0  0  0  0
  -31.8180  -22.5040   19.2110 C   0  0  0  0  0  1  0  0  0  0  0  0
  -30.4000  -22.7460   19.7690 C   0  0  0  0  0  3  0  0  0  0  0  0
  -29.4700  -23.3840   18.6920 C   0  0  0  0  0  2  0  0  0  0  0  0
  -28.3570  -24.3580   19.1960 C   0  0  0  0  0  3  0  0  0  0  0  0
  -27.2100  -24.0560   18.4160 O   0  0  0  0  0  0  0  0  0  0  0  0
  -27.4010  -24.2840   17.5100 H   0  0  0  0  0  0  0  0  0  0  0  0
  -28.7030  -25.8760   19.0220 C   0  0  0  0  0  2  0  0  0  0  0  0
  -28.3710  -26.7490   20.1190 O   0  0  0  0  0  0  0  0  0  0  0  0
  -24.5600  -31.8960   23.2570 C   0  0  0  0  0  0  0  0  0  0  0  0
  -27.1890  -27.4650   20.1090 C   0  0  0  0  0  0  0  0  0  0  0  0
  -23.3450  -30.5120   21.6070 C   0  0  0  0  0  3  0  0  0  0  0  0
  -24.7910  -28.9810   20.1690 C   0  0  0  0  0  0  0  0  0  0  0  0
  -25.8750  -30.8530   21.4150 C   0  0  0  0  0  2  0  0  0  0  0  0
  -25.9520  -29.4870   20.7630 C   0  0  0  0  0  0  0  0  0  0  0  0
  -27.1460  -28.7280   20.7480 C   0  0  0  0  0  3  0  0  0  0  0  0
  -26.0040  -26.9740   19.5170 C   0  0  0  0  0  3  0  0  0  0  0  0
  -24.8120  -27.7200   19.5490 C   0  0  0  0  0  3  0  0  0  0  0  0
  -23.5540  -29.8480   20.2210 C   0  0  0  0  0  2  0  0  0  0  0  0
  -24.6120  -31.1030   22.1500 N   0  0  0  0  0  0  0  0  0  0  0  0
  -23.4800  -32.1690   23.8010 O   0  0  0  0  0  0  0  0  0  0  0  0
  -22.6940  -29.4820   22.5580 C   0  0  0  0  0  0  0  0  0  0  0  0
  -21.3690  -29.3010   22.4290 N   0  0  0  0  0  0  0  0  0  0  0  0
  -23.3770  -28.8530   23.3710 O   0  0  0  0  0  0  0  0  0  0  0  0
  -20.8770  -29.8600   21.7440 H   0  0  0  0  0  0  0  0  0  0  0  0
  -17.9980  -28.1060   22.9260 C   0  0  0  0  0  0  0  0  0  0  0  0
  -20.5560  -28.3610   23.1990 C   0  0  0  0  0  3  0  0  0  0  0  0
  -20.6570  -26.9310   22.6200 C   0  0  0  0  0  2  0  0  0  0  0  0
  -19.5550  -26.6110   21.6040 C   0  0  0  0  0  2  0  0  0  0  0  0
  -18.1730  -26.7570   22.2490 C   0  0  0  0  0  2  0  0  0  0  0  0
  -19.1160  -28.8660   23.3600 C   0  0  0  0  0  0  0  0  0  0  0  0
  -18.9000  -30.1280   23.9540 C   0  0  0  0  0  3  0  0  0  0  0  0
  -17.5950  -30.6300   24.1210 C   0  0  0  0  0  3  0  0  0  0  0  0
  -16.4910  -29.8670   23.7040 C   0  0  0  0  0  3  0  0  0  0  0  0
  -16.6930  -28.6080   23.1110 C   0  0  0  0  0  3  0  0  0  0  0  0
  -25.8500  -32.5180   23.8740 C   0  0  0  0  0  3  0  0  0  0  0  0
  -25.5520  -33.9190   24.1990 N   0  0  0  0  0  0  0  0  0  0  0  0
  -25.8900  -34.9660   23.4320 C   0  0  0  0  0  0  0  0  0  0  0  0
  -26.5620  -34.8550   22.4030 O   0  0  0  0  0  0  0  0  0  0  0  0
  -24.9580  -34.0840   24.9990 H   0  0  0  0  0  0  0  0  0  0  0  0
  -24.1780  -36.7710   23.0590 C   0  0  0  0  0  1  0  0  0  0  0  0
  -25.4080  -36.3590   23.8830 C   0  0  0  0  0  3  0  0  0  0  0  0
  -27.5410  -37.2300   24.7300 C   0  0  0  0  0  1  0  0  0  0  0  0
  -26.4490  -37.4040   23.7760 N   0  0  0  0  0  0  0  0  0  0  0  0
  -26.0450  -38.3260   23.9240 H   0  0  0  0  0  0  0  0  0  0  0  0
  -26.3670  -31.7440   25.1480 C   0  0  1  0  0  0  0  0  0  0  0  0
  -25.2740  -31.5110   26.2180 C   0  0  0  0  0  1  0  0  0  0  0  0
  -26.9420  -30.3640   24.7530 C   0  0  0  0  0  1  0  0  0  0  0  0
  -27.5210  -32.5330   25.8050 C   0  0  0  0  0  1  0  0  0  0  0  0
  1  3  1  0
  1  2  1  0
  5  4  1  0
  5  1  1  0
  5 17  1  0
  6 20  1  0
  7 12  1  0
  8  9  1  0
  8  7  1  0
 10  9  1  0
 10 25  1  0
 10 11  1  0
 12  6  1  0
 12 11  1  0
 13  6  2  0
 14 15  2  0
 16 14  1  0
 17 18  2  0
 18 15  1  0
 19 17  1  0
 19 16  2  0
 20 16  1  0
 20 21  1  0
 22 23  2  0
 23 42  1  0
 24 23  1  0
 24 27  1  0
 25 22  1  0
 25 26  1  0
 26 24  2  0
 27 28  1  0
 28 29  2  0
 30 33  1  0
 30 29  1  0
 31 30  2  0
 32 31  1  0
 32 27  2  0
 33 34  1  0
 34 35  1  0
 35 36  2  0
 37 36  1  0
 37 41  1  0
 38 37  2  0
 39 34  2  0
 39 38  1  0
 40 39  1  0
 42 43  1  0
 43 46  1  0
 43 45  1  0
 44 42  2  0
 47 48  1  0
 47 22  1  0
 49 47  1  0
 51 50  1  0
 51  1  1  0
 52 51  1  0
 53 52  1  0
 54 53  1  0
 55 54  1  0
 56 53  1  0
 56 57  1  0
 58 69  2  0
 59 57  1  0
 59 64  1  0
 60 68  1  0
 60 70  1  0
 61 67  1  0
 61 63  1  0
 62 68  1  0
 63 62  1  0
 64 63  2  0
 65 66  1  0
 65 59  2  0
 66 61  2  0
 67 60  1  0
 68 58  1  0
 70 72  2  0
 71 70  1  0
 73 71  1  0
 74 83  2  0
 74 79  1  0
 75 71  1  0
 75 79  1  0
 76 75  1  0
 77 78  1  0
 77 76  1  0
 78 74  1  0
 79 80  2  0
 80 81  1  0
 82 81  2  0
 83 82  1  0
 84 58  1  0
 84 85  1  0
 84 94  1  0
 85 88  1  0
 86 90  1  0
 86 85  1  0
 87 86  2  0
 90 89  1  0
 92 90  1  0
 92 93  1  0
 92 91  1  0
 94 97  1  1
 94 95  1  0
 96 94  1  0
M  ISO  4   6 100  20 100  56 101  57 101
M  END
>  <TORSDO>  (93) 
F 22

>  <SCORE>  (93) 
-13.280

>  <name>  (93) 
92

>  <ligand_id>  (93) 
92

>  <original_smiles>  (93) 
[H]OC([H])(C([H])([H])Oc1c([H])c([H])c2c(c1[H])C([H])([H])N(C(=O)C([H])(N([H])C(=O)C([H])(N([H])C([H])([H])[H])C([H])([H])[H])C(C([H])([H])[H])(C([H])([H])[H])C([H])([H])[H])C([H])(C(=O)N([H])C1([H])c3c([H])c([H])c([H])c([H])c3C([H])([H])C([H])([H])C1([H])[H])C2([H])[H])C([H])([H])C([H])(C([H])([H])[H])[N+]([H])([H])C([H])(c1nc([H])c([H])c(N([H])C(=O)N2C([H])([H])C([H])([H])C([H])([H])C([H])(n3nc(-c4c([H])c([H])c(Oc5c([H])c([H])c(F)c([H])c5F)c([H])c4[H])c(C(=O)N([H])[H])c3N([H])[H])C2([H])[H])n1)C([H])([H])[H]

>  <smiles>  (93) 
[H]OC([H])(C([H])([H])Oc1c([H])c([H])c2c(c1[H])C([H])([H])N(C(=O)C([H])(N([H])C(=O)C([H])(N([H])C([H])([H])[H])C([H])([H])[H])C(C([H])([H])[H])(C([H])([H])[H])C([H])([H])[H])C([H])(C(=O)N([H])C1([H])c3c([H])c([H])c([H])c([H])c3C([H])([H])C([H])([H])C1([H])[H])C2([H])[H])C([H])([H])C([H])(C([H])([H])[H])[N+]([H])([H])C([H])(c1nc([H])c([H])c(N([H])C(=O)N2C([H])([H])C([H])([H])C([H])([H])C([H])(n3nc(-c4c([H])c([H])c(Oc5c([H])c([H])c(F)c([H])c5F)c([H])c4[H])c(C(=O)N([H])[H])c3N([H])[H])C2([H])[H])n1)C([H])([H])[H]

$$$$
93:0:0
     RDKit          3D

 93101  0  0  1  0  0  0  0  0999 V2000
  -28.7300  -18.0340   20.6490 C   0  0  0  0  0  3  0  0  0  0  0  0
  -31.0930  -19.2830   20.6770 C   0  0  0  0  0  0  0  0  0  0  0  0
  -29.9200  -17.2390   20.6970 C   0  0  0  0  0  0  0  0  0  0  0  0
  -29.8960  -20.0630   20.6200 C   0  0  0  0  0  0  0  0  0  0  0  0
  -32.4570  -19.9470   20.7040 C   0  0  0  0  0  1  0  0  0  0  0  0
  -28.7080  -19.4070   20.6010 N   0  0  0  0  0  0  0  0  0  0  0  0
  -31.1060  -17.9110   20.7060 N   0  0  0  0  0  0  0  0  0  0  0  0
  -29.9360  -21.4960   20.5870 N   0  0  0  0  0  0  0  0  0  0  0  0
  -30.8440  -21.9280   20.7230 H   0  0  0  0  0  0  0  0  0  0  0  0
  -30.5860  -14.7360   20.4220 C   0  0  0  0  0  0  0  0  0  0  0  0
  -30.3840  -12.5080   19.3300 C   0  0  0  0  0  2  0  0  0  0  0  0
  -29.4280  -12.6460   18.1230 C   0  0  0  0  0  2  0  0  0  0  0  0
  -27.9590  -12.4680   18.5620 C   0  0  0  0  0  2  0  0  0  0  0  0
  -27.6060  -13.3110   19.8170 C   0  0  0  0  0  3  0  0  0  0  0  0
  -28.6770  -13.1490   20.9200 C   0  0  0  0  0  2  0  0  0  0  0  0
  -29.9760  -13.5110   20.3350 N   0  0  0  0  0  0  0  0  0  0  0  0
  -31.7520  -14.8890   20.0440 O   0  0  0  0  0  0  0  0  0  0  0  0
  -29.7670  -15.7850   20.7590 N   0  0  0  0  0  0  0  0  0  0  0  0
  -28.8350  -15.4850   20.9930 H   0  0  0  0  0  0  0  0  0  0  0  0
  -25.2200  -13.8910   20.5680 C   0  0  0  0  0  0  0  0  0  0  0  0
  -24.1590  -13.1100   20.9380 C   0  0  0  0  0  0  0  0  0  0  0  0
  -24.6250  -11.7600   20.8800 C   0  0  0  0  0  0  0  0  0  0  0  0
  -26.2640  -13.0170   20.3090 N   0  0  0  0  0  0  0  0  0  0  0  0
  -25.9130  -11.7290   20.5580 N   0  0  0  0  0  0  0  0  0  0  0  0
  -23.9050  -10.4930   21.0560 C   0  0  0  0  0  0  0  0  0  0  0  0
  -24.3320   -9.5240   21.9900 C   0  0  0  0  0  3  0  0  0  0  0  0
  -23.6110   -8.3220   22.1560 C   0  0  0  0  0  3  0  0  0  0  0  0
  -22.4490   -8.0800   21.3840 C   0  0  0  0  0  0  0  0  0  0  0  0
  -22.0420   -9.0380   20.4380 C   0  0  0  0  0  3  0  0  0  0  0  0
  -22.7630  -10.2310   20.2720 C   0  0  0  0  0  3  0  0  0  0  0  0
  -21.7000   -6.9310   21.4580 O   0  0  0  0  0  0  0  0  0  0  0  0
  -21.6100   -6.2030   22.6180 C   0  0  0  0  0  0  0  0  0  0  0  0
  -21.0600   -6.7480   23.7980 C   0  0  0  0  0  3  0  0  0  0  0  0
  -20.9240   -5.9450   24.9470 C   0  0  0  0  0  3  0  0  0  0  0  0
  -21.3260   -4.5960   24.9150 C   0  0  0  0  0  0  0  0  0  0  0  0
  -21.8680   -4.0500   23.7390 C   0  0  0  0  0  3  0  0  0  0  0  0
  -22.0070   -4.8500   22.5910 C   0  0  0  0  0  0  0  0  0  0  0  0
  -22.5110   -4.3140   21.4540 F   0  0  0  0  0  0  0  0  0  0  0  0
  -21.1870   -3.8200   26.0160 F   0  0  0  0  0  0  0  0  0  0  0  0
  -22.7640  -13.5780   21.2280 C   0  0  0  0  0  0  0  0  0  0  0  0
  -22.0480  -12.8690   22.0940 N   0  0  0  0  0  0  0  0  0  0  0  0
  -22.3160  -14.6080   20.7240 O   0  0  0  0  0  0  0  0  0  0  0  0
  -22.4220  -12.0370   22.5240 H   0  0  0  0  0  0  0  0  0  0  0  0
  -21.1120  -13.1640   22.3320 H   0  0  0  0  0  0  0  0  0  0  0  0
  -25.3750  -15.2650   20.4040 N   0  0  0  0  0  0  0  0  0  0  0  0
  -24.5930  -15.9020   20.5100 H   0  0  0  0  0  0  0  0  0  0  0  0
  -26.1810  -15.7040   19.9810 H   0  0  0  0  0  0  0  0  0  0  0  0
  -28.8000  -22.4580   20.4540 C   0  0  0  0  0  2  0  0  0  0  0  0
  -29.1970  -24.0120   20.5050 C   0  0  0  0  0  3  0  0  0  0  0  0
  -29.7290  -24.2210   21.8010 O   0  0  0  0  0  0  0  0  0  0  0  0
  -29.9530  -25.1450   21.8580 H   0  0  0  0  0  0  0  0  0  0  0  0
  -28.0220  -25.0680   20.2940 C   0  0  0  0  0  2  0  0  0  0  0  0
  -28.2960  -26.5290   20.2950 O   0  0  0  0  0  0  0  0  0  0  0  0
  -24.5730  -31.9730   23.2500 C   0  0  0  0  0  0  0  0  0  0  0  0
  -27.1840  -27.3880   20.2330 C   0  0  0  0  0  0  0  0  0  0  0  0
  -23.3730  -30.5720   21.6110 C   0  0  0  0  0  3  0  0  0  0  0  0
  -24.8240  -29.0130   20.2010 C   0  0  0  0  0  0  0  0  0  0  0  0
  -25.9150  -30.8810   21.4380 C   0  0  0  0  0  2  0  0  0  0  0  0
  -25.9940  -29.4990   20.8000 C   0  0  0  0  0  0  0  0  0  0  0  0
  -27.1770  -28.7000   20.8030 C   0  0  0  0  0  3  0  0  0  0  0  0
  -25.9880  -26.9590   19.6100 C   0  0  0  0  0  3  0  0  0  0  0  0
  -24.8240  -27.7480   19.5960 C   0  0  0  0  0  3  0  0  0  0  0  0
  -23.5910  -29.8900   20.2360 C   0  0  0  0  0  2  0  0  0  0  0  0
  -24.6390  -31.1580   22.1570 N   0  0  0  0  0  0  0  0  0  0  0  0
  -23.4870  -32.2570   23.7770 O   0  0  0  0  0  0  0  0  0  0  0  0
  -22.7000  -29.5620   22.5710 C   0  0  0  0  0  0  0  0  0  0  0  0
  -21.3760  -29.3830   22.4300 N   0  0  0  0  0  0  0  0  0  0  0  0
  -23.3690  -28.9420   23.4020 O   0  0  0  0  0  0  0  0  0  0  0  0
  -20.8960  -29.9350   21.7320 H   0  0  0  0  0  0  0  0  0  0  0  0
  -17.9840  -28.2310   22.9370 C   0  0  0  0  0  0  0  0  0  0  0  0
  -20.5470  -28.4540   23.1990 C   0  0  0  0  0  3  0  0  0  0  0  0
  -20.6260  -27.0230   22.6170 C   0  0  0  0  0  2  0  0  0  0  0  0
  -19.5170  -26.7210   21.6060 C   0  0  0  0  0  2  0  0  0  0  0  0
  -18.1390  -26.8830   22.2550 C   0  0  0  0  0  2  0  0  0  0  0  0
  -19.1150  -28.9770   23.3660 C   0  0  0  0  0  0  0  0  0  0  0  0
  -18.9160  -30.2400   23.9660 C   0  0  0  0  0  3  0  0  0  0  0  0
  -17.6190  -30.7580   24.1390 C   0  0  0  0  0  3  0  0  0  0  0  0
  -16.5020  -30.0110   23.7240 C   0  0  0  0  0  3  0  0  0  0  0  0
  -16.6860  -28.7490   23.1300 C   0  0  0  0  0  3  0  0  0  0  0  0
  -25.8540  -32.6010   23.8770 C   0  0  0  0  0  3  0  0  0  0  0  0
  -26.3590  -31.8340   25.1620 C   0  0  1  0  0  0  0  0  0  0  0  0
  -25.2540  -31.5940   26.2170 C   0  0  0  0  0  1  0  0  0  0  0  0
  -26.9500  -30.4570   24.7780 C   0  0  0  0  0  1  0  0  0  0  0  0
  -27.4990  -32.6330   25.8350 C   0  0  0  0  0  1  0  0  0  0  0  0
  -25.5480  -34.0030   24.2000 N   0  0  0  0  0  0  0  0  0  0  0  0
  -25.8780  -35.0500   23.4320 C   0  0  0  0  0  0  0  0  0  0  0  0
  -26.5400  -34.9390   22.3980 O   0  0  0  0  0  0  0  0  0  0  0  0
  -24.9580  -34.1630   25.0030 H   0  0  0  0  0  0  0  0  0  0  0  0
  -24.1580  -36.8500   23.0670 C   0  0  0  0  0  1  0  0  0  0  0  0
  -25.3950  -36.4430   23.8830 C   0  0  0  0  0  3  0  0  0  0  0  0
  -27.5230  -37.3310   24.7290 C   0  0  0  0  0  1  0  0  0  0  0  0
  -26.4340  -37.4900   23.7700 N   0  0  0  0  0  0  0  0  0  0  0  0
  -26.0300  -38.4140   23.9000 H   0  0  0  0  0  0  0  0  0  0  0  0
  1  3  1  0
  2  5  1  0
  2  7  1  0
  3  7  2  0
  3 18  1  0
  4  2  2  0
  6  4  1  0
  6  1  2  0
  8  4  1  0
  8  9  1  0
 10 18  1  0
 11 16  1  0
 12 13  1  0
 12 11  1  0
 14 13  1  0
 14 23  1  0
 14 15  1  0
 16 10  1  0
 16 15  1  0
 17 10  2  0
 18 19  1  0
 20 21  2  0
 21 40  1  0
 22 21  1  0
 22 25  1  0
 23 24  1  0
 23 20  1  0
 24 22  2  0
 25 26  1  0
 26 27  2  0
 28 31  1  0
 28 27  1  0
 29 28  2  0
 30 29  1  0
 30 25  2  0
 31 32  1  0
 32 33  1  0
 33 34  2  0
 35 34  1  0
 35 39  1  0
 36 35  2  0
 37 32  2  0
 37 36  1  0
 38 37  1  0
 40 41  1  0
 41 44  1  0
 41 43  1  0
 42 40  2  0
 45 46  1  0
 45 20  1  0
 47 45  1  0
 48 49  1  0
 48  8  1  0
 49 52  1  0
 49 50  1  0
 50 51  1  0
 52 53  1  0
 54 65  2  0
 55 53  1  0
 55 60  1  0
 56 64  1  0
 56 66  1  0
 57 63  1  0
 57 59  1  0
 58 64  1  0
 59 60  2  0
 59 58  1  0
 61 55  2  0
 62 61  1  0
 62 57  2  0
 63 56  1  0
 64 54  1  0
 66 68  2  0
 67 66  1  0
 69 67  1  0
 70 79  2  0
 70 75  1  0
 71 67  1  0
 71 75  1  0
 72 71  1  0
 73 74  1  0
 73 72  1  0
 74 70  1  0
 75 76  2  0
 76 77  1  0
 78 77  2  0
 79 78  1  0
 80 54  1  0
 80 85  1  0
 80 81  1  0
 81 84  1  1
 81 82  1  0
 83 81  1  0
 85 88  1  0
 86 90  1  0
 86 85  1  0
 87 86  2  0
 90 89  1  0
 92 90  1  0
 92 93  1  0
 92 91  1  0
M  ISO  4  10 100  18 100  52 101  53 101
M  END
>  <TORSDO>  (94) 
F 20

>  <SCORE>  (94) 
-14.228

>  <name>  (94) 
93

>  <ligand_id>  (94) 
93

>  <original_smiles>  (94) 
[H]OC([H])(C([H])([H])Oc1c([H])c([H])c2c(c1[H])C([H])([H])N(C(=O)C([H])(N([H])C(=O)C([H])(N([H])C([H])([H])[H])C([H])([H])[H])C(C([H])([H])[H])(C([H])([H])[H])C([H])([H])[H])C([H])(C(=O)N([H])C1([H])c3c([H])c([H])c([H])c([H])c3C([H])([H])C([H])([H])C1([H])[H])C2([H])[H])C([H])([H])N([H])c1nc([H])c(N([H])C(=O)N2C([H])([H])C([H])([H])C([H])([H])C([H])(n3nc(-c4c([H])c([H])c(Oc5c([H])c([H])c(F)c([H])c5F)c([H])c4[H])c(C(=O)N([H])[H])c3N([H])[H])C2([H])[H])nc1C([H])([H])[H]

>  <smiles>  (94) 
[H]OC([H])(C([H])([H])Oc1c([H])c([H])c2c(c1[H])C([H])([H])N(C(=O)C([H])(N([H])C(=O)C([H])(N([H])C([H])([H])[H])C([H])([H])[H])C(C([H])([H])[H])(C([H])([H])[H])C([H])([H])[H])C([H])(C(=O)N([H])C1([H])c3c([H])c([H])c([H])c([H])c3C([H])([H])C([H])([H])C1([H])[H])C2([H])[H])C([H])([H])N([H])c1nc([H])c(N([H])C(=O)N2C([H])([H])C([H])([H])C([H])([H])C([H])(n3nc(-c4c([H])c([H])c(Oc5c([H])c([H])c(F)c([H])c5F)c([H])c4[H])c(C(=O)N([H])[H])c3N([H])[H])C2([H])[H])nc1C([H])([H])[H]

$$$$
94:0:0
     RDKit          3D

101109  0  0  1  0  0  0  0  0999 V2000
  -31.4070  -20.7920   20.2190 C   0  0  0  0  0  3  0  0  0  0  0  0
  -31.4770  -14.7620   19.5770 C   0  0  0  0  0  0  0  0  0  0  0  0
  -31.1560  -12.5390   18.5180 C   0  0  0  0  0  2  0  0  0  0  0  0
  -30.0280  -12.6690   17.4690 C   0  0  0  0  0  2  0  0  0  0  0  0
  -28.6340  -12.5040   18.1130 C   0  0  0  0  0  2  0  0  0  0  0  0
  -28.4640  -13.3610   19.3950 C   0  0  0  0  0  3  0  0  0  0  0  0
  -29.6790  -13.1770   20.3360 C   0  0  0  0  0  2  0  0  0  0  0  0
  -30.8890  -13.5300   19.5720 N   0  0  0  0  0  0  0  0  0  0  0  0
  -32.5850  -14.9740   19.0730 O   0  0  0  0  0  0  0  0  0  0  0  0
  -30.8700  -19.3850   20.5850 C   0  0  0  0  0  0  0  0  0  0  0  0
  -30.1940  -19.1020   21.7560 C   0  0  0  0  0  0  0  0  0  0  0  0
  -30.7100  -17.0650   20.4450 C   0  0  0  0  0  0  0  0  0  0  0  0
  -31.0940  -18.2020   19.8090 N   0  0  0  0  0  0  0  0  0  0  0  0
  -30.5940  -15.7450   19.8910 N   0  0  0  0  0  0  0  0  0  0  0  0
  -29.9170  -17.3930   21.9740 S   0  0  0  0  0  0  0  0  0  0  0  0
  -29.7200  -15.3120   20.1410 H   0  0  0  0  0  0  0  0  0  0  0  0
  -26.2890  -13.9800   20.6240 C   0  0  0  0  0  0  0  0  0  0  0  0
  -25.2420  -13.2180   21.0660 C   0  0  0  0  0  0  0  0  0  0  0  0
  -25.5790  -11.8660   20.7500 C   0  0  0  0  0  0  0  0  0  0  0  0
  -27.2000  -13.0890   20.0730 N   0  0  0  0  0  0  0  0  0  0  0  0
  -26.7860  -11.8040   20.2050 N   0  0  0  0  0  0  0  0  0  0  0  0
  -24.7940  -10.6310   20.8810 C   0  0  0  0  0  0  0  0  0  0  0  0
  -25.1340   -9.6400   21.8270 C   0  0  0  0  0  3  0  0  0  0  0  0
  -24.3560   -8.4680   21.9470 C   0  0  0  0  0  3  0  0  0  0  0  0
  -23.2230   -8.2810   21.1180 C   0  0  0  0  0  0  0  0  0  0  0  0
  -22.9030   -9.2620   20.1630 C   0  0  0  0  0  3  0  0  0  0  0  0
  -23.6830  -10.4250   20.0420 C   0  0  0  0  0  3  0  0  0  0  0  0
  -22.4240   -7.1650   21.1450 O   0  0  0  0  0  0  0  0  0  0  0  0
  -22.0260   -6.5940   22.3270 C   0  0  0  0  0  0  0  0  0  0  0  0
  -21.2810   -7.3140   23.2890 C   0  0  0  0  0  3  0  0  0  0  0  0
  -20.8320   -6.6680   24.4580 C   0  0  0  0  0  3  0  0  0  0  0  0
  -21.1180   -5.3050   24.6650 C   0  0  0  0  0  0  0  0  0  0  0  0
  -21.8540   -4.5860   23.7070 C   0  0  0  0  0  3  0  0  0  0  0  0
  -22.3040   -5.2290   22.5410 C   0  0  0  0  0  0  0  0  0  0  0  0
  -22.9950   -4.5270   21.6110 F   0  0  0  0  0  0  0  0  0  0  0  0
  -20.6800   -4.6830   25.7840 F   0  0  0  0  0  0  0  0  0  0  0  0
  -23.9570  -13.7210   21.6580 C   0  0  0  0  0  0  0  0  0  0  0  0
  -23.3650  -12.9610   22.5720 N   0  0  0  0  0  0  0  0  0  0  0  0
  -23.4950  -14.8180   21.3450 O   0  0  0  0  0  0  0  0  0  0  0  0
  -23.7550  -12.0700   22.8430 H   0  0  0  0  0  0  0  0  0  0  0  0
  -22.5090  -13.2740   23.0080 H   0  0  0  0  0  0  0  0  0  0  0  0
  -26.5320  -15.3510   20.6200 N   0  0  0  0  0  0  0  0  0  0  0  0
  -25.8370  -16.0100   20.9580 H   0  0  0  0  0  0  0  0  0  0  0  0
  -27.2990  -15.8010   20.1410 H   0  0  0  0  0  0  0  0  0  0  0  0
  -29.7590  -19.9650   22.7600 N   0  0  0  0  0  0  0  0  0  0  0  0
  -29.9240  -20.9650   22.8150 H   0  0  0  0  0  0  0  0  0  0  0  0
  -29.3050  -19.6170   23.6000 H   0  0  0  0  0  0  0  0  0  0  0  0
  -30.4850  -21.7260   19.4760 N   0  0  0  0  0  4  0  0  0  0  0  0
  -31.0830  -22.2780   18.8800 H   0  0  0  0  0  0  0  0  0  0  0  0
  -29.8620  -21.2100   18.8790 H   0  0  0  0  0  0  0  0  0  0  0  0
  -29.7490  -22.7850   20.2570 C   0  0  0  0  0  2  0  0  0  0  0  0
  -29.6530  -24.1810   19.5260 C   0  0  0  0  0  3  0  0  0  0  0  0
  -30.9960  -24.5610   19.2720 O   0  0  0  0  0  0  0  0  0  0  0  0
  -30.9670  -25.4530   18.9340 H   0  0  0  0  0  0  0  0  0  0  0  0
  -28.9590  -25.3340   20.3580 C   0  0  0  0  0  2  0  0  0  0  0  0
  -28.9620  -26.6750   19.7690 O   0  0  0  0  0  0  0  0  0  0  0  0
  -24.6570  -31.4460   22.9960 C   0  0  0  0  0  0  0  0  0  0  0  0
  -27.7590  -27.3720   19.7840 C   0  0  0  0  0  0  0  0  0  0  0  0
  -23.6340  -30.0660   21.2190 C   0  0  0  0  0  3  0  0  0  0  0  0
  -25.2620  -28.7310   19.7720 C   0  0  0  0  0  0  0  0  0  0  0  0
  -26.1360  -30.6150   21.1600 C   0  0  0  0  0  2  0  0  0  0  0  0
  -26.3560  -29.2930   20.4410 C   0  0  0  0  0  0  0  0  0  0  0  0
  -27.6120  -28.6270   20.4370 C   0  0  0  0  0  3  0  0  0  0  0  0
  -26.6440  -26.8390   19.1040 C   0  0  0  0  0  3  0  0  0  0  0  0
  -25.4030  -27.5060   19.0980 C   0  0  0  0  0  3  0  0  0  0  0  0
  -23.9550  -29.4940   19.8120 C   0  0  0  0  0  2  0  0  0  0  0  0
  -24.8240  -30.7240   21.8500 N   0  0  0  0  0  0  0  0  0  0  0  0
  -23.5370  -31.5990   23.5020 O   0  0  0  0  0  0  0  0  0  0  0  0
  -23.0240  -28.9390   22.0850 C   0  0  0  0  0  0  0  0  0  0  0  0
  -21.7140  -28.6950   21.9180 N   0  0  0  0  0  0  0  0  0  0  0  0
  -23.7270  -28.2940   22.8660 O   0  0  0  0  0  0  0  0  0  0  0  0
  -21.2030  -29.2740   21.2670 H   0  0  0  0  0  0  0  0  0  0  0  0
  -18.3960  -27.3140   22.3030 C   0  0  0  0  0  0  0  0  0  0  0  0
  -20.9410  -27.6540   22.5980 C   0  0  0  0  0  3  0  0  0  0  0  0
  -21.1030  -26.2890   21.8900 C   0  0  0  0  0  2  0  0  0  0  0  0
  -20.0120  -26.0160   20.8500 C   0  0  0  0  0  2  0  0  0  0  0  0
  -18.6270  -26.0420   21.5050 C   0  0  0  0  0  2  0  0  0  0  0  0
  -19.4820  -28.0790   22.8040 C   0  0  0  0  0  0  0  0  0  0  0  0
  -19.2110  -29.2710   23.5110 C   0  0  0  0  0  3  0  0  0  0  0  0
  -17.8870  -29.6980   23.7220 C   0  0  0  0  0  3  0  0  0  0  0  0
  -16.8150  -28.9290   23.2380 C   0  0  0  0  0  3  0  0  0  0  0  0
  -17.0690  -27.7370   22.5350 C   0  0  0  0  0  3  0  0  0  0  0  0
  -25.8600  -32.1350   23.7110 C   0  0  0  0  0  3  0  0  0  0  0  0
  -25.4550  -33.5070   24.0440 N   0  0  0  0  0  0  0  0  0  0  0  0
  -25.7780  -34.5910   23.3250 C   0  0  0  0  0  0  0  0  0  0  0  0
  -26.5170  -34.5440   22.3380 O   0  0  0  0  0  0  0  0  0  0  0  0
  -24.8090  -33.6150   24.8120 H   0  0  0  0  0  0  0  0  0  0  0  0
  -23.9780  -36.2890   22.8910 C   0  0  0  0  0  1  0  0  0  0  0  0
  -25.1870  -35.9410   23.7730 C   0  0  0  0  0  3  0  0  0  0  0  0
  -27.2080  -36.9310   24.7570 C   0  0  0  0  0  1  0  0  0  0  0  0
  -26.1650  -37.0510   23.7400 N   0  0  0  0  0  0  0  0  0  0  0  0
  -25.7000  -37.9450   23.8710 H   0  0  0  0  0  0  0  0  0  0  0  0
  -26.3360  -31.3670   25.0050 C   0  0  1  0  0  0  0  0  0  0  0  0
  -25.1890  -31.0320   25.9860 C   0  0  0  0  0  1  0  0  0  0  0  0
  -27.0340  -30.0400   24.6240 C   0  0  0  0  0  1  0  0  0  0  0  0
  -27.3820  -32.2170   25.7640 C   0  0  0  0  0  1  0  0  0  0  0  0
  -32.8260  -20.7530   19.5780 C   0  0  0  0  0  2  0  0  0  0  0  0
  -34.1450  -21.0870   21.7580 C   0  0  0  0  0  1  0  0  0  0  0  0
  -33.9120  -18.7620   20.8250 C   0  0  0  0  0  1  0  0  0  0  0  0
  -35.3230  -20.4530   19.6620 C   0  0  0  0  0  1  0  0  0  0  0  0
  -34.0180  -20.2570   20.4610 C   0  0  1  0  0  0  0  0  0  0  0  0
  1 97  1  0
  1 10  1  0
  2 14  1  0
  3  8  1  0
  4  5  1  0
  4  3  1  0
  6  5  1  0
  6 20  1  0
  6  7  1  0
  8  2  1  0
  8  7  1  0
  9  2  2  0
 10 11  2  0
 11 15  1  0
 11 45  1  0
 12 15  1  0
 13 12  2  0
 13 10  1  0
 14 16  1  0
 14 12  1  0
 17 18  2  0
 18 37  1  0
 19 22  1  0
 19 18  1  0
 20 21  1  0
 20 17  1  0
 21 19  2  0
 22 23  1  0
 23 24  2  0
 25 28  1  0
 25 24  1  0
 26 25  2  0
 27 26  1  0
 27 22  2  0
 28 29  1  0
 29 34  2  0
 29 30  1  0
 30 31  2  0
 31 32  1  0
 32 36  1  0
 33 32  2  0
 34 33  1  0
 35 34  1  0
 37 38  1  0
 38 40  1  0
 38 41  1  0
 39 37  2  0
 42 17  1  0
 42 43  1  0
 44 42  1  0
 45 46  1  0
 45 47  1  0
 48  1  1  0
 48 51  1  0
 49 48  1  0
 50 48  1  0
 52 51  1  0
 52 55  1  0
 53 52  1  0
 54 53  1  0
 56 58  1  0
 56 55  1  0
 57 68  2  0
 58 63  1  0
 59 67  1  0
 59 69  1  0
 60 66  1  0
 60 62  1  0
 61 67  1  0
 62 61  1  0
 63 62  2  0
 64 58  2  0
 65 64  1  0
 65 60  2  0
 66 59  1  0
 67 57  1  0
 69 71  2  0
 70 69  1  0
 72 70  1  0
 73 82  2  0
 73 78  1  0
 74 70  1  0
 74 78  1  0
 75 74  1  0
 76 77  1  0
 76 75  1  0
 77 73  1  0
 78 79  2  0
 79 80  1  0
 81 80  2  0
 82 81  1  0
 83 57  1  0
 83 84  1  0
 83 93  1  0
 84 87  1  0
 85 89  1  0
 85 84  1  0
 86 85  2  0
 89 88  1  0
 91 89  1  0
 91 92  1  0
 91 90  1  0
 93 96  1  1
 93 94  1  0
 95 93  1  0
 97101  1  0
101100  1  6
101 99  1  0
101 98  1  0
M  ISO  4   2 100  14 100  55 101  56 101
M  END
>  <TORSDO>  (95) 
F 24

>  <SCORE>  (95) 
-8.678

>  <name>  (95) 
94

>  <ligand_id>  (95) 
94

>  <original_smiles>  (95) 
[H]OC([H])(C([H])([H])Oc1c([H])c([H])c2c(c1[H])C([H])([H])N(C(=O)C([H])(N([H])C(=O)C([H])(N([H])C([H])([H])[H])C([H])([H])[H])C(C([H])([H])[H])(C([H])([H])[H])C([H])([H])[H])C([H])(C(=O)N([H])C1([H])c3c([H])c([H])c([H])c([H])c3C([H])([H])C([H])([H])C1([H])[H])C2([H])[H])C([H])([H])[N+]([H])([H])C([H])(c1nc(N([H])C(=O)N2C([H])([H])C([H])([H])C([H])([H])C([H])(n3nc(-c4c([H])c([H])c(Oc5c([H])c([H])c(F)c([H])c5F)c([H])c4[H])c(C(=O)N([H])[H])c3N([H])[H])C2([H])[H])sc1N([H])[H])C([H])([H])C(C([H])([H])[H])(C([H])([H])[H])C([H])([H])[H]

>  <smiles>  (95) 
[H]OC([H])(C([H])([H])Oc1c([H])c([H])c2c(c1[H])C([H])([H])N(C(=O)C([H])(N([H])C(=O)C([H])(N([H])C([H])([H])[H])C([H])([H])[H])C(C([H])([H])[H])(C([H])([H])[H])C([H])([H])[H])C([H])(C(=O)N([H])C1([H])c3c([H])c([H])c([H])c([H])c3C([H])([H])C([H])([H])C1([H])[H])C2([H])[H])C([H])([H])[N+]([H])([H])C([H])(c1nc(N([H])C(=O)N2C([H])([H])C([H])([H])C([H])([H])C([H])(n3nc(-c4c([H])c([H])c(Oc5c([H])c([H])c(F)c([H])c5F)c([H])c4[H])c(C(=O)N([H])[H])c3N([H])[H])C2([H])[H])sc1N([H])[H])C([H])([H])C(C([H])([H])[H])(C([H])([H])[H])C([H])([H])[H]

$$$$
95:0:0
     RDKit          3D

 91 99  0  0  1  0  0  0  0  0999 V2000
  -30.3960  -18.8630   22.0440 C   0  0  0  0  0  3  0  0  0  0  0  0
  -30.0140  -21.1620   22.0850 C   0  0  0  0  0  3  0  0  0  0  0  0
  -29.8910  -18.7570   20.7270 C   0  0  0  0  0  0  0  0  0  0  0  0
  -29.4530  -21.1520   20.7800 C   0  0  0  0  0  0  0  0  0  0  0  0
  -30.4570  -20.0430   22.7140 N   0  0  0  0  0  0  0  0  0  0  0  0
  -29.4100  -19.9230   20.1120 N   0  0  0  0  0  0  0  0  0  0  0  0
  -28.9540  -22.3700   20.1630 N   0  0  0  0  0  0  0  0  0  0  0  0
  -28.5990  -22.2670   19.2180 H   0  0  0  0  0  0  0  0  0  0  0  0
  -27.8810  -23.7700   21.9690 C   0  0  0  0  0  1  0  0  0  0  0  0
  -28.8540  -23.7710   20.7710 C   0  0  0  0  0  3  0  0  0  0  0  0
  -28.4050  -24.9970   19.7940 C   0  0  0  0  0  2  0  0  0  0  0  0
  -28.4420  -26.4480   20.2290 O   0  0  0  0  0  0  0  0  0  0  0  0
  -24.6980  -31.8870   23.2690 C   0  0  0  0  0  0  0  0  0  0  0  0
  -27.3290  -27.3290   20.1510 C   0  0  0  0  0  0  0  0  0  0  0  0
  -23.5090  -30.5050   21.6060 C   0  0  0  0  0  3  0  0  0  0  0  0
  -24.9700  -28.9840   20.1550 C   0  0  0  0  0  0  0  0  0  0  0  0
  -26.0540  -30.8180   21.4460 C   0  0  0  0  0  2  0  0  0  0  0  0
  -26.1370  -29.4470   20.7740 C   0  0  0  0  0  0  0  0  0  0  0  0
  -27.3140  -28.6300   20.7680 C   0  0  0  0  0  3  0  0  0  0  0  0
  -26.1400  -26.9540   19.4820 C   0  0  0  0  0  3  0  0  0  0  0  0
  -24.9780  -27.7470   19.4980 C   0  0  0  0  0  3  0  0  0  0  0  0
  -23.7320  -29.8580   20.2150 C   0  0  0  0  0  2  0  0  0  0  0  0
  -24.7720  -31.0900   22.1620 N   0  0  0  0  0  0  0  0  0  0  0  0
  -23.6100  -32.1540   23.8000 O   0  0  0  0  0  0  0  0  0  0  0  0
  -22.8460  -29.4740   22.5520 C   0  0  0  0  0  0  0  0  0  0  0  0
  -21.5190  -29.2950   22.4240 N   0  0  0  0  0  0  0  0  0  0  0  0
  -23.5270  -28.8350   23.3610 O   0  0  0  0  0  0  0  0  0  0  0  0
  -21.0280  -29.8660   21.7490 H   0  0  0  0  0  0  0  0  0  0  0  0
  -18.1460  -28.0820   22.9130 C   0  0  0  0  0  0  0  0  0  0  0  0
  -20.7040  -28.3430   23.1810 C   0  0  0  0  0  3  0  0  0  0  0  0
  -20.8080  -26.9220   22.5820 C   0  0  0  0  0  2  0  0  0  0  0  0
  -19.7040  -26.6130   21.5640 C   0  0  0  0  0  2  0  0  0  0  0  0
  -18.3240  -26.7440   22.2130 C   0  0  0  0  0  2  0  0  0  0  0  0
  -19.2650  -28.8390   23.3520 C   0  0  0  0  0  0  0  0  0  0  0  0
  -19.0420  -30.0910   23.9670 C   0  0  0  0  0  3  0  0  0  0  0  0
  -17.7360  -30.5840   24.1450 C   0  0  0  0  0  3  0  0  0  0  0  0
  -16.6330  -29.8250   23.7210 C   0  0  0  0  0  3  0  0  0  0  0  0
  -16.8390  -28.5740   23.1100 C   0  0  0  0  0  3  0  0  0  0  0  0
  -25.9740  -32.5200   23.9030 C   0  0  0  0  0  3  0  0  0  0  0  0
  -26.4830  -31.7440   25.1800 C   0  0  1  0  0  0  0  0  0  0  0  0
  -25.3840  -31.5030   26.2410 C   0  0  0  0  0  1  0  0  0  0  0  0
  -27.0690  -30.3670   24.7900 C   0  0  0  0  0  1  0  0  0  0  0  0
  -27.6300  -32.5390   25.8520 C   0  0  0  0  0  1  0  0  0  0  0  0
  -25.6560  -33.9150   24.2430 N   0  0  0  0  0  0  0  0  0  0  0  0
  -25.9870  -34.9790   23.4960 C   0  0  0  0  0  0  0  0  0  0  0  0
  -26.6580  -34.8870   22.4660 O   0  0  0  0  0  0  0  0  0  0  0  0
  -25.0580  -34.0630   25.0410 H   0  0  0  0  0  0  0  0  0  0  0  0
  -24.2520  -36.7710   23.1570 C   0  0  0  0  0  1  0  0  0  0  0  0
  -25.4930  -36.3610   23.9650 C   0  0  0  0  0  3  0  0  0  0  0  0
  -27.6200  -37.2510   24.8090 C   0  0  0  0  0  1  0  0  0  0  0  0
  -26.5220  -37.4180   23.8620 N   0  0  0  0  0  0  0  0  0  0  0  0
  -26.1100  -38.3350   24.0140 H   0  0  0  0  0  0  0  0  0  0  0  0
  -30.0260  -17.3770   19.9290 C   0  0  0  0  0  2  0  0  0  0  0  0
  -30.6680  -14.8480   20.3110 C   0  0  0  0  0  0  0  0  0  0  0  0
  -30.4890  -12.5580   19.3210 C   0  0  0  0  0  2  0  0  0  0  0  0
  -29.5660  -12.6370   18.0840 C   0  0  0  0  0  2  0  0  0  0  0  0
  -28.0910  -12.4600   18.4950 C   0  0  0  0  0  2  0  0  0  0  0  0
  -27.7030  -13.3410   19.7120 C   0  0  0  0  0  3  0  0  0  0  0  0
  -28.7500  -13.2540   20.8450 C   0  0  0  0  0  2  0  0  0  0  0  0
  -30.0550  -13.6120   20.2720 N   0  0  0  0  0  0  0  0  0  0  0  0
  -31.8360  -14.9630   19.9280 O   0  0  0  0  0  0  0  0  0  0  0  0
  -29.8910  -15.9760   20.5450 N   0  0  0  0  0  0  0  0  0  0  0  0
  -28.9760  -15.7790   20.9220 H   0  0  0  0  0  0  0  0  0  0  0  0
  -25.3010  -13.9220   20.4020 C   0  0  0  0  0  0  0  0  0  0  0  0
  -24.2390  -13.1440   20.7770 C   0  0  0  0  0  0  0  0  0  0  0  0
  -24.7150  -11.7970   20.7740 C   0  0  0  0  0  0  0  0  0  0  0  0
  -26.3540  -13.0470   20.1890 N   0  0  0  0  0  0  0  0  0  0  0  0
  -26.0080  -11.7660   20.4760 N   0  0  0  0  0  0  0  0  0  0  0  0
  -23.9960  -10.5330   20.9750 C   0  0  0  0  0  0  0  0  0  0  0  0
  -24.4250   -9.5820   21.9260 C   0  0  0  0  0  3  0  0  0  0  0  0
  -23.7050   -8.3830   22.1200 C   0  0  0  0  0  3  0  0  0  0  0  0
  -22.5410   -8.1250   21.3590 C   0  0  0  0  0  0  0  0  0  0  0  0
  -22.1290   -9.0650   20.3970 C   0  0  0  0  0  3  0  0  0  0  0  0
  -22.8510  -10.2550   20.2010 C   0  0  0  0  0  3  0  0  0  0  0  0
  -21.7920   -6.9760   21.4580 O   0  0  0  0  0  0  0  0  0  0  0  0
  -21.7430   -6.2480   22.6210 C   0  0  0  0  0  0  0  0  0  0  0  0
  -21.3070   -6.8170   23.8380 C   0  0  0  0  0  3  0  0  0  0  0  0
  -21.2020   -6.0150   24.9910 C   0  0  0  0  0  3  0  0  0  0  0  0
  -21.5240   -4.6460   24.9310 C   0  0  0  0  0  0  0  0  0  0  0  0
  -21.9550   -4.0790   23.7200 C   0  0  0  0  0  3  0  0  0  0  0  0
  -22.0630   -4.8780   22.5680 C   0  0  0  0  0  0  0  0  0  0  0  0
  -22.4550   -4.3190   21.3970 F   0  0  0  0  0  0  0  0  0  0  0  0
  -21.4220   -3.8740   26.0380 F   0  0  0  0  0  0  0  0  0  0  0  0
  -22.8360  -13.6140   21.0260 C   0  0  0  0  0  0  0  0  0  0  0  0
  -22.1000  -12.9310   21.8960 N   0  0  0  0  0  0  0  0  0  0  0  0
  -22.3970  -14.6250   20.4810 O   0  0  0  0  0  0  0  0  0  0  0  0
  -22.4670  -12.1140   22.3620 H   0  0  0  0  0  0  0  0  0  0  0  0
  -21.1560  -13.2320   22.0980 H   0  0  0  0  0  0  0  0  0  0  0  0
  -25.4540  -15.2910   20.2050 N   0  0  0  0  0  0  0  0  0  0  0  0
  -24.6770  -15.9360   20.3060 H   0  0  0  0  0  0  0  0  0  0  0  0
  -26.2930  -15.7390   19.8640 H   0  0  0  0  0  0  0  0  0  0  0  0
  1  5  1  0
  2  5  2  0
  3  1  2  0
  4  2  1  0
  6  3  1  0
  6  4  2  0
  7 10  1  0
  7  4  1  0
  8  7  1  0
 10  9  1  0
 11 12  1  0
 11 10  1  0
 13 24  2  0
 14 12  1  0
 14 19  1  0
 15 23  1  0
 15 25  1  0
 16 22  1  0
 16 18  1  0
 17 23  1  0
 18 17  1  0
 19 18  2  0
 20 21  1  0
 20 14  2  0
 21 16  2  0
 22 15  1  0
 23 13  1  0
 25 27  2  0
 26 25  1  0
 28 26  1  0
 29 38  2  0
 29 34  1  0
 30 26  1  0
 30 34  1  0
 31 30  1  0
 32 33  1  0
 32 31  1  0
 33 29  1  0
 34 35  2  0
 35 36  1  0
 37 36  2  0
 38 37  1  0
 39 13  1  0
 39 44  1  0
 39 40  1  0
 40 43  1  1
 40 41  1  0
 42 40  1  0
 44 47  1  0
 45 49  1  0
 45 44  1  0
 46 45  2  0
 49 48  1  0
 51 49  1  0
 51 52  1  0
 51 50  1  0
 53 62  1  0
 53  3  1  0
 54 62  1  0
 55 60  1  0
 56 57  1  0
 56 55  1  0
 58 57  1  0
 58 67  1  0
 58 59  1  0
 60 54  1  0
 60 59  1  0
 61 54  2  0
 62 63  1  0
 64 65  2  0
 65 84  1  0
 66 65  1  0
 66 69  1  0
 67 64  1  0
 67 68  1  0
 68 66  2  0
 69 70  1  0
 70 71  2  0
 72 75  1  0
 72 71  1  0
 73 72  2  0
 74 73  1  0
 74 69  2  0
 75 76  1  0
 76 77  1  0
 77 78  2  0
 79 78  1  0
 79 83  1  0
 80 79  2  0
 81 76  2  0
 81 80  1  0
 82 81  1  0
 84 85  1  0
 85 88  1  0
 85 87  1  0
 86 84  2  0
 89 90  1  0
 89 64  1  0
 91 89  1  0
M  ISO  4  11 101  12 101  54 100  62 100
M  END
>  <TORSDO>  (96) 
F 19

>  <SCORE>  (96) 
-13.645

>  <name>  (96) 
95

>  <ligand_id>  (96) 
95

>  <original_smiles>  (96) 
[H]c1nc([H])c(C([H])([H])N([H])C(=O)N2C([H])([H])C([H])([H])C([H])([H])C([H])(n3nc(-c4c([H])c([H])c(Oc5c([H])c([H])c(F)c([H])c5F)c([H])c4[H])c(C(=O)N([H])[H])c3N([H])[H])C2([H])[H])nc1N([H])C([H])(C([H])([H])[H])C([H])([H])Oc1c([H])c([H])c2c(c1[H])C([H])([H])N(C(=O)C([H])(N([H])C(=O)C([H])(N([H])C([H])([H])[H])C([H])([H])[H])C(C([H])([H])[H])(C([H])([H])[H])C([H])([H])[H])C([H])(C(=O)N([H])C1([H])c3c([H])c([H])c([H])c([H])c3C([H])([H])C([H])([H])C1([H])[H])C2([H])[H]

>  <smiles>  (96) 
[H]c1nc([H])c(C([H])([H])N([H])C(=O)N2C([H])([H])C([H])([H])C([H])([H])C([H])(n3nc(-c4c([H])c([H])c(Oc5c([H])c([H])c(F)c([H])c5F)c([H])c4[H])c(C(=O)N([H])[H])c3N([H])[H])C2([H])[H])nc1N([H])C([H])(C([H])([H])[H])C([H])([H])Oc1c([H])c([H])c2c(c1[H])C([H])([H])N(C(=O)C([H])(N([H])C(=O)C([H])(N([H])C([H])([H])[H])C([H])([H])[H])C(C([H])([H])[H])(C([H])([H])[H])C([H])([H])[H])C([H])(C(=O)N([H])C1([H])c3c([H])c([H])c([H])c([H])c3C([H])([H])C([H])([H])C1([H])[H])C2([H])[H]

$$$$
96:0:0
     RDKit          3D

 89 97  0  0  1  0  0  0  0  0999 V2000
  -29.5490  -18.7540   20.3260 C   0  0  0  0  0  3  0  0  0  0  0  0
  -28.9910  -21.0180   20.2850 C   0  0  0  0  0  0  0  0  0  0  0  0
  -29.6800  -19.9970   20.9050 N   0  0  0  0  0  0  0  0  0  0  0  0
  -28.2720  -20.6540   19.2130 N   0  0  0  0  0  2  0  0  0  0  0  0
  -28.9970  -22.3900   20.7500 N   0  0  0  0  0  0  0  0  0  0  0  0
  -28.4540  -18.9650   18.9690 S   0  0  0  0  0  0  0  0  0  0  0  0
  -29.5720  -22.5390   21.5740 H   0  0  0  0  0  0  0  0  0  0  0  0
  -30.3650  -17.4160   20.6740 C   0  0  0  0  0  2  0  0  0  0  0  0
  -30.5790  -14.8160   20.3450 C   0  0  0  0  0  0  0  0  0  0  0  0
  -30.3660  -12.5450   19.3100 C   0  0  0  0  0  2  0  0  0  0  0  0
  -29.4130  -12.6010   18.0960 C   0  0  0  0  0  2  0  0  0  0  0  0
  -27.9520  -12.4150   18.5480 C   0  0  0  0  0  2  0  0  0  0  0  0
  -27.5850  -13.3040   19.7660 C   0  0  0  0  0  3  0  0  0  0  0  0
  -28.6560  -13.2300   20.8740 C   0  0  0  0  0  2  0  0  0  0  0  0
  -29.9370  -13.5970   20.2620 N   0  0  0  0  0  0  0  0  0  0  0  0
  -31.7710  -14.8900   20.0330 O   0  0  0  0  0  0  0  0  0  0  0  0
  -29.8420  -15.9750   20.5750 N   0  0  0  0  0  0  0  0  0  0  0  0
  -28.8600  -15.8490   20.7650 H   0  0  0  0  0  0  0  0  0  0  0  0
  -25.2040  -13.8830   20.5220 C   0  0  0  0  0  0  0  0  0  0  0  0
  -24.1450  -13.1040   20.8980 C   0  0  0  0  0  0  0  0  0  0  0  0
  -24.6130  -11.7550   20.8580 C   0  0  0  0  0  0  0  0  0  0  0  0
  -26.2490  -13.0080   20.2720 N   0  0  0  0  0  0  0  0  0  0  0  0
  -25.9010  -11.7220   20.5390 N   0  0  0  0  0  0  0  0  0  0  0  0
  -23.8920  -10.4880   21.0460 C   0  0  0  0  0  0  0  0  0  0  0  0
  -24.3310   -9.5210   21.9770 C   0  0  0  0  0  3  0  0  0  0  0  0
  -23.6100   -8.3200   22.1540 C   0  0  0  0  0  3  0  0  0  0  0  0
  -22.4360   -8.0790   21.4010 C   0  0  0  0  0  0  0  0  0  0  0  0
  -22.0180   -9.0350   20.4600 C   0  0  0  0  0  3  0  0  0  0  0  0
  -22.7390  -10.2270   20.2810 C   0  0  0  0  0  3  0  0  0  0  0  0
  -21.6870   -6.9300   21.4890 O   0  0  0  0  0  0  0  0  0  0  0  0
  -21.6370   -6.1890   22.6420 C   0  0  0  0  0  0  0  0  0  0  0  0
  -21.1950   -6.7410   23.8640 C   0  0  0  0  0  3  0  0  0  0  0  0
  -21.0940   -5.9250   25.0080 C   0  0  0  0  0  3  0  0  0  0  0  0
  -21.4240   -4.5590   24.9330 C   0  0  0  0  0  0  0  0  0  0  0  0
  -21.8600   -4.0080   23.7150 C   0  0  0  0  0  3  0  0  0  0  0  0
  -21.9640   -4.8200   22.5720 C   0  0  0  0  0  0  0  0  0  0  0  0
  -22.3630   -4.2780   21.3960 F   0  0  0  0  0  0  0  0  0  0  0  0
  -21.3200   -3.7740   26.0300 F   0  0  0  0  0  0  0  0  0  0  0  0
  -22.7480  -13.5750   21.1800 C   0  0  0  0  0  0  0  0  0  0  0  0
  -22.0260  -12.8680   22.0410 N   0  0  0  0  0  0  0  0  0  0  0  0
  -22.3060  -14.6040   20.6720 O   0  0  0  0  0  0  0  0  0  0  0  0
  -22.3970  -12.0350   22.4740 H   0  0  0  0  0  0  0  0  0  0  0  0
  -21.0880  -13.1640   22.2730 H   0  0  0  0  0  0  0  0  0  0  0  0
  -25.3620  -15.2550   20.3470 N   0  0  0  0  0  0  0  0  0  0  0  0
  -24.5890  -15.9030   20.4580 H   0  0  0  0  0  0  0  0  0  0  0  0
  -26.1950  -15.6930   19.9770 H   0  0  0  0  0  0  0  0  0  0  0  0
  -28.6490  -23.6610   19.9790 C   0  0  0  0  0  2  0  0  0  0  0  0
  -28.2350  -25.0100   20.8050 C   0  0  0  0  0  2  0  0  0  0  0  0
  -28.3730  -26.4190   20.2810 O   0  0  0  0  0  0  0  0  0  0  0  0
  -24.6060  -31.9030   23.2560 C   0  0  0  0  0  0  0  0  0  0  0  0
  -27.2620  -27.2930   20.2720 C   0  0  0  0  0  0  0  0  0  0  0  0
  -23.4260  -30.4890   21.6100 C   0  0  0  0  0  3  0  0  0  0  0  0
  -24.9000  -28.9270   20.2110 C   0  0  0  0  0  0  0  0  0  0  0  0
  -25.9690  -30.8090   21.4510 C   0  0  0  0  0  2  0  0  0  0  0  0
  -26.0630  -29.4210   20.8170 C   0  0  0  0  0  0  0  0  0  0  0  0
  -27.2500  -28.6190   20.8290 C   0  0  0  0  0  3  0  0  0  0  0  0
  -26.0750  -26.8600   19.6490 C   0  0  0  0  0  3  0  0  0  0  0  0
  -24.9110  -27.6560   19.6150 C   0  0  0  0  0  3  0  0  0  0  0  0
  -23.6590  -29.8010   20.2380 C   0  0  0  0  0  2  0  0  0  0  0  0
  -24.6860  -31.0860   22.1620 N   0  0  0  0  0  0  0  0  0  0  0  0
  -23.5160  -32.1780   23.7770 O   0  0  0  0  0  0  0  0  0  0  0  0
  -22.7550  -29.4790   22.5710 C   0  0  0  0  0  0  0  0  0  0  0  0
  -21.4310  -29.2980   22.4350 N   0  0  0  0  0  0  0  0  0  0  0  0
  -23.4280  -28.8590   23.3990 O   0  0  0  0  0  0  0  0  0  0  0  0
  -20.9460  -29.8510   21.7410 H   0  0  0  0  0  0  0  0  0  0  0  0
  -18.0490  -28.1050   22.9230 C   0  0  0  0  0  0  0  0  0  0  0  0
  -20.6070  -28.3620   23.2030 C   0  0  0  0  0  3  0  0  0  0  0  0
  -20.7090  -26.9300   22.6280 C   0  0  0  0  0  2  0  0  0  0  0  0
  -19.6110  -26.6090   21.6090 C   0  0  0  0  0  2  0  0  0  0  0  0
  -18.2270  -26.7560   22.2470 C   0  0  0  0  0  2  0  0  0  0  0  0
  -19.1670  -28.8670   23.3570 C   0  0  0  0  0  0  0  0  0  0  0  0
  -18.9460  -30.1290   23.9480 C   0  0  0  0  0  3  0  0  0  0  0  0
  -17.6410  -30.6300   24.1090 C   0  0  0  0  0  3  0  0  0  0  0  0
  -16.5380  -29.8660   23.6900 C   0  0  0  0  0  3  0  0  0  0  0  0
  -16.7430  -28.6050   23.1030 C   0  0  0  0  0  3  0  0  0  0  0  0
  -25.8780  -32.5460   23.8880 C   0  0  0  0  0  3  0  0  0  0  0  0
  -26.3750  -31.7930   25.1840 C   0  0  1  0  0  0  0  0  0  0  0  0
  -25.2660  -31.5720   26.2390 C   0  0  0  0  0  1  0  0  0  0  0  0
  -26.9630  -30.4100   24.8220 C   0  0  0  0  0  1  0  0  0  0  0  0
  -27.5140  -32.5970   25.8540 C   0  0  0  0  0  1  0  0  0  0  0  0
  -25.5630  -33.9480   24.1970 N   0  0  0  0  0  0  0  0  0  0  0  0
  -25.9070  -34.9940   23.4340 C   0  0  0  0  0  0  0  0  0  0  0  0
  -26.5930  -34.8800   22.4140 O   0  0  0  0  0  0  0  0  0  0  0  0
  -24.9580  -34.1110   24.9890 H   0  0  0  0  0  0  0  0  0  0  0  0
  -24.1910  -36.7880   23.0300 C   0  0  0  0  0  1  0  0  0  0  0  0
  -25.4130  -36.3870   23.8710 C   0  0  0  0  0  3  0  0  0  0  0  0
  -27.5290  -37.2760   24.7440 C   0  0  0  0  0  1  0  0  0  0  0  0
  -26.4500  -37.4380   23.7720 N   0  0  0  0  0  0  0  0  0  0  0  0
  -26.0410  -38.3590   23.9050 H   0  0  0  0  0  0  0  0  0  0  0  0
  1  8  1  0
  1  3  1  0
  2  5  1  0
  2  3  2  0
  4  2  1  0
  5  7  1  0
  6  4  1  0
  6  1  1  0
  9 17  1  0
 10 15  1  0
 11 12  1  0
 11 10  1  0
 13 12  1  0
 13 22  1  0
 13 14  1  0
 15  9  1  0
 15 14  1  0
 16  9  2  0
 17  8  1  0
 17 18  1  0
 19 20  2  0
 20 39  1  0
 21 20  1  0
 21 24  1  0
 22 19  1  0
 22 23  1  0
 23 21  2  0
 24 25  1  0
 25 26  2  0
 27 30  1  0
 27 26  1  0
 28 27  2  0
 29 28  1  0
 29 24  2  0
 30 31  1  0
 31 32  1  0
 32 33  2  0
 34 33  1  0
 34 38  1  0
 35 34  2  0
 36 31  2  0
 36 35  1  0
 37 36  1  0
 39 40  1  0
 40 43  1  0
 40 42  1  0
 41 39  2  0
 44 45  1  0
 44 19  1  0
 46 44  1  0
 47  5  1  0
 47 48  1  0
 49 48  1  0
 50 61  2  0
 51 49  1  0
 51 56  1  0
 52 60  1  0
 52 62  1  0
 53 59  1  0
 53 55  1  0
 54 60  1  0
 55 56  2  0
 55 54  1  0
 57 51  2  0
 58 57  1  0
 58 53  2  0
 59 52  1  0
 60 50  1  0
 62 64  2  0
 63 62  1  0
 65 63  1  0
 66 75  2  0
 66 71  1  0
 67 63  1  0
 67 71  1  0
 68 67  1  0
 69 70  1  0
 69 68  1  0
 70 66  1  0
 71 72  2  0
 72 73  1  0
 74 73  2  0
 75 74  1  0
 76 50  1  0
 76 81  1  0
 76 77  1  0
 77 80  1  1
 77 78  1  0
 79 77  1  0
 81 84  1  0
 82 86  1  0
 82 81  1  0
 83 82  2  0
 86 85  1  0
 88 86  1  0
 88 89  1  0
 88 87  1  0
M  ISO  4   9 100  17 100  48 101  49 101
M  END
>  <TORSDO>  (97) 
F 19

>  <SCORE>  (97) 
-14.249

>  <name>  (97) 
96

>  <ligand_id>  (97) 
96

>  <original_smiles>  (97) 
[H]c1c([H])c([H])c2c(c1[H])C([H])([H])C([H])([H])C([H])([H])C2([H])N([H])C(=O)C1([H])N(C(=O)C([H])(N([H])C(=O)C([H])(N([H])C([H])([H])[H])C([H])([H])[H])C(C([H])([H])[H])(C([H])([H])[H])C([H])([H])[H])C([H])([H])c2c([H])c(OC([H])([H])C([H])([H])N([H])c3nsc(C([H])([H])N([H])C(=O)N4C([H])([H])C([H])([H])C([H])([H])C([H])(n5nc(-c6c([H])c([H])c(Oc7c([H])c([H])c(F)c([H])c7F)c([H])c6[H])c(C(=O)N([H])[H])c5N([H])[H])C4([H])[H])n3)c([H])c([H])c2C1([H])[H]

>  <smiles>  (97) 
[H]c1c([H])c([H])c2c(c1[H])C([H])([H])C([H])([H])C([H])([H])C2([H])N([H])C(=O)C1([H])N(C(=O)C([H])(N([H])C(=O)C([H])(N([H])C([H])([H])[H])C([H])([H])[H])C(C([H])([H])[H])(C([H])([H])[H])C([H])([H])[H])C([H])([H])c2c([H])c(OC([H])([H])C([H])([H])N([H])c3nsc(C([H])([H])N([H])C(=O)N4C([H])([H])C([H])([H])C([H])([H])C([H])(n5nc(-c6c([H])c([H])c(Oc7c([H])c([H])c(F)c([H])c7F)c([H])c6[H])c(C(=O)N([H])[H])c5N([H])[H])C4([H])[H])n3)c([H])c([H])c2C1([H])[H]

$$$$
