0:0:0
     RDKit          3D

 94102  0  0  1  0  0  0  0  0999 V2000
  -30.3210  -23.2240   20.5970 C   0  0  0  0  0  3  0  0  0  0  0  0
  -31.6470  -23.2320   20.4670 F   0  0  0  0  0  0  0  0  0  0  0  0
  -30.1630  -18.5600   21.8510 C   0  0  0  0  0  3  0  0  0  0  0  0
  -30.4350  -18.3700   20.5180 C   0  0  0  0  0  0  0  0  0  0  0  0
  -29.9860  -20.6390   20.5220 C   0  0  0  0  0  0  0  0  0  0  0  0
  -30.2930  -19.5640   19.7780 N   0  0  0  0  0  0  0  0  0  0  0  0
  -29.8750  -21.9470   20.0290 N   0  0  0  0  0  0  0  0  0  0  0  0
  -29.7920  -20.2340   22.2240 S   0  0  0  0  0  0  0  0  0  0  0  0
  -29.9600  -21.9450   19.0200 H   0  0  0  0  0  0  0  0  0  0  0  0
  -30.9290  -17.1130   19.8210 C   0  0  0  0  0  2  0  0  0  0  0  0
  -31.1910  -14.6650   20.0060 C   0  0  0  0  0  0  0  0  0  0  0  0
  -30.7700  -12.5260   18.8690 C   0  0  0  0  0  2  0  0  0  0  0  0
  -29.7590  -12.7740   17.7290 C   0  0  0  0  0  2  0  0  0  0  0  0
  -28.3150  -12.6370   18.2480 C   0  0  0  0  0  2  0  0  0  0  0  0
  -28.0650  -13.4350   19.5550 C   0  0  0  0  0  3  0  0  0  0  0  0
  -29.1980  -13.2140   20.5870 C   0  0  0  0  0  2  0  0  0  0  0  0
  -30.4780  -13.5070   19.9270 N   0  0  0  0  0  0  0  0  0  0  0  0
  -32.3310  -14.7600   19.5420 O   0  0  0  0  0  0  0  0  0  0  0  0
  -30.5150  -15.7850   20.3410 N   0  0  0  0  0  0  0  0  0  0  0  0
  -29.5710  -15.6850   20.6820 H   0  0  0  0  0  0  0  0  0  0  0  0
  -25.7390  -14.0180   20.4810 C   0  0  0  0  0  0  0  0  0  0  0  0
  -24.6870  -13.2380   20.8810 C   0  0  0  0  0  0  0  0  0  0  0  0
  -25.1250  -11.8850   20.7420 C   0  0  0  0  0  0  0  0  0  0  0  0
  -26.7490  -13.1410   20.1220 N   0  0  0  0  0  0  0  0  0  0  0  0
  -26.3890  -11.8500   20.3400 N   0  0  0  0  0  0  0  0  0  0  0  0
  -24.3920  -10.6220   20.9140 C   0  0  0  0  0  0  0  0  0  0  0  0
  -24.7840   -9.6690   21.8790 C   0  0  0  0  0  3  0  0  0  0  0  0
  -24.0550   -8.4690   22.0380 C   0  0  0  0  0  3  0  0  0  0  0  0
  -22.9200   -8.2170   21.2300 C   0  0  0  0  0  0  0  0  0  0  0  0
  -22.5490   -9.1590   20.2550 C   0  0  0  0  0  3  0  0  0  0  0  0
  -23.2790  -10.3490   20.0950 C   0  0  0  0  0  3  0  0  0  0  0  0
  -22.1650   -7.0690   21.2990 O   0  0  0  0  0  0  0  0  0  0  0  0
  -21.9450   -6.4200   22.4880 C   0  0  0  0  0  0  0  0  0  0  0  0
  -21.3000   -7.0520   23.5740 C   0  0  0  0  0  3  0  0  0  0  0  0
  -21.0330   -6.3270   24.7520 C   0  0  0  0  0  3  0  0  0  0  0  0
  -21.3990   -4.9710   24.8450 C   0  0  0  0  0  0  0  0  0  0  0  0
  -22.0370   -4.3390   23.7630 C   0  0  0  0  0  3  0  0  0  0  0  0
  -22.3060   -5.0610   22.5870 C   0  0  0  0  0  0  0  0  0  0  0  0
  -22.9040   -4.4410   21.5410 F   0  0  0  0  0  0  0  0  0  0  0  0
  -21.1340   -4.2720   25.9730 F   0  0  0  0  0  0  0  0  0  0  0  0
  -23.3200  -13.7150   21.2780 C   0  0  0  0  0  0  0  0  0  0  0  0
  -22.6460  -12.9890   22.1640 N   0  0  0  0  0  0  0  0  0  0  0  0
  -22.8570  -14.7670   20.8340 O   0  0  0  0  0  0  0  0  0  0  0  0
  -23.0360  -12.1430   22.5530 H   0  0  0  0  0  0  0  0  0  0  0  0
  -21.7260  -13.2850   22.4570 H   0  0  0  0  0  0  0  0  0  0  0  0
  -25.9160  -15.3950   20.3710 N   0  0  0  0  0  0  0  0  0  0  0  0
  -25.1730  -16.0570   20.5730 H   0  0  0  0  0  0  0  0  0  0  0  0
  -26.7390  -15.8360   19.9820 H   0  0  0  0  0  0  0  0  0  0  0  0
  -29.8120  -24.5600   19.9260 C   0  0  0  0  0  2  0  0  0  0  0  0
  -28.4900  -25.2660   20.4010 C   0  0  0  0  0  3  0  0  0  0  0  0
  -29.1490  -25.8470   22.8350 C   0  0  0  0  0  1  0  0  0  0  0  0
  -26.7390  -25.2320   22.3470 C   0  0  0  0  0  1  0  0  0  0  0  0
  -28.2050  -25.0440   21.9220 C   0  0  0  0  0  3  0  0  0  0  0  0
  -28.5680  -26.6910   20.0510 O   0  0  0  0  0  0  0  0  0  0  0  0
  -24.6350  -31.7770   23.1840 C   0  0  0  0  0  0  0  0  0  0  0  0
  -27.4070  -27.4530   19.9930 C   0  0  0  0  0  0  0  0  0  0  0  0
  -23.4800  -30.3970   21.4890 C   0  0  0  0  0  3  0  0  0  0  0  0
  -24.9860  -28.9430   20.0200 C   0  0  0  0  0  0  0  0  0  0  0  0
  -26.0010  -30.8100   21.3330 C   0  0  0  0  0  2  0  0  0  0  0  0
  -26.1280  -29.4620   20.6430 C   0  0  0  0  0  0  0  0  0  0  0  0
  -27.3400  -28.7250   20.6260 C   0  0  0  0  0  3  0  0  0  0  0  0
  -26.2530  -26.9820   19.3270 C   0  0  0  0  0  3  0  0  0  0  0  0
  -25.0490  -27.7060   19.3560 C   0  0  0  0  0  3  0  0  0  0  0  0
  -23.7210  -29.7680   20.0890 C   0  0  0  0  0  2  0  0  0  0  0  0
  -24.7230  -31.0080   22.0600 N   0  0  0  0  0  0  0  0  0  0  0  0
  -23.5410  -32.0090   23.7200 O   0  0  0  0  0  0  0  0  0  0  0  0
  -22.8450  -29.3330   22.4110 C   0  0  0  0  0  0  0  0  0  0  0  0
  -21.5300  -29.1050   22.2490 N   0  0  0  0  0  0  0  0  0  0  0  0
  -23.5300  -28.7150   23.2300 O   0  0  0  0  0  0  0  0  0  0  0  0
  -21.0330  -29.6560   21.5620 H   0  0  0  0  0  0  0  0  0  0  0  0
  -18.1920  -27.7890   22.6660 C   0  0  0  0  0  0  0  0  0  0  0  0
  -20.7350  -28.1220   22.9820 C   0  0  0  0  0  3  0  0  0  0  0  0
  -20.8910  -26.7120   22.3690 C   0  0  0  0  0  2  0  0  0  0  0  0
  -19.8150  -26.3830   21.3280 C   0  0  0  0  0  2  0  0  0  0  0  0
  -18.4210  -26.4650   21.9550 C   0  0  0  0  0  2  0  0  0  0  0  0
  -19.2770  -28.5740   23.1350 C   0  0  0  0  0  0  0  0  0  0  0  0
  -19.0080  -29.8120   23.7560 C   0  0  0  0  0  3  0  0  0  0  0  0
  -17.6850  -30.2660   23.9140 C   0  0  0  0  0  3  0  0  0  0  0  0
  -16.6130  -29.4780   23.4600 C   0  0  0  0  0  3  0  0  0  0  0  0
  -16.8680  -28.2410   22.8410 C   0  0  0  0  0  3  0  0  0  0  0  0
  -25.8990  -32.4230   23.8330 C   0  0  0  0  0  3  0  0  0  0  0  0
  -25.5690  -33.8150   24.1610 N   0  0  0  0  0  0  0  0  0  0  0  0
  -25.9090  -34.8740   23.4150 C   0  0  0  0  0  0  0  0  0  0  0  0
  -26.6060  -34.7820   22.4000 O   0  0  0  0  0  0  0  0  0  0  0  0
  -24.9500  -33.9610   24.9460 H   0  0  0  0  0  0  0  0  0  0  0  0
  -24.1830  -36.6560   23.0090 C   0  0  0  0  0  1  0  0  0  0  0  0
  -25.3940  -36.2530   23.8660 C   0  0  0  0  0  3  0  0  0  0  0  0
  -27.4790  -37.1540   24.8000 C   0  0  0  0  0  1  0  0  0  0  0  0
  -26.4230  -37.3150   23.8040 N   0  0  0  0  0  0  0  0  0  0  0  0
  -26.0020  -38.2310   23.9330 H   0  0  0  0  0  0  0  0  0  0  0  0
  -26.3990  -31.6520   25.1160 C   0  0  1  0  0  0  0  0  0  0  0  0
  -25.2840  -31.3920   26.1560 C   0  0  0  0  0  1  0  0  0  0  0  0
  -27.0140  -30.2870   24.7300 C   0  0  0  0  0  1  0  0  0  0  0  0
  -27.5190  -32.4620   25.8110 C   0  0  0  0  0  1  0  0  0  0  0  0
  1  2  1  0
  3  8  1  0
  4  3  2  0
  5  8  1  0
  6  4  1  0
  6  5  2  0
  7  5  1  0
  7  1  1  0
  9  7  1  0
 10 19  1  0
 10  4  1  0
 11 19  1  0
 12 17  1  0
 13 14  1  0
 13 12  1  0
 15 14  1  0
 15 24  1  0
 15 16  1  0
 17 11  1  0
 17 16  1  0
 18 11  2  0
 19 20  1  0
 21 22  2  0
 22 41  1  0
 23 22  1  0
 23 26  1  0
 24 25  1  0
 24 21  1  0
 25 23  2  0
 26 27  1  0
 27 28  2  0
 29 32  1  0
 29 28  1  0
 30 29  2  0
 31 30  1  0
 31 26  2  0
 32 33  1  0
 33 38  2  0
 33 34  1  0
 34 35  2  0
 35 36  1  0
 36 40  1  0
 37 36  2  0
 38 37  1  0
 39 38  1  0
 41 42  1  0
 42 45  1  0
 42 44  1  0
 43 41  2  0
 46 21  1  0
 46 47  1  0
 48 46  1  0
 49  1  1  0
 50 49  1  0
 50 53  1  0
 53 52  1  0
 53 51  1  0
 54 50  1  0
 55 66  2  0
 56 54  1  0
 56 61  1  0
 57 65  1  0
 57 67  1  0
 58 64  1  0
 58 60  1  0
 59 65  1  0
 60 59  1  0
 61 60  2  0
 62 63  1  0
 62 56  2  0
 63 58  2  0
 64 57  1  0
 65 55  1  0
 67 69  2  0
 68 67  1  0
 70 68  1  0
 71 80  2  0
 71 76  1  0
 72 68  1  0
 72 76  1  0
 73 72  1  0
 74 75  1  0
 74 73  1  0
 75 71  1  0
 76 77  2  0
 77 78  1  0
 79 78  2  0
 80 79  1  0
 81 55  1  0
 81 82  1  0
 81 91  1  0
 82 85  1  0
 83 87  1  0
 83 82  1  0
 84 83  2  0
 87 86  1  0
 89 87  1  0
 89 90  1  0
 89 88  1  0
 91 94  1  1
 91 92  1  0
 93 91  1  0
M  ISO  4  11 100  19 100  50 101  54 101
M  END
>  <TORSDO>  (1) 
F 21

>  <SCORE>  (1) 
-12.008

>  <name>  (1) 
0

>  <ligand_id>  (1) 
0

>  <original_smiles>  (1) 
[H]c1sc(N([H])C([H])(F)C([H])([H])C([H])(Oc2c([H])c([H])c3c(c2[H])C([H])([H])N(C(=O)C([H])(N([H])C(=O)C([H])(N([H])C([H])([H])[H])C([H])([H])[H])C(C([H])([H])[H])(C([H])([H])[H])C([H])([H])[H])C([H])(C(=O)N([H])C2([H])c4c([H])c([H])c([H])c([H])c4C([H])([H])C([H])([H])C2([H])[H])C3([H])[H])C([H])(C([H])([H])[H])C([H])([H])[H])nc1C([H])([H])N([H])C(=O)N1C([H])([H])C([H])([H])C([H])([H])C([H])(n2nc(-c3c([H])c([H])c(Oc4c([H])c([H])c(F)c([H])c4F)c([H])c3[H])c(C(=O)N([H])[H])c2N([H])[H])C1([H])[H]

>  <smiles>  (1) 
[H]c1sc(N([H])C([H])(F)C([H])([H])C([H])(Oc2c([H])c([H])c3c(c2[H])C([H])([H])N(C(=O)C([H])(N([H])C(=O)C([H])(N([H])C([H])([H])[H])C([H])([H])[H])C(C([H])([H])[H])(C([H])([H])[H])C([H])([H])[H])C([H])(C(=O)N([H])C2([H])c4c([H])c([H])c([H])c([H])c4C([H])([H])C([H])([H])C2([H])[H])C3([H])[H])C([H])(C([H])([H])[H])C([H])([H])[H])nc1C([H])([H])N([H])C(=O)N1C([H])([H])C([H])([H])C([H])([H])C([H])(n2nc(-c3c([H])c([H])c(Oc4c([H])c([H])c(F)c([H])c4F)c([H])c3[H])c(C(=O)N([H])[H])c2N([H])[H])C1([H])[H]

$$$$
1:0:0
     RDKit          3D

 93101  0  0  1  0  0  0  0  0999 V2000
  -28.7820  -21.5300   20.0220 C   0  0  0  0  0  2  0  0  0  0  0  0
  -30.6560  -14.5670   20.6160 C   0  0  0  0  0  0  0  0  0  0  0  0
  -30.4300  -12.3600   19.5490 C   0  0  0  0  0  2  0  0  0  0  0  0
  -29.5410  -12.5430   18.3010 C   0  0  0  0  0  2  0  0  0  0  0  0
  -28.0490  -12.4080   18.6690 C   0  0  0  0  0  2  0  0  0  0  0  0
  -27.6540  -13.2620   19.9050 C   0  0  0  0  0  3  0  0  0  0  0  0
  -28.6680  -13.0730   21.0580 C   0  0  0  0  0  2  0  0  0  0  0  0
  -30.0100  -13.3680   20.5380 N   0  0  0  0  0  0  0  0  0  0  0  0
  -31.8380  -14.6990   20.2700 O   0  0  0  0  0  0  0  0  0  0  0  0
  -29.2620  -19.0140   18.7060 C   0  0  0  0  0  3  0  0  0  0  0  0
  -29.6200  -17.7970   18.1280 C   0  0  0  0  0  3  0  0  0  0  0  0
  -29.1870  -19.0650   20.1000 C   0  0  0  0  0  0  0  0  0  0  0  0
  -29.7540  -16.8150   20.1990 C   0  0  0  0  0  0  0  0  0  0  0  0
  -29.8530  -16.7080   18.8750 N   0  0  0  0  0  0  0  0  0  0  0  0
  -29.4170  -17.9510   20.8410 N   0  0  0  0  0  0  0  0  0  0  0  0
  -28.8690  -20.2610   20.7690 N   0  0  0  0  0  0  0  0  0  0  0  0
  -29.8890  -15.6430   20.9320 N   0  0  0  0  0  0  0  0  0  0  0  0
  -29.1190  -20.3370   21.7510 H   0  0  0  0  0  0  0  0  0  0  0  0
  -29.0910  -15.4340   21.5060 H   0  0  0  0  0  0  0  0  0  0  0  0
  -25.2270  -13.8650   20.5110 C   0  0  0  0  0  0  0  0  0  0  0  0
  -24.1480  -13.0910   20.8500 C   0  0  0  0  0  0  0  0  0  0  0  0
  -24.6180  -11.7420   20.8590 C   0  0  0  0  0  0  0  0  0  0  0  0
  -26.2840  -12.9860   20.3340 N   0  0  0  0  0  0  0  0  0  0  0  0
  -25.9190  -11.7060   20.6020 N   0  0  0  0  0  0  0  0  0  0  0  0
  -23.8890  -10.4770   21.0390 C   0  0  0  0  0  0  0  0  0  0  0  0
  -24.2920   -9.5250   22.0020 C   0  0  0  0  0  3  0  0  0  0  0  0
  -23.5670   -8.3270   22.1700 C   0  0  0  0  0  3  0  0  0  0  0  0
  -22.4250   -8.0700   21.3750 C   0  0  0  0  0  0  0  0  0  0  0  0
  -22.0430   -9.0080   20.3990 C   0  0  0  0  0  3  0  0  0  0  0  0
  -22.7690  -10.1990   20.2300 C   0  0  0  0  0  3  0  0  0  0  0  0
  -21.6730   -6.9230   21.4510 O   0  0  0  0  0  0  0  0  0  0  0  0
  -21.5830   -6.1970   22.6120 C   0  0  0  0  0  0  0  0  0  0  0  0
  -21.0910   -6.7630   23.8090 C   0  0  0  0  0  3  0  0  0  0  0  0
  -20.9500   -5.9630   24.9600 C   0  0  0  0  0  3  0  0  0  0  0  0
  -21.2870   -4.5970   24.9160 C   0  0  0  0  0  0  0  0  0  0  0  0
  -21.7700   -4.0300   23.7240 C   0  0  0  0  0  3  0  0  0  0  0  0
  -21.9140   -4.8270   22.5750 C   0  0  0  0  0  0  0  0  0  0  0  0
  -22.3600   -4.2710   21.4220 F   0  0  0  0  0  0  0  0  0  0  0  0
  -21.1440   -3.8260   26.0180 F   0  0  0  0  0  0  0  0  0  0  0  0
  -22.7390  -13.5620   21.0620 C   0  0  0  0  0  0  0  0  0  0  0  0
  -21.9770  -12.8720   21.9040 N   0  0  0  0  0  0  0  0  0  0  0  0
  -22.3160  -14.5770   20.5110 O   0  0  0  0  0  0  0  0  0  0  0  0
  -22.3260  -12.0490   22.3740 H   0  0  0  0  0  0  0  0  0  0  0  0
  -21.0280  -13.1700   22.0840 H   0  0  0  0  0  0  0  0  0  0  0  0
  -25.3910  -15.2330   20.3190 N   0  0  0  0  0  0  0  0  0  0  0  0
  -24.6210  -15.8890   20.3930 H   0  0  0  0  0  0  0  0  0  0  0  0
  -26.2440  -15.6660   19.9910 H   0  0  0  0  0  0  0  0  0  0  0  0
  -28.6180  -22.7900   20.9160 C   0  0  0  0  0  3  0  0  0  0  0  0
  -29.7290  -22.7870   21.7970 O   0  0  0  0  0  0  0  0  0  0  0  0
  -29.6670  -23.5540   22.3570 H   0  0  0  0  0  0  0  0  0  0  0  0
  -28.5930  -24.1330   20.1130 C   0  0  0  0  0  2  0  0  0  0  0  0
  -28.1470  -25.3870   20.9190 C   0  0  0  0  0  2  0  0  0  0  0  0
  -28.3160  -26.6490   20.2260 O   0  0  0  0  0  0  0  0  0  0  0  0
  -24.5640  -31.9040   23.2500 C   0  0  0  0  0  0  0  0  0  0  0  0
  -27.1880  -27.4410   20.1870 C   0  0  0  0  0  0  0  0  0  0  0  0
  -23.3590  -30.4980   21.6140 C   0  0  0  0  0  3  0  0  0  0  0  0
  -24.8100  -28.9670   20.1810 C   0  0  0  0  0  0  0  0  0  0  0  0
  -25.8840  -30.8630   21.4030 C   0  0  0  0  0  2  0  0  0  0  0  0
  -25.9730  -29.4910   20.7620 C   0  0  0  0  0  0  0  0  0  0  0  0
  -27.1720  -28.7400   20.7540 C   0  0  0  0  0  3  0  0  0  0  0  0
  -26.0130  -26.9400   19.5920 C   0  0  0  0  0  3  0  0  0  0  0  0
  -24.8260  -27.6930   19.5890 C   0  0  0  0  0  3  0  0  0  0  0  0
  -23.5650  -29.8220   20.2330 C   0  0  0  0  0  2  0  0  0  0  0  0
  -24.6230  -31.1030   22.1470 N   0  0  0  0  0  0  0  0  0  0  0  0
  -23.4830  -32.1740   23.7920 O   0  0  0  0  0  0  0  0  0  0  0  0
  -22.7110  -29.4750   22.5750 C   0  0  0  0  0  0  0  0  0  0  0  0
  -21.3880  -29.2850   22.4440 N   0  0  0  0  0  0  0  0  0  0  0  0
  -23.3950  -28.8550   23.3940 O   0  0  0  0  0  0  0  0  0  0  0  0
  -20.8980  -29.8330   21.7510 H   0  0  0  0  0  0  0  0  0  0  0  0
  -18.0180  -28.0730   22.9320 C   0  0  0  0  0  0  0  0  0  0  0  0
  -20.5730  -28.3460   23.2140 C   0  0  0  0  0  3  0  0  0  0  0  0
  -20.6870  -26.9150   22.6410 C   0  0  0  0  0  2  0  0  0  0  0  0
  -19.5900  -26.5830   21.6250 C   0  0  0  0  0  2  0  0  0  0  0  0
  -18.2050  -26.7220   22.2630 C   0  0  0  0  0  2  0  0  0  0  0  0
  -19.1310  -28.8420   23.3660 C   0  0  0  0  0  0  0  0  0  0  0  0
  -18.9040  -30.1060   23.9510 C   0  0  0  0  0  3  0  0  0  0  0  0
  -17.5970  -30.6020   24.1110 C   0  0  0  0  0  3  0  0  0  0  0  0
  -16.4980  -29.8310   23.6940 C   0  0  0  0  0  3  0  0  0  0  0  0
  -16.7090  -28.5690   23.1100 C   0  0  0  0  0  3  0  0  0  0  0  0
  -25.8490  -32.5380   23.8690 C   0  0  0  0  0  3  0  0  0  0  0  0
  -26.3610  -31.7760   25.1530 C   0  0  1  0  0  0  0  0  0  0  0  0
  -25.2630  -31.5540   26.2190 C   0  0  0  0  0  1  0  0  0  0  0  0
  -26.9410  -30.3940   24.7720 C   0  0  0  0  0  1  0  0  0  0  0  0
  -27.5100  -32.5760   25.8090 C   0  0  0  0  0  1  0  0  0  0  0  0
  -25.5400  -33.9390   24.1850 N   0  0  0  0  0  0  0  0  0  0  0  0
  -25.8890  -34.9850   23.4230 C   0  0  0  0  0  0  0  0  0  0  0  0
  -26.5740  -34.8720   22.4030 O   0  0  0  0  0  0  0  0  0  0  0  0
  -24.9270  -34.1020   24.9700 H   0  0  0  0  0  0  0  0  0  0  0  0
  -24.1800  -36.7880   23.0230 C   0  0  0  0  0  1  0  0  0  0  0  0
  -25.4000  -36.3790   23.8640 C   0  0  0  0  0  3  0  0  0  0  0  0
  -27.5220  -37.2480   24.7410 C   0  0  0  0  0  1  0  0  0  0  0  0
  -26.4420  -37.4250   23.7730 N   0  0  0  0  0  0  0  0  0  0  0  0
  -26.0380  -38.3470   23.9130 H   0  0  0  0  0  0  0  0  0  0  0  0
  1 16  1  0
  2 17  1  0
  3  8  1  0
  4  5  1  0
  4  3  1  0
  6  5  1  0
  6 23  1  0
  6  7  1  0
  8  2  1  0
  8  7  1  0
  9  2  2  0
 10 12  1  0
 11 10  2  0
 11 14  1  0
 12 16  1  0
 12 15  2  0
 13 15  1  0
 13 17  1  0
 14 13  2  0
 16 18  1  0
 17 19  1  0
 20 21  2  0
 21 22  1  0
 21 40  1  0
 22 25  1  0
 23 20  1  0
 23 24  1  0
 24 22  2  0
 25 26  1  0
 26 27  2  0
 28 31  1  0
 28 27  1  0
 29 28  2  0
 30 29  1  0
 30 25  2  0
 31 32  1  0
 32 33  1  0
 33 34  2  0
 35 34  1  0
 35 39  1  0
 36 35  2  0
 37 32  2  0
 37 36  1  0
 38 37  1  0
 40 41  1  0
 41 44  1  0
 41 43  1  0
 42 40  2  0
 45 46  1  0
 45 20  1  0
 47 45  1  0
 48  1  1  0
 48 49  1  0
 49 50  1  0
 51 48  1  0
 51 52  1  0
 53 52  1  0
 54 65  2  0
 55 53  1  0
 55 60  1  0
 56 64  1  0
 56 66  1  0
 57 63  1  0
 57 59  1  0
 58 64  1  0
 59 58  1  0
 60 59  2  0
 61 55  2  0
 62 61  1  0
 62 57  2  0
 63 56  1  0
 64 54  1  0
 66 68  2  0
 67 66  1  0
 69 67  1  0
 70 79  2  0
 70 75  1  0
 71 67  1  0
 71 75  1  0
 72 71  1  0
 73 74  1  0
 73 72  1  0
 74 70  1  0
 75 76  2  0
 76 77  1  0
 78 77  2  0
 79 78  1  0
 80 54  1  0
 80 85  1  0
 80 81  1  0
 81 84  1  1
 81 82  1  0
 83 81  1  0
 85 88  1  0
 86 90  1  0
 86 85  1  0
 87 86  2  0
 90 89  1  0
 92 90  1  0
 92 93  1  0
 92 91  1  0
M  ISO  4   2 100  17 100  52 101  53 101
M  END
>  <TORSDO>  (2) 
F 20

>  <SCORE>  (2) 
-14.052

>  <name>  (2) 
1

>  <ligand_id>  (2) 
1

>  <original_smiles>  (2) 
[H]OC([H])(C([H])([H])N([H])c1nc(N([H])C(=O)N2C([H])([H])C([H])([H])C([H])([H])C([H])(n3nc(-c4c([H])c([H])c(Oc5c([H])c([H])c(F)c([H])c5F)c([H])c4[H])c(C(=O)N([H])[H])c3N([H])[H])C2([H])[H])nc([H])c1[H])C([H])([H])C([H])([H])Oc1c([H])c([H])c2c(c1[H])C([H])([H])N(C(=O)C([H])(N([H])C(=O)C([H])(N([H])C([H])([H])[H])C([H])([H])[H])C(C([H])([H])[H])(C([H])([H])[H])C([H])([H])[H])C([H])(C(=O)N([H])C1([H])c3c([H])c([H])c([H])c([H])c3C([H])([H])C([H])([H])C1([H])[H])C2([H])[H]

>  <smiles>  (2) 
[H]OC([H])(C([H])([H])N([H])c1nc(N([H])C(=O)N2C([H])([H])C([H])([H])C([H])([H])C([H])(n3nc(-c4c([H])c([H])c(Oc5c([H])c([H])c(F)c([H])c5F)c([H])c4[H])c(C(=O)N([H])[H])c3N([H])[H])C2([H])[H])nc([H])c1[H])C([H])([H])C([H])([H])Oc1c([H])c([H])c2c(c1[H])C([H])([H])N(C(=O)C([H])(N([H])C(=O)C([H])(N([H])C([H])([H])[H])C([H])([H])[H])C(C([H])([H])[H])(C([H])([H])[H])C([H])([H])[H])C([H])(C(=O)N([H])C1([H])c3c([H])c([H])c([H])c([H])c3C([H])([H])C([H])([H])C1([H])[H])C2([H])[H]

$$$$
2:0:0
     RDKit          3D

 93101  0  0  1  0  0  0  0  0999 V2000
  -29.6180  -22.0000   20.6770 C   0  0  0  0  0  2  0  0  0  0  0  0
  -28.9280  -23.3400   20.3260 C   0  0  0  0  0  0  0  0  0  0  0  0
  -27.9400  -23.3650   19.5810 O   0  0  0  0  0  0  0  0  0  0  0  0
  -29.5200  -24.6220   20.9310 C   0  0  0  0  0  2  0  0  0  0  0  0
  -28.9290  -26.4690   22.5640 C   0  0  0  0  0  1  0  0  0  0  0  0
  -28.5080  -25.7540   21.2660 C   0  0  0  0  0  3  0  0  0  0  0  0
  -28.4240  -26.7190   20.2010 O   0  0  0  0  0  0  0  0  0  0  0  0
  -24.5850  -31.8940   23.2380 C   0  0  0  0  0  0  0  0  0  0  0  0
  -27.2640  -27.4640   20.1950 C   0  0  0  0  0  0  0  0  0  0  0  0
  -23.3890  -30.4760   21.5990 C   0  0  0  0  0  3  0  0  0  0  0  0
  -24.8570  -28.9380   20.1870 C   0  0  0  0  0  0  0  0  0  0  0  0
  -25.9100  -30.8570   21.4000 C   0  0  0  0  0  2  0  0  0  0  0  0
  -26.0080  -29.4830   20.7680 C   0  0  0  0  0  0  0  0  0  0  0  0
  -27.2180  -28.7560   20.7630 C   0  0  0  0  0  3  0  0  0  0  0  0
  -26.1010  -26.9260   19.6080 C   0  0  0  0  0  3  0  0  0  0  0  0
  -24.8970  -27.6580   19.6020 C   0  0  0  0  0  3  0  0  0  0  0  0
  -23.6040  -29.7860   20.2250 C   0  0  0  0  0  2  0  0  0  0  0  0
  -24.6460  -31.0910   22.1380 N   0  0  0  0  0  0  0  0  0  0  0  0
  -23.5020  -32.1630   23.7760 O   0  0  0  0  0  0  0  0  0  0  0  0
  -22.7420  -29.4580   22.5660 C   0  0  0  0  0  0  0  0  0  0  0  0
  -21.4180  -29.2670   22.4350 N   0  0  0  0  0  0  0  0  0  0  0  0
  -23.4270  -28.8430   23.3870 O   0  0  0  0  0  0  0  0  0  0  0  0
  -20.9270  -29.8160   21.7440 H   0  0  0  0  0  0  0  0  0  0  0  0
  -18.0480  -28.0700   22.9390 C   0  0  0  0  0  0  0  0  0  0  0  0
  -20.6060  -28.3290   23.2070 C   0  0  0  0  0  3  0  0  0  0  0  0
  -20.7080  -26.8980   22.6310 C   0  0  0  0  0  2  0  0  0  0  0  0
  -19.6050  -26.5740   21.6180 C   0  0  0  0  0  2  0  0  0  0  0  0
  -18.2240  -26.7190   22.2660 C   0  0  0  0  0  2  0  0  0  0  0  0
  -19.1670  -28.8320   23.3680 C   0  0  0  0  0  0  0  0  0  0  0  0
  -18.9490  -30.0960   23.9590 C   0  0  0  0  0  3  0  0  0  0  0  0
  -17.6440  -30.5980   24.1240 C   0  0  0  0  0  3  0  0  0  0  0  0
  -16.5390  -29.8320   23.7140 C   0  0  0  0  0  3  0  0  0  0  0  0
  -16.7420  -28.5700   23.1270 C   0  0  0  0  0  3  0  0  0  0  0  0
  -25.8670  -32.5340   23.8570 C   0  0  0  0  0  3  0  0  0  0  0  0
  -26.3890  -31.7700   25.1360 C   0  0  1  0  0  0  0  0  0  0  0  0
  -25.2970  -31.5320   26.2050 C   0  0  0  0  0  1  0  0  0  0  0  0
  -26.9790  -30.3940   24.7470 C   0  0  0  0  0  1  0  0  0  0  0  0
  -27.5350  -32.5730   25.7940 C   0  0  0  0  0  1  0  0  0  0  0  0
  -25.5520  -33.9320   24.1770 N   0  0  0  0  0  0  0  0  0  0  0  0
  -25.8930  -34.9820   23.4170 C   0  0  0  0  0  0  0  0  0  0  0  0
  -26.5750  -34.8750   22.3950 O   0  0  0  0  0  0  0  0  0  0  0  0
  -24.9470  -34.0890   24.9690 H   0  0  0  0  0  0  0  0  0  0  0  0
  -24.1720  -36.7750   23.0260 C   0  0  0  0  0  1  0  0  0  0  0  0
  -25.3970  -36.3700   23.8630 C   0  0  0  0  0  3  0  0  0  0  0  0
  -27.5160  -37.2550   24.7330 C   0  0  0  0  0  1  0  0  0  0  0  0
  -26.4330  -37.4230   23.7680 N   0  0  0  0  0  0  0  0  0  0  0  0
  -26.0230  -38.3430   23.9070 H   0  0  0  0  0  0  0  0  0  0  0  0
  -29.0340  -20.8590   19.9610 N   0  0  0  0  0  0  0  0  0  0  0  0
  -28.1750  -21.0830   19.4590 H   0  0  0  0  0  0  0  0  0  0  0  0
  -30.6830  -14.4960   20.4490 C   0  0  0  0  0  0  0  0  0  0  0  0
  -30.4010  -12.3500   19.2560 C   0  0  0  0  0  2  0  0  0  0  0  0
  -29.4460  -12.5730   18.0660 C   0  0  0  0  0  2  0  0  0  0  0  0
  -27.9740  -12.4170   18.5030 C   0  0  0  0  0  2  0  0  0  0  0  0
  -27.6450  -13.2290   19.7810 C   0  0  0  0  0  3  0  0  0  0  0  0
  -28.7080  -12.9800   20.8760 C   0  0  0  0  0  2  0  0  0  0  0  0
  -30.0330  -13.3040   20.3140 N   0  0  0  0  0  0  0  0  0  0  0  0
  -31.7820  -14.7220   19.9320 O   0  0  0  0  0  0  0  0  0  0  0  0
  -28.5310  -18.5090   19.6750 C   0  0  0  0  0  3  0  0  0  0  0  0
  -28.7970  -17.1580   19.9540 C   0  0  0  0  0  3  0  0  0  0  0  0
  -30.4140  -19.0700   21.0570 C   0  0  0  0  0  3  0  0  0  0  0  0
  -29.3420  -19.5110   20.2410 C   0  0  0  0  0  0  0  0  0  0  0  0
  -29.8780  -16.8050   20.7830 C   0  0  0  0  0  0  0  0  0  0  0  0
  -30.6700  -17.7620   21.3260 N   0  0  0  0  0  0  0  0  0  0  0  0
  -29.9930  -15.4310   21.1290 N   0  0  0  0  0  0  0  0  0  0  0  0
  -29.1640  -15.0460   21.5510 H   0  0  0  0  0  0  0  0  0  0  0  0
  -25.2470  -13.8340   20.5020 C   0  0  0  0  0  0  0  0  0  0  0  0
  -24.1820  -13.0590   20.8770 C   0  0  0  0  0  0  0  0  0  0  0  0
  -24.6480  -11.7080   20.8430 C   0  0  0  0  0  0  0  0  0  0  0  0
  -26.2930  -12.9560   20.2640 N   0  0  0  0  0  0  0  0  0  0  0  0
  -25.9360  -11.6730   20.5250 N   0  0  0  0  0  0  0  0  0  0  0  0
  -23.9290  -10.4450   21.0370 C   0  0  0  0  0  0  0  0  0  0  0  0
  -24.3710   -9.4800   21.9680 C   0  0  0  0  0  3  0  0  0  0  0  0
  -23.6540   -8.2780   22.1500 C   0  0  0  0  0  3  0  0  0  0  0  0
  -22.4780   -8.0340   21.4000 C   0  0  0  0  0  0  0  0  0  0  0  0
  -22.0560   -8.9880   20.4580 C   0  0  0  0  0  3  0  0  0  0  0  0
  -22.7740  -10.1810   20.2740 C   0  0  0  0  0  3  0  0  0  0  0  0
  -21.7320   -6.8840   21.4910 O   0  0  0  0  0  0  0  0  0  0  0  0
  -21.6930   -6.1400   22.6430 C   0  0  0  0  0  0  0  0  0  0  0  0
  -21.2610   -6.6890   23.8710 C   0  0  0  0  0  3  0  0  0  0  0  0
  -21.1700   -5.8710   25.0150 C   0  0  0  0  0  3  0  0  0  0  0  0
  -21.5000   -4.5040   24.9320 C   0  0  0  0  0  0  0  0  0  0  0  0
  -21.9250   -3.9560   23.7090 C   0  0  0  0  0  3  0  0  0  0  0  0
  -22.0180   -4.7710   22.5680 C   0  0  0  0  0  0  0  0  0  0  0  0
  -22.4080   -4.2330   21.3880 F   0  0  0  0  0  0  0  0  0  0  0  0
  -21.4060   -3.7170   26.0280 F   0  0  0  0  0  0  0  0  0  0  0  0
  -22.7850  -13.5320   21.1580 C   0  0  0  0  0  0  0  0  0  0  0  0
  -22.0630  -12.8310   22.0250 N   0  0  0  0  0  0  0  0  0  0  0  0
  -22.3420  -14.5590   20.6460 O   0  0  0  0  0  0  0  0  0  0  0  0
  -22.4330  -12.0010   22.4640 H   0  0  0  0  0  0  0  0  0  0  0  0
  -21.1250  -13.1290   22.2540 H   0  0  0  0  0  0  0  0  0  0  0  0
  -25.4040  -15.2050   20.3280 N   0  0  0  0  0  0  0  0  0  0  0  0
  -24.6340  -15.8550   20.4520 H   0  0  0  0  0  0  0  0  0  0  0  0
  -26.2510  -15.6560   20.0100 H   0  0  0  0  0  0  0  0  0  0  0  0
  2  1  1  0
  2  4  1  0
  3  2  2  0
  4  6  1  0
  6  5  1  0
  7  6  1  0
  8 19  2  0
  9  7  1  0
  9 14  1  0
 10 18  1  0
 10 20  1  0
 11 17  1  0
 11 13  1  0
 12 18  1  0
 13 12  1  0
 14 13  2  0
 15  9  2  0
 16 15  1  0
 16 11  2  0
 17 10  1  0
 18  8  1  0
 20 22  2  0
 21 20  1  0
 23 21  1  0
 24 33  2  0
 24 29  1  0
 25 21  1  0
 25 29  1  0
 26 25  1  0
 27 28  1  0
 27 26  1  0
 28 24  1  0
 29 30  2  0
 30 31  1  0
 32 31  2  0
 33 32  1  0
 34  8  1  0
 34 39  1  0
 34 35  1  0
 35 38  1  1
 35 36  1  0
 37 35  1  0
 39 42  1  0
 40 44  1  0
 40 39  1  0
 41 40  2  0
 44 43  1  0
 46 44  1  0
 46 47  1  0
 46 45  1  0
 48 61  1  0
 48  1  1  0
 49 48  1  0
 50 64  1  0
 51 56  1  0
 52 53  1  0
 52 51  1  0
 54 53  1  0
 54 69  1  0
 54 55  1  0
 56 50  1  0
 56 55  1  0
 57 50  2  0
 58 59  2  0
 58 61  1  0
 59 62  1  0
 60 63  1  0
 61 60  2  0
 62 64  1  0
 62 63  2  0
 64 65  1  0
 66 67  2  0
 67 86  1  0
 68 67  1  0
 68 71  1  0
 69 66  1  0
 69 70  1  0
 70 68  2  0
 71 72  1  0
 72 73  2  0
 74 77  1  0
 74 73  1  0
 75 74  2  0
 76 75  1  0
 76 71  2  0
 77 78  1  0
 78 79  1  0
 79 80  2  0
 81 80  1  0
 81 85  1  0
 82 81  2  0
 83 78  2  0
 83 82  1  0
 84 83  1  0
 86 87  1  0
 87 90  1  0
 87 89  1  0
 88 86  2  0
 91 92  1  0
 91 66  1  0
 93 91  1  0
M  ISO  4   6 101   7 101  50 100  64 100
M  END
>  <TORSDO>  (3) 
F 20

>  <SCORE>  (3) 
-14.174

>  <name>  (3) 
2

>  <ligand_id>  (3) 
2

>  <original_smiles>  (3) 
[H]c1nc(N([H])C(=O)N2C([H])([H])C([H])([H])C([H])([H])C([H])(n3nc(-c4c([H])c([H])c(Oc5c([H])c([H])c(F)c([H])c5F)c([H])c4[H])c(C(=O)N([H])[H])c3N([H])[H])C2([H])[H])c([H])c([H])c1N([H])C([H])([H])C(=O)C([H])([H])C([H])(Oc1c([H])c([H])c2c(c1[H])C([H])([H])N(C(=O)C([H])(N([H])C(=O)C([H])(N([H])C([H])([H])[H])C([H])([H])[H])C(C([H])([H])[H])(C([H])([H])[H])C([H])([H])[H])C([H])(C(=O)N([H])C1([H])c3c([H])c([H])c([H])c([H])c3C([H])([H])C([H])([H])C1([H])[H])C2([H])[H])C([H])([H])[H]

>  <smiles>  (3) 
[H]c1nc(N([H])C(=O)N2C([H])([H])C([H])([H])C([H])([H])C([H])(n3nc(-c4c([H])c([H])c(Oc5c([H])c([H])c(F)c([H])c5F)c([H])c4[H])c(C(=O)N([H])[H])c3N([H])[H])C2([H])[H])c([H])c([H])c1N([H])C([H])([H])C(=O)C([H])([H])C([H])(Oc1c([H])c([H])c2c(c1[H])C([H])([H])N(C(=O)C([H])(N([H])C(=O)C([H])(N([H])C([H])([H])[H])C([H])([H])[H])C(C([H])([H])[H])(C([H])([H])[H])C([H])([H])[H])C([H])(C(=O)N([H])C1([H])c3c([H])c([H])c([H])c([H])c3C([H])([H])C([H])([H])C1([H])[H])C2([H])[H])C([H])([H])[H]

$$$$
3:0:0
     RDKit          3D

 97105  0  0  1  0  0  0  0  0999 V2000
  -29.4470  -20.6260   19.9050 N   0  0  0  0  0  0  0  0  0  0  0  0
  -29.0800  -20.7770   18.9690 H   0  0  0  0  0  0  0  0  0  0  0  0
  -30.6940  -14.3750   20.1470 C   0  0  0  0  0  0  0  0  0  0  0  0
  -30.2810  -12.2980   18.8920 C   0  0  0  0  0  2  0  0  0  0  0  0
  -29.2680  -12.6010   17.7670 C   0  0  0  0  0  2  0  0  0  0  0  0
  -27.8200  -12.4750   18.2800 C   0  0  0  0  0  2  0  0  0  0  0  0
  -27.5890  -13.2420   19.6080 C   0  0  0  0  0  3  0  0  0  0  0  0
  -28.6990  -12.9130   20.6310 C   0  0  0  0  0  2  0  0  0  0  0  0
  -30.0040  -13.2120   20.0110 N   0  0  0  0  0  0  0  0  0  0  0  0
  -31.7540  -14.5980   19.5430 O   0  0  0  0  0  0  0  0  0  0  0  0
  -29.8110  -18.7520   21.5630 C   0  0  0  0  0  3  0  0  0  0  0  0
  -29.6250  -19.2750   20.2620 C   0  0  0  0  0  0  0  0  0  0  0  0
  -29.5880  -18.3140   19.2420 C   0  0  0  0  0  0  0  0  0  0  0  0
  -29.9740  -16.6240   20.7200 C   0  0  0  0  0  0  0  0  0  0  0  0
  -29.9760  -17.4270   21.7850 N   0  0  0  0  0  0  0  0  0  0  0  0
  -29.7460  -17.0100   19.4640 N   0  0  0  0  0  0  0  0  0  0  0  0
  -29.3730  -18.6900   17.9230 N   0  0  0  0  0  0  0  0  0  0  0  0
  -30.1300  -15.2860   20.9610 N   0  0  0  0  0  0  0  0  0  0  0  0
  -29.7040  -19.6160   17.6990 H   0  0  0  0  0  0  0  0  0  0  0  0
  -29.6210  -18.0050   17.2210 H   0  0  0  0  0  0  0  0  0  0  0  0
  -29.4930  -14.9150   21.6480 H   0  0  0  0  0  0  0  0  0  0  0  0
  -25.2430  -13.8620   20.4730 C   0  0  0  0  0  0  0  0  0  0  0  0
  -24.1890  -13.0940   20.8890 C   0  0  0  0  0  0  0  0  0  0  0  0
  -24.6250  -11.7370   20.7880 C   0  0  0  0  0  0  0  0  0  0  0  0
  -26.2590  -12.9750   20.1550 N   0  0  0  0  0  0  0  0  0  0  0  0
  -25.8940  -11.6900   20.3980 N   0  0  0  0  0  0  0  0  0  0  0  0
  -23.8950  -10.4810   20.9900 C   0  0  0  0  0  0  0  0  0  0  0  0
  -24.3540   -9.4970   21.8930 C   0  0  0  0  0  3  0  0  0  0  0  0
  -23.6270   -8.3030   22.0830 C   0  0  0  0  0  3  0  0  0  0  0  0
  -22.4250   -8.0820   21.3690 C   0  0  0  0  0  0  0  0  0  0  0  0
  -21.9850   -9.0540   20.4540 C   0  0  0  0  0  3  0  0  0  0  0  0
  -22.7120  -10.2410   20.2620 C   0  0  0  0  0  3  0  0  0  0  0  0
  -21.6660   -6.9420   21.4700 O   0  0  0  0  0  0  0  0  0  0  0  0
  -21.6260   -6.2020   22.6230 C   0  0  0  0  0  0  0  0  0  0  0  0
  -21.2030   -6.7560   23.8520 C   0  0  0  0  0  3  0  0  0  0  0  0
  -21.1110   -5.9410   24.9970 C   0  0  0  0  0  3  0  0  0  0  0  0
  -21.4320   -4.5740   24.9170 C   0  0  0  0  0  0  0  0  0  0  0  0
  -21.8470   -4.0180   23.6930 C   0  0  0  0  0  3  0  0  0  0  0  0
  -21.9400   -4.8290   22.5490 C   0  0  0  0  0  0  0  0  0  0  0  0
  -22.3210   -4.2840   21.3680 F   0  0  0  0  0  0  0  0  0  0  0  0
  -21.3360   -3.7880   26.0150 F   0  0  0  0  0  0  0  0  0  0  0  0
  -22.8190  -13.5820   21.2670 C   0  0  0  0  0  0  0  0  0  0  0  0
  -22.1400  -12.8670   22.1600 N   0  0  0  0  0  0  0  0  0  0  0  0
  -22.3610  -14.6270   20.8060 O   0  0  0  0  0  0  0  0  0  0  0  0
  -22.5260  -12.0220   22.5580 H   0  0  0  0  0  0  0  0  0  0  0  0
  -21.2240  -13.1720   22.4550 H   0  0  0  0  0  0  0  0  0  0  0  0
  -25.4190  -15.2330   20.3200 N   0  0  0  0  0  0  0  0  0  0  0  0
  -24.6670  -15.8960   20.4770 H   0  0  0  0  0  0  0  0  0  0  0  0
  -26.2420  -15.6590   19.9120 H   0  0  0  0  0  0  0  0  0  0  0  0
  -30.8860  -21.9150   21.4400 C   0  0  0  0  0  1  0  0  0  0  0  0
  -29.4910  -21.7760   20.8040 C   0  0  0  0  0  3  0  0  0  0  0  0
  -29.1210  -23.0250   19.9640 C   0  0  0  0  0  2  0  0  0  0  0  0
  -28.8560  -24.3570   20.7060 C   0  0  0  0  0  3  0  0  0  0  0  0
  -27.6540  -24.2340   21.4520 O   0  0  0  0  0  0  0  0  0  0  0  0
  -26.9230  -24.3340   20.8530 H   0  0  0  0  0  0  0  0  0  0  0  0
  -28.7230  -25.5060   19.6800 C   0  0  0  0  0  2  0  0  0  0  0  0
  -28.5460  -26.7760   20.3130 O   0  0  0  0  0  0  0  0  0  0  0  0
  -24.6330  -31.8980   23.2750 C   0  0  0  0  0  0  0  0  0  0  0  0
  -27.3270  -27.4270   20.2830 C   0  0  0  0  0  0  0  0  0  0  0  0
  -23.4550  -30.4830   21.6260 C   0  0  0  0  0  3  0  0  0  0  0  0
  -24.9270  -28.9290   20.2470 C   0  0  0  0  0  0  0  0  0  0  0  0
  -25.9840  -30.8350   21.4710 C   0  0  0  0  0  2  0  0  0  0  0  0
  -26.0730  -29.4580   20.8460 C   0  0  0  0  0  0  0  0  0  0  0  0
  -27.2720  -28.7140   20.8620 C   0  0  0  0  0  3  0  0  0  0  0  0
  -26.1470  -26.8970   19.7020 C   0  0  0  0  0  3  0  0  0  0  0  0
  -24.9550  -27.6440   19.6770 C   0  0  0  0  0  3  0  0  0  0  0  0
  -23.6870  -29.7910   20.2570 C   0  0  0  0  0  2  0  0  0  0  0  0
  -24.7080  -31.0880   22.1810 N   0  0  0  0  0  0  0  0  0  0  0  0
  -23.5440  -32.1740   23.7950 O   0  0  0  0  0  0  0  0  0  0  0  0
  -22.7870  -29.4700   22.5840 C   0  0  0  0  0  0  0  0  0  0  0  0
  -21.4620  -29.2940   22.4400 N   0  0  0  0  0  0  0  0  0  0  0  0
  -23.4570  -28.8470   23.4120 O   0  0  0  0  0  0  0  0  0  0  0  0
  -20.9850  -29.8490   21.7440 H   0  0  0  0  0  0  0  0  0  0  0  0
  -18.0730  -28.1360   22.9120 C   0  0  0  0  0  0  0  0  0  0  0  0
  -20.6300  -28.3650   23.2060 C   0  0  0  0  0  3  0  0  0  0  0  0
  -20.7220  -26.9320   22.6360 C   0  0  0  0  0  2  0  0  0  0  0  0
  -19.6260  -26.6170   21.6120 C   0  0  0  0  0  2  0  0  0  0  0  0
  -18.2410  -26.7810   22.2430 C   0  0  0  0  0  2  0  0  0  0  0  0
  -19.1950  -28.8860   23.3510 C   0  0  0  0  0  0  0  0  0  0  0  0
  -18.9860  -30.1550   23.9330 C   0  0  0  0  0  3  0  0  0  0  0  0
  -17.6850  -30.6740   24.0810 C   0  0  0  0  0  3  0  0  0  0  0  0
  -16.5760  -29.9190   23.6620 C   0  0  0  0  0  3  0  0  0  0  0  0
  -16.7710  -28.6510   23.0840 C   0  0  0  0  0  3  0  0  0  0  0  0
  -25.9110  -32.5340   23.9090 C   0  0  0  0  0  3  0  0  0  0  0  0
  -25.5970  -33.9330   24.2280 N   0  0  0  0  0  0  0  0  0  0  0  0
  -25.9230  -34.9800   23.4590 C   0  0  0  0  0  0  0  0  0  0  0  0
  -26.5940  -34.8690   22.4280 O   0  0  0  0  0  0  0  0  0  0  0  0
  -25.0070  -34.0920   25.0320 H   0  0  0  0  0  0  0  0  0  0  0  0
  -24.1800  -36.7530   23.0930 C   0  0  0  0  0  1  0  0  0  0  0  0
  -25.4290  -36.3700   23.9020 C   0  0  0  0  0  3  0  0  0  0  0  0
  -27.5600  -37.2810   24.7120 C   0  0  0  0  0  1  0  0  0  0  0  0
  -26.4530  -37.4280   23.7700 N   0  0  0  0  0  0  0  0  0  0  0  0
  -26.0420  -38.3480   23.9070 H   0  0  0  0  0  0  0  0  0  0  0  0
  -26.4140  -31.7690   25.1950 C   0  0  1  0  0  0  0  0  0  0  0  0
  -25.3100  -31.5290   26.2500 C   0  0  0  0  0  1  0  0  0  0  0  0
  -27.0100  -30.3960   24.8130 C   0  0  0  0  0  1  0  0  0  0  0  0
  -27.5510  -32.5730   25.8700 C   0  0  0  0  0  1  0  0  0  0  0  0
  1 12  1  0
  1 51  1  0
  2  1  1  0
  3 18  1  0
  4  9  1  0
  5  6  1  0
  5  4  1  0
  7  6  1  0
  7 25  1  0
  7  8  1  0
  9  3  1  0
  9  8  1  0
 10  3  2  0
 11 15  1  0
 12 11  2  0
 13 16  2  0
 13 12  1  0
 14 18  1  0
 14 15  2  0
 16 14  1  0
 17 13  1  0
 18 21  1  0
 19 17  1  0
 20 17  1  0
 22 23  2  0
 23 42  1  0
 24 23  1  0
 24 27  1  0
 25 26  1  0
 25 22  1  0
 26 24  2  0
 27 28  1  0
 28 29  2  0
 30 33  1  0
 30 29  1  0
 31 30  2  0
 32 31  1  0
 32 27  2  0
 33 34  1  0
 34 35  1  0
 35 36  2  0
 37 36  1  0
 37 41  1  0
 38 37  2  0
 39 34  2  0
 39 38  1  0
 40 39  1  0
 42 43  1  0
 43 46  1  0
 43 45  1  0
 44 42  2  0
 47 22  1  0
 47 48  1  0
 49 47  1  0
 51 50  1  0
 52 53  1  0
 52 51  1  0
 53 56  1  0
 53 54  1  0
 55 54  1  0
 56 57  1  0
 58 69  2  0
 59 57  1  0
 59 64  1  0
 60 68  1  0
 60 70  1  0
 61 67  1  0
 61 63  1  0
 62 68  1  0
 63 64  2  0
 63 62  1  0
 65 59  2  0
 66 65  1  0
 66 61  2  0
 67 60  1  0
 68 58  1  0
 70 72  2  0
 71 70  1  0
 73 71  1  0
 74 83  2  0
 74 79  1  0
 75 71  1  0
 75 79  1  0
 76 75  1  0
 77 78  1  0
 77 76  1  0
 78 74  1  0
 79 80  2  0
 80 81  1  0
 82 81  2  0
 83 82  1  0
 84 58  1  0
 84 85  1  0
 84 94  1  0
 85 88  1  0
 86 90  1  0
 86 85  1  0
 87 86  2  0
 90 89  1  0
 92 90  1  0
 92 93  1  0
 92 91  1  0
 94 97  1  1
 94 95  1  0
 96 94  1  0
M  ISO  4   3 100  18 100  56 101  57 101
M  END
>  <TORSDO>  (4) 
F 21

>  <SCORE>  (4) 
-13.522

>  <name>  (4) 
3

>  <ligand_id>  (4) 
3

>  <original_smiles>  (4) 
[H]OC([H])(C([H])([H])Oc1c([H])c([H])c2c(c1[H])C([H])([H])N(C(=O)C([H])(N([H])C(=O)C([H])(N([H])C([H])([H])[H])C([H])([H])[H])C(C([H])([H])[H])(C([H])([H])[H])C([H])([H])[H])C([H])(C(=O)N([H])C1([H])c3c([H])c([H])c([H])c([H])c3C([H])([H])C([H])([H])C1([H])[H])C2([H])[H])C([H])([H])C([H])(N([H])c1c([H])nc(N([H])C(=O)N2C([H])([H])C([H])([H])C([H])([H])C([H])(n3nc(-c4c([H])c([H])c(Oc5c([H])c([H])c(F)c([H])c5F)c([H])c4[H])c(C(=O)N([H])[H])c3N([H])[H])C2([H])[H])nc1N([H])[H])C([H])([H])[H]

>  <smiles>  (4) 
[H]OC([H])(C([H])([H])Oc1c([H])c([H])c2c(c1[H])C([H])([H])N(C(=O)C([H])(N([H])C(=O)C([H])(N([H])C([H])([H])[H])C([H])([H])[H])C(C([H])([H])[H])(C([H])([H])[H])C([H])([H])[H])C([H])(C(=O)N([H])C1([H])c3c([H])c([H])c([H])c([H])c3C([H])([H])C([H])([H])C1([H])[H])C2([H])[H])C([H])([H])C([H])(N([H])c1c([H])nc(N([H])C(=O)N2C([H])([H])C([H])([H])C([H])([H])C([H])(n3nc(-c4c([H])c([H])c(Oc5c([H])c([H])c(F)c([H])c5F)c([H])c4[H])c(C(=O)N([H])[H])c3N([H])[H])C2([H])[H])nc1N([H])[H])C([H])([H])[H]

$$$$
4:0:0
     RDKit          3D

 98106  0  0  1  0  0  0  0  0999 V2000
  -29.6020  -20.6620   18.2790 C   0  0  0  0  0  1  0  0  0  0  0  0
  -30.7710  -21.1720   19.1420 C   0  0  0  0  0  3  0  0  0  0  0  0
  -30.2750  -22.0430   20.2550 N   0  0  0  0  0  4  0  0  0  0  0  0
  -29.2940  -21.8480   20.3730 H   0  0  0  0  0  0  0  0  0  0  0  0
  -30.6640  -21.6740   21.1190 H   0  0  0  0  0  0  0  0  0  0  0  0
  -31.9280  -23.9740   20.0060 C   0  0  0  0  0  1  0  0  0  0  0  0
  -30.4530  -23.5350   20.1820 C   0  0  0  0  0  3  0  0  0  0  0  0
  -29.4040  -24.2210   19.2360 C   0  0  0  0  0  2  0  0  0  0  0  0
  -29.5320  -25.7290   18.8450 C   0  0  0  0  0  2  0  0  0  0  0  0
  -29.1170  -26.7350   19.7840 O   0  0  0  0  0  0  0  0  0  0  0  0
  -24.7430  -31.3570   22.9450 C   0  0  0  0  0  0  0  0  0  0  0  0
  -27.8750  -27.3420   19.7070 C   0  0  0  0  0  0  0  0  0  0  0  0
  -23.7190  -29.9530   21.1830 C   0  0  0  0  0  3  0  0  0  0  0  0
  -25.3460  -28.6280   19.7200 C   0  0  0  0  0  0  0  0  0  0  0  0
  -26.2040  -30.5370   21.0940 C   0  0  0  0  0  2  0  0  0  0  0  0
  -26.4310  -29.2150   20.3850 C   0  0  0  0  0  0  0  0  0  0  0  0
  -27.6900  -28.5730   20.3830 C   0  0  0  0  0  3  0  0  0  0  0  0
  -26.7730  -26.7770   19.0240 C   0  0  0  0  0  3  0  0  0  0  0  0
  -25.5120  -27.4090   19.0360 C   0  0  0  0  0  3  0  0  0  0  0  0
  -24.0300  -29.3740   19.7750 C   0  0  0  0  0  2  0  0  0  0  0  0
  -24.9060  -30.6260   21.8030 N   0  0  0  0  0  0  0  0  0  0  0  0
  -23.6260  -31.4960   23.4620 O   0  0  0  0  0  0  0  0  0  0  0  0
  -23.1290  -28.8270   22.0620 C   0  0  0  0  0  0  0  0  0  0  0  0
  -21.8240  -28.5530   21.8920 N   0  0  0  0  0  0  0  0  0  0  0  0
  -23.8460  -28.2040   22.8510 O   0  0  0  0  0  0  0  0  0  0  0  0
  -21.3060  -29.1110   21.2280 H   0  0  0  0  0  0  0  0  0  0  0  0
  -18.5490  -27.0780   22.2390 C   0  0  0  0  0  0  0  0  0  0  0  0
  -21.0710  -27.5080   22.5840 C   0  0  0  0  0  3  0  0  0  0  0  0
  -21.2990  -26.1330   21.9170 C   0  0  0  0  0  2  0  0  0  0  0  0
  -20.2450  -25.7920   20.8610 C   0  0  0  0  0  2  0  0  0  0  0  0
  -18.8430  -25.7950   21.4780 C   0  0  0  0  0  2  0  0  0  0  0  0
  -19.5960  -27.8910   22.7440 C   0  0  0  0  0  0  0  0  0  0  0  0
  -19.2700  -29.0920   23.4110 C   0  0  0  0  0  3  0  0  0  0  0  0
  -17.9270  -29.4770   23.5860 C   0  0  0  0  0  3  0  0  0  0  0  0
  -16.8930  -28.6610   23.0970 C   0  0  0  0  0  3  0  0  0  0  0  0
  -17.2040  -27.4630   22.4280 C   0  0  0  0  0  3  0  0  0  0  0  0
  -25.9480  -32.0600   23.6430 C   0  0  0  0  0  3  0  0  0  0  0  0
  -25.5090  -33.4070   24.0300 N   0  0  0  0  0  0  0  0  0  0  0  0
  -25.7630  -34.5200   23.3270 C   0  0  0  0  0  0  0  0  0  0  0  0
  -26.4590  -34.5270   22.3070 O   0  0  0  0  0  0  0  0  0  0  0  0
  -24.9040  -33.4730   24.8340 H   0  0  0  0  0  0  0  0  0  0  0  0
  -23.8820  -36.1630   23.0220 C   0  0  0  0  0  1  0  0  0  0  0  0
  -25.1460  -35.8360   23.8350 C   0  0  0  0  0  3  0  0  0  0  0  0
  -27.1760  -36.8820   24.7430 C   0  0  0  0  0  1  0  0  0  0  0  0
  -26.0780  -36.9830   23.7850 N   0  0  0  0  0  0  0  0  0  0  0  0
  -25.5840  -37.8540   23.9630 H   0  0  0  0  0  0  0  0  0  0  0  0
  -26.4890  -31.2750   24.9010 C   0  0  1  0  0  0  0  0  0  0  0  0
  -25.3880  -30.9020   25.9190 C   0  0  0  0  0  1  0  0  0  0  0  0
  -27.1920  -29.9710   24.4610 C   0  0  0  0  0  1  0  0  0  0  0  0
  -27.5490  -32.1260   25.6430 C   0  0  0  0  0  1  0  0  0  0  0  0
  -31.6660  -19.9750   19.6230 C   0  0  0  0  0  3  0  0  0  0  0  0
  -32.4090  -19.6050   18.5740 F   0  0  0  0  0  0  0  0  0  0  0  0
  -31.3430  -14.2540   19.8240 C   0  0  0  0  0  0  0  0  0  0  0  0
  -30.9040  -12.0730   18.7310 C   0  0  0  0  0  2  0  0  0  0  0  0
  -29.8680  -12.2390   17.6000 C   0  0  0  0  0  2  0  0  0  0  0  0
  -28.4230  -12.1730   18.1380 C   0  0  0  0  0  2  0  0  0  0  0  0
  -28.2070  -13.0810   19.3820 C   0  0  0  0  0  3  0  0  0  0  0  0
  -29.3330  -12.8420   20.4140 C   0  0  0  0  0  2  0  0  0  0  0  0
  -30.6350  -13.0900   19.7600 N   0  0  0  0  0  0  0  0  0  0  0  0
  -32.3460  -14.4700   19.1370 O   0  0  0  0  0  0  0  0  0  0  0  0
  -30.9510  -18.7680   20.2450 C   0  0  0  0  0  0  0  0  0  0  0  0
  -29.8610  -18.8000   21.1000 C   0  0  0  0  0  0  0  0  0  0  0  0
  -30.6880  -16.5190   20.6980 C   0  0  0  0  0  0  0  0  0  0  0  0
  -31.4010  -17.4380   20.0160 N   0  0  0  0  0  0  0  0  0  0  0  0
  -30.8890  -15.1130   20.7490 N   0  0  0  0  0  0  0  0  0  0  0  0
  -29.4020  -17.2170   21.6590 S   0  0  0  0  0  0  0  0  0  0  0  0
  -30.2500  -14.6560   21.3810 H   0  0  0  0  0  0  0  0  0  0  0  0
  -25.9290  -13.8400   20.3270 C   0  0  0  0  0  0  0  0  0  0  0  0
  -24.8380  -13.1330   20.7580 C   0  0  0  0  0  0  0  0  0  0  0  0
  -25.1840  -11.7550   20.6340 C   0  0  0  0  0  0  0  0  0  0  0  0
  -26.8790  -12.8910   19.9670 N   0  0  0  0  0  0  0  0  0  0  0  0
  -26.4360  -11.6310   20.2070 N   0  0  0  0  0  0  0  0  0  0  0  0
  -24.3790  -10.5430   20.8370 C   0  0  0  0  0  0  0  0  0  0  0  0
  -24.7440   -9.5650   21.7880 C   0  0  0  0  0  3  0  0  0  0  0  0
  -23.9450   -8.4150   21.9760 C   0  0  0  0  0  3  0  0  0  0  0  0
  -22.7650   -8.2390   21.2120 C   0  0  0  0  0  0  0  0  0  0  0  0
  -22.4180   -9.2050   20.2500 C   0  0  0  0  0  3  0  0  0  0  0  0
  -23.2170  -10.3450   20.0620 C   0  0  0  0  0  3  0  0  0  0  0  0
  -21.9380   -7.1470   21.3120 O   0  0  0  0  0  0  0  0  0  0  0  0
  -21.7340   -6.5000   22.5050 C   0  0  0  0  0  0  0  0  0  0  0  0
  -21.2240   -7.1690   23.6390 C   0  0  0  0  0  3  0  0  0  0  0  0
  -20.9710   -6.4510   24.8250 C   0  0  0  0  0  3  0  0  0  0  0  0
  -21.2140   -5.0660   24.8750 C   0  0  0  0  0  0  0  0  0  0  0  0
  -21.7130   -4.3960   23.7450 C   0  0  0  0  0  3  0  0  0  0  0  0
  -21.9710   -5.1110   22.5620 C   0  0  0  0  0  0  0  0  0  0  0  0
  -22.4340   -4.4550   21.4710 F   0  0  0  0  0  0  0  0  0  0  0  0
  -20.9590   -4.3760   26.0110 F   0  0  0  0  0  0  0  0  0  0  0  0
  -23.5100  -13.7040   21.1740 C   0  0  0  0  0  0  0  0  0  0  0  0
  -22.8100  -13.0440   22.0890 N   0  0  0  0  0  0  0  0  0  0  0  0
  -23.1090  -14.7740   20.7210 O   0  0  0  0  0  0  0  0  0  0  0  0
  -23.1410  -12.1800   22.4900 H   0  0  0  0  0  0  0  0  0  0  0  0
  -21.9220  -13.4150   22.3950 H   0  0  0  0  0  0  0  0  0  0  0  0
  -26.1850  -15.2010   20.1940 N   0  0  0  0  0  0  0  0  0  0  0  0
  -25.4710  -15.8970   20.3790 H   0  0  0  0  0  0  0  0  0  0  0  0
  -27.0440  -15.6020   19.8400 H   0  0  0  0  0  0  0  0  0  0  0  0
  -29.1360  -19.8810   21.5900 N   0  0  0  0  0  0  0  0  0  0  0  0
  -29.4330  -20.0510   22.5500 H   0  0  0  0  0  0  0  0  0  0  0  0
  -28.1780  -19.5580   21.7200 H   0  0  0  0  0  0  0  0  0  0  0  0
  2  1  1  0
  2 51  1  0
  2  3  1  0
  3  4  1  0
  3  5  1  0
  7  6  1  0
  7  3  1  0
  8  7  1  0
  9  8  1  0
  9 10  1  0
 11 22  2  0
 12 10  1  0
 12 17  1  0
 13 21  1  0
 13 23  1  0
 14 20  1  0
 14 16  1  0
 15 21  1  0
 16 15  1  0
 17 16  2  0
 18 19  1  0
 18 12  2  0
 19 14  2  0
 20 13  1  0
 21 11  1  0
 23 25  2  0
 24 23  1  0
 26 24  1  0
 27 36  2  0
 27 32  1  0
 28 24  1  0
 28 32  1  0
 29 28  1  0
 30 31  1  0
 30 29  1  0
 31 27  1  0
 32 33  2  0
 33 34  1  0
 35 34  2  0
 36 35  1  0
 37 11  1  0
 37 38  1  0
 37 47  1  0
 38 41  1  0
 39 43  1  0
 39 38  1  0
 40 39  2  0
 43 42  1  0
 45 43  1  0
 45 46  1  0
 45 44  1  0
 47 50  1  1
 47 48  1  0
 49 47  1  0
 51 52  1  0
 51 61  1  0
 53 65  1  0
 54 59  1  0
 55 56  1  0
 55 54  1  0
 57 56  1  0
 57 71  1  0
 57 58  1  0
 59 53  1  0
 59 58  1  0
 60 53  2  0
 61 62  2  0
 62 96  1  0
 62 66  1  0
 63 65  1  0
 63 66  1  0
 64 61  1  0
 64 63  2  0
 65 67  1  0
 68 69  2  0
 69 88  1  0
 70 69  1  0
 70 73  1  0
 71 72  1  0
 71 68  1  0
 72 70  2  0
 73 74  1  0
 74 75  2  0
 76 79  1  0
 76 75  1  0
 77 76  2  0
 78 77  1  0
 78 73  2  0
 79 80  1  0
 80 85  2  0
 80 81  1  0
 81 82  2  0
 82 83  1  0
 83 87  1  0
 84 83  2  0
 85 84  1  0
 86 85  1  0
 88 89  1  0
 89 92  1  0
 89 91  1  0
 90 88  2  0
 93 68  1  0
 93 94  1  0
 95 93  1  0
 96 98  1  0
 96 97  1  0
M  ISO  4   9 101  10 101  53 100  65 100
M  END
>  <TORSDO>  (5) 
F 22

>  <SCORE>  (5) 
-10.606

>  <name>  (5) 
4

>  <ligand_id>  (5) 
4

>  <original_smiles>  (5) 
[H]c1c([H])c([H])c2c(c1[H])C([H])([H])C([H])([H])C([H])([H])C2([H])N([H])C(=O)C1([H])N(C(=O)C([H])(N([H])C(=O)C([H])(N([H])C([H])([H])[H])C([H])([H])[H])C(C([H])([H])[H])(C([H])([H])[H])C([H])([H])[H])C([H])([H])c2c([H])c(OC([H])([H])C([H])([H])C([H])(C([H])([H])[H])[N+]([H])([H])C([H])(C([H])([H])[H])C([H])(F)c3nc(N([H])C(=O)N4C([H])([H])C([H])([H])C([H])([H])C([H])(n5nc(-c6c([H])c([H])c(Oc7c([H])c([H])c(F)c([H])c7F)c([H])c6[H])c(C(=O)N([H])[H])c5N([H])[H])C4([H])[H])sc3N([H])[H])c([H])c([H])c2C1([H])[H]

>  <smiles>  (5) 
[H]c1c([H])c([H])c2c(c1[H])C([H])([H])C([H])([H])C([H])([H])C2([H])N([H])C(=O)C1([H])N(C(=O)C([H])(N([H])C(=O)C([H])(N([H])C([H])([H])[H])C([H])([H])[H])C(C([H])([H])[H])(C([H])([H])[H])C([H])([H])[H])C([H])([H])c2c([H])c(OC([H])([H])C([H])([H])C([H])(C([H])([H])[H])[N+]([H])([H])C([H])(C([H])([H])[H])C([H])(F)c3nc(N([H])C(=O)N4C([H])([H])C([H])([H])C([H])([H])C([H])(n5nc(-c6c([H])c([H])c(Oc7c([H])c([H])c(F)c([H])c7F)c([H])c6[H])c(C(=O)N([H])[H])c5N([H])[H])C4([H])[H])sc3N([H])[H])c([H])c([H])c2C1([H])[H]

$$$$
5:0:0
     RDKit          3D

 99107  0  0  1  0  0  0  0  0999 V2000
  -29.9930  -20.9420   19.8480 C   0  0  0  0  0  3  0  0  0  0  0  0
  -31.5440  -22.7990   19.2690 C   0  0  0  0  0  1  0  0  0  0  0  0
  -30.4550  -22.3480   20.1750 N   0  0  1  0  0  4  0  0  0  0  0  0
  -30.9080  -22.2670   21.0760 H   0  0  0  0  0  0  0  0  0  0  0  0
  -29.4090  -23.4030   20.4240 C   0  0  0  0  0  2  0  0  0  0  0  0
  -29.9550  -24.6890   21.1040 C   0  0  0  0  0  3  0  0  0  0  0  0
  -30.5270  -24.3040   22.3490 O   0  0  0  0  0  0  0  0  0  0  0  0
  -29.8400  -24.3160   23.0100 H   0  0  0  0  0  0  0  0  0  0  0  0
  -28.8870  -25.7980   21.3430 C   0  0  0  0  0  2  0  0  0  0  0  0
  -28.7500  -26.6770   20.2220 O   0  0  0  0  0  0  0  0  0  0  0  0
  -24.6140  -31.6950   23.1650 C   0  0  0  0  0  0  0  0  0  0  0  0
  -27.5640  -27.3740   20.2050 C   0  0  0  0  0  0  0  0  0  0  0  0
  -23.5280  -30.2310   21.4900 C   0  0  0  0  0  3  0  0  0  0  0  0
  -25.1010  -28.7560   20.1240 C   0  0  0  0  0  0  0  0  0  0  0  0
  -26.0380  -30.7090   21.3740 C   0  0  0  0  0  2  0  0  0  0  0  0
  -26.2120  -29.3390   20.7490 C   0  0  0  0  0  0  0  0  0  0  0  0
  -27.4470  -28.6540   20.7910 C   0  0  0  0  0  3  0  0  0  0  0  0
  -26.4440  -26.8010   19.5710 C   0  0  0  0  0  3  0  0  0  0  0  0
  -25.2110  -27.4840   19.5340 C   0  0  0  0  0  3  0  0  0  0  0  0
  -23.8150  -29.5540   20.1240 C   0  0  0  0  0  2  0  0  0  0  0  0
  -24.7420  -30.8940   22.0690 N   0  0  0  0  0  0  0  0  0  0  0  0
  -23.5040  -31.9210   23.6670 O   0  0  0  0  0  0  0  0  0  0  0  0
  -22.8920  -29.1880   22.4360 C   0  0  0  0  0  0  0  0  0  0  0  0
  -21.5810  -28.9480   22.2670 N   0  0  0  0  0  0  0  0  0  0  0  0
  -23.5760  -28.5960   23.2750 O   0  0  0  0  0  0  0  0  0  0  0  0
  -21.0890  -29.4810   21.5630 H   0  0  0  0  0  0  0  0  0  0  0  0
  -18.2480  -27.6150   22.6670 C   0  0  0  0  0  0  0  0  0  0  0  0
  -20.7830  -27.9780   23.0150 C   0  0  0  0  0  3  0  0  0  0  0  0
  -20.9610  -26.5510   22.4460 C   0  0  0  0  0  2  0  0  0  0  0  0
  -19.9050  -26.1830   21.3990 C   0  0  0  0  0  2  0  0  0  0  0  0
  -18.4990  -26.2730   22.0000 C   0  0  0  0  0  2  0  0  0  0  0  0
  -19.3200  -28.4230   23.1290 C   0  0  0  0  0  0  0  0  0  0  0  0
  -19.0320  -29.6770   23.7090 C   0  0  0  0  0  3  0  0  0  0  0  0
  -17.7040  -30.1250   23.8340 C   0  0  0  0  0  3  0  0  0  0  0  0
  -16.6450  -29.3140   23.3880 C   0  0  0  0  0  3  0  0  0  0  0  0
  -16.9180  -28.0610   22.8100 C   0  0  0  0  0  3  0  0  0  0  0  0
  -25.8490  -32.3850   23.8230 C   0  0  0  0  0  3  0  0  0  0  0  0
  -26.3700  -31.6340   25.1090 C   0  0  1  0  0  0  0  0  0  0  0  0
  -25.2620  -31.3340   26.1450 C   0  0  0  0  0  1  0  0  0  0  0  0
  -27.0370  -30.2920   24.7250 C   0  0  0  0  0  1  0  0  0  0  0  0
  -27.4590  -32.4840   25.8060 C   0  0  0  0  0  1  0  0  0  0  0  0
  -25.4650  -33.7660   24.1460 N   0  0  0  0  0  0  0  0  0  0  0  0
  -25.7680  -34.8340   23.3970 C   0  0  0  0  0  0  0  0  0  0  0  0
  -26.4700  -34.7650   22.3840 O   0  0  0  0  0  0  0  0  0  0  0  0
  -24.8390  -33.8900   24.9280 H   0  0  0  0  0  0  0  0  0  0  0  0
  -23.9640  -36.5400   22.9960 C   0  0  0  0  0  1  0  0  0  0  0  0
  -25.2010  -36.1960   23.8410 C   0  0  0  0  0  3  0  0  0  0  0  0
  -27.2660  -37.1810   24.7310 C   0  0  0  0  0  1  0  0  0  0  0  0
  -26.1830  -37.2980   23.7580 N   0  0  0  0  0  0  0  0  0  0  0  0
  -25.7290  -38.1970   23.8930 H   0  0  0  0  0  0  0  0  0  0  0  0
  -28.5500  -20.9440   19.2830 C   0  0  0  0  0  0  0  0  0  0  0  0
  -27.5560  -20.8110   20.0010 O   0  0  0  0  0  0  0  0  0  0  0  0
  -28.3870  -21.2440   17.7850 C   0  0  0  0  0  2  0  0  0  0  0  0
  -25.9190  -20.6290   17.2730 C   0  0  0  0  0  1  0  0  0  0  0  0
  -26.9860  -21.7340   17.3520 C   0  0  0  0  0  2  0  0  0  0  0  0
  -30.1870  -19.9710   21.0490 C   0  0  0  0  0  2  0  0  0  0  0  0
  -28.7040  -16.3240   20.7090 C   0  0  0  0  0  3  0  0  0  0  0  0
  -30.0710  -16.2330   20.7600 C   0  0  0  0  0  0  0  0  0  0  0  0
  -29.8440  -18.5100   20.8410 C   0  0  0  0  0  0  0  0  0  0  0  0
  -30.7210  -17.4840   20.8100 N   0  0  0  0  0  0  0  0  0  0  0  0
  -28.1650  -17.9740   20.7350 S   0  0  0  0  0  0  0  0  0  0  0  0
  -31.0840  -14.1460   19.8960 C   0  0  0  0  0  0  0  0  0  0  0  0
  -30.7520  -11.9260   18.8380 C   0  0  0  0  0  2  0  0  0  0  0  0
  -29.7570  -12.0290   17.6660 C   0  0  0  0  0  2  0  0  0  0  0  0
  -28.3010  -11.9230   18.1600 C   0  0  0  0  0  2  0  0  0  0  0  0
  -28.0130  -12.8600   19.3600 C   0  0  0  0  0  3  0  0  0  0  0  0
  -29.0990  -12.6890   20.4430 C   0  0  0  0  0  2  0  0  0  0  0  0
  -30.4200  -12.9580   19.8320 N   0  0  0  0  0  0  0  0  0  0  0  0
  -32.0620  -14.4180   19.1870 O   0  0  0  0  0  0  0  0  0  0  0  0
  -30.6560  -14.9450   20.8850 N   0  0  0  0  0  0  0  0  0  0  0  0
  -30.1660  -14.3790   21.5590 H   0  0  0  0  0  0  0  0  0  0  0  0
  -25.6530  -13.5550   20.1340 C   0  0  0  0  0  0  0  0  0  0  0  0
  -24.5840  -12.8270   20.5800 C   0  0  0  0  0  0  0  0  0  0  0  0
  -25.0140  -11.4640   20.5900 C   0  0  0  0  0  0  0  0  0  0  0  0
  -26.6700  -12.6420   19.9010 N   0  0  0  0  0  0  0  0  0  0  0  0
  -26.2880  -11.3800   20.2270 N   0  0  0  0  0  0  0  0  0  0  0  0
  -24.2710  -10.2290   20.8700 C   0  0  0  0  0  0  0  0  0  0  0  0
  -24.6690   -9.3440   21.8970 C   0  0  0  0  0  3  0  0  0  0  0  0
  -23.9280   -8.1710   22.1590 C   0  0  0  0  0  3  0  0  0  0  0  0
  -22.7750   -7.8750   21.3960 C   0  0  0  0  0  0  0  0  0  0  0  0
  -22.3940   -8.7470   20.3610 C   0  0  0  0  0  3  0  0  0  0  0  0
  -23.1360   -9.9110   20.0990 C   0  0  0  0  0  3  0  0  0  0  0  0
  -22.0100   -6.7440   21.5600 O   0  0  0  0  0  0  0  0  0  0  0  0
  -21.8570   -6.1530   22.7880 C   0  0  0  0  0  0  0  0  0  0  0  0
  -21.3290   -6.8560   23.8920 C   0  0  0  0  0  3  0  0  0  0  0  0
  -21.1210   -6.1900   25.1160 C   0  0  0  0  0  3  0  0  0  0  0  0
  -21.4300   -4.8220   25.2370 C   0  0  0  0  0  0  0  0  0  0  0  0
  -21.9510   -4.1200   24.1360 C   0  0  0  0  0  3  0  0  0  0  0  0
  -22.1610   -4.7840   22.9140 C   0  0  0  0  0  0  0  0  0  0  0  0
  -22.6430   -4.0960   21.8520 F   0  0  0  0  0  0  0  0  0  0  0  0
  -21.2240   -4.1800   26.4100 F   0  0  0  0  0  0  0  0  0  0  0  0
  -23.2110  -13.3500   20.8910 C   0  0  0  0  0  0  0  0  0  0  0  0
  -22.5150  -12.7260   21.8350 N   0  0  0  0  0  0  0  0  0  0  0  0
  -22.7650  -14.3500   20.3300 O   0  0  0  0  0  0  0  0  0  0  0  0
  -22.8870  -11.9200   22.3150 H   0  0  0  0  0  0  0  0  0  0  0  0
  -21.5970  -13.0640   22.0840 H   0  0  0  0  0  0  0  0  0  0  0  0
  -25.8420  -14.9130   19.8910 N   0  0  0  0  0  0  0  0  0  0  0  0
  -25.0870  -15.5830   19.9880 H   0  0  0  0  0  0  0  0  0  0  0  0
  -26.6870  -15.3190   19.5140 H   0  0  0  0  0  0  0  0  0  0  0  0
  1  3  1  0
  1 56  1  0
  2  3  1  0
  3  5  1  0
  3  4  1  1
  6  5  1  0
  6  9  1  0
  6  7  1  0
  7  8  1  0
 10  9  1  0
 11 22  2  0
 12 10  1  0
 12 17  1  0
 13 21  1  0
 13 23  1  0
 14 16  1  0
 15 21  1  0
 16 17  2  0
 16 15  1  0
 18 12  2  0
 19 18  1  0
 19 14  2  0
 20 14  1  0
 20 13  1  0
 21 11  1  0
 23 25  2  0
 24 23  1  0
 26 24  1  0
 27 36  2  0
 27 32  1  0
 28 24  1  0
 28 32  1  0
 29 28  1  0
 30 31  1  0
 30 29  1  0
 31 27  1  0
 32 33  2  0
 33 34  1  0
 35 34  2  0
 36 35  1  0
 37 11  1  0
 37 42  1  0
 37 38  1  0
 38 41  1  1
 38 39  1  0
 40 38  1  0
 42 45  1  0
 43 47  1  0
 43 42  1  0
 44 43  2  0
 47 46  1  0
 49 47  1  0
 49 50  1  0
 49 48  1  0
 51  1  1  0
 51 52  2  0
 53 51  1  0
 54 55  1  0
 55 53  1  0
 57 61  1  0
 57 58  2  0
 58 60  1  0
 58 70  1  0
 59 56  1  0
 60 59  2  0
 61 59  1  0
 62 70  1  0
 63 68  1  0
 64 65  1  0
 64 63  1  0
 66 65  1  0
 66 75  1  0
 66 67  1  0
 68 62  1  0
 68 67  1  0
 69 62  2  0
 70 71  1  0
 72 73  2  0
 73 74  1  0
 73 92  1  0
 74 77  1  0
 75 72  1  0
 75 76  1  0
 76 74  2  0
 77 78  1  0
 78 79  2  0
 80 83  1  0
 80 79  1  0
 81 80  2  0
 82 81  1  0
 82 77  2  0
 83 84  1  0
 84 89  2  0
 84 85  1  0
 85 86  2  0
 86 87  1  0
 87 91  1  0
 88 87  2  0
 89 88  1  0
 90 89  1  0
 92 93  1  0
 93 96  1  0
 93 95  1  0
 94 92  2  0
 97 98  1  0
 97 72  1  0
 99 97  1  0
M  ISO  4   9 101  10 101  62 100  70 100
M  END
>  <TORSDO>  (6) 
F 26

>  <SCORE>  (6) 
-10.825

>  <name>  (6) 
5

>  <ligand_id>  (6) 
5

>  <original_smiles>  (6) 
[H]OC([H])(C([H])([H])Oc1c([H])c([H])c2c(c1[H])C([H])([H])N(C(=O)C([H])(N([H])C(=O)C([H])(N([H])C([H])([H])[H])C([H])([H])[H])C(C([H])([H])[H])(C([H])([H])[H])C([H])([H])[H])C([H])(C(=O)N([H])C1([H])c3c([H])c([H])c([H])c([H])c3C([H])([H])C([H])([H])C1([H])[H])C2([H])[H])C([H])([H])[N+]([H])(C([H])([H])[H])C([H])(C(=O)C([H])([H])C([H])([H])C([H])([H])[H])C([H])([H])c1nc(N([H])C(=O)N2C([H])([H])C([H])([H])C([H])([H])C([H])(n3nc(-c4c([H])c([H])c(Oc5c([H])c([H])c(F)c([H])c5F)c([H])c4[H])c(C(=O)N([H])[H])c3N([H])[H])C2([H])[H])c([H])s1

>  <smiles>  (6) 
[H]OC([H])(C([H])([H])Oc1c([H])c([H])c2c(c1[H])C([H])([H])N(C(=O)C([H])(N([H])C(=O)C([H])(N([H])C([H])([H])[H])C([H])([H])[H])C(C([H])([H])[H])(C([H])([H])[H])C([H])([H])[H])C([H])(C(=O)N([H])C1([H])c3c([H])c([H])c([H])c([H])c3C([H])([H])C([H])([H])C1([H])[H])C2([H])[H])C([H])([H])[N+]([H])(C([H])([H])[H])C([H])(C(=O)C([H])([H])C([H])([H])C([H])([H])[H])C([H])([H])c1nc(N([H])C(=O)N2C([H])([H])C([H])([H])C([H])([H])C([H])(n3nc(-c4c([H])c([H])c(Oc5c([H])c([H])c(F)c([H])c5F)c([H])c4[H])c(C(=O)N([H])[H])c3N([H])[H])C2([H])[H])c([H])s1

$$$$
6:0:0
     RDKit          3D

 95103  0  0  1  0  0  0  0  0999 V2000
  -29.0510  -22.9400   19.1830 C   0  0  0  0  0  1  0  0  0  0  0  0
  -30.3910  -23.6110   19.5230 C   0  0  0  0  0  3  0  0  0  0  0  0
  -34.9140  -22.4780   19.8330 C   0  0  0  0  0  0  0  0  0  0  0  0
  -34.8370  -21.2050   20.3620 C   0  0  0  0  0  0  0  0  0  0  0  0
  -32.6510  -22.2940   20.0610 C   0  0  0  0  0  0  0  0  0  0  0  0
  -35.9470  -20.2720   20.7220 C   0  0  0  0  0  1  0  0  0  0  0  0
  -33.6520  -23.0760   19.6490 N   0  0  0  0  0  0  0  0  0  0  0  0
  -31.2960  -22.6030   20.0740 N   0  0  0  0  0  0  0  0  0  0  0  0
  -33.1840  -20.7300   20.6520 S   0  0  0  0  0  0  0  0  0  0  0  0
  -30.7800  -21.8410   20.5000 H   0  0  0  0  0  0  0  0  0  0  0  0
  -36.1680  -23.2510   19.5020 C   0  0  0  0  0  2  0  0  0  0  0  0
  -37.2340  -23.9740   17.3860 C   0  0  0  0  0  0  0  0  0  0  0  0
  -38.2220  -25.3510   15.5960 C   0  0  0  0  0  2  0  0  0  0  0  0
  -38.3150  -26.8130   16.0790 C   0  0  0  0  0  2  0  0  0  0  0  0
  -37.0000  -27.5670   15.8000 C   0  0  0  0  0  2  0  0  0  0  0  0
  -35.7470  -26.7840   16.2780 C   0  0  0  0  0  3  0  0  0  0  0  0
  -35.8010  -25.3150   15.8000 C   0  0  0  0  0  2  0  0  0  0  0  0
  -37.0700  -24.7330   16.2700 N   0  0  0  0  0  0  0  0  0  0  0  0
  -38.3260  -23.5190   17.7390 O   0  0  0  0  0  0  0  0  0  0  0  0
  -36.1540  -23.8580   18.1700 N   0  0  0  0  0  0  0  0  0  0  0  0
  -35.2940  -24.2850   17.8630 H   0  0  0  0  0  0  0  0  0  0  0  0
  -33.6280  -28.2090   16.6030 C   0  0  0  0  0  0  0  0  0  0  0  0
  -32.6780  -28.6480   15.7210 C   0  0  0  0  0  0  0  0  0  0  0  0
  -33.0480  -28.1210   14.4470 C   0  0  0  0  0  0  0  0  0  0  0  0
  -34.5130  -27.4440   15.8580 N   0  0  0  0  0  0  0  0  0  0  0  0
  -34.1240  -27.3520   14.5600 N   0  0  0  0  0  0  0  0  0  0  0  0
  -32.4740  -28.3470   13.1140 C   0  0  0  0  0  0  0  0  0  0  0  0
  -31.7230  -27.3480   12.4540 C   0  0  0  0  0  3  0  0  0  0  0  0
  -31.1660  -27.5950   11.1820 C   0  0  0  0  0  3  0  0  0  0  0  0
  -31.3530  -28.8520   10.5580 C   0  0  0  0  0  0  0  0  0  0  0  0
  -32.1190  -29.8340   11.2090 C   0  0  0  0  0  3  0  0  0  0  0  0
  -32.6770  -29.5850   12.4740 C   0  0  0  0  0  3  0  0  0  0  0  0
  -30.8720  -29.1730    9.3110 O   0  0  0  0  0  0  0  0  0  0  0  0
  -29.6130  -28.8050    8.9090 C   0  0  0  0  0  0  0  0  0  0  0  0
  -28.4540  -29.2730    9.5670 C   0  0  0  0  0  3  0  0  0  0  0  0
  -27.1780  -28.9250    9.0780 C   0  0  0  0  0  3  0  0  0  0  0  0
  -27.0600  -28.1210    7.9290 C   0  0  0  0  0  0  0  0  0  0  0  0
  -28.2120  -27.6600    7.2680 C   0  0  0  0  0  3  0  0  0  0  0  0
  -29.4850  -28.0040    7.7570 C   0  0  0  0  0  0  0  0  0  0  0  0
  -30.5930  -27.5740    7.1040 F   0  0  0  0  0  0  0  0  0  0  0  0
  -25.8340  -27.7940    7.4540 F   0  0  0  0  0  0  0  0  0  0  0  0
  -31.5440  -29.5860   16.0220 C   0  0  0  0  0  0  0  0  0  0  0  0
  -30.3250  -29.2120   15.6470 N   0  0  0  0  0  0  0  0  0  0  0  0
  -31.7270  -30.6360   16.6350 O   0  0  0  0  0  0  0  0  0  0  0  0
  -30.1710  -28.3410   15.1620 H   0  0  0  0  0  0  0  0  0  0  0  0
  -29.5330  -29.8060   15.8490 H   0  0  0  0  0  0  0  0  0  0  0  0
  -33.8240  -28.4090   17.9670 N   0  0  0  0  0  0  0  0  0  0  0  0
  -33.2150  -29.0040   18.5170 H   0  0  0  0  0  0  0  0  0  0  0  0
  -34.6130  -28.0570   18.4930 H   0  0  0  0  0  0  0  0  0  0  0  0
  -30.3060  -24.8100   20.5240 C   0  0  0  0  0  2  0  0  0  0  0  0
  -28.9510  -25.4280   20.9880 C   0  0  0  0  0  3  0  0  0  0  0  0
  -28.4640  -24.6890   22.0970 O   0  0  0  0  0  0  0  0  0  0  0  0
  -27.6840  -25.1380   22.4100 H   0  0  0  0  0  0  0  0  0  0  0  0
  -27.8390  -25.6410   19.9250 C   0  0  0  0  0  2  0  0  0  0  0  0
  -27.4000  -27.0150   19.8770 O   0  0  0  0  0  0  0  0  0  0  0  0
  -25.8270  -31.7390   24.9520 C   0  0  0  0  0  0  0  0  0  0  0  0
  -26.4500  -27.4440   20.7810 C   0  0  0  0  0  0  0  0  0  0  0  0
  -24.2840  -29.8150   24.7600 C   0  0  0  0  0  3  0  0  0  0  0  0
  -24.5610  -28.3750   22.6730 C   0  0  0  0  0  0  0  0  0  0  0  0
  -25.5740  -30.6600   22.7180 C   0  0  0  0  0  2  0  0  0  0  0  0
  -25.5500  -29.2400   22.1890 C   0  0  0  0  0  0  0  0  0  0  0  0
  -26.4890  -28.7820   21.2390 C   0  0  0  0  0  3  0  0  0  0  0  0
  -25.4300  -26.5920   21.2640 C   0  0  0  0  0  3  0  0  0  0  0  0
  -24.4960  -27.0490   22.2120 C   0  0  0  0  0  3  0  0  0  0  0  0
  -23.5900  -28.9370   23.6850 C   0  0  0  0  0  2  0  0  0  0  0  0
  -25.2780  -30.7680   24.1670 N   0  0  0  0  0  0  0  0  0  0  0  0
  -25.4860  -31.8740   26.1350 O   0  0  0  0  0  0  0  0  0  0  0  0
  -24.8910  -28.8900   25.8390 C   0  0  0  0  0  0  0  0  0  0  0  0
  -24.5850  -29.1750   27.1150 N   0  0  0  0  0  0  0  0  0  0  0  0
  -25.5930  -27.9260   25.5210 O   0  0  0  0  0  0  0  0  0  0  0  0
  -24.0110  -29.9880   27.2920 H   0  0  0  0  0  0  0  0  0  0  0  0
  -25.7820  -29.4990   30.5080 C   0  0  0  0  0  0  0  0  0  0  0  0
  -25.0070  -28.4190   28.2920 C   0  0  0  0  0  3  0  0  0  0  0  0
  -23.7870  -27.9000   29.0900 C   0  0  0  0  0  2  0  0  0  0  0  0
  -23.3540  -28.8480   30.2120 C   0  0  0  0  0  2  0  0  0  0  0  0
  -24.5010  -29.0660   31.2020 C   0  0  0  0  0  2  0  0  0  0  0  0
  -26.0120  -29.2090   29.1370 C   0  0  0  0  0  0  0  0  0  0  0  0
  -27.2020  -29.6640   28.5310 C   0  0  0  0  0  3  0  0  0  0  0  0
  -28.1540  -30.3930   29.2690 C   0  0  0  0  0  3  0  0  0  0  0  0
  -27.9280  -30.6640   30.6300 C   0  0  0  0  0  3  0  0  0  0  0  0
  -26.7480  -30.2140   31.2480 C   0  0  0  0  0  3  0  0  0  0  0  0
  -26.8860  -32.7400   24.3940 C   0  0  0  0  0  3  0  0  0  0  0  0
  -26.3430  -34.0960   24.5550 N   0  0  0  0  0  0  0  0  0  0  0  0
  -25.9820  -34.8940   23.5420 C   0  0  0  0  0  0  0  0  0  0  0  0
  -26.1410  -34.5870   22.3570 O   0  0  0  0  0  0  0  0  0  0  0  0
  -26.1370  -34.3910   25.4980 H   0  0  0  0  0  0  0  0  0  0  0  0
  -24.1350  -36.5060   22.9820 C   0  0  0  0  0  1  0  0  0  0  0  0
  -25.3410  -36.2490   23.9000 C   0  0  0  0  0  3  0  0  0  0  0  0
  -27.2430  -37.4220   24.9140 C   0  0  0  0  0  1  0  0  0  0  0  0
  -26.2830  -37.3860   23.8140 N   0  0  0  0  0  0  0  0  0  0  0  0
  -25.7810  -38.2690   23.8000 H   0  0  0  0  0  0  0  0  0  0  0  0
  -28.2920  -32.6150   25.1000 C   0  0  1  0  0  0  0  0  0  0  0  0
  -28.3170  -33.1750   26.5410 C   0  0  0  0  0  1  0  0  0  0  0  0
  -28.7400  -31.1360   25.1620 C   0  0  0  0  0  1  0  0  0  0  0  0
  -29.3620  -33.3660   24.2740 C   0  0  0  0  0  1  0  0  0  0  0  0
  2  1  1  0
  2  8  1  0
  2 50  1  0
  3  4  2  0
  4  9  1  0
  4  6  1  0
  5  8  1  0
  5  9  1  0
  7  3  1  0
  7  5  2  0
  8 10  1  0
 11  3  1  0
 12 19  2  0
 12 20  1  0
 13 14  1  0
 13 18  1  0
 15 14  1  0
 16 15  1  0
 17 18  1  0
 17 16  1  0
 18 12  1  0
 20 11  1  0
 21 20  1  0
 22 47  1  0
 23 42  1  0
 23 22  2  0
 24 26  2  0
 24 23  1  0
 25 16  1  0
 25 22  1  0
 26 25  1  0
 27 24  1  0
 28 27  2  0
 29 28  1  0
 30 29  2  0
 30 31  1  0
 31 32  2  0
 32 27  1  0
 33 30  1  0
 34 33  1  0
 34 35  1  0
 36 35  2  0
 37 36  1  0
 38 39  1  0
 38 37  2  0
 39 34  2  0
 40 39  1  0
 41 37  1  0
 42 44  2  0
 43 46  1  0
 43 42  1  0
 45 43  1  0
 47 49  1  0
 47 48  1  0
 50 51  1  0
 51 54  1  0
 51 52  1  0
 52 53  1  0
 55 54  1  0
 55 57  1  0
 56 67  2  0
 57 62  2  0
 57 63  1  0
 58 68  1  0
 59 65  1  0
 60 66  1  0
 61 59  2  0
 61 60  1  0
 62 61  1  0
 63 64  2  0
 64 59  1  0
 65 58  1  0
 66 58  1  0
 66 56  1  0
 68 69  1  0
 69 71  1  0
 70 68  2  0
 72 76  1  0
 72 81  1  0
 73 69  1  0
 73 74  1  0
 73 77  1  0
 74 75  1  0
 75 76  1  0
 77 72  2  0
 78 77  1  0
 78 79  2  0
 79 80  1  0
 80 81  2  0
 82 83  1  0
 82 56  1  0
 82 92  1  0
 83 86  1  0
 84 88  1  0
 84 83  1  0
 85 84  2  0
 88 87  1  0
 90 88  1  0
 90 89  1  0
 91 90  1  0
 92 94  1  1
 92 93  1  0
 95 92  1  0
M  ISO  4  12 100  20 100  54 101  55 101
M  END
>  <TORSDO>  (7) 
F 22

>  <SCORE>  (7) 
-5.993

>  <name>  (7) 
6

>  <ligand_id>  (7) 
6

>  <original_smiles>  (7) 
[H]OC([H])(C([H])([H])Oc1c([H])c([H])c2c(c1[H])C([H])([H])N(C(=O)C([H])(N([H])C(=O)C([H])(N([H])C([H])([H])[H])C([H])([H])[H])C(C([H])([H])[H])(C([H])([H])[H])C([H])([H])[H])C([H])(C(=O)N([H])C1([H])c3c([H])c([H])c([H])c([H])c3C([H])([H])C([H])([H])C1([H])[H])C2([H])[H])C([H])([H])C([H])(N([H])c1nc(C([H])([H])N([H])C(=O)N2C([H])([H])C([H])([H])C([H])([H])C([H])(n3nc(-c4c([H])c([H])c(Oc5c([H])c([H])c(F)c([H])c5F)c([H])c4[H])c(C(=O)N([H])[H])c3N([H])[H])C2([H])[H])c(C([H])([H])[H])s1)C([H])([H])[H]

>  <smiles>  (7) 
[H]OC([H])(C([H])([H])Oc1c([H])c([H])c2c(c1[H])C([H])([H])N(C(=O)C([H])(N([H])C(=O)C([H])(N([H])C([H])([H])[H])C([H])([H])[H])C(C([H])([H])[H])(C([H])([H])[H])C([H])([H])[H])C([H])(C(=O)N([H])C1([H])c3c([H])c([H])c([H])c([H])c3C([H])([H])C([H])([H])C1([H])[H])C2([H])[H])C([H])([H])C([H])(N([H])c1nc(C([H])([H])N([H])C(=O)N2C([H])([H])C([H])([H])C([H])([H])C([H])(n3nc(-c4c([H])c([H])c(Oc5c([H])c([H])c(F)c([H])c5F)c([H])c4[H])c(C(=O)N([H])[H])c3N([H])[H])C2([H])[H])c(C([H])([H])[H])s1)C([H])([H])[H]

$$$$
7:0:0
     RDKit          3D

 93101  0  0  1  0  0  0  0  0999 V2000
  -28.7550  -21.5580   19.9600 C   0  0  0  0  0  2  0  0  0  0  0  0
  -30.6570  -14.5430   20.5840 C   0  0  0  0  0  0  0  0  0  0  0  0
  -30.4090  -12.3430   19.5100 C   0  0  0  0  0  2  0  0  0  0  0  0
  -29.5170  -12.5510   18.2680 C   0  0  0  0  0  2  0  0  0  0  0  0
  -28.0270  -12.4300   18.6360 C   0  0  0  0  0  2  0  0  0  0  0  0
  -27.6490  -13.2650   19.8900 C   0  0  0  0  0  3  0  0  0  0  0  0
  -28.6670  -13.0580   21.0360 C   0  0  0  0  0  2  0  0  0  0  0  0
  -30.0120  -13.3460   20.5110 N   0  0  0  0  0  0  0  0  0  0  0  0
  -31.8260  -14.6880   20.2100 O   0  0  0  0  0  0  0  0  0  0  0  0
  -29.8290  -16.8060   18.7810 C   0  0  0  0  0  3  0  0  0  0  0  0
  -29.6260  -18.0050   18.0910 C   0  0  0  0  0  3  0  0  0  0  0  0
  -29.7690  -16.8310   20.1900 C   0  0  0  0  0  0  0  0  0  0  0  0
  -29.2890  -19.1010   20.0520 C   0  0  0  0  0  0  0  0  0  0  0  0
  -29.3480  -19.1470   18.7330 N   0  0  0  0  0  0  0  0  0  0  0  0
  -29.4770  -18.0140   20.8020 N   0  0  0  0  0  0  0  0  0  0  0  0
  -29.8890  -15.6030   20.9210 N   0  0  0  0  0  0  0  0  0  0  0  0
  -28.9710  -20.2910   20.6830 N   0  0  0  0  0  0  0  0  0  0  0  0
  -29.0970  -15.3840   21.5020 H   0  0  0  0  0  0  0  0  0  0  0  0
  -29.0910  -20.3310   21.6880 H   0  0  0  0  0  0  0  0  0  0  0  0
  -25.2260  -13.8680   20.5060 C   0  0  0  0  0  0  0  0  0  0  0  0
  -24.1510  -13.0950   20.8530 C   0  0  0  0  0  0  0  0  0  0  0  0
  -24.6210  -11.7460   20.8580 C   0  0  0  0  0  0  0  0  0  0  0  0
  -26.2820  -12.9900   20.3260 N   0  0  0  0  0  0  0  0  0  0  0  0
  -25.9200  -11.7110   20.5970 N   0  0  0  0  0  0  0  0  0  0  0  0
  -23.8940  -10.4830   21.0420 C   0  0  0  0  0  0  0  0  0  0  0  0
  -24.3010   -9.5300   22.0000 C   0  0  0  0  0  3  0  0  0  0  0  0
  -23.5750   -8.3310   22.1730 C   0  0  0  0  0  3  0  0  0  0  0  0
  -22.4290   -8.0760   21.3840 C   0  0  0  0  0  0  0  0  0  0  0  0
  -22.0410   -9.0190   20.4160 C   0  0  0  0  0  3  0  0  0  0  0  0
  -22.7680  -10.2080   20.2420 C   0  0  0  0  0  3  0  0  0  0  0  0
  -21.6780   -6.9280   21.4640 O   0  0  0  0  0  0  0  0  0  0  0  0
  -21.5960   -6.1990   22.6220 C   0  0  0  0  0  0  0  0  0  0  0  0
  -21.1250   -6.7630   23.8280 C   0  0  0  0  0  3  0  0  0  0  0  0
  -20.9940   -5.9580   24.9780 C   0  0  0  0  0  3  0  0  0  0  0  0
  -21.3220   -4.5900   24.9220 C   0  0  0  0  0  0  0  0  0  0  0  0
  -21.7840   -4.0250   23.7200 C   0  0  0  0  0  3  0  0  0  0  0  0
  -21.9180   -4.8280   22.5720 C   0  0  0  0  0  0  0  0  0  0  0  0
  -22.3440   -4.2730   21.4120 F   0  0  0  0  0  0  0  0  0  0  0  0
  -21.1880   -3.8150   26.0230 F   0  0  0  0  0  0  0  0  0  0  0  0
  -22.7430  -13.5660   21.0690 C   0  0  0  0  0  0  0  0  0  0  0  0
  -21.9880  -12.8790   21.9180 N   0  0  0  0  0  0  0  0  0  0  0  0
  -22.3150  -14.5790   20.5190 O   0  0  0  0  0  0  0  0  0  0  0  0
  -22.3470  -12.0600   22.3880 H   0  0  0  0  0  0  0  0  0  0  0  0
  -21.0390  -13.1750   22.1030 H   0  0  0  0  0  0  0  0  0  0  0  0
  -25.3900  -15.2360   20.3110 N   0  0  0  0  0  0  0  0  0  0  0  0
  -24.6150  -15.8870   20.3750 H   0  0  0  0  0  0  0  0  0  0  0  0
  -26.2460  -15.6770   20.0030 H   0  0  0  0  0  0  0  0  0  0  0  0
  -28.6250  -22.8120   20.8720 C   0  0  0  0  0  3  0  0  0  0  0  0
  -29.7540  -22.8000   21.7310 O   0  0  0  0  0  0  0  0  0  0  0  0
  -29.6420  -23.4870   22.3810 H   0  0  0  0  0  0  0  0  0  0  0  0
  -28.5950  -24.1530   20.0660 C   0  0  0  0  0  3  0  0  0  0  0  0
  -28.2590  -25.4270   20.8930 C   0  0  0  0  0  3  0  0  0  0  0  0
  -28.3510  -26.6790   20.1720 O   0  0  0  0  0  0  0  0  0  0  0  0
  -24.5810  -31.9090   23.2570 C   0  0  0  0  0  0  0  0  0  0  0  0
  -27.2030  -27.4440   20.1760 C   0  0  0  0  0  0  0  0  0  0  0  0
  -23.3690  -30.5010   21.6280 C   0  0  0  0  0  3  0  0  0  0  0  0
  -24.8170  -28.9630   20.1940 C   0  0  0  0  0  0  0  0  0  0  0  0
  -25.8960  -30.8600   21.4130 C   0  0  0  0  0  2  0  0  0  0  0  0
  -25.9810  -29.4870   20.7720 C   0  0  0  0  0  0  0  0  0  0  0  0
  -27.1800  -28.7350   20.7570 C   0  0  0  0  0  3  0  0  0  0  0  0
  -26.0260  -26.9410   19.5850 C   0  0  0  0  0  3  0  0  0  0  0  0
  -24.8350  -27.6910   19.5940 C   0  0  0  0  0  3  0  0  0  0  0  0
  -23.5730  -29.8210   20.2490 C   0  0  0  0  0  2  0  0  0  0  0  0
  -24.6350  -31.1050   22.1580 N   0  0  0  0  0  0  0  0  0  0  0  0
  -23.5020  -32.1840   23.8010 O   0  0  0  0  0  0  0  0  0  0  0  0
  -22.7230  -29.4830   22.5940 C   0  0  0  0  0  0  0  0  0  0  0  0
  -21.4010  -29.2880   22.4630 N   0  0  0  0  0  0  0  0  0  0  0  0
  -23.4080  -28.8680   23.4150 O   0  0  0  0  0  0  0  0  0  0  0  0
  -20.9110  -29.8310   21.7680 H   0  0  0  0  0  0  0  0  0  0  0  0
  -18.0370  -28.0550   22.9470 C   0  0  0  0  0  0  0  0  0  0  0  0
  -20.5900  -28.3500   23.2370 C   0  0  0  0  0  3  0  0  0  0  0  0
  -20.7180  -26.9150   22.6770 C   0  0  0  0  0  2  0  0  0  0  0  0
  -19.6280  -26.5660   21.6580 C   0  0  0  0  0  2  0  0  0  0  0  0
  -18.2380  -26.7000   22.2870 C   0  0  0  0  0  2  0  0  0  0  0  0
  -19.1420  -28.8370   23.3770 C   0  0  0  0  0  0  0  0  0  0  0  0
  -18.9020  -30.1040   23.9520 C   0  0  0  0  0  3  0  0  0  0  0  0
  -17.5910  -30.5900   24.1020 C   0  0  0  0  0  3  0  0  0  0  0  0
  -16.5000  -29.8070   23.6860 C   0  0  0  0  0  3  0  0  0  0  0  0
  -16.7230  -28.5410   23.1130 C   0  0  0  0  0  3  0  0  0  0  0  0
  -25.8680  -32.5460   23.8690 C   0  0  0  0  0  3  0  0  0  0  0  0
  -26.3890  -31.7780   25.1460 C   0  0  1  0  0  0  0  0  0  0  0  0
  -25.2970  -31.5460   26.2170 C   0  0  0  0  0  1  0  0  0  0  0  0
  -26.9700  -30.3980   24.7560 C   0  0  0  0  0  1  0  0  0  0  0  0
  -27.5420  -32.5740   25.7990 C   0  0  0  0  0  1  0  0  0  0  0  0
  -25.5590  -33.9450   24.1930 N   0  0  0  0  0  0  0  0  0  0  0  0
  -25.8970  -34.9940   23.4300 C   0  0  0  0  0  0  0  0  0  0  0  0
  -26.5740  -34.8840   22.4050 O   0  0  0  0  0  0  0  0  0  0  0  0
  -24.9560  -34.1050   24.9860 H   0  0  0  0  0  0  0  0  0  0  0  0
  -24.1800  -36.7900   23.0510 C   0  0  0  0  0  1  0  0  0  0  0  0
  -25.4090  -36.3840   23.8790 C   0  0  0  0  0  3  0  0  0  0  0  0
  -27.5380  -37.2600   24.7350 C   0  0  0  0  0  1  0  0  0  0  0  0
  -26.4480  -37.4340   23.7780 N   0  0  0  0  0  0  0  0  0  0  0  0
  -26.0440  -38.3560   23.9230 H   0  0  0  0  0  0  0  0  0  0  0  0
  1 17  1  0
  2 16  1  0
  3  8  1  0
  4  5  1  0
  4  3  1  0
  6  5  1  0
  6 23  1  0
  6  7  1  0
  8  2  1  0
  8  7  1  0
  9  2  2  0
 10 12  1  0
 11 14  1  0
 11 10  2  0
 12 15  2  0
 12 16  1  0
 13 17  1  0
 13 15  1  0
 14 13  2  0
 16 18  1  0
 17 19  1  0
 20 21  2  0
 21 22  1  0
 21 40  1  0
 22 25  1  0
 23 20  1  0
 23 24  1  0
 24 22  2  0
 25 26  1  0
 26 27  2  0
 28 31  1  0
 28 27  1  0
 29 28  2  0
 30 29  1  0
 30 25  2  0
 31 32  1  0
 32 33  1  0
 33 34  2  0
 35 34  1  0
 35 39  1  0
 36 35  2  0
 37 32  2  0
 37 36  1  0
 38 37  1  0
 40 41  1  0
 41 44  1  0
 41 43  1  0
 42 40  2  0
 45 46  1  0
 45 20  1  0
 47 45  1  0
 48  1  1  0
 48 49  1  0
 49 50  1  0
 51 48  1  0
 51 52  2  0
 53 55  1  0
 53 52  1  0
 54 65  2  0
 55 60  1  0
 56 64  1  0
 56 66  1  0
 57 63  1  0
 57 59  1  0
 58 64  1  0
 59 58  1  0
 60 59  2  0
 61 62  1  0
 61 55  2  0
 62 57  2  0
 63 56  1  0
 64 54  1  0
 66 68  2  0
 67 66  1  0
 69 67  1  0
 70 79  2  0
 70 75  1  0
 71 67  1  0
 71 75  1  0
 72 71  1  0
 73 74  1  0
 73 72  1  0
 74 70  1  0
 75 76  2  0
 76 77  1  0
 78 77  2  0
 79 78  1  0
 80 54  1  0
 80 85  1  0
 80 81  1  0
 81 84  1  1
 81 82  1  0
 83 81  1  0
 85 88  1  0
 86 90  1  0
 86 85  1  0
 87 86  2  0
 90 89  1  0
 92 90  1  0
 92 93  1  0
 92 91  1  0
M  ISO  4   2 100  16 100  52 101  53 101
M  END
>  <TORSDO>  (8) 
F 20

>  <SCORE>  (8) 
-14.013

>  <name>  (8) 
7

>  <ligand_id>  (8) 
7

>  <original_smiles>  (8) 
[H]OC([H])(C([H])([H])N([H])c1nc([H])c([H])c(N([H])C(=O)N2C([H])([H])C([H])([H])C([H])([H])C([H])(n3nc(-c4c([H])c([H])c(Oc5c([H])c([H])c(F)c([H])c5F)c([H])c4[H])c(C(=O)N([H])[H])c3N([H])[H])C2([H])[H])n1)C([H])([H])C([H])([H])Oc1c([H])c([H])c2c(c1[H])C([H])([H])N(C(=O)C([H])(N([H])C(=O)C([H])(N([H])C([H])([H])[H])C([H])([H])[H])C(C([H])([H])[H])(C([H])([H])[H])C([H])([H])[H])C([H])(C(=O)N([H])C1([H])c3c([H])c([H])c([H])c([H])c3C([H])([H])C([H])([H])C1([H])[H])C2([H])[H]

>  <smiles>  (8) 
[H]OC([H])(C([H])([H])N([H])c1nc([H])c([H])c(N([H])C(=O)N2C([H])([H])C([H])([H])C([H])([H])C([H])(n3nc(-c4c([H])c([H])c(Oc5c([H])c([H])c(F)c([H])c5F)c([H])c4[H])c(C(=O)N([H])[H])c3N([H])[H])C2([H])[H])n1)C([H])([H])C([H])([H])Oc1c([H])c([H])c2c(c1[H])C([H])([H])N(C(=O)C([H])(N([H])C(=O)C([H])(N([H])C([H])([H])[H])C([H])([H])[H])C(C([H])([H])[H])(C([H])([H])[H])C([H])([H])[H])C([H])(C(=O)N([H])C1([H])c3c([H])c([H])c([H])c([H])c3C([H])([H])C([H])([H])C1([H])[H])C2([H])[H]

$$$$
8:0:0
     RDKit          3D

100108  0  0  1  0  0  0  0  0999 V2000
  -30.7300  -20.5640   21.6940 C   0  0  0  0  0  0  0  0  0  0  0  0
  -31.0390  -20.6890   22.9980 N   0  0  0  0  0  4  0  0  0  0  0  0
  -30.6250  -21.6750   20.9210 N   0  0  0  0  0  0  0  0  0  0  0  0
  -31.0210  -19.8430   23.5520 H   0  0  0  0  0  0  0  0  0  0  0  0
  -31.1490  -21.5670   23.4740 H   0  0  0  0  0  0  0  0  0  0  0  0
  -30.3630  -21.5310   19.9540 H   0  0  0  0  0  0  0  0  0  0  0  0
  -29.6370  -17.1070   21.6350 C   0  0  0  0  0  3  0  0  0  0  0  0
  -30.5520  -19.1800   21.1770 C   0  0  0  0  0  0  0  0  0  0  0  0
  -30.3070  -16.5190   20.5320 C   0  0  0  0  0  0  0  0  0  0  0  0
  -31.2180  -18.6120   20.0490 C   0  0  0  0  0  0  0  0  0  0  0  0
  -29.7500  -18.4170   21.9620 N   0  0  0  0  0  0  0  0  0  0  0  0
  -31.0810  -17.3000   19.7270 N   0  0  0  0  0  0  0  0  0  0  0  0
  -32.0730  -19.3250   19.2120 N   0  0  0  0  0  0  0  0  0  0  0  0
  -32.5820  -20.1130   19.5930 H   0  0  0  0  0  0  0  0  0  0  0  0
  -32.6360  -18.7780   18.5710 H   0  0  0  0  0  0  0  0  0  0  0  0
  -30.6020  -14.2410   19.4850 C   0  0  0  0  0  0  0  0  0  0  0  0
  -30.1230  -12.1210   18.3010 C   0  0  0  0  0  2  0  0  0  0  0  0
  -28.9880  -12.3490   17.2810 C   0  0  0  0  0  2  0  0  0  0  0  0
  -27.6060  -12.1910   17.9460 C   0  0  0  0  0  2  0  0  0  0  0  0
  -27.4850  -12.9910   19.2700 C   0  0  0  0  0  3  0  0  0  0  0  0
  -28.7060  -12.7220   20.1780 C   0  0  0  0  0  2  0  0  0  0  0  0
  -29.9260  -13.0600   19.4180 N   0  0  0  0  0  0  0  0  0  0  0  0
  -31.5780  -14.4900   18.7680 O   0  0  0  0  0  0  0  0  0  0  0  0
  -30.0890  -15.1190   20.3660 N   0  0  0  0  0  0  0  0  0  0  0  0
  -29.3620  -14.7310   20.9470 H   0  0  0  0  0  0  0  0  0  0  0  0
  -25.2490  -13.5840   20.4010 C   0  0  0  0  0  0  0  0  0  0  0  0
  -24.2470  -12.8030   20.9120 C   0  0  0  0  0  0  0  0  0  0  0  0
  -24.6750  -11.4510   20.7400 C   0  0  0  0  0  0  0  0  0  0  0  0
  -26.2270  -12.7070   19.9560 N   0  0  0  0  0  0  0  0  0  0  0  0
  -25.8930  -11.4160   20.2130 N   0  0  0  0  0  0  0  0  0  0  0  0
  -23.9740  -10.1860   20.9920 C   0  0  0  0  0  0  0  0  0  0  0  0
  -24.4680   -9.2400   21.9170 C   0  0  0  0  0  3  0  0  0  0  0  0
  -23.7660   -8.0390   22.1560 C   0  0  0  0  0  3  0  0  0  0  0  0
  -22.5550   -7.7760   21.4710 C   0  0  0  0  0  0  0  0  0  0  0  0
  -22.0790   -8.7110   20.5350 C   0  0  0  0  0  3  0  0  0  0  0  0
  -22.7820   -9.9030   20.2940 C   0  0  0  0  0  3  0  0  0  0  0  0
  -21.8200   -6.6250   21.6200 O   0  0  0  0  0  0  0  0  0  0  0  0
  -21.7050   -5.9960   22.8340 C   0  0  0  0  0  0  0  0  0  0  0  0
  -21.1130   -6.6290   23.9500 C   0  0  0  0  0  3  0  0  0  0  0  0
  -20.9530   -5.9220   25.1570 C   0  0  0  0  0  3  0  0  0  0  0  0
  -21.3740   -4.5820   25.2500 C   0  0  0  0  0  0  0  0  0  0  0  0
  -21.9590   -3.9490   24.1400 C   0  0  0  0  0  3  0  0  0  0  0  0
  -22.1210   -4.6540   22.9340 C   0  0  0  0  0  0  0  0  0  0  0  0
  -22.6660   -4.0310   21.8610 F   0  0  0  0  0  0  0  0  0  0  0  0
  -21.2140   -3.9000   26.4080 F   0  0  0  0  0  0  0  0  0  0  0  0
  -22.9240  -13.2760   21.4440 C   0  0  0  0  0  0  0  0  0  0  0  0
  -22.3510  -12.5500   22.3980 N   0  0  0  0  0  0  0  0  0  0  0  0
  -22.4130  -14.3230   21.0480 O   0  0  0  0  0  0  0  0  0  0  0  0
  -22.7800  -11.7020   22.7390 H   0  0  0  0  0  0  0  0  0  0  0  0
  -21.4710  -12.8480   22.7950 H   0  0  0  0  0  0  0  0  0  0  0  0
  -25.4020  -14.9610   20.2600 N   0  0  0  0  0  0  0  0  0  0  0  0
  -24.6680  -15.6120   20.5170 H   0  0  0  0  0  0  0  0  0  0  0  0
  -26.1780  -15.4050   19.7880 H   0  0  0  0  0  0  0  0  0  0  0  0
  -32.6660  -23.0290   21.0910 C   0  0  0  0  0  1  0  0  0  0  0  0
  -31.1400  -23.0210   21.2820 C   0  0  0  0  0  3  0  0  0  0  0  0
  -30.5050  -24.2270   20.5280 C   0  0  0  0  0  2  0  0  0  0  0  0
  -28.7450  -24.5110   22.4210 C   0  0  0  0  0  1  0  0  0  0  0  0
  -29.0950  -24.7450   20.9400 C   0  0  0  0  0  3  0  0  0  0  0  0
  -28.9130  -26.2570   20.5870 C   0  0  0  0  0  2  0  0  0  0  0  0
  -27.9180  -26.4160   19.5810 O   0  0  0  0  0  0  0  0  0  0  0  0
  -24.6690  -31.6750   23.2490 C   0  0  0  0  0  0  0  0  0  0  0  0
  -26.8420  -27.2440   19.8090 C   0  0  0  0  0  0  0  0  0  0  0  0
  -23.2720  -30.4100   21.6460 C   0  0  0  0  0  3  0  0  0  0  0  0
  -24.5360  -28.8610   20.0630 C   0  0  0  0  0  0  0  0  0  0  0  0
  -25.7920  -30.6470   21.2760 C   0  0  0  0  0  2  0  0  0  0  0  0
  -25.7580  -29.2970   20.5900 C   0  0  0  0  0  0  0  0  0  0  0  0
  -26.9170  -28.4950   20.4710 C   0  0  0  0  0  3  0  0  0  0  0  0
  -25.6060  -26.8270   19.2770 C   0  0  0  0  0  3  0  0  0  0  0  0
  -24.4510  -27.6200   19.4080 C   0  0  0  0  0  3  0  0  0  0  0  0
  -23.3450  -29.7790   20.2300 C   0  0  0  0  0  2  0  0  0  0  0  0
  -24.6000  -30.9230   22.1150 N   0  0  0  0  0  0  0  0  0  0  0  0
  -23.6460  -31.9800   23.8780 O   0  0  0  0  0  0  0  0  0  0  0  0
  -22.6370  -29.3840   22.6120 C   0  0  0  0  0  0  0  0  0  0  0  0
  -21.3110  -29.2000   22.5020 N   0  0  0  0  0  0  0  0  0  0  0  0
  -23.3330  -28.7560   23.4140 O   0  0  0  0  0  0  0  0  0  0  0  0
  -20.8100  -29.7600   21.8250 H   0  0  0  0  0  0  0  0  0  0  0  0
  -17.9620  -27.9250   22.9630 C   0  0  0  0  0  0  0  0  0  0  0  0
  -20.5050  -28.2570   23.2770 C   0  0  0  0  0  3  0  0  0  0  0  0
  -20.6590  -26.8170   22.7360 C   0  0  0  0  0  2  0  0  0  0  0  0
  -19.5850  -26.4420   21.7090 C   0  0  0  0  0  2  0  0  0  0  0  0
  -18.1870  -26.5650   22.3240 C   0  0  0  0  0  2  0  0  0  0  0  0
  -19.0510  -28.7260   23.3960 C   0  0  0  0  0  0  0  0  0  0  0  0
  -18.7890  -29.9970   23.9530 C   0  0  0  0  0  3  0  0  0  0  0  0
  -17.4680  -30.4670   24.0820 C   0  0  0  0  0  3  0  0  0  0  0  0
  -16.3920  -29.6620   23.6660 C   0  0  0  0  0  3  0  0  0  0  0  0
  -16.6400  -28.3940   23.1100 C   0  0  0  0  0  3  0  0  0  0  0  0
  -26.0300  -32.2090   23.7950 C   0  0  0  0  0  3  0  0  0  0  0  0
  -25.8420  -33.6240   24.1410 N   0  0  0  0  0  0  0  0  0  0  0  0
  -26.2410  -34.6520   23.3780 C   0  0  0  0  0  0  0  0  0  0  0  0
  -26.8770  -34.5020   22.3320 O   0  0  0  0  0  0  0  0  0  0  0  0
  -25.2800  -33.8200   24.9560 H   0  0  0  0  0  0  0  0  0  0  0  0
  -24.6660  -36.5850   23.0610 C   0  0  0  0  0  1  0  0  0  0  0  0
  -25.8770  -36.0700   23.8550 C   0  0  0  0  0  3  0  0  0  0  0  0
  -28.0790  -36.7760   24.6800 C   0  0  0  0  0  1  0  0  0  0  0  0
  -26.9940  -37.0330   23.7380 N   0  0  0  0  0  0  0  0  0  0  0  0
  -26.6650  -37.9840   23.8850 H   0  0  0  0  0  0  0  0  0  0  0  0
  -26.5640  -31.3960   25.0380 C   0  0  1  0  0  0  0  0  0  0  0  0
  -25.5190  -31.2290   26.1650 C   0  0  0  0  0  1  0  0  0  0  0  0
  -27.0260  -29.9840   24.6060 C   0  0  0  0  0  1  0  0  0  0  0  0
  -27.8020  -32.1050   25.6340 C   0  0  0  0  0  1  0  0  0  0  0  0
  1  2  2  0
  2  5  1  0
  2  4  1  0
  3 55  1  0
  3  1  1  0
  6  3  1  0
  7 11  1  0
  8  1  1  0
  8 11  2  0
  9  7  2  0
 10  8  1  0
 12 10  2  0
 12  9  1  0
 13 14  1  0
 13 10  1  0
 15 13  1  0
 16 24  1  0
 17 22  1  0
 18 19  1  0
 18 17  1  0
 20 19  1  0
 20 29  1  0
 20 21  1  0
 22 16  1  0
 22 21  1  0
 23 16  2  0
 24  9  1  0
 24 25  1  0
 26 27  2  0
 27 46  1  0
 28 27  1  0
 28 31  1  0
 29 30  1  0
 29 26  1  0
 30 28  2  0
 31 32  1  0
 32 33  2  0
 34 37  1  0
 34 33  1  0
 35 34  2  0
 36 35  1  0
 36 31  2  0
 37 38  1  0
 38 43  2  0
 38 39  1  0
 39 40  2  0
 40 41  1  0
 41 45  1  0
 42 41  2  0
 43 42  1  0
 44 43  1  0
 46 47  1  0
 47 49  1  0
 47 50  1  0
 48 46  2  0
 51 26  1  0
 51 52  1  0
 53 51  1  0
 55 54  1  0
 56 58  1  0
 56 55  1  0
 58 57  1  0
 59 58  1  0
 60 62  1  0
 60 59  1  0
 61 72  2  0
 62 67  1  0
 63 71  1  0
 63 73  1  0
 64 70  1  0
 64 66  1  0
 65 71  1  0
 66 65  1  0
 67 66  2  0
 68 69  1  0
 68 62  2  0
 69 64  2  0
 70 63  1  0
 71 61  1  0
 73 75  2  0
 74 73  1  0
 76 74  1  0
 77 86  2  0
 77 82  1  0
 78 74  1  0
 78 82  1  0
 79 78  1  0
 80 81  1  0
 80 79  1  0
 81 77  1  0
 82 83  2  0
 83 84  1  0
 85 84  2  0
 86 85  1  0
 87 61  1  0
 87 88  1  0
 87 97  1  0
 88 91  1  0
 89 93  1  0
 89 88  1  0
 90 89  2  0
 93 92  1  0
 95 93  1  0
 95 96  1  0
 95 94  1  0
 97100  1  1
 97 98  1  0
 99 97  1  0
M  ISO  4  16 100  24 100  59 101  60 101
M  END
>  <TORSDO>  (9) 
F 21

>  <SCORE>  (9) 
-10.528

>  <name>  (9) 
8

>  <ligand_id>  (9) 
8

>  <original_smiles>  (9) 
[H]c1nc(C(N([H])[H])=[N+]([H])C([H])(C([H])([H])[H])C([H])([H])C([H])(C([H])([H])[H])C([H])([H])Oc2c([H])c([H])c3c(c2[H])C([H])([H])N(C(=O)C([H])(N([H])C(=O)C([H])(N([H])C([H])([H])[H])C([H])([H])[H])C(C([H])([H])[H])(C([H])([H])[H])C([H])([H])[H])C([H])(C(=O)N([H])C2([H])c4c([H])c([H])c([H])c([H])c4C([H])([H])C([H])([H])C2([H])[H])C3([H])[H])c(N([H])[H])nc1N([H])C(=O)N1C([H])([H])C([H])([H])C([H])([H])C([H])(n2nc(-c3c([H])c([H])c(Oc4c([H])c([H])c(F)c([H])c4F)c([H])c3[H])c(C(=O)N([H])[H])c2N([H])[H])C1([H])[H]

>  <smiles>  (9) 
[H]c1nc(C(N([H])[H])=[N+]([H])C([H])(C([H])([H])[H])C([H])([H])C([H])(C([H])([H])[H])C([H])([H])Oc2c([H])c([H])c3c(c2[H])C([H])([H])N(C(=O)C([H])(N([H])C(=O)C([H])(N([H])C([H])([H])[H])C([H])([H])[H])C(C([H])([H])[H])(C([H])([H])[H])C([H])([H])[H])C([H])(C(=O)N([H])C2([H])c4c([H])c([H])c([H])c([H])c4C([H])([H])C([H])([H])C2([H])[H])C3([H])[H])c(N([H])[H])nc1N([H])C(=O)N1C([H])([H])C([H])([H])C([H])([H])C([H])(n2nc(-c3c([H])c([H])c(Oc4c([H])c([H])c(F)c([H])c4F)c([H])c3[H])c(C(=O)N([H])[H])c2N([H])[H])C1([H])[H]

$$$$
9:0:0
     RDKit          3D

 97105  0  0  1  0  0  0  0  0999 V2000
  -29.9640  -18.0760   20.4090 C   0  0  0  0  0  0  0  0  0  0  0  0
  -29.4240  -18.7340   18.3810 C   0  0  0  0  0  0  0  0  0  0  0  0
  -29.5760  -20.2430   19.9800 C   0  0  0  0  0  0  0  0  0  0  0  0
  -29.7100  -17.7100   19.1550 N   0  0  0  0  0  4  0  0  0  0  0  0
  -29.9060  -19.3300   20.8920 N   0  0  0  0  0  0  0  0  0  0  0  0
  -29.3450  -20.0130   18.6950 N   0  0  0  0  0  2  0  0  0  0  0  0
  -29.1490  -18.4190   17.0880 N   0  0  0  0  0  0  0  0  0  0  0  0
  -29.4600  -21.5680   20.4220 N   0  0  0  0  0  0  0  0  0  0  0  0
  -29.4160  -17.5010   16.7580 H   0  0  0  0  0  0  0  0  0  0  0  0
  -29.1270  -19.1660   16.4070 H   0  0  0  0  0  0  0  0  0  0  0  0
  -29.6150  -21.7000   21.4160 H   0  0  0  0  0  0  0  0  0  0  0  0
  -27.3060  -22.4090   19.5320 C   0  0  0  0  0  1  0  0  0  0  0  0
  -28.8210  -22.6850   19.6800 C   0  0  0  0  0  3  0  0  0  0  0  0
  -29.1020  -24.1270   20.2880 C   0  0  0  0  0  2  0  0  0  0  0  0
  -28.5400  -25.3570   19.4750 C   0  0  0  0  0  3  0  0  0  0  0  0
  -28.6340  -26.5230   17.1670 C   0  0  0  0  0  1  0  0  0  0  0  0
  -29.3450  -25.6120   18.1810 C   0  0  0  0  0  2  0  0  0  0  0  0
  -28.4550  -26.6270   20.2080 O   0  0  0  0  0  0  0  0  0  0  0  0
  -24.6330  -31.9270   23.2410 C   0  0  0  0  0  0  0  0  0  0  0  0
  -27.2870  -27.4030   20.1810 C   0  0  0  0  0  0  0  0  0  0  0  0
  -23.4450  -30.5150   21.6060 C   0  0  0  0  0  3  0  0  0  0  0  0
  -24.9070  -28.9820   20.1940 C   0  0  0  0  0  0  0  0  0  0  0  0
  -25.9840  -30.8510   21.4350 C   0  0  0  0  0  2  0  0  0  0  0  0
  -26.0710  -29.4750   20.7930 C   0  0  0  0  0  0  0  0  0  0  0  0
  -27.2600  -28.6920   20.7910 C   0  0  0  0  0  3  0  0  0  0  0  0
  -26.0850  -26.9580   19.5740 C   0  0  0  0  0  3  0  0  0  0  0  0
  -24.9120  -27.7230   19.5870 C   0  0  0  0  0  3  0  0  0  0  0  0
  -23.6680  -29.8480   20.2270 C   0  0  0  0  0  2  0  0  0  0  0  0
  -24.7060  -31.1140   22.1500 N   0  0  0  0  0  0  0  0  0  0  0  0
  -23.5450  -32.1980   23.7690 O   0  0  0  0  0  0  0  0  0  0  0  0
  -22.7900  -29.4890   22.5620 C   0  0  0  0  0  0  0  0  0  0  0  0
  -21.4680  -29.2950   22.4260 N   0  0  0  0  0  0  0  0  0  0  0  0
  -23.4710  -28.8720   23.3860 O   0  0  0  0  0  0  0  0  0  0  0  0
  -20.9730  -29.8490   21.7410 H   0  0  0  0  0  0  0  0  0  0  0  0
  -18.0980  -28.0740   22.9040 C   0  0  0  0  0  0  0  0  0  0  0  0
  -20.6530  -28.3560   23.1990 C   0  0  0  0  0  3  0  0  0  0  0  0
  -20.7720  -26.9210   22.6360 C   0  0  0  0  0  2  0  0  0  0  0  0
  -19.6810  -26.5800   21.6140 C   0  0  0  0  0  2  0  0  0  0  0  0
  -18.2920  -26.7200   22.2430 C   0  0  0  0  0  2  0  0  0  0  0  0
  -19.2070  -28.8490   23.3400 C   0  0  0  0  0  0  0  0  0  0  0  0
  -18.9720  -30.1140   23.9160 C   0  0  0  0  0  3  0  0  0  0  0  0
  -17.6620  -30.6090   24.0630 C   0  0  0  0  0  3  0  0  0  0  0  0
  -16.5670  -29.8310   23.6470 C   0  0  0  0  0  3  0  0  0  0  0  0
  -16.7870  -28.5670   23.0710 C   0  0  0  0  0  3  0  0  0  0  0  0
  -25.9080  -32.5700   23.8630 C   0  0  0  0  0  3  0  0  0  0  0  0
  -25.5890  -33.9680   24.1780 N   0  0  0  0  0  0  0  0  0  0  0  0
  -25.9200  -35.0140   23.4110 C   0  0  0  0  0  0  0  0  0  0  0  0
  -26.5980  -34.9050   22.3860 O   0  0  0  0  0  0  0  0  0  0  0  0
  -24.9820  -34.1260   24.9700 H   0  0  0  0  0  0  0  0  0  0  0  0
  -24.1930  -36.8010   23.0210 C   0  0  0  0  0  1  0  0  0  0  0  0
  -25.4220  -36.4040   23.8520 C   0  0  0  0  0  3  0  0  0  0  0  0
  -27.5420  -37.3030   24.7090 C   0  0  0  0  0  1  0  0  0  0  0  0
  -26.4530  -37.4590   23.7480 N   0  0  0  0  0  0  0  0  0  0  0  0
  -26.0400  -38.3780   23.8820 H   0  0  0  0  0  0  0  0  0  0  0  0
  -26.4200  -31.8100   25.1480 C   0  0  1  0  0  0  0  0  0  0  0  0
  -25.3200  -31.5730   26.2080 C   0  0  0  0  0  1  0  0  0  0  0  0
  -27.0150  -30.4340   24.7720 C   0  0  0  0  0  1  0  0  0  0  0  0
  -27.5620  -32.6180   25.8090 C   0  0  0  0  0  1  0  0  0  0  0  0
  -30.4020  -16.9510   21.3660 C   0  0  0  0  0  2  0  0  0  0  0  0
  -30.6300  -14.5790   20.4950 C   0  0  0  0  0  0  0  0  0  0  0  0
  -30.3570  -12.4220   19.3050 C   0  0  0  0  0  2  0  0  0  0  0  0
  -29.4110  -12.6030   18.0990 C   0  0  0  0  0  2  0  0  0  0  0  0
  -27.9370  -12.4580   18.5270 C   0  0  0  0  0  2  0  0  0  0  0  0
  -27.5940  -13.2890   19.7920 C   0  0  0  0  0  3  0  0  0  0  0  0
  -28.6460  -13.0710   20.9010 C   0  0  0  0  0  2  0  0  0  0  0  0
  -29.9640  -13.4000   20.3350 N   0  0  0  0  0  0  0  0  0  0  0  0
  -31.7730  -14.7570   20.0640 O   0  0  0  0  0  0  0  0  0  0  0  0
  -29.9260  -15.5820   21.0570 N   0  0  0  0  0  0  0  0  0  0  0  0
  -28.9640  -15.3940   21.2870 H   0  0  0  0  0  0  0  0  0  0  0  0
  -25.1930  -13.8960   20.4850 C   0  0  0  0  0  0  0  0  0  0  0  0
  -24.1230  -13.1240   20.8510 C   0  0  0  0  0  0  0  0  0  0  0  0
  -24.5860  -11.7710   20.8280 C   0  0  0  0  0  0  0  0  0  0  0  0
  -26.2400  -13.0130   20.2650 N   0  0  0  0  0  0  0  0  0  0  0  0
  -25.8780  -11.7320   20.5300 N   0  0  0  0  0  0  0  0  0  0  0  0
  -23.8590  -10.5100   21.0150 C   0  0  0  0  0  0  0  0  0  0  0  0
  -24.2790   -9.5470   21.9600 C   0  0  0  0  0  3  0  0  0  0  0  0
  -23.5530   -8.3500   22.1350 C   0  0  0  0  0  3  0  0  0  0  0  0
  -22.3920   -8.1050   21.3640 C   0  0  0  0  0  0  0  0  0  0  0  0
  -21.9910   -9.0560   20.4090 C   0  0  0  0  0  3  0  0  0  0  0  0
  -22.7170  -10.2450   20.2320 C   0  0  0  0  0  3  0  0  0  0  0  0
  -21.6380   -6.9600   21.4480 O   0  0  0  0  0  0  0  0  0  0  0  0
  -21.5670   -6.2280   22.6050 C   0  0  0  0  0  0  0  0  0  0  0  0
  -21.1060   -6.7900   23.8160 C   0  0  0  0  0  3  0  0  0  0  0  0
  -20.9830   -5.9830   24.9650 C   0  0  0  0  0  3  0  0  0  0  0  0
  -21.3110   -4.6160   24.9030 C   0  0  0  0  0  0  0  0  0  0  0  0
  -21.7660   -4.0530   23.6990 C   0  0  0  0  0  3  0  0  0  0  0  0
  -21.8890   -4.8570   22.5510 C   0  0  0  0  0  0  0  0  0  0  0  0
  -22.3070   -4.3040   21.3870 F   0  0  0  0  0  0  0  0  0  0  0  0
  -21.1860   -3.8390   26.0050 F   0  0  0  0  0  0  0  0  0  0  0  0
  -22.7240  -13.6000   21.1100 C   0  0  0  0  0  0  0  0  0  0  0  0
  -21.9850  -12.9030   21.9660 N   0  0  0  0  0  0  0  0  0  0  0  0
  -22.2930  -14.6290   20.5900 O   0  0  0  0  0  0  0  0  0  0  0  0
  -22.3460  -12.0700   22.4100 H   0  0  0  0  0  0  0  0  0  0  0  0
  -21.0460  -13.2070   22.1820 H   0  0  0  0  0  0  0  0  0  0  0  0
  -25.3560  -15.2640   20.3000 N   0  0  0  0  0  0  0  0  0  0  0  0
  -24.5780  -15.9090   20.3780 H   0  0  0  0  0  0  0  0  0  0  0  0
  -26.1900  -15.6960   19.9240 H   0  0  0  0  0  0  0  0  0  0  0  0
  1  5  1  0
  1 59  1  0
  2  6  1  0
  2  4  2  0
  3  8  1  0
  3  5  2  0
  4  1  2  0
  6  3  1  0
  7  2  1  0
  8 11  1  0
  9  7  1  0
 10  7  1  0
 13 12  1  0
 13 14  1  0
 13  8  1  0
 15 17  1  0
 15 18  1  0
 15 14  1  0
 16 17  1  0
 19 30  2  0
 20 18  1  0
 20 25  1  0
 21 29  1  0
 21 31  1  0
 22 28  1  0
 22 24  1  0
 23 29  1  0
 24 23  1  0
 25 24  2  0
 26 27  1  0
 26 20  2  0
 27 22  2  0
 28 21  1  0
 29 19  1  0
 31 33  2  0
 32 31  1  0
 34 32  1  0
 35 44  2  0
 35 40  1  0
 36 32  1  0
 36 40  1  0
 37 36  1  0
 38 39  1  0
 38 37  1  0
 39 35  1  0
 40 41  2  0
 41 42  1  0
 43 42  2  0
 44 43  1  0
 45 19  1  0
 45 46  1  0
 45 55  1  0
 46 49  1  0
 47 51  1  0
 47 46  1  0
 48 47  2  0
 51 50  1  0
 53 51  1  0
 53 54  1  0
 53 52  1  0
 55 58  1  1
 55 56  1  0
 57 55  1  0
 60 68  1  0
 61 66  1  0
 62 63  1  0
 62 61  1  0
 64 63  1  0
 64 73  1  0
 64 65  1  0
 66 60  1  0
 66 65  1  0
 67 60  2  0
 68 69  1  0
 68 59  1  0
 70 71  2  0
 71 90  1  0
 72 71  1  0
 72 75  1  0
 73 70  1  0
 73 74  1  0
 74 72  2  0
 75 76  1  0
 76 77  2  0
 78 81  1  0
 78 77  1  0
 79 78  2  0
 80 79  1  0
 80 75  2  0
 81 82  1  0
 82 83  1  0
 83 84  2  0
 85 84  1  0
 85 89  1  0
 86 85  2  0
 87 82  2  0
 87 86  1  0
 88 87  1  0
 90 91  1  0
 91 94  1  0
 91 93  1  0
 92 90  2  0
 95 96  1  0
 95 70  1  0
 97 95  1  0
M  ISO  4  15 101  18 101  60 100  68 100
M  END
>  <TORSDO>  (10) 
F 21

>  <SCORE>  (10) 
-13.933

>  <name>  (10) 
9

>  <ligand_id>  (10) 
9

>  <original_smiles>  (10) 
[H]c1c([H])c([H])c2c(c1[H])C([H])([H])C([H])([H])C([H])([H])C2([H])N([H])C(=O)C1([H])N(C(=O)C([H])(N([H])C(=O)C([H])(N([H])C([H])([H])[H])C([H])([H])[H])C(C([H])([H])[H])(C([H])([H])[H])C([H])([H])[H])C([H])([H])c2c([H])c(OC([H])(C([H])([H])C([H])([H])[H])C([H])([H])C([H])(N([H])c3nc(N([H])[H])nc(C([H])([H])N([H])C(=O)N4C([H])([H])C([H])([H])C([H])([H])C([H])(n5nc(-c6c([H])c([H])c(Oc7c([H])c([H])c(F)c([H])c7F)c([H])c6[H])c(C(=O)N([H])[H])c5N([H])[H])C4([H])[H])n3)C([H])([H])[H])c([H])c([H])c2C1([H])[H]

>  <smiles>  (10) 
[H]c1c([H])c([H])c2c(c1[H])C([H])([H])C([H])([H])C([H])([H])C2([H])N([H])C(=O)C1([H])N(C(=O)C([H])(N([H])C(=O)C([H])(N([H])C([H])([H])[H])C([H])([H])[H])C(C([H])([H])[H])(C([H])([H])[H])C([H])([H])[H])C([H])([H])c2c([H])c(OC([H])(C([H])([H])C([H])([H])[H])C([H])([H])C([H])(N([H])c3nc(N([H])[H])nc(C([H])([H])N([H])C(=O)N4C([H])([H])C([H])([H])C([H])([H])C([H])(n5nc(-c6c([H])c([H])c(Oc7c([H])c([H])c(F)c([H])c7F)c([H])c6[H])c(C(=O)N([H])[H])c5N([H])[H])C4([H])[H])n3)C([H])([H])[H])c([H])c([H])c2C1([H])[H]

$$$$
10:0:0
     RDKit          3D

 95103  0  0  1  0  0  0  0  0999 V2000
  -30.2530  -21.5920   17.0300 C   0  0  0  0  0  1  0  0  0  0  0  0
  -30.6000  -21.1290   18.4610 C   0  0  0  0  0  3  0  0  0  0  0  0
  -31.1550  -22.3310   19.3380 C   0  0  0  0  0  2  0  0  0  0  0  0
  -30.4270  -23.7330   19.2800 C   0  0  0  0  0  3  0  0  0  0  0  0
  -29.0420  -23.4910   19.1130 O   0  0  0  0  0  0  0  0  0  0  0  0
  -28.9350  -23.0060   18.3010 H   0  0  0  0  0  0  0  0  0  0  0  0
  -30.6010  -24.6340   20.5610 C   0  0  0  0  0  2  0  0  0  0  0  0
  -30.5600  -26.0730   20.3570 O   0  0  0  0  0  0  0  0  0  0  0  0
  -25.6600  -30.3740   23.3280 C   0  0  0  0  0  0  0  0  0  0  0  0
  -29.3150  -26.6750   20.2710 C   0  0  0  0  0  0  0  0  0  0  0  0
  -24.9250  -29.0990   21.3400 C   0  0  0  0  0  3  0  0  0  0  0  0
  -26.7740  -27.9240   20.0270 C   0  0  0  0  0  0  0  0  0  0  0  0
  -27.3830  -29.7330   21.6380 C   0  0  0  0  0  2  0  0  0  0  0  0
  -27.7480  -28.4790   20.8650 C   0  0  0  0  0  0  0  0  0  0  0  0
  -29.0200  -27.8670   20.9790 C   0  0  0  0  0  3  0  0  0  0  0  0
  -28.3220  -26.1330   19.4300 C   0  0  0  0  0  3  0  0  0  0  0  0
  -27.0600  -26.7520   19.3040 C   0  0  0  0  0  3  0  0  0  0  0  0
  -25.4400  -28.6360   19.9510 C   0  0  0  0  0  2  0  0  0  0  0  0
  -25.9950  -29.7460   22.1640 N   0  0  0  0  0  0  0  0  0  0  0  0
  -24.4790  -30.4500   23.6980 O   0  0  0  0  0  0  0  0  0  0  0  0
  -24.2600  -27.8930   22.0450 C   0  0  0  0  0  0  0  0  0  0  0  0
  -23.0100  -27.5850   21.6560 N   0  0  0  0  0  0  0  0  0  0  0  0
  -24.8720  -27.2430   22.8950 O   0  0  0  0  0  0  0  0  0  0  0  0
  -22.5690  -28.1740   20.9640 H   0  0  0  0  0  0  0  0  0  0  0  0
  -19.7760  -25.9900   21.4110 C   0  0  0  0  0  0  0  0  0  0  0  0
  -22.2070  -26.4640   22.1480 C   0  0  0  0  0  3  0  0  0  0  0  0
  -22.5760  -25.1490   21.4210 C   0  0  0  0  0  2  0  0  0  0  0  0
  -21.6970  -24.8690   20.1990 C   0  0  0  0  0  2  0  0  0  0  0  0
  -20.2230  -24.7760   20.6110 C   0  0  0  0  0  2  0  0  0  0  0  0
  -20.7090  -26.7910   22.1200 C   0  0  0  0  0  0  0  0  0  0  0  0
  -20.2480  -27.9300   22.8160 C   0  0  0  0  0  3  0  0  0  0  0  0
  -18.8800  -28.2630   22.8210 C   0  0  0  0  0  3  0  0  0  0  0  0
  -17.9570  -27.4580   22.1300 C   0  0  0  0  0  3  0  0  0  0  0  0
  -18.4060  -26.3240   21.4280 C   0  0  0  0  0  3  0  0  0  0  0  0
  -26.7400  -31.0430   24.2340 C   0  0  0  0  0  3  0  0  0  0  0  0
  -26.3090  -32.4240   24.4910 N   0  0  0  0  0  0  0  0  0  0  0  0
  -26.7430  -33.4980   23.8180 C   0  0  0  0  0  0  0  0  0  0  0  0
  -27.6150  -33.4350   22.9460 O   0  0  0  0  0  0  0  0  0  0  0  0
  -25.5630  -32.5450   25.1580 H   0  0  0  0  0  0  0  0  0  0  0  0
  -25.0680  -35.2300   23.0950 C   0  0  0  0  0  1  0  0  0  0  0  0
  -26.1090  -34.8580   24.1640 C   0  0  0  0  0  3  0  0  0  0  0  0
  -27.9500  -35.8230   25.4710 C   0  0  0  0  0  1  0  0  0  0  0  0
  -27.0960  -35.9530   24.2950 N   0  0  0  0  0  0  0  0  0  0  0  0
  -26.6270  -36.8530   24.3420 H   0  0  0  0  0  0  0  0  0  0  0  0
  -26.9770  -30.2730   25.5910 C   0  0  1  0  0  0  0  0  0  0  0  0
  -25.6800  -29.9850   26.3810 C   0  0  0  0  0  1  0  0  0  0  0  0
  -27.6870  -28.9230   25.3330 C   0  0  0  0  0  1  0  0  0  0  0  0
  -27.9090  -31.1020   26.5060 C   0  0  0  0  0  1  0  0  0  0  0  0
  -31.5470  -19.8590   18.3870 C   0  0  0  0  0  2  0  0  0  0  0  0
  -31.7030  -14.0520   18.9670 C   0  0  0  0  0  0  0  0  0  0  0  0
  -31.2630  -11.7470   18.1330 C   0  0  0  0  0  2  0  0  0  0  0  0
  -30.1000  -11.8100   17.1150 C   0  0  0  0  0  2  0  0  0  0  0  0
  -28.7330  -11.7460   17.8280 C   0  0  0  0  0  2  0  0  0  0  0  0
  -28.6360  -12.7300   19.0230 C   0  0  0  0  0  3  0  0  0  0  0  0
  -29.8790  -12.5910   19.9330 C   0  0  0  0  0  2  0  0  0  0  0  0
  -31.0760  -12.8420   19.1040 N   0  0  0  0  0  0  0  0  0  0  0  0
  -32.7010  -14.1970   18.2500 O   0  0  0  0  0  0  0  0  0  0  0  0
  -30.0750  -18.4640   19.9310 C   0  0  0  0  0  3  0  0  0  0  0  0
  -29.9760  -17.1480   20.3010 C   0  0  0  0  0  0  0  0  0  0  0  0
  -30.9390  -16.4830   19.4790 C   0  0  0  0  0  0  0  0  0  0  0  0
  -31.5760  -17.3460   18.6670 N   0  0  0  0  0  0  0  0  0  0  0  0
  -31.0260  -18.5830   18.9410 N   0  0  0  0  0  0  0  0  0  0  0  0
  -31.0980  -15.0570   19.6510 N   0  0  0  0  0  0  0  0  0  0  0  0
  -30.4340  -14.6770   20.3050 H   0  0  0  0  0  0  0  0  0  0  0  0
  -26.5300  -13.5200   20.2760 C   0  0  0  0  0  0  0  0  0  0  0  0
  -25.4850  -12.8340   20.8330 C   0  0  0  0  0  0  0  0  0  0  0  0
  -25.7570  -11.4510   20.6060 C   0  0  0  0  0  0  0  0  0  0  0  0
  -27.3910  -12.5590   19.7660 N   0  0  0  0  0  0  0  0  0  0  0  0
  -26.9390  -11.3050   20.0180 N   0  0  0  0  0  0  0  0  0  0  0  0
  -24.9350  -10.2620   20.8590 C   0  0  0  0  0  0  0  0  0  0  0  0
  -25.3400   -9.2680   21.7770 C   0  0  0  0  0  3  0  0  0  0  0  0
  -24.5230   -8.1430   22.0190 C   0  0  0  0  0  3  0  0  0  0  0  0
  -23.2870   -8.0040   21.3430 C   0  0  0  0  0  0  0  0  0  0  0  0
  -22.9010   -8.9850   20.4130 C   0  0  0  0  0  3  0  0  0  0  0  0
  -23.7180  -10.1000   20.1680 C   0  0  0  0  0  3  0  0  0  0  0  0
  -22.4410   -6.9320   21.4940 O   0  0  0  0  0  0  0  0  0  0  0  0
  -22.1830   -6.3870   22.7270 C   0  0  0  0  0  0  0  0  0  0  0  0
  -21.6740   -7.1630   23.7920 C   0  0  0  0  0  3  0  0  0  0  0  0
  -21.3580   -6.5500   25.0210 C   0  0  0  0  0  3  0  0  0  0  0  0
  -21.5410   -5.1640   25.1840 C   0  0  0  0  0  0  0  0  0  0  0  0
  -22.0420   -4.3890   24.1230 C   0  0  0  0  0  3  0  0  0  0  0  0
  -22.3590   -4.9990   22.8970 C   0  0  0  0  0  0  0  0  0  0  0  0
  -22.8220   -4.2450   21.8700 F   0  0  0  0  0  0  0  0  0  0  0  0
  -21.2300   -4.5710   26.3610 F   0  0  0  0  0  0  0  0  0  0  0  0
  -24.2500  -13.4300   21.4430 C   0  0  0  0  0  0  0  0  0  0  0  0
  -23.6600  -12.7480   22.4180 N   0  0  0  0  0  0  0  0  0  0  0  0
  -23.8280  -14.5300   21.0900 O   0  0  0  0  0  0  0  0  0  0  0  0
  -24.0160  -11.8530   22.7200 H   0  0  0  0  0  0  0  0  0  0  0  0
  -22.8370  -13.1260   22.8660 H   0  0  0  0  0  0  0  0  0  0  0  0
  -26.8030  -14.8750   20.1330 N   0  0  0  0  0  0  0  0  0  0  0  0
  -26.1380  -15.5790   20.4310 H   0  0  0  0  0  0  0  0  0  0  0  0
  -27.5720  -15.2560   19.5980 H   0  0  0  0  0  0  0  0  0  0  0  0
  -27.5840  -16.8410   21.0560 C   0  0  0  0  0  1  0  0  0  0  0  0
  -29.4460  -17.0740   22.7550 C   0  0  0  0  0  1  0  0  0  0  0  0
  -29.0670  -16.5580   21.3600 C   0  0  0  0  0  3  0  0  0  0  0  0
  2  1  1  0
  2  3  1  0
  4  3  1  0
  4  7  1  0
  5  4  1  0
  6  5  1  0
  8  7  1  0
  9 20  2  0
 10  8  1  0
 10 15  1  0
 11 21  1  0
 11 19  1  0
 12 14  1  0
 13 19  1  0
 14 15  2  0
 14 13  1  0
 16 10  2  0
 17 16  1  0
 17 12  2  0
 18 12  1  0
 18 11  1  0
 19  9  1  0
 21 23  2  0
 22 21  1  0
 24 22  1  0
 25 34  2  0
 25 30  1  0
 26 22  1  0
 27 26  1  0
 28 29  1  0
 28 27  1  0
 29 25  1  0
 30 26  1  0
 30 31  2  0
 31 32  1  0
 33 32  2  0
 34 33  1  0
 35  9  1  0
 35 36  1  0
 35 45  1  0
 36 39  1  0
 37 41  1  0
 37 36  1  0
 38 37  2  0
 41 40  1  0
 41 43  1  0
 43 44  1  0
 43 42  1  0
 45 46  1  1
 45 48  1  0
 47 45  1  0
 49  2  1  0
 49 62  1  0
 50 56  1  0
 50 63  1  0
 51 56  1  0
 52 53  1  0
 52 51  1  0
 54 53  1  0
 54 68  1  0
 54 55  1  0
 56 55  1  0
 57 50  2  0
 58 59  2  0
 59 95  1  0
 60 63  1  0
 60 59  1  0
 61 62  1  0
 61 60  2  0
 62 58  1  0
 63 64  1  0
 65 66  2  0
 66 85  1  0
 67 66  1  0
 67 70  1  0
 68 69  1  0
 68 65  1  0
 69 67  2  0
 70 71  1  0
 71 72  2  0
 73 76  1  0
 73 72  1  0
 74 73  2  0
 75 74  1  0
 75 70  2  0
 76 77  1  0
 77 82  2  0
 77 78  1  0
 78 79  2  0
 79 80  1  0
 80 84  1  0
 81 80  2  0
 82 81  1  0
 83 82  1  0
 85 86  1  0
 86 88  1  0
 86 89  1  0
 87 85  2  0
 90 65  1  0
 90 91  1  0
 92 90  1  0
 93 95  1  0
 95 94  1  0
M  ISO  4   7 101   8 101  50 100  63 100
M  END
>  <TORSDO>  (11) 
F 22

>  <SCORE>  (11) 
-4.845

>  <name>  (11) 
10

>  <ligand_id>  (11) 
10

>  <original_smiles>  (11) 
[H]OC([H])(C([H])([H])Oc1c([H])c([H])c2c(c1[H])C([H])([H])N(C(=O)C([H])(N([H])C(=O)C([H])(N([H])C([H])([H])[H])C([H])([H])[H])C(C([H])([H])[H])(C([H])([H])[H])C([H])([H])[H])C([H])(C(=O)N([H])C1([H])c3c([H])c([H])c([H])c([H])c3C([H])([H])C([H])([H])C1([H])[H])C2([H])[H])C([H])([H])C([H])(C([H])([H])[H])C([H])([H])n1nc(N([H])C(=O)N2C([H])([H])C([H])([H])C([H])([H])C([H])(n3nc(-c4c([H])c([H])c(Oc5c([H])c([H])c(F)c([H])c5F)c([H])c4[H])c(C(=O)N([H])[H])c3N([H])[H])C2([H])[H])c(C([H])(C([H])([H])[H])C([H])([H])[H])c1[H]

>  <smiles>  (11) 
[H]OC([H])(C([H])([H])Oc1c([H])c([H])c2c(c1[H])C([H])([H])N(C(=O)C([H])(N([H])C(=O)C([H])(N([H])C([H])([H])[H])C([H])([H])[H])C(C([H])([H])[H])(C([H])([H])[H])C([H])([H])[H])C([H])(C(=O)N([H])C1([H])c3c([H])c([H])c([H])c([H])c3C([H])([H])C([H])([H])C1([H])[H])C2([H])[H])C([H])([H])C([H])(C([H])([H])[H])C([H])([H])n1nc(N([H])C(=O)N2C([H])([H])C([H])([H])C([H])([H])C([H])(n3nc(-c4c([H])c([H])c(Oc5c([H])c([H])c(F)c([H])c5F)c([H])c4[H])c(C(=O)N([H])[H])c3N([H])[H])C2([H])[H])c(C([H])(C([H])([H])[H])C([H])([H])[H])c1[H]

$$$$
11:0:0
     RDKit          3D

 94102  0  0  1  0  0  0  0  0999 V2000
  -28.7840  -22.5030   19.3320 C   0  0  0  0  0  2  0  0  0  0  0  0
  -28.8850  -20.3970   20.6670 C   0  0  0  0  0  0  0  0  0  0  0  0
  -29.4790  -21.4240   20.0430 N   0  0  0  0  0  0  0  0  0  0  0  0
  -27.7330  -20.4700   21.1000 O   0  0  0  0  0  0  0  0  0  0  0  0
  -30.4480  -21.2970   19.7860 H   0  0  0  0  0  0  0  0  0  0  0  0
  -30.7250  -14.4050   20.1180 C   0  0  0  0  0  0  0  0  0  0  0  0
  -30.3180  -12.3040   18.8840 C   0  0  0  0  0  2  0  0  0  0  0  0
  -29.3020  -12.5740   17.7540 C   0  0  0  0  0  2  0  0  0  0  0  0
  -27.8580  -12.4280   18.2740 C   0  0  0  0  0  2  0  0  0  0  0  0
  -27.6170  -13.2220   19.5850 C   0  0  0  0  0  3  0  0  0  0  0  0
  -28.7350  -12.9320   20.6120 C   0  0  0  0  0  2  0  0  0  0  0  0
  -30.0330  -13.2400   19.9830 N   0  0  0  0  0  0  0  0  0  0  0  0
  -31.7740  -14.6280   19.5030 O   0  0  0  0  0  0  0  0  0  0  0  0
  -30.9190  -18.7970   20.2930 C   0  0  0  0  0  3  0  0  0  0  0  0
  -29.6450  -19.1220   20.7040 C   0  0  0  0  0  0  0  0  0  0  0  0
  -30.1780  -16.7170   20.8420 C   0  0  0  0  0  0  0  0  0  0  0  0
  -31.2120  -17.4260   20.3710 N   0  0  0  0  0  0  0  0  0  0  0  0
  -30.1490  -15.3010   20.9360 N   0  0  0  0  0  0  0  0  0  0  0  0
  -28.8050  -17.7090   21.3160 S   0  0  0  0  0  0  0  0  0  0  0  0
  -29.3550  -14.9350   21.4360 H   0  0  0  0  0  0  0  0  0  0  0  0
  -25.2730  -13.8430   20.4540 C   0  0  0  0  0  0  0  0  0  0  0  0
  -24.2220  -13.0750   20.8730 C   0  0  0  0  0  0  0  0  0  0  0  0
  -24.6630  -11.7190   20.7800 C   0  0  0  0  0  0  0  0  0  0  0  0
  -26.2910  -12.9570   20.1380 N   0  0  0  0  0  0  0  0  0  0  0  0
  -25.9290  -11.6720   20.3890 N   0  0  0  0  0  0  0  0  0  0  0  0
  -23.9350  -10.4600   20.9870 C   0  0  0  0  0  0  0  0  0  0  0  0
  -24.4050   -9.4760   21.8850 C   0  0  0  0  0  3  0  0  0  0  0  0
  -23.6800   -8.2820   22.0850 C   0  0  0  0  0  3  0  0  0  0  0  0
  -22.4710   -8.0620   21.3840 C   0  0  0  0  0  0  0  0  0  0  0  0
  -22.0180   -9.0340   20.4740 C   0  0  0  0  0  3  0  0  0  0  0  0
  -22.7440  -10.2200   20.2730 C   0  0  0  0  0  3  0  0  0  0  0  0
  -21.7130   -6.9200   21.4920 O   0  0  0  0  0  0  0  0  0  0  0  0
  -21.6930   -6.1770   22.6440 C   0  0  0  0  0  0  0  0  0  0  0  0
  -21.3210   -6.7370   23.8860 C   0  0  0  0  0  3  0  0  0  0  0  0
  -21.2470   -5.9220   25.0320 C   0  0  0  0  0  3  0  0  0  0  0  0
  -21.5360   -4.5470   24.9380 C   0  0  0  0  0  0  0  0  0  0  0  0
  -21.8990   -3.9860   23.7010 C   0  0  0  0  0  3  0  0  0  0  0  0
  -21.9750   -4.8000   22.5570 C   0  0  0  0  0  0  0  0  0  0  0  0
  -22.3070   -4.2510   21.3640 F   0  0  0  0  0  0  0  0  0  0  0  0
  -21.4550   -3.7610   26.0360 F   0  0  0  0  0  0  0  0  0  0  0  0
  -22.8500  -13.5590   21.2470 C   0  0  0  0  0  0  0  0  0  0  0  0
  -22.1750  -12.8540   22.1460 N   0  0  0  0  0  0  0  0  0  0  0  0
  -22.3890  -14.5970   20.7730 O   0  0  0  0  0  0  0  0  0  0  0  0
  -22.5610  -12.0120   22.5480 H   0  0  0  0  0  0  0  0  0  0  0  0
  -21.2580  -13.1600   22.4380 H   0  0  0  0  0  0  0  0  0  0  0  0
  -25.4470  -15.2160   20.2970 N   0  0  0  0  0  0  0  0  0  0  0  0
  -24.7060  -15.8800   20.4890 H   0  0  0  0  0  0  0  0  0  0  0  0
  -26.2790  -15.6490   19.9180 H   0  0  0  0  0  0  0  0  0  0  0  0
  -28.2800  -23.7020   20.1730 C   0  0  0  0  0  2  0  0  0  0  0  0
  -29.3330  -24.5720   20.9010 C   0  0  0  0  0  3  0  0  0  0  0  0
  -30.5080  -24.7560   20.1330 O   0  0  0  0  0  0  0  0  0  0  0  0
  -30.3210  -25.4560   19.5140 H   0  0  0  0  0  0  0  0  0  0  0  0
  -28.8130  -25.9870   21.2630 C   0  0  0  0  0  2  0  0  0  0  0  0
  -28.5080  -26.7000   20.0610 O   0  0  0  0  0  0  0  0  0  0  0  0
  -24.5630  -31.7780   23.1550 C   0  0  0  0  0  0  0  0  0  0  0  0
  -27.3410  -27.4190   20.0980 C   0  0  0  0  0  0  0  0  0  0  0  0
  -23.4090  -30.3570   21.4900 C   0  0  0  0  0  3  0  0  0  0  0  0
  -24.9140  -28.8560   20.0830 C   0  0  0  0  0  0  0  0  0  0  0  0
  -25.9260  -30.7740   21.3290 C   0  0  0  0  0  2  0  0  0  0  0  0
  -26.0510  -29.4060   20.6940 C   0  0  0  0  0  0  0  0  0  0  0  0
  -27.2690  -28.6910   20.7070 C   0  0  0  0  0  3  0  0  0  0  0  0
  -26.1960  -26.8800   19.4790 C   0  0  0  0  0  3  0  0  0  0  0  0
  -24.9790  -27.5880   19.4790 C   0  0  0  0  0  3  0  0  0  0  0  0
  -23.6520  -29.6860   20.1100 C   0  0  0  0  0  2  0  0  0  0  0  0
  -24.6500  -30.9840   22.0510 N   0  0  0  0  0  0  0  0  0  0  0  0
  -23.4700  -32.0260   23.6820 O   0  0  0  0  0  0  0  0  0  0  0  0
  -22.7680  -29.3180   22.4360 C   0  0  0  0  0  0  0  0  0  0  0  0
  -21.4480  -29.1150   22.2950 N   0  0  0  0  0  0  0  0  0  0  0  0
  -23.4550  -28.6980   23.2520 O   0  0  0  0  0  0  0  0  0  0  0  0
  -20.9540  -29.6700   21.6090 H   0  0  0  0  0  0  0  0  0  0  0  0
  -18.0890  -27.8630   22.7410 C   0  0  0  0  0  0  0  0  0  0  0  0
  -20.6380  -28.1580   23.0480 C   0  0  0  0  0  3  0  0  0  0  0  0
  -20.7710  -26.7330   22.4620 C   0  0  0  0  0  2  0  0  0  0  0  0
  -19.6860  -26.4010   21.4330 C   0  0  0  0  0  2  0  0  0  0  0  0
  -18.2950  -26.5200   22.0600 C   0  0  0  0  0  2  0  0  0  0  0  0
  -19.1900  -28.6400   23.1890 C   0  0  0  0  0  0  0  0  0  0  0  0
  -18.9440  -29.8980   23.7820 C   0  0  0  0  0  3  0  0  0  0  0  0
  -17.6290  -30.3770   23.9320 C   0  0  0  0  0  3  0  0  0  0  0  0
  -16.5410  -29.5960   23.5010 C   0  0  0  0  0  3  0  0  0  0  0  0
  -16.7730  -28.3410   22.9130 C   0  0  0  0  0  3  0  0  0  0  0  0
  -25.8300  -32.4300   23.7950 C   0  0  0  0  0  3  0  0  0  0  0  0
  -25.4880  -33.8160   24.1410 N   0  0  0  0  0  0  0  0  0  0  0  0
  -25.7940  -34.8840   23.3900 C   0  0  0  0  0  0  0  0  0  0  0  0
  -26.4680  -34.8070   22.3600 O   0  0  0  0  0  0  0  0  0  0  0  0
  -24.8870  -33.9490   24.9420 H   0  0  0  0  0  0  0  0  0  0  0  0
  -24.0120  -36.6250   23.0590 C   0  0  0  0  0  1  0  0  0  0  0  0
  -25.2710  -36.2540   23.8600 C   0  0  0  0  0  3  0  0  0  0  0  0
  -27.3880  -37.1890   24.6790 C   0  0  0  0  0  1  0  0  0  0  0  0
  -26.2720  -37.3370   23.7480 N   0  0  0  0  0  0  0  0  0  0  0  0
  -25.8410  -38.2430   23.9150 H   0  0  0  0  0  0  0  0  0  0  0  0
  -26.3570  -31.6510   25.0610 C   0  0  1  0  0  0  0  0  0  0  0  0
  -25.2640  -31.3730   26.1190 C   0  0  0  0  0  1  0  0  0  0  0  0
  -26.9720  -30.2930   24.6480 C   0  0  0  0  0  1  0  0  0  0  0  0
  -27.4870  -32.4590   25.7430 C   0  0  0  0  0  1  0  0  0  0  0  0
  1  3  1  0
  1 49  1  0
  2 15  1  0
  2  4  2  0
  3  2  1  0
  5  3  1  0
  6 18  1  0
  7 12  1  0
  8  9  1  0
  8  7  1  0
 10  9  1  0
 10 24  1  0
 10 11  1  0
 12  6  1  0
 12 11  1  0
 13  6  2  0
 14 17  1  0
 14 15  2  0
 15 19  1  0
 16 18  1  0
 16 19  1  0
 17 16  2  0
 18 20  1  0
 21 22  2  0
 22 41  1  0
 23 22  1  0
 23 26  1  0
 24 25  1  0
 24 21  1  0
 25 23  2  0
 26 27  1  0
 27 28  2  0
 29 32  1  0
 29 28  1  0
 30 29  2  0
 31 30  1  0
 31 26  2  0
 32 33  1  0
 33 34  1  0
 34 35  2  0
 36 35  1  0
 36 40  1  0
 37 36  2  0
 38 33  2  0
 38 37  1  0
 39 38  1  0
 41 42  1  0
 42 45  1  0
 42 44  1  0
 43 41  2  0
 46 21  1  0
 46 47  1  0
 48 46  1  0
 50 49  1  0
 50 53  1  0
 51 50  1  0
 52 51  1  0
 54 56  1  0
 54 53  1  0
 55 66  2  0
 56 61  1  0
 57 65  1  0
 57 67  1  0
 58 64  1  0
 58 60  1  0
 59 65  1  0
 60 61  2  0
 60 59  1  0
 62 63  1  0
 62 56  2  0
 63 58  2  0
 64 57  1  0
 65 55  1  0
 67 69  2  0
 68 67  1  0
 70 68  1  0
 71 80  2  0
 71 76  1  0
 72 68  1  0
 72 76  1  0
 73 72  1  0
 74 75  1  0
 74 73  1  0
 75 71  1  0
 76 77  2  0
 77 78  1  0
 79 78  2  0
 80 79  1  0
 81 55  1  0
 81 82  1  0
 81 91  1  0
 82 85  1  0
 83 87  1  0
 83 82  1  0
 84 83  2  0
 87 86  1  0
 89 87  1  0
 89 90  1  0
 89 88  1  0
 91 94  1  1
 91 92  1  0
 93 91  1  0
M  ISO  4   6 100  18 100  53 101  54 101
M  END
>  <TORSDO>  (12) 
F 21

>  <SCORE>  (12) 
-12.559

>  <name>  (12) 
11

>  <ligand_id>  (12) 
11

>  <original_smiles>  (12) 
[H]OC([H])(C([H])([H])Oc1c([H])c([H])c2c(c1[H])C([H])([H])N(C(=O)C([H])(N([H])C(=O)C([H])(N([H])C([H])([H])[H])C([H])([H])[H])C(C([H])([H])[H])(C([H])([H])[H])C([H])([H])[H])C([H])(C(=O)N([H])C1([H])c3c([H])c([H])c([H])c([H])c3C([H])([H])C([H])([H])C1([H])[H])C2([H])[H])C([H])([H])C([H])([H])N([H])C(=O)c1sc(N([H])C(=O)N2C([H])([H])C([H])([H])C([H])([H])C([H])(n3nc(-c4c([H])c([H])c(Oc5c([H])c([H])c(F)c([H])c5F)c([H])c4[H])c(C(=O)N([H])[H])c3N([H])[H])C2([H])[H])nc1[H]

>  <smiles>  (12) 
[H]OC([H])(C([H])([H])Oc1c([H])c([H])c2c(c1[H])C([H])([H])N(C(=O)C([H])(N([H])C(=O)C([H])(N([H])C([H])([H])[H])C([H])([H])[H])C(C([H])([H])[H])(C([H])([H])[H])C([H])([H])[H])C([H])(C(=O)N([H])C1([H])c3c([H])c([H])c([H])c([H])c3C([H])([H])C([H])([H])C1([H])[H])C2([H])[H])C([H])([H])C([H])([H])N([H])C(=O)c1sc(N([H])C(=O)N2C([H])([H])C([H])([H])C([H])([H])C([H])(n3nc(-c4c([H])c([H])c(Oc5c([H])c([H])c(F)c([H])c5F)c([H])c4[H])c(C(=O)N([H])[H])c3N([H])[H])C2([H])[H])nc1[H]

$$$$
12:0:0
     RDKit          3D

 95103  0  0  1  0  0  0  0  0999 V2000
  -28.9180  -17.7180   19.1870 C   0  0  0  0  0  3  0  0  0  0  0  0
  -29.6660  -18.1050   20.3090 C   0  0  0  0  0  0  0  0  0  0  0  0
  -28.3680  -18.7430   18.4200 C   0  0  0  0  0  0  0  0  0  0  0  0
  -29.2540  -20.3310   19.7950 C   0  0  0  0  0  0  0  0  0  0  0  0
  -29.8160  -19.4320   20.6150 N   0  0  0  0  0  0  0  0  0  0  0  0
  -28.5490  -20.0380   18.7120 N   0  0  0  0  0  0  0  0  0  0  0  0
  -27.6190  -18.4690   17.2900 N   0  0  0  0  0  0  0  0  0  0  0  0
  -29.5810  -21.6860   19.9020 N   0  0  0  0  0  0  0  0  0  0  0  0
  -27.5410  -17.5310   16.9180 H   0  0  0  0  0  0  0  0  0  0  0  0
  -27.3300  -19.2160   16.6700 H   0  0  0  0  0  0  0  0  0  0  0  0
  -29.5230  -22.0900   18.9760 H   0  0  0  0  0  0  0  0  0  0  0  0
  -29.6990  -22.5880   22.2010 C   0  0  0  0  0  1  0  0  0  0  0  0
  -28.9810  -22.6610   20.8400 C   0  0  0  0  0  3  0  0  0  0  0  0
  -29.0120  -24.1320   20.2450 C   0  0  0  0  0  3  0  0  0  0  0  0
  -28.3420  -25.3040   21.0530 C   0  0  0  0  0  3  0  0  0  0  0  0
  -28.4850  -26.6340   20.4670 O   0  0  0  0  0  0  0  0  0  0  0  0
  -24.5710  -31.9460   23.2640 C   0  0  0  0  0  0  0  0  0  0  0  0
  -27.3380  -27.4130   20.4000 C   0  0  0  0  0  0  0  0  0  0  0  0
  -23.4280  -30.4870   21.6280 C   0  0  0  0  0  3  0  0  0  0  0  0
  -24.9390  -28.9290   20.2810 C   0  0  0  0  0  0  0  0  0  0  0  0
  -25.9550  -30.8650   21.4880 C   0  0  0  0  0  2  0  0  0  0  0  0
  -26.0780  -29.4720   20.8900 C   0  0  0  0  0  0  0  0  0  0  0  0
  -27.2840  -28.7250   20.9400 C   0  0  0  0  0  3  0  0  0  0  0  0
  -26.1860  -26.9020   19.7670 C   0  0  0  0  0  3  0  0  0  0  0  0
  -24.9920  -27.6450   19.7100 C   0  0  0  0  0  3  0  0  0  0  0  0
  -23.6860  -29.7770   20.2720 C   0  0  0  0  0  2  0  0  0  0  0  0
  -24.6690  -31.1160   22.1860 N   0  0  0  0  0  0  0  0  0  0  0  0
  -23.4720  -32.2170   23.7680 O   0  0  0  0  0  0  0  0  0  0  0  0
  -22.7600  -29.4840   22.5980 C   0  0  0  0  0  0  0  0  0  0  0  0
  -21.4380  -29.2930   22.4520 N   0  0  0  0  0  0  0  0  0  0  0  0
  -23.4310  -28.8780   23.4390 O   0  0  0  0  0  0  0  0  0  0  0  0
  -20.9540  -29.8330   21.7480 H   0  0  0  0  0  0  0  0  0  0  0  0
  -18.0540  -28.1360   22.9680 C   0  0  0  0  0  0  0  0  0  0  0  0
  -20.6160  -28.3680   23.2290 C   0  0  0  0  0  3  0  0  0  0  0  0
  -20.7020  -26.9320   22.6600 C   0  0  0  0  0  2  0  0  0  0  0  0
  -19.5940  -26.6170   21.6500 C   0  0  0  0  0  2  0  0  0  0  0  0
  -18.2160  -26.7820   22.2970 C   0  0  0  0  0  2  0  0  0  0  0  0
  -19.1820  -28.8870   23.3930 C   0  0  0  0  0  0  0  0  0  0  0  0
  -18.9790  -30.1540   23.9790 C   0  0  0  0  0  3  0  0  0  0  0  0
  -17.6810  -30.6720   24.1470 C   0  0  0  0  0  3  0  0  0  0  0  0
  -16.5670  -29.9180   23.7390 C   0  0  0  0  0  3  0  0  0  0  0  0
  -16.7550  -28.6520   23.1550 C   0  0  0  0  0  3  0  0  0  0  0  0
  -25.8290  -32.6150   23.8990 C   0  0  0  0  0  3  0  0  0  0  0  0
  -26.3380  -31.8750   25.1950 C   0  0  1  0  0  0  0  0  0  0  0  0
  -25.2260  -31.6170   26.2390 C   0  0  0  0  0  1  0  0  0  0  0  0
  -26.9720  -30.5120   24.8310 C   0  0  0  0  0  1  0  0  0  0  0  0
  -27.4500  -32.7090   25.8750 C   0  0  0  0  0  1  0  0  0  0  0  0
  -25.4890  -34.0120   24.1990 N   0  0  0  0  0  0  0  0  0  0  0  0
  -25.8160  -35.0580   23.4290 C   0  0  0  0  0  0  0  0  0  0  0  0
  -26.5080  -34.9490   22.4120 O   0  0  0  0  0  0  0  0  0  0  0  0
  -24.8800  -34.1680   24.9910 H   0  0  0  0  0  0  0  0  0  0  0  0
  -24.0750  -36.8180   22.9940 C   0  0  0  0  0  1  0  0  0  0  0  0
  -25.2940  -36.4450   23.8520 C   0  0  0  0  0  3  0  0  0  0  0  0
  -27.3810  -37.3760   24.7490 C   0  0  0  0  0  1  0  0  0  0  0  0
  -26.3150  -37.5110   23.7600 N   0  0  0  0  0  0  0  0  0  0  0  0
  -25.8890  -38.4270   23.8770 H   0  0  0  0  0  0  0  0  0  0  0  0
  -30.3740  -17.0470   21.1810 C   0  0  0  0  0  2  0  0  0  0  0  0
  -30.6430  -14.6060   20.5140 C   0  0  0  0  0  0  0  0  0  0  0  0
  -30.3440  -12.4790   19.2890 C   0  0  0  0  0  2  0  0  0  0  0  0
  -29.3810  -12.7240   18.1090 C   0  0  0  0  0  2  0  0  0  0  0  0
  -27.9100  -12.5720   18.5500 C   0  0  0  0  0  2  0  0  0  0  0  0
  -27.5930  -13.3370   19.8620 C   0  0  0  0  0  3  0  0  0  0  0  0
  -28.6710  -13.0790   20.9390 C   0  0  0  0  0  2  0  0  0  0  0  0
  -29.9770  -13.4270   20.3550 N   0  0  0  0  0  0  0  0  0  0  0  0
  -31.7870  -14.7770   20.0880 O   0  0  0  0  0  0  0  0  0  0  0  0
  -29.9260  -15.6380   21.0130 N   0  0  0  0  0  0  0  0  0  0  0  0
  -28.9710  -15.4490   21.2700 H   0  0  0  0  0  0  0  0  0  0  0  0
  -25.1970  -13.9000   20.6020 C   0  0  0  0  0  0  0  0  0  0  0  0
  -24.1400  -13.1100   20.9660 C   0  0  0  0  0  0  0  0  0  0  0  0
  -24.6140  -11.7640   20.9090 C   0  0  0  0  0  0  0  0  0  0  0  0
  -26.2500  -13.0350   20.3510 N   0  0  0  0  0  0  0  0  0  0  0  0
  -25.9040  -11.7450   20.5940 N   0  0  0  0  0  0  0  0  0  0  0  0
  -23.9010  -10.4930   21.0800 C   0  0  0  0  0  0  0  0  0  0  0  0
  -24.3310   -9.5270   22.0160 C   0  0  0  0  0  3  0  0  0  0  0  0
  -23.6190   -8.3180   22.1770 C   0  0  0  0  0  3  0  0  0  0  0  0
  -22.4630   -8.0670   21.4020 C   0  0  0  0  0  0  0  0  0  0  0  0
  -22.0520   -9.0230   20.4570 C   0  0  0  0  0  3  0  0  0  0  0  0
  -22.7640  -10.2230   20.2930 C   0  0  0  0  0  3  0  0  0  0  0  0
  -21.7220   -6.9120   21.4750 O   0  0  0  0  0  0  0  0  0  0  0  0
  -21.6540   -6.1700   22.6270 C   0  0  0  0  0  0  0  0  0  0  0  0
  -21.1510   -6.7090   23.8300 C   0  0  0  0  0  3  0  0  0  0  0  0
  -21.0310   -5.8910   24.9720 C   0  0  0  0  0  3  0  0  0  0  0  0
  -21.4060   -4.5360   24.9100 C   0  0  0  0  0  0  0  0  0  0  0  0
  -21.9000   -3.9960   23.7110 C   0  0  0  0  0  3  0  0  0  0  0  0
  -22.0210   -4.8100   22.5710 C   0  0  0  0  0  0  0  0  0  0  0  0
  -22.4780   -4.2780   21.4110 F   0  0  0  0  0  0  0  0  0  0  0  0
  -21.2850   -3.7490   26.0040 F   0  0  0  0  0  0  0  0  0  0  0  0
  -22.7390  -13.5690   21.2570 C   0  0  0  0  0  0  0  0  0  0  0  0
  -22.0180  -12.8400   22.1030 N   0  0  0  0  0  0  0  0  0  0  0  0
  -22.2930  -14.6050   20.7690 O   0  0  0  0  0  0  0  0  0  0  0  0
  -22.3900  -12.0000   22.5200 H   0  0  0  0  0  0  0  0  0  0  0  0
  -21.0770  -13.1270   22.3340 H   0  0  0  0  0  0  0  0  0  0  0  0
  -25.3470  -15.2760   20.4430 N   0  0  0  0  0  0  0  0  0  0  0  0
  -24.5750  -15.9210   20.5650 H   0  0  0  0  0  0  0  0  0  0  0  0
  -26.1820  -15.7290   20.0970 H   0  0  0  0  0  0  0  0  0  0  0  0
  1  2  2  0
  2  5  1  0
  2 57  1  0
  3  6  2  0
  3  1  1  0
  4  8  1  0
  4  5  2  0
  6  4  1  0
  7  3  1  0
  8 13  1  0
  9  7  1  0
 10  7  1  0
 11  8  1  0
 13 12  1  0
 14 13  1  0
 14 15  2  0
 16 15  1  0
 17 28  2  0
 18 16  1  0
 18 23  1  0
 19 27  1  0
 19 29  1  0
 20 22  1  0
 21 27  1  0
 22 23  2  0
 22 21  1  0
 24 18  2  0
 25 24  1  0
 25 20  2  0
 26 20  1  0
 26 19  1  0
 27 17  1  0
 29 31  2  0
 30 29  1  0
 32 30  1  0
 33 42  2  0
 33 38  1  0
 34 30  1  0
 34 38  1  0
 35 34  1  0
 36 37  1  0
 36 35  1  0
 37 33  1  0
 38 39  2  0
 39 40  1  0
 41 40  2  0
 42 41  1  0
 43 17  1  0
 43 48  1  0
 43 44  1  0
 44 47  1  1
 44 45  1  0
 46 44  1  0
 48 51  1  0
 49 53  1  0
 49 48  1  0
 50 49  2  0
 53 52  1  0
 55 53  1  0
 55 56  1  0
 55 54  1  0
 58 66  1  0
 59 64  1  0
 60 61  1  0
 60 59  1  0
 62 61  1  0
 62 71  1  0
 62 63  1  0
 64 58  1  0
 64 63  1  0
 65 58  2  0
 66 57  1  0
 66 67  1  0
 68 69  2  0
 69 88  1  0
 70 69  1  0
 70 73  1  0
 71 72  1  0
 71 68  1  0
 72 70  2  0
 73 74  1  0
 74 75  2  0
 76 79  1  0
 76 75  1  0
 77 76  2  0
 78 77  1  0
 78 73  2  0
 79 80  1  0
 80 81  1  0
 81 82  2  0
 83 82  1  0
 83 87  1  0
 84 83  2  0
 85 80  2  0
 85 84  1  0
 86 85  1  0
 88 89  1  0
 89 92  1  0
 89 91  1  0
 90 88  2  0
 93 94  1  0
 93 68  1  0
 95 93  1  0
M  ISO  4  15 101  16 101  58 100  66 100
M  END
>  <TORSDO>  (13) 
F 20

>  <SCORE>  (13) 
-14.098

>  <name>  (13) 
12

>  <ligand_id>  (13) 
12

>  <original_smiles>  (13) 
[H]c1c(N([H])[H])nc(N([H])C([H])(C([H])([H])[H])C([H])([H])C([H])([H])Oc2c([H])c([H])c3c(c2[H])C([H])([H])N(C(=O)C([H])(N([H])C(=O)C([H])(N([H])C([H])([H])[H])C([H])([H])[H])C(C([H])([H])[H])(C([H])([H])[H])C([H])([H])[H])C([H])(C(=O)N([H])C2([H])c4c([H])c([H])c([H])c([H])c4C([H])([H])C([H])([H])C2([H])[H])C3([H])[H])nc1C([H])([H])N([H])C(=O)N1C([H])([H])C([H])([H])C([H])([H])C([H])(n2nc(-c3c([H])c([H])c(Oc4c([H])c([H])c(F)c([H])c4F)c([H])c3[H])c(C(=O)N([H])[H])c2N([H])[H])C1([H])[H]

>  <smiles>  (13) 
[H]c1c(N([H])[H])nc(N([H])C([H])(C([H])([H])[H])C([H])([H])C([H])([H])Oc2c([H])c([H])c3c(c2[H])C([H])([H])N(C(=O)C([H])(N([H])C(=O)C([H])(N([H])C([H])([H])[H])C([H])([H])[H])C(C([H])([H])[H])(C([H])([H])[H])C([H])([H])[H])C([H])(C(=O)N([H])C2([H])c4c([H])c([H])c([H])c([H])c4C([H])([H])C([H])([H])C2([H])[H])C3([H])[H])nc1C([H])([H])N([H])C(=O)N1C([H])([H])C([H])([H])C([H])([H])C([H])(n2nc(-c3c([H])c([H])c(Oc4c([H])c([H])c(F)c([H])c4F)c([H])c3[H])c(C(=O)N([H])[H])c2N([H])[H])C1([H])[H]

$$$$
13:0:0
     RDKit          3D

 94102  0  0  1  0  0  0  0  0999 V2000
  -28.5990  -23.0410   20.6940 C   0  0  0  0  0  3  0  0  0  0  0  0
  -28.8380  -18.1580   19.8090 C   0  0  0  0  0  3  0  0  0  0  0  0
  -30.1110  -18.3360   20.2910 C   0  0  0  0  0  0  0  0  0  0  0  0
  -29.4190  -20.5370   20.1650 C   0  0  0  0  0  0  0  0  0  0  0  0
  -30.4270  -19.7020   20.4640 N   0  0  0  0  0  0  0  0  0  0  0  0
  -29.4980  -21.9360   20.2900 N   0  0  0  0  0  0  0  0  0  0  0  0
  -28.0080  -19.6720   19.5540 S   0  0  0  0  0  0  0  0  0  0  0  0
  -30.4660  -22.2030   20.4410 H   0  0  0  0  0  0  0  0  0  0  0  0
  -31.1170  -17.2540   20.6410 C   0  0  0  0  0  2  0  0  0  0  0  0
  -31.2400  -14.8060   20.1300 C   0  0  0  0  0  0  0  0  0  0  0  0
  -30.8950  -12.5820   19.1150 C   0  0  0  0  0  2  0  0  0  0  0  0
  -29.9500  -12.7150   17.9040 C   0  0  0  0  0  2  0  0  0  0  0  0
  -28.4760  -12.6320   18.3470 C   0  0  0  0  0  2  0  0  0  0  0  0
  -28.1580  -13.5520   19.5580 C   0  0  0  0  0  3  0  0  0  0  0  0
  -29.2170  -13.3910   20.6710 C   0  0  0  0  0  2  0  0  0  0  0  0
  -30.5390  -13.6400   20.0760 N   0  0  0  0  0  0  0  0  0  0  0  0
  -32.3660  -14.9250   19.6380 O   0  0  0  0  0  0  0  0  0  0  0  0
  -30.5900  -15.8730   20.6280 N   0  0  0  0  0  0  0  0  0  0  0  0
  -29.6630  -15.7250   20.9930 H   0  0  0  0  0  0  0  0  0  0  0  0
  -25.8070  -14.2490   20.3400 C   0  0  0  0  0  0  0  0  0  0  0  0
  -24.7120  -13.5170   20.7140 C   0  0  0  0  0  0  0  0  0  0  0  0
  -25.1070  -12.1470   20.6310 C   0  0  0  0  0  0  0  0  0  0  0  0
  -26.8030  -13.3270   20.0590 N   0  0  0  0  0  0  0  0  0  0  0  0
  -26.3870  -12.0550   20.2930 N   0  0  0  0  0  0  0  0  0  0  0  0
  -24.3230  -10.9160   20.7990 C   0  0  0  0  0  0  0  0  0  0  0  0
  -24.6990   -9.9240   21.7310 C   0  0  0  0  0  3  0  0  0  0  0  0
  -23.9200   -8.7560   21.8880 C   0  0  0  0  0  3  0  0  0  0  0  0
  -22.7510   -8.5740   21.1110 C   0  0  0  0  0  0  0  0  0  0  0  0
  -22.3950   -9.5530   20.1680 C   0  0  0  0  0  3  0  0  0  0  0  0
  -23.1740  -10.7120   20.0090 C   0  0  0  0  0  3  0  0  0  0  0  0
  -21.9470   -7.4610   21.1780 O   0  0  0  0  0  0  0  0  0  0  0  0
  -21.8120   -6.7400   22.3370 C   0  0  0  0  0  0  0  0  0  0  0  0
  -21.3390   -7.3280   23.5300 C   0  0  0  0  0  3  0  0  0  0  0  0
  -21.1490   -6.5330   24.6790 C   0  0  0  0  0  3  0  0  0  0  0  0
  -21.4210   -5.1530   24.6340 C   0  0  0  0  0  0  0  0  0  0  0  0
  -21.8870   -4.5650   23.4450 C   0  0  0  0  0  3  0  0  0  0  0  0
  -22.0790   -5.3560   22.2990 C   0  0  0  0  0  0  0  0  0  0  0  0
  -22.5070   -4.7800   21.1500 F   0  0  0  0  0  0  0  0  0  0  0  0
  -21.2310   -4.3880   25.7350 F   0  0  0  0  0  0  0  0  0  0  0  0
  -23.3450  -14.0530   21.0320 C   0  0  0  0  0  0  0  0  0  0  0  0
  -22.6100  -13.3790   21.9100 N   0  0  0  0  0  0  0  0  0  0  0  0
  -22.9390  -15.1030   20.5350 O   0  0  0  0  0  0  0  0  0  0  0  0
  -22.9520  -12.5310   22.3350 H   0  0  0  0  0  0  0  0  0  0  0  0
  -21.6920  -13.7180   22.1610 H   0  0  0  0  0  0  0  0  0  0  0  0
  -26.0290  -15.6130   20.1880 N   0  0  0  0  0  0  0  0  0  0  0  0
  -25.2700  -16.2790   20.2850 H   0  0  0  0  0  0  0  0  0  0  0  0
  -26.8270  -15.9960   19.6970 H   0  0  0  0  0  0  0  0  0  0  0  0
  -26.3970  -22.2940   21.8030 C   0  0  0  0  0  1  0  0  0  0  0  0
  -27.0960  -22.6980   20.4970 C   0  0  0  0  0  2  0  0  0  0  0  0
  -29.0090  -24.4160   20.0490 C   0  0  0  0  0  3  0  0  0  0  0  0
  -28.5230  -24.3360   18.7250 O   0  0  0  0  0  0  0  0  0  0  0  0
  -28.6920  -23.4350   18.4590 H   0  0  0  0  0  0  0  0  0  0  0  0
  -28.4340  -25.6660   20.8020 C   0  0  0  0  0  2  0  0  0  0  0  0
  -28.6570  -26.9650   20.1990 O   0  0  0  0  0  0  0  0  0  0  0  0
  -24.7250  -32.0010   23.3770 C   0  0  0  0  0  0  0  0  0  0  0  0
  -27.5150  -27.7420   20.1610 C   0  0  0  0  0  0  0  0  0  0  0  0
  -23.5800  -30.6470   21.6540 C   0  0  0  0  0  3  0  0  0  0  0  0
  -25.0940  -29.2070   20.1850 C   0  0  0  0  0  0  0  0  0  0  0  0
  -26.1020  -31.0660   21.5180 C   0  0  0  0  0  2  0  0  0  0  0  0
  -26.2320  -29.7280   20.8170 C   0  0  0  0  0  0  0  0  0  0  0  0
  -27.4500  -29.0040   20.7990 C   0  0  0  0  0  3  0  0  0  0  0  0
  -26.3640  -27.2460   19.5120 C   0  0  0  0  0  3  0  0  0  0  0  0
  -25.1560  -27.9680   19.5270 C   0  0  0  0  0  3  0  0  0  0  0  0
  -23.8290  -30.0350   20.2490 C   0  0  0  0  0  2  0  0  0  0  0  0
  -24.8200  -31.2510   22.2420 N   0  0  0  0  0  0  0  0  0  0  0  0
  -23.6270  -32.2240   23.9070 O   0  0  0  0  0  0  0  0  0  0  0  0
  -22.9330  -29.5710   22.5550 C   0  0  0  0  0  0  0  0  0  0  0  0
  -21.6150  -29.3710   22.4000 N   0  0  0  0  0  0  0  0  0  0  0  0
  -23.6160  -28.9220   23.3520 O   0  0  0  0  0  0  0  0  0  0  0  0
  -21.1230  -29.9480   21.7310 H   0  0  0  0  0  0  0  0  0  0  0  0
  -18.2520  -28.1130   22.8110 C   0  0  0  0  0  0  0  0  0  0  0  0
  -20.8040  -28.3840   23.1150 C   0  0  0  0  0  3  0  0  0  0  0  0
  -20.9270  -26.9870   22.4640 C   0  0  0  0  0  2  0  0  0  0  0  0
  -19.8350  -26.7070   21.4270 C   0  0  0  0  0  2  0  0  0  0  0  0
  -18.4480  -26.8040   22.0680 C   0  0  0  0  0  2  0  0  0  0  0  0
  -19.3590  -28.8630   23.2900 C   0  0  0  0  0  0  0  0  0  0  0  0
  -19.1230  -30.0920   23.9450 C   0  0  0  0  0  3  0  0  0  0  0  0
  -17.8100  -30.5700   24.1270 C   0  0  0  0  0  3  0  0  0  0  0  0
  -16.7180  -29.8160   23.6660 C   0  0  0  0  0  3  0  0  0  0  0  0
  -16.9390  -28.5900   23.0130 C   0  0  0  0  0  3  0  0  0  0  0  0
  -25.9840  -32.6320   24.0480 C   0  0  0  0  0  3  0  0  0  0  0  0
  -25.6640  -34.0290   24.3650 N   0  0  0  0  0  0  0  0  0  0  0  0
  -26.0270  -35.0800   23.6200 C   0  0  0  0  0  0  0  0  0  0  0  0
  -26.7380  -34.9770   22.6160 O   0  0  0  0  0  0  0  0  0  0  0  0
  -25.0370  -34.1860   25.1420 H   0  0  0  0  0  0  0  0  0  0  0  0
  -24.3100  -36.8710   23.1980 C   0  0  0  0  0  1  0  0  0  0  0  0
  -25.5210  -36.4690   24.0560 C   0  0  0  0  0  3  0  0  0  0  0  0
  -27.6220  -37.3590   24.9640 C   0  0  0  0  0  1  0  0  0  0  0  0
  -26.5570  -37.5240   23.9790 N   0  0  0  0  0  0  0  0  0  0  0  0
  -26.1440  -38.4440   24.1060 H   0  0  0  0  0  0  0  0  0  0  0  0
  -26.4530  -31.8590   25.3410 C   0  0  1  0  0  0  0  0  0  0  0  0
  -25.3170  -31.6060   26.3610 C   0  0  0  0  0  1  0  0  0  0  0  0
  -27.0650  -30.4890   24.9670 C   0  0  0  0  0  1  0  0  0  0  0  0
  -27.5670  -32.6600   26.0560 C   0  0  0  0  0  1  0  0  0  0  0  0
  1 49  1  0
  2  3  2  0
  3  5  1  0
  3  9  1  0
  4  6  1  0
  4  5  2  0
  6  8  1  0
  6  1  1  0
  7  2  1  0
  7  4  1  0
 10 18  1  0
 11 16  1  0
 12 13  1  0
 12 11  1  0
 14 13  1  0
 14 23  1  0
 14 15  1  0
 16 10  1  0
 16 15  1  0
 17 10  2  0
 18  9  1  0
 18 19  1  0
 20 21  2  0
 21 40  1  0
 22 21  1  0
 22 25  1  0
 23 24  1  0
 23 20  1  0
 24 22  2  0
 25 26  1  0
 26 27  2  0
 28 31  1  0
 28 27  1  0
 29 28  2  0
 30 29  1  0
 30 25  2  0
 31 32  1  0
 32 33  1  0
 33 34  2  0
 35 34  1  0
 35 39  1  0
 36 35  2  0
 37 32  2  0
 37 36  1  0
 38 37  1  0
 40 41  1  0
 41 44  1  0
 41 43  1  0
 42 40  2  0
 45 46  1  0
 45 20  1  0
 47 45  1  0
 49 48  1  0
 50  1  1  0
 50 53  1  0
 51 50  1  0
 52 51  1  0
 54 53  1  0
 55 66  2  0
 56 54  1  0
 56 61  1  0
 57 65  1  0
 57 67  1  0
 58 64  1  0
 58 60  1  0
 59 65  1  0
 60 59  1  0
 61 60  2  0
 62 63  1  0
 62 56  2  0
 63 58  2  0
 64 57  1  0
 65 55  1  0
 67 69  2  0
 68 67  1  0
 70 68  1  0
 71 80  2  0
 71 76  1  0
 72 68  1  0
 72 76  1  0
 73 72  1  0
 74 75  1  0
 74 73  1  0
 75 71  1  0
 76 77  2  0
 77 78  1  0
 79 78  2  0
 80 79  1  0
 81 55  1  0
 81 82  1  0
 81 91  1  0
 82 85  1  0
 83 87  1  0
 83 82  1  0
 84 83  2  0
 87 86  1  0
 89 87  1  0
 89 90  1  0
 89 88  1  0
 91 94  1  1
 91 92  1  0
 93 91  1  0
M  ISO  4  10 100  18 100  53 101  54 101
M  END
>  <TORSDO>  (14) 
F 22

>  <SCORE>  (14) 
-11.714

>  <name>  (14) 
13

>  <ligand_id>  (14) 
13

>  <original_smiles>  (14) 
[H]OC([H])(C([H])([H])Oc1c([H])c([H])c2c(c1[H])C([H])([H])N(C(=O)C([H])(N([H])C(=O)C([H])(N([H])C([H])([H])[H])C([H])([H])[H])C(C([H])([H])[H])(C([H])([H])[H])C([H])([H])[H])C([H])(C(=O)N([H])C1([H])c3c([H])c([H])c([H])c([H])c3C([H])([H])C([H])([H])C1([H])[H])C2([H])[H])C([H])(N([H])c1nc(C([H])([H])N([H])C(=O)N2C([H])([H])C([H])([H])C([H])([H])C([H])(n3nc(-c4c([H])c([H])c(Oc5c([H])c([H])c(F)c([H])c5F)c([H])c4[H])c(C(=O)N([H])[H])c3N([H])[H])C2([H])[H])c([H])s1)C([H])([H])C([H])([H])[H]

>  <smiles>  (14) 
[H]OC([H])(C([H])([H])Oc1c([H])c([H])c2c(c1[H])C([H])([H])N(C(=O)C([H])(N([H])C(=O)C([H])(N([H])C([H])([H])[H])C([H])([H])[H])C(C([H])([H])[H])(C([H])([H])[H])C([H])([H])[H])C([H])(C(=O)N([H])C1([H])c3c([H])c([H])c([H])c([H])c3C([H])([H])C([H])([H])C1([H])[H])C2([H])[H])C([H])(N([H])c1nc(C([H])([H])N([H])C(=O)N2C([H])([H])C([H])([H])C([H])([H])C([H])(n3nc(-c4c([H])c([H])c(Oc5c([H])c([H])c(F)c([H])c5F)c([H])c4[H])c(C(=O)N([H])[H])c3N([H])[H])C2([H])[H])c([H])s1)C([H])([H])C([H])([H])[H]

$$$$
14:0:0
     RDKit          3D

 93101  0  0  1  0  0  0  0  0999 V2000
  -29.9820  -22.7490   21.9760 C   0  0  0  0  0  1  0  0  0  0  0  0
  -28.9400  -22.7380   20.8510 C   0  0  0  0  0  3  0  0  0  0  0  0
  -29.7480  -17.9260   19.0660 C   0  0  0  0  0  3  0  0  0  0  0  0
  -29.9740  -18.0640   20.4120 C   0  0  0  0  0  0  0  0  0  0  0  0
  -29.4190  -20.2450   19.8550 C   0  0  0  0  0  0  0  0  0  0  0  0
  -29.7600  -19.4010   20.8510 N   0  0  0  0  0  0  0  0  0  0  0  0
  -29.1870  -21.6330   19.9060 N   0  0  0  0  0  0  0  0  0  0  0  0
  -29.2990  -19.4280   18.3010 S   0  0  0  0  0  0  0  0  0  0  0  0
  -28.9330  -21.9990   18.9880 H   0  0  0  0  0  0  0  0  0  0  0  0
  -30.4500  -16.9520   21.3460 C   0  0  0  0  0  2  0  0  0  0  0  0
  -30.6490  -14.5620   20.4770 C   0  0  0  0  0  0  0  0  0  0  0  0
  -30.3570  -12.3880   19.3240 C   0  0  0  0  0  2  0  0  0  0  0  0
  -29.4040  -12.5650   18.1240 C   0  0  0  0  0  2  0  0  0  0  0  0
  -27.9340  -12.4120   18.5630 C   0  0  0  0  0  2  0  0  0  0  0  0
  -27.5970  -13.2550   19.8220 C   0  0  0  0  0  3  0  0  0  0  0  0
  -28.6620  -13.0630   20.9240 C   0  0  0  0  0  2  0  0  0  0  0  0
  -29.9760  -13.3830   20.3420 N   0  0  0  0  0  0  0  0  0  0  0  0
  -31.7780  -14.7320   20.0120 O   0  0  0  0  0  0  0  0  0  0  0  0
  -29.9630  -15.5820   21.0390 N   0  0  0  0  0  0  0  0  0  0  0  0
  -29.0230  -15.3750   21.3370 H   0  0  0  0  0  0  0  0  0  0  0  0
  -25.2080  -13.8570   20.5580 C   0  0  0  0  0  0  0  0  0  0  0  0
  -24.1440  -13.0810   20.9360 C   0  0  0  0  0  0  0  0  0  0  0  0
  -24.6060  -11.7300   20.8980 C   0  0  0  0  0  0  0  0  0  0  0  0
  -26.2500  -12.9760   20.3140 N   0  0  0  0  0  0  0  0  0  0  0  0
  -25.8940  -11.6930   20.5770 N   0  0  0  0  0  0  0  0  0  0  0  0
  -23.8820  -10.4660   21.0910 C   0  0  0  0  0  0  0  0  0  0  0  0
  -24.3400   -9.4840   21.9950 C   0  0  0  0  0  3  0  0  0  0  0  0
  -23.6170   -8.2850   22.1760 C   0  0  0  0  0  3  0  0  0  0  0  0
  -22.4220   -8.0610   21.4540 C   0  0  0  0  0  0  0  0  0  0  0  0
  -21.9820   -9.0320   20.5370 C   0  0  0  0  0  3  0  0  0  0  0  0
  -22.7050  -10.2220   20.3530 C   0  0  0  0  0  3  0  0  0  0  0  0
  -21.6670   -6.9160   21.5460 O   0  0  0  0  0  0  0  0  0  0  0  0
  -21.6710   -6.1410   22.6790 C   0  0  0  0  0  0  0  0  0  0  0  0
  -21.3230   -6.6670   23.9430 C   0  0  0  0  0  3  0  0  0  0  0  0
  -21.2720   -5.8190   25.0680 C   0  0  0  0  0  3  0  0  0  0  0  0
  -21.5580   -4.4480   24.9310 C   0  0  0  0  0  0  0  0  0  0  0  0
  -21.8980   -3.9220   23.6710 C   0  0  0  0  0  3  0  0  0  0  0  0
  -21.9510   -4.7660   22.5490 C   0  0  0  0  0  0  0  0  0  0  0  0
  -22.2590   -4.2510   21.3350 F   0  0  0  0  0  0  0  0  0  0  0  0
  -21.5020   -3.6320   26.0080 F   0  0  0  0  0  0  0  0  0  0  0  0
  -22.7480  -13.5560   21.2220 C   0  0  0  0  0  0  0  0  0  0  0  0
  -22.0290  -12.8570   22.0940 N   0  0  0  0  0  0  0  0  0  0  0  0
  -22.3030  -14.5810   20.7060 O   0  0  0  0  0  0  0  0  0  0  0  0
  -22.3990  -12.0280   22.5330 H   0  0  0  0  0  0  0  0  0  0  0  0
  -21.0920  -13.1580   22.3250 H   0  0  0  0  0  0  0  0  0  0  0  0
  -25.3730  -15.2270   20.3820 N   0  0  0  0  0  0  0  0  0  0  0  0
  -24.6120  -15.8870   20.4930 H   0  0  0  0  0  0  0  0  0  0  0  0
  -26.2230  -15.6620   20.0470 H   0  0  0  0  0  0  0  0  0  0  0  0
  -28.8790  -24.1220   20.0860 C   0  0  0  0  0  3  0  0  0  0  0  0
  -28.1260  -23.8960   18.9070 O   0  0  0  0  0  0  0  0  0  0  0  0
  -28.0430  -24.7410   18.4760 H   0  0  0  0  0  0  0  0  0  0  0  0
  -28.1990  -25.3180   20.8430 C   0  0  0  0  0  2  0  0  0  0  0  0
  -28.3530  -26.6210   20.2040 O   0  0  0  0  0  0  0  0  0  0  0  0
  -24.6050  -31.8990   23.2410 C   0  0  0  0  0  0  0  0  0  0  0  0
  -27.2160  -27.4120   20.1790 C   0  0  0  0  0  0  0  0  0  0  0  0
  -23.3880  -30.4950   21.6100 C   0  0  0  0  0  3  0  0  0  0  0  0
  -24.8330  -28.9530   20.1760 C   0  0  0  0  0  0  0  0  0  0  0  0
  -25.9150  -30.8460   21.3940 C   0  0  0  0  0  2  0  0  0  0  0  0
  -25.9980  -29.4710   20.7560 C   0  0  0  0  0  0  0  0  0  0  0  0
  -27.1970  -28.7120   20.7460 C   0  0  0  0  0  3  0  0  0  0  0  0
  -26.0360  -26.9230   19.5790 C   0  0  0  0  0  3  0  0  0  0  0  0
  -24.8500  -27.6810   19.5780 C   0  0  0  0  0  3  0  0  0  0  0  0
  -23.5900  -29.8150   20.2300 C   0  0  0  0  0  2  0  0  0  0  0  0
  -24.6550  -31.0950   22.1400 N   0  0  0  0  0  0  0  0  0  0  0  0
  -23.5260  -32.1730   23.7870 O   0  0  0  0  0  0  0  0  0  0  0  0
  -22.7410  -29.4770   22.5780 C   0  0  0  0  0  0  0  0  0  0  0  0
  -21.4150  -29.2940   22.4600 N   0  0  0  0  0  0  0  0  0  0  0  0
  -23.4290  -28.8530   23.3910 O   0  0  0  0  0  0  0  0  0  0  0  0
  -20.9200  -29.8510   21.7770 H   0  0  0  0  0  0  0  0  0  0  0  0
  -18.0460  -28.0880   22.9690 C   0  0  0  0  0  0  0  0  0  0  0  0
  -20.6030  -28.3560   23.2340 C   0  0  0  0  0  3  0  0  0  0  0  0
  -20.7090  -26.9220   22.6650 C   0  0  0  0  0  2  0  0  0  0  0  0
  -19.6050  -26.5920   21.6550 C   0  0  0  0  0  2  0  0  0  0  0  0
  -18.2250  -26.7360   22.3000 C   0  0  0  0  0  2  0  0  0  0  0  0
  -19.1620  -28.8550   23.3940 C   0  0  0  0  0  0  0  0  0  0  0  0
  -18.9410  -30.1220   23.9790 C   0  0  0  0  0  3  0  0  0  0  0  0
  -17.6360  -30.6200   24.1420 C   0  0  0  0  0  3  0  0  0  0  0  0
  -16.5340  -29.8510   23.7350 C   0  0  0  0  0  3  0  0  0  0  0  0
  -16.7390  -28.5860   23.1540 C   0  0  0  0  0  3  0  0  0  0  0  0
  -25.8930  -32.5310   23.8510 C   0  0  0  0  0  3  0  0  0  0  0  0
  -25.5850  -33.9280   24.1890 N   0  0  0  0  0  0  0  0  0  0  0  0
  -25.9120  -34.9830   23.4310 C   0  0  0  0  0  0  0  0  0  0  0  0
  -26.5760  -34.8830   22.3950 O   0  0  0  0  0  0  0  0  0  0  0  0
  -24.9940  -34.0780   24.9930 H   0  0  0  0  0  0  0  0  0  0  0  0
  -24.1780  -36.7720   23.0930 C   0  0  0  0  0  1  0  0  0  0  0  0
  -25.4250  -36.3690   23.8950 C   0  0  0  0  0  3  0  0  0  0  0  0
  -27.5680  -37.2530   24.7080 C   0  0  0  0  0  1  0  0  0  0  0  0
  -26.4560  -37.4240   23.7760 N   0  0  0  0  0  0  0  0  0  0  0  0
  -26.0500  -38.3430   23.9320 H   0  0  0  0  0  0  0  0  0  0  0  0
  -26.4250  -31.7560   25.1180 C   0  0  1  0  0  0  0  0  0  0  0  0
  -25.3450  -31.5140   26.1990 C   0  0  0  0  0  1  0  0  0  0  0  0
  -27.0030  -30.3800   24.7130 C   0  0  0  0  0  1  0  0  0  0  0  0
  -27.5820  -32.5480   25.7700 C   0  0  0  0  0  1  0  0  0  0  0  0
  2  1  1  0
  3  4  2  0
  4  6  1  0
  4 10  1  0
  5  7  1  0
  5  6  2  0
  7  2  1  0
  8  3  1  0
  8  5  1  0
  9  7  1  0
 11 19  1  0
 12 17  1  0
 13 14  1  0
 13 12  1  0
 15 14  1  0
 15 24  1  0
 15 16  1  0
 17 11  1  0
 17 16  1  0
 18 11  2  0
 19 20  1  0
 19 10  1  0
 21 22  2  0
 22 41  1  0
 23 22  1  0
 23 26  1  0
 24 21  1  0
 24 25  1  0
 25 23  2  0
 26 27  1  0
 27 28  2  0
 29 32  1  0
 29 28  1  0
 30 29  2  0
 31 30  1  0
 31 26  2  0
 32 33  1  0
 33 34  1  0
 34 35  2  0
 36 35  1  0
 36 40  1  0
 37 36  2  0
 38 33  2  0
 38 37  1  0
 39 38  1  0
 41 42  1  0
 42 45  1  0
 42 44  1  0
 43 41  2  0
 46 47  1  0
 46 21  1  0
 48 46  1  0
 49 52  1  0
 49  2  1  0
 50 49  1  0
 51 50  1  0
 53 52  1  0
 54 65  2  0
 55 53  1  0
 55 60  1  0
 56 64  1  0
 56 66  1  0
 57 63  1  0
 57 59  1  0
 58 64  1  0
 59 58  1  0
 60 59  2  0
 61 55  2  0
 62 61  1  0
 62 57  2  0
 63 56  1  0
 64 54  1  0
 66 68  2  0
 67 66  1  0
 69 67  1  0
 70 79  2  0
 70 75  1  0
 71 67  1  0
 71 75  1  0
 72 71  1  0
 73 74  1  0
 73 72  1  0
 74 70  1  0
 75 76  2  0
 76 77  1  0
 78 77  2  0
 79 78  1  0
 80 54  1  0
 80 81  1  0
 80 90  1  0
 81 84  1  0
 82 86  1  0
 82 81  1  0
 83 82  2  0
 86 85  1  0
 88 86  1  0
 88 89  1  0
 88 87  1  0
 90 93  1  1
 90 91  1  0
 92 90  1  0
M  ISO  4  11 100  19 100  52 101  53 101
M  END
>  <TORSDO>  (15) 
F 21

>  <SCORE>  (15) 
-13.791

>  <name>  (15) 
14

>  <ligand_id>  (15) 
14

>  <original_smiles>  (15) 
[H]OC([H])(C([H])([H])Oc1c([H])c([H])c2c(c1[H])C([H])([H])N(C(=O)C([H])(N([H])C(=O)C([H])(N([H])C([H])([H])[H])C([H])([H])[H])C(C([H])([H])[H])(C([H])([H])[H])C([H])([H])[H])C([H])(C(=O)N([H])C1([H])c3c([H])c([H])c([H])c([H])c3C([H])([H])C([H])([H])C1([H])[H])C2([H])[H])C([H])(N([H])c1nc(C([H])([H])N([H])C(=O)N2C([H])([H])C([H])([H])C([H])([H])C([H])(n3nc(-c4c([H])c([H])c(Oc5c([H])c([H])c(F)c([H])c5F)c([H])c4[H])c(C(=O)N([H])[H])c3N([H])[H])C2([H])[H])c([H])s1)C([H])([H])[H]

>  <smiles>  (15) 
[H]OC([H])(C([H])([H])Oc1c([H])c([H])c2c(c1[H])C([H])([H])N(C(=O)C([H])(N([H])C(=O)C([H])(N([H])C([H])([H])[H])C([H])([H])[H])C(C([H])([H])[H])(C([H])([H])[H])C([H])([H])[H])C([H])(C(=O)N([H])C1([H])c3c([H])c([H])c([H])c([H])c3C([H])([H])C([H])([H])C1([H])[H])C2([H])[H])C([H])(N([H])c1nc(C([H])([H])N([H])C(=O)N2C([H])([H])C([H])([H])C([H])([H])C([H])(n3nc(-c4c([H])c([H])c(Oc5c([H])c([H])c(F)c([H])c5F)c([H])c4[H])c(C(=O)N([H])[H])c3N([H])[H])C2([H])[H])c([H])s1)C([H])([H])[H]

$$$$
15:0:0
     RDKit          3D

 95103  0  0  1  0  0  0  0  0999 V2000
  -30.0600  -18.4590   20.7910 C   0  0  0  0  0  0  0  0  0  0  0  0
  -28.2270  -19.2180   19.8140 C   0  0  0  0  0  0  0  0  0  0  0  0
  -29.6100  -20.6660   20.7450 C   0  0  0  0  0  0  0  0  0  0  0  0
  -26.8200  -17.7880   18.3150 C   0  0  0  0  0  1  0  0  0  0  0  0
  -28.9470  -18.1530   20.1320 N   0  0  0  0  0  4  0  0  0  0  0  0
  -30.4380  -19.7000   21.1510 N   0  0  0  0  0  0  0  0  0  0  0  0
  -28.4810  -20.4900   20.0770 N   0  0  0  0  0  2  0  0  0  0  0  0
  -27.0670  -18.9860   19.1150 N   0  0  0  0  0  0  0  0  0  0  0  0
  -29.9660  -21.9680   21.1390 N   0  0  0  0  0  0  0  0  0  0  0  0
  -26.5450  -19.8210   18.8770 H   0  0  0  0  0  0  0  0  0  0  0  0
  -30.7540  -21.9400   21.7730 H   0  0  0  0  0  0  0  0  0  0  0  0
  -29.3420  -23.3020   19.0480 C   0  0  0  0  0  1  0  0  0  0  0  0
  -29.7950  -23.3210   20.5210 C   0  0  0  0  0  3  0  0  0  0  0  0
  -28.9220  -24.3220   21.3790 C   0  0  0  0  0  2  0  0  0  0  0  0
  -29.4490  -25.7660   21.7660 C   0  0  0  0  0  2  0  0  0  0  0  0
  -29.3760  -26.8900   20.8430 O   0  0  0  0  0  0  0  0  0  0  0  0
  -24.9140  -31.9540   23.3650 C   0  0  0  0  0  0  0  0  0  0  0  0
  -28.1730  -27.5760   20.7560 C   0  0  0  0  0  0  0  0  0  0  0  0
  -23.9940  -30.4160   21.6620 C   0  0  0  0  0  3  0  0  0  0  0  0
  -25.7010  -28.9420   20.4520 C   0  0  0  0  0  0  0  0  0  0  0  0
  -26.4990  -30.9350   21.7290 C   0  0  0  0  0  2  0  0  0  0  0  0
  -26.7490  -29.5490   21.1590 C   0  0  0  0  0  0  0  0  0  0  0  0
  -27.9860  -28.8700   21.3120 C   0  0  0  0  0  3  0  0  0  0  0  0
  -27.1140  -27.0020   20.0260 C   0  0  0  0  0  3  0  0  0  0  0  0
  -25.8860  -27.6730   19.8760 C   0  0  0  0  0  3  0  0  0  0  0  0
  -24.4020  -29.7130   20.3380 C   0  0  0  0  0  2  0  0  0  0  0  0
  -25.1460  -31.1230   22.3090 N   0  0  0  0  0  0  0  0  0  0  0  0
  -23.7670  -32.1620   23.7820 O   0  0  0  0  0  0  0  0  0  0  0  0
  -23.3150  -29.3820   22.5870 C   0  0  0  0  0  0  0  0  0  0  0  0
  -22.0050  -29.1620   22.3860 N   0  0  0  0  0  0  0  0  0  0  0  0
  -23.9660  -28.7790   23.4440 O   0  0  0  0  0  0  0  0  0  0  0  0
  -21.5410  -29.7060   21.6720 H   0  0  0  0  0  0  0  0  0  0  0  0
  -18.6100  -27.9990   22.8280 C   0  0  0  0  0  0  0  0  0  0  0  0
  -21.1710  -28.2010   23.1100 C   0  0  0  0  0  3  0  0  0  0  0  0
  -21.2510  -26.7990   22.4660 C   0  0  0  0  0  2  0  0  0  0  0  0
  -20.1440  -26.5420   21.4380 C   0  0  0  0  0  2  0  0  0  0  0  0
  -18.7640  -26.6790   22.0900 C   0  0  0  0  0  2  0  0  0  0  0  0
  -19.7400  -28.7210   23.2930 C   0  0  0  0  0  0  0  0  0  0  0  0
  -19.5440  -29.9560   23.9450 C   0  0  0  0  0  3  0  0  0  0  0  0
  -18.2490  -30.4740   24.1340 C   0  0  0  0  0  3  0  0  0  0  0  0
  -17.1320  -29.7480   23.6860 C   0  0  0  0  0  3  0  0  0  0  0  0
  -17.3110  -28.5120   23.0390 C   0  0  0  0  0  3  0  0  0  0  0  0
  -26.0780  -32.6980   24.0900 C   0  0  0  0  0  3  0  0  0  0  0  0
  -26.5200  -32.0040   25.4370 C   0  0  1  0  0  0  0  0  0  0  0  0
  -25.3350  -31.6090   26.3480 C   0  0  0  0  0  1  0  0  0  0  0  0
  -27.3430  -30.7250   25.1500 C   0  0  0  0  0  1  0  0  0  0  0  0
  -27.4390  -32.9540   26.2410 C   0  0  0  0  0  1  0  0  0  0  0  0
  -25.6380  -34.0770   24.3380 N   0  0  0  0  0  0  0  0  0  0  0  0
  -25.9530  -35.1280   23.5690 C   0  0  0  0  0  0  0  0  0  0  0  0
  -26.7170  -35.0470   22.6030 O   0  0  0  0  0  0  0  0  0  0  0  0
  -24.9690  -34.2090   25.0830 H   0  0  0  0  0  0  0  0  0  0  0  0
  -24.1290  -36.7660   23.0010 C   0  0  0  0  0  1  0  0  0  0  0  0
  -25.3230  -36.4880   23.9290 C   0  0  0  0  0  3  0  0  0  0  0  0
  -27.2960  -37.5720   24.9060 C   0  0  0  0  0  1  0  0  0  0  0  0
  -26.2760  -37.6160   23.8640 N   0  0  0  0  0  0  0  0  0  0  0  0
  -25.7880  -38.5050   23.9360 H   0  0  0  0  0  0  0  0  0  0  0  0
  -31.0380  -17.2860   21.0470 C   0  0  0  0  0  2  0  0  0  0  0  0
  -31.1920  -14.8160   20.5550 C   0  0  0  0  0  0  0  0  0  0  0  0
  -30.8400  -12.7530   19.2360 C   0  0  0  0  0  2  0  0  0  0  0  0
  -29.9090  -13.0830   18.0520 C   0  0  0  0  0  2  0  0  0  0  0  0
  -28.4310  -12.9470   18.4710 C   0  0  0  0  0  2  0  0  0  0  0  0
  -28.1150  -13.6860   19.8010 C   0  0  0  0  0  3  0  0  0  0  0  0
  -29.1630  -13.3540   20.8830 C   0  0  0  0  0  2  0  0  0  0  0  0
  -30.4850  -13.6700   20.3340 N   0  0  0  0  0  0  0  0  0  0  0  0
  -32.3620  -14.9320   20.1860 O   0  0  0  0  0  0  0  0  0  0  0  0
  -30.5010  -15.8960   21.0020 N   0  0  0  0  0  0  0  0  0  0  0  0
  -29.5240  -15.7800   21.2180 H   0  0  0  0  0  0  0  0  0  0  0  0
  -25.7220  -14.2890   20.5170 C   0  0  0  0  0  0  0  0  0  0  0  0
  -24.6420  -13.5190   20.8410 C   0  0  0  0  0  0  0  0  0  0  0  0
  -25.0860  -12.1650   20.7550 C   0  0  0  0  0  0  0  0  0  0  0  0
  -26.7590  -13.4080   20.2560 N   0  0  0  0  0  0  0  0  0  0  0  0
  -26.3770  -12.1200   20.4560 N   0  0  0  0  0  0  0  0  0  0  0  0
  -24.3440  -10.9060   20.8820 C   0  0  0  0  0  0  0  0  0  0  0  0
  -24.6930   -9.9410   21.8530 C   0  0  0  0  0  3  0  0  0  0  0  0
  -23.9500   -8.7490   21.9700 C   0  0  0  0  0  3  0  0  0  0  0  0
  -22.8410   -8.5150   21.1220 C   0  0  0  0  0  0  0  0  0  0  0  0
  -22.5130   -9.4700   20.1450 C   0  0  0  0  0  3  0  0  0  0  0  0
  -23.2590  -10.6570   20.0220 C   0  0  0  0  0  3  0  0  0  0  0  0
  -22.0730   -7.3750   21.1490 O   0  0  0  0  0  0  0  0  0  0  0  0
  -21.8760   -6.6690   22.3080 C   0  0  0  0  0  0  0  0  0  0  0  0
  -21.2370   -7.2440   23.4290 C   0  0  0  0  0  3  0  0  0  0  0  0
  -20.9890   -6.4620   24.5770 C   0  0  0  0  0  3  0  0  0  0  0  0
  -21.3760   -5.1090   24.6050 C   0  0  0  0  0  0  0  0  0  0  0  0
  -22.0140   -4.5370   23.4900 C   0  0  0  0  0  3  0  0  0  0  0  0
  -22.2600   -5.3140   22.3470 C   0  0  0  0  0  0  0  0  0  0  0  0
  -22.8530   -4.7530   21.2650 F   0  0  0  0  0  0  0  0  0  0  0  0
  -21.1370   -4.3570   25.7030 F   0  0  0  0  0  0  0  0  0  0  0  0
  -23.2430  -14.0000   21.1150 C   0  0  0  0  0  0  0  0  0  0  0  0
  -22.5140  -13.2860   21.9640 N   0  0  0  0  0  0  0  0  0  0  0  0
  -22.8130  -15.0360   20.6080 O   0  0  0  0  0  0  0  0  0  0  0  0
  -22.8850  -12.4630   22.4140 H   0  0  0  0  0  0  0  0  0  0  0  0
  -21.5800  -13.5860   22.2030 H   0  0  0  0  0  0  0  0  0  0  0  0
  -25.9100  -15.6640   20.4010 N   0  0  0  0  0  0  0  0  0  0  0  0
  -25.1690  -16.3280   20.5850 H   0  0  0  0  0  0  0  0  0  0  0  0
  -26.7520  -16.1020   20.0450 H   0  0  0  0  0  0  0  0  0  0  0  0
  1 57  1  0
  1  6  1  0
  2  7  1  0
  2  5  2  0
  3  9  1  0
  3  6  2  0
  4  8  1  0
  5  1  2  0
  7  3  1  0
  8  2  1  0
  9 11  1  0
 10  8  1  0
 13 12  1  0
 13  9  1  0
 13 14  1  0
 14 15  1  0
 16 15  1  0
 17 28  2  0
 18 16  1  0
 18 23  1  0
 19 27  1  0
 19 29  1  0
 20 22  1  0
 21 27  1  0
 22 23  2  0
 22 21  1  0
 24 18  2  0
 25 24  1  0
 25 20  2  0
 26 20  1  0
 26 19  1  0
 27 17  1  0
 29 31  2  0
 30 29  1  0
 32 30  1  0
 33 42  2  0
 33 38  1  0
 34 30  1  0
 34 38  1  0
 35 34  1  0
 36 37  1  0
 36 35  1  0
 37 33  1  0
 38 39  2  0
 39 40  1  0
 41 40  2  0
 42 41  1  0
 43 17  1  0
 43 48  1  0
 43 44  1  0
 44 47  1  1
 44 45  1  0
 46 44  1  0
 48 51  1  0
 49 53  1  0
 49 48  1  0
 50 49  2  0
 53 52  1  0
 55 53  1  0
 55 56  1  0
 55 54  1  0
 58 66  1  0
 59 64  1  0
 60 61  1  0
 60 59  1  0
 62 61  1  0
 62 71  1  0
 62 63  1  0
 64 58  1  0
 64 63  1  0
 65 58  2  0
 66 57  1  0
 66 67  1  0
 68 69  2  0
 69 88  1  0
 70 69  1  0
 70 73  1  0
 71 72  1  0
 71 68  1  0
 72 70  2  0
 73 74  1  0
 74 75  2  0
 76 79  1  0
 76 75  1  0
 77 76  2  0
 78 77  1  0
 78 73  2  0
 79 80  1  0
 80 85  2  0
 80 81  1  0
 81 82  2  0
 82 83  1  0
 83 87  1  0
 84 83  2  0
 85 84  1  0
 86 85  1  0
 88 89  1  0
 89 92  1  0
 89 91  1  0
 90 88  2  0
 93 68  1  0
 93 94  1  0
 95 93  1  0
M  ISO  4  15 101  16 101  58 100  66 100
M  END
>  <TORSDO>  (16) 
F 20

>  <SCORE>  (16) 
-12.641

>  <name>  (16) 
15

>  <ligand_id>  (16) 
15

>  <original_smiles>  (16) 
[H]c1c([H])c([H])c2c(c1[H])C([H])([H])C([H])([H])C([H])([H])C2([H])N([H])C(=O)C1([H])N(C(=O)C([H])(N([H])C(=O)C([H])(N([H])C([H])([H])[H])C([H])([H])[H])C(C([H])([H])[H])(C([H])([H])[H])C([H])([H])[H])C([H])([H])c2c([H])c(OC([H])([H])C([H])([H])C([H])(N([H])c3nc(N([H])C([H])([H])[H])nc(C([H])([H])N([H])C(=O)N4C([H])([H])C([H])([H])C([H])([H])C([H])(n5nc(-c6c([H])c([H])c(Oc7c([H])c([H])c(F)c([H])c7F)c([H])c6[H])c(C(=O)N([H])[H])c5N([H])[H])C4([H])[H])n3)C([H])([H])[H])c([H])c([H])c2C1([H])[H]

>  <smiles>  (16) 
[H]c1c([H])c([H])c2c(c1[H])C([H])([H])C([H])([H])C([H])([H])C2([H])N([H])C(=O)C1([H])N(C(=O)C([H])(N([H])C(=O)C([H])(N([H])C([H])([H])[H])C([H])([H])[H])C(C([H])([H])[H])(C([H])([H])[H])C([H])([H])[H])C([H])([H])c2c([H])c(OC([H])([H])C([H])([H])C([H])(N([H])c3nc(N([H])C([H])([H])[H])nc(C([H])([H])N([H])C(=O)N4C([H])([H])C([H])([H])C([H])([H])C([H])(n5nc(-c6c([H])c([H])c(Oc7c([H])c([H])c(F)c([H])c7F)c([H])c6[H])c(C(=O)N([H])[H])c5N([H])[H])C4([H])[H])n3)C([H])([H])[H])c([H])c([H])c2C1([H])[H]

$$$$
16:0:0
     RDKit          3D

 98106  0  0  1  0  0  0  0  0999 V2000
  -30.1490  -19.8520   18.9810 C   0  0  0  0  0  0  0  0  0  0  0  0
  -30.7390  -19.5940   17.8040 N   0  0  0  0  0  4  0  0  0  0  0  0
  -29.6290  -21.0740   19.2600 N   0  0  0  0  0  0  0  0  0  0  0  0
  -31.1160  -18.6660   17.6850 H   0  0  0  0  0  0  0  0  0  0  0  0
  -30.9240  -20.2880   17.1000 H   0  0  0  0  0  0  0  0  0  0  0  0
  -29.1660  -21.1130   20.1660 H   0  0  0  0  0  0  0  0  0  0  0  0
  -31.2660  -14.5010   19.6970 C   0  0  0  0  0  0  0  0  0  0  0  0
  -30.8350  -12.3860   18.4830 C   0  0  0  0  0  2  0  0  0  0  0  0
  -29.7660  -12.6240   17.3960 C   0  0  0  0  0  2  0  0  0  0  0  0
  -28.3450  -12.4880   17.9780 C   0  0  0  0  0  2  0  0  0  0  0  0
  -28.1570  -13.2990   19.2860 C   0  0  0  0  0  3  0  0  0  0  0  0
  -29.3130  -13.0100   20.2680 C   0  0  0  0  0  2  0  0  0  0  0  0
  -30.5890  -13.3240   19.5900 N   0  0  0  0  0  0  0  0  0  0  0  0
  -32.2270  -14.7980   18.9770 O   0  0  0  0  0  0  0  0  0  0  0  0
  -30.0420  -18.7600   19.9710 C   0  0  0  0  0  0  0  0  0  0  0  0
  -29.2800  -18.7950   21.1190 C   0  0  0  0  0  0  0  0  0  0  0  0
  -30.4350  -16.6440   20.6770 C   0  0  0  0  0  0  0  0  0  0  0  0
  -30.6850  -17.5320   19.6980 N   0  0  0  0  0  0  0  0  0  0  0  0
  -30.8440  -15.2820   20.7040 N   0  0  0  0  0  0  0  0  0  0  0  0
  -29.4130  -17.2790   21.9710 S   0  0  0  0  0  0  0  0  0  0  0  0
  -30.3640  -14.7530   21.4160 H   0  0  0  0  0  0  0  0  0  0  0  0
  -25.8780  -13.9370   20.3080 C   0  0  0  0  0  0  0  0  0  0  0  0
  -24.8330  -13.1750   20.7580 C   0  0  0  0  0  0  0  0  0  0  0  0
  -25.2380  -11.8140   20.5920 C   0  0  0  0  0  0  0  0  0  0  0  0
  -26.8550  -13.0410   19.9000 N   0  0  0  0  0  0  0  0  0  0  0  0
  -26.4780  -11.7570   20.1240 N   0  0  0  0  0  0  0  0  0  0  0  0
  -24.4950  -10.5650   20.7990 C   0  0  0  0  0  0  0  0  0  0  0  0
  -24.9060   -9.6130   21.7580 C   0  0  0  0  0  3  0  0  0  0  0  0
  -24.1670   -8.4250   21.9490 C   0  0  0  0  0  3  0  0  0  0  0  0
  -23.0030   -8.1830   21.1810 C   0  0  0  0  0  0  0  0  0  0  0  0
  -22.6110   -9.1240   20.2140 C   0  0  0  0  0  3  0  0  0  0  0  0
  -23.3510  -10.3030   20.0200 C   0  0  0  0  0  3  0  0  0  0  0  0
  -22.2380   -7.0450   21.2770 O   0  0  0  0  0  0  0  0  0  0  0  0
  -22.0180   -6.4280   22.4810 C   0  0  0  0  0  0  0  0  0  0  0  0
  -21.3880   -7.0930   23.5570 C   0  0  0  0  0  3  0  0  0  0  0  0
  -21.1160   -6.3980   24.7520 C   0  0  0  0  0  3  0  0  0  0  0  0
  -21.4650   -5.0390   24.8730 C   0  0  0  0  0  0  0  0  0  0  0  0
  -22.0860   -4.3740   23.8020 C   0  0  0  0  0  3  0  0  0  0  0  0
  -22.3600   -5.0660   22.6090 C   0  0  0  0  0  0  0  0  0  0  0  0
  -22.9390   -4.4130   21.5730 F   0  0  0  0  0  0  0  0  0  0  0  0
  -21.1980   -4.3710   26.0200 F   0  0  0  0  0  0  0  0  0  0  0  0
  -23.4960  -13.6750   21.2260 C   0  0  0  0  0  0  0  0  0  0  0  0
  -22.8680  -12.9670   22.1570 N   0  0  0  0  0  0  0  0  0  0  0  0
  -23.0240  -14.7290   20.8030 O   0  0  0  0  0  0  0  0  0  0  0  0
  -23.2670  -12.1180   22.5260 H   0  0  0  0  0  0  0  0  0  0  0  0
  -21.9740  -13.2830   22.5120 H   0  0  0  0  0  0  0  0  0  0  0  0
  -26.0740  -15.3110   20.1990 N   0  0  0  0  0  0  0  0  0  0  0  0
  -25.3570  -15.9820   20.4540 H   0  0  0  0  0  0  0  0  0  0  0  0
  -26.8990  -15.7430   19.8060 H   0  0  0  0  0  0  0  0  0  0  0  0
  -28.4550  -19.8020   21.6230 N   0  0  0  0  0  0  0  0  0  0  0  0
  -27.5640  -19.8510   21.1310 H   0  0  0  0  0  0  0  0  0  0  0  0
  -28.2200  -19.6380   22.5960 H   0  0  0  0  0  0  0  0  0  0  0  0
  -29.3590  -22.1730   18.3040 C   0  0  0  0  0  2  0  0  0  0  0  0
  -29.4530  -23.6220   18.8720 C   0  0  0  0  0  2  0  0  0  0  0  0
  -29.4060  -24.5240   16.4650 C   0  0  0  0  0  1  0  0  0  0  0  0
  -28.8750  -24.7060   17.9040 C   0  0  0  0  0  3  0  0  0  0  0  0
  -29.1320  -26.1940   18.3070 C   0  0  0  0  0  2  0  0  0  0  0  0
  -28.6270  -26.6760   19.5580 O   0  0  0  0  0  0  0  0  0  0  0  0
  -24.7150  -31.5970   22.9200 C   0  0  0  0  0  0  0  0  0  0  0  0
  -27.4440  -27.3920   19.5640 C   0  0  0  0  0  0  0  0  0  0  0  0
  -23.5230  -30.2330   21.2350 C   0  0  0  0  0  3  0  0  0  0  0  0
  -24.9980  -28.8170   19.7070 C   0  0  0  0  0  0  0  0  0  0  0  0
  -26.0320  -30.6800   21.0130 C   0  0  0  0  0  2  0  0  0  0  0  0
  -26.1490  -29.3440   20.3060 C   0  0  0  0  0  0  0  0  0  0  0  0
  -27.3700  -28.6320   20.2450 C   0  0  0  0  0  3  0  0  0  0  0  0
  -26.2750  -26.8810   18.9630 C   0  0  0  0  0  3  0  0  0  0  0  0
  -25.0570  -27.5820   19.0360 C   0  0  0  0  0  3  0  0  0  0  0  0
  -23.7280  -29.6280   19.8210 C   0  0  0  0  0  2  0  0  0  0  0  0
  -24.7750  -30.8500   21.7820 N   0  0  0  0  0  0  0  0  0  0  0  0
  -23.6360  -31.8050   23.4940 O   0  0  0  0  0  0  0  0  0  0  0  0
  -22.9260  -29.1460   22.1580 C   0  0  0  0  0  0  0  0  0  0  0  0
  -21.6060  -28.9240   22.0470 N   0  0  0  0  0  0  0  0  0  0  0  0
  -23.6450  -28.5070   22.9300 O   0  0  0  0  0  0  0  0  0  0  0  0
  -21.0850  -29.4920   21.3950 H   0  0  0  0  0  0  0  0  0  0  0  0
  -18.2830  -27.5980   22.5510 C   0  0  0  0  0  0  0  0  0  0  0  0
  -20.8370  -27.9240   22.7870 C   0  0  0  0  0  3  0  0  0  0  0  0
  -20.9710  -26.5270   22.1380 C   0  0  0  0  0  2  0  0  0  0  0  0
  -19.8610  -26.2200   21.1300 C   0  0  0  0  0  2  0  0  0  0  0  0
  -18.4880  -26.2890   21.8060 C   0  0  0  0  0  2  0  0  0  0  0  0
  -19.3860  -28.3730   22.9960 C   0  0  0  0  0  0  0  0  0  0  0  0
  -19.1410  -29.5990   23.6520 C   0  0  0  0  0  3  0  0  0  0  0  0
  -17.8250  -30.0500   23.8680 C   0  0  0  0  0  3  0  0  0  0  0  0
  -16.7370  -29.2700   23.4390 C   0  0  0  0  0  3  0  0  0  0  0  0
  -16.9670  -28.0460   22.7840 C   0  0  0  0  0  3  0  0  0  0  0  0
  -25.9900  -32.2410   23.5450 C   0  0  0  0  0  3  0  0  0  0  0  0
  -25.6190  -33.5800   24.0260 N   0  0  0  0  0  0  0  0  0  0  0  0
  -25.8570  -34.7180   23.3630 C   0  0  0  0  0  0  0  0  0  0  0  0
  -26.4820  -34.7570   22.3010 O   0  0  0  0  0  0  0  0  0  0  0  0
  -25.0530  -33.6180   24.8610 H   0  0  0  0  0  0  0  0  0  0  0  0
  -24.0140  -36.4290   23.2590 C   0  0  0  0  0  1  0  0  0  0  0  0
  -25.3120  -36.0240   23.9760 C   0  0  0  0  0  3  0  0  0  0  0  0
  -27.4250  -36.9540   24.8110 C   0  0  0  0  0  1  0  0  0  0  0  0
  -26.2770  -37.1440   23.9290 N   0  0  0  0  0  0  0  0  0  0  0  0
  -25.8250  -38.0190   24.1790 H   0  0  0  0  0  0  0  0  0  0  0  0
  -26.6140  -31.3820   24.7130 C   0  0  1  0  0  0  0  0  0  0  0  0
  -25.5890  -30.9610   25.7920 C   0  0  0  0  0  1  0  0  0  0  0  0
  -27.2680  -30.0970   24.1550 C   0  0  0  0  0  1  0  0  0  0  0  0
  -27.7390  -32.1830   25.4090 C   0  0  0  0  0  1  0  0  0  0  0  0
  1  3  1  0
  1 15  1  0
  2  1  2  0
  3  6  1  0
  4  2  1  0
  5  2  1  0
  7 19  1  0
  8 13  1  0
  9 10  1  0
  9  8  1  0
 11 10  1  0
 11 25  1  0
 11 12  1  0
 13  7  1  0
 13 12  1  0
 14  7  2  0
 15 16  2  0
 16 50  1  0
 16 20  1  0
 17 19  1  0
 17 20  1  0
 18 15  1  0
 18 17  2  0
 19 21  1  0
 22 23  2  0
 23 42  1  0
 24 23  1  0
 24 27  1  0
 25 26  1  0
 25 22  1  0
 26 24  2  0
 27 28  1  0
 28 29  2  0
 30 33  1  0
 30 29  1  0
 31 30  2  0
 32 31  1  0
 32 27  2  0
 33 34  1  0
 34 39  2  0
 34 35  1  0
 35 36  2  0
 36 37  1  0
 37 41  1  0
 38 37  2  0
 39 38  1  0
 40 39  1  0
 42 43  1  0
 43 46  1  0
 43 45  1  0
 44 42  2  0
 47 22  1  0
 47 48  1  0
 49 47  1  0
 50 52  1  0
 51 50  1  0
 53 54  1  0
 53  3  1  0
 56 55  1  0
 56 57  1  0
 56 54  1  0
 57 58  1  0
 58 60  1  0
 59 70  2  0
 60 65  1  0
 61 69  1  0
 61 71  1  0
 62 68  1  0
 62 64  1  0
 63 69  1  0
 64 63  1  0
 65 64  2  0
 66 67  1  0
 66 60  2  0
 67 62  2  0
 68 61  1  0
 69 59  1  0
 71 73  2  0
 72 71  1  0
 74 72  1  0
 75 84  2  0
 75 80  1  0
 76 72  1  0
 76 80  1  0
 77 76  1  0
 78 79  1  0
 78 77  1  0
 79 75  1  0
 80 81  2  0
 81 82  1  0
 83 82  2  0
 84 83  1  0
 85 59  1  0
 85 86  1  0
 85 95  1  0
 86 89  1  0
 87 91  1  0
 87 86  1  0
 88 87  2  0
 91 90  1  0
 93 91  1  0
 93 94  1  0
 93 92  1  0
 95 98  1  1
 95 96  1  0
 97 95  1  0
M  ISO  4   7 100  19 100  57 101  58 101
M  END
>  <TORSDO>  (17) 
F 21

>  <SCORE>  (17) 
-9.862

>  <name>  (17) 
16

>  <ligand_id>  (17) 
16

>  <original_smiles>  (17) 
[H]c1c([H])c([H])c2c(c1[H])C([H])([H])C([H])([H])C([H])([H])C2([H])N([H])C(=O)C1([H])N(C(=O)C([H])(N([H])C(=O)C([H])(N([H])C([H])([H])[H])C([H])([H])[H])C(C([H])([H])[H])(C([H])([H])[H])C([H])([H])[H])C([H])([H])c2c([H])c(OC([H])([H])C([H])(C([H])([H])[H])C([H])([H])C([H])([H])[N+]([H])=C(c3nc(N([H])C(=O)N4C([H])([H])C([H])([H])C([H])([H])C([H])(n5nc(-c6c([H])c([H])c(Oc7c([H])c([H])c(F)c([H])c7F)c([H])c6[H])c(C(=O)N([H])[H])c5N([H])[H])C4([H])[H])sc3N([H])[H])N([H])[H])c([H])c([H])c2C1([H])[H]

>  <smiles>  (17) 
[H]c1c([H])c([H])c2c(c1[H])C([H])([H])C([H])([H])C([H])([H])C2([H])N([H])C(=O)C1([H])N(C(=O)C([H])(N([H])C(=O)C([H])(N([H])C([H])([H])[H])C([H])([H])[H])C(C([H])([H])[H])(C([H])([H])[H])C([H])([H])[H])C([H])([H])c2c([H])c(OC([H])([H])C([H])(C([H])([H])[H])C([H])([H])C([H])([H])[N+]([H])=C(c3nc(N([H])C(=O)N4C([H])([H])C([H])([H])C([H])([H])C([H])(n5nc(-c6c([H])c([H])c(Oc7c([H])c([H])c(F)c([H])c7F)c([H])c6[H])c(C(=O)N([H])[H])c5N([H])[H])C4([H])[H])sc3N([H])[H])N([H])[H])c([H])c([H])c2C1([H])[H]

$$$$
17:0:0
     RDKit          3D

 95103  0  0  1  0  0  0  0  0999 V2000
  -27.7200  -21.3640   19.3280 C   0  0  0  0  0  1  0  0  0  0  0  0
  -28.7760  -21.7770   20.3720 C   0  0  0  0  0  3  0  0  0  0  0  0
  -29.1350  -17.6290   21.2300 C   0  0  0  0  0  3  0  0  0  0  0  0
  -31.0860  -18.8230   19.8170 C   0  0  0  0  0  3  0  0  0  0  0  0
  -30.1590  -16.8480   20.6300 C   0  0  0  0  0  0  0  0  0  0  0  0
  -30.0400  -19.5860   20.3940 C   0  0  0  0  0  0  0  0  0  0  0  0
  -31.1440  -17.4720   19.9300 N   0  0  0  0  0  0  0  0  0  0  0  0
  -29.0690  -18.9820   21.1200 N   0  0  0  0  0  0  0  0  0  0  0  0
  -30.0020  -20.9810   20.2080 N   0  0  0  0  0  0  0  0  0  0  0  0
  -30.7340  -21.3670   19.6210 H   0  0  0  0  0  0  0  0  0  0  0  0
  -30.7120  -14.4580   20.1190 C   0  0  0  0  0  0  0  0  0  0  0  0
  -30.3430  -12.3340   18.9210 C   0  0  0  0  0  2  0  0  0  0  0  0
  -29.3360  -12.5850   17.7790 C   0  0  0  0  0  2  0  0  0  0  0  0
  -27.8870  -12.4400   18.2860 C   0  0  0  0  0  2  0  0  0  0  0  0
  -27.6270  -13.2360   19.5930 C   0  0  0  0  0  3  0  0  0  0  0  0
  -28.7410  -12.9660   20.6320 C   0  0  0  0  0  2  0  0  0  0  0  0
  -30.0360  -13.2820   20.0050 N   0  0  0  0  0  0  0  0  0  0  0  0
  -31.8070  -14.6430   19.5780 O   0  0  0  0  0  0  0  0  0  0  0  0
  -30.0490  -15.4320   20.7760 N   0  0  0  0  0  0  0  0  0  0  0  0
  -29.2260  -15.1160   21.2620 H   0  0  0  0  0  0  0  0  0  0  0  0
  -25.2700  -13.8360   20.4370 C   0  0  0  0  0  0  0  0  0  0  0  0
  -24.2210  -13.0580   20.8500 C   0  0  0  0  0  0  0  0  0  0  0  0
  -24.6770  -11.7070   20.7710 C   0  0  0  0  0  0  0  0  0  0  0  0
  -26.2990  -12.9560   20.1360 N   0  0  0  0  0  0  0  0  0  0  0  0
  -25.9490  -11.6710   20.3940 N   0  0  0  0  0  0  0  0  0  0  0  0
  -23.9600  -10.4420   20.9790 C   0  0  0  0  0  0  0  0  0  0  0  0
  -24.4240   -9.4730   21.8970 C   0  0  0  0  0  3  0  0  0  0  0  0
  -23.7080   -8.2730   22.0920 C   0  0  0  0  0  3  0  0  0  0  0  0
  -22.5150   -8.0330   21.3710 C   0  0  0  0  0  0  0  0  0  0  0  0
  -22.0700   -8.9910   20.4430 C   0  0  0  0  0  3  0  0  0  0  0  0
  -22.7850  -10.1830   20.2460 C   0  0  0  0  0  3  0  0  0  0  0  0
  -21.7670   -6.8840   21.4770 O   0  0  0  0  0  0  0  0  0  0  0  0
  -21.7310   -6.1540   22.6370 C   0  0  0  0  0  0  0  0  0  0  0  0
  -21.3210   -6.7220   23.8640 C   0  0  0  0  0  3  0  0  0  0  0  0
  -21.2300   -5.9180   25.0170 C   0  0  0  0  0  3  0  0  0  0  0  0
  -21.5400   -4.5470   24.9470 C   0  0  0  0  0  0  0  0  0  0  0  0
  -21.9450   -3.9780   23.7260 C   0  0  0  0  0  3  0  0  0  0  0  0
  -22.0370   -4.7800   22.5750 C   0  0  0  0  0  0  0  0  0  0  0  0
  -22.4050   -4.2220   21.3970 F   0  0  0  0  0  0  0  0  0  0  0  0
  -21.4470   -3.7720   26.0530 F   0  0  0  0  0  0  0  0  0  0  0  0
  -22.8420  -13.5330   21.2040 C   0  0  0  0  0  0  0  0  0  0  0  0
  -22.1600  -12.8250   22.0980 N   0  0  0  0  0  0  0  0  0  0  0  0
  -22.3760  -14.5650   20.7220 O   0  0  0  0  0  0  0  0  0  0  0  0
  -22.5490  -11.9880   22.5090 H   0  0  0  0  0  0  0  0  0  0  0  0
  -21.2360  -13.1230   22.3760 H   0  0  0  0  0  0  0  0  0  0  0  0
  -25.4280  -15.2080   20.2730 N   0  0  0  0  0  0  0  0  0  0  0  0
  -24.6640  -15.8580   20.4250 H   0  0  0  0  0  0  0  0  0  0  0  0
  -26.2450  -15.6470   19.8680 H   0  0  0  0  0  0  0  0  0  0  0  0
  -29.0420  -23.3100   20.2520 C   0  0  0  0  0  2  0  0  0  0  0  0
  -29.7030  -23.9900   21.4760 C   0  0  0  0  0  3  0  0  0  0  0  0
  -28.8390  -23.9580   22.6020 O   0  0  0  0  0  0  0  0  0  0  0  0
  -28.0380  -24.4210   22.3750 H   0  0  0  0  0  0  0  0  0  0  0  0
  -30.2230  -25.4350   21.2280 C   0  0  0  0  0  2  0  0  0  0  0  0
  -29.2160  -26.6130   21.2030 C   0  0  0  0  0  2  0  0  0  0  0  0
  -28.4080  -26.6180   20.0290 O   0  0  0  0  0  0  0  0  0  0  0  0
  -24.5370  -31.7830   23.1360 C   0  0  0  0  0  0  0  0  0  0  0  0
  -27.2730  -27.3990   20.0620 C   0  0  0  0  0  0  0  0  0  0  0  0
  -23.3650  -30.3800   21.4670 C   0  0  0  0  0  3  0  0  0  0  0  0
  -24.8550  -28.8680   20.0500 C   0  0  0  0  0  0  0  0  0  0  0  0
  -25.8860  -30.7710   21.3020 C   0  0  0  0  0  2  0  0  0  0  0  0
  -25.9950  -29.4020   20.6640 C   0  0  0  0  0  0  0  0  0  0  0  0
  -27.2050  -28.6730   20.6780 C   0  0  0  0  0  3  0  0  0  0  0  0
  -26.1210  -26.8850   19.4340 C   0  0  0  0  0  3  0  0  0  0  0  0
  -24.9110  -27.6040   19.4350 C   0  0  0  0  0  3  0  0  0  0  0  0
  -23.6000  -29.7110   20.0850 C   0  0  0  0  0  2  0  0  0  0  0  0
  -24.6130  -30.9930   22.0270 N   0  0  0  0  0  0  0  0  0  0  0  0
  -23.4480  -32.0400   23.6650 O   0  0  0  0  0  0  0  0  0  0  0  0
  -22.7130  -29.3470   22.4130 C   0  0  0  0  0  0  0  0  0  0  0  0
  -21.3880  -29.1690   22.2810 N   0  0  0  0  0  0  0  0  0  0  0  0
  -23.3950  -28.7070   23.2190 O   0  0  0  0  0  0  0  0  0  0  0  0
  -20.9000  -29.7370   21.6040 H   0  0  0  0  0  0  0  0  0  0  0  0
  -18.0100  -27.9840   22.7640 C   0  0  0  0  0  0  0  0  0  0  0  0
  -20.5690  -28.2220   23.0370 C   0  0  0  0  0  3  0  0  0  0  0  0
  -20.6630  -26.8010   22.4350 C   0  0  0  0  0  2  0  0  0  0  0  0
  -19.5580  -26.5050   21.4160 C   0  0  0  0  0  2  0  0  0  0  0  0
  -18.1780  -26.6460   22.0650 C   0  0  0  0  0  2  0  0  0  0  0  0
  -19.1330  -28.7320   23.2060 C   0  0  0  0  0  0  0  0  0  0  0  0
  -18.9230  -29.9860   23.8190 C   0  0  0  0  0  3  0  0  0  0  0  0
  -17.6210  -30.4930   23.9950 C   0  0  0  0  0  3  0  0  0  0  0  0
  -16.5130  -29.7410   23.5690 C   0  0  0  0  0  3  0  0  0  0  0  0
  -16.7080  -28.4890   22.9580 C   0  0  0  0  0  3  0  0  0  0  0  0
  -25.8110  -32.4180   23.7760 C   0  0  0  0  0  3  0  0  0  0  0  0
  -25.4810  -33.8030   24.1360 N   0  0  0  0  0  0  0  0  0  0  0  0
  -25.7910  -34.8760   23.3960 C   0  0  0  0  0  0  0  0  0  0  0  0
  -26.4570  -34.8050   22.3590 O   0  0  0  0  0  0  0  0  0  0  0  0
  -24.8880  -33.9310   24.9430 H   0  0  0  0  0  0  0  0  0  0  0  0
  -24.0220  -36.6370   23.0910 C   0  0  0  0  0  1  0  0  0  0  0  0
  -25.2800  -36.2450   23.8820 C   0  0  0  0  0  3  0  0  0  0  0  0
  -27.4060  -37.1570   24.7060 C   0  0  0  0  0  1  0  0  0  0  0  0
  -26.2900  -37.3210   23.7790 N   0  0  0  0  0  0  0  0  0  0  0  0
  -25.8670  -38.2300   23.9490 H   0  0  0  0  0  0  0  0  0  0  0  0
  -26.3410  -31.6240   25.0320 C   0  0  1  0  0  0  0  0  0  0  0  0
  -25.2520  -31.3430   26.0940 C   0  0  0  0  0  1  0  0  0  0  0  0
  -26.9450  -30.2660   24.6020 C   0  0  0  0  0  1  0  0  0  0  0  0
  -27.4810  -32.4170   25.7140 C   0  0  0  0  0  1  0  0  0  0  0  0
  2  1  1  0
  4  7  2  0
  4  6  1  0
  5 19  1  0
  5  3  2  0
  6  8  2  0
  7  5  1  0
  8  3  1  0
  9  2  1  0
  9  6  1  0
 10  9  1  0
 11 19  1  0
 12 17  1  0
 13 14  1  0
 13 12  1  0
 15 14  1  0
 15 24  1  0
 15 16  1  0
 17 11  1  0
 17 16  1  0
 18 11  2  0
 19 20  1  0
 21 22  2  0
 22 41  1  0
 23 22  1  0
 23 26  1  0
 24 25  1  0
 24 21  1  0
 25 23  2  0
 26 27  1  0
 27 28  2  0
 29 32  1  0
 29 28  1  0
 30 29  2  0
 31 30  1  0
 31 26  2  0
 32 33  1  0
 33 34  1  0
 34 35  2  0
 36 35  1  0
 36 40  1  0
 37 36  2  0
 38 33  2  0
 38 37  1  0
 39 38  1  0
 41 42  1  0
 42 45  1  0
 42 44  1  0
 43 41  2  0
 46 47  1  0
 46 21  1  0
 48 46  1  0
 49  2  1  0
 50 49  1  0
 50 51  1  0
 52 51  1  0
 53 50  1  0
 54 53  1  0
 55 57  1  0
 55 54  1  0
 56 67  2  0
 57 62  1  0
 58 66  1  0
 58 68  1  0
 59 65  1  0
 59 61  1  0
 60 66  1  0
 61 62  2  0
 61 60  1  0
 63 64  1  0
 63 57  2  0
 64 59  2  0
 65 58  1  0
 66 56  1  0
 68 70  2  0
 69 68  1  0
 71 69  1  0
 72 81  2  0
 72 77  1  0
 73 69  1  0
 73 77  1  0
 74 73  1  0
 75 76  1  0
 75 74  1  0
 76 72  1  0
 77 78  2  0
 78 79  1  0
 80 79  2  0
 81 80  1  0
 82 56  1  0
 82 83  1  0
 82 92  1  0
 83 86  1  0
 84 88  1  0
 84 83  1  0
 85 84  2  0
 88 87  1  0
 90 88  1  0
 90 91  1  0
 90 89  1  0
 92 95  1  1
 92 93  1  0
 94 92  1  0
M  ISO  4  11 100  19 100  54 101  55 101
M  END
>  <TORSDO>  (18) 
F 22

>  <SCORE>  (18) 
-13.059

>  <name>  (18) 
17

>  <ligand_id>  (18) 
17

>  <original_smiles>  (18) 
[H]OC([H])(C([H])([H])C([H])([H])Oc1c([H])c([H])c2c(c1[H])C([H])([H])N(C(=O)C([H])(N([H])C(=O)C([H])(N([H])C([H])([H])[H])C([H])([H])[H])C(C([H])([H])[H])(C([H])([H])[H])C([H])([H])[H])C([H])(C(=O)N([H])C1([H])c3c([H])c([H])c([H])c([H])c3C([H])([H])C([H])([H])C1([H])[H])C2([H])[H])C([H])([H])C([H])(N([H])c1nc([H])c(N([H])C(=O)N2C([H])([H])C([H])([H])C([H])([H])C([H])(n3nc(-c4c([H])c([H])c(Oc5c([H])c([H])c(F)c([H])c5F)c([H])c4[H])c(C(=O)N([H])[H])c3N([H])[H])C2([H])[H])nc1[H])C([H])([H])[H]

>  <smiles>  (18) 
[H]OC([H])(C([H])([H])C([H])([H])Oc1c([H])c([H])c2c(c1[H])C([H])([H])N(C(=O)C([H])(N([H])C(=O)C([H])(N([H])C([H])([H])[H])C([H])([H])[H])C(C([H])([H])[H])(C([H])([H])[H])C([H])([H])[H])C([H])(C(=O)N([H])C1([H])c3c([H])c([H])c([H])c([H])c3C([H])([H])C([H])([H])C1([H])[H])C2([H])[H])C([H])([H])C([H])(N([H])c1nc([H])c(N([H])C(=O)N2C([H])([H])C([H])([H])C([H])([H])C([H])(n3nc(-c4c([H])c([H])c(Oc5c([H])c([H])c(F)c([H])c5F)c([H])c4[H])c(C(=O)N([H])[H])c3N([H])[H])C2([H])[H])nc1[H])C([H])([H])[H]

$$$$
18:0:0
     RDKit          3D

 98106  0  0  1  0  0  0  0  0999 V2000
  -29.7980  -22.1440   19.6090 C   0  0  0  0  0  3  0  0  0  0  0  0
  -30.3330  -20.7550   19.8490 N   0  0  0  0  0  4  0  0  0  0  0  0
  -30.0530  -20.1810   19.0700 H   0  0  0  0  0  0  0  0  0  0  0  0
  -31.3390  -20.7570   19.8590 H   0  0  0  0  0  0  0  0  0  0  0  0
  -30.7970  -20.1820   22.2780 C   0  0  0  0  0  1  0  0  0  0  0  0
  -29.8640  -20.0370   21.0610 C   0  0  0  0  0  3  0  0  0  0  0  0
  -28.6600  -16.3460   20.4590 C   0  0  0  0  0  3  0  0  0  0  0  0
  -30.0200  -16.3140   20.6220 C   0  0  0  0  0  0  0  0  0  0  0  0
  -29.6750  -18.5800   20.6820 C   0  0  0  0  0  0  0  0  0  0  0  0
  -30.6080  -17.5970   20.7060 N   0  0  0  0  0  0  0  0  0  0  0  0
  -28.0460  -17.9670   20.4030 S   0  0  0  0  0  0  0  0  0  0  0  0
  -31.1160  -14.1780   19.9680 C   0  0  0  0  0  0  0  0  0  0  0  0
  -30.7690  -11.9400   18.9550 C   0  0  0  0  0  2  0  0  0  0  0  0
  -29.7880  -12.0550   17.7690 C   0  0  0  0  0  2  0  0  0  0  0  0
  -28.3230  -11.9850   18.2440 C   0  0  0  0  0  2  0  0  0  0  0  0
  -28.0400  -12.9330   19.4380 C   0  0  0  0  0  3  0  0  0  0  0  0
  -29.1150  -12.7460   20.5330 C   0  0  0  0  0  2  0  0  0  0  0  0
  -30.4420  -12.9920   19.9310 N   0  0  0  0  0  0  0  0  0  0  0  0
  -32.1290  -14.4010   19.2940 O   0  0  0  0  0  0  0  0  0  0  0  0
  -30.6320  -15.0510   20.8690 N   0  0  0  0  0  0  0  0  0  0  0  0
  -30.1040  -14.5230   21.5460 H   0  0  0  0  0  0  0  0  0  0  0  0
  -25.6930  -13.6870   20.1900 C   0  0  0  0  0  0  0  0  0  0  0  0
  -24.6050  -12.9850   20.6340 C   0  0  0  0  0  0  0  0  0  0  0  0
  -24.9980  -11.6120   20.6390 C   0  0  0  0  0  0  0  0  0  0  0  0
  -26.6880  -12.7480   19.9650 N   0  0  0  0  0  0  0  0  0  0  0  0
  -26.2730  -11.4950   20.2850 N   0  0  0  0  0  0  0  0  0  0  0  0
  -24.2190  -10.3970   20.9060 C   0  0  0  0  0  0  0  0  0  0  0  0
  -24.6060   -9.4750   21.9020 C   0  0  0  0  0  3  0  0  0  0  0  0
  -23.8320   -8.3210   22.1500 C   0  0  0  0  0  3  0  0  0  0  0  0
  -22.6550   -8.0830   21.4030 C   0  0  0  0  0  0  0  0  0  0  0  0
  -22.2860   -8.9920   20.3970 C   0  0  0  0  0  3  0  0  0  0  0  0
  -23.0600  -10.1380   20.1470 C   0  0  0  0  0  3  0  0  0  0  0  0
  -21.8530   -6.9770   21.5580 O   0  0  0  0  0  0  0  0  0  0  0  0
  -21.7310   -6.3410   22.7670 C   0  0  0  0  0  0  0  0  0  0  0  0
  -21.2830   -7.0170   23.9230 C   0  0  0  0  0  3  0  0  0  0  0  0
  -21.1050   -6.3090   25.1280 C   0  0  0  0  0  3  0  0  0  0  0  0
  -21.3640   -4.9260   25.1780 C   0  0  0  0  0  0  0  0  0  0  0  0
  -21.8040   -4.2490   24.0260 C   0  0  0  0  0  3  0  0  0  0  0  0
  -21.9840   -4.9550   22.8230 C   0  0  0  0  0  0  0  0  0  0  0  0
  -22.3880   -4.2950   21.7120 F   0  0  0  0  0  0  0  0  0  0  0  0
  -21.1850   -4.2430   26.3320 F   0  0  0  0  0  0  0  0  0  0  0  0
  -23.2440  -13.5430   20.9360 C   0  0  0  0  0  0  0  0  0  0  0  0
  -22.5190  -12.9270   21.8650 N   0  0  0  0  0  0  0  0  0  0  0  0
  -22.8330  -14.5630   20.3830 O   0  0  0  0  0  0  0  0  0  0  0  0
  -22.8620  -12.1040   22.3360 H   0  0  0  0  0  0  0  0  0  0  0  0
  -21.6070  -13.2870   22.1070 H   0  0  0  0  0  0  0  0  0  0  0  0
  -25.9100  -15.0380   19.9440 N   0  0  0  0  0  0  0  0  0  0  0  0
  -25.1630  -15.7190   20.0320 H   0  0  0  0  0  0  0  0  0  0  0  0
  -26.7440  -15.4190   19.5140 H   0  0  0  0  0  0  0  0  0  0  0  0
  -31.8580  -22.8830   18.2220 C   0  0  0  0  0  1  0  0  0  0  0  0
  -29.8450  -21.8730   17.0440 C   0  0  0  0  0  1  0  0  0  0  0  0
  -30.3270  -22.6930   18.2540 C   0  0  0  0  0  3  0  0  0  0  0  0
  -30.0470  -23.1340   20.8010 C   0  0  0  0  0  2  0  0  0  0  0  0
  -29.8720  -24.6770   20.6030 C   0  0  0  0  0  3  0  0  0  0  0  0
  -30.2850  -25.2640   21.8260 O   0  0  0  0  0  0  0  0  0  0  0  0
  -30.1020  -26.1970   21.7500 H   0  0  0  0  0  0  0  0  0  0  0  0
  -28.4430  -25.2240   20.3410 C   0  0  0  0  0  2  0  0  0  0  0  0
  -28.5220  -26.6560   20.1890 O   0  0  0  0  0  0  0  0  0  0  0  0
  -24.6820  -31.8480   23.2130 C   0  0  0  0  0  0  0  0  0  0  0  0
  -27.3370  -27.3680   20.1840 C   0  0  0  0  0  0  0  0  0  0  0  0
  -23.4820  -30.4340   21.5770 C   0  0  0  0  0  3  0  0  0  0  0  0
  -24.9390  -28.8800   20.1720 C   0  0  0  0  0  0  0  0  0  0  0  0
  -26.0100  -30.7880   21.3840 C   0  0  0  0  0  2  0  0  0  0  0  0
  -26.0960  -29.4110   20.7550 C   0  0  0  0  0  0  0  0  0  0  0  0
  -27.2990  -28.6660   20.7490 C   0  0  0  0  0  3  0  0  0  0  0  0
  -26.1590  -26.8500   19.6010 C   0  0  0  0  0  3  0  0  0  0  0  0
  -24.9670  -27.6000   19.5890 C   0  0  0  0  0  3  0  0  0  0  0  0
  -23.6960  -29.7410   20.2050 C   0  0  0  0  0  2  0  0  0  0  0  0
  -24.7430  -31.0390   22.1160 N   0  0  0  0  0  0  0  0  0  0  0  0
  -23.5990  -32.1250   23.7450 O   0  0  0  0  0  0  0  0  0  0  0  0
  -22.8250  -29.4220   22.5440 C   0  0  0  0  0  0  0  0  0  0  0  0
  -21.4980  -29.2480   22.4170 N   0  0  0  0  0  0  0  0  0  0  0  0
  -23.5050  -28.7970   23.3600 O   0  0  0  0  0  0  0  0  0  0  0  0
  -21.0130  -29.8060   21.7290 H   0  0  0  0  0  0  0  0  0  0  0  0
  -18.1160  -28.0820   22.9210 C   0  0  0  0  0  0  0  0  0  0  0  0
  -20.6750  -28.3190   23.1900 C   0  0  0  0  0  3  0  0  0  0  0  0
  -20.7650  -26.8850   22.6170 C   0  0  0  0  0  2  0  0  0  0  0  0
  -19.6590  -26.5700   21.6040 C   0  0  0  0  0  2  0  0  0  0  0  0
  -18.2800  -26.7290   22.2500 C   0  0  0  0  0  2  0  0  0  0  0  0
  -19.2410  -28.8350   23.3480 C   0  0  0  0  0  0  0  0  0  0  0  0
  -19.0340  -30.1030   23.9350 C   0  0  0  0  0  3  0  0  0  0  0  0
  -17.7340  -30.6160   24.0990 C   0  0  0  0  0  3  0  0  0  0  0  0
  -16.6230  -29.8590   23.6890 C   0  0  0  0  0  3  0  0  0  0  0  0
  -16.8150  -28.5940   23.1070 C   0  0  0  0  0  3  0  0  0  0  0  0
  -25.9670  -32.4820   23.8340 C   0  0  0  0  0  3  0  0  0  0  0  0
  -25.6560  -33.8790   24.1630 N   0  0  0  0  0  0  0  0  0  0  0  0
  -25.9880  -34.9320   23.4020 C   0  0  0  0  0  0  0  0  0  0  0  0
  -26.6600  -34.8270   22.3720 O   0  0  0  0  0  0  0  0  0  0  0  0
  -25.0580  -34.0340   24.9620 H   0  0  0  0  0  0  0  0  0  0  0  0
  -24.2510  -36.7150   23.0470 C   0  0  0  0  0  1  0  0  0  0  0  0
  -25.4970  -36.3190   23.8560 C   0  0  0  0  0  3  0  0  0  0  0  0
  -27.6310  -37.2140   24.6750 C   0  0  0  0  0  1  0  0  0  0  0  0
  -26.5260  -37.3760   23.7350 N   0  0  0  0  0  0  0  0  0  0  0  0
  -26.1170  -38.2950   23.8810 H   0  0  0  0  0  0  0  0  0  0  0  0
  -26.4850  -31.7110   25.1100 C   0  0  1  0  0  0  0  0  0  0  0  0
  -25.3920  -31.4690   26.1770 C   0  0  0  0  0  1  0  0  0  0  0  0
  -27.0750  -30.3380   24.7140 C   0  0  0  0  0  1  0  0  0  0  0  0
  -27.6320  -32.5100   25.7740 C   0  0  0  0  0  1  0  0  0  0  0  0
  1  2  1  0
  1 53  1  0
  2  4  1  0
  2  6  1  0
  3  2  1  0
  6  5  1  0
  7  8  2  0
  8 10  1  0
  8 20  1  0
  9 10  2  0
  9  6  1  0
 11  7  1  0
 11  9  1  0
 12 20  1  0
 13 18  1  0
 14 15  1  0
 14 13  1  0
 16 15  1  0
 16 25  1  0
 16 17  1  0
 18 12  1  0
 18 17  1  0
 19 12  2  0
 20 21  1  0
 22 23  2  0
 23 24  1  0
 23 42  1  0
 24 27  1  0
 25 22  1  0
 25 26  1  0
 26 24  2  0
 27 28  1  0
 28 29  2  0
 30 33  1  0
 30 29  1  0
 31 30  2  0
 32 31  1  0
 32 27  2  0
 33 34  1  0
 34 39  2  0
 34 35  1  0
 35 36  2  0
 36 37  1  0
 37 41  1  0
 38 37  2  0
 39 38  1  0
 40 39  1  0
 42 43  1  0
 43 46  1  0
 43 45  1  0
 44 42  2  0
 47 48  1  0
 47 22  1  0
 49 47  1  0
 50 52  1  0
 51 52  1  0
 52  1  1  0
 54 57  1  0
 54 53  1  0
 54 55  1  0
 56 55  1  0
 58 57  1  0
 59 70  2  0
 60 58  1  0
 60 65  1  0
 61 69  1  0
 61 71  1  0
 62 68  1  0
 62 64  1  0
 63 69  1  0
 64 63  1  0
 65 64  2  0
 66 60  2  0
 67 66  1  0
 67 62  2  0
 68 61  1  0
 69 59  1  0
 71 73  2  0
 72 71  1  0
 74 72  1  0
 75 84  2  0
 75 80  1  0
 76 72  1  0
 76 80  1  0
 77 76  1  0
 78 79  1  0
 78 77  1  0
 79 75  1  0
 80 81  2  0
 81 82  1  0
 83 82  2  0
 84 83  1  0
 85 59  1  0
 85 86  1  0
 85 95  1  0
 86 89  1  0
 87 91  1  0
 87 86  1  0
 88 87  2  0
 91 90  1  0
 93 91  1  0
 93 94  1  0
 93 92  1  0
 95 98  1  1
 95 96  1  0
 97 95  1  0
M  ISO  4  12 100  20 100  57 101  58 101
M  END
>  <TORSDO>  (19) 
F 24

>  <SCORE>  (19) 
-12.369

>  <name>  (19) 
18

>  <ligand_id>  (19) 
18

>  <original_smiles>  (19) 
[H]OC([H])(C([H])([H])Oc1c([H])c([H])c2c(c1[H])C([H])([H])N(C(=O)C([H])(N([H])C(=O)C([H])(N([H])C([H])([H])[H])C([H])([H])[H])C(C([H])([H])[H])(C([H])([H])[H])C([H])([H])[H])C([H])(C(=O)N([H])C1([H])c3c([H])c([H])c([H])c([H])c3C([H])([H])C([H])([H])C1([H])[H])C2([H])[H])C([H])([H])C([H])(C([H])(C([H])([H])[H])C([H])([H])[H])[N+]([H])([H])C([H])(c1nc(N([H])C(=O)N2C([H])([H])C([H])([H])C([H])([H])C([H])(n3nc(-c4c([H])c([H])c(Oc5c([H])c([H])c(F)c([H])c5F)c([H])c4[H])c(C(=O)N([H])[H])c3N([H])[H])C2([H])[H])c([H])s1)C([H])([H])[H]

>  <smiles>  (19) 
[H]OC([H])(C([H])([H])Oc1c([H])c([H])c2c(c1[H])C([H])([H])N(C(=O)C([H])(N([H])C(=O)C([H])(N([H])C([H])([H])[H])C([H])([H])[H])C(C([H])([H])[H])(C([H])([H])[H])C([H])([H])[H])C([H])(C(=O)N([H])C1([H])c3c([H])c([H])c([H])c([H])c3C([H])([H])C([H])([H])C1([H])[H])C2([H])[H])C([H])([H])C([H])(C([H])(C([H])([H])[H])C([H])([H])[H])[N+]([H])([H])C([H])(c1nc(N([H])C(=O)N2C([H])([H])C([H])([H])C([H])([H])C([H])(n3nc(-c4c([H])c([H])c(Oc5c([H])c([H])c(F)c([H])c5F)c([H])c4[H])c(C(=O)N([H])[H])c3N([H])[H])C2([H])[H])c([H])s1)C([H])([H])[H]

$$$$
19:0:0
     RDKit          3D

 99107  0  0  1  0  0  0  0  0999 V2000
  -30.6080  -14.7650   20.4000 C   0  0  0  0  0  0  0  0  0  0  0  0
  -30.4300  -12.4780   19.4340 C   0  0  0  0  0  2  0  0  0  0  0  0
  -29.4830  -12.5050   18.2140 C   0  0  0  0  0  2  0  0  0  0  0  0
  -28.0090  -12.3520   18.6450 C   0  0  0  0  0  2  0  0  0  0  0  0
  -27.6350  -13.2890   19.8240 C   0  0  0  0  0  3  0  0  0  0  0  0
  -28.6910  -13.2230   20.9510 C   0  0  0  0  0  2  0  0  0  0  0  0
  -29.9960  -13.5440   20.3540 N   0  0  0  0  0  0  0  0  0  0  0  0
  -31.7560  -14.9280   19.9610 O   0  0  0  0  0  0  0  0  0  0  0  0
  -30.9950  -19.5320   21.9970 C   0  0  0  0  0  3  0  0  0  0  0  0
  -30.8820  -18.4170   22.8790 C   0  0  0  0  0  3  0  0  0  0  0  0
  -30.2460  -19.3750   20.7910 C   0  0  0  0  0  0  0  0  0  0  0  0
  -30.1450  -17.0830   21.1640 C   0  0  0  0  0  0  0  0  0  0  0  0
  -30.5080  -17.2010   22.4300 N   0  0  0  0  0  0  0  0  0  0  0  0
  -29.8710  -18.1360   20.3770 N   0  0  0  0  0  0  0  0  0  0  0  0
  -29.8160  -20.4170   19.9250 N   0  0  0  0  0  0  0  0  0  0  0  0
  -29.8100  -15.8070   20.7530 N   0  0  0  0  0  0  0  0  0  0  0  0
  -29.3300  -20.1130   19.0910 H   0  0  0  0  0  0  0  0  0  0  0  0
  -28.8560  -15.5570   20.9350 H   0  0  0  0  0  0  0  0  0  0  0  0
  -25.2650  -13.9070   20.5910 C   0  0  0  0  0  0  0  0  0  0  0  0
  -24.1930  -13.1390   20.9650 C   0  0  0  0  0  0  0  0  0  0  0  0
  -24.6380  -11.7830   20.8990 C   0  0  0  0  0  0  0  0  0  0  0  0
  -26.2910  -13.0170   20.3240 N   0  0  0  0  0  0  0  0  0  0  0  0
  -25.9210  -11.7350   20.5660 N   0  0  0  0  0  0  0  0  0  0  0  0
  -23.9010  -10.5250   21.0770 C   0  0  0  0  0  0  0  0  0  0  0  0
  -24.3510   -9.5280   21.9700 C   0  0  0  0  0  3  0  0  0  0  0  0
  -23.6170   -8.3340   22.1370 C   0  0  0  0  0  3  0  0  0  0  0  0
  -22.4200   -8.1300   21.4100 C   0  0  0  0  0  0  0  0  0  0  0  0
  -21.9900   -9.1170   20.5070 C   0  0  0  0  0  3  0  0  0  0  0  0
  -22.7240  -10.3020   20.3380 C   0  0  0  0  0  3  0  0  0  0  0  0
  -21.6540   -6.9920   21.4890 O   0  0  0  0  0  0  0  0  0  0  0  0
  -21.6470   -6.2050   22.6140 C   0  0  0  0  0  0  0  0  0  0  0  0
  -21.2930   -6.7190   23.8800 C   0  0  0  0  0  3  0  0  0  0  0  0
  -21.2310   -5.8590   24.9970 C   0  0  0  0  0  3  0  0  0  0  0  0
  -21.5140   -4.4880   24.8450 C   0  0  0  0  0  0  0  0  0  0  0  0
  -21.8630   -3.9750   23.5830 C   0  0  0  0  0  3  0  0  0  0  0  0
  -21.9250   -4.8320   22.4700 C   0  0  0  0  0  0  0  0  0  0  0  0
  -22.2400   -4.3290   21.2520 F   0  0  0  0  0  0  0  0  0  0  0  0
  -21.4490   -3.6600   25.9130 F   0  0  0  0  0  0  0  0  0  0  0  0
  -22.8090  -13.6260   21.2700 C   0  0  0  0  0  0  0  0  0  0  0  0
  -22.0900  -12.9220   22.1380 N   0  0  0  0  0  0  0  0  0  0  0  0
  -22.3690  -14.6610   20.7740 O   0  0  0  0  0  0  0  0  0  0  0  0
  -22.4630  -12.0850   22.5620 H   0  0  0  0  0  0  0  0  0  0  0  0
  -21.1580  -13.2250   22.3820 H   0  0  0  0  0  0  0  0  0  0  0  0
  -25.4460  -15.2780   20.4390 N   0  0  0  0  0  0  0  0  0  0  0  0
  -24.6880  -15.9370   20.5800 H   0  0  0  0  0  0  0  0  0  0  0  0
  -26.2730  -15.7100   20.0480 H   0  0  0  0  0  0  0  0  0  0  0  0
  -33.0240  -20.5710   23.3540 C   0  0  0  0  0  1  0  0  0  0  0  0
  -32.8680  -20.9220   20.9460 C   0  0  0  0  0  1  0  0  0  0  0  0
  -31.9980  -20.7090   22.2110 C   0  0  1  0  0  0  0  0  0  0  0  0
  -31.3500  -21.8310   22.5090 F   0  0  0  0  0  0  0  0  0  0  0  0
  -29.5580  -18.5910   25.0440 C   0  0  0  0  0  1  0  0  0  0  0  0
  -30.9530  -18.4650   24.4060 C   0  0  0  0  0  2  0  0  0  0  0  0
  -29.6220  -21.8240   20.3550 C   0  0  0  0  0  2  0  0  0  0  0  0
  -28.7610  -22.7100   19.3960 C   0  0  0  0  0  3  0  0  0  0  0  0
  -27.4220  -22.2940   19.5970 O   0  0  0  0  0  0  0  0  0  0  0  0
  -27.3920  -21.3450   19.5250 H   0  0  0  0  0  0  0  0  0  0  0  0
  -28.8800  -24.2680   19.6410 C   0  0  0  0  0  3  0  0  0  0  0  0
  -27.8740  -25.1800   18.8560 C   0  0  0  0  0  3  0  0  0  0  0  0
  -28.0140  -26.6330   19.0160 O   0  0  0  0  0  0  0  0  0  0  0  0
  -24.4850  -31.6020   22.8130 C   0  0  0  0  0  0  0  0  0  0  0  0
  -26.8670  -27.4210   19.1260 C   0  0  0  0  0  0  0  0  0  0  0  0
  -23.1530  -30.3400   21.1580 C   0  0  0  0  0  3  0  0  0  0  0  0
  -24.4870  -28.9560   19.4810 C   0  0  0  0  0  0  0  0  0  0  0  0
  -25.6640  -30.7180   20.7950 C   0  0  0  0  0  2  0  0  0  0  0  0
  -25.6950  -29.4100   20.0230 C   0  0  0  0  0  0  0  0  0  0  0  0
  -26.8840  -28.6490   19.8460 C   0  0  0  0  0  3  0  0  0  0  0  0
  -25.6340  -27.0260   18.5530 C   0  0  0  0  0  3  0  0  0  0  0  0
  -24.4540  -27.7620   18.7470 C   0  0  0  0  0  3  0  0  0  0  0  0
  -23.2540  -29.8010   19.7080 C   0  0  0  0  0  2  0  0  0  0  0  0
  -24.4570  -30.8980   21.6450 N   0  0  0  0  0  0  0  0  0  0  0  0
  -23.4510  -31.8140   23.4620 O   0  0  0  0  0  0  0  0  0  0  0  0
  -22.5890  -29.2260   22.0700 C   0  0  0  0  0  0  0  0  0  0  0  0
  -21.2570  -29.0410   22.0440 N   0  0  0  0  0  0  0  0  0  0  0  0
  -23.3420  -28.5360   22.7610 O   0  0  0  0  0  0  0  0  0  0  0  0
  -20.7060  -29.6580   21.4620 H   0  0  0  0  0  0  0  0  0  0  0  0
  -17.9520  -27.7300   22.6850 C   0  0  0  0  0  0  0  0  0  0  0  0
  -20.5170  -28.0290   22.7940 C   0  0  0  0  0  3  0  0  0  0  0  0
  -20.6020  -26.6470   22.1040 C   0  0  0  0  0  2  0  0  0  0  0  0
  -19.4370  -26.3770   21.1480 C   0  0  0  0  0  2  0  0  0  0  0  0
  -18.1030  -26.4420   21.8950 C   0  0  0  0  0  2  0  0  0  0  0  0
  -19.0840  -28.4840   23.0950 C   0  0  0  0  0  0  0  0  0  0  0  0
  -18.8830  -29.6940   23.7940 C   0  0  0  0  0  3  0  0  0  0  0  0
  -17.5830  -30.1490   24.0880 C   0  0  0  0  0  3  0  0  0  0  0  0
  -16.4680  -29.3900   23.6910 C   0  0  0  0  0  3  0  0  0  0  0  0
  -16.6540  -28.1840   22.9950 C   0  0  0  0  0  3  0  0  0  0  0  0
  -25.8150  -32.1960   23.3740 C   0  0  0  0  0  3  0  0  0  0  0  0
  -25.5120  -33.5180   23.9380 N   0  0  0  0  0  0  0  0  0  0  0  0
  -25.7950  -34.6820   23.3420 C   0  0  0  0  0  0  0  0  0  0  0  0
  -26.4140  -34.7560   22.2770 O   0  0  0  0  0  0  0  0  0  0  0  0
  -24.9710  -33.5360   24.7890 H   0  0  0  0  0  0  0  0  0  0  0  0
  -24.0370  -36.4750   23.3480 C   0  0  0  0  0  1  0  0  0  0  0  0
  -25.3150  -35.9690   24.0380 C   0  0  0  0  0  3  0  0  0  0  0  0
  -27.4730  -36.7360   24.9170 C   0  0  0  0  0  1  0  0  0  0  0  0
  -26.3300  -37.0430   24.0590 N   0  0  0  0  0  0  0  0  0  0  0  0
  -25.9220  -37.9180   24.3770 H   0  0  0  0  0  0  0  0  0  0  0  0
  -26.4970  -31.2790   24.4620 C   0  0  1  0  0  0  0  0  0  0  0  0
  -25.5460  -30.8550   25.6050 C   0  0  0  0  0  1  0  0  0  0  0  0
  -27.0580  -29.9930   23.8130 C   0  0  0  0  0  1  0  0  0  0  0  0
  -27.7030  -32.0170   25.0950 C   0  0  0  0  0  1  0  0  0  0  0  0
  1 16  1  0
  2  7  1  0
  3  4  1  0
  3  2  1  0
  5  4  1  0
  5 22  1  0
  5  6  1  0
  7  1  1  0
  7  6  1  0
  8  1  2  0
  9 49  1  0
  9 10  1  0
 10 52  1  0
 11  9  1  0
 12 13  2  0
 13 10  1  0
 14 11  2  0
 14 12  1  0
 15 53  1  0
 15 11  1  0
 16 18  1  0
 16 12  1  0
 17 15  1  0
 19 20  2  0
 20 39  1  0
 21 20  1  0
 21 24  1  0
 22 23  1  0
 22 19  1  0
 23 21  2  0
 24 25  1  0
 25 26  2  0
 27 30  1  0
 27 26  1  0
 28 27  2  0
 29 28  1  0
 29 24  2  0
 30 31  1  0
 31 32  1  0
 32 33  2  0
 34 33  1  0
 34 38  1  0
 35 34  2  0
 36 31  2  0
 36 35  1  0
 37 36  1  0
 39 40  1  0
 40 43  1  0
 40 42  1  0
 41 39  2  0
 44 45  1  0
 44 19  1  0
 46 44  1  0
 49 48  1  6
 49 50  1  0
 49 47  1  0
 52 51  1  0
 54 55  1  0
 54 57  1  0
 54 53  1  0
 56 55  1  0
 58 59  1  0
 58 57  2  0
 59 61  1  0
 60 71  2  0
 61 66  1  0
 62 70  1  0
 62 72  1  0
 63 69  1  0
 63 65  1  0
 64 70  1  0
 65 64  1  0
 66 65  2  0
 67 68  1  0
 67 61  2  0
 68 63  2  0
 69 62  1  0
 70 60  1  0
 72 74  2  0
 73 72  1  0
 75 73  1  0
 76 85  2  0
 76 81  1  0
 77 73  1  0
 77 81  1  0
 78 77  1  0
 79 80  1  0
 79 78  1  0
 80 76  1  0
 81 82  2  0
 82 83  1  0
 84 83  2  0
 85 84  1  0
 86 60  1  0
 86 87  1  0
 86 96  1  0
 87 90  1  0
 88 87  1  0
 88 92  1  0
 89 88  2  0
 92 91  1  0
 92 94  1  0
 94 95  1  0
 94 93  1  0
 96 99  1  1
 96 97  1  0
 98 96  1  0
M  ISO  4   1 100  16 100  58 101  59 101
M  END
>  <TORSDO>  (20) 
F 22

>  <SCORE>  (20) 
-10.107

>  <name>  (20) 
19

>  <ligand_id>  (20) 
19

>  <original_smiles>  (20) 
[H]OC([H])(C([H])([H])N([H])c1nc(N([H])C(=O)N2C([H])([H])C([H])([H])C([H])([H])C([H])(n3nc(-c4c([H])c([H])c(Oc5c([H])c([H])c(F)c([H])c5F)c([H])c4[H])c(C(=O)N([H])[H])c3N([H])[H])C2([H])[H])nc(C([H])([H])C([H])([H])[H])c1C(F)(C([H])([H])[H])C([H])([H])[H])C([H])([H])C([H])([H])Oc1c([H])c([H])c2c(c1[H])C([H])([H])N(C(=O)C([H])(N([H])C(=O)C([H])(N([H])C([H])([H])[H])C([H])([H])[H])C(C([H])([H])[H])(C([H])([H])[H])C([H])([H])[H])C([H])(C(=O)N([H])C1([H])c3c([H])c([H])c([H])c([H])c3C([H])([H])C([H])([H])C1([H])[H])C2([H])[H]

>  <smiles>  (20) 
[H]OC([H])(C([H])([H])N([H])c1nc(N([H])C(=O)N2C([H])([H])C([H])([H])C([H])([H])C([H])(n3nc(-c4c([H])c([H])c(Oc5c([H])c([H])c(F)c([H])c5F)c([H])c4[H])c(C(=O)N([H])[H])c3N([H])[H])C2([H])[H])nc(C([H])([H])C([H])([H])[H])c1C(F)(C([H])([H])[H])C([H])([H])[H])C([H])([H])C([H])([H])Oc1c([H])c([H])c2c(c1[H])C([H])([H])N(C(=O)C([H])(N([H])C(=O)C([H])(N([H])C([H])([H])[H])C([H])([H])[H])C(C([H])([H])[H])(C([H])([H])[H])C([H])([H])[H])C([H])(C(=O)N([H])C1([H])c3c([H])c([H])c([H])c([H])c3C([H])([H])C([H])([H])C1([H])[H])C2([H])[H]

$$$$
20:0:0
     RDKit          3D

 94102  0  0  1  0  0  0  0  0999 V2000
  -31.4610  -22.2370   19.2520 C   0  0  0  0  0  1  0  0  0  0  0  0
  -30.5810  -21.8370   20.4460 C   0  0  0  0  0  3  0  0  0  0  0  0
  -32.0500  -17.1890   20.3310 C   0  0  0  0  0  3  0  0  0  0  0  0
  -30.7170  -16.9090   20.1520 C   0  0  0  0  0  0  0  0  0  0  0  0
  -30.6370  -19.1990   20.1910 C   0  0  0  0  0  0  0  0  0  0  0  0
  -29.9250  -18.0730   20.0500 N   0  0  0  0  0  0  0  0  0  0  0  0
  -30.0680  -20.4740   20.2560 N   0  0  0  0  0  0  0  0  0  0  0  0
  -32.3640  -18.9070   20.3720 S   0  0  0  0  0  0  0  0  0  0  0  0
  -29.0590  -20.4370   20.1710 H   0  0  0  0  0  0  0  0  0  0  0  0
  -30.6470  -14.5300   19.5150 C   0  0  0  0  0  0  0  0  0  0  0  0
  -30.1600  -12.5020   18.1550 C   0  0  0  0  0  2  0  0  0  0  0  0
  -29.0220  -12.8010   17.1500 C   0  0  0  0  0  2  0  0  0  0  0  0
  -27.6350  -12.5820   17.7940 C   0  0  0  0  0  2  0  0  0  0  0  0
  -27.5230  -13.2570   19.1860 C   0  0  0  0  0  3  0  0  0  0  0  0
  -28.7450  -12.8570   20.0380 C   0  0  0  0  0  2  0  0  0  0  0  0
  -29.9430  -13.3560   19.3510 N   0  0  0  0  0  0  0  0  0  0  0  0
  -31.6630  -14.7030   18.8270 O   0  0  0  0  0  0  0  0  0  0  0  0
  -30.1640  -15.5810   20.2890 N   0  0  0  0  0  0  0  0  0  0  0  0
  -25.2570  -13.7770   20.2920 C   0  0  0  0  0  0  0  0  0  0  0  0
  -24.2780  -12.9630   20.7880 C   0  0  0  0  0  0  0  0  0  0  0  0
  -24.7490  -11.6240   20.6130 C   0  0  0  0  0  0  0  0  0  0  0  0
  -26.2670  -12.9330   19.8520 N   0  0  0  0  0  0  0  0  0  0  0  0
  -25.9720  -11.6310   20.0990 N   0  0  0  0  0  0  0  0  0  0  0  0
  -24.0840  -10.3370   20.8470 C   0  0  0  0  0  0  0  0  0  0  0  0
  -24.5790   -9.4110   21.7900 C   0  0  0  0  0  3  0  0  0  0  0  0
  -23.9080   -8.1900   22.0120 C   0  0  0  0  0  3  0  0  0  0  0  0
  -22.7310   -7.8820   21.2870 C   0  0  0  0  0  0  0  0  0  0  0  0
  -22.2560   -8.7990   20.3340 C   0  0  0  0  0  3  0  0  0  0  0  0
  -22.9280  -10.0130   20.1110 C   0  0  0  0  0  3  0  0  0  0  0  0
  -22.0340   -6.7050   21.4140 O   0  0  0  0  0  0  0  0  0  0  0  0
  -21.9350   -6.0540   22.6160 C   0  0  0  0  0  0  0  0  0  0  0  0
  -21.3870   -6.6780   23.7590 C   0  0  0  0  0  3  0  0  0  0  0  0
  -21.2370   -5.9480   24.9550 C   0  0  0  0  0  3  0  0  0  0  0  0
  -21.6310   -4.5990   25.0110 C   0  0  0  0  0  0  0  0  0  0  0  0
  -22.1760   -3.9750   23.8750 C   0  0  0  0  0  3  0  0  0  0  0  0
  -22.3260   -4.7010   22.6820 C   0  0  0  0  0  0  0  0  0  0  0  0
  -22.8290   -4.0910   21.5800 F   0  0  0  0  0  0  0  0  0  0  0  0
  -21.4840   -3.8940   26.1580 F   0  0  0  0  0  0  0  0  0  0  0  0
  -22.9330  -13.3890   21.3060 C   0  0  0  0  0  0  0  0  0  0  0  0
  -22.3900  -12.6640   22.2760 N   0  0  0  0  0  0  0  0  0  0  0  0
  -22.3810  -14.4070   20.8890 O   0  0  0  0  0  0  0  0  0  0  0  0
  -22.8510  -11.8420   22.6410 H   0  0  0  0  0  0  0  0  0  0  0  0
  -21.4990  -12.9380   22.6640 H   0  0  0  0  0  0  0  0  0  0  0  0
  -25.3590  -15.1600   20.1570 N   0  0  0  0  0  0  0  0  0  0  0  0
  -24.5910  -15.7750   20.4060 H   0  0  0  0  0  0  0  0  0  0  0  0
  -26.1110  -15.6470   19.6880 H   0  0  0  0  0  0  0  0  0  0  0  0
  -29.6220  -14.8340   22.6550 C   0  0  0  0  0  1  0  0  0  0  0  0
  -29.1470  -15.5480   21.3700 C   0  0  0  0  0  2  0  0  0  0  0  0
  -29.4140  -22.8450   20.7030 C   0  0  0  0  0  2  0  0  0  0  0  0
  -29.6980  -24.3770   20.5400 C   0  0  0  0  0  3  0  0  0  0  0  0
  -30.4920  -24.8100   21.6370 O   0  0  0  0  0  0  0  0  0  0  0  0
  -29.9750  -24.7370   22.4330 H   0  0  0  0  0  0  0  0  0  0  0  0
  -28.3810  -25.2010   20.4700 C   0  0  0  0  0  2  0  0  0  0  0  0
  -28.5570  -26.6280   20.3210 O   0  0  0  0  0  0  0  0  0  0  0  0
  -24.5920  -31.8050   23.2090 C   0  0  0  0  0  0  0  0  0  0  0  0
  -27.3950  -27.3770   20.2410 C   0  0  0  0  0  0  0  0  0  0  0  0
  -23.4740  -30.4130   21.4960 C   0  0  0  0  0  3  0  0  0  0  0  0
  -24.9980  -28.8900   20.1350 C   0  0  0  0  0  0  0  0  0  0  0  0
  -26.0030  -30.7800   21.4200 C   0  0  0  0  0  2  0  0  0  0  0  0
  -26.1230  -29.4090   20.7840 C   0  0  0  0  0  0  0  0  0  0  0  0
  -27.3240  -28.6620   20.8370 C   0  0  0  0  0  3  0  0  0  0  0  0
  -26.2490  -26.8850   19.5720 C   0  0  0  0  0  3  0  0  0  0  0  0
  -25.0590  -27.6270   19.5230 C   0  0  0  0  0  3  0  0  0  0  0  0
  -23.7510  -29.7410   20.1240 C   0  0  0  0  0  2  0  0  0  0  0  0
  -24.7070  -31.0120   22.1040 N   0  0  0  0  0  0  0  0  0  0  0  0
  -23.4840  -32.0700   23.6940 O   0  0  0  0  0  0  0  0  0  0  0  0
  -22.7740  -29.3860   22.4160 C   0  0  0  0  0  0  0  0  0  0  0  0
  -21.4480  -29.2410   22.2590 N   0  0  0  0  0  0  0  0  0  0  0  0
  -23.4240  -28.7230   23.2300 O   0  0  0  0  0  0  0  0  0  0  0  0
  -20.9880  -29.8290   21.5780 H   0  0  0  0  0  0  0  0  0  0  0  0
  -18.0160  -28.2230   22.7740 C   0  0  0  0  0  0  0  0  0  0  0  0
  -20.5910  -28.3010   22.9840 C   0  0  0  0  0  3  0  0  0  0  0  0
  -20.5860  -26.9110   22.3060 C   0  0  0  0  0  2  0  0  0  0  0  0
  -19.4360  -26.7330   21.3060 C   0  0  0  0  0  2  0  0  0  0  0  0
  -18.0850  -26.9190   21.9990 C   0  0  0  0  0  2  0  0  0  0  0  0
  -19.1920  -28.8800   23.2220 C   0  0  0  0  0  0  0  0  0  0  0  0
  -19.0710  -30.1090   23.9070 C   0  0  0  0  0  3  0  0  0  0  0  0
  -17.8050  -30.6800   24.1440 C   0  0  0  0  0  3  0  0  0  0  0  0
  -16.6440  -30.0180   23.7090 C   0  0  0  0  0  3  0  0  0  0  0  0
  -16.7500  -28.7900   23.0310 C   0  0  0  0  0  3  0  0  0  0  0  0
  -25.8450  -32.4310   23.8980 C   0  0  0  0  0  3  0  0  0  0  0  0
  -25.5240  -33.8280   24.2190 N   0  0  0  0  0  0  0  0  0  0  0  0
  -25.8460  -34.8750   23.4470 C   0  0  0  0  0  0  0  0  0  0  0  0
  -26.5160  -34.7680   22.4180 O   0  0  0  0  0  0  0  0  0  0  0  0
  -24.9370  -33.9860   25.0250 H   0  0  0  0  0  0  0  0  0  0  0  0
  -24.0740  -36.6210   23.0970 C   0  0  0  0  0  1  0  0  0  0  0  0
  -25.3420  -36.2620   23.8880 C   0  0  0  0  0  3  0  0  0  0  0  0
  -27.4730  -37.2060   24.6570 C   0  0  0  0  0  1  0  0  0  0  0  0
  -26.3520  -37.3320   23.7300 N   0  0  0  0  0  0  0  0  0  0  0  0
  -25.9290  -38.2480   23.8660 H   0  0  0  0  0  0  0  0  0  0  0  0
  -26.2930  -31.6530   25.1950 C   0  0  1  0  0  0  0  0  0  0  0  0
  -25.1460  -31.4040   26.2010 C   0  0  0  0  0  1  0  0  0  0  0  0
  -26.9070  -30.2840   24.8230 C   0  0  0  0  0  1  0  0  0  0  0  0
  -27.4070  -32.4470   25.9210 C   0  0  0  0  0  1  0  0  0  0  0  0
  2  1  1  0
  2 49  1  0
  3  8  1  0
  4 18  1  0
  4  3  2  0
  5  7  1  0
  5  8  1  0
  6  4  1  0
  6  5  2  0
  7  2  1  0
  9  7  1  0
 10 18  1  0
 11 16  1  0
 12 13  1  0
 12 11  1  0
 14 13  1  0
 14 22  1  0
 14 15  1  0
 16 10  1  0
 16 15  1  0
 17 10  2  0
 18 48  1  0
 19 20  2  0
 20 39  1  0
 21 20  1  0
 21 24  1  0
 22 23  1  0
 22 19  1  0
 23 21  2  0
 24 25  1  0
 25 26  2  0
 27 30  1  0
 27 26  1  0
 28 27  2  0
 29 28  1  0
 29 24  2  0
 30 31  1  0
 31 36  2  0
 31 32  1  0
 32 33  2  0
 33 34  1  0
 34 38  1  0
 35 34  2  0
 36 35  1  0
 37 36  1  0
 39 40  1  0
 40 42  1  0
 40 43  1  0
 41 39  2  0
 44 19  1  0
 44 45  1  0
 46 44  1  0
 48 47  1  0
 50 53  1  0
 50 49  1  0
 50 51  1  0
 51 52  1  0
 54 53  1  0
 55 66  2  0
 56 54  1  0
 56 61  1  0
 57 65  1  0
 57 67  1  0
 58 60  1  0
 59 65  1  0
 60 61  2  0
 60 59  1  0
 62 56  2  0
 63 62  1  0
 63 58  2  0
 64 58  1  0
 64 57  1  0
 65 55  1  0
 67 69  2  0
 68 67  1  0
 70 68  1  0
 71 80  2  0
 71 76  1  0
 72 68  1  0
 72 76  1  0
 73 72  1  0
 74 75  1  0
 74 73  1  0
 75 71  1  0
 76 77  2  0
 77 78  1  0
 79 78  2  0
 80 79  1  0
 81 55  1  0
 81 82  1  0
 81 91  1  0
 82 85  1  0
 83 87  1  0
 83 82  1  0
 84 83  2  0
 87 86  1  0
 89 90  1  0
 89 87  1  0
 89 88  1  0
 91 94  1  1
 91 92  1  0
 93 91  1  0
M  ISO  4  10 100  18 100  53 101  54 101
M  END
>  <TORSDO>  (21) 
F 22

>  <SCORE>  (21) 
-9.126

>  <name>  (21) 
20

>  <ligand_id>  (21) 
20

>  <original_smiles>  (21) 
[H]OC([H])(C([H])([H])Oc1c([H])c([H])c2c(c1[H])C([H])([H])N(C(=O)C([H])(N([H])C(=O)C([H])(N([H])C([H])([H])[H])C([H])([H])[H])C(C([H])([H])[H])(C([H])([H])[H])C([H])([H])[H])C([H])(C(=O)N([H])C1([H])c3c([H])c([H])c([H])c([H])c3C([H])([H])C([H])([H])C1([H])[H])C2([H])[H])C([H])([H])C([H])(N([H])c1nc(N(C(=O)N2C([H])([H])C([H])([H])C([H])([H])C([H])(n3nc(-c4c([H])c([H])c(Oc5c([H])c([H])c(F)c([H])c5F)c([H])c4[H])c(C(=O)N([H])[H])c3N([H])[H])C2([H])[H])C([H])([H])C([H])([H])[H])c([H])s1)C([H])([H])[H]

>  <smiles>  (21) 
[H]OC([H])(C([H])([H])Oc1c([H])c([H])c2c(c1[H])C([H])([H])N(C(=O)C([H])(N([H])C(=O)C([H])(N([H])C([H])([H])[H])C([H])([H])[H])C(C([H])([H])[H])(C([H])([H])[H])C([H])([H])[H])C([H])(C(=O)N([H])C1([H])c3c([H])c([H])c([H])c([H])c3C([H])([H])C([H])([H])C1([H])[H])C2([H])[H])C([H])([H])C([H])(N([H])c1nc(N(C(=O)N2C([H])([H])C([H])([H])C([H])([H])C([H])(n3nc(-c4c([H])c([H])c(Oc5c([H])c([H])c(F)c([H])c5F)c([H])c4[H])c(C(=O)N([H])[H])c3N([H])[H])C2([H])[H])C([H])([H])C([H])([H])[H])c([H])s1)C([H])([H])[H]

$$$$
21:0:0
     RDKit          3D

 90 98  0  0  1  0  0  0  0  0999 V2000
  -28.5140  -18.8930   20.7600 C   0  0  0  0  0  3  0  0  0  0  0  0
  -29.8050  -18.7180   20.3070 C   0  0  0  0  0  0  0  0  0  0  0  0
  -28.9580  -21.1670   20.4480 C   0  0  0  0  0  0  0  0  0  0  0  0
  -28.0680  -20.2410   20.8310 N   0  0  0  0  0  0  0  0  0  0  0  0
  -28.6470  -22.5710   20.4810 N   0  0  0  0  0  0  0  0  0  0  0  0
  -30.4700  -20.3490   19.9460 S   0  0  0  0  0  0  0  0  0  0  0  0
  -27.6990  -22.6750   20.8260 H   0  0  0  0  0  0  0  0  0  0  0  0
  -30.6680  -17.4180   20.1440 C   0  0  0  0  0  2  0  0  0  0  0  0
  -30.8320  -14.8580   20.0120 C   0  0  0  0  0  0  0  0  0  0  0  0
  -30.5420  -12.6320   18.9410 C   0  0  0  0  0  2  0  0  0  0  0  0
  -29.5530  -12.7490   17.7630 C   0  0  0  0  0  2  0  0  0  0  0  0
  -28.1020  -12.5800   18.2530 C   0  0  0  0  0  2  0  0  0  0  0  0
  -27.7900  -13.4350   19.5120 C   0  0  0  0  0  3  0  0  0  0  0  0
  -28.8960  -13.3070   20.5810 C   0  0  0  0  0  2  0  0  0  0  0  0
  -30.1690  -13.6580   19.9390 N   0  0  0  0  0  0  0  0  0  0  0  0
  -32.0000  -14.9430   19.6260 O   0  0  0  0  0  0  0  0  0  0  0  0
  -30.1240  -16.0070   20.2980 N   0  0  0  0  0  0  0  0  0  0  0  0
  -29.1550  -15.8980   20.5550 H   0  0  0  0  0  0  0  0  0  0  0  0
  -25.4300  -14.0080   20.3410 C   0  0  0  0  0  0  0  0  0  0  0  0
  -24.3820  -13.2260   20.7420 C   0  0  0  0  0  0  0  0  0  0  0  0
  -24.8480  -11.8760   20.6730 C   0  0  0  0  0  0  0  0  0  0  0  0
  -26.4660  -13.1370   20.0520 N   0  0  0  0  0  0  0  0  0  0  0  0
  -26.1250  -11.8480   20.3130 N   0  0  0  0  0  0  0  0  0  0  0  0
  -24.1340  -10.6090   20.8730 C   0  0  0  0  0  0  0  0  0  0  0  0
  -24.5480   -9.6730   21.8470 C   0  0  0  0  0  3  0  0  0  0  0  0
  -23.8320   -8.4710   22.0330 C   0  0  0  0  0  3  0  0  0  0  0  0
  -22.6910   -8.1930   21.2430 C   0  0  0  0  0  0  0  0  0  0  0  0
  -22.2990   -9.1160   20.2570 C   0  0  0  0  0  3  0  0  0  0  0  0
  -23.0150  -10.3110   20.0710 C   0  0  0  0  0  3  0  0  0  0  0  0
  -21.9500   -7.0390   21.3360 O   0  0  0  0  0  0  0  0  0  0  0  0
  -21.7980   -6.3750   22.5270 C   0  0  0  0  0  0  0  0  0  0  0  0
  -21.1660   -6.9730   23.6380 C   0  0  0  0  0  3  0  0  0  0  0  0
  -20.9680   -6.2290   24.8190 C   0  0  0  0  0  3  0  0  0  0  0  0
  -21.3940   -4.8900   24.8890 C   0  0  0  0  0  0  0  0  0  0  0  0
  -22.0200   -4.2920   23.7820 C   0  0  0  0  0  3  0  0  0  0  0  0
  -22.2190   -5.0320   22.6030 C   0  0  0  0  0  0  0  0  0  0  0  0
  -22.8020   -4.4420   21.5320 F   0  0  0  0  0  0  0  0  0  0  0  0
  -21.1970   -4.1750   26.0220 F   0  0  0  0  0  0  0  0  0  0  0  0
  -22.9950  -13.6910   21.0740 C   0  0  0  0  0  0  0  0  0  0  0  0
  -22.2960  -12.9720   21.9440 N   0  0  0  0  0  0  0  0  0  0  0  0
  -22.5390  -14.7300   20.5960 O   0  0  0  0  0  0  0  0  0  0  0  0
  -22.6790  -12.1330   22.3560 H   0  0  0  0  0  0  0  0  0  0  0  0
  -21.3660  -13.2640   22.2050 H   0  0  0  0  0  0  0  0  0  0  0  0
  -25.5800  -15.3830   20.1720 N   0  0  0  0  0  0  0  0  0  0  0  0
  -24.8110  -16.0290   20.3210 H   0  0  0  0  0  0  0  0  0  0  0  0
  -26.3890  -15.8260   19.7580 H   0  0  0  0  0  0  0  0  0  0  0  0
  -29.1910  -23.9440   20.1810 C   0  0  0  0  0  2  0  0  0  0  0  0
  -28.2930  -25.2400   22.2110 C   0  0  0  0  0  1  0  0  0  0  0  0
  -28.2780  -25.1790   20.6750 C   0  0  0  0  0  3  0  0  0  0  0  0
  -28.5390  -26.5820   20.2220 O   0  0  0  0  0  0  0  0  0  0  0  0
  -24.6780  -31.8820   23.3020 C   0  0  0  0  0  0  0  0  0  0  0  0
  -27.4380  -27.4590   20.1720 C   0  0  0  0  0  0  0  0  0  0  0  0
  -23.5450  -30.5330   21.5720 C   0  0  0  0  0  3  0  0  0  0  0  0
  -25.0620  -29.0580   20.1330 C   0  0  0  0  0  0  0  0  0  0  0  0
  -26.0850  -30.8840   21.4850 C   0  0  0  0  0  2  0  0  0  0  0  0
  -26.2040  -29.5300   20.7930 C   0  0  0  0  0  0  0  0  0  0  0  0
  -27.3980  -28.7430   20.8040 C   0  0  0  0  0  3  0  0  0  0  0  0
  -26.2830  -27.0580   19.4650 C   0  0  0  0  0  3  0  0  0  0  0  0
  -25.1070  -27.8290   19.4550 C   0  0  0  0  0  3  0  0  0  0  0  0
  -23.8130  -29.9140   20.1760 C   0  0  0  0  0  2  0  0  0  0  0  0
  -24.7860  -31.1170   22.1780 N   0  0  0  0  0  0  0  0  0  0  0  0
  -23.5750  -32.1290   23.8120 O   0  0  0  0  0  0  0  0  0  0  0  0
  -22.8650  -29.4740   22.4730 C   0  0  0  0  0  0  0  0  0  0  0  0
  -21.5400  -29.3100   22.3200 N   0  0  0  0  0  0  0  0  0  0  0  0
  -23.5290  -28.8040   23.2680 O   0  0  0  0  0  0  0  0  0  0  0  0
  -21.0640  -29.9050   21.6570 H   0  0  0  0  0  0  0  0  0  0  0  0
  -18.1380  -28.1660   22.7810 C   0  0  0  0  0  0  0  0  0  0  0  0
  -20.7050  -28.3400   23.0320 C   0  0  0  0  0  3  0  0  0  0  0  0
  -20.7610  -26.9520   22.3530 C   0  0  0  0  0  2  0  0  0  0  0  0
  -19.6390  -26.7330   21.3330 C   0  0  0  0  0  2  0  0  0  0  0  0
  -18.2690  -26.8660   22.0060 C   0  0  0  0  0  2  0  0  0  0  0  0
  -19.2810  -28.8670   23.2480 C   0  0  0  0  0  0  0  0  0  0  0  0
  -19.1040  -30.0880   23.9330 C   0  0  0  0  0  3  0  0  0  0  0  0
  -17.8150  -30.6090   24.1530 C   0  0  0  0  0  3  0  0  0  0  0  0
  -16.6860  -29.9060   23.6990 C   0  0  0  0  0  3  0  0  0  0  0  0
  -16.8470  -28.6850   23.0200 C   0  0  0  0  0  3  0  0  0  0  0  0
  -25.9320  -32.5050   23.9900 C   0  0  0  0  0  3  0  0  0  0  0  0
  -26.3800  -31.7260   25.2870 C   0  0  1  0  0  0  0  0  0  0  0  0
  -25.2300  -31.4780   26.2920 C   0  0  0  0  0  1  0  0  0  0  0  0
  -26.9870  -30.3520   24.9180 C   0  0  0  0  0  1  0  0  0  0  0  0
  -27.4920  -32.5180   26.0140 C   0  0  0  0  0  1  0  0  0  0  0  0
  -25.6150  -33.9040   24.3110 N   0  0  0  0  0  0  0  0  0  0  0  0
  -25.9860  -34.9570   23.5710 C   0  0  0  0  0  0  0  0  0  0  0  0
  -26.7000  -34.8540   22.5700 O   0  0  0  0  0  0  0  0  0  0  0  0
  -24.9860  -34.0590   25.0840 H   0  0  0  0  0  0  0  0  0  0  0  0
  -24.2990  -36.7720   23.1320 C   0  0  0  0  0  1  0  0  0  0  0  0
  -25.4870  -36.3470   24.0110 C   0  0  0  0  0  3  0  0  0  0  0  0
  -27.5660  -37.2140   24.9880 C   0  0  0  0  0  1  0  0  0  0  0  0
  -26.5350  -37.3900   23.9680 N   0  0  0  0  0  0  0  0  0  0  0  0
  -26.1290  -38.3140   24.0840 H   0  0  0  0  0  0  0  0  0  0  0  0
  1  4  1  0
  2  1  2  0
  3  5  1  0
  3  4  2  0
  5  7  1  0
  6  2  1  0
  6  3  1  0
  8 17  1  0
  8  2  1  0
  9 17  1  0
 10 15  1  0
 11 12  1  0
 11 10  1  0
 13 12  1  0
 13 22  1  0
 13 14  1  0
 15  9  1  0
 15 14  1  0
 16  9  2  0
 17 18  1  0
 19 20  2  0
 20 39  1  0
 21 20  1  0
 21 24  1  0
 22 23  1  0
 22 19  1  0
 23 21  2  0
 24 25  1  0
 25 26  2  0
 27 30  1  0
 27 26  1  0
 28 27  2  0
 29 28  1  0
 29 24  2  0
 30 31  1  0
 31 36  2  0
 31 32  1  0
 32 33  2  0
 33 34  1  0
 34 38  1  0
 35 34  2  0
 36 35  1  0
 37 36  1  0
 39 40  1  0
 40 43  1  0
 40 42  1  0
 41 39  2  0
 44 45  1  0
 44 19  1  0
 46 44  1  0
 47  5  1  0
 47 49  1  0
 49 48  1  0
 50 49  1  0
 51 62  2  0
 52 50  1  0
 52 57  1  0
 53 61  1  0
 53 63  1  0
 54 60  1  0
 54 56  1  0
 55 61  1  0
 56 57  2  0
 56 55  1  0
 58 52  2  0
 59 58  1  0
 59 54  2  0
 60 53  1  0
 61 51  1  0
 63 65  2  0
 64 63  1  0
 66 64  1  0
 67 76  2  0
 67 72  1  0
 68 64  1  0
 68 72  1  0
 69 68  1  0
 70 71  1  0
 70 69  1  0
 71 67  1  0
 72 73  2  0
 73 74  1  0
 75 74  2  0
 76 75  1  0
 77 51  1  0
 77 82  1  0
 77 78  1  0
 78 81  1  1
 78 79  1  0
 80 78  1  0
 82 85  1  0
 83 87  1  0
 83 82  1  0
 84 83  2  0
 87 86  1  0
 89 87  1  0
 89 90  1  0
 89 88  1  0
M  ISO  4   9 100  17 100  49 101  50 101
M  END
>  <TORSDO>  (22) 
F 19

>  <SCORE>  (22) 
-13.612

>  <name>  (22) 
21

>  <ligand_id>  (22) 
21

>  <original_smiles>  (22) 
[H]c1nc(N([H])C([H])([H])C([H])(Oc2c([H])c([H])c3c(c2[H])C([H])([H])N(C(=O)C([H])(N([H])C(=O)C([H])(N([H])C([H])([H])[H])C([H])([H])[H])C(C([H])([H])[H])(C([H])([H])[H])C([H])([H])[H])C([H])(C(=O)N([H])C2([H])c4c([H])c([H])c([H])c([H])c4C([H])([H])C([H])([H])C2([H])[H])C3([H])[H])C([H])([H])[H])sc1C([H])([H])N([H])C(=O)N1C([H])([H])C([H])([H])C([H])([H])C([H])(n2nc(-c3c([H])c([H])c(Oc4c([H])c([H])c(F)c([H])c4F)c([H])c3[H])c(C(=O)N([H])[H])c2N([H])[H])C1([H])[H]

>  <smiles>  (22) 
[H]c1nc(N([H])C([H])([H])C([H])(Oc2c([H])c([H])c3c(c2[H])C([H])([H])N(C(=O)C([H])(N([H])C(=O)C([H])(N([H])C([H])([H])[H])C([H])([H])[H])C(C([H])([H])[H])(C([H])([H])[H])C([H])([H])[H])C([H])(C(=O)N([H])C2([H])c4c([H])c([H])c([H])c([H])c4C([H])([H])C([H])([H])C2([H])[H])C3([H])[H])C([H])([H])[H])sc1C([H])([H])N([H])C(=O)N1C([H])([H])C([H])([H])C([H])([H])C([H])(n2nc(-c3c([H])c([H])c(Oc4c([H])c([H])c(F)c([H])c4F)c([H])c3[H])c(C(=O)N([H])[H])c2N([H])[H])C1([H])[H]

$$$$
22:0:0
     RDKit          3D

 93101  0  0  1  0  0  0  0  0999 V2000
  -30.5440  -17.1110   18.6640 C   0  0  0  0  0  3  0  0  0  0  0  0
  -30.4190  -17.9790   17.5820 C   0  0  0  0  0  3  0  0  0  0  0  0
  -30.3320  -17.6430   19.9510 C   0  0  0  0  0  0  0  0  0  0  0  0
  -29.9040  -19.6690   19.0060 C   0  0  0  0  0  0  0  0  0  0  0  0
  -30.1270  -19.2770   17.7670 N   0  0  0  0  0  0  0  0  0  0  0  0
  -29.9800  -18.9370   20.1060 N   0  0  0  0  0  0  0  0  0  0  0  0
  -29.6730  -21.0120   19.0870 N   0  0  0  0  0  0  0  0  0  0  0  0
  -29.9590  -21.4870   18.2370 H   0  0  0  0  0  0  0  0  0  0  0  0
  -27.2990  -21.1020   19.9800 C   0  0  0  0  0  1  0  0  0  0  0  0
  -28.7090  -21.7680   19.8890 C   0  0  0  0  0  3  0  0  0  0  0  0
  -28.6390  -23.1580   19.2150 C   0  0  0  0  0  2  0  0  0  0  0  0
  -28.2900  -24.3550   20.1170 C   0  0  0  0  0  2  0  0  0  0  0  0
  -28.7210  -25.6750   19.4390 C   0  0  0  0  0  2  0  0  0  0  0  0
  -28.5700  -26.8210   20.2790 O   0  0  0  0  0  0  0  0  0  0  0  0
  -24.6470  -31.9240   23.2920 C   0  0  0  0  0  0  0  0  0  0  0  0
  -27.3700  -27.4960   20.2670 C   0  0  0  0  0  0  0  0  0  0  0  0
  -23.4820  -30.5020   21.6390 C   0  0  0  0  0  3  0  0  0  0  0  0
  -24.9630  -28.9740   20.2480 C   0  0  0  0  0  0  0  0  0  0  0  0
  -26.0040  -30.8910   21.4720 C   0  0  0  0  0  2  0  0  0  0  0  0
  -26.1070  -29.5130   20.8470 C   0  0  0  0  0  0  0  0  0  0  0  0
  -27.3090  -28.7750   20.8610 C   0  0  0  0  0  3  0  0  0  0  0  0
  -26.1940  -26.9620   19.6770 C   0  0  0  0  0  3  0  0  0  0  0  0
  -25.0000  -27.6980   19.6600 C   0  0  0  0  0  3  0  0  0  0  0  0
  -23.7150  -29.8240   20.2640 C   0  0  0  0  0  2  0  0  0  0  0  0
  -24.7290  -31.1240   22.1920 N   0  0  0  0  0  0  0  0  0  0  0  0
  -23.5570  -32.1840   23.8170 O   0  0  0  0  0  0  0  0  0  0  0  0
  -22.8330  -29.4760   22.5980 C   0  0  0  0  0  0  0  0  0  0  0  0
  -21.5090  -29.2900   22.4650 N   0  0  0  0  0  0  0  0  0  0  0  0
  -23.5140  -28.8570   23.4170 O   0  0  0  0  0  0  0  0  0  0  0  0
  -21.0180  -29.8570   21.7890 H   0  0  0  0  0  0  0  0  0  0  0  0
  -18.1330  -28.0900   22.9430 C   0  0  0  0  0  0  0  0  0  0  0  0
  -20.6890  -28.3470   23.2280 C   0  0  0  0  0  3  0  0  0  0  0  0
  -20.7920  -26.9180   22.6470 C   0  0  0  0  0  2  0  0  0  0  0  0
  -19.6930  -26.5990   21.6270 C   0  0  0  0  0  2  0  0  0  0  0  0
  -18.3120  -26.7430   22.2670 C   0  0  0  0  0  2  0  0  0  0  0  0
  -19.2490  -28.8500   23.3810 C   0  0  0  0  0  0  0  0  0  0  0  0
  -19.0280  -30.1120   23.9730 C   0  0  0  0  0  3  0  0  0  0  0  0
  -17.7210  -30.6140   24.1310 C   0  0  0  0  0  3  0  0  0  0  0  0
  -16.6200  -29.8520   23.7080 C   0  0  0  0  0  3  0  0  0  0  0  0
  -16.8250  -28.5910   23.1210 C   0  0  0  0  0  3  0  0  0  0  0  0
  -25.9170  -32.5750   23.9290 C   0  0  0  0  0  3  0  0  0  0  0  0
  -25.5930  -33.9770   24.2290 N   0  0  0  0  0  0  0  0  0  0  0  0
  -25.9300  -35.0170   23.4570 C   0  0  0  0  0  0  0  0  0  0  0  0
  -26.6190  -34.8990   22.4410 O   0  0  0  0  0  0  0  0  0  0  0  0
  -24.9910  -34.1420   25.0230 H   0  0  0  0  0  0  0  0  0  0  0  0
  -24.1970  -36.7900   23.0310 C   0  0  0  0  0  1  0  0  0  0  0  0
  -25.4200  -36.4090   23.8790 C   0  0  0  0  0  3  0  0  0  0  0  0
  -27.5310  -37.3240   24.7400 C   0  0  0  0  0  1  0  0  0  0  0  0
  -26.4450  -37.4690   23.7710 N   0  0  0  0  0  0  0  0  0  0  0  0
  -26.0300  -38.3890   23.8930 H   0  0  0  0  0  0  0  0  0  0  0  0
  -26.4120  -31.8300   25.2300 C   0  0  1  0  0  0  0  0  0  0  0  0
  -25.3030  -31.6030   26.2820 C   0  0  0  0  0  1  0  0  0  0  0  0
  -27.0030  -30.4490   24.8700 C   0  0  0  0  0  1  0  0  0  0  0  0
  -27.5420  -32.6410   25.9070 C   0  0  0  0  0  1  0  0  0  0  0  0
  -30.5020  -16.8190   21.2270 C   0  0  0  0  0  2  0  0  0  0  0  0
  -30.7650  -14.4270   20.5910 C   0  0  0  0  0  0  0  0  0  0  0  0
  -30.4620  -12.3180   19.3730 C   0  0  0  0  0  2  0  0  0  0  0  0
  -29.5630  -12.6030   18.1560 C   0  0  0  0  0  2  0  0  0  0  0  0
  -28.0690  -12.4990   18.5270 C   0  0  0  0  0  2  0  0  0  0  0  0
  -27.7130  -13.2730   19.8270 C   0  0  0  0  0  3  0  0  0  0  0  0
  -28.7340  -12.9820   20.9480 C   0  0  0  0  0  2  0  0  0  0  0  0
  -30.0780  -13.2720   20.4210 N   0  0  0  0  0  0  0  0  0  0  0  0
  -31.9080  -14.6050   20.1680 O   0  0  0  0  0  0  0  0  0  0  0  0
  -30.0510  -15.4350   21.1100 N   0  0  0  0  0  0  0  0  0  0  0  0
  -29.1030  -15.2440   21.3890 H   0  0  0  0  0  0  0  0  0  0  0  0
  -25.2920  -13.8900   20.4490 C   0  0  0  0  0  0  0  0  0  0  0  0
  -24.2130  -13.1270   20.8040 C   0  0  0  0  0  0  0  0  0  0  0  0
  -24.6740  -11.7750   20.8050 C   0  0  0  0  0  0  0  0  0  0  0  0
  -26.3430  -13.0050   20.2630 N   0  0  0  0  0  0  0  0  0  0  0  0
  -25.9690  -11.7270   20.5260 N   0  0  0  0  0  0  0  0  0  0  0  0
  -23.9370  -10.5190   20.9990 C   0  0  0  0  0  0  0  0  0  0  0  0
  -24.3530   -9.5640   21.9520 C   0  0  0  0  0  3  0  0  0  0  0  0
  -23.6260   -8.3690   22.1340 C   0  0  0  0  0  3  0  0  0  0  0  0
  -22.4680   -8.1210   21.3590 C   0  0  0  0  0  0  0  0  0  0  0  0
  -22.0740   -9.0630   20.3930 C   0  0  0  0  0  3  0  0  0  0  0  0
  -22.8010  -10.2490   20.2110 C   0  0  0  0  0  3  0  0  0  0  0  0
  -21.7080   -6.9810   21.4470 O   0  0  0  0  0  0  0  0  0  0  0  0
  -21.6350   -6.2500   22.6060 C   0  0  0  0  0  0  0  0  0  0  0  0
  -21.1940   -6.8180   23.8200 C   0  0  0  0  0  3  0  0  0  0  0  0
  -21.0730   -6.0120   24.9710 C   0  0  0  0  0  3  0  0  0  0  0  0
  -21.3780   -4.6390   24.9060 C   0  0  0  0  0  0  0  0  0  0  0  0
  -21.8060   -4.0710   23.6910 C   0  0  0  0  0  3  0  0  0  0  0  0
  -21.9300   -4.8740   22.5460 C   0  0  0  0  0  0  0  0  0  0  0  0
  -22.3250   -4.3190   21.3760 F   0  0  0  0  0  0  0  0  0  0  0  0
  -21.2570   -3.8600   26.0050 F   0  0  0  0  0  0  0  0  0  0  0  0
  -22.8090  -13.6100   21.0350 C   0  0  0  0  0  0  0  0  0  0  0  0
  -22.0580  -12.9260   21.8940 N   0  0  0  0  0  0  0  0  0  0  0  0
  -22.3840  -14.6300   20.4920 O   0  0  0  0  0  0  0  0  0  0  0  0
  -22.4170  -12.1090   22.3650 H   0  0  0  0  0  0  0  0  0  0  0  0
  -21.1120  -13.2240   22.0830 H   0  0  0  0  0  0  0  0  0  0  0  0
  -25.4690  -15.2570   20.2500 N   0  0  0  0  0  0  0  0  0  0  0  0
  -24.7070  -15.9220   20.3140 H   0  0  0  0  0  0  0  0  0  0  0  0
  -26.3250  -15.6710   19.9050 H   0  0  0  0  0  0  0  0  0  0  0  0
  1  3  1  0
  2  5  1  0
  2  1  2  0
  3  6  2  0
  3 55  1  0
  4  7  1  0
  4  6  1  0
  5  4  2  0
  7 10  1  0
  8  7  1  0
 10  9  1  0
 11 10  1  0
 11 12  1  0
 13 12  1  0
 13 14  1  0
 15 26  2  0
 16 14  1  0
 16 21  1  0
 17 25  1  0
 17 27  1  0
 18 24  1  0
 18 20  1  0
 19 25  1  0
 20 21  2  0
 20 19  1  0
 22 16  2  0
 23 22  1  0
 23 18  2  0
 24 17  1  0
 25 15  1  0
 27 29  2  0
 28 27  1  0
 30 28  1  0
 31 40  2  0
 31 36  1  0
 32 28  1  0
 32 36  1  0
 33 32  1  0
 34 35  1  0
 34 33  1  0
 35 31  1  0
 36 37  2  0
 37 38  1  0
 39 38  2  0
 40 39  1  0
 41 15  1  0
 41 42  1  0
 41 51  1  0
 42 45  1  0
 43 47  1  0
 43 42  1  0
 44 43  2  0
 47 46  1  0
 49 47  1  0
 49 50  1  0
 49 48  1  0
 51 54  1  1
 51 52  1  0
 53 51  1  0
 56 64  1  0
 57 62  1  0
 58 59  1  0
 58 57  1  0
 60 59  1  0
 60 69  1  0
 60 61  1  0
 62 56  1  0
 62 61  1  0
 63 56  2  0
 64 55  1  0
 64 65  1  0
 66 67  2  0
 67 68  1  0
 67 86  1  0
 68 71  1  0
 69 66  1  0
 69 70  1  0
 70 68  2  0
 71 72  1  0
 72 73  2  0
 74 77  1  0
 74 73  1  0
 75 74  2  0
 76 75  1  0
 76 71  2  0
 77 78  1  0
 78 79  1  0
 79 80  2  0
 81 80  1  0
 81 85  1  0
 82 81  2  0
 83 78  2  0
 83 82  1  0
 84 83  1  0
 86 87  1  0
 87 90  1  0
 87 89  1  0
 88 86  2  0
 91 92  1  0
 91 66  1  0
 93 91  1  0
M  ISO  4  13 101  14 101  56 100  64 100
M  END
>  <TORSDO>  (23) 
F 21

>  <SCORE>  (23) 
-13.227

>  <name>  (23) 
22

>  <ligand_id>  (23) 
22

>  <original_smiles>  (23) 
[H]c1nc(N([H])C([H])(C([H])([H])[H])C([H])([H])C([H])([H])C([H])([H])Oc2c([H])c([H])c3c(c2[H])C([H])([H])N(C(=O)C([H])(N([H])C(=O)C([H])(N([H])C([H])([H])[H])C([H])([H])[H])C(C([H])([H])[H])(C([H])([H])[H])C([H])([H])[H])C([H])(C(=O)N([H])C2([H])c4c([H])c([H])c([H])c([H])c4C([H])([H])C([H])([H])C2([H])[H])C3([H])[H])nc(C([H])([H])N([H])C(=O)N2C([H])([H])C([H])([H])C([H])([H])C([H])(n3nc(-c4c([H])c([H])c(Oc5c([H])c([H])c(F)c([H])c5F)c([H])c4[H])c(C(=O)N([H])[H])c3N([H])[H])C2([H])[H])c1[H]

>  <smiles>  (23) 
[H]c1nc(N([H])C([H])(C([H])([H])[H])C([H])([H])C([H])([H])C([H])([H])Oc2c([H])c([H])c3c(c2[H])C([H])([H])N(C(=O)C([H])(N([H])C(=O)C([H])(N([H])C([H])([H])[H])C([H])([H])[H])C(C([H])([H])[H])(C([H])([H])[H])C([H])([H])[H])C([H])(C(=O)N([H])C2([H])c4c([H])c([H])c([H])c([H])c4C([H])([H])C([H])([H])C2([H])[H])C3([H])[H])nc(C([H])([H])N([H])C(=O)N2C([H])([H])C([H])([H])C([H])([H])C([H])(n3nc(-c4c([H])c([H])c(Oc5c([H])c([H])c(F)c([H])c5F)c([H])c4[H])c(C(=O)N([H])[H])c3N([H])[H])C2([H])[H])c1[H]

$$$$
23:0:0
     RDKit          3D

 98106  0  0  1  0  0  0  0  0999 V2000
  -29.3010  -22.2170   18.4980 C   0  0  0  0  0  1  0  0  0  0  0  0
  -28.3210  -22.1830   19.6820 C   0  0  0  0  0  3  0  0  0  0  0  0
  -31.2990  -17.8840   20.9580 C   0  0  0  0  0  3  0  0  0  0  0  0
  -29.9660  -17.4790   20.6840 C   0  0  0  0  0  0  0  0  0  0  0  0
  -30.7890  -20.1380   20.8400 C   0  0  0  0  0  0  0  0  0  0  0  0
  -29.4210  -19.8700   20.5650 C   0  0  0  0  0  0  0  0  0  0  0  0
  -31.7090  -19.1720   21.0160 N   0  0  0  0  0  0  0  0  0  0  0  0
  -29.0310  -18.5210   20.4890 N   0  0  0  0  0  0  0  0  0  0  0  0
  -31.2530  -21.4280   21.0450 N   0  0  0  0  0  0  0  0  0  0  0  0
  -28.4860  -20.9890   20.6270 N   0  0  0  0  0  0  0  0  0  0  0  0
  -32.1800  -21.5950   21.4110 H   0  0  0  0  0  0  0  0  0  0  0  0
  -30.5830  -22.1830   21.1440 H   0  0  0  0  0  0  0  0  0  0  0  0
  -28.5190  -21.3450   21.5780 H   0  0  0  0  0  0  0  0  0  0  0  0
  -30.5300  -14.8890   20.5750 C   0  0  0  0  0  0  0  0  0  0  0  0
  -30.4590  -12.5680   19.6410 C   0  0  0  0  0  2  0  0  0  0  0  0
  -29.5690  -12.5770   18.3810 C   0  0  0  0  0  2  0  0  0  0  0  0
  -28.0850  -12.3900   18.7560 C   0  0  0  0  0  2  0  0  0  0  0  0
  -27.6450  -13.3040   19.9330 C   0  0  0  0  0  3  0  0  0  0  0  0
  -28.6550  -13.2500   21.0960 C   0  0  0  0  0  2  0  0  0  0  0  0
  -29.9570  -13.6320   20.5420 N   0  0  0  0  0  0  0  0  0  0  0  0
  -31.7250  -14.9910   20.2790 O   0  0  0  0  0  0  0  0  0  0  0  0
  -29.6900  -16.0050   20.7140 N   0  0  0  0  0  0  0  0  0  0  0  0
  -28.7200  -15.7630   20.8570 H   0  0  0  0  0  0  0  0  0  0  0  0
  -25.2340  -13.8810   20.5850 C   0  0  0  0  0  0  0  0  0  0  0  0
  -24.1620  -13.1030   20.9270 C   0  0  0  0  0  0  0  0  0  0  0  0
  -24.6380  -11.7560   20.9200 C   0  0  0  0  0  0  0  0  0  0  0  0
  -26.2900  -13.0090   20.3800 N   0  0  0  0  0  0  0  0  0  0  0  0
  -25.9360  -11.7260   20.6460 N   0  0  0  0  0  0  0  0  0  0  0  0
  -23.9160  -10.4890   21.0930 C   0  0  0  0  0  0  0  0  0  0  0  0
  -24.3340   -9.5240   22.0370 C   0  0  0  0  0  3  0  0  0  0  0  0
  -23.6110   -8.3230   22.2000 C   0  0  0  0  0  3  0  0  0  0  0  0
  -22.4560   -8.0790   21.4220 C   0  0  0  0  0  0  0  0  0  0  0  0
  -22.0570   -9.0320   20.4680 C   0  0  0  0  0  3  0  0  0  0  0  0
  -22.7810  -10.2230   20.3020 C   0  0  0  0  0  3  0  0  0  0  0  0
  -21.7090   -6.9310   21.4930 O   0  0  0  0  0  0  0  0  0  0  0  0
  -21.6410   -6.1850   22.6420 C   0  0  0  0  0  0  0  0  0  0  0  0
  -21.1930   -6.7370   23.8620 C   0  0  0  0  0  3  0  0  0  0  0  0
  -21.0740   -5.9180   25.0040 C   0  0  0  0  0  3  0  0  0  0  0  0
  -21.3930   -4.5480   24.9230 C   0  0  0  0  0  0  0  0  0  0  0  0
  -21.8350   -3.9980   23.7080 C   0  0  0  0  0  3  0  0  0  0  0  0
  -21.9540   -4.8130   22.5700 C   0  0  0  0  0  0  0  0  0  0  0  0
  -22.3610   -4.2740   21.3950 F   0  0  0  0  0  0  0  0  0  0  0  0
  -21.2710   -3.7590   26.0160 F   0  0  0  0  0  0  0  0  0  0  0  0
  -22.7540  -13.5720   21.1510 C   0  0  0  0  0  0  0  0  0  0  0  0
  -22.0010  -12.8760   21.9950 N   0  0  0  0  0  0  0  0  0  0  0  0
  -22.3280  -14.5910   20.6080 O   0  0  0  0  0  0  0  0  0  0  0  0
  -22.3590  -12.0540   22.4580 H   0  0  0  0  0  0  0  0  0  0  0  0
  -21.0540  -13.1730   22.1820 H   0  0  0  0  0  0  0  0  0  0  0  0
  -25.3870  -15.2530   20.4030 N   0  0  0  0  0  0  0  0  0  0  0  0
  -24.6000  -15.8870   20.4900 H   0  0  0  0  0  0  0  0  0  0  0  0
  -26.2160  -15.7050   20.0380 H   0  0  0  0  0  0  0  0  0  0  0  0
  -27.8840  -23.6750   20.2570 C   0  0  0  0  0  2  0  0  0  0  0  0
  -28.6210  -25.0670   19.7900 C   0  0  0  0  0  3  0  0  0  0  0  0
  -30.0480  -24.9330   20.3740 C   0  0  0  0  0  0  0  0  0  0  0  0
  -30.2220  -24.5210   21.5300 O   0  0  0  0  0  0  0  0  0  0  0  0
  -32.4960  -25.6890   20.3930 C   0  0  0  0  0  1  0  0  0  0  0  0
  -31.2570  -25.3630   19.5280 C   0  0  0  0  0  2  0  0  0  0  0  0
  -28.2970  -26.5090   20.1500 O   0  0  0  0  0  0  0  0  0  0  0  0
  -24.6220  -31.8880   23.1780 C   0  0  0  0  0  0  0  0  0  0  0  0
  -27.1520  -27.3280   20.0150 C   0  0  0  0  0  0  0  0  0  0  0  0
  -23.3830  -30.5200   21.5370 C   0  0  0  0  0  3  0  0  0  0  0  0
  -24.8010  -28.9810   20.0450 C   0  0  0  0  0  0  0  0  0  0  0  0
  -25.9160  -30.8310   21.3040 C   0  0  0  0  0  2  0  0  0  0  0  0
  -25.9760  -29.4580   20.6320 C   0  0  0  0  0  0  0  0  0  0  0  0
  -27.1450  -28.6390   20.6060 C   0  0  0  0  0  3  0  0  0  0  0  0
  -25.9600  -26.9110   19.3870 C   0  0  0  0  0  3  0  0  0  0  0  0
  -24.7990  -27.7240   19.4080 C   0  0  0  0  0  3  0  0  0  0  0  0
  -23.5730  -29.8690   20.1360 C   0  0  0  0  0  2  0  0  0  0  0  0
  -24.6610  -31.1010   22.0630 N   0  0  0  0  0  0  0  0  0  0  0  0
  -23.5520  -32.1510   23.7450 O   0  0  0  0  0  0  0  0  0  0  0  0
  -22.7390  -29.4930   22.5000 C   0  0  0  0  0  0  0  0  0  0  0  0
  -21.4080  -29.3210   22.4110 N   0  0  0  0  0  0  0  0  0  0  0  0
  -23.4380  -28.8520   23.2890 O   0  0  0  0  0  0  0  0  0  0  0  0
  -20.8980  -29.9010   21.7590 H   0  0  0  0  0  0  0  0  0  0  0  0
  -18.0540  -28.0740   22.9380 C   0  0  0  0  0  0  0  0  0  0  0  0
  -20.6110  -28.3670   23.1860 C   0  0  0  0  0  3  0  0  0  0  0  0
  -20.7270  -26.9370   22.6070 C   0  0  0  0  0  2  0  0  0  0  0  0
  -19.6220  -26.6030   21.6040 C   0  0  0  0  0  2  0  0  0  0  0  0
  -18.2420  -26.7320   22.2570 C   0  0  0  0  0  2  0  0  0  0  0  0
  -19.1660  -28.8500   23.3630 C   0  0  0  0  0  0  0  0  0  0  0  0
  -18.9340  -30.1050   23.9640 C   0  0  0  0  0  3  0  0  0  0  0  0
  -17.6240  -30.5860   24.1440 C   0  0  0  0  0  3  0  0  0  0  0  0
  -16.5260  -29.8090   23.7330 C   0  0  0  0  0  3  0  0  0  0  0  0
  -16.7420  -28.5550   23.1320 C   0  0  0  0  0  3  0  0  0  0  0  0
  -25.9160  -32.5140   23.7850 C   0  0  0  0  0  3  0  0  0  0  0  0
  -25.6120  -33.9070   24.1460 N   0  0  0  0  0  0  0  0  0  0  0  0
  -25.9330  -34.9770   23.4030 C   0  0  0  0  0  0  0  0  0  0  0  0
  -26.5790  -34.8950   22.3550 O   0  0  0  0  0  0  0  0  0  0  0  0
  -25.0290  -34.0440   24.9580 H   0  0  0  0  0  0  0  0  0  0  0  0
  -24.1970  -36.7790   23.1360 C   0  0  0  0  0  1  0  0  0  0  0  0
  -25.4580  -36.3550   23.9040 C   0  0  0  0  0  3  0  0  0  0  0  0
  -27.6150  -37.2200   24.6960 C   0  0  0  0  0  1  0  0  0  0  0  0
  -26.4880  -37.4100   23.7870 N   0  0  0  0  0  0  0  0  0  0  0  0
  -26.0850  -38.3240   23.9700 H   0  0  0  0  0  0  0  0  0  0  0  0
  -26.4630  -31.7290   25.0410 C   0  0  1  0  0  0  0  0  0  0  0  0
  -25.3950  -31.4870   26.1320 C   0  0  0  0  0  1  0  0  0  0  0  0
  -27.0280  -30.3530   24.6150 C   0  0  0  0  0  1  0  0  0  0  0  0
  -27.6320  -32.5090   25.6890 C   0  0  0  0  0  1  0  0  0  0  0  0
  2  1  1  0
  2 52  1  0
  2 10  1  0
  3  7  1  0
  4 22  1  0
  4  3  2  0
  5  7  2  0
  5  9  1  0
  6 10  1  0
  6  5  1  0
  8  6  2  0
  8  4  1  0
  9 12  1  0
  9 11  1  0
 10 13  1  0
 14 22  1  0
 15 20  1  0
 16 17  1  0
 16 15  1  0
 18 17  1  0
 18 27  1  0
 18 19  1  0
 20 14  1  0
 20 19  1  0
 21 14  2  0
 22 23  1  0
 24 25  2  0
 25 44  1  0
 26 25  1  0
 26 29  1  0
 27 24  1  0
 27 28  1  0
 28 26  2  0
 29 30  1  0
 30 31  2  0
 32 35  1  0
 32 31  1  0
 33 32  2  0
 34 33  1  0
 34 29  2  0
 35 36  1  0
 36 37  1  0
 37 38  2  0
 39 38  1  0
 39 43  1  0
 40 39  2  0
 41 36  2  0
 41 40  1  0
 42 41  1  0
 44 45  1  0
 45 48  1  0
 45 47  1  0
 46 44  2  0
 49 50  1  0
 49 24  1  0
 51 49  1  0
 53 58  1  0
 53 52  1  0
 53 54  1  0
 54 55  2  0
 57 54  1  0
 57 56  1  0
 59 70  2  0
 60 58  1  0
 60 65  1  0
 61 69  1  0
 61 71  1  0
 62 68  1  0
 62 64  1  0
 63 69  1  0
 64 63  1  0
 65 64  2  0
 66 67  1  0
 66 60  2  0
 67 62  2  0
 68 61  1  0
 69 59  1  0
 71 73  2  0
 72 71  1  0
 74 72  1  0
 75 84  2  0
 75 80  1  0
 76 72  1  0
 76 80  1  0
 77 76  1  0
 78 79  1  0
 78 77  1  0
 79 75  1  0
 80 81  2  0
 81 82  1  0
 83 82  2  0
 84 83  1  0
 85 59  1  0
 85 86  1  0
 85 95  1  0
 86 89  1  0
 87 91  1  0
 87 86  1  0
 88 87  2  0
 91 90  1  0
 93 91  1  0
 93 94  1  0
 93 92  1  0
 95 98  1  1
 95 96  1  0
 97 95  1  0
M  ISO  4  14 100  22 100  53 101  58 101
M  END
>  <TORSDO>  (24) 
F 21

>  <SCORE>  (24) 
-13.856

>  <name>  (24) 
23

>  <ligand_id>  (24) 
23

>  <original_smiles>  (24) 
[H]c1nc(N([H])[H])c(N([H])C([H])(C([H])([H])[H])C([H])([H])C([H])(Oc2c([H])c([H])c3c(c2[H])C([H])([H])N(C(=O)C([H])(N([H])C(=O)C([H])(N([H])C([H])([H])[H])C([H])([H])[H])C(C([H])([H])[H])(C([H])([H])[H])C([H])([H])[H])C([H])(C(=O)N([H])C2([H])c4c([H])c([H])c([H])c([H])c4C([H])([H])C([H])([H])C2([H])[H])C3([H])[H])C(=O)C([H])([H])C([H])([H])[H])nc1N([H])C(=O)N1C([H])([H])C([H])([H])C([H])([H])C([H])(n2nc(-c3c([H])c([H])c(Oc4c([H])c([H])c(F)c([H])c4F)c([H])c3[H])c(C(=O)N([H])[H])c2N([H])[H])C1([H])[H]

>  <smiles>  (24) 
[H]c1nc(N([H])[H])c(N([H])C([H])(C([H])([H])[H])C([H])([H])C([H])(Oc2c([H])c([H])c3c(c2[H])C([H])([H])N(C(=O)C([H])(N([H])C(=O)C([H])(N([H])C([H])([H])[H])C([H])([H])[H])C(C([H])([H])[H])(C([H])([H])[H])C([H])([H])[H])C([H])(C(=O)N([H])C2([H])c4c([H])c([H])c([H])c([H])c4C([H])([H])C([H])([H])C2([H])[H])C3([H])[H])C(=O)C([H])([H])C([H])([H])[H])nc1N([H])C(=O)N1C([H])([H])C([H])([H])C([H])([H])C([H])(n2nc(-c3c([H])c([H])c(Oc4c([H])c([H])c(F)c([H])c4F)c([H])c3[H])c(C(=O)N([H])[H])c2N([H])[H])C1([H])[H]

$$$$
24:0:0
     RDKit          3D

 93101  0  0  1  0  0  0  0  0999 V2000
  -29.7150  -18.1740   19.9940 C   0  0  0  0  0  3  0  0  0  0  0  0
  -28.7680  -20.1750   19.6960 C   0  0  0  0  0  0  0  0  0  0  0  0
  -29.9250  -19.4710   19.6630 N   0  0  0  0  0  0  0  0  0  0  0  0
  -27.6520  -19.5250   20.0720 N   0  0  0  0  0  2  0  0  0  0  0  0
  -28.6360  -21.5020   19.2140 N   0  0  0  0  0  0  0  0  0  0  0  0
  -28.0480  -17.9040   20.4260 S   0  0  0  0  0  0  0  0  0  0  0  0
  -27.6640  -21.6440   18.9560 H   0  0  0  0  0  0  0  0  0  0  0  0
  -31.0640  -14.6180   20.4580 C   0  0  0  0  0  0  0  0  0  0  0  0
  -30.8570  -12.2390   19.8060 C   0  0  0  0  0  2  0  0  0  0  0  0
  -30.0270  -12.1610   18.5060 C   0  0  0  0  0  2  0  0  0  0  0  0
  -28.5250  -12.0750   18.8340 C   0  0  0  0  0  2  0  0  0  0  0  0
  -28.0760  -13.1490   19.8610 C   0  0  0  0  0  3  0  0  0  0  0  0
  -29.0380  -13.2220   21.0710 C   0  0  0  0  0  2  0  0  0  0  0  0
  -30.3930  -13.4280   20.5500 N   0  0  0  0  0  0  0  0  0  0  0  0
  -32.2660  -14.6180   20.1910 O   0  0  0  0  0  0  0  0  0  0  0  0
  -30.7280  -17.0340   20.1280 C   0  0  0  0  0  0  0  0  0  0  0  0
  -30.3130  -15.7660   20.4580 N   0  0  0  0  0  0  0  0  0  0  0  0
  -31.9040  -17.3240   19.8660 O   0  0  0  0  0  0  0  0  0  0  0  0
  -29.3340  -15.6610   20.6520 H   0  0  0  0  0  0  0  0  0  0  0  0
  -25.6810  -13.8710   20.4480 C   0  0  0  0  0  0  0  0  0  0  0  0
  -24.5600  -13.1570   20.7730 C   0  0  0  0  0  0  0  0  0  0  0  0
  -24.9610  -11.7840   20.7920 C   0  0  0  0  0  0  0  0  0  0  0  0
  -26.6940  -12.9410   20.2810 N   0  0  0  0  0  0  0  0  0  0  0  0
  -26.2630  -11.6810   20.5550 N   0  0  0  0  0  0  0  0  0  0  0  0
  -24.1680  -10.5610   20.9620 C   0  0  0  0  0  0  0  0  0  0  0  0
  -24.5320   -9.5680   21.9020 C   0  0  0  0  0  3  0  0  0  0  0  0
  -23.7420   -8.4100   22.0600 C   0  0  0  0  0  3  0  0  0  0  0  0
  -22.5720   -8.2360   21.2830 C   0  0  0  0  0  0  0  0  0  0  0  0
  -22.2310   -9.2130   20.3310 C   0  0  0  0  0  3  0  0  0  0  0  0
  -23.0220  -10.3630   20.1700 C   0  0  0  0  0  3  0  0  0  0  0  0
  -21.7550   -7.1330   21.3540 O   0  0  0  0  0  0  0  0  0  0  0  0
  -21.6870   -6.3610   22.4860 C   0  0  0  0  0  0  0  0  0  0  0  0
  -21.2680   -6.8900   23.7270 C   0  0  0  0  0  3  0  0  0  0  0  0
  -21.1460   -6.0450   24.8490 C   0  0  0  0  0  3  0  0  0  0  0  0
  -21.4320   -4.6720   24.7300 C   0  0  0  0  0  0  0  0  0  0  0  0
  -21.8420   -4.1410   23.4940 C   0  0  0  0  0  3  0  0  0  0  0  0
  -21.9670   -4.9840   22.3760 C   0  0  0  0  0  0  0  0  0  0  0  0
  -22.3440   -4.4630   21.1820 F   0  0  0  0  0  0  0  0  0  0  0  0
  -21.3080   -3.8580   25.8040 F   0  0  0  0  0  0  0  0  0  0  0  0
  -23.1730  -13.7020   20.9560 C   0  0  0  0  0  0  0  0  0  0  0  0
  -22.3730  -13.0670   21.8040 N   0  0  0  0  0  0  0  0  0  0  0  0
  -22.8070  -14.7270   20.3830 O   0  0  0  0  0  0  0  0  0  0  0  0
  -22.6830  -12.2360   22.2840 H   0  0  0  0  0  0  0  0  0  0  0  0
  -21.4390  -13.4140   21.9750 H   0  0  0  0  0  0  0  0  0  0  0  0
  -25.9230  -15.2280   20.2510 N   0  0  0  0  0  0  0  0  0  0  0  0
  -25.1890  -15.9250   20.3220 H   0  0  0  0  0  0  0  0  0  0  0  0
  -26.7980  -15.6070   19.9160 H   0  0  0  0  0  0  0  0  0  0  0  0
  -30.6410  -22.8530   19.7860 C   0  0  0  0  0  1  0  0  0  0  0  0
  -29.1220  -22.6800   19.9770 C   0  0  0  0  0  3  0  0  0  0  0  0
  -28.3680  -24.0320   19.6020 C   0  0  0  0  0  2  0  0  0  0  0  0
  -27.7720  -25.2280   21.8280 C   0  0  0  0  0  1  0  0  0  0  0  0
  -28.6140  -25.2830   20.5370 C   0  0  0  0  0  3  0  0  0  0  0  0
  -28.5950  -26.6150   19.9270 O   0  0  0  0  0  0  0  0  0  0  0  0
  -24.6780  -31.6030   23.2440 C   0  0  0  0  0  0  0  0  0  0  0  0
  -27.4330  -27.3720   19.9450 C   0  0  0  0  0  0  0  0  0  0  0  0
  -23.5290  -30.3100   21.4760 C   0  0  0  0  0  3  0  0  0  0  0  0
  -25.0370  -28.8930   19.9750 C   0  0  0  0  0  0  0  0  0  0  0  0
  -26.0580  -30.7020   21.3640 C   0  0  0  0  0  2  0  0  0  0  0  0
  -26.1750  -29.3770   20.6310 C   0  0  0  0  0  0  0  0  0  0  0  0
  -27.3790  -28.6270   20.6050 C   0  0  0  0  0  3  0  0  0  0  0  0
  -26.2860  -26.9170   19.2700 C   0  0  0  0  0  3  0  0  0  0  0  0
  -25.0930  -27.6690   19.2830 C   0  0  0  0  0  3  0  0  0  0  0  0
  -23.7780  -29.7300   20.0560 C   0  0  0  0  0  2  0  0  0  0  0  0
  -24.7730  -30.8840   22.0870 N   0  0  0  0  0  0  0  0  0  0  0  0
  -23.5820  -31.8240   23.7770 O   0  0  0  0  0  0  0  0  0  0  0  0
  -22.8690  -29.2160   22.3450 C   0  0  0  0  0  0  0  0  0  0  0  0
  -21.5480  -29.0400   22.1840 N   0  0  0  0  0  0  0  0  0  0  0  0
  -23.5440  -28.5310   23.1190 O   0  0  0  0  0  0  0  0  0  0  0  0
  -21.0660  -29.6440   21.5350 H   0  0  0  0  0  0  0  0  0  0  0  0
  -18.1630  -27.8320   22.5770 C   0  0  0  0  0  0  0  0  0  0  0  0
  -20.7240  -28.0410   22.8670 C   0  0  0  0  0  3  0  0  0  0  0  0
  -20.8140  -26.6710   22.1570 C   0  0  0  0  0  2  0  0  0  0  0  0
  -19.7070  -26.4550   21.1200 C   0  0  0  0  0  2  0  0  0  0  0  0
  -18.3280  -26.5490   21.7770 C   0  0  0  0  0  2  0  0  0  0  0  0
  -19.2890  -28.5400   23.0740 C   0  0  0  0  0  0  0  0  0  0  0  0
  -19.0830  -29.7450   23.7810 C   0  0  0  0  0  3  0  0  0  0  0  0
  -17.7830  -30.2380   23.9980 C   0  0  0  0  0  3  0  0  0  0  0  0
  -16.6710  -29.5230   23.5190 C   0  0  0  0  0  3  0  0  0  0  0  0
  -16.8620  -28.3230   22.8120 C   0  0  0  0  0  3  0  0  0  0  0  0
  -25.9400  -32.2030   23.9380 C   0  0  0  0  0  3  0  0  0  0  0  0
  -26.3660  -31.4160   25.2370 C   0  0  1  0  0  0  0  0  0  0  0  0
  -25.2110  -31.2060   26.2460 C   0  0  0  0  0  1  0  0  0  0  0  0
  -26.9330  -30.0250   24.8710 C   0  0  0  0  0  1  0  0  0  0  0  0
  -27.5020  -32.1780   25.9600 C   0  0  0  0  0  1  0  0  0  0  0  0
  -25.6440  -33.6070   24.2550 N   0  0  0  0  0  0  0  0  0  0  0  0
  -26.0670  -34.6560   23.5380 C   0  0  0  0  0  0  0  0  0  0  0  0
  -26.8160  -34.5410   22.5640 O   0  0  0  0  0  0  0  0  0  0  0  0
  -24.9910  -33.7720   25.0070 H   0  0  0  0  0  0  0  0  0  0  0  0
  -24.4230  -36.5010   23.0660 C   0  0  0  0  0  1  0  0  0  0  0  0
  -25.5820  -36.0540   23.9700 C   0  0  0  0  0  3  0  0  0  0  0  0
  -27.6560  -36.8800   24.9890 C   0  0  0  0  0  1  0  0  0  0  0  0
  -26.6480  -37.0790   23.9520 N   0  0  0  0  0  0  0  0  0  0  0  0
  -26.2550  -38.0100   24.0680 H   0  0  0  0  0  0  0  0  0  0  0  0
  1 16  1  0
  1  6  1  0
  2  4  1  0
  3  2  2  0
  3  1  1  0
  4  6  1  0
  5  2  1  0
  5 49  1  0
  7  5  1  0
  8 17  1  0
  8 14  1  0
  9 14  1  0
 10 11  1  0
 10  9  1  0
 12 11  1  0
 12 23  1  0
 12 13  1  0
 14 13  1  0
 15  8  2  0
 16 17  1  0
 17 19  1  0
 18 16  2  0
 20 21  2  0
 21 22  1  0
 21 40  1  0
 22 25  1  0
 23 20  1  0
 23 24  1  0
 24 22  2  0
 25 26  1  0
 26 27  2  0
 28 31  1  0
 28 27  1  0
 29 28  2  0
 30 29  1  0
 30 25  2  0
 31 32  1  0
 32 33  1  0
 33 34  2  0
 35 34  1  0
 35 39  1  0
 36 35  2  0
 37 32  2  0
 37 36  1  0
 38 37  1  0
 40 41  1  0
 41 44  1  0
 41 43  1  0
 42 40  2  0
 45 46  1  0
 45 20  1  0
 47 45  1  0
 49 48  1  0
 50 49  1  0
 50 52  1  0
 52 51  1  0
 53 55  1  0
 53 52  1  0
 54 65  2  0
 55 60  1  0
 56 64  1  0
 56 66  1  0
 57 63  1  0
 57 59  1  0
 58 64  1  0
 59 58  1  0
 60 59  2  0
 61 62  1  0
 61 55  2  0
 62 57  2  0
 63 56  1  0
 64 54  1  0
 66 68  2  0
 67 66  1  0
 69 67  1  0
 70 79  2  0
 70 75  1  0
 71 67  1  0
 71 75  1  0
 72 71  1  0
 73 74  1  0
 73 72  1  0
 74 70  1  0
 75 76  2  0
 76 77  1  0
 78 77  2  0
 79 78  1  0
 80 54  1  0
 80 85  1  0
 80 81  1  0
 81 84  1  1
 81 82  1  0
 83 81  1  0
 85 88  1  0
 86 90  1  0
 86 85  1  0
 87 86  2  0
 90 89  1  0
 92 90  1  0
 92 93  1  0
 92 91  1  0
M  ISO  4   8 100  17 100  52 101  53 101
M  END
>  <TORSDO>  (25) 
F 19

>  <SCORE>  (25) 
-13.429

>  <name>  (25) 
24

>  <ligand_id>  (25) 
24

>  <original_smiles>  (25) 
[H]c1c([H])c([H])c2c(c1[H])C([H])([H])C([H])([H])C([H])([H])C2([H])N([H])C(=O)C1([H])N(C(=O)C([H])(N([H])C(=O)C([H])(N([H])C([H])([H])[H])C([H])([H])[H])C(C([H])([H])[H])(C([H])([H])[H])C([H])([H])[H])C([H])([H])c2c([H])c(OC([H])(C([H])([H])[H])C([H])([H])C([H])(N([H])c3nsc(C(=O)N([H])C(=O)N4C([H])([H])C([H])([H])C([H])([H])C([H])(n5nc(-c6c([H])c([H])c(Oc7c([H])c([H])c(F)c([H])c7F)c([H])c6[H])c(C(=O)N([H])[H])c5N([H])[H])C4([H])[H])n3)C([H])([H])[H])c([H])c([H])c2C1([H])[H]

>  <smiles>  (25) 
[H]c1c([H])c([H])c2c(c1[H])C([H])([H])C([H])([H])C([H])([H])C2([H])N([H])C(=O)C1([H])N(C(=O)C([H])(N([H])C(=O)C([H])(N([H])C([H])([H])[H])C([H])([H])[H])C(C([H])([H])[H])(C([H])([H])[H])C([H])([H])[H])C([H])([H])c2c([H])c(OC([H])(C([H])([H])[H])C([H])([H])C([H])(N([H])c3nsc(C(=O)N([H])C(=O)N4C([H])([H])C([H])([H])C([H])([H])C([H])(n5nc(-c6c([H])c([H])c(Oc7c([H])c([H])c(F)c([H])c7F)c([H])c6[H])c(C(=O)N([H])[H])c5N([H])[H])C4([H])[H])n3)C([H])([H])[H])c([H])c([H])c2C1([H])[H]

$$$$
25:0:0
     RDKit          3D

 95103  0  0  1  0  0  0  0  0999 V2000
  -28.9940  -23.8500   19.5320 C   0  0  0  0  0  3  0  0  0  0  0  0
  -29.1530  -18.7960   21.3440 C   0  0  0  0  0  3  0  0  0  0  0  0
  -29.8140  -18.8330   20.1430 C   0  0  0  0  0  0  0  0  0  0  0  0
  -29.2140  -21.1450   20.4360 C   0  0  0  0  0  0  0  0  0  0  0  0
  -29.8120  -20.2020   19.6280 N   0  0  0  0  0  0  0  0  0  0  0  0
  -29.0240  -22.5840   20.3750 N   0  0  0  0  0  0  0  0  0  0  0  0
  -28.5750  -20.3610   21.8790 S   0  0  0  0  0  0  0  0  0  0  0  0
  -28.6950  -22.8530   21.2940 H   0  0  0  0  0  0  0  0  0  0  0  0
  -30.5020  -17.5670   19.4820 C   0  0  0  0  0  2  0  0  0  0  0  0
  -30.9620  -14.9920   19.7390 C   0  0  0  0  0  0  0  0  0  0  0  0
  -30.7230  -12.6860   18.8110 C   0  0  0  0  0  2  0  0  0  0  0  0
  -29.6950  -12.7060   17.6590 C   0  0  0  0  0  2  0  0  0  0  0  0
  -28.2720  -12.5020   18.2110 C   0  0  0  0  0  2  0  0  0  0  0  0
  -27.9680  -13.4220   19.4230 C   0  0  0  0  0  3  0  0  0  0  0  0
  -29.1090  -13.4030   20.4640 C   0  0  0  0  0  2  0  0  0  0  0  0
  -30.3490  -13.7580   19.7650 N   0  0  0  0  0  0  0  0  0  0  0  0
  -32.1150  -15.0870   19.3100 O   0  0  0  0  0  0  0  0  0  0  0  0
  -30.2040  -16.1360   19.9560 N   0  0  0  0  0  0  0  0  0  0  0  0
  -29.2740  -15.9820   20.3140 H   0  0  0  0  0  0  0  0  0  0  0  0
  -25.6700  -13.9930   20.4070 C   0  0  0  0  0  0  0  0  0  0  0  0
  -24.6290  -13.2100   20.8270 C   0  0  0  0  0  0  0  0  0  0  0  0
  -25.0660  -11.8570   20.6760 C   0  0  0  0  0  0  0  0  0  0  0  0
  -26.6720  -13.1180   20.0230 N   0  0  0  0  0  0  0  0  0  0  0  0
  -26.3220  -11.8240   20.2460 N   0  0  0  0  0  0  0  0  0  0  0  0
  -24.3390  -10.5940   20.8540 C   0  0  0  0  0  0  0  0  0  0  0  0
  -24.7470   -9.6340   21.8070 C   0  0  0  0  0  3  0  0  0  0  0  0
  -24.0180   -8.4370   21.9740 C   0  0  0  0  0  3  0  0  0  0  0  0
  -22.8680   -8.1910   21.1870 C   0  0  0  0  0  0  0  0  0  0  0  0
  -22.4790   -9.1390   20.2240 C   0  0  0  0  0  3  0  0  0  0  0  0
  -23.2080  -10.3280   20.0550 C   0  0  0  0  0  3  0  0  0  0  0  0
  -22.1140   -7.0450   21.2620 O   0  0  0  0  0  0  0  0  0  0  0  0
  -21.9120   -6.3930   22.4520 C   0  0  0  0  0  0  0  0  0  0  0  0
  -21.3000   -7.0260   23.5560 C   0  0  0  0  0  3  0  0  0  0  0  0
  -21.0490   -6.2980   24.7360 C   0  0  0  0  0  3  0  0  0  0  0  0
  -21.4000   -4.9360   24.8120 C   0  0  0  0  0  0  0  0  0  0  0  0
  -22.0030   -4.3020   23.7120 C   0  0  0  0  0  3  0  0  0  0  0  0
  -22.2550   -5.0280   22.5340 C   0  0  0  0  0  0  0  0  0  0  0  0
  -22.8180   -4.4060   21.4710 F   0  0  0  0  0  0  0  0  0  0  0  0
  -21.1520   -4.2350   25.9420 F   0  0  0  0  0  0  0  0  0  0  0  0
  -23.2700  -13.6870   21.2500 C   0  0  0  0  0  0  0  0  0  0  0  0
  -22.6210  -12.9600   22.1530 N   0  0  0  0  0  0  0  0  0  0  0  0
  -22.7980  -14.7370   20.8190 O   0  0  0  0  0  0  0  0  0  0  0  0
  -23.0170  -12.1080   22.5220 H   0  0  0  0  0  0  0  0  0  0  0  0
  -21.7130  -13.2590   22.4790 H   0  0  0  0  0  0  0  0  0  0  0  0
  -25.8390  -15.3710   20.2950 N   0  0  0  0  0  0  0  0  0  0  0  0
  -25.0870  -16.0200   20.4950 H   0  0  0  0  0  0  0  0  0  0  0  0
  -26.6480  -15.8170   19.8820 H   0  0  0  0  0  0  0  0  0  0  0  0
  -30.2380  -23.9280   18.6210 C   0  0  0  0  0  0  0  0  0  0  0  0
  -31.3850  -23.7450   19.0330 O   0  0  0  0  0  0  0  0  0  0  0  0
  -29.2890  -25.4780   16.7980 C   0  0  0  0  0  1  0  0  0  0  0  0
  -30.0110  -24.1610   17.1220 C   0  0  0  0  0  2  0  0  0  0  0  0
  -28.7130  -25.2610   20.3510 C   0  0  0  0  0  3  0  0  0  0  0  0
  -29.3620  -24.9960   22.8490 C   0  0  0  0  0  1  0  0  0  0  0  0
  -29.7640  -25.5100   21.4630 C   0  0  0  0  0  2  0  0  0  0  0  0
  -28.6300  -26.6180   19.7050 O   0  0  0  0  0  0  0  0  0  0  0  0
  -24.7260  -31.8520   22.9930 C   0  0  0  0  0  0  0  0  0  0  0  0
  -27.4740  -27.4230   19.8160 C   0  0  0  0  0  0  0  0  0  0  0  0
  -23.5580  -30.4410   21.3380 C   0  0  0  0  0  3  0  0  0  0  0  0
  -25.0500  -28.9620   19.8750 C   0  0  0  0  0  0  0  0  0  0  0  0
  -26.0850  -30.8500   21.1340 C   0  0  0  0  0  2  0  0  0  0  0  0
  -26.2100  -29.4810   20.4640 C   0  0  0  0  0  0  0  0  0  0  0  0
  -27.4270  -28.7250   20.4160 C   0  0  0  0  0  3  0  0  0  0  0  0
  -26.2850  -26.9550   19.2240 C   0  0  0  0  0  3  0  0  0  0  0  0
  -25.0910  -27.7060   19.2450 C   0  0  0  0  0  3  0  0  0  0  0  0
  -23.7830  -29.7910   19.9480 C   0  0  0  0  0  2  0  0  0  0  0  0
  -24.8100  -31.0660   21.8780 N   0  0  0  0  0  0  0  0  0  0  0  0
  -23.6370  -32.0780   23.5420 O   0  0  0  0  0  0  0  0  0  0  0  0
  -22.9370  -29.3870   22.2900 C   0  0  0  0  0  0  0  0  0  0  0  0
  -21.6130  -29.1810   22.1890 N   0  0  0  0  0  0  0  0  0  0  0  0
  -23.6470  -28.7570   23.0800 O   0  0  0  0  0  0  0  0  0  0  0  0
  -21.0930  -29.7420   21.5290 H   0  0  0  0  0  0  0  0  0  0  0  0
  -18.2790  -27.8840   22.7300 C   0  0  0  0  0  0  0  0  0  0  0  0
  -20.8340  -28.2010   22.9510 C   0  0  0  0  0  3  0  0  0  0  0  0
  -20.9610  -26.7910   22.3310 C   0  0  0  0  0  2  0  0  0  0  0  0
  -19.8430  -26.4680   21.3350 C   0  0  0  0  0  2  0  0  0  0  0  0
  -18.4730  -26.5610   22.0120 C   0  0  0  0  0  2  0  0  0  0  0  0
  -19.3880  -28.6620   23.1580 C   0  0  0  0  0  0  0  0  0  0  0  0
  -19.1510  -29.9010   23.7900 C   0  0  0  0  0  3  0  0  0  0  0  0
  -17.8380  -30.3630   24.0040 C   0  0  0  0  0  3  0  0  0  0  0  0
  -16.7440  -29.5810   23.5930 C   0  0  0  0  0  3  0  0  0  0  0  0
  -16.9650  -28.3440   22.9620 C   0  0  0  0  0  3  0  0  0  0  0  0
  -25.9880  -32.5210   23.6170 C   0  0  0  0  0  3  0  0  0  0  0  0
  -25.6190  -33.8860   24.0190 N   0  0  0  0  0  0  0  0  0  0  0  0
  -25.8800  -34.9890   23.3050 C   0  0  0  0  0  0  0  0  0  0  0  0
  -26.5270  -34.9670   22.2530 O   0  0  0  0  0  0  0  0  0  0  0  0
  -25.0400  -33.9710   24.8420 H   0  0  0  0  0  0  0  0  0  0  0  0
  -24.0610  -36.7140   23.0820 C   0  0  0  0  0  1  0  0  0  0  0  0
  -25.3400  -36.3290   23.8410 C   0  0  0  0  0  3  0  0  0  0  0  0
  -27.4450  -37.2820   24.6710 C   0  0  0  0  0  1  0  0  0  0  0  0
  -26.3180  -37.4370   23.7550 N   0  0  0  0  0  0  0  0  0  0  0  0
  -25.8710  -38.3290   23.9520 H   0  0  0  0  0  0  0  0  0  0  0  0
  -26.5710  -31.7230   24.8490 C   0  0  1  0  0  0  0  0  0  0  0  0
  -25.5120  -31.3820   25.9240 C   0  0  0  0  0  1  0  0  0  0  0  0
  -27.2130  -30.3950   24.3860 C   0  0  0  0  0  1  0  0  0  0  0  0
  -27.6950  -32.5450   25.5230 C   0  0  0  0  0  1  0  0  0  0  0  0
  1 48  1  0
  1 52  1  0
  1  6  1  0
  2  7  1  0
  3  2  2  0
  4  7  1  0
  5  3  1  0
  5  4  2  0
  6  4  1  0
  6  8  1  0
  9 18  1  0
  9  3  1  0
 10 16  1  0
 10 18  1  0
 11 16  1  0
 12 13  1  0
 12 11  1  0
 14 13  1  0
 14 23  1  0
 14 15  1  0
 16 15  1  0
 17 10  2  0
 18 19  1  0
 20 21  2  0
 21 40  1  0
 22 21  1  0
 22 25  1  0
 23 24  1  0
 23 20  1  0
 24 22  2  0
 25 26  1  0
 26 27  2  0
 28 31  1  0
 28 27  1  0
 29 28  2  0
 30 29  1  0
 30 25  2  0
 31 32  1  0
 32 37  2  0
 32 33  1  0
 33 34  2  0
 34 35  1  0
 35 39  1  0
 36 35  2  0
 37 36  1  0
 38 37  1  0
 40 41  1  0
 41 44  1  0
 41 43  1  0
 42 40  2  0
 45 20  1  0
 45 46  1  0
 47 45  1  0
 48 49  2  0
 50 51  1  0
 51 48  1  0
 52 54  1  0
 54 53  1  0
 55 57  1  0
 55 52  1  0
 56 67  2  0
 57 62  1  0
 58 66  1  0
 58 68  1  0
 59 65  1  0
 59 61  1  0
 60 66  1  0
 61 60  1  0
 62 61  2  0
 63 64  1  0
 63 57  2  0
 64 59  2  0
 65 58  1  0
 66 56  1  0
 68 70  2  0
 69 68  1  0
 71 69  1  0
 72 81  2  0
 72 77  1  0
 73 69  1  0
 73 77  1  0
 74 73  1  0
 75 76  1  0
 75 74  1  0
 76 72  1  0
 77 78  2  0
 78 79  1  0
 80 79  2  0
 81 80  1  0
 82 56  1  0
 82 83  1  0
 82 92  1  0
 83 86  1  0
 84 88  1  0
 84 83  1  0
 85 84  2  0
 88 87  1  0
 90 88  1  0
 90 91  1  0
 90 89  1  0
 92 95  1  1
 92 93  1  0
 94 92  1  0
M  ISO  4  10 100  18 100  52 101  55 101
M  END
>  <TORSDO>  (26) 
F 22

>  <SCORE>  (26) 
-10.505

>  <name>  (26) 
25

>  <ligand_id>  (26) 
25

>  <original_smiles>  (26) 
[H]c1sc(N([H])C([H])(C(=O)C([H])([H])C([H])([H])[H])C([H])(Oc2c([H])c([H])c3c(c2[H])C([H])([H])N(C(=O)C([H])(N([H])C(=O)C([H])(N([H])C([H])([H])[H])C([H])([H])[H])C(C([H])([H])[H])(C([H])([H])[H])C([H])([H])[H])C([H])(C(=O)N([H])C2([H])c4c([H])c([H])c([H])c([H])c4C([H])([H])C([H])([H])C2([H])[H])C3([H])[H])C([H])([H])C([H])([H])[H])nc1C([H])([H])N([H])C(=O)N1C([H])([H])C([H])([H])C([H])([H])C([H])(n2nc(-c3c([H])c([H])c(Oc4c([H])c([H])c(F)c([H])c4F)c([H])c3[H])c(C(=O)N([H])[H])c2N([H])[H])C1([H])[H]

>  <smiles>  (26) 
[H]c1sc(N([H])C([H])(C(=O)C([H])([H])C([H])([H])[H])C([H])(Oc2c([H])c([H])c3c(c2[H])C([H])([H])N(C(=O)C([H])(N([H])C(=O)C([H])(N([H])C([H])([H])[H])C([H])([H])[H])C(C([H])([H])[H])(C([H])([H])[H])C([H])([H])[H])C([H])(C(=O)N([H])C2([H])c4c([H])c([H])c([H])c([H])c4C([H])([H])C([H])([H])C2([H])[H])C3([H])[H])C([H])([H])C([H])([H])[H])nc1C([H])([H])N([H])C(=O)N1C([H])([H])C([H])([H])C([H])([H])C([H])(n2nc(-c3c([H])c([H])c(Oc4c([H])c([H])c(F)c([H])c4F)c([H])c3[H])c(C(=O)N([H])[H])c2N([H])[H])C1([H])[H]

$$$$
26:0:0
     RDKit          3D

 97105  0  0  1  0  0  0  0  0999 V2000
  -30.2340  -18.2160   20.4180 C   0  0  0  0  0  0  0  0  0  0  0  0
  -31.2870  -19.3060   18.8100 C   0  0  0  0  0  0  0  0  0  0  0  0
  -29.7820  -20.3900   20.0140 C   0  0  0  0  0  0  0  0  0  0  0  0
  -31.1230  -18.1530   19.4360 N   0  0  0  0  0  4  0  0  0  0  0  0
  -29.5000  -19.3030   20.7420 N   0  0  0  0  0  0  0  0  0  0  0  0
  -30.6640  -20.4480   19.0320 N   0  0  0  0  0  2  0  0  0  0  0  0
  -32.2580  -19.3720   17.8330 N   0  0  0  0  0  0  0  0  0  0  0  0
  -29.0360  -21.5600   20.2750 N   0  0  0  0  0  0  0  0  0  0  0  0
  -32.3750  -20.2850   17.4120 H   0  0  0  0  0  0  0  0  0  0  0  0
  -28.2820  -21.3530   20.9210 H   0  0  0  0  0  0  0  0  0  0  0  0
  -34.5670  -18.8800   17.0860 C   0  0  0  0  0  1  0  0  0  0  0  0
  -32.6150  -17.4490   16.3290 C   0  0  0  0  0  1  0  0  0  0  0  0
  -33.1890  -18.3080   17.4670 C   0  0  0  0  0  3  0  0  0  0  0  0
  -30.5150  -23.4530   19.3470 C   0  0  0  0  0  1  0  0  0  0  0  0
  -29.4790  -22.9890   20.3990 C   0  0  0  0  0  3  0  0  0  0  0  0
  -28.2830  -24.0300   20.3880 C   0  0  0  0  0  2  0  0  0  0  0  0
  -28.5450  -25.4670   20.9950 C   0  0  0  0  0  2  0  0  0  0  0  0
  -28.4300  -26.6420   20.1460 O   0  0  0  0  0  0  0  0  0  0  0  0
  -24.5860  -31.8930   23.2170 C   0  0  0  0  0  0  0  0  0  0  0  0
  -27.2620  -27.3890   20.2070 C   0  0  0  0  0  0  0  0  0  0  0  0
  -23.3960  -30.4720   21.5810 C   0  0  0  0  0  3  0  0  0  0  0  0
  -24.8660  -28.9200   20.1790 C   0  0  0  0  0  0  0  0  0  0  0  0
  -25.9240  -30.8280   21.3950 C   0  0  0  0  0  2  0  0  0  0  0  0
  -26.0210  -29.4460   20.7700 C   0  0  0  0  0  0  0  0  0  0  0  0
  -27.2260  -28.6920   20.7720 C   0  0  0  0  0  3  0  0  0  0  0  0
  -26.0880  -26.8830   19.6140 C   0  0  0  0  0  3  0  0  0  0  0  0
  -24.8990  -27.6420   19.5930 C   0  0  0  0  0  3  0  0  0  0  0  0
  -23.6140  -29.7760   20.2110 C   0  0  0  0  0  2  0  0  0  0  0  0
  -24.6520  -31.0820   22.1220 N   0  0  0  0  0  0  0  0  0  0  0  0
  -23.5000  -32.1620   23.7490 O   0  0  0  0  0  0  0  0  0  0  0  0
  -22.7410  -29.4590   22.5470 C   0  0  0  0  0  0  0  0  0  0  0  0
  -21.4160  -29.2780   22.4160 N   0  0  0  0  0  0  0  0  0  0  0  0
  -23.4190  -28.8400   23.3690 O   0  0  0  0  0  0  0  0  0  0  0  0
  -20.9340  -29.8230   21.7150 H   0  0  0  0  0  0  0  0  0  0  0  0
  -18.0330  -28.1030   22.9200 C   0  0  0  0  0  0  0  0  0  0  0  0
  -20.5930  -28.3430   23.1850 C   0  0  0  0  0  3  0  0  0  0  0  0
  -20.6870  -26.9150   22.6010 C   0  0  0  0  0  2  0  0  0  0  0  0
  -19.5780  -26.6020   21.5920 C   0  0  0  0  0  2  0  0  0  0  0  0
  -18.1970  -26.7550   22.2400 C   0  0  0  0  0  2  0  0  0  0  0  0
  -19.1580  -28.8550   23.3500 C   0  0  0  0  0  0  0  0  0  0  0  0
  -18.9520  -30.1190   23.9450 C   0  0  0  0  0  3  0  0  0  0  0  0
  -17.6520  -30.6320   24.1130 C   0  0  0  0  0  3  0  0  0  0  0  0
  -16.5400  -29.8740   23.7070 C   0  0  0  0  0  3  0  0  0  0  0  0
  -16.7310  -28.6120   23.1180 C   0  0  0  0  0  3  0  0  0  0  0  0
  -25.8630  -32.5340   23.8440 C   0  0  0  0  0  3  0  0  0  0  0  0
  -25.5420  -33.9300   24.1660 N   0  0  0  0  0  0  0  0  0  0  0  0
  -25.8760  -34.9830   23.4110 C   0  0  0  0  0  0  0  0  0  0  0  0
  -26.5620  -34.8800   22.3870 O   0  0  0  0  0  0  0  0  0  0  0  0
  -24.9360  -34.0810   24.9600 H   0  0  0  0  0  0  0  0  0  0  0  0
  -24.1470  -36.7680   23.0290 C   0  0  0  0  0  1  0  0  0  0  0  0
  -25.3750  -36.3680   23.8600 C   0  0  0  0  0  3  0  0  0  0  0  0
  -27.4880  -37.2600   24.7300 C   0  0  0  0  0  1  0  0  0  0  0  0
  -26.4020  -37.4280   23.7680 N   0  0  0  0  0  0  0  0  0  0  0  0
  -25.9890  -38.3450   23.9120 H   0  0  0  0  0  0  0  0  0  0  0  0
  -26.3790  -31.7690   25.1250 C   0  0  1  0  0  0  0  0  0  0  0  0
  -25.2810  -31.5160   26.1840 C   0  0  0  0  0  1  0  0  0  0  0  0
  -26.9800  -30.4000   24.7330 C   0  0  0  0  0  1  0  0  0  0  0  0
  -27.5180  -32.5760   25.7890 C   0  0  0  0  0  1  0  0  0  0  0  0
  -30.2280  -16.9950   21.3760 C   0  0  0  0  0  2  0  0  0  0  0  0
  -30.6170  -14.6160   20.4780 C   0  0  0  0  0  0  0  0  0  0  0  0
  -30.3920  -12.4130   19.3540 C   0  0  0  0  0  2  0  0  0  0  0  0
  -29.4410  -12.5440   18.1460 C   0  0  0  0  0  2  0  0  0  0  0  0
  -27.9670  -12.3960   18.5780 C   0  0  0  0  0  2  0  0  0  0  0  0
  -27.6110  -13.2560   19.8190 C   0  0  0  0  0  3  0  0  0  0  0  0
  -28.6680  -13.0800   20.9320 C   0  0  0  0  0  2  0  0  0  0  0  0
  -29.9770  -13.4170   20.3490 N   0  0  0  0  0  0  0  0  0  0  0  0
  -31.7900  -14.7730   20.1380 O   0  0  0  0  0  0  0  0  0  0  0  0
  -29.8350  -15.6540   20.8740 N   0  0  0  0  0  0  0  0  0  0  0  0
  -28.8630  -15.4310   21.0210 H   0  0  0  0  0  0  0  0  0  0  0  0
  -25.2130  -13.8670   20.5160 C   0  0  0  0  0  0  0  0  0  0  0  0
  -24.1400  -13.0980   20.8790 C   0  0  0  0  0  0  0  0  0  0  0  0
  -24.6020  -11.7460   20.8610 C   0  0  0  0  0  0  0  0  0  0  0  0
  -26.2580  -12.9830   20.2960 N   0  0  0  0  0  0  0  0  0  0  0  0
  -25.8950  -11.7020   20.5640 N   0  0  0  0  0  0  0  0  0  0  0  0
  -23.8720  -10.4840   21.0510 C   0  0  0  0  0  0  0  0  0  0  0  0
  -24.2980   -9.5180   21.9860 C   0  0  0  0  0  3  0  0  0  0  0  0
  -23.5710   -8.3200   22.1620 C   0  0  0  0  0  3  0  0  0  0  0  0
  -22.4000   -8.0840   21.4010 C   0  0  0  0  0  0  0  0  0  0  0  0
  -21.9930   -9.0390   20.4540 C   0  0  0  0  0  3  0  0  0  0  0  0
  -22.7220  -10.2280   20.2770 C   0  0  0  0  0  3  0  0  0  0  0  0
  -21.6420   -6.9410   21.4880 O   0  0  0  0  0  0  0  0  0  0  0  0
  -21.5940   -6.1960   22.6390 C   0  0  0  0  0  0  0  0  0  0  0  0
  -21.1660   -6.7500   23.8660 C   0  0  0  0  0  3  0  0  0  0  0  0
  -21.0640   -5.9330   25.0090 C   0  0  0  0  0  3  0  0  0  0  0  0
  -21.3760   -4.5630   24.9260 C   0  0  0  0  0  0  0  0  0  0  0  0
  -21.7940   -4.0090   23.7040 C   0  0  0  0  0  3  0  0  0  0  0  0
  -21.8990   -4.8230   22.5640 C   0  0  0  0  0  0  0  0  0  0  0  0
  -22.2830   -4.2790   21.3840 F   0  0  0  0  0  0  0  0  0  0  0  0
  -21.2700   -3.7760   26.0220 F   0  0  0  0  0  0  0  0  0  0  0  0
  -22.7420  -13.5770   21.1360 C   0  0  0  0  0  0  0  0  0  0  0  0
  -22.0040  -12.8820   21.9950 N   0  0  0  0  0  0  0  0  0  0  0  0
  -22.3090  -14.6030   20.6130 O   0  0  0  0  0  0  0  0  0  0  0  0
  -22.3620  -12.0460   22.4370 H   0  0  0  0  0  0  0  0  0  0  0  0
  -21.0650  -13.1840   22.2110 H   0  0  0  0  0  0  0  0  0  0  0  0
  -25.3820  -15.2370   20.3290 N   0  0  0  0  0  0  0  0  0  0  0  0
  -24.6160  -15.8960   20.4160 H   0  0  0  0  0  0  0  0  0  0  0  0
  -26.2230  -15.6640   19.9600 H   0  0  0  0  0  0  0  0  0  0  0  0
  1  5  1  0
  1 59  1  0
  2  6  1  0
  2  4  2  0
  3  8  1  0
  3  5  2  0
  4  1  2  0
  6  3  1  0
  7  2  1  0
  8 15  1  0
  8 10  1  0
  9  7  1  0
 11 13  1  0
 12 13  1  0
 13  7  1  0
 15 14  1  0
 16 15  1  0
 16 17  1  0
 18 20  1  0
 18 17  1  0
 19 30  2  0
 20 25  1  0
 21 29  1  0
 21 31  1  0
 22 28  1  0
 22 24  1  0
 23 29  1  0
 24 25  2  0
 24 23  1  0
 26 20  2  0
 27 26  1  0
 27 22  2  0
 28 21  1  0
 29 19  1  0
 31 33  2  0
 32 31  1  0
 34 32  1  0
 35 44  2  0
 35 40  1  0
 36 32  1  0
 36 40  1  0
 37 36  1  0
 38 39  1  0
 38 37  1  0
 39 35  1  0
 40 41  2  0
 41 42  1  0
 43 42  2  0
 44 43  1  0
 45 19  1  0
 45 46  1  0
 45 55  1  0
 46 49  1  0
 47 51  1  0
 47 46  1  0
 48 47  2  0
 51 50  1  0
 53 51  1  0
 53 54  1  0
 53 52  1  0
 55 58  1  1
 55 56  1  0
 57 55  1  0
 60 68  1  0
 61 66  1  0
 62 63  1  0
 62 61  1  0
 64 63  1  0
 64 73  1  0
 64 65  1  0
 66 60  1  0
 66 65  1  0
 67 60  2  0
 68 69  1  0
 68 59  1  0
 70 71  2  0
 71 90  1  0
 72 71  1  0
 72 75  1  0
 73 70  1  0
 73 74  1  0
 74 72  2  0
 75 76  1  0
 76 77  2  0
 78 81  1  0
 78 77  1  0
 79 78  2  0
 80 79  1  0
 80 75  2  0
 81 82  1  0
 82 83  1  0
 83 84  2  0
 85 84  1  0
 85 89  1  0
 86 85  2  0
 87 82  2  0
 87 86  1  0
 88 87  1  0
 90 91  1  0
 91 94  1  0
 91 93  1  0
 92 90  2  0
 95 96  1  0
 95 70  1  0
 97 95  1  0
M  ISO  4  17 101  18 101  60 100  68 100
M  END
>  <TORSDO>  (27) 
F 21

>  <SCORE>  (27) 
-13.704

>  <name>  (27) 
26

>  <ligand_id>  (27) 
26

>  <original_smiles>  (27) 
[H]c1c([H])c([H])c2c(c1[H])C([H])([H])C([H])([H])C([H])([H])C2([H])N([H])C(=O)C1([H])N(C(=O)C([H])(N([H])C(=O)C([H])(N([H])C([H])([H])[H])C([H])([H])[H])C(C([H])([H])[H])(C([H])([H])[H])C([H])([H])[H])C([H])([H])c2c([H])c(OC([H])([H])C([H])([H])C([H])(N([H])c3nc(N([H])C([H])(C([H])([H])[H])C([H])([H])[H])nc(C([H])([H])N([H])C(=O)N4C([H])([H])C([H])([H])C([H])([H])C([H])(n5nc(-c6c([H])c([H])c(Oc7c([H])c([H])c(F)c([H])c7F)c([H])c6[H])c(C(=O)N([H])[H])c5N([H])[H])C4([H])[H])n3)C([H])([H])[H])c([H])c([H])c2C1([H])[H]

>  <smiles>  (27) 
[H]c1c([H])c([H])c2c(c1[H])C([H])([H])C([H])([H])C([H])([H])C2([H])N([H])C(=O)C1([H])N(C(=O)C([H])(N([H])C(=O)C([H])(N([H])C([H])([H])[H])C([H])([H])[H])C(C([H])([H])[H])(C([H])([H])[H])C([H])([H])[H])C([H])([H])c2c([H])c(OC([H])([H])C([H])([H])C([H])(N([H])c3nc(N([H])C([H])(C([H])([H])[H])C([H])([H])[H])nc(C([H])([H])N([H])C(=O)N4C([H])([H])C([H])([H])C([H])([H])C([H])(n5nc(-c6c([H])c([H])c(Oc7c([H])c([H])c(F)c([H])c7F)c([H])c6[H])c(C(=O)N([H])[H])c5N([H])[H])C4([H])[H])n3)C([H])([H])[H])c([H])c([H])c2C1([H])[H]

$$$$
27:0:0
     RDKit          3D

 95103  0  0  1  0  0  0  0  0999 V2000
  -28.4980  -19.2870   20.9680 C   0  0  0  0  0  3  0  0  0  0  0  0
  -30.3840  -17.9460   21.0830 C   0  0  0  0  0  0  0  0  0  0  0  0
  -29.2820  -20.4580   20.7740 C   0  0  0  0  0  0  0  0  0  0  0  0
  -31.1830  -19.1110   20.8840 C   0  0  0  0  0  0  0  0  0  0  0  0
  -29.0300  -18.0410   21.1100 N   0  0  0  0  0  0  0  0  0  0  0  0
  -30.6400  -20.3390   20.7240 N   0  0  0  0  0  0  0  0  0  0  0  0
  -32.5730  -19.0910   20.8730 N   0  0  0  0  0  0  0  0  0  0  0  0
  -33.0770  -18.2820   21.2180 H   0  0  0  0  0  0  0  0  0  0  0  0
  -33.0810  -19.9640   20.9380 H   0  0  0  0  0  0  0  0  0  0  0  0
  -28.9810  -22.8620   20.1090 C   0  0  0  0  0  0  0  0  0  0  0  0
  -28.6000  -21.7200   20.7270 N   0  0  0  0  0  0  0  0  0  0  0  0
  -29.8770  -22.8760   19.2600 O   0  0  0  0  0  0  0  0  0  0  0  0
  -27.7320  -21.7570   21.2450 H   0  0  0  0  0  0  0  0  0  0  0  0
  -28.2310  -24.1830   20.4580 C   0  0  0  0  0  2  0  0  0  0  0  0
  -28.5830  -25.4230   19.5640 C   0  0  0  0  0  2  0  0  0  0  0  0
  -28.4350  -26.7270   20.1740 O   0  0  0  0  0  0  0  0  0  0  0  0
  -24.6060  -31.8980   23.2190 C   0  0  0  0  0  0  0  0  0  0  0  0
  -27.2430  -27.4330   20.1390 C   0  0  0  0  0  0  0  0  0  0  0  0
  -23.3930  -30.4930   21.5810 C   0  0  0  0  0  3  0  0  0  0  0  0
  -24.8470  -28.9580   20.1480 C   0  0  0  0  0  0  0  0  0  0  0  0
  -25.9190  -30.8540   21.3720 C   0  0  0  0  0  2  0  0  0  0  0  0
  -26.0050  -29.4790   20.7340 C   0  0  0  0  0  0  0  0  0  0  0  0
  -27.2020  -28.7230   20.7290 C   0  0  0  0  0  3  0  0  0  0  0  0
  -26.0600  -26.9280   19.5550 C   0  0  0  0  0  3  0  0  0  0  0  0
  -24.8730  -27.6850   19.5520 C   0  0  0  0  0  3  0  0  0  0  0  0
  -23.5990  -29.8110   20.2010 C   0  0  0  0  0  2  0  0  0  0  0  0
  -24.6580  -31.1010   22.1140 N   0  0  0  0  0  0  0  0  0  0  0  0
  -23.5270  -32.1640   23.7670 O   0  0  0  0  0  0  0  0  0  0  0  0
  -22.7520  -29.4710   22.5490 C   0  0  0  0  0  0  0  0  0  0  0  0
  -21.4280  -29.2810   22.4300 N   0  0  0  0  0  0  0  0  0  0  0  0
  -23.4450  -28.8490   23.3590 O   0  0  0  0  0  0  0  0  0  0  0  0
  -20.9300  -29.8390   21.7500 H   0  0  0  0  0  0  0  0  0  0  0  0
  -18.0630  -28.0690   22.9510 C   0  0  0  0  0  0  0  0  0  0  0  0
  -20.6220  -28.3400   23.2080 C   0  0  0  0  0  3  0  0  0  0  0  0
  -20.7280  -26.9080   22.6320 C   0  0  0  0  0  2  0  0  0  0  0  0
  -19.6210  -26.5800   21.6240 C   0  0  0  0  0  2  0  0  0  0  0  0
  -18.2420  -26.7190   22.2770 C   0  0  0  0  0  2  0  0  0  0  0  0
  -19.1810  -28.8360   23.3750 C   0  0  0  0  0  0  0  0  0  0  0  0
  -18.9590  -30.0990   23.9670 C   0  0  0  0  0  3  0  0  0  0  0  0
  -17.6530  -30.5950   24.1400 C   0  0  0  0  0  3  0  0  0  0  0  0
  -16.5500  -29.8240   23.7310 C   0  0  0  0  0  3  0  0  0  0  0  0
  -16.7550  -28.5640   23.1420 C   0  0  0  0  0  3  0  0  0  0  0  0
  -25.8930  -32.5330   23.8310 C   0  0  0  0  0  3  0  0  0  0  0  0
  -26.4210  -31.7680   25.1080 C   0  0  1  0  0  0  0  0  0  0  0  0
  -25.3350  -31.5320   26.1810 C   0  0  0  0  0  1  0  0  0  0  0  0
  -27.0070  -30.3900   24.7180 C   0  0  0  0  0  1  0  0  0  0  0  0
  -27.5690  -32.5700   25.7630 C   0  0  0  0  0  1  0  0  0  0  0  0
  -25.5820  -33.9300   24.1560 N   0  0  0  0  0  0  0  0  0  0  0  0
  -25.9130  -34.9820   23.3930 C   0  0  0  0  0  0  0  0  0  0  0  0
  -26.5810  -34.8760   22.3610 O   0  0  0  0  0  0  0  0  0  0  0  0
  -24.9850  -34.0850   24.9550 H   0  0  0  0  0  0  0  0  0  0  0  0
  -24.1900  -36.7800   23.0240 C   0  0  0  0  0  1  0  0  0  0  0  0
  -25.4240  -36.3720   23.8460 C   0  0  0  0  0  3  0  0  0  0  0  0
  -27.5500  -37.2580   24.6970 C   0  0  0  0  0  1  0  0  0  0  0  0
  -26.4590  -37.4230   23.7400 N   0  0  0  0  0  0  0  0  0  0  0  0
  -26.0510  -38.3440   23.8790 H   0  0  0  0  0  0  0  0  0  0  0  0
  -31.0050  -16.5810   21.4360 C   0  0  0  0  0  2  0  0  0  0  0  0
  -30.7500  -14.4630   20.1380 C   0  0  0  0  0  0  0  0  0  0  0  0
  -30.3170  -12.3650   18.9080 C   0  0  0  0  0  2  0  0  0  0  0  0
  -29.3050  -12.6080   17.7720 C   0  0  0  0  0  2  0  0  0  0  0  0
  -27.8620  -12.4700   18.2910 C   0  0  0  0  0  2  0  0  0  0  0  0
  -27.6140  -13.2830   19.5890 C   0  0  0  0  0  3  0  0  0  0  0  0
  -28.7310  -13.0170   20.6250 C   0  0  0  0  0  2  0  0  0  0  0  0
  -30.0240  -13.3220   19.9890 N   0  0  0  0  0  0  0  0  0  0  0  0
  -31.7810  -14.6780   19.4960 O   0  0  0  0  0  0  0  0  0  0  0  0
  -30.2810  -15.3650   21.0190 N   0  0  0  0  0  0  0  0  0  0  0  0
  -29.4260  -15.1450   21.5060 H   0  0  0  0  0  0  0  0  0  0  0  0
  -25.2710  -13.8950   20.4530 C   0  0  0  0  0  0  0  0  0  0  0  0
  -24.2180  -13.1260   20.8670 C   0  0  0  0  0  0  0  0  0  0  0  0
  -24.6600  -11.7720   20.7750 C   0  0  0  0  0  0  0  0  0  0  0  0
  -26.2900  -13.0110   20.1410 N   0  0  0  0  0  0  0  0  0  0  0  0
  -25.9300  -11.7250   20.3910 N   0  0  0  0  0  0  0  0  0  0  0  0
  -23.9340  -10.5120   20.9810 C   0  0  0  0  0  0  0  0  0  0  0  0
  -24.3950   -9.5320   21.8880 C   0  0  0  0  0  3  0  0  0  0  0  0
  -23.6700   -8.3380   22.0790 C   0  0  0  0  0  3  0  0  0  0  0  0
  -22.4680   -8.1140   21.3680 C   0  0  0  0  0  0  0  0  0  0  0  0
  -22.0250   -9.0820   20.4500 C   0  0  0  0  0  3  0  0  0  0  0  0
  -22.7500  -10.2700   20.2550 C   0  0  0  0  0  3  0  0  0  0  0  0
  -21.7110   -6.9730   21.4730 O   0  0  0  0  0  0  0  0  0  0  0  0
  -21.6840   -6.2300   22.6270 C   0  0  0  0  0  0  0  0  0  0  0  0
  -21.2630   -6.7800   23.8570 C   0  0  0  0  0  3  0  0  0  0  0  0
  -21.1810   -5.9640   25.0020 C   0  0  0  0  0  3  0  0  0  0  0  0
  -21.5140   -4.5980   24.9190 C   0  0  0  0  0  0  0  0  0  0  0  0
  -21.9290   -4.0470   23.6950 C   0  0  0  0  0  3  0  0  0  0  0  0
  -22.0120   -4.8600   22.5510 C   0  0  0  0  0  0  0  0  0  0  0  0
  -22.3910   -4.3220   21.3670 F   0  0  0  0  0  0  0  0  0  0  0  0
  -21.4300   -3.8110   26.0170 F   0  0  0  0  0  0  0  0  0  0  0  0
  -22.8450  -13.6100   21.2350 C   0  0  0  0  0  0  0  0  0  0  0  0
  -22.1630  -12.8980   22.1260 N   0  0  0  0  0  0  0  0  0  0  0  0
  -22.3900  -14.6540   20.7700 O   0  0  0  0  0  0  0  0  0  0  0  0
  -22.5450  -12.0510   22.5230 H   0  0  0  0  0  0  0  0  0  0  0  0
  -21.2450  -13.2020   22.4140 H   0  0  0  0  0  0  0  0  0  0  0  0
  -25.4440  -15.2690   20.2940 N   0  0  0  0  0  0  0  0  0  0  0  0
  -24.7000  -15.9360   20.4680 H   0  0  0  0  0  0  0  0  0  0  0  0
  -26.2940  -15.7010   19.9520 H   0  0  0  0  0  0  0  0  0  0  0  0
  1  5  1  0
  2  5  2  0
  2 57  1  0
  3  1  2  0
  4  2  1  0
  6  3  1  0
  6  4  2  0
  7  4  1  0
  7  9  1  0
  7  8  1  0
 10 14  1  0
 10 11  1  0
 11  3  1  0
 11 13  1  0
 12 10  2  0
 15 16  1  0
 15 14  1  0
 17 28  2  0
 18 16  1  0
 18 23  1  0
 19 27  1  0
 19 29  1  0
 20 26  1  0
 20 22  1  0
 21 27  1  0
 22 21  1  0
 23 22  2  0
 24 18  2  0
 25 24  1  0
 25 20  2  0
 26 19  1  0
 27 17  1  0
 29 31  2  0
 30 29  1  0
 32 30  1  0
 33 42  2  0
 33 38  1  0
 34 30  1  0
 34 38  1  0
 35 34  1  0
 36 37  1  0
 36 35  1  0
 37 33  1  0
 38 39  2  0
 39 40  1  0
 41 40  2  0
 42 41  1  0
 43 17  1  0
 43 48  1  0
 43 44  1  0
 44 47  1  1
 44 45  1  0
 46 44  1  0
 48 51  1  0
 49 53  1  0
 49 48  1  0
 50 49  2  0
 53 52  1  0
 55 53  1  0
 55 56  1  0
 55 54  1  0
 58 66  1  0
 59 64  1  0
 60 61  1  0
 60 59  1  0
 62 61  1  0
 62 71  1  0
 62 63  1  0
 64 58  1  0
 64 63  1  0
 65 58  2  0
 66 57  1  0
 66 67  1  0
 68 69  2  0
 69 88  1  0
 70 69  1  0
 70 73  1  0
 71 72  1  0
 71 68  1  0
 72 70  2  0
 73 74  1  0
 74 75  2  0
 76 79  1  0
 76 75  1  0
 77 76  2  0
 78 77  1  0
 78 73  2  0
 79 80  1  0
 80 81  1  0
 81 82  2  0
 83 82  1  0
 83 87  1  0
 84 83  2  0
 85 80  2  0
 85 84  1  0
 86 85  1  0
 88 89  1  0
 89 92  1  0
 89 91  1  0
 90 88  2  0
 93 68  1  0
 93 94  1  0
 95 93  1  0
M  ISO  4  15 101  16 101  58 100  66 100
M  END
>  <TORSDO>  (28) 
F 20

>  <SCORE>  (28) 
-13.552

>  <name>  (28) 
27

>  <ligand_id>  (28) 
27

>  <original_smiles>  (28) 
[H]c1nc(C([H])([H])N([H])C(=O)N2C([H])([H])C([H])([H])C([H])([H])C([H])(n3nc(-c4c([H])c([H])c(Oc5c([H])c([H])c(F)c([H])c5F)c([H])c4[H])c(C(=O)N([H])[H])c3N([H])[H])C2([H])[H])c(N([H])[H])nc1N([H])C(=O)C([H])([H])C([H])([H])Oc1c([H])c([H])c2c(c1[H])C([H])([H])N(C(=O)C([H])(N([H])C(=O)C([H])(N([H])C([H])([H])[H])C([H])([H])[H])C(C([H])([H])[H])(C([H])([H])[H])C([H])([H])[H])C([H])(C(=O)N([H])C1([H])c3c([H])c([H])c([H])c([H])c3C([H])([H])C([H])([H])C1([H])[H])C2([H])[H]

>  <smiles>  (28) 
[H]c1nc(C([H])([H])N([H])C(=O)N2C([H])([H])C([H])([H])C([H])([H])C([H])(n3nc(-c4c([H])c([H])c(Oc5c([H])c([H])c(F)c([H])c5F)c([H])c4[H])c(C(=O)N([H])[H])c3N([H])[H])C2([H])[H])c(N([H])[H])nc1N([H])C(=O)C([H])([H])C([H])([H])Oc1c([H])c([H])c2c(c1[H])C([H])([H])N(C(=O)C([H])(N([H])C(=O)C([H])(N([H])C([H])([H])[H])C([H])([H])[H])C(C([H])([H])[H])(C([H])([H])[H])C([H])([H])[H])C([H])(C(=O)N([H])C1([H])c3c([H])c([H])c([H])c([H])c3C([H])([H])C([H])([H])C1([H])[H])C2([H])[H]

$$$$
28:0:0
     RDKit          3D

 93101  0  0  1  0  0  0  0  0999 V2000
  -29.5030  -21.6240   20.2310 C   0  0  2  0  0  0  0  0  0  0  0  0
  -31.9780  -22.5220   20.2820 C   0  0  0  0  0  1  0  0  0  0  0  0
  -30.8250  -21.9160   19.4590 C   0  0  0  0  0  2  0  0  0  0  0  0
  -27.0490  -20.8390   19.6850 C   0  0  0  0  0  1  0  0  0  0  0  0
  -28.4820  -21.0990   19.1820 C   0  0  0  0  0  2  0  0  0  0  0  0
  -28.9830  -22.9450   20.9120 C   0  0  0  0  0  2  0  0  0  0  0  0
  -28.7980  -24.2240   20.0360 C   0  0  0  0  0  2  0  0  0  0  0  0
  -28.3420  -25.4580   20.8600 C   0  0  0  0  0  2  0  0  0  0  0  0
  -28.4240  -26.7060   20.1460 O   0  0  0  0  0  0  0  0  0  0  0  0
  -24.5650  -31.8710   23.1990 C   0  0  0  0  0  0  0  0  0  0  0  0
  -27.2650  -27.4510   20.1400 C   0  0  0  0  0  0  0  0  0  0  0  0
  -23.3860  -30.4730   21.5340 C   0  0  0  0  0  3  0  0  0  0  0  0
  -24.8650  -28.9450   20.1220 C   0  0  0  0  0  0  0  0  0  0  0  0
  -25.9130  -30.8440   21.3710 C   0  0  0  0  0  2  0  0  0  0  0  0
  -26.0130  -29.4760   20.7250 C   0  0  0  0  0  0  0  0  0  0  0  0
  -27.2210  -28.7380   20.7260 C   0  0  0  0  0  3  0  0  0  0  0  0
  -26.1030  -26.9330   19.5340 C   0  0  0  0  0  3  0  0  0  0  0  0
  -24.9040  -27.6740   19.5230 C   0  0  0  0  0  3  0  0  0  0  0  0
  -23.6170  -29.7980   20.1550 C   0  0  0  0  0  2  0  0  0  0  0  0
  -24.6380  -31.0790   22.0930 N   0  0  0  0  0  0  0  0  0  0  0  0
  -23.4750  -32.1350   23.7280 O   0  0  0  0  0  0  0  0  0  0  0  0
  -22.7270  -29.4440   22.4820 C   0  0  0  0  0  0  0  0  0  0  0  0
  -21.4010  -29.2740   22.3510 N   0  0  0  0  0  0  0  0  0  0  0  0
  -23.4040  -28.8040   23.2880 O   0  0  0  0  0  0  0  0  0  0  0  0
  -20.9150  -29.8430   21.6730 H   0  0  0  0  0  0  0  0  0  0  0  0
  -18.0110  -28.1340   22.8660 C   0  0  0  0  0  0  0  0  0  0  0  0
  -20.5760  -28.3320   23.1080 C   0  0  0  0  0  3  0  0  0  0  0  0
  -20.6420  -26.9150   22.4930 C   0  0  0  0  0  2  0  0  0  0  0  0
  -19.5200  -26.6410   21.4850 C   0  0  0  0  0  2  0  0  0  0  0  0
  -18.1500  -26.7990   22.1520 C   0  0  0  0  0  2  0  0  0  0  0  0
  -19.1500  -28.8610   23.2990 C   0  0  0  0  0  0  0  0  0  0  0  0
  -18.9660  -30.1130   23.9250 C   0  0  0  0  0  3  0  0  0  0  0  0
  -17.6750  -30.6370   24.1220 C   0  0  0  0  0  3  0  0  0  0  0  0
  -16.5490  -29.9050   23.7050 C   0  0  0  0  0  3  0  0  0  0  0  0
  -16.7180  -28.6550   23.0820 C   0  0  0  0  0  3  0  0  0  0  0  0
  -25.8400  -32.5040   23.8380 C   0  0  0  0  0  3  0  0  0  0  0  0
  -25.5240  -33.9010   24.1690 N   0  0  0  0  0  0  0  0  0  0  0  0
  -25.8610  -34.9560   23.4150 C   0  0  0  0  0  0  0  0  0  0  0  0
  -26.5430  -34.8560   22.3910 O   0  0  0  0  0  0  0  0  0  0  0  0
  -24.9250  -34.0510   24.9680 H   0  0  0  0  0  0  0  0  0  0  0  0
  -24.1380  -36.7460   23.0280 C   0  0  0  0  0  1  0  0  0  0  0  0
  -25.3600  -36.3420   23.8670 C   0  0  0  0  0  3  0  0  0  0  0  0
  -27.4710  -37.2290   24.7540 C   0  0  0  0  0  1  0  0  0  0  0  0
  -26.3930  -37.3960   23.7820 N   0  0  0  0  0  0  0  0  0  0  0  0
  -25.9820  -38.3150   23.9190 H   0  0  0  0  0  0  0  0  0  0  0  0
  -26.3460  -31.7310   25.1170 C   0  0  1  0  0  0  0  0  0  0  0  0
  -25.2410  -31.4760   26.1690 C   0  0  0  0  0  1  0  0  0  0  0  0
  -26.9470  -30.3610   24.7240 C   0  0  0  0  0  1  0  0  0  0  0  0
  -27.4800  -32.5300   25.8000 C   0  0  0  0  0  1  0  0  0  0  0  0
  -29.7210  -20.5360   21.3510 C   0  0  0  0  0  2  0  0  0  0  0  0
  -29.4890  -17.9760   21.0350 C   0  0  0  0  0  3  0  0  0  0  0  0
  -31.4230  -18.8460   20.5630 C   0  0  0  0  0  3  0  0  0  0  0  0
  -30.3760  -16.9720   20.6830 C   0  0  0  0  0  0  0  0  0  0  0  0
  -31.6110  -17.5430   20.3720 N   0  0  0  0  0  0  0  0  0  0  0  0
  -30.1860  -19.1910   20.9570 N   0  0  0  0  0  0  0  0  0  0  0  0
  -30.7490  -14.5460   20.1370 C   0  0  0  0  0  0  0  0  0  0  0  0
  -30.3800  -12.4180   18.9460 C   0  0  0  0  0  2  0  0  0  0  0  0
  -29.3780  -12.6680   17.8000 C   0  0  0  0  0  2  0  0  0  0  0  0
  -27.9300  -12.5190   18.3030 C   0  0  0  0  0  2  0  0  0  0  0  0
  -27.6630  -13.3100   19.6130 C   0  0  0  0  0  3  0  0  0  0  0  0
  -28.7760  -13.0540   20.6530 C   0  0  0  0  0  2  0  0  0  0  0  0
  -30.0670  -13.3720   20.0220 N   0  0  0  0  0  0  0  0  0  0  0  0
  -31.8720  -14.6920   19.6420 O   0  0  0  0  0  0  0  0  0  0  0  0
  -30.0540  -15.5760   20.6760 N   0  0  0  0  0  0  0  0  0  0  0  0
  -29.1430  -15.3290   21.0310 H   0  0  0  0  0  0  0  0  0  0  0  0
  -25.3040  -13.8930   20.4550 C   0  0  0  0  0  0  0  0  0  0  0  0
  -24.2570  -13.1110   20.8600 C   0  0  0  0  0  0  0  0  0  0  0  0
  -24.7180  -11.7610   20.7760 C   0  0  0  0  0  0  0  0  0  0  0  0
  -26.3370  -13.0210   20.1530 N   0  0  0  0  0  0  0  0  0  0  0  0
  -25.9920  -11.7310   20.4040 N   0  0  0  0  0  0  0  0  0  0  0  0
  -24.0030  -10.4930   20.9740 C   0  0  0  0  0  0  0  0  0  0  0  0
  -24.4520   -9.5310   21.9050 C   0  0  0  0  0  3  0  0  0  0  0  0
  -23.7390   -8.3270   22.0910 C   0  0  0  0  0  3  0  0  0  0  0  0
  -22.5620   -8.0760   21.3450 C   0  0  0  0  0  0  0  0  0  0  0  0
  -22.1330   -9.0280   20.4020 C   0  0  0  0  0  3  0  0  0  0  0  0
  -22.8480  -10.2230   20.2150 C   0  0  0  0  0  3  0  0  0  0  0  0
  -21.8180   -6.9260   21.4400 O   0  0  0  0  0  0  0  0  0  0  0  0
  -21.7480   -6.2090   22.6080 C   0  0  0  0  0  0  0  0  0  0  0  0
  -21.2410   -6.7740   23.7980 C   0  0  0  0  0  3  0  0  0  0  0  0
  -21.1210   -5.9810   24.9570 C   0  0  0  0  0  3  0  0  0  0  0  0
  -21.4980   -4.6250   24.9270 C   0  0  0  0  0  0  0  0  0  0  0  0
  -21.9970   -4.0600   23.7400 C   0  0  0  0  0  3  0  0  0  0  0  0
  -22.1190   -4.8500   22.5830 C   0  0  0  0  0  0  0  0  0  0  0  0
  -22.5810   -4.2950   21.4370 F   0  0  0  0  0  0  0  0  0  0  0  0
  -21.3750   -3.8620   26.0370 F   0  0  0  0  0  0  0  0  0  0  0  0
  -22.8740  -13.5780   21.2120 C   0  0  0  0  0  0  0  0  0  0  0  0
  -22.1850  -12.8540   22.0870 N   0  0  0  0  0  0  0  0  0  0  0  0
  -22.4130  -14.6200   20.7450 O   0  0  0  0  0  0  0  0  0  0  0  0
  -22.5710  -12.0110   22.4870 H   0  0  0  0  0  0  0  0  0  0  0  0
  -21.2600  -13.1470   22.3630 H   0  0  0  0  0  0  0  0  0  0  0  0
  -25.4580  -15.2680   20.2990 N   0  0  0  0  0  0  0  0  0  0  0  0
  -24.6920  -15.9150   20.4550 H   0  0  0  0  0  0  0  0  0  0  0  0
  -26.2790  -15.7140   19.9090 H   0  0  0  0  0  0  0  0  0  0  0  0
  1  6  1  1
  1 50  1  0
  3  1  1  0
  3  2  1  0
  5  4  1  0
  5  1  1  0
  7  8  1  0
  7  6  1  0
  9  8  1  0
 10 21  2  0
 11  9  1  0
 11 16  1  0
 12 20  1  0
 12 22  1  0
 13 19  1  0
 13 15  1  0
 14 20  1  0
 15 16  2  0
 15 14  1  0
 17 11  2  0
 18 17  1  0
 18 13  2  0
 19 12  1  0
 20 10  1  0
 22 24  2  0
 23 22  1  0
 25 23  1  0
 26 35  2  0
 26 31  1  0
 27 23  1  0
 27 31  1  0
 28 27  1  0
 29 30  1  0
 29 28  1  0
 30 26  1  0
 31 32  2  0
 32 33  1  0
 34 33  2  0
 35 34  1  0
 36 10  1  0
 36 37  1  0
 36 46  1  0
 37 40  1  0
 38 42  1  0
 38 37  1  0
 39 38  2  0
 42 41  1  0
 44 42  1  0
 44 45  1  0
 44 43  1  0
 46 49  1  1
 46 47  1  0
 48 46  1  0
 52 55  1  0
 53 51  2  0
 54 52  2  0
 54 53  1  0
 55 51  1  0
 55 50  1  0
 56 64  1  0
 57 62  1  0
 58 59  1  0
 58 57  1  0
 60 59  1  0
 60 69  1  0
 60 61  1  0
 62 56  1  0
 62 61  1  0
 63 56  2  0
 64 53  1  0
 64 65  1  0
 66 67  2  0
 67 86  1  0
 68 67  1  0
 68 71  1  0
 69 70  1  0
 69 66  1  0
 70 68  2  0
 71 72  1  0
 72 73  2  0
 74 77  1  0
 74 73  1  0
 75 74  2  0
 76 75  1  0
 76 71  2  0
 77 78  1  0
 78 79  1  0
 79 80  2  0
 81 80  1  0
 81 85  1  0
 82 81  2  0
 83 78  2  0
 83 82  1  0
 84 83  1  0
 86 87  1  0
 87 90  1  0
 87 89  1  0
 88 86  2  0
 91 92  1  0
 91 66  1  0
 93 91  1  0
M  ISO  4   8 101   9 101  56 100  64 100
M  END
>  <TORSDO>  (29) 
F 23

>  <SCORE>  (29) 
-12.562

>  <name>  (29) 
28

>  <ligand_id>  (29) 
28

>  <original_smiles>  (29) 
[H]c1c([H])c([H])c2c(c1[H])C([H])([H])C([H])([H])C([H])([H])C2([H])N([H])C(=O)C1([H])N(C(=O)C([H])(N([H])C(=O)C([H])(N([H])C([H])([H])[H])C([H])([H])[H])C(C([H])([H])[H])(C([H])([H])[H])C([H])([H])[H])C([H])([H])c2c([H])c(OC([H])([H])C([H])([H])C([H])([H])C(C([H])([H])n3c([H])nc(N([H])C(=O)N4C([H])([H])C([H])([H])C([H])([H])C([H])(n5nc(-c6c([H])c([H])c(Oc7c([H])c([H])c(F)c([H])c7F)c([H])c6[H])c(C(=O)N([H])[H])c5N([H])[H])C4([H])[H])c3[H])(C([H])([H])C([H])([H])[H])C([H])([H])C([H])([H])[H])c([H])c([H])c2C1([H])[H]

>  <smiles>  (29) 
[H]c1c([H])c([H])c2c(c1[H])C([H])([H])C([H])([H])C([H])([H])C2([H])N([H])C(=O)C1([H])N(C(=O)C([H])(N([H])C(=O)C([H])(N([H])C([H])([H])[H])C([H])([H])[H])C(C([H])([H])[H])(C([H])([H])[H])C([H])([H])[H])C([H])([H])c2c([H])c(OC([H])([H])C([H])([H])C([H])([H])C(C([H])([H])n3c([H])nc(N([H])C(=O)N4C([H])([H])C([H])([H])C([H])([H])C([H])(n5nc(-c6c([H])c([H])c(Oc7c([H])c([H])c(F)c([H])c7F)c([H])c6[H])c(C(=O)N([H])[H])c5N([H])[H])C4([H])[H])c3[H])(C([H])([H])C([H])([H])[H])C([H])([H])C([H])([H])[H])c([H])c([H])c2C1([H])[H]

$$$$
29:0:0
     RDKit          3D

 97105  0  0  1  0  0  0  0  0999 V2000
  -28.9860  -21.8550   19.8530 C   0  0  0  0  0  3  0  0  0  0  0  0
  -29.6020  -20.4830   19.9270 N   0  0  0  0  0  0  0  0  0  0  0  0
  -29.9150  -20.2620   20.8650 H   0  0  0  0  0  0  0  0  0  0  0  0
  -28.5910  -18.3160   17.2380 C   0  0  0  0  0  3  0  0  0  0  0  0
  -29.4500  -17.9450   19.5200 C   0  0  0  0  0  0  0  0  0  0  0  0
  -29.3380  -19.3020   19.1610 C   0  0  0  0  0  0  0  0  0  0  0  0
  -28.9560  -19.4480   17.8240 N   0  0  0  0  0  0  0  0  0  0  0  0
  -28.8010  -16.9160   18.2540 S   0  0  0  0  0  0  0  0  0  0  0  0
  -30.0060  -17.2480   20.7730 C   0  0  0  0  0  2  0  0  0  0  0  0
  -30.6640  -14.7290   20.7810 C   0  0  0  0  0  0  0  0  0  0  0  0
  -30.5700  -12.4680   19.7930 C   0  0  0  0  0  2  0  0  0  0  0  0
  -29.7010  -12.5720   18.5190 C   0  0  0  0  0  2  0  0  0  0  0  0
  -28.2040  -12.4070   18.8660 C   0  0  0  0  0  2  0  0  0  0  0  0
  -27.7580  -13.2970   20.0580 C   0  0  0  0  0  3  0  0  0  0  0  0
  -28.7480  -13.1520   21.2390 C   0  0  0  0  0  2  0  0  0  0  0  0
  -30.0850  -13.4960   20.7290 N   0  0  0  0  0  0  0  0  0  0  0  0
  -31.8590  -14.9090   20.5330 O   0  0  0  0  0  0  0  0  0  0  0  0
  -29.7910  -15.7670   20.8880 N   0  0  0  0  0  0  0  0  0  0  0  0
  -28.8320  -15.4810   21.0150 H   0  0  0  0  0  0  0  0  0  0  0  0
  -25.3220  -13.9320   20.5920 C   0  0  0  0  0  0  0  0  0  0  0  0
  -24.2270  -13.1670   20.9010 C   0  0  0  0  0  0  0  0  0  0  0  0
  -24.6910  -11.8170   20.9350 C   0  0  0  0  0  0  0  0  0  0  0  0
  -26.3780  -13.0400   20.4570 N   0  0  0  0  0  0  0  0  0  0  0  0
  -25.9980  -11.7650   20.7170 N   0  0  0  0  0  0  0  0  0  0  0  0
  -23.9550  -10.5570   21.0860 C   0  0  0  0  0  0  0  0  0  0  0  0
  -24.3340   -9.5940   22.0450 C   0  0  0  0  0  3  0  0  0  0  0  0
  -23.5930   -8.4050   22.1970 C   0  0  0  0  0  3  0  0  0  0  0  0
  -22.4590   -8.1680   21.3840 C   0  0  0  0  0  0  0  0  0  0  0  0
  -22.1030   -9.1170   20.4110 C   0  0  0  0  0  3  0  0  0  0  0  0
  -22.8450  -10.2980   20.2570 C   0  0  0  0  0  3  0  0  0  0  0  0
  -21.6950   -7.0290   21.4420 O   0  0  0  0  0  0  0  0  0  0  0  0
  -21.6030   -6.2830   22.5890 C   0  0  0  0  0  0  0  0  0  0  0  0
  -21.1470   -6.8370   23.8060 C   0  0  0  0  0  3  0  0  0  0  0  0
  -21.0090   -6.0220   24.9450 C   0  0  0  0  0  3  0  0  0  0  0  0
  -21.3080   -4.6490   24.8700 C   0  0  0  0  0  0  0  0  0  0  0  0
  -21.7590   -4.0910   23.6600 C   0  0  0  0  0  3  0  0  0  0  0  0
  -21.9040   -4.9080   22.5220 C   0  0  0  0  0  0  0  0  0  0  0  0
  -22.3190   -4.3620   21.3540 F   0  0  0  0  0  0  0  0  0  0  0  0
  -21.1650   -3.8650   25.9620 F   0  0  0  0  0  0  0  0  0  0  0  0
  -22.8160  -13.6560   21.0590 C   0  0  0  0  0  0  0  0  0  0  0  0
  -22.0280  -12.9830   21.8940 N   0  0  0  0  0  0  0  0  0  0  0  0
  -22.4220  -14.6670   20.4840 O   0  0  0  0  0  0  0  0  0  0  0  0
  -22.3640  -12.1680   22.3840 H   0  0  0  0  0  0  0  0  0  0  0  0
  -21.0870  -13.3070   22.0620 H   0  0  0  0  0  0  0  0  0  0  0  0
  -25.5030  -15.2980   20.3960 N   0  0  0  0  0  0  0  0  0  0  0  0
  -24.7440  -15.9640   20.4940 H   0  0  0  0  0  0  0  0  0  0  0  0
  -26.3780  -15.7380   20.1490 H   0  0  0  0  0  0  0  0  0  0  0  0
  -27.9620  -22.1060   18.7010 C   0  0  0  0  0  2  0  0  0  0  0  0
  -26.3420  -20.1580   19.2460 C   0  0  0  0  0  1  0  0  0  0  0  0
  -25.6470  -22.0090   17.6700 C   0  0  0  0  0  1  0  0  0  0  0  0
  -26.5010  -21.6460   18.8990 C   0  0  0  0  0  3  0  0  0  0  0  0
  -30.0360  -23.0330   19.8610 C   0  0  0  0  0  2  0  0  0  0  0  0
  -29.6750  -24.4280   20.5400 C   0  0  0  0  0  3  0  0  0  0  0  0
  -29.4470  -24.1820   21.9150 O   0  0  0  0  0  0  0  0  0  0  0  0
  -28.5970  -23.7610   21.9890 H   0  0  0  0  0  0  0  0  0  0  0  0
  -28.4810  -25.2950   19.9740 C   0  0  0  0  0  2  0  0  0  0  0  0
  -28.4980  -26.7180   20.3010 O   0  0  0  0  0  0  0  0  0  0  0  0
  -24.5920  -31.9500   23.2580 C   0  0  0  0  0  0  0  0  0  0  0  0
  -27.3120  -27.4540   20.2500 C   0  0  0  0  0  0  0  0  0  0  0  0
  -23.4090  -30.5260   21.6190 C   0  0  0  0  0  3  0  0  0  0  0  0
  -24.8860  -28.9650   20.2220 C   0  0  0  0  0  0  0  0  0  0  0  0
  -25.9390  -30.8730   21.4450 C   0  0  0  0  0  2  0  0  0  0  0  0
  -26.0380  -29.4940   20.8210 C   0  0  0  0  0  0  0  0  0  0  0  0
  -27.2460  -28.7520   20.8240 C   0  0  0  0  0  3  0  0  0  0  0  0
  -26.1390  -26.9540   19.6360 C   0  0  0  0  0  3  0  0  0  0  0  0
  -24.9410  -27.6970   19.6140 C   0  0  0  0  0  3  0  0  0  0  0  0
  -23.6370  -29.8230   20.2510 C   0  0  0  0  0  2  0  0  0  0  0  0
  -24.6650  -31.1350   22.1650 N   0  0  0  0  0  0  0  0  0  0  0  0
  -23.5050  -32.2270   23.7840 O   0  0  0  0  0  0  0  0  0  0  0  0
  -22.7450  -29.5220   22.5890 C   0  0  0  0  0  0  0  0  0  0  0  0
  -21.4200  -29.3450   22.4620 N   0  0  0  0  0  0  0  0  0  0  0  0
  -23.4210  -28.9000   23.4130 O   0  0  0  0  0  0  0  0  0  0  0  0
  -20.9420  -29.9020   21.7700 H   0  0  0  0  0  0  0  0  0  0  0  0
  -18.0360  -28.1700   22.9680 C   0  0  0  0  0  0  0  0  0  0  0  0
  -20.5940  -28.4160   23.2330 C   0  0  0  0  0  3  0  0  0  0  0  0
  -20.6890  -26.9830   22.6620 C   0  0  0  0  0  2  0  0  0  0  0  0
  -19.5850  -26.6610   21.6510 C   0  0  0  0  0  2  0  0  0  0  0  0
  -18.2050  -26.8160   22.2970 C   0  0  0  0  0  2  0  0  0  0  0  0
  -19.1580  -28.9290   23.3910 C   0  0  0  0  0  0  0  0  0  0  0  0
  -18.9500  -30.1920   23.9830 C   0  0  0  0  0  3  0  0  0  0  0  0
  -17.6470  -30.7020   24.1470 C   0  0  0  0  0  3  0  0  0  0  0  0
  -16.5380  -29.9430   23.7350 C   0  0  0  0  0  3  0  0  0  0  0  0
  -16.7330  -28.6780   23.1540 C   0  0  0  0  0  3  0  0  0  0  0  0
  -25.8680  -32.5950   23.8840 C   0  0  0  0  0  3  0  0  0  0  0  0
  -26.3800  -31.8390   25.1720 C   0  0  1  0  0  0  0  0  0  0  0  0
  -25.2820  -31.5990   26.2350 C   0  0  0  0  0  1  0  0  0  0  0  0
  -26.9680  -30.4630   24.7890 C   0  0  0  0  0  1  0  0  0  0  0  0
  -27.5240  -32.6440   25.8320 C   0  0  0  0  0  1  0  0  0  0  0  0
  -25.5510  -33.9970   24.1970 N   0  0  0  0  0  0  0  0  0  0  0  0
  -25.8910  -35.0440   23.4360 C   0  0  0  0  0  0  0  0  0  0  0  0
  -26.5760  -34.9350   22.4150 O   0  0  0  0  0  0  0  0  0  0  0  0
  -24.9480  -34.1520   24.9910 H   0  0  0  0  0  0  0  0  0  0  0  0
  -24.1650  -36.8320   23.0410 C   0  0  0  0  0  1  0  0  0  0  0  0
  -25.3960  -36.4380   23.8730 C   0  0  0  0  0  3  0  0  0  0  0  0
  -27.5210  -37.3310   24.7210 C   0  0  0  0  0  1  0  0  0  0  0  0
  -26.4300  -37.4910   23.7620 N   0  0  0  0  0  0  0  0  0  0  0  0
  -26.0230  -38.4130   23.8940 H   0  0  0  0  0  0  0  0  0  0  0  0
  1 48  1  0
  1 52  1  0
  1  2  1  0
  2  3  1  0
  4  7  2  0
  4  8  1  0
  5  9  1  0
  6  5  2  0
  6  2  1  0
  7  6  1  0
  8  5  1  0
  9 18  1  0
 10 18  1  0
 11 16  1  0
 12 13  1  0
 12 11  1  0
 14 13  1  0
 14 23  1  0
 14 15  1  0
 16 10  1  0
 16 15  1  0
 17 10  2  0
 18 19  1  0
 20 21  2  0
 21 22  1  0
 21 40  1  0
 22 25  1  0
 23 20  1  0
 23 24  1  0
 24 22  2  0
 25 26  1  0
 26 27  2  0
 28 31  1  0
 28 27  1  0
 29 28  2  0
 30 29  1  0
 30 25  2  0
 31 32  1  0
 32 33  1  0
 33 34  2  0
 35 34  1  0
 35 39  1  0
 36 35  2  0
 37 32  2  0
 37 36  1  0
 38 37  1  0
 40 41  1  0
 41 44  1  0
 41 43  1  0
 42 40  2  0
 45 46  1  0
 45 20  1  0
 47 45  1  0
 48 51  1  0
 50 51  1  0
 51 49  1  0
 53 52  1  0
 53 54  1  0
 54 55  1  0
 56 57  1  0
 56 53  1  0
 58 69  2  0
 59 57  1  0
 59 64  1  0
 60 68  1  0
 60 70  1  0
 61 67  1  0
 61 63  1  0
 62 68  1  0
 63 64  2  0
 63 62  1  0
 65 59  2  0
 66 65  1  0
 66 61  2  0
 67 60  1  0
 68 58  1  0
 70 72  2  0
 71 70  1  0
 73 71  1  0
 74 83  2  0
 74 79  1  0
 75 71  1  0
 75 79  1  0
 76 75  1  0
 77 78  1  0
 77 76  1  0
 78 74  1  0
 79 80  2  0
 80 81  1  0
 82 81  2  0
 83 82  1  0
 84 58  1  0
 84 89  1  0
 84 85  1  0
 85 88  1  1
 85 86  1  0
 87 85  1  0
 89 92  1  0
 90 94  1  0
 90 89  1  0
 91 90  2  0
 94 93  1  0
 96 94  1  0
 96 97  1  0
 96 95  1  0
M  ISO  4  10 100  18 100  56 101  57 101
M  END
>  <TORSDO>  (30) 
F 25

>  <SCORE>  (30) 
-11.543

>  <name>  (30) 
29

>  <ligand_id>  (30) 
29

>  <original_smiles>  (30) 
[H]OC([H])(C([H])([H])Oc1c([H])c([H])c2c(c1[H])C([H])([H])N(C(=O)C([H])(N([H])C(=O)C([H])(N([H])C([H])([H])[H])C([H])([H])[H])C(C([H])([H])[H])(C([H])([H])[H])C([H])([H])[H])C([H])(C(=O)N([H])C1([H])c3c([H])c([H])c([H])c([H])c3C([H])([H])C([H])([H])C1([H])[H])C2([H])[H])C([H])([H])C([H])(N([H])c1nc([H])sc1C([H])([H])N([H])C(=O)N1C([H])([H])C([H])([H])C([H])([H])C([H])(n2nc(-c3c([H])c([H])c(Oc4c([H])c([H])c(F)c([H])c4F)c([H])c3[H])c(C(=O)N([H])[H])c2N([H])[H])C1([H])[H])C([H])([H])C([H])(C([H])([H])[H])C([H])([H])[H]

>  <smiles>  (30) 
[H]OC([H])(C([H])([H])Oc1c([H])c([H])c2c(c1[H])C([H])([H])N(C(=O)C([H])(N([H])C(=O)C([H])(N([H])C([H])([H])[H])C([H])([H])[H])C(C([H])([H])[H])(C([H])([H])[H])C([H])([H])[H])C([H])(C(=O)N([H])C1([H])c3c([H])c([H])c([H])c([H])c3C([H])([H])C([H])([H])C1([H])[H])C2([H])[H])C([H])([H])C([H])(N([H])c1nc([H])sc1C([H])([H])N([H])C(=O)N1C([H])([H])C([H])([H])C([H])([H])C([H])(n2nc(-c3c([H])c([H])c(Oc4c([H])c([H])c(F)c([H])c4F)c([H])c3[H])c(C(=O)N([H])[H])c2N([H])[H])C1([H])[H])C([H])([H])C([H])(C([H])([H])[H])C([H])([H])[H]

$$$$
30:0:0
     RDKit          3D

 94102  0  0  1  0  0  0  0  0999 V2000
  -27.2320  -19.5640   19.3040 C   0  0  0  0  0  3  0  0  0  0  0  0
  -28.0360  -18.4280   19.5590 C   0  0  0  0  0  0  0  0  0  0  0  0
  -29.2620  -18.6550   20.2330 C   0  0  0  0  0  0  0  0  0  0  0  0
  -28.7500  -21.0120   20.2040 C   0  0  0  0  0  0  0  0  0  0  0  0
  -27.5850  -20.8260   19.6190 N   0  0  0  0  0  0  0  0  0  0  0  0
  -29.5940  -19.9810   20.5200 N   0  0  0  0  0  0  0  0  0  0  0  0
  -29.1280  -22.3850   20.4120 N   0  0  0  0  0  0  0  0  0  0  0  0
  -30.0940  -22.4500   20.7110 H   0  0  0  0  0  0  0  0  0  0  0  0
  -27.6220  -17.1730   19.0900 N   0  0  0  0  0  0  0  0  0  0  0  0
  -26.9030  -17.2040   18.3690 H   0  0  0  0  0  0  0  0  0  0  0  0
  -28.3720  -16.5580   18.7920 H   0  0  0  0  0  0  0  0  0  0  0  0
  -26.9150  -23.4010   21.2410 C   0  0  0  0  0  1  0  0  0  0  0  0
  -28.3550  -23.6660   20.7730 C   0  0  0  0  0  3  0  0  0  0  0  0
  -28.4040  -24.9800   19.8100 C   0  0  0  0  0  2  0  0  0  0  0  0
  -28.3220  -26.3990   20.3330 O   0  0  0  0  0  0  0  0  0  0  0  0
  -24.5910  -31.9040   23.2470 C   0  0  0  0  0  0  0  0  0  0  0  0
  -27.1990  -27.2620   20.2400 C   0  0  0  0  0  0  0  0  0  0  0  0
  -23.3950  -30.4990   21.6080 C   0  0  0  0  0  3  0  0  0  0  0  0
  -24.8480  -28.9290   20.1980 C   0  0  0  0  0  0  0  0  0  0  0  0
  -25.9420  -30.7910   21.4470 C   0  0  0  0  0  2  0  0  0  0  0  0
  -26.0170  -29.4060   20.8010 C   0  0  0  0  0  0  0  0  0  0  0  0
  -27.1910  -28.5860   20.8080 C   0  0  0  0  0  3  0  0  0  0  0  0
  -26.0010  -26.8500   19.6170 C   0  0  0  0  0  3  0  0  0  0  0  0
  -24.8460  -27.6610   19.5940 C   0  0  0  0  0  3  0  0  0  0  0  0
  -23.6180  -29.8150   20.2330 C   0  0  0  0  0  2  0  0  0  0  0  0
  -24.6610  -31.0850   22.1560 N   0  0  0  0  0  0  0  0  0  0  0  0
  -23.5030  -32.1900   23.7720 O   0  0  0  0  0  0  0  0  0  0  0  0
  -22.7180  -29.4940   22.5710 C   0  0  0  0  0  0  0  0  0  0  0  0
  -21.3900  -29.3280   22.4440 N   0  0  0  0  0  0  0  0  0  0  0  0
  -23.3900  -28.8660   23.3940 O   0  0  0  0  0  0  0  0  0  0  0  0
  -20.9080  -29.8840   21.7520 H   0  0  0  0  0  0  0  0  0  0  0  0
  -17.9990  -28.1720   22.9570 C   0  0  0  0  0  0  0  0  0  0  0  0
  -20.5620  -28.4000   23.2170 C   0  0  0  0  0  3  0  0  0  0  0  0
  -20.6440  -26.9680   22.6390 C   0  0  0  0  0  2  0  0  0  0  0  0
  -19.5340  -26.6610   21.6290 C   0  0  0  0  0  2  0  0  0  0  0  0
  -18.1560  -26.8220   22.2770 C   0  0  0  0  0  2  0  0  0  0  0  0
  -19.1290  -28.9200   23.3840 C   0  0  0  0  0  0  0  0  0  0  0  0
  -18.9280  -30.1830   23.9810 C   0  0  0  0  0  3  0  0  0  0  0  0
  -17.6290  -30.7000   24.1540 C   0  0  0  0  0  3  0  0  0  0  0  0
  -16.5150  -29.9490   23.7420 C   0  0  0  0  0  3  0  0  0  0  0  0
  -16.7000  -28.6870   23.1500 C   0  0  0  0  0  3  0  0  0  0  0  0
  -25.8690  -32.5380   23.8750 C   0  0  0  0  0  3  0  0  0  0  0  0
  -26.3700  -31.7790   25.1660 C   0  0  1  0  0  0  0  0  0  0  0  0
  -25.2660  -31.5610   26.2270 C   0  0  0  0  0  1  0  0  0  0  0  0
  -26.9510  -30.3930   24.8000 C   0  0  0  0  0  1  0  0  0  0  0  0
  -27.5180  -32.5770   25.8280 C   0  0  0  0  0  1  0  0  0  0  0  0
  -25.5620  -33.9410   24.1900 N   0  0  0  0  0  0  0  0  0  0  0  0
  -25.9070  -34.9870   23.4270 C   0  0  0  0  0  0  0  0  0  0  0  0
  -26.5860  -34.8730   22.4040 O   0  0  0  0  0  0  0  0  0  0  0  0
  -24.9570  -34.1040   24.9830 H   0  0  0  0  0  0  0  0  0  0  0  0
  -24.1980  -36.7920   23.0400 C   0  0  0  0  0  1  0  0  0  0  0  0
  -25.4240  -36.3820   23.8720 C   0  0  0  0  0  3  0  0  0  0  0  0
  -27.5510  -37.2610   24.7300 C   0  0  0  0  0  1  0  0  0  0  0  0
  -26.4660  -37.4270   23.7660 N   0  0  0  0  0  0  0  0  0  0  0  0
  -26.0630  -38.3510   23.8990 H   0  0  0  0  0  0  0  0  0  0  0  0
  -30.2690  -17.4520   20.5870 C   0  0  0  0  0  2  0  0  0  0  0  0
  -30.6100  -14.8240   20.4080 C   0  0  0  0  0  0  0  0  0  0  0  0
  -30.4250  -12.5450   19.3820 C   0  0  0  0  0  2  0  0  0  0  0  0
  -29.4780  -12.6020   18.1630 C   0  0  0  0  0  2  0  0  0  0  0  0
  -28.0150  -12.3970   18.6040 C   0  0  0  0  0  2  0  0  0  0  0  0
  -27.6320  -13.2840   19.8210 C   0  0  0  0  0  3  0  0  0  0  0  0
  -28.7000  -13.2160   20.9330 C   0  0  0  0  0  2  0  0  0  0  0  0
  -29.9830  -13.5970   20.3300 N   0  0  0  0  0  0  0  0  0  0  0  0
  -31.8040  -14.9130   20.1090 O   0  0  0  0  0  0  0  0  0  0  0  0
  -29.8530  -15.9700   20.6130 N   0  0  0  0  0  0  0  0  0  0  0  0
  -28.8590  -15.8390   20.7480 H   0  0  0  0  0  0  0  0  0  0  0  0
  -25.2460  -13.8440   20.5740 C   0  0  0  0  0  0  0  0  0  0  0  0
  -24.1900  -13.0570   20.9460 C   0  0  0  0  0  0  0  0  0  0  0  0
  -24.6660  -11.7100   20.8980 C   0  0  0  0  0  0  0  0  0  0  0  0
  -26.2970  -12.9770   20.3200 N   0  0  0  0  0  0  0  0  0  0  0  0
  -25.9550  -11.6880   20.5820 N   0  0  0  0  0  0  0  0  0  0  0  0
  -23.9480  -10.4400   21.0760 C   0  0  0  0  0  0  0  0  0  0  0  0
  -24.3870   -9.4660   21.9990 C   0  0  0  0  0  3  0  0  0  0  0  0
  -23.6680   -8.2610   22.1650 C   0  0  0  0  0  3  0  0  0  0  0  0
  -22.4960   -8.0250   21.4070 C   0  0  0  0  0  0  0  0  0  0  0  0
  -22.0750   -8.9900   20.4750 C   0  0  0  0  0  3  0  0  0  0  0  0
  -22.7950  -10.1850   20.3080 C   0  0  0  0  0  3  0  0  0  0  0  0
  -21.7490   -6.8760   21.4830 O   0  0  0  0  0  0  0  0  0  0  0  0
  -21.6990   -6.1240   22.6280 C   0  0  0  0  0  0  0  0  0  0  0  0
  -21.2470   -6.6610   23.8540 C   0  0  0  0  0  3  0  0  0  0  0  0
  -21.1480   -5.8350   24.9910 C   0  0  0  0  0  3  0  0  0  0  0  0
  -21.4900   -4.4720   24.9030 C   0  0  0  0  0  0  0  0  0  0  0  0
  -21.9360   -3.9340   23.6840 C   0  0  0  0  0  3  0  0  0  0  0  0
  -22.0370   -4.7580   22.5480 C   0  0  0  0  0  0  0  0  0  0  0  0
  -22.4470   -4.2290   21.3700 F   0  0  0  0  0  0  0  0  0  0  0  0
  -21.3880   -3.6770   25.9940 F   0  0  0  0  0  0  0  0  0  0  0  0
  -22.7900  -13.5200   21.2250 C   0  0  0  0  0  0  0  0  0  0  0  0
  -22.0650  -12.8090   22.0820 N   0  0  0  0  0  0  0  0  0  0  0  0
  -22.3440  -14.5500   20.7200 O   0  0  0  0  0  0  0  0  0  0  0  0
  -22.4350  -11.9770   22.5180 H   0  0  0  0  0  0  0  0  0  0  0  0
  -21.1280  -13.1070   22.3100 H   0  0  0  0  0  0  0  0  0  0  0  0
  -25.3870  -15.2190   20.4050 N   0  0  0  0  0  0  0  0  0  0  0  0
  -24.5960  -15.8420   20.5270 H   0  0  0  0  0  0  0  0  0  0  0  0
  -26.2040  -15.7020   20.0320 H   0  0  0  0  0  0  0  0  0  0  0  0
  1  2  2  0
  1  5  1  0
  2  3  1  0
  3  6  2  0
  3 56  1  0
  4  7  1  0
  4  6  1  0
  5  4  2  0
  7  8  1  0
  7 13  1  0
  9  2  1  0
 10  9  1  0
 11  9  1  0
 13 12  1  0
 14 15  1  0
 14 13  1  0
 16 27  2  0
 17 15  1  0
 17 22  1  0
 18 26  1  0
 18 28  1  0
 19 25  1  0
 19 21  1  0
 20 26  1  0
 21 22  2  0
 21 20  1  0
 23 17  2  0
 24 23  1  0
 24 19  2  0
 25 18  1  0
 26 16  1  0
 28 30  2  0
 29 28  1  0
 31 29  1  0
 32 41  2  0
 32 37  1  0
 33 29  1  0
 33 37  1  0
 34 33  1  0
 35 36  1  0
 35 34  1  0
 36 32  1  0
 37 38  2  0
 38 39  1  0
 40 39  2  0
 41 40  1  0
 42 16  1  0
 42 47  1  0
 42 43  1  0
 43 46  1  1
 43 44  1  0
 45 43  1  0
 47 50  1  0
 48 52  1  0
 48 47  1  0
 49 48  2  0
 52 51  1  0
 54 52  1  0
 54 55  1  0
 54 53  1  0
 56 65  1  0
 57 65  1  0
 58 63  1  0
 59 60  1  0
 59 58  1  0
 61 60  1  0
 61 70  1  0
 61 62  1  0
 63 57  1  0
 63 62  1  0
 64 57  2  0
 65 66  1  0
 67 68  2  0
 68 87  1  0
 69 68  1  0
 69 72  1  0
 70 67  1  0
 70 71  1  0
 71 69  2  0
 72 73  1  0
 73 74  2  0
 75 78  1  0
 75 74  1  0
 76 75  2  0
 77 76  1  0
 77 72  2  0
 78 79  1  0
 79 80  1  0
 80 81  2  0
 82 81  1  0
 82 86  1  0
 83 82  2  0
 84 79  2  0
 84 83  1  0
 85 84  1  0
 87 88  1  0
 88 91  1  0
 88 90  1  0
 89 87  2  0
 92 93  1  0
 92 67  1  0
 94 92  1  0
M  ISO  4  14 101  15 101  57 100  65 100
M  END
>  <TORSDO>  (31) 
F 20

>  <SCORE>  (31) 
-14.189

>  <name>  (31) 
30

>  <ligand_id>  (31) 
30

>  <original_smiles>  (31) 
[H]c1nc(N([H])C([H])(C([H])([H])[H])C([H])([H])Oc2c([H])c([H])c3c(c2[H])C([H])([H])N(C(=O)C([H])(N([H])C(=O)C([H])(N([H])C([H])([H])[H])C([H])([H])[H])C(C([H])([H])[H])(C([H])([H])[H])C([H])([H])[H])C([H])(C(=O)N([H])C2([H])c4c([H])c([H])c([H])c([H])c4C([H])([H])C([H])([H])C2([H])[H])C3([H])[H])nc(C([H])([H])N([H])C(=O)N2C([H])([H])C([H])([H])C([H])([H])C([H])(n3nc(-c4c([H])c([H])c(Oc5c([H])c([H])c(F)c([H])c5F)c([H])c4[H])c(C(=O)N([H])[H])c3N([H])[H])C2([H])[H])c1N([H])[H]

>  <smiles>  (31) 
[H]c1nc(N([H])C([H])(C([H])([H])[H])C([H])([H])Oc2c([H])c([H])c3c(c2[H])C([H])([H])N(C(=O)C([H])(N([H])C(=O)C([H])(N([H])C([H])([H])[H])C([H])([H])[H])C(C([H])([H])[H])(C([H])([H])[H])C([H])([H])[H])C([H])(C(=O)N([H])C2([H])c4c([H])c([H])c([H])c([H])c4C([H])([H])C([H])([H])C2([H])[H])C3([H])[H])nc(C([H])([H])N([H])C(=O)N2C([H])([H])C([H])([H])C([H])([H])C([H])(n3nc(-c4c([H])c([H])c(Oc5c([H])c([H])c(F)c([H])c5F)c([H])c4[H])c(C(=O)N([H])[H])c3N([H])[H])C2([H])[H])c1N([H])[H]

$$$$
31:0:0
     RDKit          3D

 95103  0  0  1  0  0  0  0  0999 V2000
  -29.9170  -18.8030   19.9930 C   0  0  0  0  0  0  0  0  0  0  0  0
  -27.8810  -19.5310   19.4670 C   0  0  0  0  0  0  0  0  0  0  0  0
  -29.4100  -21.0850   19.8720 C   0  0  0  0  0  0  0  0  0  0  0  0
  -28.6670  -18.4780   19.6510 N   0  0  0  0  0  4  0  0  0  0  0  0
  -30.3290  -20.1150   20.1420 N   0  0  0  0  0  0  0  0  0  0  0  0
  -28.1570  -20.8280   19.5260 N   0  0  0  0  0  2  0  0  0  0  0  0
  -26.5730  -19.2490   19.2200 N   0  0  0  0  0  0  0  0  0  0  0  0
  -29.7210  -22.4850   20.0880 N   0  0  0  0  0  0  0  0  0  0  0  0
  -26.2420  -18.3390   19.5090 H   0  0  0  0  0  0  0  0  0  0  0  0
  -25.9280  -20.0020   19.4170 H   0  0  0  0  0  0  0  0  0  0  0  0
  -30.5940  -22.5890   20.5870 H   0  0  0  0  0  0  0  0  0  0  0  0
  -30.2980  -24.0170   18.2130 C   0  0  0  0  0  1  0  0  0  0  0  0
  -29.3070  -23.7800   19.3600 C   0  0  0  0  0  3  0  0  0  0  0  0
  -30.3810  -25.4610   20.9740 C   0  0  0  0  0  1  0  0  0  0  0  0
  -29.0890  -25.1900   20.1940 C   0  0  0  0  0  3  0  0  0  0  0  0
  -28.8560  -26.5700   19.5980 O   0  0  0  0  0  0  0  0  0  0  0  0
  -24.7230  -31.5160   23.0790 C   0  0  0  0  0  0  0  0  0  0  0  0
  -27.6810  -27.3470   19.7410 C   0  0  0  0  0  0  0  0  0  0  0  0
  -23.6580  -30.2250   21.2680 C   0  0  0  0  0  3  0  0  0  0  0  0
  -25.2480  -28.8790   19.7720 C   0  0  0  0  0  0  0  0  0  0  0  0
  -26.1860  -30.6770   21.2220 C   0  0  0  0  0  2  0  0  0  0  0  0
  -26.3700  -29.3600   20.4590 C   0  0  0  0  0  0  0  0  0  0  0  0
  -27.5960  -28.6110   20.4270 C   0  0  0  0  0  3  0  0  0  0  0  0
  -26.5290  -26.9290   19.0470 C   0  0  0  0  0  3  0  0  0  0  0  0
  -25.3290  -27.6720   19.0610 C   0  0  0  0  0  3  0  0  0  0  0  0
  -23.9690  -29.6990   19.8450 C   0  0  0  0  0  2  0  0  0  0  0  0
  -24.8700  -30.8210   21.9140 N   0  0  0  0  0  0  0  0  0  0  0  0
  -23.6080  -31.6800   23.5970 O   0  0  0  0  0  0  0  0  0  0  0  0
  -23.0170  -29.0870   22.1020 C   0  0  0  0  0  0  0  0  0  0  0  0
  -21.7090  -28.8510   21.9020 N   0  0  0  0  0  0  0  0  0  0  0  0
  -23.6980  -28.4220   22.8830 O   0  0  0  0  0  0  0  0  0  0  0  0
  -21.2210  -29.4310   21.2370 H   0  0  0  0  0  0  0  0  0  0  0  0
  -18.3830  -27.4530   22.1610 C   0  0  0  0  0  0  0  0  0  0  0  0
  -20.9150  -27.8010   22.5430 C   0  0  0  0  0  3  0  0  0  0  0  0
  -21.1080  -26.4470   21.8230 C   0  0  0  0  0  2  0  0  0  0  0  0
  -20.0520  -26.1780   20.7450 C   0  0  0  0  0  2  0  0  0  0  0  0
  -18.6470  -26.1930   21.3530 C   0  0  0  0  0  2  0  0  0  0  0  0
  -19.4490  -28.2150   22.7060 C   0  0  0  0  0  0  0  0  0  0  0  0
  -19.1510  -29.3950   23.4200 C   0  0  0  0  0  3  0  0  0  0  0  0
  -17.8180  -29.8170   23.5890 C   0  0  0  0  0  3  0  0  0  0  0  0
  -16.7650  -29.0470   23.0660 C   0  0  0  0  0  3  0  0  0  0  0  0
  -17.0480  -27.8670   22.3590 C   0  0  0  0  0  3  0  0  0  0  0  0
  -25.9440  -32.1570   23.8070 C   0  0  0  0  0  3  0  0  0  0  0  0
  -26.3980  -31.3440   25.0790 C   0  0  1  0  0  0  0  0  0  0  0  0
  -25.2440  -31.0410   26.0630 C   0  0  0  0  0  1  0  0  0  0  0  0
  -27.0340  -29.9980   24.6660 C   0  0  0  0  0  1  0  0  0  0  0  0
  -27.4900  -32.1280   25.8410 C   0  0  0  0  0  1  0  0  0  0  0  0
  -25.5640  -33.5290   24.1800 N   0  0  0  0  0  0  0  0  0  0  0  0
  -25.9480  -34.6300   23.5220 C   0  0  0  0  0  0  0  0  0  0  0  0
  -26.7150  -34.5950   22.5550 O   0  0  0  0  0  0  0  0  0  0  0  0
  -24.8940  -33.6300   24.9310 H   0  0  0  0  0  0  0  0  0  0  0  0
  -24.2070  -36.3950   23.1190 C   0  0  0  0  0  1  0  0  0  0  0  0
  -25.3900  -35.9810   24.0110 C   0  0  0  0  0  3  0  0  0  0  0  0
  -27.4210  -36.8670   25.0600 C   0  0  0  0  0  1  0  0  0  0  0  0
  -26.3970  -37.0620   24.0370 N   0  0  0  0  0  0  0  0  0  0  0  0
  -25.9520  -37.9610   24.1940 H   0  0  0  0  0  0  0  0  0  0  0  0
  -30.8870  -17.5710   20.3560 C   0  0  0  0  0  2  0  0  0  0  0  0
  -31.1570  -14.9570   20.0840 C   0  0  0  0  0  0  0  0  0  0  0  0
  -30.9340  -12.6640   19.0630 C   0  0  0  0  0  2  0  0  0  0  0  0
  -29.9630  -12.7080   17.8630 C   0  0  0  0  0  2  0  0  0  0  0  0
  -28.5130  -12.5280   18.3430 C   0  0  0  0  0  2  0  0  0  0  0  0
  -28.1700  -13.4320   19.5530 C   0  0  0  0  0  3  0  0  0  0  0  0
  -29.2510  -13.3650   20.6560 C   0  0  0  0  0  2  0  0  0  0  0  0
  -30.5270  -13.7290   20.0270 N   0  0  0  0  0  0  0  0  0  0  0  0
  -32.3090  -15.0430   19.6460 O   0  0  0  0  0  0  0  0  0  0  0  0
  -30.4410  -16.0990   20.4520 N   0  0  0  0  0  0  0  0  0  0  0  0
  -29.4960  -15.9770   20.7830 H   0  0  0  0  0  0  0  0  0  0  0  0
  -25.8450  -14.0570   20.4360 C   0  0  0  0  0  0  0  0  0  0  0  0
  -24.7680  -13.3010   20.7990 C   0  0  0  0  0  0  0  0  0  0  0  0
  -25.1690  -11.9380   20.6450 C   0  0  0  0  0  0  0  0  0  0  0  0
  -26.8370  -13.1600   20.0800 N   0  0  0  0  0  0  0  0  0  0  0  0
  -26.4400  -11.8760   20.2670 N   0  0  0  0  0  0  0  0  0  0  0  0
  -24.3990  -10.6950   20.7710 C   0  0  0  0  0  0  0  0  0  0  0  0
  -24.8520   -9.6190   21.5690 C   0  0  0  0  0  3  0  0  0  0  0  0
  -24.0770   -8.4470   21.6920 C   0  0  0  0  0  3  0  0  0  0  0  0
  -22.8380   -8.3390   21.0170 C   0  0  0  0  0  0  0  0  0  0  0  0
  -22.4050   -9.4010   20.2030 C   0  0  0  0  0  3  0  0  0  0  0  0
  -23.1800  -10.5670   20.0750 C   0  0  0  0  0  3  0  0  0  0  0  0
  -22.0310   -7.2250   21.0550 O   0  0  0  0  0  0  0  0  0  0  0  0
  -22.0630   -6.3510   22.1110 C   0  0  0  0  0  0  0  0  0  0  0  0
  -21.8010   -6.7690   23.4350 C   0  0  0  0  0  3  0  0  0  0  0  0
  -21.7750   -5.8250   24.4800 C   0  0  0  0  0  3  0  0  0  0  0  0
  -22.0030   -4.4620   24.2050 C   0  0  0  0  0  0  0  0  0  0  0  0
  -22.2640   -4.0430   22.8880 C   0  0  0  0  0  3  0  0  0  0  0  0
  -22.2900   -4.9840   21.8450 C   0  0  0  0  0  0  0  0  0  0  0  0
  -22.5180   -4.5710   20.5740 F   0  0  0  0  0  0  0  0  0  0  0  0
  -21.9700   -3.5550   25.2090 F   0  0  0  0  0  0  0  0  0  0  0  0
  -23.4100  -13.8110   21.1750 C   0  0  0  0  0  0  0  0  0  0  0  0
  -22.7040  -13.1020   22.0450 N   0  0  0  0  0  0  0  0  0  0  0  0
  -22.9850  -14.8800   20.7300 O   0  0  0  0  0  0  0  0  0  0  0  0
  -23.0630  -12.2350   22.4230 H   0  0  0  0  0  0  0  0  0  0  0  0
  -21.7970  -13.4320   22.3390 H   0  0  0  0  0  0  0  0  0  0  0  0
  -26.0510  -15.4350   20.3600 N   0  0  0  0  0  0  0  0  0  0  0  0
  -25.3220  -16.1060   20.5760 H   0  0  0  0  0  0  0  0  0  0  0  0
  -26.8920  -15.8780   20.0190 H   0  0  0  0  0  0  0  0  0  0  0  0
  1  5  1  0
  1 57  1  0
  2  6  1  0
  2  4  2  0
  3  8  1  0
  3  5  2  0
  4  1  2  0
  6  3  1  0
  7 10  1  0
  7  2  1  0
  7  9  1  0
  8 11  1  0
 13 12  1  0
 13  8  1  0
 13 15  1  0
 15 14  1  0
 16 18  1  0
 16 15  1  0
 17 28  2  0
 18 23  1  0
 19 27  1  0
 19 29  1  0
 20 26  1  0
 20 22  1  0
 21 27  1  0
 22 21  1  0
 23 22  2  0
 24 25  1  0
 24 18  2  0
 25 20  2  0
 26 19  1  0
 27 17  1  0
 29 31  2  0
 30 29  1  0
 32 30  1  0
 33 42  2  0
 33 38  1  0
 34 30  1  0
 34 38  1  0
 35 34  1  0
 36 37  1  0
 36 35  1  0
 37 33  1  0
 38 39  2  0
 39 40  1  0
 41 40  2  0
 42 41  1  0
 43 17  1  0
 43 48  1  0
 43 44  1  0
 44 47  1  1
 44 45  1  0
 46 44  1  0
 48 51  1  0
 49 53  1  0
 49 48  1  0
 50 49  2  0
 53 52  1  0
 53 55  1  0
 55 56  1  0
 55 54  1  0
 57 66  1  0
 58 66  1  0
 59 64  1  0
 60 61  1  0
 60 59  1  0
 62 61  1  0
 62 71  1  0
 62 63  1  0
 64 58  1  0
 64 63  1  0
 65 58  2  0
 66 67  1  0
 68 69  2  0
 69 88  1  0
 70 73  1  0
 70 69  1  0
 71 72  1  0
 71 68  1  0
 72 70  2  0
 73 74  1  0
 74 75  2  0
 76 79  1  0
 76 75  1  0
 77 76  2  0
 78 77  1  0
 78 73  2  0
 79 80  1  0
 80 81  1  0
 81 82  2  0
 83 82  1  0
 83 87  1  0
 84 83  2  0
 85 80  2  0
 85 84  1  0
 86 85  1  0
 88 89  1  0
 89 92  1  0
 89 91  1  0
 90 88  2  0
 93 68  1  0
 93 94  1  0
 95 93  1  0
M  ISO  4  15 101  16 101  58 100  66 100
M  END
>  <TORSDO>  (32) 
F 19

>  <SCORE>  (32) 
-12.485

>  <name>  (32) 
31

>  <ligand_id>  (32) 
31

>  <original_smiles>  (32) 
[H]c1c([H])c([H])c2c(c1[H])C([H])([H])C([H])([H])C([H])([H])C2([H])N([H])C(=O)C1([H])N(C(=O)C([H])(N([H])C(=O)C([H])(N([H])C([H])([H])[H])C([H])([H])[H])C(C([H])([H])[H])(C([H])([H])[H])C([H])([H])[H])C([H])([H])c2c([H])c(OC([H])(C([H])([H])[H])C([H])(N([H])c3nc(N([H])[H])nc(C([H])([H])N([H])C(=O)N4C([H])([H])C([H])([H])C([H])([H])C([H])(n5nc(-c6c([H])c([H])c(Oc7c([H])c([H])c(F)c([H])c7F)c([H])c6[H])c(C(=O)N([H])[H])c5N([H])[H])C4([H])[H])n3)C([H])([H])[H])c([H])c([H])c2C1([H])[H]

>  <smiles>  (32) 
[H]c1c([H])c([H])c2c(c1[H])C([H])([H])C([H])([H])C([H])([H])C2([H])N([H])C(=O)C1([H])N(C(=O)C([H])(N([H])C(=O)C([H])(N([H])C([H])([H])[H])C([H])([H])[H])C(C([H])([H])[H])(C([H])([H])[H])C([H])([H])[H])C([H])([H])c2c([H])c(OC([H])(C([H])([H])[H])C([H])(N([H])c3nc(N([H])[H])nc(C([H])([H])N([H])C(=O)N4C([H])([H])C([H])([H])C([H])([H])C([H])(n5nc(-c6c([H])c([H])c(Oc7c([H])c([H])c(F)c([H])c7F)c([H])c6[H])c(C(=O)N([H])[H])c5N([H])[H])C4([H])[H])n3)C([H])([H])[H])c([H])c([H])c2C1([H])[H]

$$$$
32:0:0
     RDKit          3D

 96104  0  0  1  0  0  0  0  0999 V2000
  -28.7540  -21.1440   21.5250 C   0  0  0  0  0  3  0  0  0  0  0  0
  -29.0010  -19.8430   21.8540 C   0  0  0  0  0  3  0  0  0  0  0  0
  -29.9920  -21.5940   20.9810 C   0  0  0  0  0  0  0  0  0  0  0  0
  -29.3690  -23.8770   20.1590 C   0  0  0  0  0  0  0  0  0  0  0  0
  -30.9380  -20.6610   21.0240 N   0  0  0  0  0  0  0  0  0  0  0  0
  -30.3090  -19.5570   21.5110 N   0  0  0  0  0  0  0  0  0  0  0  0
  -30.2390  -22.8770   20.4220 N   0  0  0  0  0  0  0  0  0  0  0  0
  -28.1890  -23.8760   20.5160 O   0  0  0  0  0  0  0  0  0  0  0  0
  -31.1850  -23.0320   20.1100 H   0  0  0  0  0  0  0  0  0  0  0  0
  -29.9290  -25.0750   19.3680 C   0  0  0  0  0  2  0  0  0  0  0  0
  -28.8600  -26.0320   18.7860 C   0  0  0  0  0  2  0  0  0  0  0  0
  -28.6090  -27.1210   19.6860 O   0  0  0  0  0  0  0  0  0  0  0  0
  -24.6170  -31.8190   23.2080 C   0  0  0  0  0  0  0  0  0  0  0  0
  -27.3780  -27.7500   19.7260 C   0  0  0  0  0  0  0  0  0  0  0  0
  -23.4290  -30.4780   21.5040 C   0  0  0  0  0  3  0  0  0  0  0  0
  -24.9070  -29.1250   19.9300 C   0  0  0  0  0  0  0  0  0  0  0  0
  -25.9280  -30.9770   21.2620 C   0  0  0  0  0  2  0  0  0  0  0  0
  -26.0560  -29.6610   20.5220 C   0  0  0  0  0  0  0  0  0  0  0  0
  -27.2870  -28.9760   20.4270 C   0  0  0  0  0  3  0  0  0  0  0  0
  -26.1990  -27.2240   19.1390 C   0  0  0  0  0  3  0  0  0  0  0  0
  -24.9730  -27.9030   19.2430 C   0  0  0  0  0  3  0  0  0  0  0  0
  -23.6250  -29.9140   20.0720 C   0  0  0  0  0  2  0  0  0  0  0  0
  -24.6780  -31.1030   22.0490 N   0  0  0  0  0  0  0  0  0  0  0  0
  -23.5420  -31.9970   23.7970 O   0  0  0  0  0  0  0  0  0  0  0  0
  -22.8630  -29.3560   22.4050 C   0  0  0  0  0  0  0  0  0  0  0  0
  -21.5600  -29.0630   22.2480 N   0  0  0  0  0  0  0  0  0  0  0  0
  -23.5890  -28.7560   23.2000 O   0  0  0  0  0  0  0  0  0  0  0  0
  -21.0300  -29.6070   21.5820 H   0  0  0  0  0  0  0  0  0  0  0  0
  -18.3140  -27.5150   22.5930 C   0  0  0  0  0  0  0  0  0  0  0  0
  -20.8220  -28.0230   22.9630 C   0  0  0  0  0  3  0  0  0  0  0  0
  -21.0900  -26.6280   22.3500 C   0  0  0  0  0  2  0  0  0  0  0  0
  -20.0610  -26.2300   21.2860 C   0  0  0  0  0  2  0  0  0  0  0  0
  -18.6500  -26.2140   21.8840 C   0  0  0  0  0  2  0  0  0  0  0  0
  -19.3340  -28.3720   23.0860 C   0  0  0  0  0  0  0  0  0  0  0  0
  -18.9710  -29.5850   23.7070 C   0  0  0  0  0  3  0  0  0  0  0  0
  -17.6170  -29.9490   23.8380 C   0  0  0  0  0  3  0  0  0  0  0  0
  -16.6100  -29.0900   23.3630 C   0  0  0  0  0  3  0  0  0  0  0  0
  -16.9590  -27.8740   22.7480 C   0  0  0  0  0  3  0  0  0  0  0  0
  -25.8890  -32.4710   23.8340 C   0  0  0  0  0  3  0  0  0  0  0  0
  -25.5560  -33.8630   24.1650 N   0  0  0  0  0  0  0  0  0  0  0  0
  -25.8930  -34.9240   23.4200 C   0  0  0  0  0  0  0  0  0  0  0  0
  -26.5890  -34.8330   22.4040 O   0  0  0  0  0  0  0  0  0  0  0  0
  -24.9380  -34.0050   24.9520 H   0  0  0  0  0  0  0  0  0  0  0  0
  -24.1500  -36.6940   23.0310 C   0  0  0  0  0  1  0  0  0  0  0  0
  -25.3760  -36.3020   23.8720 C   0  0  0  0  0  3  0  0  0  0  0  0
  -27.4760  -37.2130   24.7590 C   0  0  0  0  0  1  0  0  0  0  0  0
  -26.3960  -37.3700   23.7880 N   0  0  0  0  0  0  0  0  0  0  0  0
  -25.9730  -38.2830   23.9290 H   0  0  0  0  0  0  0  0  0  0  0  0
  -26.4170  -31.7060   25.1090 C   0  0  1  0  0  0  0  0  0  0  0  0
  -25.3210  -31.4300   26.1650 C   0  0  0  0  0  1  0  0  0  0  0  0
  -27.0450  -30.3510   24.7120 C   0  0  0  0  0  1  0  0  0  0  0  0
  -27.5380  -32.5290   25.7870 C   0  0  0  0  0  1  0  0  0  0  0  0
  -31.0070  -18.2760   21.6670 C   0  0  0  0  0  2  0  0  0  0  0  0
  -31.3050  -17.4670   20.3590 C   0  0  0  0  0  3  0  0  0  0  0  0
  -31.6930  -14.9800   20.1090 C   0  0  0  0  0  0  0  0  0  0  0  0
  -31.3310  -12.8040   19.0180 C   0  0  0  0  0  2  0  0  0  0  0  0
  -30.3700  -12.9930   17.8260 C   0  0  0  0  0  2  0  0  0  0  0  0
  -28.9030  -12.8960   18.2860 C   0  0  0  0  0  2  0  0  0  0  0  0
  -28.6060  -13.7770   19.5280 C   0  0  0  0  0  3  0  0  0  0  0  0
  -29.6720  -13.5620   20.6260 C   0  0  0  0  0  2  0  0  0  0  0  0
  -30.9950  -13.8170   20.0300 N   0  0  0  0  0  0  0  0  0  0  0  0
  -32.8250  -15.1190   19.6380 O   0  0  0  0  0  0  0  0  0  0  0  0
  -30.9850  -16.0350   20.5500 N   0  0  0  0  0  0  0  0  0  0  0  0
  -30.0650  -15.8220   20.9040 H   0  0  0  0  0  0  0  0  0  0  0  0
  -26.2510  -14.4940   20.2910 C   0  0  0  0  0  0  0  0  0  0  0  0
  -25.1560  -13.7660   20.6730 C   0  0  0  0  0  0  0  0  0  0  0  0
  -25.5560  -12.3970   20.6160 C   0  0  0  0  0  0  0  0  0  0  0  0
  -27.2500  -13.5680   20.0290 N   0  0  0  0  0  0  0  0  0  0  0  0
  -26.8350  -12.3000   20.2810 N   0  0  0  0  0  0  0  0  0  0  0  0
  -24.7780  -11.1660   20.8040 C   0  0  0  0  0  0  0  0  0  0  0  0
  -25.1180  -10.2230   21.8000 C   0  0  0  0  0  3  0  0  0  0  0  0
  -24.3440   -9.0540   21.9710 C   0  0  0  0  0  3  0  0  0  0  0  0
  -23.2190   -8.8220   21.1450 C   0  0  0  0  0  0  0  0  0  0  0  0
  -22.9010   -9.7510   20.1390 C   0  0  0  0  0  3  0  0  0  0  0  0
  -23.6750  -10.9100   19.9660 C   0  0  0  0  0  3  0  0  0  0  0  0
  -22.4260   -7.7030   21.2220 O   0  0  0  0  0  0  0  0  0  0  0  0
  -22.1570   -7.0930   22.4210 C   0  0  0  0  0  0  0  0  0  0  0  0
  -21.5320   -7.7810   23.4830 C   0  0  0  0  0  3  0  0  0  0  0  0
  -21.2100   -7.0970   24.6720 C   0  0  0  0  0  3  0  0  0  0  0  0
  -21.5050   -5.7260   24.7990 C   0  0  0  0  0  0  0  0  0  0  0  0
  -22.1240   -5.0380   23.7410 C   0  0  0  0  0  3  0  0  0  0  0  0
  -22.4450   -5.7190   22.5540 C   0  0  0  0  0  0  0  0  0  0  0  0
  -23.0230   -5.0470   21.5290 F   0  0  0  0  0  0  0  0  0  0  0  0
  -21.1890   -5.0680   25.9390 F   0  0  0  0  0  0  0  0  0  0  0  0
  -23.7870  -14.3030   20.9810 C   0  0  0  0  0  0  0  0  0  0  0  0
  -23.0520  -13.6370   21.8650 N   0  0  0  0  0  0  0  0  0  0  0  0
  -23.3810  -15.3460   20.4730 O   0  0  0  0  0  0  0  0  0  0  0  0
  -23.3940  -12.7920   22.2990 H   0  0  0  0  0  0  0  0  0  0  0  0
  -22.1350  -13.9820   22.1140 H   0  0  0  0  0  0  0  0  0  0  0  0
  -26.4700  -15.8580   20.1300 N   0  0  0  0  0  0  0  0  0  0  0  0
  -25.7300  -16.5420   20.2510 H   0  0  0  0  0  0  0  0  0  0  0  0
  -27.3220  -16.2660   19.7700 H   0  0  0  0  0  0  0  0  0  0  0  0
  -29.1930  -17.5300   18.8630 C   0  0  0  0  0  1  0  0  0  0  0  0
  -30.6440  -18.0080   19.0520 C   0  0  0  0  0  3  0  0  0  0  0  0
  -31.1420  -18.5960   16.5890 C   0  0  0  0  0  1  0  0  0  0  0  0
  -31.4830  -17.7020   17.7900 C   0  0  0  0  0  2  0  0  0  0  0  0
  1  2  2  0
  3  5  2  0
  3  1  1  0
  4  7  1  0
  4  8  2  0
  5  6  1  0
  6 53  1  0
  6  2  1  0
  7  3  1  0
  9  7  1  0
 10  4  1  0
 11 10  1  0
 11 12  1  0
 12 14  1  0
 13 24  2  0
 14 19  1  0
 15 23  1  0
 15 25  1  0
 16 22  1  0
 16 18  1  0
 17 23  1  0
 18 17  1  0
 19 18  2  0
 20 21  1  0
 20 14  2  0
 21 16  2  0
 22 15  1  0
 23 13  1  0
 25 27  2  0
 26 25  1  0
 28 26  1  0
 29 38  2  0
 29 34  1  0
 30 26  1  0
 30 34  1  0
 31 30  1  0
 32 33  1  0
 32 31  1  0
 33 29  1  0
 34 35  2  0
 35 36  1  0
 37 36  2  0
 38 37  1  0
 39 13  1  0
 39 40  1  0
 39 49  1  0
 40 43  1  0
 41 45  1  0
 41 40  1  0
 42 41  2  0
 45 44  1  0
 47 45  1  0
 47 48  1  0
 47 46  1  0
 49 52  1  1
 49 50  1  0
 51 49  1  0
 54 63  1  0
 54 53  1  0
 55 63  1  0
 56 61  1  0
 57 58  1  0
 57 56  1  0
 59 58  1  0
 59 68  1  0
 59 60  1  0
 61 55  1  0
 61 60  1  0
 62 55  2  0
 63 64  1  0
 65 66  2  0
 66 85  1  0
 67 66  1  0
 67 70  1  0
 68 69  1  0
 68 65  1  0
 69 67  2  0
 70 71  1  0
 71 72  2  0
 73 76  1  0
 73 72  1  0
 74 73  2  0
 75 74  1  0
 75 70  2  0
 76 77  1  0
 77 82  2  0
 77 78  1  0
 78 79  2  0
 79 80  1  0
 80 84  1  0
 81 80  2  0
 82 81  1  0
 83 82  1  0
 85 86  1  0
 86 89  1  0
 86 88  1  0
 87 85  2  0
 90 91  1  0
 90 65  1  0
 92 90  1  0
 94 93  1  0
 94 54  1  0
 95 96  1  0
 96 94  1  0
M  ISO  4  11 101  12 101  55 100  63 100
M  END
>  <TORSDO>  (33) 
F 22

>  <SCORE>  (33) 
-10.553

>  <name>  (33) 
32

>  <ligand_id>  (33) 
32

>  <original_smiles>  (33) 
[H]c1c([H])c([H])c2c(c1[H])C([H])([H])C([H])([H])C([H])([H])C2([H])N([H])C(=O)C1([H])N(C(=O)C([H])(N([H])C(=O)C([H])(N([H])C([H])([H])[H])C([H])([H])[H])C(C([H])([H])[H])(C([H])([H])[H])C([H])([H])[H])C([H])([H])c2c([H])c(OC([H])([H])C([H])([H])C(=O)N([H])c3nn(C([H])([H])C([H])(N([H])C(=O)N4C([H])([H])C([H])([H])C([H])([H])C([H])(n5nc(-c6c([H])c([H])c(Oc7c([H])c([H])c(F)c([H])c7F)c([H])c6[H])c(C(=O)N([H])[H])c5N([H])[H])C4([H])[H])C([H])(C([H])([H])[H])C([H])([H])C([H])([H])[H])c([H])c3[H])c([H])c([H])c2C1([H])[H]

>  <smiles>  (33) 
[H]c1c([H])c([H])c2c(c1[H])C([H])([H])C([H])([H])C([H])([H])C2([H])N([H])C(=O)C1([H])N(C(=O)C([H])(N([H])C(=O)C([H])(N([H])C([H])([H])[H])C([H])([H])[H])C(C([H])([H])[H])(C([H])([H])[H])C([H])([H])[H])C([H])([H])c2c([H])c(OC([H])([H])C([H])([H])C(=O)N([H])c3nn(C([H])([H])C([H])(N([H])C(=O)N4C([H])([H])C([H])([H])C([H])([H])C([H])(n5nc(-c6c([H])c([H])c(Oc7c([H])c([H])c(F)c([H])c7F)c([H])c6[H])c(C(=O)N([H])[H])c5N([H])[H])C4([H])[H])C([H])(C([H])([H])[H])C([H])([H])C([H])([H])[H])c([H])c3[H])c([H])c([H])c2C1([H])[H]

$$$$
33:0:0
     RDKit          3D

 96104  0  0  1  0  0  0  0  0999 V2000
  -29.9740  -18.3710   19.6140 C   0  0  0  0  0  0  0  0  0  0  0  0
  -29.6560  -19.7110   19.2810 C   0  0  0  0  0  0  0  0  0  0  0  0
  -30.3290  -18.0990   20.9640 C   0  0  0  0  0  0  0  0  0  0  0  0
  -29.7170  -20.7060   20.2890 C   0  0  0  0  0  0  0  0  0  0  0  0
  -30.3170  -19.0970   21.8930 N   0  0  0  0  0  0  0  0  0  0  0  0
  -30.0140  -20.3670   21.5730 N   0  0  0  0  0  0  0  0  0  0  0  0
  -29.5060  -22.0680   19.9580 N   0  0  0  0  0  0  0  0  0  0  0  0
  -29.3470  -20.0440   18.0010 F   0  0  0  0  0  0  0  0  0  0  0  0
  -29.3080  -22.1910   18.9710 H   0  0  0  0  0  0  0  0  0  0  0  0
  -29.9770  -17.3920   18.6080 N   0  0  0  0  0  0  0  0  0  0  0  0
  -29.9040  -17.7460   17.6610 H   0  0  0  0  0  0  0  0  0  0  0  0
  -30.6650  -16.6520   18.6960 H   0  0  0  0  0  0  0  0  0  0  0  0
  -31.7710  -22.9060   20.5420 C   0  0  0  0  0  1  0  0  0  0  0  0
  -30.2470  -23.1600   20.6170 C   0  0  0  0  0  3  0  0  0  0  0  0
  -29.9560  -24.5830   20.0190 C   0  0  0  0  0  2  0  0  0  0  0  0
  -28.5880  -25.2530   20.3240 C   0  0  0  0  0  2  0  0  0  0  0  0
  -28.6550  -26.6960   20.1790 O   0  0  0  0  0  0  0  0  0  0  0  0
  -24.6690  -31.7980   23.2310 C   0  0  0  0  0  0  0  0  0  0  0  0
  -27.4660  -27.4100   20.1730 C   0  0  0  0  0  0  0  0  0  0  0  0
  -23.5290  -30.3920   21.5460 C   0  0  0  0  0  3  0  0  0  0  0  0
  -25.0450  -28.8930   20.1480 C   0  0  0  0  0  0  0  0  0  0  0  0
  -26.0560  -30.7920   21.4180 C   0  0  0  0  0  2  0  0  0  0  0  0
  -26.1830  -29.4280   20.7640 C   0  0  0  0  0  0  0  0  0  0  0  0
  -27.3970  -28.6950   20.7680 C   0  0  0  0  0  3  0  0  0  0  0  0
  -26.3050  -26.8990   19.5500 C   0  0  0  0  0  3  0  0  0  0  0  0
  -25.1020  -27.6290   19.5390 C   0  0  0  0  0  3  0  0  0  0  0  0
  -23.7870  -29.7310   20.1670 C   0  0  0  0  0  2  0  0  0  0  0  0
  -24.7680  -31.0100   22.1230 N   0  0  0  0  0  0  0  0  0  0  0  0
  -23.5690  -32.0440   23.7470 O   0  0  0  0  0  0  0  0  0  0  0  0
  -22.8730  -29.3500   22.4800 C   0  0  0  0  0  0  0  0  0  0  0  0
  -21.5540  -29.1480   22.3220 N   0  0  0  0  0  0  0  0  0  0  0  0
  -23.5490  -28.7240   23.3020 O   0  0  0  0  0  0  0  0  0  0  0  0
  -21.0690  -29.7040   21.6320 H   0  0  0  0  0  0  0  0  0  0  0  0
  -18.1870  -27.9030   22.7440 C   0  0  0  0  0  0  0  0  0  0  0  0
  -20.7370  -28.1880   23.0640 C   0  0  0  0  0  3  0  0  0  0  0  0
  -20.8670  -26.7670   22.4660 C   0  0  0  0  0  2  0  0  0  0  0  0
  -19.7870  -26.4490   21.4280 C   0  0  0  0  0  2  0  0  0  0  0  0
  -18.3920  -26.5670   22.0510 C   0  0  0  0  0  2  0  0  0  0  0  0
  -19.2900  -28.6710   23.2060 C   0  0  0  0  0  0  0  0  0  0  0  0
  -19.0460  -29.9230   23.8140 C   0  0  0  0  0  3  0  0  0  0  0  0
  -17.7340  -30.4070   23.9630 C   0  0  0  0  0  3  0  0  0  0  0  0
  -16.6460  -29.6370   23.5180 C   0  0  0  0  0  3  0  0  0  0  0  0
  -16.8730  -28.3860   22.9150 C   0  0  0  0  0  3  0  0  0  0  0  0
  -25.9270  -32.4470   23.8880 C   0  0  0  0  0  3  0  0  0  0  0  0
  -25.5890  -33.8420   24.2020 N   0  0  0  0  0  0  0  0  0  0  0  0
  -25.9290  -34.8960   23.4480 C   0  0  0  0  0  0  0  0  0  0  0  0
  -26.6280  -34.7970   22.4360 O   0  0  0  0  0  0  0  0  0  0  0  0
  -24.9700  -33.9910   24.9840 H   0  0  0  0  0  0  0  0  0  0  0  0
  -24.1950  -36.6670   23.0290 C   0  0  0  0  0  1  0  0  0  0  0  0
  -25.4090  -36.2770   23.8860 C   0  0  0  0  0  3  0  0  0  0  0  0
  -27.4960  -37.1940   24.8000 C   0  0  0  0  0  1  0  0  0  0  0  0
  -26.4330  -37.3430   23.8100 N   0  0  0  0  0  0  0  0  0  0  0  0
  -26.0100  -38.2580   23.9360 H   0  0  0  0  0  0  0  0  0  0  0  0
  -26.4150  -31.6860   25.1810 C   0  0  1  0  0  0  0  0  0  0  0  0
  -25.2920  -31.4360   26.2140 C   0  0  0  0  0  1  0  0  0  0  0  0
  -27.0280  -30.3150   24.8090 C   0  0  0  0  0  1  0  0  0  0  0  0
  -27.5340  -32.4970   25.8770 C   0  0  0  0  0  1  0  0  0  0  0  0
  -30.8780  -16.7430   21.4730 C   0  0  0  0  0  2  0  0  0  0  0  0
  -30.8040  -14.5300   20.2680 C   0  0  0  0  0  0  0  0  0  0  0  0
  -30.4210  -12.4230   19.0260 C   0  0  0  0  0  2  0  0  0  0  0  0
  -29.4260  -12.6670   17.8740 C   0  0  0  0  0  2  0  0  0  0  0  0
  -27.9720  -12.5180   18.3670 C   0  0  0  0  0  2  0  0  0  0  0  0
  -27.7020  -13.3210   19.6690 C   0  0  0  0  0  3  0  0  0  0  0  0
  -28.8010  -13.0580   20.7200 C   0  0  0  0  0  2  0  0  0  0  0  0
  -30.1000  -13.3760   20.1040 N   0  0  0  0  0  0  0  0  0  0  0  0
  -31.8800  -14.7360   19.6970 O   0  0  0  0  0  0  0  0  0  0  0  0
  -30.2360  -15.4790   21.0400 N   0  0  0  0  0  0  0  0  0  0  0  0
  -29.3330  -15.2710   21.4350 H   0  0  0  0  0  0  0  0  0  0  0  0
  -25.3420  -13.9280   20.4980 C   0  0  0  0  0  0  0  0  0  0  0  0
  -24.2850  -13.1560   20.8990 C   0  0  0  0  0  0  0  0  0  0  0  0
  -24.7340  -11.8020   20.8160 C   0  0  0  0  0  0  0  0  0  0  0  0
  -26.3690  -13.0450   20.2010 N   0  0  0  0  0  0  0  0  0  0  0  0
  -26.0080  -11.7590   20.4470 N   0  0  0  0  0  0  0  0  0  0  0  0
  -24.0060  -10.5410   21.0120 C   0  0  0  0  0  0  0  0  0  0  0  0
  -24.4540   -9.5620   21.9250 C   0  0  0  0  0  3  0  0  0  0  0  0
  -23.7260   -8.3670   22.1080 C   0  0  0  0  0  3  0  0  0  0  0  0
  -22.5350   -8.1420   21.3790 C   0  0  0  0  0  0  0  0  0  0  0  0
  -22.1050   -9.1110   20.4540 C   0  0  0  0  0  3  0  0  0  0  0  0
  -22.8340  -10.2970   20.2690 C   0  0  0  0  0  3  0  0  0  0  0  0
  -21.7760   -7.0000   21.4710 O   0  0  0  0  0  0  0  0  0  0  0  0
  -21.7230   -6.2630   22.6270 C   0  0  0  0  0  0  0  0  0  0  0  0
  -21.2570   -6.8120   23.8410 C   0  0  0  0  0  3  0  0  0  0  0  0
  -21.1530   -5.9990   24.9880 C   0  0  0  0  0  3  0  0  0  0  0  0
  -21.5060   -4.6380   24.9210 C   0  0  0  0  0  0  0  0  0  0  0  0
  -21.9650   -4.0880   23.7120 C   0  0  0  0  0  3  0  0  0  0  0  0
  -22.0700   -4.8980   22.5670 C   0  0  0  0  0  0  0  0  0  0  0  0
  -22.4930   -4.3580   21.3980 F   0  0  0  0  0  0  0  0  0  0  0  0
  -21.4030   -3.8560   26.0230 F   0  0  0  0  0  0  0  0  0  0  0  0
  -22.9050  -13.6380   21.2480 C   0  0  0  0  0  0  0  0  0  0  0  0
  -22.2100  -12.9250   22.1280 N   0  0  0  0  0  0  0  0  0  0  0  0
  -22.4550  -14.6810   20.7770 O   0  0  0  0  0  0  0  0  0  0  0  0
  -22.5900  -12.0810   22.5330 H   0  0  0  0  0  0  0  0  0  0  0  0
  -21.2870  -13.2280   22.4020 H   0  0  0  0  0  0  0  0  0  0  0  0
  -25.5140  -15.2990   20.3470 N   0  0  0  0  0  0  0  0  0  0  0  0
  -24.7660  -15.9640   20.5080 H   0  0  0  0  0  0  0  0  0  0  0  0
  -26.3620  -15.7370   20.0040 H   0  0  0  0  0  0  0  0  0  0  0  0
  1  3  1  0
  2  1  2  0
  2  4  1  0
  3 58  1  0
  3  5  2  0
  4  6  2  0
  6  5  1  0
  7  4  1  0
  7 14  1  0
  8  2  1  0
  9  7  1  0
 10 12  1  0
 10  1  1  0
 11 10  1  0
 14 13  1  0
 15 16  1  0
 15 14  1  0
 17 16  1  0
 18 29  2  0
 19 17  1  0
 19 24  1  0
 20 28  1  0
 20 30  1  0
 21 27  1  0
 21 23  1  0
 22 28  1  0
 23 24  2  0
 23 22  1  0
 25 19  2  0
 26 25  1  0
 26 21  2  0
 27 20  1  0
 28 18  1  0
 30 32  2  0
 31 30  1  0
 33 31  1  0
 34 43  2  0
 34 39  1  0
 35 31  1  0
 35 39  1  0
 36 35  1  0
 37 38  1  0
 37 36  1  0
 38 34  1  0
 39 40  2  0
 40 41  1  0
 42 41  2  0
 43 42  1  0
 44 18  1  0
 44 45  1  0
 44 54  1  0
 45 48  1  0
 46 50  1  0
 46 45  1  0
 47 46  2  0
 50 49  1  0
 52 50  1  0
 52 53  1  0
 52 51  1  0
 54 57  1  1
 54 55  1  0
 56 54  1  0
 59 67  1  0
 60 65  1  0
 61 62  1  0
 61 60  1  0
 63 62  1  0
 63 72  1  0
 63 64  1  0
 65 59  1  0
 65 64  1  0
 66 59  2  0
 67 68  1  0
 67 58  1  0
 69 70  2  0
 70 89  1  0
 71 70  1  0
 71 74  1  0
 72 73  1  0
 72 69  1  0
 73 71  2  0
 74 75  1  0
 75 76  2  0
 77 80  1  0
 77 76  1  0
 78 77  2  0
 79 78  1  0
 79 74  2  0
 80 81  1  0
 81 82  1  0
 82 83  2  0
 84 83  1  0
 84 88  1  0
 85 84  2  0
 86 81  2  0
 86 85  1  0
 87 86  1  0
 89 90  1  0
 90 93  1  0
 90 92  1  0
 91 89  2  0
 94 69  1  0
 94 95  1  0
 96 94  1  0
M  ISO  4  16 101  17 101  59 100  67 100
M  END
>  <TORSDO>  (34) 
F 21

>  <SCORE>  (34) 
-13.661

>  <name>  (34) 
33

>  <ligand_id>  (34) 
33

>  <original_smiles>  (34) 
[H]c1c([H])c([H])c2c(c1[H])C([H])([H])C([H])([H])C([H])([H])C2([H])N([H])C(=O)C1([H])N(C(=O)C([H])(N([H])C(=O)C([H])(N([H])C([H])([H])[H])C([H])([H])[H])C(C([H])([H])[H])(C([H])([H])[H])C([H])([H])[H])C([H])([H])c2c([H])c(OC([H])([H])C([H])([H])C([H])(N([H])c3nnc(C([H])([H])N([H])C(=O)N4C([H])([H])C([H])([H])C([H])([H])C([H])(n5nc(-c6c([H])c([H])c(Oc7c([H])c([H])c(F)c([H])c7F)c([H])c6[H])c(C(=O)N([H])[H])c5N([H])[H])C4([H])[H])c(N([H])[H])c3F)C([H])([H])[H])c([H])c([H])c2C1([H])[H]

>  <smiles>  (34) 
[H]c1c([H])c([H])c2c(c1[H])C([H])([H])C([H])([H])C([H])([H])C2([H])N([H])C(=O)C1([H])N(C(=O)C([H])(N([H])C(=O)C([H])(N([H])C([H])([H])[H])C([H])([H])[H])C(C([H])([H])[H])(C([H])([H])[H])C([H])([H])[H])C([H])([H])c2c([H])c(OC([H])([H])C([H])([H])C([H])(N([H])c3nnc(C([H])([H])N([H])C(=O)N4C([H])([H])C([H])([H])C([H])([H])C([H])(n5nc(-c6c([H])c([H])c(Oc7c([H])c([H])c(F)c([H])c7F)c([H])c6[H])c(C(=O)N([H])[H])c5N([H])[H])C4([H])[H])c(N([H])[H])c3F)C([H])([H])[H])c([H])c([H])c2C1([H])[H]

$$$$
34:0:0
     RDKit          3D

 95103  0  0  1  0  0  0  0  0999 V2000
  -29.5970  -17.7940   20.5960 C   0  0  0  0  0  0  0  0  0  0  0  0
  -29.1110  -17.7820   19.3000 C   0  0  0  0  0  0  0  0  0  0  0  0
  -28.7320  -19.9020   20.4810 C   0  0  0  0  0  0  0  0  0  0  0  0
  -28.2200  -22.3180   20.3080 C   0  0  0  0  0  0  0  0  0  0  0  0
  -29.1840  -16.7220   18.2480 C   0  0  0  0  0  1  0  0  0  0  0  0
  -29.3350  -19.0010   21.2560 N   0  0  0  0  0  0  0  0  0  0  0  0
  -28.4870  -21.1950   20.9940 N   0  0  0  0  0  0  0  0  0  0  0  0
  -28.0640  -22.3720   19.0850 O   0  0  0  0  0  0  0  0  0  0  0  0
  -28.3400  -19.2950   18.8820 S   0  0  0  0  0  0  0  0  0  0  0  0
  -28.6200  -21.2990   21.9880 H   0  0  0  0  0  0  0  0  0  0  0  0
  -30.3800  -16.7560   21.3690 C   0  0  0  0  0  2  0  0  0  0  0  0
  -30.6760  -14.4440   20.4830 C   0  0  0  0  0  0  0  0  0  0  0  0
  -30.3590  -12.3660   19.2040 C   0  0  0  0  0  2  0  0  0  0  0  0
  -29.3940  -12.6450   18.0340 C   0  0  0  0  0  2  0  0  0  0  0  0
  -27.9250  -12.5060   18.4850 C   0  0  0  0  0  2  0  0  0  0  0  0
  -27.6230  -13.2790   19.7980 C   0  0  0  0  0  3  0  0  0  0  0  0
  -28.6870  -12.9530   20.8650 C   0  0  0  0  0  2  0  0  0  0  0  0
  -30.0070  -13.2800   20.2960 N   0  0  0  0  0  0  0  0  0  0  0  0
  -31.7820  -14.6820   19.9880 O   0  0  0  0  0  0  0  0  0  0  0  0
  -29.9770  -15.3760   21.1390 N   0  0  0  0  0  0  0  0  0  0  0  0
  -29.0780  -15.1000   21.5020 H   0  0  0  0  0  0  0  0  0  0  0  0
  -25.2260  -13.9010   20.5000 C   0  0  0  0  0  0  0  0  0  0  0  0
  -24.1590  -13.1290   20.8800 C   0  0  0  0  0  0  0  0  0  0  0  0
  -24.6190  -11.7780   20.8460 C   0  0  0  0  0  0  0  0  0  0  0  0
  -26.2700  -13.0150   20.2750 N   0  0  0  0  0  0  0  0  0  0  0  0
  -25.9060  -11.7350   20.5330 N   0  0  0  0  0  0  0  0  0  0  0  0
  -23.8970  -10.5150   21.0400 C   0  0  0  0  0  0  0  0  0  0  0  0
  -24.3370   -9.5510   21.9730 C   0  0  0  0  0  3  0  0  0  0  0  0
  -23.6180   -8.3510   22.1570 C   0  0  0  0  0  3  0  0  0  0  0  0
  -22.4440   -8.1070   21.4050 C   0  0  0  0  0  0  0  0  0  0  0  0
  -22.0220   -9.0600   20.4620 C   0  0  0  0  0  3  0  0  0  0  0  0
  -22.7430  -10.2510   20.2790 C   0  0  0  0  0  3  0  0  0  0  0  0
  -21.6930   -6.9610   21.4990 O   0  0  0  0  0  0  0  0  0  0  0  0
  -21.6470   -6.2240   22.6550 C   0  0  0  0  0  0  0  0  0  0  0  0
  -21.2040   -6.7750   23.8760 C   0  0  0  0  0  3  0  0  0  0  0  0
  -21.1050   -5.9590   25.0210 C   0  0  0  0  0  3  0  0  0  0  0  0
  -21.4410   -4.5940   24.9450 C   0  0  0  0  0  0  0  0  0  0  0  0
  -21.8750   -4.0410   23.7280 C   0  0  0  0  0  3  0  0  0  0  0  0
  -21.9760   -4.8540   22.5850 C   0  0  0  0  0  0  0  0  0  0  0  0
  -22.3760   -4.3120   21.4100 F   0  0  0  0  0  0  0  0  0  0  0  0
  -21.3400   -3.8100   26.0440 F   0  0  0  0  0  0  0  0  0  0  0  0
  -22.7640  -13.6080   21.1600 C   0  0  0  0  0  0  0  0  0  0  0  0
  -22.0390  -12.9070   22.0280 N   0  0  0  0  0  0  0  0  0  0  0  0
  -22.3240  -14.6360   20.6480 O   0  0  0  0  0  0  0  0  0  0  0  0
  -22.4060  -12.0720   22.4600 H   0  0  0  0  0  0  0  0  0  0  0  0
  -21.1000  -13.2030   22.2530 H   0  0  0  0  0  0  0  0  0  0  0  0
  -25.3880  -15.2700   20.3090 N   0  0  0  0  0  0  0  0  0  0  0  0
  -24.6050  -15.9120   20.3720 H   0  0  0  0  0  0  0  0  0  0  0  0
  -26.2250  -15.7070   19.9420 H   0  0  0  0  0  0  0  0  0  0  0  0
  -28.0820  -23.5990   21.1370 C   0  0  0  0  0  2  0  0  0  0  0  0
  -29.2490  -24.6020   20.9660 C   0  0  0  0  0  3  0  0  0  0  0  0
  -30.4130  -24.1760   21.6690 O   0  0  0  0  0  0  0  0  0  0  0  0
  -30.2570  -24.2720   22.6040 H   0  0  0  0  0  0  0  0  0  0  0  0
  -28.8590  -26.0300   21.4180 C   0  0  0  0  0  2  0  0  0  0  0  0
  -28.5620  -26.8010   20.2620 O   0  0  0  0  0  0  0  0  0  0  0  0
  -24.6190  -31.9200   23.2750 C   0  0  0  0  0  0  0  0  0  0  0  0
  -27.3840  -27.4970   20.3070 C   0  0  0  0  0  0  0  0  0  0  0  0
  -23.4620  -30.4800   21.6280 C   0  0  0  0  0  3  0  0  0  0  0  0
  -24.9650  -28.9360   20.2650 C   0  0  0  0  0  0  0  0  0  0  0  0
  -25.9830  -30.8740   21.4750 C   0  0  0  0  0  2  0  0  0  0  0  0
  -26.1000  -29.4930   20.8670 C   0  0  0  0  0  0  0  0  0  0  0  0
  -27.3150  -28.7770   20.8930 C   0  0  0  0  0  3  0  0  0  0  0  0
  -26.2390  -26.9400   19.7070 C   0  0  0  0  0  3  0  0  0  0  0  0
  -25.0240  -27.6530   19.6910 C   0  0  0  0  0  3  0  0  0  0  0  0
  -23.7090  -29.7790   20.2640 C   0  0  0  0  0  2  0  0  0  0  0  0
  -24.7050  -31.1050   22.1860 N   0  0  0  0  0  0  0  0  0  0  0  0
  -23.5240  -32.1880   23.7900 O   0  0  0  0  0  0  0  0  0  0  0  0
  -22.8030  -29.4650   22.5870 C   0  0  0  0  0  0  0  0  0  0  0  0
  -21.4820  -29.2770   22.4420 N   0  0  0  0  0  0  0  0  0  0  0  0
  -23.4770  -28.8480   23.4150 O   0  0  0  0  0  0  0  0  0  0  0  0
  -21.0000  -29.8340   21.7510 H   0  0  0  0  0  0  0  0  0  0  0  0
  -18.0980  -28.1150   22.9260 C   0  0  0  0  0  0  0  0  0  0  0  0
  -20.6570  -28.3420   23.2060 C   0  0  0  0  0  3  0  0  0  0  0  0
  -20.7460  -26.9120   22.6250 C   0  0  0  0  0  2  0  0  0  0  0  0
  -19.6430  -26.6070   21.6040 C   0  0  0  0  0  2  0  0  0  0  0  0
  -18.2610  -26.7650   22.2460 C   0  0  0  0  0  2  0  0  0  0  0  0
  -19.2250  -28.8610   23.3620 C   0  0  0  0  0  0  0  0  0  0  0  0
  -19.0210  -30.1260   23.9550 C   0  0  0  0  0  3  0  0  0  0  0  0
  -17.7230  -30.6450   24.1180 C   0  0  0  0  0  3  0  0  0  0  0  0
  -16.6110  -29.8930   23.7020 C   0  0  0  0  0  3  0  0  0  0  0  0
  -16.7990  -28.6300   23.1130 C   0  0  0  0  0  3  0  0  0  0  0  0
  -25.8870  -32.5700   23.9120 C   0  0  0  0  0  3  0  0  0  0  0  0
  -25.5620  -33.9700   24.2120 N   0  0  0  0  0  0  0  0  0  0  0  0
  -25.9050  -35.0120   23.4430 C   0  0  0  0  0  0  0  0  0  0  0  0
  -26.5990  -34.8960   22.4300 O   0  0  0  0  0  0  0  0  0  0  0  0
  -24.9470  -34.1340   24.9950 H   0  0  0  0  0  0  0  0  0  0  0  0
  -24.1740  -36.7840   23.0110 C   0  0  0  0  0  1  0  0  0  0  0  0
  -25.3950  -36.4020   23.8620 C   0  0  0  0  0  3  0  0  0  0  0  0
  -27.4970  -37.3170   24.7410 C   0  0  0  0  0  1  0  0  0  0  0  0
  -26.4230  -37.4610   23.7630 N   0  0  0  0  0  0  0  0  0  0  0  0
  -26.0060  -38.3800   23.8850 H   0  0  0  0  0  0  0  0  0  0  0  0
  -26.3850  -31.8200   25.2090 C   0  0  1  0  0  0  0  0  0  0  0  0
  -25.2740  -31.5940   26.2590 C   0  0  0  0  0  1  0  0  0  0  0  0
  -26.9810  -30.4400   24.8440 C   0  0  0  0  0  1  0  0  0  0  0  0
  -27.5180  -32.6310   25.8800 C   0  0  0  0  0  1  0  0  0  0  0  0
  1  6  1  0
  1 11  1  0
  2  1  2  0
  3  7  1  0
  3  6  2  0
  4  7  1  0
  4 50  1  0
  5  2  1  0
  7 10  1  0
  8  4  2  0
  9  2  1  0
  9  3  1  0
 12 20  1  0
 13 18  1  0
 14 15  1  0
 14 13  1  0
 16 15  1  0
 16 25  1  0
 16 17  1  0
 18 12  1  0
 18 17  1  0
 19 12  2  0
 20 11  1  0
 20 21  1  0
 22 23  2  0
 23 42  1  0
 24 23  1  0
 24 27  1  0
 25 22  1  0
 25 26  1  0
 26 24  2  0
 27 28  1  0
 28 29  2  0
 30 33  1  0
 30 29  1  0
 31 30  2  0
 32 31  1  0
 32 27  2  0
 33 34  1  0
 34 35  1  0
 35 36  2  0
 37 36  1  0
 37 41  1  0
 38 37  2  0
 39 34  2  0
 39 38  1  0
 40 39  1  0
 42 43  1  0
 43 46  1  0
 43 45  1  0
 44 42  2  0
 47 48  1  0
 47 22  1  0
 49 47  1  0
 51 50  1  0
 51 54  1  0
 51 52  1  0
 52 53  1  0
 55 57  1  0
 55 54  1  0
 56 67  2  0
 57 62  1  0
 58 66  1  0
 58 68  1  0
 59 61  1  0
 60 66  1  0
 61 62  2  0
 61 60  1  0
 63 57  2  0
 64 63  1  0
 64 59  2  0
 65 59  1  0
 65 58  1  0
 66 56  1  0
 68 70  2  0
 69 68  1  0
 71 69  1  0
 72 81  2  0
 72 77  1  0
 73 69  1  0
 73 77  1  0
 74 73  1  0
 75 76  1  0
 75 74  1  0
 76 72  1  0
 77 78  2  0
 78 79  1  0
 80 79  2  0
 81 80  1  0
 82 56  1  0
 82 83  1  0
 82 92  1  0
 83 86  1  0
 84 88  1  0
 84 83  1  0
 85 84  2  0
 88 87  1  0
 90 88  1  0
 90 91  1  0
 90 89  1  0
 92 95  1  1
 92 93  1  0
 94 92  1  0
M  ISO  4  12 100  20 100  54 101  55 101
M  END
>  <TORSDO>  (35) 
F 21

>  <SCORE>  (35) 
-13.516

>  <name>  (35) 
34

>  <ligand_id>  (35) 
34

>  <original_smiles>  (35) 
[H]OC([H])(C([H])([H])Oc1c([H])c([H])c2c(c1[H])C([H])([H])N(C(=O)C([H])(N([H])C(=O)C([H])(N([H])C([H])([H])[H])C([H])([H])[H])C(C([H])([H])[H])(C([H])([H])[H])C([H])([H])[H])C([H])(C(=O)N([H])C1([H])c3c([H])c([H])c([H])c([H])c3C([H])([H])C([H])([H])C1([H])[H])C2([H])[H])C([H])([H])C(=O)N([H])c1nc(C([H])([H])N([H])C(=O)N2C([H])([H])C([H])([H])C([H])([H])C([H])(n3nc(-c4c([H])c([H])c(Oc5c([H])c([H])c(F)c([H])c5F)c([H])c4[H])c(C(=O)N([H])[H])c3N([H])[H])C2([H])[H])c(C([H])([H])[H])s1

>  <smiles>  (35) 
[H]OC([H])(C([H])([H])Oc1c([H])c([H])c2c(c1[H])C([H])([H])N(C(=O)C([H])(N([H])C(=O)C([H])(N([H])C([H])([H])[H])C([H])([H])[H])C(C([H])([H])[H])(C([H])([H])[H])C([H])([H])[H])C([H])(C(=O)N([H])C1([H])c3c([H])c([H])c([H])c([H])c3C([H])([H])C([H])([H])C1([H])[H])C2([H])[H])C([H])([H])C(=O)N([H])c1nc(C([H])([H])N([H])C(=O)N2C([H])([H])C([H])([H])C([H])([H])C([H])(n3nc(-c4c([H])c([H])c(Oc5c([H])c([H])c(F)c([H])c5F)c([H])c4[H])c(C(=O)N([H])[H])c3N([H])[H])C2([H])[H])c(C([H])([H])[H])s1

$$$$
35:0:0
     RDKit          3D

 94102  0  0  1  0  0  0  0  0999 V2000
  -30.3640  -19.3450   20.3230 C   0  0  0  0  0  0  0  0  0  0  0  0
  -30.6630  -18.7700   19.0880 C   0  0  0  0  0  0  0  0  0  0  0  0
  -30.1700  -21.3300   19.0830 C   0  0  0  0  0  0  0  0  0  0  0  0
  -29.8470  -23.9310   19.4880 C   0  0  0  0  0  0  0  0  0  0  0  0
  -30.0770  -20.7540   20.2920 N   0  0  0  0  0  0  0  0  0  0  0  0
  -29.9730  -22.7600   18.7590 N   0  0  0  0  0  0  0  0  0  0  0  0
  -29.9090  -23.9480   20.7210 O   0  0  0  0  0  0  0  0  0  0  0  0
  -30.5510  -20.0690   17.8670 S   0  0  0  0  0  0  0  0  0  0  0  0
  -29.9510  -22.9290   17.7630 H   0  0  0  0  0  0  0  0  0  0  0  0
  -30.3760  -18.6330   21.6600 C   0  0  2  0  0  0  0  0  0  0  0  0
  -30.1170  -19.4680   22.6710 F   0  0  0  0  0  0  0  0  0  0  0  0
  -31.5560  -18.0640   21.9230 F   0  0  0  0  0  0  0  0  0  0  0  0
  -28.9680  -17.2310   21.5560 Br  0  0  0  0  0  0  0  0  0  0  0  0
  -31.2540  -17.3590   18.6900 C   0  0  0  0  0  2  0  0  0  0  0  0
  -31.5260  -14.8420   19.0880 C   0  0  0  0  0  0  0  0  0  0  0  0
  -31.2930  -12.4410   18.4640 C   0  0  0  0  0  2  0  0  0  0  0  0
  -30.2280  -12.3060   17.3560 C   0  0  0  0  0  2  0  0  0  0  0  0
  -28.8250  -12.1580   17.9740 C   0  0  0  0  0  2  0  0  0  0  0  0
  -28.5470  -13.2080   19.0840 C   0  0  0  0  0  3  0  0  0  0  0  0
  -29.7250  -13.3360   20.0730 C   0  0  0  0  0  2  0  0  0  0  0  0
  -30.9280  -13.6180   19.2850 N   0  0  0  0  0  0  0  0  0  0  0  0
  -32.6660  -14.8950   18.6210 O   0  0  0  0  0  0  0  0  0  0  0  0
  -30.7740  -16.0020   19.1860 N   0  0  0  0  0  0  0  0  0  0  0  0
  -29.8270  -15.9180   19.5200 H   0  0  0  0  0  0  0  0  0  0  0  0
  -26.3510  -13.8570   20.2350 C   0  0  0  0  0  0  0  0  0  0  0  0
  -25.3100  -13.1110   20.7170 C   0  0  0  0  0  0  0  0  0  0  0  0
  -25.6740  -11.7460   20.5110 C   0  0  0  0  0  0  0  0  0  0  0  0
  -27.2840  -12.9480   19.7650 N   0  0  0  0  0  0  0  0  0  0  0  0
  -26.8940  -11.6680   19.9940 N   0  0  0  0  0  0  0  0  0  0  0  0
  -24.9060  -10.5100   20.7230 C   0  0  0  0  0  0  0  0  0  0  0  0
  -25.2710   -9.5740   21.7140 C   0  0  0  0  0  3  0  0  0  0  0  0
  -24.5050   -8.4040   21.9110 C   0  0  0  0  0  3  0  0  0  0  0  0
  -23.3580   -8.1640   21.1170 C   0  0  0  0  0  0  0  0  0  0  0  0
  -23.0130   -9.0900   20.1160 C   0  0  0  0  0  3  0  0  0  0  0  0
  -23.7790  -10.2500   19.9180 C   0  0  0  0  0  3  0  0  0  0  0  0
  -22.5700   -7.0440   21.2220 O   0  0  0  0  0  0  0  0  0  0  0  0
  -22.1920   -6.5410   22.4410 C   0  0  0  0  0  0  0  0  0  0  0  0
  -21.4160   -7.2930   23.3500 C   0  0  0  0  0  3  0  0  0  0  0  0
  -20.9910   -6.7110   24.5610 C   0  0  0  0  0  3  0  0  0  0  0  0
  -21.3330   -5.3790   24.8620 C   0  0  0  0  0  0  0  0  0  0  0  0
  -22.1020   -4.6280   23.9550 C   0  0  0  0  0  3  0  0  0  0  0  0
  -22.5270   -5.2070   22.7470 C   0  0  0  0  0  0  0  0  0  0  0  0
  -23.2500   -4.4720   21.8680 F   0  0  0  0  0  0  0  0  0  0  0  0
  -20.9200   -4.8170   26.0210 F   0  0  0  0  0  0  0  0  0  0  0  0
  -24.0060  -13.6370   21.2450 C   0  0  0  0  0  0  0  0  0  0  0  0
  -23.3950  -12.9260   22.1860 N   0  0  0  0  0  0  0  0  0  0  0  0
  -23.5460  -14.7110   20.8570 O   0  0  0  0  0  0  0  0  0  0  0  0
  -23.7820  -12.0550   22.5180 H   0  0  0  0  0  0  0  0  0  0  0  0
  -22.5260  -13.2580   22.5810 H   0  0  0  0  0  0  0  0  0  0  0  0
  -26.5720  -15.2260   20.1290 N   0  0  0  0  0  0  0  0  0  0  0  0
  -25.8630  -15.9030   20.3870 H   0  0  0  0  0  0  0  0  0  0  0  0
  -27.3460  -15.6380   19.6270 H   0  0  0  0  0  0  0  0  0  0  0  0
  -29.6140  -25.3100   18.7030 C   0  0  0  0  0  2  0  0  0  0  0  0
  -29.3590  -26.5720   19.4760 O   0  0  0  0  0  0  0  0  0  0  0  0
  -24.9460  -31.0180   23.1010 C   0  0  0  0  0  0  0  0  0  0  0  0
  -28.1260  -27.2620   19.4920 C   0  0  0  0  0  0  0  0  0  0  0  0
  -23.9290  -29.6950   21.2830 C   0  0  0  0  0  3  0  0  0  0  0  0
  -25.5630  -28.5530   19.6760 C   0  0  0  0  0  0  0  0  0  0  0  0
  -26.4040  -30.3670   21.1660 C   0  0  0  0  0  2  0  0  0  0  0  0
  -26.6620  -29.1060   20.3420 C   0  0  0  0  0  0  0  0  0  0  0  0
  -27.9400  -28.4710   20.2430 C   0  0  0  0  0  3  0  0  0  0  0  0
  -26.9880  -26.7650   18.8160 C   0  0  0  0  0  3  0  0  0  0  0  0
  -25.7290  -27.3920   18.9060 C   0  0  0  0  0  3  0  0  0  0  0  0
  -24.2200  -29.2410   19.8280 C   0  0  0  0  0  2  0  0  0  0  0  0
  -25.1100  -30.3730   21.9080 N   0  0  0  0  0  0  0  0  0  0  0  0
  -23.8390  -31.0740   23.6570 O   0  0  0  0  0  0  0  0  0  0  0  0
  -23.4180  -28.4820   22.0960 C   0  0  0  0  0  0  0  0  0  0  0  0
  -22.1520  -28.0900   21.8710 N   0  0  0  0  0  0  0  0  0  0  0  0
  -24.1610  -27.9010   22.8910 O   0  0  0  0  0  0  0  0  0  0  0  0
  -21.6020  -28.6240   21.2120 H   0  0  0  0  0  0  0  0  0  0  0  0
  -19.0560  -26.2200   21.9740 C   0  0  0  0  0  0  0  0  0  0  0  0
  -21.4820  -26.9480   22.4950 C   0  0  0  0  0  3  0  0  0  0  0  0
  -21.9130  -25.6190   21.8300 C   0  0  0  0  0  2  0  0  0  0  0  0
  -20.9780  -25.1800   20.6990 C   0  0  0  0  0  2  0  0  0  0  0  0
  -19.5510  -24.9960   21.2230 C   0  0  0  0  0  2  0  0  0  0  0  0
  -19.9630  -27.1450   22.5580 C   0  0  0  0  0  0  0  0  0  0  0  0
  -19.4500  -28.2830   23.2170 C   0  0  0  0  0  3  0  0  0  0  0  0
  -18.0620  -28.5040   23.2990 C   0  0  0  0  0  3  0  0  0  0  0  0
  -17.1690  -27.5780   22.7320 C   0  0  0  0  0  3  0  0  0  0  0  0
  -17.6650  -26.4380   22.0750 C   0  0  0  0  0  3  0  0  0  0  0  0
  -26.1340  -31.7330   23.8140 C   0  0  0  0  0  3  0  0  0  0  0  0
  -26.6680  -30.9470   25.0740 C   0  0  1  0  0  0  0  0  0  0  0  0
  -25.5590  -30.5530   26.0780 C   0  0  0  0  0  1  0  0  0  0  0  0
  -27.3930  -29.6500   24.6440 C   0  0  0  0  0  1  0  0  0  0  0  0
  -27.7120  -31.8060   25.8260 C   0  0  0  0  0  1  0  0  0  0  0  0
  -25.6780  -33.0760   24.2000 N   0  0  0  0  0  0  0  0  0  0  0  0
  -25.9130  -34.1930   23.4980 C   0  0  0  0  0  0  0  0  0  0  0  0
  -26.6050  -34.2070   22.4760 O   0  0  0  0  0  0  0  0  0  0  0  0
  -25.0580  -33.1310   24.9950 H   0  0  0  0  0  0  0  0  0  0  0  0
  -24.0010  -35.8040   23.2140 C   0  0  0  0  0  1  0  0  0  0  0  0
  -25.2810  -35.5020   24.0090 C   0  0  0  0  0  3  0  0  0  0  0  0
  -27.2970  -36.5900   24.8940 C   0  0  0  0  0  1  0  0  0  0  0  0
  -26.1940  -36.6640   23.9400 N   0  0  0  0  0  0  0  0  0  0  0  0
  -25.6890  -37.5300   24.1070 H   0  0  0  0  0  0  0  0  0  0  0  0
  1 10  1  0
  2  1  2  0
  3  5  2  0
  4  7  2  0
  5  1  1  0
  6  3  1  0
  6  4  1  0
  8  3  1  0
  8  2  1  0
  9  6  1  0
 10 12  1  1
 10 11  1  0
 13 10  1  0
 14  2  1  0
 14 23  1  0
 15 23  1  0
 15 21  1  0
 16 21  1  0
 17 18  1  0
 17 16  1  0
 19 18  1  0
 19 28  1  0
 19 20  1  0
 21 20  1  0
 22 15  2  0
 23 24  1  0
 25 26  2  0
 26 45  1  0
 27 26  1  0
 27 30  1  0
 28 29  1  0
 28 25  1  0
 29 27  2  0
 30 31  1  0
 31 32  2  0
 33 36  1  0
 33 32  1  0
 34 33  2  0
 35 34  1  0
 35 30  2  0
 36 37  1  0
 37 42  2  0
 37 38  1  0
 38 39  2  0
 39 40  1  0
 40 44  1  0
 41 40  2  0
 42 41  1  0
 43 42  1  0
 45 46  1  0
 46 48  1  0
 46 49  1  0
 47 45  2  0
 50 25  1  0
 50 51  1  0
 52 50  1  0
 53 54  1  0
 53  4  1  0
 54 56  1  0
 55 66  2  0
 56 61  1  0
 57 65  1  0
 57 67  1  0
 58 64  1  0
 58 60  1  0
 59 65  1  0
 60 59  1  0
 61 60  2  0
 62 63  1  0
 62 56  2  0
 63 58  2  0
 64 57  1  0
 65 55  1  0
 67 69  2  0
 68 67  1  0
 70 68  1  0
 71 80  2  0
 71 76  1  0
 72 68  1  0
 72 76  1  0
 73 72  1  0
 74 75  1  0
 74 73  1  0
 75 71  1  0
 76 77  2  0
 77 78  1  0
 79 78  2  0
 80 79  1  0
 81 55  1  0
 81 86  1  0
 81 82  1  0
 82 85  1  1
 82 83  1  0
 84 82  1  0
 86 89  1  0
 87 91  1  0
 87 86  1  0
 88 87  2  0
 91 90  1  0
 93 91  1  0
 93 94  1  0
 93 92  1  0
M  ISO  4  15 100  23 100  53 101  54 101
M  END
>  <TORSDO>  (36) 
F 19

>  <SCORE>  (36) 
-8.476

>  <name>  (36) 
35

>  <ligand_id>  (36) 
35

>  <original_smiles>  (36) 
[H]c1c([H])c([H])c2c(c1[H])C([H])([H])C([H])([H])C([H])([H])C2([H])N([H])C(=O)C1([H])N(C(=O)C([H])(N([H])C(=O)C([H])(N([H])C([H])([H])[H])C([H])([H])[H])C(C([H])([H])[H])(C([H])([H])[H])C([H])([H])[H])C([H])([H])c2c([H])c(OC([H])([H])C(=O)N([H])c3nc(C(F)(F)Br)c(C([H])([H])N([H])C(=O)N4C([H])([H])C([H])([H])C([H])([H])C([H])(n5nc(-c6c([H])c([H])c(Oc7c([H])c([H])c(F)c([H])c7F)c([H])c6[H])c(C(=O)N([H])[H])c5N([H])[H])C4([H])[H])s3)c([H])c([H])c2C1([H])[H]

>  <smiles>  (36) 
[H]c1c([H])c([H])c2c(c1[H])C([H])([H])C([H])([H])C([H])([H])C2([H])N([H])C(=O)C1([H])N(C(=O)C([H])(N([H])C(=O)C([H])(N([H])C([H])([H])[H])C([H])([H])[H])C(C([H])([H])[H])(C([H])([H])[H])C([H])([H])[H])C([H])([H])c2c([H])c(OC([H])([H])C(=O)N([H])c3nc(C(F)(F)Br)c(C([H])([H])N([H])C(=O)N4C([H])([H])C([H])([H])C([H])([H])C([H])(n5nc(-c6c([H])c([H])c(Oc7c([H])c([H])c(F)c([H])c7F)c([H])c6[H])c(C(=O)N([H])[H])c5N([H])[H])C4([H])[H])s3)c([H])c([H])c2C1([H])[H]

$$$$
36:0:0
     RDKit          3D

 93101  0  0  1  0  0  0  0  0999 V2000
  -27.5480  -18.8850   19.1720 C   0  0  0  0  0  3  0  0  0  0  0  0
  -28.2640  -17.8020   19.7100 C   0  0  0  0  0  0  0  0  0  0  0  0
  -29.4670  -18.1140   20.3720 C   0  0  0  0  0  0  0  0  0  0  0  0
  -29.1090  -20.3630   19.9260 C   0  0  0  0  0  0  0  0  0  0  0  0
  -27.9840  -20.1620   19.2670 N   0  0  0  0  0  0  0  0  0  0  0  0
  -29.8720  -19.4150   20.4830 N   0  0  0  0  0  0  0  0  0  0  0  0
  -29.5730  -21.6720   19.9200 N   0  0  0  0  0  0  0  0  0  0  0  0
  -27.8070  -16.5370   19.5620 F   0  0  0  0  0  0  0  0  0  0  0  0
  -29.5750  -22.0140   18.9690 H   0  0  0  0  0  0  0  0  0  0  0  0
  -29.5360  -22.6440   22.1830 C   0  0  0  0  0  1  0  0  0  0  0  0
  -28.9490  -22.7160   20.7620 C   0  0  0  0  0  3  0  0  0  0  0  0
  -29.0630  -24.1630   20.1390 C   0  0  0  0  0  3  0  0  0  0  0  0
  -28.2800  -25.3100   20.8720 C   0  0  0  0  0  3  0  0  0  0  0  0
  -28.3960  -26.6260   20.2670 O   0  0  0  0  0  0  0  0  0  0  0  0
  -24.5920  -31.9230   23.2350 C   0  0  0  0  0  0  0  0  0  0  0  0
  -27.2450  -27.3980   20.2500 C   0  0  0  0  0  0  0  0  0  0  0  0
  -23.3970  -30.5000   21.6040 C   0  0  0  0  0  3  0  0  0  0  0  0
  -24.8580  -28.9330   20.2100 C   0  0  0  0  0  0  0  0  0  0  0  0
  -25.9260  -30.8410   21.4180 C   0  0  0  0  0  2  0  0  0  0  0  0
  -26.0130  -29.4560   20.8050 C   0  0  0  0  0  0  0  0  0  0  0  0
  -27.2120  -28.6970   20.8210 C   0  0  0  0  0  3  0  0  0  0  0  0
  -26.0750  -26.9030   19.6370 C   0  0  0  0  0  3  0  0  0  0  0  0
  -24.8850  -27.6570   19.6210 C   0  0  0  0  0  3  0  0  0  0  0  0
  -23.6170  -29.8000   20.2350 C   0  0  0  0  0  2  0  0  0  0  0  0
  -24.6580  -31.1030   22.1450 N   0  0  0  0  0  0  0  0  0  0  0  0
  -23.5080  -32.2070   23.7610 O   0  0  0  0  0  0  0  0  0  0  0  0
  -22.7320  -29.4960   22.5740 C   0  0  0  0  0  0  0  0  0  0  0  0
  -21.4060  -29.3240   22.4500 N   0  0  0  0  0  0  0  0  0  0  0  0
  -23.4090  -28.8740   23.3980 O   0  0  0  0  0  0  0  0  0  0  0  0
  -20.9190  -29.8790   21.7600 H   0  0  0  0  0  0  0  0  0  0  0  0
  -18.0200  -28.1750   22.9770 C   0  0  0  0  0  0  0  0  0  0  0  0
  -20.5830  -28.3990   23.2300 C   0  0  0  0  0  3  0  0  0  0  0  0
  -20.6640  -26.9650   22.6590 C   0  0  0  0  0  2  0  0  0  0  0  0
  -19.5510  -26.6510   21.6550 C   0  0  0  0  0  2  0  0  0  0  0  0
  -18.1750  -26.8200   22.3060 C   0  0  0  0  0  2  0  0  0  0  0  0
  -19.1520  -28.9230   23.3980 C   0  0  0  0  0  0  0  0  0  0  0  0
  -18.9540  -30.1910   23.9850 C   0  0  0  0  0  3  0  0  0  0  0  0
  -17.6570  -30.7110   24.1560 C   0  0  0  0  0  3  0  0  0  0  0  0
  -16.5400  -29.9590   23.7510 C   0  0  0  0  0  3  0  0  0  0  0  0
  -16.7230  -28.6930   23.1670 C   0  0  0  0  0  3  0  0  0  0  0  0
  -25.8750  -32.5620   23.8520 C   0  0  0  0  0  3  0  0  0  0  0  0
  -26.3950  -31.7990   25.1310 C   0  0  1  0  0  0  0  0  0  0  0  0
  -25.3000  -31.5600   26.1970 C   0  0  0  0  0  1  0  0  0  0  0  0
  -26.9860  -30.4250   24.7410 C   0  0  0  0  0  1  0  0  0  0  0  0
  -27.5440  -32.5980   25.7910 C   0  0  0  0  0  1  0  0  0  0  0  0
  -25.5650  -33.9620   24.1760 N   0  0  0  0  0  0  0  0  0  0  0  0
  -25.9020  -35.0100   23.4110 C   0  0  0  0  0  0  0  0  0  0  0  0
  -26.5760  -34.9000   22.3830 O   0  0  0  0  0  0  0  0  0  0  0  0
  -24.9760  -34.1230   24.9790 H   0  0  0  0  0  0  0  0  0  0  0  0
  -24.1850  -36.8040   23.0210 C   0  0  0  0  0  1  0  0  0  0  0  0
  -25.4110  -36.4000   23.8570 C   0  0  0  0  0  3  0  0  0  0  0  0
  -27.5330  -37.2810   24.7220 C   0  0  0  0  0  1  0  0  0  0  0  0
  -26.4490  -37.4490   23.7580 N   0  0  0  0  0  0  0  0  0  0  0  0
  -26.0430  -38.3710   23.8950 H   0  0  0  0  0  0  0  0  0  0  0  0
  -30.4060  -17.0240   20.9410 C   0  0  0  0  0  2  0  0  0  0  0  0
  -30.6510  -14.5460   20.4880 C   0  0  0  0  0  0  0  0  0  0  0  0
  -30.3600  -12.3820   19.3310 C   0  0  0  0  0  2  0  0  0  0  0  0
  -29.4070  -12.5740   18.1320 C   0  0  0  0  0  2  0  0  0  0  0  0
  -27.9370  -12.4140   18.5640 C   0  0  0  0  0  2  0  0  0  0  0  0
  -27.6000  -13.2270   19.8420 C   0  0  0  0  0  3  0  0  0  0  0  0
  -28.6700  -13.0440   20.9410 C   0  0  0  0  0  2  0  0  0  0  0  0
  -29.9770  -13.3670   20.3550 N   0  0  0  0  0  0  0  0  0  0  0  0
  -31.8100  -14.6840   20.0950 O   0  0  0  0  0  0  0  0  0  0  0  0
  -29.9330  -15.6160   20.8910 N   0  0  0  0  0  0  0  0  0  0  0  0
  -28.9400  -15.4870   21.0220 H   0  0  0  0  0  0  0  0  0  0  0  0
  -25.2090  -13.8160   20.5800 C   0  0  0  0  0  0  0  0  0  0  0  0
  -24.1500  -13.0310   20.9490 C   0  0  0  0  0  0  0  0  0  0  0  0
  -24.6210  -11.6840   20.9040 C   0  0  0  0  0  0  0  0  0  0  0  0
  -26.2570  -12.9420   20.3320 N   0  0  0  0  0  0  0  0  0  0  0  0
  -25.9100  -11.6560   20.5910 N   0  0  0  0  0  0  0  0  0  0  0  0
  -23.9050  -10.4150   21.0850 C   0  0  0  0  0  0  0  0  0  0  0  0
  -24.3540   -9.4400   22.0040 C   0  0  0  0  0  3  0  0  0  0  0  0
  -23.6410   -8.2330   22.1740 C   0  0  0  0  0  3  0  0  0  0  0  0
  -22.4650   -7.9910   21.4280 C   0  0  0  0  0  0  0  0  0  0  0  0
  -22.0340   -8.9550   20.4960 C   0  0  0  0  0  3  0  0  0  0  0  0
  -22.7470  -10.1530   20.3240 C   0  0  0  0  0  3  0  0  0  0  0  0
  -21.7220   -6.8390   21.5080 O   0  0  0  0  0  0  0  0  0  0  0  0
  -21.6950   -6.0790   22.6490 C   0  0  0  0  0  0  0  0  0  0  0  0
  -21.2740   -6.6090   23.8880 C   0  0  0  0  0  3  0  0  0  0  0  0
  -21.1990   -5.7740   25.0200 C   0  0  0  0  0  3  0  0  0  0  0  0
  -21.5300   -4.4090   24.9120 C   0  0  0  0  0  0  0  0  0  0  0  0
  -21.9430   -3.8780   23.6780 C   0  0  0  0  0  3  0  0  0  0  0  0
  -22.0220   -4.7110   22.5500 C   0  0  0  0  0  0  0  0  0  0  0  0
  -22.3990   -4.1920   21.3550 F   0  0  0  0  0  0  0  0  0  0  0  0
  -21.4500   -3.6040   25.9970 F   0  0  0  0  0  0  0  0  0  0  0  0
  -22.7500  -13.4920   21.2290 C   0  0  0  0  0  0  0  0  0  0  0  0
  -22.0300  -12.7810   22.0910 N   0  0  0  0  0  0  0  0  0  0  0  0
  -22.3000  -14.5160   20.7170 O   0  0  0  0  0  0  0  0  0  0  0  0
  -22.4020  -11.9520   22.5310 H   0  0  0  0  0  0  0  0  0  0  0  0
  -21.0910  -13.0740   22.3200 H   0  0  0  0  0  0  0  0  0  0  0  0
  -25.3660  -15.1890   20.4160 N   0  0  0  0  0  0  0  0  0  0  0  0
  -24.5870  -15.8330   20.4890 H   0  0  0  0  0  0  0  0  0  0  0  0
  -26.2220  -15.6340   20.0970 H   0  0  0  0  0  0  0  0  0  0  0  0
  1  5  1  0
  1  2  2  0
  2  3  1  0
  3  6  2  0
  3 55  1  0
  4  6  1  0
  5  4  2  0
  7  4  1  0
  7 11  1  0
  8  2  1  0
  9  7  1  0
 11 10  1  0
 12 11  1  0
 12 13  2  0
 14 13  1  0
 15 26  2  0
 16 14  1  0
 16 21  1  0
 17 25  1  0
 17 27  1  0
 18 24  1  0
 18 20  1  0
 19 25  1  0
 20 21  2  0
 20 19  1  0
 22 16  2  0
 23 22  1  0
 23 18  2  0
 24 17  1  0
 25 15  1  0
 27 29  2  0
 28 27  1  0
 30 28  1  0
 31 40  2  0
 31 36  1  0
 32 28  1  0
 32 36  1  0
 33 32  1  0
 34 35  1  0
 34 33  1  0
 35 31  1  0
 36 37  2  0
 37 38  1  0
 39 38  2  0
 40 39  1  0
 41 15  1  0
 41 46  1  0
 41 42  1  0
 42 45  1  1
 42 43  1  0
 44 42  1  0
 46 49  1  0
 47 51  1  0
 47 46  1  0
 48 47  2  0
 51 50  1  0
 53 51  1  0
 53 54  1  0
 53 52  1  0
 56 64  1  0
 57 62  1  0
 58 59  1  0
 58 57  1  0
 60 59  1  0
 60 69  1  0
 60 61  1  0
 62 56  1  0
 62 61  1  0
 63 56  2  0
 64 55  1  0
 64 65  1  0
 66 67  2  0
 67 86  1  0
 68 67  1  0
 68 71  1  0
 69 66  1  0
 69 70  1  0
 70 68  2  0
 71 72  1  0
 72 73  2  0
 74 77  1  0
 74 73  1  0
 75 74  2  0
 76 75  1  0
 76 71  2  0
 77 78  1  0
 78 79  1  0
 79 80  2  0
 81 80  1  0
 81 85  1  0
 82 81  2  0
 83 78  2  0
 83 82  1  0
 84 83  1  0
 86 87  1  0
 87 90  1  0
 87 89  1  0
 88 86  2  0
 91 92  1  0
 91 66  1  0
 93 91  1  0
M  ISO  4  13 101  14 101  56 100  64 100
M  END
>  <TORSDO>  (37) 
F 20

>  <SCORE>  (37) 
-14.261

>  <name>  (37) 
36

>  <ligand_id>  (37) 
36

>  <original_smiles>  (37) 
[H]c1nc(N([H])C([H])(C([H])([H])[H])C([H])([H])C([H])([H])Oc2c([H])c([H])c3c(c2[H])C([H])([H])N(C(=O)C([H])(N([H])C(=O)C([H])(N([H])C([H])([H])[H])C([H])([H])[H])C(C([H])([H])[H])(C([H])([H])[H])C([H])([H])[H])C([H])(C(=O)N([H])C2([H])c4c([H])c([H])c([H])c([H])c4C([H])([H])C([H])([H])C2([H])[H])C3([H])[H])nc(C([H])([H])N([H])C(=O)N2C([H])([H])C([H])([H])C([H])([H])C([H])(n3nc(-c4c([H])c([H])c(Oc5c([H])c([H])c(F)c([H])c5F)c([H])c4[H])c(C(=O)N([H])[H])c3N([H])[H])C2([H])[H])c1F

>  <smiles>  (37) 
[H]c1nc(N([H])C([H])(C([H])([H])[H])C([H])([H])C([H])([H])Oc2c([H])c([H])c3c(c2[H])C([H])([H])N(C(=O)C([H])(N([H])C(=O)C([H])(N([H])C([H])([H])[H])C([H])([H])[H])C(C([H])([H])[H])(C([H])([H])[H])C([H])([H])[H])C([H])(C(=O)N([H])C2([H])c4c([H])c([H])c([H])c([H])c4C([H])([H])C([H])([H])C2([H])[H])C3([H])[H])nc(C([H])([H])N([H])C(=O)N2C([H])([H])C([H])([H])C([H])([H])C([H])(n3nc(-c4c([H])c([H])c(Oc5c([H])c([H])c(F)c([H])c5F)c([H])c4[H])c(C(=O)N([H])[H])c3N([H])[H])C2([H])[H])c1F

$$$$
37:0:0
     RDKit          3D

 92100  0  0  1  0  0  0  0  0999 V2000
  -28.8860  -23.1220   20.8290 C   0  0  0  0  0  2  0  0  0  0  0  0
  -28.2350  -18.2670   20.4850 C   0  0  0  0  0  3  0  0  0  0  0  0
  -29.5430  -18.2720   20.0580 C   0  0  0  0  0  0  0  0  0  0  0  0
  -29.1300  -20.5560   20.1580 C   0  0  0  0  0  0  0  0  0  0  0  0
  -30.0140  -19.5930   19.8500 N   0  0  0  0  0  0  0  0  0  0  0  0
  -29.3950  -21.9380   20.0850 N   0  0  0  0  0  0  0  0  0  0  0  0
  -27.5980  -19.8880   20.7100 S   0  0  0  0  0  0  0  0  0  0  0  0
  -30.3380  -22.0980   19.7420 H   0  0  0  0  0  0  0  0  0  0  0  0
  -30.4910  -17.0900   19.8450 C   0  0  0  0  0  2  0  0  0  0  0  0
  -30.7280  -14.6150   19.8160 C   0  0  0  0  0  0  0  0  0  0  0  0
  -30.3650  -12.3940   18.8010 C   0  0  0  0  0  2  0  0  0  0  0  0
  -29.3490  -12.5520   17.6500 C   0  0  0  0  0  2  0  0  0  0  0  0
  -27.9080  -12.4280   18.1820 C   0  0  0  0  0  2  0  0  0  0  0  0
  -27.6520  -13.3160   19.4310 C   0  0  0  0  0  3  0  0  0  0  0  0
  -28.7800  -13.1510   20.4750 C   0  0  0  0  0  2  0  0  0  0  0  0
  -30.0550  -13.4310   19.8020 N   0  0  0  0  0  0  0  0  0  0  0  0
  -31.8570  -14.7280   19.3310 O   0  0  0  0  0  0  0  0  0  0  0  0
  -30.0260  -15.7180   20.1680 N   0  0  0  0  0  0  0  0  0  0  0  0
  -29.0860  -15.6010   20.5150 H   0  0  0  0  0  0  0  0  0  0  0  0
  -25.3390  -13.9630   20.3460 C   0  0  0  0  0  0  0  0  0  0  0  0
  -24.2820  -13.2070   20.7780 C   0  0  0  0  0  0  0  0  0  0  0  0
  -24.7010  -11.8470   20.6750 C   0  0  0  0  0  0  0  0  0  0  0  0
  -26.3350  -13.0610   20.0100 N   0  0  0  0  0  0  0  0  0  0  0  0
  -25.9610  -11.7810   20.2670 N   0  0  0  0  0  0  0  0  0  0  0  0
  -23.9570  -10.5970   20.8860 C   0  0  0  0  0  0  0  0  0  0  0  0
  -24.4010   -9.6180   21.8040 C   0  0  0  0  0  3  0  0  0  0  0  0
  -23.6580   -8.4360   22.0030 C   0  0  0  0  0  3  0  0  0  0  0  0
  -22.4570   -8.2220   21.2870 C   0  0  0  0  0  0  0  0  0  0  0  0
  -22.0310   -9.1880   20.3580 C   0  0  0  0  0  3  0  0  0  0  0  0
  -22.7750  -10.3630   20.1560 C   0  0  0  0  0  3  0  0  0  0  0  0
  -21.6840   -7.0910   21.3970 O   0  0  0  0  0  0  0  0  0  0  0  0
  -21.6140   -6.3780   22.5670 C   0  0  0  0  0  0  0  0  0  0  0  0
  -21.1900   -6.9710   23.7760 C   0  0  0  0  0  3  0  0  0  0  0  0
  -21.0650   -6.1860   24.9400 C   0  0  0  0  0  3  0  0  0  0  0  0
  -21.3550   -4.8090   24.8950 C   0  0  0  0  0  0  0  0  0  0  0  0
  -21.7740   -4.2160   23.6920 C   0  0  0  0  0  3  0  0  0  0  0  0
  -21.9000   -4.9990   22.5300 C   0  0  0  0  0  0  0  0  0  0  0  0
  -22.2810   -4.4180   21.3670 F   0  0  0  0  0  0  0  0  0  0  0  0
  -21.2290   -4.0530   26.0110 F   0  0  0  0  0  0  0  0  0  0  0  0
  -22.9240  -13.7120   21.1710 C   0  0  0  0  0  0  0  0  0  0  0  0
  -22.2530  -13.0160   22.0840 N   0  0  0  0  0  0  0  0  0  0  0  0
  -22.4690  -14.7570   20.7060 O   0  0  0  0  0  0  0  0  0  0  0  0
  -22.6330  -12.1690   22.4790 H   0  0  0  0  0  0  0  0  0  0  0  0
  -21.3460  -13.3340   22.3940 H   0  0  0  0  0  0  0  0  0  0  0  0
  -25.5280  -15.3340   20.1910 N   0  0  0  0  0  0  0  0  0  0  0  0
  -24.7810  -16.0010   20.3570 H   0  0  0  0  0  0  0  0  0  0  0  0
  -26.3490  -15.7570   19.7800 H   0  0  0  0  0  0  0  0  0  0  0  0
  -28.0450  -24.1640   20.0040 C   0  0  0  0  0  3  0  0  0  0  0  0
  -27.5610  -23.3890   18.9290 O   0  0  0  0  0  0  0  0  0  0  0  0
  -28.1170  -22.6050   18.9820 H   0  0  0  0  0  0  0  0  0  0  0  0
  -28.7540  -25.4650   19.4640 C   0  0  0  0  0  2  0  0  0  0  0  0
  -28.5530  -26.7180   20.1720 O   0  0  0  0  0  0  0  0  0  0  0  0
  -24.5250  -31.7520   23.2430 C   0  0  0  0  0  0  0  0  0  0  0  0
  -27.3500  -27.4140   20.1150 C   0  0  0  0  0  0  0  0  0  0  0  0
  -23.3820  -30.3300   21.5730 C   0  0  0  0  0  3  0  0  0  0  0  0
  -24.9020  -28.8660   20.1270 C   0  0  0  0  0  0  0  0  0  0  0  0
  -25.8990  -30.7720   21.4020 C   0  0  0  0  0  2  0  0  0  0  0  0
  -26.0380  -29.4130   20.7370 C   0  0  0  0  0  0  0  0  0  0  0  0
  -27.2600  -28.6920   20.7270 C   0  0  0  0  0  3  0  0  0  0  0  0
  -26.1900  -26.8930   19.4950 C   0  0  0  0  0  3  0  0  0  0  0  0
  -24.9770  -27.6110   19.5000 C   0  0  0  0  0  3  0  0  0  0  0  0
  -23.6250  -29.6790   20.1840 C   0  0  0  0  0  2  0  0  0  0  0  0
  -24.6190  -30.9680   22.1300 N   0  0  0  0  0  0  0  0  0  0  0  0
  -23.4310  -31.9760   23.7810 O   0  0  0  0  0  0  0  0  0  0  0  0
  -22.7640  -29.2720   22.5150 C   0  0  0  0  0  0  0  0  0  0  0  0
  -21.4450  -29.0490   22.3840 N   0  0  0  0  0  0  0  0  0  0  0  0
  -23.4670  -28.6580   23.3210 O   0  0  0  0  0  0  0  0  0  0  0  0
  -20.9370  -29.5970   21.7050 H   0  0  0  0  0  0  0  0  0  0  0  0
  -18.1130  -27.7450   22.8820 C   0  0  0  0  0  0  0  0  0  0  0  0
  -20.6640  -28.0720   23.1410 C   0  0  0  0  0  3  0  0  0  0  0  0
  -20.8030  -26.6570   22.5340 C   0  0  0  0  0  2  0  0  0  0  0  0
  -19.7030  -26.3230   21.5220 C   0  0  0  0  0  2  0  0  0  0  0  0
  -18.3220  -26.4160   22.1760 C   0  0  0  0  0  2  0  0  0  0  0  0
  -19.2110  -28.5300   23.3200 C   0  0  0  0  0  0  0  0  0  0  0  0
  -18.9610  -29.7720   23.9420 C   0  0  0  0  0  3  0  0  0  0  0  0
  -17.6440  -30.2310   24.1290 C   0  0  0  0  0  3  0  0  0  0  0  0
  -16.5600  -29.4440   23.7060 C   0  0  0  0  0  3  0  0  0  0  0  0
  -16.7950  -28.2020   23.0890 C   0  0  0  0  0  3  0  0  0  0  0  0
  -25.7830  -32.4220   23.8790 C   0  0  0  0  0  3  0  0  0  0  0  0
  -25.4260  -33.8090   24.2090 N   0  0  0  0  0  0  0  0  0  0  0  0
  -25.7330  -34.8740   23.4560 C   0  0  0  0  0  0  0  0  0  0  0  0
  -26.4160  -34.7950   22.4310 O   0  0  0  0  0  0  0  0  0  0  0  0
  -24.8160  -33.9420   25.0030 H   0  0  0  0  0  0  0  0  0  0  0  0
  -23.9480  -36.6090   23.0900 C   0  0  0  0  0  1  0  0  0  0  0  0
  -25.1950  -36.2450   23.9100 C   0  0  0  0  0  3  0  0  0  0  0  0
  -27.2910  -37.2010   24.7600 C   0  0  0  0  0  1  0  0  0  0  0  0
  -26.1940  -37.3320   23.8060 N   0  0  0  0  0  0  0  0  0  0  0  0
  -25.7570  -38.2380   23.9490 H   0  0  0  0  0  0  0  0  0  0  0  0
  -26.3140  -31.6660   25.1580 C   0  0  1  0  0  0  0  0  0  0  0  0
  -25.2190  -31.3850   26.2130 C   0  0  0  0  0  1  0  0  0  0  0  0
  -26.9500  -30.3120   24.7690 C   0  0  0  0  0  1  0  0  0  0  0  0
  -27.4290  -32.4980   25.8340 C   0  0  0  0  0  1  0  0  0  0  0  0
  2  7  1  0
  3  2  2  0
  4  7  1  0
  5  3  1  0
  5  4  2  0
  6  4  1  0
  6  1  1  0
  8  6  1  0
  9  3  1  0
  9 18  1  0
 10 18  1  0
 11 16  1  0
 12 13  1  0
 12 11  1  0
 14 13  1  0
 14 23  1  0
 14 15  1  0
 16 10  1  0
 16 15  1  0
 17 10  2  0
 18 19  1  0
 20 21  2  0
 21 40  1  0
 22 21  1  0
 22 25  1  0
 23 24  1  0
 23 20  1  0
 24 22  2  0
 25 26  1  0
 26 27  2  0
 28 31  1  0
 28 27  1  0
 29 28  2  0
 30 29  1  0
 30 25  2  0
 31 32  1  0
 32 33  1  0
 33 34  2  0
 35 34  1  0
 35 39  1  0
 36 35  2  0
 37 32  2  0
 37 36  1  0
 38 37  1  0
 40 41  1  0
 41 44  1  0
 41 43  1  0
 42 40  2  0
 45 20  1  0
 45 46  1  0
 47 45  1  0
 48 51  1  0
 48  1  1  0
 49 50  1  0
 49 48  1  0
 51 52  1  0
 53 64  2  0
 54 52  1  0
 54 59  1  0
 55 63  1  0
 55 65  1  0
 56 62  1  0
 56 58  1  0
 57 63  1  0
 58 57  1  0
 59 58  2  0
 60 61  1  0
 60 54  2  0
 61 56  2  0
 62 55  1  0
 63 53  1  0
 65 67  2  0
 66 65  1  0
 68 66  1  0
 69 78  2  0
 69 74  1  0
 70 66  1  0
 70 74  1  0
 71 70  1  0
 72 73  1  0
 72 71  1  0
 73 69  1  0
 74 75  2  0
 75 76  1  0
 77 76  2  0
 78 77  1  0
 79 53  1  0
 79 80  1  0
 79 89  1  0
 80 83  1  0
 81 85  1  0
 81 80  1  0
 82 81  2  0
 85 84  1  0
 87 85  1  0
 87 88  1  0
 87 86  1  0
 89 92  1  1
 89 90  1  0
 91 89  1  0
M  ISO  4  10 100  18 100  51 101  52 101
M  END
>  <TORSDO>  (38) 
F 21

>  <SCORE>  (38) 
-12.364

>  <name>  (38) 
37

>  <ligand_id>  (38) 
37

>  <original_smiles>  (38) 
[H]OC([H])(C([H])([H])Oc1c([H])c([H])c2c(c1[H])C([H])([H])N(C(=O)C([H])(N([H])C(=O)C([H])(N([H])C([H])([H])[H])C([H])([H])[H])C(C([H])([H])[H])(C([H])([H])[H])C([H])([H])[H])C([H])(C(=O)N([H])C1([H])c3c([H])c([H])c([H])c([H])c3C([H])([H])C([H])([H])C1([H])[H])C2([H])[H])C([H])([H])N([H])c1nc(C([H])([H])N([H])C(=O)N2C([H])([H])C([H])([H])C([H])([H])C([H])(n3nc(-c4c([H])c([H])c(Oc5c([H])c([H])c(F)c([H])c5F)c([H])c4[H])c(C(=O)N([H])[H])c3N([H])[H])C2([H])[H])c([H])s1

>  <smiles>  (38) 
[H]OC([H])(C([H])([H])Oc1c([H])c([H])c2c(c1[H])C([H])([H])N(C(=O)C([H])(N([H])C(=O)C([H])(N([H])C([H])([H])[H])C([H])([H])[H])C(C([H])([H])[H])(C([H])([H])[H])C([H])([H])[H])C([H])(C(=O)N([H])C1([H])c3c([H])c([H])c([H])c([H])c3C([H])([H])C([H])([H])C1([H])[H])C2([H])[H])C([H])([H])N([H])c1nc(C([H])([H])N([H])C(=O)N2C([H])([H])C([H])([H])C([H])([H])C([H])(n3nc(-c4c([H])c([H])c(Oc5c([H])c([H])c(F)c([H])c5F)c([H])c4[H])c(C(=O)N([H])[H])c3N([H])[H])C2([H])[H])c([H])s1

$$$$
38:0:0
     RDKit          3D

 92100  0  0  1  0  0  0  0  0999 V2000
  -28.6990  -22.1490   19.9310 C   0  0  0  0  0  2  0  0  0  0  0  0
  -30.6070  -14.7910   20.4270 C   0  0  0  0  0  0  0  0  0  0  0  0
  -30.4130  -12.4930   19.4720 C   0  0  0  0  0  2  0  0  0  0  0  0
  -29.5000  -12.5540   18.2280 C   0  0  0  0  0  2  0  0  0  0  0  0
  -28.0240  -12.3800   18.6320 C   0  0  0  0  0  2  0  0  0  0  0  0
  -27.6270  -13.2760   19.8360 C   0  0  0  0  0  3  0  0  0  0  0  0
  -28.6680  -13.2170   20.9770 C   0  0  0  0  0  2  0  0  0  0  0  0
  -29.9740  -13.5630   20.4020 N   0  0  0  0  0  0  0  0  0  0  0  0
  -31.8020  -14.8410   20.1130 O   0  0  0  0  0  0  0  0  0  0  0  0
  -29.9760  -19.6420   18.6910 C   0  0  0  0  0  3  0  0  0  0  0  0
  -30.3710  -18.4290   18.1200 C   0  0  0  0  0  3  0  0  0  0  0  0
  -29.5530  -19.6400   20.0210 C   0  0  0  0  0  0  0  0  0  0  0  0
  -29.9500  -17.2590   20.0640 C   0  0  0  0  0  0  0  0  0  0  0  0
  -30.3510  -17.2670   18.7970 N   0  0  0  0  0  0  0  0  0  0  0  0
  -29.5340  -18.4180   20.6910 N   0  0  0  0  0  0  0  0  0  0  0  0
  -29.2020  -20.8980   20.6480 N   0  0  0  0  0  0  0  0  0  0  0  0
  -29.8690  -15.9530   20.6640 N   0  0  0  0  0  0  0  0  0  0  0  0
  -28.9500  -20.8600   21.6300 H   0  0  0  0  0  0  0  0  0  0  0  0
  -29.0180  -15.8020   21.1760 H   0  0  0  0  0  0  0  0  0  0  0  0
  -25.2260  -13.8550   20.5270 C   0  0  0  0  0  0  0  0  0  0  0  0
  -24.1590  -13.0770   20.8860 C   0  0  0  0  0  0  0  0  0  0  0  0
  -24.6290  -11.7290   20.8680 C   0  0  0  0  0  0  0  0  0  0  0  0
  -26.2780  -12.9800   20.3100 N   0  0  0  0  0  0  0  0  0  0  0  0
  -25.9250  -11.6960   20.5790 N   0  0  0  0  0  0  0  0  0  0  0  0
  -23.9040  -10.4640   21.0540 C   0  0  0  0  0  0  0  0  0  0  0  0
  -24.3290   -9.4990   21.9930 C   0  0  0  0  0  3  0  0  0  0  0  0
  -23.6030   -8.3010   22.1670 C   0  0  0  0  0  3  0  0  0  0  0  0
  -22.4390   -8.0580   21.3990 C   0  0  0  0  0  0  0  0  0  0  0  0
  -22.0340   -9.0110   20.4490 C   0  0  0  0  0  3  0  0  0  0  0  0
  -22.7600  -10.2010   20.2740 C   0  0  0  0  0  3  0  0  0  0  0  0
  -21.6850   -6.9110   21.4820 O   0  0  0  0  0  0  0  0  0  0  0  0
  -21.6250   -6.1720   22.6360 C   0  0  0  0  0  0  0  0  0  0  0  0
  -21.1730   -6.7260   23.8530 C   0  0  0  0  0  3  0  0  0  0  0  0
  -21.0600   -5.9120   24.9980 C   0  0  0  0  0  3  0  0  0  0  0  0
  -21.3870   -4.5460   24.9260 C   0  0  0  0  0  0  0  0  0  0  0  0
  -21.8320   -3.9910   23.7130 C   0  0  0  0  0  3  0  0  0  0  0  0
  -21.9460   -4.8020   22.5710 C   0  0  0  0  0  0  0  0  0  0  0  0
  -22.3550   -4.2570   21.3990 F   0  0  0  0  0  0  0  0  0  0  0  0
  -21.2710   -3.7620   26.0230 F   0  0  0  0  0  0  0  0  0  0  0  0
  -22.7560  -13.5500   21.1310 C   0  0  0  0  0  0  0  0  0  0  0  0
  -22.0160  -12.8560   21.9870 N   0  0  0  0  0  0  0  0  0  0  0  0
  -22.3250  -14.5730   20.6010 O   0  0  0  0  0  0  0  0  0  0  0  0
  -22.3790  -12.0290   22.4410 H   0  0  0  0  0  0  0  0  0  0  0  0
  -21.0740  -13.1550   22.1940 H   0  0  0  0  0  0  0  0  0  0  0  0
  -25.3840  -15.2250   20.3430 N   0  0  0  0  0  0  0  0  0  0  0  0
  -24.6060  -15.8700   20.4350 H   0  0  0  0  0  0  0  0  0  0  0  0
  -26.2240  -15.6670   19.9900 H   0  0  0  0  0  0  0  0  0  0  0  0
  -28.8790  -23.6220   20.6020 C   0  0  0  0  0  3  0  0  0  0  0  0
  -28.5080  -23.4330   21.9580 O   0  0  0  0  0  0  0  0  0  0  0  0
  -28.6800  -24.2530   22.4130 H   0  0  0  0  0  0  0  0  0  0  0  0
  -28.0000  -24.8700   20.0180 C   0  0  0  0  0  2  0  0  0  0  0  0
  -28.2540  -26.3400   20.2890 O   0  0  0  0  0  0  0  0  0  0  0  0
  -24.5700  -31.8760   23.2400 C   0  0  0  0  0  0  0  0  0  0  0  0
  -27.1770  -27.2630   20.1940 C   0  0  0  0  0  0  0  0  0  0  0  0
  -23.3760  -30.4850   21.5900 C   0  0  0  0  0  3  0  0  0  0  0  0
  -24.8320  -28.9360   20.1610 C   0  0  0  0  0  0  0  0  0  0  0  0
  -25.9220  -30.7810   21.4300 C   0  0  0  0  0  2  0  0  0  0  0  0
  -26.0010  -29.4000   20.7770 C   0  0  0  0  0  0  0  0  0  0  0  0
  -27.1750  -28.5750   20.7850 C   0  0  0  0  0  3  0  0  0  0  0  0
  -25.9890  -26.8890   19.5220 C   0  0  0  0  0  3  0  0  0  0  0  0
  -24.8330  -27.6900   19.5210 C   0  0  0  0  0  3  0  0  0  0  0  0
  -23.5990  -29.8180   20.2080 C   0  0  0  0  0  2  0  0  0  0  0  0
  -24.6420  -31.0660   22.1420 N   0  0  0  0  0  0  0  0  0  0  0  0
  -23.4820  -32.1560   23.7670 O   0  0  0  0  0  0  0  0  0  0  0  0
  -22.7020  -29.4670   22.5410 C   0  0  0  0  0  0  0  0  0  0  0  0
  -21.3740  -29.3030   22.4160 N   0  0  0  0  0  0  0  0  0  0  0  0
  -23.3740  -28.8290   23.3570 O   0  0  0  0  0  0  0  0  0  0  0  0
  -20.8900  -29.8690   21.7330 H   0  0  0  0  0  0  0  0  0  0  0  0
  -17.9850  -28.1400   22.9260 C   0  0  0  0  0  0  0  0  0  0  0  0
  -20.5480  -28.3660   23.1810 C   0  0  0  0  0  3  0  0  0  0  0  0
  -20.6280  -26.9400   22.5900 C   0  0  0  0  0  2  0  0  0  0  0  0
  -19.5170  -26.6410   21.5790 C   0  0  0  0  0  2  0  0  0  0  0  0
  -18.1410  -26.7960   22.2340 C   0  0  0  0  0  2  0  0  0  0  0  0
  -19.1150  -28.8840   23.3570 C   0  0  0  0  0  0  0  0  0  0  0  0
  -18.9140  -30.1420   23.9650 C   0  0  0  0  0  3  0  0  0  0  0  0
  -17.6170  -30.6560   24.1470 C   0  0  0  0  0  3  0  0  0  0  0  0
  -16.5010  -29.9090   23.7310 C   0  0  0  0  0  3  0  0  0  0  0  0
  -16.6850  -28.6520   23.1270 C   0  0  0  0  0  3  0  0  0  0  0  0
  -25.8490  -32.5070   23.8720 C   0  0  0  0  0  3  0  0  0  0  0  0
  -26.3430  -31.7450   25.1620 C   0  0  1  0  0  0  0  0  0  0  0  0
  -25.2340  -31.5260   26.2190 C   0  0  0  0  0  1  0  0  0  0  0  0
  -26.9220  -30.3590   24.7950 C   0  0  0  0  0  1  0  0  0  0  0  0
  -27.4890  -32.5380   25.8320 C   0  0  0  0  0  1  0  0  0  0  0  0
  -25.5430  -33.9100   24.1860 N   0  0  0  0  0  0  0  0  0  0  0  0
  -25.8930  -34.9560   23.4250 C   0  0  0  0  0  0  0  0  0  0  0  0
  -26.5750  -34.8410   22.4040 O   0  0  0  0  0  0  0  0  0  0  0  0
  -24.9390  -34.0750   24.9780 H   0  0  0  0  0  0  0  0  0  0  0  0
  -24.1890  -36.7650   23.0310 C   0  0  0  0  0  1  0  0  0  0  0  0
  -25.4110  -36.3520   23.8670 C   0  0  0  0  0  3  0  0  0  0  0  0
  -27.5380  -37.2220   24.7340 C   0  0  0  0  0  1  0  0  0  0  0  0
  -26.4560  -37.3950   23.7690 N   0  0  0  0  0  0  0  0  0  0  0  0
  -26.0560  -38.3190   23.9030 H   0  0  0  0  0  0  0  0  0  0  0  0
  1 16  1  0
  2 17  1  0
  3  8  1  0
  4  5  1  0
  4  3  1  0
  6  5  1  0
  6 23  1  0
  6  7  1  0
  8  2  1  0
  8  7  1  0
  9  2  2  0
 10 12  1  0
 11 10  2  0
 11 14  1  0
 12 16  1  0
 12 15  2  0
 13 17  1  0
 13 15  1  0
 14 13  2  0
 16 18  1  0
 17 19  1  0
 20 21  2  0
 21 40  1  0
 22 21  1  0
 22 25  1  0
 23 20  1  0
 23 24  1  0
 24 22  2  0
 25 26  1  0
 26 27  2  0
 28 31  1  0
 28 27  1  0
 29 28  2  0
 30 29  1  0
 30 25  2  0
 31 32  1  0
 32 33  1  0
 33 34  2  0
 35 34  1  0
 35 39  1  0
 36 35  2  0
 37 32  2  0
 37 36  1  0
 38 37  1  0
 40 41  1  0
 41 44  1  0
 41 43  1  0
 42 40  2  0
 45 46  1  0
 45 20  1  0
 47 45  1  0
 48  1  1  0
 48 49  1  0
 49 50  1  0
 51 52  1  0
 51 48  1  0
 53 64  2  0
 54 52  1  0
 54 59  1  0
 55 63  1  0
 55 65  1  0
 56 62  1  0
 56 58  1  0
 57 63  1  0
 58 59  2  0
 58 57  1  0
 60 54  2  0
 61 60  1  0
 61 56  2  0
 62 55  1  0
 63 53  1  0
 65 67  2  0
 66 65  1  0
 68 66  1  0
 69 78  2  0
 69 74  1  0
 70 66  1  0
 70 74  1  0
 71 70  1  0
 72 73  1  0
 72 71  1  0
 73 69  1  0
 74 75  2  0
 75 76  1  0
 77 76  2  0
 78 77  1  0
 79 53  1  0
 79 84  1  0
 79 80  1  0
 80 83  1  1
 80 81  1  0
 82 80  1  0
 84 87  1  0
 85 89  1  0
 85 84  1  0
 86 85  2  0
 89 88  1  0
 91 89  1  0
 91 92  1  0
 91 90  1  0
M  ISO  4   2 100  17 100  51 101  52 101
M  END
>  <TORSDO>  (39) 
F 19

>  <SCORE>  (39) 
-14.554

>  <name>  (39) 
38

>  <ligand_id>  (39) 
38

>  <original_smiles>  (39) 
[H]OC([H])(C([H])([H])Oc1c([H])c([H])c2c(c1[H])C([H])([H])N(C(=O)C([H])(N([H])C(=O)C([H])(N([H])C([H])([H])[H])C([H])([H])[H])C(C([H])([H])[H])(C([H])([H])[H])C([H])([H])[H])C([H])(C(=O)N([H])C1([H])c3c([H])c([H])c([H])c([H])c3C([H])([H])C([H])([H])C1([H])[H])C2([H])[H])C([H])([H])N([H])c1nc(N([H])C(=O)N2C([H])([H])C([H])([H])C([H])([H])C([H])(n3nc(-c4c([H])c([H])c(Oc5c([H])c([H])c(F)c([H])c5F)c([H])c4[H])c(C(=O)N([H])[H])c3N([H])[H])C2([H])[H])nc([H])c1[H]

>  <smiles>  (39) 
[H]OC([H])(C([H])([H])Oc1c([H])c([H])c2c(c1[H])C([H])([H])N(C(=O)C([H])(N([H])C(=O)C([H])(N([H])C([H])([H])[H])C([H])([H])[H])C(C([H])([H])[H])(C([H])([H])[H])C([H])([H])[H])C([H])(C(=O)N([H])C1([H])c3c([H])c([H])c([H])c([H])c3C([H])([H])C([H])([H])C1([H])[H])C2([H])[H])C([H])([H])N([H])c1nc(N([H])C(=O)N2C([H])([H])C([H])([H])C([H])([H])C([H])(n3nc(-c4c([H])c([H])c(Oc5c([H])c([H])c(F)c([H])c5F)c([H])c4[H])c(C(=O)N([H])[H])c3N([H])[H])C2([H])[H])nc([H])c1[H]

$$$$
39:0:0
     RDKit          3D

100108  0  0  1  0  0  0  0  0999 V2000
  -30.5220  -14.6040   20.4760 C   0  0  0  0  0  0  0  0  0  0  0  0
  -30.4640  -12.1950   19.9200 C   0  0  0  0  0  2  0  0  0  0  0  0
  -29.6060  -11.9710   18.6580 C   0  0  0  0  0  2  0  0  0  0  0  0
  -28.1160  -11.8250   19.0250 C   0  0  0  0  0  2  0  0  0  0  0  0
  -27.6230  -12.9470   19.9800 C   0  0  0  0  0  3  0  0  0  0  0  0
  -28.5960  -13.1170   21.1660 C   0  0  0  0  0  2  0  0  0  0  0  0
  -29.9430  -13.3790   20.6220 N   0  0  0  0  0  0  0  0  0  0  0  0
  -31.6080  -14.7630   19.9080 O   0  0  0  0  0  0  0  0  0  0  0  0
  -30.3730  -17.6710   22.0970 C   0  0  0  0  0  3  0  0  0  0  0  0
  -30.6760  -19.0510   22.1050 C   0  0  0  0  0  0  0  0  0  0  0  0
  -30.6680  -19.7410   20.8600 C   0  0  0  0  0  0  0  0  0  0  0  0
  -30.1000  -17.0110   20.8860 C   0  0  0  0  0  0  0  0  0  0  0  0
  -30.3310  -19.0100   19.6990 C   0  0  0  0  0  0  0  0  0  0  0  0
  -30.0430  -17.6920   19.7140 N   0  0  0  0  0  0  0  0  0  0  0  0
  -29.8160  -15.6270   20.9900 N   0  0  0  0  0  0  0  0  0  0  0  0
  -29.0140  -15.3690   21.5430 H   0  0  0  0  0  0  0  0  0  0  0  0
  -25.2240  -13.6000   20.6520 C   0  0  0  0  0  0  0  0  0  0  0  0
  -24.1340  -12.8450   20.9950 C   0  0  0  0  0  0  0  0  0  0  0  0
  -24.5680  -11.4850   20.9590 C   0  0  0  0  0  0  0  0  0  0  0  0
  -26.2550  -12.6990   20.4320 N   0  0  0  0  0  0  0  0  0  0  0  0
  -25.8620  -11.4220   20.6710 N   0  0  0  0  0  0  0  0  0  0  0  0
  -23.8160  -10.2370   21.1310 C   0  0  0  0  0  0  0  0  0  0  0  0
  -24.2450   -9.2320   22.0260 C   0  0  0  0  0  3  0  0  0  0  0  0
  -23.4940   -8.0480   22.1880 C   0  0  0  0  0  3  0  0  0  0  0  0
  -22.3000   -7.8590   21.4510 C   0  0  0  0  0  0  0  0  0  0  0  0
  -21.8910   -8.8510   20.5430 C   0  0  0  0  0  3  0  0  0  0  0  0
  -22.6420  -10.0280   20.3800 C   0  0  0  0  0  3  0  0  0  0  0  0
  -21.5190   -6.7310   21.5230 O   0  0  0  0  0  0  0  0  0  0  0  0
  -21.4900   -5.9460   22.6480 C   0  0  0  0  0  0  0  0  0  0  0  0
  -21.1100   -6.4620   23.9060 C   0  0  0  0  0  3  0  0  0  0  0  0
  -21.0240   -5.6050   25.0220 C   0  0  0  0  0  3  0  0  0  0  0  0
  -21.3100   -4.2340   24.8800 C   0  0  0  0  0  0  0  0  0  0  0  0
  -21.6850   -3.7180   23.6270 C   0  0  0  0  0  3  0  0  0  0  0  0
  -21.7710   -4.5720   22.5140 C   0  0  0  0  0  0  0  0  0  0  0  0
  -22.1120   -4.0650   21.3050 F   0  0  0  0  0  0  0  0  0  0  0  0
  -21.2210   -3.4090   25.9490 F   0  0  0  0  0  0  0  0  0  0  0  0
  -22.7430  -13.3490   21.2530 C   0  0  0  0  0  0  0  0  0  0  0  0
  -22.0010  -12.6720   22.1220 N   0  0  0  0  0  0  0  0  0  0  0  0
  -22.3250  -14.3770   20.7200 O   0  0  0  0  0  0  0  0  0  0  0  0
  -22.3560  -11.8410   22.5720 H   0  0  0  0  0  0  0  0  0  0  0  0
  -21.0650  -12.9850   22.3370 H   0  0  0  0  0  0  0  0  0  0  0  0
  -25.4210  -14.9670   20.4920 N   0  0  0  0  0  0  0  0  0  0  0  0
  -24.6680  -15.6400   20.5870 H   0  0  0  0  0  0  0  0  0  0  0  0
  -26.2910  -15.3910   20.1940 H   0  0  0  0  0  0  0  0  0  0  0  0
  -30.9960  -21.1020   20.7390 N   0  0  0  0  0  0  0  0  0  0  0  0
  -31.4450  -21.6030   21.4980 H   0  0  0  0  0  0  0  0  0  0  0  0
  -31.1660  -21.5060   19.8260 H   0  0  0  0  0  0  0  0  0  0  0  0
  -31.0040  -19.7130   23.3950 C   0  0  0  0  0  3  0  0  0  0  0  0
  -31.0000  -19.1460   24.5300 N   0  0  0  0  0  0  0  0  0  0  0  0
  -30.7380  -18.1710   24.4360 H   0  0  0  0  0  0  0  0  0  0  0  0
  -30.3360  -19.6260   18.4410 N   0  0  0  0  0  0  0  0  0  0  0  0
  -31.1910  -20.1530   18.3040 H   0  0  0  0  0  0  0  0  0  0  0  0
  -29.2390  -20.5560   18.1680 C   0  0  0  0  0  2  0  0  0  0  0  0
  -29.7840  -21.9930   17.9370 C   0  0  0  0  0  3  0  0  0  0  0  0
  -30.5990  -21.9400   16.7770 O   0  0  0  0  0  0  0  0  0  0  0  0
  -30.0860  -21.5360   16.0830 H   0  0  0  0  0  0  0  0  0  0  0  0
  -28.6910  -23.0740   17.7440 C   0  0  0  0  0  2  0  0  0  0  0  0
  -29.2390  -24.5210   17.5960 C   0  0  0  0  0  2  0  0  0  0  0  0
  -28.1580  -25.6160   17.4590 C   0  0  0  0  0  2  0  0  0  0  0  0
  -28.0510  -26.3960   18.6590 O   0  0  0  0  0  0  0  0  0  0  0  0
  -24.9280  -31.1350   22.9550 C   0  0  0  0  0  0  0  0  0  0  0  0
  -26.9390  -27.1930   18.8600 C   0  0  0  0  0  0  0  0  0  0  0  0
  -23.4930  -30.1890   21.1780 C   0  0  0  0  0  3  0  0  0  0  0  0
  -24.7000  -28.8560   19.3720 C   0  0  0  0  0  0  0  0  0  0  0  0
  -26.0240  -30.3720   20.8500 C   0  0  0  0  0  2  0  0  0  0  0  0
  -25.9370  -29.1520   19.9540 C   0  0  0  0  0  0  0  0  0  0  0  0
  -27.0550  -28.3220   19.7060 C   0  0  0  0  0  3  0  0  0  0  0  0
  -25.6730  -26.9030   18.2980 C   0  0  0  0  0  3  0  0  0  0  0  0
  -24.5610  -27.7270   18.5480 C   0  0  0  0  0  3  0  0  0  0  0  0
  -23.5490  -29.7850   19.6820 C   0  0  0  0  0  2  0  0  0  0  0  0
  -24.8380  -30.5670   21.7200 N   0  0  0  0  0  0  0  0  0  0  0  0
  -23.9120  -31.3820   23.6210 O   0  0  0  0  0  0  0  0  0  0  0  0
  -22.8100  -29.0520   21.9720 C   0  0  0  0  0  0  0  0  0  0  0  0
  -21.4670  -29.0180   21.9340 N   0  0  0  0  0  0  0  0  0  0  0  0
  -23.4810  -28.2140   22.5800 O   0  0  0  0  0  0  0  0  0  0  0  0
  -20.9900  -29.7440   21.4180 H   0  0  0  0  0  0  0  0  0  0  0  0
  -18.0320  -28.0410   22.4790 C   0  0  0  0  0  0  0  0  0  0  0  0
  -20.6150  -28.0190   22.5770 C   0  0  0  0  0  3  0  0  0  0  0  0
  -20.5350  -26.7280   21.7290 C   0  0  0  0  0  2  0  0  0  0  0  0
  -19.3410  -26.7100   20.7700 C   0  0  0  0  0  2  0  0  0  0  0  0
  -18.0250  -26.8450   21.5430 C   0  0  0  0  0  2  0  0  0  0  0  0
  -19.2470  -28.6040   22.9510 C   0  0  0  0  0  0  0  0  0  0  0  0
  -19.1980  -29.7390   23.7880 C   0  0  0  0  0  3  0  0  0  0  0  0
  -17.9640  -30.3080   24.1580 C   0  0  0  0  0  3  0  0  0  0  0  0
  -16.7640  -29.7390   23.6990 C   0  0  0  0  0  3  0  0  0  0  0  0
  -16.7990  -28.6070   22.8660 C   0  0  0  0  0  3  0  0  0  0  0  0
  -26.3030  -31.5260   23.5780 C   0  0  0  0  0  3  0  0  0  0  0  0
  -26.1400  -32.8340   24.2240 N   0  0  0  0  0  0  0  0  0  0  0  0
  -26.5300  -34.0000   23.6900 C   0  0  0  0  0  0  0  0  0  0  0  0
  -27.1370  -34.0760   22.6190 O   0  0  0  0  0  0  0  0  0  0  0  0
  -25.6060  -32.8530   25.0790 H   0  0  0  0  0  0  0  0  0  0  0  0
  -24.9640  -35.9620   23.8400 C   0  0  0  0  0  1  0  0  0  0  0  0
  -26.1930  -35.2850   24.4690 C   0  0  0  0  0  3  0  0  0  0  0  0
  -28.4310  -35.7810   25.3470 C   0  0  0  0  0  1  0  0  0  0  0  0
  -27.3130  -36.2480   24.5310 N   0  0  0  0  0  0  0  0  0  0  0  0
  -27.0010  -37.1400   24.9060 H   0  0  0  0  0  0  0  0  0  0  0  0
  -26.8450  -30.4580   24.6060 C   0  0  1  0  0  0  0  0  0  0  0  0
  -25.8180  -30.0720   25.6960 C   0  0  0  0  0  1  0  0  0  0  0  0
  -27.2690  -29.1620   23.8740 C   0  0  0  0  0  1  0  0  0  0  0  0
  -28.1090  -31.0020   25.3120 C   0  0  0  0  0  1  0  0  0  0  0  0
  1  7  1  0
  1 15  1  0
  2  7  1  0
  3  4  1  0
  3  2  1  0
  5  4  1  0
  5 20  1  0
  5  6  1  0
  7  6  1  0
  8  1  2  0
  9 10  1  0
 10 48  1  0
 11 10  2  0
 12 15  1  0
 12  9  2  0
 13 14  2  0
 13 11  1  0
 14 12  1  0
 15 16  1  0
 17 18  2  0
 18 37  1  0
 19 18  1  0
 19 22  1  0
 20 17  1  0
 20 21  1  0
 21 19  2  0
 22 23  1  0
 23 24  2  0
 25 28  1  0
 25 24  1  0
 26 25  2  0
 27 26  1  0
 27 22  2  0
 28 29  1  0
 29 30  1  0
 30 31  2  0
 32 31  1  0
 32 36  1  0
 33 32  2  0
 34 29  2  0
 34 33  1  0
 35 34  1  0
 37 38  1  0
 38 41  1  0
 38 40  1  0
 39 37  2  0
 42 43  1  0
 42 17  1  0
 44 42  1  0
 45 11  1  0
 45 46  1  0
 47 45  1  0
 48 49  2  0
 50 49  1  0
 51 13  1  0
 52 51  1  0
 53 51  1  0
 54 57  1  0
 54 53  1  0
 55 54  1  0
 56 55  1  0
 58 57  1  0
 59 58  1  0
 59 60  1  0
 60 62  1  0
 61 72  2  0
 62 67  1  0
 63 71  1  0
 63 73  1  0
 64 70  1  0
 64 66  1  0
 65 71  1  0
 66 65  1  0
 67 66  2  0
 68 69  1  0
 68 62  2  0
 69 64  2  0
 70 63  1  0
 71 61  1  0
 73 75  2  0
 74 73  1  0
 76 74  1  0
 77 86  2  0
 77 82  1  0
 78 74  1  0
 78 82  1  0
 79 78  1  0
 80 81  1  0
 80 79  1  0
 81 77  1  0
 82 83  2  0
 83 84  1  0
 85 84  2  0
 86 85  1  0
 87 61  1  0
 87 88  1  0
 87 97  1  0
 88 91  1  0
 89 88  1  0
 89 93  1  0
 90 89  2  0
 93 92  1  0
 93 95  1  0
 95 96  1  0
 95 94  1  0
 97100  1  1
 97 98  1  0
 99 97  1  0
M  ISO  4   1 100  15 100  59 101  60 101
M  END
>  <TORSDO>  (40) 
F 24

>  <SCORE>  (40) 
-10.915

>  <name>  (40) 
39

>  <ligand_id>  (40) 
39

>  <original_smiles>  (40) 
[H]N=C([H])c1c([H])c(N([H])C(=O)N2C([H])([H])C([H])([H])C([H])([H])C([H])(n3nc(-c4c([H])c([H])c(Oc5c([H])c([H])c(F)c([H])c5F)c([H])c4[H])c(C(=O)N([H])[H])c3N([H])[H])C2([H])[H])nc(N([H])C([H])([H])C([H])(O[H])C([H])([H])C([H])([H])C([H])([H])Oc2c([H])c([H])c3c(c2[H])C([H])([H])N(C(=O)C([H])(N([H])C(=O)C([H])(N([H])C([H])([H])[H])C([H])([H])[H])C(C([H])([H])[H])(C([H])([H])[H])C([H])([H])[H])C([H])(C(=O)N([H])C2([H])c4c([H])c([H])c([H])c([H])c4C([H])([H])C([H])([H])C2([H])[H])C3([H])[H])c1N([H])[H]

>  <smiles>  (40) 
[H]N=C([H])c1c([H])c(N([H])C(=O)N2C([H])([H])C([H])([H])C([H])([H])C([H])(n3nc(-c4c([H])c([H])c(Oc5c([H])c([H])c(F)c([H])c5F)c([H])c4[H])c(C(=O)N([H])[H])c3N([H])[H])C2([H])[H])nc(N([H])C([H])([H])C([H])(O[H])C([H])([H])C([H])([H])C([H])([H])Oc2c([H])c([H])c3c(c2[H])C([H])([H])N(C(=O)C([H])(N([H])C(=O)C([H])(N([H])C([H])([H])[H])C([H])([H])[H])C(C([H])([H])[H])(C([H])([H])[H])C([H])([H])[H])C([H])(C(=O)N([H])C2([H])c4c([H])c([H])c([H])c([H])c4C([H])([H])C([H])([H])C2([H])[H])C3([H])[H])c1N([H])[H]

$$$$
40:0:0
     RDKit          3D

 95103  0  0  1  0  0  0  0  0999 V2000
  -29.4380  -23.3070   19.9180 C   0  0  0  0  0  3  0  0  0  0  0  0
  -31.5200  -18.8540   20.4220 C   0  0  0  0  0  3  0  0  0  0  0  0
  -30.4340  -18.4270   19.6990 C   0  0  0  0  0  0  0  0  0  0  0  0
  -29.9100  -20.6710   19.9320 C   0  0  0  0  0  0  0  0  0  0  0  0
  -29.5130  -19.4750   19.4660 N   0  0  0  0  0  0  0  0  0  0  0  0
  -29.1670  -21.8550   19.7870 N   0  0  0  0  0  0  0  0  0  0  0  0
  -31.4730  -20.5750   20.7420 S   0  0  0  0  0  0  0  0  0  0  0  0
  -28.2720  -21.6630   19.3580 H   0  0  0  0  0  0  0  0  0  0  0  0
  -30.1970  -17.0490   19.0950 C   0  0  0  0  0  2  0  0  0  0  0  0
  -31.0030  -14.8070   19.8500 C   0  0  0  0  0  0  0  0  0  0  0  0
  -30.7760  -12.4880   19.0570 C   0  0  0  0  0  2  0  0  0  0  0  0
  -29.8060  -12.5220   17.8550 C   0  0  0  0  0  2  0  0  0  0  0  0
  -28.3400  -12.4100   18.3250 C   0  0  0  0  0  2  0  0  0  0  0  0
  -28.0100  -13.3720   19.4990 C   0  0  0  0  0  3  0  0  0  0  0  0
  -29.0990  -13.3250   20.5960 C   0  0  0  0  0  2  0  0  0  0  0  0
  -30.3980  -13.5920   19.9570 N   0  0  0  0  0  0  0  0  0  0  0  0
  -32.1370  -14.9400   19.3840 O   0  0  0  0  0  0  0  0  0  0  0  0
  -30.1840  -15.8750   20.0020 N   0  0  0  0  0  0  0  0  0  0  0  0
  -29.3000  -15.6860   20.4470 H   0  0  0  0  0  0  0  0  0  0  0  0
  -25.6960  -14.0310   20.4110 C   0  0  0  0  0  0  0  0  0  0  0  0
  -24.6200  -13.2810   20.8040 C   0  0  0  0  0  0  0  0  0  0  0  0
  -25.0150  -11.9160   20.6590 C   0  0  0  0  0  0  0  0  0  0  0  0
  -26.6810  -13.1230   20.0510 N   0  0  0  0  0  0  0  0  0  0  0  0
  -26.2790  -11.8430   20.2590 N   0  0  0  0  0  0  0  0  0  0  0  0
  -24.2460  -10.6770   20.8230 C   0  0  0  0  0  0  0  0  0  0  0  0
  -24.6520   -9.6690   21.7250 C   0  0  0  0  0  3  0  0  0  0  0  0
  -23.8850   -8.4930   21.8780 C   0  0  0  0  0  3  0  0  0  0  0  0
  -22.6970   -8.3180   21.1280 C   0  0  0  0  0  0  0  0  0  0  0  0
  -22.3090   -9.3150   20.2150 C   0  0  0  0  0  3  0  0  0  0  0  0
  -23.0760  -10.4830   20.0600 C   0  0  0  0  0  3  0  0  0  0  0  0
  -21.9030   -7.1990   21.1920 O   0  0  0  0  0  0  0  0  0  0  0  0
  -21.7790   -6.4690   22.3480 C   0  0  0  0  0  0  0  0  0  0  0  0
  -21.2650   -7.0350   23.5350 C   0  0  0  0  0  3  0  0  0  0  0  0
  -21.0890   -6.2320   24.6780 C   0  0  0  0  0  3  0  0  0  0  0  0
  -21.4150   -4.8630   24.6360 C   0  0  0  0  0  0  0  0  0  0  0  0
  -21.9220   -4.2960   23.4530 C   0  0  0  0  0  3  0  0  0  0  0  0
  -22.1000   -5.0960   22.3110 C   0  0  0  0  0  0  0  0  0  0  0  0
  -22.5680   -4.5410   21.1670 F   0  0  0  0  0  0  0  0  0  0  0  0
  -21.2380   -4.0880   25.7320 F   0  0  0  0  0  0  0  0  0  0  0  0
  -23.2670  -13.8010   21.1980 C   0  0  0  0  0  0  0  0  0  0  0  0
  -22.5680  -13.0870   22.0730 N   0  0  0  0  0  0  0  0  0  0  0  0
  -22.8450  -14.8730   20.7650 O   0  0  0  0  0  0  0  0  0  0  0  0
  -22.9260  -12.2220   22.4490 H   0  0  0  0  0  0  0  0  0  0  0  0
  -21.6590  -13.4130   22.3730 H   0  0  0  0  0  0  0  0  0  0  0  0
  -25.9130  -15.4010   20.3060 N   0  0  0  0  0  0  0  0  0  0  0  0
  -25.1810  -16.0780   20.4990 H   0  0  0  0  0  0  0  0  0  0  0  0
  -26.7520  -15.8260   19.9340 H   0  0  0  0  0  0  0  0  0  0  0  0
  -29.8900  -23.7090   21.3360 C   0  0  0  0  0  0  0  0  0  0  0  0
  -30.9160  -24.3610   21.5330 O   0  0  0  0  0  0  0  0  0  0  0  0
  -29.5560  -23.6700   23.8950 C   0  0  0  0  0  1  0  0  0  0  0  0
  -29.0210  -23.2470   22.5150 C   0  0  0  0  0  2  0  0  0  0  0  0
  -28.2560  -24.2390   19.4470 C   0  0  0  0  0  2  0  0  0  0  0  0
  -28.2250  -25.7850   17.3600 C   0  0  0  0  0  1  0  0  0  0  0  0
  -28.6520  -25.6350   18.8310 C   0  0  0  0  0  3  0  0  0  0  0  0
  -28.4180  -26.8630   19.5690 O   0  0  0  0  0  0  0  0  0  0  0  0
  -24.5710  -31.6840   23.1330 C   0  0  0  0  0  0  0  0  0  0  0  0
  -27.2070  -27.5440   19.6090 C   0  0  0  0  0  0  0  0  0  0  0  0
  -23.3380  -30.3670   21.4410 C   0  0  0  0  0  3  0  0  0  0  0  0
  -24.7700  -28.9900   19.8380 C   0  0  0  0  0  0  0  0  0  0  0  0
  -25.8410  -30.8210   21.1610 C   0  0  0  0  0  2  0  0  0  0  0  0
  -25.9360  -29.5010   20.4140 C   0  0  0  0  0  0  0  0  0  0  0  0
  -27.1530  -28.7870   20.2970 C   0  0  0  0  0  3  0  0  0  0  0  0
  -26.0150  -27.0490   19.0400 C   0  0  0  0  0  3  0  0  0  0  0  0
  -24.8050  -27.7640   19.1490 C   0  0  0  0  0  3  0  0  0  0  0  0
  -23.5040  -29.8010   20.0050 C   0  0  0  0  0  2  0  0  0  0  0  0
  -24.6050  -30.9700   21.9700 N   0  0  0  0  0  0  0  0  0  0  0  0
  -23.5060  -31.8760   23.7350 O   0  0  0  0  0  0  0  0  0  0  0  0
  -22.7640  -29.2540   22.3470 C   0  0  0  0  0  0  0  0  0  0  0  0
  -21.4510  -29.0010   22.2280 N   0  0  0  0  0  0  0  0  0  0  0  0
  -23.4980  -28.6230   23.1140 O   0  0  0  0  0  0  0  0  0  0  0  0
  -20.9150  -29.5670   21.5830 H   0  0  0  0  0  0  0  0  0  0  0  0
  -18.1750  -27.5350   22.6580 C   0  0  0  0  0  0  0  0  0  0  0  0
  -20.7050  -27.9690   22.9480 C   0  0  0  0  0  3  0  0  0  0  0  0
  -20.9140  -26.5780   22.3070 C   0  0  0  0  0  2  0  0  0  0  0  0
  -19.8390  -26.2220   21.2750 C   0  0  0  0  0  2  0  0  0  0  0  0
  -18.4510  -26.2350   21.9200 C   0  0  0  0  0  2  0  0  0  0  0  0
  -19.2340  -28.3570   23.1270 C   0  0  0  0  0  0  0  0  0  0  0  0
  -18.9210  -29.5710   23.7750 C   0  0  0  0  0  3  0  0  0  0  0  0
  -17.5840  -29.9670   23.9580 C   0  0  0  0  0  3  0  0  0  0  0  0
  -16.5390  -29.1430   23.5050 C   0  0  0  0  0  3  0  0  0  0  0  0
  -16.8360  -27.9280   22.8620 C   0  0  0  0  0  3  0  0  0  0  0  0
  -25.8610  -32.3130   23.7440 C   0  0  0  0  0  3  0  0  0  0  0  0
  -25.5470  -33.7010   24.1130 N   0  0  0  0  0  0  0  0  0  0  0  0
  -25.8690  -34.7740   23.3780 C   0  0  0  0  0  0  0  0  0  0  0  0
  -26.5360  -34.7010   22.3430 O   0  0  0  0  0  0  0  0  0  0  0  0
  -24.9600  -33.8330   24.9240 H   0  0  0  0  0  0  0  0  0  0  0  0
  -24.1360  -36.5670   23.0630 C   0  0  0  0  0  1  0  0  0  0  0  0
  -25.3750  -36.1480   23.8700 C   0  0  0  0  0  3  0  0  0  0  0  0
  -27.4980  -37.0220   24.7410 C   0  0  0  0  0  1  0  0  0  0  0  0
  -26.4040  -37.2070   23.7900 N   0  0  0  0  0  0  0  0  0  0  0  0
  -25.9930  -38.1230   23.9550 H   0  0  0  0  0  0  0  0  0  0  0  0
  -26.4090  -31.5200   24.9960 C   0  0  1  0  0  0  0  0  0  0  0  0
  -25.3400  -31.2550   26.0810 C   0  0  0  0  0  1  0  0  0  0  0  0
  -26.9910  -30.1550   24.5620 C   0  0  0  0  0  1  0  0  0  0  0  0
  -27.5700  -32.3070   25.6500 C   0  0  0  0  0  1  0  0  0  0  0  0
  1 52  1  0
  1 48  1  0
  2  7  1  0
  3  2  2  0
  4  7  1  0
  5  3  1  0
  5  4  2  0
  6  1  1  0
  6  4  1  0
  8  6  1  0
  9  3  1  0
  9 18  1  0
 10 16  1  0
 10 18  1  0
 11 16  1  0
 12 13  1  0
 12 11  1  0
 14 13  1  0
 14 23  1  0
 14 15  1  0
 16 15  1  0
 17 10  2  0
 18 19  1  0
 20 21  2  0
 21 40  1  0
 22 21  1  0
 22 25  1  0
 23 24  1  0
 23 20  1  0
 24 22  2  0
 25 26  1  0
 26 27  2  0
 28 31  1  0
 28 27  1  0
 29 28  2  0
 30 29  1  0
 30 25  2  0
 31 32  1  0
 32 33  1  0
 33 34  2  0
 35 34  1  0
 35 39  1  0
 36 35  2  0
 37 32  2  0
 37 36  1  0
 38 37  1  0
 40 41  1  0
 41 44  1  0
 41 43  1  0
 42 40  2  0
 45 20  1  0
 45 46  1  0
 47 45  1  0
 48 49  2  0
 48 51  1  0
 51 50  1  0
 54 53  1  0
 54 52  1  0
 54 55  1  0
 55 57  1  0
 56 67  2  0
 57 62  1  0
 58 66  1  0
 58 68  1  0
 59 65  1  0
 59 61  1  0
 60 66  1  0
 61 60  1  0
 62 61  2  0
 63 64  1  0
 63 57  2  0
 64 59  2  0
 65 58  1  0
 66 56  1  0
 68 70  2  0
 69 68  1  0
 71 69  1  0
 72 81  2  0
 72 77  1  0
 73 69  1  0
 73 77  1  0
 74 73  1  0
 75 76  1  0
 75 74  1  0
 76 72  1  0
 77 78  2  0
 78 79  1  0
 80 79  2  0
 81 80  1  0
 82 56  1  0
 82 83  1  0
 82 92  1  0
 83 86  1  0
 84 88  1  0
 84 83  1  0
 85 84  2  0
 88 87  1  0
 90 88  1  0
 90 91  1  0
 90 89  1  0
 92 95  1  1
 92 93  1  0
 94 92  1  0
M  ISO  4  10 100  18 100  54 101  55 101
M  END
>  <TORSDO>  (41) 
F 22

>  <SCORE>  (41) 
-12.137

>  <name>  (41) 
40

>  <ligand_id>  (41) 
40

>  <original_smiles>  (41) 
[H]c1sc(N([H])C([H])(C(=O)C([H])([H])C([H])([H])[H])C([H])([H])C([H])(Oc2c([H])c([H])c3c(c2[H])C([H])([H])N(C(=O)C([H])(N([H])C(=O)C([H])(N([H])C([H])([H])[H])C([H])([H])[H])C(C([H])([H])[H])(C([H])([H])[H])C([H])([H])[H])C([H])(C(=O)N([H])C2([H])c4c([H])c([H])c([H])c([H])c4C([H])([H])C([H])([H])C2([H])[H])C3([H])[H])C([H])([H])[H])nc1C([H])([H])N([H])C(=O)N1C([H])([H])C([H])([H])C([H])([H])C([H])(n2nc(-c3c([H])c([H])c(Oc4c([H])c([H])c(F)c([H])c4F)c([H])c3[H])c(C(=O)N([H])[H])c2N([H])[H])C1([H])[H]

>  <smiles>  (41) 
[H]c1sc(N([H])C([H])(C(=O)C([H])([H])C([H])([H])[H])C([H])([H])C([H])(Oc2c([H])c([H])c3c(c2[H])C([H])([H])N(C(=O)C([H])(N([H])C(=O)C([H])(N([H])C([H])([H])[H])C([H])([H])[H])C(C([H])([H])[H])(C([H])([H])[H])C([H])([H])[H])C([H])(C(=O)N([H])C2([H])c4c([H])c([H])c([H])c([H])c4C([H])([H])C([H])([H])C2([H])[H])C3([H])[H])C([H])([H])[H])nc1C([H])([H])N([H])C(=O)N1C([H])([H])C([H])([H])C([H])([H])C([H])(n2nc(-c3c([H])c([H])c(Oc4c([H])c([H])c(F)c([H])c4F)c([H])c3[H])c(C(=O)N([H])[H])c2N([H])[H])C1([H])[H]

$$$$
41:0:0
     RDKit          3D

 93101  0  0  1  0  0  0  0  0999 V2000
  -30.5930  -14.8400   20.3810 C   0  0  0  0  0  0  0  0  0  0  0  0
  -30.3880  -12.5230   19.4580 C   0  0  0  0  0  2  0  0  0  0  0  0
  -29.4890  -12.5700   18.2030 C   0  0  0  0  0  2  0  0  0  0  0  0
  -28.0080  -12.4010   18.6080 C   0  0  0  0  0  2  0  0  0  0  0  0
  -27.6070  -13.3040   19.8080 C   0  0  0  0  0  3  0  0  0  0  0  0
  -28.6490  -13.2670   20.9490 C   0  0  0  0  0  2  0  0  0  0  0  0
  -29.9470  -13.6180   20.3590 N   0  0  0  0  0  0  0  0  0  0  0  0
  -31.8120  -14.8240   20.1800 O   0  0  0  0  0  0  0  0  0  0  0  0
  -31.5460  -17.8030   19.8100 C   0  0  0  0  0  3  0  0  0  0  0  0
  -31.9200  -19.1210   19.5150 C   0  0  0  0  0  0  0  0  0  0  0  0
  -30.2110  -17.4820   20.1310 C   0  0  0  0  0  0  0  0  0  0  0  0
  -29.7900  -19.8670   19.8330 C   0  0  0  0  0  0  0  0  0  0  0  0
  -33.3400  -19.4580   19.0950 C   0  0  0  0  0  1  0  0  0  0  0  0
  -31.0430  -20.1360   19.5310 N   0  0  0  0  0  0  0  0  0  0  0  0
  -29.3390  -18.5930   20.1140 N   0  0  0  0  0  0  0  0  0  0  0  0
  -29.8540  -16.0390   20.4100 N   0  0  0  0  0  0  0  0  0  0  0  0
  -28.9330  -20.9910   19.5810 N   0  0  0  0  0  0  0  0  0  0  0  0
  -28.8700  -15.8970   20.5940 H   0  0  0  0  0  0  0  0  0  0  0  0
  -29.1510  -21.3240   18.6500 H   0  0  0  0  0  0  0  0  0  0  0  0
  -25.2140  -13.8940   20.5140 C   0  0  0  0  0  0  0  0  0  0  0  0
  -24.1420  -13.1240   20.8710 C   0  0  0  0  0  0  0  0  0  0  0  0
  -24.6070  -11.7720   20.8560 C   0  0  0  0  0  0  0  0  0  0  0  0
  -26.2590  -13.0140   20.2850 N   0  0  0  0  0  0  0  0  0  0  0  0
  -25.9010  -11.7330   20.5620 N   0  0  0  0  0  0  0  0  0  0  0  0
  -23.8730  -10.5110   21.0450 C   0  0  0  0  0  0  0  0  0  0  0  0
  -24.2960   -9.5480   21.9880 C   0  0  0  0  0  3  0  0  0  0  0  0
  -23.5680   -8.3500   22.1660 C   0  0  0  0  0  3  0  0  0  0  0  0
  -22.4030   -8.1080   21.3990 C   0  0  0  0  0  0  0  0  0  0  0  0
  -21.9950   -9.0630   20.4510 C   0  0  0  0  0  3  0  0  0  0  0  0
  -22.7250  -10.2510   20.2700 C   0  0  0  0  0  3  0  0  0  0  0  0
  -21.6410   -6.9670   21.4870 O   0  0  0  0  0  0  0  0  0  0  0  0
  -21.5870   -6.2260   22.6400 C   0  0  0  0  0  0  0  0  0  0  0  0
  -21.1620   -6.7880   23.8640 C   0  0  0  0  0  3  0  0  0  0  0  0
  -21.0510   -5.9740   25.0100 C   0  0  0  0  0  3  0  0  0  0  0  0
  -21.3510   -4.6020   24.9320 C   0  0  0  0  0  0  0  0  0  0  0  0
  -21.7650   -4.0390   23.7130 C   0  0  0  0  0  3  0  0  0  0  0  0
  -21.8770   -4.8470   22.5690 C   0  0  0  0  0  0  0  0  0  0  0  0
  -22.2570   -4.2990   21.3890 F   0  0  0  0  0  0  0  0  0  0  0  0
  -21.2400   -3.8190   26.0280 F   0  0  0  0  0  0  0  0  0  0  0  0
  -22.7430  -13.6030   21.1180 C   0  0  0  0  0  0  0  0  0  0  0  0
  -21.9980  -12.9140   21.9780 N   0  0  0  0  0  0  0  0  0  0  0  0
  -22.3120  -14.6250   20.5810 O   0  0  0  0  0  0  0  0  0  0  0  0
  -22.3510  -12.0910   22.4410 H   0  0  0  0  0  0  0  0  0  0  0  0
  -21.0540  -13.2200   22.1790 H   0  0  0  0  0  0  0  0  0  0  0  0
  -25.3830  -15.2590   20.3230 N   0  0  0  0  0  0  0  0  0  0  0  0
  -24.6300  -15.9280   20.4380 H   0  0  0  0  0  0  0  0  0  0  0  0
  -26.2300  -15.6790   19.9640 H   0  0  0  0  0  0  0  0  0  0  0  0
  -28.8070  -22.2860   20.3730 C   0  0  0  0  0  2  0  0  0  0  0  0
  -29.9580  -24.1260   18.9260 C   0  0  0  0  0  1  0  0  0  0  0  0
  -27.5370  -23.5990   18.5220 C   0  0  0  0  0  1  0  0  0  0  0  0
  -28.6300  -23.7400   19.6100 C   0  0  1  0  0  0  0  0  0  0  0  0
  -28.2330  -24.9970   20.5740 C   0  0  0  0  0  2  0  0  0  0  0  0
  -28.3800  -26.4540   20.2040 O   0  0  0  0  0  0  0  0  0  0  0  0
  -24.6130  -31.9140   23.2550 C   0  0  0  0  0  0  0  0  0  0  0  0
  -27.2610  -27.3120   20.2300 C   0  0  0  0  0  0  0  0  0  0  0  0
  -23.4270  -30.4920   21.6210 C   0  0  0  0  0  3  0  0  0  0  0  0
  -24.8940  -28.9290   20.2220 C   0  0  0  0  0  0  0  0  0  0  0  0
  -25.9710  -30.8120   21.4540 C   0  0  0  0  0  2  0  0  0  0  0  0
  -26.0630  -29.4240   20.8170 C   0  0  0  0  0  0  0  0  0  0  0  0
  -27.2520  -28.6280   20.8080 C   0  0  0  0  0  3  0  0  0  0  0  0
  -26.0710  -26.8770   19.6220 C   0  0  0  0  0  3  0  0  0  0  0  0
  -24.8990  -27.6620   19.6200 C   0  0  0  0  0  3  0  0  0  0  0  0
  -23.6560  -29.8060   20.2510 C   0  0  0  0  0  2  0  0  0  0  0  0
  -24.6900  -31.0890   22.1690 N   0  0  0  0  0  0  0  0  0  0  0  0
  -23.5240  -32.1890   23.7800 O   0  0  0  0  0  0  0  0  0  0  0  0
  -22.7620  -29.4820   22.5860 C   0  0  0  0  0  0  0  0  0  0  0  0
  -21.4350  -29.3060   22.4580 N   0  0  0  0  0  0  0  0  0  0  0  0
  -23.4380  -28.8580   23.4090 O   0  0  0  0  0  0  0  0  0  0  0  0
  -20.9470  -29.8640   21.7690 H   0  0  0  0  0  0  0  0  0  0  0  0
  -18.0540  -28.1210   22.9660 C   0  0  0  0  0  0  0  0  0  0  0  0
  -20.6140  -28.3710   23.2290 C   0  0  0  0  0  3  0  0  0  0  0  0
  -20.7110  -26.9390   22.6560 C   0  0  0  0  0  2  0  0  0  0  0  0
  -19.6070  -26.6180   21.6440 C   0  0  0  0  0  2  0  0  0  0  0  0
  -18.2250  -26.7690   22.2890 C   0  0  0  0  0  2  0  0  0  0  0  0
  -19.1780  -28.8790   23.3920 C   0  0  0  0  0  0  0  0  0  0  0  0
  -18.9660  -30.1430   23.9810 C   0  0  0  0  0  3  0  0  0  0  0  0
  -17.6650  -30.6510   24.1500 C   0  0  0  0  0  3  0  0  0  0  0  0
  -16.5560  -29.8900   23.7430 C   0  0  0  0  0  3  0  0  0  0  0  0
  -16.7500  -28.6280   23.1560 C   0  0  0  0  0  3  0  0  0  0  0  0
  -25.8890  -32.5560   23.8820 C   0  0  0  0  0  3  0  0  0  0  0  0
  -25.5690  -33.9560   24.1990 N   0  0  0  0  0  0  0  0  0  0  0  0
  -25.9030  -35.0060   23.4390 C   0  0  0  0  0  0  0  0  0  0  0  0
  -26.5830  -34.9020   22.4140 O   0  0  0  0  0  0  0  0  0  0  0  0
  -24.9700  -34.1150   24.9970 H   0  0  0  0  0  0  0  0  0  0  0  0
  -24.1720  -36.7930   23.0530 C   0  0  0  0  0  1  0  0  0  0  0  0
  -25.4040  -36.3960   23.8830 C   0  0  0  0  0  3  0  0  0  0  0  0
  -27.5260  -37.2910   24.7390 C   0  0  0  0  0  1  0  0  0  0  0  0
  -26.4340  -37.4540   23.7800 N   0  0  0  0  0  0  0  0  0  0  0  0
  -26.0220  -38.3720   23.9240 H   0  0  0  0  0  0  0  0  0  0  0  0
  -26.3990  -31.7980   25.1680 C   0  0  1  0  0  0  0  0  0  0  0  0
  -25.3000  -31.5670   26.2290 C   0  0  0  0  0  1  0  0  0  0  0  0
  -26.9880  -30.4170   24.7920 C   0  0  0  0  0  1  0  0  0  0  0  0
  -27.5370  -32.6020   25.8340 C   0  0  0  0  0  1  0  0  0  0  0  0
  1 16  1  0
  2  7  1  0
  3  4  1  0
  3  2  1  0
  5  4  1  0
  5 23  1  0
  5  6  1  0
  7  1  1  0
  7  6  1  0
  8  1  2  0
  9 11  1  0
 10 14  1  0
 10  9  2  0
 11 16  1  0
 12 15  1  0
 13 10  1  0
 14 12  2  0
 15 11  2  0
 16 18  1  0
 17 12  1  0
 17 48  1  0
 19 17  1  0
 20 21  2  0
 21 40  1  0
 22 21  1  0
 22 25  1  0
 23 20  1  0
 23 24  1  0
 24 22  2  0
 25 26  1  0
 26 27  2  0
 28 31  1  0
 28 27  1  0
 29 28  2  0
 30 29  1  0
 30 25  2  0
 31 32  1  0
 32 33  1  0
 33 34  2  0
 35 34  1  0
 35 39  1  0
 36 35  2  0
 37 32  2  0
 37 36  1  0
 38 37  1  0
 40 41  1  0
 41 44  1  0
 41 43  1  0
 42 40  2  0
 45 46  1  0
 45 20  1  0
 47 45  1  0
 51 49  1  6
 50 51  1  0
 51 48  1  0
 51 52  1  0
 53 55  1  0
 53 52  1  0
 54 65  2  0
 55 60  1  0
 56 64  1  0
 56 66  1  0
 57 63  1  0
 57 59  1  0
 58 64  1  0
 59 58  1  0
 60 59  2  0
 61 55  2  0
 62 61  1  0
 62 57  2  0
 63 56  1  0
 64 54  1  0
 66 68  2  0
 67 66  1  0
 69 67  1  0
 70 79  2  0
 70 75  1  0
 71 67  1  0
 71 75  1  0
 72 71  1  0
 73 74  1  0
 73 72  1  0
 74 70  1  0
 75 76  2  0
 76 77  1  0
 78 77  2  0
 79 78  1  0
 80 54  1  0
 80 81  1  0
 80 90  1  0
 81 84  1  0
 82 86  1  0
 82 81  1  0
 83 82  2  0
 86 85  1  0
 88 86  1  0
 88 89  1  0
 88 87  1  0
 90 93  1  1
 90 91  1  0
 92 90  1  0
M  ISO  4   1 100  16 100  52 101  53 101
M  END
>  <TORSDO>  (42) 
F 18

>  <SCORE>  (42) 
-14.633

>  <name>  (42) 
41

>  <ligand_id>  (42) 
41

>  <original_smiles>  (42) 
[H]c1c(N([H])C(=O)N2C([H])([H])C([H])([H])C([H])([H])C([H])(n3nc(-c4c([H])c([H])c(Oc5c([H])c([H])c(F)c([H])c5F)c([H])c4[H])c(C(=O)N([H])[H])c3N([H])[H])C2([H])[H])nc(N([H])C([H])([H])C(C([H])([H])[H])(C([H])([H])[H])C([H])([H])Oc2c([H])c([H])c3c(c2[H])C([H])([H])N(C(=O)C([H])(N([H])C(=O)C([H])(N([H])C([H])([H])[H])C([H])([H])[H])C(C([H])([H])[H])(C([H])([H])[H])C([H])([H])[H])C([H])(C(=O)N([H])C2([H])c4c([H])c([H])c([H])c([H])c4C([H])([H])C([H])([H])C2([H])[H])C3([H])[H])nc1C([H])([H])[H]

>  <smiles>  (42) 
[H]c1c(N([H])C(=O)N2C([H])([H])C([H])([H])C([H])([H])C([H])(n3nc(-c4c([H])c([H])c(Oc5c([H])c([H])c(F)c([H])c5F)c([H])c4[H])c(C(=O)N([H])[H])c3N([H])[H])C2([H])[H])nc(N([H])C([H])([H])C(C([H])([H])[H])(C([H])([H])[H])C([H])([H])Oc2c([H])c([H])c3c(c2[H])C([H])([H])N(C(=O)C([H])(N([H])C(=O)C([H])(N([H])C([H])([H])[H])C([H])([H])[H])C(C([H])([H])[H])(C([H])([H])[H])C([H])([H])[H])C([H])(C(=O)N([H])C2([H])c4c([H])c([H])c([H])c([H])c4C([H])([H])C([H])([H])C2([H])[H])C3([H])[H])nc1C([H])([H])[H]

$$$$
42:0:0
     RDKit          3D

 97105  0  0  1  0  0  0  0  0999 V2000
  -29.3340  -20.3500   19.7830 N   0  0  0  0  0  0  0  0  0  0  0  0
  -29.0980  -20.0790   18.8400 H   0  0  0  0  0  0  0  0  0  0  0  0
  -30.6400  -14.5570   20.1220 C   0  0  0  0  0  0  0  0  0  0  0  0
  -30.3430  -12.3990   18.9240 C   0  0  0  0  0  2  0  0  0  0  0  0
  -29.3300  -12.5940   17.7740 C   0  0  0  0  0  2  0  0  0  0  0  0
  -27.8830  -12.4340   18.2800 C   0  0  0  0  0  2  0  0  0  0  0  0
  -27.6070  -13.2480   19.5710 C   0  0  0  0  0  3  0  0  0  0  0  0
  -28.7170  -13.0050   20.6170 C   0  0  0  0  0  2  0  0  0  0  0  0
  -30.0010  -13.3550   19.9890 N   0  0  0  0  0  0  0  0  0  0  0  0
  -31.7800  -14.7500   19.6830 O   0  0  0  0  0  0  0  0  0  0  0  0
  -30.5260  -17.1700   22.3040 C   0  0  0  0  0  3  0  0  0  0  0  0
  -30.1780  -19.5590   21.9780 C   0  0  0  0  0  3  0  0  0  0  0  0
  -30.5680  -18.4890   22.8080 C   0  0  0  0  0  0  0  0  0  0  0  0
  -30.0950  -16.9200   20.9790 C   0  0  0  0  0  3  0  0  0  0  0  0
  -29.7370  -19.3090   20.6610 C   0  0  0  0  0  0  0  0  0  0  0  0
  -29.7180  -18.0050   20.2270 N   0  0  0  0  0  0  0  0  0  0  0  0
  -29.8280  -15.5680   20.5480 N   0  0  0  0  0  0  0  0  0  0  0  0
  -29.3800  -17.8290   19.2790 H   0  0  0  0  0  0  0  0  0  0  0  0
  -28.8990  -15.2400   20.7590 H   0  0  0  0  0  0  0  0  0  0  0  0
  -25.2540  -13.8660   20.4070 C   0  0  0  0  0  0  0  0  0  0  0  0
  -24.1970  -13.0970   20.8140 C   0  0  0  0  0  0  0  0  0  0  0  0
  -24.6440  -11.7420   20.7430 C   0  0  0  0  0  0  0  0  0  0  0  0
  -26.2770  -12.9790   20.1110 N   0  0  0  0  0  0  0  0  0  0  0  0
  -25.9170  -11.6970   20.3740 N   0  0  0  0  0  0  0  0  0  0  0  0
  -23.9180  -10.4830   20.9490 C   0  0  0  0  0  0  0  0  0  0  0  0
  -24.3680   -9.5140   21.8720 C   0  0  0  0  0  3  0  0  0  0  0  0
  -23.6430   -8.3190   22.0660 C   0  0  0  0  0  3  0  0  0  0  0  0
  -22.4540   -8.0840   21.3350 C   0  0  0  0  0  0  0  0  0  0  0  0
  -22.0230   -9.0430   20.4010 C   0  0  0  0  0  3  0  0  0  0  0  0
  -22.7470  -10.2290   20.2060 C   0  0  0  0  0  3  0  0  0  0  0  0
  -21.6980   -6.9410   21.4390 O   0  0  0  0  0  0  0  0  0  0  0  0
  -21.6490   -6.2150   22.6010 C   0  0  0  0  0  0  0  0  0  0  0  0
  -21.2240   -6.7880   23.8190 C   0  0  0  0  0  3  0  0  0  0  0  0
  -21.1210   -5.9890   24.9750 C   0  0  0  0  0  3  0  0  0  0  0  0
  -21.4330   -4.6170   24.9140 C   0  0  0  0  0  0  0  0  0  0  0  0
  -21.8510   -4.0430   23.7000 C   0  0  0  0  0  3  0  0  0  0  0  0
  -21.9560   -4.8400   22.5460 C   0  0  0  0  0  0  0  0  0  0  0  0
  -22.3400   -4.2800   21.3730 F   0  0  0  0  0  0  0  0  0  0  0  0
  -21.3270   -3.8460   26.0200 F   0  0  0  0  0  0  0  0  0  0  0  0
  -22.8170  -13.5820   21.1580 C   0  0  0  0  0  0  0  0  0  0  0  0
  -22.1290  -12.8830   22.0540 N   0  0  0  0  0  0  0  0  0  0  0  0
  -22.3600  -14.6120   20.6660 O   0  0  0  0  0  0  0  0  0  0  0  0
  -22.5140  -12.0480   22.4700 H   0  0  0  0  0  0  0  0  0  0  0  0
  -21.2050  -13.1870   22.3290 H   0  0  0  0  0  0  0  0  0  0  0  0
  -25.4180  -15.2380   20.2430 N   0  0  0  0  0  0  0  0  0  0  0  0
  -24.6510  -15.8850   20.4010 H   0  0  0  0  0  0  0  0  0  0  0  0
  -26.2380  -15.6860   19.8530 H   0  0  0  0  0  0  0  0  0  0  0  0
  -30.9730  -18.7380   24.1250 N   0  0  0  0  0  0  0  0  0  0  0  0
  -30.9070  -17.9660   24.7810 H   0  0  0  0  0  0  0  0  0  0  0  0
  -30.6690  -19.6080   24.5490 H   0  0  0  0  0  0  0  0  0  0  0  0
  -28.6840  -21.6120   20.2240 C   0  0  0  0  0  2  0  0  0  0  0  0
  -29.2320  -22.9090   19.5270 C   0  0  0  0  0  3  0  0  0  0  0  0
  -29.4450  -22.5810   18.1590 O   0  0  0  0  0  0  0  0  0  0  0  0
  -30.2770  -22.1210   18.0960 H   0  0  0  0  0  0  0  0  0  0  0  0
  -28.3140  -24.1930   19.4960 C   0  0  0  0  0  2  0  0  0  0  0  0
  -28.3810  -25.2330   20.6590 C   0  0  0  0  0  2  0  0  0  0  0  0
  -28.4440  -26.6250   20.2290 O   0  0  0  0  0  0  0  0  0  0  0  0
  -24.6390  -31.8880   23.2280 C   0  0  0  0  0  0  0  0  0  0  0  0
  -27.2780  -27.3740   20.2160 C   0  0  0  0  0  0  0  0  0  0  0  0
  -23.4350  -30.4640   21.6020 C   0  0  0  0  0  3  0  0  0  0  0  0
  -24.8890  -28.9070   20.1920 C   0  0  0  0  0  0  0  0  0  0  0  0
  -25.9620  -30.8160   21.3990 C   0  0  0  0  0  2  0  0  0  0  0  0
  -26.0480  -29.4350   20.7730 C   0  0  0  0  0  0  0  0  0  0  0  0
  -27.2490  -28.6790   20.7740 C   0  0  0  0  0  3  0  0  0  0  0  0
  -26.1000  -26.8710   19.6240 C   0  0  0  0  0  3  0  0  0  0  0  0
  -24.9130  -27.6300   19.6070 C   0  0  0  0  0  3  0  0  0  0  0  0
  -23.6420  -29.7640   20.2310 C   0  0  0  0  0  2  0  0  0  0  0  0
  -24.6970  -31.0730   22.1330 N   0  0  0  0  0  0  0  0  0  0  0  0
  -23.5580  -32.1670   23.7640 O   0  0  0  0  0  0  0  0  0  0  0  0
  -22.7850  -29.4550   22.5780 C   0  0  0  0  0  0  0  0  0  0  0  0
  -21.4630  -29.2630   22.4510 N   0  0  0  0  0  0  0  0  0  0  0  0
  -23.4700  -28.8450   23.4030 O   0  0  0  0  0  0  0  0  0  0  0  0
  -20.9720  -29.8100   21.7570 H   0  0  0  0  0  0  0  0  0  0  0  0
  -18.1020  -28.0320   22.9410 C   0  0  0  0  0  0  0  0  0  0  0  0
  -20.6520  -28.3280   23.2300 C   0  0  0  0  0  3  0  0  0  0  0  0
  -20.7800  -26.8880   22.6820 C   0  0  0  0  0  2  0  0  0  0  0  0
  -19.6920  -26.5300   21.6650 C   0  0  0  0  0  2  0  0  0  0  0  0
  -18.3020  -26.6720   22.2930 C   0  0  0  0  0  2  0  0  0  0  0  0
  -19.2060  -28.8160   23.3670 C   0  0  0  0  0  0  0  0  0  0  0  0
  -18.9670  -30.0870   23.9340 C   0  0  0  0  0  3  0  0  0  0  0  0
  -17.6550  -30.5750   24.0790 C   0  0  0  0  0  3  0  0  0  0  0  0
  -16.5640  -29.7900   23.6690 C   0  0  0  0  0  3  0  0  0  0  0  0
  -16.7880  -28.5200   23.1050 C   0  0  0  0  0  3  0  0  0  0  0  0
  -25.9250  -32.5280   23.8390 C   0  0  0  0  0  3  0  0  0  0  0  0
  -25.6090  -33.9230   24.1780 N   0  0  0  0  0  0  0  0  0  0  0  0
  -25.9240  -34.9810   23.4180 C   0  0  0  0  0  0  0  0  0  0  0  0
  -26.5850  -34.8840   22.3810 O   0  0  0  0  0  0  0  0  0  0  0  0
  -25.0280  -34.0700   24.9890 H   0  0  0  0  0  0  0  0  0  0  0  0
  -24.1850  -36.7650   23.0750 C   0  0  0  0  0  1  0  0  0  0  0  0
  -25.4310  -36.3640   23.8840 C   0  0  0  0  0  3  0  0  0  0  0  0
  -27.5610  -37.2610   24.7130 C   0  0  0  0  0  1  0  0  0  0  0  0
  -26.4560  -37.4230   23.7720 N   0  0  0  0  0  0  0  0  0  0  0  0
  -26.0430  -38.3410   23.9230 H   0  0  0  0  0  0  0  0  0  0  0  0
  -26.4630  -31.7590   25.1070 C   0  0  1  0  0  0  0  0  0  0  0  0
  -25.3800  -31.5070   26.1830 C   0  0  0  0  0  1  0  0  0  0  0  0
  -27.0560  -30.3890   24.7010 C   0  0  0  0  0  1  0  0  0  0  0  0
  -27.6130  -32.5630   25.7580 C   0  0  0  0  0  1  0  0  0  0  0  0
  1 51  1  0
  1 15  1  0
  2  1  1  0
  3 17  1  0
  4  9  1  0
  5  6  1  0
  5  4  1  0
  7  6  1  0
  7 23  1  0
  7  8  1  0
  9  3  1  0
  9  8  1  0
 10  3  2  0
 11 13  2  0
 12 13  1  0
 13 48  1  0
 14 17  1  0
 14 11  1  0
 15 12  2  0
 16 15  1  0
 16 14  1  0
 17 19  1  0
 18 16  1  0
 20 21  2  0
 21 40  1  0
 22 21  1  0
 22 25  1  0
 23 24  1  0
 23 20  1  0
 24 22  2  0
 25 26  1  0
 26 27  2  0
 28 31  1  0
 28 27  1  0
 29 28  2  0
 30 29  1  0
 30 25  2  0
 31 32  1  0
 32 33  1  0
 33 34  2  0
 35 34  1  0
 35 39  1  0
 36 35  2  0
 37 32  2  0
 37 36  1  0
 38 37  1  0
 40 41  1  0
 41 44  1  0
 41 43  1  0
 42 40  2  0
 45 46  1  0
 45 20  1  0
 47 45  1  0
 48 50  1  0
 48 49  1  0
 52 55  1  0
 52 51  1  0
 53 52  1  0
 54 53  1  0
 55 56  1  0
 57 56  1  0
 58 69  2  0
 59 57  1  0
 59 64  1  0
 60 68  1  0
 60 70  1  0
 61 67  1  0
 61 63  1  0
 62 68  1  0
 63 64  2  0
 63 62  1  0
 65 59  2  0
 66 65  1  0
 66 61  2  0
 67 60  1  0
 68 58  1  0
 70 72  2  0
 71 70  1  0
 73 71  1  0
 74 83  2  0
 74 79  1  0
 75 71  1  0
 75 79  1  0
 76 75  1  0
 77 78  1  0
 77 76  1  0
 78 74  1  0
 79 80  2  0
 80 81  1  0
 82 81  2  0
 83 82  1  0
 84 58  1  0
 84 85  1  0
 84 94  1  0
 85 88  1  0
 86 90  1  0
 86 85  1  0
 87 86  2  0
 90 89  1  0
 92 90  1  0
 92 93  1  0
 92 91  1  0
 94 97  1  1
 94 95  1  0
 96 94  1  0
M  ISO  4   3 100  17 100  56 101  57 101
M  END
>  <TORSDO>  (43) 
F 22

>  <SCORE>  (43) 
-12.874

>  <name>  (43) 
42

>  <ligand_id>  (43) 
42

>  <original_smiles>  (43) 
[H]OC([H])(C([H])([H])N([H])c1c([H])c(N([H])[H])c([H])c(N([H])C(=O)N2C([H])([H])C([H])([H])C([H])([H])C([H])(n3nc(-c4c([H])c([H])c(Oc5c([H])c([H])c(F)c([H])c5F)c([H])c4[H])c(C(=O)N([H])[H])c3N([H])[H])C2([H])[H])[n+]1[H])C([H])([H])C([H])([H])Oc1c([H])c([H])c2c(c1[H])C([H])([H])N(C(=O)C([H])(N([H])C(=O)C([H])(N([H])C([H])([H])[H])C([H])([H])[H])C(C([H])([H])[H])(C([H])([H])[H])C([H])([H])[H])C([H])(C(=O)N([H])C1([H])c3c([H])c([H])c([H])c([H])c3C([H])([H])C([H])([H])C1([H])[H])C2([H])[H]

>  <smiles>  (43) 
[H]OC([H])(C([H])([H])N([H])c1c([H])c(N([H])[H])c([H])c(N([H])C(=O)N2C([H])([H])C([H])([H])C([H])([H])C([H])(n3nc(-c4c([H])c([H])c(Oc5c([H])c([H])c(F)c([H])c5F)c([H])c4[H])c(C(=O)N([H])[H])c3N([H])[H])C2([H])[H])[n+]1[H])C([H])([H])C([H])([H])Oc1c([H])c([H])c2c(c1[H])C([H])([H])N(C(=O)C([H])(N([H])C(=O)C([H])(N([H])C([H])([H])[H])C([H])([H])[H])C(C([H])([H])[H])(C([H])([H])[H])C([H])([H])[H])C([H])(C(=O)N([H])C1([H])c3c([H])c([H])c([H])c([H])c3C([H])([H])C([H])([H])C1([H])[H])C2([H])[H]

$$$$
43:0:0
     RDKit          3D

 92100  0  0  1  0  0  0  0  0999 V2000
  -28.6200  -18.2990   20.7290 C   0  0  0  0  0  3  0  0  0  0  0  0
  -29.9780  -18.2750   20.5200 C   0  0  0  0  0  0  0  0  0  0  0  0
  -29.6040  -20.5380   20.3860 C   0  0  0  0  0  0  0  0  0  0  0  0
  -29.1500  -22.8800   19.7780 C   0  0  0  0  0  0  0  0  0  0  0  0
  -30.5240  -19.5640   20.3490 N   0  0  0  0  0  0  0  0  0  0  0  0
  -29.9660  -21.9100   20.2350 N   0  0  0  0  0  0  0  0  0  0  0  0
  -28.0930  -22.6100   19.1990 O   0  0  0  0  0  0  0  0  0  0  0  0
  -27.9760  -19.9220   20.6880 S   0  0  0  0  0  0  0  0  0  0  0  0
  -30.9060  -22.1740   20.5070 H   0  0  0  0  0  0  0  0  0  0  0  0
  -30.8940  -17.0730   20.4320 C   0  0  0  0  0  2  0  0  0  0  0  0
  -30.9060  -14.6310   20.1080 C   0  0  0  0  0  0  0  0  0  0  0  0
  -30.4740  -12.4950   18.9640 C   0  0  0  0  0  2  0  0  0  0  0  0
  -29.4830  -12.7370   17.8060 C   0  0  0  0  0  2  0  0  0  0  0  0
  -28.0370  -12.5870   18.3140 C   0  0  0  0  0  2  0  0  0  0  0  0
  -27.7660  -13.4140   19.5980 C   0  0  0  0  0  3  0  0  0  0  0  0
  -28.8800  -13.2160   20.6530 C   0  0  0  0  0  2  0  0  0  0  0  0
  -30.1720  -13.4910   20.0080 N   0  0  0  0  0  0  0  0  0  0  0  0
  -32.0330  -14.7280   19.6210 O   0  0  0  0  0  0  0  0  0  0  0  0
  -30.2900  -15.7340   20.5800 N   0  0  0  0  0  0  0  0  0  0  0  0
  -29.3550  -15.6570   20.9400 H   0  0  0  0  0  0  0  0  0  0  0  0
  -25.4130  -13.9990   20.4650 C   0  0  0  0  0  0  0  0  0  0  0  0
  -24.3640  -13.2190   20.8680 C   0  0  0  0  0  0  0  0  0  0  0  0
  -24.8200  -11.8680   20.7750 C   0  0  0  0  0  0  0  0  0  0  0  0
  -26.4420  -13.1250   20.1460 N   0  0  0  0  0  0  0  0  0  0  0  0
  -26.0920  -11.8360   20.3960 N   0  0  0  0  0  0  0  0  0  0  0  0
  -24.0990  -10.6020   20.9660 C   0  0  0  0  0  0  0  0  0  0  0  0
  -24.5340   -9.6390   21.9040 C   0  0  0  0  0  3  0  0  0  0  0  0
  -23.8150   -8.4380   22.0850 C   0  0  0  0  0  3  0  0  0  0  0  0
  -22.6440   -8.1900   21.3270 C   0  0  0  0  0  0  0  0  0  0  0  0
  -22.2280   -9.1420   20.3790 C   0  0  0  0  0  3  0  0  0  0  0  0
  -22.9490  -10.3360   20.1980 C   0  0  0  0  0  3  0  0  0  0  0  0
  -21.8950   -7.0430   21.4170 O   0  0  0  0  0  0  0  0  0  0  0  0
  -21.7900   -6.3420   22.5910 C   0  0  0  0  0  0  0  0  0  0  0  0
  -21.2270   -6.9130   23.7540 C   0  0  0  0  0  3  0  0  0  0  0  0
  -21.0750   -6.1350   24.9180 C   0  0  0  0  0  3  0  0  0  0  0  0
  -21.4760   -4.7860   24.9210 C   0  0  0  0  0  0  0  0  0  0  0  0
  -22.0330   -4.2140   23.7650 C   0  0  0  0  0  3  0  0  0  0  0  0
  -22.1870   -4.9880   22.6020 C   0  0  0  0  0  0  0  0  0  0  0  0
  -22.7040   -4.4260   21.4830 F   0  0  0  0  0  0  0  0  0  0  0  0
  -21.3240   -4.0360   26.0380 F   0  0  0  0  0  0  0  0  0  0  0  0
  -22.9850  -13.6900   21.2260 C   0  0  0  0  0  0  0  0  0  0  0  0
  -22.3040  -12.9740   22.1180 N   0  0  0  0  0  0  0  0  0  0  0  0
  -22.5210  -14.7260   20.7530 O   0  0  0  0  0  0  0  0  0  0  0  0
  -22.6910  -12.1330   22.5150 H   0  0  0  0  0  0  0  0  0  0  0  0
  -21.3810  -13.2700   22.3960 H   0  0  0  0  0  0  0  0  0  0  0  0
  -25.5680  -15.3750   20.3120 N   0  0  0  0  0  0  0  0  0  0  0  0
  -24.8000  -16.0170   20.4700 H   0  0  0  0  0  0  0  0  0  0  0  0
  -26.3640  -15.8120   19.8660 H   0  0  0  0  0  0  0  0  0  0  0  0
  -29.5570  -24.3720   19.9140 C   0  0  0  0  0  2  0  0  0  0  0  0
  -27.8740  -25.0810   21.7280 C   0  0  0  0  0  1  0  0  0  0  0  0
  -28.3440  -25.2920   20.2650 C   0  0  0  0  0  3  0  0  0  0  0  0
  -28.5370  -26.7140   20.0220 O   0  0  0  0  0  0  0  0  0  0  0  0
  -24.5530  -31.6990   23.2050 C   0  0  0  0  0  0  0  0  0  0  0  0
  -27.3750  -27.4760   19.9680 C   0  0  0  0  0  0  0  0  0  0  0  0
  -23.4200  -30.3370   21.4850 C   0  0  0  0  0  3  0  0  0  0  0  0
  -24.9430  -28.9320   20.0070 C   0  0  0  0  0  0  0  0  0  0  0  0
  -25.9370  -30.7890   21.3380 C   0  0  0  0  0  2  0  0  0  0  0  0
  -26.0810  -29.4520   20.6390 C   0  0  0  0  0  0  0  0  0  0  0  0
  -27.3020  -28.7310   20.6180 C   0  0  0  0  0  3  0  0  0  0  0  0
  -26.2210  -27.0060   19.2940 C   0  0  0  0  0  3  0  0  0  0  0  0
  -25.0110  -27.7100   19.3300 C   0  0  0  0  0  3  0  0  0  0  0  0
  -23.6720  -29.7410   20.0770 C   0  0  0  0  0  2  0  0  0  0  0  0
  -24.6560  -30.9530   22.0700 N   0  0  0  0  0  0  0  0  0  0  0  0
  -23.4540  -31.9090   23.7370 O   0  0  0  0  0  0  0  0  0  0  0  0
  -22.7900  -29.2440   22.3820 C   0  0  0  0  0  0  0  0  0  0  0  0
  -21.4760  -29.0160   22.2160 N   0  0  0  0  0  0  0  0  0  0  0  0
  -23.4790  -28.6080   23.1840 O   0  0  0  0  0  0  0  0  0  0  0  0
  -20.9800  -29.5840   21.5430 H   0  0  0  0  0  0  0  0  0  0  0  0
  -18.1290  -27.7210   22.6270 C   0  0  0  0  0  0  0  0  0  0  0  0
  -20.6800  -28.0160   22.9280 C   0  0  0  0  0  3  0  0  0  0  0  0
  -20.8170  -26.6260   22.2660 C   0  0  0  0  0  2  0  0  0  0  0  0
  -19.7240  -26.3440   21.2300 C   0  0  0  0  0  2  0  0  0  0  0  0
  -18.3380  -26.4170   21.8760 C   0  0  0  0  0  2  0  0  0  0  0  0
  -19.2290  -28.4800   23.1050 C   0  0  0  0  0  0  0  0  0  0  0  0
  -18.9780  -29.7050   23.7610 C   0  0  0  0  0  3  0  0  0  0  0  0
  -17.6610  -30.1650   23.9520 C   0  0  0  0  0  3  0  0  0  0  0  0
  -16.5760  -29.3980   23.4930 C   0  0  0  0  0  3  0  0  0  0  0  0
  -16.8120  -28.1800   22.8340 C   0  0  0  0  0  3  0  0  0  0  0  0
  -25.8060  -32.3430   23.8740 C   0  0  0  0  0  3  0  0  0  0  0  0
  -26.2870  -31.5660   25.1590 C   0  0  1  0  0  0  0  0  0  0  0  0
  -25.1620  -31.2960   26.1850 C   0  0  0  0  0  1  0  0  0  0  0  0
  -26.9130  -30.2070   24.7670 C   0  0  0  0  0  1  0  0  0  0  0  0
  -27.3980  -32.3730   25.8730 C   0  0  0  0  0  1  0  0  0  0  0  0
  -25.4690  -33.7320   24.2040 N   0  0  0  0  0  0  0  0  0  0  0  0
  -25.7590  -34.7870   23.4330 C   0  0  0  0  0  0  0  0  0  0  0  0
  -26.4180  -34.6950   22.3920 O   0  0  0  0  0  0  0  0  0  0  0  0
  -24.8910  -33.8810   25.0180 H   0  0  0  0  0  0  0  0  0  0  0  0
  -23.9600  -36.5160   23.1010 C   0  0  0  0  0  1  0  0  0  0  0  0
  -25.2350  -36.1640   23.8860 C   0  0  0  0  0  3  0  0  0  0  0  0
  -27.3510  -37.1350   24.6610 C   0  0  0  0  0  1  0  0  0  0  0  0
  -26.2290  -37.2500   23.7340 N   0  0  0  0  0  0  0  0  0  0  0  0
  -25.7930  -38.1590   23.8730 H   0  0  0  0  0  0  0  0  0  0  0  0
  2  1  2  0
  3  8  1  0
  4 49  1  0
  4  6  1  0
  5  3  2  0
  5  2  1  0
  6  3  1  0
  6  9  1  0
  7  4  2  0
  8  1  1  0
 10  2  1  0
 10 19  1  0
 11 19  1  0
 12 17  1  0
 13 14  1  0
 13 12  1  0
 15 14  1  0
 15 24  1  0
 15 16  1  0
 17 11  1  0
 17 16  1  0
 18 11  2  0
 19 20  1  0
 21 22  2  0
 22 41  1  0
 23 22  1  0
 23 26  1  0
 24 25  1  0
 24 21  1  0
 25 23  2  0
 26 27  1  0
 27 28  2  0
 29 32  1  0
 29 28  1  0
 30 29  2  0
 31 30  1  0
 31 26  2  0
 32 33  1  0
 33 38  2  0
 33 34  1  0
 34 35  2  0
 35 36  1  0
 36 40  1  0
 37 36  2  0
 38 37  1  0
 39 38  1  0
 41 42  1  0
 42 45  1  0
 42 44  1  0
 43 41  2  0
 46 21  1  0
 46 47  1  0
 48 46  1  0
 49 51  1  0
 51 50  1  0
 52 51  1  0
 53 64  2  0
 54 52  1  0
 54 59  1  0
 55 63  1  0
 55 65  1  0
 56 62  1  0
 56 58  1  0
 57 63  1  0
 58 57  1  0
 59 58  2  0
 60 61  1  0
 60 54  2  0
 61 56  2  0
 62 55  1  0
 63 53  1  0
 65 67  2  0
 66 65  1  0
 68 66  1  0
 69 78  2  0
 69 74  1  0
 70 66  1  0
 70 74  1  0
 71 70  1  0
 72 73  1  0
 72 71  1  0
 73 69  1  0
 74 75  2  0
 75 76  1  0
 77 76  2  0
 78 77  1  0
 79 53  1  0
 79 84  1  0
 79 80  1  0
 80 83  1  1
 80 81  1  0
 82 80  1  0
 84 87  1  0
 85 89  1  0
 85 84  1  0
 86 85  2  0
 89 88  1  0
 91 92  1  0
 91 89  1  0
 91 90  1  0
M  ISO  4  11 100  19 100  51 101  52 101
M  END
>  <TORSDO>  (44) 
F 19

>  <SCORE>  (44) 
-13.464

>  <name>  (44) 
43

>  <ligand_id>  (44) 
43

>  <original_smiles>  (44) 
[H]c1sc(N([H])C(=O)C([H])([H])C([H])(Oc2c([H])c([H])c3c(c2[H])C([H])([H])N(C(=O)C([H])(N([H])C(=O)C([H])(N([H])C([H])([H])[H])C([H])([H])[H])C(C([H])([H])[H])(C([H])([H])[H])C([H])([H])[H])C([H])(C(=O)N([H])C2([H])c4c([H])c([H])c([H])c([H])c4C([H])([H])C([H])([H])C2([H])[H])C3([H])[H])C([H])([H])[H])nc1C([H])([H])N([H])C(=O)N1C([H])([H])C([H])([H])C([H])([H])C([H])(n2nc(-c3c([H])c([H])c(Oc4c([H])c([H])c(F)c([H])c4F)c([H])c3[H])c(C(=O)N([H])[H])c2N([H])[H])C1([H])[H]

>  <smiles>  (44) 
[H]c1sc(N([H])C(=O)C([H])([H])C([H])(Oc2c([H])c([H])c3c(c2[H])C([H])([H])N(C(=O)C([H])(N([H])C(=O)C([H])(N([H])C([H])([H])[H])C([H])([H])[H])C(C([H])([H])[H])(C([H])([H])[H])C([H])([H])[H])C([H])(C(=O)N([H])C2([H])c4c([H])c([H])c([H])c([H])c4C([H])([H])C([H])([H])C2([H])[H])C3([H])[H])C([H])([H])[H])nc1C([H])([H])N([H])C(=O)N1C([H])([H])C([H])([H])C([H])([H])C([H])(n2nc(-c3c([H])c([H])c(Oc4c([H])c([H])c(F)c([H])c4F)c([H])c3[H])c(C(=O)N([H])[H])c2N([H])[H])C1([H])[H]

$$$$
44:0:0
     RDKit          3D

 94102  0  0  1  0  0  0  0  0999 V2000
  -29.5220  -18.1040   20.3710 C   0  0  0  0  0  0  0  0  0  0  0  0
  -28.5320  -17.9640   19.4140 C   0  0  0  0  0  0  0  0  0  0  0  0
  -28.9570  -20.3370   20.0240 C   0  0  0  0  0  0  0  0  0  0  0  0
  -29.7330  -19.4710   20.7070 N   0  0  0  0  0  0  0  0  0  0  0  0
  -28.9500  -21.7500   20.0760 N   0  0  0  0  0  0  0  0  0  0  0  0
  -27.8630  -19.5070   18.9270 S   0  0  0  0  0  0  0  0  0  0  0  0
  -28.2600  -22.1090   19.4220 H   0  0  0  0  0  0  0  0  0  0  0  0
  -28.0530  -16.8140   18.7960 N   0  0  0  0  0  0  0  0  0  0  0  0
  -28.7230  -16.0640   18.6670 H   0  0  0  0  0  0  0  0  0  0  0  0
  -27.4990  -16.9400   17.9540 H   0  0  0  0  0  0  0  0  0  0  0  0
  -31.0370  -22.5430   21.1370 C   0  0  0  0  0  1  0  0  0  0  0  0
  -29.5550  -22.8470   20.8580 C   0  0  0  0  0  3  0  0  0  0  0  0
  -29.4170  -24.2770   20.1920 C   0  0  0  0  0  2  0  0  0  0  0  0
  -28.2670  -25.2170   20.6810 C   0  0  0  0  0  2  0  0  0  0  0  0
  -28.4000  -26.6040   20.2410 O   0  0  0  0  0  0  0  0  0  0  0  0
  -24.6030  -31.9010   23.2420 C   0  0  0  0  0  0  0  0  0  0  0  0
  -27.2480  -27.3810   20.2300 C   0  0  0  0  0  0  0  0  0  0  0  0
  -23.4050  -30.4870   21.6060 C   0  0  0  0  0  3  0  0  0  0  0  0
  -24.8660  -28.9330   20.2010 C   0  0  0  0  0  0  0  0  0  0  0  0
  -25.9370  -30.8290   21.4230 C   0  0  0  0  0  2  0  0  0  0  0  0
  -26.0250  -29.4480   20.7950 C   0  0  0  0  0  0  0  0  0  0  0  0
  -27.2210  -28.6820   20.7990 C   0  0  0  0  0  3  0  0  0  0  0  0
  -26.0710  -26.9010   19.6150 C   0  0  0  0  0  3  0  0  0  0  0  0
  -24.8860  -27.6620   19.6050 C   0  0  0  0  0  3  0  0  0  0  0  0
  -23.6240  -29.7980   20.2330 C   0  0  0  0  0  2  0  0  0  0  0  0
  -24.6670  -31.0890   22.1490 N   0  0  0  0  0  0  0  0  0  0  0  0
  -23.5180  -32.1790   23.7720 O   0  0  0  0  0  0  0  0  0  0  0  0
  -22.7440  -29.4750   22.5700 C   0  0  0  0  0  0  0  0  0  0  0  0
  -21.4190  -29.2970   22.4390 N   0  0  0  0  0  0  0  0  0  0  0  0
  -23.4210  -28.8540   23.3940 O   0  0  0  0  0  0  0  0  0  0  0  0
  -20.9330  -29.8490   21.7460 H   0  0  0  0  0  0  0  0  0  0  0  0
  -18.0390  -28.1120   22.9290 C   0  0  0  0  0  0  0  0  0  0  0  0
  -20.5960  -28.3660   23.2130 C   0  0  0  0  0  3  0  0  0  0  0  0
  -20.6980  -26.9310   22.6470 C   0  0  0  0  0  2  0  0  0  0  0  0
  -19.6010  -26.6040   21.6300 C   0  0  0  0  0  2  0  0  0  0  0  0
  -18.2160  -26.7580   22.2640 C   0  0  0  0  0  2  0  0  0  0  0  0
  -19.1580  -28.8740   23.3610 C   0  0  0  0  0  0  0  0  0  0  0  0
  -18.9380  -30.1430   23.9400 C   0  0  0  0  0  3  0  0  0  0  0  0
  -17.6340  -30.6490   24.0960 C   0  0  0  0  0  3  0  0  0  0  0  0
  -16.5300  -29.8840   23.6820 C   0  0  0  0  0  3  0  0  0  0  0  0
  -16.7340  -28.6180   23.1040 C   0  0  0  0  0  3  0  0  0  0  0  0
  -25.8830  -32.5370   23.8650 C   0  0  0  0  0  3  0  0  0  0  0  0
  -25.5730  -33.9360   24.1880 N   0  0  0  0  0  0  0  0  0  0  0  0
  -25.9090  -34.9860   23.4270 C   0  0  0  0  0  0  0  0  0  0  0  0
  -26.5840  -34.8780   22.3990 O   0  0  0  0  0  0  0  0  0  0  0  0
  -24.9770  -34.0940   24.9880 H   0  0  0  0  0  0  0  0  0  0  0  0
  -24.1830  -36.7760   23.0560 C   0  0  0  0  0  1  0  0  0  0  0  0
  -25.4190  -36.3750   23.8760 C   0  0  0  0  0  3  0  0  0  0  0  0
  -27.5490  -37.2610   24.7160 C   0  0  0  0  0  1  0  0  0  0  0  0
  -26.4520  -37.4280   23.7660 N   0  0  0  0  0  0  0  0  0  0  0  0
  -26.0460  -38.3470   23.9110 H   0  0  0  0  0  0  0  0  0  0  0  0
  -26.3990  -31.7700   25.1450 C   0  0  1  0  0  0  0  0  0  0  0  0
  -25.3040  -31.5350   26.2120 C   0  0  0  0  0  1  0  0  0  0  0  0
  -26.9830  -30.3920   24.7560 C   0  0  0  0  0  1  0  0  0  0  0  0
  -27.5480  -32.5680   25.8050 C   0  0  0  0  0  1  0  0  0  0  0  0
  -30.3840  -17.0130   21.0280 C   0  0  0  0  0  2  0  0  0  0  0  0
  -30.6460  -14.5430   20.4780 C   0  0  0  0  0  0  0  0  0  0  0  0
  -30.3530  -12.3660   19.3380 C   0  0  0  0  0  2  0  0  0  0  0  0
  -29.4040  -12.5590   18.1350 C   0  0  0  0  0  2  0  0  0  0  0  0
  -27.9330  -12.4180   18.5730 C   0  0  0  0  0  2  0  0  0  0  0  0
  -27.6000  -13.2440   19.8450 C   0  0  0  0  0  3  0  0  0  0  0  0
  -28.6660  -13.0450   20.9460 C   0  0  0  0  0  2  0  0  0  0  0  0
  -29.9760  -13.3590   20.3590 N   0  0  0  0  0  0  0  0  0  0  0  0
  -31.7930  -14.6900   20.0510 O   0  0  0  0  0  0  0  0  0  0  0  0
  -29.9300  -15.5990   20.9280 N   0  0  0  0  0  0  0  0  0  0  0  0
  -28.9720  -15.4230   21.1910 H   0  0  0  0  0  0  0  0  0  0  0  0
  -25.2090  -13.8510   20.5620 C   0  0  0  0  0  0  0  0  0  0  0  0
  -24.1420  -13.0780   20.9340 C   0  0  0  0  0  0  0  0  0  0  0  0
  -24.6030  -11.7260   20.9010 C   0  0  0  0  0  0  0  0  0  0  0  0
  -26.2530  -12.9680   20.3300 N   0  0  0  0  0  0  0  0  0  0  0  0
  -25.8920  -11.6850   20.5890 N   0  0  0  0  0  0  0  0  0  0  0  0
  -23.8770  -10.4630   21.0910 C   0  0  0  0  0  0  0  0  0  0  0  0
  -24.3250   -9.4840   22.0060 C   0  0  0  0  0  3  0  0  0  0  0  0
  -23.5990   -8.2860   22.1840 C   0  0  0  0  0  3  0  0  0  0  0  0
  -22.4130   -8.0590   21.4470 C   0  0  0  0  0  0  0  0  0  0  0  0
  -21.9850   -9.0250   20.5200 C   0  0  0  0  0  3  0  0  0  0  0  0
  -22.7110  -10.2150   20.3400 C   0  0  0  0  0  3  0  0  0  0  0  0
  -21.6570   -6.9130   21.5350 O   0  0  0  0  0  0  0  0  0  0  0  0
  -21.6400   -6.1500   22.6750 C   0  0  0  0  0  0  0  0  0  0  0  0
  -21.2650   -6.6860   23.9260 C   0  0  0  0  0  3  0  0  0  0  0  0
  -21.1930   -5.8490   25.0580 C   0  0  0  0  0  3  0  0  0  0  0  0
  -21.4870   -4.4770   24.9410 C   0  0  0  0  0  0  0  0  0  0  0  0
  -21.8550   -3.9410   23.6950 C   0  0  0  0  0  3  0  0  0  0  0  0
  -21.9280   -4.7750   22.5640 C   0  0  0  0  0  0  0  0  0  0  0  0
  -22.2630   -4.2490   21.3620 F   0  0  0  0  0  0  0  0  0  0  0  0
  -21.4100   -3.6700   26.0240 F   0  0  0  0  0  0  0  0  0  0  0  0
  -22.7450  -13.5540   21.2090 C   0  0  0  0  0  0  0  0  0  0  0  0
  -22.0210  -12.8550   22.0760 N   0  0  0  0  0  0  0  0  0  0  0  0
  -22.3040  -14.5790   20.6900 O   0  0  0  0  0  0  0  0  0  0  0  0
  -22.3910  -12.0250   22.5160 H   0  0  0  0  0  0  0  0  0  0  0  0
  -21.0840  -13.1550   22.3050 H   0  0  0  0  0  0  0  0  0  0  0  0
  -25.3760  -15.2220   20.3770 N   0  0  0  0  0  0  0  0  0  0  0  0
  -24.6040  -15.8720   20.4580 H   0  0  0  0  0  0  0  0  0  0  0  0
  -26.2100  -15.6500   19.9840 H   0  0  0  0  0  0  0  0  0  0  0  0
  1  4  1  0
  1 56  1  0
  2  1  2  0
  3  5  1  0
  3  4  2  0
  5 12  1  0
  6  2  1  0
  6  3  1  0
  7  5  1  0
  8  2  1  0
  9  8  1  0
 10  8  1  0
 12 11  1  0
 13 14  1  0
 13 12  1  0
 15 14  1  0
 16 27  2  0
 17 15  1  0
 17 22  1  0
 18 26  1  0
 18 28  1  0
 19 25  1  0
 19 21  1  0
 20 26  1  0
 21 22  2  0
 21 20  1  0
 23 17  2  0
 24 23  1  0
 24 19  2  0
 25 18  1  0
 26 16  1  0
 28 30  2  0
 29 28  1  0
 31 29  1  0
 32 41  2  0
 32 37  1  0
 33 29  1  0
 33 37  1  0
 34 33  1  0
 35 36  1  0
 35 34  1  0
 36 32  1  0
 37 38  2  0
 38 39  1  0
 40 39  2  0
 41 40  1  0
 42 16  1  0
 42 43  1  0
 42 52  1  0
 43 46  1  0
 44 48  1  0
 44 43  1  0
 45 44  2  0
 48 47  1  0
 50 48  1  0
 50 51  1  0
 50 49  1  0
 52 55  1  1
 52 53  1  0
 54 52  1  0
 57 65  1  0
 58 63  1  0
 59 60  1  0
 59 58  1  0
 61 60  1  0
 61 70  1  0
 61 62  1  0
 63 57  1  0
 63 62  1  0
 64 57  2  0
 65 56  1  0
 65 66  1  0
 67 68  2  0
 68 87  1  0
 69 68  1  0
 69 72  1  0
 70 67  1  0
 70 71  1  0
 71 69  2  0
 72 73  1  0
 73 74  2  0
 75 78  1  0
 75 74  1  0
 76 75  2  0
 77 76  1  0
 77 72  2  0
 78 79  1  0
 79 80  1  0
 80 81  2  0
 82 81  1  0
 82 86  1  0
 83 82  2  0
 84 79  2  0
 84 83  1  0
 85 84  1  0
 87 88  1  0
 88 91  1  0
 88 90  1  0
 89 87  2  0
 92 93  1  0
 92 67  1  0
 94 92  1  0
M  ISO  4  14 101  15 101  57 100  65 100
M  END
>  <TORSDO>  (45) 
F 21

>  <SCORE>  (45) 
-14.088

>  <name>  (45) 
44

>  <ligand_id>  (45) 
44

>  <original_smiles>  (45) 
[H]c1c([H])c([H])c2c(c1[H])C([H])([H])C([H])([H])C([H])([H])C2([H])N([H])C(=O)C1([H])N(C(=O)C([H])(N([H])C(=O)C([H])(N([H])C([H])([H])[H])C([H])([H])[H])C(C([H])([H])[H])(C([H])([H])[H])C([H])([H])[H])C([H])([H])c2c([H])c(OC([H])([H])C([H])([H])C([H])(N([H])c3nc(C([H])([H])N([H])C(=O)N4C([H])([H])C([H])([H])C([H])([H])C([H])(n5nc(-c6c([H])c([H])c(Oc7c([H])c([H])c(F)c([H])c7F)c([H])c6[H])c(C(=O)N([H])[H])c5N([H])[H])C4([H])[H])c(N([H])[H])s3)C([H])([H])[H])c([H])c([H])c2C1([H])[H]

>  <smiles>  (45) 
[H]c1c([H])c([H])c2c(c1[H])C([H])([H])C([H])([H])C([H])([H])C2([H])N([H])C(=O)C1([H])N(C(=O)C([H])(N([H])C(=O)C([H])(N([H])C([H])([H])[H])C([H])([H])[H])C(C([H])([H])[H])(C([H])([H])[H])C([H])([H])[H])C([H])([H])c2c([H])c(OC([H])([H])C([H])([H])C([H])(N([H])c3nc(C([H])([H])N([H])C(=O)N4C([H])([H])C([H])([H])C([H])([H])C([H])(n5nc(-c6c([H])c([H])c(Oc7c([H])c([H])c(F)c([H])c7F)c([H])c6[H])c(C(=O)N([H])[H])c5N([H])[H])C4([H])[H])c(N([H])[H])s3)C([H])([H])[H])c([H])c([H])c2C1([H])[H]

$$$$
45:0:0
     RDKit          3D

 94102  0  0  1  0  0  0  0  0999 V2000
  -29.4540  -21.5150   19.3650 C   0  0  0  0  0  2  0  0  0  0  0  0
  -29.9670  -18.0850   20.1400 C   0  0  0  0  0  0  0  0  0  0  0  0
  -28.2880  -19.2520   19.8170 C   0  0  0  0  0  3  0  0  0  0  0  0
  -28.6040  -17.9840   20.0630 N   0  0  0  0  0  0  0  0  0  0  0  0
  -30.4490  -19.3270   19.9700 N   0  0  0  0  0  2  0  0  0  0  0  0
  -29.3360  -20.0910   19.7680 N   0  0  0  0  0  0  0  0  0  0  0  0
  -27.0020  -19.6900   19.5920 N   0  0  0  0  0  0  0  0  0  0  0  0
  -26.2170  -19.0540   19.5660 H   0  0  0  0  0  0  0  0  0  0  0  0
  -26.8140  -20.6460   19.3190 H   0  0  0  0  0  0  0  0  0  0  0  0
  -30.8830  -16.9120   20.4300 C   0  0  0  0  0  2  0  0  0  0  0  0
  -30.8990  -14.4570   19.9700 C   0  0  0  0  0  0  0  0  0  0  0  0
  -30.5230  -12.2250   18.9790 C   0  0  0  0  0  2  0  0  0  0  0  0
  -29.5180  -12.3440   17.8160 C   0  0  0  0  0  2  0  0  0  0  0  0
  -28.0750  -12.2180   18.3410 C   0  0  0  0  0  2  0  0  0  0  0  0
  -27.7990  -13.1340   19.5650 C   0  0  0  0  0  3  0  0  0  0  0  0
  -28.9200  -13.0160   20.6220 C   0  0  0  0  0  2  0  0  0  0  0  0
  -30.2000  -13.2860   19.9510 N   0  0  0  0  0  0  0  0  0  0  0  0
  -32.0140  -14.5530   19.4550 O   0  0  0  0  0  0  0  0  0  0  0  0
  -30.2730  -15.5600   20.4390 N   0  0  0  0  0  0  0  0  0  0  0  0
  -29.3330  -15.4850   20.7960 H   0  0  0  0  0  0  0  0  0  0  0  0
  -25.4920  -13.7810   20.4950 C   0  0  0  0  0  0  0  0  0  0  0  0
  -24.4270  -13.0280   20.9110 C   0  0  0  0  0  0  0  0  0  0  0  0
  -24.8330  -11.6640   20.7820 C   0  0  0  0  0  0  0  0  0  0  0  0
  -26.4810  -12.8780   20.1400 N   0  0  0  0  0  0  0  0  0  0  0  0
  -26.0930  -11.5970   20.3700 N   0  0  0  0  0  0  0  0  0  0  0  0
  -24.0770  -10.4200   20.9690 C   0  0  0  0  0  0  0  0  0  0  0  0
  -24.4990   -9.4300   21.8850 C   0  0  0  0  0  3  0  0  0  0  0  0
  -23.7440   -8.2510   22.0620 C   0  0  0  0  0  3  0  0  0  0  0  0
  -22.5530   -8.0530   21.3250 C   0  0  0  0  0  0  0  0  0  0  0  0
  -22.1480   -9.0320   20.3990 C   0  0  0  0  0  3  0  0  0  0  0  0
  -22.9040  -10.2030   20.2200 C   0  0  0  0  0  3  0  0  0  0  0  0
  -21.7690   -6.9290   21.4130 O   0  0  0  0  0  0  0  0  0  0  0  0
  -21.6600   -6.2170   22.5800 C   0  0  0  0  0  0  0  0  0  0  0  0
  -21.1430   -6.7950   23.7600 C   0  0  0  0  0  3  0  0  0  0  0  0
  -20.9840   -6.0080   24.9180 C   0  0  0  0  0  3  0  0  0  0  0  0
  -21.3310   -4.6440   24.8970 C   0  0  0  0  0  0  0  0  0  0  0  0
  -21.8420   -4.0650   23.7220 C   0  0  0  0  0  3  0  0  0  0  0  0
  -22.0020   -4.8500   22.5660 C   0  0  0  0  0  0  0  0  0  0  0  0
  -22.4740   -4.2830   21.4300 F   0  0  0  0  0  0  0  0  0  0  0  0
  -21.1710   -3.8860   26.0070 F   0  0  0  0  0  0  0  0  0  0  0  0
  -23.0740  -13.5400   21.3140 C   0  0  0  0  0  0  0  0  0  0  0  0
  -22.3930  -12.8320   22.2070 N   0  0  0  0  0  0  0  0  0  0  0  0
  -22.6350  -14.6010   20.8730 O   0  0  0  0  0  0  0  0  0  0  0  0
  -22.7650  -11.9730   22.5870 H   0  0  0  0  0  0  0  0  0  0  0  0
  -21.4860  -13.1530   22.5170 H   0  0  0  0  0  0  0  0  0  0  0  0
  -25.6950  -15.1510   20.3690 N   0  0  0  0  0  0  0  0  0  0  0  0
  -24.9700  -15.8260   20.5810 H   0  0  0  0  0  0  0  0  0  0  0  0
  -26.5470  -15.5810   20.0330 H   0  0  0  0  0  0  0  0  0  0  0  0
  -28.9050  -22.6050   20.3500 C   0  0  0  0  0  2  0  0  0  0  0  0
  -28.8990  -24.0710   19.7820 C   0  0  0  0  0  3  0  0  0  0  0  0
  -28.0560  -24.0660   18.6410 O   0  0  0  0  0  0  0  0  0  0  0  0
  -27.1650  -23.9090   18.9350 H   0  0  0  0  0  0  0  0  0  0  0  0
  -28.3710  -25.1620   20.7760 C   0  0  0  0  0  2  0  0  0  0  0  0
  -28.5540  -26.5470   20.3740 O   0  0  0  0  0  0  0  0  0  0  0  0
  -24.4890  -31.6980   23.2220 C   0  0  0  0  0  0  0  0  0  0  0  0
  -27.3960  -27.3020   20.2940 C   0  0  0  0  0  0  0  0  0  0  0  0
  -23.4080  -30.2670   21.5210 C   0  0  0  0  0  3  0  0  0  0  0  0
  -24.9730  -28.7710   20.1720 C   0  0  0  0  0  0  0  0  0  0  0  0
  -25.9320  -30.6870   21.4540 C   0  0  0  0  0  2  0  0  0  0  0  0
  -26.0890  -29.3180   20.8180 C   0  0  0  0  0  0  0  0  0  0  0  0
  -27.3060  -28.5940   20.8710 C   0  0  0  0  0  3  0  0  0  0  0  0
  -26.2660  -26.7830   19.6280 C   0  0  0  0  0  3  0  0  0  0  0  0
  -25.0580  -27.5040   19.5700 C   0  0  0  0  0  3  0  0  0  0  0  0
  -23.7060  -29.5970   20.1520 C   0  0  0  0  0  2  0  0  0  0  0  0
  -24.6250  -30.9000   22.1240 N   0  0  0  0  0  0  0  0  0  0  0  0
  -23.3740  -31.9390   23.7060 O   0  0  0  0  0  0  0  0  0  0  0  0
  -22.7350  -29.2270   22.4460 C   0  0  0  0  0  0  0  0  0  0  0  0
  -21.4210  -29.0180   22.2600 N   0  0  0  0  0  0  0  0  0  0  0  0
  -23.3940  -28.6120   23.2880 O   0  0  0  0  0  0  0  0  0  0  0  0
  -20.9480  -29.5700   21.5580 H   0  0  0  0  0  0  0  0  0  0  0  0
  -18.0440  -27.7910   22.6470 C   0  0  0  0  0  0  0  0  0  0  0  0
  -20.5920  -28.0580   22.9900 C   0  0  0  0  0  3  0  0  0  0  0  0
  -20.7180  -26.6420   22.3850 C   0  0  0  0  0  2  0  0  0  0  0  0
  -19.6430  -26.3350   21.3360 C   0  0  0  0  0  2  0  0  0  0  0  0
  -18.2460  -26.4580   21.9480 C   0  0  0  0  0  2  0  0  0  0  0  0
  -19.1460  -28.5500   23.1230 C   0  0  0  0  0  0  0  0  0  0  0  0
  -18.9050  -29.7990   23.7350 C   0  0  0  0  0  3  0  0  0  0  0  0
  -17.5930  -30.2900   23.8780 C   0  0  0  0  0  3  0  0  0  0  0  0
  -16.5050  -29.5280   23.4180 C   0  0  0  0  0  3  0  0  0  0  0  0
  -16.7310  -28.2810   22.8100 C   0  0  0  0  0  3  0  0  0  0  0  0
  -25.7240  -32.3640   23.9060 C   0  0  0  0  0  3  0  0  0  0  0  0
  -25.3790  -33.7670   24.1720 N   0  0  0  0  0  0  0  0  0  0  0  0
  -25.7320  -34.7980   23.3930 C   0  0  0  0  0  0  0  0  0  0  0  0
  -26.4510  -34.6690   22.3990 O   0  0  0  0  0  0  0  0  0  0  0  0
  -24.7460  -33.9390   24.9400 H   0  0  0  0  0  0  0  0  0  0  0  0
  -23.9840  -36.5390   22.9030 C   0  0  0  0  0  1  0  0  0  0  0  0
  -25.2010  -36.1920   23.7760 C   0  0  0  0  0  3  0  0  0  0  0  0
  -27.2780  -37.1610   24.6580 C   0  0  0  0  0  1  0  0  0  0  0  0
  -26.2180  -37.2610   23.6590 N   0  0  0  0  0  0  0  0  0  0  0  0
  -25.7880  -38.1790   23.7420 H   0  0  0  0  0  0  0  0  0  0  0  0
  -26.1640  -31.6360   25.2360 C   0  0  1  0  0  0  0  0  0  0  0  0
  -25.0040  -31.4010   26.2300 C   0  0  0  0  0  1  0  0  0  0  0  0
  -26.8020  -30.2640   24.9210 C   0  0  0  0  0  1  0  0  0  0  0  0
  -27.2470  -32.4730   25.9570 C   0  0  0  0  0  1  0  0  0  0  0  0
  1  6  1  0
  1 49  1  0
  2 10  1  0
  3  7  1  0
  3  4  1  0
  4  2  2  0
  5  2  1  0
  6  3  1  0
  6  5  1  0
  8  7  1  0
  9  7  1  0
 10 19  1  0
 11 19  1  0
 12 17  1  0
 13 14  1  0
 13 12  1  0
 15 14  1  0
 15 24  1  0
 15 16  1  0
 17 11  1  0
 17 16  1  0
 18 11  2  0
 19 20  1  0
 21 22  2  0
 22 41  1  0
 23 22  1  0
 23 26  1  0
 24 25  1  0
 24 21  1  0
 25 23  2  0
 26 27  1  0
 27 28  2  0
 29 32  1  0
 29 28  1  0
 30 29  2  0
 31 30  1  0
 31 26  2  0
 32 33  1  0
 33 34  1  0
 34 35  2  0
 36 35  1  0
 36 40  1  0
 37 36  2  0
 38 33  2  0
 38 37  1  0
 39 38  1  0
 41 42  1  0
 42 45  1  0
 42 44  1  0
 43 41  2  0
 46 21  1  0
 46 47  1  0
 48 46  1  0
 50 49  1  0
 50 53  1  0
 51 52  1  0
 51 50  1  0
 54 53  1  0
 55 66  2  0
 56 54  1  0
 56 61  1  0
 57 65  1  0
 57 67  1  0
 58 60  1  0
 59 65  1  0
 60 61  2  0
 60 59  1  0
 62 56  2  0
 63 62  1  0
 63 58  2  0
 64 58  1  0
 64 57  1  0
 65 55  1  0
 67 69  2  0
 68 67  1  0
 70 68  1  0
 71 80  2  0
 71 76  1  0
 72 68  1  0
 72 76  1  0
 73 72  1  0
 74 75  1  0
 74 73  1  0
 75 71  1  0
 76 77  2  0
 77 78  1  0
 79 78  2  0
 80 79  1  0
 81 55  1  0
 81 82  1  0
 81 91  1  0
 82 85  1  0
 83 87  1  0
 83 82  1  0
 84 83  2  0
 87 86  1  0
 89 90  1  0
 89 87  1  0
 89 88  1  0
 91 94  1  1
 91 92  1  0
 93 91  1  0
M  ISO  4  11 100  19 100  53 101  54 101
M  END
>  <TORSDO>  (46) 
F 22

>  <SCORE>  (46) 
-12.940

>  <name>  (46) 
45

>  <ligand_id>  (46) 
45

>  <original_smiles>  (46) 
[H]OC([H])(C([H])([H])Oc1c([H])c([H])c2c(c1[H])C([H])([H])N(C(=O)C([H])(N([H])C(=O)C([H])(N([H])C([H])([H])[H])C([H])([H])[H])C(C([H])([H])[H])(C([H])([H])[H])C([H])([H])[H])C([H])(C(=O)N([H])C1([H])c3c([H])c([H])c([H])c([H])c3C([H])([H])C([H])([H])C1([H])[H])C2([H])[H])C([H])([H])C([H])([H])n1nc(C([H])([H])N([H])C(=O)N2C([H])([H])C([H])([H])C([H])([H])C([H])(n3nc(-c4c([H])c([H])c(Oc5c([H])c([H])c(F)c([H])c5F)c([H])c4[H])c(C(=O)N([H])[H])c3N([H])[H])C2([H])[H])nc1N([H])[H]

>  <smiles>  (46) 
[H]OC([H])(C([H])([H])Oc1c([H])c([H])c2c(c1[H])C([H])([H])N(C(=O)C([H])(N([H])C(=O)C([H])(N([H])C([H])([H])[H])C([H])([H])[H])C(C([H])([H])[H])(C([H])([H])[H])C([H])([H])[H])C([H])(C(=O)N([H])C1([H])c3c([H])c([H])c([H])c([H])c3C([H])([H])C([H])([H])C1([H])[H])C2([H])[H])C([H])([H])C([H])([H])n1nc(C([H])([H])N([H])C(=O)N2C([H])([H])C([H])([H])C([H])([H])C([H])(n3nc(-c4c([H])c([H])c(Oc5c([H])c([H])c(F)c([H])c5F)c([H])c4[H])c(C(=O)N([H])[H])c3N([H])[H])C2([H])[H])nc1N([H])[H]

$$$$
46:0:0
     RDKit          3D

 94102  0  0  1  0  0  0  0  0999 V2000
  -30.6090  -14.6990   20.4240 C   0  0  0  0  0  0  0  0  0  0  0  0
  -30.4330  -12.4500   19.3590 C   0  0  0  0  0  2  0  0  0  0  0  0
  -29.5050  -12.5930   18.1290 C   0  0  0  0  0  2  0  0  0  0  0  0
  -28.0220  -12.4480   18.5340 C   0  0  0  0  0  2  0  0  0  0  0  0
  -27.6600  -13.2990   19.7810 C   0  0  0  0  0  3  0  0  0  0  0  0
  -28.7000  -13.1070   20.9070 C   0  0  0  0  0  2  0  0  0  0  0  0
  -30.0150  -13.4600   20.3540 N   0  0  0  0  0  0  0  0  0  0  0  0
  -31.7730  -14.8540   20.0360 O   0  0  0  0  0  0  0  0  0  0  0  0
  -29.6930  -19.3030   21.4570 C   0  0  0  0  0  3  0  0  0  0  0  0
  -29.2810  -19.8860   20.2270 C   0  0  0  0  0  0  0  0  0  0  0  0
  -29.1300  -18.8980   19.2220 C   0  0  0  0  0  0  0  0  0  0  0  0
  -29.7810  -17.1300   20.5810 C   0  0  0  0  0  0  0  0  0  0  0  0
  -29.9170  -17.9610   21.6260 N   0  0  0  0  0  0  0  0  0  0  0  0
  -29.3600  -17.5710   19.3870 N   0  0  0  0  0  0  0  0  0  0  0  0
  -28.6710  -19.2860   17.9690 N   0  0  0  0  0  0  0  0  0  0  0  0
  -29.7990  -15.7380   20.8290 N   0  0  0  0  0  0  0  0  0  0  0  0
  -28.8350  -20.2510   17.7230 H   0  0  0  0  0  0  0  0  0  0  0  0
  -28.8050  -18.6380   17.2060 H   0  0  0  0  0  0  0  0  0  0  0  0
  -28.9350  -15.4080   21.2250 H   0  0  0  0  0  0  0  0  0  0  0  0
  -25.2660  -13.9270   20.4650 C   0  0  0  0  0  0  0  0  0  0  0  0
  -24.1860  -13.1690   20.8290 C   0  0  0  0  0  0  0  0  0  0  0  0
  -24.6330  -11.8120   20.8110 C   0  0  0  0  0  0  0  0  0  0  0  0
  -26.3020  -13.0340   20.2480 N   0  0  0  0  0  0  0  0  0  0  0  0
  -25.9260  -11.7570   20.5150 N   0  0  0  0  0  0  0  0  0  0  0  0
  -23.8920  -10.5590   21.0020 C   0  0  0  0  0  0  0  0  0  0  0  0
  -24.3050   -9.5930   21.9470 C   0  0  0  0  0  3  0  0  0  0  0  0
  -23.5650   -8.4040   22.1240 C   0  0  0  0  0  3  0  0  0  0  0  0
  -22.3980   -8.1740   21.3590 C   0  0  0  0  0  0  0  0  0  0  0  0
  -22.0030   -9.1290   20.4070 C   0  0  0  0  0  3  0  0  0  0  0  0
  -22.7420  -10.3090   20.2260 C   0  0  0  0  0  3  0  0  0  0  0  0
  -21.6290   -7.0380   21.4470 O   0  0  0  0  0  0  0  0  0  0  0  0
  -21.5600   -6.3040   22.6030 C   0  0  0  0  0  0  0  0  0  0  0  0
  -21.1180   -6.8670   23.8200 C   0  0  0  0  0  3  0  0  0  0  0  0
  -20.9970   -6.0580   24.9670 C   0  0  0  0  0  3  0  0  0  0  0  0
  -21.3050   -4.6860   24.8970 C   0  0  0  0  0  0  0  0  0  0  0  0
  -21.7380   -4.1220   23.6830 C   0  0  0  0  0  3  0  0  0  0  0  0
  -21.8600   -4.9280   22.5390 C   0  0  0  0  0  0  0  0  0  0  0  0
  -22.2600   -4.3750   21.3680 F   0  0  0  0  0  0  0  0  0  0  0  0
  -21.1810   -3.9050   25.9950 F   0  0  0  0  0  0  0  0  0  0  0  0
  -22.7910  -13.6650   21.0790 C   0  0  0  0  0  0  0  0  0  0  0  0
  -22.0430  -12.9820   21.9390 N   0  0  0  0  0  0  0  0  0  0  0  0
  -22.3730  -14.6930   20.5480 O   0  0  0  0  0  0  0  0  0  0  0  0
  -22.3940  -12.1540   22.3980 H   0  0  0  0  0  0  0  0  0  0  0  0
  -21.1040  -13.2940   22.1430 H   0  0  0  0  0  0  0  0  0  0  0  0
  -25.4480  -15.2920   20.2750 N   0  0  0  0  0  0  0  0  0  0  0  0
  -24.6750  -15.9450   20.3460 H   0  0  0  0  0  0  0  0  0  0  0  0
  -26.2780  -15.7060   19.8710 H   0  0  0  0  0  0  0  0  0  0  0  0
  -28.9860  -21.2720   19.9200 N   0  0  0  0  0  0  0  0  0  0  0  0
  -28.4570  -21.3840   19.0570 H   0  0  0  0  0  0  0  0  0  0  0  0
  -30.4660  -22.6760   21.3570 C   0  0  0  0  0  1  0  0  0  0  0  0
  -29.0510  -22.5060   20.7720 C   0  0  0  0  0  3  0  0  0  0  0  0
  -28.6360  -23.8630   20.0080 C   0  0  0  0  0  2  0  0  0  0  0  0
  -28.3390  -25.1880   20.8530 C   0  0  0  0  0  2  0  0  0  0  0  0
  -28.4410  -26.5280   20.2310 O   0  0  0  0  0  0  0  0  0  0  0  0
  -24.6160  -31.8680   23.2320 C   0  0  0  0  0  0  0  0  0  0  0  0
  -27.3100  -27.3470   20.2230 C   0  0  0  0  0  0  0  0  0  0  0  0
  -23.4470  -30.4610   21.5730 C   0  0  0  0  0  3  0  0  0  0  0  0
  -24.9290  -28.9160   20.1730 C   0  0  0  0  0  0  0  0  0  0  0  0
  -25.9820  -30.8080   21.4180 C   0  0  0  0  0  2  0  0  0  0  0  0
  -26.0840  -29.4300   20.7780 C   0  0  0  0  0  0  0  0  0  0  0  0
  -27.2820  -28.6570   20.7900 C   0  0  0  0  0  3  0  0  0  0  0  0
  -26.1350  -26.8750   19.6040 C   0  0  0  0  0  3  0  0  0  0  0  0
  -24.9550  -27.6440   19.5780 C   0  0  0  0  0  3  0  0  0  0  0  0
  -23.6850  -29.7820   20.1980 C   0  0  0  0  0  2  0  0  0  0  0  0
  -24.7010  -31.0630   22.1330 N   0  0  0  0  0  0  0  0  0  0  0  0
  -23.5240  -32.1340   23.7550 O   0  0  0  0  0  0  0  0  0  0  0  0
  -22.7800  -29.4390   22.5250 C   0  0  0  0  0  0  0  0  0  0  0  0
  -21.4530  -29.2710   22.3970 N   0  0  0  0  0  0  0  0  0  0  0  0
  -23.4560  -28.8010   23.3370 O   0  0  0  0  0  0  0  0  0  0  0  0
  -20.9690  -29.8370   21.7150 H   0  0  0  0  0  0  0  0  0  0  0  0
  -18.0660  -28.1030   22.9010 C   0  0  0  0  0  0  0  0  0  0  0  0
  -20.6290  -28.3290   23.1580 C   0  0  0  0  0  3  0  0  0  0  0  0
  -20.7110  -26.9060   22.5580 C   0  0  0  0  0  2  0  0  0  0  0  0
  -19.5980  -26.6120   21.5470 C   0  0  0  0  0  2  0  0  0  0  0  0
  -18.2230  -26.7640   22.2030 C   0  0  0  0  0  2  0  0  0  0  0  0
  -19.1960  -28.8450   23.3360 C   0  0  0  0  0  0  0  0  0  0  0  0
  -18.9960  -30.1020   23.9500 C   0  0  0  0  0  3  0  0  0  0  0  0
  -17.6980  -30.6140   24.1340 C   0  0  0  0  0  3  0  0  0  0  0  0
  -16.5820  -29.8680   23.7140 C   0  0  0  0  0  3  0  0  0  0  0  0
  -16.7670  -28.6150   23.1030 C   0  0  0  0  0  3  0  0  0  0  0  0
  -25.8860  -32.5090   23.8740 C   0  0  0  0  0  3  0  0  0  0  0  0
  -26.3750  -31.7530   25.1700 C   0  0  1  0  0  0  0  0  0  0  0  0
  -25.2600  -31.5290   26.2190 C   0  0  0  0  0  1  0  0  0  0  0  0
  -26.9670  -30.3730   24.8040 C   0  0  0  0  0  1  0  0  0  0  0  0
  -27.5110  -32.5560   25.8460 C   0  0  0  0  0  1  0  0  0  0  0  0
  -25.5670  -33.9090   24.1840 N   0  0  0  0  0  0  0  0  0  0  0  0
  -25.9110  -34.9570   23.4220 C   0  0  0  0  0  0  0  0  0  0  0  0
  -26.6000  -34.8450   22.4050 O   0  0  0  0  0  0  0  0  0  0  0  0
  -24.9600  -34.0670   24.9740 H   0  0  0  0  0  0  0  0  0  0  0  0
  -24.1920  -36.7470   23.0140 C   0  0  0  0  0  1  0  0  0  0  0  0
  -25.4130  -36.3490   23.8590 C   0  0  0  0  0  3  0  0  0  0  0  0
  -27.5240  -37.2420   24.7380 C   0  0  0  0  0  1  0  0  0  0  0  0
  -26.4480  -37.4010   23.7650 N   0  0  0  0  0  0  0  0  0  0  0  0
  -26.0380  -38.3230   23.8920 H   0  0  0  0  0  0  0  0  0  0  0  0
  1 16  1  0
  2  7  1  0
  3  4  1  0
  3  2  1  0
  5  4  1  0
  5 23  1  0
  5  6  1  0
  7  1  1  0
  7  6  1  0
  8  1  2  0
  9 13  1  0
 10  9  2  0
 11 14  2  0
 11 10  1  0
 12 16  1  0
 12 13  2  0
 14 12  1  0
 15 11  1  0
 16 19  1  0
 17 15  1  0
 18 15  1  0
 20 21  2  0
 21 40  1  0
 22 21  1  0
 22 25  1  0
 23 20  1  0
 23 24  1  0
 24 22  2  0
 25 26  1  0
 26 27  2  0
 28 31  1  0
 28 27  1  0
 29 28  2  0
 30 29  1  0
 30 25  2  0
 31 32  1  0
 32 33  1  0
 33 34  2  0
 35 34  1  0
 35 39  1  0
 36 35  2  0
 37 32  2  0
 37 36  1  0
 38 37  1  0
 40 41  1  0
 41 44  1  0
 41 43  1  0
 42 40  2  0
 45 46  1  0
 45 20  1  0
 47 45  1  0
 48 10  1  0
 48 51  1  0
 49 48  1  0
 51 50  1  0
 52 51  1  0
 52 53  1  0
 54 53  1  0
 55 66  2  0
 56 54  1  0
 56 61  1  0
 57 65  1  0
 57 67  1  0
 58 64  1  0
 58 60  1  0
 59 65  1  0
 60 61  2  0
 60 59  1  0
 62 56  2  0
 63 62  1  0
 63 58  2  0
 64 57  1  0
 65 55  1  0
 67 69  2  0
 68 67  1  0
 70 68  1  0
 71 80  2  0
 71 76  1  0
 72 68  1  0
 72 76  1  0
 73 72  1  0
 74 75  1  0
 74 73  1  0
 75 71  1  0
 76 77  2  0
 77 78  1  0
 79 78  2  0
 80 79  1  0
 81 55  1  0
 81 86  1  0
 81 82  1  0
 82 85  1  1
 82 83  1  0
 84 82  1  0
 86 89  1  0
 87 91  1  0
 87 86  1  0
 88 87  2  0
 91 90  1  0
 93 91  1  0
 93 94  1  0
 93 92  1  0
M  ISO  4   1 100  16 100  53 101  54 101
M  END
>  <TORSDO>  (47) 
F 19

>  <SCORE>  (47) 
-13.942

>  <name>  (47) 
46

>  <ligand_id>  (47) 
46

>  <original_smiles>  (47) 
[H]c1nc(N([H])C(=O)N2C([H])([H])C([H])([H])C([H])([H])C([H])(n3nc(-c4c([H])c([H])c(Oc5c([H])c([H])c(F)c([H])c5F)c([H])c4[H])c(C(=O)N([H])[H])c3N([H])[H])C2([H])[H])nc(N([H])[H])c1N([H])C([H])(C([H])([H])[H])C([H])([H])C([H])([H])Oc1c([H])c([H])c2c(c1[H])C([H])([H])N(C(=O)C([H])(N([H])C(=O)C([H])(N([H])C([H])([H])[H])C([H])([H])[H])C(C([H])([H])[H])(C([H])([H])[H])C([H])([H])[H])C([H])(C(=O)N([H])C1([H])c3c([H])c([H])c([H])c([H])c3C([H])([H])C([H])([H])C1([H])[H])C2([H])[H]

>  <smiles>  (47) 
[H]c1nc(N([H])C(=O)N2C([H])([H])C([H])([H])C([H])([H])C([H])(n3nc(-c4c([H])c([H])c(Oc5c([H])c([H])c(F)c([H])c5F)c([H])c4[H])c(C(=O)N([H])[H])c3N([H])[H])C2([H])[H])nc(N([H])[H])c1N([H])C([H])(C([H])([H])[H])C([H])([H])C([H])([H])Oc1c([H])c([H])c2c(c1[H])C([H])([H])N(C(=O)C([H])(N([H])C(=O)C([H])(N([H])C([H])([H])[H])C([H])([H])[H])C(C([H])([H])[H])(C([H])([H])[H])C([H])([H])[H])C([H])(C(=O)N([H])C1([H])c3c([H])c([H])c([H])c([H])c3C([H])([H])C([H])([H])C1([H])[H])C2([H])[H]

$$$$
47:0:0
     RDKit          3D

 92100  0  0  1  0  0  0  0  0999 V2000
  -27.4450  -21.3530   20.8540 C   0  0  0  0  0  1  0  0  0  0  0  0
  -28.9140  -21.6310   20.4930 C   0  0  0  0  0  3  0  0  0  0  0  0
  -29.4370  -20.5660   19.6240 N   0  0  0  0  0  0  0  0  0  0  0  0
  -29.2430  -20.7330   18.6400 H   0  0  0  0  0  0  0  0  0  0  0  0
  -31.0410  -14.6720   20.5080 C   0  0  0  0  0  0  0  0  0  0  0  0
  -30.7090  -12.5550   19.2640 C   0  0  0  0  0  2  0  0  0  0  0  0
  -29.7810  -12.7790   18.0550 C   0  0  0  0  0  2  0  0  0  0  0  0
  -28.3060  -12.6320   18.4690 C   0  0  0  0  0  2  0  0  0  0  0  0
  -27.9600  -13.4480   19.7420 C   0  0  0  0  0  3  0  0  0  0  0  0
  -29.0010  -13.2200   20.8590 C   0  0  0  0  0  2  0  0  0  0  0  0
  -30.3290  -13.5260   20.3040 N   0  0  0  0  0  0  0  0  0  0  0  0
  -32.1720  -14.8340   20.0410 O   0  0  0  0  0  0  0  0  0  0  0  0
  -28.6370  -18.2130   19.3970 C   0  0  0  0  0  0  0  0  0  0  0  0
  -29.4230  -19.1950   19.9660 C   0  0  0  0  0  0  0  0  0  0  0  0
  -29.9590  -16.8650   20.6870 C   0  0  0  0  0  0  0  0  0  0  0  0
  -27.5280  -18.4320   18.4130 C   0  0  0  0  0  1  0  0  0  0  0  0
  -28.9500  -16.9030   19.8080 N   0  0  0  0  0  0  0  0  0  0  0  0
  -30.4700  -15.6490   21.2410 N   0  0  0  0  0  0  0  0  0  0  0  0
  -30.5410  -18.4860   21.1210 S   0  0  0  0  0  0  0  0  0  0  0  0
  -31.0750  -15.8670   22.0190 H   0  0  0  0  0  0  0  0  0  0  0  0
  -25.5560  -14.0630   20.4010 C   0  0  0  0  0  0  0  0  0  0  0  0
  -24.4790  -13.2940   20.7510 C   0  0  0  0  0  0  0  0  0  0  0  0
  -24.9390  -11.9420   20.7450 C   0  0  0  0  0  0  0  0  0  0  0  0
  -26.6030  -13.1770   20.2000 N   0  0  0  0  0  0  0  0  0  0  0  0
  -26.2350  -11.8970   20.4670 N   0  0  0  0  0  0  0  0  0  0  0  0
  -24.2090  -10.6810   20.9320 C   0  0  0  0  0  0  0  0  0  0  0  0
  -24.5890   -9.7470   21.9210 C   0  0  0  0  0  3  0  0  0  0  0  0
  -23.8620   -8.5490   22.0930 C   0  0  0  0  0  3  0  0  0  0  0  0
  -22.7400   -8.2760   21.2740 C   0  0  0  0  0  0  0  0  0  0  0  0
  -22.3790   -9.2000   20.2760 C   0  0  0  0  0  3  0  0  0  0  0  0
  -23.1080  -10.3890   20.1030 C   0  0  0  0  0  3  0  0  0  0  0  0
  -21.9890   -7.1290   21.3510 O   0  0  0  0  0  0  0  0  0  0  0  0
  -21.8250   -6.4550   22.5350 C   0  0  0  0  0  0  0  0  0  0  0  0
  -21.2050   -7.0550   23.6520 C   0  0  0  0  0  3  0  0  0  0  0  0
  -20.9910   -6.3040   24.8260 C   0  0  0  0  0  3  0  0  0  0  0  0
  -21.3900   -4.9550   24.8820 C   0  0  0  0  0  0  0  0  0  0  0  0
  -22.0020   -4.3550   23.7690 C   0  0  0  0  0  3  0  0  0  0  0  0
  -22.2170   -5.1030   22.5970 C   0  0  0  0  0  0  0  0  0  0  0  0
  -22.7880   -4.5130   21.5190 F   0  0  0  0  0  0  0  0  0  0  0  0
  -21.1770   -4.2320   26.0060 F   0  0  0  0  0  0  0  0  0  0  0  0
  -23.0760  -13.7730   20.9900 C   0  0  0  0  0  0  0  0  0  0  0  0
  -22.3330  -13.0850   21.8500 N   0  0  0  0  0  0  0  0  0  0  0  0
  -22.6480  -14.7920   20.4510 O   0  0  0  0  0  0  0  0  0  0  0  0
  -22.6930  -12.2580   22.3040 H   0  0  0  0  0  0  0  0  0  0  0  0
  -21.3910  -13.3880   22.0550 H   0  0  0  0  0  0  0  0  0  0  0  0
  -25.7340  -15.4330   20.2180 N   0  0  0  0  0  0  0  0  0  0  0  0
  -24.9840  -16.1060   20.3260 H   0  0  0  0  0  0  0  0  0  0  0  0
  -26.6210  -15.8590   19.9730 H   0  0  0  0  0  0  0  0  0  0  0  0
  -29.0850  -23.0150   19.7780 C   0  0  0  0  0  2  0  0  0  0  0  0
  -28.5800  -24.3080   20.4980 C   0  0  0  0  0  2  0  0  0  0  0  0
  -28.8920  -25.6190   19.7070 C   0  0  0  0  0  2  0  0  0  0  0  0
  -28.6800  -26.8620   20.4150 O   0  0  0  0  0  0  0  0  0  0  0  0
  -24.6250  -31.9360   23.3720 C   0  0  0  0  0  0  0  0  0  0  0  0
  -27.4800  -27.5540   20.3470 C   0  0  0  0  0  0  0  0  0  0  0  0
  -23.5180  -30.5330   21.6640 C   0  0  0  0  0  3  0  0  0  0  0  0
  -25.0570  -29.0390   20.2800 C   0  0  0  0  0  0  0  0  0  0  0  0
  -26.0450  -30.9340   21.5770 C   0  0  0  0  0  2  0  0  0  0  0  0
  -26.1820  -29.5710   20.9220 C   0  0  0  0  0  0  0  0  0  0  0  0
  -27.3910  -28.8340   20.9510 C   0  0  0  0  0  3  0  0  0  0  0  0
  -26.3250  -27.0360   19.7130 C   0  0  0  0  0  3  0  0  0  0  0  0
  -25.1250  -27.7730   19.6750 C   0  0  0  0  0  3  0  0  0  0  0  0
  -23.7980  -29.8790   20.2850 C   0  0  0  0  0  2  0  0  0  0  0  0
  -24.7450  -31.1490   22.2640 N   0  0  0  0  0  0  0  0  0  0  0  0
  -23.5160  -32.1810   23.8670 O   0  0  0  0  0  0  0  0  0  0  0  0
  -22.8460  -29.4870   22.5830 C   0  0  0  0  0  0  0  0  0  0  0  0
  -21.5290  -29.2910   22.4070 N   0  0  0  0  0  0  0  0  0  0  0  0
  -23.5090  -28.8550   23.4100 O   0  0  0  0  0  0  0  0  0  0  0  0
  -21.0550  -29.8460   21.7090 H   0  0  0  0  0  0  0  0  0  0  0  0
  -18.1420  -28.0960   22.8180 C   0  0  0  0  0  0  0  0  0  0  0  0
  -20.6970  -28.3320   23.1340 C   0  0  0  0  0  3  0  0  0  0  0  0
  -20.7980  -26.9210   22.5110 C   0  0  0  0  0  2  0  0  0  0  0  0
  -19.7110  -26.6470   21.4660 C   0  0  0  0  0  2  0  0  0  0  0  0
  -18.3210  -26.7720   22.0970 C   0  0  0  0  0  2  0  0  0  0  0  0
  -19.2580  -28.8370   23.2890 C   0  0  0  0  0  0  0  0  0  0  0  0
  -19.0370  -30.0780   23.9260 C   0  0  0  0  0  3  0  0  0  0  0  0
  -17.7340  -30.5770   24.0980 C   0  0  0  0  0  3  0  0  0  0  0  0
  -16.6300  -29.8320   23.6450 C   0  0  0  0  0  3  0  0  0  0  0  0
  -16.8360  -28.5940   23.0110 C   0  0  0  0  0  3  0  0  0  0  0  0
  -25.8680  -32.5840   24.0540 C   0  0  0  0  0  3  0  0  0  0  0  0
  -26.3330  -31.8180   25.3540 C   0  0  1  0  0  0  0  0  0  0  0  0
  -25.1900  -31.5500   26.3600 C   0  0  0  0  0  1  0  0  0  0  0  0
  -26.9680  -30.4570   24.9850 C   0  0  0  0  0  1  0  0  0  0  0  0
  -27.4280  -32.6370   26.0780 C   0  0  0  0  0  1  0  0  0  0  0  0
  -25.5240  -33.9780   24.3690 N   0  0  0  0  0  0  0  0  0  0  0  0
  -25.8890  -35.0360   23.6320 C   0  0  0  0  0  0  0  0  0  0  0  0
  -26.6190  -34.9420   22.6410 O   0  0  0  0  0  0  0  0  0  0  0  0
  -24.8830  -34.1240   25.1340 H   0  0  0  0  0  0  0  0  0  0  0  0
  -24.1850  -36.8250   23.1600 C   0  0  0  0  0  1  0  0  0  0  0  0
  -25.3620  -36.4190   24.0630 C   0  0  0  0  0  3  0  0  0  0  0  0
  -27.4130  -37.3130   25.0750 C   0  0  0  0  0  1  0  0  0  0  0  0
  -26.3950  -37.4770   24.0400 N   0  0  0  0  0  0  0  0  0  0  0  0
  -25.9750  -38.3960   24.1530 H   0  0  0  0  0  0  0  0  0  0  0  0
  2  1  1  0
  3 14  1  0
  3  2  1  0
  4  3  1  0
  5 18  1  0
  6 11  1  0
  7  8  1  0
  7  6  1  0
  9  8  1  0
  9 24  1  0
  9 10  1  0
 11  5  1  0
 11 10  1  0
 12  5  2  0
 13 17  1  0
 13 14  2  0
 14 19  1  0
 15 19  1  0
 15 18  1  0
 16 13  1  0
 17 15  2  0
 18 20  1  0
 21 22  2  0
 22 41  1  0
 23 22  1  0
 23 26  1  0
 24 21  1  0
 24 25  1  0
 25 23  2  0
 26 27  1  0
 27 28  2  0
 29 32  1  0
 29 28  1  0
 30 29  2  0
 31 30  1  0
 31 26  2  0
 32 33  1  0
 33 38  2  0
 33 34  1  0
 34 35  2  0
 35 36  1  0
 36 40  1  0
 37 36  2  0
 38 37  1  0
 39 38  1  0
 41 42  1  0
 42 45  1  0
 42 44  1  0
 43 41  2  0
 46 47  1  0
 46 21  1  0
 48 46  1  0
 49  2  1  0
 49 50  1  0
 51 52  1  0
 51 50  1  0
 53 64  2  0
 54 52  1  0
 54 59  1  0
 55 63  1  0
 55 65  1  0
 56 62  1  0
 56 58  1  0
 57 63  1  0
 58 59  2  0
 58 57  1  0
 60 54  2  0
 61 60  1  0
 61 56  2  0
 62 55  1  0
 63 53  1  0
 65 67  2  0
 66 65  1  0
 68 66  1  0
 69 78  2  0
 69 74  1  0
 70 66  1  0
 70 74  1  0
 71 70  1  0
 72 73  1  0
 72 71  1  0
 73 69  1  0
 74 75  2  0
 75 76  1  0
 77 76  2  0
 78 77  1  0
 79 53  1  0
 79 84  1  0
 79 80  1  0
 80 83  1  1
 80 81  1  0
 82 80  1  0
 84 87  1  0
 85 89  1  0
 85 84  1  0
 86 85  2  0
 89 88  1  0
 91 89  1  0
 91 92  1  0
 91 90  1  0
M  ISO  4   5 100  18 100  51 101  52 101
M  END
>  <TORSDO>  (48) 
F 20

>  <SCORE>  (48) 
-13.347

>  <name>  (48) 
47

>  <ligand_id>  (48) 
47

>  <original_smiles>  (48) 
[H]c1c([H])c([H])c2c(c1[H])C([H])([H])C([H])([H])C([H])([H])C2([H])N([H])C(=O)C1([H])N(C(=O)C([H])(N([H])C(=O)C([H])(N([H])C([H])([H])[H])C([H])([H])[H])C(C([H])([H])[H])(C([H])([H])[H])C([H])([H])[H])C([H])([H])c2c([H])c(OC([H])([H])C([H])([H])C([H])([H])C([H])(N([H])c3sc(N([H])C(=O)N4C([H])([H])C([H])([H])C([H])([H])C([H])(n5nc(-c6c([H])c([H])c(Oc7c([H])c([H])c(F)c([H])c7F)c([H])c6[H])c(C(=O)N([H])[H])c5N([H])[H])C4([H])[H])nc3C([H])([H])[H])C([H])([H])[H])c([H])c([H])c2C1([H])[H]

>  <smiles>  (48) 
[H]c1c([H])c([H])c2c(c1[H])C([H])([H])C([H])([H])C([H])([H])C2([H])N([H])C(=O)C1([H])N(C(=O)C([H])(N([H])C(=O)C([H])(N([H])C([H])([H])[H])C([H])([H])[H])C(C([H])([H])[H])(C([H])([H])[H])C([H])([H])[H])C([H])([H])c2c([H])c(OC([H])([H])C([H])([H])C([H])([H])C([H])(N([H])c3sc(N([H])C(=O)N4C([H])([H])C([H])([H])C([H])([H])C([H])(n5nc(-c6c([H])c([H])c(Oc7c([H])c([H])c(F)c([H])c7F)c([H])c6[H])c(C(=O)N([H])[H])c5N([H])[H])C4([H])[H])nc3C([H])([H])[H])C([H])([H])[H])c([H])c([H])c2C1([H])[H]

$$$$
48:0:0
     RDKit          3D

 95103  0  0  1  0  0  0  0  0999 V2000
  -30.2710  -16.8050   18.5990 C   0  0  0  0  0  3  0  0  0  0  0  0
  -29.5890  -18.9630   18.1410 C   0  0  0  0  0  0  0  0  0  0  0  0
  -29.8540  -16.9000   19.9540 C   0  0  0  0  0  0  0  0  0  0  0  0
  -29.2100  -19.1570   19.5060 C   0  0  0  0  0  0  0  0  0  0  0  0
  -30.1410  -17.8070   17.7110 N   0  0  0  0  0  0  0  0  0  0  0  0
  -29.3450  -18.1130   20.4000 N   0  0  0  0  0  0  0  0  0  0  0  0
  -28.5730  -20.3750   19.8900 N   0  0  0  0  0  0  0  0  0  0  0  0
  -28.2240  -20.8810   19.0840 H   0  0  0  0  0  0  0  0  0  0  0  0
  -30.6310  -14.5580   20.4730 C   0  0  0  0  0  0  0  0  0  0  0  0
  -30.3710  -12.3500   19.4020 C   0  0  0  0  0  2  0  0  0  0  0  0
  -29.4570  -12.5420   18.1720 C   0  0  0  0  0  2  0  0  0  0  0  0
  -27.9730  -12.4120   18.5700 C   0  0  0  0  0  2  0  0  0  0  0  0
  -27.6130  -13.2470   19.8300 C   0  0  0  0  0  3  0  0  0  0  0  0
  -28.6530  -13.0560   20.9580 C   0  0  0  0  0  2  0  0  0  0  0  0
  -29.9790  -13.3590   20.4050 N   0  0  0  0  0  0  0  0  0  0  0  0
  -31.8100  -14.6690   20.1220 O   0  0  0  0  0  0  0  0  0  0  0  0
  -29.8760  -15.6690   20.7350 N   0  0  0  0  0  0  0  0  0  0  0  0
  -29.0470  -15.5040   21.2830 H   0  0  0  0  0  0  0  0  0  0  0  0
  -25.2090  -13.8570   20.4940 C   0  0  0  0  0  0  0  0  0  0  0  0
  -24.1340  -13.0900   20.8530 C   0  0  0  0  0  0  0  0  0  0  0  0
  -24.5950  -11.7370   20.8460 C   0  0  0  0  0  0  0  0  0  0  0  0
  -26.2550  -12.9720   20.2900 N   0  0  0  0  0  0  0  0  0  0  0  0
  -25.8910  -11.6930   20.5610 N   0  0  0  0  0  0  0  0  0  0  0  0
  -23.8620  -10.4780   21.0350 C   0  0  0  0  0  0  0  0  0  0  0  0
  -24.2790   -9.5150   21.9810 C   0  0  0  0  0  3  0  0  0  0  0  0
  -23.5470   -8.3220   22.1570 C   0  0  0  0  0  3  0  0  0  0  0  0
  -22.3840   -8.0820   21.3870 C   0  0  0  0  0  0  0  0  0  0  0  0
  -21.9870   -9.0330   20.4310 C   0  0  0  0  0  3  0  0  0  0  0  0
  -22.7200  -10.2170   20.2520 C   0  0  0  0  0  3  0  0  0  0  0  0
  -21.6240   -6.9400   21.4730 O   0  0  0  0  0  0  0  0  0  0  0  0
  -21.5600   -6.2030   22.6280 C   0  0  0  0  0  0  0  0  0  0  0  0
  -21.1240   -6.7650   23.8490 C   0  0  0  0  0  3  0  0  0  0  0  0
  -21.0070   -5.9540   24.9950 C   0  0  0  0  0  3  0  0  0  0  0  0
  -21.3150   -4.5830   24.9230 C   0  0  0  0  0  0  0  0  0  0  0  0
  -21.7450   -4.0200   23.7080 C   0  0  0  0  0  3  0  0  0  0  0  0
  -21.8630   -4.8270   22.5640 C   0  0  0  0  0  0  0  0  0  0  0  0
  -22.2570   -4.2760   21.3910 F   0  0  0  0  0  0  0  0  0  0  0  0
  -21.1960   -3.8010   26.0220 F   0  0  0  0  0  0  0  0  0  0  0  0
  -22.7330  -13.5710   21.0940 C   0  0  0  0  0  0  0  0  0  0  0  0
  -21.9860  -12.8860   21.9530 N   0  0  0  0  0  0  0  0  0  0  0  0
  -22.3070  -14.5920   20.5550 O   0  0  0  0  0  0  0  0  0  0  0  0
  -22.3410  -12.0600   22.4120 H   0  0  0  0  0  0  0  0  0  0  0  0
  -21.0470  -13.1930   22.1570 H   0  0  0  0  0  0  0  0  0  0  0  0
  -25.3770  -15.2250   20.3050 N   0  0  0  0  0  0  0  0  0  0  0  0
  -24.6050  -15.8770   20.3950 H   0  0  0  0  0  0  0  0  0  0  0  0
  -26.2290  -15.6670   19.9860 H   0  0  0  0  0  0  0  0  0  0  0  0
  -28.3200  -19.4590   16.0010 C   0  0  0  0  0  1  0  0  0  0  0  0
  -30.6520  -20.4190   16.3380 C   0  0  0  0  0  1  0  0  0  0  0  0
  -29.3450  -19.9810   17.0230 C   0  0  0  0  0  3  0  0  0  0  0  0
  -29.1480  -21.3180   20.8750 C   0  0  0  0  0  2  0  0  0  0  0  0
  -30.2850  -22.7610   19.0610 C   0  0  0  0  0  1  0  0  0  0  0  0
  -29.4760  -22.7930   20.3670 C   0  0  0  0  0  3  0  0  0  0  0  0
  -28.3440  -23.9120   20.3830 C   0  0  0  0  0  2  0  0  0  0  0  0
  -28.6710  -25.3140   19.7070 C   0  0  0  0  0  2  0  0  0  0  0  0
  -28.4650  -26.5720   20.4210 O   0  0  0  0  0  0  0  0  0  0  0  0
  -24.6110  -31.8760   23.2820 C   0  0  0  0  0  0  0  0  0  0  0  0
  -27.3000  -27.3300   20.3190 C   0  0  0  0  0  0  0  0  0  0  0  0
  -23.4370  -30.4520   21.6370 C   0  0  0  0  0  3  0  0  0  0  0  0
  -24.9150  -28.8890   20.2540 C   0  0  0  0  0  0  0  0  0  0  0  0
  -25.9710  -30.7900   21.4880 C   0  0  0  0  0  2  0  0  0  0  0  0
  -26.0640  -29.4050   20.8630 C   0  0  0  0  0  0  0  0  0  0  0  0
  -27.2540  -28.6320   20.8920 C   0  0  0  0  0  3  0  0  0  0  0  0
  -26.1280  -26.8430   19.6980 C   0  0  0  0  0  3  0  0  0  0  0  0
  -24.9460  -27.6100   19.6690 C   0  0  0  0  0  3  0  0  0  0  0  0
  -23.6730  -29.7550   20.2690 C   0  0  0  0  0  2  0  0  0  0  0  0
  -24.6910  -31.0580   22.1930 N   0  0  0  0  0  0  0  0  0  0  0  0
  -23.5200  -32.1550   23.7980 O   0  0  0  0  0  0  0  0  0  0  0  0
  -22.7680  -29.4450   22.6010 C   0  0  0  0  0  0  0  0  0  0  0  0
  -21.4450  -29.2600   22.4560 N   0  0  0  0  0  0  0  0  0  0  0  0
  -23.4360  -28.8330   23.4380 O   0  0  0  0  0  0  0  0  0  0  0  0
  -20.9660  -29.8060   21.7520 H   0  0  0  0  0  0  0  0  0  0  0  0
  -18.0640  -28.0680   22.9170 C   0  0  0  0  0  0  0  0  0  0  0  0
  -20.6170  -28.3320   23.2250 C   0  0  0  0  0  3  0  0  0  0  0  0
  -20.7290  -26.8940   22.6660 C   0  0  0  0  0  2  0  0  0  0  0  0
  -19.6430  -26.5590   21.6390 C   0  0  0  0  0  2  0  0  0  0  0  0
  -18.2510  -26.7110   22.2600 C   0  0  0  0  0  2  0  0  0  0  0  0
  -19.1750  -28.8360   23.3560 C   0  0  0  0  0  0  0  0  0  0  0  0
  -18.9470  -30.1050   23.9300 C   0  0  0  0  0  3  0  0  0  0  0  0
  -17.6400  -30.6080   24.0700 C   0  0  0  0  0  3  0  0  0  0  0  0
  -16.5420  -29.8380   23.6470 C   0  0  0  0  0  3  0  0  0  0  0  0
  -16.7550  -28.5690   23.0770 C   0  0  0  0  0  3  0  0  0  0  0  0
  -25.8840  -32.5190   23.9160 C   0  0  0  0  0  3  0  0  0  0  0  0
  -25.5680  -33.9220   24.2170 N   0  0  0  0  0  0  0  0  0  0  0  0
  -25.9160  -34.9640   23.4490 C   0  0  0  0  0  0  0  0  0  0  0  0
  -26.6070  -34.8440   22.4340 O   0  0  0  0  0  0  0  0  0  0  0  0
  -24.9560  -34.0890   25.0020 H   0  0  0  0  0  0  0  0  0  0  0  0
  -24.1970  -36.7510   23.0310 C   0  0  0  0  0  1  0  0  0  0  0  0
  -25.4200  -36.3580   23.8750 C   0  0  0  0  0  3  0  0  0  0  0  0
  -27.5360  -37.2560   24.7400 C   0  0  0  0  0  1  0  0  0  0  0  0
  -26.4550  -37.4090   23.7700 N   0  0  0  0  0  0  0  0  0  0  0  0
  -26.0460  -38.3320   23.8930 H   0  0  0  0  0  0  0  0  0  0  0  0
  -26.3790  -31.7700   25.2150 C   0  0  1  0  0  0  0  0  0  0  0  0
  -25.2670  -31.5490   26.2660 C   0  0  0  0  0  1  0  0  0  0  0  0
  -26.9700  -30.3870   24.8570 C   0  0  0  0  0  1  0  0  0  0  0  0
  -27.5180  -32.5770   25.8830 C   0  0  0  0  0  1  0  0  0  0  0  0
  1  3  1  0
  2  4  2  0
  3  6  2  0
  3 17  1  0
  4  7  1  0
  4  6  1  0
  5  2  1  0
  5  1  2  0
  7 50  1  0
  8  7  1  0
  9 17  1  0
 10 15  1  0
 11 12  1  0
 11 10  1  0
 13 12  1  0
 13 22  1  0
 13 14  1  0
 15  9  1  0
 15 14  1  0
 16  9  2  0
 17 18  1  0
 19 20  2  0
 20 39  1  0
 21 20  1  0
 21 24  1  0
 22 19  1  0
 22 23  1  0
 23 21  2  0
 24 25  1  0
 25 26  2  0
 27 30  1  0
 27 26  1  0
 28 27  2  0
 29 28  1  0
 29 24  2  0
 30 31  1  0
 31 32  1  0
 32 33  2  0
 34 33  1  0
 34 38  1  0
 35 34  2  0
 36 31  2  0
 36 35  1  0
 37 36  1  0
 39 40  1  0
 40 43  1  0
 40 42  1  0
 41 39  2  0
 44 45  1  0
 44 19  1  0
 46 44  1  0
 47 49  1  0
 48 49  1  0
 49  2  1  0
 52 51  1  0
 52 53  1  0
 52 50  1  0
 54 53  1  0
 54 55  1  0
 56 67  2  0
 57 55  1  0
 57 62  1  0
 58 66  1  0
 58 68  1  0
 59 65  1  0
 59 61  1  0
 60 66  1  0
 61 62  2  0
 61 60  1  0
 63 57  2  0
 64 63  1  0
 64 59  2  0
 65 58  1  0
 66 56  1  0
 68 70  2  0
 69 68  1  0
 71 69  1  0
 72 81  2  0
 72 77  1  0
 73 69  1  0
 73 77  1  0
 74 73  1  0
 75 76  1  0
 75 74  1  0
 76 72  1  0
 77 78  2  0
 78 79  1  0
 80 79  2  0
 81 80  1  0
 82 56  1  0
 82 83  1  0
 82 92  1  0
 83 86  1  0
 84 88  1  0
 84 83  1  0
 85 84  2  0
 88 87  1  0
 90 88  1  0
 90 91  1  0
 90 89  1  0
 92 95  1  1
 92 93  1  0
 94 92  1  0
M  ISO  4   9 100  17 100  54 101  55 101
M  END
>  <TORSDO>  (49) 
F 21

>  <SCORE>  (49) 
-13.460

>  <name>  (49) 
48

>  <ligand_id>  (49) 
48

>  <original_smiles>  (49) 
[H]c1nc(C([H])(C([H])([H])[H])C([H])([H])[H])c(N([H])C([H])([H])C([H])(C([H])([H])[H])C([H])([H])C([H])([H])Oc2c([H])c([H])c3c(c2[H])C([H])([H])N(C(=O)C([H])(N([H])C(=O)C([H])(N([H])C([H])([H])[H])C([H])([H])[H])C(C([H])([H])[H])(C([H])([H])[H])C([H])([H])[H])C([H])(C(=O)N([H])C2([H])c4c([H])c([H])c([H])c([H])c4C([H])([H])C([H])([H])C2([H])[H])C3([H])[H])nc1N([H])C(=O)N1C([H])([H])C([H])([H])C([H])([H])C([H])(n2nc(-c3c([H])c([H])c(Oc4c([H])c([H])c(F)c([H])c4F)c([H])c3[H])c(C(=O)N([H])[H])c2N([H])[H])C1([H])[H]

>  <smiles>  (49) 
[H]c1nc(C([H])(C([H])([H])[H])C([H])([H])[H])c(N([H])C([H])([H])C([H])(C([H])([H])[H])C([H])([H])C([H])([H])Oc2c([H])c([H])c3c(c2[H])C([H])([H])N(C(=O)C([H])(N([H])C(=O)C([H])(N([H])C([H])([H])[H])C([H])([H])[H])C(C([H])([H])[H])(C([H])([H])[H])C([H])([H])[H])C([H])(C(=O)N([H])C2([H])c4c([H])c([H])c([H])c([H])c4C([H])([H])C([H])([H])C2([H])[H])C3([H])[H])nc1N([H])C(=O)N1C([H])([H])C([H])([H])C([H])([H])C([H])(n2nc(-c3c([H])c([H])c(Oc4c([H])c([H])c(F)c([H])c4F)c([H])c3[H])c(C(=O)N([H])[H])c2N([H])[H])C1([H])[H]

$$$$
49:0:0
     RDKit          3D

 94102  0  0  1  0  0  0  0  0999 V2000
  -29.6210  -21.9870   21.0160 N   0  0  0  0  0  4  0  0  0  0  0  0
  -28.7560  -21.5640   21.3120 H   0  0  0  0  0  0  0  0  0  0  0  0
  -29.6340  -21.9920   20.0110 H   0  0  0  0  0  0  0  0  0  0  0  0
  -30.7230  -21.1080   21.4810 C   0  0  0  0  0  2  0  0  0  0  0  0
  -30.8230  -14.5430   20.0520 C   0  0  0  0  0  0  0  0  0  0  0  0
  -30.4710  -12.4120   18.8560 C   0  0  0  0  0  2  0  0  0  0  0  0
  -29.4530  -12.6410   17.7190 C   0  0  0  0  0  2  0  0  0  0  0  0
  -28.0060  -12.4950   18.2330 C   0  0  0  0  0  2  0  0  0  0  0  0
  -27.7500  -13.2960   19.5390 C   0  0  0  0  0  3  0  0  0  0  0  0
  -28.8700  -13.0300   20.5700 C   0  0  0  0  0  2  0  0  0  0  0  0
  -30.1590  -13.3610   19.9350 N   0  0  0  0  0  0  0  0  0  0  0  0
  -31.9110  -14.7460   19.5020 O   0  0  0  0  0  0  0  0  0  0  0  0
  -31.5670  -18.8830   20.5110 C   0  0  0  0  0  3  0  0  0  0  0  0
  -29.3290  -17.6730   21.3900 C   0  0  0  0  0  3  0  0  0  0  0  0
  -30.5430  -19.6240   21.1500 C   0  0  0  0  0  0  0  0  0  0  0  0
  -30.3620  -16.9080   20.7840 C   0  0  0  0  0  0  0  0  0  0  0  0
  -29.4060  -19.0180   21.5740 N   0  0  0  0  0  0  0  0  0  0  0  0
  -31.4770  -17.5400   20.3280 N   0  0  0  0  0  0  0  0  0  0  0  0
  -30.1390  -15.5010   20.7090 N   0  0  0  0  0  0  0  0  0  0  0  0
  -29.2730  -15.1840   21.1140 H   0  0  0  0  0  0  0  0  0  0  0  0
  -25.4030  -13.8920   20.4140 C   0  0  0  0  0  0  0  0  0  0  0  0
  -24.3560  -13.1130   20.8270 C   0  0  0  0  0  0  0  0  0  0  0  0
  -24.8060  -11.7610   20.7240 C   0  0  0  0  0  0  0  0  0  0  0  0
  -26.4260  -13.0140   20.0890 N   0  0  0  0  0  0  0  0  0  0  0  0
  -26.0730  -11.7260   20.3320 N   0  0  0  0  0  0  0  0  0  0  0  0
  -24.0870  -10.4960   20.9190 C   0  0  0  0  0  0  0  0  0  0  0  0
  -24.5470   -9.5160   21.8260 C   0  0  0  0  0  3  0  0  0  0  0  0
  -23.8280   -8.3160   22.0090 C   0  0  0  0  0  3  0  0  0  0  0  0
  -22.6350   -8.0860   21.2840 C   0  0  0  0  0  0  0  0  0  0  0  0
  -22.1930   -9.0540   20.3660 C   0  0  0  0  0  3  0  0  0  0  0  0
  -22.9120  -10.2460   20.1800 C   0  0  0  0  0  3  0  0  0  0  0  0
  -21.8850   -6.9380   21.3790 O   0  0  0  0  0  0  0  0  0  0  0  0
  -21.8270   -6.2090   22.5390 C   0  0  0  0  0  0  0  0  0  0  0  0
  -21.3610   -6.7690   23.7490 C   0  0  0  0  0  3  0  0  0  0  0  0
  -21.2530   -5.9650   24.9010 C   0  0  0  0  0  3  0  0  0  0  0  0
  -21.5990   -4.6020   24.8450 C   0  0  0  0  0  0  0  0  0  0  0  0
  -22.0580   -4.0410   23.6390 C   0  0  0  0  0  3  0  0  0  0  0  0
  -22.1680   -4.8430   22.4890 C   0  0  0  0  0  0  0  0  0  0  0  0
  -22.5910   -4.2920   21.3260 F   0  0  0  0  0  0  0  0  0  0  0  0
  -21.4880   -3.8280   25.9490 F   0  0  0  0  0  0  0  0  0  0  0  0
  -22.9810  -13.5860   21.2030 C   0  0  0  0  0  0  0  0  0  0  0  0
  -22.3090  -12.8690   22.0990 N   0  0  0  0  0  0  0  0  0  0  0  0
  -22.5130  -14.6240   20.7390 O   0  0  0  0  0  0  0  0  0  0  0  0
  -22.7030  -12.0290   22.4950 H   0  0  0  0  0  0  0  0  0  0  0  0
  -21.3900  -13.1670   22.3920 H   0  0  0  0  0  0  0  0  0  0  0  0
  -25.5640  -15.2670   20.2660 N   0  0  0  0  0  0  0  0  0  0  0  0
  -24.8010  -15.9150   20.4240 H   0  0  0  0  0  0  0  0  0  0  0  0
  -26.3720  -15.7040   19.8410 H   0  0  0  0  0  0  0  0  0  0  0  0
  -29.7100  -23.3800   21.5420 C   0  0  0  0  0  2  0  0  0  0  0  0
  -28.9200  -24.4450   20.7210 C   0  0  0  0  0  2  0  0  0  0  0  0
  -27.9790  -26.0070   22.5260 C   0  0  0  0  0  1  0  0  0  0  0  0
  -30.3300  -26.3620   21.7010 C   0  0  0  0  0  1  0  0  0  0  0  0
  -28.9180  -25.9010   21.2990 C   0  0  1  0  0  0  0  0  0  0  0  0
  -28.5880  -26.7940   20.2090 O   0  0  0  0  0  0  0  0  0  0  0  0
  -24.5980  -31.8900   23.2260 C   0  0  0  0  0  0  0  0  0  0  0  0
  -27.4110  -27.5110   20.2310 C   0  0  0  0  0  0  0  0  0  0  0  0
  -23.4630  -30.4620   21.5530 C   0  0  0  0  0  3  0  0  0  0  0  0
  -24.9850  -28.9570   20.1680 C   0  0  0  0  0  0  0  0  0  0  0  0
  -25.9810  -30.8820   21.4150 C   0  0  0  0  0  2  0  0  0  0  0  0
  -26.1140  -29.5120   20.7830 C   0  0  0  0  0  0  0  0  0  0  0  0
  -27.3330  -28.7980   20.8100 C   0  0  0  0  0  3  0  0  0  0  0  0
  -26.2730  -26.9680   19.6040 C   0  0  0  0  0  3  0  0  0  0  0  0
  -25.0570  -27.6820   19.5750 C   0  0  0  0  0  3  0  0  0  0  0  0
  -23.7190  -29.7850   20.1800 C   0  0  0  0  0  2  0  0  0  0  0  0
  -24.6970  -31.0930   22.1240 N   0  0  0  0  0  0  0  0  0  0  0  0
  -23.5000  -32.1370   23.7410 O   0  0  0  0  0  0  0  0  0  0  0  0
  -22.8110  -29.4290   22.5000 C   0  0  0  0  0  0  0  0  0  0  0  0
  -21.4930  -29.2210   22.3420 N   0  0  0  0  0  0  0  0  0  0  0  0
  -23.4880  -28.8170   23.3300 O   0  0  0  0  0  0  0  0  0  0  0  0
  -21.0080  -29.7680   21.6440 H   0  0  0  0  0  0  0  0  0  0  0  0
  -18.1340  -27.9660   22.7630 C   0  0  0  0  0  0  0  0  0  0  0  0
  -20.6780  -28.2670   23.0930 C   0  0  0  0  0  3  0  0  0  0  0  0
  -20.8210  -26.8400   22.5150 C   0  0  0  0  0  2  0  0  0  0  0  0
  -19.7480  -26.5030   21.4750 C   0  0  0  0  0  2  0  0  0  0  0  0
  -18.3490  -26.6220   22.0880 C   0  0  0  0  0  2  0  0  0  0  0  0
  -19.2290  -28.7450   23.2200 C   0  0  0  0  0  0  0  0  0  0  0  0
  -18.9750  -30.0040   23.8080 C   0  0  0  0  0  3  0  0  0  0  0  0
  -17.6580  -30.4820   23.9460 C   0  0  0  0  0  3  0  0  0  0  0  0
  -16.5770  -29.7000   23.5060 C   0  0  0  0  0  3  0  0  0  0  0  0
  -16.8150  -28.4440   22.9190 C   0  0  0  0  0  3  0  0  0  0  0  0
  -25.8560  -32.5460   23.8770 C   0  0  0  0  0  3  0  0  0  0  0  0
  -26.3550  -31.7890   25.1680 C   0  0  1  0  0  0  0  0  0  0  0  0
  -25.2400  -31.5370   26.2100 C   0  0  0  0  0  1  0  0  0  0  0  0
  -26.9730  -30.4220   24.7920 C   0  0  0  0  0  1  0  0  0  0  0  0
  -27.4730  -32.6070   25.8570 C   0  0  0  0  0  1  0  0  0  0  0  0
  -25.5150  -33.9390   24.1910 N   0  0  0  0  0  0  0  0  0  0  0  0
  -25.8340  -34.9900   23.4240 C   0  0  0  0  0  0  0  0  0  0  0  0
  -26.5150  -34.8900   22.4000 O   0  0  0  0  0  0  0  0  0  0  0  0
  -24.9080  -34.0900   24.9840 H   0  0  0  0  0  0  0  0  0  0  0  0
  -24.0650  -36.7340   23.0410 C   0  0  0  0  0  1  0  0  0  0  0  0
  -25.3120  -36.3720   23.8630 C   0  0  0  0  0  3  0  0  0  0  0  0
  -27.4180  -37.3220   24.6920 C   0  0  0  0  0  1  0  0  0  0  0  0
  -26.3190  -37.4470   23.7380 N   0  0  0  0  0  0  0  0  0  0  0  0
  -25.8900  -38.3600   23.8660 H   0  0  0  0  0  0  0  0  0  0  0  0
  1  2  1  0
  1  4  1  0
  1 49  1  0
  3  1  1  0
  5 19  1  0
  6 11  1  0
  7  8  1  0
  7  6  1  0
  9  8  1  0
  9 24  1  0
  9 10  1  0
 11  5  1  0
 11 10  1  0
 12  5  2  0
 13 15  1  0
 14 17  1  0
 15  4  1  0
 15 17  2  0
 16 14  2  0
 18 13  2  0
 18 16  1  0
 19 16  1  0
 19 20  1  0
 21 22  2  0
 22 41  1  0
 23 22  1  0
 23 26  1  0
 24 25  1  0
 24 21  1  0
 25 23  2  0
 26 27  1  0
 27 28  2  0
 29 32  1  0
 29 28  1  0
 30 29  2  0
 31 30  1  0
 31 26  2  0
 32 33  1  0
 33 34  1  0
 34 35  2  0
 36 35  1  0
 36 40  1  0
 37 36  2  0
 38 33  2  0
 38 37  1  0
 39 38  1  0
 41 42  1  0
 42 45  1  0
 42 44  1  0
 43 41  2  0
 46 21  1  0
 46 47  1  0
 48 46  1  0
 50 53  1  0
 50 49  1  0
 53 52  1  1
 53 51  1  0
 54 56  1  0
 54 53  1  0
 55 66  2  0
 56 61  1  0
 57 65  1  0
 57 67  1  0
 58 64  1  0
 58 60  1  0
 59 65  1  0
 60 61  2  0
 60 59  1  0
 62 56  2  0
 63 62  1  0
 63 58  2  0
 64 57  1  0
 65 55  1  0
 67 69  2  0
 68 67  1  0
 70 68  1  0
 71 80  2  0
 71 76  1  0
 72 68  1  0
 72 76  1  0
 73 72  1  0
 74 75  1  0
 74 73  1  0
 75 71  1  0
 76 77  2  0
 77 78  1  0
 79 78  2  0
 80 79  1  0
 81 55  1  0
 81 86  1  0
 81 82  1  0
 82 85  1  1
 82 83  1  0
 84 82  1  0
 86 89  1  0
 87 91  1  0
 87 86  1  0
 88 87  2  0
 91 90  1  0
 93 91  1  0
 93 94  1  0
 93 92  1  0
M  ISO  4   5 100  19 100  53 101  54 101
M  END
>  <TORSDO>  (50) 
F 20

>  <SCORE>  (50) 
-13.107

>  <name>  (50) 
49

>  <ligand_id>  (50) 
49

>  <original_smiles>  (50) 
[H]c1nc(C([H])([H])[N+]([H])([H])C([H])([H])C([H])([H])C(Oc2c([H])c([H])c3c(c2[H])C([H])([H])N(C(=O)C([H])(N([H])C(=O)C([H])(N([H])C([H])([H])[H])C([H])([H])[H])C(C([H])([H])[H])(C([H])([H])[H])C([H])([H])[H])C([H])(C(=O)N([H])C2([H])c4c([H])c([H])c([H])c([H])c4C([H])([H])C([H])([H])C2([H])[H])C3([H])[H])(C([H])([H])[H])C([H])([H])[H])c([H])nc1N([H])C(=O)N1C([H])([H])C([H])([H])C([H])([H])C([H])(n2nc(-c3c([H])c([H])c(Oc4c([H])c([H])c(F)c([H])c4F)c([H])c3[H])c(C(=O)N([H])[H])c2N([H])[H])C1([H])[H]

>  <smiles>  (50) 
[H]c1nc(C([H])([H])[N+]([H])([H])C([H])([H])C([H])([H])C(Oc2c([H])c([H])c3c(c2[H])C([H])([H])N(C(=O)C([H])(N([H])C(=O)C([H])(N([H])C([H])([H])[H])C([H])([H])[H])C(C([H])([H])[H])(C([H])([H])[H])C([H])([H])[H])C([H])(C(=O)N([H])C2([H])c4c([H])c([H])c([H])c([H])c4C([H])([H])C([H])([H])C2([H])[H])C3([H])[H])(C([H])([H])[H])C([H])([H])[H])c([H])nc1N([H])C(=O)N1C([H])([H])C([H])([H])C([H])([H])C([H])(n2nc(-c3c([H])c([H])c(Oc4c([H])c([H])c(F)c([H])c4F)c([H])c3[H])c(C(=O)N([H])[H])c2N([H])[H])C1([H])[H]

$$$$
50:0:0
     RDKit          3D

 92100  0  0  1  0  0  0  0  0999 V2000
  -29.8960  -22.8420   19.3730 C   0  0  0  0  0  0  0  0  0  0  0  0
  -30.5700  -21.8660   20.0470 N   0  0  0  0  0  0  0  0  0  0  0  0
  -29.5280  -22.6710   18.2080 O   0  0  0  0  0  0  0  0  0  0  0  0
  -30.8550  -22.1150   20.9850 H   0  0  0  0  0  0  0  0  0  0  0  0
  -32.6130  -20.5140   19.8910 C   0  0  0  0  0  1  0  0  0  0  0  0
  -31.1020  -20.5420   19.5700 C   0  0  0  0  0  3  0  0  0  0  0  0
  -30.7830  -14.6670   20.0410 C   0  0  0  0  0  0  0  0  0  0  0  0
  -30.5350  -12.4640   18.9120 C   0  0  0  0  0  2  0  0  0  0  0  0
  -29.5170  -12.6440   17.7620 C   0  0  0  0  0  2  0  0  0  0  0  0
  -28.0580  -12.5060   18.2580 C   0  0  0  0  0  2  0  0  0  0  0  0
  -27.7830  -13.2900   19.5670 C   0  0  0  0  0  3  0  0  0  0  0  0
  -28.9090  -13.0500   20.6010 C   0  0  0  0  0  2  0  0  0  0  0  0
  -30.1850  -13.4330   19.9690 N   0  0  0  0  0  0  0  0  0  0  0  0
  -31.8910  -14.8770   19.5420 O   0  0  0  0  0  0  0  0  0  0  0  0
  -30.4330  -19.2660   20.1770 C   0  0  0  0  0  3  0  0  0  0  0  0
  -30.0050  -17.0850   20.6450 C   0  0  0  0  0  0  0  0  0  0  0  0
  -30.6750  -17.9670   19.8460 N   0  0  0  0  0  0  0  0  0  0  0  0
  -29.1790  -17.6170   21.5640 N   0  0  0  0  0  2  0  0  0  0  0  0
  -30.0040  -15.6370   20.6010 N   0  0  0  0  0  0  0  0  0  0  0  0
  -29.2890  -19.3090   21.5020 S   0  0  0  0  0  0  0  0  0  0  0  0
  -29.2110  -15.2460   21.0810 H   0  0  0  0  0  0  0  0  0  0  0  0
  -25.4390  -13.8770   20.4520 C   0  0  0  0  0  0  0  0  0  0  0  0
  -24.3880  -13.0960   20.8600 C   0  0  0  0  0  0  0  0  0  0  0  0
  -24.8320  -11.7450   20.7490 C   0  0  0  0  0  0  0  0  0  0  0  0
  -26.4560  -12.9980   20.1150 N   0  0  0  0  0  0  0  0  0  0  0  0
  -26.0990  -11.7090   20.3480 N   0  0  0  0  0  0  0  0  0  0  0  0
  -24.1050  -10.4820   20.9410 C   0  0  0  0  0  0  0  0  0  0  0  0
  -24.5520   -9.5050   21.8580 C   0  0  0  0  0  3  0  0  0  0  0  0
  -23.8280   -8.3060   22.0310 C   0  0  0  0  0  3  0  0  0  0  0  0
  -22.6440   -8.0760   21.2930 C   0  0  0  0  0  0  0  0  0  0  0  0
  -22.2200   -9.0440   20.3640 C   0  0  0  0  0  3  0  0  0  0  0  0
  -22.9450  -10.2330   20.1850 C   0  0  0  0  0  3  0  0  0  0  0  0
  -21.8840   -6.9360   21.3860 O   0  0  0  0  0  0  0  0  0  0  0  0
  -21.7960   -6.2220   22.5540 C   0  0  0  0  0  0  0  0  0  0  0  0
  -21.3070   -6.8010   23.7480 C   0  0  0  0  0  3  0  0  0  0  0  0
  -21.1650   -6.0100   24.9050 C   0  0  0  0  0  3  0  0  0  0  0  0
  -21.5050   -4.6450   24.8710 C   0  0  0  0  0  0  0  0  0  0  0  0
  -21.9890   -4.0660   23.6830 C   0  0  0  0  0  3  0  0  0  0  0  0
  -22.1300   -4.8510   22.5270 C   0  0  0  0  0  0  0  0  0  0  0  0
  -22.5770   -4.2850   21.3800 F   0  0  0  0  0  0  0  0  0  0  0  0
  -21.3600   -3.8820   25.9800 F   0  0  0  0  0  0  0  0  0  0  0  0
  -23.0180  -13.5800   21.2410 C   0  0  0  0  0  0  0  0  0  0  0  0
  -22.3260  -12.8600   22.1170 N   0  0  0  0  0  0  0  0  0  0  0  0
  -22.5600  -14.6280   20.7860 O   0  0  0  0  0  0  0  0  0  0  0  0
  -22.6940  -12.0050   22.5100 H   0  0  0  0  0  0  0  0  0  0  0  0
  -21.4070  -13.1720   22.4020 H   0  0  0  0  0  0  0  0  0  0  0  0
  -25.5940  -15.2540   20.3240 N   0  0  0  0  0  0  0  0  0  0  0  0
  -24.8230  -15.8810   20.5280 H   0  0  0  0  0  0  0  0  0  0  0  0
  -26.3980  -15.7340   19.9370 H   0  0  0  0  0  0  0  0  0  0  0  0
  -29.6020  -24.2210   20.0860 C   0  0  0  0  0  3  0  0  0  0  0  0
  -28.7150  -25.3070   19.3370 C   0  0  0  0  0  3  0  0  0  0  0  0
  -28.5060  -26.5800   20.0620 O   0  0  0  0  0  0  0  0  0  0  0  0
  -24.6160  -31.7840   23.2160 C   0  0  0  0  0  0  0  0  0  0  0  0
  -27.3160  -27.3310   20.0380 C   0  0  0  0  0  0  0  0  0  0  0  0
  -23.4340  -30.4200   21.5310 C   0  0  0  0  0  3  0  0  0  0  0  0
  -24.9060  -28.8910   20.0960 C   0  0  0  0  0  0  0  0  0  0  0  0
  -25.9700  -30.7500   21.3780 C   0  0  0  0  0  2  0  0  0  0  0  0
  -26.0640  -29.3800   20.7110 C   0  0  0  0  0  0  0  0  0  0  0  0
  -27.2610  -28.6030   20.6840 C   0  0  0  0  0  3  0  0  0  0  0  0
  -26.1280  -26.8900   19.4000 C   0  0  0  0  0  3  0  0  0  0  0  0
  -24.9370  -27.6480   19.4450 C   0  0  0  0  0  3  0  0  0  0  0  0
  -23.6630  -29.7580   20.1460 C   0  0  0  0  0  2  0  0  0  0  0  0
  -24.6920  -30.9980   22.1020 N   0  0  0  0  0  0  0  0  0  0  0  0
  -23.5250  -32.0520   23.7430 O   0  0  0  0  0  0  0  0  0  0  0  0
  -22.7570  -29.3870   22.4640 C   0  0  0  0  0  0  0  0  0  0  0  0
  -21.4340  -29.2060   22.3070 N   0  0  0  0  0  0  0  0  0  0  0  0
  -23.4200  -28.7500   23.2850 O   0  0  0  0  0  0  0  0  0  0  0  0
  -20.9570  -29.7660   21.6160 H   0  0  0  0  0  0  0  0  0  0  0  0
  -18.0520  -27.9970   22.7140 C   0  0  0  0  0  0  0  0  0  0  0  0
  -20.6040  -28.2550   23.0470 C   0  0  0  0  0  3  0  0  0  0  0  0
  -20.7210  -26.8350   22.4470 C   0  0  0  0  0  2  0  0  0  0  0  0
  -19.6420  -26.5280   21.4030 C   0  0  0  0  0  2  0  0  0  0  0  0
  -18.2460  -26.6590   22.0180 C   0  0  0  0  0  2  0  0  0  0  0  0
  -19.1600  -28.7520   23.1810 C   0  0  0  0  0  0  0  0  0  0  0  0
  -18.9260  -30.0040   23.7910 C   0  0  0  0  0  3  0  0  0  0  0  0
  -17.6160  -30.4990   23.9390 C   0  0  0  0  0  3  0  0  0  0  0  0
  -16.5230  -29.7400   23.4890 C   0  0  0  0  0  3  0  0  0  0  0  0
  -16.7420  -28.4910   22.8800 C   0  0  0  0  0  3  0  0  0  0  0  0
  -25.8880  -32.4020   23.8710 C   0  0  0  0  0  3  0  0  0  0  0  0
  -26.3850  -31.5980   25.1340 C   0  0  1  0  0  0  0  0  0  0  0  0
  -25.2740  -31.3360   26.1770 C   0  0  0  0  0  1  0  0  0  0  0  0
  -26.9740  -30.2310   24.7130 C   0  0  0  0  0  1  0  0  0  0  0  0
  -27.5250  -32.3760   25.8330 C   0  0  0  0  0  1  0  0  0  0  0  0
  -25.5740  -33.7910   24.2310 N   0  0  0  0  0  0  0  0  0  0  0  0
  -25.9060  -34.8600   23.4960 C   0  0  0  0  0  0  0  0  0  0  0  0
  -26.5840  -34.7820   22.4670 O   0  0  0  0  0  0  0  0  0  0  0  0
  -24.9680  -33.9260   25.0270 H   0  0  0  0  0  0  0  0  0  0  0  0
  -24.1750  -36.6550   23.1750 C   0  0  0  0  0  1  0  0  0  0  0  0
  -25.4140  -36.2370   23.9820 C   0  0  0  0  0  3  0  0  0  0  0  0
  -27.5410  -37.1150   24.8400 C   0  0  0  0  0  1  0  0  0  0  0  0
  -26.4430  -37.2960   23.8940 N   0  0  0  0  0  0  0  0  0  0  0  0
  -26.0310  -38.2110   24.0540 H   0  0  0  0  0  0  0  0  0  0  0  0
  1  2  1  0
  1 50  1  0
  2  4  1  0
  3  1  2  0
  6  5  1  0
  6  2  1  0
  7 19  1  0
  8 13  1  0
  9 10  1  0
  9  8  1  0
 11 10  1  0
 11 25  1  0
 11 12  1  0
 13  7  1  0
 13 12  1  0
 14  7  2  0
 15  6  1  0
 15 20  1  0
 16 18  1  0
 17 15  1  0
 17 16  2  0
 19 16  1  0
 19 21  1  0
 20 18  1  0
 22 23  2  0
 23 42  1  0
 24 23  1  0
 24 27  1  0
 25 26  1  0
 25 22  1  0
 26 24  2  0
 27 28  1  0
 28 29  2  0
 30 33  1  0
 30 29  1  0
 31 30  2  0
 32 31  1  0
 32 27  2  0
 33 34  1  0
 34 35  1  0
 35 36  2  0
 37 36  1  0
 37 41  1  0
 38 37  2  0
 39 34  2  0
 39 38  1  0
 40 39  1  0
 42 43  1  0
 43 46  1  0
 43 45  1  0
 44 42  2  0
 47 22  1  0
 47 48  1  0
 49 47  1  0
 51 52  1  0
 51 50  2  0
 53 64  2  0
 54 52  1  0
 54 59  1  0
 55 63  1  0
 55 65  1  0
 56 62  1  0
 56 58  1  0
 57 63  1  0
 58 57  1  0
 59 58  2  0
 60 61  1  0
 60 54  2  0
 61 56  2  0
 62 55  1  0
 63 53  1  0
 65 67  2  0
 66 65  1  0
 68 66  1  0
 69 78  2  0
 69 74  1  0
 70 66  1  0
 70 74  1  0
 71 70  1  0
 72 73  1  0
 72 71  1  0
 73 69  1  0
 74 75  2  0
 75 76  1  0
 77 76  2  0
 78 77  1  0
 79 53  1  0
 79 84  1  0
 79 80  1  0
 80 83  1  1
 80 81  1  0
 82 80  1  0
 84 87  1  0
 85 89  1  0
 85 84  1  0
 86 85  2  0
 89 88  1  0
 91 89  1  0
 91 92  1  0
 91 90  1  0
M  ISO  4   7 100  19 100  51 101  52 101
M  END
>  <TORSDO>  (51) 
F 19

>  <SCORE>  (51) 
-12.860

>  <name>  (51) 
50

>  <ligand_id>  (51) 
50

>  <original_smiles>  (51) 
[H]c1c([H])c([H])c2c(c1[H])C([H])([H])C([H])([H])C([H])([H])C2([H])N([H])C(=O)C1([H])N(C(=O)C([H])(N([H])C(=O)C([H])(N([H])C([H])([H])[H])C([H])([H])[H])C(C([H])([H])[H])(C([H])([H])[H])C([H])([H])[H])C([H])([H])c2c([H])c(OC([H])([H])C([H])([H])C(=O)N([H])C([H])(c3nc(N([H])C(=O)N4C([H])([H])C([H])([H])C([H])([H])C([H])(n5nc(-c6c([H])c([H])c(Oc7c([H])c([H])c(F)c([H])c7F)c([H])c6[H])c(C(=O)N([H])[H])c5N([H])[H])C4([H])[H])ns3)C([H])([H])[H])c([H])c([H])c2C1([H])[H]

>  <smiles>  (51) 
[H]c1c([H])c([H])c2c(c1[H])C([H])([H])C([H])([H])C([H])([H])C2([H])N([H])C(=O)C1([H])N(C(=O)C([H])(N([H])C(=O)C([H])(N([H])C([H])([H])[H])C([H])([H])[H])C(C([H])([H])[H])(C([H])([H])[H])C([H])([H])[H])C([H])([H])c2c([H])c(OC([H])([H])C([H])([H])C(=O)N([H])C([H])(c3nc(N([H])C(=O)N4C([H])([H])C([H])([H])C([H])([H])C([H])(n5nc(-c6c([H])c([H])c(Oc7c([H])c([H])c(F)c([H])c7F)c([H])c6[H])c(C(=O)N([H])[H])c5N([H])[H])C4([H])[H])ns3)C([H])([H])[H])c([H])c([H])c2C1([H])[H]

$$$$
51:0:0
     RDKit          3D

 90 98  0  0  1  0  0  0  0  0999 V2000
  -29.9790  -19.0200   20.1700 C   0  0  0  0  0  0  0  0  0  0  0  0
  -29.4640  -21.2890   20.0970 C   0  0  0  0  0  3  0  0  0  0  0  0
  -29.7890  -20.1600   19.4040 N   0  0  0  0  0  0  0  0  0  0  0  0
  -29.7430  -19.2340   21.4850 N   0  0  0  0  0  2  0  0  0  0  0  0
  -29.2020  -22.5770   19.4850 N   0  0  0  0  0  0  0  0  0  0  0  0
  -29.3560  -20.8820   21.7860 S   0  0  0  0  0  0  0  0  0  0  0  0
  -29.2210  -22.5760   18.4700 H   0  0  0  0  0  0  0  0  0  0  0  0
  -30.5440  -17.6280   19.6200 C   0  0  0  0  0  2  0  0  0  0  0  0
  -30.8970  -15.0700   19.9410 C   0  0  0  0  0  0  0  0  0  0  0  0
  -30.6600  -12.7600   19.0160 C   0  0  0  0  0  2  0  0  0  0  0  0
  -29.6920  -12.7930   17.8130 C   0  0  0  0  0  2  0  0  0  0  0  0
  -28.2360  -12.6280   18.2890 C   0  0  0  0  0  2  0  0  0  0  0  0
  -27.8940  -13.5490   19.4910 C   0  0  0  0  0  3  0  0  0  0  0  0
  -28.9840  -13.5090   20.5850 C   0  0  0  0  0  2  0  0  0  0  0  0
  -30.2600  -13.8460   19.9440 N   0  0  0  0  0  0  0  0  0  0  0  0
  -32.0640  -15.1410   19.5470 O   0  0  0  0  0  0  0  0  0  0  0  0
  -30.1650  -16.2350   20.1370 N   0  0  0  0  0  0  0  0  0  0  0  0
  -29.2210  -16.1330   20.4770 H   0  0  0  0  0  0  0  0  0  0  0  0
  -25.5400  -14.1520   20.3080 C   0  0  0  0  0  0  0  0  0  0  0  0
  -24.4820  -13.3850   20.7110 C   0  0  0  0  0  0  0  0  0  0  0  0
  -24.9330  -12.0300   20.6570 C   0  0  0  0  0  0  0  0  0  0  0  0
  -26.5670  -13.2660   20.0280 N   0  0  0  0  0  0  0  0  0  0  0  0
  -26.2110  -11.9850   20.3030 N   0  0  0  0  0  0  0  0  0  0  0  0
  -24.2030  -10.7720   20.8650 C   0  0  0  0  0  0  0  0  0  0  0  0
  -24.6220   -9.8250   21.8260 C   0  0  0  0  0  3  0  0  0  0  0  0
  -23.8910   -8.6330   22.0220 C   0  0  0  0  0  3  0  0  0  0  0  0
  -22.7270   -8.3800   21.2570 C   0  0  0  0  0  0  0  0  0  0  0  0
  -22.3280   -9.3160   20.2880 C   0  0  0  0  0  3  0  0  0  0  0  0
  -23.0580  -10.4990   20.0890 C   0  0  0  0  0  3  0  0  0  0  0  0
  -21.9690   -7.2390   21.3610 O   0  0  0  0  0  0  0  0  0  0  0  0
  -21.8750   -6.5430   22.5400 C   0  0  0  0  0  0  0  0  0  0  0  0
  -21.3250   -7.1210   23.7060 C   0  0  0  0  0  3  0  0  0  0  0  0
  -21.1830   -6.3480   24.8750 C   0  0  0  0  0  3  0  0  0  0  0  0
  -21.5790   -4.9970   24.8790 C   0  0  0  0  0  0  0  0  0  0  0  0
  -22.1210   -4.4180   23.7180 C   0  0  0  0  0  3  0  0  0  0  0  0
  -22.2640   -5.1890   22.5500 C   0  0  0  0  0  0  0  0  0  0  0  0
  -22.7670   -4.6200   21.4280 F   0  0  0  0  0  0  0  0  0  0  0  0
  -21.4360   -4.2520   26.0000 F   0  0  0  0  0  0  0  0  0  0  0  0
  -23.0990  -13.8710   21.0330 C   0  0  0  0  0  0  0  0  0  0  0  0
  -22.3940  -13.1730   21.9160 N   0  0  0  0  0  0  0  0  0  0  0  0
  -22.6540  -14.9060   20.5360 O   0  0  0  0  0  0  0  0  0  0  0  0
  -22.7670  -12.3360   22.3380 H   0  0  0  0  0  0  0  0  0  0  0  0
  -21.4670  -13.4810   22.1740 H   0  0  0  0  0  0  0  0  0  0  0  0
  -25.7050  -15.5240   20.1280 N   0  0  0  0  0  0  0  0  0  0  0  0
  -24.9430  -16.1780   20.2690 H   0  0  0  0  0  0  0  0  0  0  0  0
  -26.5280  -15.9560   19.7310 H   0  0  0  0  0  0  0  0  0  0  0  0
  -29.2530  -23.9710   20.1050 C   0  0  0  0  0  2  0  0  0  0  0  0
  -28.8280  -25.2210   17.8680 C   0  0  0  0  0  1  0  0  0  0  0  0
  -28.4560  -25.1870   19.3600 C   0  0  0  0  0  3  0  0  0  0  0  0
  -28.5500  -26.6300   19.8180 O   0  0  0  0  0  0  0  0  0  0  0  0
  -24.7460  -31.8190   23.2160 C   0  0  0  0  0  0  0  0  0  0  0  0
  -27.4330  -27.5120   19.7980 C   0  0  0  0  0  0  0  0  0  0  0  0
  -23.5660  -30.5170   21.4850 C   0  0  0  0  0  3  0  0  0  0  0  0
  -25.0420  -29.1180   19.9280 C   0  0  0  0  0  0  0  0  0  0  0  0
  -26.1020  -30.8920   21.3180 C   0  0  0  0  0  2  0  0  0  0  0  0
  -26.2060  -29.5650   20.5640 C   0  0  0  0  0  0  0  0  0  0  0  0
  -27.4010  -28.7730   20.4940 C   0  0  0  0  0  3  0  0  0  0  0  0
  -26.2470  -27.1610   19.1130 C   0  0  0  0  0  3  0  0  0  0  0  0
  -25.0690  -27.9280   19.1890 C   0  0  0  0  0  3  0  0  0  0  0  0
  -23.7870  -29.9590   20.0550 C   0  0  0  0  0  2  0  0  0  0  0  0
  -24.8240  -31.0910   22.0620 N   0  0  0  0  0  0  0  0  0  0  0  0
  -23.6590  -32.0290   23.7740 O   0  0  0  0  0  0  0  0  0  0  0  0
  -22.9340  -29.4150   22.3710 C   0  0  0  0  0  0  0  0  0  0  0  0
  -21.6130  -29.2080   22.2340 N   0  0  0  0  0  0  0  0  0  0  0  0
  -23.6330  -28.7530   23.1430 O   0  0  0  0  0  0  0  0  0  0  0  0
  -21.1050  -29.7990   21.5910 H   0  0  0  0  0  0  0  0  0  0  0  0
  -18.2760  -27.8660   22.6460 C   0  0  0  0  0  0  0  0  0  0  0  0
  -20.8250  -28.1930   22.9370 C   0  0  0  0  0  3  0  0  0  0  0  0
  -20.9730  -26.8080   22.2660 C   0  0  0  0  0  2  0  0  0  0  0  0
  -19.8830  -26.5190   21.2310 C   0  0  0  0  0  2  0  0  0  0  0  0
  -18.4970  -26.5720   21.8800 C   0  0  0  0  0  2  0  0  0  0  0  0
  -19.3690  -28.6350   23.1290 C   0  0  0  0  0  0  0  0  0  0  0  0
  -19.1070  -29.8450   23.8060 C   0  0  0  0  0  3  0  0  0  0  0  0
  -17.7860  -30.2890   24.0040 C   0  0  0  0  0  3  0  0  0  0  0  0
  -16.7080  -29.5180   23.5350 C   0  0  0  0  0  3  0  0  0  0  0  0
  -16.9540  -28.3070   22.8620 C   0  0  0  0  0  3  0  0  0  0  0  0
  -26.0150  -32.4390   23.8750 C   0  0  0  0  0  3  0  0  0  0  0  0
  -26.5470  -31.6020   25.1030 C   0  0  1  0  0  0  0  0  0  0  0  0
  -25.4620  -31.2880   26.1590 C   0  0  0  0  0  1  0  0  0  0  0  0
  -27.1470  -30.2580   24.6320 C   0  0  0  0  0  1  0  0  0  0  0  0
  -27.6910  -32.3730   25.8040 C   0  0  0  0  0  1  0  0  0  0  0  0
  -25.6770  -33.8090   24.2910 N   0  0  0  0  0  0  0  0  0  0  0  0
  -26.0100  -34.9160   23.6140 C   0  0  0  0  0  0  0  0  0  0  0  0
  -26.7010  -34.8920   22.5930 O   0  0  0  0  0  0  0  0  0  0  0  0
  -25.0640  -33.9000   25.0890 H   0  0  0  0  0  0  0  0  0  0  0  0
  -24.2880  -36.7270   23.3260 C   0  0  0  0  0  1  0  0  0  0  0  0
  -25.4950  -36.2640   24.1570 C   0  0  0  0  0  3  0  0  0  0  0  0
  -27.5740  -37.0980   25.1650 C   0  0  0  0  0  1  0  0  0  0  0  0
  -26.5250  -37.3250   24.1720 N   0  0  0  0  0  0  0  0  0  0  0  0
  -26.1050  -38.2310   24.3580 H   0  0  0  0  0  0  0  0  0  0  0  0
  1  4  1  0
  2  5  1  0
  2  6  1  0
  3  2  1  0
  3  1  2  0
  4  6  1  0
  5 47  1  0
  7  5  1  0
  8 17  1  0
  8  1  1  0
  9 15  1  0
  9 17  1  0
 10 15  1  0
 11 12  1  0
 11 10  1  0
 13 12  1  0
 13 22  1  0
 13 14  1  0
 15 14  1  0
 16  9  2  0
 17 18  1  0
 19 20  2  0
 20 39  1  0
 21 20  1  0
 21 24  1  0
 22 23  1  0
 22 19  1  0
 23 21  2  0
 24 25  1  0
 25 26  2  0
 27 30  1  0
 27 26  1  0
 28 27  2  0
 29 28  1  0
 29 24  2  0
 30 31  1  0
 31 36  2  0
 31 32  1  0
 32 33  2  0
 33 34  1  0
 34 38  1  0
 35 34  2  0
 36 35  1  0
 37 36  1  0
 39 40  1  0
 40 43  1  0
 40 42  1  0
 41 39  2  0
 44 45  1  0
 44 19  1  0
 46 44  1  0
 49 48  1  0
 49 50  1  0
 49 47  1  0
 51 62  2  0
 52 50  1  0
 52 57  1  0
 53 61  1  0
 53 63  1  0
 54 60  1  0
 54 56  1  0
 55 61  1  0
 56 55  1  0
 57 56  2  0
 58 59  1  0
 58 52  2  0
 59 54  2  0
 60 53  1  0
 61 51  1  0
 63 65  2  0
 64 63  1  0
 66 64  1  0
 67 76  2  0
 67 72  1  0
 68 64  1  0
 68 72  1  0
 69 68  1  0
 70 71  1  0
 70 69  1  0
 71 67  1  0
 72 73  2  0
 73 74  1  0
 75 74  2  0
 76 75  1  0
 77 51  1  0
 77 82  1  0
 77 78  1  0
 78 81  1  1
 78 79  1  0
 80 78  1  0
 82 85  1  0
 83 87  1  0
 83 82  1  0
 84 83  2  0
 87 86  1  0
 87 89  1  0
 89 90  1  0
 89 88  1  0
M  ISO  4   9 100  17 100  49 101  50 101
M  END
>  <TORSDO>  (52) 
F 19

>  <SCORE>  (52) 
-12.990

>  <name>  (52) 
51

>  <ligand_id>  (52) 
51

>  <original_smiles>  (52) 
[H]c1c([H])c([H])c2c(c1[H])C([H])([H])C([H])([H])C([H])([H])C2([H])N([H])C(=O)C1([H])N(C(=O)C([H])(N([H])C(=O)C([H])(N([H])C([H])([H])[H])C([H])([H])[H])C(C([H])([H])[H])(C([H])([H])[H])C([H])([H])[H])C([H])([H])c2c([H])c(OC([H])(C([H])([H])[H])C([H])([H])N([H])c3nc(C([H])([H])N([H])C(=O)N4C([H])([H])C([H])([H])C([H])([H])C([H])(n5nc(-c6c([H])c([H])c(Oc7c([H])c([H])c(F)c([H])c7F)c([H])c6[H])c(C(=O)N([H])[H])c5N([H])[H])C4([H])[H])ns3)c([H])c([H])c2C1([H])[H]

>  <smiles>  (52) 
[H]c1c([H])c([H])c2c(c1[H])C([H])([H])C([H])([H])C([H])([H])C2([H])N([H])C(=O)C1([H])N(C(=O)C([H])(N([H])C(=O)C([H])(N([H])C([H])([H])[H])C([H])([H])[H])C(C([H])([H])[H])(C([H])([H])[H])C([H])([H])[H])C([H])([H])c2c([H])c(OC([H])(C([H])([H])[H])C([H])([H])N([H])c3nc(C([H])([H])N([H])C(=O)N4C([H])([H])C([H])([H])C([H])([H])C([H])(n5nc(-c6c([H])c([H])c(Oc7c([H])c([H])c(F)c([H])c7F)c([H])c6[H])c(C(=O)N([H])[H])c5N([H])[H])C4([H])[H])ns3)c([H])c([H])c2C1([H])[H]

$$$$
52:0:0
     RDKit          3D

 96104  0  0  1  0  0  0  0  0999 V2000
  -28.4290  -24.0980   20.9920 C   0  0  0  0  0  3  0  0  0  0  0  0
  -29.2120  -21.6760   21.2000 C   0  0  0  0  0  0  0  0  0  0  0  0
  -28.9480  -22.7370   20.4210 N   0  0  0  0  0  2  0  0  0  0  0  0
  -29.1760  -21.7150   22.5820 N   0  0  0  0  0  4  0  0  0  0  0  0
  -29.4590  -20.9470   23.1820 H   0  0  0  0  0  0  0  0  0  0  0  0
  -28.9500  -22.5290   23.1320 H   0  0  0  0  0  0  0  0  0  0  0  0
  -30.7600  -18.4660   19.6020 C   0  0  0  0  0  3  0  0  0  0  0  0
  -30.1230  -17.6000   20.4810 C   0  0  0  0  0  0  0  0  0  0  0  0
  -29.6390  -20.2350   20.7110 C   0  0  0  0  0  0  0  0  0  0  0  0
  -30.4820  -19.8710   19.7230 N   0  0  0  0  0  0  0  0  0  0  0  0
  -29.1560  -18.6850   21.5430 S   0  0  0  0  0  0  0  0  0  0  0  0
  -30.8200  -15.1300   20.0340 C   0  0  0  0  0  0  0  0  0  0  0  0
  -30.6200  -12.8520   18.9710 C   0  0  0  0  0  2  0  0  0  0  0  0
  -29.6220  -12.9140   17.7900 C   0  0  0  0  0  2  0  0  0  0  0  0
  -28.1760  -12.7110   18.2820 C   0  0  0  0  0  2  0  0  0  0  0  0
  -27.8530  -13.5750   19.5270 C   0  0  0  0  0  3  0  0  0  0  0  0
  -28.9630  -13.4660   20.5960 C   0  0  0  0  0  2  0  0  0  0  0  0
  -30.2290  -13.8780   19.9680 N   0  0  0  0  0  0  0  0  0  0  0  0
  -31.9450  -15.2950   19.5490 O   0  0  0  0  0  0  0  0  0  0  0  0
  -30.0730  -16.1830   20.5620 N   0  0  0  0  0  0  0  0  0  0  0  0
  -29.2530  -15.8410   21.0400 H   0  0  0  0  0  0  0  0  0  0  0  0
  -25.5050  -14.1330   20.3980 C   0  0  0  0  0  0  0  0  0  0  0  0
  -24.4640  -13.3490   20.8070 C   0  0  0  0  0  0  0  0  0  0  0  0
  -24.9240  -11.9990   20.7060 C   0  0  0  0  0  0  0  0  0  0  0  0
  -26.5340  -13.2670   20.0750 N   0  0  0  0  0  0  0  0  0  0  0  0
  -26.1940  -11.9750   20.3210 N   0  0  0  0  0  0  0  0  0  0  0  0
  -24.2100  -10.7300   20.8890 C   0  0  0  0  0  0  0  0  0  0  0  0
  -24.6300   -9.7740   21.8400 C   0  0  0  0  0  3  0  0  0  0  0  0
  -23.9100   -8.5720   22.0090 C   0  0  0  0  0  3  0  0  0  0  0  0
  -22.7560   -8.3170   21.2290 C   0  0  0  0  0  0  0  0  0  0  0  0
  -22.3610   -9.2600   20.2640 C   0  0  0  0  0  3  0  0  0  0  0  0
  -23.0840  -10.4530   20.0900 C   0  0  0  0  0  3  0  0  0  0  0  0
  -22.0110   -7.1640   21.3090 O   0  0  0  0  0  0  0  0  0  0  0  0
  -21.8440   -6.4970   22.4950 C   0  0  0  0  0  0  0  0  0  0  0  0
  -21.2660   -7.1160   23.6270 C   0  0  0  0  0  3  0  0  0  0  0  0
  -21.0490   -6.3730   24.8010 C   0  0  0  0  0  3  0  0  0  0  0  0
  -21.4030   -5.0110   24.8500 C   0  0  0  0  0  0  0  0  0  0  0  0
  -21.9740   -4.3920   23.7240 C   0  0  0  0  0  3  0  0  0  0  0  0
  -22.1920   -5.1320   22.5500 C   0  0  0  0  0  0  0  0  0  0  0  0
  -22.7240   -4.5260   21.4620 F   0  0  0  0  0  0  0  0  0  0  0  0
  -21.1860   -4.2920   25.9760 F   0  0  0  0  0  0  0  0  0  0  0  0
  -23.0830  -13.8160   21.1690 C   0  0  0  0  0  0  0  0  0  0  0  0
  -22.4070  -13.1000   22.0600 N   0  0  0  0  0  0  0  0  0  0  0  0
  -22.6160  -14.8500   20.6940 O   0  0  0  0  0  0  0  0  0  0  0  0
  -22.8010  -12.2600   22.4590 H   0  0  0  0  0  0  0  0  0  0  0  0
  -21.4810  -13.3910   22.3410 H   0  0  0  0  0  0  0  0  0  0  0  0
  -25.6620  -15.5100   20.2510 N   0  0  0  0  0  0  0  0  0  0  0  0
  -24.8900  -16.1500   20.3940 H   0  0  0  0  0  0  0  0  0  0  0  0
  -26.4560  -15.9430   19.7940 H   0  0  0  0  0  0  0  0  0  0  0  0
  -26.2820  -23.6000   19.6920 C   0  0  0  0  0  1  0  0  0  0  0  0
  -26.8810  -24.2280   20.9580 C   0  0  0  0  0  3  0  0  0  0  0  0
  -24.7020  -24.1640   22.3620 C   0  0  0  0  0  1  0  0  0  0  0  0
  -26.1770  -23.7390   22.2490 C   0  0  0  0  0  2  0  0  0  0  0  0
  -29.8890  -26.1070   21.8440 C   0  0  0  0  0  1  0  0  0  0  0  0
  -29.1300  -25.5580   20.6220 C   0  0  0  0  0  3  0  0  0  0  0  0
  -28.6160  -26.8040   19.9250 O   0  0  0  0  0  0  0  0  0  0  0  0
  -24.6210  -31.9830   23.3090 C   0  0  0  0  0  0  0  0  0  0  0  0
  -27.4730  -27.6140   20.1480 C   0  0  0  0  0  0  0  0  0  0  0  0
  -23.5100  -30.6500   21.5510 C   0  0  0  0  0  3  0  0  0  0  0  0
  -25.0620  -29.2040   20.1100 C   0  0  0  0  0  0  0  0  0  0  0  0
  -26.0590  -31.0350   21.4750 C   0  0  0  0  0  2  0  0  0  0  0  0
  -26.2030  -29.6880   20.7680 C   0  0  0  0  0  0  0  0  0  0  0  0
  -27.4180  -28.9140   20.7600 C   0  0  0  0  0  3  0  0  0  0  0  0
  -26.3100  -27.2030   19.4720 C   0  0  0  0  0  3  0  0  0  0  0  0
  -25.1240  -27.9650   19.4530 C   0  0  0  0  0  3  0  0  0  0  0  0
  -23.7930  -30.0420   20.1520 C   0  0  0  0  0  2  0  0  0  0  0  0
  -24.7470  -31.2430   22.1680 N   0  0  0  0  0  0  0  0  0  0  0  0
  -23.5110  -32.2030   23.8220 O   0  0  0  0  0  0  0  0  0  0  0  0
  -22.8430  -29.5680   22.4320 C   0  0  0  0  0  0  0  0  0  0  0  0
  -21.5220  -29.3860   22.2680 N   0  0  0  0  0  0  0  0  0  0  0  0
  -23.5160  -28.8920   23.2110 O   0  0  0  0  0  0  0  0  0  0  0  0
  -21.0420  -29.9830   21.6120 H   0  0  0  0  0  0  0  0  0  0  0  0
  -18.1280  -28.2060   22.7060 C   0  0  0  0  0  0  0  0  0  0  0  0
  -20.6980  -28.3890   22.9530 C   0  0  0  0  0  3  0  0  0  0  0  0
  -20.7600  -27.0220   22.2320 C   0  0  0  0  0  2  0  0  0  0  0  0
  -19.6330  -26.8290   21.2140 C   0  0  0  0  0  2  0  0  0  0  0  0
  -18.2640  -26.9290   21.8970 C   0  0  0  0  0  2  0  0  0  0  0  0
  -19.2690  -28.9010   23.1890 C   0  0  0  0  0  0  0  0  0  0  0  0
  -19.0860  -30.0990   23.9150 C   0  0  0  0  0  3  0  0  0  0  0  0
  -17.7930  -30.5980   24.1640 C   0  0  0  0  0  3  0  0  0  0  0  0
  -16.6680  -29.9000   23.6900 C   0  0  0  0  0  3  0  0  0  0  0  0
  -16.8330  -28.7070   22.9630 C   0  0  0  0  0  3  0  0  0  0  0  0
  -25.8590  -32.6120   24.0200 C   0  0  0  0  0  3  0  0  0  0  0  0
  -25.5310  -34.0070   24.3540 N   0  0  0  0  0  0  0  0  0  0  0  0
  -25.8960  -35.0690   23.6240 C   0  0  0  0  0  0  0  0  0  0  0  0
  -26.6090  -34.9820   22.6220 O   0  0  0  0  0  0  0  0  0  0  0  0
  -24.8980  -34.1540   25.1250 H   0  0  0  0  0  0  0  0  0  0  0  0
  -24.1700  -36.8390   23.2290 C   0  0  0  0  0  1  0  0  0  0  0  0
  -25.3850  -36.4480   24.0830 C   0  0  0  0  0  3  0  0  0  0  0  0
  -27.4730  -37.3330   25.0030 C   0  0  0  0  0  1  0  0  0  0  0  0
  -26.4140  -37.5060   24.0130 N   0  0  0  0  0  0  0  0  0  0  0  0
  -26.0020  -38.4270   24.1440 H   0  0  0  0  0  0  0  0  0  0  0  0
  -26.2930  -31.8210   25.3160 C   0  0  1  0  0  0  0  0  0  0  0  0
  -25.1350  -31.5590   26.3080 C   0  0  0  0  0  1  0  0  0  0  0  0
  -26.9000  -30.4550   24.9290 C   0  0  0  0  0  1  0  0  0  0  0  0
  -27.3970  -32.6020   26.0680 C   0  0  0  0  0  1  0  0  0  0  0  0
  1  3  1  0
  2  4  2  0
  3  2  1  0
  4  6  1  0
  4  5  1  0
  7 10  1  0
  7  8  2  0
  8 20  1  0
  8 11  1  0
  9  2  1  0
  9 11  1  0
 10  9  2  0
 12 20  1  0
 13 18  1  0
 14 15  1  0
 14 13  1  0
 16 15  1  0
 16 25  1  0
 16 17  1  0
 18 12  1  0
 18 17  1  0
 19 12  2  0
 20 21  1  0
 22 23  2  0
 23 42  1  0
 24 23  1  0
 24 27  1  0
 25 26  1  0
 25 22  1  0
 26 24  2  0
 27 28  1  0
 28 29  2  0
 30 33  1  0
 30 29  1  0
 31 30  2  0
 32 31  1  0
 32 27  2  0
 33 34  1  0
 34 39  2  0
 34 35  1  0
 35 36  2  0
 36 37  1  0
 37 41  1  0
 38 37  2  0
 39 38  1  0
 40 39  1  0
 42 43  1  0
 43 46  1  0
 43 45  1  0
 44 42  2  0
 47 48  1  0
 47 22  1  0
 49 47  1  0
 51 50  1  0
 51  1  1  0
 51 53  1  0
 53 52  1  0
 55  1  1  0
 55 54  1  0
 56 58  1  0
 56 55  1  0
 57 68  2  0
 58 63  1  0
 59 67  1  0
 59 69  1  0
 60 66  1  0
 60 62  1  0
 61 67  1  0
 62 61  1  0
 63 62  2  0
 64 58  2  0
 65 64  1  0
 65 60  2  0
 66 59  1  0
 67 57  1  0
 69 71  2  0
 70 69  1  0
 72 70  1  0
 73 82  2  0
 73 78  1  0
 74 70  1  0
 74 78  1  0
 75 74  1  0
 76 77  1  0
 76 75  1  0
 77 73  1  0
 78 79  2  0
 79 80  1  0
 81 80  2  0
 82 81  1  0
 83 57  1  0
 83 84  1  0
 83 93  1  0
 84 87  1  0
 85 89  1  0
 85 84  1  0
 86 85  2  0
 89 88  1  0
 91 89  1  0
 91 92  1  0
 91 90  1  0
 93 96  1  1
 93 94  1  0
 95 93  1  0
M  ISO  4  12 100  20 100  55 101  56 101
M  END
>  <TORSDO>  (53) 
F 21

>  <SCORE>  (53) 
-12.516

>  <name>  (53) 
52

>  <ligand_id>  (53) 
52

>  <original_smiles>  (53) 
[H]c1nc(C(=NC([H])(C([H])(Oc2c([H])c([H])c3c(c2[H])C([H])([H])N(C(=O)C([H])(N([H])C(=O)C([H])(N([H])C([H])([H])[H])C([H])([H])[H])C(C([H])([H])[H])(C([H])([H])[H])C([H])([H])[H])C([H])(C(=O)N([H])C2([H])c4c([H])c([H])c([H])c([H])c4C([H])([H])C([H])([H])C2([H])[H])C3([H])[H])C([H])([H])[H])C([H])(C([H])([H])[H])C([H])([H])C([H])([H])[H])N([H])[H])sc1N([H])C(=O)N1C([H])([H])C([H])([H])C([H])([H])C([H])(n2nc(-c3c([H])c([H])c(Oc4c([H])c([H])c(F)c([H])c4F)c([H])c3[H])c(C(=O)N([H])[H])c2N([H])[H])C1([H])[H]

>  <smiles>  (53) 
[H]c1nc(C(=NC([H])(C([H])(Oc2c([H])c([H])c3c(c2[H])C([H])([H])N(C(=O)C([H])(N([H])C(=O)C([H])(N([H])C([H])([H])[H])C([H])([H])[H])C(C([H])([H])[H])(C([H])([H])[H])C([H])([H])[H])C([H])(C(=O)N([H])C2([H])c4c([H])c([H])c([H])c([H])c4C([H])([H])C([H])([H])C2([H])[H])C3([H])[H])C([H])([H])[H])C([H])(C([H])([H])[H])C([H])([H])C([H])([H])[H])N([H])[H])sc1N([H])C(=O)N1C([H])([H])C([H])([H])C([H])([H])C([H])(n2nc(-c3c([H])c([H])c(Oc4c([H])c([H])c(F)c([H])c4F)c([H])c3[H])c(C(=O)N([H])[H])c2N([H])[H])C1([H])[H]

$$$$
53:0:0
     RDKit          3D

 94102  0  0  1  0  0  0  0  0999 V2000
  -28.2340  -20.0770   20.9190 C   0  0  0  0  0  2  0  0  0  0  0  0
  -29.5080  -20.5770   20.7960 C   0  0  0  0  0  0  0  0  0  0  0  0
  -29.9620  -18.3260   20.5230 C   0  0  0  0  0  3  0  0  0  0  0  0
  -30.4710  -19.5720   20.6120 N   0  0  0  0  0  0  0  0  0  0  0  0
  -28.2090  -18.3290   20.7390 S   0  0  0  0  0  0  0  0  0  0  0  0
  -29.0990  -22.9090   20.7130 C   0  0  0  0  0  3  0  0  0  0  0  0
  -29.9170  -21.9310   20.8530 N   0  0  0  0  0  0  0  0  0  0  0  0
  -30.5880  -24.7310   19.7160 C   0  0  0  0  0  1  0  0  0  0  0  0
  -29.4880  -24.4120   20.7430 C   0  0  0  0  0  3  0  0  0  0  0  0
  -28.2520  -25.3210   20.4940 C   0  0  0  0  0  2  0  0  0  0  0  0
  -28.4930  -26.7480   20.3520 O   0  0  0  0  0  0  0  0  0  0  0  0
  -24.6870  -31.9550   23.4070 C   0  0  0  0  0  0  0  0  0  0  0  0
  -27.3480  -27.5300   20.2960 C   0  0  0  0  0  0  0  0  0  0  0  0
  -23.4930  -30.5610   21.7550 C   0  0  0  0  0  3  0  0  0  0  0  0
  -24.9560  -29.0600   20.3050 C   0  0  0  0  0  0  0  0  0  0  0  0
  -26.0200  -30.9320   21.5640 C   0  0  0  0  0  2  0  0  0  0  0  0
  -26.1160  -29.5720   20.9010 C   0  0  0  0  0  0  0  0  0  0  0  0
  -27.3170  -28.8200   20.8860 C   0  0  0  0  0  3  0  0  0  0  0  0
  -26.1690  -27.0570   19.6680 C   0  0  0  0  0  3  0  0  0  0  0  0
  -24.9820  -27.8060   19.6810 C   0  0  0  0  0  3  0  0  0  0  0  0
  -23.7050  -29.9050   20.3660 C   0  0  0  0  0  2  0  0  0  0  0  0
  -24.7520  -31.1620   22.3000 N   0  0  0  0  0  0  0  0  0  0  0  0
  -23.6030  -32.2130   23.9460 O   0  0  0  0  0  0  0  0  0  0  0  0
  -22.8470  -29.5220   22.7010 C   0  0  0  0  0  0  0  0  0  0  0  0
  -21.5310  -29.3070   22.5450 N   0  0  0  0  0  0  0  0  0  0  0  0
  -23.5280  -28.9150   23.5330 O   0  0  0  0  0  0  0  0  0  0  0  0
  -21.0420  -29.8480   21.8460 H   0  0  0  0  0  0  0  0  0  0  0  0
  -18.1780  -28.0240   22.9650 C   0  0  0  0  0  0  0  0  0  0  0  0
  -20.7190  -28.3520   23.3000 C   0  0  0  0  0  3  0  0  0  0  0  0
  -20.8750  -26.9210   22.7340 C   0  0  0  0  0  2  0  0  0  0  0  0
  -19.8090  -26.5640   21.6940 C   0  0  0  0  0  2  0  0  0  0  0  0
  -18.4090  -26.6770   22.3020 C   0  0  0  0  0  2  0  0  0  0  0  0
  -19.2650  -28.8180   23.4180 C   0  0  0  0  0  0  0  0  0  0  0  0
  -18.9980  -30.0780   23.9930 C   0  0  0  0  0  3  0  0  0  0  0  0
  -17.6780  -30.5460   24.1240 C   0  0  0  0  0  3  0  0  0  0  0  0
  -16.6050  -29.7480   23.6890 C   0  0  0  0  0  3  0  0  0  0  0  0
  -16.8550  -28.4890   23.1160 C   0  0  0  0  0  3  0  0  0  0  0  0
  -25.9670  -32.5880   24.0350 C   0  0  0  0  0  3  0  0  0  0  0  0
  -25.6510  -33.9860   24.3590 N   0  0  0  0  0  0  0  0  0  0  0  0
  -25.9940  -35.0370   23.6050 C   0  0  0  0  0  0  0  0  0  0  0  0
  -26.6780  -34.9350   22.5820 O   0  0  0  0  0  0  0  0  0  0  0  0
  -25.0410  -34.1400   25.1480 H   0  0  0  0  0  0  0  0  0  0  0  0
  -24.2710  -36.8310   23.2240 C   0  0  0  0  0  1  0  0  0  0  0  0
  -25.4990  -36.4250   24.0550 C   0  0  0  0  0  3  0  0  0  0  0  0
  -27.6170  -37.3090   24.9250 C   0  0  0  0  0  1  0  0  0  0  0  0
  -26.5340  -37.4790   23.9630 N   0  0  0  0  0  0  0  0  0  0  0  0
  -26.1240  -38.3990   24.1020 H   0  0  0  0  0  0  0  0  0  0  0  0
  -26.4780  -31.8190   25.3140 C   0  0  1  0  0  0  0  0  0  0  0  0
  -25.3740  -31.5640   26.3680 C   0  0  0  0  0  1  0  0  0  0  0  0
  -27.0840  -30.4520   24.9230 C   0  0  0  0  0  1  0  0  0  0  0  0
  -27.6090  -32.6270   25.9910 C   0  0  0  0  0  1  0  0  0  0  0  0
  -30.7920  -17.1300   20.0640 C   0  0  0  0  0  3  0  0  0  0  0  0
  -31.1320  -14.7000   20.4480 C   0  0  0  0  0  0  0  0  0  0  0  0
  -30.7840  -12.5760   19.2640 C   0  0  0  0  0  2  0  0  0  0  0  0
  -29.8650  -12.8490   18.0550 C   0  0  0  0  0  2  0  0  0  0  0  0
  -28.3850  -12.7370   18.4720 C   0  0  0  0  0  2  0  0  0  0  0  0
  -28.0560  -13.5460   19.7560 C   0  0  0  0  0  3  0  0  0  0  0  0
  -29.0960  -13.2730   20.8680 C   0  0  0  0  0  2  0  0  0  0  0  0
  -30.4260  -13.5450   20.3130 N   0  0  0  0  0  0  0  0  0  0  0  0
  -32.3130  -14.7860   20.1040 O   0  0  0  0  0  0  0  0  0  0  0  0
  -30.4010  -15.8240   20.6570 N   0  0  0  0  0  0  0  0  0  0  0  0
  -29.4390  -15.7090   20.9370 H   0  0  0  0  0  0  0  0  0  0  0  0
  -25.6580  -14.1840   20.4310 C   0  0  0  0  0  0  0  0  0  0  0  0
  -24.5750  -13.4280   20.7900 C   0  0  0  0  0  0  0  0  0  0  0  0
  -25.0200  -12.0710   20.7780 C   0  0  0  0  0  0  0  0  0  0  0  0
  -26.6950  -13.2890   20.2210 N   0  0  0  0  0  0  0  0  0  0  0  0
  -26.3150  -12.0140   20.4900 N   0  0  0  0  0  0  0  0  0  0  0  0
  -24.2750  -10.8200   20.9650 C   0  0  0  0  0  0  0  0  0  0  0  0
  -24.6630   -9.8680   21.9340 C   0  0  0  0  0  3  0  0  0  0  0  0
  -23.9200   -8.6800   22.1090 C   0  0  0  0  0  3  0  0  0  0  0  0
  -22.7760   -8.4340   21.3130 C   0  0  0  0  0  0  0  0  0  0  0  0
  -22.4100   -9.3740   20.3340 C   0  0  0  0  0  3  0  0  0  0  0  0
  -23.1520  -10.5530   20.1580 C   0  0  0  0  0  3  0  0  0  0  0  0
  -22.0080   -7.2970   21.3960 O   0  0  0  0  0  0  0  0  0  0  0  0
  -21.8720   -6.6060   22.5720 C   0  0  0  0  0  0  0  0  0  0  0  0
  -21.3580   -7.2120   23.7380 C   0  0  0  0  0  3  0  0  0  0  0  0
  -21.1670   -6.4450   24.9050 C   0  0  0  0  0  3  0  0  0  0  0  0
  -21.4800   -5.0720   24.9050 C   0  0  0  0  0  0  0  0  0  0  0  0
  -21.9870   -4.4650   23.7440 C   0  0  0  0  0  3  0  0  0  0  0  0
  -22.1790   -5.2310   22.5790 C   0  0  0  0  0  0  0  0  0  0  0  0
  -22.6460   -4.6350   21.4560 F   0  0  0  0  0  0  0  0  0  0  0  0
  -21.2910   -4.3330   26.0230 F   0  0  0  0  0  0  0  0  0  0  0  0
  -23.1800  -13.9260   21.0370 C   0  0  0  0  0  0  0  0  0  0  0  0
  -22.4320  -13.2530   21.9050 N   0  0  0  0  0  0  0  0  0  0  0  0
  -22.7590  -14.9470   20.4950 O   0  0  0  0  0  0  0  0  0  0  0  0
  -22.7800  -12.4290   22.3710 H   0  0  0  0  0  0  0  0  0  0  0  0
  -21.4950  -13.5700   22.1130 H   0  0  0  0  0  0  0  0  0  0  0  0
  -25.8400  -15.5510   20.2470 N   0  0  0  0  0  0  0  0  0  0  0  0
  -25.0780  -16.2120   20.3500 H   0  0  0  0  0  0  0  0  0  0  0  0
  -26.6880  -15.9780   19.8990 H   0  0  0  0  0  0  0  0  0  0  0  0
  -30.7560  -17.0210   18.5150 C   0  0  0  0  0  2  0  0  0  0  0  0
  -31.3900  -18.1410   16.3270 C   0  0  0  0  0  1  0  0  0  0  0  0
  -33.1950  -17.1940   17.8130 C   0  0  0  0  0  1  0  0  0  0  0  0
  -31.8140  -17.8710   17.7790 C   0  0  0  0  0  3  0  0  0  0  0  0
  2  7  1  0
  2  1  1  0
  3 52  1  0
  3  4  1  0
  3  5  1  0
  4  2  2  0
  5  1  1  0
  6  9  1  0
  6  7  2  0
  9  8  1  0
 10  9  1  0
 11 10  1  0
 12 23  2  0
 13 11  1  0
 13 18  1  0
 14 22  1  0
 14 24  1  0
 15 21  1  0
 15 17  1  0
 16 22  1  0
 17 16  1  0
 18 17  2  0
 19 20  1  0
 19 13  2  0
 20 15  2  0
 21 14  1  0
 22 12  1  0
 24 26  2  0
 25 24  1  0
 27 25  1  0
 28 37  2  0
 28 33  1  0
 29 25  1  0
 29 33  1  0
 30 29  1  0
 31 32  1  0
 31 30  1  0
 32 28  1  0
 33 34  2  0
 34 35  1  0
 36 35  2  0
 37 36  1  0
 38 12  1  0
 38 39  1  0
 38 48  1  0
 39 42  1  0
 40 44  1  0
 40 39  1  0
 41 40  2  0
 44 43  1  0
 46 44  1  0
 46 47  1  0
 46 45  1  0
 48 51  1  1
 48 49  1  0
 50 48  1  0
 52 91  1  0
 52 61  1  0
 53 61  1  0
 54 59  1  0
 55 56  1  0
 55 54  1  0
 57 56  1  0
 57 66  1  0
 57 58  1  0
 59 53  1  0
 59 58  1  0
 60 53  2  0
 61 62  1  0
 63 64  2  0
 64 83  1  0
 65 64  1  0
 65 68  1  0
 66 63  1  0
 66 67  1  0
 67 65  2  0
 68 69  1  0
 69 70  2  0
 71 74  1  0
 71 70  1  0
 72 71  2  0
 73 72  1  0
 73 68  2  0
 74 75  1  0
 75 80  2  0
 75 76  1  0
 76 77  2  0
 78 77  1  0
 78 82  1  0
 79 78  2  0
 80 79  1  0
 81 80  1  0
 83 84  1  0
 84 87  1  0
 84 86  1  0
 85 83  2  0
 88 89  1  0
 88 63  1  0
 90 88  1  0
 92 94  1  0
 94 93  1  0
 94 91  1  0
M  ISO  4  10 101  11 101  53 100  61 100
M  END
>  <TORSDO>  (54) 
F 22

>  <SCORE>  (54) 
-12.383

>  <name>  (54) 
53

>  <ligand_id>  (54) 
53

>  <original_smiles>  (54) 
[H]C(=Nc1nc(C([H])(N([H])C(=O)N2C([H])([H])C([H])([H])C([H])([H])C([H])(n3nc(-c4c([H])c([H])c(Oc5c([H])c([H])c(F)c([H])c5F)c([H])c4[H])c(C(=O)N([H])[H])c3N([H])[H])C2([H])[H])C([H])([H])C([H])(C([H])([H])[H])C([H])([H])[H])sc1[H])C([H])(C([H])([H])[H])C([H])([H])Oc1c([H])c([H])c2c(c1[H])C([H])([H])N(C(=O)C([H])(N([H])C(=O)C([H])(N([H])C([H])([H])[H])C([H])([H])[H])C(C([H])([H])[H])(C([H])([H])[H])C([H])([H])[H])C([H])(C(=O)N([H])C1([H])c3c([H])c([H])c([H])c([H])c3C([H])([H])C([H])([H])C1([H])[H])C2([H])[H]

>  <smiles>  (54) 
[H]C(=Nc1nc(C([H])(N([H])C(=O)N2C([H])([H])C([H])([H])C([H])([H])C([H])(n3nc(-c4c([H])c([H])c(Oc5c([H])c([H])c(F)c([H])c5F)c([H])c4[H])c(C(=O)N([H])[H])c3N([H])[H])C2([H])[H])C([H])([H])C([H])(C([H])([H])[H])C([H])([H])[H])sc1[H])C([H])(C([H])([H])[H])C([H])([H])Oc1c([H])c([H])c2c(c1[H])C([H])([H])N(C(=O)C([H])(N([H])C(=O)C([H])(N([H])C([H])([H])[H])C([H])([H])[H])C(C([H])([H])[H])(C([H])([H])[H])C([H])([H])[H])C([H])(C(=O)N([H])C1([H])c3c([H])c([H])c([H])c([H])c3C([H])([H])C([H])([H])C1([H])[H])C2([H])[H]

$$$$
54:0:0
     RDKit          3D

 93101  0  0  1  0  0  0  0  0999 V2000
  -28.9480  -20.4720   20.7150 C   0  0  0  0  0  0  0  0  0  0  0  0
  -29.4190  -21.7300   20.8580 N   0  0  0  0  0  0  0  0  0  0  0  0
  -27.7480  -20.2280   20.5610 O   0  0  0  0  0  0  0  0  0  0  0  0
  -30.4240  -21.7910   20.9740 H   0  0  0  0  0  0  0  0  0  0  0  0
  -31.8470  -17.3300   20.9460 C   0  0  0  0  0  3  0  0  0  0  0  0
  -29.5450  -17.9880   20.7580 C   0  0  0  0  0  3  0  0  0  0  0  0
  -32.1840  -18.6950   20.9780 C   0  0  0  0  0  3  0  0  0  0  0  0
  -30.4960  -16.9440   20.8100 C   0  0  0  0  0  0  0  0  0  0  0  0
  -29.9640  -19.3460   20.7950 C   0  0  0  0  0  0  0  0  0  0  0  0
  -31.2730  -19.6840   20.9010 N   0  0  0  0  0  0  0  0  0  0  0  0
  -30.6880  -14.5360   20.1420 C   0  0  0  0  0  0  0  0  0  0  0  0
  -30.2740  -12.4000   18.9740 C   0  0  0  0  0  2  0  0  0  0  0  0
  -29.2840  -12.6310   17.8150 C   0  0  0  0  0  2  0  0  0  0  0  0
  -27.8330  -12.4960   18.3140 C   0  0  0  0  0  2  0  0  0  0  0  0
  -27.5620  -13.3240   19.5990 C   0  0  0  0  0  3  0  0  0  0  0  0
  -28.6680  -13.0970   20.6570 C   0  0  0  0  0  2  0  0  0  0  0  0
  -29.9680  -13.3840   20.0280 N   0  0  0  0  0  0  0  0  0  0  0  0
  -31.7870  -14.6670   19.5940 O   0  0  0  0  0  0  0  0  0  0  0  0
  -30.0740  -15.5710   20.7610 N   0  0  0  0  0  0  0  0  0  0  0  0
  -29.1420  -15.3750   21.0880 H   0  0  0  0  0  0  0  0  0  0  0  0
  -25.2040  -13.9350   20.4290 C   0  0  0  0  0  0  0  0  0  0  0  0
  -24.1480  -13.1640   20.8350 C   0  0  0  0  0  0  0  0  0  0  0  0
  -24.5960  -11.8100   20.7620 C   0  0  0  0  0  0  0  0  0  0  0  0
  -26.2310  -13.0500   20.1380 N   0  0  0  0  0  0  0  0  0  0  0  0
  -25.8710  -11.7660   20.3950 N   0  0  0  0  0  0  0  0  0  0  0  0
  -23.8690  -10.5500   20.9660 C   0  0  0  0  0  0  0  0  0  0  0  0
  -24.3180   -9.5770   21.8860 C   0  0  0  0  0  3  0  0  0  0  0  0
  -23.5910   -8.3830   22.0770 C   0  0  0  0  0  3  0  0  0  0  0  0
  -22.3990   -8.1520   21.3480 C   0  0  0  0  0  0  0  0  0  0  0  0
  -21.9690   -9.1140   20.4170 C   0  0  0  0  0  3  0  0  0  0  0  0
  -22.6960  -10.2990   20.2240 C   0  0  0  0  0  3  0  0  0  0  0  0
  -21.6420   -7.0110   21.4500 O   0  0  0  0  0  0  0  0  0  0  0  0
  -21.6010   -6.2740   22.6070 C   0  0  0  0  0  0  0  0  0  0  0  0
  -21.1610   -6.8310   23.8280 C   0  0  0  0  0  3  0  0  0  0  0  0
  -21.0680   -6.0210   24.9780 C   0  0  0  0  0  3  0  0  0  0  0  0
  -21.4050   -4.6560   24.9070 C   0  0  0  0  0  0  0  0  0  0  0  0
  -21.8380   -4.0990   23.6910 C   0  0  0  0  0  3  0  0  0  0  0  0
  -21.9320   -4.9060   22.5430 C   0  0  0  0  0  0  0  0  0  0  0  0
  -22.3300   -4.3590   21.3690 F   0  0  0  0  0  0  0  0  0  0  0  0
  -21.3080   -3.8760   26.0090 F   0  0  0  0  0  0  0  0  0  0  0  0
  -22.7690  -13.6480   21.1790 C   0  0  0  0  0  0  0  0  0  0  0  0
  -22.0730  -12.9400   22.0610 N   0  0  0  0  0  0  0  0  0  0  0  0
  -22.3180  -14.6880   20.7020 O   0  0  0  0  0  0  0  0  0  0  0  0
  -22.4500  -12.0960   22.4670 H   0  0  0  0  0  0  0  0  0  0  0  0
  -21.1490  -13.2450   22.3330 H   0  0  0  0  0  0  0  0  0  0  0  0
  -25.3720  -15.3060   20.2630 N   0  0  0  0  0  0  0  0  0  0  0  0
  -24.6170  -15.9660   20.4120 H   0  0  0  0  0  0  0  0  0  0  0  0
  -26.2050  -15.7410   19.8840 H   0  0  0  0  0  0  0  0  0  0  0  0
  -28.1190  -23.0790   22.4460 C   0  0  0  0  0  1  0  0  0  0  0  0
  -28.5800  -22.9380   20.9820 C   0  0  0  0  0  3  0  0  0  0  0  0
  -29.2330  -24.2650   20.4720 C   0  0  0  0  0  2  0  0  0  0  0  0
  -28.1440  -25.2500   19.9670 C   0  0  0  0  0  2  0  0  0  0  0  0
  -28.4030  -26.6740   20.0160 O   0  0  0  0  0  0  0  0  0  0  0  0
  -24.6090  -31.8530   23.1440 C   0  0  0  0  0  0  0  0  0  0  0  0
  -27.2600  -27.4650   19.9690 C   0  0  0  0  0  0  0  0  0  0  0  0
  -23.4110  -30.4860   21.4730 C   0  0  0  0  0  3  0  0  0  0  0  0
  -24.8700  -28.9970   20.0060 C   0  0  0  0  0  0  0  0  0  0  0  0
  -25.9410  -30.8480   21.2900 C   0  0  0  0  0  2  0  0  0  0  0  0
  -26.0300  -29.4950   20.6110 C   0  0  0  0  0  0  0  0  0  0  0  0
  -27.2300  -28.7380   20.5900 C   0  0  0  0  0  3  0  0  0  0  0  0
  -26.0790  -27.0070   19.3310 C   0  0  0  0  0  3  0  0  0  0  0  0
  -24.8910  -27.7530   19.3600 C   0  0  0  0  0  3  0  0  0  0  0  0
  -23.6240  -29.8490   20.0760 C   0  0  0  0  0  2  0  0  0  0  0  0
  -24.6720  -31.0740   22.0280 N   0  0  0  0  0  0  0  0  0  0  0  0
  -23.5260  -32.1110   23.6850 O   0  0  0  0  0  0  0  0  0  0  0  0
  -22.7610  -29.4380   22.4050 C   0  0  0  0  0  0  0  0  0  0  0  0
  -21.4370  -29.2580   22.2730 N   0  0  0  0  0  0  0  0  0  0  0  0
  -23.4450  -28.7930   23.2040 O   0  0  0  0  0  0  0  0  0  0  0  0
  -20.9460  -29.8310   21.6010 H   0  0  0  0  0  0  0  0  0  0  0  0
  -18.0600  -28.0600   22.7550 C   0  0  0  0  0  0  0  0  0  0  0  0
  -20.6200  -28.3020   23.0210 C   0  0  0  0  0  3  0  0  0  0  0  0
  -20.7160  -26.8870   22.4040 C   0  0  0  0  0  2  0  0  0  0  0  0
  -19.6080  -26.5960   21.3870 C   0  0  0  0  0  2  0  0  0  0  0  0
  -18.2290  -26.7290   22.0420 C   0  0  0  0  0  2  0  0  0  0  0  0
  -19.1840  -28.8050   23.2010 C   0  0  0  0  0  0  0  0  0  0  0  0
  -18.9730  -30.0520   23.8270 C   0  0  0  0  0  3  0  0  0  0  0  0
  -17.6710  -30.5550   24.0110 C   0  0  0  0  0  3  0  0  0  0  0  0
  -16.5620  -29.8060   23.5820 C   0  0  0  0  0  3  0  0  0  0  0  0
  -16.7570  -28.5600   22.9610 C   0  0  0  0  0  3  0  0  0  0  0  0
  -25.8930  -32.4740   23.7790 C   0  0  0  0  0  3  0  0  0  0  0  0
  -26.4070  -31.6800   25.0410 C   0  0  1  0  0  0  0  0  0  0  0  0
  -25.3110  -31.4190   26.1010 C   0  0  0  0  0  1  0  0  0  0  0  0
  -26.9960  -30.3120   24.6230 C   0  0  0  0  0  1  0  0  0  0  0  0
  -27.5550  -32.4640   25.7210 C   0  0  0  0  0  1  0  0  0  0  0  0
  -25.5800  -33.8660   24.1310 N   0  0  0  0  0  0  0  0  0  0  0  0
  -25.9070  -34.9290   23.3860 C   0  0  0  0  0  0  0  0  0  0  0  0
  -26.5740  -34.8430   22.3510 O   0  0  0  0  0  0  0  0  0  0  0  0
  -24.9890  -34.0070   24.9370 H   0  0  0  0  0  0  0  0  0  0  0  0
  -24.1740  -36.7210   23.0600 C   0  0  0  0  0  1  0  0  0  0  0  0
  -25.4170  -36.3090   23.8640 C   0  0  0  0  0  3  0  0  0  0  0  0
  -27.5450  -37.1890   24.7130 C   0  0  0  0  0  1  0  0  0  0  0  0
  -26.4470  -37.3660   23.7670 N   0  0  0  0  0  0  0  0  0  0  0  0
  -26.0380  -38.2820   23.9240 H   0  0  0  0  0  0  0  0  0  0  0  0
  1  9  1  0
  1  2  1  0
  2  4  1  0
  2 50  1  0
  3  1  2  0
  5  7  1  0
  6  9  2  0
  6  8  1  0
  8  5  2  0
  9 10  1  0
 10  7  2  0
 11 19  1  0
 12 17  1  0
 13 14  1  0
 13 12  1  0
 15 14  1  0
 15 24  1  0
 15 16  1  0
 17 11  1  0
 17 16  1  0
 18 11  2  0
 19  8  1  0
 19 20  1  0
 21 22  2  0
 22 41  1  0
 23 22  1  0
 23 26  1  0
 24 25  1  0
 24 21  1  0
 25 23  2  0
 26 27  1  0
 27 28  2  0
 29 32  1  0
 29 28  1  0
 30 29  2  0
 31 30  1  0
 31 26  2  0
 32 33  1  0
 33 34  1  0
 34 35  2  0
 36 35  1  0
 36 40  1  0
 37 36  2  0
 38 33  2  0
 38 37  1  0
 39 38  1  0
 41 42  1  0
 42 45  1  0
 42 44  1  0
 43 41  2  0
 46 47  1  0
 46 21  1  0
 48 46  1  0
 50 49  1  0
 51 50  1  0
 52 53  1  0
 52 51  1  0
 54 65  2  0
 55 53  1  0
 55 60  1  0
 56 64  1  0
 56 66  1  0
 57 63  1  0
 57 59  1  0
 58 64  1  0
 59 58  1  0
 60 59  2  0
 61 62  1  0
 61 55  2  0
 62 57  2  0
 63 56  1  0
 64 54  1  0
 66 68  2  0
 67 66  1  0
 69 67  1  0
 70 79  2  0
 70 75  1  0
 71 67  1  0
 71 75  1  0
 72 71  1  0
 73 74  1  0
 73 72  1  0
 74 70  1  0
 75 76  2  0
 76 77  1  0
 78 77  2  0
 79 78  1  0
 80 54  1  0
 80 85  1  0
 80 81  1  0
 81 84  1  1
 81 82  1  0
 83 81  1  0
 85 88  1  0
 86 90  1  0
 86 85  1  0
 87 86  2  0
 90 89  1  0
 92 90  1  0
 92 93  1  0
 92 91  1  0
M  ISO  4  11 100  19 100  52 101  53 101
M  END
>  <TORSDO>  (55) 
F 20

>  <SCORE>  (55) 
-13.577

>  <name>  (55) 
54

>  <ligand_id>  (55) 
54

>  <original_smiles>  (55) 
[H]c1nc(C(=O)N([H])C([H])(C([H])([H])[H])C([H])([H])C([H])([H])Oc2c([H])c([H])c3c(c2[H])C([H])([H])N(C(=O)C([H])(N([H])C(=O)C([H])(N([H])C([H])([H])[H])C([H])([H])[H])C(C([H])([H])[H])(C([H])([H])[H])C([H])([H])[H])C([H])(C(=O)N([H])C2([H])c4c([H])c([H])c([H])c([H])c4C([H])([H])C([H])([H])C2([H])[H])C3([H])[H])c([H])c(N([H])C(=O)N2C([H])([H])C([H])([H])C([H])([H])C([H])(n3nc(-c4c([H])c([H])c(Oc5c([H])c([H])c(F)c([H])c5F)c([H])c4[H])c(C(=O)N([H])[H])c3N([H])[H])C2([H])[H])c1[H]

>  <smiles>  (55) 
[H]c1nc(C(=O)N([H])C([H])(C([H])([H])[H])C([H])([H])C([H])([H])Oc2c([H])c([H])c3c(c2[H])C([H])([H])N(C(=O)C([H])(N([H])C(=O)C([H])(N([H])C([H])([H])[H])C([H])([H])[H])C(C([H])([H])[H])(C([H])([H])[H])C([H])([H])[H])C([H])(C(=O)N([H])C2([H])c4c([H])c([H])c([H])c([H])c4C([H])([H])C([H])([H])C2([H])[H])C3([H])[H])c([H])c(N([H])C(=O)N2C([H])([H])C([H])([H])C([H])([H])C([H])(n3nc(-c4c([H])c([H])c(Oc5c([H])c([H])c(F)c([H])c5F)c([H])c4[H])c(C(=O)N([H])[H])c3N([H])[H])C2([H])[H])c1[H]

$$$$
55:0:0
     RDKit          3D

 93101  0  0  1  0  0  0  0  0999 V2000
  -29.4570  -21.6930   22.5330 C   0  0  0  0  0  1  0  0  0  0  0  0
  -29.2940  -21.7550   21.0000 C   0  0  0  0  0  3  0  0  0  0  0  0
  -30.3060  -20.8830   20.3840 N   0  0  0  0  0  0  0  0  0  0  0  0
  -31.0850  -21.3710   19.9480 H   0  0  0  0  0  0  0  0  0  0  0  0
  -30.7190  -14.5530   20.3540 C   0  0  0  0  0  0  0  0  0  0  0  0
  -30.3650  -12.4070   19.1790 C   0  0  0  0  0  2  0  0  0  0  0  0
  -29.4240  -12.6510   17.9840 C   0  0  0  0  0  2  0  0  0  0  0  0
  -27.9530  -12.5210   18.4210 C   0  0  0  0  0  2  0  0  0  0  0  0
  -27.6340  -13.3290   19.7070 C   0  0  0  0  0  3  0  0  0  0  0  0
  -28.7000  -13.0980   20.8050 C   0  0  0  0  0  2  0  0  0  0  0  0
  -30.0190  -13.3910   20.2230 N   0  0  0  0  0  0  0  0  0  0  0  0
  -31.8460  -14.6710   19.8670 O   0  0  0  0  0  0  0  0  0  0  0  0
  -31.6420  -18.8230   20.2650 C   0  0  0  0  0  0  0  0  0  0  0  0
  -30.4780  -19.4930   20.5720 C   0  0  0  0  0  0  0  0  0  0  0  0
  -30.3780  -16.9970   20.8230 C   0  0  0  0  0  0  0  0  0  0  0  0
  -32.9100  -19.4230   19.7410 C   0  0  0  0  0  1  0  0  0  0  0  0
  -31.5790  -17.4380   20.4340 N   0  0  0  0  0  0  0  0  0  0  0  0
  -30.0560  -15.5960   20.9130 N   0  0  0  0  0  0  0  0  0  0  0  0
  -29.2550  -18.3480   21.1360 S   0  0  0  0  0  0  0  0  0  0  0  0
  -29.1410  -15.3760   21.2750 H   0  0  0  0  0  0  0  0  0  0  0  0
  -25.2360  -13.9270   20.4210 C   0  0  0  0  0  0  0  0  0  0  0  0
  -24.1750  -13.1540   20.8010 C   0  0  0  0  0  0  0  0  0  0  0  0
  -24.6420  -11.8040   20.7770 C   0  0  0  0  0  0  0  0  0  0  0  0
  -26.2850  -13.0500   20.1920 N   0  0  0  0  0  0  0  0  0  0  0  0
  -25.9300  -11.7680   20.4630 N   0  0  0  0  0  0  0  0  0  0  0  0
  -23.9220  -10.5400   20.9800 C   0  0  0  0  0  0  0  0  0  0  0  0
  -24.3630   -9.5770   21.9150 C   0  0  0  0  0  3  0  0  0  0  0  0
  -23.6420   -8.3800   22.1060 C   0  0  0  0  0  3  0  0  0  0  0  0
  -22.4650   -8.1350   21.3600 C   0  0  0  0  0  0  0  0  0  0  0  0
  -22.0430   -9.0850   20.4120 C   0  0  0  0  0  3  0  0  0  0  0  0
  -22.7650  -10.2750   20.2210 C   0  0  0  0  0  3  0  0  0  0  0  0
  -21.7150   -6.9880   21.4580 O   0  0  0  0  0  0  0  0  0  0  0  0
  -21.6790   -6.2480   22.6120 C   0  0  0  0  0  0  0  0  0  0  0  0
  -21.2670   -6.8050   23.8430 C   0  0  0  0  0  3  0  0  0  0  0  0
  -21.1800   -5.9930   24.9920 C   0  0  0  0  0  3  0  0  0  0  0  0
  -21.4940   -4.6230   24.9090 C   0  0  0  0  0  0  0  0  0  0  0  0
  -21.8980   -4.0650   23.6840 C   0  0  0  0  0  3  0  0  0  0  0  0
  -21.9870   -4.8760   22.5390 C   0  0  0  0  0  0  0  0  0  0  0  0
  -22.3570   -4.3280   21.3560 F   0  0  0  0  0  0  0  0  0  0  0  0
  -21.4040   -3.8390   26.0090 F   0  0  0  0  0  0  0  0  0  0  0  0
  -22.7770  -13.6260   21.0790 C   0  0  0  0  0  0  0  0  0  0  0  0
  -22.0580  -12.9320   21.9510 N   0  0  0  0  0  0  0  0  0  0  0  0
  -22.3330  -14.6480   20.5550 O   0  0  0  0  0  0  0  0  0  0  0  0
  -22.4300  -12.1010   22.3910 H   0  0  0  0  0  0  0  0  0  0  0  0
  -21.1210  -13.2310   22.1820 H   0  0  0  0  0  0  0  0  0  0  0  0
  -25.3940  -15.2980   20.2300 N   0  0  0  0  0  0  0  0  0  0  0  0
  -24.6190  -15.9450   20.3230 H   0  0  0  0  0  0  0  0  0  0  0  0
  -26.2300  -15.7340   19.8620 H   0  0  0  0  0  0  0  0  0  0  0  0
  -29.4770  -23.2050   20.4250 C   0  0  0  0  0  2  0  0  0  0  0  0
  -28.1040  -24.7460   22.0250 C   0  0  0  0  0  1  0  0  0  0  0  0
  -28.3590  -24.3000   20.5720 C   0  0  0  0  0  3  0  0  0  0  0  0
  -28.6700  -25.5270   19.6470 C   0  0  0  0  0  2  0  0  0  0  0  0
  -28.4830  -26.8390   20.2040 O   0  0  0  0  0  0  0  0  0  0  0  0
  -24.6030  -31.9310   23.2380 C   0  0  0  0  0  0  0  0  0  0  0  0
  -27.2720  -27.5030   20.1550 C   0  0  0  0  0  0  0  0  0  0  0  0
  -23.3980  -30.5230   21.5970 C   0  0  0  0  0  3  0  0  0  0  0  0
  -24.8560  -28.9840   20.1720 C   0  0  0  0  0  0  0  0  0  0  0  0
  -25.9170  -30.8960   21.3900 C   0  0  0  0  0  2  0  0  0  0  0  0
  -26.0090  -29.5230   20.7530 C   0  0  0  0  0  0  0  0  0  0  0  0
  -27.2140  -28.7870   20.7430 C   0  0  0  0  0  3  0  0  0  0  0  0
  -26.0990  -26.9720   19.5730 C   0  0  0  0  0  3  0  0  0  0  0  0
  -24.8960  -27.7070   19.5810 C   0  0  0  0  0  3  0  0  0  0  0  0
  -23.6050  -29.8320   20.2210 C   0  0  0  0  0  2  0  0  0  0  0  0
  -24.6580  -31.1310   22.1350 N   0  0  0  0  0  0  0  0  0  0  0  0
  -23.5240  -32.2000   23.7830 O   0  0  0  0  0  0  0  0  0  0  0  0
  -22.7520  -29.5020   22.5600 C   0  0  0  0  0  0  0  0  0  0  0  0
  -21.4300  -29.3110   22.4320 N   0  0  0  0  0  0  0  0  0  0  0  0
  -23.4380  -28.8840   23.3800 O   0  0  0  0  0  0  0  0  0  0  0  0
  -20.9360  -29.8630   21.7450 H   0  0  0  0  0  0  0  0  0  0  0  0
  -18.0700  -28.0800   22.9360 C   0  0  0  0  0  0  0  0  0  0  0  0
  -20.6230  -28.3670   23.2070 C   0  0  0  0  0  3  0  0  0  0  0  0
  -20.7420  -26.9350   22.6360 C   0  0  0  0  0  2  0  0  0  0  0  0
  -19.6470  -26.5970   21.6210 C   0  0  0  0  0  2  0  0  0  0  0  0
  -18.2600  -26.7290   22.2610 C   0  0  0  0  0  2  0  0  0  0  0  0
  -19.1810  -28.8550   23.3640 C   0  0  0  0  0  0  0  0  0  0  0  0
  -18.9510  -30.1170   23.9520 C   0  0  0  0  0  3  0  0  0  0  0  0
  -17.6450  -30.6110   24.1110 C   0  0  0  0  0  3  0  0  0  0  0  0
  -16.5470  -29.8380   23.6930 C   0  0  0  0  0  3  0  0  0  0  0  0
  -16.7610  -28.5700   23.1200 C   0  0  0  0  0  3  0  0  0  0  0  0
  -25.8890  -32.5670   23.8560 C   0  0  0  0  0  3  0  0  0  0  0  0
  -26.4150  -31.8000   25.1320 C   0  0  1  0  0  0  0  0  0  0  0  0
  -25.3230  -31.5570   26.2020 C   0  0  0  0  0  1  0  0  0  0  0  0
  -27.0040  -30.4260   24.7390 C   0  0  0  0  0  1  0  0  0  0  0  0
  -27.5680  -32.5980   25.7870 C   0  0  0  0  0  1  0  0  0  0  0  0
  -25.5810  -33.9660   24.1800 N   0  0  0  0  0  0  0  0  0  0  0  0
  -25.9220  -35.0150   23.4190 C   0  0  0  0  0  0  0  0  0  0  0  0
  -26.5990  -34.9090   22.3930 O   0  0  0  0  0  0  0  0  0  0  0  0
  -24.9780  -34.1270   24.9730 H   0  0  0  0  0  0  0  0  0  0  0  0
  -24.1940  -36.8060   23.0440 C   0  0  0  0  0  1  0  0  0  0  0  0
  -25.4290  -36.4050   23.8670 C   0  0  0  0  0  3  0  0  0  0  0  0
  -27.5580  -37.2810   24.7150 C   0  0  0  0  0  1  0  0  0  0  0  0
  -26.4610  -37.4610   23.7680 N   0  0  0  0  0  0  0  0  0  0  0  0
  -26.0550  -38.3780   23.9310 H   0  0  0  0  0  0  0  0  0  0  0  0
  2  1  1  0
  3 14  1  0
  3  2  1  0
  4  3  1  0
  5 18  1  0
  6 11  1  0
  7  8  1  0
  7  6  1  0
  9  8  1  0
  9 24  1  0
  9 10  1  0
 11  5  1  0
 11 10  1  0
 12  5  2  0
 13 17  1  0
 13 14  2  0
 14 19  1  0
 15 18  1  0
 15 19  1  0
 16 13  1  0
 17 15  2  0
 18 20  1  0
 21 22  2  0
 22 41  1  0
 23 22  1  0
 23 26  1  0
 24 21  1  0
 24 25  1  0
 25 23  2  0
 26 27  1  0
 27 28  2  0
 29 32  1  0
 29 28  1  0
 30 29  2  0
 31 30  1  0
 31 26  2  0
 32 33  1  0
 33 34  1  0
 34 35  2  0
 36 35  1  0
 36 40  1  0
 37 36  2  0
 38 33  2  0
 38 37  1  0
 39 38  1  0
 41 42  1  0
 42 45  1  0
 42 44  1  0
 43 41  2  0
 46 47  1  0
 46 21  1  0
 48 46  1  0
 49 51  1  0
 49  2  1  0
 51 50  1  0
 52 53  1  0
 52 51  1  0
 54 65  2  0
 55 53  1  0
 55 60  1  0
 56 64  1  0
 56 66  1  0
 57 63  1  0
 57 59  1  0
 58 64  1  0
 59 58  1  0
 60 59  2  0
 61 62  1  0
 61 55  2  0
 62 57  2  0
 63 56  1  0
 64 54  1  0
 66 68  2  0
 67 66  1  0
 69 67  1  0
 70 79  2  0
 70 75  1  0
 71 67  1  0
 71 75  1  0
 72 71  1  0
 73 74  1  0
 73 72  1  0
 74 70  1  0
 75 76  2  0
 76 77  1  0
 78 77  2  0
 79 78  1  0
 80 54  1  0
 80 85  1  0
 80 81  1  0
 81 84  1  1
 81 82  1  0
 83 81  1  0
 85 88  1  0
 86 90  1  0
 86 85  1  0
 87 86  2  0
 90 89  1  0
 92 90  1  0
 92 93  1  0
 92 91  1  0
M  ISO  4   5 100  18 100  52 101  53 101
M  END
>  <TORSDO>  (56) 
F 20

>  <SCORE>  (56) 
-13.752

>  <name>  (56) 
55

>  <ligand_id>  (56) 
55

>  <original_smiles>  (56) 
[H]c1c([H])c([H])c2c(c1[H])C([H])([H])C([H])([H])C([H])([H])C2([H])N([H])C(=O)C1([H])N(C(=O)C([H])(N([H])C(=O)C([H])(N([H])C([H])([H])[H])C([H])([H])[H])C(C([H])([H])[H])(C([H])([H])[H])C([H])([H])[H])C([H])([H])c2c([H])c(OC([H])([H])C([H])(C([H])([H])[H])C([H])([H])C([H])(N([H])c3sc(N([H])C(=O)N4C([H])([H])C([H])([H])C([H])([H])C([H])(n5nc(-c6c([H])c([H])c(Oc7c([H])c([H])c(F)c([H])c7F)c([H])c6[H])c(C(=O)N([H])[H])c5N([H])[H])C4([H])[H])nc3C([H])([H])[H])C([H])([H])[H])c([H])c([H])c2C1([H])[H]

>  <smiles>  (56) 
[H]c1c([H])c([H])c2c(c1[H])C([H])([H])C([H])([H])C([H])([H])C2([H])N([H])C(=O)C1([H])N(C(=O)C([H])(N([H])C(=O)C([H])(N([H])C([H])([H])[H])C([H])([H])[H])C(C([H])([H])[H])(C([H])([H])[H])C([H])([H])[H])C([H])([H])c2c([H])c(OC([H])([H])C([H])(C([H])([H])[H])C([H])([H])C([H])(N([H])c3sc(N([H])C(=O)N4C([H])([H])C([H])([H])C([H])([H])C([H])(n5nc(-c6c([H])c([H])c(Oc7c([H])c([H])c(F)c([H])c7F)c([H])c6[H])c(C(=O)N([H])[H])c5N([H])[H])C4([H])[H])nc3C([H])([H])[H])C([H])([H])[H])c([H])c([H])c2C1([H])[H]

$$$$
56:0:0
     RDKit          3D

 90 98  0  0  1  0  0  0  0  0999 V2000
  -28.0670  -18.4390   20.1720 C   0  0  0  0  0  3  0  0  0  0  0  0
  -29.3910  -18.5960   20.4910 C   0  0  0  0  0  0  0  0  0  0  0  0
  -28.6710  -20.8740   20.3030 C   0  0  0  0  0  0  0  0  0  0  0  0
  -29.7070  -20.0180   20.5830 N   0  0  0  0  0  0  0  0  0  0  0  0
  -28.5270  -22.3150   20.2400 N   0  0  0  0  0  0  0  0  0  0  0  0
  -27.2150  -19.9510   19.9340 S   0  0  0  0  0  0  0  0  0  0  0  0
  -27.6000  -22.4710   19.8560 H   0  0  0  0  0  0  0  0  0  0  0  0
  -30.3980  -17.3930   20.6950 C   0  0  0  0  0  2  0  0  0  0  0  0
  -30.6430  -14.7940   20.4140 C   0  0  0  0  0  0  0  0  0  0  0  0
  -30.4050  -12.5530   19.3300 C   0  0  0  0  0  2  0  0  0  0  0  0
  -29.4670  -12.6680   18.1090 C   0  0  0  0  0  2  0  0  0  0  0  0
  -27.9970  -12.4940   18.5370 C   0  0  0  0  0  2  0  0  0  0  0  0
  -27.6320  -13.3460   19.7830 C   0  0  0  0  0  3  0  0  0  0  0  0
  -28.6940  -13.2250   20.8980 C   0  0  0  0  0  2  0  0  0  0  0  0
  -29.9900  -13.5840   20.3110 N   0  0  0  0  0  0  0  0  0  0  0  0
  -31.8240  -14.8810   20.0690 O   0  0  0  0  0  0  0  0  0  0  0  0
  -29.9170  -15.9380   20.7100 N   0  0  0  0  0  0  0  0  0  0  0  0
  -28.9530  -15.7960   20.9640 H   0  0  0  0  0  0  0  0  0  0  0  0
  -25.2400  -13.9230   20.5060 C   0  0  0  0  0  0  0  0  0  0  0  0
  -24.1780  -13.1450   20.8760 C   0  0  0  0  0  0  0  0  0  0  0  0
  -24.6450  -11.7960   20.8390 C   0  0  0  0  0  0  0  0  0  0  0  0
  -26.2880  -13.0490   20.2680 N   0  0  0  0  0  0  0  0  0  0  0  0
  -25.9370  -11.7630   20.5310 N   0  0  0  0  0  0  0  0  0  0  0  0
  -23.9210  -10.5310   21.0220 C   0  0  0  0  0  0  0  0  0  0  0  0
  -24.3380   -9.5720   21.9700 C   0  0  0  0  0  3  0  0  0  0  0  0
  -23.6160   -8.3710   22.1400 C   0  0  0  0  0  3  0  0  0  0  0  0
  -22.4610   -8.1220   21.3620 C   0  0  0  0  0  0  0  0  0  0  0  0
  -22.0610   -9.0700   20.4030 C   0  0  0  0  0  3  0  0  0  0  0  0
  -22.7850  -10.2630   20.2310 C   0  0  0  0  0  3  0  0  0  0  0  0
  -21.7100   -6.9740   21.4430 O   0  0  0  0  0  0  0  0  0  0  0  0
  -21.6180   -6.2530   22.6060 C   0  0  0  0  0  0  0  0  0  0  0  0
  -21.0880   -6.8140   23.7900 C   0  0  0  0  0  3  0  0  0  0  0  0
  -20.9490   -6.0180   24.9430 C   0  0  0  0  0  3  0  0  0  0  0  0
  -21.3250   -4.6620   24.9140 C   0  0  0  0  0  0  0  0  0  0  0  0
  -21.8450   -4.1000   23.7360 C   0  0  0  0  0  3  0  0  0  0  0  0
  -21.9880   -4.8940   22.5830 C   0  0  0  0  0  0  0  0  0  0  0  0
  -22.4720   -4.3430   21.4440 F   0  0  0  0  0  0  0  0  0  0  0  0
  -21.1830   -3.8940   26.0200 F   0  0  0  0  0  0  0  0  0  0  0  0
  -22.7790  -13.6170   21.1450 C   0  0  0  0  0  0  0  0  0  0  0  0
  -22.0510  -12.9160   22.0070 N   0  0  0  0  0  0  0  0  0  0  0  0
  -22.3390  -14.6420   20.6250 O   0  0  0  0  0  0  0  0  0  0  0  0
  -22.4200  -12.0890   22.4510 H   0  0  0  0  0  0  0  0  0  0  0  0
  -21.1110  -13.2130   22.2290 H   0  0  0  0  0  0  0  0  0  0  0  0
  -25.3980  -15.2930   20.3230 N   0  0  0  0  0  0  0  0  0  0  0  0
  -24.6070  -15.9260   20.3810 H   0  0  0  0  0  0  0  0  0  0  0  0
  -26.1960  -15.6950   19.8540 H   0  0  0  0  0  0  0  0  0  0  0  0
  -29.0700  -23.6900   20.5850 C   0  0  0  0  0  2  0  0  0  0  0  0
  -28.6390  -24.9400   18.4030 C   0  0  0  0  0  1  0  0  0  0  0  0
  -28.2870  -24.9480   19.9030 C   0  0  0  0  0  3  0  0  0  0  0  0
  -28.4140  -26.3890   20.3580 O   0  0  0  0  0  0  0  0  0  0  0  0
  -24.5940  -31.8640   23.2670 C   0  0  0  0  0  0  0  0  0  0  0  0
  -27.3150  -27.2890   20.2550 C   0  0  0  0  0  0  0  0  0  0  0  0
  -23.4500  -30.4680   21.5880 C   0  0  0  0  0  3  0  0  0  0  0  0
  -24.9520  -28.9400   20.1870 C   0  0  0  0  0  0  0  0  0  0  0  0
  -25.9980  -30.7900   21.4830 C   0  0  0  0  0  2  0  0  0  0  0  0
  -26.1050  -29.4120   20.8260 C   0  0  0  0  0  0  0  0  0  0  0  0
  -27.2870  -28.5990   20.8540 C   0  0  0  0  0  3  0  0  0  0  0  0
  -26.1330  -26.9010   19.5780 C   0  0  0  0  0  3  0  0  0  0  0  0
  -24.9730  -27.6930   19.5510 C   0  0  0  0  0  3  0  0  0  0  0  0
  -23.7100  -29.8090   20.2080 C   0  0  0  0  0  2  0  0  0  0  0  0
  -24.6990  -31.0600   22.1690 N   0  0  0  0  0  0  0  0  0  0  0  0
  -23.4930  -32.1290   23.7720 O   0  0  0  0  0  0  0  0  0  0  0  0
  -22.7660  -29.4400   22.5210 C   0  0  0  0  0  0  0  0  0  0  0  0
  -21.4390  -29.2750   22.3780 N   0  0  0  0  0  0  0  0  0  0  0  0
  -23.4300  -28.7940   23.3370 O   0  0  0  0  0  0  0  0  0  0  0  0
  -20.9630  -29.8470   21.6950 H   0  0  0  0  0  0  0  0  0  0  0  0
  -18.0400  -28.1330   22.8630 C   0  0  0  0  0  0  0  0  0  0  0  0
  -20.6050  -28.3310   23.1240 C   0  0  0  0  0  3  0  0  0  0  0  0
  -20.6740  -26.9170   22.5030 C   0  0  0  0  0  2  0  0  0  0  0  0
  -19.5590  -26.6490   21.4870 C   0  0  0  0  0  2  0  0  0  0  0  0
  -18.1840  -26.8030   22.1430 C   0  0  0  0  0  2  0  0  0  0  0  0
  -19.1760  -28.8580   23.3100 C   0  0  0  0  0  0  0  0  0  0  0  0
  -18.9860  -30.1050   23.9440 C   0  0  0  0  0  3  0  0  0  0  0  0
  -17.6930  -30.6260   24.1330 C   0  0  0  0  0  3  0  0  0  0  0  0
  -16.5710  -29.8990   23.7020 C   0  0  0  0  0  3  0  0  0  0  0  0
  -16.7460  -28.6530   23.0730 C   0  0  0  0  0  3  0  0  0  0  0  0
  -25.8520  -32.5060   23.9280 C   0  0  0  0  0  3  0  0  0  0  0  0
  -26.3110  -31.7570   25.2390 C   0  0  1  0  0  0  0  0  0  0  0  0
  -25.1730  -31.5390   26.2630 C   0  0  0  0  0  1  0  0  0  0  0  0
  -26.9090  -30.3720   24.8970 C   0  0  0  0  0  1  0  0  0  0  0  0
  -27.4350  -32.5620   25.9340 C   0  0  0  0  0  1  0  0  0  0  0  0
  -25.5320  -33.9100   24.2230 N   0  0  0  0  0  0  0  0  0  0  0  0
  -25.8830  -34.9490   23.4540 C   0  0  0  0  0  0  0  0  0  0  0  0
  -26.5760  -34.8270   22.4410 O   0  0  0  0  0  0  0  0  0  0  0  0
  -24.9200  -34.0780   25.0070 H   0  0  0  0  0  0  0  0  0  0  0  0
  -24.1650  -36.7360   23.0240 C   0  0  0  0  0  1  0  0  0  0  0  0
  -25.3850  -36.3470   23.8740 C   0  0  0  0  0  3  0  0  0  0  0  0
  -27.4900  -37.2550   24.7540 C   0  0  0  0  0  1  0  0  0  0  0  0
  -26.4210  -37.3980   23.7690 N   0  0  0  0  0  0  0  0  0  0  0  0
  -26.0100  -38.3210   23.8780 H   0  0  0  0  0  0  0  0  0  0  0  0
  1  2  2  0
  2  4  1  0
  2  8  1  0
  3  4  2  0
  5  3  1  0
  5 47  1  0
  6  1  1  0
  6  3  1  0
  7  5  1  0
  8 17  1  0
  9 17  1  0
 10 15  1  0
 11 12  1  0
 11 10  1  0
 13 12  1  0
 13 22  1  0
 13 14  1  0
 15  9  1  0
 15 14  1  0
 16  9  2  0
 17 18  1  0
 19 20  2  0
 20 39  1  0
 21 20  1  0
 21 24  1  0
 22 19  1  0
 22 23  1  0
 23 21  2  0
 24 25  1  0
 25 26  2  0
 27 30  1  0
 27 26  1  0
 28 27  2  0
 29 28  1  0
 29 24  2  0
 30 31  1  0
 31 32  1  0
 32 33  2  0
 34 33  1  0
 34 38  1  0
 35 34  2  0
 36 31  2  0
 36 35  1  0
 37 36  1  0
 39 40  1  0
 40 43  1  0
 40 42  1  0
 41 39  2  0
 44 45  1  0
 44 19  1  0
 46 44  1  0
 49 48  1  0
 49 50  1  0
 49 47  1  0
 51 62  2  0
 52 50  1  0
 52 57  1  0
 53 61  1  0
 53 63  1  0
 54 60  1  0
 54 56  1  0
 55 61  1  0
 56 57  2  0
 56 55  1  0
 58 52  2  0
 59 58  1  0
 59 54  2  0
 60 53  1  0
 61 51  1  0
 63 65  2  0
 64 63  1  0
 66 64  1  0
 67 76  2  0
 67 72  1  0
 68 64  1  0
 68 72  1  0
 69 68  1  0
 70 71  1  0
 70 69  1  0
 71 67  1  0
 72 73  2  0
 73 74  1  0
 75 74  2  0
 76 75  1  0
 77 51  1  0
 77 82  1  0
 77 78  1  0
 78 81  1  1
 78 79  1  0
 80 78  1  0
 82 85  1  0
 83 87  1  0
 83 82  1  0
 84 83  2  0
 87 86  1  0
 89 87  1  0
 89 90  1  0
 89 88  1  0
M  ISO  4   9 100  17 100  49 101  50 101
M  END
>  <TORSDO>  (57) 
F 19

>  <SCORE>  (57) 
-13.857

>  <name>  (57) 
56

>  <ligand_id>  (57) 
56

>  <original_smiles>  (57) 
[H]c1sc(N([H])C([H])([H])C([H])(Oc2c([H])c([H])c3c(c2[H])C([H])([H])N(C(=O)C([H])(N([H])C(=O)C([H])(N([H])C([H])([H])[H])C([H])([H])[H])C(C([H])([H])[H])(C([H])([H])[H])C([H])([H])[H])C([H])(C(=O)N([H])C2([H])c4c([H])c([H])c([H])c([H])c4C([H])([H])C([H])([H])C2([H])[H])C3([H])[H])C([H])([H])[H])nc1C([H])([H])N([H])C(=O)N1C([H])([H])C([H])([H])C([H])([H])C([H])(n2nc(-c3c([H])c([H])c(Oc4c([H])c([H])c(F)c([H])c4F)c([H])c3[H])c(C(=O)N([H])[H])c2N([H])[H])C1([H])[H]

>  <smiles>  (57) 
[H]c1sc(N([H])C([H])([H])C([H])(Oc2c([H])c([H])c3c(c2[H])C([H])([H])N(C(=O)C([H])(N([H])C(=O)C([H])(N([H])C([H])([H])[H])C([H])([H])[H])C(C([H])([H])[H])(C([H])([H])[H])C([H])([H])[H])C([H])(C(=O)N([H])C2([H])c4c([H])c([H])c([H])c([H])c4C([H])([H])C([H])([H])C2([H])[H])C3([H])[H])C([H])([H])[H])nc1C([H])([H])N([H])C(=O)N1C([H])([H])C([H])([H])C([H])([H])C([H])(n2nc(-c3c([H])c([H])c(Oc4c([H])c([H])c(F)c([H])c4F)c([H])c3[H])c(C(=O)N([H])[H])c2N([H])[H])C1([H])[H]

$$$$
57:0:0
     RDKit          3D

 91 99  0  0  1  0  0  0  0  0999 V2000
  -29.0530  -20.8450   20.7270 C   0  0  0  0  0  0  0  0  0  0  0  0
  -30.2750  -15.2610   19.9420 C   0  0  0  0  0  0  0  0  0  0  0  0
  -30.1890  -12.8430   18.9600 C   0  0  0  0  0  2  0  0  0  0  0  0
  -29.1760  -12.6340   17.8070 C   0  0  0  0  0  2  0  0  0  0  0  0
  -27.7750  -12.3260   18.3610 C   0  0  0  0  0  2  0  0  0  0  0  0
  -27.4020  -13.2550   19.5410 C   0  0  0  0  0  3  0  0  0  0  0  0
  -28.5370  -13.4050   20.5760 C   0  0  0  0  0  2  0  0  0  0  0  0
  -29.6900  -13.9600   19.8490 N   0  0  0  0  0  0  0  0  0  0  0  0
  -31.4930  -15.2180   19.7070 O   0  0  0  0  0  0  0  0  0  0  0  0
  -29.8960  -17.9960   20.2530 C   0  0  0  0  0  0  0  0  0  0  0  0
  -29.5310  -16.5610   20.0600 N   0  0  0  0  0  0  0  0  0  0  0  0
  -29.0420  -19.2280   20.1790 N   0  0  0  0  0  4  0  0  0  0  0  0
  -31.0730  -18.2000   20.5440 O   0  0  0  0  0  0  0  0  0  0  0  0
  -28.5360  -16.4220   19.9910 H   0  0  0  0  0  0  0  0  0  0  0  0
  -28.1220  -18.9920   19.8330 H   0  0  0  0  0  0  0  0  0  0  0  0
  -25.0920  -13.7630   20.4860 C   0  0  0  0  0  0  0  0  0  0  0  0
  -24.0700  -12.9640   20.9130 C   0  0  0  0  0  0  0  0  0  0  0  0
  -24.5510  -11.6210   20.8200 C   0  0  0  0  0  0  0  0  0  0  0  0
  -26.1250  -12.9080   20.1470 N   0  0  0  0  0  0  0  0  0  0  0  0
  -25.8180  -11.6120   20.4170 N   0  0  0  0  0  0  0  0  0  0  0  0
  -23.8550  -10.3450   21.0320 C   0  0  0  0  0  0  0  0  0  0  0  0
  -24.3320   -9.3840   21.9480 C   0  0  0  0  0  3  0  0  0  0  0  0
  -23.6300   -8.1760   22.1490 C   0  0  0  0  0  3  0  0  0  0  0  0
  -22.4360   -7.9210   21.4340 C   0  0  0  0  0  0  0  0  0  0  0  0
  -21.9770   -8.8720   20.5050 C   0  0  0  0  0  3  0  0  0  0  0  0
  -22.6810  -10.0710   20.3020 C   0  0  0  0  0  3  0  0  0  0  0  0
  -21.7010   -6.7640   21.5460 O   0  0  0  0  0  0  0  0  0  0  0  0
  -21.6860   -6.0310   22.7050 C   0  0  0  0  0  0  0  0  0  0  0  0
  -21.2340   -6.5770   23.9270 C   0  0  0  0  0  3  0  0  0  0  0  0
  -21.1700   -5.7680   25.0790 C   0  0  0  0  0  3  0  0  0  0  0  0
  -21.5480   -4.4130   25.0100 C   0  0  0  0  0  0  0  0  0  0  0  0
  -21.9940   -3.8670   23.7930 C   0  0  0  0  0  3  0  0  0  0  0  0
  -22.0590   -4.6740   22.6440 C   0  0  0  0  0  0  0  0  0  0  0  0
  -22.4690   -4.1370   21.4690 F   0  0  0  0  0  0  0  0  0  0  0  0
  -21.4800   -3.6330   26.1140 F   0  0  0  0  0  0  0  0  0  0  0  0
  -22.6880  -13.4170   21.2870 C   0  0  0  0  0  0  0  0  0  0  0  0
  -22.0280  -12.6920   22.1820 N   0  0  0  0  0  0  0  0  0  0  0  0
  -22.2080  -14.4490   20.8220 O   0  0  0  0  0  0  0  0  0  0  0  0
  -22.4320  -11.8550   22.5780 H   0  0  0  0  0  0  0  0  0  0  0  0
  -21.1050  -12.9770   22.4770 H   0  0  0  0  0  0  0  0  0  0  0  0
  -25.2220  -15.1390   20.3240 N   0  0  0  0  0  0  0  0  0  0  0  0
  -24.4520  -15.7760   20.4980 H   0  0  0  0  0  0  0  0  0  0  0  0
  -26.0220  -15.5930   19.9030 H   0  0  0  0  0  0  0  0  0  0  0  0
  -31.5740  -21.1220   21.2020 C   0  0  0  0  0  3  0  0  0  0  0  0
  -31.8290  -21.5800   23.4050 C   0  0  0  0  0  3  0  0  0  0  0  0
  -30.2560  -21.0660   21.5930 C   0  0  0  0  0  0  0  0  0  0  0  0
  -32.4660  -21.4100   22.2430 N   0  0  0  0  0  0  0  0  0  0  0  0
  -30.0870  -21.3960   23.3020 S   0  0  0  0  0  0  0  0  0  0  0  0
  -28.7010  -22.4910   20.0080 C   0  0  0  0  0  2  0  0  0  0  0  0
  -28.1550  -24.1120   20.6780 C   0  0  0  0  0  2  0  0  0  0  0  0
  -28.3080  -25.7500   20.3750 O   0  0  0  0  0  0  0  0  0  0  0  0
  -24.6420  -31.8010   23.2070 C   0  0  0  0  0  0  0  0  0  0  0  0
  -27.2790  -26.8450   20.3540 C   0  0  0  0  0  0  0  0  0  0  0  0
  -23.4990  -30.3820   21.5540 C   0  0  0  0  0  3  0  0  0  0  0  0
  -24.9870  -28.7460   20.2090 C   0  0  0  0  0  0  0  0  0  0  0  0
  -26.0710  -30.5800   21.4850 C   0  0  0  0  0  2  0  0  0  0  0  0
  -26.1580  -29.1560   20.8560 C   0  0  0  0  0  0  0  0  0  0  0  0
  -27.3020  -28.2300   20.8950 C   0  0  0  0  0  3  0  0  0  0  0  0
  -26.0730  -26.5890   19.6670 C   0  0  0  0  0  3  0  0  0  0  0  0
  -24.9710  -27.4840   19.5930 C   0  0  0  0  0  3  0  0  0  0  0  0
  -23.7710  -29.6740   20.1990 C   0  0  0  0  0  2  0  0  0  0  0  0
  -24.7580  -30.9490   22.1360 N   0  0  0  0  0  0  0  0  0  0  0  0
  -23.5380  -32.1010   23.6890 O   0  0  0  0  0  0  0  0  0  0  0  0
  -22.7710  -29.4040   22.5140 C   0  0  0  0  0  0  0  0  0  0  0  0
  -21.4400  -29.2620   22.3690 N   0  0  0  0  0  0  0  0  0  0  0  0
  -23.4120  -28.7730   23.3580 O   0  0  0  0  0  0  0  0  0  0  0  0
  -20.9750  -29.8200   21.6660 H   0  0  0  0  0  0  0  0  0  0  0  0
  -18.0240  -28.1370   22.8600 C   0  0  0  0  0  0  0  0  0  0  0  0
  -20.5900  -28.3390   23.1310 C   0  0  0  0  0  3  0  0  0  0  0  0
  -20.6580  -26.9090   22.5470 C   0  0  0  0  0  2  0  0  0  0  0  0
  -19.5500  -26.6220   21.5270 C   0  0  0  0  0  2  0  0  0  0  0  0
  -18.1720  -26.7910   22.1700 C   0  0  0  0  0  2  0  0  0  0  0  0
  -19.1610  -28.8700   23.2980 C   0  0  0  0  0  0  0  0  0  0  0  0
  -18.9670  -30.1290   23.9070 C   0  0  0  0  0  3  0  0  0  0  0  0
  -17.6720  -30.6540   24.0820 C   0  0  0  0  0  3  0  0  0  0  0  0
  -16.5520  -29.9170   23.6590 C   0  0  0  0  0  3  0  0  0  0  0  0
  -16.7300  -28.6610   23.0540 C   0  0  0  0  0  3  0  0  0  0  0  0
  -25.8920  -32.4540   23.8710 C   0  0  0  0  0  3  0  0  0  0  0  0
  -26.3600  -31.7050   25.1800 C   0  0  1  0  0  0  0  0  0  0  0  0
  -25.2250  -31.4810   26.2090 C   0  0  0  0  0  1  0  0  0  0  0  0
  -26.9620  -30.3240   24.8430 C   0  0  0  0  0  1  0  0  0  0  0  0
  -27.4810  -32.5140   25.8730 C   0  0  0  0  0  1  0  0  0  0  0  0
  -25.5620  -33.8560   24.1820 N   0  0  0  0  0  0  0  0  0  0  0  0
  -25.8970  -34.9120   23.4280 C   0  0  0  0  0  0  0  0  0  0  0  0
  -26.5800  -34.8080   22.4050 O   0  0  0  0  0  0  0  0  0  0  0  0
  -24.9560  -34.0100   24.9750 H   0  0  0  0  0  0  0  0  0  0  0  0
  -24.1600  -36.6990   23.0610 C   0  0  0  0  0  1  0  0  0  0  0  0
  -25.4020  -36.3020   23.8770 C   0  0  0  0  0  3  0  0  0  0  0  0
  -27.5220  -37.2170   24.7150 C   0  0  0  0  0  1  0  0  0  0  0  0
  -26.4290  -37.3620   23.7570 N   0  0  0  0  0  0  0  0  0  0  0  0
  -26.0150  -38.2810   23.8870 H   0  0  0  0  0  0  0  0  0  0  0  0
  1 46  1  0
  2 11  1  0
  3  8  1  0
  4  5  1  0
  4  3  1  0
  6  5  1  0
  6 19  1  0
  6  7  1  0
  8  2  1  0
  8  7  1  0
  9  2  2  0
 10 13  2  0
 11 10  1  0
 12 10  1  0
 12  1  2  0
 14 11  1  0
 15 12  1  0
 16 17  2  0
 17 36  1  0
 18 17  1  0
 18 21  1  0
 19 20  1  0
 19 16  1  0
 20 18  2  0
 21 22  1  0
 22 23  2  0
 24 27  1  0
 24 23  1  0
 25 24  2  0
 26 25  1  0
 26 21  2  0
 27 28  1  0
 28 29  1  0
 29 30  2  0
 31 30  1  0
 31 35  1  0
 32 31  2  0
 33 28  2  0
 33 32  1  0
 34 33  1  0
 36 37  1  0
 37 40  1  0
 37 39  1  0
 38 36  2  0
 41 16  1  0
 41 42  1  0
 43 41  1  0
 44 46  2  0
 44 47  1  0
 46 48  1  0
 47 45  2  0
 48 45  1  0
 49 50  1  0
 49  1  1  0
 51 50  1  0
 52 63  2  0
 53 51  1  0
 53 58  1  0
 54 62  1  0
 54 64  1  0
 55 57  1  0
 56 62  1  0
 57 58  2  0
 57 56  1  0
 59 53  2  0
 60 59  1  0
 60 55  2  0
 61 55  1  0
 61 54  1  0
 62 52  1  0
 64 66  2  0
 65 64  1  0
 67 65  1  0
 68 77  2  0
 68 73  1  0
 69 65  1  0
 69 73  1  0
 70 69  1  0
 71 72  1  0
 71 70  1  0
 72 68  1  0
 73 74  2  0
 74 75  1  0
 76 75  2  0
 77 76  1  0
 78 52  1  0
 78 83  1  0
 78 79  1  0
 79 82  1  1
 79 80  1  0
 81 79  1  0
 83 86  1  0
 84 88  1  0
 84 83  1  0
 85 84  2  0
 88 87  1  0
 90 88  1  0
 90 91  1  0
 90 89  1  0
M  ISO  4   2 100  11 100  50 101  51 101
M  END
>  <TORSDO>  (58) 
F 19

>  <SCORE>  (58) 
-16.136

>  <name>  (58) 
57

>  <ligand_id>  (58) 
57

>  <original_smiles>  (58) 
[H]c1nc([H])c(C([H])(N([H])C(=O)N([H])C(=O)N2C([H])([H])C([H])([H])C([H])([H])C([H])(n3nc(-c4c([H])c([H])c(Oc5c([H])c([H])c(F)c([H])c5F)c([H])c4[H])c(C(=O)N([H])[H])c3N([H])[H])C2([H])[H])C([H])([H])C([H])([H])Oc2c([H])c([H])c3c(c2[H])C([H])([H])N(C(=O)C([H])(N([H])C(=O)C([H])(N([H])C([H])([H])[H])C([H])([H])[H])C(C([H])([H])[H])(C([H])([H])[H])C([H])([H])[H])C([H])(C(=O)N([H])C2([H])c4c([H])c([H])c([H])c([H])c4C([H])([H])C([H])([H])C2([H])[H])C3([H])[H])s1

>  <smiles>  (58) 
[H]c1nc([H])c(C([H])(N([H])C(=O)N([H])C(=O)N2C([H])([H])C([H])([H])C([H])([H])C([H])(n3nc(-c4c([H])c([H])c(Oc5c([H])c([H])c(F)c([H])c5F)c([H])c4[H])c(C(=O)N([H])[H])c3N([H])[H])C2([H])[H])C([H])([H])C([H])([H])Oc2c([H])c([H])c3c(c2[H])C([H])([H])N(C(=O)C([H])(N([H])C(=O)C([H])(N([H])C([H])([H])[H])C([H])([H])[H])C(C([H])([H])[H])(C([H])([H])[H])C([H])([H])[H])C([H])(C(=O)N([H])C2([H])c4c([H])c([H])c([H])c([H])c4C([H])([H])C([H])([H])C2([H])[H])C3([H])[H])s1

$$$$
58:0:0
     RDKit          3D

 98106  0  0  1  0  0  0  0  0999 V2000
  -28.9700  -22.4180   20.3260 C   0  0  0  0  0  3  0  0  0  0  0  0
  -30.0970  -22.5830   21.3620 C   0  0  0  0  0  0  0  0  0  0  0  0
  -31.0120  -23.3990   21.2230 O   0  0  0  0  0  0  0  0  0  0  0  0
  -30.1060  -21.5840   22.5240 C   0  0  0  0  0  2  0  0  0  0  0  0
  -31.1410  -20.9300   24.7380 C   0  0  0  0  0  1  0  0  0  0  0  0
  -29.8320  -23.0910   24.5680 C   0  0  0  0  0  1  0  0  0  0  0  0
  -30.7510  -22.1040   23.8260 C   0  0  0  0  0  3  0  0  0  0  0  0
  -29.3340  -21.2910   19.3970 N   0  0  0  0  0  0  0  0  0  0  0  0
  -29.9880  -21.6040   18.6840 H   0  0  0  0  0  0  0  0  0  0  0  0
  -30.5750  -14.6750   19.9530 C   0  0  0  0  0  0  0  0  0  0  0  0
  -30.3100  -12.4210   18.9270 C   0  0  0  0  0  2  0  0  0  0  0  0
  -29.2800  -12.5330   17.7810 C   0  0  0  0  0  2  0  0  0  0  0  0
  -27.8430  -12.3630   18.3120 C   0  0  0  0  0  2  0  0  0  0  0  0
  -27.5670  -13.2300   19.5680 C   0  0  0  0  0  3  0  0  0  0  0  0
  -28.7040  -13.0910   20.6070 C   0  0  0  0  0  2  0  0  0  0  0  0
  -29.9680  -13.4420   19.9400 N   0  0  0  0  0  0  0  0  0  0  0  0
  -31.7060  -14.8090   19.4690 O   0  0  0  0  0  0  0  0  0  0  0  0
  -28.6030  -19.1210   20.5380 C   0  0  0  0  0  3  0  0  0  0  0  0
  -29.4910  -19.8940   19.7420 C   0  0  0  0  0  0  0  0  0  0  0  0
  -30.5640  -19.1010   19.2360 C   0  0  0  0  0  0  0  0  0  0  0  0
  -29.7740  -17.1240   20.1910 C   0  0  0  0  0  0  0  0  0  0  0  0
  -31.6720  -19.7240   18.4070 C   0  0  0  0  0  1  0  0  0  0  0  0
  -28.7480  -17.7770   20.7470 N   0  0  0  0  0  0  0  0  0  0  0  0
  -30.6890  -17.7600   19.4540 N   0  0  0  0  0  0  0  0  0  0  0  0
  -29.8060  -15.7240   20.4000 N   0  0  0  0  0  0  0  0  0  0  0  0
  -28.9900  -15.4000   20.8900 H   0  0  0  0  0  0  0  0  0  0  0  0
  -25.2530  -13.8200   20.5170 C   0  0  0  0  0  0  0  0  0  0  0  0
  -24.2090  -13.0400   20.9350 C   0  0  0  0  0  0  0  0  0  0  0  0
  -24.6460  -11.6860   20.7980 C   0  0  0  0  0  0  0  0  0  0  0  0
  -26.2600  -12.9390   20.1510 N   0  0  0  0  0  0  0  0  0  0  0  0
  -25.9060  -11.6500   20.3830 N   0  0  0  0  0  0  0  0  0  0  0  0
  -23.9190  -10.4240   20.9840 C   0  0  0  0  0  0  0  0  0  0  0  0
  -24.3580   -9.4440   21.9020 C   0  0  0  0  0  3  0  0  0  0  0  0
  -23.6290   -8.2480   22.0750 C   0  0  0  0  0  3  0  0  0  0  0  0
  -22.4470   -8.0230   21.3290 C   0  0  0  0  0  0  0  0  0  0  0  0
  -22.0270   -8.9900   20.4000 C   0  0  0  0  0  3  0  0  0  0  0  0
  -22.7570  -10.1780   20.2250 C   0  0  0  0  0  3  0  0  0  0  0  0
  -21.6890   -6.8800   21.4130 O   0  0  0  0  0  0  0  0  0  0  0  0
  -21.5850   -6.1690   22.5810 C   0  0  0  0  0  0  0  0  0  0  0  0
  -21.0560   -6.7430   23.7590 C   0  0  0  0  0  3  0  0  0  0  0  0
  -20.9030   -5.9560   24.9180 C   0  0  0  0  0  3  0  0  0  0  0  0
  -21.2700   -4.5960   24.9000 C   0  0  0  0  0  0  0  0  0  0  0  0
  -21.7910   -4.0230   23.7270 C   0  0  0  0  0  3  0  0  0  0  0  0
  -21.9450   -4.8070   22.5700 C   0  0  0  0  0  0  0  0  0  0  0  0
  -22.4270   -4.2420   21.4370 F   0  0  0  0  0  0  0  0  0  0  0  0
  -21.1150   -3.8390   26.0100 F   0  0  0  0  0  0  0  0  0  0  0  0
  -22.8470  -13.5190   21.3490 C   0  0  0  0  0  0  0  0  0  0  0  0
  -22.1820  -12.7820   22.2340 N   0  0  0  0  0  0  0  0  0  0  0  0
  -22.3840  -14.5770   20.9260 O   0  0  0  0  0  0  0  0  0  0  0  0
  -22.5670  -11.9220   22.5930 H   0  0  0  0  0  0  0  0  0  0  0  0
  -21.2730  -13.0830   22.5580 H   0  0  0  0  0  0  0  0  0  0  0  0
  -25.4250  -15.1970   20.3940 N   0  0  0  0  0  0  0  0  0  0  0  0
  -24.6820  -15.8570   20.6000 H   0  0  0  0  0  0  0  0  0  0  0  0
  -26.2560  -15.6440   20.0260 H   0  0  0  0  0  0  0  0  0  0  0  0
  -28.6730  -23.8480   19.6250 C   0  0  0  0  0  2  0  0  0  0  0  0
  -27.2270  -24.9080   21.5280 C   0  0  0  0  0  1  0  0  0  0  0  0
  -28.3740  -25.1520   20.5280 C   0  0  0  0  0  3  0  0  0  0  0  0
  -28.3370  -26.5050   19.8960 O   0  0  0  0  0  0  0  0  0  0  0  0
  -24.5890  -31.8210   23.0690 C   0  0  0  0  0  0  0  0  0  0  0  0
  -27.1950  -27.3180   19.9290 C   0  0  0  0  0  0  0  0  0  0  0  0
  -23.3750  -30.4460   21.4150 C   0  0  0  0  0  3  0  0  0  0  0  0
  -24.8190  -28.9120   19.9580 C   0  0  0  0  0  0  0  0  0  0  0  0
  -25.9120  -30.7710   21.2210 C   0  0  0  0  0  2  0  0  0  0  0  0
  -25.9900  -29.4030   20.5510 C   0  0  0  0  0  0  0  0  0  0  0  0
  -27.1790  -28.6180   20.5220 C   0  0  0  0  0  3  0  0  0  0  0  0
  -26.0050  -26.8760   19.3130 C   0  0  0  0  0  3  0  0  0  0  0  0
  -24.8280  -27.6520   19.3340 C   0  0  0  0  0  3  0  0  0  0  0  0
  -23.5820  -29.7840   20.0260 C   0  0  0  0  0  2  0  0  0  0  0  0
  -24.6450  -31.0300   21.9580 N   0  0  0  0  0  0  0  0  0  0  0  0
  -23.5070  -32.0870   23.6120 O   0  0  0  0  0  0  0  0  0  0  0  0
  -22.7200  -29.4180   22.3680 C   0  0  0  0  0  0  0  0  0  0  0  0
  -21.3880  -29.2630   22.2650 N   0  0  0  0  0  0  0  0  0  0  0  0
  -23.4050  -28.7630   23.1550 O   0  0  0  0  0  0  0  0  0  0  0  0
  -20.8930  -29.8390   21.5970 H   0  0  0  0  0  0  0  0  0  0  0  0
  -18.0000  -28.1410   22.8390 C   0  0  0  0  0  0  0  0  0  0  0  0
  -20.5710  -28.3180   23.0280 C   0  0  0  0  0  3  0  0  0  0  0  0
  -20.6150  -26.9090   22.3960 C   0  0  0  0  0  2  0  0  0  0  0  0
  -19.4700  -26.6550   21.4110 C   0  0  0  0  0  2  0  0  0  0  0  0
  -18.1160  -26.8130   22.1070 C   0  0  0  0  0  2  0  0  0  0  0  0
  -19.1530  -28.8540   23.2580 C   0  0  0  0  0  0  0  0  0  0  0  0
  -18.9920  -30.0980   23.9060 C   0  0  0  0  0  3  0  0  0  0  0  0
  -17.7080  -30.6280   24.1390 C   0  0  0  0  0  3  0  0  0  0  0  0
  -16.5690  -29.9100   23.7370 C   0  0  0  0  0  3  0  0  0  0  0  0
  -16.7160  -28.6680   23.0920 C   0  0  0  0  0  3  0  0  0  0  0  0
  -25.8760  -32.4440   23.6930 C   0  0  0  0  0  3  0  0  0  0  0  0
  -25.5610  -33.8300   24.0650 N   0  0  0  0  0  0  0  0  0  0  0  0
  -25.8670  -34.9060   23.3270 C   0  0  0  0  0  0  0  0  0  0  0  0
  -26.5120  -34.8350   22.2770 O   0  0  0  0  0  0  0  0  0  0  0  0
  -24.9820  -33.9590   24.8820 H   0  0  0  0  0  0  0  0  0  0  0  0
  -24.1180  -36.6910   23.0660 C   0  0  0  0  0  1  0  0  0  0  0  0
  -25.3820  -36.2770   23.8340 C   0  0  0  0  0  3  0  0  0  0  0  0
  -27.5230  -37.1610   24.6450 C   0  0  0  0  0  1  0  0  0  0  0  0
  -26.4030  -37.3420   23.7240 N   0  0  0  0  0  0  0  0  0  0  0  0
  -25.9930  -38.2560   23.8970 H   0  0  0  0  0  0  0  0  0  0  0  0
  -26.4100  -31.6410   24.9420 C   0  0  1  0  0  0  0  0  0  0  0  0
  -25.3280  -31.3640   26.0110 C   0  0  0  0  0  1  0  0  0  0  0  0
  -27.0040  -30.2810   24.5050 C   0  0  0  0  0  1  0  0  0  0  0  0
  -27.5610  -32.4250   25.6130 C   0  0  0  0  0  1  0  0  0  0  0  0
  1 55  1  0
  1  2  1  0
  2  4  1  0
  3  2  2  0
  4  7  1  0
  7  6  1  0
  7  5  1  0
  8 19  1  0
  8  1  1  0
  9  8  1  0
 10 25  1  0
 11 16  1  0
 12 13  1  0
 12 11  1  0
 14 13  1  0
 14 30  1  0
 14 15  1  0
 16 10  1  0
 16 15  1  0
 17 10  2  0
 18 23  1  0
 19 18  2  0
 20 24  2  0
 20 19  1  0
 21 25  1  0
 21 23  2  0
 22 20  1  0
 24 21  1  0
 25 26  1  0
 27 28  2  0
 28 47  1  0
 29 28  1  0
 29 32  1  0
 30 31  1  0
 30 27  1  0
 31 29  2  0
 32 33  1  0
 33 34  2  0
 35 38  1  0
 35 34  1  0
 36 35  2  0
 37 36  1  0
 37 32  2  0
 38 39  1  0
 39 40  1  0
 40 41  2  0
 42 41  1  0
 42 46  1  0
 43 42  2  0
 44 39  2  0
 44 43  1  0
 45 44  1  0
 47 48  1  0
 48 51  1  0
 48 50  1  0
 49 47  2  0
 52 27  1  0
 52 53  1  0
 54 52  1  0
 55 57  1  0
 57 56  1  0
 58 60  1  0
 58 57  1  0
 59 70  2  0
 60 65  1  0
 61 69  1  0
 61 71  1  0
 62 68  1  0
 62 64  1  0
 63 69  1  0
 64 63  1  0
 65 64  2  0
 66 67  1  0
 66 60  2  0
 67 62  2  0
 68 61  1  0
 69 59  1  0
 71 73  2  0
 72 71  1  0
 74 72  1  0
 75 84  2  0
 75 80  1  0
 76 72  1  0
 76 80  1  0
 77 76  1  0
 78 79  1  0
 78 77  1  0
 79 75  1  0
 80 81  2  0
 81 82  1  0
 83 82  2  0
 84 83  1  0
 85 59  1  0
 85 86  1  0
 85 95  1  0
 86 89  1  0
 87 91  1  0
 87 86  1  0
 88 87  2  0
 91 90  1  0
 93 91  1  0
 93 94  1  0
 93 92  1  0
 95 98  1  1
 95 96  1  0
 97 95  1  0
M  ISO  4  10 100  25 100  57 101  58 101
M  END
>  <TORSDO>  (59) 
F 22

>  <SCORE>  (59) 
-13.141

>  <name>  (59) 
58

>  <ligand_id>  (59) 
58

>  <original_smiles>  (59) 
[H]c1nc(N([H])C(=O)N2C([H])([H])C([H])([H])C([H])([H])C([H])(n3nc(-c4c([H])c([H])c(Oc5c([H])c([H])c(F)c([H])c5F)c([H])c4[H])c(C(=O)N([H])[H])c3N([H])[H])C2([H])[H])nc(C([H])([H])[H])c1N([H])C([H])(C(=O)C([H])([H])C([H])(C([H])([H])[H])C([H])([H])[H])C([H])([H])C([H])(Oc1c([H])c([H])c2c(c1[H])C([H])([H])N(C(=O)C([H])(N([H])C(=O)C([H])(N([H])C([H])([H])[H])C([H])([H])[H])C(C([H])([H])[H])(C([H])([H])[H])C([H])([H])[H])C([H])(C(=O)N([H])C1([H])c3c([H])c([H])c([H])c([H])c3C([H])([H])C([H])([H])C1([H])[H])C2([H])[H])C([H])([H])[H]

>  <smiles>  (59) 
[H]c1nc(N([H])C(=O)N2C([H])([H])C([H])([H])C([H])([H])C([H])(n3nc(-c4c([H])c([H])c(Oc5c([H])c([H])c(F)c([H])c5F)c([H])c4[H])c(C(=O)N([H])[H])c3N([H])[H])C2([H])[H])nc(C([H])([H])[H])c1N([H])C([H])(C(=O)C([H])([H])C([H])(C([H])([H])[H])C([H])([H])[H])C([H])([H])C([H])(Oc1c([H])c([H])c2c(c1[H])C([H])([H])N(C(=O)C([H])(N([H])C(=O)C([H])(N([H])C([H])([H])[H])C([H])([H])[H])C(C([H])([H])[H])(C([H])([H])[H])C([H])([H])[H])C([H])(C(=O)N([H])C1([H])c3c([H])c([H])c([H])c([H])c3C([H])([H])C([H])([H])C1([H])[H])C2([H])[H])C([H])([H])[H]

$$$$
59:0:0
     RDKit          3D

 93101  0  0  1  0  0  0  0  0999 V2000
  -28.1680  -19.7450   20.2930 C   0  0  0  0  0  3  0  0  0  0  0  0
  -28.0670  -21.1250   20.0280 C   0  0  0  0  0  3  0  0  0  0  0  0
  -30.3180  -20.1840   21.2780 C   0  0  0  0  0  3  0  0  0  0  0  0
  -29.3030  -19.2530   20.9660 C   0  0  0  0  0  0  0  0  0  0  0  0
  -29.0930  -21.9930   20.4390 C   0  0  0  0  0  0  0  0  0  0  0  0
  -30.2180  -21.5140   21.0160 N   0  0  0  0  0  0  0  0  0  0  0  0
  -28.9260  -23.3810   20.2340 N   0  0  0  0  0  0  0  0  0  0  0  0
  -28.1420  -23.6360   19.6430 H   0  0  0  0  0  0  0  0  0  0  0  0
  -29.5530  -24.0310   22.6070 C   0  0  0  0  0  1  0  0  0  0  0  0
  -29.3560  -24.4740   21.1360 C   0  0  0  0  0  3  0  0  0  0  0  0
  -28.3220  -25.6490   21.1220 C   0  0  0  0  0  2  0  0  0  0  0  0
  -28.4640  -26.6540   20.0960 O   0  0  0  0  0  0  0  0  0  0  0  0
  -24.5920  -31.8110   23.1290 C   0  0  0  0  0  0  0  0  0  0  0  0
  -27.3380  -27.4480   20.0250 C   0  0  0  0  0  0  0  0  0  0  0  0
  -23.4280  -30.4150   21.4530 C   0  0  0  0  0  3  0  0  0  0  0  0
  -24.9250  -28.9260   20.0160 C   0  0  0  0  0  0  0  0  0  0  0  0
  -25.9490  -30.8170   21.2890 C   0  0  0  0  0  2  0  0  0  0  0  0
  -26.0680  -29.4580   20.6270 C   0  0  0  0  0  0  0  0  0  0  0  0
  -27.2810  -28.7260   20.6300 C   0  0  0  0  0  3  0  0  0  0  0  0
  -26.1830  -26.9380   19.3970 C   0  0  0  0  0  3  0  0  0  0  0  0
  -24.9790  -27.6650   19.3940 C   0  0  0  0  0  3  0  0  0  0  0  0
  -23.6650  -29.7620   20.0640 C   0  0  0  0  0  2  0  0  0  0  0  0
  -24.6740  -31.0280   22.0160 N   0  0  0  0  0  0  0  0  0  0  0  0
  -23.5010  -32.0580   23.6620 O   0  0  0  0  0  0  0  0  0  0  0  0
  -22.7820  -29.3690   22.3900 C   0  0  0  0  0  0  0  0  0  0  0  0
  -21.4550  -29.1930   22.2650 N   0  0  0  0  0  0  0  0  0  0  0  0
  -23.4670  -28.7210   23.1840 O   0  0  0  0  0  0  0  0  0  0  0  0
  -20.9630  -29.7720   21.6000 H   0  0  0  0  0  0  0  0  0  0  0  0
  -18.0810  -27.9940   22.7680 C   0  0  0  0  0  0  0  0  0  0  0  0
  -20.6420  -28.2340   23.0140 C   0  0  0  0  0  3  0  0  0  0  0  0
  -20.7320  -26.8210   22.3920 C   0  0  0  0  0  2  0  0  0  0  0  0
  -19.6160  -26.5290   21.3840 C   0  0  0  0  0  2  0  0  0  0  0  0
  -18.2420  -26.6640   22.0490 C   0  0  0  0  0  2  0  0  0  0  0  0
  -19.2080  -28.7380   23.2060 C   0  0  0  0  0  0  0  0  0  0  0  0
  -19.0030  -29.9830   23.8380 C   0  0  0  0  0  3  0  0  0  0  0  0
  -17.7030  -30.4870   24.0340 C   0  0  0  0  0  3  0  0  0  0  0  0
  -16.5900  -29.7400   23.6100 C   0  0  0  0  0  3  0  0  0  0  0  0
  -16.7800  -28.4950   22.9850 C   0  0  0  0  0  3  0  0  0  0  0  0
  -25.8610  -32.4510   23.7730 C   0  0  0  0  0  3  0  0  0  0  0  0
  -26.3890  -31.6590   25.0310 C   0  0  1  0  0  0  0  0  0  0  0  0
  -25.2970  -31.3730   26.0880 C   0  0  0  0  0  1  0  0  0  0  0  0
  -26.9990  -30.3050   24.6020 C   0  0  0  0  0  1  0  0  0  0  0  0
  -27.5230  -32.4590   25.7170 C   0  0  0  0  0  1  0  0  0  0  0  0
  -25.5220  -33.8340   24.1370 N   0  0  0  0  0  0  0  0  0  0  0  0
  -25.8250  -34.9100   23.3980 C   0  0  0  0  0  0  0  0  0  0  0  0
  -26.4920  -34.8450   22.3620 O   0  0  0  0  0  0  0  0  0  0  0  0
  -24.9310  -33.9590   24.9460 H   0  0  0  0  0  0  0  0  0  0  0  0
  -24.0520  -36.6650   23.0920 C   0  0  0  0  0  1  0  0  0  0  0  0
  -25.3080  -36.2770   23.8870 C   0  0  0  0  0  3  0  0  0  0  0  0
  -27.4260  -37.1970   24.7240 C   0  0  0  0  0  1  0  0  0  0  0  0
  -26.3150  -37.3570   23.7900 N   0  0  0  0  0  0  0  0  0  0  0  0
  -25.8880  -38.2640   23.9560 H   0  0  0  0  0  0  0  0  0  0  0  0
  -29.3650  -17.7860   21.4350 C   0  0  0  0  0  2  0  0  0  0  0  0
  -30.7810  -14.5480   20.0820 C   0  0  0  0  0  0  0  0  0  0  0  0
  -30.4080  -12.4050   18.9120 C   0  0  0  0  0  2  0  0  0  0  0  0
  -29.4010  -12.6460   17.7690 C   0  0  0  0  0  2  0  0  0  0  0  0
  -27.9540  -12.4950   18.2780 C   0  0  0  0  0  2  0  0  0  0  0  0
  -27.6940  -13.2970   19.5820 C   0  0  0  0  0  3  0  0  0  0  0  0
  -28.8120  -13.0500   20.6200 C   0  0  0  0  0  2  0  0  0  0  0  0
  -30.1020  -13.3680   19.9840 N   0  0  0  0  0  0  0  0  0  0  0  0
  -31.8830  -14.7010   19.5460 O   0  0  0  0  0  0  0  0  0  0  0  0
  -30.3890  -16.8800   20.7200 C   0  0  0  0  0  0  0  0  0  0  0  0
  -30.0940  -15.5570   20.6700 N   0  0  0  0  0  0  0  0  0  0  0  0
  -31.4050  -17.3960   20.2400 O   0  0  0  0  0  0  0  0  0  0  0  0
  -29.2190  -15.2920   21.0890 H   0  0  0  0  0  0  0  0  0  0  0  0
  -25.3490  -13.8940   20.4580 C   0  0  0  0  0  0  0  0  0  0  0  0
  -24.3000  -13.1160   20.8660 C   0  0  0  0  0  0  0  0  0  0  0  0
  -24.7470  -11.7630   20.7630 C   0  0  0  0  0  0  0  0  0  0  0  0
  -26.3700  -13.0150   20.1310 N   0  0  0  0  0  0  0  0  0  0  0  0
  -26.0150  -11.7260   20.3750 N   0  0  0  0  0  0  0  0  0  0  0  0
  -24.0240  -10.5000   20.9610 C   0  0  0  0  0  0  0  0  0  0  0  0
  -24.4770   -9.5260   21.8770 C   0  0  0  0  0  3  0  0  0  0  0  0
  -23.7570   -8.3270   22.0630 C   0  0  0  0  0  3  0  0  0  0  0  0
  -22.5680   -8.0920   21.3320 C   0  0  0  0  0  0  0  0  0  0  0  0
  -22.1330   -9.0560   20.4040 C   0  0  0  0  0  3  0  0  0  0  0  0
  -22.8550  -10.2460   20.2160 C   0  0  0  0  0  3  0  0  0  0  0  0
  -21.8170   -6.9460   21.4270 O   0  0  0  0  0  0  0  0  0  0  0  0
  -21.7520   -6.2220   22.5890 C   0  0  0  0  0  0  0  0  0  0  0  0
  -21.2960   -6.7910   23.7980 C   0  0  0  0  0  3  0  0  0  0  0  0
  -21.1780   -5.9920   24.9530 C   0  0  0  0  0  3  0  0  0  0  0  0
  -21.5100   -4.6250   24.9010 C   0  0  0  0  0  0  0  0  0  0  0  0
  -21.9610   -4.0550   23.6980 C   0  0  0  0  0  3  0  0  0  0  0  0
  -22.0790   -4.8510   22.5440 C   0  0  0  0  0  0  0  0  0  0  0  0
  -22.4940   -4.2910   21.3820 F   0  0  0  0  0  0  0  0  0  0  0  0
  -21.3900   -3.8550   26.0080 F   0  0  0  0  0  0  0  0  0  0  0  0
  -22.9250  -13.5940   21.2390 C   0  0  0  0  0  0  0  0  0  0  0  0
  -22.2430  -12.8740   22.1240 N   0  0  0  0  0  0  0  0  0  0  0  0
  -22.4640  -14.6370   20.7790 O   0  0  0  0  0  0  0  0  0  0  0  0
  -22.6290  -12.0280   22.5160 H   0  0  0  0  0  0  0  0  0  0  0  0
  -21.3230  -13.1720   22.4130 H   0  0  0  0  0  0  0  0  0  0  0  0
  -25.5170  -15.2690   20.3230 N   0  0  0  0  0  0  0  0  0  0  0  0
  -24.7670  -15.9250   20.5150 H   0  0  0  0  0  0  0  0  0  0  0  0
  -26.3450  -15.7130   19.9470 H   0  0  0  0  0  0  0  0  0  0  0  0
  1  4  1  0
  2  1  2  0
  2  5  1  0
  4  3  2  0
  4 53  1  0
  5  6  2  0
  6  3  1  0
  7  5  1  0
  7 10  1  0
  8  7  1  0
 10  9  1  0
 11 10  1  0
 12 11  1  0
 13 24  2  0
 14 12  1  0
 14 19  1  0
 15 23  1  0
 15 25  1  0
 16 22  1  0
 16 18  1  0
 17 23  1  0
 18 19  2  0
 18 17  1  0
 20 14  2  0
 21 20  1  0
 21 16  2  0
 22 15  1  0
 23 13  1  0
 25 27  2  0
 26 25  1  0
 28 26  1  0
 29 38  2  0
 29 34  1  0
 30 26  1  0
 30 34  1  0
 31 30  1  0
 32 33  1  0
 32 31  1  0
 33 29  1  0
 34 35  2  0
 35 36  1  0
 37 36  2  0
 38 37  1  0
 39 13  1  0
 39 44  1  0
 39 40  1  0
 40 43  1  1
 40 41  1  0
 42 40  1  0
 44 47  1  0
 45 49  1  0
 45 44  1  0
 46 45  2  0
 49 48  1  0
 51 49  1  0
 51 52  1  0
 51 50  1  0
 54 63  1  0
 55 60  1  0
 56 57  1  0
 56 55  1  0
 58 57  1  0
 58 69  1  0
 58 59  1  0
 60 54  1  0
 60 59  1  0
 61 54  2  0
 62 53  1  0
 63 62  1  0
 63 65  1  0
 64 62  2  0
 66 67  2  0
 67 86  1  0
 68 67  1  0
 68 71  1  0
 69 70  1  0
 69 66  1  0
 70 68  2  0
 71 72  1  0
 72 73  2  0
 74 77  1  0
 74 73  1  0
 75 74  2  0
 76 75  1  0
 76 71  2  0
 77 78  1  0
 78 79  1  0
 79 80  2  0
 81 80  1  0
 81 85  1  0
 82 81  2  0
 83 78  2  0
 83 82  1  0
 84 83  1  0
 86 87  1  0
 87 90  1  0
 87 89  1  0
 88 86  2  0
 91 66  1  0
 91 92  1  0
 93 91  1  0
M  ISO  4  11 101  12 101  54 100  63 100
M  END
>  <TORSDO>  (60) 
F 19

>  <SCORE>  (60) 
-13.817

>  <name>  (60) 
59

>  <ligand_id>  (60) 
59

>  <original_smiles>  (60) 
[H]c1nc(N([H])C([H])(C([H])([H])[H])C([H])([H])Oc2c([H])c([H])c3c(c2[H])C([H])([H])N(C(=O)C([H])(N([H])C(=O)C([H])(N([H])C([H])([H])[H])C([H])([H])[H])C(C([H])([H])[H])(C([H])([H])[H])C([H])([H])[H])C([H])(C(=O)N([H])C2([H])c4c([H])c([H])c([H])c([H])c4C([H])([H])C([H])([H])C2([H])[H])C3([H])[H])c([H])c([H])c1C([H])([H])C(=O)N([H])C(=O)N1C([H])([H])C([H])([H])C([H])([H])C([H])(n2nc(-c3c([H])c([H])c(Oc4c([H])c([H])c(F)c([H])c4F)c([H])c3[H])c(C(=O)N([H])[H])c2N([H])[H])C1([H])[H]

>  <smiles>  (60) 
[H]c1nc(N([H])C([H])(C([H])([H])[H])C([H])([H])Oc2c([H])c([H])c3c(c2[H])C([H])([H])N(C(=O)C([H])(N([H])C(=O)C([H])(N([H])C([H])([H])[H])C([H])([H])[H])C(C([H])([H])[H])(C([H])([H])[H])C([H])([H])[H])C([H])(C(=O)N([H])C2([H])c4c([H])c([H])c([H])c([H])c4C([H])([H])C([H])([H])C2([H])[H])C3([H])[H])c([H])c([H])c1C([H])([H])C(=O)N([H])C(=O)N1C([H])([H])C([H])([H])C([H])([H])C([H])(n2nc(-c3c([H])c([H])c(Oc4c([H])c([H])c(F)c([H])c4F)c([H])c3[H])c(C(=O)N([H])[H])c2N([H])[H])C1([H])[H]

$$$$
60:0:0
     RDKit          3D

 96104  0  0  1  0  0  0  0  0999 V2000
  -29.5330  -16.8530   18.7080 C   0  0  0  0  0  3  0  0  0  0  0  0
  -29.6880  -16.8440   20.0730 C   0  0  0  0  0  0  0  0  0  0  0  0
  -29.2970  -18.9490   19.4340 C   0  0  0  0  0  3  0  0  0  0  0  0
  -29.1860  -21.4410   20.1270 C   0  0  0  0  0  0  0  0  0  0  0  0
  -29.0120  -18.6430   16.9920 C   0  0  0  0  0  1  0  0  0  0  0  0
  -29.2800  -18.1540   18.3490 N   0  0  0  0  0  0  0  0  0  0  0  0
  -29.5200  -18.1590   20.5130 N   0  0  0  0  0  0  0  0  0  0  0  0
  -29.1160  -20.3790   19.2910 N   0  0  0  0  0  0  0  0  0  0  0  0
  -29.1950  -21.3390   21.3550 O   0  0  0  0  0  0  0  0  0  0  0  0
  -29.5610  -18.4840   21.4700 H   0  0  0  0  0  0  0  0  0  0  0  0
  -29.0370  -20.6600   18.3260 H   0  0  0  0  0  0  0  0  0  0  0  0
  -30.6100  -14.5640   20.4790 C   0  0  0  0  0  0  0  0  0  0  0  0
  -30.3530  -12.3650   19.3850 C   0  0  0  0  0  2  0  0  0  0  0  0
  -29.4310  -12.5550   18.1600 C   0  0  0  0  0  2  0  0  0  0  0  0
  -27.9490  -12.4340   18.5630 C   0  0  0  0  0  2  0  0  0  0  0  0
  -27.5970  -13.2650   19.8270 C   0  0  0  0  0  3  0  0  0  0  0  0
  -28.6380  -13.0590   20.9510 C   0  0  0  0  0  2  0  0  0  0  0  0
  -29.9650  -13.3640   20.3990 N   0  0  0  0  0  0  0  0  0  0  0  0
  -31.7640  -14.7140   20.0680 O   0  0  0  0  0  0  0  0  0  0  0  0
  -29.8620  -15.6370   20.8580 N   0  0  0  0  0  0  0  0  0  0  0  0
  -29.0730  -15.3980   21.4400 H   0  0  0  0  0  0  0  0  0  0  0  0
  -25.1960  -13.8810   20.5000 C   0  0  0  0  0  0  0  0  0  0  0  0
  -24.1200  -13.1170   20.8590 C   0  0  0  0  0  0  0  0  0  0  0  0
  -24.5760  -11.7620   20.8490 C   0  0  0  0  0  0  0  0  0  0  0  0
  -26.2390  -12.9940   20.2920 N   0  0  0  0  0  0  0  0  0  0  0  0
  -25.8710  -11.7150   20.5620 N   0  0  0  0  0  0  0  0  0  0  0  0
  -23.8420  -10.5050   21.0430 C   0  0  0  0  0  0  0  0  0  0  0  0
  -24.2630   -9.5420   21.9860 C   0  0  0  0  0  3  0  0  0  0  0  0
  -23.5310   -8.3490   22.1660 C   0  0  0  0  0  3  0  0  0  0  0  0
  -22.3630   -8.1090   21.4020 C   0  0  0  0  0  0  0  0  0  0  0  0
  -21.9610   -9.0610   20.4500 C   0  0  0  0  0  3  0  0  0  0  0  0
  -22.6940  -10.2460   20.2680 C   0  0  0  0  0  3  0  0  0  0  0  0
  -21.6050   -6.9670   21.4900 O   0  0  0  0  0  0  0  0  0  0  0  0
  -21.5520   -6.2250   22.6430 C   0  0  0  0  0  0  0  0  0  0  0  0
  -21.1380   -6.7860   23.8710 C   0  0  0  0  0  3  0  0  0  0  0  0
  -21.0310   -5.9710   25.0170 C   0  0  0  0  0  3  0  0  0  0  0  0
  -21.3270   -4.5970   24.9350 C   0  0  0  0  0  0  0  0  0  0  0  0
  -21.7340   -4.0360   23.7110 C   0  0  0  0  0  3  0  0  0  0  0  0
  -21.8420   -4.8490   22.5680 C   0  0  0  0  0  0  0  0  0  0  0  0
  -22.2130   -4.3000   21.3870 F   0  0  0  0  0  0  0  0  0  0  0  0
  -21.2160   -3.8120   26.0320 F   0  0  0  0  0  0  0  0  0  0  0  0
  -22.7210  -13.6000   21.1040 C   0  0  0  0  0  0  0  0  0  0  0  0
  -21.9760  -12.9170   21.9660 N   0  0  0  0  0  0  0  0  0  0  0  0
  -22.2940  -14.6220   20.5650 O   0  0  0  0  0  0  0  0  0  0  0  0
  -22.3310  -12.0910   22.4240 H   0  0  0  0  0  0  0  0  0  0  0  0
  -21.0370  -13.2240   22.1680 H   0  0  0  0  0  0  0  0  0  0  0  0
  -25.3710  -15.2490   20.3090 N   0  0  0  0  0  0  0  0  0  0  0  0
  -24.6030  -15.9070   20.3920 H   0  0  0  0  0  0  0  0  0  0  0  0
  -26.2240  -15.6760   19.9730 H   0  0  0  0  0  0  0  0  0  0  0  0
  -30.7320  -22.9360   18.8660 C   0  0  0  0  0  1  0  0  0  0  0  0
  -29.2930  -22.8410   19.4190 C   0  0  0  0  0  3  0  0  0  0  0  0
  -28.8370  -24.1350   20.2320 C   0  0  0  0  0  2  0  0  0  0  0  0
  -28.5310  -25.6550   18.1200 C   0  0  0  0  0  1  0  0  0  0  0  0
  -30.4740  -26.0520   19.6280 C   0  0  0  0  0  1  0  0  0  0  0  0
  -29.0000  -25.5880   19.5900 C   0  0  2  0  0  0  0  0  0  0  0  0
  -28.4970  -26.6730   20.4320 O   0  0  0  0  0  0  0  0  0  0  0  0
  -24.6020  -31.9090   23.2960 C   0  0  0  0  0  0  0  0  0  0  0  0
  -27.3010  -27.3810   20.3210 C   0  0  0  0  0  0  0  0  0  0  0  0
  -23.4250  -30.4820   21.6570 C   0  0  0  0  0  3  0  0  0  0  0  0
  -24.9000  -28.9170   20.2750 C   0  0  0  0  0  0  0  0  0  0  0  0
  -25.9580  -30.8270   21.4970 C   0  0  0  0  0  2  0  0  0  0  0  0
  -26.0520  -29.4460   20.8690 C   0  0  0  0  0  0  0  0  0  0  0  0
  -27.2480  -28.6860   20.8850 C   0  0  0  0  0  3  0  0  0  0  0  0
  -26.1180  -26.8620   19.7550 C   0  0  0  0  0  3  0  0  0  0  0  0
  -24.9320  -27.6250   19.7160 C   0  0  0  0  0  3  0  0  0  0  0  0
  -23.6580  -29.7830   20.2900 C   0  0  0  0  0  2  0  0  0  0  0  0
  -24.6790  -31.0900   22.2080 N   0  0  0  0  0  0  0  0  0  0  0  0
  -23.5110  -32.1880   23.8130 O   0  0  0  0  0  0  0  0  0  0  0  0
  -22.7550  -29.4770   22.6220 C   0  0  0  0  0  0  0  0  0  0  0  0
  -21.4320  -29.2920   22.4750 N   0  0  0  0  0  0  0  0  0  0  0  0
  -23.4240  -28.8640   23.4580 O   0  0  0  0  0  0  0  0  0  0  0  0
  -20.9530  -29.8360   21.7720 H   0  0  0  0  0  0  0  0  0  0  0  0
  -18.0530  -28.0930   22.9310 C   0  0  0  0  0  0  0  0  0  0  0  0
  -20.6040  -28.3640   23.2450 C   0  0  0  0  0  3  0  0  0  0  0  0
  -20.7220  -26.9240   22.6940 C   0  0  0  0  0  2  0  0  0  0  0  0
  -19.6400  -26.5820   21.6660 C   0  0  0  0  0  2  0  0  0  0  0  0
  -18.2450  -26.7340   22.2810 C   0  0  0  0  0  2  0  0  0  0  0  0
  -19.1610  -28.8660   23.3700 C   0  0  0  0  0  0  0  0  0  0  0  0
  -18.9280  -30.1380   23.9360 C   0  0  0  0  0  3  0  0  0  0  0  0
  -17.6190  -30.6370   24.0700 C   0  0  0  0  0  3  0  0  0  0  0  0
  -16.5250  -29.8630   23.6470 C   0  0  0  0  0  3  0  0  0  0  0  0
  -16.7430  -28.5920   23.0850 C   0  0  0  0  0  3  0  0  0  0  0  0
  -25.8760  -32.5520   23.9290 C   0  0  0  0  0  3  0  0  0  0  0  0
  -26.3730  -31.8040   25.2270 C   0  0  1  0  0  0  0  0  0  0  0  0
  -25.2640  -31.5840   26.2820 C   0  0  0  0  0  1  0  0  0  0  0  0
  -26.9630  -30.4200   24.8670 C   0  0  0  0  0  1  0  0  0  0  0  0
  -27.5110  -32.6110   25.8930 C   0  0  0  0  0  1  0  0  0  0  0  0
  -25.5620  -33.9550   24.2300 N   0  0  0  0  0  0  0  0  0  0  0  0
  -25.9080  -34.9950   23.4590 C   0  0  0  0  0  0  0  0  0  0  0  0
  -26.5960  -34.8740   22.4420 O   0  0  0  0  0  0  0  0  0  0  0  0
  -24.9560  -34.1230   25.0190 H   0  0  0  0  0  0  0  0  0  0  0  0
  -24.1850  -36.7820   23.0440 C   0  0  0  0  0  1  0  0  0  0  0  0
  -25.4130  -36.3920   23.8840 C   0  0  0  0  0  3  0  0  0  0  0  0
  -27.5330  -37.2910   24.7350 C   0  0  0  0  0  1  0  0  0  0  0  0
  -26.4470  -37.4440   23.7700 N   0  0  0  0  0  0  0  0  0  0  0  0
  -26.0380  -38.3660   23.8960 H   0  0  0  0  0  0  0  0  0  0  0  0
  1  2  2  0
  2  7  1  0
  2 20  1  0
  3  8  1  0
  3  7  1  0
  4  9  2  0
  5  6  1  0
  6  1  1  0
  6  3  1  0
  7 10  1  0
  8  4  1  0
 11  8  1  0
 12 20  1  0
 13 18  1  0
 14 15  1  0
 14 13  1  0
 16 15  1  0
 16 25  1  0
 16 17  1  0
 18 12  1  0
 18 17  1  0
 19 12  2  0
 20 21  1  0
 22 23  2  0
 23 42  1  0
 24 23  1  0
 24 27  1  0
 25 22  1  0
 25 26  1  0
 26 24  2  0
 27 28  1  0
 28 29  2  0
 30 33  1  0
 30 29  1  0
 31 30  2  0
 32 31  1  0
 32 27  2  0
 33 34  1  0
 34 35  1  0
 35 36  2  0
 37 36  1  0
 37 41  1  0
 38 37  2  0
 39 34  2  0
 39 38  1  0
 40 39  1  0
 42 43  1  0
 43 46  1  0
 43 45  1  0
 44 42  2  0
 47 48  1  0
 47 22  1  0
 49 47  1  0
 51 50  1  0
 51  4  1  0
 51 52  1  0
 55 53  1  6
 55 54  1  0
 55 52  1  0
 55 56  1  0
 57 68  2  0
 58 56  1  0
 58 63  1  0
 59 67  1  0
 59 69  1  0
 60 66  1  0
 60 62  1  0
 61 67  1  0
 62 63  2  0
 62 61  1  0
 64 58  2  0
 65 64  1  0
 65 60  2  0
 66 59  1  0
 67 57  1  0
 69 71  2  0
 70 69  1  0
 72 70  1  0
 73 82  2  0
 73 78  1  0
 74 70  1  0
 74 78  1  0
 75 74  1  0
 76 77  1  0
 76 75  1  0
 77 73  1  0
 78 79  2  0
 79 80  1  0
 81 80  2  0
 82 81  1  0
 83 57  1  0
 83 88  1  0
 83 84  1  0
 84 87  1  1
 84 85  1  0
 86 84  1  0
 88 91  1  0
 89 93  1  0
 89 88  1  0
 90 89  2  0
 93 92  1  0
 95 93  1  0
 95 96  1  0
 95 94  1  0
M  ISO  4  12 100  20 100  55 101  56 101
M  END
>  <TORSDO>  (61) 
F 19

>  <SCORE>  (61) 
-14.278

>  <name>  (61) 
60

>  <ligand_id>  (61) 
60

>  <original_smiles>  (61) 
[H]c1c([H])c([H])c2c(c1[H])C([H])([H])C([H])([H])C([H])([H])C2([H])N([H])C(=O)C1([H])N(C(=O)C([H])(N([H])C(=O)C([H])(N([H])C([H])([H])[H])C([H])([H])[H])C(C([H])([H])[H])(C([H])([H])[H])C([H])([H])[H])C([H])([H])c2c([H])c(OC(C([H])([H])[H])(C([H])([H])[H])C([H])([H])C([H])(C(=O)N([H])c3n(C([H])([H])[H])c([H])c(N([H])C(=O)N4C([H])([H])C([H])([H])C([H])([H])C([H])(n5nc(-c6c([H])c([H])c(Oc7c([H])c([H])c(F)c([H])c7F)c([H])c6[H])c(C(=O)N([H])[H])c5N([H])[H])C4([H])[H])[n+]3[H])C([H])([H])[H])c([H])c([H])c2C1([H])[H]

>  <smiles>  (61) 
[H]c1c([H])c([H])c2c(c1[H])C([H])([H])C([H])([H])C([H])([H])C2([H])N([H])C(=O)C1([H])N(C(=O)C([H])(N([H])C(=O)C([H])(N([H])C([H])([H])[H])C([H])([H])[H])C(C([H])([H])[H])(C([H])([H])[H])C([H])([H])[H])C([H])([H])c2c([H])c(OC(C([H])([H])[H])(C([H])([H])[H])C([H])([H])C([H])(C(=O)N([H])c3n(C([H])([H])[H])c([H])c(N([H])C(=O)N4C([H])([H])C([H])([H])C([H])([H])C([H])(n5nc(-c6c([H])c([H])c(Oc7c([H])c([H])c(F)c([H])c7F)c([H])c6[H])c(C(=O)N([H])[H])c5N([H])[H])C4([H])[H])[n+]3[H])C([H])([H])[H])c([H])c([H])c2C1([H])[H]

$$$$
61:0:0
     RDKit          3D

 99107  0  0  1  0  0  0  0  0999 V2000
  -29.4910  -23.0220   20.3830 C   0  0  0  0  0  3  0  0  0  0  0  0
  -29.9060  -18.2070   20.0110 C   0  0  0  0  0  0  0  0  0  0  0  0
  -28.5350  -18.2410   19.8410 C   0  0  0  0  0  0  0  0  0  0  0  0
  -29.5670  -20.4780   19.7560 C   0  0  0  0  0  0  0  0  0  0  0  0
  -30.4690  -19.4980   19.9040 N   0  0  0  0  0  0  0  0  0  0  0  0
  -29.8720  -21.8340   19.6100 N   0  0  0  0  0  0  0  0  0  0  0  0
  -27.9190  -19.8770   19.7210 S   0  0  0  0  0  0  0  0  0  0  0  0
  -30.8080  -21.9790   19.2500 H   0  0  0  0  0  0  0  0  0  0  0  0
  -27.6350  -17.1880   19.7440 N   0  0  0  0  0  0  0  0  0  0  0  0
  -26.7070  -17.5180   19.4950 H   0  0  0  0  0  0  0  0  0  0  0  0
  -27.9330  -16.5080   19.0550 H   0  0  0  0  0  0  0  0  0  0  0  0
  -30.8390  -17.0270   20.2880 C   0  0  0  0  0  2  0  0  0  0  0  0
  -30.9460  -14.5710   19.7340 C   0  0  0  0  0  0  0  0  0  0  0  0
  -30.5220  -12.3860   18.6680 C   0  0  0  0  0  2  0  0  0  0  0  0
  -29.4600  -12.5710   17.5660 C   0  0  0  0  0  2  0  0  0  0  0  0
  -28.0400  -12.4450   18.1500 C   0  0  0  0  0  2  0  0  0  0  0  0
  -27.8370  -13.2870   19.4410 C   0  0  0  0  0  3  0  0  0  0  0  0
  -29.0110  -13.1010   20.4290 C   0  0  0  0  0  2  0  0  0  0  0  0
  -30.2540  -13.3990   19.7010 N   0  0  0  0  0  0  0  0  0  0  0  0
  -32.0630  -14.6880   19.2270 O   0  0  0  0  0  0  0  0  0  0  0  0
  -30.2840  -15.6550   20.1930 N   0  0  0  0  0  0  0  0  0  0  0  0
  -29.3270  -15.5390   20.4910 H   0  0  0  0  0  0  0  0  0  0  0  0
  -25.5630  -13.9000   20.4780 C   0  0  0  0  0  0  0  0  0  0  0  0
  -24.5210  -13.1350   20.9130 C   0  0  0  0  0  0  0  0  0  0  0  0
  -24.9290  -11.7770   20.7400 C   0  0  0  0  0  0  0  0  0  0  0  0
  -26.5470  -13.0130   20.0670 N   0  0  0  0  0  0  0  0  0  0  0  0
  -26.1740  -11.7240   20.2810 N   0  0  0  0  0  0  0  0  0  0  0  0
  -24.1870  -10.5280   20.9330 C   0  0  0  0  0  0  0  0  0  0  0  0
  -24.6270   -9.5420   21.8430 C   0  0  0  0  0  3  0  0  0  0  0  0
  -23.8850   -8.3560   22.0270 C   0  0  0  0  0  3  0  0  0  0  0  0
  -22.6860   -8.1500   21.3030 C   0  0  0  0  0  0  0  0  0  0  0  0
  -22.2650   -9.1250   20.3810 C   0  0  0  0  0  3  0  0  0  0  0  0
  -23.0070  -10.3010   20.1940 C   0  0  0  0  0  3  0  0  0  0  0  0
  -21.9120   -7.0190   21.3980 O   0  0  0  0  0  0  0  0  0  0  0  0
  -21.8150   -6.3110   22.5680 C   0  0  0  0  0  0  0  0  0  0  0  0
  -21.2740   -6.8790   23.7430 C   0  0  0  0  0  3  0  0  0  0  0  0
  -21.1290   -6.0910   24.9030 C   0  0  0  0  0  3  0  0  0  0  0  0
  -21.5120   -4.7390   24.8900 C   0  0  0  0  0  0  0  0  0  0  0  0
  -22.0450   -4.1700   23.7200 C   0  0  0  0  0  3  0  0  0  0  0  0
  -22.1930   -4.9530   22.5620 C   0  0  0  0  0  0  0  0  0  0  0  0
  -22.6850   -4.3940   21.4310 F   0  0  0  0  0  0  0  0  0  0  0  0
  -21.3660   -3.9790   26.0010 F   0  0  0  0  0  0  0  0  0  0  0  0
  -23.1840  -13.6310   21.3830 C   0  0  0  0  0  0  0  0  0  0  0  0
  -22.5360  -12.8930   22.2770 N   0  0  0  0  0  0  0  0  0  0  0  0
  -22.7290  -14.7080   20.9970 O   0  0  0  0  0  0  0  0  0  0  0  0
  -22.9240  -12.0230   22.6130 H   0  0  0  0  0  0  0  0  0  0  0  0
  -21.6420  -13.2040   22.6290 H   0  0  0  0  0  0  0  0  0  0  0  0
  -25.7390  -15.2760   20.3890 N   0  0  0  0  0  0  0  0  0  0  0  0
  -25.0030  -15.9180   20.6570 H   0  0  0  0  0  0  0  0  0  0  0  0
  -26.6060  -15.7660   20.1650 H   0  0  0  0  0  0  0  0  0  0  0  0
  -31.9330  -22.7560   21.2310 C   0  0  0  0  0  1  0  0  0  0  0  0
  -30.4920  -23.2150   21.5690 C   0  0  0  0  0  3  0  0  0  0  0  0
  -28.6060  -22.9210   23.3380 C   0  0  0  0  0  1  0  0  0  0  0  0
  -30.0200  -22.5360   22.8740 C   0  0  0  0  0  2  0  0  0  0  0  0
  -29.2690  -24.2940   19.4800 C   0  0  0  0  0  3  0  0  0  0  0  0
  -30.5030  -24.6670   18.8870 O   0  0  0  0  0  0  0  0  0  0  0  0
  -30.3640  -25.5040   18.4550 H   0  0  0  0  0  0  0  0  0  0  0  0
  -28.6910  -25.5310   20.2370 C   0  0  0  0  0  2  0  0  0  0  0  0
  -28.5730  -26.7040   19.4110 O   0  0  0  0  0  0  0  0  0  0  0  0
  -24.7680  -31.5390   23.0670 C   0  0  0  0  0  0  0  0  0  0  0  0
  -27.3980  -27.4100   19.5580 C   0  0  0  0  0  0  0  0  0  0  0  0
  -23.5350  -30.2330   21.3700 C   0  0  0  0  0  3  0  0  0  0  0  0
  -24.9680  -28.8400   19.7820 C   0  0  0  0  0  0  0  0  0  0  0  0
  -26.0430  -30.6700   21.1040 C   0  0  0  0  0  2  0  0  0  0  0  0
  -26.1370  -29.3520   20.3610 C   0  0  0  0  0  0  0  0  0  0  0  0
  -27.3580  -28.6470   20.2430 C   0  0  0  0  0  3  0  0  0  0  0  0
  -26.2150  -26.9110   18.9760 C   0  0  0  0  0  3  0  0  0  0  0  0
  -25.0020  -27.6170   19.0880 C   0  0  0  0  0  3  0  0  0  0  0  0
  -23.7060  -29.6620   19.9370 C   0  0  0  0  0  2  0  0  0  0  0  0
  -24.8040  -30.8230   21.9070 N   0  0  0  0  0  0  0  0  0  0  0  0
  -23.7020  -31.7420   23.6650 O   0  0  0  0  0  0  0  0  0  0  0  0
  -22.9450  -29.1250   22.2740 C   0  0  0  0  0  0  0  0  0  0  0  0
  -21.6290  -28.8890   22.1500 N   0  0  0  0  0  0  0  0  0  0  0  0
  -23.6670  -28.4850   23.0420 O   0  0  0  0  0  0  0  0  0  0  0  0
  -21.1070  -29.4610   21.5030 H   0  0  0  0  0  0  0  0  0  0  0  0
  -18.3250  -27.4870   22.5770 C   0  0  0  0  0  0  0  0  0  0  0  0
  -20.8650  -27.8680   22.8670 C   0  0  0  0  0  3  0  0  0  0  0  0
  -21.0450  -26.4780   22.2140 C   0  0  0  0  0  2  0  0  0  0  0  0
  -19.9600  -26.1500   21.1830 C   0  0  0  0  0  2  0  0  0  0  0  0
  -18.5730  -26.1860   21.8320 C   0  0  0  0  0  2  0  0  0  0  0  0
  -19.4010  -28.2850   23.0490 C   0  0  0  0  0  0  0  0  0  0  0  0
  -19.1140  -29.5030   23.7030 C   0  0  0  0  0  3  0  0  0  0  0  0
  -17.7850  -29.9240   23.8900 C   0  0  0  0  0  3  0  0  0  0  0  0
  -16.7230  -29.1220   23.4360 C   0  0  0  0  0  3  0  0  0  0  0  0
  -16.9950  -27.9050   22.7840 C   0  0  0  0  0  3  0  0  0  0  0  0
  -26.0610  -32.1550   23.6840 C   0  0  0  0  0  3  0  0  0  0  0  0
  -25.7480  -33.5330   24.0840 N   0  0  0  0  0  0  0  0  0  0  0  0
  -26.0750  -34.6230   23.3760 C   0  0  0  0  0  0  0  0  0  0  0  0
  -26.7440  -34.5710   22.3400 O   0  0  0  0  0  0  0  0  0  0  0  0
  -25.1510  -33.6450   24.8900 H   0  0  0  0  0  0  0  0  0  0  0  0
  -24.3420  -36.4250   23.1020 C   0  0  0  0  0  1  0  0  0  0  0  0
  -25.5830  -35.9870   23.8970 C   0  0  0  0  0  3  0  0  0  0  0  0
  -27.7060  -36.8420   24.7860 C   0  0  0  0  0  1  0  0  0  0  0  0
  -26.6130  -37.0470   23.8390 N   0  0  0  0  0  0  0  0  0  0  0  0
  -26.2040  -37.9600   24.0170 H   0  0  0  0  0  0  0  0  0  0  0  0
  -26.6130  -31.3330   24.9130 C   0  0  1  0  0  0  0  0  0  0  0  0
  -25.5460  -31.0340   25.9930 C   0  0  0  0  0  1  0  0  0  0  0  0
  -27.2000  -29.9820   24.4410 C   0  0  0  0  0  1  0  0  0  0  0  0
  -27.7720  -32.1060   25.5830 C   0  0  0  0  0  1  0  0  0  0  0  0
  1  6  1  0
  1 52  1  0
  2 12  1  0
  3  2  2  0
  4  5  2  0
  5  2  1  0
  6  4  1  0
  7  4  1  0
  7  3  1  0
  8  6  1  0
  9  3  1  0
 10  9  1  0
 11  9  1  0
 13 21  1  0
 14 19  1  0
 15 16  1  0
 15 14  1  0
 17 16  1  0
 17 26  1  0
 17 18  1  0
 19 13  1  0
 19 18  1  0
 20 13  2  0
 21 12  1  0
 21 22  1  0
 23 24  2  0
 24 43  1  0
 25 24  1  0
 25 28  1  0
 26 27  1  0
 26 23  1  0
 27 25  2  0
 28 29  1  0
 29 30  2  0
 31 34  1  0
 31 30  1  0
 32 31  2  0
 33 32  1  0
 33 28  2  0
 34 35  1  0
 35 36  1  0
 36 37  2  0
 38 37  1  0
 38 42  1  0
 39 38  2  0
 40 35  2  0
 40 39  1  0
 41 40  1  0
 43 44  1  0
 44 46  1  0
 44 47  1  0
 45 43  2  0
 48 23  1  0
 48 49  1  0
 50 48  1  0
 52 51  1  0
 52 54  1  0
 54 53  1  0
 55 58  1  0
 55  1  1  0
 56 55  1  0
 57 56  1  0
 59 61  1  0
 59 58  1  0
 60 71  2  0
 61 66  1  0
 62 70  1  0
 62 72  1  0
 63 69  1  0
 63 65  1  0
 64 70  1  0
 65 64  1  0
 66 65  2  0
 67 68  1  0
 67 61  2  0
 68 63  2  0
 69 62  1  0
 70 60  1  0
 72 74  2  0
 73 72  1  0
 75 73  1  0
 76 85  2  0
 76 81  1  0
 77 73  1  0
 77 81  1  0
 78 77  1  0
 79 80  1  0
 79 78  1  0
 80 76  1  0
 81 82  2  0
 82 83  1  0
 84 83  2  0
 85 84  1  0
 86 60  1  0
 86 87  1  0
 86 96  1  0
 87 90  1  0
 88 92  1  0
 88 87  1  0
 89 88  2  0
 92 91  1  0
 94 92  1  0
 94 95  1  0
 94 93  1  0
 96 99  1  1
 96 97  1  0
 98 96  1  0
M  ISO  4  13 100  21 100  58 101  59 101
M  END
>  <TORSDO>  (62) 
F 24

>  <SCORE>  (62) 
-10.590

>  <name>  (62) 
61

>  <ligand_id>  (62) 
61

>  <original_smiles>  (62) 
[H]OC([H])(C([H])([H])Oc1c([H])c([H])c2c(c1[H])C([H])([H])N(C(=O)C([H])(N([H])C(=O)C([H])(N([H])C([H])([H])[H])C([H])([H])[H])C(C([H])([H])[H])(C([H])([H])[H])C([H])([H])[H])C([H])(C(=O)N([H])C1([H])c3c([H])c([H])c([H])c([H])c3C([H])([H])C([H])([H])C1([H])[H])C2([H])[H])C([H])(N([H])c1nc(C([H])([H])N([H])C(=O)N2C([H])([H])C([H])([H])C([H])([H])C([H])(n3nc(-c4c([H])c([H])c(Oc5c([H])c([H])c(F)c([H])c5F)c([H])c4[H])c(C(=O)N([H])[H])c3N([H])[H])C2([H])[H])c(N([H])[H])s1)C([H])(C([H])([H])[H])C([H])([H])C([H])([H])[H]

>  <smiles>  (62) 
[H]OC([H])(C([H])([H])Oc1c([H])c([H])c2c(c1[H])C([H])([H])N(C(=O)C([H])(N([H])C(=O)C([H])(N([H])C([H])([H])[H])C([H])([H])[H])C(C([H])([H])[H])(C([H])([H])[H])C([H])([H])[H])C([H])(C(=O)N([H])C1([H])c3c([H])c([H])c([H])c([H])c3C([H])([H])C([H])([H])C1([H])[H])C2([H])[H])C([H])(N([H])c1nc(C([H])([H])N([H])C(=O)N2C([H])([H])C([H])([H])C([H])([H])C([H])(n3nc(-c4c([H])c([H])c(Oc5c([H])c([H])c(F)c([H])c5F)c([H])c4[H])c(C(=O)N([H])[H])c3N([H])[H])C2([H])[H])c(N([H])[H])s1)C([H])(C([H])([H])[H])C([H])([H])C([H])([H])[H]

$$$$
62:0:0
     RDKit          3D

 98106  0  0  1  0  0  0  0  0999 V2000
  -31.0250  -22.1070   20.8850 C   0  0  0  0  0  1  0  0  0  0  0  0
  -29.9870  -21.5470   19.8950 C   0  0  0  0  0  3  0  0  0  0  0  0
  -30.7390  -14.6530   19.9750 C   0  0  0  0  0  0  0  0  0  0  0  0
  -30.4460  -12.4850   18.7950 C   0  0  0  0  0  2  0  0  0  0  0  0
  -29.4020  -12.6890   17.6770 C   0  0  0  0  0  2  0  0  0  0  0  0
  -27.9680  -12.5060   18.2230 C   0  0  0  0  0  2  0  0  0  0  0  0
  -27.7190  -13.3070   19.5290 C   0  0  0  0  0  3  0  0  0  0  0  0
  -28.8630  -13.0720   20.5400 C   0  0  0  0  0  2  0  0  0  0  0  0
  -30.1200  -13.4390   19.8690 N   0  0  0  0  0  0  0  0  0  0  0  0
  -31.8870  -14.8330   19.5470 O   0  0  0  0  0  0  0  0  0  0  0  0
  -30.6650  -18.3120   22.7890 C   0  0  0  0  0  3  0  0  0  0  0  0
  -30.6150  -17.0460   22.1730 C   0  0  0  0  0  0  0  0  0  0  0  0
  -30.1210  -16.9930   20.8440 C   0  0  0  0  0  0  0  0  0  0  0  0
  -29.7110  -19.3000   20.9790 C   0  0  0  0  0  0  0  0  0  0  0  0
  -30.1770  -19.4150   22.2060 N   0  0  0  0  0  0  0  0  0  0  0  0
  -29.6630  -18.1550   20.2690 N   0  0  0  0  0  0  0  0  0  0  0  0
  -29.8920  -15.6800   20.2840 N   0  0  0  0  0  0  0  0  0  0  0  0
  -29.1440  -20.4800   20.4760 N   0  0  0  0  0  0  0  0  0  0  0  0
  -28.9350  -15.3860   20.3590 H   0  0  0  0  0  0  0  0  0  0  0  0
  -28.5960  -20.9230   21.2040 H   0  0  0  0  0  0  0  0  0  0  0  0
  -25.4030  -13.8990   20.4710 C   0  0  0  0  0  0  0  0  0  0  0  0
  -24.3620  -13.1190   20.8990 C   0  0  0  0  0  0  0  0  0  0  0  0
  -24.8010  -11.7670   20.7640 C   0  0  0  0  0  0  0  0  0  0  0  0
  -26.4110  -13.0180   20.1080 N   0  0  0  0  0  0  0  0  0  0  0  0
  -26.0590  -11.7300   20.3430 N   0  0  0  0  0  0  0  0  0  0  0  0
  -24.0790  -10.5040   20.9550 C   0  0  0  0  0  0  0  0  0  0  0  0
  -24.5120   -9.5370   21.8880 C   0  0  0  0  0  3  0  0  0  0  0  0
  -23.7920   -8.3370   22.0630 C   0  0  0  0  0  3  0  0  0  0  0  0
  -22.6220   -8.0930   21.3030 C   0  0  0  0  0  0  0  0  0  0  0  0
  -22.2060   -9.0490   20.3590 C   0  0  0  0  0  3  0  0  0  0  0  0
  -22.9290  -10.2410   20.1830 C   0  0  0  0  0  3  0  0  0  0  0  0
  -21.8710   -6.9470   21.3910 O   0  0  0  0  0  0  0  0  0  0  0  0
  -21.7480   -6.2550   22.5700 C   0  0  0  0  0  0  0  0  0  0  0  0
  -21.2210   -6.8550   23.7340 C   0  0  0  0  0  3  0  0  0  0  0  0
  -21.0440   -6.0870   24.9030 C   0  0  0  0  0  3  0  0  0  0  0  0
  -21.3850   -4.7220   24.9090 C   0  0  0  0  0  0  0  0  0  0  0  0
  -21.9060   -4.1220   23.7490 C   0  0  0  0  0  3  0  0  0  0  0  0
  -22.0830   -4.8860   22.5820 C   0  0  0  0  0  0  0  0  0  0  0  0
  -22.5640   -4.2970   21.4610 F   0  0  0  0  0  0  0  0  0  0  0  0
  -21.2100   -3.9830   26.0300 F   0  0  0  0  0  0  0  0  0  0  0  0
  -23.0010  -13.5920   21.3170 C   0  0  0  0  0  0  0  0  0  0  0  0
  -22.3610  -12.8800   22.2380 N   0  0  0  0  0  0  0  0  0  0  0  0
  -22.5170  -14.6280   20.8620 O   0  0  0  0  0  0  0  0  0  0  0  0
  -22.7650  -12.0370   22.6210 H   0  0  0  0  0  0  0  0  0  0  0  0
  -21.4530  -13.1800   22.5630 H   0  0  0  0  0  0  0  0  0  0  0  0
  -25.5720  -15.2750   20.3370 N   0  0  0  0  0  0  0  0  0  0  0  0
  -24.8150  -15.9280   20.5120 H   0  0  0  0  0  0  0  0  0  0  0  0
  -26.3570  -15.7070   19.8670 H   0  0  0  0  0  0  0  0  0  0  0  0
  -30.9390  -15.8960   22.9060 N   0  0  0  0  0  0  0  0  0  0  0  0
  -31.0560  -16.0230   23.9090 H   0  0  0  0  0  0  0  0  0  0  0  0
  -30.3710  -15.0760   22.7250 H   0  0  0  0  0  0  0  0  0  0  0  0
  -29.2330  -22.7300   19.1400 C   0  0  0  0  0  3  0  0  0  0  0  0
  -30.1920  -23.0910   18.1580 O   0  0  0  0  0  0  0  0  0  0  0  0
  -31.0420  -23.1080   18.5870 H   0  0  0  0  0  0  0  0  0  0  0  0
  -28.7460  -24.0380   19.9250 C   0  0  0  0  0  2  0  0  0  0  0  0
  -28.1980  -25.4840   17.7650 C   0  0  0  0  0  1  0  0  0  0  0  0
  -28.7780  -25.4540   19.1970 C   0  0  0  0  0  3  0  0  0  0  0  0
  -28.4940  -26.6560   20.0020 O   0  0  0  0  0  0  0  0  0  0  0  0
  -24.6500  -31.8470   23.1710 C   0  0  0  0  0  0  0  0  0  0  0  0
  -27.2920  -27.3740   20.0250 C   0  0  0  0  0  0  0  0  0  0  0  0
  -23.4390  -30.4550   21.5320 C   0  0  0  0  0  3  0  0  0  0  0  0
  -24.8860  -28.9180   20.0910 C   0  0  0  0  0  0  0  0  0  0  0  0
  -25.9710  -30.8010   21.3220 C   0  0  0  0  0  2  0  0  0  0  0  0
  -26.0540  -29.4310   20.6620 C   0  0  0  0  0  0  0  0  0  0  0  0
  -27.2560  -28.6730   20.6150 C   0  0  0  0  0  3  0  0  0  0  0  0
  -26.0790  -26.8700   19.5110 C   0  0  0  0  0  3  0  0  0  0  0  0
  -24.8960  -27.6340   19.5180 C   0  0  0  0  0  3  0  0  0  0  0  0
  -23.6420  -29.7810   20.1510 C   0  0  0  0  0  2  0  0  0  0  0  0
  -24.7070  -31.0490   22.0660 N   0  0  0  0  0  0  0  0  0  0  0  0
  -23.5710  -32.1140   23.7190 O   0  0  0  0  0  0  0  0  0  0  0  0
  -22.7940  -29.4270   22.4870 C   0  0  0  0  0  0  0  0  0  0  0  0
  -21.4690  -29.2420   22.3660 N   0  0  0  0  0  0  0  0  0  0  0  0
  -23.4840  -28.7970   23.2950 O   0  0  0  0  0  0  0  0  0  0  0  0
  -20.9740  -29.7950   21.6800 H   0  0  0  0  0  0  0  0  0  0  0  0
  -18.1040  -28.0380   22.8920 C   0  0  0  0  0  0  0  0  0  0  0  0
  -20.6620  -28.2960   23.1390 C   0  0  0  0  0  3  0  0  0  0  0  0
  -20.7590  -26.8700   22.5480 C   0  0  0  0  0  2  0  0  0  0  0  0
  -19.6480  -26.5560   21.5430 C   0  0  0  0  0  2  0  0  0  0  0  0
  -18.2730  -26.6950   22.2030 C   0  0  0  0  0  2  0  0  0  0  0  0
  -19.2260  -28.7970   23.3190 C   0  0  0  0  0  0  0  0  0  0  0  0
  -19.0130  -30.0560   23.9240 C   0  0  0  0  0  3  0  0  0  0  0  0
  -17.7080  -30.5540   24.1070 C   0  0  0  0  0  3  0  0  0  0  0  0
  -16.6010  -29.7910   23.6970 C   0  0  0  0  0  3  0  0  0  0  0  0
  -16.8000  -28.5360   23.0960 C   0  0  0  0  0  3  0  0  0  0  0  0
  -25.9350  -32.4820   23.7830 C   0  0  0  0  0  3  0  0  0  0  0  0
  -25.6130  -33.8640   24.1610 N   0  0  0  0  0  0  0  0  0  0  0  0
  -25.9210  -34.9420   23.4280 C   0  0  0  0  0  0  0  0  0  0  0  0
  -26.5790  -34.8760   22.3850 O   0  0  0  0  0  0  0  0  0  0  0  0
  -25.0210  -33.9830   24.9710 H   0  0  0  0  0  0  0  0  0  0  0  0
  -24.1740  -36.7260   23.1280 C   0  0  0  0  0  1  0  0  0  0  0  0
  -25.4170  -36.3070   23.9310 C   0  0  0  0  0  3  0  0  0  0  0  0
  -27.5400  -37.1890   24.7970 C   0  0  0  0  0  1  0  0  0  0  0  0
  -26.4400  -37.3730   23.8560 N   0  0  0  0  0  0  0  0  0  0  0  0
  -26.0230  -38.2830   24.0330 H   0  0  0  0  0  0  0  0  0  0  0  0
  -26.4870  -31.6840   25.0290 C   0  0  1  0  0  0  0  0  0  0  0  0
  -25.4180  -31.3960   26.1100 C   0  0  0  0  0  1  0  0  0  0  0  0
  -27.0870  -30.3280   24.5890 C   0  0  0  0  0  1  0  0  0  0  0  0
  -27.6360  -32.4770   25.6970 C   0  0  0  0  0  1  0  0  0  0  0  0
  2 18  1  0
  2  1  1  0
  3 17  1  0
  4  9  1  0
  5  6  1  0
  5  4  1  0
  7  6  1  0
  7 24  1  0
  7  8  1  0
  9  3  1  0
  9  8  1  0
 10  3  2  0
 12 11  2  0
 12 49  1  0
 13 12  1  0
 14 15  2  0
 15 11  1  0
 16 13  2  0
 16 14  1  0
 17 19  1  0
 17 13  1  0
 18 14  1  0
 18 20  1  0
 21 22  2  0
 22 41  1  0
 23 22  1  0
 23 26  1  0
 24 25  1  0
 24 21  1  0
 25 23  2  0
 26 27  1  0
 27 28  2  0
 29 32  1  0
 29 28  1  0
 30 29  2  0
 31 30  1  0
 31 26  2  0
 32 33  1  0
 33 38  2  0
 33 34  1  0
 34 35  2  0
 35 36  1  0
 36 40  1  0
 37 36  2  0
 38 37  1  0
 39 38  1  0
 41 42  1  0
 42 45  1  0
 42 44  1  0
 43 41  2  0
 46 21  1  0
 46 47  1  0
 48 46  1  0
 49 50  1  0
 51 49  1  0
 52  2  1  0
 52 55  1  0
 53 54  1  0
 53 52  1  0
 57 56  1  0
 57 55  1  0
 57 58  1  0
 58 60  1  0
 59 70  2  0
 60 65  1  0
 61 69  1  0
 61 71  1  0
 62 68  1  0
 62 64  1  0
 63 69  1  0
 64 63  1  0
 65 64  2  0
 66 67  1  0
 66 60  2  0
 67 62  2  0
 68 61  1  0
 69 59  1  0
 71 73  2  0
 72 71  1  0
 74 72  1  0
 75 84  2  0
 75 80  1  0
 76 72  1  0
 76 80  1  0
 77 76  1  0
 78 79  1  0
 78 77  1  0
 79 75  1  0
 80 81  2  0
 81 82  1  0
 83 82  2  0
 84 83  1  0
 85 59  1  0
 85 86  1  0
 85 95  1  0
 86 89  1  0
 87 91  1  0
 87 86  1  0
 88 87  2  0
 91 90  1  0
 93 91  1  0
 93 94  1  0
 93 92  1  0
 95 98  1  1
 95 96  1  0
 97 95  1  0
M  ISO  4   3 100  17 100  57 101  58 101
M  END
>  <TORSDO>  (63) 
F 21

>  <SCORE>  (63) 
-12.394

>  <name>  (63) 
62

>  <ligand_id>  (63) 
62

>  <original_smiles>  (63) 
[H]OC([H])(C([H])([H])C([H])(Oc1c([H])c([H])c2c(c1[H])C([H])([H])N(C(=O)C([H])(N([H])C(=O)C([H])(N([H])C([H])([H])[H])C([H])([H])[H])C(C([H])([H])[H])(C([H])([H])[H])C([H])([H])[H])C([H])(C(=O)N([H])C1([H])c3c([H])c([H])c([H])c([H])c3C([H])([H])C([H])([H])C1([H])[H])C2([H])[H])C([H])([H])[H])C([H])(N([H])c1nc([H])c(N([H])[H])c(N([H])C(=O)N2C([H])([H])C([H])([H])C([H])([H])C([H])(n3nc(-c4c([H])c([H])c(Oc5c([H])c([H])c(F)c([H])c5F)c([H])c4[H])c(C(=O)N([H])[H])c3N([H])[H])C2([H])[H])n1)C([H])([H])[H]

>  <smiles>  (63) 
[H]OC([H])(C([H])([H])C([H])(Oc1c([H])c([H])c2c(c1[H])C([H])([H])N(C(=O)C([H])(N([H])C(=O)C([H])(N([H])C([H])([H])[H])C([H])([H])[H])C(C([H])([H])[H])(C([H])([H])[H])C([H])([H])[H])C([H])(C(=O)N([H])C1([H])c3c([H])c([H])c([H])c([H])c3C([H])([H])C([H])([H])C1([H])[H])C2([H])[H])C([H])([H])[H])C([H])(N([H])c1nc([H])c(N([H])[H])c(N([H])C(=O)N2C([H])([H])C([H])([H])C([H])([H])C([H])(n3nc(-c4c([H])c([H])c(Oc5c([H])c([H])c(F)c([H])c5F)c([H])c4[H])c(C(=O)N([H])[H])c3N([H])[H])C2([H])[H])n1)C([H])([H])[H]

$$$$
63:0:0
     RDKit          3D

100108  0  0  1  0  0  0  0  0999 V2000
  -28.0740  -19.8380   20.1570 C   0  0  0  0  0  3  0  0  0  0  0  0
  -29.2010  -20.4230   19.6350 C   0  0  0  0  0  0  0  0  0  0  0  0
  -29.9160  -18.2270   19.8010 C   0  0  0  0  0  0  0  0  0  0  0  0
  -30.2330  -19.4920   19.4390 N   0  0  0  0  0  0  0  0  0  0  0  0
  -28.2460  -18.1110   20.3550 S   0  0  0  0  0  0  0  0  0  0  0  0
  -29.3450  -21.7860   19.2810 N   0  0  0  0  0  0  0  0  0  0  0  0
  -29.8570  -21.9710   18.4190 H   0  0  0  0  0  0  0  0  0  0  0  0
  -28.3890  -22.8000   19.7850 C   0  0  0  0  0  2  0  0  0  0  0  0
  -28.7920  -24.2850   19.5140 C   0  0  0  0  0  3  0  0  0  0  0  0
  -30.2020  -24.2000   19.5650 O   0  0  0  0  0  0  0  0  0  0  0  0
  -30.3490  -23.2520   19.4970 H   0  0  0  0  0  0  0  0  0  0  0  0
  -28.2480  -25.3280   20.5550 C   0  0  0  0  0  2  0  0  0  0  0  0
  -28.3890  -26.7210   20.1680 O   0  0  0  0  0  0  0  0  0  0  0  0
  -24.6310  -31.9540   23.2670 C   0  0  0  0  0  0  0  0  0  0  0  0
  -27.2400  -27.4970   20.1610 C   0  0  0  0  0  0  0  0  0  0  0  0
  -23.4210  -30.5670   21.6230 C   0  0  0  0  0  3  0  0  0  0  0  0
  -24.8590  -29.0360   20.1770 C   0  0  0  0  0  0  0  0  0  0  0  0
  -25.9470  -30.9140   21.4170 C   0  0  0  0  0  2  0  0  0  0  0  0
  -26.0270  -29.5450   20.7670 C   0  0  0  0  0  0  0  0  0  0  0  0
  -27.2200  -28.7850   20.7530 C   0  0  0  0  0  3  0  0  0  0  0  0
  -26.0600  -27.0160   19.5560 C   0  0  0  0  0  3  0  0  0  0  0  0
  -24.8700  -27.7720   19.5690 C   0  0  0  0  0  3  0  0  0  0  0  0
  -23.6240  -29.9030   20.2370 C   0  0  0  0  0  2  0  0  0  0  0  0
  -24.6870  -31.1570   22.1630 N   0  0  0  0  0  0  0  0  0  0  0  0
  -23.5480  -32.2270   23.8030 O   0  0  0  0  0  0  0  0  0  0  0  0
  -22.7600  -29.5360   22.5710 C   0  0  0  0  0  0  0  0  0  0  0  0
  -21.4430  -29.3270   22.4080 N   0  0  0  0  0  0  0  0  0  0  0  0
  -23.4330  -28.9360   23.4130 O   0  0  0  0  0  0  0  0  0  0  0  0
  -20.9600  -29.8660   21.7020 H   0  0  0  0  0  0  0  0  0  0  0  0
  -18.0910  -28.0340   22.7900 C   0  0  0  0  0  0  0  0  0  0  0  0
  -20.6250  -28.3790   23.1650 C   0  0  0  0  0  3  0  0  0  0  0  0
  -20.7980  -26.9420   22.6240 C   0  0  0  0  0  2  0  0  0  0  0  0
  -19.7500  -26.5610   21.5730 C   0  0  0  0  0  2  0  0  0  0  0  0
  -18.3370  -26.6760   22.1530 C   0  0  0  0  0  2  0  0  0  0  0  0
  -19.1670  -28.8390   23.2490 C   0  0  0  0  0  0  0  0  0  0  0  0
  -18.8830  -30.1080   23.7990 C   0  0  0  0  0  3  0  0  0  0  0  0
  -17.5560  -30.5740   23.8910 C   0  0  0  0  0  3  0  0  0  0  0  0
  -16.4950  -29.7650   23.4510 C   0  0  0  0  0  3  0  0  0  0  0  0
  -16.7630  -28.4970   22.9070 C   0  0  0  0  0  3  0  0  0  0  0  0
  -25.9160  -32.5790   23.8900 C   0  0  0  0  0  3  0  0  0  0  0  0
  -26.4190  -31.8110   25.1730 C   0  0  1  0  0  0  0  0  0  0  0  0
  -25.3090  -31.5650   26.2210 C   0  0  0  0  0  1  0  0  0  0  0  0
  -27.0200  -30.4410   24.7860 C   0  0  0  0  0  1  0  0  0  0  0  0
  -27.5480  -32.6180   25.8590 C   0  0  0  0  0  1  0  0  0  0  0  0
  -25.6210  -33.9840   24.2050 N   0  0  0  0  0  0  0  0  0  0  0  0
  -25.9810  -35.0250   23.4420 C   0  0  0  0  0  0  0  0  0  0  0  0
  -26.6650  -34.9060   22.4220 O   0  0  0  0  0  0  0  0  0  0  0  0
  -25.0210  -34.1550   24.9980 H   0  0  0  0  0  0  0  0  0  0  0  0
  -24.2800  -36.8340   23.0410 C   0  0  0  0  0  1  0  0  0  0  0  0
  -25.4990  -36.4230   23.8790 C   0  0  0  0  0  3  0  0  0  0  0  0
  -27.6340  -37.2820   24.7390 C   0  0  0  0  0  1  0  0  0  0  0  0
  -26.5490  -37.4600   23.7780 N   0  0  0  0  0  0  0  0  0  0  0  0
  -26.1530  -38.3860   23.9130 H   0  0  0  0  0  0  0  0  0  0  0  0
  -30.8770  -17.0500   19.7350 C   0  0  0  0  0  3  0  0  0  0  0  0
  -31.1220  -14.8010   20.9030 C   0  0  0  0  0  0  0  0  0  0  0  0
  -30.8650  -12.5770   19.9740 C   0  0  0  0  0  2  0  0  0  0  0  0
  -30.0830  -12.7650   18.6450 C   0  0  0  0  0  2  0  0  0  0  0  0
  -28.5930  -13.1420   18.8190 C   0  0  0  0  0  2  0  0  0  0  0  0
  -28.1430  -13.0440   20.2780 C   0  0  0  0  0  3  0  0  0  0  0  0
  -29.0590  -13.5050   21.4020 C   0  0  0  0  0  2  0  0  0  0  0  0
  -30.4360  -13.6330   20.9010 N   0  0  0  0  0  0  0  0  0  0  0  0
  -32.3500  -14.8510   20.8880 O   0  0  0  0  0  0  0  0  0  0  0  0
  -30.3830  -15.8540   20.4860 N   0  0  0  0  0  0  0  0  0  0  0  0
  -29.4020  -15.6550   20.4020 H   0  0  0  0  0  0  0  0  0  0  0  0
  -25.6990  -14.0690   20.5900 C   0  0  0  0  0  0  0  0  0  0  0  0
  -24.5440  -13.3780   20.8580 C   0  0  0  0  0  0  0  0  0  0  0  0
  -24.9300  -12.0070   20.9430 C   0  0  0  0  0  0  0  0  0  0  0  0
  -26.7080  -13.0970   20.5410 N   0  0  0  0  0  0  0  0  0  0  0  0
  -26.2130  -11.8750   20.7620 N   0  0  0  0  0  0  0  0  0  0  0  0
  -24.1830  -10.7810   21.1110 C   0  0  0  0  0  0  0  0  0  0  0  0
  -24.5900   -9.8010   22.0470 C   0  0  0  0  0  3  0  0  0  0  0  0
  -23.8410   -8.6160   22.1810 C   0  0  0  0  0  3  0  0  0  0  0  0
  -22.6860   -8.4160   21.3890 C   0  0  0  0  0  0  0  0  0  0  0  0
  -22.3320   -9.3710   20.4220 C   0  0  0  0  0  3  0  0  0  0  0  0
  -23.0800  -10.5460   20.2770 C   0  0  0  0  0  3  0  0  0  0  0  0
  -21.9150   -7.2860   21.4240 O   0  0  0  0  0  0  0  0  0  0  0  0
  -21.7860   -6.5640   22.5800 C   0  0  0  0  0  0  0  0  0  0  0  0
  -21.3170   -7.1400   23.7800 C   0  0  0  0  0  3  0  0  0  0  0  0
  -21.1290   -6.3320   24.9180 C   0  0  0  0  0  3  0  0  0  0  0  0
  -21.4070   -4.9530   24.8570 C   0  0  0  0  0  0  0  0  0  0  0  0
  -21.8680   -4.3790   23.6550 C   0  0  0  0  0  3  0  0  0  0  0  0
  -22.0530   -5.1820   22.5220 C   0  0  0  0  0  0  0  0  0  0  0  0
  -22.4880   -4.6230   21.3690 F   0  0  0  0  0  0  0  0  0  0  0  0
  -21.2120   -4.1790   25.9480 F   0  0  0  0  0  0  0  0  0  0  0  0
  -23.1360  -13.8980   20.9570 C   0  0  0  0  0  0  0  0  0  0  0  0
  -22.3180  -13.2490   21.7800 N   0  0  0  0  0  0  0  0  0  0  0  0
  -22.7790  -14.8920   20.3200 O   0  0  0  0  0  0  0  0  0  0  0  0
  -22.6600  -12.4670   22.3230 H   0  0  0  0  0  0  0  0  0  0  0  0
  -21.3600  -13.5470   21.9060 H   0  0  0  0  0  0  0  0  0  0  0  0
  -25.9740  -15.4260   20.3810 N   0  0  0  0  0  0  0  0  0  0  0  0
  -25.2540  -16.1340   20.3420 H   0  0  0  0  0  0  0  0  0  0  0  0
  -26.8920  -15.8310   20.3110 H   0  0  0  0  0  0  0  0  0  0  0  0
  -31.3170  -16.6610   18.2910 C   0  0  0  0  0  2  0  0  0  0  0  0
  -30.7110  -17.3320   17.1520 O   0  0  0  0  0  0  0  0  0  0  0  0
  -32.8150  -18.0920   16.0710 C   0  0  0  0  0  1  0  0  0  0  0  0
  -31.3820  -18.4600   16.5330 C   0  0  0  0  0  3  0  0  0  0  0  0
  -29.0950  -19.3560   15.8560 C   0  0  0  0  0  1  0  0  0  0  0  0
  -30.4970  -18.9660   15.3360 C   0  0  0  0  0  3  0  0  0  0  0  0
  -30.3650  -20.5080   13.1920 C   0  0  0  0  0  1  0  0  0  0  0  0
  -31.1290  -20.1250   14.4800 C   0  0  0  0  0  2  0  0  0  0  0  0
  1  5  1  0
  2  1  2  0
  3  5  1  0
  4  2  1  0
  4  3  2  0
  6  2  1  0
  6  8  1  0
  7  6  1  0
  9 10  1  0
  9  8  1  0
  9 12  1  0
 11 10  1  0
 13 12  1  0
 14 25  2  0
 15 13  1  0
 15 20  1  0
 16 24  1  0
 16 26  1  0
 17 23  1  0
 17 19  1  0
 18 24  1  0
 19 18  1  0
 20 19  2  0
 21 22  1  0
 21 15  2  0
 22 17  2  0
 23 16  1  0
 24 14  1  0
 26 28  2  0
 27 26  1  0
 29 27  1  0
 30 39  2  0
 30 35  1  0
 31 27  1  0
 31 35  1  0
 32 31  1  0
 33 34  1  0
 33 32  1  0
 34 30  1  0
 35 36  2  0
 36 37  1  0
 38 37  2  0
 39 38  1  0
 40 14  1  0
 40 45  1  0
 40 41  1  0
 41 44  1  1
 41 42  1  0
 43 41  1  0
 45 48  1  0
 46 50  1  0
 46 45  1  0
 47 46  2  0
 50 49  1  0
 52 50  1  0
 52 53  1  0
 52 51  1  0
 54 93  1  0
 54  3  1  0
 54 63  1  0
 56 61  1  0
 57 58  1  0
 57 56  1  0
 59 58  1  0
 59 68  1  0
 59 60  1  0
 61 55  1  0
 61 60  1  0
 62 55  2  0
 63 55  1  0
 64 63  1  0
 65 66  2  0
 66 67  1  0
 66 85  1  0
 67 70  1  0
 68 65  1  0
 68 69  1  0
 69 67  2  0
 70 71  1  0
 71 72  2  0
 73 76  1  0
 73 72  1  0
 74 73  2  0
 75 74  1  0
 75 70  2  0
 76 77  1  0
 77 78  1  0
 78 79  2  0
 80 79  1  0
 80 84  1  0
 81 80  2  0
 82 77  2  0
 82 81  1  0
 83 82  1  0
 85 86  1  0
 86 89  1  0
 86 88  1  0
 87 85  2  0
 90 65  1  0
 91 90  1  0
 92 90  1  0
 94 93  1  0
 96 95  1  0
 96 94  1  0
 98 97  1  0
 98 96  1  0
 99100  1  0
100 98  1  0
M  ISO  4  12 101  13 101  55 100  63 100
M  END
>  <TORSDO>  (64) 
F 27

>  <SCORE>  (64) 
-11.503

>  <name>  (64) 
63

>  <ligand_id>  (64) 
63

>  <original_smiles>  (64) 
[H]OC([H])(C([H])([H])Oc1c([H])c([H])c2c(c1[H])C([H])([H])N(C(=O)C([H])(N([H])C(=O)C([H])(N([H])C([H])([H])[H])C([H])([H])[H])C(C([H])([H])[H])(C([H])([H])[H])C([H])([H])[H])C([H])(C(=O)N([H])C1([H])c3c([H])c([H])c([H])c([H])c3C([H])([H])C([H])([H])C1([H])[H])C2([H])[H])C([H])([H])N([H])c1nc(C([H])(N([H])C(=O)N2C([H])([H])C([H])([H])C([H])([H])C([H])(n3nc(-c4c([H])c([H])c(Oc5c([H])c([H])c(F)c([H])c5F)c([H])c4[H])c(C(=O)N([H])[H])c3N([H])[H])C2([H])[H])C([H])([H])OC([H])(C([H])([H])[H])C([H])(C([H])([H])[H])C([H])([H])C([H])([H])[H])sc1[H]

>  <smiles>  (64) 
[H]OC([H])(C([H])([H])Oc1c([H])c([H])c2c(c1[H])C([H])([H])N(C(=O)C([H])(N([H])C(=O)C([H])(N([H])C([H])([H])[H])C([H])([H])[H])C(C([H])([H])[H])(C([H])([H])[H])C([H])([H])[H])C([H])(C(=O)N([H])C1([H])c3c([H])c([H])c([H])c([H])c3C([H])([H])C([H])([H])C1([H])[H])C2([H])[H])C([H])([H])N([H])c1nc(C([H])(N([H])C(=O)N2C([H])([H])C([H])([H])C([H])([H])C([H])(n3nc(-c4c([H])c([H])c(Oc5c([H])c([H])c(F)c([H])c5F)c([H])c4[H])c(C(=O)N([H])[H])c3N([H])[H])C2([H])[H])C([H])([H])OC([H])(C([H])([H])[H])C([H])(C([H])([H])[H])C([H])([H])C([H])([H])[H])sc1[H]

$$$$
64:0:0
     RDKit          3D

 96104  0  0  1  0  0  0  0  0999 V2000
  -28.9300  -22.2020   20.0040 C   0  0  0  0  0  3  0  0  0  0  0  0
  -27.5330  -21.8420   19.4910 C   0  0  0  0  0  0  0  0  0  0  0  0
  -26.5190  -22.1590   20.1190 O   0  0  0  0  0  0  0  0  0  0  0  0
  -26.0230  -20.7420   17.7260 C   0  0  0  0  0  1  0  0  0  0  0  0
  -27.4570  -21.0480   18.1840 C   0  0  0  0  0  2  0  0  0  0  0  0
  -28.9650  -23.7430   20.5790 C   0  0  0  0  0  2  0  0  0  0  0  0
  -28.7840  -25.0520   18.3410 C   0  0  0  0  0  1  0  0  0  0  0  0
  -28.2710  -24.9890   19.7870 C   0  0  0  0  0  3  0  0  0  0  0  0
  -28.3470  -26.4180   20.2810 O   0  0  0  0  0  0  0  0  0  0  0  0
  -24.6370  -31.9090   23.2650 C   0  0  0  0  0  0  0  0  0  0  0  0
  -27.2450  -27.3150   20.1880 C   0  0  0  0  0  0  0  0  0  0  0  0
  -23.4360  -30.5140   21.6240 C   0  0  0  0  0  3  0  0  0  0  0  0
  -24.8880  -28.9740   20.1820 C   0  0  0  0  0  0  0  0  0  0  0  0
  -25.9810  -30.8210   21.4450 C   0  0  0  0  0  2  0  0  0  0  0  0
  -26.0590  -29.4420   20.7890 C   0  0  0  0  0  0  0  0  0  0  0  0
  -27.2360  -28.6230   20.7860 C   0  0  0  0  0  3  0  0  0  0  0  0
  -26.0510  -26.9340   19.5280 C   0  0  0  0  0  3  0  0  0  0  0  0
  -24.8910  -27.7290   19.5410 C   0  0  0  0  0  3  0  0  0  0  0  0
  -23.6510  -29.8490   20.2390 C   0  0  0  0  0  2  0  0  0  0  0  0
  -24.7040  -31.1000   22.1670 N   0  0  0  0  0  0  0  0  0  0  0  0
  -23.5530  -32.1830   23.8010 O   0  0  0  0  0  0  0  0  0  0  0  0
  -22.7750  -29.4910   22.5800 C   0  0  0  0  0  0  0  0  0  0  0  0
  -21.4510  -29.3050   22.4490 N   0  0  0  0  0  0  0  0  0  0  0  0
  -23.4540  -28.8700   23.4010 O   0  0  0  0  0  0  0  0  0  0  0  0
  -20.9600  -29.8580   21.7610 H   0  0  0  0  0  0  0  0  0  0  0  0
  -18.0800  -28.0850   22.9470 C   0  0  0  0  0  0  0  0  0  0  0  0
  -20.6360  -28.3610   23.2190 C   0  0  0  0  0  3  0  0  0  0  0  0
  -20.7470  -26.9310   22.6420 C   0  0  0  0  0  2  0  0  0  0  0  0
  -19.6490  -26.6020   21.6270 C   0  0  0  0  0  2  0  0  0  0  0  0
  -18.2660  -26.7370   22.2700 C   0  0  0  0  0  2  0  0  0  0  0  0
  -19.1920  -28.8540   23.3780 C   0  0  0  0  0  0  0  0  0  0  0  0
  -18.9640  -30.1140   23.9720 C   0  0  0  0  0  3  0  0  0  0  0  0
  -17.6550  -30.6060   24.1380 C   0  0  0  0  0  3  0  0  0  0  0  0
  -16.5570  -29.8340   23.7220 C   0  0  0  0  0  3  0  0  0  0  0  0
  -16.7690  -28.5760   23.1320 C   0  0  0  0  0  3  0  0  0  0  0  0
  -25.9180  -32.5440   23.8880 C   0  0  0  0  0  3  0  0  0  0  0  0
  -25.6070  -33.9440   24.2120 N   0  0  0  0  0  0  0  0  0  0  0  0
  -25.9280  -34.9950   23.4470 C   0  0  0  0  0  0  0  0  0  0  0  0
  -26.5870  -34.8900   22.4100 O   0  0  0  0  0  0  0  0  0  0  0  0
  -25.0200  -34.0990   25.0190 H   0  0  0  0  0  0  0  0  0  0  0  0
  -24.1850  -36.7780   23.1090 C   0  0  0  0  0  1  0  0  0  0  0  0
  -25.4390  -36.3840   23.9050 C   0  0  0  0  0  3  0  0  0  0  0  0
  -27.5830  -37.2820   24.6980 C   0  0  0  0  0  1  0  0  0  0  0  0
  -26.4640  -37.4430   23.7730 N   0  0  0  0  0  0  0  0  0  0  0  0
  -26.0540  -38.3600   23.9310 H   0  0  0  0  0  0  0  0  0  0  0  0
  -26.4310  -31.7800   25.1690 C   0  0  1  0  0  0  0  0  0  0  0  0
  -25.3360  -31.5500   26.2370 C   0  0  0  0  0  1  0  0  0  0  0  0
  -27.0120  -30.3980   24.7890 C   0  0  0  0  0  1  0  0  0  0  0  0
  -27.5820  -32.5750   25.8290 C   0  0  0  0  0  1  0  0  0  0  0  0
  -29.4350  -20.9710   20.9430 C   0  0  0  0  0  2  0  0  0  0  0  0
  -30.6180  -14.8220   20.2850 C   0  0  0  0  0  0  0  0  0  0  0  0
  -30.4230  -12.5420   19.2760 C   0  0  0  0  0  2  0  0  0  0  0  0
  -29.4860  -12.6210   18.0490 C   0  0  0  0  0  2  0  0  0  0  0  0
  -28.0170  -12.4420   18.4750 C   0  0  0  0  0  2  0  0  0  0  0  0
  -27.6400  -13.3230   19.6950 C   0  0  0  0  0  3  0  0  0  0  0  0
  -28.6970  -13.2310   20.8190 C   0  0  0  0  0  2  0  0  0  0  0  0
  -29.9970  -13.5900   20.2350 N   0  0  0  0  0  0  0  0  0  0  0  0
  -31.7960  -14.9110   19.9200 O   0  0  0  0  0  0  0  0  0  0  0  0
  -30.0330  -17.3860   20.3420 C   0  0  0  0  0  0  0  0  0  0  0  0
  -30.6830  -19.1900   19.4790 C   0  0  0  0  0  3  0  0  0  0  0  0
  -30.8740  -17.8700   19.3720 N   0  0  0  0  0  0  0  0  0  0  0  0
  -29.3370  -18.3770   20.9710 N   0  0  0  0  0  2  0  0  0  0  0  0
  -29.7750  -19.5770   20.3940 N   0  0  0  0  0  0  0  0  0  0  0  0
  -31.3800  -20.1200   18.7390 N   0  0  0  0  0  0  0  0  0  0  0  0
  -29.8580  -15.9370   20.6170 N   0  0  0  0  0  0  0  0  0  0  0  0
  -32.1360  -19.8410   18.1270 H   0  0  0  0  0  0  0  0  0  0  0  0
  -31.3190  -21.1090   18.9390 H   0  0  0  0  0  0  0  0  0  0  0  0
  -28.9770  -15.7100   21.0470 H   0  0  0  0  0  0  0  0  0  0  0  0
  -25.2430  -13.9020   20.4040 C   0  0  0  0  0  0  0  0  0  0  0  0
  -24.1820  -13.1230   20.7780 C   0  0  0  0  0  0  0  0  0  0  0  0
  -24.6560  -11.7750   20.7660 C   0  0  0  0  0  0  0  0  0  0  0  0
  -26.2950  -13.0290   20.1830 N   0  0  0  0  0  0  0  0  0  0  0  0
  -25.9490  -11.7460   20.4630 N   0  0  0  0  0  0  0  0  0  0  0  0
  -23.9390  -10.5100   20.9690 C   0  0  0  0  0  0  0  0  0  0  0  0
  -24.3760   -9.5560   21.9150 C   0  0  0  0  0  3  0  0  0  0  0  0
  -23.6570   -8.3560   22.1050 C   0  0  0  0  0  3  0  0  0  0  0  0
  -22.4890   -8.0990   21.3480 C   0  0  0  0  0  0  0  0  0  0  0  0
  -22.0720   -9.0410   20.3920 C   0  0  0  0  0  3  0  0  0  0  0  0
  -22.7910  -10.2330   20.2000 C   0  0  0  0  0  3  0  0  0  0  0  0
  -21.7430   -6.9500   21.4470 O   0  0  0  0  0  0  0  0  0  0  0  0
  -21.7010   -6.2160   22.6060 C   0  0  0  0  0  0  0  0  0  0  0  0
  -21.2610   -6.7760   23.8250 C   0  0  0  0  0  3  0  0  0  0  0  0
  -21.1660   -5.9690   24.9760 C   0  0  0  0  0  3  0  0  0  0  0  0
  -21.5000   -4.6020   24.9080 C   0  0  0  0  0  0  0  0  0  0  0  0
  -21.9320   -4.0420   23.6930 C   0  0  0  0  0  3  0  0  0  0  0  0
  -22.0290   -4.8470   22.5450 C   0  0  0  0  0  0  0  0  0  0  0  0
  -22.4260   -4.2980   21.3720 F   0  0  0  0  0  0  0  0  0  0  0  0
  -21.4010   -3.8250   26.0120 F   0  0  0  0  0  0  0  0  0  0  0  0
  -22.7800  -13.5920   21.0360 C   0  0  0  0  0  0  0  0  0  0  0  0
  -22.0520  -12.9010   21.9070 N   0  0  0  0  0  0  0  0  0  0  0  0
  -22.3360  -14.6070   20.5010 O   0  0  0  0  0  0  0  0  0  0  0  0
  -22.4230  -12.0800   22.3630 H   0  0  0  0  0  0  0  0  0  0  0  0
  -21.1100  -13.1980   22.1220 H   0  0  0  0  0  0  0  0  0  0  0  0
  -25.3950  -15.2710   20.2100 N   0  0  0  0  0  0  0  0  0  0  0  0
  -24.6190  -15.9160   20.3090 H   0  0  0  0  0  0  0  0  0  0  0  0
  -26.2330  -15.7140   19.8560 H   0  0  0  0  0  0  0  0  0  0  0  0
  1  6  1  0
  1 50  1  0
  2  1  1  0
  2  3  2  0
  4  5  1  0
  5  2  1  0
  8  7  1  0
  8  9  1  0
  8  6  1  0
 10 21  2  0
 11  9  1  0
 11 16  1  0
 12 20  1  0
 12 22  1  0
 13 19  1  0
 13 15  1  0
 14 20  1  0
 15 14  1  0
 16 15  2  0
 17 18  1  0
 17 11  2  0
 18 13  2  0
 19 12  1  0
 20 10  1  0
 22 24  2  0
 23 22  1  0
 25 23  1  0
 26 35  2  0
 26 31  1  0
 27 23  1  0
 27 31  1  0
 28 27  1  0
 29 30  1  0
 29 28  1  0
 30 26  1  0
 31 32  2  0
 32 33  1  0
 34 33  2  0
 35 34  1  0
 36 10  1  0
 36 37  1  0
 36 46  1  0
 37 40  1  0
 38 42  1  0
 38 37  1  0
 39 38  2  0
 42 41  1  0
 44 42  1  0
 44 45  1  0
 44 43  1  0
 46 49  1  1
 46 47  1  0
 48 46  1  0
 51 65  1  0
 52 57  1  0
 53 54  1  0
 53 52  1  0
 55 54  1  0
 55 72  1  0
 55 56  1  0
 57 51  1  0
 57 56  1  0
 58 51  2  0
 59 65  1  0
 59 62  1  0
 60 64  1  0
 60 63  1  0
 61 60  1  0
 61 59  2  0
 63 50  1  0
 63 62  1  0
 64 67  1  0
 65 68  1  0
 66 64  1  0
 69 70  2  0
 70 89  1  0
 71 70  1  0
 71 74  1  0
 72 69  1  0
 72 73  1  0
 73 71  2  0
 74 75  1  0
 75 76  2  0
 77 80  1  0
 77 76  1  0
 78 77  2  0
 79 78  1  0
 79 74  2  0
 80 81  1  0
 81 82  1  0
 82 83  2  0
 84 83  1  0
 84 88  1  0
 85 84  2  0
 86 81  2  0
 86 85  1  0
 87 86  1  0
 89 90  1  0
 90 93  1  0
 90 92  1  0
 91 89  2  0
 94 95  1  0
 94 69  1  0
 96 94  1  0
M  ISO  4   8 101   9 101  51 100  65 100
M  END
>  <TORSDO>  (65) 
F 21

>  <SCORE>  (65) 
-13.632

>  <name>  (65) 
64

>  <ligand_id>  (65) 
64

>  <original_smiles>  (65) 
[H]c1c([H])c([H])c2c(c1[H])C([H])([H])C([H])([H])C([H])([H])C2([H])N([H])C(=O)C1([H])N(C(=O)C([H])(N([H])C(=O)C([H])(N([H])C([H])([H])[H])C([H])([H])[H])C(C([H])([H])[H])(C([H])([H])[H])C([H])([H])[H])C([H])([H])c2c([H])c(OC([H])(C([H])([H])[H])C([H])([H])C([H])(C(=O)C([H])([H])C([H])([H])[H])C([H])([H])n3nc(N([H])C(=O)N4C([H])([H])C([H])([H])C([H])([H])C([H])(n5nc(-c6c([H])c([H])c(Oc7c([H])c([H])c(F)c([H])c7F)c([H])c6[H])c(C(=O)N([H])[H])c5N([H])[H])C4([H])[H])nc3N([H])[H])c([H])c([H])c2C1([H])[H]

>  <smiles>  (65) 
[H]c1c([H])c([H])c2c(c1[H])C([H])([H])C([H])([H])C([H])([H])C2([H])N([H])C(=O)C1([H])N(C(=O)C([H])(N([H])C(=O)C([H])(N([H])C([H])([H])[H])C([H])([H])[H])C(C([H])([H])[H])(C([H])([H])[H])C([H])([H])[H])C([H])([H])c2c([H])c(OC([H])(C([H])([H])[H])C([H])([H])C([H])(C(=O)C([H])([H])C([H])([H])[H])C([H])([H])n3nc(N([H])C(=O)N4C([H])([H])C([H])([H])C([H])([H])C([H])(n5nc(-c6c([H])c([H])c(Oc7c([H])c([H])c(F)c([H])c7F)c([H])c6[H])c(C(=O)N([H])[H])c5N([H])[H])C4([H])[H])nc3N([H])[H])c([H])c([H])c2C1([H])[H]

$$$$
65:0:0
     RDKit          3D

 97105  0  0  1  0  0  0  0  0999 V2000
  -29.6100  -21.9930   20.4580 N   0  0  0  0  0  4  0  0  0  0  0  0
  -30.5930  -21.7120   20.5350 H   0  0  0  0  0  0  0  0  0  0  0  0
  -29.3300  -22.1770   21.4060 H   0  0  0  0  0  0  0  0  0  0  0  0
  -27.6630  -20.4800   20.7130 C   0  0  0  0  0  1  0  0  0  0  0  0
  -28.9980  -20.7050   19.9830 C   0  0  0  0  0  3  0  0  0  0  0  0
  -30.9700  -14.7620   20.0610 C   0  0  0  0  0  0  0  0  0  0  0  0
  -30.6930  -12.5150   19.0600 C   0  0  0  0  0  2  0  0  0  0  0  0
  -29.7200  -12.6360   17.8680 C   0  0  0  0  0  2  0  0  0  0  0  0
  -28.2560  -12.5170   18.3380 C   0  0  0  0  0  2  0  0  0  0  0  0
  -27.9430  -13.4180   19.5630 C   0  0  0  0  0  3  0  0  0  0  0  0
  -29.0260  -13.2690   20.6560 C   0  0  0  0  0  2  0  0  0  0  0  0
  -30.3260  -13.5570   20.0330 N   0  0  0  0  0  0  0  0  0  0  0  0
  -32.1260  -14.8890   19.6500 O   0  0  0  0  0  0  0  0  0  0  0  0
  -29.9590  -19.5080   20.1750 C   0  0  0  0  0  0  0  0  0  0  0  0
  -31.3350  -19.5610   20.2960 C   0  0  0  0  0  0  0  0  0  0  0  0
  -30.4690  -17.2350   20.2880 C   0  0  0  0  0  0  0  0  0  0  0  0
  -29.4940  -18.1640   20.1670 N   0  0  0  0  0  0  0  0  0  0  0  0
  -30.1740  -15.8280   20.3440 N   0  0  0  0  0  0  0  0  0  0  0  0
  -32.0660  -17.9700   20.4080 S   0  0  0  0  0  0  0  0  0  0  0  0
  -29.2160  -15.5960   20.5440 H   0  0  0  0  0  0  0  0  0  0  0  0
  -25.5900  -14.0780   20.3620 C   0  0  0  0  0  0  0  0  0  0  0  0
  -24.5160  -13.3300   20.7590 C   0  0  0  0  0  0  0  0  0  0  0  0
  -24.9420  -11.9680   20.7060 C   0  0  0  0  0  0  0  0  0  0  0  0
  -26.6040  -13.1720   20.0890 N   0  0  0  0  0  0  0  0  0  0  0  0
  -26.2190  -11.8980   20.3550 N   0  0  0  0  0  0  0  0  0  0  0  0
  -24.1910  -10.7220   20.9100 C   0  0  0  0  0  0  0  0  0  0  0  0
  -24.5920   -9.7670   21.8690 C   0  0  0  0  0  3  0  0  0  0  0  0
  -23.8410   -8.5860   22.0590 C   0  0  0  0  0  3  0  0  0  0  0  0
  -22.6790   -8.3510   21.2880 C   0  0  0  0  0  0  0  0  0  0  0  0
  -22.2970   -9.2950   20.3190 C   0  0  0  0  0  3  0  0  0  0  0  0
  -23.0470  -10.4670   20.1260 C   0  0  0  0  0  3  0  0  0  0  0  0
  -21.9040   -7.2200   21.3850 O   0  0  0  0  0  0  0  0  0  0  0  0
  -21.7890   -6.5240   22.5620 C   0  0  0  0  0  0  0  0  0  0  0  0
  -21.2430   -7.1120   23.7240 C   0  0  0  0  0  3  0  0  0  0  0  0
  -21.0780   -6.3420   24.8920 C   0  0  0  0  0  3  0  0  0  0  0  0
  -21.4500   -4.9840   24.8970 C   0  0  0  0  0  0  0  0  0  0  0  0
  -21.9900   -4.3950   23.7410 C   0  0  0  0  0  3  0  0  0  0  0  0
  -22.1550   -5.1630   22.5760 C   0  0  0  0  0  0  0  0  0  0  0  0
  -22.6560   -4.5850   21.4550 F   0  0  0  0  0  0  0  0  0  0  0  0
  -21.2840   -4.2410   26.0170 F   0  0  0  0  0  0  0  0  0  0  0  0
  -23.1390  -13.8390   21.0820 C   0  0  0  0  0  0  0  0  0  0  0  0
  -22.4250  -13.1560   21.9700 N   0  0  0  0  0  0  0  0  0  0  0  0
  -22.7100  -14.8790   20.5840 O   0  0  0  0  0  0  0  0  0  0  0  0
  -22.7890  -12.3170   22.3990 H   0  0  0  0  0  0  0  0  0  0  0  0
  -21.5050  -13.4800   22.2300 H   0  0  0  0  0  0  0  0  0  0  0  0
  -25.7850  -15.4470   20.1880 N   0  0  0  0  0  0  0  0  0  0  0  0
  -25.0400  -16.1210   20.3250 H   0  0  0  0  0  0  0  0  0  0  0  0
  -26.6290  -15.8670   19.8180 H   0  0  0  0  0  0  0  0  0  0  0  0
  -32.1530  -20.6910   20.3220 N   0  0  0  0  0  0  0  0  0  0  0  0
  -32.6210  -20.7590   21.2250 H   0  0  0  0  0  0  0  0  0  0  0  0
  -32.9260  -20.5610   19.6730 H   0  0  0  0  0  0  0  0  0  0  0  0
  -29.7520  -22.9890   18.1160 C   0  0  0  0  0  1  0  0  0  0  0  0
  -29.5990  -23.2570   19.6310 C   0  0  0  0  0  3  0  0  0  0  0  0
  -28.4500  -24.3090   19.9250 C   0  0  0  0  0  2  0  0  0  0  0  0
  -28.1330  -25.4940   22.2230 C   0  0  0  0  0  1  0  0  0  0  0  0
  -28.7870  -25.5560   20.8310 C   0  0  0  0  0  3  0  0  0  0  0  0
  -28.6510  -26.8850   20.2360 O   0  0  0  0  0  0  0  0  0  0  0  0
  -24.5510  -31.8930   23.3140 C   0  0  0  0  0  0  0  0  0  0  0  0
  -27.4420  -27.5680   20.2550 C   0  0  0  0  0  0  0  0  0  0  0  0
  -23.4520  -30.4870   21.6050 C   0  0  0  0  0  3  0  0  0  0  0  0
  -25.0030  -29.0220   20.2030 C   0  0  0  0  0  0  0  0  0  0  0  0
  -25.9710  -30.9290   21.5000 C   0  0  0  0  0  2  0  0  0  0  0  0
  -26.1250  -29.5700   20.8370 C   0  0  0  0  0  0  0  0  0  0  0  0
  -27.3500  -28.8560   20.8480 C   0  0  0  0  0  3  0  0  0  0  0  0
  -26.3010  -27.0390   19.6210 C   0  0  0  0  0  3  0  0  0  0  0  0
  -25.0890  -27.7600   19.5880 C   0  0  0  0  0  3  0  0  0  0  0  0
  -23.7300  -29.8410   20.2210 C   0  0  0  0  0  2  0  0  0  0  0  0
  -24.6740  -31.1190   22.1980 N   0  0  0  0  0  0  0  0  0  0  0  0
  -23.4430  -32.1160   23.8230 O   0  0  0  0  0  0  0  0  0  0  0  0
  -22.8010  -29.4280   22.5250 C   0  0  0  0  0  0  0  0  0  0  0  0
  -21.4920  -29.1900   22.3350 N   0  0  0  0  0  0  0  0  0  0  0  0
  -23.4730  -28.8220   23.3650 O   0  0  0  0  0  0  0  0  0  0  0  0
  -21.0110  -29.7310   21.6290 H   0  0  0  0  0  0  0  0  0  0  0  0
  -18.1500  -27.8560   22.6860 C   0  0  0  0  0  0  0  0  0  0  0  0
  -20.6850  -28.2050   23.0540 C   0  0  0  0  0  3  0  0  0  0  0  0
  -20.8640  -26.7920   22.4530 C   0  0  0  0  0  2  0  0  0  0  0  0
  -19.8110  -26.4510   21.3930 C   0  0  0  0  0  2  0  0  0  0  0  0
  -18.4040  -26.5300   21.9890 C   0  0  0  0  0  2  0  0  0  0  0  0
  -19.2230  -28.6490   23.1740 C   0  0  0  0  0  0  0  0  0  0  0  0
  -18.9350  -29.8880   23.7860 C   0  0  0  0  0  3  0  0  0  0  0  0
  -17.6070  -30.3370   23.9140 C   0  0  0  0  0  3  0  0  0  0  0  0
  -16.5480  -29.5400   23.4440 C   0  0  0  0  0  3  0  0  0  0  0  0
  -16.8210  -28.3010   22.8370 C   0  0  0  0  0  3  0  0  0  0  0  0
  -25.7920  -32.5550   23.9910 C   0  0  0  0  0  3  0  0  0  0  0  0
  -25.4550  -33.9600   24.2590 N   0  0  0  0  0  0  0  0  0  0  0  0
  -25.8300  -34.9920   23.4910 C   0  0  0  0  0  0  0  0  0  0  0  0
  -26.5620  -34.8620   22.5060 O   0  0  0  0  0  0  0  0  0  0  0  0
  -24.8100  -34.1340   25.0140 H   0  0  0  0  0  0  0  0  0  0  0  0
  -24.1250  -36.7640   22.9660 C   0  0  0  0  0  1  0  0  0  0  0  0
  -25.3070  -36.3890   23.8730 C   0  0  0  0  0  3  0  0  0  0  0  0
  -27.3640  -37.3200   24.8390 C   0  0  0  0  0  1  0  0  0  0  0  0
  -26.3420  -37.4430   23.8040 N   0  0  0  0  0  0  0  0  0  0  0  0
  -25.9230  -38.3660   23.8800 H   0  0  0  0  0  0  0  0  0  0  0  0
  -26.2400  -31.8280   25.3180 C   0  0  1  0  0  0  0  0  0  0  0  0
  -25.0870  -31.6040   26.3240 C   0  0  0  0  0  1  0  0  0  0  0  0
  -26.8640  -30.4480   25.0030 C   0  0  0  0  0  1  0  0  0  0  0  0
  -27.3370  -32.6570   26.0270 C   0  0  0  0  0  1  0  0  0  0  0  0
  1  2  1  0
  1  3  1  0
  5 14  1  0
  5  1  1  0
  5  4  1  0
  6 18  1  0
  7 12  1  0
  8  9  1  0
  8  7  1  0
 10  9  1  0
 10 24  1  0
 10 11  1  0
 12  6  1  0
 12 11  1  0
 13  6  2  0
 14 15  2  0
 15 49  1  0
 15 19  1  0
 16 18  1  0
 16 19  1  0
 17 14  1  0
 17 16  2  0
 18 20  1  0
 21 22  2  0
 22 41  1  0
 23 22  1  0
 23 26  1  0
 24 25  1  0
 24 21  1  0
 25 23  2  0
 26 27  1  0
 27 28  2  0
 29 32  1  0
 29 28  1  0
 30 29  2  0
 31 30  1  0
 31 26  2  0
 32 33  1  0
 33 38  2  0
 33 34  1  0
 34 35  2  0
 35 36  1  0
 36 40  1  0
 37 36  2  0
 38 37  1  0
 39 38  1  0
 41 42  1  0
 42 45  1  0
 42 44  1  0
 43 41  2  0
 46 47  1  0
 46 21  1  0
 48 46  1  0
 49 50  1  0
 51 49  1  0
 53 52  1  0
 53 54  1  0
 53  1  1  0
 54 56  1  0
 56 55  1  0
 57 59  1  0
 57 56  1  0
 58 69  2  0
 59 64  1  0
 60 68  1  0
 60 70  1  0
 61 67  1  0
 61 63  1  0
 62 68  1  0
 63 64  2  0
 63 62  1  0
 65 59  2  0
 66 65  1  0
 66 61  2  0
 67 60  1  0
 68 58  1  0
 70 72  2  0
 71 70  1  0
 73 71  1  0
 74 83  2  0
 74 79  1  0
 75 71  1  0
 75 79  1  0
 76 75  1  0
 77 78  1  0
 77 76  1  0
 78 74  1  0
 79 80  2  0
 80 81  1  0
 82 81  2  0
 83 82  1  0
 84 58  1  0
 84 85  1  0
 84 94  1  0
 85 88  1  0
 86 90  1  0
 86 85  1  0
 87 86  2  0
 90 89  1  0
 92 90  1  0
 92 93  1  0
 92 91  1  0
 94 97  1  1
 94 95  1  0
 96 94  1  0
M  ISO  4   6 100  18 100  56 101  57 101
M  END
>  <TORSDO>  (66) 
F 21

>  <SCORE>  (66) 
-13.193

>  <name>  (66) 
65

>  <ligand_id>  (66) 
65

>  <original_smiles>  (66) 
[H]c1c([H])c([H])c2c(c1[H])C([H])([H])C([H])([H])C([H])([H])C2([H])N([H])C(=O)C1([H])N(C(=O)C([H])(N([H])C(=O)C([H])(N([H])C([H])([H])[H])C([H])([H])[H])C(C([H])([H])[H])(C([H])([H])[H])C([H])([H])[H])C([H])([H])c2c([H])c(OC([H])(C([H])([H])[H])C([H])([H])C([H])(C([H])([H])[H])[N+]([H])([H])C([H])(c3nc(N([H])C(=O)N4C([H])([H])C([H])([H])C([H])([H])C([H])(n5nc(-c6c([H])c([H])c(Oc7c([H])c([H])c(F)c([H])c7F)c([H])c6[H])c(C(=O)N([H])[H])c5N([H])[H])C4([H])[H])sc3N([H])[H])C([H])([H])[H])c([H])c([H])c2C1([H])[H]

>  <smiles>  (66) 
[H]c1c([H])c([H])c2c(c1[H])C([H])([H])C([H])([H])C([H])([H])C2([H])N([H])C(=O)C1([H])N(C(=O)C([H])(N([H])C(=O)C([H])(N([H])C([H])([H])[H])C([H])([H])[H])C(C([H])([H])[H])(C([H])([H])[H])C([H])([H])[H])C([H])([H])c2c([H])c(OC([H])(C([H])([H])[H])C([H])([H])C([H])(C([H])([H])[H])[N+]([H])([H])C([H])(c3nc(N([H])C(=O)N4C([H])([H])C([H])([H])C([H])([H])C([H])(n5nc(-c6c([H])c([H])c(Oc7c([H])c([H])c(F)c([H])c7F)c([H])c6[H])c(C(=O)N([H])[H])c5N([H])[H])C4([H])[H])sc3N([H])[H])C([H])([H])[H])c([H])c([H])c2C1([H])[H]

$$$$
66:0:0
     RDKit          3D

 93101  0  0  1  0  0  0  0  0999 V2000
  -28.7940  -21.5860   19.9970 C   0  0  0  0  0  2  0  0  0  0  0  0
  -28.9480  -20.3290   20.7450 N   0  0  0  0  0  0  0  0  0  0  0  0
  -29.1740  -20.4210   21.7300 H   0  0  0  0  0  0  0  0  0  0  0  0
  -30.7090  -14.5670   20.6850 C   0  0  0  0  0  0  0  0  0  0  0  0
  -30.4820  -12.3770   19.5930 C   0  0  0  0  0  2  0  0  0  0  0  0
  -29.5930  -12.5740   18.3440 C   0  0  0  0  0  2  0  0  0  0  0  0
  -28.0990  -12.4490   18.7080 C   0  0  0  0  0  2  0  0  0  0  0  0
  -27.7070  -13.2800   19.9600 C   0  0  0  0  0  3  0  0  0  0  0  0
  -28.7200  -13.0740   21.1110 C   0  0  0  0  0  2  0  0  0  0  0  0
  -30.0650  -13.3700   20.5950 N   0  0  0  0  0  0  0  0  0  0  0  0
  -31.8790  -14.7200   20.3210 O   0  0  0  0  0  0  0  0  0  0  0  0
  -29.7190  -17.8930   18.0400 C   0  0  0  0  0  3  0  0  0  0  0  0
  -29.9470  -16.7620   18.8350 C   0  0  0  0  0  3  0  0  0  0  0  0
  -29.3640  -19.0930   18.6690 C   0  0  0  0  0  3  0  0  0  0  0  0
  -29.8150  -16.8370   20.2420 C   0  0  0  0  0  0  0  0  0  0  0  0
  -29.2720  -19.1340   20.0720 C   0  0  0  0  0  0  0  0  0  0  0  0
  -29.4840  -18.0250   20.8310 N   0  0  0  0  0  0  0  0  0  0  0  0
  -29.9330  -15.6270   21.0030 N   0  0  0  0  0  0  0  0  0  0  0  0
  -29.1250  -15.4090   21.5590 H   0  0  0  0  0  0  0  0  0  0  0  0
  -25.2750  -13.8760   20.5530 C   0  0  0  0  0  0  0  0  0  0  0  0
  -24.1960  -13.0990   20.8850 C   0  0  0  0  0  0  0  0  0  0  0  0
  -24.6680  -11.7500   20.8930 C   0  0  0  0  0  0  0  0  0  0  0  0
  -26.3350  -12.9990   20.3820 N   0  0  0  0  0  0  0  0  0  0  0  0
  -25.9710  -11.7170   20.6430 N   0  0  0  0  0  0  0  0  0  0  0  0
  -23.9420  -10.4840   21.0630 C   0  0  0  0  0  0  0  0  0  0  0  0
  -24.3360   -9.5330   22.0290 C   0  0  0  0  0  3  0  0  0  0  0  0
  -23.6110   -8.3330   22.1920 C   0  0  0  0  0  3  0  0  0  0  0  0
  -22.4770   -8.0750   21.3890 C   0  0  0  0  0  0  0  0  0  0  0  0
  -22.1010   -9.0150   20.4120 C   0  0  0  0  0  3  0  0  0  0  0  0
  -22.8280  -10.2070   20.2470 C   0  0  0  0  0  3  0  0  0  0  0  0
  -21.7270   -6.9270   21.4570 O   0  0  0  0  0  0  0  0  0  0  0  0
  -21.6230   -6.2010   22.6170 C   0  0  0  0  0  0  0  0  0  0  0  0
  -21.1130   -6.7670   23.8070 C   0  0  0  0  0  3  0  0  0  0  0  0
  -20.9620   -5.9680   24.9570 C   0  0  0  0  0  3  0  0  0  0  0  0
  -21.3050   -4.6040   24.9190 C   0  0  0  0  0  0  0  0  0  0  0  0
  -21.8070   -4.0370   23.7340 C   0  0  0  0  0  3  0  0  0  0  0  0
  -21.9630   -4.8330   22.5850 C   0  0  0  0  0  0  0  0  0  0  0  0
  -22.4250   -4.2770   21.4400 F   0  0  0  0  0  0  0  0  0  0  0  0
  -21.1520   -3.8340   26.0220 F   0  0  0  0  0  0  0  0  0  0  0  0
  -22.7840  -13.5680   21.0880 C   0  0  0  0  0  0  0  0  0  0  0  0
  -22.0230  -12.8750   21.9280 N   0  0  0  0  0  0  0  0  0  0  0  0
  -22.3610  -14.5830   20.5360 O   0  0  0  0  0  0  0  0  0  0  0  0
  -22.3720  -12.0520   22.3970 H   0  0  0  0  0  0  0  0  0  0  0  0
  -21.0720  -13.1700   22.1040 H   0  0  0  0  0  0  0  0  0  0  0  0
  -25.4390  -15.2450   20.3580 N   0  0  0  0  0  0  0  0  0  0  0  0
  -24.6720  -15.9040   20.4350 H   0  0  0  0  0  0  0  0  0  0  0  0
  -26.2980  -15.6790   20.0490 H   0  0  0  0  0  0  0  0  0  0  0  0
  -28.5210  -22.8210   20.8950 C   0  0  0  0  0  3  0  0  0  0  0  0
  -29.5660  -22.8450   21.8540 O   0  0  0  0  0  0  0  0  0  0  0  0
  -29.3970  -23.5580   22.4630 H   0  0  0  0  0  0  0  0  0  0  0  0
  -28.5120  -24.1650   20.0980 C   0  0  0  0  0  2  0  0  0  0  0  0
  -28.1320  -25.4260   20.9240 C   0  0  0  0  0  2  0  0  0  0  0  0
  -28.3050  -26.6780   20.2170 O   0  0  0  0  0  0  0  0  0  0  0  0
  -24.5310  -31.9160   23.2250 C   0  0  0  0  0  0  0  0  0  0  0  0
  -27.1770  -27.4640   20.1720 C   0  0  0  0  0  0  0  0  0  0  0  0
  -23.3360  -30.5150   21.5770 C   0  0  0  0  0  3  0  0  0  0  0  0
  -24.7960  -28.9830   20.1550 C   0  0  0  0  0  0  0  0  0  0  0  0
  -25.8620  -30.8810   21.3850 C   0  0  0  0  0  2  0  0  0  0  0  0
  -25.9540  -29.5090   20.7440 C   0  0  0  0  0  0  0  0  0  0  0  0
  -27.1550  -28.7610   20.7420 C   0  0  0  0  0  3  0  0  0  0  0  0
  -26.0060  -26.9580   19.5710 C   0  0  0  0  0  3  0  0  0  0  0  0
  -24.8170  -27.7090   19.5630 C   0  0  0  0  0  3  0  0  0  0  0  0
  -23.5500  -29.8370   20.1980 C   0  0  0  0  0  2  0  0  0  0  0  0
  -24.5960  -31.1170   22.1220 N   0  0  0  0  0  0  0  0  0  0  0  0
  -23.4460  -32.1870   23.7590 O   0  0  0  0  0  0  0  0  0  0  0  0
  -22.6830  -29.4920   22.5360 C   0  0  0  0  0  0  0  0  0  0  0  0
  -21.3600  -29.3070   22.4000 N   0  0  0  0  0  0  0  0  0  0  0  0
  -23.3630  -28.8660   23.3540 O   0  0  0  0  0  0  0  0  0  0  0  0
  -20.8750  -29.8620   21.7090 H   0  0  0  0  0  0  0  0  0  0  0  0
  -17.9800  -28.1210   22.8830 C   0  0  0  0  0  0  0  0  0  0  0  0
  -20.5380  -28.3680   23.1630 C   0  0  0  0  0  3  0  0  0  0  0  0
  -20.6370  -26.9410   22.5770 C   0  0  0  0  0  2  0  0  0  0  0  0
  -19.5340  -26.6290   21.5600 C   0  0  0  0  0  2  0  0  0  0  0  0
  -18.1540  -26.7750   22.2030 C   0  0  0  0  0  2  0  0  0  0  0  0
  -19.1000  -28.8750   23.3200 C   0  0  0  0  0  0  0  0  0  0  0  0
  -18.8880  -30.1370   23.9180 C   0  0  0  0  0  3  0  0  0  0  0  0
  -17.5860  -30.6430   24.0870 C   0  0  0  0  0  3  0  0  0  0  0  0
  -16.4780  -29.8870   23.6650 C   0  0  0  0  0  3  0  0  0  0  0  0
  -16.6760  -28.6290   23.0680 C   0  0  0  0  0  3  0  0  0  0  0  0
  -25.8100  -32.5490   23.8530 C   0  0  0  0  0  3  0  0  0  0  0  0
  -25.5010  -33.9500   24.1690 N   0  0  0  0  0  0  0  0  0  0  0  0
  -25.8530  -34.9980   23.4130 C   0  0  0  0  0  0  0  0  0  0  0  0
  -26.5440  -34.8890   22.3970 O   0  0  0  0  0  0  0  0  0  0  0  0
  -24.8810  -34.1090   24.9490 H   0  0  0  0  0  0  0  0  0  0  0  0
  -24.1440  -36.8020   23.0140 C   0  0  0  0  0  1  0  0  0  0  0  0
  -25.3620  -36.3900   23.8570 C   0  0  0  0  0  3  0  0  0  0  0  0
  -27.4790  -37.2620   24.7440 C   0  0  0  0  0  1  0  0  0  0  0  0
  -26.4020  -37.4380   23.7730 N   0  0  0  0  0  0  0  0  0  0  0  0
  -25.9970  -38.3600   23.9130 H   0  0  0  0  0  0  0  0  0  0  0  0
  -26.3130  -31.7850   25.1400 C   0  0  1  0  0  0  0  0  0  0  0  0
  -25.2080  -31.5600   26.1980 C   0  0  0  0  0  1  0  0  0  0  0  0
  -26.8960  -30.4040   24.7600 C   0  0  0  0  0  1  0  0  0  0  0  0
  -27.4550  -32.5850   25.8110 C   0  0  0  0  0  1  0  0  0  0  0  0
  1  2  1  0
  2  3  1  0
  4 18  1  0
  5 10  1  0
  6  7  1  0
  6  5  1  0
  8  7  1  0
  8 23  1  0
  8  9  1  0
 10  4  1  0
 10  9  1  0
 11  4  2  0
 12 14  2  0
 12 13  1  0
 13 15  2  0
 14 16  1  0
 15 17  1  0
 15 18  1  0
 16  2  1  0
 16 17  2  0
 18 19  1  0
 20 21  2  0
 21 22  1  0
 21 40  1  0
 22 25  1  0
 23 20  1  0
 23 24  1  0
 24 22  2  0
 25 26  1  0
 26 27  2  0
 28 31  1  0
 28 27  1  0
 29 28  2  0
 30 29  1  0
 30 25  2  0
 31 32  1  0
 32 33  1  0
 33 34  2  0
 35 34  1  0
 35 39  1  0
 36 35  2  0
 37 32  2  0
 37 36  1  0
 38 37  1  0
 40 41  1  0
 41 44  1  0
 41 43  1  0
 42 40  2  0
 45 46  1  0
 45 20  1  0
 47 45  1  0
 48  1  1  0
 48 49  1  0
 49 50  1  0
 51 48  1  0
 51 52  1  0
 53 52  1  0
 54 65  2  0
 55 53  1  0
 55 60  1  0
 56 64  1  0
 56 66  1  0
 57 63  1  0
 57 59  1  0
 58 64  1  0
 59 58  1  0
 60 59  2  0
 61 55  2  0
 62 61  1  0
 62 57  2  0
 63 56  1  0
 64 54  1  0
 66 68  2  0
 67 66  1  0
 69 67  1  0
 70 79  2  0
 70 75  1  0
 71 67  1  0
 71 75  1  0
 72 71  1  0
 73 74  1  0
 73 72  1  0
 74 70  1  0
 75 76  2  0
 76 77  1  0
 78 77  2  0
 79 78  1  0
 80 54  1  0
 80 81  1  0
 80 90  1  0
 81 84  1  0
 82 86  1  0
 82 81  1  0
 83 82  2  0
 86 85  1  0
 88 86  1  0
 88 89  1  0
 88 87  1  0
 90 93  1  1
 90 91  1  0
 92 90  1  0
M  ISO  4   4 100  18 100  52 101  53 101
M  END
>  <TORSDO>  (67) 
F 21

>  <SCORE>  (67) 
-13.704

>  <name>  (67) 
66

>  <ligand_id>  (67) 
66

>  <original_smiles>  (67) 
[H]OC([H])(C([H])([H])N([H])c1nc(N([H])C(=O)N2C([H])([H])C([H])([H])C([H])([H])C([H])(n3nc(-c4c([H])c([H])c(Oc5c([H])c([H])c(F)c([H])c5F)c([H])c4[H])c(C(=O)N([H])[H])c3N([H])[H])C2([H])[H])c([H])c([H])c1[H])C([H])([H])C([H])([H])Oc1c([H])c([H])c2c(c1[H])C([H])([H])N(C(=O)C([H])(N([H])C(=O)C([H])(N([H])C([H])([H])[H])C([H])([H])[H])C(C([H])([H])[H])(C([H])([H])[H])C([H])([H])[H])C([H])(C(=O)N([H])C1([H])c3c([H])c([H])c([H])c([H])c3C([H])([H])C([H])([H])C1([H])[H])C2([H])[H]

>  <smiles>  (67) 
[H]OC([H])(C([H])([H])N([H])c1nc(N([H])C(=O)N2C([H])([H])C([H])([H])C([H])([H])C([H])(n3nc(-c4c([H])c([H])c(Oc5c([H])c([H])c(F)c([H])c5F)c([H])c4[H])c(C(=O)N([H])[H])c3N([H])[H])C2([H])[H])c([H])c([H])c1[H])C([H])([H])C([H])([H])Oc1c([H])c([H])c2c(c1[H])C([H])([H])N(C(=O)C([H])(N([H])C(=O)C([H])(N([H])C([H])([H])[H])C([H])([H])[H])C(C([H])([H])[H])(C([H])([H])[H])C([H])([H])[H])C([H])(C(=O)N([H])C1([H])c3c([H])c([H])c([H])c([H])c3C([H])([H])C([H])([H])C1([H])[H])C2([H])[H]

$$$$
67:0:0
     RDKit          3D

 94102  0  0  1  0  0  0  0  0999 V2000
  -28.5790  -23.1240   20.6840 C   0  0  0  0  0  3  0  0  0  0  0  0
  -26.0260  -22.9710   21.0090 C   0  0  0  0  0  1  0  0  0  0  0  0
  -27.4020  -22.9520   21.6890 C   0  0  0  0  0  2  0  0  0  0  0  0
  -29.6010  -21.9430   20.8400 C   0  0  0  0  0  2  0  0  0  0  0  0
  -28.9500  -20.5590   20.5330 C   0  0  0  0  0  2  0  0  0  0  0  0
  -29.3540  -18.0800   20.8430 C   0  0  0  0  0  3  0  0  0  0  0  0
  -31.0430  -19.1820   20.0280 C   0  0  0  0  0  3  0  0  0  0  0  0
  -30.3590  -17.1980   20.5140 C   0  0  0  0  0  0  0  0  0  0  0  0
  -31.4510  -17.9070   20.0090 N   0  0  0  0  0  0  0  0  0  0  0  0
  -29.7920  -19.3590   20.4900 N   0  0  0  0  0  0  0  0  0  0  0  0
  -30.8990  -14.7850   20.0730 C   0  0  0  0  0  0  0  0  0  0  0  0
  -30.5610  -12.6140   18.9510 C   0  0  0  0  0  2  0  0  0  0  0  0
  -29.5570  -12.8150   17.7950 C   0  0  0  0  0  2  0  0  0  0  0  0
  -28.1020  -12.6870   18.2910 C   0  0  0  0  0  2  0  0  0  0  0  0
  -27.8270  -13.5160   19.5750 C   0  0  0  0  0  3  0  0  0  0  0  0
  -28.9380  -13.2830   20.6250 C   0  0  0  0  0  2  0  0  0  0  0  0
  -30.2350  -13.5950   19.9960 N   0  0  0  0  0  0  0  0  0  0  0  0
  -32.0050  -14.9570   19.5540 O   0  0  0  0  0  0  0  0  0  0  0  0
  -30.1980  -15.7860   20.6450 N   0  0  0  0  0  0  0  0  0  0  0  0
  -29.3270  -15.4910   21.0560 H   0  0  0  0  0  0  0  0  0  0  0  0
  -25.4780  -14.1200   20.4350 C   0  0  0  0  0  0  0  0  0  0  0  0
  -24.4210  -13.3440   20.8370 C   0  0  0  0  0  0  0  0  0  0  0  0
  -24.8660  -11.9910   20.7370 C   0  0  0  0  0  0  0  0  0  0  0  0
  -26.4990  -13.2360   20.1190 N   0  0  0  0  0  0  0  0  0  0  0  0
  -26.1380  -11.9490   20.3590 N   0  0  0  0  0  0  0  0  0  0  0  0
  -24.1380  -10.7300   20.9300 C   0  0  0  0  0  0  0  0  0  0  0  0
  -24.5580   -9.7750   21.8820 C   0  0  0  0  0  3  0  0  0  0  0  0
  -23.8350   -8.5760   22.0590 C   0  0  0  0  0  3  0  0  0  0  0  0
  -22.6750   -8.3260   21.2880 C   0  0  0  0  0  0  0  0  0  0  0  0
  -22.2760   -9.2700   20.3230 C   0  0  0  0  0  3  0  0  0  0  0  0
  -22.9990  -10.4610   20.1450 C   0  0  0  0  0  3  0  0  0  0  0  0
  -21.9220   -7.1800   21.3750 O   0  0  0  0  0  0  0  0  0  0  0  0
  -21.7920   -6.4930   22.5560 C   0  0  0  0  0  0  0  0  0  0  0  0
  -21.2270   -7.0850   23.7070 C   0  0  0  0  0  3  0  0  0  0  0  0
  -21.0530   -6.3220   24.8790 C   0  0  0  0  0  3  0  0  0  0  0  0
  -21.4280   -4.9650   24.8970 C   0  0  0  0  0  0  0  0  0  0  0  0
  -21.9820   -4.3720   23.7490 C   0  0  0  0  0  3  0  0  0  0  0  0
  -22.1620   -5.1330   22.5810 C   0  0  0  0  0  0  0  0  0  0  0  0
  -22.6780   -4.5520   21.4730 F   0  0  0  0  0  0  0  0  0  0  0  0
  -21.2530   -4.2270   26.0180 F   0  0  0  0  0  0  0  0  0  0  0  0
  -23.0460  -13.8270   21.1980 C   0  0  0  0  0  0  0  0  0  0  0  0
  -22.3580  -13.1110   22.0820 N   0  0  0  0  0  0  0  0  0  0  0  0
  -22.5880  -14.8670   20.7310 O   0  0  0  0  0  0  0  0  0  0  0  0
  -22.7360  -12.2690   22.4870 H   0  0  0  0  0  0  0  0  0  0  0  0
  -21.4350  -13.4150   22.3610 H   0  0  0  0  0  0  0  0  0  0  0  0
  -25.6530  -15.4950   20.3030 N   0  0  0  0  0  0  0  0  0  0  0  0
  -24.9170  -16.1590   20.5120 H   0  0  0  0  0  0  0  0  0  0  0  0
  -26.5070  -15.9380   19.9860 H   0  0  0  0  0  0  0  0  0  0  0  0
  -29.2250  -24.5630   20.5960 C   0  0  0  0  0  2  0  0  0  0  0  0
  -28.3970  -25.7960   21.1080 C   0  0  0  0  0  3  0  0  0  0  0  0
  -27.4730  -26.5380   23.4090 C   0  0  0  0  0  1  0  0  0  0  0  0
  -29.7500  -25.4400   23.3540 C   0  0  0  0  0  1  0  0  0  0  0  0
  -28.7360  -26.2910   22.5570 C   0  0  0  0  0  3  0  0  0  0  0  0
  -28.5160  -26.9460   20.2300 O   0  0  0  0  0  0  0  0  0  0  0  0
  -24.5620  -32.0290   23.2740 C   0  0  0  0  0  0  0  0  0  0  0  0
  -27.3700  -27.7140   20.1610 C   0  0  0  0  0  0  0  0  0  0  0  0
  -23.4170  -30.6240   21.5910 C   0  0  0  0  0  3  0  0  0  0  0  0
  -24.9360  -29.1550   20.1540 C   0  0  0  0  0  0  0  0  0  0  0  0
  -25.9320  -31.0590   21.4310 C   0  0  0  0  0  2  0  0  0  0  0  0
  -26.0700  -29.7040   20.7660 C   0  0  0  0  0  0  0  0  0  0  0  0
  -27.2960  -28.9940   20.7590 C   0  0  0  0  0  3  0  0  0  0  0  0
  -26.2240  -27.1880   19.5280 C   0  0  0  0  0  3  0  0  0  0  0  0
  -25.0100  -27.9010   19.5240 C   0  0  0  0  0  3  0  0  0  0  0  0
  -23.6640  -29.9750   20.2020 C   0  0  0  0  0  2  0  0  0  0  0  0
  -24.6550  -31.2490   22.1600 N   0  0  0  0  0  0  0  0  0  0  0  0
  -23.4670  -32.2630   23.8030 O   0  0  0  0  0  0  0  0  0  0  0  0
  -22.7830  -29.5660   22.5240 C   0  0  0  0  0  0  0  0  0  0  0  0
  -21.4640  -29.3560   22.3800 N   0  0  0  0  0  0  0  0  0  0  0  0
  -23.4740  -28.9420   23.3340 O   0  0  0  0  0  0  0  0  0  0  0  0
  -20.9660  -29.9190   21.7050 H   0  0  0  0  0  0  0  0  0  0  0  0
  -18.1080  -28.1020   22.8510 C   0  0  0  0  0  0  0  0  0  0  0  0
  -20.6630  -28.3820   23.1220 C   0  0  0  0  0  3  0  0  0  0  0  0
  -20.7850  -26.9730   22.4930 C   0  0  0  0  0  2  0  0  0  0  0  0
  -19.6770  -26.6680   21.4790 C   0  0  0  0  0  2  0  0  0  0  0  0
  -18.3020  -26.7720   22.1420 C   0  0  0  0  0  2  0  0  0  0  0  0
  -19.2180  -28.8620   23.3020 C   0  0  0  0  0  0  0  0  0  0  0  0
  -18.9870  -30.1040   23.9340 C   0  0  0  0  0  3  0  0  0  0  0  0
  -17.6790  -30.5840   24.1200 C   0  0  0  0  0  3  0  0  0  0  0  0
  -16.5810  -29.8190   23.6860 C   0  0  0  0  0  3  0  0  0  0  0  0
  -16.7970  -28.5820   23.0530 C   0  0  0  0  0  3  0  0  0  0  0  0
  -25.8220  -32.6830   23.9230 C   0  0  0  0  0  3  0  0  0  0  0  0
  -25.4870  -34.0790   24.2280 N   0  0  0  0  0  0  0  0  0  0  0  0
  -25.8290  -35.1260   23.4660 C   0  0  0  0  0  0  0  0  0  0  0  0
  -26.5280  -35.0200   22.4560 O   0  0  0  0  0  0  0  0  0  0  0  0
  -24.8710  -34.2360   25.0100 H   0  0  0  0  0  0  0  0  0  0  0  0
  -24.0930  -36.8960   23.0350 C   0  0  0  0  0  1  0  0  0  0  0  0
  -25.3100  -36.5120   23.8940 C   0  0  0  0  0  3  0  0  0  0  0  0
  -27.3990  -37.4330   24.7960 C   0  0  0  0  0  1  0  0  0  0  0  0
  -26.3330  -37.5770   23.8080 N   0  0  0  0  0  0  0  0  0  0  0  0
  -25.9110  -38.4920   23.9280 H   0  0  0  0  0  0  0  0  0  0  0  0
  -26.3170  -31.9290   25.2180 C   0  0  1  0  0  0  0  0  0  0  0  0
  -25.1990  -31.6800   26.2570 C   0  0  0  0  0  1  0  0  0  0  0  0
  -26.9340  -30.5590   24.8480 C   0  0  0  0  0  1  0  0  0  0  0  0
  -27.4350  -32.7480   25.9050 C   0  0  0  0  0  1  0  0  0  0  0  0
  1 49  1  0
  1  4  1  0
  1  3  1  0
  2  3  1  0
  5  4  1  0
  7 10  1  0
  8 19  1  0
  8  6  2  0
  9  7  2  0
  9  8  1  0
 10  5  1  0
 10  6  1  0
 11 19  1  0
 12 17  1  0
 13 14  1  0
 13 12  1  0
 15 14  1  0
 15 24  1  0
 15 16  1  0
 17 11  1  0
 17 16  1  0
 18 11  2  0
 19 20  1  0
 21 22  2  0
 22 41  1  0
 23 22  1  0
 23 26  1  0
 24 25  1  0
 24 21  1  0
 25 23  2  0
 26 27  1  0
 27 28  2  0
 29 32  1  0
 29 28  1  0
 30 29  2  0
 31 30  1  0
 31 26  2  0
 32 33  1  0
 33 38  2  0
 33 34  1  0
 34 35  2  0
 35 36  1  0
 36 40  1  0
 37 36  2  0
 38 37  1  0
 39 38  1  0
 41 42  1  0
 42 45  1  0
 42 44  1  0
 43 41  2  0
 46 21  1  0
 46 47  1  0
 48 46  1  0
 50 49  1  0
 50 53  1  0
 53 52  1  0
 53 51  1  0
 54 50  1  0
 55 66  2  0
 56 54  1  0
 56 61  1  0
 57 65  1  0
 57 67  1  0
 58 64  1  0
 58 60  1  0
 59 65  1  0
 60 59  1  0
 61 60  2  0
 62 56  2  0
 63 62  1  0
 63 58  2  0
 64 57  1  0
 65 55  1  0
 67 69  2  0
 68 67  1  0
 70 68  1  0
 71 80  2  0
 71 76  1  0
 72 68  1  0
 72 76  1  0
 73 72  1  0
 74 75  1  0
 74 73  1  0
 75 71  1  0
 76 77  2  0
 77 78  1  0
 79 78  2  0
 80 79  1  0
 81 55  1  0
 81 82  1  0
 81 91  1  0
 82 85  1  0
 83 87  1  0
 83 82  1  0
 84 83  2  0
 87 86  1  0
 89 87  1  0
 89 90  1  0
 89 88  1  0
 91 94  1  1
 91 92  1  0
 93 91  1  0
M  ISO  4  11 100  19 100  50 101  54 101
M  END
>  <TORSDO>  (68) 
F 23

>  <SCORE>  (68) 
-12.433

>  <name>  (68) 
67

>  <ligand_id>  (68) 
67

>  <original_smiles>  (68) 
[H]c1c([H])c([H])c2c(c1[H])C([H])([H])C([H])([H])C([H])([H])C2([H])N([H])C(=O)C1([H])N(C(=O)C([H])(N([H])C(=O)C([H])(N([H])C([H])([H])[H])C([H])([H])[H])C(C([H])([H])[H])(C([H])([H])[H])C([H])([H])[H])C([H])([H])c2c([H])c(OC([H])(C([H])([H])C([H])(C([H])([H])C([H])([H])[H])C([H])([H])C([H])([H])n3c([H])nc(N([H])C(=O)N4C([H])([H])C([H])([H])C([H])([H])C([H])(n5nc(-c6c([H])c([H])c(Oc7c([H])c([H])c(F)c([H])c7F)c([H])c6[H])c(C(=O)N([H])[H])c5N([H])[H])C4([H])[H])c3[H])C([H])(C([H])([H])[H])C([H])([H])[H])c([H])c([H])c2C1([H])[H]

>  <smiles>  (68) 
[H]c1c([H])c([H])c2c(c1[H])C([H])([H])C([H])([H])C([H])([H])C2([H])N([H])C(=O)C1([H])N(C(=O)C([H])(N([H])C(=O)C([H])(N([H])C([H])([H])[H])C([H])([H])[H])C(C([H])([H])[H])(C([H])([H])[H])C([H])([H])[H])C([H])([H])c2c([H])c(OC([H])(C([H])([H])C([H])(C([H])([H])C([H])([H])[H])C([H])([H])C([H])([H])n3c([H])nc(N([H])C(=O)N4C([H])([H])C([H])([H])C([H])([H])C([H])(n5nc(-c6c([H])c([H])c(Oc7c([H])c([H])c(F)c([H])c7F)c([H])c6[H])c(C(=O)N([H])[H])c5N([H])[H])C4([H])[H])c3[H])C([H])(C([H])([H])[H])C([H])([H])[H])c([H])c([H])c2C1([H])[H]

$$$$
68:0:0
     RDKit          3D

 93101  0  0  1  0  0  0  0  0999 V2000
  -27.1660  -21.3290   21.0420 C   0  0  0  0  0  1  0  0  0  0  0  0
  -28.5760  -21.5760   20.4870 C   0  0  0  0  0  3  0  0  0  0  0  0
  -29.0430  -20.3400   19.8180 N   0  0  0  0  0  0  0  0  0  0  0  0
  -28.4190  -19.9830   19.1020 H   0  0  0  0  0  0  0  0  0  0  0  0
  -30.6830  -14.6240   20.1160 C   0  0  0  0  0  0  0  0  0  0  0  0
  -30.3980  -12.4470   18.9740 C   0  0  0  0  0  2  0  0  0  0  0  0
  -29.4030  -12.6580   17.8130 C   0  0  0  0  0  2  0  0  0  0  0  0
  -27.9440  -12.5120   18.3000 C   0  0  0  0  0  2  0  0  0  0  0  0
  -27.6560  -13.3370   19.5820 C   0  0  0  0  0  3  0  0  0  0  0  0
  -28.7540  -13.0990   20.6390 C   0  0  0  0  0  2  0  0  0  0  0  0
  -30.0470  -13.4220   20.0170 N   0  0  0  0  0  0  0  0  0  0  0  0
  -31.8280  -14.8040   19.6840 O   0  0  0  0  0  0  0  0  0  0  0  0
  -31.3580  -18.6040   22.1820 C   0  0  0  0  0  3  0  0  0  0  0  0
  -31.1100  -17.2760   21.7950 C   0  0  0  0  0  3  0  0  0  0  0  0
  -30.6750  -19.6430   21.5290 C   0  0  0  0  0  3  0  0  0  0  0  0
  -30.1870  -17.0100   20.7670 C   0  0  0  0  0  0  0  0  0  0  0  0
  -29.7450  -19.3330   20.5210 C   0  0  0  0  0  0  0  0  0  0  0  0
  -29.5090  -18.0390   20.1650 N   0  0  0  0  0  0  0  0  0  0  0  0
  -29.8760  -15.6450   20.4980 N   0  0  0  0  0  0  0  0  0  0  0  0
  -28.9080  -15.3910   20.6110 H   0  0  0  0  0  0  0  0  0  0  0  0
  -25.2960  -13.9590   20.4010 C   0  0  0  0  0  0  0  0  0  0  0  0
  -24.2360  -13.1910   20.8020 C   0  0  0  0  0  0  0  0  0  0  0  0
  -24.6830  -11.8350   20.7320 C   0  0  0  0  0  0  0  0  0  0  0  0
  -26.3220  -13.0700   20.1120 N   0  0  0  0  0  0  0  0  0  0  0  0
  -25.9580  -11.7880   20.3680 N   0  0  0  0  0  0  0  0  0  0  0  0
  -23.9540  -10.5760   20.9320 C   0  0  0  0  0  0  0  0  0  0  0  0
  -24.3830   -9.6170   21.8760 C   0  0  0  0  0  3  0  0  0  0  0  0
  -23.6550   -8.4230   22.0620 C   0  0  0  0  0  3  0  0  0  0  0  0
  -22.4860   -8.1780   21.3040 C   0  0  0  0  0  0  0  0  0  0  0  0
  -22.0750   -9.1270   20.3510 C   0  0  0  0  0  3  0  0  0  0  0  0
  -22.8040  -10.3130   20.1630 C   0  0  0  0  0  3  0  0  0  0  0  0
  -21.7310   -7.0350   21.3990 O   0  0  0  0  0  0  0  0  0  0  0  0
  -21.6380   -6.3300   22.5720 C   0  0  0  0  0  0  0  0  0  0  0  0
  -21.1540   -6.9210   23.7600 C   0  0  0  0  0  3  0  0  0  0  0  0
  -21.0090   -6.1420   24.9250 C   0  0  0  0  0  3  0  0  0  0  0  0
  -21.3370   -4.7730   24.9040 C   0  0  0  0  0  0  0  0  0  0  0  0
  -21.8160   -4.1830   23.7210 C   0  0  0  0  0  3  0  0  0  0  0  0
  -21.9630   -4.9590   22.5590 C   0  0  0  0  0  0  0  0  0  0  0  0
  -22.4050   -4.3810   21.4160 F   0  0  0  0  0  0  0  0  0  0  0  0
  -21.1910   -4.0220   26.0220 F   0  0  0  0  0  0  0  0  0  0  0  0
  -22.8570  -13.6770   21.1400 C   0  0  0  0  0  0  0  0  0  0  0  0
  -22.1520  -12.9740   22.0200 N   0  0  0  0  0  0  0  0  0  0  0  0
  -22.4130  -14.7180   20.6590 O   0  0  0  0  0  0  0  0  0  0  0  0
  -22.5200  -12.1300   22.4340 H   0  0  0  0  0  0  0  0  0  0  0  0
  -21.2290  -13.2880   22.2860 H   0  0  0  0  0  0  0  0  0  0  0  0
  -25.4650  -15.3310   20.2380 N   0  0  0  0  0  0  0  0  0  0  0  0
  -24.6990  -15.9820   20.3780 H   0  0  0  0  0  0  0  0  0  0  0  0
  -26.2860  -15.7730   19.8450 H   0  0  0  0  0  0  0  0  0  0  0  0
  -28.6300  -22.8520   19.5720 C   0  0  0  0  0  2  0  0  0  0  0  0
  -28.3800  -24.2300   20.2900 C   0  0  0  0  0  3  0  0  0  0  0  0
  -29.2170  -24.3020   21.3260 F   0  0  0  0  0  0  0  0  0  0  0  0
  -28.6170  -25.5030   19.4130 C   0  0  0  0  0  2  0  0  0  0  0  0
  -28.4700  -26.7770   20.0920 O   0  0  0  0  0  0  0  0  0  0  0  0
  -24.6280  -31.9250   23.2240 C   0  0  0  0  0  0  0  0  0  0  0  0
  -27.2770  -27.4880   20.0870 C   0  0  0  0  0  0  0  0  0  0  0  0
  -23.4190  -30.5310   21.5760 C   0  0  0  0  0  3  0  0  0  0  0  0
  -24.8740  -29.0100   20.1280 C   0  0  0  0  0  0  0  0  0  0  0  0
  -25.9450  -30.8940   21.3690 C   0  0  0  0  0  2  0  0  0  0  0  0
  -26.0330  -29.5250   20.7190 C   0  0  0  0  0  0  0  0  0  0  0  0
  -27.2320  -28.7690   20.7000 C   0  0  0  0  0  3  0  0  0  0  0  0
  -26.0890  -26.9930   19.4990 C   0  0  0  0  0  3  0  0  0  0  0  0
  -24.8990  -27.7450   19.5170 C   0  0  0  0  0  3  0  0  0  0  0  0
  -23.6260  -29.8640   20.1900 C   0  0  0  0  0  2  0  0  0  0  0  0
  -24.6830  -31.1340   22.1140 N   0  0  0  0  0  0  0  0  0  0  0  0
  -23.5480  -32.1890   23.7720 O   0  0  0  0  0  0  0  0  0  0  0  0
  -22.7810  -29.4980   22.5310 C   0  0  0  0  0  0  0  0  0  0  0  0
  -21.4580  -29.3020   22.4030 N   0  0  0  0  0  0  0  0  0  0  0  0
  -23.4710  -28.8770   23.3430 O   0  0  0  0  0  0  0  0  0  0  0  0
  -20.9610  -29.8550   21.7190 H   0  0  0  0  0  0  0  0  0  0  0  0
  -18.1000  -28.0580   22.8820 C   0  0  0  0  0  0  0  0  0  0  0  0
  -20.6520  -28.3490   23.1670 C   0  0  0  0  0  3  0  0  0  0  0  0
  -20.7780  -26.9230   22.5840 C   0  0  0  0  0  2  0  0  0  0  0  0
  -19.6840  -26.5900   21.5650 C   0  0  0  0  0  2  0  0  0  0  0  0
  -18.2980  -26.7130   22.2030 C   0  0  0  0  0  2  0  0  0  0  0  0
  -19.2060  -28.8340   23.3190 C   0  0  0  0  0  0  0  0  0  0  0  0
  -18.9680  -30.0930   23.9120 C   0  0  0  0  0  3  0  0  0  0  0  0
  -17.6570  -30.5780   24.0720 C   0  0  0  0  0  3  0  0  0  0  0  0
  -16.5650  -29.8000   23.6520 C   0  0  0  0  0  3  0  0  0  0  0  0
  -16.7870  -28.5410   23.0630 C   0  0  0  0  0  3  0  0  0  0  0  0
  -25.9140  -32.5600   23.8410 C   0  0  0  0  0  3  0  0  0  0  0  0
  -26.4370  -31.7900   25.1150 C   0  0  1  0  0  0  0  0  0  0  0  0
  -25.3500  -31.5510   26.1880 C   0  0  0  0  0  1  0  0  0  0  0  0
  -27.0220  -30.4130   24.7180 C   0  0  0  0  0  1  0  0  0  0  0  0
  -27.5820  -32.5890   25.7800 C   0  0  0  0  0  1  0  0  0  0  0  0
  -25.6020  -33.9570   24.1700 N   0  0  0  0  0  0  0  0  0  0  0  0
  -25.9330  -35.0110   23.4120 C   0  0  0  0  0  0  0  0  0  0  0  0
  -26.6040  -34.9090   22.3820 O   0  0  0  0  0  0  0  0  0  0  0  0
  -25.0040  -34.1100   24.9690 H   0  0  0  0  0  0  0  0  0  0  0  0
  -24.2030  -36.8030   23.0580 C   0  0  0  0  0  1  0  0  0  0  0  0
  -25.4400  -36.3970   23.8720 C   0  0  0  0  0  3  0  0  0  0  0  0
  -27.5720  -37.2830   24.7120 C   0  0  0  0  0  1  0  0  0  0  0  0
  -26.4710  -37.4530   23.7680 N   0  0  0  0  0  0  0  0  0  0  0  0
  -26.0600  -38.3690   23.9230 H   0  0  0  0  0  0  0  0  0  0  0  0
  2  1  1  0
  3  2  1  0
  3 17  1  0
  4  3  1  0
  5 19  1  0
  6 11  1  0
  7  8  1  0
  7  6  1  0
  9  8  1  0
  9 24  1  0
  9 10  1  0
 11  5  1  0
 11 10  1  0
 12  5  2  0
 14 13  1  0
 15 13  2  0
 16 14  2  0
 17 15  1  0
 18 17  2  0
 18 16  1  0
 19 20  1  0
 19 16  1  0
 21 22  2  0
 22 41  1  0
 23 22  1  0
 23 26  1  0
 24 25  1  0
 24 21  1  0
 25 23  2  0
 26 27  1  0
 27 28  2  0
 29 32  1  0
 29 28  1  0
 30 29  2  0
 31 30  1  0
 31 26  2  0
 32 33  1  0
 33 34  1  0
 34 35  2  0
 36 35  1  0
 36 40  1  0
 37 36  2  0
 38 33  2  0
 38 37  1  0
 39 38  1  0
 41 42  1  0
 42 45  1  0
 42 44  1  0
 43 41  2  0
 46 47  1  0
 46 21  1  0
 48 46  1  0
 49 50  1  0
 49  2  1  0
 50 51  1  0
 52 53  1  0
 52 50  1  0
 54 65  2  0
 55 53  1  0
 55 60  1  0
 56 64  1  0
 56 66  1  0
 57 63  1  0
 57 59  1  0
 58 64  1  0
 59 58  1  0
 60 59  2  0
 61 62  1  0
 61 55  2  0
 62 57  2  0
 63 56  1  0
 64 54  1  0
 66 68  2  0
 67 66  1  0
 69 67  1  0
 70 79  2  0
 70 75  1  0
 71 67  1  0
 71 75  1  0
 72 71  1  0
 73 74  1  0
 73 72  1  0
 74 70  1  0
 75 76  2  0
 76 77  1  0
 78 77  2  0
 79 78  1  0
 80 54  1  0
 80 85  1  0
 80 81  1  0
 81 84  1  1
 81 82  1  0
 83 81  1  0
 85 88  1  0
 86 90  1  0
 86 85  1  0
 87 86  2  0
 90 89  1  0
 92 90  1  0
 92 93  1  0
 92 91  1  0
M  ISO  4   5 100  19 100  52 101  53 101
M  END
>  <TORSDO>  (69) 
F 20

>  <SCORE>  (69) 
-13.166

>  <name>  (69) 
68

>  <ligand_id>  (69) 
68

>  <original_smiles>  (69) 
[H]c1c(N([H])C(=O)N2C([H])([H])C([H])([H])C([H])([H])C([H])(n3nc(-c4c([H])c([H])c(Oc5c([H])c([H])c(F)c([H])c5F)c([H])c4[H])c(C(=O)N([H])[H])c3N([H])[H])C2([H])[H])nc(N([H])C([H])(C([H])([H])[H])C([H])([H])C([H])(F)C([H])([H])Oc2c([H])c([H])c3c(c2[H])C([H])([H])N(C(=O)C([H])(N([H])C(=O)C([H])(N([H])C([H])([H])[H])C([H])([H])[H])C(C([H])([H])[H])(C([H])([H])[H])C([H])([H])[H])C([H])(C(=O)N([H])C2([H])c4c([H])c([H])c([H])c([H])c4C([H])([H])C([H])([H])C2([H])[H])C3([H])[H])c([H])c1[H]

>  <smiles>  (69) 
[H]c1c(N([H])C(=O)N2C([H])([H])C([H])([H])C([H])([H])C([H])(n3nc(-c4c([H])c([H])c(Oc5c([H])c([H])c(F)c([H])c5F)c([H])c4[H])c(C(=O)N([H])[H])c3N([H])[H])C2([H])[H])nc(N([H])C([H])(C([H])([H])[H])C([H])([H])C([H])(F)C([H])([H])Oc2c([H])c([H])c3c(c2[H])C([H])([H])N(C(=O)C([H])(N([H])C(=O)C([H])(N([H])C([H])([H])[H])C([H])([H])[H])C(C([H])([H])[H])(C([H])([H])[H])C([H])([H])[H])C([H])(C(=O)N([H])C2([H])c4c([H])c([H])c([H])c([H])c4C([H])([H])C([H])([H])C2([H])[H])C3([H])[H])c([H])c1[H]

$$$$
69:0:0
     RDKit          3D

 93101  0  0  1  0  0  0  0  0999 V2000
  -31.1150  -22.1150   21.5840 C   0  0  0  0  0  1  0  0  0  0  0  0
  -29.7520  -21.8000   20.9390 C   0  0  0  0  0  3  0  0  0  0  0  0
  -30.5420  -17.3480   22.5330 C   0  0  0  0  0  3  0  0  0  0  0  0
  -30.4170  -16.9240   21.2360 C   0  0  0  0  0  0  0  0  0  0  0  0
  -30.0850  -19.1860   20.9510 C   0  0  0  0  0  0  0  0  0  0  0  0
  -30.1580  -17.9870   20.3280 N   0  0  0  0  0  0  0  0  0  0  0  0
  -29.7980  -20.4340   20.3660 N   0  0  0  0  0  0  0  0  0  0  0  0
  -30.3610  -19.0720   22.6880 S   0  0  0  0  0  0  0  0  0  0  0  0
  -29.6490  -20.3890   19.3620 H   0  0  0  0  0  0  0  0  0  0  0  0
  -30.9940  -14.6650   20.1640 C   0  0  0  0  0  0  0  0  0  0  0  0
  -30.7100  -12.5200   18.9410 C   0  0  0  0  0  2  0  0  0  0  0  0
  -29.7090  -12.7330   17.7850 C   0  0  0  0  0  2  0  0  0  0  0  0
  -28.2510  -12.5820   18.2690 C   0  0  0  0  0  2  0  0  0  0  0  0
  -27.9690  -13.3850   19.5660 C   0  0  0  0  0  3  0  0  0  0  0  0
  -29.0640  -13.1010   20.6170 C   0  0  0  0  0  2  0  0  0  0  0  0
  -30.3660  -13.4590   20.0210 N   0  0  0  0  0  0  0  0  0  0  0  0
  -32.0470  -14.9450   19.5770 O   0  0  0  0  0  0  0  0  0  0  0  0
  -30.3520  -15.5120   21.0000 N   0  0  0  0  0  0  0  0  0  0  0  0
  -29.6400  -15.0380   21.5330 H   0  0  0  0  0  0  0  0  0  0  0  0
  -25.6050  -14.0010   20.3820 C   0  0  0  0  0  0  0  0  0  0  0  0
  -24.5440  -13.2300   20.7780 C   0  0  0  0  0  0  0  0  0  0  0  0
  -24.9890  -11.8760   20.6960 C   0  0  0  0  0  0  0  0  0  0  0  0
  -26.6310  -13.1140   20.0890 N   0  0  0  0  0  0  0  0  0  0  0  0
  -26.2640  -11.8300   20.3310 N   0  0  0  0  0  0  0  0  0  0  0  0
  -24.2590  -10.6160   20.8890 C   0  0  0  0  0  0  0  0  0  0  0  0
  -24.6660   -9.6670   21.8540 C   0  0  0  0  0  3  0  0  0  0  0  0
  -23.9370   -8.4720   22.0310 C   0  0  0  0  0  3  0  0  0  0  0  0
  -22.7880   -8.2160   21.2440 C   0  0  0  0  0  0  0  0  0  0  0  0
  -22.4020   -9.1540   20.2710 C   0  0  0  0  0  3  0  0  0  0  0  0
  -23.1300  -10.3410   20.0920 C   0  0  0  0  0  3  0  0  0  0  0  0
  -22.0340   -7.0720   21.3310 O   0  0  0  0  0  0  0  0  0  0  0  0
  -21.8570   -6.4130   22.5220 C   0  0  0  0  0  0  0  0  0  0  0  0
  -21.2930   -7.0510   23.6480 C   0  0  0  0  0  3  0  0  0  0  0  0
  -21.0640   -6.3190   24.8310 C   0  0  0  0  0  3  0  0  0  0  0  0
  -21.3900   -4.9500   24.8860 C   0  0  0  0  0  0  0  0  0  0  0  0
  -21.9460   -4.3120   23.7640 C   0  0  0  0  0  3  0  0  0  0  0  0
  -22.1770   -5.0420   22.5840 C   0  0  0  0  0  0  0  0  0  0  0  0
  -22.6950   -4.4180   21.4980 F   0  0  0  0  0  0  0  0  0  0  0  0
  -21.1630   -4.2440   26.0190 F   0  0  0  0  0  0  0  0  0  0  0  0
  -23.1650  -13.7150   21.1210 C   0  0  0  0  0  0  0  0  0  0  0  0
  -22.4750  -13.0190   22.0190 N   0  0  0  0  0  0  0  0  0  0  0  0
  -22.7080  -14.7450   20.6280 O   0  0  0  0  0  0  0  0  0  0  0  0
  -22.8560  -12.1850   22.4400 H   0  0  0  0  0  0  0  0  0  0  0  0
  -21.5530  -13.3270   22.2910 H   0  0  0  0  0  0  0  0  0  0  0  0
  -25.7760  -15.3740   20.2300 N   0  0  0  0  0  0  0  0  0  0  0  0
  -25.0210  -16.0330   20.3810 H   0  0  0  0  0  0  0  0  0  0  0  0
  -26.6210  -15.8110   19.8810 H   0  0  0  0  0  0  0  0  0  0  0  0
  -29.3200  -22.9430   19.9440 C   0  0  0  0  0  2  0  0  0  0  0  0
  -28.8630  -24.3150   20.5880 C   0  0  0  0  0  3  0  0  0  0  0  0
  -27.5780  -24.1170   21.1580 O   0  0  0  0  0  0  0  0  0  0  0  0
  -26.9520  -23.9980   20.4500 H   0  0  0  0  0  0  0  0  0  0  0  0
  -28.7890  -25.5330   19.5990 C   0  0  0  0  0  2  0  0  0  0  0  0
  -28.6350  -26.8460   20.2140 O   0  0  0  0  0  0  0  0  0  0  0  0
  -24.6790  -31.9750   23.2600 C   0  0  0  0  0  0  0  0  0  0  0  0
  -27.4360  -27.5540   20.1820 C   0  0  0  0  0  0  0  0  0  0  0  0
  -23.5210  -30.5620   21.5970 C   0  0  0  0  0  3  0  0  0  0  0  0
  -25.0160  -29.0590   20.1790 C   0  0  0  0  0  0  0  0  0  0  0  0
  -26.0460  -30.9580   21.4320 C   0  0  0  0  0  2  0  0  0  0  0  0
  -26.1620  -29.5890   20.7810 C   0  0  0  0  0  0  0  0  0  0  0  0
  -27.3720  -28.8450   20.7760 C   0  0  0  0  0  3  0  0  0  0  0  0
  -26.2560  -27.0480   19.5860 C   0  0  0  0  0  3  0  0  0  0  0  0
  -25.0600  -27.7900   19.5810 C   0  0  0  0  0  3  0  0  0  0  0  0
  -23.7590  -29.9000   20.2140 C   0  0  0  0  0  2  0  0  0  0  0  0
  -24.7670  -31.1810   22.1550 N   0  0  0  0  0  0  0  0  0  0  0  0
  -23.5870  -32.2230   23.7880 O   0  0  0  0  0  0  0  0  0  0  0  0
  -22.8760  -29.5230   22.5430 C   0  0  0  0  0  0  0  0  0  0  0  0
  -21.5630  -29.2920   22.3750 N   0  0  0  0  0  0  0  0  0  0  0  0
  -23.5550  -28.9270   23.3830 O   0  0  0  0  0  0  0  0  0  0  0  0
  -21.0740  -29.8280   21.6730 H   0  0  0  0  0  0  0  0  0  0  0  0
  -18.2290  -27.9400   22.7480 C   0  0  0  0  0  0  0  0  0  0  0  0
  -20.7580  -28.3290   23.1270 C   0  0  0  0  0  3  0  0  0  0  0  0
  -20.9540  -26.8940   22.5840 C   0  0  0  0  0  2  0  0  0  0  0  0
  -19.9150  -26.5010   21.5270 C   0  0  0  0  0  2  0  0  0  0  0  0
  -18.5000  -26.5900   22.1060 C   0  0  0  0  0  2  0  0  0  0  0  0
  -19.2900  -28.7630   23.2130 C   0  0  0  0  0  0  0  0  0  0  0  0
  -18.9860  -30.0230   23.7720 C   0  0  0  0  0  3  0  0  0  0  0  0
  -17.6520  -30.4630   23.8700 C   0  0  0  0  0  3  0  0  0  0  0  0
  -16.6060  -29.6390   23.4210 C   0  0  0  0  0  3  0  0  0  0  0  0
  -16.8940  -28.3800   22.8670 C   0  0  0  0  0  3  0  0  0  0  0  0
  -25.9440  -32.6280   23.8990 C   0  0  0  0  0  3  0  0  0  0  0  0
  -25.6100  -34.0240   24.2130 N   0  0  0  0  0  0  0  0  0  0  0  0
  -25.9370  -35.0760   23.4510 C   0  0  0  0  0  0  0  0  0  0  0  0
  -26.6230  -34.9740   22.4290 O   0  0  0  0  0  0  0  0  0  0  0  0
  -25.0040  -34.1760   25.0070 H   0  0  0  0  0  0  0  0  0  0  0  0
  -24.1850  -36.8370   23.0570 C   0  0  0  0  0  1  0  0  0  0  0  0
  -25.4220  -36.4600   23.8890 C   0  0  0  0  0  3  0  0  0  0  0  0
  -27.5310  -37.3840   24.7400 C   0  0  0  0  0  1  0  0  0  0  0  0
  -26.4400  -37.5290   23.7800 N   0  0  0  0  0  0  0  0  0  0  0  0
  -26.0180  -38.4430   23.9150 H   0  0  0  0  0  0  0  0  0  0  0  0
  -26.4510  -31.8730   25.1890 C   0  0  1  0  0  0  0  0  0  0  0  0
  -25.3410  -31.6130   26.2350 C   0  0  0  0  0  1  0  0  0  0  0  0
  -27.0740  -30.5080   24.8130 C   0  0  0  0  0  1  0  0  0  0  0  0
  -27.5700  -32.6940   25.8720 C   0  0  0  0  0  1  0  0  0  0  0  0
  2  1  1  0
  3  8  1  0
  4  3  2  0
  5  8  1  0
  6  5  2  0
  6  4  1  0
  7  2  1  0
  7  5  1  0
  9  7  1  0
 10 18  1  0
 11 16  1  0
 12 13  1  0
 12 11  1  0
 14 13  1  0
 14 23  1  0
 14 15  1  0
 16 10  1  0
 16 15  1  0
 17 10  2  0
 18  4  1  0
 18 19  1  0
 20 21  2  0
 21 40  1  0
 22 21  1  0
 22 25  1  0
 23 24  1  0
 23 20  1  0
 24 22  2  0
 25 26  1  0
 26 27  2  0
 28 31  1  0
 28 27  1  0
 29 28  2  0
 30 29  1  0
 30 25  2  0
 31 32  1  0
 32 37  2  0
 32 33  1  0
 33 34  2  0
 34 35  1  0
 35 39  1  0
 36 35  2  0
 37 36  1  0
 38 37  1  0
 40 41  1  0
 41 44  1  0
 41 43  1  0
 42 40  2  0
 45 46  1  0
 45 20  1  0
 47 45  1  0
 48 49  1  0
 48  2  1  0
 49 52  1  0
 49 50  1  0
 51 50  1  0
 52 53  1  0
 54 65  2  0
 55 53  1  0
 55 60  1  0
 56 64  1  0
 56 66  1  0
 57 63  1  0
 57 59  1  0
 58 64  1  0
 59 58  1  0
 60 59  2  0
 61 55  2  0
 62 61  1  0
 62 57  2  0
 63 56  1  0
 64 54  1  0
 66 68  2  0
 67 66  1  0
 69 67  1  0
 70 79  2  0
 70 75  1  0
 71 67  1  0
 71 75  1  0
 72 71  1  0
 73 74  1  0
 73 72  1  0
 74 70  1  0
 75 76  2  0
 76 77  1  0
 78 77  2  0
 79 78  1  0
 80 54  1  0
 80 81  1  0
 80 90  1  0
 81 84  1  0
 82 86  1  0
 82 81  1  0
 83 82  2  0
 86 85  1  0
 88 86  1  0
 88 89  1  0
 88 87  1  0
 90 93  1  1
 90 91  1  0
 92 90  1  0
M  ISO  4  10 100  18 100  52 101  53 101
M  END
>  <TORSDO>  (70) 
F 21

>  <SCORE>  (70) 
-12.566

>  <name>  (70) 
69

>  <ligand_id>  (70) 
69

>  <original_smiles>  (70) 
[H]OC([H])(C([H])([H])Oc1c([H])c([H])c2c(c1[H])C([H])([H])N(C(=O)C([H])(N([H])C(=O)C([H])(N([H])C([H])([H])[H])C([H])([H])[H])C(C([H])([H])[H])(C([H])([H])[H])C([H])([H])[H])C([H])(C(=O)N([H])C1([H])c3c([H])c([H])c([H])c([H])c3C([H])([H])C([H])([H])C1([H])[H])C2([H])[H])C([H])([H])C([H])(N([H])c1nc(N([H])C(=O)N2C([H])([H])C([H])([H])C([H])([H])C([H])(n3nc(-c4c([H])c([H])c(Oc5c([H])c([H])c(F)c([H])c5F)c([H])c4[H])c(C(=O)N([H])[H])c3N([H])[H])C2([H])[H])c([H])s1)C([H])([H])[H]

>  <smiles>  (70) 
[H]OC([H])(C([H])([H])Oc1c([H])c([H])c2c(c1[H])C([H])([H])N(C(=O)C([H])(N([H])C(=O)C([H])(N([H])C([H])([H])[H])C([H])([H])[H])C(C([H])([H])[H])(C([H])([H])[H])C([H])([H])[H])C([H])(C(=O)N([H])C1([H])c3c([H])c([H])c([H])c([H])c3C([H])([H])C([H])([H])C1([H])[H])C2([H])[H])C([H])([H])C([H])(N([H])c1nc(N([H])C(=O)N2C([H])([H])C([H])([H])C([H])([H])C([H])(n3nc(-c4c([H])c([H])c(Oc5c([H])c([H])c(F)c([H])c5F)c([H])c4[H])c(C(=O)N([H])[H])c3N([H])[H])C2([H])[H])c([H])s1)C([H])([H])[H]

$$$$
70:0:0
     RDKit          3D

 96104  0  0  1  0  0  0  0  0999 V2000
  -31.2650  -21.1220   22.1420 C   0  0  0  0  0  3  0  0  0  0  0  0
  -30.7630  -14.0680   20.1320 C   0  0  0  0  0  0  0  0  0  0  0  0
  -30.3620  -11.9660   18.9000 C   0  0  0  0  0  2  0  0  0  0  0  0
  -29.3450  -12.2160   17.7680 C   0  0  0  0  0  2  0  0  0  0  0  0
  -27.9000  -12.0780   18.2880 C   0  0  0  0  0  2  0  0  0  0  0  0
  -27.6540  -12.8820   19.5920 C   0  0  0  0  0  3  0  0  0  0  0  0
  -28.7700  -12.5980   20.6220 C   0  0  0  0  0  2  0  0  0  0  0  0
  -30.0670  -12.9090   19.9900 N   0  0  0  0  0  0  0  0  0  0  0  0
  -31.8100  -14.2910   19.5140 O   0  0  0  0  0  0  0  0  0  0  0  0
  -30.4690  -16.3460   21.1100 C   0  0  0  0  0  0  0  0  0  0  0  0
  -30.5310  -18.7000   21.5770 C   0  0  0  0  0  0  0  0  0  0  0  0
  -31.6580  -16.8930   20.8050 N   0  0  0  0  0  0  0  0  0  0  0  0
  -31.6890  -18.2550   21.0740 N   0  0  0  0  0  0  0  0  0  0  0  0
  -30.1750  -14.9690   20.9380 N   0  0  0  0  0  0  0  0  0  0  0  0
  -30.3250  -20.0210   21.9620 N   0  0  0  0  0  0  0  0  0  0  0  0
  -29.2850  -17.4740   21.7720 S   0  0  0  0  0  0  0  0  0  0  0  0
  -29.3190  -14.6550   21.3640 H   0  0  0  0  0  0  0  0  0  0  0  0
  -29.3950  -20.1920   22.3260 H   0  0  0  0  0  0  0  0  0  0  0  0
  -25.3040  -13.4970   20.4490 C   0  0  0  0  0  0  0  0  0  0  0  0
  -24.2560  -12.7260   20.8730 C   0  0  0  0  0  0  0  0  0  0  0  0
  -24.7050  -11.3720   20.7950 C   0  0  0  0  0  0  0  0  0  0  0  0
  -26.3280  -12.6130   20.1450 N   0  0  0  0  0  0  0  0  0  0  0  0
  -25.9740  -11.3290   20.4070 N   0  0  0  0  0  0  0  0  0  0  0  0
  -23.9850  -10.1110   21.0130 C   0  0  0  0  0  0  0  0  0  0  0  0
  -24.3990   -9.1850   21.9960 C   0  0  0  0  0  3  0  0  0  0  0  0
  -23.6800   -7.9870   22.1980 C   0  0  0  0  0  3  0  0  0  0  0  0
  -22.5330   -7.7080   21.4180 C   0  0  0  0  0  0  0  0  0  0  0  0
  -22.1380   -8.6230   20.4260 C   0  0  0  0  0  3  0  0  0  0  0  0
  -22.8590   -9.8110   20.2220 C   0  0  0  0  0  3  0  0  0  0  0  0
  -21.7860   -6.5590   21.5280 O   0  0  0  0  0  0  0  0  0  0  0  0
  -21.6260   -5.9160   22.7290 C   0  0  0  0  0  0  0  0  0  0  0  0
  -21.0060   -6.5430   23.8330 C   0  0  0  0  0  3  0  0  0  0  0  0
  -20.7990   -5.8220   25.0270 C   0  0  0  0  0  3  0  0  0  0  0  0
  -21.2020   -4.4770   25.1160 C   0  0  0  0  0  0  0  0  0  0  0  0
  -21.8150   -3.8500   24.0170 C   0  0  0  0  0  3  0  0  0  0  0  0
  -22.0240   -4.5670   22.8260 C   0  0  0  0  0  0  0  0  0  0  0  0
  -22.5950   -3.9530   21.7630 F   0  0  0  0  0  0  0  0  0  0  0  0
  -20.9960   -3.7820   26.2590 F   0  0  0  0  0  0  0  0  0  0  0  0
  -22.8810  -13.2060   21.2380 C   0  0  0  0  0  0  0  0  0  0  0  0
  -22.2120  -12.5110   22.1520 N   0  0  0  0  0  0  0  0  0  0  0  0
  -22.4120  -14.2330   20.7500 O   0  0  0  0  0  0  0  0  0  0  0  0
  -22.6050  -11.6790   22.5670 H   0  0  0  0  0  0  0  0  0  0  0  0
  -21.2920  -12.8140   22.4390 H   0  0  0  0  0  0  0  0  0  0  0  0
  -25.4670  -14.8690   20.2790 N   0  0  0  0  0  0  0  0  0  0  0  0
  -24.7090  -15.5240   20.4330 H   0  0  0  0  0  0  0  0  0  0  0  0
  -26.2940  -15.3050   19.8880 H   0  0  0  0  0  0  0  0  0  0  0  0
  -31.6570  -21.4950   24.6690 C   0  0  0  0  0  1  0  0  0  0  0  0
  -33.6450  -21.1820   23.1260 C   0  0  0  0  0  1  0  0  0  0  0  0
  -32.1680  -20.8360   23.3740 C   0  0  0  0  0  3  0  0  0  0  0  0
  -30.5690  -22.5130   22.1970 C   0  0  0  0  0  2  0  0  0  0  0  0
  -29.9800  -23.0710   20.8780 C   0  0  0  0  0  3  0  0  0  0  0  0
  -30.9740  -23.0770   19.8620 O   0  0  0  0  0  0  0  0  0  0  0  0
  -31.6990  -23.6180   20.1560 H   0  0  0  0  0  0  0  0  0  0  0  0
  -29.4840  -24.5260   21.0610 C   0  0  0  0  0  2  0  0  0  0  0  0
  -28.6490  -25.0900   19.8960 C   0  0  0  0  0  2  0  0  0  0  0  0
  -28.6180  -26.5140   20.0310 O   0  0  0  0  0  0  0  0  0  0  0  0
  -24.7610  -31.5140   23.2570 C   0  0  0  0  0  0  0  0  0  0  0  0
  -27.4190  -27.1920   20.0320 C   0  0  0  0  0  0  0  0  0  0  0  0
  -23.5740  -30.2110   21.5210 C   0  0  0  0  0  3  0  0  0  0  0  0
  -25.0370  -28.7180   20.0610 C   0  0  0  0  0  0  0  0  0  0  0  0
  -26.1050  -30.5420   21.3980 C   0  0  0  0  0  2  0  0  0  0  0  0
  -26.1850  -29.2000   20.7000 C   0  0  0  0  0  0  0  0  0  0  0  0
  -27.3750  -28.4450   20.6820 C   0  0  0  0  0  3  0  0  0  0  0  0
  -26.2550  -26.7210   19.3810 C   0  0  0  0  0  3  0  0  0  0  0  0
  -25.0660  -27.4770   19.3990 C   0  0  0  0  0  3  0  0  0  0  0  0
  -23.8040  -29.5920   20.1160 C   0  0  0  0  0  2  0  0  0  0  0  0
  -24.8300  -30.7680   22.1180 N   0  0  0  0  0  0  0  0  0  0  0  0
  -23.6720  -31.7770   23.7850 O   0  0  0  0  0  0  0  0  0  0  0  0
  -22.8860  -29.1560   22.4150 C   0  0  0  0  0  0  0  0  0  0  0  0
  -21.5630  -28.9980   22.2440 N   0  0  0  0  0  0  0  0  0  0  0  0
  -23.5400  -28.4840   23.2160 O   0  0  0  0  0  0  0  0  0  0  0  0
  -21.0990  -29.5920   21.5720 H   0  0  0  0  0  0  0  0  0  0  0  0
  -18.1580  -27.8530   22.6100 C   0  0  0  0  0  0  0  0  0  0  0  0
  -20.7130  -28.0390   22.9480 C   0  0  0  0  0  3  0  0  0  0  0  0
  -20.7990  -26.6390   22.2970 C   0  0  0  0  0  2  0  0  0  0  0  0
  -19.7120  -26.3960   21.2450 C   0  0  0  0  0  2  0  0  0  0  0  0
  -18.3200  -26.5380   21.8670 C   0  0  0  0  0  2  0  0  0  0  0  0
  -19.2820  -28.5660   23.1040 C   0  0  0  0  0  0  0  0  0  0  0  0
  -19.0780  -29.8020   23.7550 C   0  0  0  0  0  3  0  0  0  0  0  0
  -17.7810  -30.3230   23.9200 C   0  0  0  0  0  3  0  0  0  0  0  0
  -16.6700  -29.6060   23.4440 C   0  0  0  0  0  3  0  0  0  0  0  0
  -16.8590  -28.3720   22.7950 C   0  0  0  0  0  3  0  0  0  0  0  0
  -26.0430  -32.0910   23.9360 C   0  0  0  0  0  3  0  0  0  0  0  0
  -25.7520  -33.4770   24.3230 N   0  0  0  0  0  0  0  0  0  0  0  0
  -26.1150  -34.5550   23.6140 C   0  0  0  0  0  0  0  0  0  0  0  0
  -26.8010  -34.4850   22.5910 O   0  0  0  0  0  0  0  0  0  0  0  0
  -25.1460  -33.6080   25.1200 H   0  0  0  0  0  0  0  0  0  0  0  0
  -24.4030  -36.3740   23.3240 C   0  0  0  0  0  1  0  0  0  0  0  0
  -25.6390  -35.9290   24.1210 C   0  0  0  0  0  3  0  0  0  0  0  0
  -27.7700  -36.7760   25.0020 C   0  0  0  0  0  1  0  0  0  0  0  0
  -26.6820  -36.9770   24.0480 N   0  0  0  0  0  0  0  0  0  0  0  0
  -26.2810  -37.8950   24.2130 H   0  0  0  0  0  0  0  0  0  0  0  0
  -26.5180  -31.2510   25.1850 C   0  0  1  0  0  0  0  0  0  0  0  0
  -25.3960  -30.9760   26.2120 C   0  0  0  0  0  1  0  0  0  0  0  0
  -27.0930  -29.8860   24.7360 C   0  0  0  0  0  1  0  0  0  0  0  0
  -27.6620  -31.9950   25.9130 C   0  0  0  0  0  1  0  0  0  0  0  0
  1 50  1  0
  1 49  1  0
  2 14  1  0
  3  8  1  0
  4  5  1  0
  4  3  1  0
  6  5  1  0
  6 22  1  0
  6  7  1  0
  8  2  1  0
  8  7  1  0
  9  2  2  0
 10 16  1  0
 11 16  1  0
 11 15  1  0
 12 13  1  0
 12 10  2  0
 13 11  2  0
 14 10  1  0
 14 17  1  0
 15  1  1  0
 15 18  1  0
 19 20  2  0
 20 39  1  0
 21 20  1  0
 21 24  1  0
 22 23  1  0
 22 19  1  0
 23 21  2  0
 24 25  1  0
 25 26  2  0
 27 30  1  0
 27 26  1  0
 28 27  2  0
 29 28  1  0
 29 24  2  0
 30 31  1  0
 31 36  2  0
 31 32  1  0
 32 33  2  0
 33 34  1  0
 34 38  1  0
 35 34  2  0
 36 35  1  0
 37 36  1  0
 39 40  1  0
 40 43  1  0
 40 42  1  0
 41 39  2  0
 44 45  1  0
 44 19  1  0
 46 44  1  0
 48 49  1  0
 49 47  1  0
 51 54  1  0
 51 50  1  0
 52 53  1  0
 52 51  1  0
 55 56  1  0
 55 54  1  0
 56 58  1  0
 57 68  2  0
 58 63  1  0
 59 67  1  0
 59 69  1  0
 60 66  1  0
 60 62  1  0
 61 67  1  0
 62 61  1  0
 63 62  2  0
 64 65  1  0
 64 58  2  0
 65 60  2  0
 66 59  1  0
 67 57  1  0
 69 71  2  0
 70 69  1  0
 72 70  1  0
 73 82  2  0
 73 78  1  0
 74 70  1  0
 74 78  1  0
 75 74  1  0
 76 77  1  0
 76 75  1  0
 77 73  1  0
 78 79  2  0
 79 80  1  0
 81 80  2  0
 82 81  1  0
 83 57  1  0
 83 84  1  0
 83 93  1  0
 84 87  1  0
 85 89  1  0
 85 84  1  0
 86 85  2  0
 89 88  1  0
 91 89  1  0
 91 92  1  0
 91 90  1  0
 93 96  1  1
 93 94  1  0
 95 93  1  0
M  ISO  4   2 100  14 100  55 101  56 101
M  END
>  <TORSDO>  (71) 
F 22

>  <SCORE>  (71) 
-11.821

>  <name>  (71) 
70

>  <ligand_id>  (71) 
70

>  <original_smiles>  (71) 
[H]OC([H])(C([H])([H])C([H])([H])Oc1c([H])c([H])c2c(c1[H])C([H])([H])N(C(=O)C([H])(N([H])C(=O)C([H])(N([H])C([H])([H])[H])C([H])([H])[H])C(C([H])([H])[H])(C([H])([H])[H])C([H])([H])[H])C([H])(C(=O)N([H])C1([H])c3c([H])c([H])c([H])c([H])c3C([H])([H])C([H])([H])C1([H])[H])C2([H])[H])C([H])([H])C([H])(N([H])c1nnc(N([H])C(=O)N2C([H])([H])C([H])([H])C([H])([H])C([H])(n3nc(-c4c([H])c([H])c(Oc5c([H])c([H])c(F)c([H])c5F)c([H])c4[H])c(C(=O)N([H])[H])c3N([H])[H])C2([H])[H])s1)C([H])(C([H])([H])[H])C([H])([H])[H]

>  <smiles>  (71) 
[H]OC([H])(C([H])([H])C([H])([H])Oc1c([H])c([H])c2c(c1[H])C([H])([H])N(C(=O)C([H])(N([H])C(=O)C([H])(N([H])C([H])([H])[H])C([H])([H])[H])C(C([H])([H])[H])(C([H])([H])[H])C([H])([H])[H])C([H])(C(=O)N([H])C1([H])c3c([H])c([H])c([H])c([H])c3C([H])([H])C([H])([H])C1([H])[H])C2([H])[H])C([H])([H])C([H])(N([H])c1nnc(N([H])C(=O)N2C([H])([H])C([H])([H])C([H])([H])C([H])(n3nc(-c4c([H])c([H])c(Oc5c([H])c([H])c(F)c([H])c5F)c([H])c4[H])c(C(=O)N([H])[H])c3N([H])[H])C2([H])[H])s1)C([H])(C([H])([H])[H])C([H])([H])[H]

$$$$
71:0:0
     RDKit          3D

 96104  0  0  1  0  0  0  0  0999 V2000
  -31.7880  -19.8520   19.6780 C   0  0  0  0  0  3  0  0  0  0  0  0
  -30.9980  -17.8240   20.4670 C   0  0  0  0  0  0  0  0  0  0  0  0
  -30.5360  -20.4730   19.9220 C   0  0  0  0  0  0  0  0  0  0  0  0
  -29.7270  -18.4400   20.6910 C   0  0  0  0  0  0  0  0  0  0  0  0
  -32.0220  -18.5410   19.9400 N   0  0  0  0  0  0  0  0  0  0  0  0
  -29.4950  -19.7510   20.4130 N   0  0  0  0  0  0  0  0  0  0  0  0
  -28.6510  -17.7540   21.2440 N   0  0  0  0  0  0  0  0  0  0  0  0
  -28.6770  -16.7490   21.3690 H   0  0  0  0  0  0  0  0  0  0  0  0
  -27.7240  -18.1640   21.2450 H   0  0  0  0  0  0  0  0  0  0  0  0
  -30.3750  -21.8470   19.6540 N   0  0  0  0  0  0  0  0  0  0  0  0
  -31.1880  -22.3700   19.3350 H   0  0  0  0  0  0  0  0  0  0  0  0
  -29.2360  -22.6610   20.0960 C   0  0  0  0  0  2  0  0  0  0  0  0
  -29.4700  -24.1670   19.7750 C   0  0  0  0  0  3  0  0  0  0  0  0
  -30.7070  -24.5170   20.3820 O   0  0  0  0  0  0  0  0  0  0  0  0
  -30.6270  -24.3510   21.3160 H   0  0  0  0  0  0  0  0  0  0  0  0
  -28.3600  -25.1160   20.3060 C   0  0  0  0  0  2  0  0  0  0  0  0
  -28.4970  -26.4580   19.7920 O   0  0  0  0  0  0  0  0  0  0  0  0
  -24.7390  -31.4740   23.1830 C   0  0  0  0  0  0  0  0  0  0  0  0
  -27.3480  -27.2180   19.8350 C   0  0  0  0  0  0  0  0  0  0  0  0
  -23.5230  -30.1970   21.4470 C   0  0  0  0  0  3  0  0  0  0  0  0
  -24.9690  -28.7440   19.9270 C   0  0  0  0  0  0  0  0  0  0  0  0
  -26.0510  -30.5470   21.2770 C   0  0  0  0  0  2  0  0  0  0  0  0
  -26.1290  -29.2200   20.5500 C   0  0  0  0  0  0  0  0  0  0  0  0
  -27.3250  -28.4670   20.4970 C   0  0  0  0  0  3  0  0  0  0  0  0
  -26.1750  -26.7620   19.1980 C   0  0  0  0  0  3  0  0  0  0  0  0
  -24.9860  -27.5140   19.2460 C   0  0  0  0  0  3  0  0  0  0  0  0
  -23.7300  -29.6070   20.0270 C   0  0  0  0  0  2  0  0  0  0  0  0
  -24.7900  -30.7500   22.0290 N   0  0  0  0  0  0  0  0  0  0  0  0
  -23.6590  -31.7210   23.7370 O   0  0  0  0  0  0  0  0  0  0  0  0
  -22.8600  -29.1200   22.3360 C   0  0  0  0  0  0  0  0  0  0  0  0
  -21.5330  -28.9610   22.1940 N   0  0  0  0  0  0  0  0  0  0  0  0
  -23.5340  -28.4320   23.1070 O   0  0  0  0  0  0  0  0  0  0  0  0
  -21.0500  -29.5720   21.5510 H   0  0  0  0  0  0  0  0  0  0  0  0
  -18.1400  -27.8010   22.6330 C   0  0  0  0  0  0  0  0  0  0  0  0
  -20.7050  -27.9810   22.8970 C   0  0  0  0  0  3  0  0  0  0  0  0
  -20.7700  -26.6000   22.2060 C   0  0  0  0  0  2  0  0  0  0  0  0
  -19.6510  -26.3820   21.1820 C   0  0  0  0  0  2  0  0  0  0  0  0
  -18.2790  -26.5060   21.8510 C   0  0  0  0  0  2  0  0  0  0  0  0
  -19.2790  -28.5020   23.1100 C   0  0  0  0  0  0  0  0  0  0  0  0
  -19.0950  -29.7200   23.8000 C   0  0  0  0  0  3  0  0  0  0  0  0
  -17.8040  -30.2350   24.0190 C   0  0  0  0  0  3  0  0  0  0  0  0
  -16.6790  -29.5290   23.5600 C   0  0  0  0  0  3  0  0  0  0  0  0
  -16.8480  -28.3130   22.8730 C   0  0  0  0  0  3  0  0  0  0  0  0
  -26.0310  -32.0480   23.8460 C   0  0  0  0  0  3  0  0  0  0  0  0
  -25.7580  -33.4450   24.2060 N   0  0  0  0  0  0  0  0  0  0  0  0
  -26.1480  -34.5040   23.4840 C   0  0  0  0  0  0  0  0  0  0  0  0
  -26.8430  -34.4050   22.4700 O   0  0  0  0  0  0  0  0  0  0  0  0
  -25.1430  -33.5970   24.9920 H   0  0  0  0  0  0  0  0  0  0  0  0
  -24.4790  -36.3560   23.1370 C   0  0  0  0  0  1  0  0  0  0  0  0
  -25.6910  -35.8960   23.9630 C   0  0  0  0  0  3  0  0  0  0  0  0
  -27.8250  -36.7080   24.8670 C   0  0  0  0  0  1  0  0  0  0  0  0
  -26.7560  -36.9210   23.8940 N   0  0  0  0  0  0  0  0  0  0  0  0
  -26.3730  -37.8500   24.0450 H   0  0  0  0  0  0  0  0  0  0  0  0
  -26.4970  -31.2280   25.1110 C   0  0  1  0  0  0  0  0  0  0  0  0
  -25.3740  -30.9870   26.1450 C   0  0  0  0  0  1  0  0  0  0  0  0
  -27.0580  -29.8490   24.6920 C   0  0  0  0  0  1  0  0  0  0  0  0
  -27.6500  -31.9750   25.8250 C   0  0  0  0  0  1  0  0  0  0  0  0
  -31.3730  -16.4150   20.9670 C   0  0  0  0  0  2  0  0  0  0  0  0
  -31.1050  -14.2880   19.6490 C   0  0  0  0  0  0  0  0  0  0  0  0
  -30.5800  -12.1430   18.5270 C   0  0  0  0  0  2  0  0  0  0  0  0
  -29.5080  -12.3420   17.4370 C   0  0  0  0  0  2  0  0  0  0  0  0
  -28.0930  -12.2520   18.0400 C   0  0  0  0  0  2  0  0  0  0  0  0
  -27.9280  -13.1290   19.3090 C   0  0  0  0  0  3  0  0  0  0  0  0
  -29.0940  -12.8970   20.2950 C   0  0  0  0  0  2  0  0  0  0  0  0
  -30.3530  -13.1530   19.5730 N   0  0  0  0  0  0  0  0  0  0  0  0
  -32.1460  -14.4410   19.0060 O   0  0  0  0  0  0  0  0  0  0  0  0
  -30.6210  -15.2580   20.4470 N   0  0  0  0  0  0  0  0  0  0  0  0
  -29.7270  -15.0690   20.8750 H   0  0  0  0  0  0  0  0  0  0  0  0
  -25.6960  -13.8430   20.3700 C   0  0  0  0  0  0  0  0  0  0  0  0
  -24.6270  -13.1200   20.8260 C   0  0  0  0  0  0  0  0  0  0  0  0
  -24.9750  -11.7470   20.6450 C   0  0  0  0  0  0  0  0  0  0  0  0
  -26.6320  -12.9130   19.9440 N   0  0  0  0  0  0  0  0  0  0  0  0
  -26.2080  -11.6430   20.1660 N   0  0  0  0  0  0  0  0  0  0  0  0
  -24.1840  -10.5270   20.8460 C   0  0  0  0  0  0  0  0  0  0  0  0
  -24.5960   -9.5190   21.7460 C   0  0  0  0  0  3  0  0  0  0  0  0
  -23.8080   -8.3630   21.9350 C   0  0  0  0  0  3  0  0  0  0  0  0
  -22.5930   -8.2070   21.2260 C   0  0  0  0  0  0  0  0  0  0  0  0
  -22.1990   -9.2030   20.3150 C   0  0  0  0  0  3  0  0  0  0  0  0
  -22.9870  -10.3500   20.1230 C   0  0  0  0  0  3  0  0  0  0  0  0
  -21.7770   -7.1060   21.3260 O   0  0  0  0  0  0  0  0  0  0  0  0
  -21.6540   -6.4070   22.5000 C   0  0  0  0  0  0  0  0  0  0  0  0
  -21.1740   -7.0130   23.6820 C   0  0  0  0  0  3  0  0  0  0  0  0
  -20.9980   -6.2400   24.8470 C   0  0  0  0  0  3  0  0  0  0  0  0
  -21.2910   -4.8630   24.8310 C   0  0  0  0  0  0  0  0  0  0  0  0
  -21.7640   -4.2570   23.6540 C   0  0  0  0  0  3  0  0  0  0  0  0
  -21.9410   -5.0270   22.4910 C   0  0  0  0  0  0  0  0  0  0  0  0
  -22.3770   -4.4350   21.3540 F   0  0  0  0  0  0  0  0  0  0  0  0
  -21.1130   -4.1180   25.9470 F   0  0  0  0  0  0  0  0  0  0  0  0
  -23.3170  -13.6700   21.3110 C   0  0  0  0  0  0  0  0  0  0  0  0
  -22.6630  -12.9700   22.2310 N   0  0  0  0  0  0  0  0  0  0  0  0
  -22.8880  -14.7520   20.9110 O   0  0  0  0  0  0  0  0  0  0  0  0
  -23.0240  -12.0920   22.5720 H   0  0  0  0  0  0  0  0  0  0  0  0
  -21.7890  -13.3180   22.6000 H   0  0  0  0  0  0  0  0  0  0  0  0
  -25.9450  -15.2090   20.2650 N   0  0  0  0  0  0  0  0  0  0  0  0
  -25.2580  -15.9070   20.5310 H   0  0  0  0  0  0  0  0  0  0  0  0
  -26.7850  -15.6120   19.8710 H   0  0  0  0  0  0  0  0  0  0  0  0
  1  3  2  0
  1  5  1  0
  2  4  1  0
  2 58  1  0
  3  6  1  0
  4  7  1  0
  5  2  2  0
  6  4  2  0
  7  9  1  0
  7  8  1  0
 10  3  1  0
 10 12  1  0
 11 10  1  0
 13 12  1  0
 13 16  1  0
 13 14  1  0
 14 15  1  0
 17 19  1  0
 17 16  1  0
 18 29  2  0
 19 24  1  0
 20 28  1  0
 20 30  1  0
 21 27  1  0
 21 23  1  0
 22 28  1  0
 23 22  1  0
 24 23  2  0
 25 26  1  0
 25 19  2  0
 26 21  2  0
 27 20  1  0
 28 18  1  0
 30 32  2  0
 31 30  1  0
 33 31  1  0
 34 43  2  0
 34 39  1  0
 35 31  1  0
 35 39  1  0
 36 35  1  0
 37 38  1  0
 37 36  1  0
 38 34  1  0
 39 40  2  0
 40 41  1  0
 42 41  2  0
 43 42  1  0
 44 18  1  0
 44 45  1  0
 44 54  1  0
 45 48  1  0
 46 50  1  0
 46 45  1  0
 47 46  2  0
 50 49  1  0
 52 50  1  0
 52 53  1  0
 52 51  1  0
 54 57  1  1
 54 55  1  0
 56 54  1  0
 59 67  1  0
 60 65  1  0
 61 62  1  0
 61 60  1  0
 63 62  1  0
 63 72  1  0
 63 64  1  0
 65 59  1  0
 65 64  1  0
 66 59  2  0
 67 68  1  0
 67 58  1  0
 69 70  2  0
 70 89  1  0
 71 70  1  0
 71 74  1  0
 72 73  1  0
 72 69  1  0
 73 71  2  0
 74 75  1  0
 75 76  2  0
 77 80  1  0
 77 76  1  0
 78 77  2  0
 79 78  1  0
 79 74  2  0
 80 81  1  0
 81 82  1  0
 82 83  2  0
 84 83  1  0
 84 88  1  0
 85 84  2  0
 86 81  2  0
 86 85  1  0
 87 86  1  0
 89 90  1  0
 90 92  1  0
 90 93  1  0
 91 89  2  0
 94 69  1  0
 94 95  1  0
 96 94  1  0
M  ISO  4  16 101  17 101  59 100  67 100
M  END
>  <TORSDO>  (72) 
F 22

>  <SCORE>  (72) 
-11.986

>  <name>  (72) 
71

>  <ligand_id>  (72) 
71

>  <original_smiles>  (72) 
[H]OC([H])(C([H])([H])Oc1c([H])c([H])c2c(c1[H])C([H])([H])N(C(=O)C([H])(N([H])C(=O)C([H])(N([H])C([H])([H])[H])C([H])([H])[H])C(C([H])([H])[H])(C([H])([H])[H])C([H])([H])[H])C([H])(C(=O)N([H])C1([H])c3c([H])c([H])c([H])c([H])c3C([H])([H])C([H])([H])C1([H])[H])C2([H])[H])C([H])([H])N([H])c1nc(N([H])[H])c(C([H])([H])N([H])C(=O)N2C([H])([H])C([H])([H])C([H])([H])C([H])(n3nc(-c4c([H])c([H])c(Oc5c([H])c([H])c(F)c([H])c5F)c([H])c4[H])c(C(=O)N([H])[H])c3N([H])[H])C2([H])[H])nc1[H]

>  <smiles>  (72) 
[H]OC([H])(C([H])([H])Oc1c([H])c([H])c2c(c1[H])C([H])([H])N(C(=O)C([H])(N([H])C(=O)C([H])(N([H])C([H])([H])[H])C([H])([H])[H])C(C([H])([H])[H])(C([H])([H])[H])C([H])([H])[H])C([H])(C(=O)N([H])C1([H])c3c([H])c([H])c([H])c([H])c3C([H])([H])C([H])([H])C1([H])[H])C2([H])[H])C([H])([H])N([H])c1nc(N([H])[H])c(C([H])([H])N([H])C(=O)N2C([H])([H])C([H])([H])C([H])([H])C([H])(n3nc(-c4c([H])c([H])c(Oc5c([H])c([H])c(F)c([H])c5F)c([H])c4[H])c(C(=O)N([H])[H])c3N([H])[H])C2([H])[H])nc1[H]

$$$$
72:0:0
     RDKit          3D

 98106  0  0  1  0  0  0  0  0999 V2000
  -29.2150  -21.5130   19.8420 C   0  0  0  0  0  3  0  0  0  0  0  0
  -29.9610  -20.3600   19.3160 N   0  0  0  0  0  0  0  0  0  0  0  0
  -29.5860  -20.0980   18.4090 H   0  0  0  0  0  0  0  0  0  0  0  0
  -30.7130  -14.4980   20.5450 C   0  0  0  0  0  0  0  0  0  0  0  0
  -30.4080  -12.3600   19.3570 C   0  0  0  0  0  2  0  0  0  0  0  0
  -29.4790  -12.5890   18.1470 C   0  0  0  0  0  2  0  0  0  0  0  0
  -27.9990  -12.4600   18.5610 C   0  0  0  0  0  2  0  0  0  0  0  0
  -27.6550  -13.2830   19.8300 C   0  0  0  0  0  3  0  0  0  0  0  0
  -28.6960  -13.0370   20.9460 C   0  0  0  0  0  2  0  0  0  0  0  0
  -30.0330  -13.3280   20.3980 N   0  0  0  0  0  0  0  0  0  0  0  0
  -31.8380  -14.6830   20.0640 O   0  0  0  0  0  0  0  0  0  0  0  0
  -31.1120  -18.9390   21.0470 C   0  0  0  0  0  3  0  0  0  0  0  0
  -30.1690  -19.1930   20.0690 C   0  0  0  0  0  0  0  0  0  0  0  0
  -30.2110  -16.8590   20.8750 C   0  0  0  0  0  0  0  0  0  0  0  0
  -31.1210  -17.6110   21.5060 N   0  0  0  0  0  0  0  0  0  0  0  0
  -30.0360  -15.4820   21.1600 N   0  0  0  0  0  0  0  0  0  0  0  0
  -29.2340  -17.7550   19.7150 S   0  0  0  0  0  0  0  0  0  0  0  0
  -29.1100  -15.2140   21.4540 H   0  0  0  0  0  0  0  0  0  0  0  0
  -25.2460  -13.9030   20.4950 C   0  0  0  0  0  0  0  0  0  0  0  0
  -24.1690  -13.1390   20.8580 C   0  0  0  0  0  0  0  0  0  0  0  0
  -24.6250  -11.7850   20.8410 C   0  0  0  0  0  0  0  0  0  0  0  0
  -26.2910  -13.0160   20.2860 N   0  0  0  0  0  0  0  0  0  0  0  0
  -25.9190  -11.7370   20.5490 N   0  0  0  0  0  0  0  0  0  0  0  0
  -23.8880  -10.5290   21.0260 C   0  0  0  0  0  0  0  0  0  0  0  0
  -24.3050   -9.5640   21.9710 C   0  0  0  0  0  3  0  0  0  0  0  0
  -23.5730   -8.3690   22.1430 C   0  0  0  0  0  3  0  0  0  0  0  0
  -22.4070   -8.1330   21.3750 C   0  0  0  0  0  0  0  0  0  0  0  0
  -22.0100   -9.0860   20.4210 C   0  0  0  0  0  3  0  0  0  0  0  0
  -22.7450  -10.2710   20.2450 C   0  0  0  0  0  3  0  0  0  0  0  0
  -21.6470   -6.9910   21.4610 O   0  0  0  0  0  0  0  0  0  0  0  0
  -21.5870   -6.2510   22.6140 C   0  0  0  0  0  0  0  0  0  0  0  0
  -21.1530   -6.8100   23.8380 C   0  0  0  0  0  3  0  0  0  0  0  0
  -21.0370   -5.9960   24.9820 C   0  0  0  0  0  3  0  0  0  0  0  0
  -21.3490   -4.6250   24.9050 C   0  0  0  0  0  0  0  0  0  0  0  0
  -21.7800   -4.0670   23.6890 C   0  0  0  0  0  3  0  0  0  0  0  0
  -21.8940   -4.8770   22.5460 C   0  0  0  0  0  0  0  0  0  0  0  0
  -22.2860   -4.3290   21.3700 F   0  0  0  0  0  0  0  0  0  0  0  0
  -21.2340   -3.8400   26.0030 F   0  0  0  0  0  0  0  0  0  0  0  0
  -22.7700  -13.6220   21.1100 C   0  0  0  0  0  0  0  0  0  0  0  0
  -22.0240  -12.9340   21.9680 N   0  0  0  0  0  0  0  0  0  0  0  0
  -22.3440  -14.6490   20.5810 O   0  0  0  0  0  0  0  0  0  0  0  0
  -22.3750  -12.1000   22.4150 H   0  0  0  0  0  0  0  0  0  0  0  0
  -21.0860  -13.2440   22.1750 H   0  0  0  0  0  0  0  0  0  0  0  0
  -25.4210  -15.2700   20.3050 N   0  0  0  0  0  0  0  0  0  0  0  0
  -24.6580  -15.9280   20.4000 H   0  0  0  0  0  0  0  0  0  0  0  0
  -26.2740  -15.7000   19.9710 H   0  0  0  0  0  0  0  0  0  0  0  0
  -29.7240  -21.9720   21.2320 C   0  0  0  0  0  2  0  0  0  0  0  0
  -29.1900  -23.3300   21.7820 C   0  0  0  0  0  3  0  0  0  0  0  0
  -29.7570  -23.4640   23.0780 O   0  0  0  0  0  0  0  0  0  0  0  0
  -30.7050  -23.4430   22.9900 H   0  0  0  0  0  0  0  0  0  0  0  0
  -29.5340  -24.6180   20.9700 C   0  0  0  0  0  2  0  0  0  0  0  0
  -28.3350  -25.2800   20.2420 C   0  0  0  0  0  2  0  0  0  0  0  0
  -28.4150  -26.7140   20.2920 O   0  0  0  0  0  0  0  0  0  0  0  0
  -24.5750  -31.9240   23.2420 C   0  0  0  0  0  0  0  0  0  0  0  0
  -27.2310  -27.4280   20.2470 C   0  0  0  0  0  0  0  0  0  0  0  0
  -23.3790  -30.5080   21.6040 C   0  0  0  0  0  3  0  0  0  0  0  0
  -24.8360  -28.9460   20.2090 C   0  0  0  0  0  0  0  0  0  0  0  0
  -25.9060  -30.8490   21.4260 C   0  0  0  0  0  2  0  0  0  0  0  0
  -25.9900  -29.4700   20.8040 C   0  0  0  0  0  0  0  0  0  0  0  0
  -27.1890  -28.7210   20.8150 C   0  0  0  0  0  3  0  0  0  0  0  0
  -26.0590  -26.9160   19.6430 C   0  0  0  0  0  3  0  0  0  0  0  0
  -24.8650  -27.6660   19.6250 C   0  0  0  0  0  3  0  0  0  0  0  0
  -23.5970  -29.8140   20.2320 C   0  0  0  0  0  2  0  0  0  0  0  0
  -24.6380  -31.1090   22.1510 N   0  0  0  0  0  0  0  0  0  0  0  0
  -23.4910  -32.2110   23.7680 O   0  0  0  0  0  0  0  0  0  0  0  0
  -22.7120  -29.5020   22.5710 C   0  0  0  0  0  0  0  0  0  0  0  0
  -21.3860  -29.3380   22.4420 N   0  0  0  0  0  0  0  0  0  0  0  0
  -23.3850  -28.8730   23.3920 O   0  0  0  0  0  0  0  0  0  0  0  0
  -20.9040  -29.8990   21.7530 H   0  0  0  0  0  0  0  0  0  0  0  0
  -17.9910  -28.2150   22.9600 C   0  0  0  0  0  0  0  0  0  0  0  0
  -20.5540  -28.4170   23.2170 C   0  0  0  0  0  3  0  0  0  0  0  0
  -20.6220  -26.9860   22.6370 C   0  0  0  0  0  2  0  0  0  0  0  0
  -19.5070  -26.6910   21.6290 C   0  0  0  0  0  2  0  0  0  0  0  0
  -18.1340  -26.8640   22.2800 C   0  0  0  0  0  2  0  0  0  0  0  0
  -19.1270  -28.9510   23.3840 C   0  0  0  0  0  0  0  0  0  0  0  0
  -18.9420  -30.2180   23.9790 C   0  0  0  0  0  3  0  0  0  0  0  0
  -17.6490  -30.7460   24.1550 C   0  0  0  0  0  3  0  0  0  0  0  0
  -16.5250  -30.0070   23.7480 C   0  0  0  0  0  3  0  0  0  0  0  0
  -16.6970  -28.7420   23.1540 C   0  0  0  0  0  3  0  0  0  0  0  0
  -25.8590  -32.5550   23.8680 C   0  0  0  0  0  3  0  0  0  0  0  0
  -25.5540  -33.9540   24.1910 N   0  0  0  0  0  0  0  0  0  0  0  0
  -25.8910  -35.0010   23.4240 C   0  0  0  0  0  0  0  0  0  0  0  0
  -26.5680  -34.8900   22.3980 O   0  0  0  0  0  0  0  0  0  0  0  0
  -24.9610  -34.1180   24.9900 H   0  0  0  0  0  0  0  0  0  0  0  0
  -24.1730  -36.7960   23.0370 C   0  0  0  0  0  1  0  0  0  0  0  0
  -25.4030  -36.3950   23.8680 C   0  0  0  0  0  3  0  0  0  0  0  0
  -27.5330  -37.2730   24.7200 C   0  0  0  0  0  1  0  0  0  0  0  0
  -26.4410  -37.4450   23.7640 N   0  0  0  0  0  0  0  0  0  0  0  0
  -26.0360  -38.3660   23.9120 H   0  0  0  0  0  0  0  0  0  0  0  0
  -26.3680  -31.7880   25.1510 C   0  0  1  0  0  0  0  0  0  0  0  0
  -25.2720  -31.5570   26.2160 C   0  0  0  0  0  1  0  0  0  0  0  0
  -26.9520  -30.4080   24.7680 C   0  0  0  0  0  1  0  0  0  0  0  0
  -27.5190  -32.5800   25.8150 C   0  0  0  0  0  1  0  0  0  0  0  0
  -27.6790  -21.2700   19.7790 C   0  0  0  0  0  2  0  0  0  0  0  0
  -27.2800  -22.8500   17.7760 C   0  0  0  0  0  1  0  0  0  0  0  0
  -25.4290  -21.4820   18.6790 C   0  0  0  0  0  1  0  0  0  0  0  0
  -27.2550  -20.3710   17.3990 C   0  0  0  0  0  1  0  0  0  0  0  0
  -26.9470  -21.4880   18.4150 C   0  0  2  0  0  0  0  0  0  0  0  0
  1 94  1  0
  1 47  1  0
  2  1  1  0
  2 13  1  0
  3  2  1  0
  4 16  1  0
  5 10  1  0
  6  7  1  0
  6  5  1  0
  8  7  1  0
  8 22  1  0
  8  9  1  0
 10  4  1  0
 10  9  1  0
 11  4  2  0
 12 15  1  0
 13 12  2  0
 14 16  1  0
 14 15  2  0
 16 18  1  0
 17 13  1  0
 17 14  1  0
 19 20  2  0
 20 39  1  0
 21 20  1  0
 21 24  1  0
 22 19  1  0
 22 23  1  0
 23 21  2  0
 24 25  1  0
 25 26  2  0
 27 30  1  0
 27 26  1  0
 28 27  2  0
 29 28  1  0
 29 24  2  0
 30 31  1  0
 31 32  1  0
 32 33  2  0
 34 33  1  0
 34 38  1  0
 35 34  2  0
 36 31  2  0
 36 35  1  0
 37 36  1  0
 39 40  1  0
 40 43  1  0
 40 42  1  0
 41 39  2  0
 44 45  1  0
 44 19  1  0
 46 44  1  0
 47 48  1  0
 48 51  1  0
 48 49  1  0
 50 49  1  0
 52 53  1  0
 52 51  1  0
 54 65  2  0
 55 53  1  0
 55 60  1  0
 56 64  1  0
 56 66  1  0
 57 63  1  0
 57 59  1  0
 58 64  1  0
 59 60  2  0
 59 58  1  0
 61 55  2  0
 62 61  1  0
 62 57  2  0
 63 56  1  0
 64 54  1  0
 66 68  2  0
 67 66  1  0
 69 67  1  0
 70 79  2  0
 70 75  1  0
 71 67  1  0
 71 75  1  0
 72 71  1  0
 73 74  1  0
 73 72  1  0
 74 70  1  0
 75 76  2  0
 76 77  1  0
 78 77  2  0
 79 78  1  0
 80 54  1  0
 80 81  1  0
 80 90  1  0
 81 84  1  0
 82 86  1  0
 82 81  1  0
 83 82  2  0
 86 85  1  0
 88 86  1  0
 88 89  1  0
 88 87  1  0
 90 93  1  1
 90 91  1  0
 92 90  1  0
 98 95  1  6
 97 98  1  0
 98 96  1  0
 98 94  1  0
M  ISO  4   4 100  16 100  52 101  53 101
M  END
>  <TORSDO>  (73) 
F 24

>  <SCORE>  (73) 
-13.125

>  <name>  (73) 
72

>  <ligand_id>  (73) 
72

>  <original_smiles>  (73) 
[H]OC([H])(C([H])([H])C([H])([H])Oc1c([H])c([H])c2c(c1[H])C([H])([H])N(C(=O)C([H])(N([H])C(=O)C([H])(N([H])C([H])([H])[H])C([H])([H])[H])C(C([H])([H])[H])(C([H])([H])[H])C([H])([H])[H])C([H])(C(=O)N([H])C1([H])c3c([H])c([H])c([H])c([H])c3C([H])([H])C([H])([H])C1([H])[H])C2([H])[H])C([H])([H])C([H])(N([H])c1sc(N([H])C(=O)N2C([H])([H])C([H])([H])C([H])([H])C([H])(n3nc(-c4c([H])c([H])c(Oc5c([H])c([H])c(F)c([H])c5F)c([H])c4[H])c(C(=O)N([H])[H])c3N([H])[H])C2([H])[H])nc1[H])C([H])([H])C(C([H])([H])[H])(C([H])([H])[H])C([H])([H])[H]

>  <smiles>  (73) 
[H]OC([H])(C([H])([H])C([H])([H])Oc1c([H])c([H])c2c(c1[H])C([H])([H])N(C(=O)C([H])(N([H])C(=O)C([H])(N([H])C([H])([H])[H])C([H])([H])[H])C(C([H])([H])[H])(C([H])([H])[H])C([H])([H])[H])C([H])(C(=O)N([H])C1([H])c3c([H])c([H])c([H])c([H])c3C([H])([H])C([H])([H])C1([H])[H])C2([H])[H])C([H])([H])C([H])(N([H])c1sc(N([H])C(=O)N2C([H])([H])C([H])([H])C([H])([H])C([H])(n3nc(-c4c([H])c([H])c(Oc5c([H])c([H])c(F)c([H])c5F)c([H])c4[H])c(C(=O)N([H])[H])c3N([H])[H])C2([H])[H])nc1[H])C([H])([H])C(C([H])([H])[H])(C([H])([H])[H])C([H])([H])[H]

$$$$
73:0:0
     RDKit          3D

100108  0  0  1  0  0  0  0  0999 V2000
  -29.0120  -21.6480   20.4860 C   0  0  0  0  0  3  0  0  0  0  0  0
  -31.9980  -17.3560   20.4460 C   0  0  0  0  0  3  0  0  0  0  0  0
  -30.6820  -17.0090   20.8890 C   0  0  0  0  0  0  0  0  0  0  0  0
  -31.5280  -19.6000   20.5090 C   0  0  0  0  0  0  0  0  0  0  0  0
  -30.1830  -19.3240   20.8950 C   0  0  0  0  0  0  0  0  0  0  0  0
  -32.4150  -18.6240   20.2640 N   0  0  0  0  0  0  0  0  0  0  0  0
  -29.7900  -18.0320   21.1000 N   0  0  0  0  0  0  0  0  0  0  0  0
  -32.0610  -20.8700   20.3780 N   0  0  0  0  0  0  0  0  0  0  0  0
  -29.1750  -20.3030   21.0980 N   0  0  0  0  0  0  0  0  0  0  0  0
  -31.3850  -21.6230   20.4190 H   0  0  0  0  0  0  0  0  0  0  0  0
  -32.7710  -20.9920   19.6680 H   0  0  0  0  0  0  0  0  0  0  0  0
  -28.3190  -19.9080   21.4730 H   0  0  0  0  0  0  0  0  0  0  0  0
  -30.9150  -14.5020   20.6450 C   0  0  0  0  0  0  0  0  0  0  0  0
  -30.4560  -12.4780   19.3250 C   0  0  0  0  0  2  0  0  0  0  0  0
  -29.5340  -12.8650   18.1540 C   0  0  0  0  0  2  0  0  0  0  0  0
  -28.0620  -12.7250   18.5850 C   0  0  0  0  0  2  0  0  0  0  0  0
  -27.7600  -13.4250   19.9390 C   0  0  0  0  0  3  0  0  0  0  0  0
  -28.8300  -13.1080   21.0130 C   0  0  0  0  0  2  0  0  0  0  0  0
  -30.1500  -13.3940   20.4380 N   0  0  0  0  0  0  0  0  0  0  0  0
  -32.0930  -14.5220   20.2950 O   0  0  0  0  0  0  0  0  0  0  0  0
  -30.2830  -15.6240   21.0750 N   0  0  0  0  0  0  0  0  0  0  0  0
  -29.3600  -15.4770   21.4540 H   0  0  0  0  0  0  0  0  0  0  0  0
  -25.3560  -13.9940   20.6490 C   0  0  0  0  0  0  0  0  0  0  0  0
  -24.2930  -13.2040   20.9940 C   0  0  0  0  0  0  0  0  0  0  0  0
  -24.7640  -11.8560   20.9360 C   0  0  0  0  0  0  0  0  0  0  0  0
  -26.4100  -13.1270   20.4110 N   0  0  0  0  0  0  0  0  0  0  0  0
  -26.0600  -11.8360   20.6450 N   0  0  0  0  0  0  0  0  0  0  0  0
  -24.0440  -10.5890   21.0950 C   0  0  0  0  0  0  0  0  0  0  0  0
  -24.4300   -9.6450   22.0710 C   0  0  0  0  0  3  0  0  0  0  0  0
  -23.7140   -8.4360   22.2230 C   0  0  0  0  0  3  0  0  0  0  0  0
  -22.5970   -8.1650   21.3980 C   0  0  0  0  0  0  0  0  0  0  0  0
  -22.2280   -9.1010   20.4150 C   0  0  0  0  0  3  0  0  0  0  0  0
  -22.9420  -10.3020   20.2630 C   0  0  0  0  0  3  0  0  0  0  0  0
  -21.8610   -7.0060   21.4490 O   0  0  0  0  0  0  0  0  0  0  0  0
  -21.7270   -6.2910   22.6110 C   0  0  0  0  0  0  0  0  0  0  0  0
  -21.1060   -6.8370   23.7570 C   0  0  0  0  0  3  0  0  0  0  0  0
  -20.9290   -6.0440   24.9070 C   0  0  0  0  0  3  0  0  0  0  0  0
  -21.3570   -4.7030   24.9120 C   0  0  0  0  0  0  0  0  0  0  0  0
  -21.9680   -4.1540   23.7710 C   0  0  0  0  0  3  0  0  0  0  0  0
  -22.1500   -4.9460   22.6230 C   0  0  0  0  0  0  0  0  0  0  0  0
  -22.7180   -4.4060   21.5180 F   0  0  0  0  0  0  0  0  0  0  0  0
  -21.1810   -3.9380   26.0160 F   0  0  0  0  0  0  0  0  0  0  0  0
  -22.8910  -13.6640   21.2660 C   0  0  0  0  0  0  0  0  0  0  0  0
  -22.1630  -12.9420   22.1100 N   0  0  0  0  0  0  0  0  0  0  0  0
  -22.4480  -14.6980   20.7700 O   0  0  0  0  0  0  0  0  0  0  0  0
  -22.5310  -12.1100   22.5470 H   0  0  0  0  0  0  0  0  0  0  0  0
  -21.2210  -13.2330   22.3260 H   0  0  0  0  0  0  0  0  0  0  0  0
  -25.5100  -15.3700   20.4990 N   0  0  0  0  0  0  0  0  0  0  0  0
  -24.7320  -16.0160   20.5850 H   0  0  0  0  0  0  0  0  0  0  0  0
  -26.3670  -15.8200   20.1970 H   0  0  0  0  0  0  0  0  0  0  0  0
  -29.4000  -21.7070   18.9720 C   0  0  0  0  0  2  0  0  0  0  0  0
  -29.0250  -22.8320   16.7200 C   0  0  0  0  0  1  0  0  0  0  0  0
  -27.2170  -23.1040   18.4650 C   0  0  0  0  0  1  0  0  0  0  0  0
  -28.3360  -22.1810   17.9380 C   0  0  0  0  0  3  0  0  0  0  0  0
  -29.5740  -22.8120   21.3930 C   0  0  0  0  0  2  0  0  0  0  0  0
  -29.5800  -24.3070   20.8760 C   0  0  0  0  0  3  0  0  0  0  0  0
  -30.7540  -24.9040   21.4120 O   0  0  0  0  0  0  0  0  0  0  0  0
  -30.5110  -25.3460   22.2210 H   0  0  0  0  0  0  0  0  0  0  0  0
  -28.4070  -25.2400   21.3260 C   0  0  0  0  0  2  0  0  0  0  0  0
  -28.5510  -26.6050   20.8420 O   0  0  0  0  0  0  0  0  0  0  0  0
  -24.5460  -31.9830   23.3800 C   0  0  0  0  0  0  0  0  0  0  0  0
  -27.4000  -27.3710   20.7380 C   0  0  0  0  0  0  0  0  0  0  0  0
  -23.4630  -30.4970   21.7300 C   0  0  0  0  0  3  0  0  0  0  0  0
  -25.0150  -28.8910   20.4920 C   0  0  0  0  0  0  0  0  0  0  0  0
  -26.0000  -30.8440   21.7010 C   0  0  0  0  0  2  0  0  0  0  0  0
  -26.1320  -29.4440   21.1340 C   0  0  0  0  0  0  0  0  0  0  0  0
  -27.3310  -28.6940   21.2460 C   0  0  0  0  0  3  0  0  0  0  0  0
  -26.2700  -26.8470   20.0740 C   0  0  0  0  0  3  0  0  0  0  0  0
  -25.0850  -27.5970   19.9520 C   0  0  0  0  0  3  0  0  0  0  0  0
  -23.7700  -29.7470   20.4070 C   0  0  0  0  0  2  0  0  0  0  0  0
  -24.6830  -31.1290   22.3250 N   0  0  0  0  0  0  0  0  0  0  0  0
  -23.4310  -32.2740   23.8290 O   0  0  0  0  0  0  0  0  0  0  0  0
  -22.7460  -29.5220   22.6950 C   0  0  0  0  0  0  0  0  0  0  0  0
  -21.4270  -29.3500   22.5040 N   0  0  0  0  0  0  0  0  0  0  0  0
  -23.3760  -28.9210   23.5680 O   0  0  0  0  0  0  0  0  0  0  0  0
  -20.9840  -29.8800   21.7670 H   0  0  0  0  0  0  0  0  0  0  0  0
  -17.9980  -28.2990   22.9550 C   0  0  0  0  0  0  0  0  0  0  0  0
  -20.5600  -28.4540   23.2680 C   0  0  0  0  0  3  0  0  0  0  0  0
  -20.6130  -27.0150   22.7040 C   0  0  0  0  0  2  0  0  0  0  0  0
  -19.5170  -26.7300   21.6730 C   0  0  0  0  0  2  0  0  0  0  0  0
  -18.1310  -26.9380   22.2910 C   0  0  0  0  0  2  0  0  0  0  0  0
  -19.1410  -29.0170   23.3990 C   0  0  0  0  0  0  0  0  0  0  0  0
  -18.9640  -30.2910   23.9790 C   0  0  0  0  0  3  0  0  0  0  0  0
  -17.6780  -30.8460   24.1200 C   0  0  0  0  0  3  0  0  0  0  0  0
  -16.5500  -30.1250   23.6920 C   0  0  0  0  0  3  0  0  0  0  0  0
  -16.7120  -28.8520   23.1140 C   0  0  0  0  0  3  0  0  0  0  0  0
  -25.7850  -32.6490   24.0570 C   0  0  0  0  0  3  0  0  0  0  0  0
  -25.4530  -34.0630   24.2890 N   0  0  0  0  0  0  0  0  0  0  0  0
  -25.8300  -35.0740   23.4930 C   0  0  0  0  0  0  0  0  0  0  0  0
  -26.5640  -34.9170   22.5150 O   0  0  0  0  0  0  0  0  0  0  0  0
  -24.8100  -34.2580   25.0420 H   0  0  0  0  0  0  0  0  0  0  0  0
  -24.1330  -36.8380   22.9190 C   0  0  0  0  0  1  0  0  0  0  0  0
  -25.3100  -36.4830   23.8410 C   0  0  0  0  0  3  0  0  0  0  0  0
  -27.3640  -37.4290   24.7960 C   0  0  0  0  0  1  0  0  0  0  0  0
  -26.3490  -37.5310   23.7520 N   0  0  0  0  0  0  0  0  0  0  0  0
  -25.9320  -38.4580   23.8000 H   0  0  0  0  0  0  0  0  0  0  0  0
  -26.2120  -31.9510   25.4050 C   0  0  1  0  0  0  0  0  0  0  0  0
  -25.0390  -31.7290   26.3870 C   0  0  0  0  0  1  0  0  0  0  0  0
  -26.8580  -30.5740   25.1270 C   0  0  0  0  0  1  0  0  0  0  0  0
  -27.2860  -32.8040   26.1180 C   0  0  0  0  0  1  0  0  0  0  0  0
  1 51  1  0
  1  9  1  0
  1 55  1  0
  2  3  1  0
  3 21  1  0
  3  7  2  0
  4  5  2  0
  5  9  1  0
  5  7  1  0
  6  2  2  0
  6  4  1  0
  8 10  1  0
  8  4  1  0
  9 12  1  0
 11  8  1  0
 13 21  1  0
 14 19  1  0
 15 16  1  0
 15 14  1  0
 17 16  1  0
 17 26  1  0
 17 18  1  0
 19 13  1  0
 19 18  1  0
 20 13  2  0
 21 22  1  0
 23 24  2  0
 24 43  1  0
 25 24  1  0
 25 28  1  0
 26 27  1  0
 26 23  1  0
 27 25  2  0
 28 29  1  0
 29 30  2  0
 31 34  1  0
 31 30  1  0
 32 31  2  0
 33 32  1  0
 33 28  2  0
 34 35  1  0
 35 40  2  0
 35 36  1  0
 36 37  2  0
 37 38  1  0
 38 42  1  0
 39 38  2  0
 40 39  1  0
 41 40  1  0
 43 44  1  0
 44 47  1  0
 44 46  1  0
 45 43  2  0
 48 49  1  0
 48 23  1  0
 50 48  1  0
 52 54  1  0
 54 53  1  0
 54 51  1  0
 56 59  1  0
 56 55  1  0
 56 57  1  0
 57 58  1  0
 60 59  1  0
 61 72  2  0
 62 60  1  0
 62 67  1  0
 63 71  1  0
 63 73  1  0
 64 66  1  0
 65 71  1  0
 66 67  2  0
 66 65  1  0
 68 62  2  0
 69 68  1  0
 69 64  2  0
 70 64  1  0
 70 63  1  0
 71 61  1  0
 73 75  2  0
 74 73  1  0
 76 74  1  0
 77 86  2  0
 77 82  1  0
 78 74  1  0
 78 82  1  0
 79 78  1  0
 80 81  1  0
 80 79  1  0
 81 77  1  0
 82 83  2  0
 83 84  1  0
 85 84  2  0
 86 85  1  0
 87 61  1  0
 87 88  1  0
 87 97  1  0
 88 91  1  0
 89 93  1  0
 89 88  1  0
 90 89  2  0
 93 92  1  0
 95 96  1  0
 95 93  1  0
 95 94  1  0
 97100  1  1
 97 98  1  0
 99 97  1  0
M  ISO  4  13 100  21 100  59 101  60 101
M  END
>  <TORSDO>  (74) 
F 23

>  <SCORE>  (74) 
-13.120

>  <name>  (74) 
73

>  <ligand_id>  (74) 
73

>  <original_smiles>  (74) 
[H]OC([H])(C([H])([H])Oc1c([H])c([H])c2c(c1[H])C([H])([H])N(C(=O)C([H])(N([H])C(=O)C([H])(N([H])C([H])([H])[H])C([H])([H])[H])C(C([H])([H])[H])(C([H])([H])[H])C([H])([H])[H])C([H])(C(=O)N([H])C1([H])c3c([H])c([H])c([H])c([H])c3C([H])([H])C([H])([H])C1([H])[H])C2([H])[H])C([H])([H])C([H])(N([H])c1nc(N([H])C(=O)N2C([H])([H])C([H])([H])C([H])([H])C([H])(n3nc(-c4c([H])c([H])c(Oc5c([H])c([H])c(F)c([H])c5F)c([H])c4[H])c(C(=O)N([H])[H])c3N([H])[H])C2([H])[H])c([H])nc1N([H])[H])C([H])([H])C([H])(C([H])([H])[H])C([H])([H])[H]

>  <smiles>  (74) 
[H]OC([H])(C([H])([H])Oc1c([H])c([H])c2c(c1[H])C([H])([H])N(C(=O)C([H])(N([H])C(=O)C([H])(N([H])C([H])([H])[H])C([H])([H])[H])C(C([H])([H])[H])(C([H])([H])[H])C([H])([H])[H])C([H])(C(=O)N([H])C1([H])c3c([H])c([H])c([H])c([H])c3C([H])([H])C([H])([H])C1([H])[H])C2([H])[H])C([H])([H])C([H])(N([H])c1nc(N([H])C(=O)N2C([H])([H])C([H])([H])C([H])([H])C([H])(n3nc(-c4c([H])c([H])c(Oc5c([H])c([H])c(F)c([H])c5F)c([H])c4[H])c(C(=O)N([H])[H])c3N([H])[H])C2([H])[H])c([H])nc1N([H])[H])C([H])([H])C([H])(C([H])([H])[H])C([H])([H])[H]

$$$$
74:0:0
     RDKit          3D

100108  0  0  1  0  0  0  0  0999 V2000
  -29.5100  -18.0320   19.7960 C   0  0  0  0  0  0  0  0  0  0  0  0
  -28.2360  -18.0940   19.2480 C   0  0  0  0  0  0  0  0  0  0  0  0
  -29.1960  -20.3230   19.7100 C   0  0  0  0  0  0  0  0  0  0  0  0
  -30.0430  -19.3280   20.0120 N   0  0  0  0  0  0  0  0  0  0  0  0
  -29.4270  -21.6960   19.8900 N   0  0  0  0  0  0  0  0  0  0  0  0
  -27.6740  -19.7380   19.0640 S   0  0  0  0  0  0  0  0  0  0  0  0
  -30.3120  -21.9320   20.3280 H   0  0  0  0  0  0  0  0  0  0  0  0
  -27.3780  -17.0770   18.8350 N   0  0  0  0  0  0  0  0  0  0  0  0
  -27.8480  -16.3040   18.3810 H   0  0  0  0  0  0  0  0  0  0  0  0
  -26.5890  -17.3810   18.2690 H   0  0  0  0  0  0  0  0  0  0  0  0
  -28.5170  -22.8370   19.7120 C   0  0  0  0  0  2  0  0  0  0  0  0
  -29.1110  -24.2590   19.9680 C   0  0  0  0  0  3  0  0  0  0  0  0
  -29.4990  -24.2570   21.3310 O   0  0  0  0  0  0  0  0  0  0  0  0
  -28.7980  -23.8340   21.8170 H   0  0  0  0  0  0  0  0  0  0  0  0
  -28.0120  -25.3430   19.7230 C   0  0  0  0  0  2  0  0  0  0  0  0
  -28.3580  -26.7540   19.8160 O   0  0  0  0  0  0  0  0  0  0  0  0
  -25.1990  -31.8730   23.6860 C   0  0  0  0  0  0  0  0  0  0  0  0
  -27.2800  -27.6290   19.9300 C   0  0  0  0  0  0  0  0  0  0  0  0
  -23.7900  -30.7790   21.9750 C   0  0  0  0  0  3  0  0  0  0  0  0
  -25.0300  -29.3350   20.2770 C   0  0  0  0  0  0  0  0  0  0  0  0
  -26.3260  -30.9630   21.6540 C   0  0  0  0  0  2  0  0  0  0  0  0
  -26.2630  -29.6800   20.8460 C   0  0  0  0  0  0  0  0  0  0  0  0
  -27.3910  -28.8370   20.6690 C   0  0  0  0  0  3  0  0  0  0  0  0
  -26.0260  -27.3310   19.3400 C   0  0  0  0  0  3  0  0  0  0  0  0
  -24.9110  -28.1640   19.5150 C   0  0  0  0  0  3  0  0  0  0  0  0
  -23.8640  -30.2680   20.5130 C   0  0  0  0  0  2  0  0  0  0  0  0
  -25.1280  -31.2120   22.4960 N   0  0  0  0  0  0  0  0  0  0  0  0
  -24.1770  -32.1540   24.3280 O   0  0  0  0  0  0  0  0  0  0  0  0
  -23.1160  -29.6950   22.8490 C   0  0  0  0  0  0  0  0  0  0  0  0
  -21.8110  -29.4680   22.6230 N   0  0  0  0  0  0  0  0  0  0  0  0
  -23.7660  -29.0640   23.6860 O   0  0  0  0  0  0  0  0  0  0  0  0
  -21.3460  -30.0320   21.9250 H   0  0  0  0  0  0  0  0  0  0  0  0
  -18.5160  -27.9820   22.6970 C   0  0  0  0  0  0  0  0  0  0  0  0
  -20.9830  -28.4690   23.2990 C   0  0  0  0  0  3  0  0  0  0  0  0
  -21.2850  -27.0460   22.7730 C   0  0  0  0  0  2  0  0  0  0  0  0
  -20.3620  -26.6180   21.6280 C   0  0  0  0  0  2  0  0  0  0  0  0
  -18.8990  -26.6470   22.0810 C   0  0  0  0  0  2  0  0  0  0  0  0
  -19.4970  -28.8440   23.2550 C   0  0  0  0  0  0  0  0  0  0  0  0
  -19.0930  -30.0900   23.7830 C   0  0  0  0  0  3  0  0  0  0  0  0
  -17.7400  -30.4760   23.7630 C   0  0  0  0  0  3  0  0  0  0  0  0
  -16.7720  -29.6120   23.2240 C   0  0  0  0  0  3  0  0  0  0  0  0
  -17.1590  -28.3680   22.6960 C   0  0  0  0  0  3  0  0  0  0  0  0
  -26.5650  -32.3280   24.2870 C   0  0  0  0  0  3  0  0  0  0  0  0
  -26.3940  -33.7000   24.7830 N   0  0  0  0  0  0  0  0  0  0  0  0
  -26.7470  -34.8040   24.1080 C   0  0  0  0  0  0  0  0  0  0  0  0
  -27.3240  -34.7650   23.0170 O   0  0  0  0  0  0  0  0  0  0  0  0
  -25.8770  -33.8090   25.6420 H   0  0  0  0  0  0  0  0  0  0  0  0
  -25.1290  -36.7280   24.1070 C   0  0  0  0  0  1  0  0  0  0  0  0
  -26.4080  -36.1640   24.7450 C   0  0  0  0  0  3  0  0  0  0  0  0
  -28.6670  -36.8270   25.4460 C   0  0  0  0  0  1  0  0  0  0  0  0
  -27.5010  -37.1560   24.6300 N   0  0  0  0  0  0  0  0  0  0  0  0
  -27.1770  -38.0810   24.8980 H   0  0  0  0  0  0  0  0  0  0  0  0
  -27.0870  -31.3800   25.4340 C   0  0  1  0  0  0  0  0  0  0  0  0
  -26.0190  -31.0540   26.5040 C   0  0  0  0  0  1  0  0  0  0  0  0
  -27.5940  -30.0410   24.8500 C   0  0  0  0  0  1  0  0  0  0  0  0
  -28.2950  -32.0340   26.1480 C   0  0  0  0  0  1  0  0  0  0  0  0
  -30.3460  -16.8010   20.1910 C   0  0  0  0  0  3  0  0  0  0  0  0
  -30.2010  -14.6150   18.8830 C   0  0  0  0  0  0  0  0  0  0  0  0
  -29.5590  -12.5910   17.6100 C   0  0  0  0  0  2  0  0  0  0  0  0
  -28.3550  -12.9090   16.7030 C   0  0  0  0  0  2  0  0  0  0  0  0
  -27.0310  -12.7110   17.4670 C   0  0  0  0  0  2  0  0  0  0  0  0
  -27.0320  -13.4220   18.8460 C   0  0  0  0  0  3  0  0  0  0  0  0
  -28.3210  -13.1010   19.6330 C   0  0  0  0  0  2  0  0  0  0  0  0
  -29.4700  -13.4700   18.7860 N   0  0  0  0  0  0  0  0  0  0  0  0
  -31.1580  -14.8620   18.1460 O   0  0  0  0  0  0  0  0  0  0  0  0
  -29.7560  -15.5090   19.7880 N   0  0  0  0  0  0  0  0  0  0  0  0
  -28.9090  -15.2610   20.2740 H   0  0  0  0  0  0  0  0  0  0  0  0
  -24.8910  -13.9710   20.1610 C   0  0  0  0  0  0  0  0  0  0  0  0
  -23.9260  -13.1700   20.7120 C   0  0  0  0  0  0  0  0  0  0  0  0
  -24.3410  -11.8270   20.4640 C   0  0  0  0  0  0  0  0  0  0  0  0
  -25.8300  -13.1100   19.6160 N   0  0  0  0  0  0  0  0  0  0  0  0
  -25.5180  -11.8100   19.8530 N   0  0  0  0  0  0  0  0  0  0  0  0
  -23.6590  -10.5530   20.7270 C   0  0  0  0  0  0  0  0  0  0  0  0
  -24.2340   -9.5690   21.5600 C   0  0  0  0  0  3  0  0  0  0  0  0
  -23.5510   -8.3600   21.8150 C   0  0  0  0  0  3  0  0  0  0  0  0
  -22.2820   -8.1270   21.2340 C   0  0  0  0  0  0  0  0  0  0  0  0
  -21.7240   -9.1010   20.3880 C   0  0  0  0  0  3  0  0  0  0  0  0
  -22.4060  -10.3020   20.1330 C   0  0  0  0  0  3  0  0  0  0  0  0
  -21.5550   -6.9730   21.4050 O   0  0  0  0  0  0  0  0  0  0  0  0
  -21.6020   -6.2580   22.5740 C   0  0  0  0  0  0  0  0  0  0  0  0
  -21.2400   -6.8330   23.8120 C   0  0  0  0  0  3  0  0  0  0  0  0
  -21.2350   -6.0430   24.9790 C   0  0  0  0  0  3  0  0  0  0  0  0
  -21.5820   -4.6810   24.9110 C   0  0  0  0  0  0  0  0  0  0  0  0
  -21.9330   -4.1060   23.6770 C   0  0  0  0  0  3  0  0  0  0  0  0
  -21.9430   -4.8920   22.5120 C   0  0  0  0  0  0  0  0  0  0  0  0
  -22.2640   -4.3280   21.3230 F   0  0  0  0  0  0  0  0  0  0  0  0
  -21.5680   -3.9180   26.0300 F   0  0  0  0  0  0  0  0  0  0  0  0
  -22.6490  -13.6240   21.3550 C   0  0  0  0  0  0  0  0  0  0  0  0
  -22.1550  -12.8760   22.3370 N   0  0  0  0  0  0  0  0  0  0  0  0
  -22.1040  -14.6750   21.0200 O   0  0  0  0  0  0  0  0  0  0  0  0
  -22.6110  -12.0220   22.6230 H   0  0  0  0  0  0  0  0  0  0  0  0
  -21.3100  -13.1640   22.8080 H   0  0  0  0  0  0  0  0  0  0  0  0
  -25.0370  -15.3510   20.0650 N   0  0  0  0  0  0  0  0  0  0  0  0
  -24.3200  -15.9940   20.3800 H   0  0  0  0  0  0  0  0  0  0  0  0
  -25.8520  -15.8310   19.6810 H   0  0  0  0  0  0  0  0  0  0  0  0
  -30.5760  -16.7890   21.7360 C   0  0  0  0  0  2  0  0  0  0  0  0
  -30.7370  -14.3100   22.4550 C   0  0  0  0  0  1  0  0  0  0  0  0
  -32.8000  -15.5160   21.6380 C   0  0  0  0  0  1  0  0  0  0  0  0
  -31.7700  -16.0980   23.8340 C   0  0  0  0  0  1  0  0  0  0  0  0
  -31.4600  -15.6740   22.3840 C   0  0  1  0  0  0  0  0  0  0  0  0
  1  4  1  0
  1 57  1  0
  2  1  2  0
  3  5  1  0
  3  4  2  0
  5  7  1  0
  6  2  1  0
  6  3  1  0
  8  2  1  0
  9  8  1  0
 10  8  1  0
 11  5  1  0
 12 11  1  0
 12 13  1  0
 13 14  1  0
 15 16  1  0
 15 12  1  0
 16 18  1  0
 17 28  2  0
 18 23  1  0
 19 27  1  0
 19 29  1  0
 20 26  1  0
 20 22  1  0
 21 27  1  0
 22 21  1  0
 23 22  2  0
 24 25  1  0
 24 18  2  0
 25 20  2  0
 26 19  1  0
 27 17  1  0
 29 31  2  0
 30 29  1  0
 32 30  1  0
 33 38  1  0
 34 30  1  0
 35 34  1  0
 36 37  1  0
 36 35  1  0
 37 33  1  0
 38 34  1  0
 38 39  2  0
 40 39  1  0
 41 40  2  0
 42 33  2  0
 42 41  1  0
 43 17  1  0
 43 44  1  0
 43 53  1  0
 44 47  1  0
 45 49  1  0
 45 44  1  0
 46 45  2  0
 49 48  1  0
 51 49  1  0
 51 52  1  0
 51 50  1  0
 53 56  1  1
 53 54  1  0
 55 53  1  0
 57 96  1  0
 58 66  1  0
 59 64  1  0
 60 61  1  0
 60 59  1  0
 62 61  1  0
 62 71  1  0
 62 63  1  0
 64 58  1  0
 64 63  1  0
 65 58  2  0
 66 57  1  0
 66 67  1  0
 68 69  2  0
 69 88  1  0
 70 69  1  0
 70 73  1  0
 71 72  1  0
 71 68  1  0
 72 70  2  0
 73 74  1  0
 74 75  2  0
 76 79  1  0
 76 75  1  0
 77 76  2  0
 78 77  1  0
 78 73  2  0
 79 80  1  0
 80 81  1  0
 81 82  2  0
 83 82  1  0
 83 87  1  0
 84 83  2  0
 85 80  2  0
 85 84  1  0
 86 85  1  0
 88 89  1  0
 89 91  1  0
 89 92  1  0
 90 88  2  0
 93 68  1  0
 93 94  1  0
 95 93  1  0
 96100  1  0
100 98  1  6
100 97  1  0
100 99  1  0
M  ISO  4  15 101  16 101  58 100  66 100
M  END
>  <TORSDO>  (75) 
F 24

>  <SCORE>  (75) 
-0.799

>  <name>  (75) 
74

>  <ligand_id>  (75) 
74

>  <original_smiles>  (75) 
[H]OC([H])(C([H])([H])Oc1c([H])c([H])c2c(c1[H])C([H])([H])N(C(=O)C([H])(N([H])C(=O)C([H])(N([H])C([H])([H])[H])C([H])([H])[H])C(C([H])([H])[H])(C([H])([H])[H])C([H])([H])[H])C([H])(C(=O)N([H])C1([H])c3c([H])c([H])c([H])c([H])c3C([H])([H])C([H])([H])C1([H])[H])C2([H])[H])C([H])([H])N([H])c1nc(C([H])(N([H])C(=O)N2C([H])([H])C([H])([H])C([H])([H])C([H])(n3nc(-c4c([H])c([H])c(Oc5c([H])c([H])c(F)c([H])c5F)c([H])c4[H])c(C(=O)N([H])[H])c3N([H])[H])C2([H])[H])C([H])([H])C(C([H])([H])[H])(C([H])([H])[H])C([H])([H])[H])c(N([H])[H])s1

>  <smiles>  (75) 
[H]OC([H])(C([H])([H])Oc1c([H])c([H])c2c(c1[H])C([H])([H])N(C(=O)C([H])(N([H])C(=O)C([H])(N([H])C([H])([H])[H])C([H])([H])[H])C(C([H])([H])[H])(C([H])([H])[H])C([H])([H])[H])C([H])(C(=O)N([H])C1([H])c3c([H])c([H])c([H])c([H])c3C([H])([H])C([H])([H])C1([H])[H])C2([H])[H])C([H])([H])N([H])c1nc(C([H])(N([H])C(=O)N2C([H])([H])C([H])([H])C([H])([H])C([H])(n3nc(-c4c([H])c([H])c(Oc5c([H])c([H])c(F)c([H])c5F)c([H])c4[H])c(C(=O)N([H])[H])c3N([H])[H])C2([H])[H])C([H])([H])C(C([H])([H])[H])(C([H])([H])[H])C([H])([H])[H])c(N([H])[H])s1

$$$$
75:0:0
     RDKit          3D

 93101  0  0  1  0  0  0  0  0999 V2000
  -29.8310  -18.2630   20.8950 C   0  0  0  0  0  3  0  0  0  0  0  0
  -30.6550  -17.1100   20.9290 C   0  0  0  0  0  0  0  0  0  0  0  0
  -30.4330  -19.5340   21.0220 C   0  0  0  0  0  0  0  0  0  0  0  0
  -32.4580  -18.5060   21.2830 C   0  0  0  0  0  0  0  0  0  0  0  0
  -33.9350  -18.6200   21.5980 C   0  0  0  0  0  1  0  0  0  0  0  0
  -31.9730  -17.2780   21.1570 N   0  0  0  0  0  0  0  0  0  0  0  0
  -31.7580  -19.6320   21.2080 N   0  0  0  0  0  0  0  0  0  0  0  0
  -29.6560  -20.7190   21.0380 N   0  0  0  0  0  0  0  0  0  0  0  0
  -28.6590  -20.5390   21.0300 H   0  0  0  0  0  0  0  0  0  0  0  0
  -30.6820  -14.6900   20.3090 C   0  0  0  0  0  0  0  0  0  0  0  0
  -30.3080  -12.4340   19.3710 C   0  0  0  0  0  2  0  0  0  0  0  0
  -29.3590  -12.5120   18.1630 C   0  0  0  0  0  2  0  0  0  0  0  0
  -27.8980  -12.3890   18.6350 C   0  0  0  0  0  2  0  0  0  0  0  0
  -27.5620  -13.3700   19.7870 C   0  0  0  0  0  3  0  0  0  0  0  0
  -28.6330  -13.3120   20.9030 C   0  0  0  0  0  2  0  0  0  0  0  0
  -29.9540  -13.5360   20.2880 N   0  0  0  0  0  0  0  0  0  0  0  0
  -31.7960  -14.7430   19.7800 O   0  0  0  0  0  0  0  0  0  0  0  0
  -30.0720  -15.8070   20.7750 N   0  0  0  0  0  0  0  0  0  0  0  0
  -29.0960  -15.7190   21.0000 H   0  0  0  0  0  0  0  0  0  0  0  0
  -25.2100  -14.0440   20.5860 C   0  0  0  0  0  0  0  0  0  0  0  0
  -24.1280  -13.3010   20.9740 C   0  0  0  0  0  0  0  0  0  0  0  0
  -24.5390  -11.9350   20.9000 C   0  0  0  0  0  0  0  0  0  0  0  0
  -26.2180  -13.1340   20.3050 N   0  0  0  0  0  0  0  0  0  0  0  0
  -25.8160  -11.8600   20.5510 N   0  0  0  0  0  0  0  0  0  0  0  0
  -23.7730  -10.6950   21.0780 C   0  0  0  0  0  0  0  0  0  0  0  0
  -24.1920   -9.6910   21.9810 C   0  0  0  0  0  3  0  0  0  0  0  0
  -23.4270   -8.5180   22.1510 C   0  0  0  0  0  3  0  0  0  0  0  0
  -22.2280   -8.3410   21.4210 C   0  0  0  0  0  0  0  0  0  0  0  0
  -21.8270   -9.3310   20.5060 C   0  0  0  0  0  3  0  0  0  0  0  0
  -22.5930  -10.4960   20.3320 C   0  0  0  0  0  3  0  0  0  0  0  0
  -21.4340   -7.2220   21.5040 O   0  0  0  0  0  0  0  0  0  0  0  0
  -21.3840   -6.4570   22.6420 C   0  0  0  0  0  0  0  0  0  0  0  0
  -20.9950   -6.9980   23.8860 C   0  0  0  0  0  3  0  0  0  0  0  0
  -20.8910   -6.1620   25.0160 C   0  0  0  0  0  3  0  0  0  0  0  0
  -21.1640   -4.7860   24.9020 C   0  0  0  0  0  0  0  0  0  0  0  0
  -21.5480   -4.2440   23.6620 C   0  0  0  0  0  3  0  0  0  0  0  0
  -21.6520   -5.0780   22.5340 C   0  0  0  0  0  0  0  0  0  0  0  0
  -22.0030   -4.5460   21.3390 F   0  0  0  0  0  0  0  0  0  0  0  0
  -21.0550   -3.9810   25.9840 F   0  0  0  0  0  0  0  0  0  0  0  0
  -22.7580  -13.8210   21.2980 C   0  0  0  0  0  0  0  0  0  0  0  0
  -22.0340  -13.1410   22.1780 N   0  0  0  0  0  0  0  0  0  0  0  0
  -22.3420  -14.8700   20.8090 O   0  0  0  0  0  0  0  0  0  0  0  0
  -22.3810  -12.2920   22.6010 H   0  0  0  0  0  0  0  0  0  0  0  0
  -21.1180  -13.4740   22.4380 H   0  0  0  0  0  0  0  0  0  0  0  0
  -25.4130  -15.4120   20.4300 N   0  0  0  0  0  0  0  0  0  0  0  0
  -24.6490  -16.0730   20.5370 H   0  0  0  0  0  0  0  0  0  0  0  0
  -26.2420  -15.8300   20.0270 H   0  0  0  0  0  0  0  0  0  0  0  0
  -31.3020  -22.6560   21.0890 C   0  0  0  0  0  1  0  0  0  0  0  0
  -30.0310  -22.0360   20.4640 C   0  0  0  0  0  3  0  0  0  0  0  0
  -28.8290  -23.0450   20.5620 C   0  0  0  0  0  2  0  0  0  0  0  0
  -29.0790  -24.5540   20.2070 C   0  0  0  0  0  2  0  0  0  0  0  0
  -27.7830  -25.3940   20.0330 C   0  0  0  0  0  2  0  0  0  0  0  0
  -27.9680  -26.8340   20.0100 O   0  0  0  0  0  0  0  0  0  0  0  0
  -24.3330  -32.0670   23.2660 C   0  0  0  0  0  0  0  0  0  0  0  0
  -26.8150  -27.6100   20.0340 C   0  0  0  0  0  0  0  0  0  0  0  0
  -23.0510  -30.6880   21.6680 C   0  0  0  0  0  3  0  0  0  0  0  0
  -24.4350  -29.1620   20.1550 C   0  0  0  0  0  0  0  0  0  0  0  0
  -25.5690  -31.0280   21.3610 C   0  0  0  0  0  2  0  0  0  0  0  0
  -25.6190  -29.6580   20.7080 C   0  0  0  0  0  0  0  0  0  0  0  0
  -26.8120  -28.8910   20.6510 C   0  0  0  0  0  3  0  0  0  0  0  0
  -25.6070  -27.1490   19.4570 C   0  0  0  0  0  3  0  0  0  0  0  0
  -24.4260  -27.9090   19.5250 C   0  0  0  0  0  3  0  0  0  0  0  0
  -23.1960  -30.0240   20.2700 C   0  0  0  0  0  2  0  0  0  0  0  0
  -24.3390  -31.2760   22.1560 N   0  0  0  0  0  0  0  0  0  0  0  0
  -23.2780  -32.3360   23.8580 O   0  0  0  0  0  0  0  0  0  0  0  0
  -22.4360  -29.6600   22.6440 C   0  0  0  0  0  0  0  0  0  0  0  0
  -21.1170  -29.4250   22.5230 N   0  0  0  0  0  0  0  0  0  0  0  0
  -23.1420  -29.0760   23.4700 O   0  0  0  0  0  0  0  0  0  0  0  0
  -20.6090  -29.9460   21.8230 H   0  0  0  0  0  0  0  0  0  0  0  0
  -17.8150  -28.0280   22.9630 C   0  0  0  0  0  0  0  0  0  0  0  0
  -20.3370  -28.4730   23.3120 C   0  0  0  0  0  3  0  0  0  0  0  0
  -20.5600  -27.0280   22.8080 C   0  0  0  0  0  2  0  0  0  0  0  0
  -19.5210  -26.5850   21.7750 C   0  0  0  0  0  2  0  0  0  0  0  0
  -18.1090  -26.6640   22.3610 C   0  0  0  0  0  2  0  0  0  0  0  0
  -18.8640  -28.8850   23.3940 C   0  0  0  0  0  0  0  0  0  0  0  0
  -18.5380  -30.1560   23.9160 C   0  0  0  0  0  3  0  0  0  0  0  0
  -17.1960  -30.5730   24.0140 C   0  0  0  0  0  3  0  0  0  0  0  0
  -16.1620  -29.7150   23.5970 C   0  0  0  0  0  3  0  0  0  0  0  0
  -16.4730  -28.4460   23.0790 C   0  0  0  0  0  3  0  0  0  0  0  0
  -25.6480  -32.6870   23.8320 C   0  0  0  0  0  3  0  0  0  0  0  0
  -26.2170  -31.9040   25.0780 C   0  0  1  0  0  0  0  0  0  0  0  0
  -25.1730  -31.6570   26.1910 C   0  0  0  0  0  1  0  0  0  0  0  0
  -26.7750  -30.5280   24.6490 C   0  0  0  0  0  1  0  0  0  0  0  0
  -27.3990  -32.6860   25.6920 C   0  0  0  0  0  1  0  0  0  0  0  0
  -25.3650  -34.0860   24.1830 N   0  0  0  0  0  0  0  0  0  0  0  0
  -25.6990  -35.1430   23.4290 C   0  0  0  0  0  0  0  0  0  0  0  0
  -26.3530  -35.0390   22.3860 O   0  0  0  0  0  0  0  0  0  0  0  0
  -24.7840  -34.2390   24.9960 H   0  0  0  0  0  0  0  0  0  0  0  0
  -23.9980  -36.9650   23.0980 C   0  0  0  0  0  1  0  0  0  0  0  0
  -25.2330  -36.5310   23.9030 C   0  0  0  0  0  3  0  0  0  0  0  0
  -27.3850  -37.3710   24.7350 C   0  0  0  0  0  1  0  0  0  0  0  0
  -26.2820  -37.5700   23.7990 N   0  0  0  0  0  0  0  0  0  0  0  0
  -25.8910  -38.4940   23.9620 H   0  0  0  0  0  0  0  0  0  0  0  0
  1  2  2  0
  1  3  1  0
  2  6  1  0
  3  8  1  0
  3  7  2  0
  4  5  1  0
  6  4  2  0
  7  4  1  0
  9  8  1  0
 10 18  1  0
 11 16  1  0
 12 13  1  0
 12 11  1  0
 14 13  1  0
 14 23  1  0
 14 15  1  0
 16 10  1  0
 16 15  1  0
 17 10  2  0
 18  2  1  0
 18 19  1  0
 20 21  2  0
 21 40  1  0
 22 21  1  0
 22 25  1  0
 23 24  1  0
 23 20  1  0
 24 22  2  0
 25 26  1  0
 26 27  2  0
 28 31  1  0
 28 27  1  0
 29 28  2  0
 30 29  1  0
 30 25  2  0
 31 32  1  0
 32 33  1  0
 33 34  2  0
 35 34  1  0
 35 39  1  0
 36 35  2  0
 37 32  2  0
 37 36  1  0
 38 37  1  0
 40 41  1  0
 41 44  1  0
 41 43  1  0
 42 40  2  0
 45 46  1  0
 45 20  1  0
 47 45  1  0
 49 50  1  0
 49  8  1  0
 49 48  1  0
 51 50  1  0
 52 51  1  0
 53 52  1  0
 53 55  1  0
 54 65  2  0
 55 60  1  0
 56 64  1  0
 56 66  1  0
 57 63  1  0
 57 59  1  0
 58 64  1  0
 59 58  1  0
 60 59  2  0
 61 62  1  0
 61 55  2  0
 62 57  2  0
 63 56  1  0
 64 54  1  0
 66 68  2  0
 67 66  1  0
 69 67  1  0
 70 79  2  0
 70 75  1  0
 71 67  1  0
 71 75  1  0
 72 71  1  0
 73 74  1  0
 73 72  1  0
 74 70  1  0
 75 76  2  0
 76 77  1  0
 78 77  2  0
 79 78  1  0
 80 54  1  0
 80 85  1  0
 80 81  1  0
 81 84  1  1
 81 82  1  0
 83 81  1  0
 85 88  1  0
 86 90  1  0
 86 85  1  0
 87 86  2  0
 90 89  1  0
 92 90  1  0
 92 93  1  0
 92 91  1  0
M  ISO  4  10 100  18 100  52 101  53 101
M  END
>  <TORSDO>  (76) 
F 20

>  <SCORE>  (76) 
-12.248

>  <name>  (76) 
75

>  <ligand_id>  (76) 
75

>  <original_smiles>  (76) 
[H]c1c(N([H])C(=O)N2C([H])([H])C([H])([H])C([H])([H])C([H])(n3nc(-c4c([H])c([H])c(Oc5c([H])c([H])c(F)c([H])c5F)c([H])c4[H])c(C(=O)N([H])[H])c3N([H])[H])C2([H])[H])nc(C([H])([H])[H])nc1N([H])C([H])(C([H])([H])[H])C([H])([H])C([H])([H])C([H])([H])Oc1c([H])c([H])c2c(c1[H])C([H])([H])N(C(=O)C([H])(N([H])C(=O)C([H])(N([H])C([H])([H])[H])C([H])([H])[H])C(C([H])([H])[H])(C([H])([H])[H])C([H])([H])[H])C([H])(C(=O)N([H])C1([H])c3c([H])c([H])c([H])c([H])c3C([H])([H])C([H])([H])C1([H])[H])C2([H])[H]

>  <smiles>  (76) 
[H]c1c(N([H])C(=O)N2C([H])([H])C([H])([H])C([H])([H])C([H])(n3nc(-c4c([H])c([H])c(Oc5c([H])c([H])c(F)c([H])c5F)c([H])c4[H])c(C(=O)N([H])[H])c3N([H])[H])C2([H])[H])nc(C([H])([H])[H])nc1N([H])C([H])(C([H])([H])[H])C([H])([H])C([H])([H])C([H])([H])Oc1c([H])c([H])c2c(c1[H])C([H])([H])N(C(=O)C([H])(N([H])C(=O)C([H])(N([H])C([H])([H])[H])C([H])([H])[H])C(C([H])([H])[H])(C([H])([H])[H])C([H])([H])[H])C([H])(C(=O)N([H])C1([H])c3c([H])c([H])c([H])c([H])c3C([H])([H])C([H])([H])C1([H])[H])C2([H])[H]

$$$$
76:0:0
     RDKit          3D

 91 99  0  0  1  0  0  0  0  0999 V2000
  -30.8250  -19.3860   20.4210 C   0  0  0  0  0  3  0  0  0  0  0  0
  -29.2650  -20.8260   20.4210 C   0  0  0  0  0  0  0  0  0  0  0  0
  -32.1880  -18.7670   20.4190 C   0  0  0  0  0  1  0  0  0  0  0  0
  -30.6240  -20.7170   20.5090 N   0  0  0  0  0  0  0  0  0  0  0  0
  -28.6680  -19.6070   20.2880 N   0  0  0  0  0  2  0  0  0  0  0  0
  -29.7000  -18.6510   20.2800 N   0  0  0  0  0  0  0  0  0  0  0  0
  -28.5640  -22.1300   20.4890 N   0  0  0  0  0  0  0  0  0  0  0  0
  -27.5540  -22.0450   20.4790 H   0  0  0  0  0  0  0  0  0  0  0  0
  -30.1320  -23.8440   21.5020 C   0  0  0  0  0  1  0  0  0  0  0  0
  -29.0810  -23.5740   20.4200 C   0  0  0  0  0  3  0  0  0  0  0  0
  -27.9810  -24.7990   20.4560 C   0  0  0  0  0  2  0  0  0  0  0  0
  -28.2860  -26.2920   20.3380 O   0  0  0  0  0  0  0  0  0  0  0  0
  -24.6310  -31.9220   23.2550 C   0  0  0  0  0  0  0  0  0  0  0  0
  -27.2110  -27.2300   20.2800 C   0  0  0  0  0  0  0  0  0  0  0  0
  -23.4350  -30.5140   21.6220 C   0  0  0  0  0  3  0  0  0  0  0  0
  -24.8830  -28.9350   20.2270 C   0  0  0  0  0  0  0  0  0  0  0  0
  -25.9860  -30.7910   21.4590 C   0  0  0  0  0  2  0  0  0  0  0  0
  -26.0570  -29.3980   20.8310 C   0  0  0  0  0  0  0  0  0  0  0  0
  -27.2280  -28.5610   20.8390 C   0  0  0  0  0  3  0  0  0  0  0  0
  -26.0080  -26.8530   19.6400 C   0  0  0  0  0  3  0  0  0  0  0  0
  -24.8680  -27.6760   19.6130 C   0  0  0  0  0  3  0  0  0  0  0  0
  -23.6550  -29.8220   20.2530 C   0  0  0  0  0  2  0  0  0  0  0  0
  -24.7040  -31.0970   22.1690 N   0  0  0  0  0  0  0  0  0  0  0  0
  -23.5430  -32.2150   23.7740 O   0  0  0  0  0  0  0  0  0  0  0  0
  -22.7500  -29.5150   22.5920 C   0  0  0  0  0  0  0  0  0  0  0  0
  -21.4200  -29.3520   22.4650 N   0  0  0  0  0  0  0  0  0  0  0  0
  -23.4190  -28.8940   23.4220 O   0  0  0  0  0  0  0  0  0  0  0  0
  -20.9400  -29.9150   21.7740 H   0  0  0  0  0  0  0  0  0  0  0  0
  -18.0330  -28.1780   22.9710 C   0  0  0  0  0  0  0  0  0  0  0  0
  -20.5920  -28.4280   23.2440 C   0  0  0  0  0  3  0  0  0  0  0  0
  -20.6860  -26.9860   22.6910 C   0  0  0  0  0  2  0  0  0  0  0  0
  -19.5860  -26.6580   21.6750 C   0  0  0  0  0  2  0  0  0  0  0  0
  -18.2030  -26.8200   22.3130 C   0  0  0  0  0  2  0  0  0  0  0  0
  -19.1530  -28.9380   23.3970 C   0  0  0  0  0  0  0  0  0  0  0  0
  -18.9380  -30.2080   23.9750 C   0  0  0  0  0  3  0  0  0  0  0  0
  -17.6340  -30.7190   24.1240 C   0  0  0  0  0  3  0  0  0  0  0  0
  -16.5280  -29.9560   23.7140 C   0  0  0  0  0  3  0  0  0  0  0  0
  -16.7290  -28.6840   23.1480 C   0  0  0  0  0  3  0  0  0  0  0  0
  -25.9070  -32.5590   23.8850 C   0  0  0  0  0  3  0  0  0  0  0  0
  -26.4180  -31.7960   25.1680 C   0  0  1  0  0  0  0  0  0  0  0  0
  -25.3250  -31.5680   26.2380 C   0  0  0  0  0  1  0  0  0  0  0  0
  -26.9970  -30.4150   24.7880 C   0  0  0  0  0  1  0  0  0  0  0  0
  -27.5720  -32.5890   25.8260 C   0  0  0  0  0  1  0  0  0  0  0  0
  -25.5940  -33.9590   24.2080 N   0  0  0  0  0  0  0  0  0  0  0  0
  -25.9270  -35.0120   23.4480 C   0  0  0  0  0  0  0  0  0  0  0  0
  -26.5960  -34.9040   22.4170 O   0  0  0  0  0  0  0  0  0  0  0  0
  -24.9960  -34.1140   25.0060 H   0  0  0  0  0  0  0  0  0  0  0  0
  -24.1960  -36.8060   23.1030 C   0  0  0  0  0  1  0  0  0  0  0  0
  -25.4450  -36.4030   23.9040 C   0  0  0  0  0  3  0  0  0  0  0  0
  -27.5920  -37.2900   24.7040 C   0  0  0  0  0  1  0  0  0  0  0  0
  -26.4780  -37.4550   23.7730 N   0  0  0  0  0  0  0  0  0  0  0  0
  -26.0770  -38.3760   23.9250 H   0  0  0  0  0  0  0  0  0  0  0  0
  -29.4940  -17.1750   19.8580 C   0  0  0  0  0  2  0  0  0  0  0  0
  -30.5900  -14.8230   20.3720 C   0  0  0  0  0  0  0  0  0  0  0  0
  -30.3680  -12.5430   19.3550 C   0  0  0  0  0  2  0  0  0  0  0  0
  -29.4190  -12.5750   18.1400 C   0  0  0  0  0  2  0  0  0  0  0  0
  -27.9520  -12.4120   18.5690 C   0  0  0  0  0  2  0  0  0  0  0  0
  -27.5810  -13.3020   19.7850 C   0  0  0  0  0  3  0  0  0  0  0  0
  -28.6500  -13.2520   20.9020 C   0  0  0  0  0  2  0  0  0  0  0  0
  -29.9380  -13.6080   20.2940 N   0  0  0  0  0  0  0  0  0  0  0  0
  -31.7540  -14.9050   19.9720 O   0  0  0  0  0  0  0  0  0  0  0  0
  -29.9070  -15.9800   20.7360 N   0  0  0  0  0  0  0  0  0  0  0  0
  -30.1940  -16.2830   21.6570 H   0  0  0  0  0  0  0  0  0  0  0  0
  -25.1980  -13.8860   20.5280 C   0  0  0  0  0  0  0  0  0  0  0  0
  -24.1330  -13.1110   20.9030 C   0  0  0  0  0  0  0  0  0  0  0  0
  -24.5970  -11.7610   20.8720 C   0  0  0  0  0  0  0  0  0  0  0  0
  -26.2420  -13.0080   20.2910 N   0  0  0  0  0  0  0  0  0  0  0  0
  -25.8890  -11.7240   20.5600 N   0  0  0  0  0  0  0  0  0  0  0  0
  -23.8720  -10.4960   21.0620 C   0  0  0  0  0  0  0  0  0  0  0  0
  -24.3120   -9.5220   21.9830 C   0  0  0  0  0  3  0  0  0  0  0  0
  -23.5850   -8.3260   22.1670 C   0  0  0  0  0  3  0  0  0  0  0  0
  -22.4000   -8.0970   21.4270 C   0  0  0  0  0  0  0  0  0  0  0  0
  -21.9790   -9.0600   20.4920 C   0  0  0  0  0  3  0  0  0  0  0  0
  -22.7090  -10.2460   20.3070 C   0  0  0  0  0  3  0  0  0  0  0  0
  -21.6430   -6.9550   21.5190 O   0  0  0  0  0  0  0  0  0  0  0  0
  -21.6140   -6.2010   22.6630 C   0  0  0  0  0  0  0  0  0  0  0  0
  -21.2250   -6.7440   23.9070 C   0  0  0  0  0  3  0  0  0  0  0  0
  -21.1460   -5.9150   25.0440 C   0  0  0  0  0  3  0  0  0  0  0  0
  -21.4450   -4.5430   24.9340 C   0  0  0  0  0  0  0  0  0  0  0  0
  -21.8230   -3.9980   23.6930 C   0  0  0  0  0  3  0  0  0  0  0  0
  -21.9040   -4.8260   22.5600 C   0  0  0  0  0  0  0  0  0  0  0  0
  -22.2500   -4.2930   21.3630 F   0  0  0  0  0  0  0  0  0  0  0  0
  -21.3600   -3.7430   26.0220 F   0  0  0  0  0  0  0  0  0  0  0  0
  -22.7330  -13.5880   21.1680 C   0  0  0  0  0  0  0  0  0  0  0  0
  -22.0030  -12.8970   22.0370 N   0  0  0  0  0  0  0  0  0  0  0  0
  -22.2910  -14.6070   20.6420 O   0  0  0  0  0  0  0  0  0  0  0  0
  -22.3760  -12.0750   22.4910 H   0  0  0  0  0  0  0  0  0  0  0  0
  -21.0600  -13.1890   22.2490 H   0  0  0  0  0  0  0  0  0  0  0  0
  -25.3620  -15.2550   20.3390 N   0  0  0  0  0  0  0  0  0  0  0  0
  -24.5990  -15.9110   20.4640 H   0  0  0  0  0  0  0  0  0  0  0  0
  -26.2190  -15.7000   20.0370 H   0  0  0  0  0  0  0  0  0  0  0  0
  1  3  1  0
  1  4  1  0
  2  7  1  0
  2  4  2  0
  5  2  1  0
  6  5  1  0
  6  1  1  0
  8  7  1  0
 10 11  1  0
 10  7  1  0
 10  9  1  0
 12 11  1  0
 13 24  2  0
 14 12  1  0
 14 19  1  0
 15 23  1  0
 15 25  1  0
 16 22  1  0
 16 18  1  0
 17 23  1  0
 18 19  2  0
 18 17  1  0
 20 14  2  0
 21 20  1  0
 21 16  2  0
 22 15  1  0
 23 13  1  0
 25 27  2  0
 26 25  1  0
 28 26  1  0
 29 38  2  0
 29 34  1  0
 30 26  1  0
 30 34  1  0
 31 30  1  0
 32 33  1  0
 32 31  1  0
 33 29  1  0
 34 35  2  0
 35 36  1  0
 37 36  2  0
 38 37  1  0
 39 13  1  0
 39 44  1  0
 39 40  1  0
 40 43  1  1
 40 41  1  0
 42 40  1  0
 44 47  1  0
 45 49  1  0
 45 44  1  0
 46 45  2  0
 49 48  1  0
 51 49  1  0
 51 52  1  0
 51 50  1  0
 53  6  1  0
 53 62  1  0
 54 62  1  0
 55 60  1  0
 56 57  1  0
 56 55  1  0
 58 57  1  0
 58 67  1  0
 58 59  1  0
 60 54  1  0
 60 59  1  0
 61 54  2  0
 62 63  1  0
 64 65  2  0
 65 84  1  0
 66 65  1  0
 66 69  1  0
 67 64  1  0
 67 68  1  0
 68 66  2  0
 69 70  1  0
 70 71  2  0
 72 75  1  0
 72 71  1  0
 73 72  2  0
 74 73  1  0
 74 69  2  0
 75 76  1  0
 76 77  1  0
 77 78  2  0
 79 78  1  0
 79 83  1  0
 80 79  2  0
 81 76  2  0
 81 80  1  0
 82 81  1  0
 84 85  1  0
 85 88  1  0
 85 87  1  0
 86 84  2  0
 89 90  1  0
 89 64  1  0
 91 89  1  0
M  ISO  4  11 101  12 101  54 100  62 100
M  END
>  <TORSDO>  (77) 
F 19

>  <SCORE>  (77) 
-14.424

>  <name>  (77) 
76

>  <ligand_id>  (77) 
76

>  <original_smiles>  (77) 
[H]c1c([H])c([H])c2c(c1[H])C([H])([H])C([H])([H])C([H])([H])C2([H])N([H])C(=O)C1([H])N(C(=O)C([H])(N([H])C(=O)C([H])(N([H])C([H])([H])[H])C([H])([H])[H])C(C([H])([H])[H])(C([H])([H])[H])C([H])([H])[H])C([H])([H])c2c([H])c(OC([H])([H])C([H])(N([H])c3nc(C([H])([H])[H])n(C([H])([H])N([H])C(=O)N4C([H])([H])C([H])([H])C([H])([H])C([H])(n5nc(-c6c([H])c([H])c(Oc7c([H])c([H])c(F)c([H])c7F)c([H])c6[H])c(C(=O)N([H])[H])c5N([H])[H])C4([H])[H])n3)C([H])([H])[H])c([H])c([H])c2C1([H])[H]

>  <smiles>  (77) 
[H]c1c([H])c([H])c2c(c1[H])C([H])([H])C([H])([H])C([H])([H])C2([H])N([H])C(=O)C1([H])N(C(=O)C([H])(N([H])C(=O)C([H])(N([H])C([H])([H])[H])C([H])([H])[H])C(C([H])([H])[H])(C([H])([H])[H])C([H])([H])[H])C([H])([H])c2c([H])c(OC([H])([H])C([H])(N([H])c3nc(C([H])([H])[H])n(C([H])([H])N([H])C(=O)N4C([H])([H])C([H])([H])C([H])([H])C([H])(n5nc(-c6c([H])c([H])c(Oc7c([H])c([H])c(F)c([H])c7F)c([H])c6[H])c(C(=O)N([H])[H])c5N([H])[H])C4([H])[H])n3)C([H])([H])[H])c([H])c([H])c2C1([H])[H]

$$$$
77:0:0
     RDKit          3D

 85 92  0  0  1  0  0  0  0  0999 V2000
  -28.7520  -22.9200   19.8650 C   0  0  0  0  0  2  0  0  0  0  0  0
  -28.1400  -21.2120   21.7980 C   0  0  0  0  0  1  0  0  0  0  0  0
  -29.0750  -21.3180   20.5870 C   0  0  0  0  0  3  0  0  0  0  0  0
  -29.1680  -19.6660   19.9110 C   0  0  0  0  0  2  0  0  0  0  0  0
  -29.9250  -18.1640   20.5030 C   0  0  0  0  0  2  0  0  0  0  0  0
  -30.4460  -15.3090   20.0810 C   0  0  0  0  0  0  0  0  0  0  0  0
  -30.3730  -12.8990   19.1440 C   0  0  0  0  0  2  0  0  0  0  0  0
  -29.4080  -12.7400   17.9440 C   0  0  0  0  0  2  0  0  0  0  0  0
  -27.9720  -12.4710   18.4310 C   0  0  0  0  0  2  0  0  0  0  0  0
  -27.5660  -13.4190   19.5870 C   0  0  0  0  0  3  0  0  0  0  0  0
  -28.6510  -13.5270   20.6770 C   0  0  0  0  0  2  0  0  0  0  0  0
  -29.8650  -14.0200   20.0080 N   0  0  0  0  0  0  0  0  0  0  0  0
  -31.6650  -15.3200   19.8680 O   0  0  0  0  0  0  0  0  0  0  0  0
  -29.6740  -16.5580   20.1920 N   0  0  0  0  0  0  0  0  0  0  0  0
  -28.6880  -16.3390   20.2090 H   0  0  0  0  0  0  0  0  0  0  0  0
  -25.2160  -13.9740   20.4100 C   0  0  0  0  0  0  0  0  0  0  0  0
  -24.1660  -13.1930   20.8050 C   0  0  0  0  0  0  0  0  0  0  0  0
  -24.6360  -11.8440   20.7570 C   0  0  0  0  0  0  0  0  0  0  0  0
  -26.2530  -13.1010   20.1340 N   0  0  0  0  0  0  0  0  0  0  0  0
  -25.9180  -11.8150   20.4120 N   0  0  0  0  0  0  0  0  0  0  0  0
  -23.9170  -10.5790   20.9600 C   0  0  0  0  0  0  0  0  0  0  0  0
  -24.3690   -9.6110   21.8850 C   0  0  0  0  0  3  0  0  0  0  0  0
  -23.6490   -8.4130   22.0780 C   0  0  0  0  0  3  0  0  0  0  0  0
  -22.4620   -8.1730   21.3460 C   0  0  0  0  0  0  0  0  0  0  0  0
  -22.0280   -9.1290   20.4100 C   0  0  0  0  0  3  0  0  0  0  0  0
  -22.7500  -10.3190   20.2160 C   0  0  0  0  0  3  0  0  0  0  0  0
  -21.7110   -7.0270   21.4480 O   0  0  0  0  0  0  0  0  0  0  0  0
  -21.6830   -6.2850   22.6020 C   0  0  0  0  0  0  0  0  0  0  0  0
  -21.2580   -6.8360   23.8310 C   0  0  0  0  0  3  0  0  0  0  0  0
  -21.1780   -6.0200   24.9770 C   0  0  0  0  0  3  0  0  0  0  0  0
  -21.5140   -4.6550   24.8970 C   0  0  0  0  0  0  0  0  0  0  0  0
  -21.9340   -4.1050   23.6730 C   0  0  0  0  0  3  0  0  0  0  0  0
  -22.0150   -4.9180   22.5280 C   0  0  0  0  0  0  0  0  0  0  0  0
  -22.4000   -4.3770   21.3460 F   0  0  0  0  0  0  0  0  0  0  0  0
  -21.4320   -3.8700   25.9950 F   0  0  0  0  0  0  0  0  0  0  0  0
  -22.7750  -13.6660   21.1100 C   0  0  0  0  0  0  0  0  0  0  0  0
  -22.0680  -12.9640   21.9890 N   0  0  0  0  0  0  0  0  0  0  0  0
  -22.3250  -14.6930   20.6050 O   0  0  0  0  0  0  0  0  0  0  0  0
  -22.4450  -12.1310   22.4170 H   0  0  0  0  0  0  0  0  0  0  0  0
  -21.1370  -13.2650   22.2390 H   0  0  0  0  0  0  0  0  0  0  0  0
  -25.3670  -15.3460   20.2320 N   0  0  0  0  0  0  0  0  0  0  0  0
  -24.5980  -15.9930   20.3670 H   0  0  0  0  0  0  0  0  0  0  0  0
  -26.1880  -15.7870   19.8390 H   0  0  0  0  0  0  0  0  0  0  0  0
  -28.1720  -24.4680   20.5410 C   0  0  0  0  0  2  0  0  0  0  0  0
  -28.3140  -26.0520   20.1750 O   0  0  0  0  0  0  0  0  0  0  0  0
  -24.6570  -31.9110   23.1970 C   0  0  0  0  0  0  0  0  0  0  0  0
  -27.2630  -27.0920   20.1920 C   0  0  0  0  0  0  0  0  0  0  0  0
  -23.4750  -30.5050   21.5570 C   0  0  0  0  0  3  0  0  0  0  0  0
  -24.9380  -28.9150   20.1420 C   0  0  0  0  0  0  0  0  0  0  0  0
  -26.0360  -30.7530   21.4070 C   0  0  0  0  0  2  0  0  0  0  0  0
  -26.1210  -29.3460   20.7560 C   0  0  0  0  0  0  0  0  0  0  0  0
  -27.2830  -28.4570   20.7510 C   0  0  0  0  0  3  0  0  0  0  0  0
  -26.0460  -26.7940   19.5420 C   0  0  0  0  0  3  0  0  0  0  0  0
  -24.9230  -27.6570   19.5150 C   0  0  0  0  0  3  0  0  0  0  0  0
  -23.7100  -29.8210   20.1820 C   0  0  0  0  0  2  0  0  0  0  0  0
  -24.7440  -31.0820   22.1080 N   0  0  0  0  0  0  0  0  0  0  0  0
  -23.5650  -32.1910   23.7170 O   0  0  0  0  0  0  0  0  0  0  0  0
  -22.7910  -29.5010   22.5210 C   0  0  0  0  0  0  0  0  0  0  0  0
  -21.4660  -29.3140   22.3830 N   0  0  0  0  0  0  0  0  0  0  0  0
  -23.4590  -28.8920   23.3600 O   0  0  0  0  0  0  0  0  0  0  0  0
  -20.9800  -29.8600   21.6840 H   0  0  0  0  0  0  0  0  0  0  0  0
  -18.1030  -28.0300   22.8370 C   0  0  0  0  0  0  0  0  0  0  0  0
  -20.6490  -28.3660   23.1490 C   0  0  0  0  0  3  0  0  0  0  0  0
  -20.7980  -26.9290   22.5980 C   0  0  0  0  0  2  0  0  0  0  0  0
  -19.7260  -26.5640   21.5650 C   0  0  0  0  0  2  0  0  0  0  0  0
  -18.3290  -26.6780   22.1800 C   0  0  0  0  0  2  0  0  0  0  0  0
  -19.1930  -28.8290   23.2770 C   0  0  0  0  0  0  0  0  0  0  0  0
  -18.9270  -30.0900   23.8530 C   0  0  0  0  0  3  0  0  0  0  0  0
  -17.6060  -30.5560   23.9900 C   0  0  0  0  0  3  0  0  0  0  0  0
  -16.5310  -29.7550   23.5650 C   0  0  0  0  0  3  0  0  0  0  0  0
  -16.7800  -28.4940   22.9950 C   0  0  0  0  0  3  0  0  0  0  0  0
  -25.9220  -32.5620   23.8320 C   0  0  0  0  0  3  0  0  0  0  0  0
  -26.4250  -31.8050   25.1240 C   0  0  1  0  0  0  0  0  0  0  0  0
  -25.3200  -31.5740   26.1820 C   0  0  0  0  0  1  0  0  0  0  0  0
  -27.0190  -30.4250   24.7590 C   0  0  0  0  0  1  0  0  0  0  0  0
  -27.5660  -32.6110   25.7900 C   0  0  0  0  0  1  0  0  0  0  0  0
  -25.5960  -33.9610   24.1600 N   0  0  0  0  0  0  0  0  0  0  0  0
  -25.9280  -35.0220   23.4110 C   0  0  0  0  0  0  0  0  0  0  0  0
  -26.6040  -34.9250   22.3840 O   0  0  0  0  0  0  0  0  0  0  0  0
  -24.9920  -34.1070   24.9540 H   0  0  0  0  0  0  0  0  0  0  0  0
  -24.1980  -36.8170   23.0590 C   0  0  0  0  0  1  0  0  0  0  0  0
  -25.4350  -36.4080   23.8730 C   0  0  0  0  0  3  0  0  0  0  0  0
  -27.5600  -37.3010   24.7240 C   0  0  0  0  0  1  0  0  0  0  0  0
  -26.4650  -37.4650   23.7710 N   0  0  0  0  0  0  0  0  0  0  0  0
  -26.0550  -38.3840   23.9150 H   0  0  0  0  0  0  0  0  0  0  0  0
  1 44  1  0
  1  3  1  0
  3  2  1  0
  4  5  1  0
  4  3  1  0
  6 14  1  0
  7 12  1  0
  8  9  1  0
  8  7  1  0
 10  9  1  0
 10 19  1  0
 10 11  1  0
 12  6  1  0
 12 11  1  0
 13  6  2  0
 14 15  1  0
 14  5  1  0
 16 17  2  0
 17 36  1  0
 18 17  1  0
 18 21  1  0
 19 16  1  0
 19 20  1  0
 20 18  2  0
 21 22  1  0
 22 23  2  0
 24 27  1  0
 24 23  1  0
 25 24  2  0
 26 25  1  0
 26 21  2  0
 27 28  1  0
 28 29  1  0
 29 30  2  0
 31 30  1  0
 31 35  1  0
 32 31  2  0
 33 28  2  0
 33 32  1  0
 34 33  1  0
 36 37  1  0
 37 40  1  0
 37 39  1  0
 38 36  2  0
 41 42  1  0
 41 16  1  0
 43 41  1  0
 45 47  1  0
 45 44  1  0
 46 57  2  0
 47 52  1  0
 48 56  1  0
 48 58  1  0
 49 55  1  0
 49 51  1  0
 50 56  1  0
 51 50  1  0
 52 51  2  0
 53 47  2  0
 54 53  1  0
 54 49  2  0
 55 48  1  0
 56 46  1  0
 58 60  2  0
 59 58  1  0
 61 59  1  0
 62 71  2  0
 62 67  1  0
 63 59  1  0
 63 67  1  0
 64 63  1  0
 65 66  1  0
 65 64  1  0
 66 62  1  0
 67 68  2  0
 68 69  1  0
 70 69  2  0
 71 70  1  0
 72 46  1  0
 72 77  1  0
 72 73  1  0
 73 76  1  1
 73 74  1  0
 75 73  1  0
 77 80  1  0
 78 82  1  0
 78 77  1  0
 79 78  2  0
 82 81  1  0
 84 82  1  0
 84 85  1  0
 84 83  1  0
M  ISO  4   6 100  14 100  44 101  45 101
M  END
>  <TORSDO>  (78) 
F 20

>  <SCORE>  (78) 
-15.145

>  <name>  (78) 
77

>  <ligand_id>  (78) 
77

>  <original_smiles>  (78) 
[H]c1c([H])c([H])c2c(c1[H])C([H])([H])C([H])([H])C([H])([H])C2([H])N([H])C(=O)C1([H])N(C(=O)C([H])(N([H])C(=O)C([H])(N([H])C([H])([H])[H])C([H])([H])[H])C(C([H])([H])[H])(C([H])([H])[H])C([H])([H])[H])C([H])([H])c2c([H])c(OC([H])([H])C([H])([H])C([H])(C([H])([H])[H])C([H])([H])C([H])([H])N([H])C(=O)N3C([H])([H])C([H])([H])C([H])([H])C([H])(n4nc(-c5c([H])c([H])c(Oc6c([H])c([H])c(F)c([H])c6F)c([H])c5[H])c(C(=O)N([H])[H])c4N([H])[H])C3([H])[H])c([H])c([H])c2C1([H])[H]

>  <smiles>  (78) 
[H]c1c([H])c([H])c2c(c1[H])C([H])([H])C([H])([H])C([H])([H])C2([H])N([H])C(=O)C1([H])N(C(=O)C([H])(N([H])C(=O)C([H])(N([H])C([H])([H])[H])C([H])([H])[H])C(C([H])([H])[H])(C([H])([H])[H])C([H])([H])[H])C([H])([H])c2c([H])c(OC([H])([H])C([H])([H])C([H])(C([H])([H])[H])C([H])([H])C([H])([H])N([H])C(=O)N3C([H])([H])C([H])([H])C([H])([H])C([H])(n4nc(-c5c([H])c([H])c(Oc6c([H])c([H])c(F)c([H])c6F)c([H])c5[H])c(C(=O)N([H])[H])c4N([H])[H])C3([H])[H])c([H])c([H])c2C1([H])[H]

$$$$
78:0:0
     RDKit          3D

 96104  0  0  1  0  0  0  0  0999 V2000
  -30.5520  -14.8450   20.4150 C   0  0  0  0  0  0  0  0  0  0  0  0
  -30.3780  -12.5460   19.4390 C   0  0  0  0  0  2  0  0  0  0  0  0
  -29.4640  -12.6030   18.1930 C   0  0  0  0  0  2  0  0  0  0  0  0
  -27.9860  -12.4310   18.6000 C   0  0  0  0  0  2  0  0  0  0  0  0
  -27.5920  -13.3050   19.8230 C   0  0  0  0  0  3  0  0  0  0  0  0
  -28.6390  -13.2310   20.9560 C   0  0  0  0  0  2  0  0  0  0  0  0
  -29.9260  -13.6110   20.3680 N   0  0  0  0  0  0  0  0  0  0  0  0
  -31.7600  -14.8750   20.1550 O   0  0  0  0  0  0  0  0  0  0  0  0
  -31.2660  -18.9770   19.2950 C   0  0  0  0  0  0  0  0  0  0  0  0
  -30.0000  -17.4220   20.2870 C   0  0  0  0  0  0  0  0  0  0  0  0
  -29.4560  -19.7060   20.3140 C   0  0  0  0  0  0  0  0  0  0  0  0
  -31.0990  -17.7010   19.5850 N   0  0  0  0  0  4  0  0  0  0  0  0
  -30.5310  -20.0160   19.6160 N   0  0  0  0  0  0  0  0  0  0  0  0
  -29.1140  -18.4180   20.6600 N   0  0  0  0  0  2  0  0  0  0  0  0
  -32.3660  -19.2560   18.5480 N   0  0  0  0  0  0  0  0  0  0  0  0
  -29.7750  -16.0120   20.5780 N   0  0  0  0  0  0  0  0  0  0  0  0
  -28.5950  -20.8330   20.5830 N   0  0  0  0  0  0  0  0  0  0  0  0
  -32.8350  -18.4820   18.1010 H   0  0  0  0  0  0  0  0  0  0  0  0
  -32.3930  -20.1460   18.0700 H   0  0  0  0  0  0  0  0  0  0  0  0
  -28.8400  -15.8150   20.8820 H   0  0  0  0  0  0  0  0  0  0  0  0
  -27.7230  -20.5170   20.9910 H   0  0  0  0  0  0  0  0  0  0  0  0
  -25.1990  -13.8810   20.5340 C   0  0  0  0  0  0  0  0  0  0  0  0
  -24.1370  -13.1000   20.9020 C   0  0  0  0  0  0  0  0  0  0  0  0
  -24.6090  -11.7510   20.8760 C   0  0  0  0  0  0  0  0  0  0  0  0
  -26.2480  -13.0070   20.3020 N   0  0  0  0  0  0  0  0  0  0  0  0
  -25.9030  -11.7220   20.5770 N   0  0  0  0  0  0  0  0  0  0  0  0
  -23.8890  -10.4850   21.0600 C   0  0  0  0  0  0  0  0  0  0  0  0
  -24.3200   -9.5180   21.9920 C   0  0  0  0  0  3  0  0  0  0  0  0
  -23.5950   -8.3190   22.1670 C   0  0  0  0  0  3  0  0  0  0  0  0
  -22.4290   -8.0780   21.4040 C   0  0  0  0  0  0  0  0  0  0  0  0
  -22.0140   -9.0350   20.4600 C   0  0  0  0  0  3  0  0  0  0  0  0
  -22.7400  -10.2260   20.2850 C   0  0  0  0  0  3  0  0  0  0  0  0
  -21.6750   -6.9310   21.4870 O   0  0  0  0  0  0  0  0  0  0  0  0
  -21.6180   -6.1870   22.6380 C   0  0  0  0  0  0  0  0  0  0  0  0
  -21.1880   -6.7400   23.8620 C   0  0  0  0  0  3  0  0  0  0  0  0
  -21.0790   -5.9240   25.0040 C   0  0  0  0  0  3  0  0  0  0  0  0
  -21.3890   -4.5530   24.9240 C   0  0  0  0  0  0  0  0  0  0  0  0
  -21.8120   -3.9980   23.7030 C   0  0  0  0  0  3  0  0  0  0  0  0
  -21.9220   -4.8120   22.5620 C   0  0  0  0  0  0  0  0  0  0  0  0
  -22.3090   -4.2680   21.3840 F   0  0  0  0  0  0  0  0  0  0  0  0
  -21.2780   -3.7670   26.0200 F   0  0  0  0  0  0  0  0  0  0  0  0
  -22.7350  -13.5690   21.1600 C   0  0  0  0  0  0  0  0  0  0  0  0
  -22.0030  -12.8720   22.0230 N   0  0  0  0  0  0  0  0  0  0  0  0
  -22.3000  -14.5920   20.6340 O   0  0  0  0  0  0  0  0  0  0  0  0
  -22.3730  -12.0460   22.4690 H   0  0  0  0  0  0  0  0  0  0  0  0
  -21.0610  -13.1700   22.2370 H   0  0  0  0  0  0  0  0  0  0  0  0
  -25.3620  -15.2520   20.3550 N   0  0  0  0  0  0  0  0  0  0  0  0
  -24.5910  -15.9030   20.4550 H   0  0  0  0  0  0  0  0  0  0  0  0
  -26.1910  -15.6830   19.9710 H   0  0  0  0  0  0  0  0  0  0  0  0
  -30.3540  -22.4660   21.5270 C   0  0  0  0  0  1  0  0  0  0  0  0
  -28.9070  -22.2670   21.0510 C   0  0  0  0  0  3  0  0  0  0  0  0
  -28.4280  -23.5560   20.1730 C   0  0  0  0  0  3  0  0  0  0  0  0
  -27.2100  -23.0800   19.6340 O   0  0  0  0  0  0  0  0  0  0  0  0
  -27.3580  -22.1450   19.4880 H   0  0  0  0  0  0  0  0  0  0  0  0
  -28.2040  -25.0130   20.9170 C   0  0  0  0  0  2  0  0  0  0  0  0
  -28.3730  -26.4000   20.3430 O   0  0  0  0  0  0  0  0  0  0  0  0
  -24.5990  -31.9240   23.2800 C   0  0  0  0  0  0  0  0  0  0  0  0
  -27.2750  -27.2870   20.3420 C   0  0  0  0  0  0  0  0  0  0  0  0
  -23.4390  -30.4980   21.6330 C   0  0  0  0  0  3  0  0  0  0  0  0
  -24.9250  -28.9250   20.2620 C   0  0  0  0  0  0  0  0  0  0  0  0
  -25.9850  -30.8120   21.5030 C   0  0  0  0  0  2  0  0  0  0  0  0
  -26.0840  -29.4190   20.8770 C   0  0  0  0  0  0  0  0  0  0  0  0
  -27.2680  -28.6130   20.8990 C   0  0  0  0  0  3  0  0  0  0  0  0
  -26.0930  -26.8520   19.7140 C   0  0  0  0  0  3  0  0  0  0  0  0
  -24.9340  -27.6540   19.6690 C   0  0  0  0  0  3  0  0  0  0  0  0
  -23.6880  -29.8000   20.2700 C   0  0  0  0  0  2  0  0  0  0  0  0
  -24.6940  -31.0980   22.1950 N   0  0  0  0  0  0  0  0  0  0  0  0
  -23.5030  -32.2040   23.7860 O   0  0  0  0  0  0  0  0  0  0  0  0
  -22.7550  -29.4960   22.5950 C   0  0  0  0  0  0  0  0  0  0  0  0
  -21.4270  -29.3310   22.4600 N   0  0  0  0  0  0  0  0  0  0  0  0
  -23.4190  -28.8680   23.4240 O   0  0  0  0  0  0  0  0  0  0  0  0
  -20.9490  -29.8870   21.7650 H   0  0  0  0  0  0  0  0  0  0  0  0
  -18.0320  -28.1790   22.9490 C   0  0  0  0  0  0  0  0  0  0  0  0
  -20.5930  -28.4030   23.2270 C   0  0  0  0  0  3  0  0  0  0  0  0
  -20.6780  -26.9720   22.6510 C   0  0  0  0  0  2  0  0  0  0  0  0
  -19.5760  -26.6640   21.6320 C   0  0  0  0  0  2  0  0  0  0  0  0
  -18.1940  -26.8280   22.2720 C   0  0  0  0  0  2  0  0  0  0  0  0
  -19.1590  -28.9250   23.3830 C   0  0  0  0  0  0  0  0  0  0  0  0
  -18.9560  -30.1900   23.9770 C   0  0  0  0  0  3  0  0  0  0  0  0
  -17.6570  -30.7080   24.1400 C   0  0  0  0  0  3  0  0  0  0  0  0
  -16.5450  -29.9590   23.7240 C   0  0  0  0  0  3  0  0  0  0  0  0
  -16.7320  -28.6960   23.1350 C   0  0  0  0  0  3  0  0  0  0  0  0
  -25.8640  -32.5740   23.9230 C   0  0  0  0  0  3  0  0  0  0  0  0
  -26.3480  -31.8270   25.2270 C   0  0  1  0  0  0  0  0  0  0  0  0
  -25.2280  -31.6080   26.2700 C   0  0  0  0  0  1  0  0  0  0  0  0
  -26.9430  -30.4430   24.8770 C   0  0  0  0  0  1  0  0  0  0  0  0
  -27.4780  -32.6360   25.9050 C   0  0  0  0  0  1  0  0  0  0  0  0
  -25.5420  -33.9770   24.2210 N   0  0  0  0  0  0  0  0  0  0  0  0
  -25.8900  -35.0190   23.4520 C   0  0  0  0  0  0  0  0  0  0  0  0
  -26.5810  -34.9000   22.4380 O   0  0  0  0  0  0  0  0  0  0  0  0
  -24.9320  -34.1440   25.0080 H   0  0  0  0  0  0  0  0  0  0  0  0
  -24.1660  -36.8050   23.0360 C   0  0  0  0  0  1  0  0  0  0  0  0
  -25.3920  -36.4160   23.8770 C   0  0  0  0  0  3  0  0  0  0  0  0
  -27.5080  -37.3200   24.7350 C   0  0  0  0  0  1  0  0  0  0  0  0
  -26.4250  -37.4690   23.7680 N   0  0  0  0  0  0  0  0  0  0  0  0
  -26.0130  -38.3900   23.8890 H   0  0  0  0  0  0  0  0  0  0  0  0
  1 16  1  0
  2  7  1  0
  3  4  1  0
  3  2  1  0
  5  4  1  0
  5 25  1  0
  5  6  1  0
  7  1  1  0
  7  6  1  0
  8  1  2  0
  9 12  2  0
  9 13  1  0
 10 16  1  0
 10 14  1  0
 11 17  1  0
 11 14  1  0
 12 10  2  0
 13 11  2  0
 15  9  1  0
 16 20  1  0
 17 21  1  0
 17 51  1  0
 18 15  1  0
 19 15  1  0
 22 23  2  0
 23 42  1  0
 24 23  1  0
 24 27  1  0
 25 22  1  0
 25 26  1  0
 26 24  2  0
 27 28  1  0
 28 29  2  0
 30 33  1  0
 30 29  1  0
 31 30  2  0
 32 31  1  0
 32 27  2  0
 33 34  1  0
 34 35  1  0
 35 36  2  0
 37 36  1  0
 37 41  1  0
 38 37  2  0
 39 34  2  0
 39 38  1  0
 40 39  1  0
 42 43  1  0
 43 46  1  0
 43 45  1  0
 44 42  2  0
 47 48  1  0
 47 22  1  0
 49 47  1  0
 51 50  1  0
 52 55  1  0
 52 51  1  0
 53 52  1  0
 54 53  1  0
 56 55  1  0
 57 68  2  0
 58 56  1  0
 58 63  1  0
 59 67  1  0
 59 69  1  0
 60 66  1  0
 60 62  1  0
 61 67  1  0
 62 63  2  0
 62 61  1  0
 64 58  2  0
 65 64  1  0
 65 60  2  0
 66 59  1  0
 67 57  1  0
 69 71  2  0
 70 69  1  0
 72 70  1  0
 73 82  2  0
 73 78  1  0
 74 70  1  0
 74 78  1  0
 75 74  1  0
 76 77  1  0
 76 75  1  0
 77 73  1  0
 78 79  2  0
 79 80  1  0
 81 80  2  0
 82 81  1  0
 83 57  1  0
 83 88  1  0
 83 84  1  0
 84 87  1  1
 84 85  1  0
 86 84  1  0
 88 91  1  0
 89 93  1  0
 89 88  1  0
 90 89  2  0
 93 92  1  0
 95 93  1  0
 95 96  1  0
 95 94  1  0
M  ISO  4   1 100  16 100  55 101  56 101
M  END
>  <TORSDO>  (79) 
F 19

>  <SCORE>  (79) 
-14.689

>  <name>  (79) 
78

>  <ligand_id>  (79) 
78

>  <original_smiles>  (79) 
[H]OC([H])(C([H])([H])Oc1c([H])c([H])c2c(c1[H])C([H])([H])N(C(=O)C([H])(N([H])C(=O)C([H])(N([H])C([H])([H])[H])C([H])([H])[H])C(C([H])([H])[H])(C([H])([H])[H])C([H])([H])[H])C([H])(C(=O)N([H])C1([H])c3c([H])c([H])c([H])c([H])c3C([H])([H])C([H])([H])C1([H])[H])C2([H])[H])C([H])(N([H])c1nc(N([H])[H])nc(N([H])C(=O)N2C([H])([H])C([H])([H])C([H])([H])C([H])(n3nc(-c4c([H])c([H])c(Oc5c([H])c([H])c(F)c([H])c5F)c([H])c4[H])c(C(=O)N([H])[H])c3N([H])[H])C2([H])[H])n1)C([H])([H])[H]

>  <smiles>  (79) 
[H]OC([H])(C([H])([H])Oc1c([H])c([H])c2c(c1[H])C([H])([H])N(C(=O)C([H])(N([H])C(=O)C([H])(N([H])C([H])([H])[H])C([H])([H])[H])C(C([H])([H])[H])(C([H])([H])[H])C([H])([H])[H])C([H])(C(=O)N([H])C1([H])c3c([H])c([H])c([H])c([H])c3C([H])([H])C([H])([H])C1([H])[H])C2([H])[H])C([H])(N([H])c1nc(N([H])[H])nc(N([H])C(=O)N2C([H])([H])C([H])([H])C([H])([H])C([H])(n3nc(-c4c([H])c([H])c(Oc5c([H])c([H])c(F)c([H])c5F)c([H])c4[H])c(C(=O)N([H])[H])c3N([H])[H])C2([H])[H])n1)C([H])([H])[H]

$$$$
79:0:0
     RDKit          3D

 95103  0  0  1  0  0  0  0  0999 V2000
  -31.7070  -20.2690   21.0780 C   0  0  0  0  0  3  0  0  0  0  0  0
  -29.3980  -19.7490   20.6740 C   0  0  0  0  0  3  0  0  0  0  0  0
  -30.4190  -20.7290   20.7490 C   0  0  0  0  0  0  0  0  0  0  0  0
  -31.9280  -18.9050   21.3720 C   0  0  0  0  0  0  0  0  0  0  0  0
  -30.8280  -18.0060   21.3070 C   0  0  0  0  0  0  0  0  0  0  0  0
  -29.5930  -18.4290   20.9440 N   0  0  0  0  0  0  0  0  0  0  0  0
  -29.1590  -22.9050   20.3850 C   0  0  0  0  0  0  0  0  0  0  0  0
  -30.2650  -22.1480   20.5460 N   0  0  0  0  0  0  0  0  0  0  0  0
  -28.0350  -22.4220   20.2500 O   0  0  0  0  0  0  0  0  0  0  0  0
  -31.1210  -22.6840   20.6080 H   0  0  0  0  0  0  0  0  0  0  0  0
  -29.3690  -24.4430   20.3700 C   0  0  0  0  0  2  0  0  0  0  0  0
  -28.1180  -25.2830   19.9870 C   0  0  0  0  0  2  0  0  0  0  0  0
  -28.2830  -26.7160   20.1210 O   0  0  0  0  0  0  0  0  0  0  0  0
  -24.5060  -31.9350   23.2210 C   0  0  0  0  0  0  0  0  0  0  0  0
  -27.1210  -27.4790   20.1010 C   0  0  0  0  0  0  0  0  0  0  0  0
  -23.2880  -30.5390   21.5860 C   0  0  0  0  0  3  0  0  0  0  0  0
  -24.7300  -29.0130   20.1390 C   0  0  0  0  0  0  0  0  0  0  0  0
  -25.8160  -30.8950   21.3690 C   0  0  0  0  0  2  0  0  0  0  0  0
  -25.8970  -29.5260   20.7190 C   0  0  0  0  0  0  0  0  0  0  0  0
  -27.0960  -28.7680   20.6950 C   0  0  0  0  0  3  0  0  0  0  0  0
  -25.9300  -26.9980   19.5060 C   0  0  0  0  0  3  0  0  0  0  0  0
  -24.7440  -27.7510   19.5270 C   0  0  0  0  0  3  0  0  0  0  0  0
  -23.4870  -29.8700   20.2010 C   0  0  0  0  0  2  0  0  0  0  0  0
  -24.5560  -31.1370   22.1170 N   0  0  0  0  0  0  0  0  0  0  0  0
  -23.4290  -32.2040   23.7710 O   0  0  0  0  0  0  0  0  0  0  0  0
  -22.6460  -29.5110   22.5450 C   0  0  0  0  0  0  0  0  0  0  0  0
  -21.3230  -29.3150   22.4160 N   0  0  0  0  0  0  0  0  0  0  0  0
  -23.3340  -28.8950   23.3640 O   0  0  0  0  0  0  0  0  0  0  0  0
  -20.8280  -29.8650   21.7270 H   0  0  0  0  0  0  0  0  0  0  0  0
  -17.9590  -28.0920   22.9130 C   0  0  0  0  0  0  0  0  0  0  0  0
  -20.5140  -28.3710   23.1870 C   0  0  0  0  0  3  0  0  0  0  0  0
  -20.6300  -26.9410   22.6120 C   0  0  0  0  0  2  0  0  0  0  0  0
  -19.5310  -26.6090   21.5960 C   0  0  0  0  0  2  0  0  0  0  0  0
  -18.1480  -26.7430   22.2400 C   0  0  0  0  0  2  0  0  0  0  0  0
  -19.0710  -28.8630   23.3440 C   0  0  0  0  0  0  0  0  0  0  0  0
  -18.8420  -30.1260   23.9320 C   0  0  0  0  0  3  0  0  0  0  0  0
  -17.5330  -30.6170   24.0950 C   0  0  0  0  0  3  0  0  0  0  0  0
  -16.4350  -29.8420   23.6820 C   0  0  0  0  0  3  0  0  0  0  0  0
  -16.6490  -28.5820   23.0970 C   0  0  0  0  0  3  0  0  0  0  0  0
  -25.7960  -32.5650   23.8330 C   0  0  0  0  0  3  0  0  0  0  0  0
  -25.4800  -33.9520   24.1980 N   0  0  0  0  0  0  0  0  0  0  0  0
  -25.8040  -35.0250   23.4630 C   0  0  0  0  0  0  0  0  0  0  0  0
  -26.4720  -34.9500   22.4290 O   0  0  0  0  0  0  0  0  0  0  0  0
  -24.8850  -34.0830   25.0030 H   0  0  0  0  0  0  0  0  0  0  0  0
  -24.0760  -36.8240   23.1390 C   0  0  0  0  0  1  0  0  0  0  0  0
  -25.3070  -36.3970   23.9540 C   0  0  0  0  0  3  0  0  0  0  0  0
  -27.4270  -37.2620   24.8420 C   0  0  0  0  0  1  0  0  0  0  0  0
  -26.3400  -37.4550   23.8870 N   0  0  0  0  0  0  0  0  0  0  0  0
  -25.9290  -38.3690   24.0550 H   0  0  0  0  0  0  0  0  0  0  0  0
  -26.3450  -31.7710   25.0800 C   0  0  1  0  0  0  0  0  0  0  0  0
  -25.2730  -31.4930   26.1600 C   0  0  0  0  0  1  0  0  0  0  0  0
  -26.9390  -30.4110   24.6450 C   0  0  0  0  0  1  0  0  0  0  0  0
  -27.4960  -32.5640   25.7430 C   0  0  0  0  0  1  0  0  0  0  0  0
  -33.2140  -18.5050   21.7560 N   0  0  0  0  0  0  0  0  0  0  0  0
  -33.4810  -17.5270   21.6850 H   0  0  0  0  0  0  0  0  0  0  0  0
  -33.9970  -19.1370   21.6030 H   0  0  0  0  0  0  0  0  0  0  0  0
  -30.9470  -16.5600   21.8330 C   0  0  0  0  0  2  0  0  0  0  0  0
  -30.7320  -14.5810   20.3350 C   0  0  0  0  0  0  0  0  0  0  0  0
  -30.3750  -12.4740   19.0870 C   0  0  0  0  0  2  0  0  0  0  0  0
  -29.3950  -12.6830   17.9160 C   0  0  0  0  0  2  0  0  0  0  0  0
  -27.9370  -12.5240   18.3890 C   0  0  0  0  0  2  0  0  0  0  0  0
  -27.6330  -13.3370   19.6760 C   0  0  0  0  0  3  0  0  0  0  0  0
  -28.7200  -13.1040   20.7470 C   0  0  0  0  0  2  0  0  0  0  0  0
  -30.0230  -13.4340   20.1460 N   0  0  0  0  0  0  0  0  0  0  0  0
  -31.8110  -14.7950   19.7760 O   0  0  0  0  0  0  0  0  0  0  0  0
  -30.1900  -15.4900   21.1630 N   0  0  0  0  0  0  0  0  0  0  0  0
  -29.2630  -15.3100   21.5140 H   0  0  0  0  0  0  0  0  0  0  0  0
  -25.2470  -13.9140   20.4510 C   0  0  0  0  0  0  0  0  0  0  0  0
  -24.1960  -13.1290   20.8390 C   0  0  0  0  0  0  0  0  0  0  0  0
  -24.6680  -11.7820   20.7870 C   0  0  0  0  0  0  0  0  0  0  0  0
  -26.2950  -13.0440   20.1870 N   0  0  0  0  0  0  0  0  0  0  0  0
  -25.9510  -11.7560   20.4470 N   0  0  0  0  0  0  0  0  0  0  0  0
  -23.9580  -10.5130   20.9860 C   0  0  0  0  0  0  0  0  0  0  0  0
  -24.4020   -9.5560   21.9260 C   0  0  0  0  0  3  0  0  0  0  0  0
  -23.6920   -8.3520   22.1130 C   0  0  0  0  0  3  0  0  0  0  0  0
  -22.5220   -8.0940   21.3590 C   0  0  0  0  0  0  0  0  0  0  0  0
  -22.0970   -9.0380   20.4080 C   0  0  0  0  0  3  0  0  0  0  0  0
  -22.8090  -10.2350   20.2210 C   0  0  0  0  0  3  0  0  0  0  0  0
  -21.7820   -6.9390   21.4540 O   0  0  0  0  0  0  0  0  0  0  0  0
  -21.7170   -6.2200   22.6200 C   0  0  0  0  0  0  0  0  0  0  0  0
  -21.2420   -6.7900   23.8220 C   0  0  0  0  0  3  0  0  0  0  0  0
  -21.1270   -5.9960   24.9800 C   0  0  0  0  0  3  0  0  0  0  0  0
  -21.4760   -4.6330   24.9370 C   0  0  0  0  0  0  0  0  0  0  0  0
  -21.9430   -4.0620   23.7400 C   0  0  0  0  0  3  0  0  0  0  0  0
  -22.0600   -4.8540   22.5840 C   0  0  0  0  0  0  0  0  0  0  0  0
  -22.4910   -4.2930   21.4280 F   0  0  0  0  0  0  0  0  0  0  0  0
  -21.3560   -3.8670   26.0470 F   0  0  0  0  0  0  0  0  0  0  0  0
  -22.8020  -13.5930   21.1480 C   0  0  0  0  0  0  0  0  0  0  0  0
  -22.0970  -12.8790   22.0200 N   0  0  0  0  0  0  0  0  0  0  0  0
  -22.3460  -14.6240   20.6550 O   0  0  0  0  0  0  0  0  0  0  0  0
  -22.4780  -12.0450   22.4420 H   0  0  0  0  0  0  0  0  0  0  0  0
  -21.1630  -13.1710   22.2690 H   0  0  0  0  0  0  0  0  0  0  0  0
  -25.3970  -15.2870   20.2800 N   0  0  0  0  0  0  0  0  0  0  0  0
  -24.6300  -15.9370   20.4170 H   0  0  0  0  0  0  0  0  0  0  0  0
  -26.2400  -15.7370   19.9460 H   0  0  0  0  0  0  0  0  0  0  0  0
  1  4  1  0
  2  3  1  0
  2  6  2  0
  3  1  2  0
  4 54  1  0
  5  4  2  0
  5 57  1  0
  6  5  1  0
  7  8  1  0
  8 10  1  0
  8  3  1  0
  9  7  2  0
 11  7  1  0
 12 13  1  0
 12 11  1  0
 14 25  2  0
 15 13  1  0
 15 20  1  0
 16 24  1  0
 16 26  1  0
 17 23  1  0
 17 19  1  0
 18 24  1  0
 19 18  1  0
 20 19  2  0
 21 22  1  0
 21 15  2  0
 22 17  2  0
 23 16  1  0
 24 14  1  0
 26 28  2  0
 27 26  1  0
 29 27  1  0
 30 39  2  0
 30 35  1  0
 31 27  1  0
 31 35  1  0
 32 31  1  0
 33 34  1  0
 33 32  1  0
 34 30  1  0
 35 36  2  0
 36 37  1  0
 38 37  2  0
 39 38  1  0
 40 14  1  0
 40 41  1  0
 40 50  1  0
 41 44  1  0
 42 46  1  0
 42 41  1  0
 43 42  2  0
 46 45  1  0
 48 46  1  0
 48 49  1  0
 48 47  1  0
 50 53  1  1
 50 51  1  0
 52 50  1  0
 55 54  1  0
 56 54  1  0
 58 66  1  0
 59 64  1  0
 60 61  1  0
 60 59  1  0
 62 61  1  0
 62 71  1  0
 62 63  1  0
 64 58  1  0
 64 63  1  0
 65 58  2  0
 66 67  1  0
 66 57  1  0
 68 69  2  0
 69 88  1  0
 70 69  1  0
 70 73  1  0
 71 72  1  0
 71 68  1  0
 72 70  2  0
 73 74  1  0
 74 75  2  0
 76 79  1  0
 76 75  1  0
 77 76  2  0
 78 77  1  0
 78 73  2  0
 79 80  1  0
 80 81  1  0
 81 82  2  0
 83 82  1  0
 83 87  1  0
 84 83  2  0
 85 80  2  0
 85 84  1  0
 86 85  1  0
 88 89  1  0
 89 92  1  0
 89 91  1  0
 90 88  2  0
 93 94  1  0
 93 68  1  0
 95 93  1  0
M  ISO  4  12 101  13 101  58 100  66 100
M  END
>  <TORSDO>  (80) 
F 21

>  <SCORE>  (80) 
-13.309

>  <name>  (80) 
79

>  <ligand_id>  (80) 
79

>  <original_smiles>  (80) 
[H]c1nc(C([H])([H])N([H])C(=O)N2C([H])([H])C([H])([H])C([H])([H])C([H])(n3nc(-c4c([H])c([H])c(Oc5c([H])c([H])c(F)c([H])c5F)c([H])c4[H])c(C(=O)N([H])[H])c3N([H])[H])C2([H])[H])c(N([H])[H])c([H])c1N([H])C(=O)C([H])([H])C([H])([H])Oc1c([H])c([H])c2c(c1[H])C([H])([H])N(C(=O)C([H])(N([H])C(=O)C([H])(N([H])C([H])([H])[H])C([H])([H])[H])C(C([H])([H])[H])(C([H])([H])[H])C([H])([H])[H])C([H])(C(=O)N([H])C1([H])c3c([H])c([H])c([H])c([H])c3C([H])([H])C([H])([H])C1([H])[H])C2([H])[H]

>  <smiles>  (80) 
[H]c1nc(C([H])([H])N([H])C(=O)N2C([H])([H])C([H])([H])C([H])([H])C([H])(n3nc(-c4c([H])c([H])c(Oc5c([H])c([H])c(F)c([H])c5F)c([H])c4[H])c(C(=O)N([H])[H])c3N([H])[H])C2([H])[H])c(N([H])[H])c([H])c1N([H])C(=O)C([H])([H])C([H])([H])Oc1c([H])c([H])c2c(c1[H])C([H])([H])N(C(=O)C([H])(N([H])C(=O)C([H])(N([H])C([H])([H])[H])C([H])([H])[H])C(C([H])([H])[H])(C([H])([H])[H])C([H])([H])[H])C([H])(C(=O)N([H])C1([H])c3c([H])c([H])c([H])c([H])c3C([H])([H])C([H])([H])C1([H])[H])C2([H])[H]

$$$$
80:0:0
     RDKit          3D

 98106  0  0  1  0  0  0  0  0999 V2000
  -29.3020  -19.3970   20.1750 C   0  0  0  0  0  3  0  0  0  0  0  0
  -30.3230  -20.4360   21.9830 C   0  0  0  0  0  3  0  0  0  0  0  0
  -29.4810  -20.6180   20.9200 C   0  0  0  0  0  0  0  0  0  0  0  0
  -30.0980  -18.3420   20.5990 C   0  0  0  0  0  0  0  0  0  0  0  0
  -30.9550  -18.8080   22.0510 S   0  0  0  0  0  0  0  0  0  0  0  0
  -28.8740  -21.8540   20.5570 N   0  0  0  0  0  0  0  0  0  0  0  0
  -28.0990  -21.7500   19.9080 H   0  0  0  0  0  0  0  0  0  0  0  0
  -29.7450  -22.9950   20.1960 C   0  0  0  0  0  2  0  0  0  0  0  0
  -29.3870  -24.4120   20.7770 C   0  0  0  0  0  3  0  0  0  0  0  0
  -29.1560  -24.2810   22.1700 O   0  0  0  0  0  0  0  0  0  0  0  0
  -28.9660  -25.1540   22.5020 H   0  0  0  0  0  0  0  0  0  0  0  0
  -28.2260  -25.2150   20.1140 C   0  0  0  0  0  2  0  0  0  0  0  0
  -28.3650  -26.6570   20.2710 O   0  0  0  0  0  0  0  0  0  0  0  0
  -24.6130  -31.9390   23.2800 C   0  0  0  0  0  0  0  0  0  0  0  0
  -27.2160  -27.4360   20.2140 C   0  0  0  0  0  0  0  0  0  0  0  0
  -23.3970  -30.5370   21.6490 C   0  0  0  0  0  3  0  0  0  0  0  0
  -24.8390  -28.9920   20.2180 C   0  0  0  0  0  0  0  0  0  0  0  0
  -25.9290  -30.8750   21.4420 C   0  0  0  0  0  2  0  0  0  0  0  0
  -26.0050  -29.5000   20.8030 C   0  0  0  0  0  0  0  0  0  0  0  0
  -27.1960  -28.7300   20.7960 C   0  0  0  0  0  3  0  0  0  0  0  0
  -26.0330  -26.9650   19.6010 C   0  0  0  0  0  3  0  0  0  0  0  0
  -24.8500  -27.7260   19.6100 C   0  0  0  0  0  3  0  0  0  0  0  0
  -23.6000  -29.8580   20.2690 C   0  0  0  0  0  2  0  0  0  0  0  0
  -24.6650  -31.1340   22.1800 N   0  0  0  0  0  0  0  0  0  0  0  0
  -23.5350  -32.2170   23.8210 O   0  0  0  0  0  0  0  0  0  0  0  0
  -22.7460  -29.5200   22.6140 C   0  0  0  0  0  0  0  0  0  0  0  0
  -21.4230  -29.3300   22.4830 N   0  0  0  0  0  0  0  0  0  0  0  0
  -23.4300  -28.9050   23.4380 O   0  0  0  0  0  0  0  0  0  0  0  0
  -20.9320  -29.8780   21.7910 H   0  0  0  0  0  0  0  0  0  0  0  0
  -18.0570  -28.1040   22.9650 C   0  0  0  0  0  0  0  0  0  0  0  0
  -20.6080  -28.3930   23.2580 C   0  0  0  0  0  3  0  0  0  0  0  0
  -20.7320  -26.9550   22.7020 C   0  0  0  0  0  2  0  0  0  0  0  0
  -19.6420  -26.6070   21.6820 C   0  0  0  0  0  2  0  0  0  0  0  0
  -18.2530  -26.7480   22.3110 C   0  0  0  0  0  2  0  0  0  0  0  0
  -19.1630  -28.8840   23.3970 C   0  0  0  0  0  0  0  0  0  0  0  0
  -18.9260  -30.1530   23.9680 C   0  0  0  0  0  3  0  0  0  0  0  0
  -17.6150  -30.6430   24.1130 C   0  0  0  0  0  3  0  0  0  0  0  0
  -16.5220  -29.8630   23.6990 C   0  0  0  0  0  3  0  0  0  0  0  0
  -16.7440  -28.5950   23.1310 C   0  0  0  0  0  3  0  0  0  0  0  0
  -25.9020  -32.5700   23.8920 C   0  0  0  0  0  3  0  0  0  0  0  0
  -26.4210  -31.8060   25.1720 C   0  0  1  0  0  0  0  0  0  0  0  0
  -25.3290  -31.5820   26.2460 C   0  0  0  0  0  1  0  0  0  0  0  0
  -26.9970  -30.4230   24.7900 C   0  0  0  0  0  1  0  0  0  0  0  0
  -27.5770  -32.6000   25.8240 C   0  0  0  0  0  1  0  0  0  0  0  0
  -25.6010  -33.9710   24.2110 N   0  0  0  0  0  0  0  0  0  0  0  0
  -25.9390  -35.0150   23.4420 C   0  0  0  0  0  0  0  0  0  0  0  0
  -26.6090  -34.8990   22.4120 O   0  0  0  0  0  0  0  0  0  0  0  0
  -25.0050  -34.1360   25.0080 H   0  0  0  0  0  0  0  0  0  0  0  0
  -24.2250  -36.8160   23.0660 C   0  0  0  0  0  1  0  0  0  0  0  0
  -25.4590  -36.4100   23.8870 C   0  0  0  0  0  3  0  0  0  0  0  0
  -27.5950  -37.2860   24.7240 C   0  0  0  0  0  1  0  0  0  0  0  0
  -26.5010  -37.4540   23.7700 N   0  0  0  0  0  0  0  0  0  0  0  0
  -26.1010  -38.3780   23.9080 H   0  0  0  0  0  0  0  0  0  0  0  0
  -30.4780  -17.0520   19.8690 C   0  0  0  0  0  3  0  0  0  0  0  0
  -30.7270  -14.5980   20.3060 C   0  0  0  0  0  0  0  0  0  0  0  0
  -30.3860  -12.4040   19.2490 C   0  0  0  0  0  2  0  0  0  0  0  0
  -29.4640  -12.6010   18.0280 C   0  0  0  0  0  2  0  0  0  0  0  0
  -27.9870  -12.4870   18.4530 C   0  0  0  0  0  2  0  0  0  0  0  0
  -27.6480  -13.3420   19.7050 C   0  0  0  0  0  3  0  0  0  0  0  0
  -28.7030  -13.1720   20.8210 C   0  0  0  0  0  2  0  0  0  0  0  0
  -30.0220  -13.4360   20.2380 N   0  0  0  0  0  0  0  0  0  0  0  0
  -31.9090  -14.6550   19.9620 O   0  0  0  0  0  0  0  0  0  0  0  0
  -30.0140  -15.7510   20.4400 N   0  0  0  0  0  0  0  0  0  0  0  0
  -29.0450  -15.6740   20.7070 H   0  0  0  0  0  0  0  0  0  0  0  0
  -25.2550  -13.9580   20.4090 C   0  0  0  0  0  0  0  0  0  0  0  0
  -24.1840  -13.1920   20.7840 C   0  0  0  0  0  0  0  0  0  0  0  0
  -24.6400  -11.8390   20.7700 C   0  0  0  0  0  0  0  0  0  0  0  0
  -26.2970  -13.0720   20.1890 N   0  0  0  0  0  0  0  0  0  0  0  0
  -25.9320  -11.7930   20.4660 N   0  0  0  0  0  0  0  0  0  0  0  0
  -23.9070  -10.5820   20.9700 C   0  0  0  0  0  0  0  0  0  0  0  0
  -24.3280   -9.6240   21.9180 C   0  0  0  0  0  3  0  0  0  0  0  0
  -23.5960   -8.4310   22.1070 C   0  0  0  0  0  3  0  0  0  0  0  0
  -22.4280   -8.1890   21.3460 C   0  0  0  0  0  0  0  0  0  0  0  0
  -22.0260   -9.1350   20.3870 C   0  0  0  0  0  3  0  0  0  0  0  0
  -22.7600  -10.3190   20.1970 C   0  0  0  0  0  3  0  0  0  0  0  0
  -21.6670   -7.0490   21.4420 O   0  0  0  0  0  0  0  0  0  0  0  0
  -21.6040   -6.3220   22.6050 C   0  0  0  0  0  0  0  0  0  0  0  0
  -21.1620   -6.8940   23.8170 C   0  0  0  0  0  3  0  0  0  0  0  0
  -21.0440   -6.0930   24.9710 C   0  0  0  0  0  3  0  0  0  0  0  0
  -21.3600   -4.7230   24.9130 C   0  0  0  0  0  0  0  0  0  0  0  0
  -21.7970   -4.1510   23.7050 C   0  0  0  0  0  3  0  0  0  0  0  0
  -21.9140   -4.9490   22.5540 C   0  0  0  0  0  0  0  0  0  0  0  0
  -22.3150   -4.3870   21.3870 F   0  0  0  0  0  0  0  0  0  0  0  0
  -21.2410   -3.9510   26.0200 F   0  0  0  0  0  0  0  0  0  0  0  0
  -22.7870  -13.6780   21.0440 C   0  0  0  0  0  0  0  0  0  0  0  0
  -22.0520  -12.9950   21.9130 N   0  0  0  0  0  0  0  0  0  0  0  0
  -22.3560  -14.7000   20.5100 O   0  0  0  0  0  0  0  0  0  0  0  0
  -22.4130  -12.1710   22.3710 H   0  0  0  0  0  0  0  0  0  0  0  0
  -21.1130  -13.3030   22.1270 H   0  0  0  0  0  0  0  0  0  0  0  0
  -25.4230  -15.3260   20.2170 N   0  0  0  0  0  0  0  0  0  0  0  0
  -24.6550  -15.9790   20.3200 H   0  0  0  0  0  0  0  0  0  0  0  0
  -26.2680  -15.7620   19.8710 H   0  0  0  0  0  0  0  0  0  0  0  0
  -30.1950  -17.1050   18.3440 C   0  0  0  0  0  2  0  0  0  0  0  0
  -31.0740  -18.1270   17.5830 C   0  0  0  0  0  2  0  0  0  0  0  0
  -30.7430  -18.2090   16.1490 N   0  0  0  0  0  4  0  0  0  0  0  0
  -30.8770  -17.3250   15.6920 H   0  0  0  0  0  0  0  0  0  0  0  0
  -31.3410  -18.8830   15.7020 H   0  0  0  0  0  0  0  0  0  0  0  0
  -29.7920  -18.5050   16.0120 H   0  0  0  0  0  0  0  0  0  0  0  0
  1  4  2  0
  1  3  1  0
  2  5  1  0
  3  2  2  0
  4  5  1  0
  6  3  1  0
  7  6  1  0
  8  6  1  0
  8  9  1  0
  9 12  1  0
  9 10  1  0
 10 11  1  0
 12 13  1  0
 14 25  2  0
 15 13  1  0
 15 20  1  0
 16 24  1  0
 16 26  1  0
 17 23  1  0
 17 19  1  0
 18 24  1  0
 19 18  1  0
 20 19  2  0
 21 22  1  0
 21 15  2  0
 22 17  2  0
 23 16  1  0
 24 14  1  0
 26 28  2  0
 27 26  1  0
 29 27  1  0
 30 39  2  0
 30 35  1  0
 31 27  1  0
 31 35  1  0
 32 31  1  0
 33 34  1  0
 33 32  1  0
 34 30  1  0
 35 36  2  0
 36 37  1  0
 38 37  2  0
 39 38  1  0
 40 14  1  0
 40 45  1  0
 40 41  1  0
 41 44  1  1
 41 42  1  0
 43 41  1  0
 45 48  1  0
 46 50  1  0
 46 45  1  0
 47 46  2  0
 50 49  1  0
 52 50  1  0
 52 53  1  0
 52 51  1  0
 54 93  1  0
 54 63  1  0
 54  4  1  0
 55 63  1  0
 56 61  1  0
 57 58  1  0
 57 56  1  0
 59 58  1  0
 59 68  1  0
 59 60  1  0
 61 55  1  0
 61 60  1  0
 62 55  2  0
 63 64  1  0
 65 66  2  0
 66 85  1  0
 67 66  1  0
 67 70  1  0
 68 65  1  0
 68 69  1  0
 69 67  2  0
 70 71  1  0
 71 72  2  0
 73 76  1  0
 73 72  1  0
 74 73  2  0
 75 74  1  0
 75 70  2  0
 76 77  1  0
 77 78  1  0
 78 79  2  0
 80 79  1  0
 80 84  1  0
 81 80  2  0
 82 77  2  0
 82 81  1  0
 83 82  1  0
 85 86  1  0
 86 89  1  0
 86 88  1  0
 87 85  2  0
 90 91  1  0
 90 65  1  0
 92 90  1  0
 94 93  1  0
 95 94  1  0
 96 95  1  0
 97 95  1  0
 98 95  1  0
M  ISO  4  12 101  13 101  55 100  63 100
M  END
>  <TORSDO>  (81) 
F 25

>  <SCORE>  (81) 
-12.518

>  <name>  (81) 
80

>  <ligand_id>  (81) 
80

>  <original_smiles>  (81) 
[H]OC([H])(C([H])([H])Oc1c([H])c([H])c2c(c1[H])C([H])([H])N(C(=O)C([H])(N([H])C(=O)C([H])(N([H])C([H])([H])[H])C([H])([H])[H])C(C([H])([H])[H])(C([H])([H])[H])C([H])([H])[H])C([H])(C(=O)N([H])C1([H])c3c([H])c([H])c([H])c([H])c3C([H])([H])C([H])([H])C1([H])[H])C2([H])[H])C([H])([H])N([H])c1c([H])sc(C([H])(N([H])C(=O)N2C([H])([H])C([H])([H])C([H])([H])C([H])(n3nc(-c4c([H])c([H])c(Oc5c([H])c([H])c(F)c([H])c5F)c([H])c4[H])c(C(=O)N([H])[H])c3N([H])[H])C2([H])[H])C([H])([H])C([H])([H])[N+]([H])([H])[H])c1[H]

>  <smiles>  (81) 
[H]OC([H])(C([H])([H])Oc1c([H])c([H])c2c(c1[H])C([H])([H])N(C(=O)C([H])(N([H])C(=O)C([H])(N([H])C([H])([H])[H])C([H])([H])[H])C(C([H])([H])[H])(C([H])([H])[H])C([H])([H])[H])C([H])(C(=O)N([H])C1([H])c3c([H])c([H])c([H])c([H])c3C([H])([H])C([H])([H])C1([H])[H])C2([H])[H])C([H])([H])N([H])c1c([H])sc(C([H])(N([H])C(=O)N2C([H])([H])C([H])([H])C([H])([H])C([H])(n3nc(-c4c([H])c([H])c(Oc5c([H])c([H])c(F)c([H])c5F)c([H])c4[H])c(C(=O)N([H])[H])c3N([H])[H])C2([H])[H])C([H])([H])C([H])([H])[N+]([H])([H])[H])c1[H]

$$$$
81:0:0
     RDKit          3D

 97105  0  0  1  0  0  0  0  0999 V2000
  -29.6100  -21.9930   20.4580 N   0  0  0  0  0  4  0  0  0  0  0  0
  -30.5930  -21.7120   20.5350 H   0  0  0  0  0  0  0  0  0  0  0  0
  -29.3300  -22.1770   21.4060 H   0  0  0  0  0  0  0  0  0  0  0  0
  -27.6630  -20.4800   20.7130 C   0  0  0  0  0  1  0  0  0  0  0  0
  -28.9980  -20.7050   19.9830 C   0  0  0  0  0  3  0  0  0  0  0  0
  -30.9700  -14.7620   20.0610 C   0  0  0  0  0  0  0  0  0  0  0  0
  -30.6930  -12.5150   19.0600 C   0  0  0  0  0  2  0  0  0  0  0  0
  -29.7200  -12.6360   17.8680 C   0  0  0  0  0  2  0  0  0  0  0  0
  -28.2560  -12.5170   18.3380 C   0  0  0  0  0  2  0  0  0  0  0  0
  -27.9430  -13.4180   19.5630 C   0  0  0  0  0  3  0  0  0  0  0  0
  -29.0260  -13.2690   20.6560 C   0  0  0  0  0  2  0  0  0  0  0  0
  -30.3260  -13.5570   20.0330 N   0  0  0  0  0  0  0  0  0  0  0  0
  -32.1260  -14.8890   19.6500 O   0  0  0  0  0  0  0  0  0  0  0  0
  -29.9590  -19.5080   20.1750 C   0  0  0  0  0  0  0  0  0  0  0  0
  -31.3350  -19.5610   20.2960 C   0  0  0  0  0  0  0  0  0  0  0  0
  -30.4690  -17.2350   20.2880 C   0  0  0  0  0  0  0  0  0  0  0  0
  -29.4940  -18.1640   20.1670 N   0  0  0  0  0  0  0  0  0  0  0  0
  -30.1740  -15.8280   20.3440 N   0  0  0  0  0  0  0  0  0  0  0  0
  -32.0660  -17.9700   20.4080 S   0  0  0  0  0  0  0  0  0  0  0  0
  -29.2160  -15.5960   20.5440 H   0  0  0  0  0  0  0  0  0  0  0  0
  -25.5900  -14.0780   20.3620 C   0  0  0  0  0  0  0  0  0  0  0  0
  -24.5160  -13.3300   20.7590 C   0  0  0  0  0  0  0  0  0  0  0  0
  -24.9420  -11.9680   20.7060 C   0  0  0  0  0  0  0  0  0  0  0  0
  -26.6040  -13.1720   20.0890 N   0  0  0  0  0  0  0  0  0  0  0  0
  -26.2190  -11.8980   20.3550 N   0  0  0  0  0  0  0  0  0  0  0  0
  -24.1910  -10.7220   20.9100 C   0  0  0  0  0  0  0  0  0  0  0  0
  -24.5920   -9.7670   21.8690 C   0  0  0  0  0  3  0  0  0  0  0  0
  -23.8410   -8.5860   22.0590 C   0  0  0  0  0  3  0  0  0  0  0  0
  -22.6790   -8.3510   21.2880 C   0  0  0  0  0  0  0  0  0  0  0  0
  -22.2970   -9.2950   20.3190 C   0  0  0  0  0  3  0  0  0  0  0  0
  -23.0470  -10.4670   20.1260 C   0  0  0  0  0  3  0  0  0  0  0  0
  -21.9040   -7.2200   21.3850 O   0  0  0  0  0  0  0  0  0  0  0  0
  -21.7890   -6.5240   22.5620 C   0  0  0  0  0  0  0  0  0  0  0  0
  -21.2430   -7.1120   23.7240 C   0  0  0  0  0  3  0  0  0  0  0  0
  -21.0780   -6.3420   24.8920 C   0  0  0  0  0  3  0  0  0  0  0  0
  -21.4500   -4.9840   24.8970 C   0  0  0  0  0  0  0  0  0  0  0  0
  -21.9900   -4.3950   23.7410 C   0  0  0  0  0  3  0  0  0  0  0  0
  -22.1550   -5.1630   22.5760 C   0  0  0  0  0  0  0  0  0  0  0  0
  -22.6560   -4.5850   21.4550 F   0  0  0  0  0  0  0  0  0  0  0  0
  -21.2840   -4.2410   26.0170 F   0  0  0  0  0  0  0  0  0  0  0  0
  -23.1390  -13.8390   21.0820 C   0  0  0  0  0  0  0  0  0  0  0  0
  -22.4250  -13.1560   21.9700 N   0  0  0  0  0  0  0  0  0  0  0  0
  -22.7100  -14.8790   20.5840 O   0  0  0  0  0  0  0  0  0  0  0  0
  -22.7890  -12.3170   22.3990 H   0  0  0  0  0  0  0  0  0  0  0  0
  -21.5050  -13.4800   22.2300 H   0  0  0  0  0  0  0  0  0  0  0  0
  -25.7850  -15.4470   20.1880 N   0  0  0  0  0  0  0  0  0  0  0  0
  -25.0400  -16.1210   20.3250 H   0  0  0  0  0  0  0  0  0  0  0  0
  -26.6290  -15.8670   19.8180 H   0  0  0  0  0  0  0  0  0  0  0  0
  -32.1530  -20.6910   20.3220 N   0  0  0  0  0  0  0  0  0  0  0  0
  -32.6210  -20.7590   21.2250 H   0  0  0  0  0  0  0  0  0  0  0  0
  -32.9260  -20.5610   19.6730 H   0  0  0  0  0  0  0  0  0  0  0  0
  -29.7520  -22.9890   18.1160 C   0  0  0  0  0  1  0  0  0  0  0  0
  -29.5990  -23.2570   19.6310 C   0  0  0  0  0  3  0  0  0  0  0  0
  -28.4500  -24.3090   19.9250 C   0  0  0  0  0  2  0  0  0  0  0  0
  -28.1330  -25.4940   22.2230 C   0  0  0  0  0  1  0  0  0  0  0  0
  -28.7870  -25.5560   20.8310 C   0  0  0  0  0  3  0  0  0  0  0  0
  -28.6510  -26.8850   20.2360 O   0  0  0  0  0  0  0  0  0  0  0  0
  -24.5510  -31.8930   23.3140 C   0  0  0  0  0  0  0  0  0  0  0  0
  -27.4420  -27.5680   20.2550 C   0  0  0  0  0  0  0  0  0  0  0  0
  -23.4520  -30.4870   21.6050 C   0  0  0  0  0  3  0  0  0  0  0  0
  -25.0030  -29.0220   20.2030 C   0  0  0  0  0  0  0  0  0  0  0  0
  -25.9710  -30.9290   21.5000 C   0  0  0  0  0  2  0  0  0  0  0  0
  -26.1250  -29.5700   20.8370 C   0  0  0  0  0  0  0  0  0  0  0  0
  -27.3500  -28.8560   20.8480 C   0  0  0  0  0  3  0  0  0  0  0  0
  -26.3010  -27.0390   19.6210 C   0  0  0  0  0  3  0  0  0  0  0  0
  -25.0890  -27.7600   19.5880 C   0  0  0  0  0  3  0  0  0  0  0  0
  -23.7300  -29.8410   20.2210 C   0  0  0  0  0  2  0  0  0  0  0  0
  -24.6740  -31.1190   22.1980 N   0  0  0  0  0  0  0  0  0  0  0  0
  -23.4430  -32.1160   23.8230 O   0  0  0  0  0  0  0  0  0  0  0  0
  -22.8010  -29.4280   22.5250 C   0  0  0  0  0  0  0  0  0  0  0  0
  -21.4920  -29.1900   22.3350 N   0  0  0  0  0  0  0  0  0  0  0  0
  -23.4730  -28.8220   23.3650 O   0  0  0  0  0  0  0  0  0  0  0  0
  -21.0110  -29.7310   21.6290 H   0  0  0  0  0  0  0  0  0  0  0  0
  -18.1500  -27.8560   22.6860 C   0  0  0  0  0  0  0  0  0  0  0  0
  -20.6850  -28.2050   23.0540 C   0  0  0  0  0  3  0  0  0  0  0  0
  -20.8640  -26.7920   22.4530 C   0  0  0  0  0  2  0  0  0  0  0  0
  -19.8110  -26.4510   21.3930 C   0  0  0  0  0  2  0  0  0  0  0  0
  -18.4040  -26.5300   21.9890 C   0  0  0  0  0  2  0  0  0  0  0  0
  -19.2230  -28.6490   23.1740 C   0  0  0  0  0  0  0  0  0  0  0  0
  -18.9350  -29.8880   23.7860 C   0  0  0  0  0  3  0  0  0  0  0  0
  -17.6070  -30.3370   23.9140 C   0  0  0  0  0  3  0  0  0  0  0  0
  -16.5480  -29.5400   23.4440 C   0  0  0  0  0  3  0  0  0  0  0  0
  -16.8210  -28.3010   22.8370 C   0  0  0  0  0  3  0  0  0  0  0  0
  -25.7920  -32.5550   23.9910 C   0  0  0  0  0  3  0  0  0  0  0  0
  -25.4550  -33.9600   24.2590 N   0  0  0  0  0  0  0  0  0  0  0  0
  -25.8300  -34.9920   23.4910 C   0  0  0  0  0  0  0  0  0  0  0  0
  -26.5620  -34.8620   22.5060 O   0  0  0  0  0  0  0  0  0  0  0  0
  -24.8100  -34.1340   25.0140 H   0  0  0  0  0  0  0  0  0  0  0  0
  -24.1250  -36.7640   22.9660 C   0  0  0  0  0  1  0  0  0  0  0  0
  -25.3070  -36.3890   23.8730 C   0  0  0  0  0  3  0  0  0  0  0  0
  -27.3640  -37.3200   24.8390 C   0  0  0  0  0  1  0  0  0  0  0  0
  -26.3420  -37.4430   23.8040 N   0  0  0  0  0  0  0  0  0  0  0  0
  -25.9230  -38.3660   23.8800 H   0  0  0  0  0  0  0  0  0  0  0  0
  -26.2400  -31.8280   25.3180 C   0  0  1  0  0  0  0  0  0  0  0  0
  -25.0870  -31.6040   26.3240 C   0  0  0  0  0  1  0  0  0  0  0  0
  -26.8640  -30.4480   25.0030 C   0  0  0  0  0  1  0  0  0  0  0  0
  -27.3370  -32.6570   26.0270 C   0  0  0  0  0  1  0  0  0  0  0  0
  1  2  1  0
  1  3  1  0
  5 14  1  0
  5  1  1  0
  5  4  1  0
  6 18  1  0
  7 12  1  0
  8  9  1  0
  8  7  1  0
 10  9  1  0
 10 24  1  0
 10 11  1  0
 12  6  1  0
 12 11  1  0
 13  6  2  0
 14 15  2  0
 15 49  1  0
 15 19  1  0
 16 18  1  0
 16 19  1  0
 17 14  1  0
 17 16  2  0
 18 20  1  0
 21 22  2  0
 22 41  1  0
 23 22  1  0
 23 26  1  0
 24 25  1  0
 24 21  1  0
 25 23  2  0
 26 27  1  0
 27 28  2  0
 29 32  1  0
 29 28  1  0
 30 29  2  0
 31 30  1  0
 31 26  2  0
 32 33  1  0
 33 38  2  0
 33 34  1  0
 34 35  2  0
 35 36  1  0
 36 40  1  0
 37 36  2  0
 38 37  1  0
 39 38  1  0
 41 42  1  0
 42 45  1  0
 42 44  1  0
 43 41  2  0
 46 47  1  0
 46 21  1  0
 48 46  1  0
 49 50  1  0
 51 49  1  0
 53 52  1  0
 53 54  1  0
 53  1  1  0
 54 56  1  0
 56 55  1  0
 57 59  1  0
 57 56  1  0
 58 69  2  0
 59 64  1  0
 60 68  1  0
 60 70  1  0
 61 67  1  0
 61 63  1  0
 62 68  1  0
 63 64  2  0
 63 62  1  0
 65 59  2  0
 66 65  1  0
 66 61  2  0
 67 60  1  0
 68 58  1  0
 70 72  2  0
 71 70  1  0
 73 71  1  0
 74 83  2  0
 74 79  1  0
 75 71  1  0
 75 79  1  0
 76 75  1  0
 77 78  1  0
 77 76  1  0
 78 74  1  0
 79 80  2  0
 80 81  1  0
 82 81  2  0
 83 82  1  0
 84 58  1  0
 84 85  1  0
 84 94  1  0
 85 88  1  0
 86 90  1  0
 86 85  1  0
 87 86  2  0
 90 89  1  0
 92 90  1  0
 92 93  1  0
 92 91  1  0
 94 97  1  1
 94 95  1  0
 96 94  1  0
M  ISO  4   6 100  18 100  56 101  57 101
M  END
>  <TORSDO>  (82) 
F 21

>  <SCORE>  (82) 
-13.193

>  <name>  (82) 
81

>  <ligand_id>  (82) 
81

>  <original_smiles>  (82) 
[H]c1c([H])c([H])c2c(c1[H])C([H])([H])C([H])([H])C([H])([H])C2([H])N([H])C(=O)C1([H])N(C(=O)C([H])(N([H])C(=O)C([H])(N([H])C([H])([H])[H])C([H])([H])[H])C(C([H])([H])[H])(C([H])([H])[H])C([H])([H])[H])C([H])([H])c2c([H])c(OC([H])(C([H])([H])[H])C([H])([H])C([H])(C([H])([H])[H])[N+]([H])([H])C([H])(c3nc(N([H])C(=O)N4C([H])([H])C([H])([H])C([H])([H])C([H])(n5nc(-c6c([H])c([H])c(Oc7c([H])c([H])c(F)c([H])c7F)c([H])c6[H])c(C(=O)N([H])[H])c5N([H])[H])C4([H])[H])sc3N([H])[H])C([H])([H])[H])c([H])c([H])c2C1([H])[H]

>  <smiles>  (82) 
[H]c1c([H])c([H])c2c(c1[H])C([H])([H])C([H])([H])C([H])([H])C2([H])N([H])C(=O)C1([H])N(C(=O)C([H])(N([H])C(=O)C([H])(N([H])C([H])([H])[H])C([H])([H])[H])C(C([H])([H])[H])(C([H])([H])[H])C([H])([H])[H])C([H])([H])c2c([H])c(OC([H])(C([H])([H])[H])C([H])([H])C([H])(C([H])([H])[H])[N+]([H])([H])C([H])(c3nc(N([H])C(=O)N4C([H])([H])C([H])([H])C([H])([H])C([H])(n5nc(-c6c([H])c([H])c(Oc7c([H])c([H])c(F)c([H])c7F)c([H])c6[H])c(C(=O)N([H])[H])c5N([H])[H])C4([H])[H])sc3N([H])[H])C([H])([H])[H])c([H])c([H])c2C1([H])[H]

$$$$
82:0:0
     RDKit          3D

101109  0  0  1  0  0  0  0  0999 V2000
  -30.4460  -14.8080   20.3730 C   0  0  0  0  0  0  0  0  0  0  0  0
  -30.3620  -12.4190   19.7490 C   0  0  0  0  0  2  0  0  0  0  0  0
  -29.4730  -12.2720   18.4990 C   0  0  0  0  0  2  0  0  0  0  0  0
  -27.9930  -12.1000   18.9010 C   0  0  0  0  0  2  0  0  0  0  0  0
  -27.5260  -13.1690   19.9230 C   0  0  0  0  0  3  0  0  0  0  0  0
  -28.5370  -13.3200   21.0830 C   0  0  0  0  0  2  0  0  0  0  0  0
  -29.8550  -13.5840   20.4890 N   0  0  0  0  0  0  0  0  0  0  0  0
  -31.6290  -14.9330   20.0370 O   0  0  0  0  0  0  0  0  0  0  0  0
  -30.5020  -18.8610   21.8820 C   0  0  0  0  0  0  0  0  0  0  0  0
  -29.8740  -17.2060   20.5310 C   0  0  0  0  0  0  0  0  0  0  0  0
  -29.5660  -19.3410   19.9320 C   0  0  0  0  0  0  0  0  0  0  0  0
  -30.4370  -17.5440   21.6810 N   0  0  0  0  0  4  0  0  0  0  0  0
  -30.0630  -19.8160   21.0620 N   0  0  0  0  0  0  0  0  0  0  0  0
  -29.4230  -18.0600   19.6030 N   0  0  0  0  0  2  0  0  0  0  0  0
  -29.5970  -15.8630   20.3790 N   0  0  0  0  0  0  0  0  0  0  0  0
  -29.1130  -20.2630   18.9950 N   0  0  0  0  0  0  0  0  0  0  0  0
  -28.6220  -15.6330   20.4130 H   0  0  0  0  0  0  0  0  0  0  0  0
  -28.7970  -19.8310   18.1390 H   0  0  0  0  0  0  0  0  0  0  0  0
  -25.1440  -13.7880   20.6590 C   0  0  0  0  0  0  0  0  0  0  0  0
  -24.0700  -13.0180   21.0120 C   0  0  0  0  0  0  0  0  0  0  0  0
  -24.5160  -11.6630   20.9600 C   0  0  0  0  0  0  0  0  0  0  0  0
  -26.1770  -12.8980   20.4080 N   0  0  0  0  0  0  0  0  0  0  0  0
  -25.8050  -11.6170   20.6510 N   0  0  0  0  0  0  0  0  0  0  0  0
  -23.7750  -10.4050   21.1180 C   0  0  0  0  0  0  0  0  0  0  0  0
  -24.2330   -9.3870   21.9830 C   0  0  0  0  0  3  0  0  0  0  0  0
  -23.4950   -8.1950   22.1350 C   0  0  0  0  0  3  0  0  0  0  0  0
  -22.2870   -8.0110   21.4210 C   0  0  0  0  0  0  0  0  0  0  0  0
  -21.8490   -9.0170   20.5410 C   0  0  0  0  0  3  0  0  0  0  0  0
  -22.5870  -10.2010   20.3870 C   0  0  0  0  0  3  0  0  0  0  0  0
  -21.5200   -6.8720   21.4810 O   0  0  0  0  0  0  0  0  0  0  0  0
  -21.5370   -6.0520   22.5810 C   0  0  0  0  0  0  0  0  0  0  0  0
  -21.2120   -6.5270   23.8690 C   0  0  0  0  0  3  0  0  0  0  0  0
  -21.1740   -5.6330   24.9600 C   0  0  0  0  0  3  0  0  0  0  0  0
  -21.4560   -4.2690   24.7610 C   0  0  0  0  0  0  0  0  0  0  0  0
  -21.7770   -3.7930   23.4780 C   0  0  0  0  0  3  0  0  0  0  0  0
  -21.8140   -4.6850   22.3890 C   0  0  0  0  0  0  0  0  0  0  0  0
  -22.1010   -4.2180   21.1520 F   0  0  0  0  0  0  0  0  0  0  0  0
  -21.4140   -3.4080   25.8060 F   0  0  0  0  0  0  0  0  0  0  0  0
  -22.6770  -13.5050   21.2980 C   0  0  0  0  0  0  0  0  0  0  0  0
  -21.9580  -12.8100   22.1740 N   0  0  0  0  0  0  0  0  0  0  0  0
  -22.2460  -14.5360   20.7870 O   0  0  0  0  0  0  0  0  0  0  0  0
  -22.3230  -11.9710   22.5960 H   0  0  0  0  0  0  0  0  0  0  0  0
  -21.0260  -13.1160   22.4160 H   0  0  0  0  0  0  0  0  0  0  0  0
  -25.3280  -15.1580   20.5020 N   0  0  0  0  0  0  0  0  0  0  0  0
  -24.5590  -15.8140   20.5850 H   0  0  0  0  0  0  0  0  0  0  0  0
  -26.1630  -15.5790   20.1160 H   0  0  0  0  0  0  0  0  0  0  0  0
  -29.9210  -19.6400   24.2050 C   0  0  0  0  0  1  0  0  0  0  0  0
  -31.0650  -19.2470   23.2500 C   0  0  0  0  0  3  0  0  0  0  0  0
  -31.7880  -18.0640   23.7400 N   0  0  0  0  0  4  0  0  0  0  0  0
  -31.3930  -17.3520   23.1360 H   0  0  0  0  0  0  0  0  0  0  0  0
  -31.6010  -17.8420   24.6980 H   0  0  0  0  0  0  0  0  0  0  0  0
  -32.7710  -18.1240   23.5620 H   0  0  0  0  0  0  0  0  0  0  0  0
  -28.4880  -21.5620   19.3320 C   0  0  0  0  0  3  0  0  0  0  0  0
  -26.1540  -22.5240   20.0190 C   0  0  0  0  0  1  0  0  0  0  0  0
  -26.9980  -21.2950   19.6690 C   0  0  0  0  0  2  0  0  0  0  0  0
  -28.6210  -22.6380   18.1850 C   0  0  0  0  0  3  0  0  0  0  0  0
  -29.5920  -22.2220   17.2380 O   0  0  0  0  0  0  0  0  0  0  0  0
  -29.2140  -21.5050   16.7360 H   0  0  0  0  0  0  0  0  0  0  0  0
  -28.9960  -24.1020   18.6300 C   0  0  0  0  0  2  0  0  0  0  0  0
  -27.9980  -25.2060   18.1610 C   0  0  0  0  0  2  0  0  0  0  0  0
  -28.2410  -26.5800   18.5870 O   0  0  0  0  0  0  0  0  0  0  0  0
  -24.8940  -31.2620   22.8560 C   0  0  0  0  0  0  0  0  0  0  0  0
  -27.1300  -27.4070   18.7660 C   0  0  0  0  0  0  0  0  0  0  0  0
  -23.5270  -30.2440   21.0700 C   0  0  0  0  0  3  0  0  0  0  0  0
  -24.8160  -28.9980   19.2570 C   0  0  0  0  0  0  0  0  0  0  0  0
  -26.0510  -30.5630   20.7550 C   0  0  0  0  0  2  0  0  0  0  0  0
  -26.0370  -29.3420   19.8500 C   0  0  0  0  0  0  0  0  0  0  0  0
  -27.1930  -28.5570   19.6050 C   0  0  0  0  0  3  0  0  0  0  0  0
  -25.8910  -27.1300   18.1400 C   0  0  0  0  0  3  0  0  0  0  0  0
  -24.7450  -27.8970   18.3940 C   0  0  0  0  0  3  0  0  0  0  0  0
  -23.6110  -29.8560   19.5700 C   0  0  0  0  0  2  0  0  0  0  0  0
  -24.8510  -30.6890   21.6190 N   0  0  0  0  0  0  0  0  0  0  0  0
  -23.8600  -31.4490   23.5120 O   0  0  0  0  0  0  0  0  0  0  0  0
  -22.9080  -29.0620   21.8550 C   0  0  0  0  0  0  0  0  0  0  0  0
  -21.5670  -28.9720   21.8380 N   0  0  0  0  0  0  0  0  0  0  0  0
  -23.6240  -28.2460   22.4420 O   0  0  0  0  0  0  0  0  0  0  0  0
  -21.0570  -29.6770   21.3240 H   0  0  0  0  0  0  0  0  0  0  0  0
  -18.1870  -27.8400   22.4490 C   0  0  0  0  0  0  0  0  0  0  0  0
  -20.7740  -27.9250   22.4840 C   0  0  0  0  0  3  0  0  0  0  0  0
  -20.7240  -26.6470   21.6100 C   0  0  0  0  0  2  0  0  0  0  0  0
  -19.5100  -26.6030   20.6790 C   0  0  0  0  0  2  0  0  0  0  0  0
  -18.2100  -26.6630   21.4880 C   0  0  0  0  0  2  0  0  0  0  0  0
  -19.3900  -28.4420   22.9050 C   0  0  0  0  0  0  0  0  0  0  0  0
  -19.3150  -29.5560   23.7760 C   0  0  0  0  0  3  0  0  0  0  0  0
  -18.0680  -30.0670   24.1780 C   0  0  0  0  0  3  0  0  0  0  0  0
  -16.8800  -29.4630   23.7330 C   0  0  0  0  0  3  0  0  0  0  0  0
  -16.9420  -28.3460   22.8780 C   0  0  0  0  0  3  0  0  0  0  0  0
  -26.2440  -31.7270   23.4890 C   0  0  0  0  0  3  0  0  0  0  0  0
  -25.9890  -32.9940   24.1880 N   0  0  0  0  0  0  0  0  0  0  0  0
  -26.3110  -34.2020   23.7100 C   0  0  0  0  0  0  0  0  0  0  0  0
  -26.9300  -34.3610   22.6540 O   0  0  0  0  0  0  0  0  0  0  0  0
  -25.4380  -32.9480   25.0310 H   0  0  0  0  0  0  0  0  0  0  0  0
  -24.6230  -36.0570   23.9100 C   0  0  0  0  0  1  0  0  0  0  0  0
  -25.8780  -35.4290   24.5360 C   0  0  0  0  0  3  0  0  0  0  0  0
  -28.0640  -36.0270   25.4800 C   0  0  0  0  0  1  0  0  0  0  0  0
  -26.9330  -36.4560   24.6600 N   0  0  0  0  0  0  0  0  0  0  0  0
  -26.5580  -37.3180   25.0460 H   0  0  0  0  0  0  0  0  0  0  0  0
  -26.8700  -30.6640   24.4730 C   0  0  1  0  0  0  0  0  0  0  0  0
  -25.8850  -30.1590   25.5500 C   0  0  0  0  0  1  0  0  0  0  0  0
  -27.3870  -29.4310   23.6960 C   0  0  0  0  0  1  0  0  0  0  0  0
  -28.1020  -31.2660   25.1890 C   0  0  0  0  0  1  0  0  0  0  0  0
  1 15  1  0
  1  7  1  0
  2  7  1  0
  3  4  1  0
  3  2  1  0
  5  4  1  0
  5 22  1  0
  5  6  1  0
  7  6  1  0
  8  1  2  0
  9 48  1  0
 10 12  2  0
 11 13  2  0
 12  9  2  0
 13  9  1  0
 14 11  1  0
 14 10  1  0
 15 17  1  0
 15 10  1  0
 16 53  1  0
 16 11  1  0
 18 16  1  0
 19 20  2  0
 20 39  1  0
 21 20  1  0
 21 24  1  0
 22 23  1  0
 22 19  1  0
 23 21  2  0
 24 25  1  0
 25 26  2  0
 27 30  1  0
 27 26  1  0
 28 27  2  0
 29 28  1  0
 29 24  2  0
 30 31  1  0
 31 32  1  0
 32 33  2  0
 34 33  1  0
 34 38  1  0
 35 34  2  0
 36 31  2  0
 36 35  1  0
 37 36  1  0
 39 40  1  0
 40 43  1  0
 40 42  1  0
 41 39  2  0
 44 45  1  0
 44 19  1  0
 46 44  1  0
 48 49  1  0
 48 47  1  0
 49 51  1  0
 50 49  1  0
 52 49  1  0
 53 55  1  0
 55 54  1  0
 56 59  1  0
 56 53  1  0
 57 56  1  0
 58 57  1  0
 60 61  1  0
 60 59  1  0
 61 63  1  0
 62 73  2  0
 63 68  1  0
 64 72  1  0
 64 74  1  0
 65 71  1  0
 65 67  1  0
 66 72  1  0
 67 66  1  0
 68 67  2  0
 69 70  1  0
 69 63  2  0
 70 65  2  0
 71 64  1  0
 72 62  1  0
 74 76  2  0
 75 74  1  0
 77 75  1  0
 78 87  2  0
 78 83  1  0
 79 75  1  0
 79 83  1  0
 80 79  1  0
 81 82  1  0
 81 80  1  0
 82 78  1  0
 83 84  2  0
 84 85  1  0
 86 85  2  0
 87 86  1  0
 88 62  1  0
 88 89  1  0
 88 98  1  0
 89 92  1  0
 90 89  1  0
 90 94  1  0
 91 90  2  0
 94 93  1  0
 94 96  1  0
 96 97  1  0
 96 95  1  0
 98101  1  1
 98 99  1  0
100 98  1  0
M  ISO  4   1 100  15 100  60 101  61 101
M  END
>  <TORSDO>  (83) 
F 23

>  <SCORE>  (83) 
-8.203

>  <name>  (83) 
82

>  <ligand_id>  (83) 
82

>  <original_smiles>  (83) 
[H]OC([H])(C([H])([H])C([H])([H])Oc1c([H])c([H])c2c(c1[H])C([H])([H])N(C(=O)C([H])(N([H])C(=O)C([H])(N([H])C([H])([H])[H])C([H])([H])[H])C(C([H])([H])[H])(C([H])([H])[H])C([H])([H])[H])C([H])(C(=O)N([H])C1([H])c3c([H])c([H])c([H])c([H])c3C([H])([H])C([H])([H])C1([H])[H])C2([H])[H])C([H])(N([H])c1nc(N([H])C(=O)N2C([H])([H])C([H])([H])C([H])([H])C([H])(n3nc(-c4c([H])c([H])c(Oc5c([H])c([H])c(F)c([H])c5F)c([H])c4[H])c(C(=O)N([H])[H])c3N([H])[H])C2([H])[H])nc(C([H])(C([H])([H])[H])[N+]([H])([H])[H])n1)C([H])([H])C([H])([H])[H]

>  <smiles>  (83) 
[H]OC([H])(C([H])([H])C([H])([H])Oc1c([H])c([H])c2c(c1[H])C([H])([H])N(C(=O)C([H])(N([H])C(=O)C([H])(N([H])C([H])([H])[H])C([H])([H])[H])C(C([H])([H])[H])(C([H])([H])[H])C([H])([H])[H])C([H])(C(=O)N([H])C1([H])c3c([H])c([H])c([H])c([H])c3C([H])([H])C([H])([H])C1([H])[H])C2([H])[H])C([H])(N([H])c1nc(N([H])C(=O)N2C([H])([H])C([H])([H])C([H])([H])C([H])(n3nc(-c4c([H])c([H])c(Oc5c([H])c([H])c(F)c([H])c5F)c([H])c4[H])c(C(=O)N([H])[H])c3N([H])[H])C2([H])[H])nc(C([H])(C([H])([H])[H])[N+]([H])([H])[H])n1)C([H])([H])C([H])([H])[H]

$$$$
83:0:0
     RDKit          3D

 96104  0  0  1  0  0  0  0  0999 V2000
  -29.4110  -20.6410   19.4690 C   0  0  0  0  0  1  0  0  0  0  0  0
  -28.9620  -20.8430   20.9300 C   0  0  0  0  0  3  0  0  0  0  0  0
  -29.8940  -20.2970   21.9210 N   0  0  0  0  0  0  0  0  0  0  0  0
  -30.4740  -21.0510   22.2890 H   0  0  0  0  0  0  0  0  0  0  0  0
  -30.7240  -14.4790   20.0510 C   0  0  0  0  0  0  0  0  0  0  0  0
  -30.2230  -12.3970   18.8150 C   0  0  0  0  0  2  0  0  0  0  0  0
  -29.2010  -12.6580   17.6910 C   0  0  0  0  0  2  0  0  0  0  0  0
  -27.7670  -12.5070   18.2330 C   0  0  0  0  0  2  0  0  0  0  0  0
  -27.5340  -13.3130   19.5380 C   0  0  0  0  0  3  0  0  0  0  0  0
  -28.6700  -13.0700   20.5610 C   0  0  0  0  0  2  0  0  0  0  0  0
  -29.9590  -13.3570   19.9050 N   0  0  0  0  0  0  0  0  0  0  0  0
  -31.7720  -14.6270   19.4070 O   0  0  0  0  0  0  0  0  0  0  0  0
  -32.0360  -19.2550   21.5460 C   0  0  0  0  0  3  0  0  0  0  0  0
  -30.0360  -17.8720   21.4080 C   0  0  0  0  0  3  0  0  0  0  0  0
  -32.8030  -18.1290   21.2090 C   0  0  0  0  0  2  0  0  0  0  0  0
  -30.6360  -19.1400   21.6290 C   0  0  0  0  0  0  0  0  0  0  0  0
  -30.8400  -16.7470   21.0780 C   0  0  0  0  0  0  0  0  0  0  0  0
  -32.1870  -16.9470   20.9920 N   0  0  0  0  0  0  0  0  0  0  0  0
  -30.2510  -15.4540   20.8570 N   0  0  0  0  0  0  0  0  0  0  0  0
  -32.7760  -16.1510   20.7120 H   0  0  0  0  0  0  0  0  0  0  0  0
  -29.3620  -15.2710   21.2870 H   0  0  0  0  0  0  0  0  0  0  0  0
  -25.1960  -13.9020   20.4370 C   0  0  0  0  0  0  0  0  0  0  0  0
  -24.1590  -13.1190   20.8680 C   0  0  0  0  0  0  0  0  0  0  0  0
  -24.6170  -11.7700   20.7760 C   0  0  0  0  0  0  0  0  0  0  0  0
  -26.2210  -13.0270   20.1110 N   0  0  0  0  0  0  0  0  0  0  0  0
  -25.8820  -11.7400   20.3720 N   0  0  0  0  0  0  0  0  0  0  0  0
  -23.9060  -10.5020   20.9880 C   0  0  0  0  0  0  0  0  0  0  0  0
  -24.3770   -9.5360   21.9050 C   0  0  0  0  0  3  0  0  0  0  0  0
  -23.6660   -8.3330   22.1050 C   0  0  0  0  0  3  0  0  0  0  0  0
  -22.4700   -8.0890   21.3900 C   0  0  0  0  0  0  0  0  0  0  0  0
  -22.0170   -9.0430   20.4630 C   0  0  0  0  0  3  0  0  0  0  0  0
  -22.7300  -10.2370   20.2600 C   0  0  0  0  0  3  0  0  0  0  0  0
  -21.7250   -6.9390   21.5030 O   0  0  0  0  0  0  0  0  0  0  0  0
  -21.6910   -6.2150   22.6680 C   0  0  0  0  0  0  0  0  0  0  0  0
  -21.2690   -6.7860   23.8870 C   0  0  0  0  0  3  0  0  0  0  0  0
  -21.1820   -5.9870   25.0450 C   0  0  0  0  0  3  0  0  0  0  0  0
  -21.5080   -4.6190   24.9840 C   0  0  0  0  0  0  0  0  0  0  0  0
  -21.9230   -4.0480   23.7690 C   0  0  0  0  0  3  0  0  0  0  0  0
  -22.0120   -4.8440   22.6130 C   0  0  0  0  0  0  0  0  0  0  0  0
  -22.3930   -4.2830   21.4390 F   0  0  0  0  0  0  0  0  0  0  0  0
  -21.4170   -3.8490   26.0940 F   0  0  0  0  0  0  0  0  0  0  0  0
  -22.7850  -13.5880   21.2510 C   0  0  0  0  0  0  0  0  0  0  0  0
  -22.1270  -12.8790   22.1610 N   0  0  0  0  0  0  0  0  0  0  0  0
  -22.3080  -14.6190   20.7790 O   0  0  0  0  0  0  0  0  0  0  0  0
  -22.5280  -12.0450   22.5640 H   0  0  0  0  0  0  0  0  0  0  0  0
  -21.2060  -13.1730   22.4570 H   0  0  0  0  0  0  0  0  0  0  0  0
  -25.3470  -15.2740   20.2720 N   0  0  0  0  0  0  0  0  0  0  0  0
  -24.5730  -15.9140   20.4140 H   0  0  0  0  0  0  0  0  0  0  0  0
  -26.1390  -15.7120   19.8200 H   0  0  0  0  0  0  0  0  0  0  0  0
  -28.6460  -22.3410   21.2260 C   0  0  0  0  0  2  0  0  0  0  0  0
  -29.8360  -23.3420   21.1830 C   0  0  0  0  0  3  0  0  0  0  0  0
  -30.6720  -23.1130   22.3080 O   0  0  0  0  0  0  0  0  0  0  0  0
  -30.1920  -23.3820   23.0870 H   0  0  0  0  0  0  0  0  0  0  0  0
  -29.4470  -24.8420   21.2340 C   0  0  0  0  0  2  0  0  0  0  0  0
  -28.5320  -25.3640   20.1060 C   0  0  0  0  0  2  0  0  0  0  0  0
  -28.4880  -26.7950   20.1890 O   0  0  0  0  0  0  0  0  0  0  0  0
  -24.5610  -31.8850   23.2170 C   0  0  0  0  0  0  0  0  0  0  0  0
  -27.2760  -27.4570   20.1750 C   0  0  0  0  0  0  0  0  0  0  0  0
  -23.3800  -30.4710   21.5650 C   0  0  0  0  0  3  0  0  0  0  0  0
  -24.8580  -28.9330   20.1670 C   0  0  0  0  0  0  0  0  0  0  0  0
  -25.9040  -30.8480   21.3930 C   0  0  0  0  0  2  0  0  0  0  0  0
  -26.0050  -29.4740   20.7600 C   0  0  0  0  0  0  0  0  0  0  0  0
  -27.2140  -28.7430   20.7620 C   0  0  0  0  0  3  0  0  0  0  0  0
  -26.1090  -26.9290   19.5730 C   0  0  0  0  0  3  0  0  0  0  0  0
  -24.9040  -27.6590   19.5740 C   0  0  0  0  0  3  0  0  0  0  0  0
  -23.6090  -29.7820   20.1920 C   0  0  0  0  0  2  0  0  0  0  0  0
  -24.6320  -31.0820   22.1180 N   0  0  0  0  0  0  0  0  0  0  0  0
  -23.4730  -32.1490   23.7490 O   0  0  0  0  0  0  0  0  0  0  0  0
  -22.7260  -29.4500   22.5220 C   0  0  0  0  0  0  0  0  0  0  0  0
  -21.4000  -29.2770   22.3970 N   0  0  0  0  0  0  0  0  0  0  0  0
  -23.4060  -28.8150   23.3310 O   0  0  0  0  0  0  0  0  0  0  0  0
  -20.9120  -29.8380   21.7150 H   0  0  0  0  0  0  0  0  0  0  0  0
  -18.0180  -28.1150   22.9050 C   0  0  0  0  0  0  0  0  0  0  0  0
  -20.5800  -28.3390   23.1640 C   0  0  0  0  0  3  0  0  0  0  0  0
  -20.6630  -26.9140   22.5690 C   0  0  0  0  0  2  0  0  0  0  0  0
  -19.5500  -26.6180   21.5580 C   0  0  0  0  0  2  0  0  0  0  0  0
  -18.1740  -26.7720   22.2130 C   0  0  0  0  0  2  0  0  0  0  0  0
  -19.1490  -28.8580   23.3370 C   0  0  0  0  0  0  0  0  0  0  0  0
  -18.9490  -30.1180   23.9440 C   0  0  0  0  0  3  0  0  0  0  0  0
  -17.6520  -30.6330   24.1240 C   0  0  0  0  0  3  0  0  0  0  0  0
  -16.5350  -29.8850   23.7090 C   0  0  0  0  0  3  0  0  0  0  0  0
  -16.7190  -28.6300   23.1030 C   0  0  0  0  0  3  0  0  0  0  0  0
  -25.8380  -32.5210   23.8500 C   0  0  0  0  0  3  0  0  0  0  0  0
  -26.3570  -31.7450   25.1220 C   0  0  1  0  0  0  0  0  0  0  0  0
  -25.2580  -31.4930   26.1800 C   0  0  0  0  0  1  0  0  0  0  0  0
  -26.9570  -30.3790   24.7200 C   0  0  0  0  0  1  0  0  0  0  0  0
  -27.4960  -32.5460   25.7970 C   0  0  0  0  0  1  0  0  0  0  0  0
  -25.5160  -33.9120   24.1870 N   0  0  0  0  0  0  0  0  0  0  0  0
  -25.8350  -34.9710   23.4320 C   0  0  0  0  0  0  0  0  0  0  0  0
  -26.5040  -34.8820   22.3970 O   0  0  0  0  0  0  0  0  0  0  0  0
  -24.9180  -34.0580   24.9880 H   0  0  0  0  0  0  0  0  0  0  0  0
  -24.0760  -36.7380   23.1000 C   0  0  0  0  0  1  0  0  0  0  0  0
  -25.3330  -36.3530   23.8970 C   0  0  0  0  0  3  0  0  0  0  0  0
  -27.4620  -37.2670   24.7060 C   0  0  0  0  0  1  0  0  0  0  0  0
  -26.3480  -37.4210   23.7750 N   0  0  0  0  0  0  0  0  0  0  0  0
  -25.9290  -38.3350   23.9320 H   0  0  0  0  0  0  0  0  0  0  0  0
  2  1  1  0
  2 50  1  0
  2  3  1  0
  3  4  1  0
  5 19  1  0
  6 11  1  0
  7  8  1  0
  7  6  1  0
  9  8  1  0
  9 25  1  0
  9 10  1  0
 11  5  1  0
 11 10  1  0
 12  5  2  0
 13 16  2  0
 14 16  1  0
 15 13  1  0
 16  3  1  0
 17 14  2  0
 18 17  1  0
 18 15  1  0
 19 17  1  0
 19 21  1  0
 20 18  1  0
 22 23  2  0
 23 42  1  0
 24 23  1  0
 24 27  1  0
 25 26  1  0
 25 22  1  0
 26 24  2  0
 27 28  1  0
 28 29  2  0
 30 33  1  0
 30 29  1  0
 31 30  2  0
 32 31  1  0
 32 27  2  0
 33 34  1  0
 34 35  1  0
 35 36  2  0
 37 36  1  0
 37 41  1  0
 38 37  2  0
 39 34  2  0
 39 38  1  0
 40 39  1  0
 42 43  1  0
 43 46  1  0
 43 45  1  0
 44 42  2  0
 47 48  1  0
 47 22  1  0
 49 47  1  0
 51 50  1  0
 51 54  1  0
 51 52  1  0
 52 53  1  0
 55 56  1  0
 55 54  1  0
 57 68  2  0
 58 56  1  0
 58 63  1  0
 59 67  1  0
 59 69  1  0
 60 66  1  0
 60 62  1  0
 61 67  1  0
 62 63  2  0
 62 61  1  0
 64 65  1  0
 64 58  2  0
 65 60  2  0
 66 59  1  0
 67 57  1  0
 69 71  2  0
 70 69  1  0
 72 70  1  0
 73 82  2  0
 73 78  1  0
 74 70  1  0
 74 78  1  0
 75 74  1  0
 76 77  1  0
 76 75  1  0
 77 73  1  0
 78 79  2  0
 79 80  1  0
 81 80  2  0
 82 81  1  0
 83 57  1  0
 83 88  1  0
 83 84  1  0
 84 87  1  1
 84 85  1  0
 86 84  1  0
 88 91  1  0
 89 93  1  0
 89 88  1  0
 90 89  2  0
 93 92  1  0
 95 93  1  0
 95 96  1  0
 95 94  1  0
M  ISO  4   5 100  19 100  55 101  56 101
M  END
>  <TORSDO>  (84) 
F 22

>  <SCORE>  (84) 
-13.124

>  <name>  (84) 
83

>  <ligand_id>  (84) 
83

>  <original_smiles>  (84) 
[H]OC([H])(C([H])([H])C([H])([H])Oc1c([H])c([H])c2c(c1[H])C([H])([H])N(C(=O)C([H])(N([H])C(=O)C([H])(N([H])C([H])([H])[H])C([H])([H])[H])C(C([H])([H])[H])(C([H])([H])[H])C([H])([H])[H])C([H])(C(=O)N([H])C1([H])c3c([H])c([H])c([H])c([H])c3C([H])([H])C([H])([H])C1([H])[H])C2([H])[H])C([H])([H])C([H])(N([H])c1c([H])c([H])[n+]([H])c(N([H])C(=O)N2C([H])([H])C([H])([H])C([H])([H])C([H])(n3nc(-c4c([H])c([H])c(Oc5c([H])c([H])c(F)c([H])c5F)c([H])c4[H])c(C(=O)N([H])[H])c3N([H])[H])C2([H])[H])c1[H])C([H])([H])[H]

>  <smiles>  (84) 
[H]OC([H])(C([H])([H])C([H])([H])Oc1c([H])c([H])c2c(c1[H])C([H])([H])N(C(=O)C([H])(N([H])C(=O)C([H])(N([H])C([H])([H])[H])C([H])([H])[H])C(C([H])([H])[H])(C([H])([H])[H])C([H])([H])[H])C([H])(C(=O)N([H])C1([H])c3c([H])c([H])c([H])c([H])c3C([H])([H])C([H])([H])C1([H])[H])C2([H])[H])C([H])([H])C([H])(N([H])c1c([H])c([H])[n+]([H])c(N([H])C(=O)N2C([H])([H])C([H])([H])C([H])([H])C([H])(n3nc(-c4c([H])c([H])c(Oc5c([H])c([H])c(F)c([H])c5F)c([H])c4[H])c(C(=O)N([H])[H])c3N([H])[H])C2([H])[H])c1[H])C([H])([H])[H]

$$$$
84:0:0
     RDKit          3D

 90 98  0  0  1  0  0  0  0  0999 V2000
  -29.6910  -18.1440   20.8180 C   0  0  0  0  0  0  0  0  0  0  0  0
  -29.1240  -20.3170   20.6820 C   0  0  0  0  0  3  0  0  0  0  0  0
  -29.8520  -19.3970   21.3280 N   0  0  0  0  0  0  0  0  0  0  0  0
  -28.8140  -18.0500   19.7960 N   0  0  0  0  0  2  0  0  0  0  0  0
  -29.1590  -21.6810   21.0530 N   0  0  0  0  0  0  0  0  0  0  0  0
  -28.1920  -19.5870   19.4070 S   0  0  0  0  0  0  0  0  0  0  0  0
  -29.8250  -21.9200   21.7830 H   0  0  0  0  0  0  0  0  0  0  0  0
  -30.4800  -16.9290   21.3530 C   0  0  0  0  0  2  0  0  0  0  0  0
  -30.6550  -14.5660   20.4460 C   0  0  0  0  0  0  0  0  0  0  0  0
  -30.3590  -12.4110   19.2570 C   0  0  0  0  0  2  0  0  0  0  0  0
  -29.4100  -12.6170   18.0570 C   0  0  0  0  0  2  0  0  0  0  0  0
  -27.9370  -12.4760   18.4930 C   0  0  0  0  0  2  0  0  0  0  0  0
  -27.6070  -13.2920   19.7710 C   0  0  0  0  0  3  0  0  0  0  0  0
  -28.6690  -13.0630   20.8680 C   0  0  0  0  0  2  0  0  0  0  0  0
  -29.9820  -13.3880   20.2920 N   0  0  0  0  0  0  0  0  0  0  0  0
  -31.7860  -14.7400   19.9870 O   0  0  0  0  0  0  0  0  0  0  0  0
  -29.9680  -15.5760   21.0250 N   0  0  0  0  0  0  0  0  0  0  0  0
  -29.0190  -15.3820   21.3020 H   0  0  0  0  0  0  0  0  0  0  0  0
  -25.2130  -13.8900   20.4990 C   0  0  0  0  0  0  0  0  0  0  0  0
  -24.1500  -13.1140   20.8750 C   0  0  0  0  0  0  0  0  0  0  0  0
  -24.6140  -11.7640   20.8400 C   0  0  0  0  0  0  0  0  0  0  0  0
  -26.2580  -13.0110   20.2580 N   0  0  0  0  0  0  0  0  0  0  0  0
  -25.9020  -11.7280   20.5230 N   0  0  0  0  0  0  0  0  0  0  0  0
  -23.8920  -10.4990   21.0340 C   0  0  0  0  0  0  0  0  0  0  0  0
  -24.3320   -9.5300   21.9620 C   0  0  0  0  0  3  0  0  0  0  0  0
  -23.6090   -8.3320   22.1440 C   0  0  0  0  0  3  0  0  0  0  0  0
  -22.4320   -8.0930   21.3940 C   0  0  0  0  0  0  0  0  0  0  0  0
  -22.0110   -9.0510   20.4560 C   0  0  0  0  0  3  0  0  0  0  0  0
  -22.7360  -10.2400   20.2720 C   0  0  0  0  0  3  0  0  0  0  0  0
  -21.6800   -6.9460   21.4830 O   0  0  0  0  0  0  0  0  0  0  0  0
  -21.6350   -6.2020   22.6350 C   0  0  0  0  0  0  0  0  0  0  0  0
  -21.2080   -6.7530   23.8630 C   0  0  0  0  0  3  0  0  0  0  0  0
  -21.1090   -5.9350   25.0050 C   0  0  0  0  0  3  0  0  0  0  0  0
  -21.4320   -4.5670   24.9230 C   0  0  0  0  0  0  0  0  0  0  0  0
  -21.8550   -4.0160   23.7010 C   0  0  0  0  0  3  0  0  0  0  0  0
  -21.9530   -4.8310   22.5600 C   0  0  0  0  0  0  0  0  0  0  0  0
  -22.3400   -4.2890   21.3800 F   0  0  0  0  0  0  0  0  0  0  0  0
  -21.3330   -3.7800   26.0190 F   0  0  0  0  0  0  0  0  0  0  0  0
  -22.7530  -13.5880   21.1560 C   0  0  0  0  0  0  0  0  0  0  0  0
  -22.0290  -12.8880   22.0230 N   0  0  0  0  0  0  0  0  0  0  0  0
  -22.3120  -14.6160   20.6440 O   0  0  0  0  0  0  0  0  0  0  0  0
  -22.3970  -12.0580   22.4630 H   0  0  0  0  0  0  0  0  0  0  0  0
  -21.0920  -13.1920   22.2520 H   0  0  0  0  0  0  0  0  0  0  0  0
  -25.3740  -15.2610   20.3220 N   0  0  0  0  0  0  0  0  0  0  0  0
  -24.6080  -15.9150   20.4380 H   0  0  0  0  0  0  0  0  0  0  0  0
  -26.2170  -15.7040   19.9790 H   0  0  0  0  0  0  0  0  0  0  0  0
  -28.8210  -22.7480   20.0860 C   0  0  0  0  0  2  0  0  0  0  0  0
  -28.6530  -24.1810   20.7120 C   0  0  0  0  0  3  0  0  0  0  0  0
  -28.6290  -25.3680   19.6890 C   0  0  0  0  0  3  0  0  0  0  0  0
  -28.4890  -26.7010   20.2590 O   0  0  0  0  0  0  0  0  0  0  0  0
  -24.6040  -31.9040   23.2420 C   0  0  0  0  0  0  0  0  0  0  0  0
  -27.2970  -27.4180   20.2130 C   0  0  0  0  0  0  0  0  0  0  0  0
  -23.4240  -30.4950   21.5890 C   0  0  0  0  0  3  0  0  0  0  0  0
  -24.8980  -28.9550   20.1860 C   0  0  0  0  0  0  0  0  0  0  0  0
  -25.9550  -30.8500   21.4240 C   0  0  0  0  0  2  0  0  0  0  0  0
  -26.0510  -29.4740   20.7880 C   0  0  0  0  0  0  0  0  0  0  0  0
  -27.2490  -28.7150   20.7950 C   0  0  0  0  0  3  0  0  0  0  0  0
  -26.1130  -26.9210   19.6180 C   0  0  0  0  0  3  0  0  0  0  0  0
  -24.9290  -27.6810   19.5980 C   0  0  0  0  0  3  0  0  0  0  0  0
  -23.6530  -29.8140   20.2130 C   0  0  0  0  0  2  0  0  0  0  0  0
  -24.6780  -31.1000   22.1420 N   0  0  0  0  0  0  0  0  0  0  0  0
  -23.5140  -32.1740   23.7660 O   0  0  0  0  0  0  0  0  0  0  0  0
  -22.7630  -29.4740   22.5440 C   0  0  0  0  0  0  0  0  0  0  0  0
  -21.4380  -29.2960   22.4090 N   0  0  0  0  0  0  0  0  0  0  0  0
  -23.4390  -28.8470   23.3640 O   0  0  0  0  0  0  0  0  0  0  0  0
  -20.9550  -29.8540   21.7190 H   0  0  0  0  0  0  0  0  0  0  0  0
  -18.0540  -28.1300   22.9100 C   0  0  0  0  0  0  0  0  0  0  0  0
  -20.6150  -28.3590   23.1730 C   0  0  0  0  0  3  0  0  0  0  0  0
  -20.7000  -26.9330   22.5820 C   0  0  0  0  0  2  0  0  0  0  0  0
  -19.5910  -26.6330   21.5680 C   0  0  0  0  0  2  0  0  0  0  0  0
  -18.2120  -26.7860   22.2190 C   0  0  0  0  0  2  0  0  0  0  0  0
  -19.1820  -28.8760   23.3430 C   0  0  0  0  0  0  0  0  0  0  0  0
  -18.9800  -30.1340   23.9500 C   0  0  0  0  0  3  0  0  0  0  0  0
  -17.6820  -30.6480   24.1280 C   0  0  0  0  0  3  0  0  0  0  0  0
  -16.5670  -29.8990   23.7100 C   0  0  0  0  0  3  0  0  0  0  0  0
  -16.7540  -28.6430   23.1070 C   0  0  0  0  0  3  0  0  0  0  0  0
  -25.8770  -32.5430   23.8780 C   0  0  0  0  0  3  0  0  0  0  0  0
  -26.3780  -31.7850   25.1670 C   0  0  1  0  0  0  0  0  0  0  0  0
  -25.2690  -31.5540   26.2220 C   0  0  0  0  0  1  0  0  0  0  0  0
  -26.9710  -30.4060   24.7960 C   0  0  0  0  0  1  0  0  0  0  0  0
  -27.5170  -32.5880   25.8400 C   0  0  0  0  0  1  0  0  0  0  0  0
  -25.5610  -33.9440   24.1900 N   0  0  0  0  0  0  0  0  0  0  0  0
  -25.9060  -34.9890   23.4280 C   0  0  0  0  0  0  0  0  0  0  0  0
  -26.5950  -34.8780   22.4090 O   0  0  0  0  0  0  0  0  0  0  0  0
  -24.9520  -34.1040   24.9780 H   0  0  0  0  0  0  0  0  0  0  0  0
  -24.1860  -36.7800   23.0210 C   0  0  0  0  0  1  0  0  0  0  0  0
  -25.4080  -36.3810   23.8640 C   0  0  0  0  0  3  0  0  0  0  0  0
  -27.5220  -37.2720   24.7420 C   0  0  0  0  0  1  0  0  0  0  0  0
  -26.4440  -37.4340   23.7700 N   0  0  0  0  0  0  0  0  0  0  0  0
  -26.0340  -38.3540   23.9000 H   0  0  0  0  0  0  0  0  0  0  0  0
  1  3  2  0
  1  8  1  0
  2  5  1  0
  2  3  1  0
  4  1  1  0
  5  7  1  0
  6  4  1  0
  6  2  1  0
  9 17  1  0
 10 15  1  0
 11 12  1  0
 11 10  1  0
 13 12  1  0
 13 22  1  0
 13 14  1  0
 15  9  1  0
 15 14  1  0
 16  9  2  0
 17 18  1  0
 17  8  1  0
 19 20  2  0
 20 39  1  0
 21 20  1  0
 21 24  1  0
 22 19  1  0
 22 23  1  0
 23 21  2  0
 24 25  1  0
 25 26  2  0
 27 30  1  0
 27 26  1  0
 28 27  2  0
 29 28  1  0
 29 24  2  0
 30 31  1  0
 31 32  1  0
 32 33  2  0
 34 33  1  0
 34 38  1  0
 35 34  2  0
 36 31  2  0
 36 35  1  0
 37 36  1  0
 39 40  1  0
 40 43  1  0
 40 42  1  0
 41 39  2  0
 44 45  1  0
 44 19  1  0
 46 44  1  0
 47 48  1  0
 47  5  1  0
 49 50  1  0
 49 48  2  0
 51 62  2  0
 52 50  1  0
 52 57  1  0
 53 61  1  0
 53 63  1  0
 54 60  1  0
 54 56  1  0
 55 61  1  0
 56 57  2  0
 56 55  1  0
 58 52  2  0
 59 58  1  0
 59 54  2  0
 60 53  1  0
 61 51  1  0
 63 65  2  0
 64 63  1  0
 66 64  1  0
 67 76  2  0
 67 72  1  0
 68 64  1  0
 68 72  1  0
 69 68  1  0
 70 71  1  0
 70 69  1  0
 71 67  1  0
 72 73  2  0
 73 74  1  0
 75 74  2  0
 76 75  1  0
 77 51  1  0
 77 82  1  0
 77 78  1  0
 78 81  1  1
 78 79  1  0
 80 78  1  0
 82 85  1  0
 83 87  1  0
 83 82  1  0
 84 83  2  0
 87 86  1  0
 89 87  1  0
 89 90  1  0
 89 88  1  0
M  ISO  4   9 100  17 100  49 101  50 101
M  END
>  <TORSDO>  (85) 
F 20

>  <SCORE>  (85) 
-13.915

>  <name>  (85) 
84

>  <ligand_id>  (85) 
84

>  <original_smiles>  (85) 
[H]c1c([H])c([H])c2c(c1[H])C([H])([H])C([H])([H])C([H])([H])C2([H])N([H])C(=O)C1([H])N(C(=O)C([H])(N([H])C(=O)C([H])(N([H])C([H])([H])[H])C([H])([H])[H])C(C([H])([H])[H])(C([H])([H])[H])C([H])([H])[H])C([H])([H])c2c([H])c(OC([H])([H])C([H])([H])C([H])([H])N([H])c3nc(C([H])([H])N([H])C(=O)N4C([H])([H])C([H])([H])C([H])([H])C([H])(n5nc(-c6c([H])c([H])c(Oc7c([H])c([H])c(F)c([H])c7F)c([H])c6[H])c(C(=O)N([H])[H])c5N([H])[H])C4([H])[H])ns3)c([H])c([H])c2C1([H])[H]

>  <smiles>  (85) 
[H]c1c([H])c([H])c2c(c1[H])C([H])([H])C([H])([H])C([H])([H])C2([H])N([H])C(=O)C1([H])N(C(=O)C([H])(N([H])C(=O)C([H])(N([H])C([H])([H])[H])C([H])([H])[H])C(C([H])([H])[H])(C([H])([H])[H])C([H])([H])[H])C([H])([H])c2c([H])c(OC([H])([H])C([H])([H])C([H])([H])N([H])c3nc(C([H])([H])N([H])C(=O)N4C([H])([H])C([H])([H])C([H])([H])C([H])(n5nc(-c6c([H])c([H])c(Oc7c([H])c([H])c(F)c([H])c7F)c([H])c6[H])c(C(=O)N([H])[H])c5N([H])[H])C4([H])[H])ns3)c([H])c([H])c2C1([H])[H]

$$$$
85:0:0
     RDKit          3D

 99107  0  0  1  0  0  0  0  0999 V2000
  -30.2410  -18.9320   20.0190 C   0  0  0  0  0  0  0  0  0  0  0  0
  -30.1190  -19.9540   20.9370 C   0  0  0  0  0  0  0  0  0  0  0  0
  -29.2090  -20.5420   18.7030 C   0  0  0  0  0  0  0  0  0  0  0  0
  -29.7180  -19.2980   18.7520 N   0  0  0  0  0  0  0  0  0  0  0  0
  -28.7040  -21.1700   17.5470 N   0  0  0  0  0  0  0  0  0  0  0  0
  -29.2600  -21.3360   20.2640 S   0  0  0  0  0  0  0  0  0  0  0  0
  -28.8210  -20.5670   16.7360 H   0  0  0  0  0  0  0  0  0  0  0  0
  -26.4460  -22.1380   17.6920 C   0  0  0  0  0  1  0  0  0  0  0  0
  -27.8930  -22.3700   17.2250 C   0  0  0  0  0  3  0  0  0  0  0  0
  -28.5150  -23.7430   17.6950 C   0  0  0  0  0  2  0  0  0  0  0  0
  -27.5770  -24.9190   18.1780 C   0  0  0  0  0  2  0  0  0  0  0  0
  -27.6640  -26.2400   17.5630 O   0  0  0  0  0  0  0  0  0  0  0  0
  -25.4400  -30.1570   23.1590 C   0  0  0  0  0  0  0  0  0  0  0  0
  -26.7620  -27.1600   18.0780 C   0  0  0  0  0  0  0  0  0  0  0  0
  -23.8340  -29.8530   21.3090 C   0  0  0  0  0  3  0  0  0  0  0  0
  -24.7970  -28.9090   19.1410 C   0  0  0  0  0  0  0  0  0  0  0  0
  -26.3580  -29.8340   20.8560 C   0  0  0  0  0  2  0  0  0  0  0  0
  -26.0890  -28.9040   19.6840 C   0  0  0  0  0  0  0  0  0  0  0  0
  -27.0810  -28.0410   19.1480 C   0  0  0  0  0  3  0  0  0  0  0  0
  -25.4640  -27.2070   17.5330 C   0  0  0  0  0  3  0  0  0  0  0  0
  -24.4820  -28.0660   18.0620 C   0  0  0  0  0  3  0  0  0  0  0  0
  -23.7800  -29.8430   19.7600 C   0  0  0  0  0  2  0  0  0  0  0  0
  -25.2380  -29.9300   21.8300 N   0  0  0  0  0  0  0  0  0  0  0  0
  -24.4890  -30.3290   23.9350 O   0  0  0  0  0  0  0  0  0  0  0  0
  -23.0520  -28.6280   21.8380 C   0  0  0  0  0  0  0  0  0  0  0  0
  -21.7110  -28.7140   21.8210 N   0  0  0  0  0  0  0  0  0  0  0  0
  -23.6490  -27.6200   22.2280 O   0  0  0  0  0  0  0  0  0  0  0  0
  -21.2980  -29.5750   21.4930 H   0  0  0  0  0  0  0  0  0  0  0  0
  -18.2030  -27.8830   22.1060 C   0  0  0  0  0  0  0  0  0  0  0  0
  -20.7750  -27.6700   22.2360 C   0  0  0  0  0  3  0  0  0  0  0  0
  -20.6390  -26.5770   21.1490 C   0  0  0  0  0  2  0  0  0  0  0  0
  -19.4670  -26.8180   20.1890 C   0  0  0  0  0  2  0  0  0  0  0  0
  -18.1470  -26.8880   20.9610 C   0  0  0  0  0  2  0  0  0  0  0  0
  -19.4390  -28.2590   22.6960 C   0  0  0  0  0  0  0  0  0  0  0  0
  -19.4360  -29.2140   23.7360 C   0  0  0  0  0  3  0  0  0  0  0  0
  -18.2320  -29.7780   24.1960 C   0  0  0  0  0  3  0  0  0  0  0  0
  -17.0120  -29.3860   23.6210 C   0  0  0  0  0  3  0  0  0  0  0  0
  -16.9970  -28.4420   22.5790 C   0  0  0  0  0  3  0  0  0  0  0  0
  -26.8750  -30.2310   23.7640 C   0  0  0  0  0  3  0  0  0  0  0  0
  -26.8800  -31.3020   24.7690 N   0  0  0  0  0  0  0  0  0  0  0  0
  -27.4630  -32.4970   24.6050 C   0  0  0  0  0  0  0  0  0  0  0  0
  -28.1210  -32.7900   23.6040 O   0  0  0  0  0  0  0  0  0  0  0  0
  -26.3090  -31.1560   25.5890 H   0  0  0  0  0  0  0  0  0  0  0  0
  -26.2110  -34.5570   25.3260 C   0  0  0  0  0  1  0  0  0  0  0  0
  -27.2850  -33.5350   25.7310 C   0  0  0  0  0  3  0  0  0  0  0  0
  -29.5180  -33.3790   26.7390 C   0  0  0  0  0  1  0  0  0  0  0  0
  -28.5360  -34.2390   26.0830 N   0  0  0  0  0  0  0  0  0  0  0  0
  -28.3470  -35.0280   26.6960 H   0  0  0  0  0  0  0  0  0  0  0  0
  -27.3530  -28.8690   24.4030 C   0  0  1  0  0  0  0  0  0  0  0  0
  -26.3490  -28.2740   25.4170 C   0  0  0  0  0  1  0  0  0  0  0  0
  -27.6010  -27.8060   23.3070 C   0  0  0  0  0  1  0  0  0  0  0  0
  -28.7050  -29.0750   25.1270 C   0  0  0  0  0  1  0  0  0  0  0  0
  -30.6300  -19.9730   22.2400 N   0  0  0  0  0  0  0  0  0  0  0  0
  -30.7160  -19.1290   22.7960 H   0  0  0  0  0  0  0  0  0  0  0  0
  -32.5400  -21.4760   22.6180 C   0  0  0  0  0  1  0  0  0  0  0  0
  -31.0400  -21.2130   22.8900 C   0  0  0  0  0  3  0  0  0  0  0  0
  -29.1820  -20.7930   24.5910 C   0  0  0  0  0  1  0  0  0  0  0  0
  -31.5570  -20.2680   25.2380 C   0  0  0  0  0  1  0  0  0  0  0  0
  -30.7990  -22.6370   24.9710 C   0  0  0  0  0  1  0  0  0  0  0  0
  -30.6590  -21.2120   24.4060 C   0  0  1  0  0  0  0  0  0  0  0  0
  -31.0530  -17.6450   20.1830 C   0  0  0  0  0  2  0  0  0  0  0  0
  -31.1490  -15.2850   20.9280 C   0  0  0  0  0  0  0  0  0  0  0  0
  -31.0170  -12.8580   20.5390 C   0  0  0  0  0  2  0  0  0  0  0  0
  -30.3030  -12.6100   19.1960 C   0  0  0  0  0  2  0  0  0  0  0  0
  -28.7830  -12.5220   19.4130 C   0  0  0  0  0  2  0  0  0  0  0  0
  -28.2250  -13.7000   20.2540 C   0  0  0  0  0  3  0  0  0  0  0  0
  -29.0790  -13.9530   21.5170 C   0  0  0  0  0  2  0  0  0  0  0  0
  -30.4760  -14.1130   21.0920 N   0  0  0  0  0  0  0  0  0  0  0  0
  -32.3640  -15.3100   20.7270 O   0  0  0  0  0  0  0  0  0  0  0  0
  -30.4240  -16.4170   20.7460 N   0  0  0  0  0  0  0  0  0  0  0  0
  -29.4240  -16.3920   20.8630 H   0  0  0  0  0  0  0  0  0  0  0  0
  -25.8280  -14.4520   20.8070 C   0  0  0  0  0  0  0  0  0  0  0  0
  -24.6680  -13.7520   20.9980 C   0  0  0  0  0  0  0  0  0  0  0  0
  -25.0150  -12.3710   20.8650 C   0  0  0  0  0  0  0  0  0  0  0  0
  -26.8140  -13.5030   20.5840 N   0  0  0  0  0  0  0  0  0  0  0  0
  -26.3220  -12.2420   20.6790 N   0  0  0  0  0  0  0  0  0  0  0  0
  -24.1670  -11.1720   20.8480 C   0  0  0  0  0  0  0  0  0  0  0  0
  -24.4890  -10.0270   21.6090 C   0  0  0  0  0  3  0  0  0  0  0  0
  -23.6480   -8.8930   21.5890 C   0  0  0  0  0  3  0  0  0  0  0  0
  -22.4710   -8.8960   20.8040 C   0  0  0  0  0  0  0  0  0  0  0  0
  -22.1670  -10.0310   20.0300 C   0  0  0  0  0  3  0  0  0  0  0  0
  -23.0090  -11.1550   20.0470 C   0  0  0  0  0  3  0  0  0  0  0  0
  -21.6100   -7.8300   20.7040 O   0  0  0  0  0  0  0  0  0  0  0  0
  -21.5840   -6.8330   21.6460 C   0  0  0  0  0  0  0  0  0  0  0  0
  -21.3130   -7.1000   23.0060 C   0  0  0  0  0  3  0  0  0  0  0  0
  -21.2300   -6.0370   23.9280 C   0  0  0  0  0  3  0  0  0  0  0  0
  -21.4050   -4.7090   23.4930 C   0  0  0  0  0  0  0  0  0  0  0  0
  -21.6660   -4.4420   22.1390 C   0  0  0  0  0  3  0  0  0  0  0  0
  -21.7520   -5.5000   21.2160 C   0  0  0  0  0  0  0  0  0  0  0  0
  -21.9850   -5.2340   19.9090 F   0  0  0  0  0  0  0  0  0  0  0  0
  -21.3180   -3.6900   24.3780 F   0  0  0  0  0  0  0  0  0  0  0  0
  -23.2960  -14.3310   21.1890 C   0  0  0  0  0  0  0  0  0  0  0  0
  -22.4310  -13.6370   21.9180 N   0  0  0  0  0  0  0  0  0  0  0  0
  -23.0010  -15.4340   20.7300 O   0  0  0  0  0  0  0  0  0  0  0  0
  -22.6760  -12.7390   22.3100 H   0  0  0  0  0  0  0  0  0  0  0  0
  -21.5080  -14.0080   22.0900 H   0  0  0  0  0  0  0  0  0  0  0  0
  -26.1210  -15.8120   20.7740 N   0  0  0  0  0  0  0  0  0  0  0  0
  -25.3880  -16.5120   20.8230 H   0  0  0  0  0  0  0  0  0  0  0  0
  -27.0120  -16.1990   20.4870 H   0  0  0  0  0  0  0  0  0  0  0  0
  1 61  1  0
  1  2  2  0
  2 53  1  0
  3  4  2  0
  3  6  1  0
  4  1  1  0
  5  3  1  0
  6  2  1  0
  7  5  1  0
  9  5  1  0
  9  8  1  0
  9 10  1  0
 10 11  1  0
 12 14  1  0
 12 11  1  0
 13 24  2  0
 14 19  1  0
 15 23  1  0
 15 25  1  0
 16 18  1  0
 16 22  1  0
 17 23  1  0
 18 17  1  0
 19 18  2  0
 20 21  1  0
 20 14  2  0
 21 16  2  0
 22 15  1  0
 23 13  1  0
 25 27  2  0
 26 25  1  0
 28 26  1  0
 29 38  2  0
 29 34  1  0
 30 26  1  0
 30 34  1  0
 31 30  1  0
 32 33  1  0
 32 31  1  0
 33 29  1  0
 34 35  2  0
 35 36  1  0
 37 36  2  0
 38 37  1  0
 39 13  1  0
 39 49  1  0
 39 40  1  0
 40 43  1  0
 41 40  1  0
 41 45  1  0
 42 41  2  0
 45 44  1  0
 45 47  1  0
 47 48  1  0
 47 46  1  0
 49 52  1  1
 49 50  1  0
 51 49  1  0
 53 54  1  0
 53 56  1  0
 56 55  1  0
 56 60  1  0
 60 57  1  6
 60 59  1  0
 60 58  1  0
 61 70  1  0
 62 68  1  0
 63 68  1  0
 64 65  1  0
 64 63  1  0
 66 65  1  0
 66 75  1  0
 66 67  1  0
 68 67  1  0
 69 62  2  0
 70 71  1  0
 70 62  1  0
 72 73  2  0
 73 92  1  0
 74 73  1  0
 75 76  1  0
 75 72  1  0
 76 74  2  0
 77 74  1  0
 77 78  1  0
 79 78  2  0
 80 79  1  0
 81 82  1  0
 81 80  2  0
 82 77  2  0
 83 80  1  0
 83 84  1  0
 84 85  1  0
 85 86  2  0
 87 86  1  0
 87 91  1  0
 88 87  2  0
 89 84  2  0
 89 88  1  0
 90 89  1  0
 92 93  1  0
 93 96  1  0
 93 95  1  0
 94 92  2  0
 97 72  1  0
 97 98  1  0
 99 97  1  0
M  ISO  4  11 101  12 101  62 100  70 100
M  END
>  <TORSDO>  (86) 
F 23

>  <SCORE>  (86) 
-4.962

>  <name>  (86) 
85

>  <ligand_id>  (86) 
85

>  <original_smiles>  (86) 
[H]c1c([H])c([H])c2c(c1[H])C([H])([H])C([H])([H])C([H])([H])C2([H])N([H])C(=O)C1([H])N(C(=O)C([H])(N([H])C(=O)C([H])(N([H])C([H])([H])[H])C([H])([H])[H])C(C([H])([H])[H])(C([H])([H])[H])C([H])([H])[H])C([H])([H])c2c([H])c(OC([H])([H])C([H])([H])C([H])(N([H])c3nc(C([H])([H])N([H])C(=O)N4C([H])([H])C([H])([H])C([H])([H])C([H])(n5nc(-c6c([H])c([H])c(Oc7c([H])c([H])c(F)c([H])c7F)c([H])c6[H])c(C(=O)N([H])[H])c5N([H])[H])C4([H])[H])c(N([H])C([H])(C([H])([H])[H])C(C([H])([H])[H])(C([H])([H])[H])C([H])([H])[H])s3)C([H])([H])[H])c([H])c([H])c2C1([H])[H]

>  <smiles>  (86) 
[H]c1c([H])c([H])c2c(c1[H])C([H])([H])C([H])([H])C([H])([H])C2([H])N([H])C(=O)C1([H])N(C(=O)C([H])(N([H])C(=O)C([H])(N([H])C([H])([H])[H])C([H])([H])[H])C(C([H])([H])[H])(C([H])([H])[H])C([H])([H])[H])C([H])([H])c2c([H])c(OC([H])([H])C([H])([H])C([H])(N([H])c3nc(C([H])([H])N([H])C(=O)N4C([H])([H])C([H])([H])C([H])([H])C([H])(n5nc(-c6c([H])c([H])c(Oc7c([H])c([H])c(F)c([H])c7F)c([H])c6[H])c(C(=O)N([H])[H])c5N([H])[H])C4([H])[H])c(N([H])C([H])(C([H])([H])[H])C(C([H])([H])[H])(C([H])([H])[H])C([H])([H])[H])s3)C([H])([H])[H])c([H])c([H])c2C1([H])[H]

$$$$
86:0:0
     RDKit          3D

 96104  0  0  1  0  0  0  0  0999 V2000
  -31.2770  -21.3810   20.3270 C   0  0  0  0  0  2  0  0  0  0  0  0
  -31.3100  -22.4270   22.7180 C   0  0  0  0  0  1  0  0  0  0  0  0
  -30.5730  -22.3420   21.3620 C   0  0  0  0  0  3  0  0  0  0  0  0
  -30.3720  -23.8140   20.8360 C   0  0  0  0  0  2  0  0  0  0  0  0
  -29.0250  -24.1610   20.1440 C   0  0  0  0  0  3  0  0  0  0  0  0
  -27.9510  -24.0990   21.0690 O   0  0  0  0  0  0  0  0  0  0  0  0
  -27.2230  -24.5910   20.7030 H   0  0  0  0  0  0  0  0  0  0  0  0
  -28.9920  -25.5320   19.3910 C   0  0  0  0  0  2  0  0  0  0  0  0
  -28.7750  -26.7100   20.2070 O   0  0  0  0  0  0  0  0  0  0  0  0
  -24.7380  -31.7740   23.2290 C   0  0  0  0  0  0  0  0  0  0  0  0
  -27.5570  -27.3820   20.1810 C   0  0  0  0  0  0  0  0  0  0  0  0
  -23.5940  -30.3280   21.5820 C   0  0  0  0  0  3  0  0  0  0  0  0
  -25.1080  -28.8330   20.1760 C   0  0  0  0  0  0  0  0  0  0  0  0
  -26.1130  -30.7570   21.4100 C   0  0  0  0  0  2  0  0  0  0  0  0
  -26.2460  -29.3880   20.7720 C   0  0  0  0  0  0  0  0  0  0  0  0
  -27.4670  -28.6690   20.7720 C   0  0  0  0  0  3  0  0  0  0  0  0
  -26.3820  -26.8420   19.6030 C   0  0  0  0  0  3  0  0  0  0  0  0
  -25.1710  -27.5590   19.5930 C   0  0  0  0  0  3  0  0  0  0  0  0
  -23.8380  -29.6540   20.2060 C   0  0  0  0  0  2  0  0  0  0  0  0
  -24.8330  -30.9710   22.1310 N   0  0  0  0  0  0  0  0  0  0  0  0
  -23.6440  -32.0110   23.7600 O   0  0  0  0  0  0  0  0  0  0  0  0
  -22.9710  -29.2870   22.5410 C   0  0  0  0  0  0  0  0  0  0  0  0
  -21.6570  -29.0480   22.3930 N   0  0  0  0  0  0  0  0  0  0  0  0
  -23.6660  -28.6980   23.3720 O   0  0  0  0  0  0  0  0  0  0  0  0
  -21.1560  -29.5790   21.6940 H   0  0  0  0  0  0  0  0  0  0  0  0
  -18.3260  -27.7250   22.8540 C   0  0  0  0  0  0  0  0  0  0  0  0
  -20.8670  -28.0840   23.1600 C   0  0  0  0  0  3  0  0  0  0  0  0
  -21.0340  -26.6540   22.5960 C   0  0  0  0  0  2  0  0  0  0  0  0
  -19.9610  -26.2820   21.5690 C   0  0  0  0  0  2  0  0  0  0  0  0
  -18.5650  -26.3780   22.1910 C   0  0  0  0  0  2  0  0  0  0  0  0
  -19.4080  -28.5330   23.2950 C   0  0  0  0  0  0  0  0  0  0  0  0
  -19.1320  -29.7900   23.8740 C   0  0  0  0  0  3  0  0  0  0  0  0
  -17.8060  -30.2430   24.0150 C   0  0  0  0  0  3  0  0  0  0  0  0
  -16.7390  -29.4330   23.5900 C   0  0  0  0  0  3  0  0  0  0  0  0
  -17.0000  -28.1760   23.0170 C   0  0  0  0  0  3  0  0  0  0  0  0
  -25.9960  -32.4500   23.8550 C   0  0  0  0  0  3  0  0  0  0  0  0
  -25.6350  -33.8340   24.1900 N   0  0  0  0  0  0  0  0  0  0  0  0
  -25.9240  -34.9000   23.4320 C   0  0  0  0  0  0  0  0  0  0  0  0
  -26.5940  -34.8250   22.3980 O   0  0  0  0  0  0  0  0  0  0  0  0
  -25.0430  -33.9640   24.9970 H   0  0  0  0  0  0  0  0  0  0  0  0
  -24.1230  -36.6170   23.0880 C   0  0  0  0  0  1  0  0  0  0  0  0
  -25.3830  -36.2660   23.8930 C   0  0  0  0  0  3  0  0  0  0  0  0
  -27.4810  -37.2380   24.7170 C   0  0  0  0  0  1  0  0  0  0  0  0
  -26.3710  -37.3600   23.7770 N   0  0  0  0  0  0  0  0  0  0  0  0
  -25.9270  -38.2640   23.9260 H   0  0  0  0  0  0  0  0  0  0  0  0
  -26.5410  -31.6950   25.1310 C   0  0  1  0  0  0  0  0  0  0  0  0
  -25.4520  -31.3990   26.1880 C   0  0  0  0  0  1  0  0  0  0  0  0
  -27.1890  -30.3490   24.7310 C   0  0  0  0  0  1  0  0  0  0  0  0
  -27.6490  -32.5370   25.8080 C   0  0  0  0  0  1  0  0  0  0  0  0
  -32.0450  -20.0990   20.8380 C   0  0  0  0  0  3  0  0  0  0  0  0
  -31.0770  -14.4910   20.0490 C   0  0  0  0  0  0  0  0  0  0  0  0
  -30.7130  -12.3800   18.7910 C   0  0  0  0  0  2  0  0  0  0  0  0
  -29.6490  -12.6120   17.6970 C   0  0  0  0  0  2  0  0  0  0  0  0
  -28.2200  -12.4450   18.2560 C   0  0  0  0  0  2  0  0  0  0  0  0
  -28.0060  -13.2410   19.5700 C   0  0  0  0  0  3  0  0  0  0  0  0
  -29.1510  -12.9410   20.5600 C   0  0  0  0  0  2  0  0  0  0  0  0
  -30.4280  -13.2990   19.9040 N   0  0  0  0  0  0  0  0  0  0  0  0
  -32.0910  -14.7850   19.4040 O   0  0  0  0  0  0  0  0  0  0  0  0
  -31.1760  -18.9040   21.2300 C   0  0  0  0  0  0  0  0  0  0  0  0
  -30.2420  -18.8830   22.2360 C   0  0  0  0  0  0  0  0  0  0  0  0
  -30.5350  -16.6890   21.2360 C   0  0  0  0  0  0  0  0  0  0  0  0
  -31.2820  -17.6250   20.6160 N   0  0  0  0  0  0  0  0  0  0  0  0
  -30.4880  -15.2930   20.9560 N   0  0  0  0  0  0  0  0  0  0  0  0
  -29.9160  -19.9500   23.0030 F   0  0  0  0  0  0  0  0  0  0  0  0
  -29.5190  -17.3350   22.5190 S   0  0  0  0  0  0  0  0  0  0  0  0
  -29.7700  -14.8080   21.4690 H   0  0  0  0  0  0  0  0  0  0  0  0
  -25.7020  -13.8540   20.5520 C   0  0  0  0  0  0  0  0  0  0  0  0
  -24.6550  -13.0810   20.9760 C   0  0  0  0  0  0  0  0  0  0  0  0
  -25.0730  -11.7260   20.8080 C   0  0  0  0  0  0  0  0  0  0  0  0
  -26.6950  -12.9690   20.1590 N   0  0  0  0  0  0  0  0  0  0  0  0
  -26.3230  -11.6800   20.3660 N   0  0  0  0  0  0  0  0  0  0  0  0
  -24.3360  -10.4690   20.9880 C   0  0  0  0  0  0  0  0  0  0  0  0
  -24.7440   -9.5040   21.9360 C   0  0  0  0  0  3  0  0  0  0  0  0
  -24.0090   -8.3090   22.1020 C   0  0  0  0  0  3  0  0  0  0  0  0
  -22.8530   -8.0730   21.3220 C   0  0  0  0  0  0  0  0  0  0  0  0
  -22.4650   -9.0270   20.3640 C   0  0  0  0  0  3  0  0  0  0  0  0
  -23.1990  -10.2120   20.1960 C   0  0  0  0  0  3  0  0  0  0  0  0
  -22.0920   -6.9320   21.3960 O   0  0  0  0  0  0  0  0  0  0  0  0
  -21.8860   -6.2820   22.5860 C   0  0  0  0  0  0  0  0  0  0  0  0
  -21.3180   -6.9340   23.7030 C   0  0  0  0  0  3  0  0  0  0  0  0
  -21.0590   -6.2100   24.8840 C   0  0  0  0  0  3  0  0  0  0  0  0
  -21.3560   -4.8350   24.9480 C   0  0  0  0  0  0  0  0  0  0  0  0
  -21.9160   -4.1840   23.8360 C   0  0  0  0  0  3  0  0  0  0  0  0
  -22.1770   -4.9050   22.6570 C   0  0  0  0  0  0  0  0  0  0  0  0
  -22.6970   -4.2670   21.5810 F   0  0  0  0  0  0  0  0  0  0  0  0
  -21.1000   -4.1380   26.0790 F   0  0  0  0  0  0  0  0  0  0  0  0
  -23.3050  -13.5670   21.4220 C   0  0  0  0  0  0  0  0  0  0  0  0
  -22.6690  -12.8510   22.3420 N   0  0  0  0  0  0  0  0  0  0  0  0
  -22.8280  -14.6140   20.9890 O   0  0  0  0  0  0  0  0  0  0  0  0
  -23.0690  -12.0010   22.7120 H   0  0  0  0  0  0  0  0  0  0  0  0
  -21.7680  -13.1570   22.6840 H   0  0  0  0  0  0  0  0  0  0  0  0
  -25.8870  -15.2300   20.4520 N   0  0  0  0  0  0  0  0  0  0  0  0
  -25.1520  -15.8900   20.6850 H   0  0  0  0  0  0  0  0  0  0  0  0
  -26.7070  -15.6740   20.0580 H   0  0  0  0  0  0  0  0  0  0  0  0
  -34.3240  -18.8690   20.5210 C   0  0  0  0  0  1  0  0  0  0  0  0
  -33.2020  -19.7080   19.8760 C   0  0  0  0  0  2  0  0  0  0  0  0
  1 50  1  0
  1  3  1  0
  3  2  1  0
  4  3  1  0
  5  8  1  0
  5  4  1  0
  5  6  1  0
  7  6  1  0
  8  9  1  0
 10 21  2  0
 11  9  1  0
 11 16  1  0
 12 20  1  0
 12 22  1  0
 13 19  1  0
 13 15  1  0
 14 20  1  0
 15 16  2  0
 15 14  1  0
 17 11  2  0
 18 17  1  0
 18 13  2  0
 19 12  1  0
 20 10  1  0
 22 24  2  0
 23 22  1  0
 25 23  1  0
 26 35  2  0
 26 31  1  0
 27 23  1  0
 27 31  1  0
 28 27  1  0
 29 30  1  0
 29 28  1  0
 30 26  1  0
 31 32  2  0
 32 33  1  0
 34 33  2  0
 35 34  1  0
 36 10  1  0
 36 37  1  0
 36 46  1  0
 37 40  1  0
 38 42  1  0
 38 37  1  0
 39 38  2  0
 42 41  1  0
 44 42  1  0
 44 45  1  0
 44 43  1  0
 46 49  1  1
 46 47  1  0
 48 46  1  0
 50 96  1  0
 50 59  1  0
 51 63  1  0
 52 57  1  0
 53 54  1  0
 53 52  1  0
 55 54  1  0
 55 70  1  0
 55 56  1  0
 57 51  1  0
 57 56  1  0
 58 51  2  0
 59 60  2  0
 60 65  1  0
 60 64  1  0
 61 65  1  0
 62 59  1  0
 62 61  2  0
 63 61  1  0
 63 66  1  0
 67 68  2  0
 68 87  1  0
 69 68  1  0
 69 72  1  0
 70 71  1  0
 70 67  1  0
 71 69  2  0
 72 73  1  0
 73 74  2  0
 75 78  1  0
 75 74  1  0
 76 75  2  0
 77 76  1  0
 77 72  2  0
 78 79  1  0
 79 84  2  0
 79 80  1  0
 80 81  2  0
 81 82  1  0
 82 86  1  0
 83 82  2  0
 84 83  1  0
 85 84  1  0
 87 88  1  0
 88 91  1  0
 88 90  1  0
 89 87  2  0
 92 67  1  0
 92 93  1  0
 94 92  1  0
 96 95  1  0
M  ISO  4   8 101   9 101  51 100  63 100
M  END
>  <TORSDO>  (87) 
F 23

>  <SCORE>  (87) 
-9.517

>  <name>  (87) 
86

>  <ligand_id>  (87) 
86

>  <original_smiles>  (87) 
[H]OC([H])(C([H])([H])Oc1c([H])c([H])c2c(c1[H])C([H])([H])N(C(=O)C([H])(N([H])C(=O)C([H])(N([H])C([H])([H])[H])C([H])([H])[H])C(C([H])([H])[H])(C([H])([H])[H])C([H])([H])[H])C([H])(C(=O)N([H])C1([H])c3c([H])c([H])c([H])c([H])c3C([H])([H])C([H])([H])C1([H])[H])C2([H])[H])C([H])([H])C([H])(C([H])([H])[H])C([H])([H])C([H])(c1nc(N([H])C(=O)N2C([H])([H])C([H])([H])C([H])([H])C([H])(n3nc(-c4c([H])c([H])c(Oc5c([H])c([H])c(F)c([H])c5F)c([H])c4[H])c(C(=O)N([H])[H])c3N([H])[H])C2([H])[H])sc1F)C([H])([H])C([H])([H])[H]

>  <smiles>  (87) 
[H]OC([H])(C([H])([H])Oc1c([H])c([H])c2c(c1[H])C([H])([H])N(C(=O)C([H])(N([H])C(=O)C([H])(N([H])C([H])([H])[H])C([H])([H])[H])C(C([H])([H])[H])(C([H])([H])[H])C([H])([H])[H])C([H])(C(=O)N([H])C1([H])c3c([H])c([H])c([H])c([H])c3C([H])([H])C([H])([H])C1([H])[H])C2([H])[H])C([H])([H])C([H])(C([H])([H])[H])C([H])([H])C([H])(c1nc(N([H])C(=O)N2C([H])([H])C([H])([H])C([H])([H])C([H])(n3nc(-c4c([H])c([H])c(Oc5c([H])c([H])c(F)c([H])c5F)c([H])c4[H])c(C(=O)N([H])[H])c3N([H])[H])C2([H])[H])sc1F)C([H])([H])C([H])([H])[H]

$$$$
87:0:0
     RDKit          3D

 97105  0  0  1  0  0  0  0  0999 V2000
  -31.2290  -23.0190   21.2260 C   0  0  0  0  0  3  0  0  0  0  0  0
  -30.8310  -21.5960   20.9860 N   0  0  0  0  0  4  0  0  0  0  0  0
  -29.8270  -21.5260   20.9510 H   0  0  0  0  0  0  0  0  0  0  0  0
  -31.1840  -21.3020   20.0910 H   0  0  0  0  0  0  0  0  0  0  0  0
  -31.2680  -20.6260   22.0260 C   0  0  0  0  0  2  0  0  0  0  0  0
  -30.7260  -14.4920   20.1250 C   0  0  0  0  0  0  0  0  0  0  0  0
  -30.2510  -12.4030   18.8990 C   0  0  0  0  0  2  0  0  0  0  0  0
  -29.2440  -12.6660   17.7610 C   0  0  0  0  0  2  0  0  0  0  0  0
  -27.8020  -12.5220   18.2800 C   0  0  0  0  0  2  0  0  0  0  0  0
  -27.5540  -13.3180   19.5900 C   0  0  0  0  0  3  0  0  0  0  0  0
  -28.6780  -13.0730   20.6250 C   0  0  0  0  0  2  0  0  0  0  0  0
  -29.9740  -13.3620   19.9830 N   0  0  0  0  0  0  0  0  0  0  0  0
  -31.7620  -14.6540   19.4720 O   0  0  0  0  0  0  0  0  0  0  0  0
  -32.3360  -18.4460   21.1790 C   0  0  0  0  0  3  0  0  0  0  0  0
  -31.2500  -19.1750   21.6010 C   0  0  0  0  0  0  0  0  0  0  0  0
  -30.7770  -16.7710   21.1420 C   0  0  0  0  0  0  0  0  0  0  0  0
  -32.0610  -17.0950   20.9340 N   0  0  0  0  0  0  0  0  0  0  0  0
  -30.2530  -15.4510   20.9480 N   0  0  0  0  0  0  0  0  0  0  0  0
  -29.8210  -18.1520   21.7020 S   0  0  0  0  0  0  0  0  0  0  0  0
  -29.3690  -15.2540   21.3930 H   0  0  0  0  0  0  0  0  0  0  0  0
  -25.2040  -13.9010   20.4650 C   0  0  0  0  0  0  0  0  0  0  0  0
  -24.1590  -13.1200   20.8810 C   0  0  0  0  0  0  0  0  0  0  0  0
  -24.6140  -11.7690   20.7830 C   0  0  0  0  0  0  0  0  0  0  0  0
  -26.2310  -13.0260   20.1460 N   0  0  0  0  0  0  0  0  0  0  0  0
  -25.8830  -11.7370   20.3930 N   0  0  0  0  0  0  0  0  0  0  0  0
  -23.8970  -10.5020   20.9850 C   0  0  0  0  0  0  0  0  0  0  0  0
  -24.3630   -9.5240   21.8930 C   0  0  0  0  0  3  0  0  0  0  0  0
  -23.6450   -8.3240   22.0830 C   0  0  0  0  0  3  0  0  0  0  0  0
  -22.4470   -8.0910   21.3680 C   0  0  0  0  0  0  0  0  0  0  0  0
  -22.0000   -9.0580   20.4490 C   0  0  0  0  0  3  0  0  0  0  0  0
  -22.7190  -10.2500   20.2560 C   0  0  0  0  0  3  0  0  0  0  0  0
  -21.6980   -6.9440   21.4700 O   0  0  0  0  0  0  0  0  0  0  0  0
  -21.6620   -6.2100   22.6280 C   0  0  0  0  0  0  0  0  0  0  0  0
  -21.2520   -6.7720   23.8560 C   0  0  0  0  0  3  0  0  0  0  0  0
  -21.1620   -5.9640   25.0070 C   0  0  0  0  0  3  0  0  0  0  0  0
  -21.4720   -4.5930   24.9320 C   0  0  0  0  0  0  0  0  0  0  0  0
  -21.8730   -4.0280   23.7070 C   0  0  0  0  0  3  0  0  0  0  0  0
  -21.9650   -4.8350   22.5580 C   0  0  0  0  0  0  0  0  0  0  0  0
  -22.3330   -4.2810   21.3780 F   0  0  0  0  0  0  0  0  0  0  0  0
  -21.3790   -3.8140   26.0350 F   0  0  0  0  0  0  0  0  0  0  0  0
  -22.7820  -13.5910   21.2550 C   0  0  0  0  0  0  0  0  0  0  0  0
  -22.1080  -12.8740   22.1470 N   0  0  0  0  0  0  0  0  0  0  0  0
  -22.3160  -14.6310   20.7910 O   0  0  0  0  0  0  0  0  0  0  0  0
  -22.4950  -12.0310   22.5450 H   0  0  0  0  0  0  0  0  0  0  0  0
  -21.1860  -13.1700   22.4330 H   0  0  0  0  0  0  0  0  0  0  0  0
  -25.3610  -15.2750   20.3150 N   0  0  0  0  0  0  0  0  0  0  0  0
  -24.6110  -15.9330   20.4980 H   0  0  0  0  0  0  0  0  0  0  0  0
  -26.1970  -15.7190   19.9540 H   0  0  0  0  0  0  0  0  0  0  0  0
  -32.7340  -23.2570   20.9210 C   0  0  0  0  0  2  0  0  0  0  0  0
  -34.5990  -23.5180   19.1950 C   0  0  0  0  0  1  0  0  0  0  0  0
  -33.1720  -23.0120   19.4610 C   0  0  0  0  0  2  0  0  0  0  0  0
  -30.3540  -24.0660   20.4670 C   0  0  0  0  0  2  0  0  0  0  0  0
  -28.9280  -24.2770   21.0190 C   0  0  0  0  0  3  0  0  0  0  0  0
  -28.9220  -24.7270   22.3640 O   0  0  0  0  0  0  0  0  0  0  0  0
  -28.0130  -24.8750   22.6150 H   0  0  0  0  0  0  0  0  0  0  0  0
  -28.0040  -25.1850   20.1720 C   0  0  0  0  0  2  0  0  0  0  0  0
  -28.2570  -26.6140   20.2430 O   0  0  0  0  0  0  0  0  0  0  0  0
  -24.5230  -31.9050   23.2380 C   0  0  0  0  0  0  0  0  0  0  0  0
  -27.1320  -27.4230   20.1660 C   0  0  0  0  0  0  0  0  0  0  0  0
  -23.3200  -30.5250   21.5790 C   0  0  0  0  0  3  0  0  0  0  0  0
  -24.7680  -28.9910   20.1530 C   0  0  0  0  0  0  0  0  0  0  0  0
  -25.8560  -30.8460   21.4170 C   0  0  0  0  0  2  0  0  0  0  0  0
  -25.9290  -29.4800   20.7640 C   0  0  0  0  0  0  0  0  0  0  0  0
  -27.1140  -28.7030   20.7710 C   0  0  0  0  0  3  0  0  0  0  0  0
  -25.9600  -26.9860   19.5010 C   0  0  0  0  0  3  0  0  0  0  0  0
  -24.7820  -27.7450   19.5120 C   0  0  0  0  0  3  0  0  0  0  0  0
  -23.5330  -29.8570   20.1960 C   0  0  0  0  0  2  0  0  0  0  0  0
  -24.5830  -31.1080   22.1340 N   0  0  0  0  0  0  0  0  0  0  0  0
  -23.4380  -32.1860   23.7670 O   0  0  0  0  0  0  0  0  0  0  0  0
  -22.6500  -29.5030   22.5290 C   0  0  0  0  0  0  0  0  0  0  0  0
  -21.3300  -29.3100   22.3630 N   0  0  0  0  0  0  0  0  0  0  0  0
  -23.3130  -28.8890   23.3670 O   0  0  0  0  0  0  0  0  0  0  0  0
  -20.8540  -29.8620   21.6640 H   0  0  0  0  0  0  0  0  0  0  0  0
  -17.9570  -28.0620   22.7410 C   0  0  0  0  0  0  0  0  0  0  0  0
  -20.4960  -28.3710   23.1170 C   0  0  0  0  0  3  0  0  0  0  0  0
  -20.6460  -26.9300   22.5750 C   0  0  0  0  0  2  0  0  0  0  0  0
  -19.5940  -26.5690   21.5220 C   0  0  0  0  0  2  0  0  0  0  0  0
  -18.1840  -26.7030   22.1020 C   0  0  0  0  0  2  0  0  0  0  0  0
  -19.0440  -28.8520   23.2030 C   0  0  0  0  0  0  0  0  0  0  0  0
  -18.7770  -30.1250   23.7560 C   0  0  0  0  0  3  0  0  0  0  0  0
  -17.4560  -30.6040   23.8550 C   0  0  0  0  0  3  0  0  0  0  0  0
  -16.3850  -29.8100   23.4100 C   0  0  0  0  0  3  0  0  0  0  0  0
  -16.6360  -28.5430   22.8570 C   0  0  0  0  0  3  0  0  0  0  0  0
  -25.8080  -32.5190   23.8720 C   0  0  0  0  0  3  0  0  0  0  0  0
  -25.5090  -33.9180   24.2110 N   0  0  0  0  0  0  0  0  0  0  0  0
  -25.8530  -34.9740   23.4610 C   0  0  0  0  0  0  0  0  0  0  0  0
  -26.5300  -34.8720   22.4350 O   0  0  0  0  0  0  0  0  0  0  0  0
  -24.9120  -34.0720   25.0110 H   0  0  0  0  0  0  0  0  0  0  0  0
  -24.1420  -36.7810   23.1050 C   0  0  0  0  0  1  0  0  0  0  0  0
  -25.3700  -36.3610   23.9260 C   0  0  0  0  0  3  0  0  0  0  0  0
  -27.5000  -37.2270   24.7900 C   0  0  0  0  0  1  0  0  0  0  0  0
  -26.4110  -37.4050   23.8310 N   0  0  0  0  0  0  0  0  0  0  0  0
  -26.0090  -38.3280   23.9730 H   0  0  0  0  0  0  0  0  0  0  0  0
  -26.3120  -31.7310   25.1430 C   0  0  1  0  0  0  0  0  0  0  0  0
  -25.2120  -31.4940   26.2010 C   0  0  0  0  0  1  0  0  0  0  0  0
  -26.8830  -30.3520   24.7410 C   0  0  0  0  0  1  0  0  0  0  0  0
  -27.4660  -32.5100   25.8170 C   0  0  0  0  0  1  0  0  0  0  0  0
  1 52  1  0
  2  1  1  0
  2  5  1  0
  3  2  1  0
  4  2  1  0
  6 18  1  0
  7 12  1  0
  8  9  1  0
  8  7  1  0
 10  9  1  0
 10 24  1  0
 10 11  1  0
 12  6  1  0
 12 11  1  0
 13  6  2  0
 14 15  2  0
 15 19  1  0
 15  5  1  0
 16 19  1  0
 17 16  2  0
 17 14  1  0
 18 16  1  0
 18 20  1  0
 21 22  2  0
 22 41  1  0
 23 22  1  0
 23 26  1  0
 24 25  1  0
 24 21  1  0
 25 23  2  0
 26 27  1  0
 27 28  2  0
 29 32  1  0
 29 28  1  0
 30 29  2  0
 31 30  1  0
 31 26  2  0
 32 33  1  0
 33 34  1  0
 34 35  2  0
 36 35  1  0
 36 40  1  0
 37 36  2  0
 38 33  2  0
 38 37  1  0
 39 38  1  0
 41 42  1  0
 42 45  1  0
 42 44  1  0
 43 41  2  0
 46 21  1  0
 46 47  1  0
 48 46  1  0
 49  1  1  0
 50 51  1  0
 51 49  1  0
 52 53  1  0
 53 56  1  0
 53 54  1  0
 54 55  1  0
 56 57  1  0
 58 69  2  0
 59 57  1  0
 59 64  1  0
 60 68  1  0
 60 70  1  0
 61 67  1  0
 61 63  1  0
 62 68  1  0
 63 64  2  0
 63 62  1  0
 65 66  1  0
 65 59  2  0
 66 61  2  0
 67 60  1  0
 68 58  1  0
 70 72  2  0
 71 70  1  0
 73 71  1  0
 74 83  2  0
 74 79  1  0
 75 71  1  0
 75 79  1  0
 76 75  1  0
 77 78  1  0
 77 76  1  0
 78 74  1  0
 79 80  2  0
 80 81  1  0
 82 81  2  0
 83 82  1  0
 84 58  1  0
 84 85  1  0
 84 94  1  0
 85 88  1  0
 86 90  1  0
 86 85  1  0
 87 86  2  0
 90 89  1  0
 92 90  1  0
 92 93  1  0
 92 91  1  0
 94 97  1  1
 94 95  1  0
 96 94  1  0
M  ISO  4   6 100  18 100  56 101  57 101
M  END
>  <TORSDO>  (88) 
F 24

>  <SCORE>  (88) 
-11.717

>  <name>  (88) 
87

>  <ligand_id>  (88) 
87

>  <original_smiles>  (88) 
[H]OC([H])(C([H])([H])Oc1c([H])c([H])c2c(c1[H])C([H])([H])N(C(=O)C([H])(N([H])C(=O)C([H])(N([H])C([H])([H])[H])C([H])([H])[H])C(C([H])([H])[H])(C([H])([H])[H])C([H])([H])[H])C([H])(C(=O)N([H])C1([H])c3c([H])c([H])c([H])c([H])c3C([H])([H])C([H])([H])C1([H])[H])C2([H])[H])C([H])([H])C([H])(C([H])([H])C([H])([H])C([H])([H])[H])[N+]([H])([H])C([H])([H])c1sc(N([H])C(=O)N2C([H])([H])C([H])([H])C([H])([H])C([H])(n3nc(-c4c([H])c([H])c(Oc5c([H])c([H])c(F)c([H])c5F)c([H])c4[H])c(C(=O)N([H])[H])c3N([H])[H])C2([H])[H])nc1[H]

>  <smiles>  (88) 
[H]OC([H])(C([H])([H])Oc1c([H])c([H])c2c(c1[H])C([H])([H])N(C(=O)C([H])(N([H])C(=O)C([H])(N([H])C([H])([H])[H])C([H])([H])[H])C(C([H])([H])[H])(C([H])([H])[H])C([H])([H])[H])C([H])(C(=O)N([H])C1([H])c3c([H])c([H])c([H])c([H])c3C([H])([H])C([H])([H])C1([H])[H])C2([H])[H])C([H])([H])C([H])(C([H])([H])C([H])([H])C([H])([H])[H])[N+]([H])([H])C([H])([H])c1sc(N([H])C(=O)N2C([H])([H])C([H])([H])C([H])([H])C([H])(n3nc(-c4c([H])c([H])c(Oc5c([H])c([H])c(F)c([H])c5F)c([H])c4[H])c(C(=O)N([H])[H])c3N([H])[H])C2([H])[H])nc1[H]

$$$$
88:0:0
     RDKit          3D

 96104  0  0  1  0  0  0  0  0999 V2000
  -30.9370  -22.3560   17.6090 C   0  0  0  0  0  1  0  0  0  0  0  0
  -30.6340  -22.4680   19.1210 C   0  0  0  0  0  3  0  0  0  0  0  0
  -30.7810  -20.1300   19.7080 C   0  0  0  0  0  0  0  0  0  0  0  0
  -30.0470  -21.2050   19.6070 N   0  0  0  0  0  2  0  0  0  0  0  0
  -32.1290  -19.9870   19.4530 N   0  0  0  0  0  4  0  0  0  0  0  0
  -32.5890  -19.0860   19.5170 H   0  0  0  0  0  0  0  0  0  0  0  0
  -32.7530  -20.7060   19.1170 H   0  0  0  0  0  0  0  0  0  0  0  0
  -28.6050  -17.1160   21.0460 C   0  0  0  0  0  3  0  0  0  0  0  0
  -29.8190  -16.6290   20.6370 C   0  0  0  0  0  0  0  0  0  0  0  0
  -30.1200  -18.8620   20.1570 C   0  0  0  0  0  0  0  0  0  0  0  0
  -30.6800  -17.6270   20.1410 N   0  0  0  0  0  0  0  0  0  0  0  0
  -28.4700  -18.8340   20.7880 S   0  0  0  0  0  0  0  0  0  0  0  0
  -30.6680  -14.3510   19.9440 C   0  0  0  0  0  0  0  0  0  0  0  0
  -30.3490  -12.1690   18.8100 C   0  0  0  0  0  2  0  0  0  0  0  0
  -29.3160  -12.3420   17.6760 C   0  0  0  0  0  2  0  0  0  0  0  0
  -27.8740  -12.1970   18.2050 C   0  0  0  0  0  2  0  0  0  0  0  0
  -27.6190  -13.0410   19.4810 C   0  0  0  0  0  3  0  0  0  0  0  0
  -28.7480  -12.8100   20.5110 C   0  0  0  0  0  2  0  0  0  0  0  0
  -30.0350  -13.1430   19.8670 N   0  0  0  0  0  0  0  0  0  0  0  0
  -31.6990  -14.6080   19.3120 O   0  0  0  0  0  0  0  0  0  0  0  0
  -30.0570  -15.2270   20.7660 N   0  0  0  0  0  0  0  0  0  0  0  0
  -29.3830  -14.7580   21.3500 H   0  0  0  0  0  0  0  0  0  0  0  0
  -25.2790  -13.6610   20.3660 C   0  0  0  0  0  0  0  0  0  0  0  0
  -24.2340  -12.8920   20.8040 C   0  0  0  0  0  0  0  0  0  0  0  0
  -24.6790  -11.5370   20.7210 C   0  0  0  0  0  0  0  0  0  0  0  0
  -26.2990  -12.7730   20.0510 N   0  0  0  0  0  0  0  0  0  0  0  0
  -25.9420  -11.4910   20.3180 N   0  0  0  0  0  0  0  0  0  0  0  0
  -23.9580  -10.2790   20.9470 C   0  0  0  0  0  0  0  0  0  0  0  0
  -24.3870   -9.3440   21.9160 C   0  0  0  0  0  3  0  0  0  0  0  0
  -23.6660   -8.1500   22.1280 C   0  0  0  0  0  3  0  0  0  0  0  0
  -22.5010   -7.8790   21.3700 C   0  0  0  0  0  0  0  0  0  0  0  0
  -22.0910   -8.8020   20.3910 C   0  0  0  0  0  3  0  0  0  0  0  0
  -22.8130   -9.9880   20.1780 C   0  0  0  0  0  3  0  0  0  0  0  0
  -21.7550   -6.7320   21.4890 O   0  0  0  0  0  0  0  0  0  0  0  0
  -21.6180   -6.0830   22.6890 C   0  0  0  0  0  0  0  0  0  0  0  0
  -21.0570   -6.7160   23.8190 C   0  0  0  0  0  3  0  0  0  0  0  0
  -20.8720   -5.9920   25.0140 C   0  0  0  0  0  3  0  0  0  0  0  0
  -21.2360   -4.6330   25.0780 C   0  0  0  0  0  0  0  0  0  0  0  0
  -21.7890   -3.9990   23.9520 C   0  0  0  0  0  3  0  0  0  0  0  0
  -21.9770   -4.7220   22.7600 C   0  0  0  0  0  0  0  0  0  0  0  0
  -22.4920   -4.1000   21.6710 F   0  0  0  0  0  0  0  0  0  0  0  0
  -21.0510   -3.9350   26.2220 F   0  0  0  0  0  0  0  0  0  0  0  0
  -22.8660  -13.3780   21.1870 C   0  0  0  0  0  0  0  0  0  0  0  0
  -22.2030  -12.6850   22.1070 N   0  0  0  0  0  0  0  0  0  0  0  0
  -22.3950  -14.4080   20.7070 O   0  0  0  0  0  0  0  0  0  0  0  0
  -22.5960  -11.8510   22.5180 H   0  0  0  0  0  0  0  0  0  0  0  0
  -21.2890  -12.9950   22.4040 H   0  0  0  0  0  0  0  0  0  0  0  0
  -25.4400  -15.0330   20.1910 N   0  0  0  0  0  0  0  0  0  0  0  0
  -24.6650  -15.6780   20.3030 H   0  0  0  0  0  0  0  0  0  0  0  0
  -26.2600  -15.4660   19.7870 H   0  0  0  0  0  0  0  0  0  0  0  0
  -29.6730  -23.6860   19.3360 C   0  0  0  0  0  2  0  0  0  0  0  0
  -29.5950  -24.2970   20.7580 C   0  0  0  0  0  3  0  0  0  0  0  0
  -30.8180  -24.8990   21.1500 O   0  0  0  0  0  0  0  0  0  0  0  0
  -30.8410  -25.7610   20.7440 H   0  0  0  0  0  0  0  0  0  0  0  0
  -28.4660  -25.3470   20.9700 C   0  0  0  0  0  2  0  0  0  0  0  0
  -28.6110  -26.5670   20.2130 O   0  0  0  0  0  0  0  0  0  0  0  0
  -24.5300  -31.6630   23.1080 C   0  0  0  0  0  0  0  0  0  0  0  0
  -27.4430  -27.3030   20.1500 C   0  0  0  0  0  0  0  0  0  0  0  0
  -23.4370  -30.2160   21.4280 C   0  0  0  0  0  3  0  0  0  0  0  0
  -24.9990  -28.7270   20.0620 C   0  0  0  0  0  0  0  0  0  0  0  0
  -25.9550  -30.6640   21.3220 C   0  0  0  0  0  2  0  0  0  0  0  0
  -26.1160  -29.2940   20.6910 C   0  0  0  0  0  0  0  0  0  0  0  0
  -27.3440  -28.5890   20.7310 C   0  0  0  0  0  3  0  0  0  0  0  0
  -26.3130  -26.7580   19.5060 C   0  0  0  0  0  3  0  0  0  0  0  0
  -25.0930  -27.4580   19.4660 C   0  0  0  0  0  3  0  0  0  0  0  0
  -23.7220  -29.5400   20.0590 C   0  0  0  0  0  2  0  0  0  0  0  0
  -24.6560  -30.8630   22.0110 N   0  0  0  0  0  0  0  0  0  0  0  0
  -23.4200  -31.8970   23.6070 O   0  0  0  0  0  0  0  0  0  0  0  0
  -22.7870  -29.1740   22.3680 C   0  0  0  0  0  0  0  0  0  0  0  0
  -21.4650  -28.9820   22.2270 N   0  0  0  0  0  0  0  0  0  0  0  0
  -23.4700  -28.5430   23.1790 O   0  0  0  0  0  0  0  0  0  0  0  0
  -20.9760  -29.5440   21.5450 H   0  0  0  0  0  0  0  0  0  0  0  0
  -18.0910  -27.7800   22.7070 C   0  0  0  0  0  0  0  0  0  0  0  0
  -20.6500  -28.0250   22.9760 C   0  0  0  0  0  3  0  0  0  0  0  0
  -20.7480  -26.6100   22.3610 C   0  0  0  0  0  2  0  0  0  0  0  0
  -19.6400  -26.3170   21.3430 C   0  0  0  0  0  2  0  0  0  0  0  0
  -18.2620  -26.4480   21.9960 C   0  0  0  0  0  2  0  0  0  0  0  0
  -19.2130  -28.5280   23.1530 C   0  0  0  0  0  0  0  0  0  0  0  0
  -18.9980  -29.7760   23.7770 C   0  0  0  0  0  3  0  0  0  0  0  0
  -17.6950  -30.2750   23.9600 C   0  0  0  0  0  3  0  0  0  0  0  0
  -16.5880  -29.5240   23.5300 C   0  0  0  0  0  3  0  0  0  0  0  0
  -16.7870  -28.2780   22.9100 C   0  0  0  0  0  3  0  0  0  0  0  0
  -25.7690  -32.3410   23.7730 C   0  0  0  0  0  3  0  0  0  0  0  0
  -25.3920  -33.7210   24.1050 N   0  0  0  0  0  0  0  0  0  0  0  0
  -25.6820  -34.7890   23.3490 C   0  0  0  0  0  0  0  0  0  0  0  0
  -26.3650  -34.7200   22.3240 O   0  0  0  0  0  0  0  0  0  0  0  0
  -24.7820  -33.8460   24.8990 H   0  0  0  0  0  0  0  0  0  0  0  0
  -23.8710  -36.4960   22.9870 C   0  0  0  0  0  1  0  0  0  0  0  0
  -25.1260  -36.1530   23.8040 C   0  0  0  0  0  3  0  0  0  0  0  0
  -27.2080  -37.1440   24.6510 C   0  0  0  0  0  1  0  0  0  0  0  0
  -26.1070  -37.2540   23.6960 N   0  0  0  0  0  0  0  0  0  0  0  0
  -25.6550  -38.1540   23.8340 H   0  0  0  0  0  0  0  0  0  0  0  0
  -26.2790  -31.5790   25.0580 C   0  0  1  0  0  0  0  0  0  0  0  0
  -25.1670  -31.2840   26.0890 C   0  0  0  0  0  1  0  0  0  0  0  0
  -26.9330  -30.2320   24.6680 C   0  0  0  0  0  1  0  0  0  0  0  0
  -27.3750  -32.4150   25.7620 C   0  0  0  0  0  1  0  0  0  0  0  0
  2  1  1  0
  2 51  1  0
  2  4  1  0
  3 10  1  0
  4  3  1  0
  5  6  1  0
  5  3  2  0
  7  5  1  0
  9 21  1  0
  9  8  2  0
 10 12  1  0
 11 10  2  0
 11  9  1  0
 12  8  1  0
 13 21  1  0
 14 19  1  0
 15 16  1  0
 15 14  1  0
 17 16  1  0
 17 26  1  0
 17 18  1  0
 19 13  1  0
 19 18  1  0
 20 13  2  0
 21 22  1  0
 23 24  2  0
 24 43  1  0
 25 24  1  0
 25 28  1  0
 26 27  1  0
 26 23  1  0
 27 25  2  0
 28 29  1  0
 29 30  2  0
 31 34  1  0
 31 30  1  0
 32 31  2  0
 33 32  1  0
 33 28  2  0
 34 35  1  0
 35 40  2  0
 35 36  1  0
 36 37  2  0
 37 38  1  0
 38 42  1  0
 39 38  2  0
 40 39  1  0
 41 40  1  0
 43 44  1  0
 44 47  1  0
 44 46  1  0
 45 43  2  0
 48 49  1  0
 48 23  1  0
 50 48  1  0
 52 51  1  0
 52 55  1  0
 52 53  1  0
 54 53  1  0
 56 55  1  0
 57 68  2  0
 58 56  1  0
 58 63  1  0
 59 67  1  0
 59 69  1  0
 60 62  1  0
 61 67  1  0
 62 63  2  0
 62 61  1  0
 64 58  2  0
 65 64  1  0
 65 60  2  0
 66 60  1  0
 66 59  1  0
 67 57  1  0
 69 71  2  0
 70 69  1  0
 72 70  1  0
 73 82  2  0
 73 78  1  0
 74 70  1  0
 74 78  1  0
 75 74  1  0
 76 77  1  0
 76 75  1  0
 77 73  1  0
 78 79  2  0
 79 80  1  0
 81 80  2  0
 82 81  1  0
 83 57  1  0
 83 84  1  0
 83 93  1  0
 84 87  1  0
 85 89  1  0
 85 84  1  0
 86 85  2  0
 89 88  1  0
 91 89  1  0
 91 92  1  0
 91 90  1  0
 93 96  1  1
 93 94  1  0
 95 93  1  0
M  ISO  4  13 100  21 100  55 101  56 101
M  END
>  <TORSDO>  (89) 
F 22

>  <SCORE>  (89) 
-12.261

>  <name>  (89) 
88

>  <ligand_id>  (89) 
88

>  <original_smiles>  (89) 
[H]OC([H])(C([H])([H])Oc1c([H])c([H])c2c(c1[H])C([H])([H])N(C(=O)C([H])(N([H])C(=O)C([H])(N([H])C([H])([H])[H])C([H])([H])[H])C(C([H])([H])[H])(C([H])([H])[H])C([H])([H])[H])C([H])(C(=O)N([H])C1([H])c3c([H])c([H])c([H])c([H])c3C([H])([H])C([H])([H])C1([H])[H])C2([H])[H])C([H])([H])C([H])(N=C(c1nc(N([H])C(=O)N2C([H])([H])C([H])([H])C([H])([H])C([H])(n3nc(-c4c([H])c([H])c(Oc5c([H])c([H])c(F)c([H])c5F)c([H])c4[H])c(C(=O)N([H])[H])c3N([H])[H])C2([H])[H])c([H])s1)N([H])[H])C([H])([H])[H]

>  <smiles>  (89) 
[H]OC([H])(C([H])([H])Oc1c([H])c([H])c2c(c1[H])C([H])([H])N(C(=O)C([H])(N([H])C(=O)C([H])(N([H])C([H])([H])[H])C([H])([H])[H])C(C([H])([H])[H])(C([H])([H])[H])C([H])([H])[H])C([H])(C(=O)N([H])C1([H])c3c([H])c([H])c([H])c([H])c3C([H])([H])C([H])([H])C1([H])[H])C2([H])[H])C([H])([H])C([H])(N=C(c1nc(N([H])C(=O)N2C([H])([H])C([H])([H])C([H])([H])C([H])(n3nc(-c4c([H])c([H])c(Oc5c([H])c([H])c(F)c([H])c5F)c([H])c4[H])c(C(=O)N([H])[H])c3N([H])[H])C2([H])[H])c([H])s1)N([H])[H])C([H])([H])[H]

$$$$
89:0:0
     RDKit          3D

 92100  0  0  1  0  0  0  0  0999 V2000
  -28.3760  -23.3180   19.0130 C   0  0  0  0  0  1  0  0  0  0  0  0
  -29.5090  -23.2580   20.0490 C   0  0  0  0  0  3  0  0  0  0  0  0
  -29.9880  -18.6710   19.4710 C   0  0  0  0  0  3  0  0  0  0  0  0
  -30.3780  -18.2230   20.7150 C   0  0  0  0  0  0  0  0  0  0  0  0
  -29.7070  -20.6480   20.6090 C   0  0  0  0  0  0  0  0  0  0  0  0
  -29.6460  -20.0430   19.4170 N   0  0  0  0  0  0  0  0  0  0  0  0
  -29.4860  -22.0190   20.8560 N   0  0  0  0  0  0  0  0  0  0  0  0
  -30.1920  -19.5260   21.8880 S   0  0  0  0  0  0  0  0  0  0  0  0
  -29.4660  -22.2080   21.8540 H   0  0  0  0  0  0  0  0  0  0  0  0
  -31.0000  -16.8900   21.1360 C   0  0  0  0  0  2  0  0  0  0  0  0
  -31.0620  -14.5860   20.0600 C   0  0  0  0  0  0  0  0  0  0  0  0
  -30.7010  -12.3940   18.9540 C   0  0  0  0  0  2  0  0  0  0  0  0
  -29.7070  -12.5540   17.7860 C   0  0  0  0  0  2  0  0  0  0  0  0
  -28.2530  -12.4440   18.2850 C   0  0  0  0  0  2  0  0  0  0  0  0
  -27.9790  -13.3250   19.5310 C   0  0  0  0  0  3  0  0  0  0  0  0
  -29.0740  -13.1240   20.6000 C   0  0  0  0  0  2  0  0  0  0  0  0
  -30.3690  -13.4140   19.9640 N   0  0  0  0  0  0  0  0  0  0  0  0
  -32.1820  -14.7290   19.5610 O   0  0  0  0  0  0  0  0  0  0  0  0
  -30.4090  -15.6230   20.6440 N   0  0  0  0  0  0  0  0  0  0  0  0
  -29.4730  -15.4200   20.9600 H   0  0  0  0  0  0  0  0  0  0  0  0
  -25.6410  -13.9990   20.3570 C   0  0  0  0  0  0  0  0  0  0  0  0
  -24.5660  -13.2560   20.7660 C   0  0  0  0  0  0  0  0  0  0  0  0
  -24.9800  -11.8900   20.6960 C   0  0  0  0  0  0  0  0  0  0  0  0
  -26.6440  -13.0870   20.0690 N   0  0  0  0  0  0  0  0  0  0  0  0
  -26.2530  -11.8130   20.3300 N   0  0  0  0  0  0  0  0  0  0  0  0
  -24.2220  -10.6500   20.9020 C   0  0  0  0  0  0  0  0  0  0  0  0
  -24.6340   -9.6790   21.8420 C   0  0  0  0  0  3  0  0  0  0  0  0
  -23.8760   -8.5040   22.0340 C   0  0  0  0  0  3  0  0  0  0  0  0
  -22.6920   -8.2920   21.2890 C   0  0  0  0  0  0  0  0  0  0  0  0
  -22.3000   -9.2500   20.3380 C   0  0  0  0  0  3  0  0  0  0  0  0
  -23.0580  -10.4180   20.1440 C   0  0  0  0  0  3  0  0  0  0  0  0
  -21.9070   -7.1690   21.3920 O   0  0  0  0  0  0  0  0  0  0  0  0
  -21.8020   -6.4700   22.5670 C   0  0  0  0  0  0  0  0  0  0  0  0
  -21.3310   -7.0730   23.7540 C   0  0  0  0  0  3  0  0  0  0  0  0
  -21.1730   -6.3020   24.9220 C   0  0  0  0  0  3  0  0  0  0  0  0
  -21.4750   -4.9260   24.9050 C   0  0  0  0  0  0  0  0  0  0  0  0
  -21.9390   -4.3220   23.7230 C   0  0  0  0  0  3  0  0  0  0  0  0
  -22.0990   -5.0920   22.5570 C   0  0  0  0  0  0  0  0  0  0  0  0
  -22.5260   -4.4990   21.4150 F   0  0  0  0  0  0  0  0  0  0  0  0
  -21.3160   -4.1830   26.0250 F   0  0  0  0  0  0  0  0  0  0  0  0
  -23.2000  -13.7740   21.1120 C   0  0  0  0  0  0  0  0  0  0  0  0
  -22.4990  -13.0930   22.0110 N   0  0  0  0  0  0  0  0  0  0  0  0
  -22.7690  -14.8160   20.6200 O   0  0  0  0  0  0  0  0  0  0  0  0
  -22.8640  -12.2440   22.4200 H   0  0  0  0  0  0  0  0  0  0  0  0
  -21.5860  -13.4190   22.2950 H   0  0  0  0  0  0  0  0  0  0  0  0
  -25.8430  -15.3660   20.1880 N   0  0  0  0  0  0  0  0  0  0  0  0
  -25.1010  -16.0410   20.3370 H   0  0  0  0  0  0  0  0  0  0  0  0
  -26.6850  -15.7790   19.8080 H   0  0  0  0  0  0  0  0  0  0  0  0
  -29.7420  -24.5960   20.8610 C   0  0  0  0  0  2  0  0  0  0  0  0
  -27.3600  -25.0980   21.7600 C   0  0  0  0  0  1  0  0  0  0  0  0
  -28.6350  -25.6890   21.1150 C   0  0  0  0  0  3  0  0  0  0  0  0
  -28.4430  -26.6160   20.0060 O   0  0  0  0  0  0  0  0  0  0  0  0
  -24.5380  -31.7690   23.1330 C   0  0  0  0  0  0  0  0  0  0  0  0
  -27.3090  -27.4110   20.0200 C   0  0  0  0  0  0  0  0  0  0  0  0
  -23.3850  -30.3730   21.4510 C   0  0  0  0  0  3  0  0  0  0  0  0
  -24.8930  -28.9000   20.0080 C   0  0  0  0  0  0  0  0  0  0  0  0
  -25.9060  -30.7880   21.2870 C   0  0  0  0  0  2  0  0  0  0  0  0
  -26.0350  -29.4270   20.6270 C   0  0  0  0  0  0  0  0  0  0  0  0
  -27.2490  -28.6890   20.6360 C   0  0  0  0  0  3  0  0  0  0  0  0
  -26.1540  -26.9180   19.3770 C   0  0  0  0  0  3  0  0  0  0  0  0
  -24.9480  -27.6460   19.3770 C   0  0  0  0  0  3  0  0  0  0  0  0
  -23.6260  -29.7300   20.0590 C   0  0  0  0  0  2  0  0  0  0  0  0
  -24.6280  -30.9920   22.0160 N   0  0  0  0  0  0  0  0  0  0  0  0
  -23.4440  -32.0030   23.6670 O   0  0  0  0  0  0  0  0  0  0  0  0
  -22.7500  -29.3140   22.3830 C   0  0  0  0  0  0  0  0  0  0  0  0
  -21.4290  -29.1090   22.2450 N   0  0  0  0  0  0  0  0  0  0  0  0
  -23.4420  -28.6820   23.1860 O   0  0  0  0  0  0  0  0  0  0  0  0
  -20.9300  -29.6760   21.5740 H   0  0  0  0  0  0  0  0  0  0  0  0
  -18.0770  -27.8330   22.6990 C   0  0  0  0  0  0  0  0  0  0  0  0
  -20.6290  -28.1350   22.9880 C   0  0  0  0  0  3  0  0  0  0  0  0
  -20.7600  -26.7210   22.3750 C   0  0  0  0  0  2  0  0  0  0  0  0
  -19.6680  -26.4040   21.3490 C   0  0  0  0  0  2  0  0  0  0  0  0
  -18.2820  -26.5060   21.9900 C   0  0  0  0  0  2  0  0  0  0  0  0
  -19.1790  -28.6060   23.1530 C   0  0  0  0  0  0  0  0  0  0  0  0
  -18.9330  -29.8500   23.7740 C   0  0  0  0  0  3  0  0  0  0  0  0
  -17.6180  -30.3210   23.9470 C   0  0  0  0  0  3  0  0  0  0  0  0
  -16.5310  -29.5460   23.5090 C   0  0  0  0  0  3  0  0  0  0  0  0
  -16.7620  -28.3030   22.8910 C   0  0  0  0  0  3  0  0  0  0  0  0
  -25.8010  -32.4190   23.7810 C   0  0  0  0  0  3  0  0  0  0  0  0
  -26.3240  -31.6330   25.0460 C   0  0  1  0  0  0  0  0  0  0  0  0
  -25.2280  -31.3450   26.1000 C   0  0  0  0  0  1  0  0  0  0  0  0
  -26.9450  -30.2790   24.6270 C   0  0  0  0  0  1  0  0  0  0  0  0
  -27.4470  -32.4430   25.7330 C   0  0  0  0  0  1  0  0  0  0  0  0
  -25.4540  -33.8010   24.1330 N   0  0  0  0  0  0  0  0  0  0  0  0
  -25.7580  -34.8740   23.3910 C   0  0  0  0  0  0  0  0  0  0  0  0
  -26.4320  -34.8070   22.3600 O   0  0  0  0  0  0  0  0  0  0  0  0
  -24.8570  -33.9270   24.9370 H   0  0  0  0  0  0  0  0  0  0  0  0
  -23.9820  -36.6230   23.0620 C   0  0  0  0  0  1  0  0  0  0  0  0
  -25.2320  -36.2400   23.8700 C   0  0  0  0  0  3  0  0  0  0  0  0
  -27.3360  -37.1740   24.7230 C   0  0  0  0  0  1  0  0  0  0  0  0
  -26.2330  -37.3240   23.7780 N   0  0  0  0  0  0  0  0  0  0  0  0
  -25.7980  -38.2290   23.9420 H   0  0  0  0  0  0  0  0  0  0  0  0
  2  1  1  0
  2  7  1  0
  2 49  1  0
  3  4  2  0
  4 10  1  0
  4  8  1  0
  5  7  1  0
  5  8  1  0
  6  3  1  0
  6  5  2  0
  7  9  1  0
 11 19  1  0
 12 17  1  0
 13 14  1  0
 13 12  1  0
 15 14  1  0
 15 24  1  0
 15 16  1  0
 17 11  1  0
 17 16  1  0
 18 11  2  0
 19 20  1  0
 19 10  1  0
 21 22  2  0
 22 41  1  0
 23 22  1  0
 23 26  1  0
 24 25  1  0
 24 21  1  0
 25 23  2  0
 26 27  1  0
 27 28  2  0
 29 32  1  0
 29 28  1  0
 30 29  2  0
 31 30  1  0
 31 26  2  0
 32 33  1  0
 33 34  1  0
 34 35  2  0
 36 35  1  0
 36 40  1  0
 37 36  2  0
 38 33  2  0
 38 37  1  0
 39 38  1  0
 41 42  1  0
 42 45  1  0
 42 44  1  0
 43 41  2  0
 46 47  1  0
 46 21  1  0
 48 46  1  0
 49 51  1  0
 51 50  1  0
 52 54  1  0
 52 51  1  0
 53 64  2  0
 54 59  1  0
 55 63  1  0
 55 65  1  0
 56 62  1  0
 56 58  1  0
 57 63  1  0
 58 59  2  0
 58 57  1  0
 60 54  2  0
 61 60  1  0
 61 56  2  0
 62 55  1  0
 63 53  1  0
 65 67  2  0
 66 65  1  0
 68 66  1  0
 69 78  2  0
 69 74  1  0
 70 66  1  0
 70 74  1  0
 71 70  1  0
 72 73  1  0
 72 71  1  0
 73 69  1  0
 74 75  2  0
 75 76  1  0
 77 76  2  0
 78 77  1  0
 79 53  1  0
 79 84  1  0
 79 80  1  0
 80 83  1  1
 80 81  1  0
 82 80  1  0
 84 87  1  0
 85 89  1  0
 85 84  1  0
 86 85  2  0
 89 88  1  0
 91 89  1  0
 91 92  1  0
 91 90  1  0
M  ISO  4  11 100  19 100  51 101  52 101
M  END
>  <TORSDO>  (90) 
F 20

>  <SCORE>  (90) 
-13.293

>  <name>  (90) 
89

>  <ligand_id>  (90) 
89

>  <original_smiles>  (90) 
[H]c1nc(N([H])C([H])(C([H])([H])[H])C([H])([H])C([H])(Oc2c([H])c([H])c3c(c2[H])C([H])([H])N(C(=O)C([H])(N([H])C(=O)C([H])(N([H])C([H])([H])[H])C([H])([H])[H])C(C([H])([H])[H])(C([H])([H])[H])C([H])([H])[H])C([H])(C(=O)N([H])C2([H])c4c([H])c([H])c([H])c([H])c4C([H])([H])C([H])([H])C2([H])[H])C3([H])[H])C([H])([H])[H])sc1C([H])([H])N([H])C(=O)N1C([H])([H])C([H])([H])C([H])([H])C([H])(n2nc(-c3c([H])c([H])c(Oc4c([H])c([H])c(F)c([H])c4F)c([H])c3[H])c(C(=O)N([H])[H])c2N([H])[H])C1([H])[H]

>  <smiles>  (90) 
[H]c1nc(N([H])C([H])(C([H])([H])[H])C([H])([H])C([H])(Oc2c([H])c([H])c3c(c2[H])C([H])([H])N(C(=O)C([H])(N([H])C(=O)C([H])(N([H])C([H])([H])[H])C([H])([H])[H])C(C([H])([H])[H])(C([H])([H])[H])C([H])([H])[H])C([H])(C(=O)N([H])C2([H])c4c([H])c([H])c([H])c([H])c4C([H])([H])C([H])([H])C2([H])[H])C3([H])[H])C([H])([H])[H])sc1C([H])([H])N([H])C(=O)N1C([H])([H])C([H])([H])C([H])([H])C([H])(n2nc(-c3c([H])c([H])c(Oc4c([H])c([H])c(F)c([H])c4F)c([H])c3[H])c(C(=O)N([H])[H])c2N([H])[H])C1([H])[H]

$$$$
90:0:0
     RDKit          3D

 96104  0  0  1  0  0  0  0  0999 V2000
  -28.6670  -22.8360   21.3570 C   0  0  0  0  0  2  0  0  0  0  0  0
  -28.1940  -21.3740   21.0040 C   0  0  0  0  0  2  0  0  0  0  0  0
  -29.1340  -19.0790   20.4550 C   0  0  0  0  0  0  0  0  0  0  0  0
  -29.1900  -20.4410   20.4320 N   0  0  0  0  0  0  0  0  0  0  0  0
  -28.3180  -18.4730   21.1510 O   0  0  0  0  0  0  0  0  0  0  0  0
  -29.9270  -20.8420   19.8680 H   0  0  0  0  0  0  0  0  0  0  0  0
  -31.6350  -17.9520   17.6660 C   0  0  0  0  0  3  0  0  0  0  0  0
  -30.0750  -18.3100   19.5660 C   0  0  0  0  0  0  0  0  0  0  0  0
  -30.5010  -16.9780   19.4080 C   0  0  0  0  0  0  0  0  0  0  0  0
  -31.3510  -16.8180   18.2960 N   0  0  0  0  0  0  0  0  0  0  0  0
  -30.8360  -19.3380   18.3460 S   0  0  0  0  0  0  0  0  0  0  0  0
  -30.8160  -14.6190   20.1290 C   0  0  0  0  0  0  0  0  0  0  0  0
  -30.4400  -12.4330   19.0800 C   0  0  0  0  0  2  0  0  0  0  0  0
  -29.4910  -12.6330   17.8800 C   0  0  0  0  0  2  0  0  0  0  0  0
  -28.0260  -12.5050   18.3370 C   0  0  0  0  0  2  0  0  0  0  0  0
  -27.7090  -13.3570   19.5970 C   0  0  0  0  0  3  0  0  0  0  0  0
  -28.7890  -13.1980   20.6900 C   0  0  0  0  0  2  0  0  0  0  0  0
  -30.0930  -13.4640   20.0740 N   0  0  0  0  0  0  0  0  0  0  0  0
  -32.0270  -14.6150   19.8990 O   0  0  0  0  0  0  0  0  0  0  0  0
  -30.1350  -15.8030   20.1810 N   0  0  0  0  0  0  0  0  0  0  0  0
  -29.2080  -15.7910   20.5750 H   0  0  0  0  0  0  0  0  0  0  0  0
  -25.3310  -13.9630   20.3560 C   0  0  0  0  0  0  0  0  0  0  0  0
  -24.2680  -13.1930   20.7450 C   0  0  0  0  0  0  0  0  0  0  0  0
  -24.7270  -11.8410   20.7130 C   0  0  0  0  0  0  0  0  0  0  0  0
  -26.3690  -13.0800   20.1090 N   0  0  0  0  0  0  0  0  0  0  0  0
  -26.0140  -11.7990   20.3870 N   0  0  0  0  0  0  0  0  0  0  0  0
  -24.0000  -10.5800   20.9170 C   0  0  0  0  0  0  0  0  0  0  0  0
  -24.4220   -9.6320   21.8750 C   0  0  0  0  0  3  0  0  0  0  0  0
  -23.6960   -8.4360   22.0670 C   0  0  0  0  0  3  0  0  0  0  0  0
  -22.5340   -8.1810   21.3000 C   0  0  0  0  0  0  0  0  0  0  0  0
  -22.1320   -9.1180   20.3310 C   0  0  0  0  0  3  0  0  0  0  0  0
  -22.8580  -10.3050   20.1380 C   0  0  0  0  0  3  0  0  0  0  0  0
  -21.7800   -7.0360   21.4000 O   0  0  0  0  0  0  0  0  0  0  0  0
  -21.6860   -6.3360   22.5750 C   0  0  0  0  0  0  0  0  0  0  0  0
  -21.2140   -6.9350   23.7640 C   0  0  0  0  0  3  0  0  0  0  0  0
  -21.0670   -6.1610   24.9330 C   0  0  0  0  0  3  0  0  0  0  0  0
  -21.3830   -4.7880   24.9130 C   0  0  0  0  0  0  0  0  0  0  0  0
  -21.8480   -4.1890   23.7290 C   0  0  0  0  0  3  0  0  0  0  0  0
  -21.9960   -4.9610   22.5630 C   0  0  0  0  0  0  0  0  0  0  0  0
  -22.4240   -4.3740   21.4190 F   0  0  0  0  0  0  0  0  0  0  0  0
  -21.2350   -4.0430   26.0320 F   0  0  0  0  0  0  0  0  0  0  0  0
  -22.8760  -13.6740   21.0330 C   0  0  0  0  0  0  0  0  0  0  0  0
  -22.1580  -12.9840   21.9120 N   0  0  0  0  0  0  0  0  0  0  0  0
  -22.4330  -14.6970   20.5140 O   0  0  0  0  0  0  0  0  0  0  0  0
  -22.5300  -12.1570   22.3550 H   0  0  0  0  0  0  0  0  0  0  0  0
  -21.2240  -13.2880   22.1470 H   0  0  0  0  0  0  0  0  0  0  0  0
  -25.4950  -15.3320   20.1690 N   0  0  0  0  0  0  0  0  0  0  0  0
  -24.7310  -15.9870   20.2890 H   0  0  0  0  0  0  0  0  0  0  0  0
  -26.3380  -15.7700   19.8200 H   0  0  0  0  0  0  0  0  0  0  0  0
  -28.6710  -24.0310   20.3140 C   0  0  0  0  0  3  0  0  0  0  0  0
  -27.8130  -23.7680   19.1370 N   0  0  0  0  0  4  0  0  0  0  0  0
  -26.8440  -23.6510   19.3840 H   0  0  0  0  0  0  0  0  0  0  0  0
  -28.1170  -22.9480   18.6410 H   0  0  0  0  0  0  0  0  0  0  0  0
  -27.8840  -24.5360   18.4890 H   0  0  0  0  0  0  0  0  0  0  0  0
  -28.2910  -25.4070   20.9920 C   0  0  0  0  0  2  0  0  0  0  0  0
  -28.4320  -26.6280   20.2080 O   0  0  0  0  0  0  0  0  0  0  0  0
  -24.6210  -31.8970   23.2320 C   0  0  0  0  0  0  0  0  0  0  0  0
  -27.3040  -27.4350   20.1820 C   0  0  0  0  0  0  0  0  0  0  0  0
  -23.4410  -30.4960   21.5730 C   0  0  0  0  0  3  0  0  0  0  0  0
  -24.9180  -28.9700   20.1570 C   0  0  0  0  0  0  0  0  0  0  0  0
  -25.9730  -30.8580   21.4070 C   0  0  0  0  0  2  0  0  0  0  0  0
  -26.0720  -29.4870   20.7610 C   0  0  0  0  0  0  0  0  0  0  0  0
  -27.2720  -28.7280   20.7690 C   0  0  0  0  0  3  0  0  0  0  0  0
  -26.1360  -26.9530   19.5590 C   0  0  0  0  0  3  0  0  0  0  0  0
  -24.9480  -27.7040   19.5490 C   0  0  0  0  0  3  0  0  0  0  0  0
  -23.6710  -29.8250   20.1930 C   0  0  0  0  0  2  0  0  0  0  0  0
  -24.6960  -31.0990   22.1280 N   0  0  0  0  0  0  0  0  0  0  0  0
  -23.5310  -32.1600   23.7600 O   0  0  0  0  0  0  0  0  0  0  0  0
  -22.7830  -29.4680   22.5220 C   0  0  0  0  0  0  0  0  0  0  0  0
  -21.4610  -29.2830   22.3840 N   0  0  0  0  0  0  0  0  0  0  0  0
  -23.4620  -28.8400   23.3400 O   0  0  0  0  0  0  0  0  0  0  0  0
  -20.9750  -29.8400   21.6960 H   0  0  0  0  0  0  0  0  0  0  0  0
  -18.0820  -28.0830   22.8550 C   0  0  0  0  0  0  0  0  0  0  0  0
  -20.6390  -28.3390   23.1430 C   0  0  0  0  0  3  0  0  0  0  0  0
  -20.7450  -26.9120   22.5550 C   0  0  0  0  0  2  0  0  0  0  0  0
  -19.6480  -26.5980   21.5330 C   0  0  0  0  0  2  0  0  0  0  0  0
  -18.2620  -26.7390   22.1700 C   0  0  0  0  0  2  0  0  0  0  0  0
  -19.1990  -28.8410   23.2970 C   0  0  0  0  0  0  0  0  0  0  0  0
  -18.9780  -30.1000   23.8970 C   0  0  0  0  0  3  0  0  0  0  0  0
  -17.6730  -30.6000   24.0590 C   0  0  0  0  0  3  0  0  0  0  0  0
  -16.5700  -29.8390   23.6340 C   0  0  0  0  0  3  0  0  0  0  0  0
  -16.7750  -28.5820   23.0380 C   0  0  0  0  0  3  0  0  0  0  0  0
  -25.8940  -32.5350   23.8680 C   0  0  0  0  0  3  0  0  0  0  0  0
  -25.5780  -33.9340   24.1880 N   0  0  0  0  0  0  0  0  0  0  0  0
  -25.9220  -34.9850   23.4290 C   0  0  0  0  0  0  0  0  0  0  0  0
  -26.6060  -34.8780   22.4080 O   0  0  0  0  0  0  0  0  0  0  0  0
  -24.9760  -34.0920   24.9830 H   0  0  0  0  0  0  0  0  0  0  0  0
  -24.1960  -36.7710   23.0330 C   0  0  0  0  0  1  0  0  0  0  0  0
  -25.4230  -36.3740   23.8710 C   0  0  0  0  0  3  0  0  0  0  0  0
  -27.5400  -37.2640   24.7370 C   0  0  0  0  0  1  0  0  0  0  0  0
  -26.4550  -37.4280   23.7730 N   0  0  0  0  0  0  0  0  0  0  0  0
  -26.0450  -38.3480   23.9100 H   0  0  0  0  0  0  0  0  0  0  0  0
  -26.3970  -31.7700   25.1530 C   0  0  1  0  0  0  0  0  0  0  0  0
  -25.2900  -31.5340   26.2070 C   0  0  0  0  0  1  0  0  0  0  0  0
  -26.9870  -30.3920   24.7740 C   0  0  0  0  0  1  0  0  0  0  0  0
  -27.5370  -32.5680   25.8280 C   0  0  0  0  0  1  0  0  0  0  0  0
  2  1  1  0
  3  5  2  0
  4  3  1  0
  4  2  1  0
  6  4  1  0
  7 10  2  0
  7 11  1  0
  8  3  1  0
  9  8  2  0
  9 20  1  0
 10  9  1  0
 11  8  1  0
 12 20  1  0
 13 18  1  0
 14 15  1  0
 14 13  1  0
 16 15  1  0
 16 25  1  0
 16 17  1  0
 18 12  1  0
 18 17  1  0
 19 12  2  0
 20 21  1  0
 22 23  2  0
 23 42  1  0
 24 23  1  0
 24 27  1  0
 25 22  1  0
 25 26  1  0
 26 24  2  0
 27 28  1  0
 28 29  2  0
 30 33  1  0
 30 29  1  0
 31 30  2  0
 32 31  1  0
 32 27  2  0
 33 34  1  0
 34 35  1  0
 35 36  2  0
 37 36  1  0
 37 41  1  0
 38 37  2  0
 39 34  2  0
 39 38  1  0
 40 39  1  0
 42 43  1  0
 43 46  1  0
 43 45  1  0
 44 42  2  0
 47 48  1  0
 47 22  1  0
 49 47  1  0
 50 55  1  0
 50  1  1  0
 51 52  1  0
 51 50  1  0
 53 51  1  0
 54 51  1  0
 56 55  1  0
 57 68  2  0
 58 56  1  0
 58 63  1  0
 59 67  1  0
 59 69  1  0
 60 66  1  0
 60 62  1  0
 61 67  1  0
 62 63  2  0
 62 61  1  0
 64 58  2  0
 65 64  1  0
 65 60  2  0
 66 59  1  0
 67 57  1  0
 69 71  2  0
 70 69  1  0
 72 70  1  0
 73 82  2  0
 73 78  1  0
 74 70  1  0
 74 78  1  0
 75 74  1  0
 76 77  1  0
 76 75  1  0
 77 73  1  0
 78 79  2  0
 79 80  1  0
 81 80  2  0
 82 81  1  0
 83 57  1  0
 83 84  1  0
 83 93  1  0
 84 87  1  0
 85 89  1  0
 85 84  1  0
 86 85  2  0
 89 88  1  0
 91 89  1  0
 91 92  1  0
 91 90  1  0
 93 96  1  1
 93 94  1  0
 95 93  1  0
M  ISO  4  12 100  20 100  55 101  56 101
M  END
>  <TORSDO>  (91) 
F 22

>  <SCORE>  (91) 
-13.179

>  <name>  (91) 
90

>  <ligand_id>  (91) 
90

>  <original_smiles>  (91) 
[H]c1nc(N([H])C(=O)N2C([H])([H])C([H])([H])C([H])([H])C([H])(n3nc(-c4c([H])c([H])c(Oc5c([H])c([H])c(F)c([H])c5F)c([H])c4[H])c(C(=O)N([H])[H])c3N([H])[H])C2([H])[H])c(C(=O)N([H])C([H])([H])C([H])([H])C([H])(C([H])([H])Oc2c([H])c([H])c3c(c2[H])C([H])([H])N(C(=O)C([H])(N([H])C(=O)C([H])(N([H])C([H])([H])[H])C([H])([H])[H])C(C([H])([H])[H])(C([H])([H])[H])C([H])([H])[H])C([H])(C(=O)N([H])C2([H])c4c([H])c([H])c([H])c([H])c4C([H])([H])C([H])([H])C2([H])[H])C3([H])[H])[N+]([H])([H])[H])s1

>  <smiles>  (91) 
[H]c1nc(N([H])C(=O)N2C([H])([H])C([H])([H])C([H])([H])C([H])(n3nc(-c4c([H])c([H])c(Oc5c([H])c([H])c(F)c([H])c5F)c([H])c4[H])c(C(=O)N([H])[H])c3N([H])[H])C2([H])[H])c(C(=O)N([H])C([H])([H])C([H])([H])C([H])(C([H])([H])Oc2c([H])c([H])c3c(c2[H])C([H])([H])N(C(=O)C([H])(N([H])C(=O)C([H])(N([H])C([H])([H])[H])C([H])([H])[H])C(C([H])([H])[H])(C([H])([H])[H])C([H])([H])[H])C([H])(C(=O)N([H])C2([H])c4c([H])c([H])c([H])c([H])c4C([H])([H])C([H])([H])C2([H])[H])C3([H])[H])[N+]([H])([H])[H])s1

$$$$
91:0:0
     RDKit          3D

 92100  0  0  1  0  0  0  0  0999 V2000
  -28.9070  -18.2610   21.1160 C   0  0  0  0  0  3  0  0  0  0  0  0
  -29.8170  -18.2710   20.0860 C   0  0  0  0  0  0  0  0  0  0  0  0
  -29.2320  -20.5290   20.1510 C   0  0  0  0  0  0  0  0  0  0  0  0
  -30.0160  -19.5900   19.5900 N   0  0  0  0  0  0  0  0  0  0  0  0
  -29.1420  -21.9020   19.8130 N   0  0  0  0  0  0  0  0  0  0  0  0
  -28.2350  -19.8500   21.4340 S   0  0  0  0  0  0  0  0  0  0  0  0
  -28.4630  -22.3620   20.4150 H   0  0  0  0  0  0  0  0  0  0  0  0
  -30.0210  -16.8800   18.0240 C   0  0  0  0  0  1  0  0  0  0  0  0
  -30.5490  -17.0800   19.4560 C   0  0  0  0  0  3  0  0  0  0  0  0
  -31.1950  -14.6840   19.8680 C   0  0  0  0  0  0  0  0  0  0  0  0
  -30.8580  -12.4380   18.9000 C   0  0  0  0  0  2  0  0  0  0  0  0
  -29.8740  -12.5850   17.7170 C   0  0  0  0  0  2  0  0  0  0  0  0
  -28.4140  -12.5070   18.2040 C   0  0  0  0  0  2  0  0  0  0  0  0
  -28.1410  -13.4180   19.4320 C   0  0  0  0  0  3  0  0  0  0  0  0
  -29.2330  -13.2420   20.5130 C   0  0  0  0  0  2  0  0  0  0  0  0
  -30.5370  -13.4910   19.8800 N   0  0  0  0  0  0  0  0  0  0  0  0
  -32.3250  -14.8060   19.3820 O   0  0  0  0  0  0  0  0  0  0  0  0
  -30.4330  -15.7720   20.1500 N   0  0  0  0  0  0  0  0  0  0  0  0
  -29.5490  -15.5810   20.5930 H   0  0  0  0  0  0  0  0  0  0  0  0
  -25.8350  -14.1400   20.3060 C   0  0  0  0  0  0  0  0  0  0  0  0
  -24.7440  -13.4190   20.7080 C   0  0  0  0  0  0  0  0  0  0  0  0
  -25.1150  -12.0430   20.5950 C   0  0  0  0  0  0  0  0  0  0  0  0
  -26.8050  -13.2060   19.9770 N   0  0  0  0  0  0  0  0  0  0  0  0
  -26.3790  -11.9370   20.2070 N   0  0  0  0  0  0  0  0  0  0  0  0
  -24.3240  -10.8210   20.7790 C   0  0  0  0  0  0  0  0  0  0  0  0
  -24.7290   -9.8060   21.6750 C   0  0  0  0  0  3  0  0  0  0  0  0
  -23.9420   -8.6470   21.8460 C   0  0  0  0  0  3  0  0  0  0  0  0
  -22.7350   -8.4970   21.1220 C   0  0  0  0  0  0  0  0  0  0  0  0
  -22.3490   -9.4990   20.2140 C   0  0  0  0  0  3  0  0  0  0  0  0
  -23.1370  -10.6490   20.0410 C   0  0  0  0  0  3  0  0  0  0  0  0
  -21.9170   -7.3950   21.2060 O   0  0  0  0  0  0  0  0  0  0  0  0
  -21.8410   -6.6410   22.3500 C   0  0  0  0  0  0  0  0  0  0  0  0
  -21.4250   -7.1920   23.5810 C   0  0  0  0  0  3  0  0  0  0  0  0
  -21.2950   -6.3660   24.7160 C   0  0  0  0  0  3  0  0  0  0  0  0
  -21.5700   -4.9880   24.6180 C   0  0  0  0  0  0  0  0  0  0  0  0
  -21.9820   -4.4360   23.3920 C   0  0  0  0  0  3  0  0  0  0  0  0
  -22.1140   -5.2610   22.2600 C   0  0  0  0  0  0  0  0  0  0  0  0
  -22.4880   -4.7190   21.0760 F   0  0  0  0  0  0  0  0  0  0  0  0
  -21.4390   -4.1920   25.7050 F   0  0  0  0  0  0  0  0  0  0  0  0
  -23.3960  -13.9670   21.0800 C   0  0  0  0  0  0  0  0  0  0  0  0
  -22.6780  -13.2810   21.9630 N   0  0  0  0  0  0  0  0  0  0  0  0
  -22.9930  -15.0360   20.6250 O   0  0  0  0  0  0  0  0  0  0  0  0
  -23.0180  -12.4150   22.3500 H   0  0  0  0  0  0  0  0  0  0  0  0
  -21.7740  -13.6290   22.2500 H   0  0  0  0  0  0  0  0  0  0  0  0
  -26.0790  -15.5040   20.1760 N   0  0  0  0  0  0  0  0  0  0  0  0
  -25.3660  -16.1990   20.3630 H   0  0  0  0  0  0  0  0  0  0  0  0
  -26.9320  -15.9040   19.8080 H   0  0  0  0  0  0  0  0  0  0  0  0
  -30.2300  -22.2210   17.6190 C   0  0  0  0  0  1  0  0  0  0  0  0
  -29.8750  -22.8740   18.9660 C   0  0  0  0  0  3  0  0  0  0  0  0
  -29.1690  -24.2730   18.7030 C   0  0  0  0  0  2  0  0  0  0  0  0
  -29.1280  -25.3510   19.8460 C   0  0  0  0  0  2  0  0  0  0  0  0
  -29.0410  -26.7580   19.4520 O   0  0  0  0  0  0  0  0  0  0  0  0
  -24.8600  -31.3300   23.0810 C   0  0  0  0  0  0  0  0  0  0  0  0
  -27.8280  -27.4320   19.5420 C   0  0  0  0  0  0  0  0  0  0  0  0
  -23.7850  -30.0950   21.2280 C   0  0  0  0  0  3  0  0  0  0  0  0
  -25.3600  -28.8350   19.6620 C   0  0  0  0  0  0  0  0  0  0  0  0
  -26.2920  -30.6070   21.1630 C   0  0  0  0  0  2  0  0  0  0  0  0
  -26.4740  -29.3310   20.3510 C   0  0  0  0  0  0  0  0  0  0  0  0
  -27.7130  -28.6400   20.2830 C   0  0  0  0  0  3  0  0  0  0  0  0
  -26.6960  -26.9650   18.8450 C   0  0  0  0  0  3  0  0  0  0  0  0
  -25.4690  -27.6570   18.8990 C   0  0  0  0  0  3  0  0  0  0  0  0
  -24.0690  -29.6170   19.7800 C   0  0  0  0  0  2  0  0  0  0  0  0
  -24.9950  -30.6850   21.8840 N   0  0  0  0  0  0  0  0  0  0  0  0
  -23.7510  -31.4710   23.6140 O   0  0  0  0  0  0  0  0  0  0  0  0
  -23.1650  -28.9240   22.0260 C   0  0  0  0  0  0  0  0  0  0  0  0
  -21.8460  -28.7160   21.8620 N   0  0  0  0  0  0  0  0  0  0  0  0
  -23.8660  -28.2100   22.7490 O   0  0  0  0  0  0  0  0  0  0  0  0
  -21.3420  -29.3510   21.2590 H   0  0  0  0  0  0  0  0  0  0  0  0
  -18.5050  -27.3750   22.1900 C   0  0  0  0  0  0  0  0  0  0  0  0
  -21.0600  -27.6460   22.4740 C   0  0  0  0  0  3  0  0  0  0  0  0
  -21.1870  -26.3330   21.6680 C   0  0  0  0  0  2  0  0  0  0  0  0
  -20.0770  -26.1580   20.6240 C   0  0  0  0  0  2  0  0  0  0  0  0
  -18.7010  -26.1610   21.2970 C   0  0  0  0  0  2  0  0  0  0  0  0
  -19.6130  -28.0830   22.7270 C   0  0  0  0  0  0  0  0  0  0  0  0
  -19.3750  -29.2270   23.5200 C   0  0  0  0  0  3  0  0  0  0  0  0
  -18.0620  -29.6650   23.7780 C   0  0  0  0  0  3  0  0  0  0  0  0
  -16.9680  -28.9500   23.2580 C   0  0  0  0  0  3  0  0  0  0  0  0
  -17.1910  -27.8060   22.4690 C   0  0  0  0  0  3  0  0  0  0  0  0
  -26.0890  -31.9400   23.8260 C   0  0  0  0  0  3  0  0  0  0  0  0
  -26.5640  -31.0740   25.0570 C   0  0  1  0  0  0  0  0  0  0  0  0
  -25.4250  -30.7190   26.0440 C   0  0  0  0  0  1  0  0  0  0  0  0
  -27.2040  -29.7520   24.5700 C   0  0  0  0  0  1  0  0  0  0  0  0
  -27.6610  -31.8350   25.8410 C   0  0  0  0  0  1  0  0  0  0  0  0
  -25.7170  -33.2930   24.2590 N   0  0  0  0  0  0  0  0  0  0  0  0
  -26.0640  -34.4190   23.6210 C   0  0  0  0  0  0  0  0  0  0  0  0
  -26.8030  -34.4280   22.6310 O   0  0  0  0  0  0  0  0  0  0  0  0
  -25.0670  -33.3580   25.0280 H   0  0  0  0  0  0  0  0  0  0  0  0
  -24.3060  -36.1900   23.3210 C   0  0  0  0  0  1  0  0  0  0  0  0
  -25.5100  -35.7470   24.1670 C   0  0  0  0  0  3  0  0  0  0  0  0
  -27.5530  -36.6150   25.2130 C   0  0  0  0  0  1  0  0  0  0  0  0
  -26.5140  -36.8320   24.2110 N   0  0  0  0  0  0  0  0  0  0  0  0
  -26.0700  -37.7240   24.4070 H   0  0  0  0  0  0  0  0  0  0  0  0
  1  6  1  0
  2  1  2  0
  3  6  1  0
  4  2  1  0
  4  3  2  0
  5  3  1  0
  5  7  1  0
  9  8  1  0
  9  2  1  0
  9 18  1  0
 10 16  1  0
 10 18  1  0
 11 16  1  0
 12 13  1  0
 12 11  1  0
 14 13  1  0
 14 23  1  0
 14 15  1  0
 16 15  1  0
 17 10  2  0
 18 19  1  0
 20 21  2  0
 21 40  1  0
 22 21  1  0
 22 25  1  0
 23 24  1  0
 23 20  1  0
 24 22  2  0
 25 26  1  0
 26 27  2  0
 28 31  1  0
 28 27  1  0
 29 28  2  0
 30 29  1  0
 30 25  2  0
 31 32  1  0
 32 33  1  0
 33 34  2  0
 35 34  1  0
 35 39  1  0
 36 35  2  0
 37 32  2  0
 37 36  1  0
 38 37  1  0
 40 41  1  0
 41 44  1  0
 41 43  1  0
 42 40  2  0
 45 20  1  0
 45 46  1  0
 47 45  1  0
 49 48  1  0
 49  5  1  0
 50 49  1  0
 50 51  1  0
 52 54  1  0
 52 51  1  0
 53 64  2  0
 54 59  1  0
 55 63  1  0
 55 65  1  0
 56 62  1  0
 56 58  1  0
 57 63  1  0
 58 57  1  0
 59 58  2  0
 60 61  1  0
 60 54  2  0
 61 56  2  0
 62 55  1  0
 63 53  1  0
 65 67  2  0
 66 65  1  0
 68 66  1  0
 69 78  2  0
 69 74  1  0
 70 66  1  0
 70 74  1  0
 71 70  1  0
 72 73  1  0
 72 71  1  0
 73 69  1  0
 74 75  2  0
 75 76  1  0
 77 76  2  0
 78 77  1  0
 79 53  1  0
 79 84  1  0
 79 80  1  0
 80 83  1  1
 80 81  1  0
 82 80  1  0
 84 87  1  0
 85 89  1  0
 85 84  1  0
 86 85  2  0
 89 88  1  0
 89 91  1  0
 91 92  1  0
 91 90  1  0
M  ISO  4  10 100  18 100  51 101  52 101
M  END
>  <TORSDO>  (92) 
F 20

>  <SCORE>  (92) 
-9.526

>  <name>  (92) 
91

>  <ligand_id>  (92) 
91

>  <original_smiles>  (92) 
[H]c1sc(N([H])C([H])(C([H])([H])[H])C([H])([H])C([H])([H])Oc2c([H])c([H])c3c(c2[H])C([H])([H])N(C(=O)C([H])(N([H])C(=O)C([H])(N([H])C([H])([H])[H])C([H])([H])[H])C(C([H])([H])[H])(C([H])([H])[H])C([H])([H])[H])C([H])(C(=O)N([H])C2([H])c4c([H])c([H])c([H])c([H])c4C([H])([H])C([H])([H])C2([H])[H])C3([H])[H])nc1C([H])(N([H])C(=O)N1C([H])([H])C([H])([H])C([H])([H])C([H])(n2nc(-c3c([H])c([H])c(Oc4c([H])c([H])c(F)c([H])c4F)c([H])c3[H])c(C(=O)N([H])[H])c2N([H])[H])C1([H])[H])C([H])([H])[H]

>  <smiles>  (92) 
[H]c1sc(N([H])C([H])(C([H])([H])[H])C([H])([H])C([H])([H])Oc2c([H])c([H])c3c(c2[H])C([H])([H])N(C(=O)C([H])(N([H])C(=O)C([H])(N([H])C([H])([H])[H])C([H])([H])[H])C(C([H])([H])[H])(C([H])([H])[H])C([H])([H])[H])C([H])(C(=O)N([H])C2([H])c4c([H])c([H])c([H])c([H])c4C([H])([H])C([H])([H])C2([H])[H])C3([H])[H])nc1C([H])(N([H])C(=O)N1C([H])([H])C([H])([H])C([H])([H])C([H])(n2nc(-c3c([H])c([H])c(Oc4c([H])c([H])c(F)c([H])c4F)c([H])c3[H])c(C(=O)N([H])[H])c2N([H])[H])C1([H])[H])C([H])([H])[H]

$$$$
92:0:0
     RDKit          3D

 97105  0  0  1  0  0  0  0  0999 V2000
  -27.9870  -19.5450   19.6380 C   0  0  0  0  0  3  0  0  0  0  0  0
  -29.3510  -19.5990   19.5420 C   0  0  0  0  0  0  0  0  0  0  0  0
  -29.0170  -17.2780   19.6200 C   0  0  0  0  0  0  0  0  0  0  0  0
  -29.9200  -18.2900   19.5070 N   0  0  0  0  0  0  0  0  0  0  0  0
  -27.3770  -17.9230   19.7100 S   0  0  0  0  0  0  0  0  0  0  0  0
  -30.1100  -20.8130   19.4860 N   0  0  0  0  0  0  0  0  0  0  0  0
  -31.1030  -20.6170   19.3690 H   0  0  0  0  0  0  0  0  0  0  0  0
  -29.8260  -21.9330   20.4270 C   0  0  0  0  0  2  0  0  0  0  0  0
  -29.6000  -23.4040   19.8710 C   0  0  0  0  0  3  0  0  0  0  0  0
  -30.8400  -23.7430   19.2910 O   0  0  0  0  0  0  0  0  0  0  0  0
  -30.9580  -23.1620   18.5460 H   0  0  0  0  0  0  0  0  0  0  0  0
  -29.2700  -24.4820   21.0000 C   0  0  0  0  0  2  0  0  0  0  0  0
  -28.6710  -25.7680   20.6030 O   0  0  0  0  0  0  0  0  0  0  0  0
  -27.3610  -31.3650   24.9390 C   0  0  0  0  0  0  0  0  0  0  0  0
  -27.8390  -26.3830   21.5380 C   0  0  0  0  0  0  0  0  0  0  0  0
  -26.0440  -29.3140   25.3510 C   0  0  0  0  0  3  0  0  0  0  0  0
  -26.1580  -27.5360   23.5200 C   0  0  0  0  0  0  0  0  0  0  0  0
  -26.9000  -29.8620   22.9970 C   0  0  0  0  0  2  0  0  0  0  0  0
  -26.9560  -28.3650   22.7200 C   0  0  0  0  0  0  0  0  0  0  0  0
  -27.7970  -27.7950   21.7240 C   0  0  0  0  0  3  0  0  0  0  0  0
  -26.9950  -25.5790   22.3360 C   0  0  0  0  0  3  0  0  0  0  0  0
  -26.1760  -26.1410   23.3350 C   0  0  0  0  0  3  0  0  0  0  0  0
  -25.2930  -28.2010   24.5720 C   0  0  0  0  0  2  0  0  0  0  0  0
  -26.8170  -30.2210   24.4380 N   0  0  0  0  0  0  0  0  0  0  0  0
  -27.2030  -31.6870   26.1240 O   0  0  0  0  0  0  0  0  0  0  0  0
  -26.9190  -28.6600   26.4430 C   0  0  0  0  0  0  0  0  0  0  0  0
  -26.4950  -28.7850   27.7120 N   0  0  0  0  0  0  0  0  0  0  0  0
  -27.9390  -28.0340   26.1420 O   0  0  0  0  0  0  0  0  0  0  0  0
  -25.6490  -29.3180   27.8730 H   0  0  0  0  0  0  0  0  0  0  0  0
  -26.6720  -28.9990   31.3170 C   0  0  0  0  0  0  0  0  0  0  0  0
  -27.1390  -28.2190   28.8990 C   0  0  0  0  0  3  0  0  0  0  0  0
  -26.4720  -26.8850   29.3070 C   0  0  0  0  0  2  0  0  0  0  0  0
  -25.3650  -27.0620   30.3500 C   0  0  0  0  0  2  0  0  0  0  0  0
  -25.9160  -27.7190   31.6200 C   0  0  0  0  0  2  0  0  0  0  0  0
  -27.2310  -29.2450   30.0360 C   0  0  0  0  0  0  0  0  0  0  0  0
  -27.8910  -30.4710   29.7980 C   0  0  0  0  0  3  0  0  0  0  0  0
  -27.9990  -31.4370   30.8160 C   0  0  0  0  0  3  0  0  0  0  0  0
  -27.4570  -31.1840   32.0870 C   0  0  0  0  0  3  0  0  0  0  0  0
  -26.8010  -29.9660   32.3360 C   0  0  0  0  0  3  0  0  0  0  0  0
  -28.1860  -32.3390   24.0380 C   0  0  0  0  0  3  0  0  0  0  0  0
  -27.8370  -33.7100   24.4310 N   0  0  0  0  0  0  0  0  0  0  0  0
  -27.1810  -34.5830   23.6520 C   0  0  0  0  0  0  0  0  0  0  0  0
  -26.8600  -34.3290   22.4890 O   0  0  0  0  0  0  0  0  0  0  0  0
  -28.0310  -33.9700   25.3870 H   0  0  0  0  0  0  0  0  0  0  0  0
  -25.2920  -36.0550   24.4090 C   0  0  0  0  0  1  0  0  0  0  0  0
  -26.8200  -35.9480   24.2660 C   0  0  0  0  0  3  0  0  0  0  0  0
  -28.7800  -37.2630   23.5950 C   0  0  0  0  0  1  0  0  0  0  0  0
  -27.3340  -37.0970   23.4850 N   0  0  0  0  0  0  0  0  0  0  0  0
  -26.8900  -37.9610   23.7850 H   0  0  0  0  0  0  0  0  0  0  0  0
  -29.7430  -32.1110   24.1520 C   0  0  1  0  0  0  0  0  0  0  0  0
  -30.2510  -32.0110   25.6090 C   0  0  0  0  0  1  0  0  0  0  0  0
  -30.1570  -30.8190   23.4140 C   0  0  0  0  0  1  0  0  0  0  0  0
  -30.4920  -33.2690   23.4570 C   0  0  0  0  0  1  0  0  0  0  0  0
  -29.2100  -15.7420   19.8200 C   0  0  0  0  0  3  0  0  0  0  0  0
  -30.4820  -13.9480   18.2860 C   0  0  0  0  0  0  0  0  0  0  0  0
  -29.8950  -11.6570   17.5160 C   0  0  0  0  0  2  0  0  0  0  0  0
  -28.6360  -11.6680   16.6340 C   0  0  0  0  0  2  0  0  0  0  0  0
  -27.3770  -11.5220   17.5050 C   0  0  0  0  0  2  0  0  0  0  0  0
  -27.4000  -12.4680   18.7380 C   0  0  0  0  0  3  0  0  0  0  0  0
  -28.7550  -12.4440   19.4750 C   0  0  0  0  0  2  0  0  0  0  0  0
  -29.7910  -12.7750   18.4930 N   0  0  0  0  0  0  0  0  0  0  0  0
  -31.3940  -13.9690   17.4620 O   0  0  0  0  0  0  0  0  0  0  0  0
  -30.1590  -15.1680   18.8290 N   0  0  0  0  0  0  0  0  0  0  0  0
  -30.7640  -15.8940   18.4770 H   0  0  0  0  0  0  0  0  0  0  0  0
  -25.5480  -13.1040   20.3920 C   0  0  0  0  0  0  0  0  0  0  0  0
  -24.5870  -12.3530   21.0170 C   0  0  0  0  0  0  0  0  0  0  0  0
  -24.8010  -11.0050   20.6010 C   0  0  0  0  0  0  0  0  0  0  0  0
  -26.2960  -12.2060   19.6480 N   0  0  0  0  0  0  0  0  0  0  0  0
  -25.8680  -10.9250   19.8210 N   0  0  0  0  0  0  0  0  0  0  0  0
  -24.0060   -9.7950   20.8530 C   0  0  0  0  0  0  0  0  0  0  0  0
  -24.2650   -8.9480   21.9560 C   0  0  0  0  0  3  0  0  0  0  0  0
  -23.4660   -7.8040   22.1800 C   0  0  0  0  0  3  0  0  0  0  0  0
  -22.3960   -7.4970   21.3050 C   0  0  0  0  0  0  0  0  0  0  0  0
  -22.1590   -8.3280   20.2000 C   0  0  0  0  0  3  0  0  0  0  0  0
  -22.9590   -9.4600   19.9730 C   0  0  0  0  0  3  0  0  0  0  0  0
  -21.5930   -6.3870   21.4340 O   0  0  0  0  0  0  0  0  0  0  0  0
  -20.9650   -6.0840   22.6150 C   0  0  0  0  0  0  0  0  0  0  0  0
  -20.0750   -6.9860   23.2330 C   0  0  0  0  0  3  0  0  0  0  0  0
  -19.4020   -6.6160   24.4160 C   0  0  0  0  0  3  0  0  0  0  0  0
  -19.6110   -5.3380   24.9730 C   0  0  0  0  0  0  0  0  0  0  0  0
  -20.4930   -4.4340   24.3540 C   0  0  0  0  0  3  0  0  0  0  0  0
  -21.1690   -4.8070   23.1770 C   0  0  0  0  0  0  0  0  0  0  0  0
  -22.0040   -3.9240   22.5710 F   0  0  0  0  0  0  0  0  0  0  0  0
  -18.9620   -4.9770   26.1000 F   0  0  0  0  0  0  0  0  0  0  0  0
  -23.4700  -12.8810   21.8710 C   0  0  0  0  0  0  0  0  0  0  0  0
  -22.9460  -12.0670   22.7750 N   0  0  0  0  0  0  0  0  0  0  0  0
  -23.0620  -14.0370   21.7580 O   0  0  0  0  0  0  0  0  0  0  0  0
  -23.2160  -11.0940   22.8170 H   0  0  0  0  0  0  0  0  0  0  0  0
  -22.1690  -12.3870   23.3350 H   0  0  0  0  0  0  0  0  0  0  0  0
  -25.8160  -14.4670   20.3650 N   0  0  0  0  0  0  0  0  0  0  0  0
  -25.1260  -15.0980   20.7540 H   0  0  0  0  0  0  0  0  0  0  0  0
  -26.4380  -14.9110   19.7010 H   0  0  0  0  0  0  0  0  0  0  0  0
  -29.5510  -16.5660   22.2540 C   0  0  0  0  0  1  0  0  0  0  0  0
  -28.3880  -14.4170   21.8400 C   0  0  0  0  0  1  0  0  0  0  0  0
  -29.5330  -15.3290   21.3270 C   0  0  1  0  0  0  0  0  0  0  0  0
  -31.0060  -13.4750   22.5650 C   0  0  0  0  0  1  0  0  0  0  0  0
  -30.9140  -14.5970   21.5050 C   0  0  0  0  0  2  0  0  0  0  0  0
  1  5  1  0
  2  1  2  0
  3  5  1  0
  3 54  1  0
  4  2  1  0
  4  3  2  0
  6  2  1  0
  6  8  1  0
  7  6  1  0
  9  8  1  0
  9 12  1  0
 10  9  1  0
 11 10  1  0
 13 12  1  0
 13 15  1  0
 14 25  2  0
 15 20  2  0
 15 21  1  0
 16 26  1  0
 17 23  1  0
 18 24  1  0
 19 18  1  0
 19 17  2  0
 20 19  1  0
 21 22  2  0
 22 17  1  0
 23 16  1  0
 24 14  1  0
 24 16  1  0
 26 27  1  0
 27 29  1  0
 28 26  2  0
 30 34  1  0
 30 39  1  0
 31 27  1  0
 31 32  1  0
 31 35  1  0
 32 33  1  0
 33 34  1  0
 35 30  2  0
 36 35  1  0
 36 37  2  0
 37 38  1  0
 38 39  2  0
 40 50  1  0
 40 41  1  0
 40 14  1  0
 41 44  1  0
 42 46  1  0
 42 41  1  0
 43 42  2  0
 46 45  1  0
 48 47  1  0
 48 49  1  0
 48 46  1  0
 50 51  1  1
 52 50  1  0
 53 50  1  0
 54 63  1  0
 54 95  1  0
 55 61  1  0
 55 63  1  0
 56 61  1  0
 57 58  1  0
 57 56  1  0
 59 58  1  0
 59 60  1  0
 59 68  1  0
 61 60  1  0
 62 55  2  0
 64 63  1  0
 65 66  2  0
 66 85  1  0
 67 70  1  0
 67 66  1  0
 68 69  1  0
 68 65  1  0
 69 67  2  0
 70 71  1  0
 71 72  2  0
 73 76  1  0
 73 72  1  0
 74 73  2  0
 75 74  1  0
 75 70  2  0
 76 77  1  0
 77 82  2  0
 77 78  1  0
 78 79  2  0
 79 80  1  0
 80 84  1  0
 81 80  2  0
 82 81  1  0
 83 82  1  0
 85 86  1  0
 86 88  1  0
 86 89  1  0
 87 85  2  0
 90 65  1  0
 90 91  1  0
 92 90  1  0
 95 97  1  0
 95 94  1  1
 95 93  1  0
 97 96  1  0
M  ISO  4  12 101  13 101  55 100  63 100
M  END
>  <TORSDO>  (93) 
F 24

>  <SCORE>  (93) 
-1.528

>  <name>  (93) 
92

>  <ligand_id>  (93) 
92

>  <original_smiles>  (93) 
[H]OC([H])(C([H])([H])Oc1c([H])c([H])c2c(c1[H])C([H])([H])N(C(=O)C([H])(N([H])C(=O)C([H])(N([H])C([H])([H])[H])C([H])([H])[H])C(C([H])([H])[H])(C([H])([H])[H])C([H])([H])[H])C([H])(C(=O)N([H])C1([H])c3c([H])c([H])c([H])c([H])c3C([H])([H])C([H])([H])C1([H])[H])C2([H])[H])C([H])([H])N([H])c1nc(C([H])(N([H])C(=O)N2C([H])([H])C([H])([H])C([H])([H])C([H])(n3nc(-c4c([H])c([H])c(Oc5c([H])c([H])c(F)c([H])c5F)c([H])c4[H])c(C(=O)N([H])[H])c3N([H])[H])C2([H])[H])C(C([H])([H])[H])(C([H])([H])[H])C([H])([H])C([H])([H])[H])sc1[H]

>  <smiles>  (93) 
[H]OC([H])(C([H])([H])Oc1c([H])c([H])c2c(c1[H])C([H])([H])N(C(=O)C([H])(N([H])C(=O)C([H])(N([H])C([H])([H])[H])C([H])([H])[H])C(C([H])([H])[H])(C([H])([H])[H])C([H])([H])[H])C([H])(C(=O)N([H])C1([H])c3c([H])c([H])c([H])c([H])c3C([H])([H])C([H])([H])C1([H])[H])C2([H])[H])C([H])([H])N([H])c1nc(C([H])(N([H])C(=O)N2C([H])([H])C([H])([H])C([H])([H])C([H])(n3nc(-c4c([H])c([H])c(Oc5c([H])c([H])c(F)c([H])c5F)c([H])c4[H])c(C(=O)N([H])[H])c3N([H])[H])C2([H])[H])C(C([H])([H])[H])(C([H])([H])[H])C([H])([H])C([H])([H])[H])sc1[H]

$$$$
93:0:0
     RDKit          3D

 94102  0  0  1  0  0  0  0  0999 V2000
  -29.4420  -21.5550   21.0640 C   0  0  0  0  0  2  0  0  0  0  0  0
  -27.1140  -22.6730   21.0510 C   0  0  0  0  0  1  0  0  0  0  0  0
  -28.5670  -22.7410   20.5090 C   0  0  0  0  0  3  0  0  0  0  0  0
  -29.1670  -24.1890   20.7330 C   0  0  0  0  0  2  0  0  0  0  0  0
  -29.2980  -25.2960   18.3880 C   0  0  0  0  0  1  0  0  0  0  0  0
  -28.6080  -25.2810   19.7620 C   0  0  0  0  0  3  0  0  0  0  0  0
  -28.6270  -26.6580   20.2490 O   0  0  0  0  0  0  0  0  0  0  0  0
  -24.5830  -31.7590   23.2060 C   0  0  0  0  0  0  0  0  0  0  0  0
  -27.4670  -27.4230   20.1450 C   0  0  0  0  0  0  0  0  0  0  0  0
  -23.4800  -30.3350   21.5170 C   0  0  0  0  0  3  0  0  0  0  0  0
  -25.0330  -28.8960   20.1000 C   0  0  0  0  0  0  0  0  0  0  0  0
  -26.0020  -30.7820   21.4010 C   0  0  0  0  0  2  0  0  0  0  0  0
  -26.1560  -29.4270   20.7440 C   0  0  0  0  0  0  0  0  0  0  0  0
  -27.3700  -28.6930   20.7790 C   0  0  0  0  0  3  0  0  0  0  0  0
  -26.3340  -26.9690   19.4250 C   0  0  0  0  0  3  0  0  0  0  0  0
  -25.1210  -27.6700   19.4300 C   0  0  0  0  0  3  0  0  0  0  0  0
  -23.7560  -29.7020   20.1300 C   0  0  0  0  0  2  0  0  0  0  0  0
  -24.7060  -30.9730   22.1000 N   0  0  0  0  0  0  0  0  0  0  0  0
  -23.4760  -31.9840   23.7130 O   0  0  0  0  0  0  0  0  0  0  0  0
  -22.8460  -29.2690   22.4420 C   0  0  0  0  0  0  0  0  0  0  0  0
  -21.5260  -29.0500   22.2980 N   0  0  0  0  0  0  0  0  0  0  0  0
  -23.5410  -28.6410   23.2460 O   0  0  0  0  0  0  0  0  0  0  0  0
  -21.0010  -29.6480   21.6750 H   0  0  0  0  0  0  0  0  0  0  0  0
  -18.2070  -27.6920   22.6830 C   0  0  0  0  0  0  0  0  0  0  0  0
  -20.7420  -28.0520   23.0220 C   0  0  0  0  0  3  0  0  0  0  0  0
  -20.9330  -26.6480   22.4020 C   0  0  0  0  0  2  0  0  0  0  0  0
  -19.8550  -26.2740   21.3770 C   0  0  0  0  0  2  0  0  0  0  0  0
  -18.4560  -26.3610   21.9950 C   0  0  0  0  0  2  0  0  0  0  0  0
  -19.2800  -28.4880   23.1590 C   0  0  0  0  0  0  0  0  0  0  0  0
  -18.9930  -29.7230   23.7800 C   0  0  0  0  0  3  0  0  0  0  0  0
  -17.6680  -30.1730   23.9250 C   0  0  0  0  0  3  0  0  0  0  0  0
  -16.6130  -29.3750   23.4540 C   0  0  0  0  0  3  0  0  0  0  0  0
  -16.8800  -28.1370   22.8390 C   0  0  0  0  0  3  0  0  0  0  0  0
  -25.8240  -32.4350   23.8660 C   0  0  0  0  0  3  0  0  0  0  0  0
  -26.3240  -31.6840   25.1610 C   0  0  1  0  0  0  0  0  0  0  0  0
  -25.1990  -31.4030   26.1850 C   0  0  0  0  0  1  0  0  0  0  0  0
  -26.9710  -30.3280   24.7900 C   0  0  0  0  0  1  0  0  0  0  0  0
  -27.4150  -32.5270   25.8600 C   0  0  0  0  0  1  0  0  0  0  0  0
  -25.4580  -33.8230   24.1730 N   0  0  0  0  0  0  0  0  0  0  0  0
  -25.7580  -34.8760   23.4020 C   0  0  0  0  0  0  0  0  0  0  0  0
  -26.4450  -34.7820   22.3820 O   0  0  0  0  0  0  0  0  0  0  0  0
  -24.8510  -33.9750   24.9670 H   0  0  0  0  0  0  0  0  0  0  0  0
  -23.9600  -36.5900   23.0090 C   0  0  0  0  0  1  0  0  0  0  0  0
  -25.2090  -36.2480   23.8350 C   0  0  0  0  0  3  0  0  0  0  0  0
  -27.2970  -37.2400   24.6640 C   0  0  0  0  0  1  0  0  0  0  0  0
  -26.1950  -37.3410   23.7110 N   0  0  0  0  0  0  0  0  0  0  0  0
  -25.7480  -38.2460   23.8280 H   0  0  0  0  0  0  0  0  0  0  0  0
  -28.8220  -20.1320   20.8240 C   0  0  0  0  0  2  0  0  0  0  0  0
  -30.8690  -14.5870   19.8630 C   0  0  0  0  0  0  0  0  0  0  0  0
  -30.5560  -12.4110   18.7250 C   0  0  0  0  0  2  0  0  0  0  0  0
  -29.5030  -12.5730   17.6070 C   0  0  0  0  0  2  0  0  0  0  0  0
  -28.0800  -12.3840   18.1740 C   0  0  0  0  0  2  0  0  0  0  0  0
  -27.8240  -13.2560   19.4320 C   0  0  0  0  0  3  0  0  0  0  0  0
  -28.9670  -13.0550   20.4530 C   0  0  0  0  0  2  0  0  0  0  0  0
  -30.2340  -13.3850   19.7750 N   0  0  0  0  0  0  0  0  0  0  0  0
  -32.0070  -14.7810   19.4240 O   0  0  0  0  0  0  0  0  0  0  0  0
  -30.2600  -16.9240   20.6290 C   0  0  0  0  0  0  0  0  0  0  0  0
  -30.3030  -18.4220   22.0560 C   0  0  0  0  0  3  0  0  0  0  0  0
  -30.7370  -17.1740   21.8870 N   0  0  0  0  0  0  0  0  0  0  0  0
  -29.6120  -17.9420   20.0510 N   0  0  0  0  0  2  0  0  0  0  0  0
  -29.6690  -18.9360   20.9870 N   0  0  0  0  0  0  0  0  0  0  0  0
  -30.3680  -19.0990   23.2560 N   0  0  0  0  0  0  0  0  0  0  0  0
  -30.0270  -15.5970   20.1740 N   0  0  0  0  0  0  0  0  0  0  0  0
  -30.4690  -18.5590   24.1070 H   0  0  0  0  0  0  0  0  0  0  0  0
  -29.8530  -19.9650   23.3610 H   0  0  0  0  0  0  0  0  0  0  0  0
  -29.0600  -15.3140   20.1850 H   0  0  0  0  0  0  0  0  0  0  0  0
  -25.5140  -13.8840   20.3860 C   0  0  0  0  0  0  0  0  0  0  0  0
  -24.4710  -13.1160   20.8210 C   0  0  0  0  0  0  0  0  0  0  0  0
  -24.9050  -11.7590   20.6960 C   0  0  0  0  0  0  0  0  0  0  0  0
  -26.5160  -12.9980   20.0230 N   0  0  0  0  0  0  0  0  0  0  0  0
  -26.1580  -11.7120   20.2680 N   0  0  0  0  0  0  0  0  0  0  0  0
  -24.1800  -10.5010   20.9010 C   0  0  0  0  0  0  0  0  0  0  0  0
  -24.5990   -9.5590   21.8660 C   0  0  0  0  0  3  0  0  0  0  0  0
  -23.8780   -8.3610   22.0550 C   0  0  0  0  0  3  0  0  0  0  0  0
  -22.7250   -8.0970   21.2780 C   0  0  0  0  0  0  0  0  0  0  0  0
  -22.3270   -9.0280   20.3020 C   0  0  0  0  0  3  0  0  0  0  0  0
  -23.0480  -10.2180   20.1110 C   0  0  0  0  0  3  0  0  0  0  0  0
  -21.9770   -6.9500   21.3740 O   0  0  0  0  0  0  0  0  0  0  0  0
  -21.7890   -6.3100   22.5730 C   0  0  0  0  0  0  0  0  0  0  0  0
  -21.1790   -6.9540   23.6710 C   0  0  0  0  0  3  0  0  0  0  0  0
  -20.9360   -6.2390   24.8610 C   0  0  0  0  0  3  0  0  0  0  0  0
  -21.2940   -4.8810   24.9530 C   0  0  0  0  0  0  0  0  0  0  0  0
  -21.9000   -4.2360   23.8590 C   0  0  0  0  0  3  0  0  0  0  0  0
  -22.1390   -4.9490   22.6700 C   0  0  0  0  0  0  0  0  0  0  0  0
  -22.6990   -4.3180   21.6110 F   0  0  0  0  0  0  0  0  0  0  0  0
  -21.0590   -4.1910   26.0930 F   0  0  0  0  0  0  0  0  0  0  0  0
  -23.1130  -13.6000   21.2360 C   0  0  0  0  0  0  0  0  0  0  0  0
  -22.4630  -12.9000   22.1560 N   0  0  0  0  0  0  0  0  0  0  0  0
  -22.6360  -14.6410   20.7760 O   0  0  0  0  0  0  0  0  0  0  0  0
  -22.8600  -12.0590   22.5520 H   0  0  0  0  0  0  0  0  0  0  0  0
  -21.5540  -13.2080   22.4730 H   0  0  0  0  0  0  0  0  0  0  0  0
  -25.6800  -15.2620   20.2510 N   0  0  0  0  0  0  0  0  0  0  0  0
  -24.9160  -15.8950   20.4560 H   0  0  0  0  0  0  0  0  0  0  0  0
  -26.4600  -15.7260   19.8060 H   0  0  0  0  0  0  0  0  0  0  0  0
  3  4  1  0
  3  2  1  0
  3  1  1  0
  6  5  1  0
  6  7  1  0
  6  4  1  0
  8 19  2  0
  9  7  1  0
  9 14  1  0
 10 18  1  0
 10 20  1  0
 11 17  1  0
 11 13  1  0
 12 18  1  0
 13 14  2  0
 13 12  1  0
 15 16  1  0
 15  9  2  0
 16 11  2  0
 17 10  1  0
 18  8  1  0
 20 22  2  0
 21 20  1  0
 23 21  1  0
 24 33  2  0
 24 29  1  0
 25 21  1  0
 25 29  1  0
 26 25  1  0
 27 28  1  0
 27 26  1  0
 28 24  1  0
 29 30  2  0
 30 31  1  0
 32 31  2  0
 33 32  1  0
 34  8  1  0
 34 39  1  0
 34 35  1  0
 35 38  1  1
 35 36  1  0
 37 35  1  0
 39 42  1  0
 40 44  1  0
 40 39  1  0
 41 40  2  0
 44 43  1  0
 46 47  1  0
 46 44  1  0
 46 45  1  0
 48 61  1  0
 48  1  1  0
 49 63  1  0
 50 55  1  0
 51 52  1  0
 51 50  1  0
 53 52  1  0
 53 70  1  0
 53 54  1  0
 55 49  1  0
 55 54  1  0
 56 49  2  0
 57 59  2  0
 58 62  1  0
 59 58  1  0
 60 57  1  0
 60 61  1  0
 61 58  1  0
 62 65  1  0
 62 64  1  0
 63 66  1  0
 63 57  1  0
 67 68  2  0
 68 87  1  0
 69 68  1  0
 69 72  1  0
 70 71  1  0
 70 67  1  0
 71 69  2  0
 72 73  1  0
 73 74  2  0
 75 78  1  0
 75 74  1  0
 76 75  2  0
 77 76  1  0
 77 72  2  0
 78 79  1  0
 79 84  2  0
 79 80  1  0
 80 81  2  0
 81 82  1  0
 82 86  1  0
 83 82  2  0
 84 83  1  0
 85 84  1  0
 87 88  1  0
 88 91  1  0
 88 90  1  0
 89 87  2  0
 92 67  1  0
 92 93  1  0
 94 92  1  0
M  ISO  4   6 101   7 101  49 100  63 100
M  END
>  <TORSDO>  (94) 
F 20

>  <SCORE>  (94) 
-12.652

>  <name>  (94) 
93

>  <ligand_id>  (94) 
93

>  <original_smiles>  (94) 
[H]c1c([H])c([H])c2c(c1[H])C([H])([H])C([H])([H])C([H])([H])C2([H])N([H])C(=O)C1([H])N(C(=O)C([H])(N([H])C(=O)C([H])(N([H])C([H])([H])[H])C([H])([H])[H])C(C([H])([H])[H])(C([H])([H])[H])C([H])([H])[H])C([H])([H])c2c([H])c(OC([H])(C([H])([H])[H])C([H])([H])C([H])(C([H])([H])[H])C([H])([H])C([H])([H])n3nc(N([H])C(=O)N4C([H])([H])C([H])([H])C([H])([H])C([H])(n5nc(-c6c([H])c([H])c(Oc7c([H])c([H])c(F)c([H])c7F)c([H])c6[H])c(C(=O)N([H])[H])c5N([H])[H])C4([H])[H])nc3N([H])[H])c([H])c([H])c2C1([H])[H]

>  <smiles>  (94) 
[H]c1c([H])c([H])c2c(c1[H])C([H])([H])C([H])([H])C([H])([H])C2([H])N([H])C(=O)C1([H])N(C(=O)C([H])(N([H])C(=O)C([H])(N([H])C([H])([H])[H])C([H])([H])[H])C(C([H])([H])[H])(C([H])([H])[H])C([H])([H])[H])C([H])([H])c2c([H])c(OC([H])(C([H])([H])[H])C([H])([H])C([H])(C([H])([H])[H])C([H])([H])C([H])([H])n3nc(N([H])C(=O)N4C([H])([H])C([H])([H])C([H])([H])C([H])(n5nc(-c6c([H])c([H])c(Oc7c([H])c([H])c(F)c([H])c7F)c([H])c6[H])c(C(=O)N([H])[H])c5N([H])[H])C4([H])[H])nc3N([H])[H])c([H])c([H])c2C1([H])[H]

$$$$
94:0:0
     RDKit          3D

 95103  0  0  1  0  0  0  0  0999 V2000
  -29.3480  -23.1870   20.6090 C   0  0  0  0  0  3  0  0  0  0  0  0
  -28.2530  -18.3580   20.3960 C   0  0  0  0  0  3  0  0  0  0  0  0
  -29.4970  -18.2900   19.8140 C   0  0  0  0  0  0  0  0  0  0  0  0
  -29.2240  -20.5790   19.9390 C   0  0  0  0  0  0  0  0  0  0  0  0
  -30.0170  -19.5730   19.5420 N   0  0  0  0  0  0  0  0  0  0  0  0
  -29.5960  -21.9320   19.8500 N   0  0  0  0  0  0  0  0  0  0  0  0
  -27.7100  -20.0070   20.6300 S   0  0  0  0  0  0  0  0  0  0  0  0
  -30.4840  -22.0020   19.3610 H   0  0  0  0  0  0  0  0  0  0  0  0
  -30.3000  -17.0490   19.4350 C   0  0  0  0  0  2  0  0  0  0  0  0
  -30.0470  -15.7460   20.2580 C   0  0  0  0  0  2  0  0  0  0  0  0
  -30.6790  -14.4790   19.6080 C   0  0  0  0  0  0  0  0  0  0  0  0
  -30.2780  -12.2820   18.5320 C   0  0  0  0  0  2  0  0  0  0  0  0
  -29.2230  -12.4650   17.4200 C   0  0  0  0  0  2  0  0  0  0  0  0
  -27.7960  -12.3490   17.9950 C   0  0  0  0  0  2  0  0  0  0  0  0
  -27.5920  -13.2190   19.2640 C   0  0  0  0  0  3  0  0  0  0  0  0
  -28.7470  -12.9990   20.2670 C   0  0  0  0  0  2  0  0  0  0  0  0
  -30.0070  -13.2900   19.5730 N   0  0  0  0  0  0  0  0  0  0  0  0
  -31.7600  -14.6190   19.0260 O   0  0  0  0  0  0  0  0  0  0  0  0
  -25.3060  -13.8840   20.2340 C   0  0  0  0  0  0  0  0  0  0  0  0
  -24.2580  -13.1380   20.7040 C   0  0  0  0  0  0  0  0  0  0  0  0
  -24.6710  -11.7740   20.6010 C   0  0  0  0  0  0  0  0  0  0  0  0
  -26.2890  -12.9760   19.8770 N   0  0  0  0  0  0  0  0  0  0  0  0
  -25.9180  -11.7000   20.1560 N   0  0  0  0  0  0  0  0  0  0  0  0
  -23.9290  -10.5300   20.8440 C   0  0  0  0  0  0  0  0  0  0  0  0
  -24.3720   -9.5810   21.7910 C   0  0  0  0  0  3  0  0  0  0  0  0
  -23.6330   -8.4000   22.0220 C   0  0  0  0  0  3  0  0  0  0  0  0
  -22.4350   -8.1610   21.3050 C   0  0  0  0  0  0  0  0  0  0  0  0
  -22.0120   -9.0990   20.3460 C   0  0  0  0  0  3  0  0  0  0  0  0
  -22.7520  -10.2700   20.1140 C   0  0  0  0  0  3  0  0  0  0  0  0
  -21.6660   -7.0320   21.4450 O   0  0  0  0  0  0  0  0  0  0  0  0
  -21.5700   -6.3710   22.6420 C   0  0  0  0  0  0  0  0  0  0  0  0
  -21.1050   -7.0100   23.8140 C   0  0  0  0  0  3  0  0  0  0  0  0
  -20.9540   -6.2720   25.0050 C   0  0  0  0  0  3  0  0  0  0  0  0
  -21.2570   -4.8990   25.0270 C   0  0  0  0  0  0  0  0  0  0  0  0
  -21.7190   -4.2590   23.8620 C   0  0  0  0  0  3  0  0  0  0  0  0
  -21.8710   -4.9940   22.6720 C   0  0  0  0  0  0  0  0  0  0  0  0
  -22.2910   -4.3690   21.5460 F   0  0  0  0  0  0  0  0  0  0  0  0
  -21.1080   -4.1880   26.1700 F   0  0  0  0  0  0  0  0  0  0  0  0
  -22.9140  -13.6490   21.1330 C   0  0  0  0  0  0  0  0  0  0  0  0
  -22.2680  -12.9660   22.0720 N   0  0  0  0  0  0  0  0  0  0  0  0
  -22.4480  -14.6900   20.6700 O   0  0  0  0  0  0  0  0  0  0  0  0
  -22.6600  -12.1230   22.4680 H   0  0  0  0  0  0  0  0  0  0  0  0
  -21.3680  -13.2880   22.4000 H   0  0  0  0  0  0  0  0  0  0  0  0
  -25.4960  -15.2510   20.0600 N   0  0  0  0  0  0  0  0  0  0  0  0
  -24.7610  -15.9280   20.2450 H   0  0  0  0  0  0  0  0  0  0  0  0
  -26.3190  -15.6660   19.6440 H   0  0  0  0  0  0  0  0  0  0  0  0
  -29.0870  -22.9620   22.1170 C   0  0  0  0  0  2  0  0  0  0  0  0
  -31.4920  -22.2750   22.7810 C   0  0  0  0  0  1  0  0  0  0  0  0
  -29.5500  -21.7920   24.3060 C   0  0  0  0  0  1  0  0  0  0  0  0
  -29.9930  -21.9350   22.8440 C   0  0  0  0  0  3  0  0  0  0  0  0
  -28.2420  -24.1160   19.9830 C   0  0  0  0  0  3  0  0  0  0  0  0
  -27.5660  -23.2960   19.0540 O   0  0  0  0  0  0  0  0  0  0  0  0
  -28.0910  -22.4920   19.1020 H   0  0  0  0  0  0  0  0  0  0  0  0
  -28.7520  -25.4270   19.2920 C   0  0  0  0  0  2  0  0  0  0  0  0
  -28.5230  -26.6490   20.0180 O   0  0  0  0  0  0  0  0  0  0  0  0
  -24.3990  -31.5710   23.0710 C   0  0  0  0  0  0  0  0  0  0  0  0
  -27.2980  -27.2940   19.9710 C   0  0  0  0  0  0  0  0  0  0  0  0
  -23.2850  -30.1530   21.3750 C   0  0  0  0  0  3  0  0  0  0  0  0
  -24.8320  -28.6990   19.9550 C   0  0  0  0  0  0  0  0  0  0  0  0
  -25.7960  -30.6190   21.2340 C   0  0  0  0  0  2  0  0  0  0  0  0
  -25.9510  -29.2590   20.5800 C   0  0  0  0  0  0  0  0  0  0  0  0
  -27.1820  -28.5620   20.5880 C   0  0  0  0  0  3  0  0  0  0  0  0
  -26.1540  -26.7430   19.3490 C   0  0  0  0  0  3  0  0  0  0  0  0
  -24.9260  -27.4390   19.3390 C   0  0  0  0  0  3  0  0  0  0  0  0
  -23.5530  -29.5050   19.9900 C   0  0  0  0  0  2  0  0  0  0  0  0
  -24.5090  -30.7970   21.9530 N   0  0  0  0  0  0  0  0  0  0  0  0
  -23.2970  -31.7860   23.5970 O   0  0  0  0  0  0  0  0  0  0  0  0
  -22.6620  -29.0850   22.3030 C   0  0  0  0  0  0  0  0  0  0  0  0
  -21.3440  -28.8690   22.1660 N   0  0  0  0  0  0  0  0  0  0  0  0
  -23.3590  -28.4580   23.1050 O   0  0  0  0  0  0  0  0  0  0  0  0
  -20.8400  -29.4340   21.4960 H   0  0  0  0  0  0  0  0  0  0  0  0
  -17.9970  -27.5950   22.6380 C   0  0  0  0  0  0  0  0  0  0  0  0
  -20.5500  -27.8840   22.9060 C   0  0  0  0  0  3  0  0  0  0  0  0
  -20.6740  -26.4810   22.2660 C   0  0  0  0  0  2  0  0  0  0  0  0
  -19.5700  -26.1830   21.2470 C   0  0  0  0  0  2  0  0  0  0  0  0
  -18.1910  -26.2770   21.9060 C   0  0  0  0  0  2  0  0  0  0  0  0
  -19.1060  -28.3560   23.0930 C   0  0  0  0  0  0  0  0  0  0  0  0
  -18.8730  -29.5900   23.7370 C   0  0  0  0  0  3  0  0  0  0  0  0
  -17.5620  -30.0640   23.9320 C   0  0  0  0  0  3  0  0  0  0  0  0
  -16.4670  -29.2970   23.4960 C   0  0  0  0  0  3  0  0  0  0  0  0
  -16.6850  -28.0640   22.8550 C   0  0  0  0  0  3  0  0  0  0  0  0
  -25.6440  -32.2440   23.7300 C   0  0  0  0  0  3  0  0  0  0  0  0
  -25.2720  -33.6220   24.0790 N   0  0  0  0  0  0  0  0  0  0  0  0
  -25.5840  -34.7000   23.3480 C   0  0  0  0  0  0  0  0  0  0  0  0
  -26.2850  -34.6430   22.3340 O   0  0  0  0  0  0  0  0  0  0  0  0
  -24.6540  -33.7350   24.8680 H   0  0  0  0  0  0  0  0  0  0  0  0
  -23.8030  -36.4350   22.9630 C   0  0  0  0  0  1  0  0  0  0  0  0
  -25.0270  -36.0600   23.8140 C   0  0  0  0  0  3  0  0  0  0  0  0
  -27.0940  -37.0050   24.7440 C   0  0  0  0  0  1  0  0  0  0  0  0
  -26.0230  -37.1530   23.7630 N   0  0  0  0  0  0  0  0  0  0  0  0
  -25.5780  -38.0550   23.9130 H   0  0  0  0  0  0  0  0  0  0  0  0
  -26.1670  -31.4710   25.0030 C   0  0  1  0  0  0  0  0  0  0  0  0
  -25.0640  -31.1620   26.0440 C   0  0  0  0  0  1  0  0  0  0  0  0
  -26.8180  -30.1280   24.5920 C   0  0  0  0  0  1  0  0  0  0  0  0
  -27.2650  -32.2980   25.7090 C   0  0  0  0  0  1  0  0  0  0  0  0
  1 47  1  0
  2  7  1  0
  3  2  2  0
  4  7  1  0
  5  3  1  0
  5  4  2  0
  6  4  1  0
  6  1  1  0
  8  6  1  0
  9  3  1  0
  9 10  1  0
 11 10  1  0
 12 17  1  0
 13 14  1  0
 13 12  1  0
 15 14  1  0
 15 22  1  0
 15 16  1  0
 17 11  1  0
 17 16  1  0
 18 11  2  0
 19 20  2  0
 20 39  1  0
 21 20  1  0
 21 24  1  0
 22 23  1  0
 22 19  1  0
 23 21  2  0
 24 25  1  0
 25 26  2  0
 27 30  1  0
 27 26  1  0
 28 27  2  0
 29 28  1  0
 29 24  2  0
 30 31  1  0
 31 36  2  0
 31 32  1  0
 32 33  2  0
 33 34  1  0
 34 38  1  0
 35 34  2  0
 36 35  1  0
 37 36  1  0
 39 40  1  0
 40 43  1  0
 40 42  1  0
 41 39  2  0
 44 19  1  0
 44 45  1  0
 46 44  1  0
 47 50  1  0
 48 50  1  0
 50 49  1  0
 51 54  1  0
 51  1  1  0
 52 53  1  0
 52 51  1  0
 54 55  1  0
 56 67  2  0
 57 55  1  0
 57 62  1  0
 58 66  1  0
 58 68  1  0
 59 65  1  0
 59 61  1  0
 60 66  1  0
 61 62  2  0
 61 60  1  0
 63 57  2  0
 64 63  1  0
 64 59  2  0
 65 58  1  0
 66 56  1  0
 68 70  2  0
 69 68  1  0
 71 69  1  0
 72 81  2  0
 72 77  1  0
 73 69  1  0
 73 77  1  0
 74 73  1  0
 75 76  1  0
 75 74  1  0
 76 72  1  0
 77 78  2  0
 78 79  1  0
 80 79  2  0
 81 80  1  0
 82 56  1  0
 82 83  1  0
 82 92  1  0
 83 86  1  0
 84 88  1  0
 84 83  1  0
 85 84  2  0
 88 87  1  0
 90 88  1  0
 90 91  1  0
 90 89  1  0
 92 95  1  1
 92 93  1  0
 94 92  1  0
M  ISO  4  10 100  11 100  54 101  55 101
M  END
>  <TORSDO>  (95) 
F 24

>  <SCORE>  (95) 
-10.754

>  <name>  (95) 
94

>  <ligand_id>  (95) 
94

>  <original_smiles>  (95) 
[H]OC([H])(C([H])([H])Oc1c([H])c([H])c2c(c1[H])C([H])([H])N(C(=O)C([H])(N([H])C(=O)C([H])(N([H])C([H])([H])[H])C([H])([H])[H])C(C([H])([H])[H])(C([H])([H])[H])C([H])([H])[H])C([H])(C(=O)N([H])C1([H])c3c([H])c([H])c([H])c([H])c3C([H])([H])C([H])([H])C1([H])[H])C2([H])[H])C([H])(N([H])c1nc(C([H])([H])C([H])([H])C(=O)N2C([H])([H])C([H])([H])C([H])([H])C([H])(n3nc(-c4c([H])c([H])c(Oc5c([H])c([H])c(F)c([H])c5F)c([H])c4[H])c(C(=O)N([H])[H])c3N([H])[H])C2([H])[H])c([H])s1)C([H])([H])C([H])(C([H])([H])[H])C([H])([H])[H]

>  <smiles>  (95) 
[H]OC([H])(C([H])([H])Oc1c([H])c([H])c2c(c1[H])C([H])([H])N(C(=O)C([H])(N([H])C(=O)C([H])(N([H])C([H])([H])[H])C([H])([H])[H])C(C([H])([H])[H])(C([H])([H])[H])C([H])([H])[H])C([H])(C(=O)N([H])C1([H])c3c([H])c([H])c([H])c([H])c3C([H])([H])C([H])([H])C1([H])[H])C2([H])[H])C([H])(N([H])c1nc(C([H])([H])C([H])([H])C(=O)N2C([H])([H])C([H])([H])C([H])([H])C([H])(n3nc(-c4c([H])c([H])c(Oc5c([H])c([H])c(F)c([H])c5F)c([H])c4[H])c(C(=O)N([H])[H])c3N([H])[H])C2([H])[H])c([H])s1)C([H])([H])C([H])(C([H])([H])[H])C([H])([H])[H]

$$$$
95:0:0
     RDKit          3D

 95103  0  0  1  0  0  0  0  0999 V2000
  -28.9880  -19.8960   20.1320 C   0  0  0  0  0  3  0  0  0  0  0  0
  -30.3840  -15.2330   20.3310 C   0  0  0  0  0  0  0  0  0  0  0  0
  -30.2600  -12.9250   19.3740 C   0  0  0  0  0  2  0  0  0  0  0  0
  -29.3410  -12.9020   18.1370 C   0  0  0  0  0  2  0  0  0  0  0  0
  -27.8810  -12.6600   18.5640 C   0  0  0  0  0  2  0  0  0  0  0  0
  -27.4430  -13.5690   19.7450 C   0  0  0  0  0  3  0  0  0  0  0  0
  -28.4950  -13.6070   20.8750 C   0  0  0  0  0  2  0  0  0  0  0  0
  -29.7680  -14.0030   20.2640 N   0  0  0  0  0  0  0  0  0  0  0  0
  -31.5560  -15.3330   19.9550 O   0  0  0  0  0  0  0  0  0  0  0  0
  -31.5500  -19.4930   22.7460 C   0  0  0  0  0  3  0  0  0  0  0  0
  -31.7020  -18.1310   23.0090 C   0  0  0  0  0  3  0  0  0  0  0  0
  -29.9560  -19.0360   21.0770 C   0  0  0  0  0  0  0  0  0  0  0  0
  -30.1890  -17.5750   21.2830 C   0  0  0  0  0  0  0  0  0  0  0  0
  -30.6980  -19.9210   21.7980 N   0  0  0  0  0  0  0  0  0  0  0  0
  -31.0370  -17.2100   22.2880 N   0  0  0  0  0  0  0  0  0  0  0  0
  -29.6520  -16.3910   20.5870 N   0  0  0  0  0  0  0  0  0  0  0  0
  -28.6480  -16.2980   20.5880 H   0  0  0  0  0  0  0  0  0  0  0  0
  -25.0420  -14.0460   20.5070 C   0  0  0  0  0  0  0  0  0  0  0  0
  -24.0110  -13.2220   20.8660 C   0  0  0  0  0  0  0  0  0  0  0  0
  -24.5250  -11.8900   20.7980 C   0  0  0  0  0  0  0  0  0  0  0  0
  -26.1170  -13.2140   20.2410 N   0  0  0  0  0  0  0  0  0  0  0  0
  -25.8140  -11.9110   20.4790 N   0  0  0  0  0  0  0  0  0  0  0  0
  -23.8480  -10.5980   20.9620 C   0  0  0  0  0  0  0  0  0  0  0  0
  -24.3080   -9.6340   21.8850 C   0  0  0  0  0  3  0  0  0  0  0  0
  -23.6270   -8.4060   22.0380 C   0  0  0  0  0  3  0  0  0  0  0  0
  -22.4730   -8.1310   21.2660 C   0  0  0  0  0  0  0  0  0  0  0  0
  -22.0340   -9.0860   20.3310 C   0  0  0  0  0  3  0  0  0  0  0  0
  -22.7150  -10.3050   20.1770 C   0  0  0  0  0  3  0  0  0  0  0  0
  -21.7630   -6.9560   21.3290 O   0  0  0  0  0  0  0  0  0  0  0  0
  -21.7330   -6.1940   22.4690 C   0  0  0  0  0  0  0  0  0  0  0  0
  -21.2120   -6.6910   23.6840 C   0  0  0  0  0  3  0  0  0  0  0  0
  -21.1360   -5.8500   24.8120 C   0  0  0  0  0  3  0  0  0  0  0  0
  -21.5700   -4.5130   24.7270 C   0  0  0  0  0  0  0  0  0  0  0  0
  -22.0840   -4.0160   23.5170 C   0  0  0  0  0  3  0  0  0  0  0  0
  -22.1620   -4.8540   22.3900 C   0  0  0  0  0  0  0  0  0  0  0  0
  -22.6390   -4.3630   21.2200 F   0  0  0  0  0  0  0  0  0  0  0  0
  -21.4890   -3.7040   25.8080 F   0  0  0  0  0  0  0  0  0  0  0  0
  -22.5990  -13.6380   21.1590 C   0  0  0  0  0  0  0  0  0  0  0  0
  -21.9160  -12.9190   22.0410 N   0  0  0  0  0  0  0  0  0  0  0  0
  -22.1090  -14.6400   20.6380 O   0  0  0  0  0  0  0  0  0  0  0  0
  -22.3230  -12.1090   22.4870 H   0  0  0  0  0  0  0  0  0  0  0  0
  -20.9690  -13.1810   22.2780 H   0  0  0  0  0  0  0  0  0  0  0  0
  -25.1510  -15.4250   20.3600 N   0  0  0  0  0  0  0  0  0  0  0  0
  -24.3550  -16.0440   20.4790 H   0  0  0  0  0  0  0  0  0  0  0  0
  -25.9690  -15.9030   20.0050 H   0  0  0  0  0  0  0  0  0  0  0  0
  -29.2690  -19.5670   18.7270 N   0  0  0  0  0  4  0  0  0  0  0  0
  -28.6300  -20.0480   18.1220 H   0  0  0  0  0  0  0  0  0  0  0  0
  -29.1690  -18.5830   18.5670 H   0  0  0  0  0  0  0  0  0  0  0  0
  -30.2060  -19.8360   18.4900 H   0  0  0  0  0  0  0  0  0  0  0  0
  -29.0700  -21.5330   20.3280 C   0  0  0  0  0  3  0  0  0  0  0  0
  -28.1300  -22.6270   19.5970 C   0  0  0  0  0  3  0  0  0  0  0  0
  -28.4970  -24.1870   19.6890 C   0  0  0  0  0  0  0  0  0  0  0  0
  -29.5930  -24.5270   20.1450 O   0  0  0  0  0  0  0  0  0  0  0  0
  -27.4600  -25.2990   19.2040 C   0  0  0  0  0  2  0  0  0  0  0  0
  -27.8020  -26.7600   19.3250 O   0  0  0  0  0  0  0  0  0  0  0  0
  -24.4180  -31.9500   23.1070 C   0  0  0  0  0  0  0  0  0  0  0  0
  -26.7210  -27.6700   19.4240 C   0  0  0  0  0  0  0  0  0  0  0  0
  -23.0740  -30.7130   21.4490 C   0  0  0  0  0  3  0  0  0  0  0  0
  -24.3890  -29.3120   19.7610 C   0  0  0  0  0  0  0  0  0  0  0  0
  -25.5960  -31.0400   21.0880 C   0  0  0  0  0  2  0  0  0  0  0  0
  -25.6100  -29.7290   20.3050 C   0  0  0  0  0  0  0  0  0  0  0  0
  -26.7800  -28.9220   20.1250 C   0  0  0  0  0  3  0  0  0  0  0  0
  -25.4730  -27.3330   18.8490 C   0  0  0  0  0  3  0  0  0  0  0  0
  -24.3240  -28.1250   19.0230 C   0  0  0  0  0  3  0  0  0  0  0  0
  -23.1680  -30.1780   19.9970 C   0  0  0  0  0  2  0  0  0  0  0  0
  -24.3860  -31.2480   21.9370 N   0  0  0  0  0  0  0  0  0  0  0  0
  -23.3840  -32.1750   23.7520 O   0  0  0  0  0  0  0  0  0  0  0  0
  -22.4840  -29.6080   22.3590 C   0  0  0  0  0  0  0  0  0  0  0  0
  -21.1530  -29.4290   22.3150 N   0  0  0  0  0  0  0  0  0  0  0  0
  -23.2240  -28.9200   23.0690 O   0  0  0  0  0  0  0  0  0  0  0  0
  -20.6120  -30.0400   21.7190 H   0  0  0  0  0  0  0  0  0  0  0  0
  -17.8250  -28.1580   22.9520 C   0  0  0  0  0  0  0  0  0  0  0  0
  -20.3960  -28.4190   23.0570 C   0  0  0  0  0  3  0  0  0  0  0  0
  -20.4590  -27.0440   22.3530 C   0  0  0  0  0  2  0  0  0  0  0  0
  -19.2880  -26.8000   21.3960 C   0  0  0  0  0  2  0  0  0  0  0  0
  -17.9560  -26.8740   22.1490 C   0  0  0  0  0  2  0  0  0  0  0  0
  -18.9690  -28.8910   23.3640 C   0  0  0  0  0  0  0  0  0  0  0  0
  -18.7890  -30.0950   24.0780 C   0  0  0  0  0  3  0  0  0  0  0  0
  -17.4980  -30.5670   24.3820 C   0  0  0  0  0  3  0  0  0  0  0  0
  -16.3690  -29.8290   23.9840 C   0  0  0  0  0  3  0  0  0  0  0  0
  -16.5340  -28.6260   23.2740 C   0  0  0  0  0  3  0  0  0  0  0  0
  -25.7520  -32.5240   23.6750 C   0  0  0  0  0  3  0  0  0  0  0  0
  -25.4930  -33.9050   24.1090 N   0  0  0  0  0  0  0  0  0  0  0  0
  -25.8830  -35.0000   23.4430 C   0  0  0  0  0  0  0  0  0  0  0  0
  -26.5680  -34.9510   22.4180 O   0  0  0  0  0  0  0  0  0  0  0  0
  -24.8910  -34.0200   24.9110 H   0  0  0  0  0  0  0  0  0  0  0  0
  -24.2890  -36.9250   23.1540 C   0  0  0  0  0  1  0  0  0  0  0  0
  -25.4430  -36.3660   24.0020 C   0  0  0  0  0  3  0  0  0  0  0  0
  -27.5470  -37.0420   25.0720 C   0  0  0  0  0  1  0  0  0  0  0  0
  -26.5380  -37.3600   24.0650 N   0  0  0  0  0  0  0  0  0  0  0  0
  -26.1720  -38.2870   24.2630 H   0  0  0  0  0  0  0  0  0  0  0  0
  -26.3370  -31.6690   24.8670 C   0  0  1  0  0  0  0  0  0  0  0  0
  -25.3090  -31.3710   25.9820 C   0  0  0  0  0  1  0  0  0  0  0  0
  -26.8790  -30.3140   24.3550 C   0  0  0  0  0  1  0  0  0  0  0  0
  -27.5330  -32.4110   25.5060 C   0  0  0  0  0  1  0  0  0  0  0  0
  1 50  1  0
  1 12  1  0
  2 16  1  0
  3  8  1  0
  4  5  1  0
  4  3  1  0
  6  5  1  0
  6 21  1  0
  6  7  1  0
  8  2  1  0
  8  7  1  0
  9  2  2  0
 10 11  1  0
 12 13  2  0
 12 14  1  0
 13 15  1  0
 14 10  2  0
 15 11  2  0
 16 17  1  0
 16 13  1  0
 18 19  2  0
 19 38  1  0
 20 19  1  0
 20 23  1  0
 21 22  1  0
 21 18  1  0
 22 20  2  0
 23 24  1  0
 24 25  2  0
 26 29  1  0
 26 25  1  0
 27 26  2  0
 28 27  1  0
 28 23  2  0
 29 30  1  0
 30 31  1  0
 31 32  2  0
 33 32  1  0
 33 37  1  0
 34 33  2  0
 35 30  2  0
 35 34  1  0
 36 35  1  0
 38 39  1  0
 39 42  1  0
 39 41  1  0
 40 38  2  0
 43 44  1  0
 43 18  1  0
 45 43  1  0
 46  1  1  0
 47 46  1  0
 48 46  1  0
 49 46  1  0
 51 52  1  0
 51 50  2  0
 52 53  2  0
 54 55  1  0
 54 52  1  0
 55 57  1  0
 56 67  2  0
 57 62  1  0
 58 66  1  0
 58 68  1  0
 59 65  1  0
 59 61  1  0
 60 66  1  0
 61 60  1  0
 62 61  2  0
 63 64  1  0
 63 57  2  0
 64 59  2  0
 65 58  1  0
 66 56  1  0
 68 70  2  0
 69 68  1  0
 71 69  1  0
 72 81  2  0
 72 77  1  0
 73 69  1  0
 73 77  1  0
 74 73  1  0
 75 76  1  0
 75 74  1  0
 76 72  1  0
 77 78  2  0
 78 79  1  0
 80 79  2  0
 81 80  1  0
 82 56  1  0
 82 83  1  0
 82 92  1  0
 83 86  1  0
 84 88  1  0
 84 83  1  0
 85 84  2  0
 88 87  1  0
 88 90  1  0
 90 91  1  0
 90 89  1  0
 92 95  1  1
 92 93  1  0
 94 92  1  0
M  ISO  4   2 100  16 100  54 101  55 101
M  END
>  <TORSDO>  (96) 
F 21

>  <SCORE>  (96) 
-12.163

>  <name>  (96) 
95

>  <ligand_id>  (96) 
95

>  <original_smiles>  (96) 
[H]c1nc(N([H])C(=O)N2C([H])([H])C([H])([H])C([H])([H])C([H])(n3nc(-c4c([H])c([H])c(Oc5c([H])c([H])c(F)c([H])c5F)c([H])c4[H])c(C(=O)N([H])[H])c3N([H])[H])C2([H])[H])c(C([H])(C([H])([H])C([H])([H])C(=O)C([H])([H])Oc2c([H])c([H])c3c(c2[H])C([H])([H])N(C(=O)C([H])(N([H])C(=O)C([H])(N([H])C([H])([H])[H])C([H])([H])[H])C(C([H])([H])[H])(C([H])([H])[H])C([H])([H])[H])C([H])(C(=O)N([H])C2([H])c4c([H])c([H])c([H])c([H])c4C([H])([H])C([H])([H])C2([H])[H])C3([H])[H])[N+]([H])([H])[H])nc1[H]

>  <smiles>  (96) 
[H]c1nc(N([H])C(=O)N2C([H])([H])C([H])([H])C([H])([H])C([H])(n3nc(-c4c([H])c([H])c(Oc5c([H])c([H])c(F)c([H])c5F)c([H])c4[H])c(C(=O)N([H])[H])c3N([H])[H])C2([H])[H])c(C([H])(C([H])([H])C([H])([H])C(=O)C([H])([H])Oc2c([H])c([H])c3c(c2[H])C([H])([H])N(C(=O)C([H])(N([H])C(=O)C([H])(N([H])C([H])([H])[H])C([H])([H])[H])C(C([H])([H])[H])(C([H])([H])[H])C([H])([H])[H])C([H])(C(=O)N([H])C2([H])c4c([H])c([H])c([H])c([H])c4C([H])([H])C([H])([H])C2([H])[H])C3([H])[H])[N+]([H])([H])[H])nc1[H]

$$$$
96:0:0
     RDKit          3D

 90 98  0  0  1  0  0  0  0  0999 V2000
  -29.7950  -19.0580   21.7100 C   0  0  0  0  0  3  0  0  0  0  0  0
  -29.7760  -18.7760   20.3650 C   0  0  0  0  0  0  0  0  0  0  0  0
  -29.2930  -21.1280   20.3690 C   0  0  0  0  0  0  0  0  0  0  0  0
  -29.4620  -19.9850   19.6340 N   0  0  0  0  0  0  0  0  0  0  0  0
  -29.0110  -22.4620   19.8950 N   0  0  0  0  0  0  0  0  0  0  0  0
  -29.4870  -20.7600   22.0830 S   0  0  0  0  0  0  0  0  0  0  0  0
  -28.8350  -22.4510   18.8930 H   0  0  0  0  0  0  0  0  0  0  0  0
  -30.6530  -24.2820   20.2060 C   0  0  0  0  0  1  0  0  0  0  0  0
  -29.1850  -23.8840   20.3980 C   0  0  0  0  0  3  0  0  0  0  0  0
  -28.2150  -25.0470   19.8130 C   0  0  0  0  0  2  0  0  0  0  0  0
  -28.3600  -26.4970   20.2070 O   0  0  0  0  0  0  0  0  0  0  0  0
  -24.6250  -31.9280   23.2630 C   0  0  0  0  0  0  0  0  0  0  0  0
  -27.2540  -27.3840   20.1430 C   0  0  0  0  0  0  0  0  0  0  0  0
  -23.4290  -30.5400   21.6080 C   0  0  0  0  0  3  0  0  0  0  0  0
  -24.8880  -29.0180   20.1550 C   0  0  0  0  0  0  0  0  0  0  0  0
  -25.9680  -30.8710   21.4250 C   0  0  0  0  0  2  0  0  0  0  0  0
  -26.0570  -29.4970   20.7610 C   0  0  0  0  0  0  0  0  0  0  0  0
  -27.2410  -28.6890   20.7470 C   0  0  0  0  0  3  0  0  0  0  0  0
  -26.0630  -26.9870   19.4940 C   0  0  0  0  0  3  0  0  0  0  0  0
  -24.8960  -27.7720   19.5110 C   0  0  0  0  0  3  0  0  0  0  0  0
  -23.6450  -29.8850   20.2190 C   0  0  0  0  0  2  0  0  0  0  0  0
  -24.6940  -31.1310   22.1570 N   0  0  0  0  0  0  0  0  0  0  0  0
  -23.5400  -32.1900   23.8040 O   0  0  0  0  0  0  0  0  0  0  0  0
  -22.7730  -29.5080   22.5570 C   0  0  0  0  0  0  0  0  0  0  0  0
  -21.4490  -29.3150   22.4240 N   0  0  0  0  0  0  0  0  0  0  0  0
  -23.4570  -28.8830   23.3710 O   0  0  0  0  0  0  0  0  0  0  0  0
  -20.9540  -29.8740   21.7430 H   0  0  0  0  0  0  0  0  0  0  0  0
  -18.0840  -28.0740   22.9070 C   0  0  0  0  0  0  0  0  0  0  0  0
  -20.6390  -28.3630   23.1870 C   0  0  0  0  0  3  0  0  0  0  0  0
  -20.7600  -26.9370   22.6000 C   0  0  0  0  0  2  0  0  0  0  0  0
  -19.6660  -26.6090   21.5800 C   0  0  0  0  0  2  0  0  0  0  0  0
  -18.2810  -26.7320   22.2200 C   0  0  0  0  0  2  0  0  0  0  0  0
  -19.1920  -28.8460   23.3470 C   0  0  0  0  0  0  0  0  0  0  0  0
  -18.9560  -30.1000   23.9510 C   0  0  0  0  0  3  0  0  0  0  0  0
  -17.6450  -30.5840   24.1170 C   0  0  0  0  0  3  0  0  0  0  0  0
  -16.5520  -29.8080   23.6970 C   0  0  0  0  0  3  0  0  0  0  0  0
  -16.7720  -28.5540   23.0970 C   0  0  0  0  0  3  0  0  0  0  0  0
  -25.9020  -32.5650   23.8910 C   0  0  0  0  0  3  0  0  0  0  0  0
  -26.4090  -31.8030   25.1770 C   0  0  1  0  0  0  0  0  0  0  0  0
  -25.3070  -31.5720   26.2370 C   0  0  0  0  0  1  0  0  0  0  0  0
  -26.9970  -30.4230   24.8030 C   0  0  0  0  0  1  0  0  0  0  0  0
  -27.5520  -32.6030   25.8450 C   0  0  0  0  0  1  0  0  0  0  0  0
  -25.5900  -33.9660   24.2100 N   0  0  0  0  0  0  0  0  0  0  0  0
  -25.9100  -35.0130   23.4380 C   0  0  0  0  0  0  0  0  0  0  0  0
  -26.5670  -34.9020   22.4000 O   0  0  0  0  0  0  0  0  0  0  0  0
  -25.0070  -34.1260   25.0190 H   0  0  0  0  0  0  0  0  0  0  0  0
  -24.1700  -36.7980   23.0910 C   0  0  0  0  0  1  0  0  0  0  0  0
  -25.4250  -36.4050   23.8880 C   0  0  0  0  0  3  0  0  0  0  0  0
  -27.5640  -37.3120   24.6830 C   0  0  0  0  0  1  0  0  0  0  0  0
  -26.4510  -37.4610   23.7480 N   0  0  0  0  0  0  0  0  0  0  0  0
  -26.0430  -38.3810   23.8860 H   0  0  0  0  0  0  0  0  0  0  0  0
  -30.1540  -17.4030   19.6760 C   0  0  0  0  0  2  0  0  0  0  0  0
  -30.7120  -14.9030   20.1720 C   0  0  0  0  0  0  0  0  0  0  0  0
  -30.5120  -12.6160   19.2100 C   0  0  0  0  0  2  0  0  0  0  0  0
  -29.5660  -12.6880   17.9900 C   0  0  0  0  0  2  0  0  0  0  0  0
  -28.1010  -12.5040   18.4340 C   0  0  0  0  0  2  0  0  0  0  0  0
  -27.7300  -13.3990   19.6440 C   0  0  0  0  0  3  0  0  0  0  0  0
  -28.7970  -13.3350   20.7590 C   0  0  0  0  0  2  0  0  0  0  0  0
  -30.0920  -13.6740   20.1570 N   0  0  0  0  0  0  0  0  0  0  0  0
  -31.8910  -14.9960   19.8160 O   0  0  0  0  0  0  0  0  0  0  0  0
  -29.9330  -16.0380   20.3240 N   0  0  0  0  0  0  0  0  0  0  0  0
  -28.9860  -15.8650   20.6250 H   0  0  0  0  0  0  0  0  0  0  0  0
  -25.3480  -13.9830   20.3950 C   0  0  0  0  0  0  0  0  0  0  0  0
  -24.2870  -13.2080   20.7780 C   0  0  0  0  0  0  0  0  0  0  0  0
  -24.7540  -11.8580   20.7460 C   0  0  0  0  0  0  0  0  0  0  0  0
  -26.3910  -13.1060   20.1480 N   0  0  0  0  0  0  0  0  0  0  0  0
  -26.0410  -11.8230   20.4230 N   0  0  0  0  0  0  0  0  0  0  0  0
  -24.0340  -10.5930   20.9490 C   0  0  0  0  0  0  0  0  0  0  0  0
  -24.4710   -9.6400   21.8950 C   0  0  0  0  0  3  0  0  0  0  0  0
  -23.7530   -8.4400   22.0840 C   0  0  0  0  0  3  0  0  0  0  0  0
  -22.5850   -8.1850   21.3290 C   0  0  0  0  0  0  0  0  0  0  0  0
  -22.1660   -9.1270   20.3730 C   0  0  0  0  0  3  0  0  0  0  0  0
  -22.8840  -10.3190   20.1810 C   0  0  0  0  0  3  0  0  0  0  0  0
  -21.8410   -7.0350   21.4240 O   0  0  0  0  0  0  0  0  0  0  0  0
  -21.7820   -6.3100   22.5870 C   0  0  0  0  0  0  0  0  0  0  0  0
  -21.3080   -6.8740   23.7920 C   0  0  0  0  0  3  0  0  0  0  0  0
  -21.2000   -6.0750   24.9480 C   0  0  0  0  0  3  0  0  0  0  0  0
  -21.5550   -4.7130   24.9000 C   0  0  0  0  0  0  0  0  0  0  0  0
  -22.0210   -4.1490   23.6990 C   0  0  0  0  0  3  0  0  0  0  0  0
  -22.1310   -4.9450   22.5460 C   0  0  0  0  0  0  0  0  0  0  0  0
  -22.5620   -4.3920   21.3860 F   0  0  0  0  0  0  0  0  0  0  0  0
  -21.4420   -3.9430   26.0060 F   0  0  0  0  0  0  0  0  0  0  0  0
  -22.8920  -13.6830   21.0600 C   0  0  0  0  0  0  0  0  0  0  0  0
  -22.1750  -12.9930   21.9400 N   0  0  0  0  0  0  0  0  0  0  0  0
  -22.4460  -14.7040   20.5380 O   0  0  0  0  0  0  0  0  0  0  0  0
  -22.5440  -12.1680   22.3880 H   0  0  0  0  0  0  0  0  0  0  0  0
  -21.2400  -13.3000   22.1730 H   0  0  0  0  0  0  0  0  0  0  0  0
  -25.5040  -15.3530   20.2090 N   0  0  0  0  0  0  0  0  0  0  0  0
  -24.7330  -16.0040   20.3160 H   0  0  0  0  0  0  0  0  0  0  0  0
  -26.3370  -15.7880   19.8340 H   0  0  0  0  0  0  0  0  0  0  0  0
  1  6  1  0
  2  1  2  0
  3  6  1  0
  4  2  1  0
  4  3  2  0
  5  3  1  0
  5  9  1  0
  7  5  1  0
  9  8  1  0
 10 11  1  0
 10  9  1  0
 12 23  2  0
 13 11  1  0
 13 18  1  0
 14 22  1  0
 14 24  1  0
 15 21  1  0
 15 17  1  0
 16 22  1  0
 17 16  1  0
 18 17  2  0
 19 20  1  0
 19 13  2  0
 20 15  2  0
 21 14  1  0
 22 12  1  0
 24 26  2  0
 25 24  1  0
 27 25  1  0
 28 37  2  0
 28 33  1  0
 29 25  1  0
 29 33  1  0
 30 29  1  0
 31 32  1  0
 31 30  1  0
 32 28  1  0
 33 34  2  0
 34 35  1  0
 36 35  2  0
 37 36  1  0
 38 12  1  0
 38 43  1  0
 38 39  1  0
 39 42  1  1
 39 40  1  0
 41 39  1  0
 43 46  1  0
 44 48  1  0
 44 43  1  0
 45 44  2  0
 48 47  1  0
 50 51  1  0
 50 48  1  0
 50 49  1  0
 52 61  1  0
 52  2  1  0
 53 61  1  0
 54 59  1  0
 55 56  1  0
 55 54  1  0
 57 56  1  0
 57 66  1  0
 57 58  1  0
 59 53  1  0
 59 58  1  0
 60 53  2  0
 61 62  1  0
 63 64  2  0
 64 83  1  0
 65 64  1  0
 65 68  1  0
 66 63  1  0
 66 67  1  0
 67 65  2  0
 68 69  1  0
 69 70  2  0
 71 74  1  0
 71 70  1  0
 72 71  2  0
 73 72  1  0
 73 68  2  0
 74 75  1  0
 75 76  1  0
 76 77  2  0
 78 77  1  0
 78 82  1  0
 79 78  2  0
 80 75  2  0
 80 79  1  0
 81 80  1  0
 83 84  1  0
 84 87  1  0
 84 86  1  0
 85 83  2  0
 88 89  1  0
 88 63  1  0
 90 88  1  0
M  ISO  4  10 101  11 101  53 100  61 100
M  END
>  <TORSDO>  (97) 
F 19

>  <SCORE>  (97) 
-13.294

>  <name>  (97) 
96

>  <ligand_id>  (97) 
96

>  <original_smiles>  (97) 
[H]c1sc(N([H])C([H])(C([H])([H])[H])C([H])([H])Oc2c([H])c([H])c3c(c2[H])C([H])([H])N(C(=O)C([H])(N([H])C(=O)C([H])(N([H])C([H])([H])[H])C([H])([H])[H])C(C([H])([H])[H])(C([H])([H])[H])C([H])([H])[H])C([H])(C(=O)N([H])C2([H])c4c([H])c([H])c([H])c([H])c4C([H])([H])C([H])([H])C2([H])[H])C3([H])[H])nc1C([H])([H])N([H])C(=O)N1C([H])([H])C([H])([H])C([H])([H])C([H])(n2nc(-c3c([H])c([H])c(Oc4c([H])c([H])c(F)c([H])c4F)c([H])c3[H])c(C(=O)N([H])[H])c2N([H])[H])C1([H])[H]

>  <smiles>  (97) 
[H]c1sc(N([H])C([H])(C([H])([H])[H])C([H])([H])Oc2c([H])c([H])c3c(c2[H])C([H])([H])N(C(=O)C([H])(N([H])C(=O)C([H])(N([H])C([H])([H])[H])C([H])([H])[H])C(C([H])([H])[H])(C([H])([H])[H])C([H])([H])[H])C([H])(C(=O)N([H])C2([H])c4c([H])c([H])c([H])c([H])c4C([H])([H])C([H])([H])C2([H])[H])C3([H])[H])nc1C([H])([H])N([H])C(=O)N1C([H])([H])C([H])([H])C([H])([H])C([H])(n2nc(-c3c([H])c([H])c(Oc4c([H])c([H])c(F)c([H])c4F)c([H])c3[H])c(C(=O)N([H])[H])c2N([H])[H])C1([H])[H]

$$$$
