0:0:0
     RDKit          3D

 94102  0  0  1  0  0  0  0  0999 V2000
  -29.5650  -18.5320   20.0980 C   0  0  0  0  0  0  0  0  0  0  0  0
  -27.4930  -19.1330   19.5960 C   0  0  0  0  0  0  0  0  0  0  0  0
  -28.9570  -20.7720   19.9360 C   0  0  0  0  0  0  0  0  0  0  0  0
  -28.3330  -18.1340   19.8080 N   0  0  0  0  0  4  0  0  0  0  0  0
  -29.9340  -19.8530   20.1930 N   0  0  0  0  0  0  0  0  0  0  0  0
  -27.7090  -20.4460   19.6260 N   0  0  0  0  0  2  0  0  0  0  0  0
  -26.2320  -18.7310   19.2710 N   0  0  0  0  0  0  0  0  0  0  0  0
  -29.2450  -22.1840   20.0920 N   0  0  0  0  0  0  0  0  0  0  0  0
  -25.4860  -19.4080   19.3680 H   0  0  0  0  0  0  0  0  0  0  0  0
  -25.9780  -17.7800   19.5070 H   0  0  0  0  0  0  0  0  0  0  0  0
  -30.1980  -22.3090   20.4050 H   0  0  0  0  0  0  0  0  0  0  0  0
  -29.6310  -23.8280   18.2390 C   0  0  0  0  0  1  0  0  0  0  0  0
  -28.7000  -23.4560   19.4160 C   0  0  0  0  0  3  0  0  0  0  0  0
  -28.3450  -24.7910   20.3280 C   0  0  0  0  0  2  0  0  0  0  0  0
  -28.4630  -26.2640   19.9600 O   0  0  0  0  0  0  0  0  0  0  0  0
  -24.5760  -31.6310   23.1080 C   0  0  0  0  0  0  0  0  0  0  0  0
  -27.3480  -27.1390   19.9950 C   0  0  0  0  0  0  0  0  0  0  0  0
  -23.4580  -30.2570   21.3920 C   0  0  0  0  0  3  0  0  0  0  0  0
  -24.9780  -28.7660   19.9690 C   0  0  0  0  0  0  0  0  0  0  0  0
  -26.0040  -30.6020   21.3110 C   0  0  0  0  0  2  0  0  0  0  0  0
  -26.1260  -29.2390   20.6200 C   0  0  0  0  0  0  0  0  0  0  0  0
  -27.3190  -28.4380   20.6160 C   0  0  0  0  0  3  0  0  0  0  0  0
  -26.1760  -26.7350   19.3300 C   0  0  0  0  0  3  0  0  0  0  0  0
  -25.0080  -27.5230   19.3160 C   0  0  0  0  0  3  0  0  0  0  0  0
  -23.7330  -29.6330   19.9990 C   0  0  0  0  0  2  0  0  0  0  0  0
  -24.6970  -30.8480   21.9930 N   0  0  0  0  0  0  0  0  0  0  0  0
  -23.4690  -31.8720   23.6120 O   0  0  0  0  0  0  0  0  0  0  0  0
  -22.7790  -29.2020   22.2990 C   0  0  0  0  0  0  0  0  0  0  0  0
  -21.4500  -29.0420   22.1600 N   0  0  0  0  0  0  0  0  0  0  0  0
  -23.4460  -28.5340   23.0930 O   0  0  0  0  0  0  0  0  0  0  0  0
  -20.9640  -29.6310   21.4980 H   0  0  0  0  0  0  0  0  0  0  0  0
  -18.0570  -27.8810   22.6450 C   0  0  0  0  0  0  0  0  0  0  0  0
  -20.6240  -28.0700   22.8820 C   0  0  0  0  0  3  0  0  0  0  0  0
  -20.6870  -26.6800   22.2110 C   0  0  0  0  0  2  0  0  0  0  0  0
  -19.5620  -26.4490   21.1990 C   0  0  0  0  0  2  0  0  0  0  0  0
  -18.1960  -26.5770   21.8760 C   0  0  0  0  0  2  0  0  0  0  0  0
  -19.2010  -28.5880   23.1030 C   0  0  0  0  0  0  0  0  0  0  0  0
  -19.0220  -29.8120   23.7870 C   0  0  0  0  0  3  0  0  0  0  0  0
  -17.7300  -30.3270   24.0130 C   0  0  0  0  0  3  0  0  0  0  0  0
  -16.6030  -29.6160   23.5660 C   0  0  0  0  0  3  0  0  0  0  0  0
  -16.7650  -28.3910   22.8940 C   0  0  0  0  0  3  0  0  0  0  0  0
  -25.8220  -32.2740   23.7870 C   0  0  0  0  0  3  0  0  0  0  0  0
  -26.2940  -31.4960   25.0760 C   0  0  1  0  0  0  0  0  0  0  0  0
  -25.1600  -31.2360   26.0960 C   0  0  0  0  0  1  0  0  0  0  0  0
  -26.9070  -30.1250   24.6990 C   0  0  0  0  0  1  0  0  0  0  0  0
  -27.4070  -32.2960   25.7940 C   0  0  0  0  0  1  0  0  0  0  0  0
  -25.4770  -33.6620   24.1230 N   0  0  0  0  0  0  0  0  0  0  0  0
  -25.8350  -34.7340   23.4020 C   0  0  0  0  0  0  0  0  0  0  0  0
  -26.5580  -34.6580   22.4050 O   0  0  0  0  0  0  0  0  0  0  0  0
  -24.8410  -33.7960   24.8950 H   0  0  0  0  0  0  0  0  0  0  0  0
  -24.0980  -36.5140   23.0040 C   0  0  0  0  0  1  0  0  0  0  0  0
  -25.3080  -36.1100   23.8600 C   0  0  0  0  0  3  0  0  0  0  0  0
  -27.3880  -37.0160   24.8030 C   0  0  0  0  0  1  0  0  0  0  0  0
  -26.3300  -37.1800   23.8070 N   0  0  0  0  0  0  0  0  0  0  0  0
  -25.9030  -38.0920   23.9470 H   0  0  0  0  0  0  0  0  0  0  0  0
  -30.6050  -17.3450   20.3510 C   0  0  0  0  0  2  0  0  0  0  0  0
  -30.8510  -14.7180   20.3580 C   0  0  0  0  0  0  0  0  0  0  0  0
  -30.5930  -12.4280   19.3800 C   0  0  0  0  0  2  0  0  0  0  0  0
  -29.6780  -12.5040   18.1390 C   0  0  0  0  0  2  0  0  0  0  0  0
  -28.2090  -12.3270   18.5580 C   0  0  0  0  0  2  0  0  0  0  0  0
  -27.8270  -13.2540   19.7410 C   0  0  0  0  0  3  0  0  0  0  0  0
  -28.8670  -13.2020   20.8810 C   0  0  0  0  0  2  0  0  0  0  0  0
  -30.1800  -13.5120   20.3030 N   0  0  0  0  0  0  0  0  0  0  0  0
  -32.0420  -14.7640   20.0440 O   0  0  0  0  0  0  0  0  0  0  0  0
  -30.1390  -15.8970   20.5530 N   0  0  0  0  0  0  0  0  0  0  0  0
  -29.1620  -15.8250   20.7900 H   0  0  0  0  0  0  0  0  0  0  0  0
  -25.4490  -13.8890   20.4420 C   0  0  0  0  0  0  0  0  0  0  0  0
  -24.3660  -13.1370   20.8000 C   0  0  0  0  0  0  0  0  0  0  0  0
  -24.8080  -11.7790   20.7990 C   0  0  0  0  0  0  0  0  0  0  0  0
  -26.4790  -12.9920   20.2260 N   0  0  0  0  0  0  0  0  0  0  0  0
  -26.1020  -11.7170   20.5080 N   0  0  0  0  0  0  0  0  0  0  0  0
  -24.0580  -10.5280   20.9920 C   0  0  0  0  0  0  0  0  0  0  0  0
  -24.4620   -9.5640   21.9420 C   0  0  0  0  0  3  0  0  0  0  0  0
  -23.7140   -8.3810   22.1210 C   0  0  0  0  0  3  0  0  0  0  0  0
  -22.5480   -8.1510   21.3550 C   0  0  0  0  0  0  0  0  0  0  0  0
  -22.1650   -9.1020   20.3940 C   0  0  0  0  0  3  0  0  0  0  0  0
  -22.9130  -10.2780   20.2110 C   0  0  0  0  0  3  0  0  0  0  0  0
  -21.7750   -7.0190   21.4460 O   0  0  0  0  0  0  0  0  0  0  0  0
  -21.6950   -6.2940   22.6090 C   0  0  0  0  0  0  0  0  0  0  0  0
  -21.2440   -6.8710   23.8160 C   0  0  0  0  0  3  0  0  0  0  0  0
  -21.1090   -6.0730   24.9690 C   0  0  0  0  0  3  0  0  0  0  0  0
  -21.4130   -4.7010   24.9160 C   0  0  0  0  0  0  0  0  0  0  0  0
  -21.8630   -4.1240   23.7150 C   0  0  0  0  0  3  0  0  0  0  0  0
  -22.0000   -4.9190   22.5640 C   0  0  0  0  0  0  0  0  0  0  0  0
  -22.4090   -4.3560   21.4010 F   0  0  0  0  0  0  0  0  0  0  0  0
  -21.2740   -3.9290   26.0210 F   0  0  0  0  0  0  0  0  0  0  0  0
  -22.9730  -13.6380   21.0440 C   0  0  0  0  0  0  0  0  0  0  0  0
  -22.2260  -12.9760   21.9210 N   0  0  0  0  0  0  0  0  0  0  0  0
  -22.5550  -14.6530   20.4880 O   0  0  0  0  0  0  0  0  0  0  0  0
  -22.5770  -12.1520   22.3880 H   0  0  0  0  0  0  0  0  0  0  0  0
  -21.2940  -13.3030   22.1300 H   0  0  0  0  0  0  0  0  0  0  0  0
  -25.6480  -15.2520   20.2520 N   0  0  0  0  0  0  0  0  0  0  0  0
  -24.8980  -15.9310   20.2980 H   0  0  0  0  0  0  0  0  0  0  0  0
  -26.5280  -15.6580   19.9570 H   0  0  0  0  0  0  0  0  0  0  0  0
  1  5  1  0
  1 56  1  0
  2  6  1  0
  2  4  2  0
  3  8  1  0
  3  5  2  0
  4  1  2  0
  6  3  1  0
  7  9  1  0
  7 10  1  0
  7  2  1  0
  8 11  1  0
 13 12  1  0
 13  8  1  0
 13 14  1  0
 15 17  1  0
 15 14  1  0
 16 27  2  0
 17 22  1  0
 18 26  1  0
 18 28  1  0
 19 25  1  0
 19 21  1  0
 20 26  1  0
 21 20  1  0
 22 21  2  0
 23 17  2  0
 24 23  1  0
 24 19  2  0
 25 18  1  0
 26 16  1  0
 28 30  2  0
 29 28  1  0
 31 29  1  0
 32 41  2  0
 32 37  1  0
 33 29  1  0
 33 37  1  0
 34 33  1  0
 35 36  1  0
 35 34  1  0
 36 32  1  0
 37 38  2  0
 38 39  1  0
 40 39  2  0
 41 40  1  0
 42 16  1  0
 42 47  1  0
 42 43  1  0
 43 46  1  1
 43 44  1  0
 45 43  1  0
 47 50  1  0
 48 52  1  0
 48 47  1  0
 49 48  2  0
 52 51  1  0
 54 52  1  0
 54 55  1  0
 54 53  1  0
 56 65  1  0
 57 65  1  0
 58 63  1  0
 59 60  1  0
 59 58  1  0
 61 60  1  0
 61 70  1  0
 61 62  1  0
 63 57  1  0
 63 62  1  0
 64 57  2  0
 65 66  1  0
 67 68  2  0
 68 87  1  0
 69 68  1  0
 69 72  1  0
 70 67  1  0
 70 71  1  0
 71 69  2  0
 72 73  1  0
 73 74  2  0
 75 78  1  0
 75 74  1  0
 76 75  2  0
 77 76  1  0
 77 72  2  0
 78 79  1  0
 79 80  1  0
 80 81  2  0
 82 81  1  0
 82 86  1  0
 83 82  2  0
 84 79  2  0
 84 83  1  0
 85 84  1  0
 87 88  1  0
 88 91  1  0
 88 90  1  0
 89 87  2  0
 92 93  1  0
 92 67  1  0
 94 92  1  0
M  ISO  4  14 101  15 101  57 100  65 100
M  END
>  <TORSDO>  (1) 
F 19

>  <SCORE>  (1) 
-13.900

>  <name>  (1) 
0

>  <ligand_id>  (1) 
0

>  <original_smiles>  (1) 
[H]c1c([H])c([H])c2c(c1[H])C([H])([H])C([H])([H])C([H])([H])C2([H])N([H])C(=O)C1([H])N(C(=O)C([H])(N([H])C(=O)C([H])(N([H])C([H])([H])[H])C([H])([H])[H])C(C([H])([H])[H])(C([H])([H])[H])C([H])([H])[H])C([H])([H])c2c([H])c(OC([H])([H])C([H])(N([H])c3nc(N([H])[H])nc(C([H])([H])N([H])C(=O)N4C([H])([H])C([H])([H])C([H])([H])C([H])(n5nc(-c6c([H])c([H])c(Oc7c([H])c([H])c(F)c([H])c7F)c([H])c6[H])c(C(=O)N([H])[H])c5N([H])[H])C4([H])[H])n3)C([H])([H])[H])c([H])c([H])c2C1([H])[H]

>  <smiles>  (1) 
[H]c1c([H])c([H])c2c(c1[H])C([H])([H])C([H])([H])C([H])([H])C2([H])N([H])C(=O)C1([H])N(C(=O)C([H])(N([H])C(=O)C([H])(N([H])C([H])([H])[H])C([H])([H])[H])C(C([H])([H])[H])(C([H])([H])[H])C([H])([H])[H])C([H])([H])c2c([H])c(OC([H])([H])C([H])(N([H])c3nc(N([H])[H])nc(C([H])([H])N([H])C(=O)N4C([H])([H])C([H])([H])C([H])([H])C([H])(n5nc(-c6c([H])c([H])c(Oc7c([H])c([H])c(F)c([H])c7F)c([H])c6[H])c(C(=O)N([H])[H])c5N([H])[H])C4([H])[H])n3)C([H])([H])[H])c([H])c([H])c2C1([H])[H]

$$$$
1:0:0
     RDKit          3D

 92100  0  0  1  0  0  0  0  0999 V2000
  -29.4870  -21.5970   20.4590 N   0  0  0  0  0  4  0  0  0  0  0  0
  -29.0530  -21.1390   21.2460 H   0  0  0  0  0  0  0  0  0  0  0  0
  -29.1340  -21.9500   19.5830 H   0  0  0  0  0  0  0  0  0  0  0  0
  -28.7550  -22.7650   22.5100 C   0  0  0  0  0  1  0  0  0  0  0  0
  -28.6830  -22.7520   20.9710 C   0  0  0  0  0  3  0  0  0  0  0  0
  -29.0740  -24.1470   20.3510 C   0  0  0  0  0  2  0  0  0  0  0  0
  -28.2030  -25.3440   20.8590 C   0  0  0  0  0  2  0  0  0  0  0  0
  -28.3720  -26.6130   20.1720 O   0  0  0  0  0  0  0  0  0  0  0  0
  -24.6020  -31.8710   23.2260 C   0  0  0  0  0  0  0  0  0  0  0  0
  -27.2360  -27.4030   20.1530 C   0  0  0  0  0  0  0  0  0  0  0  0
  -23.3940  -30.4670   21.5900 C   0  0  0  0  0  3  0  0  0  0  0  0
  -24.8470  -28.9320   20.1580 C   0  0  0  0  0  0  0  0  0  0  0  0
  -25.9220  -30.8240   21.3850 C   0  0  0  0  0  2  0  0  0  0  0  0
  -26.0090  -29.4510   20.7440 C   0  0  0  0  0  0  0  0  0  0  0  0
  -27.2090  -28.6970   20.7360 C   0  0  0  0  0  3  0  0  0  0  0  0
  -26.0590  -26.9150   19.5470 C   0  0  0  0  0  3  0  0  0  0  0  0
  -24.8680  -27.6640   19.5530 C   0  0  0  0  0  3  0  0  0  0  0  0
  -23.6010  -29.7900   20.2100 C   0  0  0  0  0  2  0  0  0  0  0  0
  -24.6580  -31.0690   22.1250 N   0  0  0  0  0  0  0  0  0  0  0  0
  -23.5220  -32.1420   23.7700 O   0  0  0  0  0  0  0  0  0  0  0  0
  -22.7470  -29.4460   22.5540 C   0  0  0  0  0  0  0  0  0  0  0  0
  -21.4220  -29.2640   22.4340 N   0  0  0  0  0  0  0  0  0  0  0  0
  -23.4360  -28.8200   23.3660 O   0  0  0  0  0  0  0  0  0  0  0  0
  -20.9290  -29.8220   21.7500 H   0  0  0  0  0  0  0  0  0  0  0  0
  -18.0490  -28.0710   22.9450 C   0  0  0  0  0  0  0  0  0  0  0  0
  -20.6080  -28.3280   23.2090 C   0  0  0  0  0  3  0  0  0  0  0  0
  -20.7090  -26.8970   22.6340 C   0  0  0  0  0  2  0  0  0  0  0  0
  -19.6030  -26.5750   21.6240 C   0  0  0  0  0  2  0  0  0  0  0  0
  -18.2230  -26.7210   22.2710 C   0  0  0  0  0  2  0  0  0  0  0  0
  -19.1690  -28.8320   23.3720 C   0  0  0  0  0  0  0  0  0  0  0  0
  -18.9520  -30.0960   23.9620 C   0  0  0  0  0  3  0  0  0  0  0  0
  -17.6480  -30.5970   24.1330 C   0  0  0  0  0  3  0  0  0  0  0  0
  -16.5420  -29.8320   23.7250 C   0  0  0  0  0  3  0  0  0  0  0  0
  -16.7440  -28.5710   23.1350 C   0  0  0  0  0  3  0  0  0  0  0  0
  -25.8890  -32.5050   23.8430 C   0  0  0  0  0  3  0  0  0  0  0  0
  -25.5780  -33.9000   24.1790 N   0  0  0  0  0  0  0  0  0  0  0  0
  -25.9030  -34.9560   23.4220 C   0  0  0  0  0  0  0  0  0  0  0  0
  -26.5670  -34.8580   22.3870 O   0  0  0  0  0  0  0  0  0  0  0  0
  -24.9850  -34.0500   24.9810 H   0  0  0  0  0  0  0  0  0  0  0  0
  -24.1660  -36.7450   23.0830 C   0  0  0  0  0  1  0  0  0  0  0  0
  -25.4130  -36.3420   23.8870 C   0  0  0  0  0  3  0  0  0  0  0  0
  -27.5480  -37.2300   24.7080 C   0  0  0  0  0  1  0  0  0  0  0  0
  -26.4410  -37.3980   23.7710 N   0  0  0  0  0  0  0  0  0  0  0  0
  -26.0350  -38.3160   23.9260 H   0  0  0  0  0  0  0  0  0  0  0  0
  -26.4200  -31.7290   25.1110 C   0  0  1  0  0  0  0  0  0  0  0  0
  -25.3350  -31.4850   26.1880 C   0  0  0  0  0  1  0  0  0  0  0  0
  -27.0030  -30.3560   24.7070 C   0  0  0  0  0  1  0  0  0  0  0  0
  -27.5720  -32.5250   25.7670 C   0  0  0  0  0  1  0  0  0  0  0  0
  -28.8970  -20.3830   19.8230 C   0  0  0  0  0  2  0  0  0  0  0  0
  -29.0750  -17.9110   20.5490 C   0  0  0  0  0  3  0  0  0  0  0  0
  -30.9410  -18.8860   20.0110 C   0  0  0  0  0  3  0  0  0  0  0  0
  -30.0980  -16.9790   20.5660 C   0  0  0  0  0  0  0  0  0  0  0  0
  -31.2970  -17.6200   20.2490 N   0  0  0  0  0  0  0  0  0  0  0  0
  -29.6280  -19.1410   20.1530 N   0  0  0  0  0  0  0  0  0  0  0  0
  -30.6530  -14.5280   20.4290 C   0  0  0  0  0  0  0  0  0  0  0  0
  -30.3710  -12.3390   19.3230 C   0  0  0  0  0  2  0  0  0  0  0  0
  -29.4310  -12.5240   18.1140 C   0  0  0  0  0  2  0  0  0  0  0  0
  -27.9560  -12.3850   18.5430 C   0  0  0  0  0  2  0  0  0  0  0  0
  -27.6130  -13.2340   19.7960 C   0  0  0  0  0  3  0  0  0  0  0  0
  -28.6700  -13.0350   20.9090 C   0  0  0  0  0  2  0  0  0  0  0  0
  -29.9920  -13.3380   20.3380 N   0  0  0  0  0  0  0  0  0  0  0  0
  -31.8100  -14.6600   20.0200 O   0  0  0  0  0  0  0  0  0  0  0  0
  -29.8970  -15.5820   20.8250 N   0  0  0  0  0  0  0  0  0  0  0  0
  -28.9770  -15.3250   21.1470 H   0  0  0  0  0  0  0  0  0  0  0  0
  -25.2150  -13.8440   20.5050 C   0  0  0  0  0  0  0  0  0  0  0  0
  -24.1470  -13.0730   20.8770 C   0  0  0  0  0  0  0  0  0  0  0  0
  -24.6080  -11.7220   20.8520 C   0  0  0  0  0  0  0  0  0  0  0  0
  -26.2600  -12.9610   20.2770 N   0  0  0  0  0  0  0  0  0  0  0  0
  -25.8990  -11.6800   20.5460 N   0  0  0  0  0  0  0  0  0  0  0  0
  -23.8800  -10.4600   21.0460 C   0  0  0  0  0  0  0  0  0  0  0  0
  -24.3210   -9.4900   21.9720 C   0  0  0  0  0  3  0  0  0  0  0  0
  -23.5960   -8.2930   22.1540 C   0  0  0  0  0  3  0  0  0  0  0  0
  -22.4160   -8.0580   21.4090 C   0  0  0  0  0  0  0  0  0  0  0  0
  -21.9940   -9.0180   20.4710 C   0  0  0  0  0  3  0  0  0  0  0  0
  -22.7200  -10.2060   20.2870 C   0  0  0  0  0  3  0  0  0  0  0  0
  -21.6610   -6.9140   21.4990 O   0  0  0  0  0  0  0  0  0  0  0  0
  -21.6330   -6.1590   22.6450 C   0  0  0  0  0  0  0  0  0  0  0  0
  -21.2380   -6.7030   23.8860 C   0  0  0  0  0  3  0  0  0  0  0  0
  -21.1580   -5.8760   25.0240 C   0  0  0  0  0  3  0  0  0  0  0  0
  -21.4610   -4.5050   24.9210 C   0  0  0  0  0  0  0  0  0  0  0  0
  -21.8480   -3.9590   23.6850 C   0  0  0  0  0  3  0  0  0  0  0  0
  -21.9310   -4.7850   22.5490 C   0  0  0  0  0  0  0  0  0  0  0  0
  -22.2840   -4.2500   21.3550 F   0  0  0  0  0  0  0  0  0  0  0  0
  -21.3750   -3.7080   26.0120 F   0  0  0  0  0  0  0  0  0  0  0  0
  -22.7490  -13.5530   21.1440 C   0  0  0  0  0  0  0  0  0  0  0  0
  -22.0190  -12.8600   22.0110 N   0  0  0  0  0  0  0  0  0  0  0  0
  -22.3120  -14.5760   20.6190 O   0  0  0  0  0  0  0  0  0  0  0  0
  -22.3840  -12.0320   22.4580 H   0  0  0  0  0  0  0  0  0  0  0  0
  -21.0800  -13.1620   22.2310 H   0  0  0  0  0  0  0  0  0  0  0  0
  -25.3780  -15.2150   20.3200 N   0  0  0  0  0  0  0  0  0  0  0  0
  -24.6010  -15.8590   20.4140 H   0  0  0  0  0  0  0  0  0  0  0  0
  -26.2090  -15.6500   19.9430 H   0  0  0  0  0  0  0  0  0  0  0  0
  1  5  1  0
  1  2  1  0
  3  1  1  0
  5  4  1  0
  6  7  1  0
  6  5  1  0
  8  7  1  0
  9 20  2  0
 10  8  1  0
 10 15  1  0
 11 19  1  0
 11 21  1  0
 12 18  1  0
 12 14  1  0
 13 19  1  0
 14 13  1  0
 15 14  2  0
 16 17  1  0
 16 10  2  0
 17 12  2  0
 18 11  1  0
 19  9  1  0
 21 23  2  0
 22 21  1  0
 24 22  1  0
 25 34  2  0
 25 30  1  0
 26 22  1  0
 26 30  1  0
 27 26  1  0
 28 29  1  0
 28 27  1  0
 29 25  1  0
 30 31  2  0
 31 32  1  0
 33 32  2  0
 34 33  1  0
 35  9  1  0
 35 36  1  0
 35 45  1  0
 36 39  1  0
 37 41  1  0
 37 36  1  0
 38 37  2  0
 41 40  1  0
 43 41  1  0
 43 44  1  0
 43 42  1  0
 45 48  1  1
 45 46  1  0
 47 45  1  0
 49 54  1  0
 49  1  1  0
 50 52  2  0
 51 54  1  0
 51 53  2  0
 52 63  1  0
 53 52  1  0
 54 50  1  0
 55 63  1  0
 56 61  1  0
 57 58  1  0
 57 56  1  0
 59 58  1  0
 59 68  1  0
 59 60  1  0
 61 55  1  0
 61 60  1  0
 62 55  2  0
 63 64  1  0
 65 66  2  0
 66 85  1  0
 67 66  1  0
 67 70  1  0
 68 65  1  0
 68 69  1  0
 69 67  2  0
 70 71  1  0
 71 72  2  0
 73 76  1  0
 73 72  1  0
 74 73  2  0
 75 74  1  0
 75 70  2  0
 76 77  1  0
 77 78  1  0
 78 79  2  0
 80 79  1  0
 80 84  1  0
 81 80  2  0
 82 77  2  0
 82 81  1  0
 83 82  1  0
 85 86  1  0
 86 89  1  0
 86 88  1  0
 87 85  2  0
 90 91  1  0
 90 65  1  0
 92 90  1  0
M  ISO  4   7 101   8 101  55 100  63 100
M  END
>  <TORSDO>  (2) 
F 21

>  <SCORE>  (2) 
-13.408

>  <name>  (2) 
1

>  <ligand_id>  (2) 
1

>  <original_smiles>  (2) 
[H]c1c([H])c([H])c2c(c1[H])C([H])([H])C([H])([H])C([H])([H])C2([H])N([H])C(=O)C1([H])N(C(=O)C([H])(N([H])C(=O)C([H])(N([H])C([H])([H])[H])C([H])([H])[H])C(C([H])([H])[H])(C([H])([H])[H])C([H])([H])[H])C([H])([H])c2c([H])c(OC([H])([H])C([H])([H])C([H])(C([H])([H])[H])[N+]([H])([H])C([H])([H])n3c([H])nc(N([H])C(=O)N4C([H])([H])C([H])([H])C([H])([H])C([H])(n5nc(-c6c([H])c([H])c(Oc7c([H])c([H])c(F)c([H])c7F)c([H])c6[H])c(C(=O)N([H])[H])c5N([H])[H])C4([H])[H])c3[H])c([H])c([H])c2C1([H])[H]

>  <smiles>  (2) 
[H]c1c([H])c([H])c2c(c1[H])C([H])([H])C([H])([H])C([H])([H])C2([H])N([H])C(=O)C1([H])N(C(=O)C([H])(N([H])C(=O)C([H])(N([H])C([H])([H])[H])C([H])([H])[H])C(C([H])([H])[H])(C([H])([H])[H])C([H])([H])[H])C([H])([H])c2c([H])c(OC([H])([H])C([H])([H])C([H])(C([H])([H])[H])[N+]([H])([H])C([H])([H])n3c([H])nc(N([H])C(=O)N4C([H])([H])C([H])([H])C([H])([H])C([H])(n5nc(-c6c([H])c([H])c(Oc7c([H])c([H])c(F)c([H])c7F)c([H])c6[H])c(C(=O)N([H])[H])c5N([H])[H])C4([H])[H])c3[H])c([H])c([H])c2C1([H])[H]

$$$$
2:0:0
     RDKit          3D

 98106  0  0  1  0  0  0  0  0999 V2000
  -28.6430  -22.1080   20.4670 N   0  0  0  0  0  4  0  0  0  0  0  0
  -29.4120  -21.8630   21.0710 H   0  0  0  0  0  0  0  0  0  0  0  0
  -27.8320  -22.0270   21.0600 H   0  0  0  0  0  0  0  0  0  0  0  0
  -27.2300  -20.6370   18.9860 C   0  0  0  0  0  1  0  0  0  0  0  0
  -28.6610  -20.9530   19.4510 C   0  0  0  0  0  3  0  0  0  0  0  0
  -30.3560  -14.6530   19.8820 C   0  0  0  0  0  0  0  0  0  0  0  0
  -30.1270  -12.3570   18.9110 C   0  0  0  0  0  2  0  0  0  0  0  0
  -29.0810  -12.3850   17.7740 C   0  0  0  0  0  2  0  0  0  0  0  0
  -27.6580  -12.1790   18.3350 C   0  0  0  0  0  2  0  0  0  0  0  0
  -27.3710  -13.0690   19.5740 C   0  0  0  0  0  3  0  0  0  0  0  0
  -28.5290  -13.0310   20.5950 C   0  0  0  0  0  2  0  0  0  0  0  0
  -29.7520  -13.4130   19.8800 N   0  0  0  0  0  0  0  0  0  0  0  0
  -31.5260  -14.7520   19.5020 O   0  0  0  0  0  0  0  0  0  0  0  0
  -29.4730  -19.6080   19.7810 C   0  0  0  0  0  0  0  0  0  0  0  0
  -30.8520  -19.5430   19.8420 C   0  0  0  0  0  0  0  0  0  0  0  0
  -29.8590  -17.2300   19.9860 C   0  0  0  0  0  0  0  0  0  0  0  0
  -28.9380  -18.2560   19.8870 N   0  0  0  0  0  0  0  0  0  0  0  0
  -29.5490  -15.7760   20.0610 N   0  0  0  0  0  0  0  0  0  0  0  0
  -31.4850  -17.9050   20.0390 S   0  0  0  0  0  0  0  0  0  0  0  0
  -28.5790  -15.5620   20.2140 H   0  0  0  0  0  0  0  0  0  0  0  0
  -25.0600  -13.6100   20.5430 C   0  0  0  0  0  0  0  0  0  0  0  0
  -24.0450  -12.8150   20.9960 C   0  0  0  0  0  0  0  0  0  0  0  0
  -24.5200  -11.4720   20.8910 C   0  0  0  0  0  0  0  0  0  0  0  0
  -26.0880  -12.7520   20.1890 N   0  0  0  0  0  0  0  0  0  0  0  0
  -25.7770  -11.4590   20.4630 N   0  0  0  0  0  0  0  0  0  0  0  0
  -23.8290  -10.1960   21.1190 C   0  0  0  0  0  0  0  0  0  0  0  0
  -24.3240   -9.2410   22.0360 C   0  0  0  0  0  3  0  0  0  0  0  0
  -23.6320   -8.0290   22.2510 C   0  0  0  0  0  3  0  0  0  0  0  0
  -22.4290   -7.7660   21.5540 C   0  0  0  0  0  0  0  0  0  0  0  0
  -21.9530   -8.7070   20.6250 C   0  0  0  0  0  3  0  0  0  0  0  0
  -22.6470   -9.9110   20.4060 C   0  0  0  0  0  3  0  0  0  0  0  0
  -21.7010   -6.6080   21.6840 O   0  0  0  0  0  0  0  0  0  0  0  0
  -21.6980   -5.8870   22.8500 C   0  0  0  0  0  0  0  0  0  0  0  0
  -21.2400   -6.4370   24.0690 C   0  0  0  0  0  3  0  0  0  0  0  0
  -21.1900   -5.6370   25.2280 C   0  0  0  0  0  3  0  0  0  0  0  0
  -21.5880   -4.2870   25.1700 C   0  0  0  0  0  0  0  0  0  0  0  0
  -22.0370   -3.7370   23.9570 C   0  0  0  0  0  3  0  0  0  0  0  0
  -22.0890   -4.5340   22.8020 C   0  0  0  0  0  0  0  0  0  0  0  0
  -22.5050   -3.9930   21.6310 F   0  0  0  0  0  0  0  0  0  0  0  0
  -21.5320   -3.5160   26.2800 F   0  0  0  0  0  0  0  0  0  0  0  0
  -22.6740  -13.2650   21.4050 C   0  0  0  0  0  0  0  0  0  0  0  0
  -22.0380  -12.5420   22.3230 N   0  0  0  0  0  0  0  0  0  0  0  0
  -22.1760  -14.2930   20.9460 O   0  0  0  0  0  0  0  0  0  0  0  0
  -22.4550  -11.7100   22.7150 H   0  0  0  0  0  0  0  0  0  0  0  0
  -21.1210  -12.8230   22.6400 H   0  0  0  0  0  0  0  0  0  0  0  0
  -25.1870  -14.9850   20.3740 N   0  0  0  0  0  0  0  0  0  0  0  0
  -24.4140  -15.6170   20.5550 H   0  0  0  0  0  0  0  0  0  0  0  0
  -25.9750  -15.4420   19.9330 H   0  0  0  0  0  0  0  0  0  0  0  0
  -31.7570  -20.5890   19.7020 N   0  0  0  0  0  0  0  0  0  0  0  0
  -31.6510  -21.1760   18.8790 H   0  0  0  0  0  0  0  0  0  0  0  0
  -32.7390  -20.3440   19.8000 H   0  0  0  0  0  0  0  0  0  0  0  0
  -28.9260  -23.6030   20.1320 C   0  0  0  0  0  3  0  0  0  0  0  0
  -29.9580  -23.9860   21.2000 C   0  0  0  0  0  0  0  0  0  0  0  0
  -29.6660  -24.6470   22.1980 O   0  0  0  0  0  0  0  0  0  0  0  0
  -31.6510  -22.2530   22.0450 C   0  0  0  0  0  1  0  0  0  0  0  0
  -31.3750  -23.4130   21.0700 C   0  0  0  0  0  2  0  0  0  0  0  0
  -27.7450  -24.7310   20.1650 C   0  0  0  0  0  2  0  0  0  0  0  0
  -28.0410  -26.2220   20.1430 O   0  0  0  0  0  0  0  0  0  0  0  0
  -24.5510  -31.7790   23.2910 C   0  0  0  0  0  0  0  0  0  0  0  0
  -26.9690  -27.1520   20.1230 C   0  0  0  0  0  0  0  0  0  0  0  0
  -23.2880  -30.4630   21.6310 C   0  0  0  0  0  3  0  0  0  0  0  0
  -24.6720  -28.8910   20.1570 C   0  0  0  0  0  0  0  0  0  0  0  0
  -25.8400  -30.6830   21.4370 C   0  0  0  0  0  2  0  0  0  0  0  0
  -25.8660  -29.3140   20.7550 C   0  0  0  0  0  0  0  0  0  0  0  0
  -27.0190  -28.4600   20.7210 C   0  0  0  0  0  3  0  0  0  0  0  0
  -25.7530  -26.8030   19.4940 C   0  0  0  0  0  3  0  0  0  0  0  0
  -24.6230  -27.6450   19.5150 C   0  0  0  0  0  3  0  0  0  0  0  0
  -23.4680  -29.8120   20.2340 C   0  0  0  0  0  2  0  0  0  0  0  0
  -24.5800  -30.9900   22.1760 N   0  0  0  0  0  0  0  0  0  0  0  0
  -23.4800  -32.0840   23.8390 O   0  0  0  0  0  0  0  0  0  0  0  0
  -22.5940  -29.4520   22.5740 C   0  0  0  0  0  0  0  0  0  0  0  0
  -21.2690  -29.2840   22.4160 N   0  0  0  0  0  0  0  0  0  0  0  0
  -23.2470  -28.8210   23.4100 O   0  0  0  0  0  0  0  0  0  0  0  0
  -20.8000  -29.8330   21.7100 H   0  0  0  0  0  0  0  0  0  0  0  0
  -17.8820  -28.0750   22.8030 C   0  0  0  0  0  0  0  0  0  0  0  0
  -20.4280  -28.3530   23.1690 C   0  0  0  0  0  3  0  0  0  0  0  0
  -20.5620  -26.9160   22.6140 C   0  0  0  0  0  2  0  0  0  0  0  0
  -19.5000  -26.5750   21.5640 C   0  0  0  0  0  2  0  0  0  0  0  0
  -18.0930  -26.7200   22.1490 C   0  0  0  0  0  2  0  0  0  0  0  0
  -18.9800  -28.8490   23.2670 C   0  0  0  0  0  0  0  0  0  0  0  0
  -18.7300  -30.1170   23.8350 C   0  0  0  0  0  3  0  0  0  0  0  0
  -17.4170  -30.6110   23.9490 C   0  0  0  0  0  3  0  0  0  0  0  0
  -16.3340  -29.8340   23.5020 C   0  0  0  0  0  3  0  0  0  0  0  0
  -16.5680  -28.5700   22.9330 C   0  0  0  0  0  3  0  0  0  0  0  0
  -25.8590  -32.3530   23.9150 C   0  0  0  0  0  3  0  0  0  0  0  0
  -25.6090  -33.7610   24.2590 N   0  0  0  0  0  0  0  0  0  0  0  0
  -25.9570  -34.8050   23.4970 C   0  0  0  0  0  0  0  0  0  0  0  0
  -26.5930  -34.6860   22.4480 O   0  0  0  0  0  0  0  0  0  0  0  0
  -25.0490  -33.9310   25.0810 H   0  0  0  0  0  0  0  0  0  0  0  0
  -24.2740  -36.6540   23.2160 C   0  0  0  0  0  1  0  0  0  0  0  0
  -25.5340  -36.2090   23.9760 C   0  0  0  0  0  3  0  0  0  0  0  0
  -27.7210  -37.0350   24.7290 C   0  0  0  0  0  1  0  0  0  0  0  0
  -26.5920  -37.2300   23.8220 N   0  0  0  0  0  0  0  0  0  0  0  0
  -26.2190  -38.1620   23.9790 H   0  0  0  0  0  0  0  0  0  0  0  0
  -26.3410  -31.5510   25.1870 C   0  0  1  0  0  0  0  0  0  0  0  0
  -25.2350  -31.3520   26.2490 C   0  0  0  0  0  1  0  0  0  0  0  0
  -26.8710  -30.1540   24.7890 C   0  0  0  0  0  1  0  0  0  0  0  0
  -27.5170  -32.2950   25.8590 C   0  0  0  0  0  1  0  0  0  0  0  0
  1  3  1  0
  1  2  1  0
  5  4  1  0
  5 14  1  0
  5  1  1  0
  6 18  1  0
  7 12  1  0
  8  9  1  0
  8  7  1  0
 10  9  1  0
 10 24  1  0
 10 11  1  0
 12  6  1  0
 12 11  1  0
 13  6  2  0
 14 15  2  0
 14 17  1  0
 15 19  1  0
 16 19  1  0
 16 18  1  0
 17 16  2  0
 18 20  1  0
 21 22  2  0
 22 41  1  0
 23 22  1  0
 23 26  1  0
 24 25  1  0
 24 21  1  0
 25 23  2  0
 26 27  1  0
 27 28  2  0
 29 32  1  0
 29 28  1  0
 30 29  2  0
 31 30  1  0
 31 26  2  0
 32 33  1  0
 33 34  1  0
 34 35  2  0
 36 35  1  0
 36 40  1  0
 37 36  2  0
 38 33  2  0
 38 37  1  0
 39 38  1  0
 41 42  1  0
 42 45  1  0
 42 44  1  0
 43 41  2  0
 46 21  1  0
 46 47  1  0
 48 46  1  0
 49 51  1  0
 49 15  1  0
 50 49  1  0
 52 57  1  0
 52  1  1  0
 52 53  1  0
 53 54  2  0
 56 53  1  0
 56 55  1  0
 58 57  1  0
 59 70  2  0
 60 58  1  0
 60 65  1  0
 61 69  1  0
 61 71  1  0
 62 68  1  0
 62 64  1  0
 63 69  1  0
 64 63  1  0
 65 64  2  0
 66 67  1  0
 66 60  2  0
 67 62  2  0
 68 61  1  0
 69 59  1  0
 71 73  2  0
 72 71  1  0
 74 72  1  0
 75 84  2  0
 75 80  1  0
 76 72  1  0
 76 80  1  0
 77 76  1  0
 78 79  1  0
 78 77  1  0
 79 75  1  0
 80 81  2  0
 81 82  1  0
 83 82  2  0
 84 83  1  0
 85 59  1  0
 85 86  1  0
 85 95  1  0
 86 89  1  0
 87 91  1  0
 87 86  1  0
 88 87  2  0
 91 90  1  0
 93 91  1  0
 93 94  1  0
 93 92  1  0
 95 98  1  1
 95 96  1  0
 97 95  1  0
M  ISO  4   6 100  18 100  57 101  58 101
M  END
>  <TORSDO>  (3) 
F 22

>  <SCORE>  (3) 
-12.583

>  <name>  (3) 
2

>  <ligand_id>  (3) 
2

>  <original_smiles>  (3) 
[H]c1c([H])c([H])c2c(c1[H])C([H])([H])C([H])([H])C([H])([H])C2([H])N([H])C(=O)C1([H])N(C(=O)C([H])(N([H])C(=O)C([H])(N([H])C([H])([H])[H])C([H])([H])[H])C(C([H])([H])[H])(C([H])([H])[H])C([H])([H])[H])C([H])([H])c2c([H])c(OC([H])([H])C([H])(C(=O)C([H])([H])C([H])([H])[H])[N+]([H])([H])C([H])(c3nc(N([H])C(=O)N4C([H])([H])C([H])([H])C([H])([H])C([H])(n5nc(-c6c([H])c([H])c(Oc7c([H])c([H])c(F)c([H])c7F)c([H])c6[H])c(C(=O)N([H])[H])c5N([H])[H])C4([H])[H])sc3N([H])[H])C([H])([H])[H])c([H])c([H])c2C1([H])[H]

>  <smiles>  (3) 
[H]c1c([H])c([H])c2c(c1[H])C([H])([H])C([H])([H])C([H])([H])C2([H])N([H])C(=O)C1([H])N(C(=O)C([H])(N([H])C(=O)C([H])(N([H])C([H])([H])[H])C([H])([H])[H])C(C([H])([H])[H])(C([H])([H])[H])C([H])([H])[H])C([H])([H])c2c([H])c(OC([H])([H])C([H])(C(=O)C([H])([H])C([H])([H])[H])[N+]([H])([H])C([H])(c3nc(N([H])C(=O)N4C([H])([H])C([H])([H])C([H])([H])C([H])(n5nc(-c6c([H])c([H])c(Oc7c([H])c([H])c(F)c([H])c7F)c([H])c6[H])c(C(=O)N([H])[H])c5N([H])[H])C4([H])[H])sc3N([H])[H])C([H])([H])[H])c([H])c([H])c2C1([H])[H]

$$$$
3:0:0
     RDKit          3D

 91 99  0  0  1  0  0  0  0  0999 V2000
  -28.4210  -17.9120   20.4370 C   0  0  0  0  0  3  0  0  0  0  0  0
  -30.5890  -19.4680   20.4770 C   0  0  0  0  0  3  0  0  0  0  0  0
  -29.6950  -17.2640   20.5010 C   0  0  0  0  0  0  0  0  0  0  0  0
  -29.2980  -20.0940   20.4320 C   0  0  0  0  0  0  0  0  0  0  0  0
  -30.7830  -18.0970   20.4980 N   0  0  0  0  0  0  0  0  0  0  0  0
  -28.2180  -19.2690   20.3890 N   0  0  0  0  0  0  0  0  0  0  0  0
  -29.0550  -21.5140   20.5940 N   0  0  0  0  0  0  0  0  0  0  0  0
  -29.7460  -21.8690   21.2500 H   0  0  0  0  0  0  0  0  0  0  0  0
  -30.5300  -14.7450   20.3440 C   0  0  0  0  0  0  0  0  0  0  0  0
  -30.3660  -12.4800   19.3020 C   0  0  0  0  0  2  0  0  0  0  0  0
  -29.4110  -12.5680   18.0890 C   0  0  0  0  0  2  0  0  0  0  0  0
  -27.9460  -12.3770   18.5310 C   0  0  0  0  0  2  0  0  0  0  0  0
  -27.5800  -13.2650   19.7480 C   0  0  0  0  0  3  0  0  0  0  0  0
  -28.6410  -13.1360   20.8640 C   0  0  0  0  0  2  0  0  0  0  0  0
  -29.9430  -13.5030   20.2810 N   0  0  0  0  0  0  0  0  0  0  0  0
  -31.7060  -14.9010   19.9990 O   0  0  0  0  0  0  0  0  0  0  0  0
  -29.6700  -15.7900   20.6160 N   0  0  0  0  0  0  0  0  0  0  0  0
  -28.7530  -15.4390   20.8430 H   0  0  0  0  0  0  0  0  0  0  0  0
  -25.1980  -13.8850   20.4820 C   0  0  0  0  0  0  0  0  0  0  0  0
  -24.1280  -13.1200   20.8600 C   0  0  0  0  0  0  0  0  0  0  0  0
  -24.5820  -11.7650   20.8250 C   0  0  0  0  0  0  0  0  0  0  0  0
  -26.2340  -12.9950   20.2390 N   0  0  0  0  0  0  0  0  0  0  0  0
  -25.8710  -11.7170   20.5100 N   0  0  0  0  0  0  0  0  0  0  0  0
  -23.8510  -10.5070   21.0160 C   0  0  0  0  0  0  0  0  0  0  0  0
  -24.2780   -9.5390   21.9520 C   0  0  0  0  0  3  0  0  0  0  0  0
  -23.5450   -8.3460   22.1310 C   0  0  0  0  0  3  0  0  0  0  0  0
  -22.3720   -8.1130   21.3730 C   0  0  0  0  0  0  0  0  0  0  0  0
  -21.9660   -9.0700   20.4270 C   0  0  0  0  0  3  0  0  0  0  0  0
  -22.6990  -10.2540   20.2460 C   0  0  0  0  0  3  0  0  0  0  0  0
  -21.6130   -6.9720   21.4610 O   0  0  0  0  0  0  0  0  0  0  0  0
  -21.5560   -6.2340   22.6160 C   0  0  0  0  0  0  0  0  0  0  0  0
  -21.1210   -6.7920   23.8370 C   0  0  0  0  0  3  0  0  0  0  0  0
  -21.0070   -5.9800   24.9830 C   0  0  0  0  0  3  0  0  0  0  0  0
  -21.3220   -4.6110   24.9100 C   0  0  0  0  0  0  0  0  0  0  0  0
  -21.7540   -4.0520   23.6930 C   0  0  0  0  0  3  0  0  0  0  0  0
  -21.8670   -4.8600   22.5500 C   0  0  0  0  0  0  0  0  0  0  0  0
  -22.2600   -4.3110   21.3760 F   0  0  0  0  0  0  0  0  0  0  0  0
  -21.2080   -3.8290   26.0090 F   0  0  0  0  0  0  0  0  0  0  0  0
  -22.7350  -13.6050   21.1340 C   0  0  0  0  0  0  0  0  0  0  0  0
  -22.0030  -12.9100   21.9970 N   0  0  0  0  0  0  0  0  0  0  0  0
  -22.3030  -14.6340   20.6170 O   0  0  0  0  0  0  0  0  0  0  0  0
  -22.3660  -12.0760   22.4350 H   0  0  0  0  0  0  0  0  0  0  0  0
  -21.0640  -13.2130   22.2180 H   0  0  0  0  0  0  0  0  0  0  0  0
  -25.3730  -15.2540   20.2980 N   0  0  0  0  0  0  0  0  0  0  0  0
  -24.6030  -15.9060   20.3990 H   0  0  0  0  0  0  0  0  0  0  0  0
  -26.1750  -15.6650   19.8430 H   0  0  0  0  0  0  0  0  0  0  0  0
  -28.4730  -21.8310   18.1790 C   0  0  0  0  0  1  0  0  0  0  0  0
  -28.9430  -22.5240   19.4780 C   0  0  0  0  0  3  0  0  0  0  0  0
  -28.0580  -23.8740   19.6950 C   0  0  0  0  0  2  0  0  0  0  0  0
  -28.4910  -25.1270   20.5930 C   0  0  0  0  0  2  0  0  0  0  0  0
  -28.4140  -26.5430   20.1340 O   0  0  0  0  0  0  0  0  0  0  0  0
  -24.6080  -31.8820   23.2540 C   0  0  0  0  0  0  0  0  0  0  0  0
  -27.2490  -27.3230   20.2080 C   0  0  0  0  0  0  0  0  0  0  0  0
  -23.4100  -30.4700   21.6160 C   0  0  0  0  0  3  0  0  0  0  0  0
  -24.8710  -28.9130   20.2020 C   0  0  0  0  0  0  0  0  0  0  0  0
  -25.9460  -30.8040   21.4270 C   0  0  0  0  0  2  0  0  0  0  0  0
  -26.0340  -29.4170   20.7930 C   0  0  0  0  0  0  0  0  0  0  0  0
  -27.2290  -28.6350   20.7780 C   0  0  0  0  0  3  0  0  0  0  0  0
  -26.0630  -26.8600   19.6080 C   0  0  0  0  0  3  0  0  0  0  0  0
  -24.8880  -27.6420   19.5980 C   0  0  0  0  0  3  0  0  0  0  0  0
  -23.6280  -29.7830   20.2410 C   0  0  0  0  0  2  0  0  0  0  0  0
  -24.6740  -31.0700   22.1590 N   0  0  0  0  0  0  0  0  0  0  0  0
  -23.5240  -32.1600   23.7870 O   0  0  0  0  0  0  0  0  0  0  0  0
  -22.7510  -29.4560   22.5810 C   0  0  0  0  0  0  0  0  0  0  0  0
  -21.4260  -29.2750   22.4550 N   0  0  0  0  0  0  0  0  0  0  0  0
  -23.4330  -28.8310   23.3970 O   0  0  0  0  0  0  0  0  0  0  0  0
  -20.9360  -29.8400   21.7750 H   0  0  0  0  0  0  0  0  0  0  0  0
  -18.0510  -28.0740   22.9450 C   0  0  0  0  0  0  0  0  0  0  0  0
  -20.6080  -28.3350   23.2220 C   0  0  0  0  0  3  0  0  0  0  0  0
  -20.7110  -26.9020   22.6430 C   0  0  0  0  0  2  0  0  0  0  0  0
  -19.6090  -26.5830   21.6280 C   0  0  0  0  0  2  0  0  0  0  0  0
  -18.2270  -26.7250   22.2710 C   0  0  0  0  0  2  0  0  0  0  0  0
  -19.1690  -28.8370   23.3770 C   0  0  0  0  0  0  0  0  0  0  0  0
  -18.9500  -30.1000   23.9700 C   0  0  0  0  0  3  0  0  0  0  0  0
  -17.6450  -30.6010   24.1350 C   0  0  0  0  0  3  0  0  0  0  0  0
  -16.5420  -29.8320   23.7250 C   0  0  0  0  0  3  0  0  0  0  0  0
  -16.7450  -28.5730   23.1330 C   0  0  0  0  0  3  0  0  0  0  0  0
  -25.8880  -32.5190   23.8770 C   0  0  0  0  0  3  0  0  0  0  0  0
  -26.3990  -31.7590   25.1620 C   0  0  1  0  0  0  0  0  0  0  0  0
  -25.2990  -31.5310   26.2260 C   0  0  0  0  0  1  0  0  0  0  0  0
  -26.9860  -30.3810   24.7770 C   0  0  0  0  0  1  0  0  0  0  0  0
  -27.5470  -32.5580   25.8240 C   0  0  0  0  0  1  0  0  0  0  0  0
  -25.5790  -33.9210   24.1970 N   0  0  0  0  0  0  0  0  0  0  0  0
  -25.9110  -34.9680   23.4310 C   0  0  0  0  0  0  0  0  0  0  0  0
  -26.5810  -34.8570   22.4000 O   0  0  0  0  0  0  0  0  0  0  0  0
  -24.9950  -34.0800   25.0040 H   0  0  0  0  0  0  0  0  0  0  0  0
  -24.1890  -36.7610   23.0520 C   0  0  0  0  0  1  0  0  0  0  0  0
  -25.4240  -36.3620   23.8770 C   0  0  0  0  0  3  0  0  0  0  0  0
  -27.5530  -37.2510   24.7160 C   0  0  0  0  0  1  0  0  0  0  0  0
  -26.4590  -37.4110   23.7610 N   0  0  0  0  0  0  0  0  0  0  0  0
  -26.0560  -38.3350   23.8940 H   0  0  0  0  0  0  0  0  0  0  0  0
  1  3  1  0
  2  5  1  0
  3 17  1  0
  4  2  2  0
  4  7  1  0
  5  3  2  0
  6  4  1  0
  6  1  2  0
  7  8  1  0
  9 17  1  0
 10 15  1  0
 11 12  1  0
 11 10  1  0
 13 12  1  0
 13 22  1  0
 13 14  1  0
 15  9  1  0
 15 14  1  0
 16  9  2  0
 17 18  1  0
 19 20  2  0
 20 39  1  0
 21 20  1  0
 21 24  1  0
 22 19  1  0
 22 23  1  0
 23 21  2  0
 24 25  1  0
 25 26  2  0
 27 30  1  0
 27 26  1  0
 28 27  2  0
 29 28  1  0
 29 24  2  0
 30 31  1  0
 31 32  1  0
 32 33  2  0
 34 33  1  0
 34 38  1  0
 35 34  2  0
 36 31  2  0
 36 35  1  0
 37 36  1  0
 39 40  1  0
 40 43  1  0
 40 42  1  0
 41 39  2  0
 44 45  1  0
 44 19  1  0
 46 44  1  0
 48 47  1  0
 48 49  1  0
 48  7  1  0
 49 50  1  0
 51 53  1  0
 51 50  1  0
 52 63  2  0
 53 58  1  0
 54 62  1  0
 54 64  1  0
 55 61  1  0
 55 57  1  0
 56 62  1  0
 57 56  1  0
 58 57  2  0
 59 53  2  0
 60 59  1  0
 60 55  2  0
 61 54  1  0
 62 52  1  0
 64 66  2  0
 65 64  1  0
 67 65  1  0
 68 77  2  0
 68 73  1  0
 69 65  1  0
 69 73  1  0
 70 69  1  0
 71 72  1  0
 71 70  1  0
 72 68  1  0
 73 74  2  0
 74 75  1  0
 76 75  2  0
 77 76  1  0
 78 52  1  0
 78 83  1  0
 78 79  1  0
 79 82  1  1
 79 80  1  0
 81 79  1  0
 83 86  1  0
 84 88  1  0
 84 83  1  0
 85 84  2  0
 88 87  1  0
 90 88  1  0
 90 91  1  0
 90 89  1  0
M  ISO  4   9 100  17 100  50 101  51 101
M  END
>  <TORSDO>  (4) 
F 19

>  <SCORE>  (4) 
-14.390

>  <name>  (4) 
3

>  <ligand_id>  (4) 
3

>  <original_smiles>  (4) 
[H]c1nc(N([H])C([H])(C([H])([H])[H])C([H])([H])C([H])([H])Oc2c([H])c([H])c3c(c2[H])C([H])([H])N(C(=O)C([H])(N([H])C(=O)C([H])(N([H])C([H])([H])[H])C([H])([H])[H])C(C([H])([H])[H])(C([H])([H])[H])C([H])([H])[H])C([H])(C(=O)N([H])C2([H])c4c([H])c([H])c([H])c([H])c4C([H])([H])C([H])([H])C2([H])[H])C3([H])[H])c([H])nc1N([H])C(=O)N1C([H])([H])C([H])([H])C([H])([H])C([H])(n2nc(-c3c([H])c([H])c(Oc4c([H])c([H])c(F)c([H])c4F)c([H])c3[H])c(C(=O)N([H])[H])c2N([H])[H])C1([H])[H]

>  <smiles>  (4) 
[H]c1nc(N([H])C([H])(C([H])([H])[H])C([H])([H])C([H])([H])Oc2c([H])c([H])c3c(c2[H])C([H])([H])N(C(=O)C([H])(N([H])C(=O)C([H])(N([H])C([H])([H])[H])C([H])([H])[H])C(C([H])([H])[H])(C([H])([H])[H])C([H])([H])[H])C([H])(C(=O)N([H])C2([H])c4c([H])c([H])c([H])c([H])c4C([H])([H])C([H])([H])C2([H])[H])C3([H])[H])c([H])nc1N([H])C(=O)N1C([H])([H])C([H])([H])C([H])([H])C([H])(n2nc(-c3c([H])c([H])c(Oc4c([H])c([H])c(F)c([H])c4F)c([H])c3[H])c(C(=O)N([H])[H])c2N([H])[H])C1([H])[H]

$$$$
4:0:0
     RDKit          3D

 97105  0  0  1  0  0  0  0  0999 V2000
  -27.7820  -20.8560   22.0330 C   0  0  0  0  0  1  0  0  0  0  0  0
  -28.6610  -20.8640   20.7480 C   0  0  0  0  0  3  0  0  0  0  0  0
  -31.1820  -18.1710   21.2930 C   0  0  0  0  0  3  0  0  0  0  0  0
  -29.3880  -19.5010   20.6370 C   0  0  0  0  0  0  0  0  0  0  0  0
  -30.5700  -17.0040   20.7350 C   0  0  0  0  0  0  0  0  0  0  0  0
  -28.7600  -18.3330   20.1070 C   0  0  0  0  0  0  0  0  0  0  0  0
  -30.6120  -19.4060   21.2270 N   0  0  0  0  0  0  0  0  0  0  0  0
  -29.3650  -17.1200   20.1110 N   0  0  0  0  0  0  0  0  0  0  0  0
  -27.4360  -18.3160   19.6700 N   0  0  0  0  0  0  0  0  0  0  0  0
  -26.8030  -19.0290   20.0110 H   0  0  0  0  0  0  0  0  0  0  0  0
  -26.9750  -17.4110   19.6650 H   0  0  0  0  0  0  0  0  0  0  0  0
  -31.4950  -14.7810   20.1270 C   0  0  0  0  0  0  0  0  0  0  0  0
  -31.0300  -12.6220   19.0010 C   0  0  0  0  0  2  0  0  0  0  0  0
  -30.0800  -12.8440   17.8060 C   0  0  0  0  0  2  0  0  0  0  0  0
  -28.6090  -12.7530   18.2560 C   0  0  0  0  0  2  0  0  0  0  0  0
  -28.3220  -13.6110   19.5150 C   0  0  0  0  0  3  0  0  0  0  0  0
  -29.3990  -13.4030   20.6040 C   0  0  0  0  0  2  0  0  0  0  0  0
  -30.7260  -13.6520   20.0130 N   0  0  0  0  0  0  0  0  0  0  0  0
  -32.5650  -14.9000   19.5250 O   0  0  0  0  0  0  0  0  0  0  0  0
  -31.1600  -15.7310   21.0230 N   0  0  0  0  0  0  0  0  0  0  0  0
  -31.9920  -15.9020   21.5700 H   0  0  0  0  0  0  0  0  0  0  0  0
  -25.9490  -14.2880   20.2490 C   0  0  0  0  0  0  0  0  0  0  0  0
  -24.8540  -13.5470   20.6210 C   0  0  0  0  0  0  0  0  0  0  0  0
  -25.2720  -12.1840   20.5910 C   0  0  0  0  0  0  0  0  0  0  0  0
  -26.9640  -13.3730   20.0160 N   0  0  0  0  0  0  0  0  0  0  0  0
  -26.5590  -12.0980   20.2770 N   0  0  0  0  0  0  0  0  0  0  0  0
  -24.5020  -10.9450   20.7920 C   0  0  0  0  0  0  0  0  0  0  0  0
  -24.8430  -10.0090   21.7940 C   0  0  0  0  0  3  0  0  0  0  0  0
  -24.0630   -8.8460   21.9770 C   0  0  0  0  0  3  0  0  0  0  0  0
  -22.9320   -8.6140   21.1630 C   0  0  0  0  0  0  0  0  0  0  0  0
  -22.6090   -9.5370   20.1540 C   0  0  0  0  0  3  0  0  0  0  0  0
  -23.3930  -10.6880   19.9660 C   0  0  0  0  0  3  0  0  0  0  0  0
  -22.1360   -7.4980   21.2450 O   0  0  0  0  0  0  0  0  0  0  0  0
  -21.8860   -6.8850   22.4460 C   0  0  0  0  0  0  0  0  0  0  0  0
  -21.2920   -7.5700   23.5270 C   0  0  0  0  0  3  0  0  0  0  0  0
  -21.0000   -6.8810   24.7210 C   0  0  0  0  0  3  0  0  0  0  0  0
  -21.2900   -5.5080   24.8280 C   0  0  0  0  0  0  0  0  0  0  0  0
  -21.8810   -4.8240   23.7530 C   0  0  0  0  0  3  0  0  0  0  0  0
  -22.1760   -5.5100   22.5640 C   0  0  0  0  0  0  0  0  0  0  0  0
  -22.7260   -4.8420   21.5240 F   0  0  0  0  0  0  0  0  0  0  0  0
  -21.0040   -4.8440   25.9750 F   0  0  0  0  0  0  0  0  0  0  0  0
  -23.4850  -14.0850   20.9250 C   0  0  0  0  0  0  0  0  0  0  0  0
  -22.7660  -13.4360   21.8380 N   0  0  0  0  0  0  0  0  0  0  0  0
  -23.0650  -15.1130   20.3980 O   0  0  0  0  0  0  0  0  0  0  0  0
  -23.1360  -12.6260   22.3080 H   0  0  0  0  0  0  0  0  0  0  0  0
  -21.8460  -13.7690   22.0920 H   0  0  0  0  0  0  0  0  0  0  0  0
  -26.1390  -15.6550   20.0850 N   0  0  0  0  0  0  0  0  0  0  0  0
  -25.3340  -16.2760   20.0300 H   0  0  0  0  0  0  0  0  0  0  0  0
  -27.0070  -16.0760   19.7610 H   0  0  0  0  0  0  0  0  0  0  0  0
  -29.5950  -22.0240   20.6100 N   0  0  0  0  0  4  0  0  0  0  0  0
  -30.4650  -21.7360   21.0300 H   0  0  0  0  0  0  0  0  0  0  0  0
  -29.7770  -22.1330   19.6250 H   0  0  0  0  0  0  0  0  0  0  0  0
  -29.8590  -23.5020   22.5650 C   0  0  0  0  0  1  0  0  0  0  0  0
  -29.1800  -23.3480   21.1790 C   0  0  0  0  0  3  0  0  0  0  0  0
  -29.4300  -24.5710   20.2320 C   0  0  0  0  0  2  0  0  0  0  0  0
  -28.8090  -25.8830   20.7990 C   0  0  0  0  0  2  0  0  0  0  0  0
  -28.8160  -27.0260   19.9290 O   0  0  0  0  0  0  0  0  0  0  0  0
  -24.7110  -31.8180   23.2890 C   0  0  0  0  0  0  0  0  0  0  0  0
  -27.6350  -27.7320   19.9700 C   0  0  0  0  0  0  0  0  0  0  0  0
  -23.6170  -30.4620   21.5440 C   0  0  0  0  0  3  0  0  0  0  0  0
  -25.1710  -29.1010   20.0570 C   0  0  0  0  0  0  0  0  0  0  0  0
  -26.1250  -30.9630   21.4210 C   0  0  0  0  0  2  0  0  0  0  0  0
  -26.2940  -29.6440   20.6910 C   0  0  0  0  0  0  0  0  0  0  0  0
  -27.5370  -28.9700   20.6420 C   0  0  0  0  0  3  0  0  0  0  0  0
  -26.5020  -27.1990   19.3250 C   0  0  0  0  0  3  0  0  0  0  0  0
  -25.2680  -27.8770   19.3700 C   0  0  0  0  0  3  0  0  0  0  0  0
  -23.8860  -29.8930   20.1300 C   0  0  0  0  0  2  0  0  0  0  0  0
  -24.8360  -31.0920   22.1440 N   0  0  0  0  0  0  0  0  0  0  0  0
  -23.6040  -32.0030   23.8180 O   0  0  0  0  0  0  0  0  0  0  0  0
  -23.0070  -29.3480   22.4240 C   0  0  0  0  0  0  0  0  0  0  0  0
  -21.6970  -29.1070   22.2510 N   0  0  0  0  0  0  0  0  0  0  0  0
  -23.7040  -28.7180   23.2240 O   0  0  0  0  0  0  0  0  0  0  0  0
  -21.1970  -29.6660   21.5750 H   0  0  0  0  0  0  0  0  0  0  0  0
  -18.3740  -27.7230   22.5850 C   0  0  0  0  0  0  0  0  0  0  0  0
  -20.9080  -28.0860   22.9420 C   0  0  0  0  0  3  0  0  0  0  0  0
  -21.0990  -26.7030   22.2850 C   0  0  0  0  0  2  0  0  0  0  0  0
  -20.0420  -26.3880   21.2230 C   0  0  0  0  0  2  0  0  0  0  0  0
  -18.6370  -26.4260   21.8360 C   0  0  0  0  0  2  0  0  0  0  0  0
  -19.4440  -28.5070   23.0890 C   0  0  0  0  0  0  0  0  0  0  0  0
  -19.1520  -29.7170   23.7530 C   0  0  0  0  0  3  0  0  0  0  0  0
  -17.8220  -30.1490   23.9130 C   0  0  0  0  0  3  0  0  0  0  0  0
  -16.7640  -29.3600   23.4280 C   0  0  0  0  0  3  0  0  0  0  0  0
  -17.0420  -28.1470   22.7710 C   0  0  0  0  0  3  0  0  0  0  0  0
  -25.9490  -32.4800   23.9670 C   0  0  0  0  0  3  0  0  0  0  0  0
  -25.5820  -33.8650   24.2850 N   0  0  0  0  0  0  0  0  0  0  0  0
  -25.9330  -34.9350   23.5570 C   0  0  0  0  0  0  0  0  0  0  0  0
  -26.6680  -34.8590   22.5680 O   0  0  0  0  0  0  0  0  0  0  0  0
  -24.9240  -33.9940   25.0410 H   0  0  0  0  0  0  0  0  0  0  0  0
  -24.1820  -36.6860   23.1340 C   0  0  0  0  0  1  0  0  0  0  0  0
  -25.3900  -36.3040   24.0030 C   0  0  0  0  0  3  0  0  0  0  0  0
  -27.4570  -37.2440   24.9460 C   0  0  0  0  0  1  0  0  0  0  0  0
  -26.3970  -37.3850   23.9510 N   0  0  0  0  0  0  0  0  0  0  0  0
  -25.9600  -38.2950   24.0760 H   0  0  0  0  0  0  0  0  0  0  0  0
  -26.4370  -31.7090   25.2570 C   0  0  1  0  0  0  0  0  0  0  0  0
  -25.3070  -31.4290   26.2720 C   0  0  0  0  0  1  0  0  0  0  0  0
  -27.0730  -30.3520   24.8790 C   0  0  0  0  0  1  0  0  0  0  0  0
  -27.5310  -32.5340   25.9810 C   0  0  0  0  0  1  0  0  0  0  0  0
  2  1  1  0
  4  2  1  0
  4  7  2  0
  5 20  1  0
  5  3  2  0
  6  8  2  0
  6  4  1  0
  7  3  1  0
  8  5  1  0
  9 10  1  0
  9  6  1  0
 11  9  1  0
 12 20  1  0
 13 18  1  0
 14 15  1  0
 14 13  1  0
 16 15  1  0
 16 25  1  0
 16 17  1  0
 18 12  1  0
 18 17  1  0
 19 12  2  0
 20 21  1  0
 22 23  2  0
 23 42  1  0
 24 23  1  0
 24 27  1  0
 25 22  1  0
 25 26  1  0
 26 24  2  0
 27 28  1  0
 28 29  2  0
 30 33  1  0
 30 29  1  0
 31 30  2  0
 32 31  1  0
 32 27  2  0
 33 34  1  0
 34 39  2  0
 34 35  1  0
 35 36  2  0
 36 37  1  0
 37 41  1  0
 38 37  2  0
 39 38  1  0
 40 39  1  0
 42 43  1  0
 43 46  1  0
 43 45  1  0
 44 42  2  0
 47 22  1  0
 48 47  1  0
 49 47  1  0
 50  2  1  0
 50 51  1  0
 50 54  1  0
 52 50  1  0
 54 53  1  0
 55 56  1  0
 55 54  1  0
 57 59  1  0
 57 56  1  0
 58 69  2  0
 59 64  1  0
 60 68  1  0
 60 70  1  0
 61 67  1  0
 61 63  1  0
 62 68  1  0
 63 62  1  0
 64 63  2  0
 65 66  1  0
 65 59  2  0
 66 61  2  0
 67 60  1  0
 68 58  1  0
 70 72  2  0
 71 70  1  0
 73 71  1  0
 74 83  2  0
 74 79  1  0
 75 71  1  0
 75 79  1  0
 76 75  1  0
 77 78  1  0
 77 76  1  0
 78 74  1  0
 79 80  2  0
 80 81  1  0
 82 81  2  0
 83 82  1  0
 84 58  1  0
 84 85  1  0
 84 94  1  0
 85 88  1  0
 86 90  1  0
 86 85  1  0
 87 86  2  0
 90 89  1  0
 92 90  1  0
 92 93  1  0
 92 91  1  0
 94 97  1  1
 94 95  1  0
 96 94  1  0
M  ISO  4  12 100  20 100  56 101  57 101
M  END
>  <TORSDO>  (5) 
F 21

>  <SCORE>  (5) 
-11.045

>  <name>  (5) 
4

>  <ligand_id>  (5) 
4

>  <original_smiles>  (5) 
[H]c1nc(C([H])(C([H])([H])[H])[N+]([H])([H])C([H])(C([H])([H])[H])C([H])([H])C([H])([H])Oc2c([H])c([H])c3c(c2[H])C([H])([H])N(C(=O)C([H])(N([H])C(=O)C([H])(N([H])C([H])([H])[H])C([H])([H])[H])C(C([H])([H])[H])(C([H])([H])[H])C([H])([H])[H])C([H])(C(=O)N([H])C2([H])c4c([H])c([H])c([H])c([H])c4C([H])([H])C([H])([H])C2([H])[H])C3([H])[H])c(N([H])[H])nc1N([H])C(=O)N1C([H])([H])C([H])([H])C([H])([H])C([H])(n2nc(-c3c([H])c([H])c(Oc4c([H])c([H])c(F)c([H])c4F)c([H])c3[H])c(C(=O)N([H])[H])c2N([H])[H])C1([H])[H]

>  <smiles>  (5) 
[H]c1nc(C([H])(C([H])([H])[H])[N+]([H])([H])C([H])(C([H])([H])[H])C([H])([H])C([H])([H])Oc2c([H])c([H])c3c(c2[H])C([H])([H])N(C(=O)C([H])(N([H])C(=O)C([H])(N([H])C([H])([H])[H])C([H])([H])[H])C(C([H])([H])[H])(C([H])([H])[H])C([H])([H])[H])C([H])(C(=O)N([H])C2([H])c4c([H])c([H])c([H])c([H])c4C([H])([H])C([H])([H])C2([H])[H])C3([H])[H])c(N([H])[H])nc1N([H])C(=O)N1C([H])([H])C([H])([H])C([H])([H])C([H])(n2nc(-c3c([H])c([H])c(Oc4c([H])c([H])c(F)c([H])c4F)c([H])c3[H])c(C(=O)N([H])[H])c2N([H])[H])C1([H])[H]

$$$$
5:0:0
     RDKit          3D

 94102  0  0  1  0  0  0  0  0999 V2000
  -29.1170  -21.4950   19.9470 N   0  0  0  0  0  4  0  0  0  0  0  0
  -28.3380  -21.0810   20.4500 H   0  0  0  0  0  0  0  0  0  0  0  0
  -28.7940  -21.6130   19.0030 H   0  0  0  0  0  0  0  0  0  0  0  0
  -30.7400  -20.2270   18.5520 C   0  0  0  0  0  1  0  0  0  0  0  0
  -30.0800  -20.3370   19.9390 C   0  0  0  0  0  3  0  0  0  0  0  0
  -30.6600  -14.5390   20.1440 C   0  0  0  0  0  0  0  0  0  0  0  0
  -30.3980  -12.3650   18.9560 C   0  0  0  0  0  2  0  0  0  0  0  0
  -29.4220  -12.5560   17.7740 C   0  0  0  0  0  2  0  0  0  0  0  0
  -27.9560  -12.4040   18.2330 C   0  0  0  0  0  2  0  0  0  0  0  0
  -27.6460  -13.2270   19.5110 C   0  0  0  0  0  3  0  0  0  0  0  0
  -28.7230  -12.9770   20.5910 C   0  0  0  0  0  2  0  0  0  0  0  0
  -30.0370  -13.3250   20.0180 N   0  0  0  0  0  0  0  0  0  0  0  0
  -31.7170  -14.7950   19.5530 O   0  0  0  0  0  0  0  0  0  0  0  0
  -28.1210  -16.7960   21.1680 C   0  0  0  0  0  3  0  0  0  0  0  0
  -27.4590  -18.0240   21.0620 C   0  0  0  0  0  3  0  0  0  0  0  0
  -29.4630  -16.7020   20.7740 C   0  0  0  0  0  0  0  0  0  0  0  0
  -29.3750  -19.0050   20.3100 C   0  0  0  0  0  0  0  0  0  0  0  0
  -28.0880  -19.1280   20.6230 N   0  0  0  0  0  0  0  0  0  0  0  0
  -30.0800  -17.8500   20.3610 N   0  0  0  0  0  0  0  0  0  0  0  0
  -30.0470  -15.4030   20.9950 N   0  0  0  0  0  0  0  0  0  0  0  0
  -29.4770  -14.8630   21.6230 H   0  0  0  0  0  0  0  0  0  0  0  0
  -25.2550  -13.8410   20.2380 C   0  0  0  0  0  0  0  0  0  0  0  0
  -24.1990  -13.0780   20.6520 C   0  0  0  0  0  0  0  0  0  0  0  0
  -24.6630  -11.7270   20.6430 C   0  0  0  0  0  0  0  0  0  0  0  0
  -26.3010  -12.9590   20.0140 N   0  0  0  0  0  0  0  0  0  0  0  0
  -25.9480  -11.6820   20.3110 N   0  0  0  0  0  0  0  0  0  0  0  0
  -23.9430  -10.4690   20.8740 C   0  0  0  0  0  0  0  0  0  0  0  0
  -24.3900   -9.5280   21.8270 C   0  0  0  0  0  3  0  0  0  0  0  0
  -23.6720   -8.3330   22.0440 C   0  0  0  0  0  3  0  0  0  0  0  0
  -22.4920   -8.0710   21.3080 C   0  0  0  0  0  0  0  0  0  0  0  0
  -22.0630   -9.0010   20.3450 C   0  0  0  0  0  3  0  0  0  0  0  0
  -22.7820  -10.1880   20.1260 C   0  0  0  0  0  3  0  0  0  0  0  0
  -21.7430   -6.9260   21.4350 O   0  0  0  0  0  0  0  0  0  0  0  0
  -21.6900   -6.2270   22.6130 C   0  0  0  0  0  0  0  0  0  0  0  0
  -21.2620   -6.8260   23.8180 C   0  0  0  0  0  3  0  0  0  0  0  0
  -21.1570   -6.0520   24.9900 C   0  0  0  0  0  3  0  0  0  0  0  0
  -21.4710   -4.6790   24.9600 C   0  0  0  0  0  0  0  0  0  0  0  0
  -21.8930   -4.0810   23.7610 C   0  0  0  0  0  3  0  0  0  0  0  0
  -22.0000   -4.8520   22.5900 C   0  0  0  0  0  0  0  0  0  0  0  0
  -22.3870   -4.2640   21.4320 F   0  0  0  0  0  0  0  0  0  0  0  0
  -21.3620   -3.9350   26.0850 F   0  0  0  0  0  0  0  0  0  0  0  0
  -22.8070  -13.5610   20.9420 C   0  0  0  0  0  0  0  0  0  0  0  0
  -22.1040  -12.8970   21.8540 N   0  0  0  0  0  0  0  0  0  0  0  0
  -22.3520  -14.5630   20.3940 O   0  0  0  0  0  0  0  0  0  0  0  0
  -22.4870  -12.0880   22.3220 H   0  0  0  0  0  0  0  0  0  0  0  0
  -21.1720  -13.2060   22.0880 H   0  0  0  0  0  0  0  0  0  0  0  0
  -25.4040  -15.2040   20.0120 N   0  0  0  0  0  0  0  0  0  0  0  0
  -24.6160  -15.8400   20.0720 H   0  0  0  0  0  0  0  0  0  0  0  0
  -26.2260  -15.6240   19.5990 H   0  0  0  0  0  0  0  0  0  0  0  0
  -30.9960  -23.1670   20.4310 C   0  0  0  0  0  1  0  0  0  0  0  0
  -29.4880  -22.8340   20.5570 C   0  0  0  0  0  3  0  0  0  0  0  0
  -28.6440  -24.0520   19.9920 C   0  0  0  0  0  2  0  0  0  0  0  0
  -28.5910  -25.3590   20.8710 C   0  0  0  0  0  2  0  0  0  0  0  0
  -28.6010  -26.6370   20.1710 O   0  0  0  0  0  0  0  0  0  0  0  0
  -24.5860  -31.7230   23.2290 C   0  0  0  0  0  0  0  0  0  0  0  0
  -27.4250  -27.3670   20.1740 C   0  0  0  0  0  0  0  0  0  0  0  0
  -23.4570  -30.2960   21.5550 C   0  0  0  0  0  3  0  0  0  0  0  0
  -24.9860  -28.8170   20.1420 C   0  0  0  0  0  0  0  0  0  0  0  0
  -25.9730  -30.7410   21.3970 C   0  0  0  0  0  2  0  0  0  0  0  0
  -26.1200  -29.3740   20.7470 C   0  0  0  0  0  0  0  0  0  0  0  0
  -27.3460  -28.6620   20.7500 C   0  0  0  0  0  3  0  0  0  0  0  0
  -26.2720  -26.8280   19.5670 C   0  0  0  0  0  3  0  0  0  0  0  0
  -25.0590  -27.5450   19.5460 C   0  0  0  0  0  3  0  0  0  0  0  0
  -23.7150  -29.6390   20.1730 C   0  0  0  0  0  2  0  0  0  0  0  0
  -24.6890  -30.9360   22.1190 N   0  0  0  0  0  0  0  0  0  0  0  0
  -23.4860  -31.9510   23.7540 O   0  0  0  0  0  0  0  0  0  0  0  0
  -22.8250  -29.2440   22.4950 C   0  0  0  0  0  0  0  0  0  0  0  0
  -21.5140  -29.0020   22.3340 N   0  0  0  0  0  0  0  0  0  0  0  0
  -23.5130  -28.6470   23.3280 O   0  0  0  0  0  0  0  0  0  0  0  0
  -21.0170  -29.5400   21.6380 H   0  0  0  0  0  0  0  0  0  0  0  0
  -18.1880  -27.6420   22.7330 C   0  0  0  0  0  0  0  0  0  0  0  0
  -20.7210  -28.0230   23.0790 C   0  0  0  0  0  3  0  0  0  0  0  0
  -20.9090  -26.6000   22.5040 C   0  0  0  0  0  2  0  0  0  0  0  0
  -19.8540  -26.2260   21.4570 C   0  0  0  0  0  2  0  0  0  0  0  0
  -18.4480  -26.3040   22.0620 C   0  0  0  0  0  2  0  0  0  0  0  0
  -19.2550  -28.4560   23.1960 C   0  0  0  0  0  0  0  0  0  0  0  0
  -18.9580  -29.7050   23.7810 C   0  0  0  0  0  3  0  0  0  0  0  0
  -17.6260  -30.1440   23.9070 C   0  0  0  0  0  3  0  0  0  0  0  0
  -16.5730  -29.3280   23.4610 C   0  0  0  0  0  3  0  0  0  0  0  0
  -16.8530  -28.0780   22.8800 C   0  0  0  0  0  3  0  0  0  0  0  0
  -25.8370  -32.3950   23.8750 C   0  0  0  0  0  3  0  0  0  0  0  0
  -26.3510  -31.6420   25.1630 C   0  0  1  0  0  0  0  0  0  0  0  0
  -25.2430  -31.3750   26.2100 C   0  0  0  0  0  1  0  0  0  0  0  0
  -26.9840  -30.2820   24.7840 C   0  0  0  0  0  1  0  0  0  0  0  0
  -27.4660  -32.4700   25.8460 C   0  0  0  0  0  1  0  0  0  0  0  0
  -25.4800  -33.7840   24.1960 N   0  0  0  0  0  0  0  0  0  0  0  0
  -25.7850  -34.8420   23.4330 C   0  0  0  0  0  0  0  0  0  0  0  0
  -26.4670  -34.7530   22.4070 O   0  0  0  0  0  0  0  0  0  0  0  0
  -24.8730  -33.9230   24.9900 H   0  0  0  0  0  0  0  0  0  0  0  0
  -23.9940  -36.5670   23.0620 C   0  0  0  0  0  1  0  0  0  0  0  0
  -25.2490  -36.2170   23.8770 C   0  0  0  0  0  3  0  0  0  0  0  0
  -27.3520  -37.1840   24.6960 C   0  0  0  0  0  1  0  0  0  0  0  0
  -26.2440  -37.3040   23.7520 N   0  0  0  0  0  0  0  0  0  0  0  0
  -25.8060  -38.2120   23.8900 H   0  0  0  0  0  0  0  0  0  0  0  0
  1  2  1  0
  1 51  1  0
  3  1  1  0
  5  4  1  0
  5  1  1  0
  5 17  1  0
  6 20  1  0
  7 12  1  0
  8  9  1  0
  8  7  1  0
 10  9  1  0
 10 25  1  0
 10 11  1  0
 12  6  1  0
 12 11  1  0
 13  6  2  0
 15 14  2  0
 16 20  1  0
 16 14  1  0
 17 19  1  0
 17 18  2  0
 18 15  1  0
 19 16  2  0
 20 21  1  0
 22 23  2  0
 23 42  1  0
 24 23  1  0
 24 27  1  0
 25 22  1  0
 25 26  1  0
 26 24  2  0
 27 28  1  0
 28 29  2  0
 30 33  1  0
 30 29  1  0
 31 30  2  0
 32 31  1  0
 32 27  2  0
 33 34  1  0
 34 35  1  0
 35 36  2  0
 37 36  1  0
 37 41  1  0
 38 37  2  0
 39 34  2  0
 39 38  1  0
 40 39  1  0
 42 43  1  0
 43 46  1  0
 43 45  1  0
 44 42  2  0
 47 48  1  0
 47 22  1  0
 49 47  1  0
 51 50  1  0
 52 51  1  0
 52 53  1  0
 54 56  1  0
 54 53  1  0
 55 66  2  0
 56 61  1  0
 57 65  1  0
 57 67  1  0
 58 64  1  0
 58 60  1  0
 59 65  1  0
 60 61  2  0
 60 59  1  0
 62 56  2  0
 63 62  1  0
 63 58  2  0
 64 57  1  0
 65 55  1  0
 67 69  2  0
 68 67  1  0
 70 68  1  0
 71 80  2  0
 71 76  1  0
 72 68  1  0
 72 76  1  0
 73 72  1  0
 74 75  1  0
 74 73  1  0
 75 71  1  0
 76 77  2  0
 77 78  1  0
 79 78  2  0
 80 79  1  0
 81 55  1  0
 81 86  1  0
 81 82  1  0
 82 85  1  1
 82 83  1  0
 84 82  1  0
 86 89  1  0
 87 91  1  0
 87 86  1  0
 88 87  2  0
 91 90  1  0
 93 91  1  0
 93 94  1  0
 93 92  1  0
M  ISO  4   6 100  20 100  53 101  54 101
M  END
>  <TORSDO>  (6) 
F 20

>  <SCORE>  (6) 
-11.785

>  <name>  (6) 
5

>  <ligand_id>  (6) 
5

>  <original_smiles>  (6) 
[H]c1nc(C([H])(C([H])([H])[H])[N+]([H])([H])C([H])(C([H])([H])[H])C([H])([H])C([H])([H])Oc2c([H])c([H])c3c(c2[H])C([H])([H])N(C(=O)C([H])(N([H])C(=O)C([H])(N([H])C([H])([H])[H])C([H])([H])[H])C(C([H])([H])[H])(C([H])([H])[H])C([H])([H])[H])C([H])(C(=O)N([H])C2([H])c4c([H])c([H])c([H])c([H])c4C([H])([H])C([H])([H])C2([H])[H])C3([H])[H])nc(N([H])C(=O)N2C([H])([H])C([H])([H])C([H])([H])C([H])(n3nc(-c4c([H])c([H])c(Oc5c([H])c([H])c(F)c([H])c5F)c([H])c4[H])c(C(=O)N([H])[H])c3N([H])[H])C2([H])[H])c1[H]

>  <smiles>  (6) 
[H]c1nc(C([H])(C([H])([H])[H])[N+]([H])([H])C([H])(C([H])([H])[H])C([H])([H])C([H])([H])Oc2c([H])c([H])c3c(c2[H])C([H])([H])N(C(=O)C([H])(N([H])C(=O)C([H])(N([H])C([H])([H])[H])C([H])([H])[H])C(C([H])([H])[H])(C([H])([H])[H])C([H])([H])[H])C([H])(C(=O)N([H])C2([H])c4c([H])c([H])c([H])c([H])c4C([H])([H])C([H])([H])C2([H])[H])C3([H])[H])nc(N([H])C(=O)N2C([H])([H])C([H])([H])C([H])([H])C([H])(n3nc(-c4c([H])c([H])c(Oc5c([H])c([H])c(F)c([H])c5F)c([H])c4[H])c(C(=O)N([H])[H])c3N([H])[H])C2([H])[H])c1[H]

$$$$
6:0:0
     RDKit          3D

 94102  0  0  1  0  0  0  0  0999 V2000
  -30.5630  -14.6860   20.4910 C   0  0  0  0  0  0  0  0  0  0  0  0
  -30.4120  -12.4440   19.4120 C   0  0  0  0  0  2  0  0  0  0  0  0
  -29.4820  -12.5740   18.1840 C   0  0  0  0  0  2  0  0  0  0  0  0
  -27.9980  -12.4190   18.5860 C   0  0  0  0  0  2  0  0  0  0  0  0
  -27.6250  -13.2680   19.8310 C   0  0  0  0  0  3  0  0  0  0  0  0
  -28.6670  -13.0860   20.9570 C   0  0  0  0  0  2  0  0  0  0  0  0
  -29.9810  -13.4480   20.4020 N   0  0  0  0  0  0  0  0  0  0  0  0
  -31.7360  -14.8700   20.1460 O   0  0  0  0  0  0  0  0  0  0  0  0
  -30.1580  -19.3770   21.2830 C   0  0  0  0  0  3  0  0  0  0  0  0
  -29.2430  -19.9210   20.3280 C   0  0  0  0  0  0  0  0  0  0  0  0
  -29.7280  -17.1450   20.6140 C   0  0  0  0  0  0  0  0  0  0  0  0
  -28.7960  -17.7020   19.6850 C   0  0  0  0  0  0  0  0  0  0  0  0
  -30.4010  -18.0250   21.4170 N   0  0  0  0  0  0  0  0  0  0  0  0
  -28.5730  -19.0390   19.5400 N   0  0  0  0  0  0  0  0  0  0  0  0
  -28.0080  -16.8860   18.8790 N   0  0  0  0  0  0  0  0  0  0  0  0
  -29.6960  -15.7010   20.8030 N   0  0  0  0  0  0  0  0  0  0  0  0
  -28.4610  -16.0470   18.5440 H   0  0  0  0  0  0  0  0  0  0  0  0
  -27.5230  -17.3720   18.1340 H   0  0  0  0  0  0  0  0  0  0  0  0
  -28.7560  -15.3540   20.9160 H   0  0  0  0  0  0  0  0  0  0  0  0
  -25.2310  -13.9010   20.5080 C   0  0  0  0  0  0  0  0  0  0  0  0
  -24.1530  -13.1390   20.8730 C   0  0  0  0  0  0  0  0  0  0  0  0
  -24.6040  -11.7830   20.8560 C   0  0  0  0  0  0  0  0  0  0  0  0
  -26.2680  -13.0070   20.2940 N   0  0  0  0  0  0  0  0  0  0  0  0
  -25.8970  -11.7300   20.5650 N   0  0  0  0  0  0  0  0  0  0  0  0
  -23.8660  -10.5280   21.0440 C   0  0  0  0  0  0  0  0  0  0  0  0
  -24.2880   -9.5570   21.9800 C   0  0  0  0  0  3  0  0  0  0  0  0
  -23.5520   -8.3660   22.1540 C   0  0  0  0  0  3  0  0  0  0  0  0
  -22.3810   -8.1360   21.3930 C   0  0  0  0  0  0  0  0  0  0  0  0
  -21.9800   -9.0960   20.4470 C   0  0  0  0  0  3  0  0  0  0  0  0
  -22.7160  -10.2790   20.2690 C   0  0  0  0  0  3  0  0  0  0  0  0
  -21.6150   -6.9980   21.4790 O   0  0  0  0  0  0  0  0  0  0  0  0
  -21.5590   -6.2530   22.6290 C   0  0  0  0  0  0  0  0  0  0  0  0
  -21.1500   -6.8110   23.8600 C   0  0  0  0  0  3  0  0  0  0  0  0
  -21.0380   -5.9930   25.0020 C   0  0  0  0  0  3  0  0  0  0  0  0
  -21.3270   -4.6170   24.9140 C   0  0  0  0  0  0  0  0  0  0  0  0
  -21.7310   -4.0600   23.6880 C   0  0  0  0  0  3  0  0  0  0  0  0
  -21.8440   -4.8750   22.5480 C   0  0  0  0  0  0  0  0  0  0  0  0
  -22.2120   -4.3280   21.3650 F   0  0  0  0  0  0  0  0  0  0  0  0
  -21.2160   -3.8290   26.0080 F   0  0  0  0  0  0  0  0  0  0  0  0
  -22.7540  -13.6270   21.1200 C   0  0  0  0  0  0  0  0  0  0  0  0
  -22.0080  -12.9440   21.9790 N   0  0  0  0  0  0  0  0  0  0  0  0
  -22.3310  -14.6500   20.5830 O   0  0  0  0  0  0  0  0  0  0  0  0
  -22.3600  -12.1170   22.4360 H   0  0  0  0  0  0  0  0  0  0  0  0
  -21.0680  -13.2510   22.1810 H   0  0  0  0  0  0  0  0  0  0  0  0
  -25.4080  -15.2700   20.3180 N   0  0  0  0  0  0  0  0  0  0  0  0
  -24.6280  -15.9150   20.3930 H   0  0  0  0  0  0  0  0  0  0  0  0
  -26.2270  -15.7030   19.9000 H   0  0  0  0  0  0  0  0  0  0  0  0
  -28.9310  -21.2990   20.0450 N   0  0  0  0  0  0  0  0  0  0  0  0
  -28.2450  -21.3920   19.3020 H   0  0  0  0  0  0  0  0  0  0  0  0
  -30.6700  -22.8270   21.0180 C   0  0  0  0  0  1  0  0  0  0  0  0
  -29.1660  -22.5710   20.8070 C   0  0  0  0  0  3  0  0  0  0  0  0
  -28.5300  -23.8750   20.1110 C   0  0  0  0  0  2  0  0  0  0  0  0
  -28.3730  -25.2280   20.9470 C   0  0  0  0  0  2  0  0  0  0  0  0
  -28.4320  -26.5450   20.2790 O   0  0  0  0  0  0  0  0  0  0  0  0
  -24.6250  -31.8990   23.2580 C   0  0  0  0  0  0  0  0  0  0  0  0
  -27.2940  -27.3530   20.2760 C   0  0  0  0  0  0  0  0  0  0  0  0
  -23.4420  -30.4780   21.6190 C   0  0  0  0  0  3  0  0  0  0  0  0
  -24.9140  -28.9220   20.2230 C   0  0  0  0  0  0  0  0  0  0  0  0
  -25.9760  -30.8250   21.4450 C   0  0  0  0  0  2  0  0  0  0  0  0
  -26.0720  -29.4390   20.8190 C   0  0  0  0  0  0  0  0  0  0  0  0
  -27.2690  -28.6680   20.8290 C   0  0  0  0  0  3  0  0  0  0  0  0
  -26.1170  -26.8710   19.6700 C   0  0  0  0  0  3  0  0  0  0  0  0
  -24.9370  -27.6430   19.6390 C   0  0  0  0  0  3  0  0  0  0  0  0
  -23.6700  -29.7860   20.2480 C   0  0  0  0  0  2  0  0  0  0  0  0
  -24.7000  -31.0850   22.1650 N   0  0  0  0  0  0  0  0  0  0  0  0
  -23.5350  -32.1720   23.7840 O   0  0  0  0  0  0  0  0  0  0  0  0
  -22.7810  -29.4660   22.5850 C   0  0  0  0  0  0  0  0  0  0  0  0
  -21.4550  -29.2840   22.4550 N   0  0  0  0  0  0  0  0  0  0  0  0
  -23.4590  -28.8470   23.4080 O   0  0  0  0  0  0  0  0  0  0  0  0
  -20.9680  -29.8350   21.7620 H   0  0  0  0  0  0  0  0  0  0  0  0
  -18.0810  -28.0800   22.9430 C   0  0  0  0  0  0  0  0  0  0  0  0
  -20.6360  -28.3480   23.2260 C   0  0  0  0  0  3  0  0  0  0  0  0
  -20.7460  -26.9130   22.6580 C   0  0  0  0  0  2  0  0  0  0  0  0
  -19.6510  -26.5810   21.6400 C   0  0  0  0  0  2  0  0  0  0  0  0
  -18.2650  -26.7260   22.2760 C   0  0  0  0  0  2  0  0  0  0  0  0
  -19.1950  -28.8460   23.3740 C   0  0  0  0  0  0  0  0  0  0  0  0
  -18.9690  -30.1130   23.9590 C   0  0  0  0  0  3  0  0  0  0  0  0
  -17.6620  -30.6110   24.1130 C   0  0  0  0  0  3  0  0  0  0  0  0
  -16.5620  -29.8410   23.6980 C   0  0  0  0  0  3  0  0  0  0  0  0
  -16.7720  -28.5760   23.1190 C   0  0  0  0  0  3  0  0  0  0  0  0
  -25.8990  -32.5450   23.8860 C   0  0  0  0  0  3  0  0  0  0  0  0
  -26.4100  -31.7860   25.1710 C   0  0  1  0  0  0  0  0  0  0  0  0
  -25.3110  -31.5500   26.2340 C   0  0  0  0  0  1  0  0  0  0  0  0
  -27.0010  -30.4080   24.7920 C   0  0  0  0  0  1  0  0  0  0  0  0
  -27.5510  -32.5900   25.8370 C   0  0  0  0  0  1  0  0  0  0  0  0
  -25.5760  -33.9420   24.2050 N   0  0  0  0  0  0  0  0  0  0  0  0
  -25.9020  -34.9930   23.4410 C   0  0  0  0  0  0  0  0  0  0  0  0
  -26.5750  -34.8890   22.4120 O   0  0  0  0  0  0  0  0  0  0  0  0
  -24.9800  -34.0970   25.0050 H   0  0  0  0  0  0  0  0  0  0  0  0
  -24.1560  -36.7670   23.0770 C   0  0  0  0  0  1  0  0  0  0  0  0
  -25.4040  -36.3820   23.8880 C   0  0  0  0  0  3  0  0  0  0  0  0
  -27.5340  -37.2930   24.7040 C   0  0  0  0  0  1  0  0  0  0  0  0
  -26.4250  -37.4430   23.7640 N   0  0  0  0  0  0  0  0  0  0  0  0
  -26.0110  -38.3610   23.9070 H   0  0  0  0  0  0  0  0  0  0  0  0
  1 16  1  0
  2  7  1  0
  3  4  1  0
  3  2  1  0
  5  4  1  0
  5 23  1  0
  5  6  1  0
  7  1  1  0
  7  6  1  0
  8  1  2  0
  9 13  1  0
 10  9  2  0
 11 16  1  0
 11 13  2  0
 12 11  1  0
 14 12  2  0
 14 10  1  0
 15 12  1  0
 16 19  1  0
 17 15  1  0
 18 15  1  0
 20 21  2  0
 21 40  1  0
 22 21  1  0
 22 25  1  0
 23 20  1  0
 23 24  1  0
 24 22  2  0
 25 26  1  0
 26 27  2  0
 28 31  1  0
 28 27  1  0
 29 28  2  0
 30 29  1  0
 30 25  2  0
 31 32  1  0
 32 33  1  0
 33 34  2  0
 35 34  1  0
 35 39  1  0
 36 35  2  0
 37 32  2  0
 37 36  1  0
 38 37  1  0
 40 41  1  0
 41 44  1  0
 41 43  1  0
 42 40  2  0
 45 46  1  0
 45 20  1  0
 47 45  1  0
 48 10  1  0
 48 51  1  0
 49 48  1  0
 51 50  1  0
 52 51  1  0
 52 53  1  0
 54 53  1  0
 55 66  2  0
 56 54  1  0
 56 61  1  0
 57 65  1  0
 57 67  1  0
 58 64  1  0
 58 60  1  0
 59 65  1  0
 60 61  2  0
 60 59  1  0
 62 56  2  0
 63 62  1  0
 63 58  2  0
 64 57  1  0
 65 55  1  0
 67 69  2  0
 68 67  1  0
 70 68  1  0
 71 80  2  0
 71 76  1  0
 72 68  1  0
 72 76  1  0
 73 72  1  0
 74 75  1  0
 74 73  1  0
 75 71  1  0
 76 77  2  0
 77 78  1  0
 79 78  2  0
 80 79  1  0
 81 55  1  0
 81 86  1  0
 81 82  1  0
 82 85  1  1
 82 83  1  0
 84 82  1  0
 86 89  1  0
 87 91  1  0
 87 86  1  0
 88 87  2  0
 91 90  1  0
 93 91  1  0
 93 94  1  0
 93 92  1  0
M  ISO  4   1 100  16 100  53 101  54 101
M  END
>  <TORSDO>  (7) 
F 19

>  <SCORE>  (7) 
-14.521

>  <name>  (7) 
6

>  <ligand_id>  (7) 
6

>  <original_smiles>  (7) 
[H]c1nc(N([H])C(=O)N2C([H])([H])C([H])([H])C([H])([H])C([H])(n3nc(-c4c([H])c([H])c(Oc5c([H])c([H])c(F)c([H])c5F)c([H])c4[H])c(C(=O)N([H])[H])c3N([H])[H])C2([H])[H])c(N([H])[H])nc1N([H])C([H])(C([H])([H])[H])C([H])([H])C([H])([H])Oc1c([H])c([H])c2c(c1[H])C([H])([H])N(C(=O)C([H])(N([H])C(=O)C([H])(N([H])C([H])([H])[H])C([H])([H])[H])C(C([H])([H])[H])(C([H])([H])[H])C([H])([H])[H])C([H])(C(=O)N([H])C1([H])c3c([H])c([H])c([H])c([H])c3C([H])([H])C([H])([H])C1([H])[H])C2([H])[H]

>  <smiles>  (7) 
[H]c1nc(N([H])C(=O)N2C([H])([H])C([H])([H])C([H])([H])C([H])(n3nc(-c4c([H])c([H])c(Oc5c([H])c([H])c(F)c([H])c5F)c([H])c4[H])c(C(=O)N([H])[H])c3N([H])[H])C2([H])[H])c(N([H])[H])nc1N([H])C([H])(C([H])([H])[H])C([H])([H])C([H])([H])Oc1c([H])c([H])c2c(c1[H])C([H])([H])N(C(=O)C([H])(N([H])C(=O)C([H])(N([H])C([H])([H])[H])C([H])([H])[H])C(C([H])([H])[H])(C([H])([H])[H])C([H])([H])[H])C([H])(C(=O)N([H])C1([H])c3c([H])c([H])c([H])c([H])c3C([H])([H])C([H])([H])C1([H])[H])C2([H])[H]

$$$$
7:0:0
     RDKit          3D

 93101  0  0  1  0  0  0  0  0999 V2000
  -30.1470  -20.3350   22.3710 C   0  0  0  0  0  3  0  0  0  0  0  0
  -30.2150  -19.0360   21.8050 C   0  0  0  0  0  0  0  0  0  0  0  0
  -29.7900  -18.9190   20.4570 C   0  0  0  0  0  0  0  0  0  0  0  0
  -29.3550  -21.2830   20.4490 C   0  0  0  0  0  0  0  0  0  0  0  0
  -29.7360  -21.4310   21.7020 N   0  0  0  0  0  0  0  0  0  0  0  0
  -29.3590  -20.0770   19.8070 N   0  0  0  0  0  0  0  0  0  0  0  0
  -28.9260  -22.4910   19.8060 N   0  0  0  0  0  0  0  0  0  0  0  0
  -28.6370  -22.3690   18.8420 H   0  0  0  0  0  0  0  0  0  0  0  0
  -31.3070  -18.0820   23.8380 C   0  0  0  0  0  1  0  0  0  0  0  0
  -30.7130  -17.9260   22.5140 N   0  0  0  0  0  0  0  0  0  0  0  0
  -30.9390  -17.0800   21.9900 H   0  0  0  0  0  0  0  0  0  0  0  0
  -29.9610  -17.5410   19.6540 C   0  0  0  0  0  2  0  0  0  0  0  0
  -30.5700  -14.9970   19.9600 C   0  0  0  0  0  0  0  0  0  0  0  0
  -30.3350  -12.7180   18.9570 C   0  0  0  0  0  2  0  0  0  0  0  0
  -29.3340  -12.7910   17.7810 C   0  0  0  0  0  2  0  0  0  0  0  0
  -27.8920  -12.5980   18.2860 C   0  0  0  0  0  2  0  0  0  0  0  0
  -27.5740  -13.4690   19.5310 C   0  0  0  0  0  3  0  0  0  0  0  0
  -28.6930  -13.3900   20.5960 C   0  0  0  0  0  2  0  0  0  0  0  0
  -29.9540  -13.7630   19.9420 N   0  0  0  0  0  0  0  0  0  0  0  0
  -31.7150  -15.1090   19.5180 O   0  0  0  0  0  0  0  0  0  0  0  0
  -29.8160  -16.1270   20.2440 N   0  0  0  0  0  0  0  0  0  0  0  0
  -28.9170  -15.9480   20.6630 H   0  0  0  0  0  0  0  0  0  0  0  0
  -25.2300  -14.0260   20.4120 C   0  0  0  0  0  0  0  0  0  0  0  0
  -24.1890  -13.2380   20.8190 C   0  0  0  0  0  0  0  0  0  0  0  0
  -24.6510  -11.8900   20.7190 C   0  0  0  0  0  0  0  0  0  0  0  0
  -26.2610  -13.1590   20.0890 N   0  0  0  0  0  0  0  0  0  0  0  0
  -25.9230  -11.8670   20.3360 N   0  0  0  0  0  0  0  0  0  0  0  0
  -23.9390  -10.6200   20.9110 C   0  0  0  0  0  0  0  0  0  0  0  0
  -24.3790   -9.6590   21.8470 C   0  0  0  0  0  3  0  0  0  0  0  0
  -23.6660   -8.4550   22.0280 C   0  0  0  0  0  3  0  0  0  0  0  0
  -22.4960   -8.2030   21.2720 C   0  0  0  0  0  0  0  0  0  0  0  0
  -22.0740   -9.1530   20.3250 C   0  0  0  0  0  3  0  0  0  0  0  0
  -22.7890  -10.3480   20.1420 C   0  0  0  0  0  3  0  0  0  0  0  0
  -21.7530   -7.0510   21.3610 O   0  0  0  0  0  0  0  0  0  0  0  0
  -21.6650   -6.3400   22.5310 C   0  0  0  0  0  0  0  0  0  0  0  0
  -21.1440   -6.9100   23.7120 C   0  0  0  0  0  3  0  0  0  0  0  0
  -21.0080   -6.1230   24.8740 C   0  0  0  0  0  3  0  0  0  0  0  0
  -21.3820   -4.7670   24.8540 C   0  0  0  0  0  0  0  0  0  0  0  0
  -21.8960   -4.1950   23.6760 C   0  0  0  0  0  3  0  0  0  0  0  0
  -22.0340   -4.9790   22.5180 C   0  0  0  0  0  0  0  0  0  0  0  0
  -22.5100   -4.4180   21.3810 F   0  0  0  0  0  0  0  0  0  0  0  0
  -21.2440   -4.0080   25.9660 F   0  0  0  0  0  0  0  0  0  0  0  0
  -22.8090  -13.7020   21.1840 C   0  0  0  0  0  0  0  0  0  0  0  0
  -22.1280  -12.9720   22.0590 N   0  0  0  0  0  0  0  0  0  0  0  0
  -22.3470  -14.7480   20.7300 O   0  0  0  0  0  0  0  0  0  0  0  0
  -22.5150  -12.1240   22.4480 H   0  0  0  0  0  0  0  0  0  0  0  0
  -21.2040  -13.2650   22.3460 H   0  0  0  0  0  0  0  0  0  0  0  0
  -25.3820  -15.4030   20.2660 N   0  0  0  0  0  0  0  0  0  0  0  0
  -24.6190  -16.0490   20.4400 H   0  0  0  0  0  0  0  0  0  0  0  0
  -26.1980  -15.8520   19.8730 H   0  0  0  0  0  0  0  0  0  0  0  0
  -29.1390  -23.9400   20.2500 C   0  0  0  0  0  3  0  0  0  0  0  0
  -28.1350  -25.1180   19.7390 C   0  0  0  0  0  3  0  0  0  0  0  0
  -28.3290  -26.5840   20.0710 O   0  0  0  0  0  0  0  0  0  0  0  0
  -24.6630  -31.9900   23.2750 C   0  0  0  0  0  0  0  0  0  0  0  0
  -27.2260  -27.4790   20.0440 C   0  0  0  0  0  0  0  0  0  0  0  0
  -23.4300  -30.6230   21.6330 C   0  0  0  0  0  3  0  0  0  0  0  0
  -24.8570  -29.1180   20.1260 C   0  0  0  0  0  0  0  0  0  0  0  0
  -25.9670  -30.9540   21.3950 C   0  0  0  0  0  2  0  0  0  0  0  0
  -26.0400  -29.5880   20.7080 C   0  0  0  0  0  0  0  0  0  0  0  0
  -27.2260  -28.7820   20.6550 C   0  0  0  0  0  3  0  0  0  0  0  0
  -26.0150  -27.0870   19.4260 C   0  0  0  0  0  3  0  0  0  0  0  0
  -24.8500  -27.8770   19.4720 C   0  0  0  0  0  3  0  0  0  0  0  0
  -23.6150  -29.9830   20.2310 C   0  0  0  0  0  2  0  0  0  0  0  0
  -24.7070  -31.2070   22.1570 N   0  0  0  0  0  0  0  0  0  0  0  0
  -23.5910  -32.2450   23.8430 O   0  0  0  0  0  0  0  0  0  0  0  0
  -22.7990  -29.5790   22.5860 C   0  0  0  0  0  0  0  0  0  0  0  0
  -21.4800  -29.3520   22.4510 N   0  0  0  0  0  0  0  0  0  0  0  0
  -23.4950  -28.9740   23.4060 O   0  0  0  0  0  0  0  0  0  0  0  0
  -20.9740  -29.8940   21.7630 H   0  0  0  0  0  0  0  0  0  0  0  0
  -18.1510  -28.0070   22.9100 C   0  0  0  0  0  0  0  0  0  0  0  0
  -20.6910  -28.3810   23.2120 C   0  0  0  0  0  3  0  0  0  0  0  0
  -20.8640  -26.9540   22.6400 C   0  0  0  0  0  2  0  0  0  0  0  0
  -19.7910  -26.5820   21.6120 C   0  0  0  0  0  2  0  0  0  0  0  0
  -18.3960  -26.6660   22.2380 C   0  0  0  0  0  2  0  0  0  0  0  0
  -19.2300  -28.8180   23.3540 C   0  0  0  0  0  0  0  0  0  0  0  0
  -18.9460  -30.0710   23.9410 C   0  0  0  0  0  3  0  0  0  0  0  0
  -17.6190  -30.5120   24.0920 C   0  0  0  0  0  3  0  0  0  0  0  0
  -16.5550  -29.6980   23.6660 C   0  0  0  0  0  3  0  0  0  0  0  0
  -16.8220  -28.4480   23.0800 C   0  0  0  0  0  3  0  0  0  0  0  0
  -25.9540  -32.6210   23.8820 C   0  0  0  0  0  3  0  0  0  0  0  0
  -26.4530  -31.8810   25.1830 C   0  0  1  0  0  0  0  0  0  0  0  0
  -25.3480  -31.6810   26.2470 C   0  0  0  0  0  1  0  0  0  0  0  0
  -27.0310  -30.4880   24.8360 C   0  0  0  0  0  1  0  0  0  0  0  0
  -27.6050  -32.6840   25.8330 C   0  0  0  0  0  1  0  0  0  0  0  0
  -25.6660  -34.0330   24.1710 N   0  0  0  0  0  0  0  0  0  0  0  0
  -25.9780  -35.0560   23.3630 C   0  0  0  0  0  0  0  0  0  0  0  0
  -26.6050  -34.9100   22.3110 O   0  0  0  0  0  0  0  0  0  0  0  0
  -25.1040  -34.2210   24.9880 H   0  0  0  0  0  0  0  0  0  0  0  0
  -24.2350  -36.8420   23.0360 C   0  0  0  0  0  1  0  0  0  0  0  0
  -25.5200  -36.4650   23.7900 C   0  0  0  0  0  3  0  0  0  0  0  0
  -27.6950  -37.3830   24.4670 C   0  0  0  0  0  1  0  0  0  0  0  0
  -26.5470  -37.5080   23.5740 N   0  0  0  0  0  0  0  0  0  0  0  0
  -26.1500  -38.4360   23.6940 H   0  0  0  0  0  0  0  0  0  0  0  0
  2  1  2  0
  2 10  1  0
  3  2  1  0
  4  5  2  0
  5  1  1  0
  6  4  1  0
  6  3  2  0
  7 51  1  0
  7  4  1  0
  8  7  1  0
 10  9  1  0
 11 10  1  0
 12 21  1  0
 12  3  1  0
 13 21  1  0
 14 19  1  0
 15 16  1  0
 15 14  1  0
 17 16  1  0
 17 26  1  0
 17 18  1  0
 19 13  1  0
 19 18  1  0
 20 13  2  0
 21 22  1  0
 23 24  2  0
 24 43  1  0
 25 24  1  0
 25 28  1  0
 26 27  1  0
 26 23  1  0
 27 25  2  0
 28 29  1  0
 29 30  2  0
 31 34  1  0
 31 30  1  0
 32 31  2  0
 33 32  1  0
 33 28  2  0
 34 35  1  0
 35 36  1  0
 36 37  2  0
 38 37  1  0
 38 42  1  0
 39 38  2  0
 40 35  2  0
 40 39  1  0
 41 40  1  0
 43 44  1  0
 44 47  1  0
 44 46  1  0
 45 43  2  0
 48 23  1  0
 48 49  1  0
 50 48  1  0
 52 53  1  0
 52 51  2  0
 54 65  2  0
 55 53  1  0
 55 60  1  0
 56 64  1  0
 56 66  1  0
 57 63  1  0
 57 59  1  0
 58 64  1  0
 59 58  1  0
 60 59  2  0
 61 62  1  0
 61 55  2  0
 62 57  2  0
 63 56  1  0
 64 54  1  0
 66 68  2  0
 67 66  1  0
 69 67  1  0
 70 79  2  0
 70 75  1  0
 71 67  1  0
 71 75  1  0
 72 71  1  0
 73 74  1  0
 73 72  1  0
 74 70  1  0
 75 76  2  0
 76 77  1  0
 78 77  2  0
 79 78  1  0
 80 54  1  0
 80 85  1  0
 80 81  1  0
 81 84  1  1
 81 82  1  0
 83 81  1  0
 85 88  1  0
 86 90  1  0
 86 85  1  0
 87 86  2  0
 90 89  1  0
 92 93  1  0
 92 90  1  0
 92 91  1  0
M  ISO  4  13 100  21 100  52 101  53 101
M  END
>  <TORSDO>  (8) 
F 20

>  <SCORE>  (8) 
-12.424

>  <name>  (8) 
7

>  <ligand_id>  (8) 
7

>  <original_smiles>  (8) 
[H]c1nc(N([H])C([H])([H])C([H])([H])Oc2c([H])c([H])c3c(c2[H])C([H])([H])N(C(=O)C([H])(N([H])C(=O)C([H])(N([H])C([H])([H])[H])C([H])([H])[H])C(C([H])([H])[H])(C([H])([H])[H])C([H])([H])[H])C([H])(C(=O)N([H])C2([H])c4c([H])c([H])c([H])c([H])c4C([H])([H])C([H])([H])C2([H])[H])C3([H])[H])nc(C([H])([H])N([H])C(=O)N2C([H])([H])C([H])([H])C([H])([H])C([H])(n3nc(-c4c([H])c([H])c(Oc5c([H])c([H])c(F)c([H])c5F)c([H])c4[H])c(C(=O)N([H])[H])c3N([H])[H])C2([H])[H])c1N([H])C([H])([H])[H]

>  <smiles>  (8) 
[H]c1nc(N([H])C([H])([H])C([H])([H])Oc2c([H])c([H])c3c(c2[H])C([H])([H])N(C(=O)C([H])(N([H])C(=O)C([H])(N([H])C([H])([H])[H])C([H])([H])[H])C(C([H])([H])[H])(C([H])([H])[H])C([H])([H])[H])C([H])(C(=O)N([H])C2([H])c4c([H])c([H])c([H])c([H])c4C([H])([H])C([H])([H])C2([H])[H])C3([H])[H])nc(C([H])([H])N([H])C(=O)N2C([H])([H])C([H])([H])C([H])([H])C([H])(n3nc(-c4c([H])c([H])c(Oc5c([H])c([H])c(F)c([H])c5F)c([H])c4[H])c(C(=O)N([H])[H])c3N([H])[H])C2([H])[H])c1N([H])C([H])([H])[H]

$$$$
8:0:0
     RDKit          3D

 99107  0  0  1  0  0  0  0  0999 V2000
  -31.9160  -21.5940   20.2950 C   0  0  0  0  0  1  0  0  0  0  0  0
  -30.3840  -21.1130   19.3960 S   0  0  1  0  0  0  0  0  0  0  0  0
  -28.7520  -17.5520   21.1830 C   0  0  0  0  0  3  0  0  0  0  0  0
  -29.8350  -17.1030   20.4630 C   0  0  0  0  0  0  0  0  0  0  0  0
  -29.8940  -19.4210   20.0240 C   0  0  0  0  0  0  0  0  0  0  0  0
  -30.4930  -18.1990   19.8090 N   0  0  0  0  0  0  0  0  0  0  0  0
  -28.5070  -19.2840   21.0890 S   0  0  0  0  0  0  0  0  0  0  0  0
  -30.8110  -14.6860   19.8610 C   0  0  0  0  0  0  0  0  0  0  0  0
  -30.6150  -12.4030   18.8560 C   0  0  0  0  0  2  0  0  0  0  0  0
  -29.5610  -12.4510   17.7230 C   0  0  0  0  0  2  0  0  0  0  0  0
  -28.1310  -12.2760   18.2780 C   0  0  0  0  0  2  0  0  0  0  0  0
  -27.8560  -13.1730   19.5120 C   0  0  0  0  0  3  0  0  0  0  0  0
  -29.0040  -13.0450   20.5390 C   0  0  0  0  0  2  0  0  0  0  0  0
  -30.2560  -13.4280   19.8590 N   0  0  0  0  0  0  0  0  0  0  0  0
  -31.8990  -14.9100   19.3200 O   0  0  0  0  0  0  0  0  0  0  0  0
  -30.0120  -15.6460   20.4350 N   0  0  0  0  0  0  0  0  0  0  0  0
  -29.2740  -15.1740   20.9330 H   0  0  0  0  0  0  0  0  0  0  0  0
  -25.5550  -13.7830   20.4850 C   0  0  0  0  0  0  0  0  0  0  0  0
  -24.5070  -13.0130   20.9130 C   0  0  0  0  0  0  0  0  0  0  0  0
  -24.9310  -11.6570   20.7680 C   0  0  0  0  0  0  0  0  0  0  0  0
  -26.5510  -12.8960   20.1070 N   0  0  0  0  0  0  0  0  0  0  0  0
  -26.1860  -11.6080   20.3360 N   0  0  0  0  0  0  0  0  0  0  0  0
  -24.1960  -10.4000   20.9600 C   0  0  0  0  0  0  0  0  0  0  0  0
  -24.6320   -9.4240   21.8820 C   0  0  0  0  0  3  0  0  0  0  0  0
  -23.8980   -8.2310   22.0620 C   0  0  0  0  0  3  0  0  0  0  0  0
  -22.7130   -8.0080   21.3200 C   0  0  0  0  0  0  0  0  0  0  0  0
  -22.2960   -8.9750   20.3880 C   0  0  0  0  0  3  0  0  0  0  0  0
  -23.0310  -10.1580   20.2060 C   0  0  0  0  0  3  0  0  0  0  0  0
  -21.9490   -6.8700   21.4120 O   0  0  0  0  0  0  0  0  0  0  0  0
  -21.8290   -6.1760   22.5890 C   0  0  0  0  0  0  0  0  0  0  0  0
  -21.3240   -6.7800   23.7610 C   0  0  0  0  0  3  0  0  0  0  0  0
  -21.1520   -6.0120   24.9300 C   0  0  0  0  0  3  0  0  0  0  0  0
  -21.4740   -4.6420   24.9270 C   0  0  0  0  0  0  0  0  0  0  0  0
  -21.9720   -4.0380   23.7590 C   0  0  0  0  0  3  0  0  0  0  0  0
  -22.1460   -4.8030   22.5930 C   0  0  0  0  0  0  0  0  0  0  0  0
  -22.6070   -4.2120   21.4650 F   0  0  0  0  0  0  0  0  0  0  0  0
  -21.3020   -3.9020   26.0470 F   0  0  0  0  0  0  0  0  0  0  0  0
  -23.1540  -13.5030   21.3400 C   0  0  0  0  0  0  0  0  0  0  0  0
  -22.5030  -12.7870   22.2510 N   0  0  0  0  0  0  0  0  0  0  0  0
  -22.6870  -14.5540   20.9040 O   0  0  0  0  0  0  0  0  0  0  0  0
  -22.8930  -11.9350   22.6250 H   0  0  0  0  0  0  0  0  0  0  0  0
  -21.5990  -13.0970   22.5790 H   0  0  0  0  0  0  0  0  0  0  0  0
  -25.7360  -15.1580   20.3650 N   0  0  0  0  0  0  0  0  0  0  0  0
  -24.9930  -15.8160   20.5730 H   0  0  0  0  0  0  0  0  0  0  0  0
  -26.5550  -15.6010   19.9690 H   0  0  0  0  0  0  0  0  0  0  0  0
  -29.2200  -22.4060   19.5480 N   0  0  0  0  0  0  0  0  0  0  0  0
  -28.6460  -22.2860   20.3730 H   0  0  0  0  0  0  0  0  0  0  0  0
  -29.5550  -23.8670   19.3690 C   0  0  0  0  0  3  0  0  0  0  0  0
  -28.3570  -24.9260   19.5220 C   0  0  0  0  0  3  0  0  0  0  0  0
  -28.6010  -26.4010   19.4540 O   0  0  0  0  0  0  0  0  0  0  0  0
  -24.9600  -31.4890   23.1230 C   0  0  0  0  0  0  0  0  0  0  0  0
  -27.4950  -27.2760   19.5330 C   0  0  0  0  0  0  0  0  0  0  0  0
  -23.7340  -30.3190   21.3300 C   0  0  0  0  0  3  0  0  0  0  0  0
  -25.1590  -28.9330   19.7240 C   0  0  0  0  0  0  0  0  0  0  0  0
  -26.2790  -30.6150   21.1780 C   0  0  0  0  0  2  0  0  0  0  0  0
  -26.3380  -29.3210   20.3710 C   0  0  0  0  0  0  0  0  0  0  0  0
  -27.5100  -28.5090   20.2640 C   0  0  0  0  0  3  0  0  0  0  0  0
  -26.2920  -26.9560   18.8610 C   0  0  0  0  0  3  0  0  0  0  0  0
  -25.1390  -27.7570   18.9610 C   0  0  0  0  0  3  0  0  0  0  0  0
  -23.9370  -29.8170   19.8770 C   0  0  0  0  0  2  0  0  0  0  0  0
  -25.0110  -30.8180   21.9360 N   0  0  0  0  0  0  0  0  0  0  0  0
  -23.8800  -31.7160   23.6910 O   0  0  0  0  0  0  0  0  0  0  0  0
  -23.0550  -29.2040   22.1610 C   0  0  0  0  0  0  0  0  0  0  0  0
  -21.7210  -29.0880   22.0470 N   0  0  0  0  0  0  0  0  0  0  0  0
  -23.7280  -28.4500   22.8680 O   0  0  0  0  0  0  0  0  0  0  0  0
  -21.2340  -29.7470   21.4540 H   0  0  0  0  0  0  0  0  0  0  0  0
  -18.3110  -27.9730   22.5160 C   0  0  0  0  0  0  0  0  0  0  0  0
  -20.8880  -28.0830   22.7120 C   0  0  0  0  0  3  0  0  0  0  0  0
  -20.9020  -26.7470   21.9340 C   0  0  0  0  0  2  0  0  0  0  0  0
  -19.7500  -26.6220   20.9320 C   0  0  0  0  0  2  0  0  0  0  0  0
  -18.4000  -26.7310   21.6460 C   0  0  0  0  0  2  0  0  0  0  0  0
  -19.4800  -28.6170   23.0040 C   0  0  0  0  0  0  0  0  0  0  0  0
  -19.3420  -29.7880   23.7800 C   0  0  0  0  0  3  0  0  0  0  0  0
  -18.0700  -30.3140   24.0710 C   0  0  0  0  0  3  0  0  0  0  0  0
  -16.9160  -29.6650   23.5950 C   0  0  0  0  0  3  0  0  0  0  0  0
  -17.0390  -28.4950   22.8260 C   0  0  0  0  0  3  0  0  0  0  0  0
  -26.2520  -32.0250   23.8140 C   0  0  0  0  0  3  0  0  0  0  0  0
  -25.9660  -33.3810   24.3030 N   0  0  0  0  0  0  0  0  0  0  0  0
  -26.3250  -34.5080   23.6730 C   0  0  0  0  0  0  0  0  0  0  0  0
  -26.9980  -34.5120   22.6390 O   0  0  0  0  0  0  0  0  0  0  0  0
  -25.3670  -33.4580   25.1120 H   0  0  0  0  0  0  0  0  0  0  0  0
  -24.6330  -36.3630   23.5270 C   0  0  0  0  0  1  0  0  0  0  0  0
  -25.8630  -35.8440   24.2890 C   0  0  0  0  0  3  0  0  0  0  0  0
  -28.0080  -36.5820   25.2260 C   0  0  0  0  0  1  0  0  0  0  0  0
  -26.9170  -36.8820   24.3020 N   0  0  0  0  0  0  0  0  0  0  0  0
  -26.5290  -37.7850   24.5570 H   0  0  0  0  0  0  0  0  0  0  0  0
  -26.7530  -31.1040   24.9910 C   0  0  1  0  0  0  0  0  0  0  0  0
  -25.6580  -30.7760   26.0310 C   0  0  0  0  0  1  0  0  0  0  0  0
  -27.3010  -29.7660   24.4430 C   0  0  0  0  0  1  0  0  0  0  0  0
  -27.9270  -31.7900   25.7300 C   0  0  0  0  0  1  0  0  0  0  0  0
  -30.8090  -20.9220   17.6000 C   0  0  0  0  0  2  0  0  0  0  0  0
  -32.2230  -20.4520   17.3850 C   0  0  0  0  0  0  0  0  0  0  0  0
  -33.2050  -21.3500   17.1770 N   0  0  0  0  0  4  0  0  0  0  0  0
  -32.4660  -19.1290   17.3720 N   0  0  0  0  0  0  0  0  0  0  0  0
  -33.0050  -22.3420   17.1670 H   0  0  0  0  0  0  0  0  0  0  0  0
  -34.1660  -21.0920   16.9980 H   0  0  0  0  0  0  0  0  0  0  0  0
  -31.6990  -18.5160   17.6150 H   0  0  0  0  0  0  0  0  0  0  0  0
  -33.5640  -16.9650   16.9090 C   0  0  0  0  0  1  0  0  0  0  0  0
  -33.7600  -18.4580   17.1970 C   0  0  0  0  0  2  0  0  0  0  0  0
  2 46  1  0
  2  5  1  0
  2  1  1  1
  4  3  2  0
  5  7  1  0
  6  5  2  0
  6  4  1  0
  7  3  1  0
  8 16  1  0
  9 14  1  0
 10 11  1  0
 10  9  1  0
 12 11  1  0
 12 21  1  0
 12 13  1  0
 14  8  1  0
 14 13  1  0
 15  8  2  0
 16  4  1  0
 16 17  1  0
 18 19  2  0
 19 38  1  0
 20 19  1  0
 20 23  1  0
 21 22  1  0
 21 18  1  0
 22 20  2  0
 23 24  1  0
 24 25  2  0
 26 29  1  0
 26 25  1  0
 27 26  2  0
 28 27  1  0
 28 23  2  0
 29 30  1  0
 30 35  2  0
 30 31  1  0
 31 32  2  0
 33 32  1  0
 33 37  1  0
 34 33  2  0
 35 34  1  0
 36 35  1  0
 38 39  1  0
 39 42  1  0
 39 41  1  0
 40 38  2  0
 43 18  1  0
 43 44  1  0
 45 43  1  0
 46 47  1  0
 48 49  2  0
 48 46  1  0
 50 49  1  0
 50 52  1  0
 51 62  2  0
 52 57  1  0
 53 61  1  0
 53 63  1  0
 54 60  1  0
 54 56  1  0
 55 61  1  0
 56 55  1  0
 57 56  2  0
 58 59  1  0
 58 52  2  0
 59 54  2  0
 60 53  1  0
 61 51  1  0
 63 65  2  0
 64 63  1  0
 66 64  1  0
 67 76  2  0
 67 72  1  0
 68 64  1  0
 68 72  1  0
 69 68  1  0
 70 71  1  0
 70 69  1  0
 71 67  1  0
 72 73  2  0
 73 74  1  0
 75 74  2  0
 76 75  1  0
 77 51  1  0
 77 78  1  0
 77 87  1  0
 78 81  1  0
 79 83  1  0
 79 78  1  0
 80 79  2  0
 83 82  1  0
 83 85  1  0
 85 86  1  0
 85 84  1  0
 87 90  1  1
 87 88  1  0
 89 87  1  0
 91  2  1  0
 92 91  1  0
 93 92  2  0
 94 92  1  0
 94 97  1  0
 95 93  1  0
 96 93  1  0
 98 99  1  0
 99 94  1  0
M  ISO  4   8 100  16 100  49 101  50 101
M  END
>  <TORSDO>  (9) 
F 23

>  <SCORE>  (9) 
-10.543

>  <name>  (9) 
8

>  <ligand_id>  (9) 
8

>  <original_smiles>  (9) 
[H]c1sc(S(N([H])C([H])([H])C([H])([H])Oc2c([H])c([H])c3c(c2[H])C([H])([H])N(C(=O)C([H])(N([H])C(=O)C([H])(N([H])C([H])([H])[H])C([H])([H])[H])C(C([H])([H])[H])(C([H])([H])[H])C([H])([H])[H])C([H])(C(=O)N([H])C2([H])c4c([H])c([H])c([H])c([H])c4C([H])([H])C([H])([H])C2([H])[H])C3([H])[H])(C([H])([H])[H])C([H])([H])C(N([H])[H])=[N+]([H])C([H])([H])C([H])([H])[H])nc1N([H])C(=O)N1C([H])([H])C([H])([H])C([H])([H])C([H])(n2nc(-c3c([H])c([H])c(Oc4c([H])c([H])c(F)c([H])c4F)c([H])c3[H])c(C(=O)N([H])[H])c2N([H])[H])C1([H])[H]

>  <smiles>  (9) 
[H]c1sc(S(N([H])C([H])([H])C([H])([H])Oc2c([H])c([H])c3c(c2[H])C([H])([H])N(C(=O)C([H])(N([H])C(=O)C([H])(N([H])C([H])([H])[H])C([H])([H])[H])C(C([H])([H])[H])(C([H])([H])[H])C([H])([H])[H])C([H])(C(=O)N([H])C2([H])c4c([H])c([H])c([H])c([H])c4C([H])([H])C([H])([H])C2([H])[H])C3([H])[H])(C([H])([H])[H])C([H])([H])C(N([H])[H])=[N+]([H])C([H])([H])C([H])([H])[H])nc1N([H])C(=O)N1C([H])([H])C([H])([H])C([H])([H])C([H])(n2nc(-c3c([H])c([H])c(Oc4c([H])c([H])c(F)c([H])c4F)c([H])c3[H])c(C(=O)N([H])[H])c2N([H])[H])C1([H])[H]

$$$$
9:0:0
     RDKit          3D

 97105  0  0  1  0  0  0  0  0999 V2000
  -28.3730  -22.5970   20.4700 N   0  0  0  0  0  4  0  0  0  0  0  0
  -27.7920  -22.0410   19.8560 H   0  0  0  0  0  0  0  0  0  0  0  0
  -27.7720  -22.8940   21.2250 H   0  0  0  0  0  0  0  0  0  0  0  0
  -29.5220  -21.8210   22.5390 C   0  0  0  0  0  1  0  0  0  0  0  0
  -29.4160  -21.6690   21.0060 C   0  0  0  0  0  3  0  0  0  0  0  0
  -29.0990  -20.2330   20.4880 C   0  0  0  0  0  2  0  0  0  0  0  0
  -31.6080  -17.3120   21.4950 C   0  0  0  0  0  3  0  0  0  0  0  0
  -30.4030  -16.8030   21.0780 C   0  0  0  0  0  0  0  0  0  0  0  0
  -29.9360  -19.0400   20.8940 C   0  0  0  0  0  0  0  0  0  0  0  0
  -29.4550  -17.7910   20.7940 N   0  0  0  0  0  0  0  0  0  0  0  0
  -31.6290  -19.0600   21.4030 S   0  0  0  0  0  0  0  0  0  0  0  0
  -30.7200  -14.4780   20.2880 C   0  0  0  0  0  0  0  0  0  0  0  0
  -30.3620  -12.3690   19.0440 C   0  0  0  0  0  2  0  0  0  0  0  0
  -29.3800  -12.6120   17.8800 C   0  0  0  0  0  2  0  0  0  0  0  0
  -27.9230  -12.4450   18.3610 C   0  0  0  0  0  2  0  0  0  0  0  0
  -27.6300  -13.2600   19.6490 C   0  0  0  0  0  3  0  0  0  0  0  0
  -28.7170  -13.0020   20.7180 C   0  0  0  0  0  2  0  0  0  0  0  0
  -30.0280  -13.3170   20.1190 N   0  0  0  0  0  0  0  0  0  0  0  0
  -31.8100  -14.6900   19.7410 O   0  0  0  0  0  0  0  0  0  0  0  0
  -30.0870  -15.4220   21.0140 N   0  0  0  0  0  0  0  0  0  0  0  0
  -29.1540  -15.1700   21.3020 H   0  0  0  0  0  0  0  0  0  0  0  0
  -25.2490  -13.8590   20.4200 C   0  0  0  0  0  0  0  0  0  0  0  0
  -24.1900  -13.0840   20.8180 C   0  0  0  0  0  0  0  0  0  0  0  0
  -24.6510  -11.7350   20.7610 C   0  0  0  0  0  0  0  0  0  0  0  0
  -26.2890  -12.9810   20.1590 N   0  0  0  0  0  0  0  0  0  0  0  0
  -25.9320  -11.6980   20.4190 N   0  0  0  0  0  0  0  0  0  0  0  0
  -23.9320  -10.4710   20.9630 C   0  0  0  0  0  0  0  0  0  0  0  0
  -24.3780   -9.5110   21.8970 C   0  0  0  0  0  3  0  0  0  0  0  0
  -23.6650   -8.3080   22.0870 C   0  0  0  0  0  3  0  0  0  0  0  0
  -22.4890   -8.0570   21.3410 C   0  0  0  0  0  0  0  0  0  0  0  0
  -22.0610   -9.0040   20.3930 C   0  0  0  0  0  3  0  0  0  0  0  0
  -22.7760  -10.1990   20.2030 C   0  0  0  0  0  3  0  0  0  0  0  0
  -21.7440   -6.9070   21.4440 O   0  0  0  0  0  0  0  0  0  0  0  0
  -21.6920   -6.1800   22.6060 C   0  0  0  0  0  0  0  0  0  0  0  0
  -21.2490   -6.7460   23.8210 C   0  0  0  0  0  3  0  0  0  0  0  0
  -21.1480   -5.9440   24.9760 C   0  0  0  0  0  3  0  0  0  0  0  0
  -21.4780   -4.5760   24.9160 C   0  0  0  0  0  0  0  0  0  0  0  0
  -21.9100   -4.0090   23.7040 C   0  0  0  0  0  3  0  0  0  0  0  0
  -22.0140   -4.8080   22.5520 C   0  0  0  0  0  0  0  0  0  0  0  0
  -22.4150   -4.2510   21.3840 F   0  0  0  0  0  0  0  0  0  0  0  0
  -21.3710   -3.8060   26.0230 F   0  0  0  0  0  0  0  0  0  0  0  0
  -22.8020  -13.5560   21.1390 C   0  0  0  0  0  0  0  0  0  0  0  0
  -22.0950  -12.8510   22.0140 N   0  0  0  0  0  0  0  0  0  0  0  0
  -22.3500  -14.5880   20.6410 O   0  0  0  0  0  0  0  0  0  0  0  0
  -22.4760  -12.0180   22.4420 H   0  0  0  0  0  0  0  0  0  0  0  0
  -21.1640  -13.1510   22.2660 H   0  0  0  0  0  0  0  0  0  0  0  0
  -25.4020  -15.2310   20.2390 N   0  0  0  0  0  0  0  0  0  0  0  0
  -24.6300  -15.8760   20.3630 H   0  0  0  0  0  0  0  0  0  0  0  0
  -26.2380  -15.6700   19.8680 H   0  0  0  0  0  0  0  0  0  0  0  0
  -28.7650  -23.7840   19.6500 C   0  0  0  0  0  3  0  0  0  0  0  0
  -29.3390  -23.2890   18.3000 C   0  0  0  0  0  0  0  0  0  0  0  0
  -28.6360  -23.7130   17.0130 C   0  0  0  0  0  1  0  0  0  0  0  0
  -30.3230  -22.5530   18.2140 O   0  0  0  0  0  0  0  0  0  0  0  0
  -29.6980  -24.8040   20.3670 C   0  0  0  0  0  2  0  0  0  0  0  0
  -29.9330  -26.8570   21.8540 C   0  0  0  0  0  1  0  0  0  0  0  0
  -28.9630  -25.9930   21.0380 C   0  0  0  0  0  3  0  0  0  0  0  0
  -28.4450  -26.8060   19.9890 O   0  0  0  0  0  0  0  0  0  0  0  0
  -24.5880  -31.9340   23.2440 C   0  0  0  0  0  0  0  0  0  0  0  0
  -27.2720  -27.4960   20.1820 C   0  0  0  0  0  0  0  0  0  0  0  0
  -23.3970  -30.5200   21.6010 C   0  0  0  0  0  3  0  0  0  0  0  0
  -24.8650  -28.9780   20.2020 C   0  0  0  0  0  0  0  0  0  0  0  0
  -25.9250  -30.8820   21.4260 C   0  0  0  0  0  2  0  0  0  0  0  0
  -26.0190  -29.5070   20.7950 C   0  0  0  0  0  0  0  0  0  0  0  0
  -27.2280  -28.7710   20.7890 C   0  0  0  0  0  3  0  0  0  0  0  0
  -26.1000  -26.9720   19.5990 C   0  0  0  0  0  3  0  0  0  0  0  0
  -24.8970  -27.7040   19.6090 C   0  0  0  0  0  3  0  0  0  0  0  0
  -23.6200  -29.8360   20.2290 C   0  0  0  0  0  2  0  0  0  0  0  0
  -24.6530  -31.1280   22.1470 N   0  0  0  0  0  0  0  0  0  0  0  0
  -23.5040  -32.2060   23.7780 O   0  0  0  0  0  0  0  0  0  0  0  0
  -22.7460  -29.4990   22.5600 C   0  0  0  0  0  0  0  0  0  0  0  0
  -21.4230  -29.3130   22.4270 N   0  0  0  0  0  0  0  0  0  0  0  0
  -23.4270  -28.8760   23.3790 O   0  0  0  0  0  0  0  0  0  0  0  0
  -20.9360  -29.8660   21.7370 H   0  0  0  0  0  0  0  0  0  0  0  0
  -18.0440  -28.1230   22.9150 C   0  0  0  0  0  0  0  0  0  0  0  0
  -20.6020  -28.3760   23.1940 C   0  0  0  0  0  3  0  0  0  0  0  0
  -20.7040  -26.9450   22.6180 C   0  0  0  0  0  2  0  0  0  0  0  0
  -19.6060  -26.6250   21.6000 C   0  0  0  0  0  2  0  0  0  0  0  0
  -18.2210  -26.7740   22.2390 C   0  0  0  0  0  2  0  0  0  0  0  0
  -19.1640  -28.8830   23.3480 C   0  0  0  0  0  0  0  0  0  0  0  0
  -18.9470  -30.1480   23.9360 C   0  0  0  0  0  3  0  0  0  0  0  0
  -17.6440  -30.6540   24.0960 C   0  0  0  0  0  3  0  0  0  0  0  0
  -16.5380  -29.8890   23.6840 C   0  0  0  0  0  3  0  0  0  0  0  0
  -16.7390  -28.6260   23.0980 C   0  0  0  0  0  3  0  0  0  0  0  0
  -25.8700  -32.5730   23.8660 C   0  0  0  0  0  3  0  0  0  0  0  0
  -25.5560  -33.9710   24.1880 N   0  0  0  0  0  0  0  0  0  0  0  0
  -25.8940  -35.0230   23.4290 C   0  0  0  0  0  0  0  0  0  0  0  0
  -26.5750  -34.9190   22.4050 O   0  0  0  0  0  0  0  0  0  0  0  0
  -24.9550  -34.1270   24.9850 H   0  0  0  0  0  0  0  0  0  0  0  0
  -24.1690  -36.8110   23.0460 C   0  0  0  0  0  1  0  0  0  0  0  0
  -25.3960  -36.4100   23.8790 C   0  0  0  0  0  3  0  0  0  0  0  0
  -27.5140  -37.2960   24.7470 C   0  0  0  0  0  1  0  0  0  0  0  0
  -26.4280  -37.4650   23.7850 N   0  0  0  0  0  0  0  0  0  0  0  0
  -26.0190  -38.3850   23.9290 H   0  0  0  0  0  0  0  0  0  0  0  0
  -26.3900  -31.8070   25.1420 C   0  0  1  0  0  0  0  0  0  0  0  0
  -25.3000  -31.5650   26.2120 C   0  0  0  0  0  1  0  0  0  0  0  0
  -26.9840  -30.4330   24.7590 C   0  0  0  0  0  1  0  0  0  0  0  0
  -27.5340  -32.6120   25.8020 C   0  0  0  0  0  1  0  0  0  0  0  0
  1  5  1  0
  1  3  1  0
  2  1  1  0
  5  4  1  0
  6  9  1  0
  6  5  1  0
  8  7  2  0
  9 11  1  0
 10  9  2  0
 10  8  1  0
 11  7  1  0
 12 20  1  0
 13 18  1  0
 14 15  1  0
 14 13  1  0
 16 15  1  0
 16 25  1  0
 16 17  1  0
 18 12  1  0
 18 17  1  0
 19 12  2  0
 20  8  1  0
 20 21  1  0
 22 23  2  0
 23 42  1  0
 24 23  1  0
 24 27  1  0
 25 26  1  0
 25 22  1  0
 26 24  2  0
 27 28  1  0
 28 29  2  0
 30 33  1  0
 30 29  1  0
 31 30  2  0
 32 31  1  0
 32 27  2  0
 33 34  1  0
 34 35  1  0
 35 36  2  0
 37 36  1  0
 37 41  1  0
 38 37  2  0
 39 34  2  0
 39 38  1  0
 40 39  1  0
 42 43  1  0
 43 46  1  0
 43 45  1  0
 44 42  2  0
 47 48  1  0
 47 22  1  0
 49 47  1  0
 50 54  1  0
 50  1  1  0
 51 50  1  0
 52 51  1  0
 53 51  2  0
 54 56  1  0
 56 55  1  0
 57 59  1  0
 57 56  1  0
 58 69  2  0
 59 64  1  0
 60 68  1  0
 60 70  1  0
 61 67  1  0
 61 63  1  0
 62 68  1  0
 63 62  1  0
 64 63  2  0
 65 66  1  0
 65 59  2  0
 66 61  2  0
 67 60  1  0
 68 58  1  0
 70 72  2  0
 71 70  1  0
 73 71  1  0
 74 83  2  0
 74 79  1  0
 75 71  1  0
 75 79  1  0
 76 75  1  0
 77 78  1  0
 77 76  1  0
 78 74  1  0
 79 80  2  0
 80 81  1  0
 82 81  2  0
 83 82  1  0
 84 58  1  0
 84 85  1  0
 84 94  1  0
 85 88  1  0
 86 90  1  0
 86 85  1  0
 87 86  2  0
 90 89  1  0
 92 90  1  0
 92 93  1  0
 92 91  1  0
 94 97  1  1
 94 95  1  0
 96 94  1  0
M  ISO  4  12 100  20 100  56 101  57 101
M  END
>  <TORSDO>  (10) 
F 23

>  <SCORE>  (10) 
-13.053

>  <name>  (10) 
9

>  <ligand_id>  (10) 
9

>  <original_smiles>  (10) 
[H]c1sc(C([H])([H])C([H])(C([H])([H])[H])[N+]([H])([H])C([H])(C(=O)C([H])([H])[H])C([H])([H])C([H])(Oc2c([H])c([H])c3c(c2[H])C([H])([H])N(C(=O)C([H])(N([H])C(=O)C([H])(N([H])C([H])([H])[H])C([H])([H])[H])C(C([H])([H])[H])(C([H])([H])[H])C([H])([H])[H])C([H])(C(=O)N([H])C2([H])c4c([H])c([H])c([H])c([H])c4C([H])([H])C([H])([H])C2([H])[H])C3([H])[H])C([H])([H])[H])nc1N([H])C(=O)N1C([H])([H])C([H])([H])C([H])([H])C([H])(n2nc(-c3c([H])c([H])c(Oc4c([H])c([H])c(F)c([H])c4F)c([H])c3[H])c(C(=O)N([H])[H])c2N([H])[H])C1([H])[H]

>  <smiles>  (10) 
[H]c1sc(C([H])([H])C([H])(C([H])([H])[H])[N+]([H])([H])C([H])(C(=O)C([H])([H])[H])C([H])([H])C([H])(Oc2c([H])c([H])c3c(c2[H])C([H])([H])N(C(=O)C([H])(N([H])C(=O)C([H])(N([H])C([H])([H])[H])C([H])([H])[H])C(C([H])([H])[H])(C([H])([H])[H])C([H])([H])[H])C([H])(C(=O)N([H])C2([H])c4c([H])c([H])c([H])c([H])c4C([H])([H])C([H])([H])C2([H])[H])C3([H])[H])C([H])([H])[H])nc1N([H])C(=O)N1C([H])([H])C([H])([H])C([H])([H])C([H])(n2nc(-c3c([H])c([H])c(Oc4c([H])c([H])c(F)c([H])c4F)c([H])c3[H])c(C(=O)N([H])[H])c2N([H])[H])C1([H])[H]

$$$$
10:0:0
     RDKit          3D

 98106  0  0  1  0  0  0  0  0999 V2000
  -31.2260  -14.7150   20.4610 C   0  0  0  0  0  0  0  0  0  0  0  0
  -30.7910  -12.7420   18.9800 C   0  0  0  0  0  2  0  0  0  0  0  0
  -29.8290  -13.1780   17.8490 C   0  0  0  0  0  2  0  0  0  0  0  0
  -28.3620  -13.0420   18.3030 C   0  0  0  0  0  2  0  0  0  0  0  0
  -28.1130  -13.6620   19.7020 C   0  0  0  0  0  3  0  0  0  0  0  0
  -29.1850  -13.2000   20.7170 C   0  0  0  0  0  2  0  0  0  0  0  0
  -30.5000  -13.5720   20.1780 N   0  0  0  0  0  0  0  0  0  0  0  0
  -32.3780  -14.8100   20.0170 O   0  0  0  0  0  0  0  0  0  0  0  0
  -30.3710  -17.1310   20.8750 C   0  0  0  0  0  0  0  0  0  0  0  0
  -28.9230  -18.5020   19.8710 C   0  0  0  0  0  0  0  0  0  0  0  0
  -30.2610  -19.4040   21.3920 C   0  0  0  0  0  0  0  0  0  0  0  0
  -29.4040  -17.2760   19.9770 N   0  0  0  0  0  4  0  0  0  0  0  0
  -30.8490  -18.1870   21.6240 N   0  0  0  0  0  0  0  0  0  0  0  0
  -29.2620  -19.5940   20.5440 N   0  0  0  0  0  2  0  0  0  0  0  0
  -30.6330  -15.7480   21.1800 N   0  0  0  0  0  0  0  0  0  0  0  0
  -27.9330  -18.6070   18.9210 N   0  0  0  0  0  0  0  0  0  0  0  0
  -30.7180  -20.6020   22.0510 N   0  0  0  0  0  0  0  0  0  0  0  0
  -29.8640  -15.3690   21.7100 H   0  0  0  0  0  0  0  0  0  0  0  0
  -27.7970  -17.7410   18.4160 H   0  0  0  0  0  0  0  0  0  0  0  0
  -31.6080  -20.5020   22.5220 H   0  0  0  0  0  0  0  0  0  0  0  0
  -25.7350  -14.3070   20.4150 C   0  0  0  0  0  0  0  0  0  0  0  0
  -24.6460  -13.5560   20.7670 C   0  0  0  0  0  0  0  0  0  0  0  0
  -25.0750  -12.1930   20.7200 C   0  0  0  0  0  0  0  0  0  0  0  0
  -26.7570  -13.4020   20.1750 N   0  0  0  0  0  0  0  0  0  0  0  0
  -26.3650  -12.1270   20.4210 N   0  0  0  0  0  0  0  0  0  0  0  0
  -24.3170  -10.9440   20.8870 C   0  0  0  0  0  0  0  0  0  0  0  0
  -24.7230   -9.9470   21.8000 C   0  0  0  0  0  3  0  0  0  0  0  0
  -23.9660   -8.7660   21.9540 C   0  0  0  0  0  3  0  0  0  0  0  0
  -22.7850   -8.5750   21.1970 C   0  0  0  0  0  0  0  0  0  0  0  0
  -22.3970   -9.5620   20.2750 C   0  0  0  0  0  3  0  0  0  0  0  0
  -23.1540  -10.7360   20.1200 C   0  0  0  0  0  3  0  0  0  0  0  0
  -22.0020   -7.4470   21.2610 O   0  0  0  0  0  0  0  0  0  0  0  0
  -21.9320   -6.6850   22.3990 C   0  0  0  0  0  0  0  0  0  0  0  0
  -21.5170   -7.2280   23.6350 C   0  0  0  0  0  3  0  0  0  0  0  0
  -21.3930   -6.3940   24.7640 C   0  0  0  0  0  3  0  0  0  0  0  0
  -21.6710   -5.0180   24.6570 C   0  0  0  0  0  0  0  0  0  0  0  0
  -22.0770   -4.4740   23.4260 C   0  0  0  0  0  3  0  0  0  0  0  0
  -22.2040   -5.3060   22.2990 C   0  0  0  0  0  0  0  0  0  0  0  0
  -22.5750   -4.7740   21.1100 F   0  0  0  0  0  0  0  0  0  0  0  0
  -21.5440   -4.2130   25.7390 F   0  0  0  0  0  0  0  0  0  0  0  0
  -23.2580  -14.0660   21.0310 C   0  0  0  0  0  0  0  0  0  0  0  0
  -22.5260  -13.4190   21.9340 N   0  0  0  0  0  0  0  0  0  0  0  0
  -22.8310  -15.0750   20.4730 O   0  0  0  0  0  0  0  0  0  0  0  0
  -22.8780  -12.5990   22.4040 H   0  0  0  0  0  0  0  0  0  0  0  0
  -21.6010  -13.7570   22.1590 H   0  0  0  0  0  0  0  0  0  0  0  0
  -25.9460  -15.6720   20.2560 N   0  0  0  0  0  0  0  0  0  0  0  0
  -25.1980  -16.3500   20.3520 H   0  0  0  0  0  0  0  0  0  0  0  0
  -26.8090  -16.0680   19.9070 H   0  0  0  0  0  0  0  0  0  0  0  0
  -25.4840  -18.5440   18.8980 C   0  0  0  0  0  1  0  0  0  0  0  0
  -26.7060  -20.5610   18.0070 C   0  0  0  0  0  1  0  0  0  0  0  0
  -26.7330  -19.4300   19.0480 C   0  0  0  0  0  3  0  0  0  0  0  0
  -29.7830  -21.7220   24.0400 C   0  0  0  0  0  1  0  0  0  0  0  0
  -29.9040  -21.8140   22.5080 C   0  0  0  0  0  3  0  0  0  0  0  0
  -30.3730  -23.3350   22.0760 C   0  0  0  0  0  3  0  0  0  0  0  0
  -31.0260  -23.1240   20.8320 O   0  0  0  0  0  0  0  0  0  0  0  0
  -30.4290  -22.6310   20.2770 H   0  0  0  0  0  0  0  0  0  0  0  0
  -29.2520  -24.5280   21.8550 C   0  0  0  0  0  2  0  0  0  0  0  0
  -29.5100  -26.0100   21.5750 O   0  0  0  0  0  0  0  0  0  0  0  0
  -25.0540  -31.5900   23.1490 C   0  0  0  0  0  0  0  0  0  0  0  0
  -28.4120  -26.8460   21.2090 C   0  0  0  0  0  0  0  0  0  0  0  0
  -24.2500  -29.9280   21.5170 C   0  0  0  0  0  3  0  0  0  0  0  0
  -26.0190  -28.3390   20.5710 C   0  0  0  0  0  0  0  0  0  0  0  0
  -26.7680  -30.3970   21.7490 C   0  0  0  0  0  2  0  0  0  0  0  0
  -27.0400  -28.9570   21.3040 C   0  0  0  0  0  0  0  0  0  0  0  0
  -28.2410  -28.2240   21.6050 C   0  0  0  0  0  3  0  0  0  0  0  0
  -27.3680  -26.3080   20.4130 C   0  0  0  0  0  3  0  0  0  0  0  0
  -26.1950  -27.0270   20.1150 C   0  0  0  0  0  3  0  0  0  0  0  0
  -24.7480  -29.1180   20.2920 C   0  0  0  0  0  2  0  0  0  0  0  0
  -25.3660  -30.6660   22.1930 N   0  0  0  0  0  0  0  0  0  0  0  0
  -23.8780  -31.8410   23.4470 O   0  0  0  0  0  0  0  0  0  0  0  0
  -23.4820  -28.9810   22.4690 C   0  0  0  0  0  0  0  0  0  0  0  0
  -22.1680  -28.8140   22.2330 N   0  0  0  0  0  0  0  0  0  0  0  0
  -24.0710  -28.3970   23.3850 O   0  0  0  0  0  0  0  0  0  0  0  0
  -21.7570  -29.3400   21.4750 H   0  0  0  0  0  0  0  0  0  0  0  0
  -18.6980  -27.9130   22.7460 C   0  0  0  0  0  0  0  0  0  0  0  0
  -21.2740  -27.9260   22.9780 C   0  0  0  0  0  3  0  0  0  0  0  0
  -21.2350  -26.5150   22.3480 C   0  0  0  0  0  2  0  0  0  0  0  0
  -20.0920  -26.3300   21.3430 C   0  0  0  0  0  2  0  0  0  0  0  0
  -18.7370  -26.5830   22.0120 C   0  0  0  0  0  2  0  0  0  0  0  0
  -19.8900  -28.5520   23.1860 C   0  0  0  0  0  0  0  0  0  0  0  0
  -19.7980  -29.8070   23.8260 C   0  0  0  0  0  3  0  0  0  0  0  0
  -18.5490  -30.4160   24.0350 C   0  0  0  0  0  3  0  0  0  0  0  0
  -17.3740  -29.7800   23.6070 C   0  0  0  0  0  3  0  0  0  0  0  0
  -17.4480  -28.5270   22.9730 C   0  0  0  0  0  3  0  0  0  0  0  0
  -26.1600  -32.3910   23.9010 C   0  0  0  0  0  3  0  0  0  0  0  0
  -26.5920  -31.7270   25.2680 C   0  0  1  0  0  0  0  0  0  0  0  0
  -25.4000  -31.2550   26.1330 C   0  0  0  0  0  1  0  0  0  0  0  0
  -27.5050  -30.5040   25.0240 C   0  0  0  0  0  1  0  0  0  0  0  0
  -27.4230  -32.7350   26.0970 C   0  0  0  0  0  1  0  0  0  0  0  0
  -25.6490  -33.7520   24.1300 N   0  0  0  0  0  0  0  0  0  0  0  0
  -25.9560  -34.8190   23.3810 C   0  0  0  0  0  0  0  0  0  0  0  0
  -26.7670  -34.7670   22.4530 O   0  0  0  0  0  0  0  0  0  0  0  0
  -24.9350  -33.8540   24.8390 H   0  0  0  0  0  0  0  0  0  0  0  0
  -24.1220  -36.4010   22.7070 C   0  0  0  0  0  1  0  0  0  0  0  0
  -25.2550  -36.1510   23.7130 C   0  0  0  0  0  3  0  0  0  0  0  0
  -27.1430  -37.2650   24.8180 C   0  0  0  0  0  1  0  0  0  0  0  0
  -26.1750  -37.3100   23.7250 N   0  0  0  0  0  0  0  0  0  0  0  0
  -25.6580  -38.1830   23.7940 H   0  0  0  0  0  0  0  0  0  0  0  0
  1 15  1  0
  2  7  1  0
  3  4  1  0
  3  2  1  0
  5  4  1  0
  5 24  1  0
  5  6  1  0
  7  1  1  0
  7  6  1  0
  8  1  2  0
  9 15  1  0
  9 13  1  0
 10 12  2  0
 10 14  1  0
 11 13  2  0
 11 17  1  0
 12  9  2  0
 14 11  1  0
 15 18  1  0
 16 51  1  0
 16 10  1  0
 17 53  1  0
 17 20  1  0
 19 16  1  0
 21 22  2  0
 22 41  1  0
 23 22  1  0
 23 26  1  0
 24 21  1  0
 24 25  1  0
 25 23  2  0
 26 27  1  0
 27 28  2  0
 29 32  1  0
 29 28  1  0
 30 29  2  0
 31 30  1  0
 31 26  2  0
 32 33  1  0
 33 34  1  0
 34 35  2  0
 36 35  1  0
 36 40  1  0
 37 36  2  0
 38 33  2  0
 38 37  1  0
 39 38  1  0
 41 42  1  0
 42 45  1  0
 42 44  1  0
 43 41  2  0
 46 47  1  0
 46 21  1  0
 48 46  1  0
 49 51  1  0
 50 51  1  0
 53 52  1  0
 54 57  1  0
 54 53  1  0
 55 54  1  0
 56 55  1  0
 58 57  1  0
 59 70  2  0
 60 58  1  0
 60 65  1  0
 61 69  1  0
 61 71  1  0
 62 64  1  0
 63 69  1  0
 64 65  2  0
 64 63  1  0
 66 60  2  0
 67 66  1  0
 67 62  2  0
 68 62  1  0
 68 61  1  0
 69 59  1  0
 71 73  2  0
 72 71  1  0
 74 72  1  0
 75 84  2  0
 75 80  1  0
 76 72  1  0
 76 80  1  0
 77 76  1  0
 78 79  1  0
 78 77  1  0
 79 75  1  0
 80 81  2  0
 81 82  1  0
 83 82  2  0
 84 83  1  0
 85 59  1  0
 85 90  1  0
 85 86  1  0
 86 89  1  1
 86 87  1  0
 88 86  1  0
 90 93  1  0
 91 95  1  0
 91 90  1  0
 92 91  2  0
 95 94  1  0
 95 97  1  0
 97 98  1  0
 97 96  1  0
M  ISO  4   1 100  15 100  57 101  58 101
M  END
>  <TORSDO>  (11) 
F 20

>  <SCORE>  (11) 
-12.347

>  <name>  (11) 
10

>  <ligand_id>  (11) 
10

>  <original_smiles>  (11) 
[H]OC([H])(C([H])([H])Oc1c([H])c([H])c2c(c1[H])C([H])([H])N(C(=O)C([H])(N([H])C(=O)C([H])(N([H])C([H])([H])[H])C([H])([H])[H])C(C([H])([H])[H])(C([H])([H])[H])C([H])([H])[H])C([H])(C(=O)N([H])C1([H])c3c([H])c([H])c([H])c([H])c3C([H])([H])C([H])([H])C1([H])[H])C2([H])[H])C([H])(N([H])c1nc(N([H])C(=O)N2C([H])([H])C([H])([H])C([H])([H])C([H])(n3nc(-c4c([H])c([H])c(Oc5c([H])c([H])c(F)c([H])c5F)c([H])c4[H])c(C(=O)N([H])[H])c3N([H])[H])C2([H])[H])nc(N([H])C([H])(C([H])([H])[H])C([H])([H])[H])n1)C([H])([H])[H]

>  <smiles>  (11) 
[H]OC([H])(C([H])([H])Oc1c([H])c([H])c2c(c1[H])C([H])([H])N(C(=O)C([H])(N([H])C(=O)C([H])(N([H])C([H])([H])[H])C([H])([H])[H])C(C([H])([H])[H])(C([H])([H])[H])C([H])([H])[H])C([H])(C(=O)N([H])C1([H])c3c([H])c([H])c([H])c([H])c3C([H])([H])C([H])([H])C1([H])[H])C2([H])[H])C([H])(N([H])c1nc(N([H])C(=O)N2C([H])([H])C([H])([H])C([H])([H])C([H])(n3nc(-c4c([H])c([H])c(Oc5c([H])c([H])c(F)c([H])c5F)c([H])c4[H])c(C(=O)N([H])[H])c3N([H])[H])C2([H])[H])nc(N([H])C([H])(C([H])([H])[H])C([H])([H])[H])n1)C([H])([H])[H]

$$$$
11:0:0
     RDKit          3D

 99107  0  0  1  0  0  0  0  0999 V2000
  -29.0590  -21.5900   21.1250 N   0  0  0  0  0  4  0  0  0  0  0  0
  -28.8020  -20.9150   21.8270 H   0  0  0  0  0  0  0  0  0  0  0  0
  -28.2580  -21.6650   20.5200 H   0  0  0  0  0  0  0  0  0  0  0  0
  -30.1570  -20.9460   20.3560 C   0  0  0  0  0  2  0  0  0  0  0  0
  -29.0110  -17.4350   20.8850 C   0  0  0  0  0  3  0  0  0  0  0  0
  -30.1140  -19.4060   20.3580 C   0  0  0  0  0  0  0  0  0  0  0  0
  -30.0920  -16.6460   20.4040 C   0  0  0  0  0  0  0  0  0  0  0  0
  -31.2010  -18.6290   19.8710 C   0  0  0  0  0  0  0  0  0  0  0  0
  -29.0130  -18.7970   20.8730 N   0  0  0  0  0  0  0  0  0  0  0  0
  -31.1860  -17.2750   19.8970 N   0  0  0  0  0  0  0  0  0  0  0  0
  -32.3580  -19.1890   19.3380 N   0  0  0  0  0  0  0  0  0  0  0  0
  -32.5390  -20.1850   19.3160 H   0  0  0  0  0  0  0  0  0  0  0  0
  -33.1360  -18.6050   19.0550 H   0  0  0  0  0  0  0  0  0  0  0  0
  -30.6350  -14.2400   19.8720 C   0  0  0  0  0  0  0  0  0  0  0  0
  -30.2610  -12.0920   18.7180 C   0  0  0  0  0  2  0  0  0  0  0  0
  -29.2040  -12.3160   17.6150 C   0  0  0  0  0  2  0  0  0  0  0  0
  -27.7770  -12.1650   18.1810 C   0  0  0  0  0  2  0  0  0  0  0  0
  -27.5620  -12.9720   19.4900 C   0  0  0  0  0  3  0  0  0  0  0  0
  -28.7170  -12.7190   20.4850 C   0  0  0  0  0  2  0  0  0  0  0  0
  -29.9820  -13.0470   19.8010 N   0  0  0  0  0  0  0  0  0  0  0  0
  -31.7200  -14.4280   19.3110 O   0  0  0  0  0  0  0  0  0  0  0  0
  -29.9370  -15.2240   20.4810 N   0  0  0  0  0  0  0  0  0  0  0  0
  -29.0900  -14.9080   20.9270 H   0  0  0  0  0  0  0  0  0  0  0  0
  -25.2540  -13.5690   20.4600 C   0  0  0  0  0  0  0  0  0  0  0  0
  -24.2200  -12.7920   20.9080 C   0  0  0  0  0  0  0  0  0  0  0  0
  -24.6600  -11.4390   20.7770 C   0  0  0  0  0  0  0  0  0  0  0  0
  -26.2600  -12.6900   20.0900 N   0  0  0  0  0  0  0  0  0  0  0  0
  -25.9100  -11.4020   20.3340 N   0  0  0  0  0  0  0  0  0  0  0  0
  -23.9410  -10.1760   20.9900 C   0  0  0  0  0  0  0  0  0  0  0  0
  -24.3940   -9.2190   21.9240 C   0  0  0  0  0  3  0  0  0  0  0  0
  -23.6770   -8.0210   22.1240 C   0  0  0  0  0  3  0  0  0  0  0  0
  -22.4940   -7.7700   21.3890 C   0  0  0  0  0  0  0  0  0  0  0  0
  -22.0610   -8.7160   20.4440 C   0  0  0  0  0  3  0  0  0  0  0  0
  -22.7790   -9.9060   20.2420 C   0  0  0  0  0  3  0  0  0  0  0  0
  -21.7460   -6.6240   21.4990 O   0  0  0  0  0  0  0  0  0  0  0  0
  -21.6540   -5.9330   22.6810 C   0  0  0  0  0  0  0  0  0  0  0  0
  -21.1050   -6.5180   23.8440 C   0  0  0  0  0  3  0  0  0  0  0  0
  -20.9660   -5.7510   25.0180 C   0  0  0  0  0  3  0  0  0  0  0  0
  -21.3660   -4.4010   25.0290 C   0  0  0  0  0  0  0  0  0  0  0  0
  -21.9050   -3.8160   23.8700 C   0  0  0  0  0  3  0  0  0  0  0  0
  -22.0460   -4.5810   22.6990 C   0  0  0  0  0  0  0  0  0  0  0  0
  -22.5480   -4.0050   21.5780 F   0  0  0  0  0  0  0  0  0  0  0  0
  -21.2240   -3.6610   26.1540 F   0  0  0  0  0  0  0  0  0  0  0  0
  -22.8640  -13.2680   21.3440 C   0  0  0  0  0  0  0  0  0  0  0  0
  -22.2210  -12.5440   22.2530 N   0  0  0  0  0  0  0  0  0  0  0  0
  -22.3870  -14.3170   20.9120 O   0  0  0  0  0  0  0  0  0  0  0  0
  -22.6220  -11.6930   22.6200 H   0  0  0  0  0  0  0  0  0  0  0  0
  -21.3130  -12.8390   22.5810 H   0  0  0  0  0  0  0  0  0  0  0  0
  -25.4150  -14.9440   20.3170 N   0  0  0  0  0  0  0  0  0  0  0  0
  -24.6510  -15.5880   20.4910 H   0  0  0  0  0  0  0  0  0  0  0  0
  -26.1980  -15.3810   19.8470 H   0  0  0  0  0  0  0  0  0  0  0  0
  -29.3160  -22.9060   21.8010 C   0  0  0  0  0  3  0  0  0  0  0  0
  -29.3610  -24.1230   20.8190 C   0  0  0  0  0  2  0  0  0  0  0  0
  -28.9020  -25.4630   21.4670 C   0  0  0  0  0  2  0  0  0  0  0  0
  -28.9710  -26.5830   20.5740 O   0  0  0  0  0  0  0  0  0  0  0  0
  -24.6110  -31.6300   23.1160 C   0  0  0  0  0  0  0  0  0  0  0  0
  -27.7930  -27.2800   20.4530 C   0  0  0  0  0  0  0  0  0  0  0  0
  -23.6600  -30.1310   21.3910 C   0  0  0  0  0  3  0  0  0  0  0  0
  -25.3390  -28.6460   20.1710 C   0  0  0  0  0  0  0  0  0  0  0  0
  -26.1710  -30.6300   21.4450 C   0  0  0  0  0  2  0  0  0  0  0  0
  -26.3980  -29.2490   20.8640 C   0  0  0  0  0  0  0  0  0  0  0  0
  -27.6310  -28.5710   21.0070 C   0  0  0  0  0  3  0  0  0  0  0  0
  -26.7230  -26.6910   19.7510 C   0  0  0  0  0  3  0  0  0  0  0  0
  -25.4960  -27.3650   19.6130 C   0  0  0  0  0  3  0  0  0  0  0  0
  -24.0510  -29.4340   20.0610 C   0  0  0  0  0  2  0  0  0  0  0  0
  -24.8260  -30.8130   22.0460 N   0  0  0  0  0  0  0  0  0  0  0  0
  -23.4650  -31.8550   23.5290 O   0  0  0  0  0  0  0  0  0  0  0  0
  -22.9640  -29.0990   22.3050 C   0  0  0  0  0  0  0  0  0  0  0  0
  -21.6460  -28.9200   22.1100 N   0  0  0  0  0  0  0  0  0  0  0  0
  -23.6080  -28.4590   23.1400 O   0  0  0  0  0  0  0  0  0  0  0  0
  -21.1890  -29.4950   21.4160 H   0  0  0  0  0  0  0  0  0  0  0  0
  -18.2280  -27.8210   22.5190 C   0  0  0  0  0  0  0  0  0  0  0  0
  -20.7910  -27.9700   22.8210 C   0  0  0  0  0  3  0  0  0  0  0  0
  -20.8480  -26.5700   22.1670 C   0  0  0  0  0  2  0  0  0  0  0  0
  -19.7440  -26.3420   21.1320 C   0  0  0  0  0  2  0  0  0  0  0  0
  -18.3610  -26.5040   21.7730 C   0  0  0  0  0  2  0  0  0  0  0  0
  -19.3700  -28.5170   22.9960 C   0  0  0  0  0  0  0  0  0  0  0  0
  -19.1920  -29.7560   23.6510 C   0  0  0  0  0  3  0  0  0  0  0  0
  -17.9050  -30.2950   23.8340 C   0  0  0  0  0  3  0  0  0  0  0  0
  -16.7760  -29.5950   23.3720 C   0  0  0  0  0  3  0  0  0  0  0  0
  -16.9390  -28.3580   22.7210 C   0  0  0  0  0  3  0  0  0  0  0  0
  -25.7870  -32.3430   23.8530 C   0  0  0  0  0  3  0  0  0  0  0  0
  -25.3730  -33.7270   24.1150 N   0  0  0  0  0  0  0  0  0  0  0  0
  -25.7040  -34.7770   23.3510 C   0  0  0  0  0  0  0  0  0  0  0  0
  -26.4570  -34.6850   22.3780 O   0  0  0  0  0  0  0  0  0  0  0  0
  -24.7120  -33.8690   24.8670 H   0  0  0  0  0  0  0  0  0  0  0  0
  -23.8940  -36.4370   22.8210 C   0  0  0  0  0  1  0  0  0  0  0  0
  -25.1020  -36.1440   23.7260 C   0  0  0  0  0  3  0  0  0  0  0  0
  -27.1140  -37.1940   24.6630 C   0  0  0  0  0  1  0  0  0  0  0  0
  -26.0720  -37.2570   23.6400 N   0  0  0  0  0  0  0  0  0  0  0  0
  -25.6000  -38.1540   23.7230 H   0  0  0  0  0  0  0  0  0  0  0  0
  -26.2100  -31.6200   25.1910 C   0  0  1  0  0  0  0  0  0  0  0  0
  -25.0230  -31.3220   26.1370 C   0  0  0  0  0  1  0  0  0  0  0  0
  -26.9200  -30.2840   24.8780 C   0  0  0  0  0  1  0  0  0  0  0  0
  -27.2280  -32.4940   25.9610 C   0  0  0  0  0  1  0  0  0  0  0  0
  -30.5510  -22.8880   22.7500 C   0  0  0  0  0  2  0  0  0  0  0  0
  -29.9240  -21.6420   24.8980 C   0  0  0  0  0  1  0  0  0  0  0  0
  -32.2460  -21.4500   23.9540 C   0  0  0  0  0  1  0  0  0  0  0  0
  -30.7580  -21.6170   23.6090 C   0  0  0  0  0  3  0  0  0  0  0  0
  1 52  1  0
  1  2  1  0
  3  1  1  0
  4  6  1  0
  4  1  1  0
  6  9  2  0
  7 22  1  0
  7  5  2  0
  8 10  2  0
  8  6  1  0
  9  5  1  0
 10  7  1  0
 11  8  1  0
 12 11  1  0
 13 11  1  0
 14 22  1  0
 15 20  1  0
 16 17  1  0
 16 15  1  0
 18 17  1  0
 18 27  1  0
 18 19  1  0
 20 14  1  0
 20 19  1  0
 21 14  2  0
 22 23  1  0
 24 25  2  0
 25 44  1  0
 26 25  1  0
 26 29  1  0
 27 28  1  0
 27 24  1  0
 28 26  2  0
 29 30  1  0
 30 31  2  0
 32 35  1  0
 32 31  1  0
 33 32  2  0
 34 33  1  0
 34 29  2  0
 35 36  1  0
 36 41  2  0
 36 37  1  0
 37 38  2  0
 38 39  1  0
 39 43  1  0
 40 39  2  0
 41 40  1  0
 42 41  1  0
 44 45  1  0
 45 48  1  0
 45 47  1  0
 46 44  2  0
 49 24  1  0
 49 50  1  0
 51 49  1  0
 52 53  1  0
 52 96  1  0
 53 54  1  0
 55 54  1  0
 56 67  2  0
 57 55  1  0
 57 62  1  0
 58 66  1  0
 58 68  1  0
 59 61  1  0
 60 66  1  0
 61 62  2  0
 61 60  1  0
 63 57  2  0
 64 63  1  0
 64 59  2  0
 65 59  1  0
 65 58  1  0
 66 56  1  0
 68 70  2  0
 69 68  1  0
 71 69  1  0
 72 81  2  0
 72 77  1  0
 73 69  1  0
 73 77  1  0
 74 73  1  0
 75 76  1  0
 75 74  1  0
 76 72  1  0
 77 78  2  0
 78 79  1  0
 80 79  2  0
 81 80  1  0
 82 56  1  0
 82 83  1  0
 82 92  1  0
 83 86  1  0
 84 88  1  0
 84 83  1  0
 85 84  2  0
 88 87  1  0
 90 91  1  0
 90 88  1  0
 90 89  1  0
 92 95  1  1
 92 93  1  0
 94 92  1  0
 96 99  1  0
 99 98  1  0
 99 97  1  0
M  ISO  4  14 100  22 100  54 101  55 101
M  END
>  <TORSDO>  (12) 
F 23

>  <SCORE>  (12) 
-12.094

>  <name>  (12) 
11

>  <ligand_id>  (12) 
11

>  <original_smiles>  (12) 
[H]c1nc(C([H])([H])[N+]([H])([H])C([H])(C([H])([H])C([H])([H])Oc2c([H])c([H])c3c(c2[H])C([H])([H])N(C(=O)C([H])(N([H])C(=O)C([H])(N([H])C([H])([H])[H])C([H])([H])[H])C(C([H])([H])[H])(C([H])([H])[H])C([H])([H])[H])C([H])(C(=O)N([H])C2([H])c4c([H])c([H])c([H])c([H])c4C([H])([H])C([H])([H])C2([H])[H])C3([H])[H])C([H])([H])C([H])(C([H])([H])[H])C([H])([H])[H])c(N([H])[H])nc1N([H])C(=O)N1C([H])([H])C([H])([H])C([H])([H])C([H])(n2nc(-c3c([H])c([H])c(Oc4c([H])c([H])c(F)c([H])c4F)c([H])c3[H])c(C(=O)N([H])[H])c2N([H])[H])C1([H])[H]

>  <smiles>  (12) 
[H]c1nc(C([H])([H])[N+]([H])([H])C([H])(C([H])([H])C([H])([H])Oc2c([H])c([H])c3c(c2[H])C([H])([H])N(C(=O)C([H])(N([H])C(=O)C([H])(N([H])C([H])([H])[H])C([H])([H])[H])C(C([H])([H])[H])(C([H])([H])[H])C([H])([H])[H])C([H])(C(=O)N([H])C2([H])c4c([H])c([H])c([H])c([H])c4C([H])([H])C([H])([H])C2([H])[H])C3([H])[H])C([H])([H])C([H])(C([H])([H])[H])C([H])([H])[H])c(N([H])[H])nc1N([H])C(=O)N1C([H])([H])C([H])([H])C([H])([H])C([H])(n2nc(-c3c([H])c([H])c(Oc4c([H])c([H])c(F)c([H])c4F)c([H])c3[H])c(C(=O)N([H])[H])c2N([H])[H])C1([H])[H]

$$$$
12:0:0
     RDKit          3D

 91 99  0  0  1  0  0  0  0  0999 V2000
  -30.5970  -14.7940   20.4590 C   0  0  0  0  0  0  0  0  0  0  0  0
  -30.3850  -12.5020   19.4850 C   0  0  0  0  0  2  0  0  0  0  0  0
  -29.4820  -12.6000   18.2370 C   0  0  0  0  0  2  0  0  0  0  0  0
  -28.0020  -12.4330   18.6330 C   0  0  0  0  0  2  0  0  0  0  0  0
  -27.6120  -13.3180   19.8460 C   0  0  0  0  0  3  0  0  0  0  0  0
  -28.6470  -13.2350   20.9910 C   0  0  0  0  0  2  0  0  0  0  0  0
  -29.9610  -13.5680   20.4280 N   0  0  0  0  0  0  0  0  0  0  0  0
  -31.7830  -14.8550   20.1090 O   0  0  0  0  0  0  0  0  0  0  0  0
  -29.4160  -19.5240   18.6650 C   0  0  0  0  0  3  0  0  0  0  0  0
  -29.6540  -18.2810   18.0700 C   0  0  0  0  0  3  0  0  0  0  0  0
  -29.4070  -19.5990   20.0590 C   0  0  0  0  0  0  0  0  0  0  0  0
  -29.8170  -17.2220   20.1090 C   0  0  0  0  0  0  0  0  0  0  0  0
  -29.8520  -17.1580   18.7830 N   0  0  0  0  0  0  0  0  0  0  0  0
  -29.5860  -18.4140   20.7680 N   0  0  0  0  0  0  0  0  0  0  0  0
  -29.2360  -20.8880   20.7010 N   0  0  0  0  0  0  0  0  0  0  0  0
  -29.8750  -15.9460   20.7660 N   0  0  0  0  0  0  0  0  0  0  0  0
  -29.2200  -20.8830   21.7150 H   0  0  0  0  0  0  0  0  0  0  0  0
  -29.0740  -15.7760   21.3510 H   0  0  0  0  0  0  0  0  0  0  0  0
  -25.2100  -13.9120   20.5130 C   0  0  0  0  0  0  0  0  0  0  0  0
  -24.1360  -13.1430   20.8720 C   0  0  0  0  0  0  0  0  0  0  0  0
  -24.5990  -11.7920   20.8660 C   0  0  0  0  0  0  0  0  0  0  0  0
  -26.2570  -13.0320   20.3100 N   0  0  0  0  0  0  0  0  0  0  0  0
  -25.8970  -11.7510   20.5840 N   0  0  0  0  0  0  0  0  0  0  0  0
  -23.8660  -10.5330   21.0560 C   0  0  0  0  0  0  0  0  0  0  0  0
  -24.2890   -9.5640   21.9920 C   0  0  0  0  0  3  0  0  0  0  0  0
  -23.5560   -8.3720   22.1700 C   0  0  0  0  0  3  0  0  0  0  0  0
  -22.3850   -8.1390   21.4110 C   0  0  0  0  0  0  0  0  0  0  0  0
  -21.9800   -9.0960   20.4640 C   0  0  0  0  0  3  0  0  0  0  0  0
  -22.7140  -10.2800   20.2840 C   0  0  0  0  0  3  0  0  0  0  0  0
  -21.6230   -6.9990   21.4990 O   0  0  0  0  0  0  0  0  0  0  0  0
  -21.5770   -6.2490   22.6480 C   0  0  0  0  0  0  0  0  0  0  0  0
  -21.1720   -6.8030   23.8810 C   0  0  0  0  0  3  0  0  0  0  0  0
  -21.0710   -5.9810   25.0220 C   0  0  0  0  0  3  0  0  0  0  0  0
  -21.3670   -4.6080   24.9300 C   0  0  0  0  0  0  0  0  0  0  0  0
  -21.7640   -4.0540   23.6990 C   0  0  0  0  0  3  0  0  0  0  0  0
  -21.8660   -4.8720   22.5610 C   0  0  0  0  0  0  0  0  0  0  0  0
  -22.2300   -4.3290   21.3740 F   0  0  0  0  0  0  0  0  0  0  0  0
  -21.2620   -3.8160   26.0230 F   0  0  0  0  0  0  0  0  0  0  0  0
  -22.7350  -13.6260   21.1070 C   0  0  0  0  0  0  0  0  0  0  0  0
  -21.9900  -12.9480   21.9730 N   0  0  0  0  0  0  0  0  0  0  0  0
  -22.3080  -14.6440   20.5620 O   0  0  0  0  0  0  0  0  0  0  0  0
  -22.3490  -12.1270   22.4380 H   0  0  0  0  0  0  0  0  0  0  0  0
  -21.0480  -13.2540   22.1750 H   0  0  0  0  0  0  0  0  0  0  0  0
  -25.3780  -15.2810   20.3200 N   0  0  0  0  0  0  0  0  0  0  0  0
  -24.6010  -15.9300   20.3860 H   0  0  0  0  0  0  0  0  0  0  0  0
  -26.2200  -15.7100   19.9630 H   0  0  0  0  0  0  0  0  0  0  0  0
  -28.6920  -22.1560   20.0400 C   0  0  0  0  0  2  0  0  0  0  0  0
  -28.9070  -23.6360   20.6940 C   0  0  0  0  0  3  0  0  0  0  0  0
  -28.6610  -23.5170   22.0020 F   0  0  0  0  0  0  0  0  0  0  0  0
  -28.0220  -24.8910   20.1400 C   0  0  0  0  0  2  0  0  0  0  0  0
  -28.2940  -26.3620   20.3940 O   0  0  0  0  0  0  0  0  0  0  0  0
  -24.6320  -31.9310   23.2890 C   0  0  0  0  0  0  0  0  0  0  0  0
  -27.2220  -27.2880   20.2860 C   0  0  0  0  0  0  0  0  0  0  0  0
  -23.4330  -30.5300   21.6510 C   0  0  0  0  0  3  0  0  0  0  0  0
  -24.8820  -28.9640   20.2370 C   0  0  0  0  0  0  0  0  0  0  0  0
  -25.9790  -30.8200   21.4830 C   0  0  0  0  0  2  0  0  0  0  0  0
  -26.0540  -29.4330   20.8460 C   0  0  0  0  0  0  0  0  0  0  0  0
  -27.2260  -28.6080   20.8610 C   0  0  0  0  0  3  0  0  0  0  0  0
  -26.0330  -26.9060   19.6230 C   0  0  0  0  0  3  0  0  0  0  0  0
  -24.8780  -27.7090   19.6140 C   0  0  0  0  0  3  0  0  0  0  0  0
  -23.6510  -29.8490   20.2760 C   0  0  0  0  0  2  0  0  0  0  0  0
  -24.7010  -31.1130   22.1970 N   0  0  0  0  0  0  0  0  0  0  0  0
  -23.5450  -32.2160   23.8130 O   0  0  0  0  0  0  0  0  0  0  0  0
  -22.7580  -29.5210   22.6120 C   0  0  0  0  0  0  0  0  0  0  0  0
  -21.4330  -29.3490   22.4790 N   0  0  0  0  0  0  0  0  0  0  0  0
  -23.4290  -28.8940   23.4380 O   0  0  0  0  0  0  0  0  0  0  0  0
  -20.9510  -29.9070   21.7860 H   0  0  0  0  0  0  0  0  0  0  0  0
  -18.0470  -28.1650   22.9670 C   0  0  0  0  0  0  0  0  0  0  0  0
  -20.6050  -28.4200   23.2500 C   0  0  0  0  0  3  0  0  0  0  0  0
  -20.7050  -26.9850   22.6830 C   0  0  0  0  0  2  0  0  0  0  0  0
  -19.6080  -26.6590   21.6640 C   0  0  0  0  0  2  0  0  0  0  0  0
  -18.2230  -26.8120   22.2990 C   0  0  0  0  0  2  0  0  0  0  0  0
  -19.1660  -28.9280   23.3990 C   0  0  0  0  0  0  0  0  0  0  0  0
  -18.9480  -30.1930   23.9850 C   0  0  0  0  0  3  0  0  0  0  0  0
  -17.6440  -30.6990   24.1430 C   0  0  0  0  0  3  0  0  0  0  0  0
  -16.5390  -29.9360   23.7240 C   0  0  0  0  0  3  0  0  0  0  0  0
  -16.7420  -28.6710   23.1450 C   0  0  0  0  0  3  0  0  0  0  0  0
  -25.9110  -32.5640   23.9170 C   0  0  0  0  0  3  0  0  0  0  0  0
  -25.6010  -33.9660   24.2380 N   0  0  0  0  0  0  0  0  0  0  0  0
  -25.9280  -35.0130   23.4700 C   0  0  0  0  0  0  0  0  0  0  0  0
  -26.5880  -34.9010   22.4340 O   0  0  0  0  0  0  0  0  0  0  0  0
  -25.0150  -34.1260   25.0440 H   0  0  0  0  0  0  0  0  0  0  0  0
  -24.1850  -36.7980   23.1290 C   0  0  0  0  0  1  0  0  0  0  0  0
  -25.4440  -36.4060   23.9200 C   0  0  0  0  0  3  0  0  0  0  0  0
  -27.5930  -37.3070   24.6960 C   0  0  0  0  0  1  0  0  0  0  0  0
  -26.4710  -37.4610   23.7740 N   0  0  0  0  0  0  0  0  0  0  0  0
  -26.0650  -38.3820   23.9170 H   0  0  0  0  0  0  0  0  0  0  0  0
  -26.4120  -31.7990   25.2030 C   0  0  1  0  0  0  0  0  0  0  0  0
  -25.3080  -31.5750   26.2640 C   0  0  0  0  0  1  0  0  0  0  0  0
  -26.9910  -30.4150   24.8240 C   0  0  0  0  0  1  0  0  0  0  0  0
  -27.5620  -32.5910   25.8660 C   0  0  0  0  0  1  0  0  0  0  0  0
  1 16  1  0
  2  7  1  0
  3  4  1  0
  3  2  1  0
  5  4  1  0
  5 22  1  0
  5  6  1  0
  7  1  1  0
  7  6  1  0
  8  1  2  0
  9 11  1  0
 10  9  2  0
 10 13  1  0
 11 15  1  0
 11 14  2  0
 12 16  1  0
 12 14  1  0
 13 12  2  0
 15 17  1  0
 16 18  1  0
 19 20  2  0
 20 39  1  0
 21 20  1  0
 21 24  1  0
 22 19  1  0
 22 23  1  0
 23 21  2  0
 24 25  1  0
 25 26  2  0
 27 30  1  0
 27 26  1  0
 28 27  2  0
 29 28  1  0
 29 24  2  0
 30 31  1  0
 31 32  1  0
 32 33  2  0
 34 33  1  0
 34 38  1  0
 35 34  2  0
 36 31  2  0
 36 35  1  0
 37 36  1  0
 39 40  1  0
 40 43  1  0
 40 42  1  0
 41 39  2  0
 44 45  1  0
 44 19  1  0
 46 44  1  0
 47 48  1  0
 47 15  1  0
 48 49  1  0
 50 51  1  0
 50 48  1  0
 52 63  2  0
 53 51  1  0
 53 58  1  0
 54 62  1  0
 54 64  1  0
 55 61  1  0
 55 57  1  0
 56 62  1  0
 57 58  2  0
 57 56  1  0
 59 53  2  0
 60 59  1  0
 60 55  2  0
 61 54  1  0
 62 52  1  0
 64 66  2  0
 65 64  1  0
 67 65  1  0
 68 77  2  0
 68 73  1  0
 69 65  1  0
 69 73  1  0
 70 69  1  0
 71 72  1  0
 71 70  1  0
 72 68  1  0
 73 74  2  0
 74 75  1  0
 76 75  2  0
 77 76  1  0
 78 52  1  0
 78 79  1  0
 78 88  1  0
 79 82  1  0
 80 84  1  0
 80 79  1  0
 81 80  2  0
 84 83  1  0
 86 87  1  0
 86 84  1  0
 86 85  1  0
 88 91  1  1
 88 89  1  0
 90 88  1  0
M  ISO  4   1 100  16 100  50 101  51 101
M  END
>  <TORSDO>  (13) 
F 18

>  <SCORE>  (13) 
-14.640

>  <name>  (13) 
12

>  <ligand_id>  (13) 
12

>  <original_smiles>  (13) 
[H]c1nc(N([H])C(=O)N2C([H])([H])C([H])([H])C([H])([H])C([H])(n3nc(-c4c([H])c([H])c(Oc5c([H])c([H])c(F)c([H])c5F)c([H])c4[H])c(C(=O)N([H])[H])c3N([H])[H])C2([H])[H])nc(N([H])C([H])([H])C([H])(F)C([H])([H])Oc2c([H])c([H])c3c(c2[H])C([H])([H])N(C(=O)C([H])(N([H])C(=O)C([H])(N([H])C([H])([H])[H])C([H])([H])[H])C(C([H])([H])[H])(C([H])([H])[H])C([H])([H])[H])C([H])(C(=O)N([H])C2([H])c4c([H])c([H])c([H])c([H])c4C([H])([H])C([H])([H])C2([H])[H])C3([H])[H])c1[H]

>  <smiles>  (13) 
[H]c1nc(N([H])C(=O)N2C([H])([H])C([H])([H])C([H])([H])C([H])(n3nc(-c4c([H])c([H])c(Oc5c([H])c([H])c(F)c([H])c5F)c([H])c4[H])c(C(=O)N([H])[H])c3N([H])[H])C2([H])[H])nc(N([H])C([H])([H])C([H])(F)C([H])([H])Oc2c([H])c([H])c3c(c2[H])C([H])([H])N(C(=O)C([H])(N([H])C(=O)C([H])(N([H])C([H])([H])[H])C([H])([H])[H])C(C([H])([H])[H])(C([H])([H])[H])C([H])([H])[H])C([H])(C(=O)N([H])C2([H])c4c([H])c([H])c([H])c([H])c4C([H])([H])C([H])([H])C2([H])[H])C3([H])[H])c1[H]

$$$$
13:0:0
     RDKit          3D

 93101  0  0  1  0  0  0  0  0999 V2000
  -29.3800  -20.2980   19.9600 C   0  0  0  0  0  2  0  0  0  0  0  0
  -30.6970  -14.4970   20.4790 C   0  0  0  0  0  0  0  0  0  0  0  0
  -30.3540  -12.3220   19.3790 C   0  0  0  0  0  2  0  0  0  0  0  0
  -29.4360  -12.5320   18.1590 C   0  0  0  0  0  2  0  0  0  0  0  0
  -27.9580  -12.4070   18.5730 C   0  0  0  0  0  2  0  0  0  0  0  0
  -27.6120  -13.2530   19.8290 C   0  0  0  0  0  3  0  0  0  0  0  0
  -28.6600  -13.0620   20.9510 C   0  0  0  0  0  2  0  0  0  0  0  0
  -29.9880  -13.3350   20.3830 N   0  0  0  0  0  0  0  0  0  0  0  0
  -31.8510  -14.5800   20.0590 O   0  0  0  0  0  0  0  0  0  0  0  0
  -31.6790  -17.4570   20.3890 C   0  0  0  0  0  3  0  0  0  0  0  0
  -30.3660  -16.9640   20.6580 C   0  0  0  0  0  0  0  0  0  0  0  0
  -31.4930  -18.7770   20.1010 C   0  0  0  0  0  0  0  0  0  0  0  0
  -29.4640  -17.9440   20.6280 N   0  0  0  0  0  0  0  0  0  0  0  0
  -30.1470  -19.0750   20.2750 N   0  0  0  0  0  0  0  0  0  0  0  0
  -30.0160  -15.5910   20.8940 N   0  0  0  0  0  0  0  0  0  0  0  0
  -29.0710  -15.4200   21.1960 H   0  0  0  0  0  0  0  0  0  0  0  0
  -25.2080  -13.8580   20.5180 C   0  0  0  0  0  0  0  0  0  0  0  0
  -24.1350  -13.0870   20.8800 C   0  0  0  0  0  0  0  0  0  0  0  0
  -24.5950  -11.7350   20.8550 C   0  0  0  0  0  0  0  0  0  0  0  0
  -26.2550  -12.9760   20.2990 N   0  0  0  0  0  0  0  0  0  0  0  0
  -25.8880  -11.6950   20.5600 N   0  0  0  0  0  0  0  0  0  0  0  0
  -23.8640  -10.4740   21.0400 C   0  0  0  0  0  0  0  0  0  0  0  0
  -24.2910   -9.5020   21.9720 C   0  0  0  0  0  3  0  0  0  0  0  0
  -23.5620   -8.3070   22.1450 C   0  0  0  0  0  3  0  0  0  0  0  0
  -22.3900   -8.0740   21.3870 C   0  0  0  0  0  0  0  0  0  0  0  0
  -21.9820   -9.0340   20.4450 C   0  0  0  0  0  3  0  0  0  0  0  0
  -22.7110  -10.2220   20.2690 C   0  0  0  0  0  3  0  0  0  0  0  0
  -21.6320   -6.9310   21.4680 O   0  0  0  0  0  0  0  0  0  0  0  0
  -21.5820   -6.1820   22.6170 C   0  0  0  0  0  0  0  0  0  0  0  0
  -21.1470   -6.7290   23.8440 C   0  0  0  0  0  3  0  0  0  0  0  0
  -21.0440   -5.9060   24.9840 C   0  0  0  0  0  3  0  0  0  0  0  0
  -21.3640   -4.5390   24.8980 C   0  0  0  0  0  0  0  0  0  0  0  0
  -21.7910   -3.9910   23.6740 C   0  0  0  0  0  3  0  0  0  0  0  0
  -21.8960   -4.8100   22.5370 C   0  0  0  0  0  0  0  0  0  0  0  0
  -22.2880   -4.2740   21.3560 F   0  0  0  0  0  0  0  0  0  0  0  0
  -21.2580   -3.7450   25.9890 F   0  0  0  0  0  0  0  0  0  0  0  0
  -22.7360  -13.5680   21.1380 C   0  0  0  0  0  0  0  0  0  0  0  0
  -21.9980  -12.8750   21.9960 N   0  0  0  0  0  0  0  0  0  0  0  0
  -22.3060  -14.5950   20.6130 O   0  0  0  0  0  0  0  0  0  0  0  0
  -22.3590  -12.0450   22.4430 H   0  0  0  0  0  0  0  0  0  0  0  0
  -21.0580  -13.1780   22.2100 H   0  0  0  0  0  0  0  0  0  0  0  0
  -25.3750  -15.2270   20.3400 N   0  0  0  0  0  0  0  0  0  0  0  0
  -24.6080  -15.8820   20.4460 H   0  0  0  0  0  0  0  0  0  0  0  0
  -26.2270  -15.6660   20.0170 H   0  0  0  0  0  0  0  0  0  0  0  0
  -32.4160  -19.7160   19.6710 N   0  0  0  0  0  0  0  0  0  0  0  0
  -33.3920  -19.5010   19.5030 H   0  0  0  0  0  0  0  0  0  0  0  0
  -32.1820  -20.6830   19.4800 H   0  0  0  0  0  0  0  0  0  0  0  0
  -30.3080  -21.6900   21.9290 C   0  0  0  0  0  1  0  0  0  0  0  0
  -29.9380  -21.6820   20.4370 C   0  0  0  0  0  3  0  0  0  0  0  0
  -28.9320  -22.8200   20.0890 C   0  0  0  0  0  2  0  0  0  0  0  0
  -29.3250  -24.2950   20.4110 C   0  0  0  0  0  2  0  0  0  0  0  0
  -28.2560  -25.2730   19.8600 C   0  0  0  0  0  2  0  0  0  0  0  0
  -28.3740  -26.6580   20.2560 O   0  0  0  0  0  0  0  0  0  0  0  0
  -24.5600  -31.9030   23.2620 C   0  0  0  0  0  0  0  0  0  0  0  0
  -27.2160  -27.4250   20.2010 C   0  0  0  0  0  0  0  0  0  0  0  0
  -23.3690  -30.5110   21.6050 C   0  0  0  0  0  3  0  0  0  0  0  0
  -24.8330  -28.9730   20.1910 C   0  0  0  0  0  0  0  0  0  0  0  0
  -25.9040  -30.8470   21.4460 C   0  0  0  0  0  2  0  0  0  0  0  0
  -25.9900  -29.4760   20.8010 C   0  0  0  0  0  0  0  0  0  0  0  0
  -27.1820  -28.7080   20.8070 C   0  0  0  0  0  3  0  0  0  0  0  0
  -26.0370  -26.9640   19.5620 C   0  0  0  0  0  3  0  0  0  0  0  0
  -24.8530  -27.7180   19.5690 C   0  0  0  0  0  3  0  0  0  0  0  0
  -23.5940  -29.8390   20.2270 C   0  0  0  0  0  2  0  0  0  0  0  0
  -24.6290  -31.1000   22.1640 N   0  0  0  0  0  0  0  0  0  0  0  0
  -23.4720  -32.1830   23.7860 O   0  0  0  0  0  0  0  0  0  0  0  0
  -22.6980  -29.4900   22.5530 C   0  0  0  0  0  0  0  0  0  0  0  0
  -21.3740  -29.3160   22.4090 N   0  0  0  0  0  0  0  0  0  0  0  0
  -23.3660  -28.8570   23.3750 O   0  0  0  0  0  0  0  0  0  0  0  0
  -20.8960  -29.8740   21.7160 H   0  0  0  0  0  0  0  0  0  0  0  0
  -17.9820  -28.1610   22.8790 C   0  0  0  0  0  0  0  0  0  0  0  0
  -20.5410  -28.3830   23.1680 C   0  0  0  0  0  3  0  0  0  0  0  0
  -20.6290  -26.9540   22.5820 C   0  0  0  0  0  2  0  0  0  0  0  0
  -19.5290  -26.6560   21.5580 C   0  0  0  0  0  2  0  0  0  0  0  0
  -18.1450  -26.8140   22.1950 C   0  0  0  0  0  2  0  0  0  0  0  0
  -19.1080  -28.9060   23.3200 C   0  0  0  0  0  0  0  0  0  0  0  0
  -18.9010  -30.1680   23.9170 C   0  0  0  0  0  3  0  0  0  0  0  0
  -17.6030  -30.6860   24.0790 C   0  0  0  0  0  3  0  0  0  0  0  0
  -16.4900  -29.9360   23.6550 C   0  0  0  0  0  3  0  0  0  0  0  0
  -16.6810  -28.6770   23.0610 C   0  0  0  0  0  3  0  0  0  0  0  0
  -25.8400  -32.5270   23.8990 C   0  0  0  0  0  3  0  0  0  0  0  0
  -25.5380  -33.9300   24.2130 N   0  0  0  0  0  0  0  0  0  0  0  0
  -25.8870  -34.9720   23.4470 C   0  0  0  0  0  0  0  0  0  0  0  0
  -26.5670  -34.8530   22.4230 O   0  0  0  0  0  0  0  0  0  0  0  0
  -24.9360  -34.0980   25.0060 H   0  0  0  0  0  0  0  0  0  0  0  0
  -24.1730  -36.7710   23.0560 C   0  0  0  0  0  1  0  0  0  0  0  0
  -25.4030  -36.3680   23.8850 C   0  0  0  0  0  3  0  0  0  0  0  0
  -27.5350  -37.2460   24.7300 C   0  0  0  0  0  1  0  0  0  0  0  0
  -26.4440  -37.4140   23.7730 N   0  0  0  0  0  0  0  0  0  0  0  0
  -26.0420  -38.3370   23.9100 H   0  0  0  0  0  0  0  0  0  0  0  0
  -26.3300  -31.7590   25.1880 C   0  0  1  0  0  0  0  0  0  0  0  0
  -25.2180  -31.5340   26.2380 C   0  0  0  0  0  1  0  0  0  0  0  0
  -26.9110  -30.3760   24.8100 C   0  0  0  0  0  1  0  0  0  0  0  0
  -27.4760  -32.5480   25.8640 C   0  0  0  0  0  1  0  0  0  0  0  0
  1 14  1  0
  1 49  1  0
  2 15  1  0
  3  8  1  0
  4  5  1  0
  4  3  1  0
  6  5  1  0
  6 20  1  0
  6  7  1  0
  8  2  1  0
  8  7  1  0
  9  2  2  0
 10 11  1  0
 11 15  1  0
 12 14  1  0
 12 10  2  0
 13 11  2  0
 14 13  1  0
 15 16  1  0
 17 18  2  0
 18 37  1  0
 19 18  1  0
 19 22  1  0
 20 17  1  0
 20 21  1  0
 21 19  2  0
 22 23  1  0
 23 24  2  0
 25 28  1  0
 25 24  1  0
 26 25  2  0
 27 26  1  0
 27 22  2  0
 28 29  1  0
 29 30  1  0
 30 31  2  0
 32 31  1  0
 32 36  1  0
 33 32  2  0
 34 29  2  0
 34 33  1  0
 35 34  1  0
 37 38  1  0
 38 41  1  0
 38 40  1  0
 39 37  2  0
 42 43  1  0
 42 17  1  0
 44 42  1  0
 45 12  1  0
 46 45  1  0
 47 45  1  0
 49 48  1  0
 50 51  1  0
 50 49  1  0
 52 53  1  0
 52 51  1  0
 54 65  2  0
 55 53  1  0
 55 60  1  0
 56 64  1  0
 56 66  1  0
 57 63  1  0
 57 59  1  0
 58 64  1  0
 59 60  2  0
 59 58  1  0
 61 62  1  0
 61 55  2  0
 62 57  2  0
 63 56  1  0
 64 54  1  0
 66 68  2  0
 67 66  1  0
 69 67  1  0
 70 79  2  0
 70 75  1  0
 71 67  1  0
 71 75  1  0
 72 71  1  0
 73 74  1  0
 73 72  1  0
 74 70  1  0
 75 76  2  0
 76 77  1  0
 78 77  2  0
 79 78  1  0
 80 54  1  0
 80 81  1  0
 80 90  1  0
 81 84  1  0
 82 86  1  0
 82 81  1  0
 83 82  2  0
 86 85  1  0
 88 86  1  0
 88 89  1  0
 88 87  1  0
 90 93  1  1
 90 91  1  0
 92 90  1  0
M  ISO  4   2 100  15 100  52 101  53 101
M  END
>  <TORSDO>  (14) 
F 21

>  <SCORE>  (14) 
-13.835

>  <name>  (14) 
13

>  <ligand_id>  (14) 
13

>  <original_smiles>  (14) 
[H]c1c([H])c([H])c2c(c1[H])C([H])([H])C([H])([H])C([H])([H])C2([H])N([H])C(=O)C1([H])N(C(=O)C([H])(N([H])C(=O)C([H])(N([H])C([H])([H])[H])C([H])([H])[H])C(C([H])([H])[H])(C([H])([H])[H])C([H])([H])[H])C([H])([H])c2c([H])c(OC([H])([H])C([H])([H])C([H])([H])C([H])(C([H])([H])[H])C([H])([H])n3nc(N([H])C(=O)N4C([H])([H])C([H])([H])C([H])([H])C([H])(n5nc(-c6c([H])c([H])c(Oc7c([H])c([H])c(F)c([H])c7F)c([H])c6[H])c(C(=O)N([H])[H])c5N([H])[H])C4([H])[H])c([H])c3N([H])[H])c([H])c([H])c2C1([H])[H]

>  <smiles>  (14) 
[H]c1c([H])c([H])c2c(c1[H])C([H])([H])C([H])([H])C([H])([H])C2([H])N([H])C(=O)C1([H])N(C(=O)C([H])(N([H])C(=O)C([H])(N([H])C([H])([H])[H])C([H])([H])[H])C(C([H])([H])[H])(C([H])([H])[H])C([H])([H])[H])C([H])([H])c2c([H])c(OC([H])([H])C([H])([H])C([H])([H])C([H])(C([H])([H])[H])C([H])([H])n3nc(N([H])C(=O)N4C([H])([H])C([H])([H])C([H])([H])C([H])(n5nc(-c6c([H])c([H])c(Oc7c([H])c([H])c(F)c([H])c7F)c([H])c6[H])c(C(=O)N([H])[H])c5N([H])[H])C4([H])[H])c([H])c3N([H])[H])c([H])c([H])c2C1([H])[H]

$$$$
14:0:0
     RDKit          3D

 93101  0  0  1  0  0  0  0  0999 V2000
  -28.9450  -23.7060   20.5480 C   0  0  0  0  0  3  0  0  0  0  0  0
  -30.3930  -23.9800   20.5160 N   0  0  0  0  0  4  0  0  0  0  0  0
  -30.7330  -24.0530   19.5720 H   0  0  0  0  0  0  0  0  0  0  0  0
  -30.8860  -23.2310   20.9710 H   0  0  0  0  0  0  0  0  0  0  0  0
  -30.6030  -24.8380   20.9960 H   0  0  0  0  0  0  0  0  0  0  0  0
  -28.6870  -22.2260   19.9320 C   0  0  0  0  0  2  0  0  0  0  0  0
  -30.6300  -17.6790   19.0590 C   0  0  0  0  0  3  0  0  0  0  0  0
  -30.0190  -17.3020   20.2340 C   0  0  0  0  0  0  0  0  0  0  0  0
  -29.6140  -19.6570   20.2280 C   0  0  0  0  0  0  0  0  0  0  0  0
  -29.4480  -18.4620   20.8830 N   0  0  0  0  0  0  0  0  0  0  0  0
  -29.1810  -20.9750   20.6350 N   0  0  0  0  0  0  0  0  0  0  0  0
  -30.4900  -19.4030   18.7200 S   0  0  0  0  0  0  0  0  0  0  0  0
  -28.8300  -20.9350   21.5870 H   0  0  0  0  0  0  0  0  0  0  0  0
  -30.6360  -14.7660   20.2920 C   0  0  0  0  0  0  0  0  0  0  0  0
  -30.4060  -12.4940   19.2880 C   0  0  0  0  0  2  0  0  0  0  0  0
  -29.4460  -12.5880   18.0800 C   0  0  0  0  0  2  0  0  0  0  0  0
  -27.9840  -12.4200   18.5360 C   0  0  0  0  0  2  0  0  0  0  0  0
  -27.6390  -13.2980   19.7690 C   0  0  0  0  0  3  0  0  0  0  0  0
  -28.7190  -13.1920   20.8690 C   0  0  0  0  0  2  0  0  0  0  0  0
  -30.0100  -13.5390   20.2620 N   0  0  0  0  0  0  0  0  0  0  0  0
  -31.7950  -14.8670   19.8770 O   0  0  0  0  0  0  0  0  0  0  0  0
  -29.8980  -15.8850   20.6560 N   0  0  0  0  0  0  0  0  0  0  0  0
  -29.0590  -15.6690   21.1700 H   0  0  0  0  0  0  0  0  0  0  0  0
  -25.2710  -13.8900   20.5590 C   0  0  0  0  0  0  0  0  0  0  0  0
  -24.2090  -13.1160   20.9410 C   0  0  0  0  0  0  0  0  0  0  0  0
  -24.6620  -11.7620   20.8740 C   0  0  0  0  0  0  0  0  0  0  0  0
  -26.3040  -13.0090   20.2830 N   0  0  0  0  0  0  0  0  0  0  0  0
  -25.9450  -11.7230   20.5340 N   0  0  0  0  0  0  0  0  0  0  0  0
  -23.9310  -10.5020   21.0580 C   0  0  0  0  0  0  0  0  0  0  0  0
  -24.3700   -9.5200   21.9740 C   0  0  0  0  0  3  0  0  0  0  0  0
  -23.6400   -8.3250   22.1470 C   0  0  0  0  0  3  0  0  0  0  0  0
  -22.4560   -8.1020   21.4050 C   0  0  0  0  0  0  0  0  0  0  0  0
  -22.0360   -9.0720   20.4780 C   0  0  0  0  0  3  0  0  0  0  0  0
  -22.7670  -10.2590   20.3020 C   0  0  0  0  0  3  0  0  0  0  0  0
  -21.6970   -6.9600   21.4880 O   0  0  0  0  0  0  0  0  0  0  0  0
  -21.6470   -6.2110   22.6360 C   0  0  0  0  0  0  0  0  0  0  0  0
  -21.2060   -6.7540   23.8620 C   0  0  0  0  0  3  0  0  0  0  0  0
  -21.1040   -5.9310   25.0010 C   0  0  0  0  0  3  0  0  0  0  0  0
  -21.4330   -4.5650   24.9150 C   0  0  0  0  0  0  0  0  0  0  0  0
  -21.8670   -4.0210   23.6940 C   0  0  0  0  0  3  0  0  0  0  0  0
  -21.9700   -4.8410   22.5570 C   0  0  0  0  0  0  0  0  0  0  0  0
  -22.3690   -4.3070   21.3780 F   0  0  0  0  0  0  0  0  0  0  0  0
  -21.3280   -3.7720   26.0080 F   0  0  0  0  0  0  0  0  0  0  0  0
  -22.8220  -13.5960   21.2530 C   0  0  0  0  0  0  0  0  0  0  0  0
  -22.1070  -12.8870   22.1200 N   0  0  0  0  0  0  0  0  0  0  0  0
  -22.3800  -14.6360   20.7640 O   0  0  0  0  0  0  0  0  0  0  0  0
  -22.4770  -12.0460   22.5380 H   0  0  0  0  0  0  0  0  0  0  0  0
  -21.1760  -13.1900   22.3690 H   0  0  0  0  0  0  0  0  0  0  0  0
  -25.4390  -15.2620   20.4040 N   0  0  0  0  0  0  0  0  0  0  0  0
  -24.6790  -15.9190   20.5470 H   0  0  0  0  0  0  0  0  0  0  0  0
  -26.2790  -15.7040   20.0500 H   0  0  0  0  0  0  0  0  0  0  0  0
  -28.1140  -24.9410   19.8960 C   0  0  0  0  0  2  0  0  0  0  0  0
  -28.3010  -26.3920   20.2660 O   0  0  0  0  0  0  0  0  0  0  0  0
  -24.6310  -31.8990   23.2420 C   0  0  0  0  0  0  0  0  0  0  0  0
  -27.2080  -27.2930   20.1770 C   0  0  0  0  0  0  0  0  0  0  0  0
  -23.4180  -30.5040   21.6080 C   0  0  0  0  0  3  0  0  0  0  0  0
  -24.8580  -28.9540   20.1700 C   0  0  0  0  0  0  0  0  0  0  0  0
  -25.9610  -30.8040   21.4190 C   0  0  0  0  0  2  0  0  0  0  0  0
  -26.0330  -29.4220   20.7700 C   0  0  0  0  0  0  0  0  0  0  0  0
  -27.2080  -28.6030   20.7680 C   0  0  0  0  0  3  0  0  0  0  0  0
  -26.0140  -26.9090   19.5200 C   0  0  0  0  0  3  0  0  0  0  0  0
  -24.8550  -27.7040   19.5330 C   0  0  0  0  0  3  0  0  0  0  0  0
  -23.6240  -29.8330   20.2260 C   0  0  0  0  0  2  0  0  0  0  0  0
  -24.6900  -31.0880   22.1450 N   0  0  0  0  0  0  0  0  0  0  0  0
  -23.5510  -32.1800   23.7800 O   0  0  0  0  0  0  0  0  0  0  0  0
  -22.7560  -29.4890   22.5720 C   0  0  0  0  0  0  0  0  0  0  0  0
  -21.4300  -29.3080   22.4480 N   0  0  0  0  0  0  0  0  0  0  0  0
  -23.4360  -28.8670   23.3920 O   0  0  0  0  0  0  0  0  0  0  0  0
  -20.9390  -29.8610   21.7600 H   0  0  0  0  0  0  0  0  0  0  0  0
  -18.0560  -28.1040   22.9600 C   0  0  0  0  0  0  0  0  0  0  0  0
  -20.6150  -28.3710   23.2230 C   0  0  0  0  0  3  0  0  0  0  0  0
  -20.7190  -26.9380   22.6530 C   0  0  0  0  0  2  0  0  0  0  0  0
  -19.6160  -26.6090   21.6430 C   0  0  0  0  0  2  0  0  0  0  0  0
  -18.2350  -26.7530   22.2890 C   0  0  0  0  0  2  0  0  0  0  0  0
  -19.1740  -28.8710   23.3850 C   0  0  0  0  0  0  0  0  0  0  0  0
  -18.9520  -30.1350   23.9750 C   0  0  0  0  0  3  0  0  0  0  0  0
  -17.6460  -30.6330   24.1400 C   0  0  0  0  0  3  0  0  0  0  0  0
  -16.5440  -29.8640   23.7310 C   0  0  0  0  0  3  0  0  0  0  0  0
  -16.7490  -28.6010   23.1460 C   0  0  0  0  0  3  0  0  0  0  0  0
  -25.9180  -32.5320   23.8560 C   0  0  0  0  0  3  0  0  0  0  0  0
  -26.4310  -31.7700   25.1390 C   0  0  1  0  0  0  0  0  0  0  0  0
  -25.3370  -31.5430   26.2090 C   0  0  0  0  0  1  0  0  0  0  0  0
  -27.0100  -30.3870   24.7610 C   0  0  0  0  0  1  0  0  0  0  0  0
  -27.5840  -32.5660   25.7940 C   0  0  0  0  0  1  0  0  0  0  0  0
  -25.6140  -33.9350   24.1760 N   0  0  0  0  0  0  0  0  0  0  0  0
  -25.9490  -34.9810   23.4100 C   0  0  0  0  0  0  0  0  0  0  0  0
  -26.6150  -34.8690   22.3770 O   0  0  0  0  0  0  0  0  0  0  0  0
  -25.0210  -34.0960   24.9770 H   0  0  0  0  0  0  0  0  0  0  0  0
  -24.2340  -36.7870   23.0440 C   0  0  0  0  0  1  0  0  0  0  0  0
  -25.4700  -36.3760   23.8610 C   0  0  0  0  0  3  0  0  0  0  0  0
  -27.6060  -37.2530   24.6970 C   0  0  0  0  0  1  0  0  0  0  0  0
  -26.5100  -37.4210   23.7460 N   0  0  0  0  0  0  0  0  0  0  0  0
  -26.1100  -38.3440   23.8840 H   0  0  0  0  0  0  0  0  0  0  0  0
  1 52  1  0
  2  1  1  0
  2  4  1  0
  2  5  1  0
  3  2  1  0
  6  1  1  0
  6 11  1  0
  7  8  2  0
  8 22  1  0
  8 10  1  0
  9 11  1  0
  9 10  2  0
 11 13  1  0
 12  7  1  0
 12  9  1  0
 14 22  1  0
 15 20  1  0
 16 17  1  0
 16 15  1  0
 18 17  1  0
 18 27  1  0
 18 19  1  0
 20 14  1  0
 20 19  1  0
 21 14  2  0
 22 23  1  0
 24 25  2  0
 25 44  1  0
 26 25  1  0
 26 29  1  0
 27 28  1  0
 27 24  1  0
 28 26  2  0
 29 30  1  0
 30 31  2  0
 32 35  1  0
 32 31  1  0
 33 32  2  0
 34 33  1  0
 34 29  2  0
 35 36  1  0
 36 37  1  0
 37 38  2  0
 39 38  1  0
 39 43  1  0
 40 39  2  0
 41 36  2  0
 41 40  1  0
 42 41  1  0
 44 45  1  0
 45 48  1  0
 45 47  1  0
 46 44  2  0
 49 50  1  0
 49 24  1  0
 51 49  1  0
 52 53  1  0
 54 65  2  0
 55 53  1  0
 55 60  1  0
 56 64  1  0
 56 66  1  0
 57 63  1  0
 57 59  1  0
 58 64  1  0
 59 58  1  0
 60 59  2  0
 61 62  1  0
 61 55  2  0
 62 57  2  0
 63 56  1  0
 64 54  1  0
 66 68  2  0
 67 66  1  0
 69 67  1  0
 70 79  2  0
 70 75  1  0
 71 67  1  0
 71 75  1  0
 72 71  1  0
 73 74  1  0
 73 72  1  0
 74 70  1  0
 75 76  2  0
 76 77  1  0
 78 77  2  0
 79 78  1  0
 80 54  1  0
 80 85  1  0
 80 81  1  0
 81 84  1  1
 81 82  1  0
 83 81  1  0
 85 88  1  0
 86 90  1  0
 86 85  1  0
 87 86  2  0
 90 89  1  0
 92 90  1  0
 92 93  1  0
 92 91  1  0
M  ISO  4  14 100  22 100  52 101  53 101
M  END
>  <TORSDO>  (15) 
F 20

>  <SCORE>  (15) 
-13.945

>  <name>  (15) 
14

>  <ligand_id>  (15) 
14

>  <original_smiles>  (15) 
[H]c1sc(N([H])C([H])([H])C([H])(C([H])([H])Oc2c([H])c([H])c3c(c2[H])C([H])([H])N(C(=O)C([H])(N([H])C(=O)C([H])(N([H])C([H])([H])[H])C([H])([H])[H])C(C([H])([H])[H])(C([H])([H])[H])C([H])([H])[H])C([H])(C(=O)N([H])C2([H])c4c([H])c([H])c([H])c([H])c4C([H])([H])C([H])([H])C2([H])[H])C3([H])[H])[N+]([H])([H])[H])nc1N([H])C(=O)N1C([H])([H])C([H])([H])C([H])([H])C([H])(n2nc(-c3c([H])c([H])c(Oc4c([H])c([H])c(F)c([H])c4F)c([H])c3[H])c(C(=O)N([H])[H])c2N([H])[H])C1([H])[H]

>  <smiles>  (15) 
[H]c1sc(N([H])C([H])([H])C([H])(C([H])([H])Oc2c([H])c([H])c3c(c2[H])C([H])([H])N(C(=O)C([H])(N([H])C(=O)C([H])(N([H])C([H])([H])[H])C([H])([H])[H])C(C([H])([H])[H])(C([H])([H])[H])C([H])([H])[H])C([H])(C(=O)N([H])C2([H])c4c([H])c([H])c([H])c([H])c4C([H])([H])C([H])([H])C2([H])[H])C3([H])[H])[N+]([H])([H])[H])nc1N([H])C(=O)N1C([H])([H])C([H])([H])C([H])([H])C([H])(n2nc(-c3c([H])c([H])c(Oc4c([H])c([H])c(F)c([H])c4F)c([H])c3[H])c(C(=O)N([H])[H])c2N([H])[H])C1([H])[H]

$$$$
15:0:0
     RDKit          3D

 95103  0  0  1  0  0  0  0  0999 V2000
  -31.2300  -20.4000   21.7050 C   0  0  0  0  0  3  0  0  0  0  0  0
  -31.0510  -19.0660   21.2690 C   0  0  0  0  0  0  0  0  0  0  0  0
  -29.8970  -18.8100   20.4920 C   0  0  0  0  0  0  0  0  0  0  0  0
  -29.3520  -21.1490   20.6380 C   0  0  0  0  0  0  0  0  0  0  0  0
  -30.4000  -21.4170   21.3930 N   0  0  0  0  0  0  0  0  0  0  0  0
  -29.0660  -19.8910   20.1860 N   0  0  0  0  0  0  0  0  0  0  0  0
  -28.5410  -22.2900   20.3160 N   0  0  0  0  0  0  0  0  0  0  0  0
  -27.7410  -22.0920   19.7250 H   0  0  0  0  0  0  0  0  0  0  0  0
  -31.9870  -18.0540   21.5600 N   0  0  0  0  0  0  0  0  0  0  0  0
  -31.5720  -17.1250   21.6130 H   0  0  0  0  0  0  0  0  0  0  0  0
  -34.1870  -19.1880   21.1830 C   0  0  0  0  0  1  0  0  0  0  0  0
  -33.0400  -17.9250   19.2960 C   0  0  0  0  0  1  0  0  0  0  0  0
  -33.2480  -18.0310   20.8160 C   0  0  0  0  0  3  0  0  0  0  0  0
  -29.6700  -17.3740   19.8190 C   0  0  0  0  0  2  0  0  0  0  0  0
  -30.4640  -14.9010   20.3130 C   0  0  0  0  0  0  0  0  0  0  0  0
  -30.3180  -12.6000   19.3540 C   0  0  0  0  0  2  0  0  0  0  0  0
  -29.3950  -12.6510   18.1170 C   0  0  0  0  0  2  0  0  0  0  0  0
  -27.9230  -12.4590   18.5300 C   0  0  0  0  0  2  0  0  0  0  0  0
  -27.5210  -13.3400   19.7420 C   0  0  0  0  0  3  0  0  0  0  0  0
  -28.5710  -13.2860   20.8750 C   0  0  0  0  0  2  0  0  0  0  0  0
  -29.8710  -13.6560   20.2960 N   0  0  0  0  0  0  0  0  0  0  0  0
  -31.6250  -15.0300   19.9220 O   0  0  0  0  0  0  0  0  0  0  0  0
  -29.6720  -16.0150   20.5430 N   0  0  0  0  0  0  0  0  0  0  0  0
  -28.7880  -15.7960   20.9740 H   0  0  0  0  0  0  0  0  0  0  0  0
  -25.1160  -13.8820   20.4500 C   0  0  0  0  0  0  0  0  0  0  0  0
  -24.0620  -13.0890   20.8130 C   0  0  0  0  0  0  0  0  0  0  0  0
  -24.5500  -11.7460   20.7840 C   0  0  0  0  0  0  0  0  0  0  0  0
  -26.1780  -13.0230   20.2210 N   0  0  0  0  0  0  0  0  0  0  0  0
  -25.8440  -11.7330   20.4830 N   0  0  0  0  0  0  0  0  0  0  0  0
  -23.8440  -10.4700   20.9680 C   0  0  0  0  0  0  0  0  0  0  0  0
  -24.2580   -9.5310   21.9380 C   0  0  0  0  0  3  0  0  0  0  0  0
  -23.5520   -8.3200   22.1100 C   0  0  0  0  0  3  0  0  0  0  0  0
  -22.4180   -8.0400   21.3090 C   0  0  0  0  0  0  0  0  0  0  0  0
  -22.0260   -8.9690   20.3280 C   0  0  0  0  0  3  0  0  0  0  0  0
  -22.7330  -10.1700   20.1560 C   0  0  0  0  0  3  0  0  0  0  0  0
  -21.6870   -6.8800   21.3880 O   0  0  0  0  0  0  0  0  0  0  0  0
  -21.5660   -6.1830   22.5630 C   0  0  0  0  0  0  0  0  0  0  0  0
  -21.0220   -6.7700   23.7260 C   0  0  0  0  0  3  0  0  0  0  0  0
  -20.8530   -5.9970   24.8920 C   0  0  0  0  0  3  0  0  0  0  0  0
  -21.2170   -4.6370   24.8960 C   0  0  0  0  0  0  0  0  0  0  0  0
  -21.7530   -4.0490   23.7360 C   0  0  0  0  0  3  0  0  0  0  0  0
  -21.9240   -4.8190   22.5730 C   0  0  0  0  0  0  0  0  0  0  0  0
  -22.4220   -4.2420   21.4530 F   0  0  0  0  0  0  0  0  0  0  0  0
  -21.0470   -3.8920   26.0130 F   0  0  0  0  0  0  0  0  0  0  0  0
  -22.6540  -13.5400   21.0750 C   0  0  0  0  0  0  0  0  0  0  0  0
  -21.9330  -12.8280   21.9350 N   0  0  0  0  0  0  0  0  0  0  0  0
  -22.2020  -14.5590   20.5550 O   0  0  0  0  0  0  0  0  0  0  0  0
  -22.3120  -12.0050   22.3800 H   0  0  0  0  0  0  0  0  0  0  0  0
  -20.9870  -13.1100   22.1520 H   0  0  0  0  0  0  0  0  0  0  0  0
  -25.2570  -15.2560   20.2730 N   0  0  0  0  0  0  0  0  0  0  0  0
  -24.4750  -15.8950   20.3620 H   0  0  0  0  0  0  0  0  0  0  0  0
  -26.0920  -15.7030   19.9200 H   0  0  0  0  0  0  0  0  0  0  0  0
  -28.8000  -23.7650   20.6340 C   0  0  0  0  0  3  0  0  0  0  0  0
  -27.7620  -24.9210   20.1290 C   0  0  0  0  0  3  0  0  0  0  0  0
  -28.0170  -26.4080   20.2890 O   0  0  0  0  0  0  0  0  0  0  0  0
  -24.5100  -32.0220   23.3220 C   0  0  0  0  0  0  0  0  0  0  0  0
  -26.9390  -27.3330   20.2340 C   0  0  0  0  0  0  0  0  0  0  0  0
  -23.2360  -30.6310   21.7310 C   0  0  0  0  0  3  0  0  0  0  0  0
  -24.6150  -29.0390   20.2720 C   0  0  0  0  0  0  0  0  0  0  0  0
  -25.7780  -30.8840   21.4750 C   0  0  0  0  0  2  0  0  0  0  0  0
  -25.8130  -29.4940   20.8370 C   0  0  0  0  0  0  0  0  0  0  0  0
  -26.9750  -28.6530   20.8090 C   0  0  0  0  0  3  0  0  0  0  0  0
  -25.7190  -26.9600   19.6240 C   0  0  0  0  0  3  0  0  0  0  0  0
  -24.5760  -27.7840   19.6500 C   0  0  0  0  0  3  0  0  0  0  0  0
  -23.3980  -29.9420   20.3510 C   0  0  0  0  0  2  0  0  0  0  0  0
  -24.5300  -31.1980   22.2320 N   0  0  0  0  0  0  0  0  0  0  0  0
  -23.4480  -32.3230   23.8850 O   0  0  0  0  0  0  0  0  0  0  0  0
  -22.5820  -29.6370   22.7210 C   0  0  0  0  0  0  0  0  0  0  0  0
  -21.2670  -29.4000   22.5670 N   0  0  0  0  0  0  0  0  0  0  0  0
  -23.2580  -29.0800   23.5910 O   0  0  0  0  0  0  0  0  0  0  0  0
  -20.7780  -29.8980   21.8360 H   0  0  0  0  0  0  0  0  0  0  0  0
  -17.9510  -28.0040   22.9650 C   0  0  0  0  0  0  0  0  0  0  0  0
  -20.4640  -28.4670   23.3610 C   0  0  0  0  0  3  0  0  0  0  0  0
  -20.6990  -27.0080   22.9100 C   0  0  0  0  0  2  0  0  0  0  0  0
  -19.6900  -26.5300   21.8620 C   0  0  0  0  0  2  0  0  0  0  0  0
  -18.2620  -26.6230   22.4100 C   0  0  0  0  0  2  0  0  0  0  0  0
  -18.9860  -28.8750   23.3970 C   0  0  0  0  0  0  0  0  0  0  0  0
  -18.6450  -30.1580   23.8760 C   0  0  0  0  0  3  0  0  0  0  0  0
  -17.3000  -30.5730   23.9270 C   0  0  0  0  0  3  0  0  0  0  0  0
  -16.2790  -29.7020   23.5100 C   0  0  0  0  0  3  0  0  0  0  0  0
  -16.6050  -28.4200   23.0340 C   0  0  0  0  0  3  0  0  0  0  0  0
  -25.8200  -32.6410   23.8990 C   0  0  0  0  0  3  0  0  0  0  0  0
  -25.5400  -34.0440   24.2380 N   0  0  0  0  0  0  0  0  0  0  0  0
  -25.8660  -35.0930   23.4710 C   0  0  0  0  0  0  0  0  0  0  0  0
  -26.5040  -34.9810   22.4200 O   0  0  0  0  0  0  0  0  0  0  0  0
  -24.9740  -34.2080   25.0580 H   0  0  0  0  0  0  0  0  0  0  0  0
  -24.1580  -36.9160   23.1660 C   0  0  0  0  0  1  0  0  0  0  0  0
  -25.4150  -36.4900   23.9420 C   0  0  0  0  0  3  0  0  0  0  0  0
  -27.5840  -37.3420   24.7160 C   0  0  0  0  0  1  0  0  0  0  0  0
  -26.4610  -37.5270   23.8000 N   0  0  0  0  0  0  0  0  0  0  0  0
  -26.0730  -38.4530   23.9580 H   0  0  0  0  0  0  0  0  0  0  0  0
  -26.3660  -31.8680   25.1630 C   0  0  1  0  0  0  0  0  0  0  0  0
  -25.2970  -31.6250   26.2540 C   0  0  0  0  0  1  0  0  0  0  0  0
  -26.9450  -30.4930   24.7580 C   0  0  0  0  0  1  0  0  0  0  0  0
  -27.5300  -32.6640   25.8010 C   0  0  0  0  0  1  0  0  0  0  0  0
  2  9  1  0
  2  1  2  0
  3  2  1  0
  4  5  2  0
  5  1  1  0
  6  3  2  0
  6  4  1  0
  7 53  1  0
  7  4  1  0
  8  7  1  0
  9 10  1  0
 12 13  1  0
 13 11  1  0
 13  9  1  0
 14  3  1  0
 14 23  1  0
 15 23  1  0
 16 21  1  0
 17 18  1  0
 17 16  1  0
 19 18  1  0
 19 28  1  0
 19 20  1  0
 21 15  1  0
 21 20  1  0
 22 15  2  0
 23 24  1  0
 25 26  2  0
 26 45  1  0
 27 26  1  0
 27 30  1  0
 28 25  1  0
 28 29  1  0
 29 27  2  0
 30 31  1  0
 31 32  2  0
 33 36  1  0
 33 32  1  0
 34 33  2  0
 35 34  1  0
 35 30  2  0
 36 37  1  0
 37 42  2  0
 37 38  1  0
 38 39  2  0
 39 40  1  0
 40 44  1  0
 41 40  2  0
 42 41  1  0
 43 42  1  0
 45 46  1  0
 46 49  1  0
 46 48  1  0
 47 45  2  0
 50 51  1  0
 50 25  1  0
 52 50  1  0
 54 55  1  0
 54 53  2  0
 56 67  2  0
 57 55  1  0
 57 62  1  0
 58 66  1  0
 58 68  1  0
 59 65  1  0
 59 61  1  0
 60 66  1  0
 61 60  1  0
 62 61  2  0
 63 64  1  0
 63 57  2  0
 64 59  2  0
 65 58  1  0
 66 56  1  0
 68 70  2  0
 69 68  1  0
 71 69  1  0
 72 81  2  0
 72 77  1  0
 73 69  1  0
 73 77  1  0
 74 73  1  0
 75 76  1  0
 75 74  1  0
 76 72  1  0
 77 78  2  0
 78 79  1  0
 80 79  2  0
 81 80  1  0
 82 56  1  0
 82 83  1  0
 82 92  1  0
 83 86  1  0
 84 88  1  0
 84 83  1  0
 85 84  2  0
 88 87  1  0
 90 88  1  0
 90 91  1  0
 90 89  1  0
 92 95  1  1
 92 93  1  0
 94 92  1  0
M  ISO  4  15 100  23 100  54 101  55 101
M  END
>  <TORSDO>  (16) 
F 21

>  <SCORE>  (16) 
-13.027

>  <name>  (16) 
15

>  <ligand_id>  (16) 
15

>  <original_smiles>  (16) 
[H]c1nc(N([H])C([H])([H])C([H])([H])Oc2c([H])c([H])c3c(c2[H])C([H])([H])N(C(=O)C([H])(N([H])C(=O)C([H])(N([H])C([H])([H])[H])C([H])([H])[H])C(C([H])([H])[H])(C([H])([H])[H])C([H])([H])[H])C([H])(C(=O)N([H])C2([H])c4c([H])c([H])c([H])c([H])c4C([H])([H])C([H])([H])C2([H])[H])C3([H])[H])nc(C([H])([H])N([H])C(=O)N2C([H])([H])C([H])([H])C([H])([H])C([H])(n3nc(-c4c([H])c([H])c(Oc5c([H])c([H])c(F)c([H])c5F)c([H])c4[H])c(C(=O)N([H])[H])c3N([H])[H])C2([H])[H])c1N([H])C([H])(C([H])([H])[H])C([H])([H])[H]

>  <smiles>  (16) 
[H]c1nc(N([H])C([H])([H])C([H])([H])Oc2c([H])c([H])c3c(c2[H])C([H])([H])N(C(=O)C([H])(N([H])C(=O)C([H])(N([H])C([H])([H])[H])C([H])([H])[H])C(C([H])([H])[H])(C([H])([H])[H])C([H])([H])[H])C([H])(C(=O)N([H])C2([H])c4c([H])c([H])c([H])c([H])c4C([H])([H])C([H])([H])C2([H])[H])C3([H])[H])nc(C([H])([H])N([H])C(=O)N2C([H])([H])C([H])([H])C([H])([H])C([H])(n3nc(-c4c([H])c([H])c(Oc5c([H])c([H])c(F)c([H])c5F)c([H])c4[H])c(C(=O)N([H])[H])c3N([H])[H])C2([H])[H])c1N([H])C([H])(C([H])([H])[H])C([H])([H])[H]

$$$$
16:0:0
     RDKit          3D

100108  0  0  1  0  0  0  0  0999 V2000
  -29.6570  -21.6790   22.4110 C   0  0  0  0  0  1  0  0  0  0  0  0
  -29.2320  -21.7860   20.9330 C   0  0  0  0  0  3  0  0  0  0  0  0
  -29.9420  -20.8040   20.1040 N   0  0  0  0  0  0  0  0  0  0  0  0
  -30.5900  -21.2190   19.4430 H   0  0  0  0  0  0  0  0  0  0  0  0
  -30.7250  -14.5390   20.4340 C   0  0  0  0  0  0  0  0  0  0  0  0
  -30.4120  -12.3960   19.2480 C   0  0  0  0  0  2  0  0  0  0  0  0
  -29.4710  -12.6380   18.0490 C   0  0  0  0  0  2  0  0  0  0  0  0
  -27.9930  -12.5030   18.4660 C   0  0  0  0  0  2  0  0  0  0  0  0
  -27.6650  -13.2950   19.7630 C   0  0  0  0  0  3  0  0  0  0  0  0
  -28.7230  -13.0600   20.8640 C   0  0  0  0  0  2  0  0  0  0  0  0
  -30.0470  -13.3680   20.2980 N   0  0  0  0  0  0  0  0  0  0  0  0
  -31.8580  -14.6700   19.9560 O   0  0  0  0  0  0  0  0  0  0  0  0
  -31.4150  -18.8310   20.0990 C   0  0  0  0  0  0  0  0  0  0  0  0
  -30.2280  -19.4550   20.4220 C   0  0  0  0  0  0  0  0  0  0  0  0
  -30.2830  -16.9780   20.8400 C   0  0  0  0  0  0  0  0  0  0  0  0
  -31.4390  -17.4600   20.3700 N   0  0  0  0  0  0  0  0  0  0  0  0
  -30.0500  -15.5650   21.0140 N   0  0  0  0  0  0  0  0  0  0  0  0
  -29.1020  -18.2880   21.1290 S   0  0  0  0  0  0  0  0  0  0  0  0
  -29.1660  -15.3160   21.4270 H   0  0  0  0  0  0  0  0  0  0  0  0
  -25.2620  -13.8850   20.4680 C   0  0  0  0  0  0  0  0  0  0  0  0
  -24.2030  -13.1090   20.8420 C   0  0  0  0  0  0  0  0  0  0  0  0
  -24.6720  -11.7590   20.8180 C   0  0  0  0  0  0  0  0  0  0  0  0
  -26.3150  -13.0100   20.2420 N   0  0  0  0  0  0  0  0  0  0  0  0
  -25.9630  -11.7260   20.5110 N   0  0  0  0  0  0  0  0  0  0  0  0
  -23.9540  -10.4940   21.0170 C   0  0  0  0  0  0  0  0  0  0  0  0
  -24.3920   -9.5330   21.9550 C   0  0  0  0  0  3  0  0  0  0  0  0
  -23.6720   -8.3320   22.1420 C   0  0  0  0  0  3  0  0  0  0  0  0
  -22.4960   -8.0850   21.3910 C   0  0  0  0  0  0  0  0  0  0  0  0
  -22.0770   -9.0350   20.4440 C   0  0  0  0  0  3  0  0  0  0  0  0
  -22.7990  -10.2260   20.2560 C   0  0  0  0  0  3  0  0  0  0  0  0
  -21.7440   -6.9390   21.4890 O   0  0  0  0  0  0  0  0  0  0  0  0
  -21.7050   -6.1980   22.6430 C   0  0  0  0  0  0  0  0  0  0  0  0
  -21.2860   -6.7550   23.8710 C   0  0  0  0  0  3  0  0  0  0  0  0
  -21.1950   -5.9420   25.0180 C   0  0  0  0  0  3  0  0  0  0  0  0
  -21.5120   -4.5730   24.9370 C   0  0  0  0  0  0  0  0  0  0  0  0
  -21.9190   -4.0160   23.7130 C   0  0  0  0  0  3  0  0  0  0  0  0
  -22.0140   -4.8260   22.5680 C   0  0  0  0  0  0  0  0  0  0  0  0
  -22.3880   -4.2790   21.3860 F   0  0  0  0  0  0  0  0  0  0  0  0
  -21.4170   -3.7900   26.0360 F   0  0  0  0  0  0  0  0  0  0  0  0
  -22.8010  -13.5770   21.1140 C   0  0  0  0  0  0  0  0  0  0  0  0
  -22.0760  -12.8820   21.9790 N   0  0  0  0  0  0  0  0  0  0  0  0
  -22.3570  -14.5990   20.5910 O   0  0  0  0  0  0  0  0  0  0  0  0
  -22.4410  -12.0490   22.4180 H   0  0  0  0  0  0  0  0  0  0  0  0
  -21.1350  -13.1800   22.2060 H   0  0  0  0  0  0  0  0  0  0  0  0
  -25.4190  -15.2570   20.2770 N   0  0  0  0  0  0  0  0  0  0  0  0
  -24.6400  -15.9020   20.3570 H   0  0  0  0  0  0  0  0  0  0  0  0
  -26.2560  -15.6990   19.9160 H   0  0  0  0  0  0  0  0  0  0  0  0
  -32.8640  -18.8170   18.0670 C   0  0  0  0  0  1  0  0  0  0  0  0
  -32.6220  -19.4630   19.4470 C   0  0  0  0  0  3  0  0  0  0  0  0
  -33.6020  -20.0040   21.7810 C   0  0  0  0  0  1  0  0  0  0  0  0
  -35.0700  -20.2040   19.7500 C   0  0  0  0  0  1  0  0  0  0  0  0
  -33.8790  -19.4450   20.3670 C   0  0  0  0  0  3  0  0  0  0  0  0
  -29.5000  -23.2300   20.3770 C   0  0  0  0  0  2  0  0  0  0  0  0
  -28.3160  -24.2690   20.4260 C   0  0  0  0  0  3  0  0  0  0  0  0
  -27.9260  -24.6580   21.8140 N   0  0  0  0  0  4  0  0  0  0  0  0
  -28.6600  -25.1670   22.2780 H   0  0  0  0  0  0  0  0  0  0  0  0
  -27.6800  -23.8600   22.3760 H   0  0  0  0  0  0  0  0  0  0  0  0
  -27.1170  -25.2620   21.8080 H   0  0  0  0  0  0  0  0  0  0  0  0
  -28.6350  -25.5300   19.5520 C   0  0  0  0  0  2  0  0  0  0  0  0
  -28.4510  -26.7950   20.2080 O   0  0  0  0  0  0  0  0  0  0  0  0
  -24.5850  -31.9030   23.2310 C   0  0  0  0  0  0  0  0  0  0  0  0
  -27.2500  -27.4770   20.1530 C   0  0  0  0  0  0  0  0  0  0  0  0
  -23.3820  -30.4970   21.5870 C   0  0  0  0  0  3  0  0  0  0  0  0
  -24.8420  -28.9660   20.1560 C   0  0  0  0  0  0  0  0  0  0  0  0
  -25.9020  -30.8710   21.3820 C   0  0  0  0  0  2  0  0  0  0  0  0
  -25.9900  -29.4970   20.7530 C   0  0  0  0  0  0  0  0  0  0  0  0
  -27.1920  -28.7580   20.7500 C   0  0  0  0  0  3  0  0  0  0  0  0
  -26.0800  -26.9570   19.5500 C   0  0  0  0  0  3  0  0  0  0  0  0
  -24.8820  -27.6990   19.5490 C   0  0  0  0  0  3  0  0  0  0  0  0
  -23.5920  -29.8150   20.2030 C   0  0  0  0  0  2  0  0  0  0  0  0
  -24.6430  -31.1060   22.1270 N   0  0  0  0  0  0  0  0  0  0  0  0
  -23.5020  -32.1760   23.7690 O   0  0  0  0  0  0  0  0  0  0  0  0
  -22.7340  -29.4800   22.5510 C   0  0  0  0  0  0  0  0  0  0  0  0
  -21.4090  -29.2990   22.4230 N   0  0  0  0  0  0  0  0  0  0  0  0
  -23.4180  -28.8550   23.3650 O   0  0  0  0  0  0  0  0  0  0  0  0
  -20.9240  -29.8580   21.7350 H   0  0  0  0  0  0  0  0  0  0  0  0
  -18.0340  -28.1010   22.9150 C   0  0  0  0  0  0  0  0  0  0  0  0
  -20.5920  -28.3590   23.1870 C   0  0  0  0  0  3  0  0  0  0  0  0
  -20.6960  -26.9310   22.6040 C   0  0  0  0  0  2  0  0  0  0  0  0
  -19.5920  -26.6100   21.5930 C   0  0  0  0  0  2  0  0  0  0  0  0
  -18.2090  -26.7540   22.2320 C   0  0  0  0  0  2  0  0  0  0  0  0
  -19.1520  -28.8620   23.3490 C   0  0  0  0  0  0  0  0  0  0  0  0
  -18.9310  -30.1240   23.9440 C   0  0  0  0  0  3  0  0  0  0  0  0
  -17.6250  -30.6260   24.1080 C   0  0  0  0  0  3  0  0  0  0  0  0
  -16.5230  -29.8620   23.6890 C   0  0  0  0  0  3  0  0  0  0  0  0
  -16.7270  -28.6000   23.1020 C   0  0  0  0  0  3  0  0  0  0  0  0
  -25.8720  -32.5360   23.8550 C   0  0  0  0  0  3  0  0  0  0  0  0
  -26.3860  -31.7700   25.1340 C   0  0  1  0  0  0  0  0  0  0  0  0
  -25.2850  -31.5170   26.1900 C   0  0  0  0  0  1  0  0  0  0  0  0
  -26.9820  -30.3970   24.7420 C   0  0  0  0  0  1  0  0  0  0  0  0
  -27.5280  -32.5720   25.8020 C   0  0  0  0  0  1  0  0  0  0  0  0
  -25.5640  -33.9340   24.1750 N   0  0  0  0  0  0  0  0  0  0  0  0
  -25.9070  -34.9820   23.4160 C   0  0  0  0  0  0  0  0  0  0  0  0
  -26.5920  -34.8740   22.3940 O   0  0  0  0  0  0  0  0  0  0  0  0
  -24.9650  -34.0980   24.9710 H   0  0  0  0  0  0  0  0  0  0  0  0
  -24.1860  -36.7750   23.0310 C   0  0  0  0  0  1  0  0  0  0  0  0
  -25.4140  -36.3700   23.8620 C   0  0  0  0  0  3  0  0  0  0  0  0
  -27.5400  -37.2470   24.7220 C   0  0  0  0  0  1  0  0  0  0  0  0
  -26.4480  -37.4250   23.7710 N   0  0  0  0  0  0  0  0  0  0  0  0
  -26.0330  -38.3390   23.9320 H   0  0  0  0  0  0  0  0  0  0  0  0
  2  1  1  0
  3 14  1  0
  3  2  1  0
  4  3  1  0
  5 17  1  0
  6 11  1  0
  7  8  1  0
  7  6  1  0
  9  8  1  0
  9 23  1  0
  9 10  1  0
 11  5  1  0
 11 10  1  0
 12  5  2  0
 13 16  1  0
 13 14  2  0
 14 18  1  0
 15 17  1  0
 15 18  1  0
 16 15  2  0
 17 19  1  0
 20 21  2  0
 21 40  1  0
 22 21  1  0
 22 25  1  0
 23 20  1  0
 23 24  1  0
 24 22  2  0
 25 26  1  0
 26 27  2  0
 28 31  1  0
 28 27  1  0
 29 28  2  0
 30 29  1  0
 30 25  2  0
 31 32  1  0
 32 33  1  0
 33 34  2  0
 35 34  1  0
 35 39  1  0
 36 35  2  0
 37 32  2  0
 37 36  1  0
 38 37  1  0
 40 41  1  0
 41 44  1  0
 41 43  1  0
 42 40  2  0
 45 46  1  0
 45 20  1  0
 47 45  1  0
 49 48  1  0
 49 13  1  0
 49 52  1  0
 51 52  1  0
 52 50  1  0
 53 54  1  0
 53  2  1  0
 54 59  1  0
 54 55  1  0
 55 56  1  0
 55 57  1  0
 58 55  1  0
 59 60  1  0
 61 72  2  0
 62 60  1  0
 62 67  1  0
 63 71  1  0
 63 73  1  0
 64 70  1  0
 64 66  1  0
 65 71  1  0
 66 65  1  0
 67 66  2  0
 68 62  2  0
 69 68  1  0
 69 64  2  0
 70 63  1  0
 71 61  1  0
 73 75  2  0
 74 73  1  0
 76 74  1  0
 77 86  2  0
 77 82  1  0
 78 74  1  0
 78 82  1  0
 79 78  1  0
 80 81  1  0
 80 79  1  0
 81 77  1  0
 82 83  2  0
 83 84  1  0
 85 84  2  0
 86 85  1  0
 87 61  1  0
 87 92  1  0
 87 88  1  0
 88 91  1  1
 88 89  1  0
 90 88  1  0
 92 95  1  0
 93 97  1  0
 93 92  1  0
 94 93  2  0
 97 96  1  0
 99 97  1  0
 99100  1  0
 99 98  1  0
M  ISO  4   5 100  17 100  59 101  60 101
M  END
>  <TORSDO>  (17) 
F 23

>  <SCORE>  (17) 
-13.120

>  <name>  (17) 
16

>  <ligand_id>  (17) 
16

>  <original_smiles>  (17) 
[H]c1c([H])c([H])c2c(c1[H])C([H])([H])C([H])([H])C([H])([H])C2([H])N([H])C(=O)C1([H])N(C(=O)C([H])(N([H])C(=O)C([H])(N([H])C([H])([H])[H])C([H])([H])[H])C(C([H])([H])[H])(C([H])([H])[H])C([H])([H])[H])C([H])([H])c2c([H])c(OC([H])([H])C([H])(C([H])([H])C([H])(N([H])c3sc(N([H])C(=O)N4C([H])([H])C([H])([H])C([H])([H])C([H])(n5nc(-c6c([H])c([H])c(Oc7c([H])c([H])c(F)c([H])c7F)c([H])c6[H])c(C(=O)N([H])[H])c5N([H])[H])C4([H])[H])nc3C([H])(C([H])([H])[H])C([H])(C([H])([H])[H])C([H])([H])[H])C([H])([H])[H])[N+]([H])([H])[H])c([H])c([H])c2C1([H])[H]

>  <smiles>  (17) 
[H]c1c([H])c([H])c2c(c1[H])C([H])([H])C([H])([H])C([H])([H])C2([H])N([H])C(=O)C1([H])N(C(=O)C([H])(N([H])C(=O)C([H])(N([H])C([H])([H])[H])C([H])([H])[H])C(C([H])([H])[H])(C([H])([H])[H])C([H])([H])[H])C([H])([H])c2c([H])c(OC([H])([H])C([H])(C([H])([H])C([H])(N([H])c3sc(N([H])C(=O)N4C([H])([H])C([H])([H])C([H])([H])C([H])(n5nc(-c6c([H])c([H])c(Oc7c([H])c([H])c(F)c([H])c7F)c([H])c6[H])c(C(=O)N([H])[H])c5N([H])[H])C4([H])[H])nc3C([H])(C([H])([H])[H])C([H])(C([H])([H])[H])C([H])([H])[H])C([H])([H])[H])[N+]([H])([H])[H])c([H])c([H])c2C1([H])[H]

$$$$
17:0:0
     RDKit          3D

 92100  0  0  1  0  0  0  0  0999 V2000
  -28.7470  -22.3210   20.0250 C   0  0  0  0  0  2  0  0  0  0  0  0
  -30.4680  -17.7370   19.0960 C   0  0  0  0  0  0  0  0  0  0  0  0
  -30.0750  -17.4010   20.3800 C   0  0  0  0  0  0  0  0  0  0  0  0
  -29.6340  -19.7510   20.3620 C   0  0  0  0  0  0  0  0  0  0  0  0
  -30.9500  -16.8490   17.9970 C   0  0  0  0  0  1  0  0  0  0  0  0
  -29.5940  -18.5770   21.0760 N   0  0  0  0  0  0  0  0  0  0  0  0
  -29.2340  -21.0830   20.7540 N   0  0  0  0  0  0  0  0  0  0  0  0
  -30.2830  -19.4560   18.7540 S   0  0  0  0  0  0  0  0  0  0  0  0
  -29.0660  -21.1810   21.7520 H   0  0  0  0  0  0  0  0  0  0  0  0
  -30.7810  -14.8820   20.5550 C   0  0  0  0  0  0  0  0  0  0  0  0
  -30.6330  -12.6090   19.5310 C   0  0  0  0  0  2  0  0  0  0  0  0
  -29.7370  -12.6840   18.2760 C   0  0  0  0  0  2  0  0  0  0  0  0
  -28.2520  -12.5150   18.6480 C   0  0  0  0  0  2  0  0  0  0  0  0
  -27.8340  -13.3860   19.8640 C   0  0  0  0  0  3  0  0  0  0  0  0
  -28.8530  -13.2860   21.0190 C   0  0  0  0  0  2  0  0  0  0  0  0
  -30.1710  -13.6490   20.4810 N   0  0  0  0  0  0  0  0  0  0  0  0
  -31.9670  -14.9940   20.2290 O   0  0  0  0  0  0  0  0  0  0  0  0
  -30.0020  -15.9930   20.8540 N   0  0  0  0  0  0  0  0  0  0  0  0
  -29.1370  -15.7610   21.3180 H   0  0  0  0  0  0  0  0  0  0  0  0
  -25.4140  -13.9530   20.4990 C   0  0  0  0  0  0  0  0  0  0  0  0
  -24.3450  -13.1690   20.8390 C   0  0  0  0  0  0  0  0  0  0  0  0
  -24.8260  -11.8240   20.8380 C   0  0  0  0  0  0  0  0  0  0  0  0
  -26.4760  -13.0850   20.3070 N   0  0  0  0  0  0  0  0  0  0  0  0
  -26.1270  -11.8000   20.5750 N   0  0  0  0  0  0  0  0  0  0  0  0
  -24.1060  -10.5550   21.0150 C   0  0  0  0  0  0  0  0  0  0  0  0
  -24.5140   -9.6040   21.9750 C   0  0  0  0  0  3  0  0  0  0  0  0
  -23.7970   -8.3990   22.1410 C   0  0  0  0  0  3  0  0  0  0  0  0
  -22.6570   -8.1380   21.3440 C   0  0  0  0  0  0  0  0  0  0  0  0
  -22.2680   -9.0770   20.3730 C   0  0  0  0  0  3  0  0  0  0  0  0
  -22.9870  -10.2740   20.2060 C   0  0  0  0  0  3  0  0  0  0  0  0
  -21.9150   -6.9840   21.4160 O   0  0  0  0  0  0  0  0  0  0  0  0
  -21.8150   -6.2630   22.5780 C   0  0  0  0  0  0  0  0  0  0  0  0
  -21.2910   -6.8250   23.7630 C   0  0  0  0  0  3  0  0  0  0  0  0
  -21.1420   -6.0270   24.9140 C   0  0  0  0  0  3  0  0  0  0  0  0
  -21.5080   -4.6690   24.8830 C   0  0  0  0  0  0  0  0  0  0  0  0
  -22.0250   -4.1040   23.7030 C   0  0  0  0  0  3  0  0  0  0  0  0
  -22.1750   -4.8990   22.5530 C   0  0  0  0  0  0  0  0  0  0  0  0
  -22.6530   -4.3470   21.4120 F   0  0  0  0  0  0  0  0  0  0  0  0
  -21.3580   -3.8990   25.9860 F   0  0  0  0  0  0  0  0  0  0  0  0
  -22.9330  -13.6310   21.0550 C   0  0  0  0  0  0  0  0  0  0  0  0
  -22.1840  -12.9410   21.9070 N   0  0  0  0  0  0  0  0  0  0  0  0
  -22.5010  -14.6420   20.5030 O   0  0  0  0  0  0  0  0  0  0  0  0
  -22.5460  -12.1260   22.3790 H   0  0  0  0  0  0  0  0  0  0  0  0
  -21.2360  -13.2350   22.0930 H   0  0  0  0  0  0  0  0  0  0  0  0
  -25.5660  -15.3250   20.3180 N   0  0  0  0  0  0  0  0  0  0  0  0
  -24.7850  -15.9660   20.4070 H   0  0  0  0  0  0  0  0  0  0  0  0
  -26.4140  -15.7770   20.0010 H   0  0  0  0  0  0  0  0  0  0  0  0
  -29.0080  -23.8020   20.6260 C   0  0  0  0  0  3  0  0  0  0  0  0
  -28.8260  -23.6690   22.0250 O   0  0  0  0  0  0  0  0  0  0  0  0
  -29.1170  -24.4840   22.4220 H   0  0  0  0  0  0  0  0  0  0  0  0
  -28.0480  -24.9960   20.0910 C   0  0  0  0  0  2  0  0  0  0  0  0
  -28.3060  -26.4660   20.2720 O   0  0  0  0  0  0  0  0  0  0  0  0
  -24.5840  -31.9380   23.2350 C   0  0  0  0  0  0  0  0  0  0  0  0
  -27.2090  -27.3590   20.1850 C   0  0  0  0  0  0  0  0  0  0  0  0
  -23.3860  -30.5350   21.5960 C   0  0  0  0  0  3  0  0  0  0  0  0
  -24.8440  -28.9950   20.1630 C   0  0  0  0  0  0  0  0  0  0  0  0
  -25.9280  -30.8580   21.4120 C   0  0  0  0  0  2  0  0  0  0  0  0
  -26.0130  -29.4770   20.7670 C   0  0  0  0  0  0  0  0  0  0  0  0
  -27.1970  -28.6710   20.7690 C   0  0  0  0  0  3  0  0  0  0  0  0
  -26.0170  -26.9550   19.5360 C   0  0  0  0  0  3  0  0  0  0  0  0
  -24.8530  -27.7430   19.5350 C   0  0  0  0  0  3  0  0  0  0  0  0
  -23.6020  -29.8640   20.2150 C   0  0  0  0  0  2  0  0  0  0  0  0
  -24.6520  -31.1290   22.1380 N   0  0  0  0  0  0  0  0  0  0  0  0
  -23.4990  -32.2090   23.7710 O   0  0  0  0  0  0  0  0  0  0  0  0
  -22.7280  -29.5140   22.5560 C   0  0  0  0  0  0  0  0  0  0  0  0
  -21.4020  -29.3310   22.4310 N   0  0  0  0  0  0  0  0  0  0  0  0
  -23.4110  -28.8900   23.3730 O   0  0  0  0  0  0  0  0  0  0  0  0
  -20.9110  -29.8870   21.7450 H   0  0  0  0  0  0  0  0  0  0  0  0
  -18.0300  -28.1280   22.9450 C   0  0  0  0  0  0  0  0  0  0  0  0
  -20.5890  -28.3910   23.2030 C   0  0  0  0  0  3  0  0  0  0  0  0
  -20.6900  -26.9600   22.6240 C   0  0  0  0  0  2  0  0  0  0  0  0
  -19.5850  -26.6390   21.6140 C   0  0  0  0  0  2  0  0  0  0  0  0
  -18.2050  -26.7810   22.2640 C   0  0  0  0  0  2  0  0  0  0  0  0
  -19.1500  -28.8900   23.3720 C   0  0  0  0  0  0  0  0  0  0  0  0
  -18.9310  -30.1500   23.9700 C   0  0  0  0  0  3  0  0  0  0  0  0
  -17.6270  -30.6480   24.1470 C   0  0  0  0  0  3  0  0  0  0  0  0
  -16.5210  -29.8830   23.7350 C   0  0  0  0  0  3  0  0  0  0  0  0
  -16.7240  -28.6240   23.1400 C   0  0  0  0  0  3  0  0  0  0  0  0
  -25.8630  -32.5770   23.8570 C   0  0  0  0  0  3  0  0  0  0  0  0
  -26.3770  -31.8160   25.1420 C   0  0  1  0  0  0  0  0  0  0  0  0
  -25.2780  -31.5840   26.2060 C   0  0  0  0  0  1  0  0  0  0  0  0
  -26.9660  -30.4380   24.7650 C   0  0  0  0  0  1  0  0  0  0  0  0
  -27.5220  -32.6190   25.8040 C   0  0  0  0  0  1  0  0  0  0  0  0
  -25.5500  -33.9770   24.1760 N   0  0  0  0  0  0  0  0  0  0  0  0
  -25.8930  -35.0270   23.4180 C   0  0  0  0  0  0  0  0  0  0  0  0
  -26.5780  -34.9190   22.3970 O   0  0  0  0  0  0  0  0  0  0  0  0
  -24.9430  -34.1360   24.9680 H   0  0  0  0  0  0  0  0  0  0  0  0
  -24.1890  -36.8330   23.0190 C   0  0  0  0  0  1  0  0  0  0  0  0
  -25.4040  -36.4190   23.8640 C   0  0  0  0  0  3  0  0  0  0  0  0
  -27.5170  -37.2930   24.7590 C   0  0  0  0  0  1  0  0  0  0  0  0
  -26.4480  -37.4640   23.7790 N   0  0  0  0  0  0  0  0  0  0  0  0
  -26.0430  -38.3880   23.9080 H   0  0  0  0  0  0  0  0  0  0  0  0
  1  7  1  0
  2  3  2  0
  3 18  1  0
  3  6  1  0
  4  7  1  0
  4  6  2  0
  5  2  1  0
  7  9  1  0
  8  2  1  0
  8  4  1  0
 10 18  1  0
 11 16  1  0
 12 13  1  0
 12 11  1  0
 14 13  1  0
 14 23  1  0
 14 15  1  0
 16 10  1  0
 16 15  1  0
 17 10  2  0
 18 19  1  0
 20 21  2  0
 21 40  1  0
 22 21  1  0
 22 25  1  0
 23 20  1  0
 23 24  1  0
 24 22  2  0
 25 26  1  0
 26 27  2  0
 28 31  1  0
 28 27  1  0
 29 28  2  0
 30 29  1  0
 30 25  2  0
 31 32  1  0
 32 33  1  0
 33 34  2  0
 35 34  1  0
 35 39  1  0
 36 35  2  0
 37 32  2  0
 37 36  1  0
 38 37  1  0
 40 41  1  0
 41 44  1  0
 41 43  1  0
 42 40  2  0
 45 46  1  0
 45 20  1  0
 47 45  1  0
 48  1  1  0
 48 49  1  0
 49 50  1  0
 51 52  1  0
 51 48  1  0
 53 64  2  0
 54 52  1  0
 54 59  1  0
 55 63  1  0
 55 65  1  0
 56 62  1  0
 56 58  1  0
 57 63  1  0
 58 59  2  0
 58 57  1  0
 60 54  2  0
 61 60  1  0
 61 56  2  0
 62 55  1  0
 63 53  1  0
 65 67  2  0
 66 65  1  0
 68 66  1  0
 69 78  2  0
 69 74  1  0
 70 66  1  0
 70 74  1  0
 71 70  1  0
 72 73  1  0
 72 71  1  0
 73 69  1  0
 74 75  2  0
 75 76  1  0
 77 76  2  0
 78 77  1  0
 79 53  1  0
 79 84  1  0
 79 80  1  0
 80 83  1  1
 80 81  1  0
 82 80  1  0
 84 87  1  0
 85 89  1  0
 85 84  1  0
 86 85  2  0
 89 88  1  0
 91 89  1  0
 91 92  1  0
 91 90  1  0
M  ISO  4  10 100  18 100  51 101  52 101
M  END
>  <TORSDO>  (18) 
F 20

>  <SCORE>  (18) 
-13.825

>  <name>  (18) 
17

>  <ligand_id>  (18) 
17

>  <original_smiles>  (18) 
[H]OC([H])(C([H])([H])Oc1c([H])c([H])c2c(c1[H])C([H])([H])N(C(=O)C([H])(N([H])C(=O)C([H])(N([H])C([H])([H])[H])C([H])([H])[H])C(C([H])([H])[H])(C([H])([H])[H])C([H])([H])[H])C([H])(C(=O)N([H])C1([H])c3c([H])c([H])c([H])c([H])c3C([H])([H])C([H])([H])C1([H])[H])C2([H])[H])C([H])([H])N([H])c1nc(N([H])C(=O)N2C([H])([H])C([H])([H])C([H])([H])C([H])(n3nc(-c4c([H])c([H])c(Oc5c([H])c([H])c(F)c([H])c5F)c([H])c4[H])c(C(=O)N([H])[H])c3N([H])[H])C2([H])[H])c(C([H])([H])[H])s1

>  <smiles>  (18) 
[H]OC([H])(C([H])([H])Oc1c([H])c([H])c2c(c1[H])C([H])([H])N(C(=O)C([H])(N([H])C(=O)C([H])(N([H])C([H])([H])[H])C([H])([H])[H])C(C([H])([H])[H])(C([H])([H])[H])C([H])([H])[H])C([H])(C(=O)N([H])C1([H])c3c([H])c([H])c([H])c([H])c3C([H])([H])C([H])([H])C1([H])[H])C2([H])[H])C([H])([H])N([H])c1nc(N([H])C(=O)N2C([H])([H])C([H])([H])C([H])([H])C([H])(n3nc(-c4c([H])c([H])c(Oc5c([H])c([H])c(F)c([H])c5F)c([H])c4[H])c(C(=O)N([H])[H])c3N([H])[H])C2([H])[H])c(C([H])([H])[H])s1

$$$$
18:0:0
     RDKit          3D

 92100  0  0  1  0  0  0  0  0999 V2000
  -28.3630  -18.1280   20.0800 C   0  0  0  0  0  3  0  0  0  0  0  0
  -27.4930  -19.1630   19.7050 C   0  0  0  0  0  0  0  0  0  0  0  0
  -29.6250  -18.4840   20.5750 C   0  0  0  0  0  0  0  0  0  0  0  0
  -29.0110  -20.7980   20.3020 C   0  0  0  0  0  0  0  0  0  0  0  0
  -26.1260  -18.8690   19.1240 C   0  0  0  0  0  1  0  0  0  0  0  0
  -27.8220  -20.4650   19.8270 N   0  0  0  0  0  0  0  0  0  0  0  0
  -29.9280  -19.8460   20.6650 N   0  0  0  0  0  0  0  0  0  0  0  0
  -29.3150  -22.2130   20.3350 N   0  0  0  0  0  0  0  0  0  0  0  0
  -30.2820  -22.3790   20.5870 H   0  0  0  0  0  0  0  0  0  0  0  0
  -26.9540  -23.2590   20.2210 C   0  0  0  0  0  1  0  0  0  0  0  0
  -28.4510  -23.4820   20.4890 C   0  0  0  0  0  3  0  0  0  0  0  0
  -28.9010  -24.8530   19.7210 C   0  0  0  0  0  2  0  0  0  0  0  0
  -28.7390  -26.2430   20.2980 O   0  0  0  0  0  0  0  0  0  0  0  0
  -24.6870  -31.5300   23.1820 C   0  0  0  0  0  0  0  0  0  0  0  0
  -27.5970  -27.0760   20.1700 C   0  0  0  0  0  0  0  0  0  0  0  0
  -23.6240  -30.1460   21.4340 C   0  0  0  0  0  3  0  0  0  0  0  0
  -25.1990  -28.6690   20.0520 C   0  0  0  0  0  0  0  0  0  0  0  0
  -26.1620  -30.5210   21.4170 C   0  0  0  0  0  2  0  0  0  0  0  0
  -26.3160  -29.1590   20.7370 C   0  0  0  0  0  0  0  0  0  0  0  0
  -27.5140  -28.3730   20.7870 C   0  0  0  0  0  3  0  0  0  0  0  0
  -26.4530  -26.6510   19.4610 C   0  0  0  0  0  3  0  0  0  0  0  0
  -25.2740  -27.4250   19.4030 C   0  0  0  0  0  3  0  0  0  0  0  0
  -23.9400  -29.5160   20.0500 C   0  0  0  0  0  2  0  0  0  0  0  0
  -24.8400  -30.7510   22.0680 N   0  0  0  0  0  0  0  0  0  0  0  0
  -23.5660  -31.7620   23.6570 O   0  0  0  0  0  0  0  0  0  0  0  0
  -22.9310  -29.0900   22.3260 C   0  0  0  0  0  0  0  0  0  0  0  0
  -21.6090  -28.9210   22.1540 N   0  0  0  0  0  0  0  0  0  0  0  0
  -23.5840  -28.4250   23.1350 O   0  0  0  0  0  0  0  0  0  0  0  0
  -21.1390  -29.5090   21.4800 H   0  0  0  0  0  0  0  0  0  0  0  0
  -18.2050  -27.7750   22.5870 C   0  0  0  0  0  0  0  0  0  0  0  0
  -20.7690  -27.9480   22.8570 C   0  0  0  0  0  3  0  0  0  0  0  0
  -20.8310  -26.5630   22.1730 C   0  0  0  0  0  2  0  0  0  0  0  0
  -19.7180  -26.3490   21.1410 C   0  0  0  0  0  2  0  0  0  0  0  0
  -18.3430  -26.4790   21.8050 C   0  0  0  0  0  2  0  0  0  0  0  0
  -19.3440  -28.4720   23.0670 C   0  0  0  0  0  0  0  0  0  0  0  0
  -19.1600  -29.6890   23.7590 C   0  0  0  0  0  3  0  0  0  0  0  0
  -17.8700  -30.2090   23.9730 C   0  0  0  0  0  3  0  0  0  0  0  0
  -16.7440  -29.5090   23.5080 C   0  0  0  0  0  3  0  0  0  0  0  0
  -16.9130  -28.2920   22.8210 C   0  0  0  0  0  3  0  0  0  0  0  0
  -25.9110  -32.1790   23.8960 C   0  0  0  0  0  3  0  0  0  0  0  0
  -26.3640  -31.3940   25.1880 C   0  0  1  0  0  0  0  0  0  0  0  0
  -25.2140  -31.1190   26.1830 C   0  0  0  0  0  1  0  0  0  0  0  0
  -26.9920  -30.0320   24.8110 C   0  0  0  0  0  1  0  0  0  0  0  0
  -27.4580  -32.1950   25.9330 C   0  0  0  0  0  1  0  0  0  0  0  0
  -25.5440  -33.5620   24.2390 N   0  0  0  0  0  0  0  0  0  0  0  0
  -25.9160  -34.6450   23.5430 C   0  0  0  0  0  0  0  0  0  0  0  0
  -26.6700  -34.5860   22.5670 O   0  0  0  0  0  0  0  0  0  0  0  0
  -24.8800  -33.6800   24.9890 H   0  0  0  0  0  0  0  0  0  0  0  0
  -24.1740  -36.4100   23.1140 C   0  0  0  0  0  1  0  0  0  0  0  0
  -25.3660  -36.0090   24.0000 C   0  0  0  0  0  3  0  0  0  0  0  0
  -27.4070  -36.9260   25.0110 C   0  0  0  0  0  1  0  0  0  0  0  0
  -26.3770  -37.0880   23.9880 N   0  0  0  0  0  0  0  0  0  0  0  0
  -25.9410  -37.9950   24.1210 H   0  0  0  0  0  0  0  0  0  0  0  0
  -30.6440  -17.3350   21.0150 C   0  0  0  0  0  2  0  0  0  0  0  0
  -30.9850  -14.7240   20.9630 C   0  0  0  0  0  0  0  0  0  0  0  0
  -30.8400  -12.4490   19.9240 C   0  0  0  0  0  2  0  0  0  0  0  0
  -29.9790  -12.5250   18.6430 C   0  0  0  0  0  2  0  0  0  0  0  0
  -28.4840  -12.3610   18.9800 C   0  0  0  0  0  2  0  0  0  0  0  0
  -28.0430  -13.2410   20.1790 C   0  0  0  0  0  3  0  0  0  0  0  0
  -29.0290  -13.1470   21.3630 C   0  0  0  0  0  2  0  0  0  0  0  0
  -30.3580  -13.5010   20.8510 N   0  0  0  0  0  0  0  0  0  0  0  0
  -32.1900  -14.8140   20.7090 O   0  0  0  0  0  0  0  0  0  0  0  0
  -30.2160  -15.8640   21.1390 N   0  0  0  0  0  0  0  0  0  0  0  0
  -29.2330  -15.7200   21.2970 H   0  0  0  0  0  0  0  0  0  0  0  0
  -25.6320  -13.8410   20.8050 C   0  0  0  0  0  0  0  0  0  0  0  0
  -24.5380  -13.0730   21.0910 C   0  0  0  0  0  0  0  0  0  0  0  0
  -24.9810  -11.7150   21.0290 C   0  0  0  0  0  0  0  0  0  0  0  0
  -26.6720  -12.9550   20.5870 N   0  0  0  0  0  0  0  0  0  0  0  0
  -26.2860  -11.6680   20.7880 N   0  0  0  0  0  0  0  0  0  0  0  0
  -24.2250  -10.4600   21.1270 C   0  0  0  0  0  0  0  0  0  0  0  0
  -24.5850   -9.4510   22.0470 C   0  0  0  0  0  3  0  0  0  0  0  0
  -23.8330   -8.2600   22.1330 C   0  0  0  0  0  3  0  0  0  0  0  0
  -22.7050   -8.0720   21.2990 C   0  0  0  0  0  0  0  0  0  0  0  0
  -22.3650   -9.0690   20.3690 C   0  0  0  0  0  3  0  0  0  0  0  0
  -23.1180  -10.2510   20.2800 C   0  0  0  0  0  3  0  0  0  0  0  0
  -21.9300   -6.9360   21.2960 O   0  0  0  0  0  0  0  0  0  0  0  0
  -21.7790   -6.1660   22.4210 C   0  0  0  0  0  0  0  0  0  0  0  0
  -21.2470   -6.6910   23.6190 C   0  0  0  0  0  3  0  0  0  0  0  0
  -21.0440   -5.8470   24.7280 C   0  0  0  0  0  3  0  0  0  0  0  0
  -21.3620   -4.4780   24.6410 C   0  0  0  0  0  0  0  0  0  0  0  0
  -21.8850   -3.9520   23.4480 C   0  0  0  0  0  3  0  0  0  0  0  0
  -22.0900   -4.7930   22.3400 C   0  0  0  0  0  0  0  0  0  0  0  0
  -22.5750   -4.2770   21.1850 F   0  0  0  0  0  0  0  0  0  0  0  0
  -21.1610   -3.6650   25.7040 F   0  0  0  0  0  0  0  0  0  0  0  0
  -23.1340  -13.5650   21.3040 C   0  0  0  0  0  0  0  0  0  0  0  0
  -22.3510  -12.8560   22.1090 N   0  0  0  0  0  0  0  0  0  0  0  0
  -22.7410  -14.6120   20.7920 O   0  0  0  0  0  0  0  0  0  0  0  0
  -22.6810  -12.0080   22.5450 H   0  0  0  0  0  0  0  0  0  0  0  0
  -21.4090  -13.1700   22.2960 H   0  0  0  0  0  0  0  0  0  0  0  0
  -25.8240  -15.2140   20.6820 N   0  0  0  0  0  0  0  0  0  0  0  0
  -25.0390  -15.8540   20.7190 H   0  0  0  0  0  0  0  0  0  0  0  0
  -26.6430  -15.6200   20.2490 H   0  0  0  0  0  0  0  0  0  0  0  0
  1  3  1  0
  2  6  1  0
  2  1  2  0
  3  7  2  0
  3 54  1  0
  4  8  1  0
  4  7  1  0
  5  2  1  0
  6  4  2  0
  8 11  1  0
  8  9  1  0
 11 10  1  0
 12 13  1  0
 12 11  1  0
 14 25  2  0
 15 13  1  0
 15 20  1  0
 16 24  1  0
 16 26  1  0
 17 19  1  0
 18 24  1  0
 19 20  2  0
 19 18  1  0
 21 15  2  0
 22 21  1  0
 22 17  2  0
 23 17  1  0
 23 16  1  0
 24 14  1  0
 26 28  2  0
 27 26  1  0
 29 27  1  0
 30 39  2  0
 30 35  1  0
 31 27  1  0
 31 35  1  0
 32 31  1  0
 33 34  1  0
 33 32  1  0
 34 30  1  0
 35 36  2  0
 36 37  1  0
 38 37  2  0
 39 38  1  0
 40 14  1  0
 40 45  1  0
 40 41  1  0
 41 44  1  1
 41 42  1  0
 43 41  1  0
 45 48  1  0
 46 50  1  0
 46 45  1  0
 47 46  2  0
 50 49  1  0
 52 50  1  0
 52 53  1  0
 52 51  1  0
 54 63  1  0
 55 63  1  0
 56 61  1  0
 57 58  1  0
 57 56  1  0
 59 58  1  0
 59 68  1  0
 59 60  1  0
 61 55  1  0
 61 60  1  0
 62 55  2  0
 63 64  1  0
 65 66  2  0
 66 85  1  0
 67 66  1  0
 67 70  1  0
 68 69  1  0
 68 65  1  0
 69 67  2  0
 70 71  1  0
 71 72  2  0
 73 72  1  0
 74 73  2  0
 75 74  1  0
 75 70  2  0
 76 73  1  0
 76 77  1  0
 77 78  1  0
 78 79  2  0
 80 79  1  0
 80 84  1  0
 81 80  2  0
 82 77  2  0
 82 81  1  0
 83 82  1  0
 85 86  1  0
 86 89  1  0
 86 88  1  0
 87 85  2  0
 90 91  1  0
 90 65  1  0
 92 90  1  0
M  ISO  4  12 101  13 101  55 100  63 100
M  END
>  <TORSDO>  (19) 
F 19

>  <SCORE>  (19) 
-12.839

>  <name>  (19) 
18

>  <ligand_id>  (19) 
18

>  <original_smiles>  (19) 
[H]c1c(C([H])([H])[H])nc(N([H])C([H])(C([H])([H])[H])C([H])([H])Oc2c([H])c([H])c3c(c2[H])C([H])([H])N(C(=O)C([H])(N([H])C(=O)C([H])(N([H])C([H])([H])[H])C([H])([H])[H])C(C([H])([H])[H])(C([H])([H])[H])C([H])([H])[H])C([H])(C(=O)N([H])C2([H])c4c([H])c([H])c([H])c([H])c4C([H])([H])C([H])([H])C2([H])[H])C3([H])[H])nc1C([H])([H])N([H])C(=O)N1C([H])([H])C([H])([H])C([H])([H])C([H])(n2nc(-c3c([H])c([H])c(Oc4c([H])c([H])c(F)c([H])c4F)c([H])c3[H])c(C(=O)N([H])[H])c2N([H])[H])C1([H])[H]

>  <smiles>  (19) 
[H]c1c(C([H])([H])[H])nc(N([H])C([H])(C([H])([H])[H])C([H])([H])Oc2c([H])c([H])c3c(c2[H])C([H])([H])N(C(=O)C([H])(N([H])C(=O)C([H])(N([H])C([H])([H])[H])C([H])([H])[H])C(C([H])([H])[H])(C([H])([H])[H])C([H])([H])[H])C([H])(C(=O)N([H])C2([H])c4c([H])c([H])c([H])c([H])c4C([H])([H])C([H])([H])C2([H])[H])C3([H])[H])nc1C([H])([H])N([H])C(=O)N1C([H])([H])C([H])([H])C([H])([H])C([H])(n2nc(-c3c([H])c([H])c(Oc4c([H])c([H])c(F)c([H])c4F)c([H])c3[H])c(C(=O)N([H])[H])c2N([H])[H])C1([H])[H]

$$$$
19:0:0
     RDKit          3D

 94102  0  0  1  0  0  0  0  0999 V2000
  -30.6090  -14.6990   20.4240 C   0  0  0  0  0  0  0  0  0  0  0  0
  -30.4330  -12.4500   19.3590 C   0  0  0  0  0  2  0  0  0  0  0  0
  -29.5050  -12.5930   18.1290 C   0  0  0  0  0  2  0  0  0  0  0  0
  -28.0220  -12.4480   18.5340 C   0  0  0  0  0  2  0  0  0  0  0  0
  -27.6600  -13.2990   19.7810 C   0  0  0  0  0  3  0  0  0  0  0  0
  -28.7000  -13.1070   20.9070 C   0  0  0  0  0  2  0  0  0  0  0  0
  -30.0150  -13.4600   20.3540 N   0  0  0  0  0  0  0  0  0  0  0  0
  -31.7730  -14.8540   20.0360 O   0  0  0  0  0  0  0  0  0  0  0  0
  -29.6930  -19.3030   21.4570 C   0  0  0  0  0  3  0  0  0  0  0  0
  -29.2810  -19.8860   20.2270 C   0  0  0  0  0  0  0  0  0  0  0  0
  -29.1300  -18.8980   19.2220 C   0  0  0  0  0  0  0  0  0  0  0  0
  -29.7810  -17.1300   20.5810 C   0  0  0  0  0  0  0  0  0  0  0  0
  -29.9170  -17.9610   21.6260 N   0  0  0  0  0  0  0  0  0  0  0  0
  -29.3600  -17.5710   19.3870 N   0  0  0  0  0  0  0  0  0  0  0  0
  -28.6710  -19.2860   17.9690 N   0  0  0  0  0  0  0  0  0  0  0  0
  -29.7990  -15.7380   20.8290 N   0  0  0  0  0  0  0  0  0  0  0  0
  -28.8350  -20.2510   17.7230 H   0  0  0  0  0  0  0  0  0  0  0  0
  -28.8050  -18.6380   17.2060 H   0  0  0  0  0  0  0  0  0  0  0  0
  -28.9350  -15.4080   21.2250 H   0  0  0  0  0  0  0  0  0  0  0  0
  -25.2660  -13.9270   20.4650 C   0  0  0  0  0  0  0  0  0  0  0  0
  -24.1860  -13.1690   20.8290 C   0  0  0  0  0  0  0  0  0  0  0  0
  -24.6330  -11.8120   20.8110 C   0  0  0  0  0  0  0  0  0  0  0  0
  -26.3020  -13.0340   20.2480 N   0  0  0  0  0  0  0  0  0  0  0  0
  -25.9260  -11.7570   20.5150 N   0  0  0  0  0  0  0  0  0  0  0  0
  -23.8920  -10.5590   21.0020 C   0  0  0  0  0  0  0  0  0  0  0  0
  -24.3050   -9.5930   21.9470 C   0  0  0  0  0  3  0  0  0  0  0  0
  -23.5650   -8.4040   22.1240 C   0  0  0  0  0  3  0  0  0  0  0  0
  -22.3980   -8.1740   21.3590 C   0  0  0  0  0  0  0  0  0  0  0  0
  -22.0030   -9.1290   20.4070 C   0  0  0  0  0  3  0  0  0  0  0  0
  -22.7420  -10.3090   20.2260 C   0  0  0  0  0  3  0  0  0  0  0  0
  -21.6290   -7.0380   21.4470 O   0  0  0  0  0  0  0  0  0  0  0  0
  -21.5600   -6.3040   22.6030 C   0  0  0  0  0  0  0  0  0  0  0  0
  -21.1180   -6.8670   23.8200 C   0  0  0  0  0  3  0  0  0  0  0  0
  -20.9970   -6.0580   24.9670 C   0  0  0  0  0  3  0  0  0  0  0  0
  -21.3050   -4.6860   24.8970 C   0  0  0  0  0  0  0  0  0  0  0  0
  -21.7380   -4.1220   23.6830 C   0  0  0  0  0  3  0  0  0  0  0  0
  -21.8600   -4.9280   22.5390 C   0  0  0  0  0  0  0  0  0  0  0  0
  -22.2600   -4.3750   21.3680 F   0  0  0  0  0  0  0  0  0  0  0  0
  -21.1810   -3.9050   25.9950 F   0  0  0  0  0  0  0  0  0  0  0  0
  -22.7910  -13.6650   21.0790 C   0  0  0  0  0  0  0  0  0  0  0  0
  -22.0430  -12.9820   21.9390 N   0  0  0  0  0  0  0  0  0  0  0  0
  -22.3730  -14.6930   20.5480 O   0  0  0  0  0  0  0  0  0  0  0  0
  -22.3940  -12.1540   22.3980 H   0  0  0  0  0  0  0  0  0  0  0  0
  -21.1040  -13.2940   22.1430 H   0  0  0  0  0  0  0  0  0  0  0  0
  -25.4480  -15.2920   20.2750 N   0  0  0  0  0  0  0  0  0  0  0  0
  -24.6750  -15.9450   20.3460 H   0  0  0  0  0  0  0  0  0  0  0  0
  -26.2780  -15.7060   19.8710 H   0  0  0  0  0  0  0  0  0  0  0  0
  -28.9860  -21.2720   19.9200 N   0  0  0  0  0  0  0  0  0  0  0  0
  -28.4570  -21.3840   19.0570 H   0  0  0  0  0  0  0  0  0  0  0  0
  -30.4660  -22.6760   21.3570 C   0  0  0  0  0  1  0  0  0  0  0  0
  -29.0510  -22.5060   20.7720 C   0  0  0  0  0  3  0  0  0  0  0  0
  -28.6360  -23.8630   20.0080 C   0  0  0  0  0  2  0  0  0  0  0  0
  -28.3390  -25.1880   20.8530 C   0  0  0  0  0  2  0  0  0  0  0  0
  -28.4410  -26.5280   20.2310 O   0  0  0  0  0  0  0  0  0  0  0  0
  -24.6160  -31.8680   23.2320 C   0  0  0  0  0  0  0  0  0  0  0  0
  -27.3100  -27.3470   20.2230 C   0  0  0  0  0  0  0  0  0  0  0  0
  -23.4470  -30.4610   21.5730 C   0  0  0  0  0  3  0  0  0  0  0  0
  -24.9290  -28.9160   20.1730 C   0  0  0  0  0  0  0  0  0  0  0  0
  -25.9820  -30.8080   21.4180 C   0  0  0  0  0  2  0  0  0  0  0  0
  -26.0840  -29.4300   20.7780 C   0  0  0  0  0  0  0  0  0  0  0  0
  -27.2820  -28.6570   20.7900 C   0  0  0  0  0  3  0  0  0  0  0  0
  -26.1350  -26.8750   19.6040 C   0  0  0  0  0  3  0  0  0  0  0  0
  -24.9550  -27.6440   19.5780 C   0  0  0  0  0  3  0  0  0  0  0  0
  -23.6850  -29.7820   20.1980 C   0  0  0  0  0  2  0  0  0  0  0  0
  -24.7010  -31.0630   22.1330 N   0  0  0  0  0  0  0  0  0  0  0  0
  -23.5240  -32.1340   23.7550 O   0  0  0  0  0  0  0  0  0  0  0  0
  -22.7800  -29.4390   22.5250 C   0  0  0  0  0  0  0  0  0  0  0  0
  -21.4530  -29.2710   22.3970 N   0  0  0  0  0  0  0  0  0  0  0  0
  -23.4560  -28.8010   23.3370 O   0  0  0  0  0  0  0  0  0  0  0  0
  -20.9690  -29.8370   21.7150 H   0  0  0  0  0  0  0  0  0  0  0  0
  -18.0660  -28.1030   22.9010 C   0  0  0  0  0  0  0  0  0  0  0  0
  -20.6290  -28.3290   23.1580 C   0  0  0  0  0  3  0  0  0  0  0  0
  -20.7110  -26.9060   22.5580 C   0  0  0  0  0  2  0  0  0  0  0  0
  -19.5980  -26.6120   21.5470 C   0  0  0  0  0  2  0  0  0  0  0  0
  -18.2230  -26.7640   22.2030 C   0  0  0  0  0  2  0  0  0  0  0  0
  -19.1960  -28.8450   23.3360 C   0  0  0  0  0  0  0  0  0  0  0  0
  -18.9960  -30.1020   23.9500 C   0  0  0  0  0  3  0  0  0  0  0  0
  -17.6980  -30.6140   24.1340 C   0  0  0  0  0  3  0  0  0  0  0  0
  -16.5820  -29.8680   23.7140 C   0  0  0  0  0  3  0  0  0  0  0  0
  -16.7670  -28.6150   23.1030 C   0  0  0  0  0  3  0  0  0  0  0  0
  -25.8860  -32.5090   23.8740 C   0  0  0  0  0  3  0  0  0  0  0  0
  -26.3750  -31.7530   25.1700 C   0  0  1  0  0  0  0  0  0  0  0  0
  -25.2600  -31.5290   26.2190 C   0  0  0  0  0  1  0  0  0  0  0  0
  -26.9670  -30.3730   24.8040 C   0  0  0  0  0  1  0  0  0  0  0  0
  -27.5110  -32.5560   25.8460 C   0  0  0  0  0  1  0  0  0  0  0  0
  -25.5670  -33.9090   24.1840 N   0  0  0  0  0  0  0  0  0  0  0  0
  -25.9110  -34.9570   23.4220 C   0  0  0  0  0  0  0  0  0  0  0  0
  -26.6000  -34.8450   22.4050 O   0  0  0  0  0  0  0  0  0  0  0  0
  -24.9600  -34.0670   24.9740 H   0  0  0  0  0  0  0  0  0  0  0  0
  -24.1920  -36.7470   23.0140 C   0  0  0  0  0  1  0  0  0  0  0  0
  -25.4130  -36.3490   23.8590 C   0  0  0  0  0  3  0  0  0  0  0  0
  -27.5240  -37.2420   24.7380 C   0  0  0  0  0  1  0  0  0  0  0  0
  -26.4480  -37.4010   23.7650 N   0  0  0  0  0  0  0  0  0  0  0  0
  -26.0380  -38.3230   23.8920 H   0  0  0  0  0  0  0  0  0  0  0  0
  1 16  1  0
  2  7  1  0
  3  4  1  0
  3  2  1  0
  5  4  1  0
  5 23  1  0
  5  6  1  0
  7  1  1  0
  7  6  1  0
  8  1  2  0
  9 13  1  0
 10  9  2  0
 11 14  2  0
 11 10  1  0
 12 16  1  0
 12 13  2  0
 14 12  1  0
 15 11  1  0
 16 19  1  0
 17 15  1  0
 18 15  1  0
 20 21  2  0
 21 40  1  0
 22 21  1  0
 22 25  1  0
 23 20  1  0
 23 24  1  0
 24 22  2  0
 25 26  1  0
 26 27  2  0
 28 31  1  0
 28 27  1  0
 29 28  2  0
 30 29  1  0
 30 25  2  0
 31 32  1  0
 32 33  1  0
 33 34  2  0
 35 34  1  0
 35 39  1  0
 36 35  2  0
 37 32  2  0
 37 36  1  0
 38 37  1  0
 40 41  1  0
 41 44  1  0
 41 43  1  0
 42 40  2  0
 45 46  1  0
 45 20  1  0
 47 45  1  0
 48 10  1  0
 48 51  1  0
 49 48  1  0
 51 50  1  0
 52 51  1  0
 52 53  1  0
 54 53  1  0
 55 66  2  0
 56 54  1  0
 56 61  1  0
 57 65  1  0
 57 67  1  0
 58 64  1  0
 58 60  1  0
 59 65  1  0
 60 61  2  0
 60 59  1  0
 62 56  2  0
 63 62  1  0
 63 58  2  0
 64 57  1  0
 65 55  1  0
 67 69  2  0
 68 67  1  0
 70 68  1  0
 71 80  2  0
 71 76  1  0
 72 68  1  0
 72 76  1  0
 73 72  1  0
 74 75  1  0
 74 73  1  0
 75 71  1  0
 76 77  2  0
 77 78  1  0
 79 78  2  0
 80 79  1  0
 81 55  1  0
 81 86  1  0
 81 82  1  0
 82 85  1  1
 82 83  1  0
 84 82  1  0
 86 89  1  0
 87 91  1  0
 87 86  1  0
 88 87  2  0
 91 90  1  0
 93 91  1  0
 93 94  1  0
 93 92  1  0
M  ISO  4   1 100  16 100  53 101  54 101
M  END
>  <TORSDO>  (20) 
F 19

>  <SCORE>  (20) 
-13.942

>  <name>  (20) 
19

>  <ligand_id>  (20) 
19

>  <original_smiles>  (20) 
[H]c1nc(N([H])C(=O)N2C([H])([H])C([H])([H])C([H])([H])C([H])(n3nc(-c4c([H])c([H])c(Oc5c([H])c([H])c(F)c([H])c5F)c([H])c4[H])c(C(=O)N([H])[H])c3N([H])[H])C2([H])[H])nc(N([H])[H])c1N([H])C([H])(C([H])([H])[H])C([H])([H])C([H])([H])Oc1c([H])c([H])c2c(c1[H])C([H])([H])N(C(=O)C([H])(N([H])C(=O)C([H])(N([H])C([H])([H])[H])C([H])([H])[H])C(C([H])([H])[H])(C([H])([H])[H])C([H])([H])[H])C([H])(C(=O)N([H])C1([H])c3c([H])c([H])c([H])c([H])c3C([H])([H])C([H])([H])C1([H])[H])C2([H])[H]

>  <smiles>  (20) 
[H]c1nc(N([H])C(=O)N2C([H])([H])C([H])([H])C([H])([H])C([H])(n3nc(-c4c([H])c([H])c(Oc5c([H])c([H])c(F)c([H])c5F)c([H])c4[H])c(C(=O)N([H])[H])c3N([H])[H])C2([H])[H])nc(N([H])[H])c1N([H])C([H])(C([H])([H])[H])C([H])([H])C([H])([H])Oc1c([H])c([H])c2c(c1[H])C([H])([H])N(C(=O)C([H])(N([H])C(=O)C([H])(N([H])C([H])([H])[H])C([H])([H])[H])C(C([H])([H])[H])(C([H])([H])[H])C([H])([H])[H])C([H])(C(=O)N([H])C1([H])c3c([H])c([H])c([H])c([H])c3C([H])([H])C([H])([H])C1([H])[H])C2([H])[H]

$$$$
20:0:0
     RDKit          3D

 92100  0  0  1  0  0  0  0  0999 V2000
  -29.2470  -22.4600   20.2920 N   0  0  0  0  0  4  0  0  0  0  0  0
  -30.0670  -22.6880   19.7510 H   0  0  0  0  0  0  0  0  0  0  0  0
  -29.6130  -22.1500   21.1780 H   0  0  0  0  0  0  0  0  0  0  0  0
  -27.2460  -20.7870   20.1240 C   0  0  0  0  0  1  0  0  0  0  0  0
  -28.6940  -21.1370   19.6900 C   0  0  0  0  0  3  0  0  0  0  0  0
  -30.8130  -14.9670   20.1610 C   0  0  0  0  0  0  0  0  0  0  0  0
  -30.6640  -12.6410   19.2770 C   0  0  0  0  0  2  0  0  0  0  0  0
  -29.7320  -12.6480   18.0410 C   0  0  0  0  0  2  0  0  0  0  0  0
  -28.2590  -12.4870   18.4720 C   0  0  0  0  0  2  0  0  0  0  0  0
  -27.8790  -13.4390   19.6380 C   0  0  0  0  0  3  0  0  0  0  0  0
  -28.9240  -13.3860   20.7720 C   0  0  0  0  0  2  0  0  0  0  0  0
  -30.2220  -13.7260   20.1750 N   0  0  0  0  0  0  0  0  0  0  0  0
  -32.0070  -15.0630   19.8500 O   0  0  0  0  0  0  0  0  0  0  0  0
  -31.0050  -19.8310   19.5470 C   0  0  0  0  0  3  0  0  0  0  0  0
  -29.6510  -19.8540   19.8210 C   0  0  0  0  0  0  0  0  0  0  0  0
  -30.1970  -17.5150   20.0610 C   0  0  0  0  0  0  0  0  0  0  0  0
  -29.2180  -18.4870   20.0640 N   0  0  0  0  0  0  0  0  0  0  0  0
  -29.9750  -16.0700   20.2910 N   0  0  0  0  0  0  0  0  0  0  0  0
  -31.7590  -18.2430   19.7130 S   0  0  0  0  0  0  0  0  0  0  0  0
  -29.0190  -15.8300   20.5000 H   0  0  0  0  0  0  0  0  0  0  0  0
  -25.5200  -14.0910   20.3980 C   0  0  0  0  0  0  0  0  0  0  0  0
  -24.4420  -13.3410   20.7790 C   0  0  0  0  0  0  0  0  0  0  0  0
  -24.8730  -11.9800   20.7400 C   0  0  0  0  0  0  0  0  0  0  0  0
  -26.5360  -13.1840   20.1410 N   0  0  0  0  0  0  0  0  0  0  0  0
  -26.1570  -11.9100   20.4130 N   0  0  0  0  0  0  0  0  0  0  0  0
  -24.1240  -10.7340   20.9390 C   0  0  0  0  0  0  0  0  0  0  0  0
  -24.5210   -9.7790   21.9000 C   0  0  0  0  0  3  0  0  0  0  0  0
  -23.7720   -8.5980   22.0820 C   0  0  0  0  0  3  0  0  0  0  0  0
  -22.6140   -8.3640   21.3060 C   0  0  0  0  0  0  0  0  0  0  0  0
  -22.2370   -9.3080   20.3350 C   0  0  0  0  0  3  0  0  0  0  0  0
  -22.9850  -10.4810   20.1500 C   0  0  0  0  0  3  0  0  0  0  0  0
  -21.8390   -7.2350   21.3990 O   0  0  0  0  0  0  0  0  0  0  0  0
  -21.7230   -6.5360   22.5730 C   0  0  0  0  0  0  0  0  0  0  0  0
  -21.1860   -7.1230   23.7400 C   0  0  0  0  0  3  0  0  0  0  0  0
  -21.0210   -6.3460   24.9040 C   0  0  0  0  0  3  0  0  0  0  0  0
  -21.3820   -4.9860   24.9010 C   0  0  0  0  0  0  0  0  0  0  0  0
  -21.9130   -4.4010   23.7380 C   0  0  0  0  0  3  0  0  0  0  0  0
  -22.0800   -5.1730   22.5770 C   0  0  0  0  0  0  0  0  0  0  0  0
  -22.5720   -4.5990   21.4520 F   0  0  0  0  0  0  0  0  0  0  0  0
  -21.2150   -4.2370   26.0160 F   0  0  0  0  0  0  0  0  0  0  0  0
  -23.0620  -13.8500   21.0680 C   0  0  0  0  0  0  0  0  0  0  0  0
  -22.3370  -13.1800   21.9550 N   0  0  0  0  0  0  0  0  0  0  0  0
  -22.6380  -14.8780   20.5400 O   0  0  0  0  0  0  0  0  0  0  0  0
  -22.6960  -12.3510   22.4070 H   0  0  0  0  0  0  0  0  0  0  0  0
  -21.4090  -13.5010   22.1920 H   0  0  0  0  0  0  0  0  0  0  0  0
  -25.7120  -15.4580   20.2330 N   0  0  0  0  0  0  0  0  0  0  0  0
  -24.9520  -16.1130   20.3720 H   0  0  0  0  0  0  0  0  0  0  0  0
  -26.5520  -15.9000   19.8890 H   0  0  0  0  0  0  0  0  0  0  0  0
  -27.0960  -23.6670   21.2340 C   0  0  0  0  0  1  0  0  0  0  0  0
  -28.5090  -23.8060   20.6420 C   0  0  0  0  0  3  0  0  0  0  0  0
  -28.6380  -25.1480   19.7310 C   0  0  0  0  0  2  0  0  0  0  0  0
  -28.5140  -26.5310   20.3370 O   0  0  0  0  0  0  0  0  0  0  0  0
  -24.5600  -31.8520   23.2760 C   0  0  0  0  0  0  0  0  0  0  0  0
  -27.3790  -27.3760   20.2290 C   0  0  0  0  0  0  0  0  0  0  0  0
  -23.4620  -30.4870   21.5420 C   0  0  0  0  0  3  0  0  0  0  0  0
  -25.0060  -29.0020   20.1400 C   0  0  0  0  0  0  0  0  0  0  0  0
  -26.0060  -30.8360   21.4950 C   0  0  0  0  0  2  0  0  0  0  0  0
  -26.1340  -29.4720   20.8150 C   0  0  0  0  0  0  0  0  0  0  0  0
  -27.3190  -28.6700   20.8550 C   0  0  0  0  0  3  0  0  0  0  0  0
  -26.2220  -26.9720   19.5260 C   0  0  0  0  0  3  0  0  0  0  0  0
  -25.0550  -27.7650   19.4790 C   0  0  0  0  0  3  0  0  0  0  0  0
  -23.7650  -29.8720   20.1480 C   0  0  0  0  0  2  0  0  0  0  0  0
  -24.6940  -31.0740   22.1630 N   0  0  0  0  0  0  0  0  0  0  0  0
  -23.4480  -32.0890   23.7680 O   0  0  0  0  0  0  0  0  0  0  0  0
  -22.7760  -29.4260   22.4360 C   0  0  0  0  0  0  0  0  0  0  0  0
  -21.4560  -29.2420   22.2640 N   0  0  0  0  0  0  0  0  0  0  0  0
  -23.4320  -28.7780   23.2590 O   0  0  0  0  0  0  0  0  0  0  0  0
  -20.9810  -29.8130   21.5760 H   0  0  0  0  0  0  0  0  0  0  0  0
  -18.0750  -28.0140   22.6540 C   0  0  0  0  0  0  0  0  0  0  0  0
  -20.6290  -28.2700   22.9810 C   0  0  0  0  0  3  0  0  0  0  0  0
  -20.7490  -26.8670   22.3460 C   0  0  0  0  0  2  0  0  0  0  0  0
  -19.6690  -26.5780   21.3030 C   0  0  0  0  0  2  0  0  0  0  0  0
  -18.2720  -26.6960   21.9240 C   0  0  0  0  0  2  0  0  0  0  0  0
  -19.1840  -28.7570   23.1410 C   0  0  0  0  0  0  0  0  0  0  0  0
  -18.9540  -29.9880   23.7920 C   0  0  0  0  0  3  0  0  0  0  0  0
  -17.6480  -30.4800   23.9610 C   0  0  0  0  0  3  0  0  0  0  0  0
  -16.5520  -29.7350   23.4920 C   0  0  0  0  0  3  0  0  0  0  0  0
  -16.7640  -28.5050   22.8450 C   0  0  0  0  0  3  0  0  0  0  0  0
  -25.7930  -32.5040   23.9700 C   0  0  0  0  0  3  0  0  0  0  0  0
  -26.2110  -31.7730   25.3060 C   0  0  1  0  0  0  0  0  0  0  0  0
  -25.0370  -31.5710   26.2920 C   0  0  0  0  0  1  0  0  0  0  0  0
  -26.8260  -30.3870   25.0020 C   0  0  0  0  0  1  0  0  0  0  0  0
  -27.3030  -32.5950   26.0340 C   0  0  0  0  0  1  0  0  0  0  0  0
  -25.4670  -33.9080   24.2410 N   0  0  0  0  0  0  0  0  0  0  0  0
  -25.8380  -34.9400   23.4750 C   0  0  0  0  0  0  0  0  0  0  0  0
  -26.5620  -34.8080   22.4830 O   0  0  0  0  0  0  0  0  0  0  0  0
  -24.8440  -34.0900   25.0160 H   0  0  0  0  0  0  0  0  0  0  0  0
  -24.1380  -36.7240   22.9760 C   0  0  0  0  0  1  0  0  0  0  0  0
  -25.3260  -36.3380   23.8700 C   0  0  0  0  0  3  0  0  0  0  0  0
  -27.3980  -37.2560   24.8120 C   0  0  0  0  0  1  0  0  0  0  0  0
  -26.3640  -37.3880   23.7940 N   0  0  0  0  0  0  0  0  0  0  0  0
  -25.9470  -38.3110   23.8900 H   0  0  0  0  0  0  0  0  0  0  0  0
  1 50  1  0
  1  3  1  0
  2  1  1  0
  5 15  1  0
  5  4  1  0
  5  1  1  0
  6 12  1  0
  6 18  1  0
  7 12  1  0
  8  9  1  0
  8  7  1  0
 10  9  1  0
 10 24  1  0
 10 11  1  0
 12 11  1  0
 13  6  2  0
 14 19  1  0
 14 15  2  0
 15 17  1  0
 16 17  2  0
 16 18  1  0
 18 20  1  0
 19 16  1  0
 21 22  2  0
 22 41  1  0
 23 22  1  0
 23 26  1  0
 24 21  1  0
 24 25  1  0
 25 23  2  0
 26 27  1  0
 27 28  2  0
 29 32  1  0
 29 28  1  0
 30 29  2  0
 31 30  1  0
 31 26  2  0
 32 33  1  0
 33 38  2  0
 33 34  1  0
 34 35  2  0
 36 35  1  0
 36 40  1  0
 37 36  2  0
 38 37  1  0
 39 38  1  0
 41 42  1  0
 42 45  1  0
 42 44  1  0
 43 41  2  0
 46 47  1  0
 46 21  1  0
 48 46  1  0
 50 49  1  0
 51 52  1  0
 51 50  1  0
 53 64  2  0
 54 52  1  0
 54 59  1  0
 55 63  1  0
 55 65  1  0
 56 62  1  0
 56 58  1  0
 57 63  1  0
 58 59  2  0
 58 57  1  0
 60 54  2  0
 61 60  1  0
 61 56  2  0
 62 55  1  0
 63 53  1  0
 65 67  2  0
 66 65  1  0
 68 66  1  0
 69 78  2  0
 69 74  1  0
 70 66  1  0
 70 74  1  0
 71 70  1  0
 72 73  1  0
 72 71  1  0
 73 69  1  0
 74 75  2  0
 75 76  1  0
 77 76  2  0
 78 77  1  0
 79 53  1  0
 79 84  1  0
 79 80  1  0
 80 83  1  1
 80 81  1  0
 82 80  1  0
 84 87  1  0
 85 89  1  0
 85 84  1  0
 86 85  2  0
 89 88  1  0
 91 89  1  0
 91 92  1  0
 91 90  1  0
M  ISO  4   6 100  18 100  51 101  52 101
M  END
>  <TORSDO>  (21) 
F 19

>  <SCORE>  (21) 
-13.614

>  <name>  (21) 
20

>  <ligand_id>  (21) 
20

>  <original_smiles>  (21) 
[H]c1sc(N([H])C(=O)N2C([H])([H])C([H])([H])C([H])([H])C([H])(n3nc(-c4c([H])c([H])c(Oc5c([H])c([H])c(F)c([H])c5F)c([H])c4[H])c(C(=O)N([H])[H])c3N([H])[H])C2([H])[H])nc1C([H])(C([H])([H])[H])[N+]([H])([H])C([H])(C([H])([H])[H])C([H])([H])Oc1c([H])c([H])c2c(c1[H])C([H])([H])N(C(=O)C([H])(N([H])C(=O)C([H])(N([H])C([H])([H])[H])C([H])([H])[H])C(C([H])([H])[H])(C([H])([H])[H])C([H])([H])[H])C([H])(C(=O)N([H])C1([H])c3c([H])c([H])c([H])c([H])c3C([H])([H])C([H])([H])C1([H])[H])C2([H])[H]

>  <smiles>  (21) 
[H]c1sc(N([H])C(=O)N2C([H])([H])C([H])([H])C([H])([H])C([H])(n3nc(-c4c([H])c([H])c(Oc5c([H])c([H])c(F)c([H])c5F)c([H])c4[H])c(C(=O)N([H])[H])c3N([H])[H])C2([H])[H])nc1C([H])(C([H])([H])[H])[N+]([H])([H])C([H])(C([H])([H])[H])C([H])([H])Oc1c([H])c([H])c2c(c1[H])C([H])([H])N(C(=O)C([H])(N([H])C(=O)C([H])(N([H])C([H])([H])[H])C([H])([H])[H])C(C([H])([H])[H])(C([H])([H])[H])C([H])([H])[H])C([H])(C(=O)N([H])C1([H])c3c([H])c([H])c([H])c([H])c3C([H])([H])C([H])([H])C1([H])[H])C2([H])[H]

$$$$
21:0:0
     RDKit          3D

 94102  0  0  1  0  0  0  0  0999 V2000
  -29.5650  -18.5320   20.0980 C   0  0  0  0  0  0  0  0  0  0  0  0
  -27.4930  -19.1330   19.5960 C   0  0  0  0  0  0  0  0  0  0  0  0
  -28.9570  -20.7720   19.9360 C   0  0  0  0  0  0  0  0  0  0  0  0
  -28.3330  -18.1340   19.8080 N   0  0  0  0  0  4  0  0  0  0  0  0
  -29.9340  -19.8530   20.1930 N   0  0  0  0  0  0  0  0  0  0  0  0
  -27.7090  -20.4460   19.6260 N   0  0  0  0  0  2  0  0  0  0  0  0
  -26.2320  -18.7310   19.2710 N   0  0  0  0  0  0  0  0  0  0  0  0
  -29.2450  -22.1840   20.0920 N   0  0  0  0  0  0  0  0  0  0  0  0
  -25.4860  -19.4080   19.3680 H   0  0  0  0  0  0  0  0  0  0  0  0
  -25.9780  -17.7800   19.5070 H   0  0  0  0  0  0  0  0  0  0  0  0
  -30.1980  -22.3090   20.4050 H   0  0  0  0  0  0  0  0  0  0  0  0
  -29.6310  -23.8280   18.2390 C   0  0  0  0  0  1  0  0  0  0  0  0
  -28.7000  -23.4560   19.4160 C   0  0  0  0  0  3  0  0  0  0  0  0
  -28.3450  -24.7910   20.3280 C   0  0  0  0  0  2  0  0  0  0  0  0
  -28.4630  -26.2640   19.9600 O   0  0  0  0  0  0  0  0  0  0  0  0
  -24.5760  -31.6310   23.1080 C   0  0  0  0  0  0  0  0  0  0  0  0
  -27.3480  -27.1390   19.9950 C   0  0  0  0  0  0  0  0  0  0  0  0
  -23.4580  -30.2570   21.3920 C   0  0  0  0  0  3  0  0  0  0  0  0
  -24.9780  -28.7660   19.9690 C   0  0  0  0  0  0  0  0  0  0  0  0
  -26.0040  -30.6020   21.3110 C   0  0  0  0  0  2  0  0  0  0  0  0
  -26.1260  -29.2390   20.6200 C   0  0  0  0  0  0  0  0  0  0  0  0
  -27.3190  -28.4380   20.6160 C   0  0  0  0  0  3  0  0  0  0  0  0
  -26.1760  -26.7350   19.3300 C   0  0  0  0  0  3  0  0  0  0  0  0
  -25.0080  -27.5230   19.3160 C   0  0  0  0  0  3  0  0  0  0  0  0
  -23.7330  -29.6330   19.9990 C   0  0  0  0  0  2  0  0  0  0  0  0
  -24.6970  -30.8480   21.9930 N   0  0  0  0  0  0  0  0  0  0  0  0
  -23.4690  -31.8720   23.6120 O   0  0  0  0  0  0  0  0  0  0  0  0
  -22.7790  -29.2020   22.2990 C   0  0  0  0  0  0  0  0  0  0  0  0
  -21.4500  -29.0420   22.1600 N   0  0  0  0  0  0  0  0  0  0  0  0
  -23.4460  -28.5340   23.0930 O   0  0  0  0  0  0  0  0  0  0  0  0
  -20.9640  -29.6310   21.4980 H   0  0  0  0  0  0  0  0  0  0  0  0
  -18.0570  -27.8810   22.6450 C   0  0  0  0  0  0  0  0  0  0  0  0
  -20.6240  -28.0700   22.8820 C   0  0  0  0  0  3  0  0  0  0  0  0
  -20.6870  -26.6800   22.2110 C   0  0  0  0  0  2  0  0  0  0  0  0
  -19.5620  -26.4490   21.1990 C   0  0  0  0  0  2  0  0  0  0  0  0
  -18.1960  -26.5770   21.8760 C   0  0  0  0  0  2  0  0  0  0  0  0
  -19.2010  -28.5880   23.1030 C   0  0  0  0  0  0  0  0  0  0  0  0
  -19.0220  -29.8120   23.7870 C   0  0  0  0  0  3  0  0  0  0  0  0
  -17.7300  -30.3270   24.0130 C   0  0  0  0  0  3  0  0  0  0  0  0
  -16.6030  -29.6160   23.5660 C   0  0  0  0  0  3  0  0  0  0  0  0
  -16.7650  -28.3910   22.8940 C   0  0  0  0  0  3  0  0  0  0  0  0
  -25.8220  -32.2740   23.7870 C   0  0  0  0  0  3  0  0  0  0  0  0
  -26.2940  -31.4960   25.0760 C   0  0  1  0  0  0  0  0  0  0  0  0
  -25.1600  -31.2360   26.0960 C   0  0  0  0  0  1  0  0  0  0  0  0
  -26.9070  -30.1250   24.6990 C   0  0  0  0  0  1  0  0  0  0  0  0
  -27.4070  -32.2960   25.7940 C   0  0  0  0  0  1  0  0  0  0  0  0
  -25.4770  -33.6620   24.1230 N   0  0  0  0  0  0  0  0  0  0  0  0
  -25.8350  -34.7340   23.4020 C   0  0  0  0  0  0  0  0  0  0  0  0
  -26.5580  -34.6580   22.4050 O   0  0  0  0  0  0  0  0  0  0  0  0
  -24.8410  -33.7960   24.8950 H   0  0  0  0  0  0  0  0  0  0  0  0
  -24.0980  -36.5140   23.0040 C   0  0  0  0  0  1  0  0  0  0  0  0
  -25.3080  -36.1100   23.8600 C   0  0  0  0  0  3  0  0  0  0  0  0
  -27.3880  -37.0160   24.8030 C   0  0  0  0  0  1  0  0  0  0  0  0
  -26.3300  -37.1800   23.8070 N   0  0  0  0  0  0  0  0  0  0  0  0
  -25.9030  -38.0920   23.9470 H   0  0  0  0  0  0  0  0  0  0  0  0
  -30.6050  -17.3450   20.3510 C   0  0  0  0  0  2  0  0  0  0  0  0
  -30.8510  -14.7180   20.3580 C   0  0  0  0  0  0  0  0  0  0  0  0
  -30.5930  -12.4280   19.3800 C   0  0  0  0  0  2  0  0  0  0  0  0
  -29.6780  -12.5040   18.1390 C   0  0  0  0  0  2  0  0  0  0  0  0
  -28.2090  -12.3270   18.5580 C   0  0  0  0  0  2  0  0  0  0  0  0
  -27.8270  -13.2540   19.7410 C   0  0  0  0  0  3  0  0  0  0  0  0
  -28.8670  -13.2020   20.8810 C   0  0  0  0  0  2  0  0  0  0  0  0
  -30.1800  -13.5120   20.3030 N   0  0  0  0  0  0  0  0  0  0  0  0
  -32.0420  -14.7640   20.0440 O   0  0  0  0  0  0  0  0  0  0  0  0
  -30.1390  -15.8970   20.5530 N   0  0  0  0  0  0  0  0  0  0  0  0
  -29.1620  -15.8250   20.7900 H   0  0  0  0  0  0  0  0  0  0  0  0
  -25.4490  -13.8890   20.4420 C   0  0  0  0  0  0  0  0  0  0  0  0
  -24.3660  -13.1370   20.8000 C   0  0  0  0  0  0  0  0  0  0  0  0
  -24.8080  -11.7790   20.7990 C   0  0  0  0  0  0  0  0  0  0  0  0
  -26.4790  -12.9920   20.2260 N   0  0  0  0  0  0  0  0  0  0  0  0
  -26.1020  -11.7170   20.5080 N   0  0  0  0  0  0  0  0  0  0  0  0
  -24.0580  -10.5280   20.9920 C   0  0  0  0  0  0  0  0  0  0  0  0
  -24.4620   -9.5640   21.9420 C   0  0  0  0  0  3  0  0  0  0  0  0
  -23.7140   -8.3810   22.1210 C   0  0  0  0  0  3  0  0  0  0  0  0
  -22.5480   -8.1510   21.3550 C   0  0  0  0  0  0  0  0  0  0  0  0
  -22.1650   -9.1020   20.3940 C   0  0  0  0  0  3  0  0  0  0  0  0
  -22.9130  -10.2780   20.2110 C   0  0  0  0  0  3  0  0  0  0  0  0
  -21.7750   -7.0190   21.4460 O   0  0  0  0  0  0  0  0  0  0  0  0
  -21.6950   -6.2940   22.6090 C   0  0  0  0  0  0  0  0  0  0  0  0
  -21.2440   -6.8710   23.8160 C   0  0  0  0  0  3  0  0  0  0  0  0
  -21.1090   -6.0730   24.9690 C   0  0  0  0  0  3  0  0  0  0  0  0
  -21.4130   -4.7010   24.9160 C   0  0  0  0  0  0  0  0  0  0  0  0
  -21.8630   -4.1240   23.7150 C   0  0  0  0  0  3  0  0  0  0  0  0
  -22.0000   -4.9190   22.5640 C   0  0  0  0  0  0  0  0  0  0  0  0
  -22.4090   -4.3560   21.4010 F   0  0  0  0  0  0  0  0  0  0  0  0
  -21.2740   -3.9290   26.0210 F   0  0  0  0  0  0  0  0  0  0  0  0
  -22.9730  -13.6380   21.0440 C   0  0  0  0  0  0  0  0  0  0  0  0
  -22.2260  -12.9760   21.9210 N   0  0  0  0  0  0  0  0  0  0  0  0
  -22.5550  -14.6530   20.4880 O   0  0  0  0  0  0  0  0  0  0  0  0
  -22.5770  -12.1520   22.3880 H   0  0  0  0  0  0  0  0  0  0  0  0
  -21.2940  -13.3030   22.1300 H   0  0  0  0  0  0  0  0  0  0  0  0
  -25.6480  -15.2520   20.2520 N   0  0  0  0  0  0  0  0  0  0  0  0
  -24.8980  -15.9310   20.2980 H   0  0  0  0  0  0  0  0  0  0  0  0
  -26.5280  -15.6580   19.9570 H   0  0  0  0  0  0  0  0  0  0  0  0
  1  5  1  0
  1 56  1  0
  2  6  1  0
  2  4  2  0
  3  8  1  0
  3  5  2  0
  4  1  2  0
  6  3  1  0
  7  9  1  0
  7 10  1  0
  7  2  1  0
  8 11  1  0
 13 12  1  0
 13  8  1  0
 13 14  1  0
 15 17  1  0
 15 14  1  0
 16 27  2  0
 17 22  1  0
 18 26  1  0
 18 28  1  0
 19 25  1  0
 19 21  1  0
 20 26  1  0
 21 20  1  0
 22 21  2  0
 23 17  2  0
 24 23  1  0
 24 19  2  0
 25 18  1  0
 26 16  1  0
 28 30  2  0
 29 28  1  0
 31 29  1  0
 32 41  2  0
 32 37  1  0
 33 29  1  0
 33 37  1  0
 34 33  1  0
 35 36  1  0
 35 34  1  0
 36 32  1  0
 37 38  2  0
 38 39  1  0
 40 39  2  0
 41 40  1  0
 42 16  1  0
 42 47  1  0
 42 43  1  0
 43 46  1  1
 43 44  1  0
 45 43  1  0
 47 50  1  0
 48 52  1  0
 48 47  1  0
 49 48  2  0
 52 51  1  0
 54 52  1  0
 54 55  1  0
 54 53  1  0
 56 65  1  0
 57 65  1  0
 58 63  1  0
 59 60  1  0
 59 58  1  0
 61 60  1  0
 61 70  1  0
 61 62  1  0
 63 57  1  0
 63 62  1  0
 64 57  2  0
 65 66  1  0
 67 68  2  0
 68 87  1  0
 69 68  1  0
 69 72  1  0
 70 67  1  0
 70 71  1  0
 71 69  2  0
 72 73  1  0
 73 74  2  0
 75 78  1  0
 75 74  1  0
 76 75  2  0
 77 76  1  0
 77 72  2  0
 78 79  1  0
 79 80  1  0
 80 81  2  0
 82 81  1  0
 82 86  1  0
 83 82  2  0
 84 79  2  0
 84 83  1  0
 85 84  1  0
 87 88  1  0
 88 91  1  0
 88 90  1  0
 89 87  2  0
 92 93  1  0
 92 67  1  0
 94 92  1  0
M  ISO  4  14 101  15 101  57 100  65 100
M  END
>  <TORSDO>  (22) 
F 19

>  <SCORE>  (22) 
-13.900

>  <name>  (22) 
21

>  <ligand_id>  (22) 
21

>  <original_smiles>  (22) 
[H]c1c([H])c([H])c2c(c1[H])C([H])([H])C([H])([H])C([H])([H])C2([H])N([H])C(=O)C1([H])N(C(=O)C([H])(N([H])C(=O)C([H])(N([H])C([H])([H])[H])C([H])([H])[H])C(C([H])([H])[H])(C([H])([H])[H])C([H])([H])[H])C([H])([H])c2c([H])c(OC([H])([H])C([H])(N([H])c3nc(N([H])[H])nc(C([H])([H])N([H])C(=O)N4C([H])([H])C([H])([H])C([H])([H])C([H])(n5nc(-c6c([H])c([H])c(Oc7c([H])c([H])c(F)c([H])c7F)c([H])c6[H])c(C(=O)N([H])[H])c5N([H])[H])C4([H])[H])n3)C([H])([H])[H])c([H])c([H])c2C1([H])[H]

>  <smiles>  (22) 
[H]c1c([H])c([H])c2c(c1[H])C([H])([H])C([H])([H])C([H])([H])C2([H])N([H])C(=O)C1([H])N(C(=O)C([H])(N([H])C(=O)C([H])(N([H])C([H])([H])[H])C([H])([H])[H])C(C([H])([H])[H])(C([H])([H])[H])C([H])([H])[H])C([H])([H])c2c([H])c(OC([H])([H])C([H])(N([H])c3nc(N([H])[H])nc(C([H])([H])N([H])C(=O)N4C([H])([H])C([H])([H])C([H])([H])C([H])(n5nc(-c6c([H])c([H])c(Oc7c([H])c([H])c(F)c([H])c7F)c([H])c6[H])c(C(=O)N([H])[H])c5N([H])[H])C4([H])[H])n3)C([H])([H])[H])c([H])c([H])c2C1([H])[H]

$$$$
22:0:0
     RDKit          3D

 94102  0  0  1  0  0  0  0  0999 V2000
  -27.5450  -20.7120   19.5150 C   0  0  0  0  0  3  0  0  0  0  0  0
  -29.2510  -18.6310   20.1890 C   0  0  0  0  0  0  0  0  0  0  0  0
  -28.7590  -21.0230   20.1730 C   0  0  0  0  0  0  0  0  0  0  0  0
  -28.0240  -18.4370   19.4930 C   0  0  0  0  0  0  0  0  0  0  0  0
  -27.1840  -19.4480   19.1850 N   0  0  0  0  0  0  0  0  0  0  0  0
  -29.6010  -19.9540   20.5040 N   0  0  0  0  0  0  0  0  0  0  0  0
  -27.6130  -17.2000   19.0150 N   0  0  0  0  0  0  0  0  0  0  0  0
  -28.3750  -16.5880   18.7520 H   0  0  0  0  0  0  0  0  0  0  0  0
  -26.9100  -17.2520   18.2880 H   0  0  0  0  0  0  0  0  0  0  0  0
  -29.1660  -22.4030   20.3880 N   0  0  0  0  0  0  0  0  0  0  0  0
  -30.1420  -22.4720   20.6600 H   0  0  0  0  0  0  0  0  0  0  0  0
  -26.9220  -23.3750   21.2010 C   0  0  0  0  0  1  0  0  0  0  0  0
  -28.3720  -23.6580   20.7810 C   0  0  0  0  0  3  0  0  0  0  0  0
  -28.4480  -25.0040   19.8610 C   0  0  0  0  0  2  0  0  0  0  0  0
  -28.3330  -26.4050   20.4190 O   0  0  0  0  0  0  0  0  0  0  0  0
  -24.5470  -31.8990   23.2790 C   0  0  0  0  0  0  0  0  0  0  0  0
  -27.2020  -27.2550   20.3170 C   0  0  0  0  0  0  0  0  0  0  0  0
  -23.3700  -30.4800   21.6360 C   0  0  0  0  0  3  0  0  0  0  0  0
  -24.8410  -28.9050   20.2480 C   0  0  0  0  0  0  0  0  0  0  0  0
  -25.9150  -30.7820   21.4930 C   0  0  0  0  0  2  0  0  0  0  0  0
  -26.0020  -29.3920   20.8600 C   0  0  0  0  0  0  0  0  0  0  0  0
  -27.1800  -28.5780   20.8830 C   0  0  0  0  0  3  0  0  0  0  0  0
  -26.0140  -26.8310   19.6830 C   0  0  0  0  0  3  0  0  0  0  0  0
  -24.8530  -27.6330   19.6500 C   0  0  0  0  0  3  0  0  0  0  0  0
  -23.6050  -29.7850   20.2680 C   0  0  0  0  0  2  0  0  0  0  0  0
  -24.6290  -31.0750   22.1920 N   0  0  0  0  0  0  0  0  0  0  0  0
  -23.4550  -32.1820   23.7930 O   0  0  0  0  0  0  0  0  0  0  0  0
  -22.6900  -29.4790   22.6010 C   0  0  0  0  0  0  0  0  0  0  0  0
  -21.3660  -29.3000   22.4570 N   0  0  0  0  0  0  0  0  0  0  0  0
  -23.3550  -28.8630   23.4380 O   0  0  0  0  0  0  0  0  0  0  0  0
  -20.8870  -29.8480   21.7570 H   0  0  0  0  0  0  0  0  0  0  0  0
  -17.9790  -28.1160   22.9310 C   0  0  0  0  0  0  0  0  0  0  0  0
  -20.5350  -28.3710   23.2260 C   0  0  0  0  0  3  0  0  0  0  0  0
  -20.6380  -26.9340   22.6620 C   0  0  0  0  0  2  0  0  0  0  0  0
  -19.5460  -26.6080   21.6380 C   0  0  0  0  0  2  0  0  0  0  0  0
  -18.1580  -26.7610   22.2670 C   0  0  0  0  0  2  0  0  0  0  0  0
  -19.0950  -28.8790   23.3670 C   0  0  0  0  0  0  0  0  0  0  0  0
  -18.8730  -30.1460   23.9470 C   0  0  0  0  0  3  0  0  0  0  0  0
  -17.5680  -30.6520   24.0980 C   0  0  0  0  0  3  0  0  0  0  0  0
  -16.4660  -29.8860   23.6780 C   0  0  0  0  0  3  0  0  0  0  0  0
  -16.6730  -28.6210   23.1000 C   0  0  0  0  0  3  0  0  0  0  0  0
  -25.8180  -32.5410   23.9140 C   0  0  0  0  0  3  0  0  0  0  0  0
  -26.3060  -31.7960   25.2180 C   0  0  1  0  0  0  0  0  0  0  0  0
  -25.1900  -31.5800   26.2670 C   0  0  0  0  0  1  0  0  0  0  0  0
  -26.8950  -30.4100   24.8680 C   0  0  0  0  0  1  0  0  0  0  0  0
  -27.4430  -32.6030   25.8880 C   0  0  0  0  0  1  0  0  0  0  0  0
  -25.5060  -33.9480   24.2120 N   0  0  0  0  0  0  0  0  0  0  0  0
  -25.8630  -34.9870   23.4460 C   0  0  0  0  0  0  0  0  0  0  0  0
  -26.5560  -34.8630   22.4320 O   0  0  0  0  0  0  0  0  0  0  0  0
  -24.8920  -34.1170   24.9950 H   0  0  0  0  0  0  0  0  0  0  0  0
  -24.1640  -36.7910   23.0100 C   0  0  0  0  0  1  0  0  0  0  0  0
  -25.3730  -36.3860   23.8690 C   0  0  0  0  0  3  0  0  0  0  0  0
  -27.4820  -37.2690   24.7670 C   0  0  0  0  0  1  0  0  0  0  0  0
  -26.4190  -37.4280   23.7780 N   0  0  0  0  0  0  0  0  0  0  0  0
  -26.0160  -38.3540   23.8920 H   0  0  0  0  0  0  0  0  0  0  0  0
  -30.2470  -17.4110   20.5320 C   0  0  0  0  0  2  0  0  0  0  0  0
  -30.5850  -14.7890   20.3570 C   0  0  0  0  0  0  0  0  0  0  0  0
  -30.3620  -12.5310   19.3050 C   0  0  0  0  0  2  0  0  0  0  0  0
  -29.4030  -12.6310   18.0980 C   0  0  0  0  0  2  0  0  0  0  0  0
  -27.9400  -12.4530   18.5510 C   0  0  0  0  0  2  0  0  0  0  0  0
  -27.5880  -13.3120   19.7950 C   0  0  0  0  0  3  0  0  0  0  0  0
  -28.6680  -13.2030   20.8940 C   0  0  0  0  0  2  0  0  0  0  0  0
  -29.9510  -13.5680   20.2820 N   0  0  0  0  0  0  0  0  0  0  0  0
  -31.7700  -14.8830   20.0220 O   0  0  0  0  0  0  0  0  0  0  0  0
  -29.8290  -15.9290   20.5970 N   0  0  0  0  0  0  0  0  0  0  0  0
  -28.8590  -15.7680   20.8250 H   0  0  0  0  0  0  0  0  0  0  0  0
  -25.2150  -13.8910   20.5770 C   0  0  0  0  0  0  0  0  0  0  0  0
  -24.1550  -13.1090   20.9480 C   0  0  0  0  0  0  0  0  0  0  0  0
  -24.6160  -11.7590   20.8830 C   0  0  0  0  0  0  0  0  0  0  0  0
  -26.2540  -13.0150   20.3050 N   0  0  0  0  0  0  0  0  0  0  0  0
  -25.9020  -11.7270   20.5530 N   0  0  0  0  0  0  0  0  0  0  0  0
  -23.8910  -10.4940   21.0590 C   0  0  0  0  0  0  0  0  0  0  0  0
  -24.3250   -9.5130   21.9770 C   0  0  0  0  0  3  0  0  0  0  0  0
  -23.5970   -8.3140   22.1430 C   0  0  0  0  0  3  0  0  0  0  0  0
  -22.4210   -8.0880   21.3880 C   0  0  0  0  0  0  0  0  0  0  0  0
  -22.0060   -9.0570   20.4580 C   0  0  0  0  0  3  0  0  0  0  0  0
  -22.7350  -10.2470   20.2920 C   0  0  0  0  0  3  0  0  0  0  0  0
  -21.6670   -6.9420   21.4630 O   0  0  0  0  0  0  0  0  0  0  0  0
  -21.6040   -6.1950   22.6110 C   0  0  0  0  0  0  0  0  0  0  0  0
  -21.1280   -6.7340   23.8270 C   0  0  0  0  0  3  0  0  0  0  0  0
  -21.0150   -5.9120   24.9660 C   0  0  0  0  0  3  0  0  0  0  0  0
  -21.3680   -4.5510   24.8900 C   0  0  0  0  0  0  0  0  0  0  0  0
  -21.8380   -4.0110   23.6800 C   0  0  0  0  0  3  0  0  0  0  0  0
  -21.9520   -4.8310   22.5430 C   0  0  0  0  0  0  0  0  0  0  0  0
  -22.3850   -4.3000   21.3730 F   0  0  0  0  0  0  0  0  0  0  0  0
  -21.2530   -3.7570   25.9800 F   0  0  0  0  0  0  0  0  0  0  0  0
  -22.7620  -13.5830   21.2500 C   0  0  0  0  0  0  0  0  0  0  0  0
  -22.0440  -12.8670   22.1070 N   0  0  0  0  0  0  0  0  0  0  0  0
  -22.3210  -14.6230   20.7630 O   0  0  0  0  0  0  0  0  0  0  0  0
  -22.4140  -12.0240   22.5220 H   0  0  0  0  0  0  0  0  0  0  0  0
  -21.1100  -13.1660   22.3520 H   0  0  0  0  0  0  0  0  0  0  0  0
  -25.3700  -15.2660   20.4280 N   0  0  0  0  0  0  0  0  0  0  0  0
  -26.1940  -15.7500   20.0750 H   0  0  0  0  0  0  0  0  0  0  0  0
  -24.5930  -15.9010   20.5700 H   0  0  0  0  0  0  0  0  0  0  0  0
  1  3  1  0
  2  6  1  0
  2 56  1  0
  3 10  1  0
  3  6  2  0
  4  2  2  0
  5  4  1  0
  5  1  2  0
  7  4  1  0
  8  7  1  0
  9  7  1  0
 10 11  1  0
 10 13  1  0
 13 12  1  0
 14 15  1  0
 14 13  1  0
 16 27  2  0
 17 15  1  0
 17 22  1  0
 18 26  1  0
 18 28  1  0
 19 25  1  0
 19 21  1  0
 20 26  1  0
 21 22  2  0
 21 20  1  0
 23 17  2  0
 24 23  1  0
 24 19  2  0
 25 18  1  0
 26 16  1  0
 28 30  2  0
 29 28  1  0
 31 29  1  0
 32 41  2  0
 32 37  1  0
 33 29  1  0
 33 37  1  0
 34 33  1  0
 35 36  1  0
 35 34  1  0
 36 32  1  0
 37 38  2  0
 38 39  1  0
 40 39  2  0
 41 40  1  0
 42 16  1  0
 42 47  1  0
 42 43  1  0
 43 46  1  1
 43 44  1  0
 45 43  1  0
 47 50  1  0
 48 52  1  0
 48 47  1  0
 49 48  2  0
 52 51  1  0
 54 52  1  0
 54 55  1  0
 54 53  1  0
 56 65  1  0
 57 65  1  0
 58 63  1  0
 59 60  1  0
 59 58  1  0
 61 60  1  0
 61 70  1  0
 61 62  1  0
 63 57  1  0
 63 62  1  0
 64 57  2  0
 65 66  1  0
 67 68  2  0
 68 87  1  0
 69 68  1  0
 69 72  1  0
 70 71  1  0
 70 67  1  0
 71 69  2  0
 72 73  1  0
 73 74  2  0
 75 78  1  0
 75 74  1  0
 76 75  2  0
 77 76  1  0
 77 72  2  0
 78 79  1  0
 79 80  1  0
 80 81  2  0
 82 81  1  0
 82 86  1  0
 83 82  2  0
 84 79  2  0
 84 83  1  0
 85 84  1  0
 87 88  1  0
 88 91  1  0
 88 90  1  0
 89 87  2  0
 92 94  1  0
 92 67  1  0
 93 92  1  0
M  ISO  4  14 101  15 101  57 100  65 100
M  END
>  <TORSDO>  (23) 
F 20

>  <SCORE>  (23) 
-14.017

>  <name>  (23) 
22

>  <ligand_id>  (23) 
22

>  <original_smiles>  (23) 
[H]c1nc(N([H])[H])c(C([H])([H])N([H])C(=O)N2C([H])([H])C([H])([H])C([H])([H])C([H])(n3nc(-c4c([H])c([H])c(Oc5c([H])c([H])c(F)c([H])c5F)c([H])c4[H])c(C(=O)N([H])[H])c3N([H])[H])C2([H])[H])nc1N([H])C([H])(C([H])([H])[H])C([H])([H])Oc1c([H])c([H])c2c(c1[H])C([H])([H])N(C(=O)C([H])(N([H])C(=O)C([H])(N([H])C([H])([H])[H])C([H])([H])[H])C(C([H])([H])[H])(C([H])([H])[H])C([H])([H])[H])C([H])(C(=O)N([H])C1([H])c3c([H])c([H])c([H])c([H])c3C([H])([H])C([H])([H])C1([H])[H])C2([H])[H]

>  <smiles>  (23) 
[H]c1nc(N([H])[H])c(C([H])([H])N([H])C(=O)N2C([H])([H])C([H])([H])C([H])([H])C([H])(n3nc(-c4c([H])c([H])c(Oc5c([H])c([H])c(F)c([H])c5F)c([H])c4[H])c(C(=O)N([H])[H])c3N([H])[H])C2([H])[H])nc1N([H])C([H])(C([H])([H])[H])C([H])([H])Oc1c([H])c([H])c2c(c1[H])C([H])([H])N(C(=O)C([H])(N([H])C(=O)C([H])(N([H])C([H])([H])[H])C([H])([H])[H])C(C([H])([H])[H])(C([H])([H])[H])C([H])([H])[H])C([H])(C(=O)N([H])C1([H])c3c([H])c([H])c([H])c([H])c3C([H])([H])C([H])([H])C1([H])[H])C2([H])[H]

$$$$
23:0:0
     RDKit          3D

 92100  0  0  1  0  0  0  0  0999 V2000
  -27.3400  -19.5370   20.2920 C   0  0  0  0  0  3  0  0  0  0  0  0
  -28.2000  -18.4290   20.1610 C   0  0  0  0  0  0  0  0  0  0  0  0
  -29.5700  -18.6940   19.9990 C   0  0  0  0  0  0  0  0  0  0  0  0
  -29.0500  -21.0460   20.0540 C   0  0  0  0  0  0  0  0  0  0  0  0
  -27.7640  -20.8200   20.2450 N   0  0  0  0  0  0  0  0  0  0  0  0
  -29.9700  -20.0360   19.9340 N   0  0  0  0  0  0  0  0  0  0  0  0
  -29.4100  -22.4390   19.9670 N   0  0  0  0  0  0  0  0  0  0  0  0
  -27.7150  -17.1650   20.1840 F   0  0  0  0  0  0  0  0  0  0  0  0
  -30.3790  -22.6090   19.7200 H   0  0  0  0  0  0  0  0  0  0  0  0
  -28.5960  -23.8550   21.8810 C   0  0  0  0  0  1  0  0  0  0  0  0
  -28.6030  -23.6860   20.3530 C   0  0  0  0  0  3  0  0  0  0  0  0
  -28.9680  -25.1100   19.6480 C   0  0  0  0  0  2  0  0  0  0  0  0
  -28.7580  -26.4780   20.2470 O   0  0  0  0  0  0  0  0  0  0  0  0
  -24.7050  -31.6760   23.2420 C   0  0  0  0  0  0  0  0  0  0  0  0
  -27.6120  -27.2990   20.1230 C   0  0  0  0  0  0  0  0  0  0  0  0
  -23.6340  -30.3160   21.4860 C   0  0  0  0  0  3  0  0  0  0  0  0
  -25.2000  -28.8700   20.0600 C   0  0  0  0  0  0  0  0  0  0  0  0
  -26.1690  -30.7130   21.4430 C   0  0  0  0  0  2  0  0  0  0  0  0
  -26.3230  -29.3620   20.7380 C   0  0  0  0  0  0  0  0  0  0  0  0
  -27.5280  -28.5890   20.7540 C   0  0  0  0  0  3  0  0  0  0  0  0
  -26.4630  -26.8700   19.4250 C   0  0  0  0  0  3  0  0  0  0  0  0
  -25.2770  -27.6350   19.3920 C   0  0  0  0  0  3  0  0  0  0  0  0
  -23.9360  -29.7080   20.0890 C   0  0  0  0  0  2  0  0  0  0  0  0
  -24.8530  -30.9190   22.1160 N   0  0  0  0  0  0  0  0  0  0  0  0
  -23.5890  -31.8960   23.7330 O   0  0  0  0  0  0  0  0  0  0  0  0
  -22.9580  -29.2380   22.3680 C   0  0  0  0  0  0  0  0  0  0  0  0
  -21.6310  -29.0700   22.2130 N   0  0  0  0  0  0  0  0  0  0  0  0
  -23.6240  -28.5630   23.1560 O   0  0  0  0  0  0  0  0  0  0  0  0
  -21.1540  -29.6660   21.5520 H   0  0  0  0  0  0  0  0  0  0  0  0
  -18.2350  -27.8980   22.6440 C   0  0  0  0  0  0  0  0  0  0  0  0
  -20.8030  -28.0840   22.9080 C   0  0  0  0  0  3  0  0  0  0  0  0
  -20.8710  -26.7100   22.2020 C   0  0  0  0  0  2  0  0  0  0  0  0
  -19.7480  -26.5040   21.1760 C   0  0  0  0  0  2  0  0  0  0  0  0
  -18.3760  -26.6130   21.8480 C   0  0  0  0  0  2  0  0  0  0  0  0
  -19.3740  -28.5970   23.1280 C   0  0  0  0  0  0  0  0  0  0  0  0
  -19.1840  -29.8030   23.8320 C   0  0  0  0  0  3  0  0  0  0  0  0
  -17.8900  -30.3130   24.0580 C   0  0  0  0  0  3  0  0  0  0  0  0
  -16.7680  -29.6080   23.5920 C   0  0  0  0  0  3  0  0  0  0  0  0
  -16.9420  -28.3990   22.8920 C   0  0  0  0  0  3  0  0  0  0  0  0
  -25.9300  -32.3220   23.9600 C   0  0  0  0  0  3  0  0  0  0  0  0
  -26.3750  -31.5420   25.2590 C   0  0  1  0  0  0  0  0  0  0  0  0
  -25.2180  -31.2700   26.2480 C   0  0  0  0  0  1  0  0  0  0  0  0
  -27.0090  -30.1820   24.8880 C   0  0  0  0  0  1  0  0  0  0  0  0
  -27.4640  -32.3460   26.0080 C   0  0  0  0  0  1  0  0  0  0  0  0
  -25.5750  -33.7090   24.2910 N   0  0  0  0  0  0  0  0  0  0  0  0
  -25.9270  -34.7820   23.5670 C   0  0  0  0  0  0  0  0  0  0  0  0
  -26.6520  -34.7070   22.5730 O   0  0  0  0  0  0  0  0  0  0  0  0
  -24.9340  -33.8390   25.0600 H   0  0  0  0  0  0  0  0  0  0  0  0
  -24.1870  -36.5520   23.1460 C   0  0  0  0  0  1  0  0  0  0  0  0
  -25.3920  -36.1560   24.0160 C   0  0  0  0  0  3  0  0  0  0  0  0
  -27.4510  -37.0800   24.9860 C   0  0  0  0  0  1  0  0  0  0  0  0
  -26.4110  -37.2280   23.9710 N   0  0  0  0  0  0  0  0  0  0  0  0
  -25.9790  -38.1390   24.0950 H   0  0  0  0  0  0  0  0  0  0  0  0
  -30.6000  -17.4710   19.8740 C   0  0  0  0  0  2  0  0  0  0  0  0
  -30.9410  -14.8510   19.9430 C   0  0  0  0  0  0  0  0  0  0  0  0
  -30.6960  -12.5500   19.0000 C   0  0  0  0  0  2  0  0  0  0  0  0
  -29.6880  -12.5800   17.8300 C   0  0  0  0  0  2  0  0  0  0  0  0
  -28.2460  -12.4280   18.3480 C   0  0  0  0  0  2  0  0  0  0  0  0
  -27.9360  -13.3440   19.5610 C   0  0  0  0  0  3  0  0  0  0  0  0
  -29.0570  -13.2810   20.6230 C   0  0  0  0  0  2  0  0  0  0  0  0
  -30.3130  -13.6250   19.9460 N   0  0  0  0  0  0  0  0  0  0  0  0
  -32.1150  -14.9250   19.5700 O   0  0  0  0  0  0  0  0  0  0  0  0
  -30.1940  -16.0080   20.1290 N   0  0  0  0  0  0  0  0  0  0  0  0
  -29.2290  -15.8950   20.4120 H   0  0  0  0  0  0  0  0  0  0  0  0
  -25.6010  -13.9460   20.4390 C   0  0  0  0  0  0  0  0  0  0  0  0
  -24.5410  -13.1810   20.8410 C   0  0  0  0  0  0  0  0  0  0  0  0
  -24.9720  -11.8260   20.7380 C   0  0  0  0  0  0  0  0  0  0  0  0
  -26.6160  -13.0600   20.1220 N   0  0  0  0  0  0  0  0  0  0  0  0
  -26.2470  -11.7740   20.3670 N   0  0  0  0  0  0  0  0  0  0  0  0
  -24.2250  -10.5760   20.9250 C   0  0  0  0  0  0  0  0  0  0  0  0
  -24.6210   -9.6190   21.8870 C   0  0  0  0  0  3  0  0  0  0  0  0
  -23.8770   -8.4320   22.0620 C   0  0  0  0  0  3  0  0  0  0  0  0
  -22.7240   -8.1950   21.2780 C   0  0  0  0  0  0  0  0  0  0  0  0
  -22.3470   -9.1410   20.3090 C   0  0  0  0  0  3  0  0  0  0  0  0
  -23.0890  -10.3200   20.1300 C   0  0  0  0  0  3  0  0  0  0  0  0
  -21.9530   -7.0610   21.3630 O   0  0  0  0  0  0  0  0  0  0  0  0
  -21.8000   -6.3820   22.5450 C   0  0  0  0  0  0  0  0  0  0  0  0
  -21.1870   -6.9780   23.6680 C   0  0  0  0  0  3  0  0  0  0  0  0
  -20.9820   -6.2240   24.8410 C   0  0  0  0  0  3  0  0  0  0  0  0
  -21.3800   -4.8740   24.8900 C   0  0  0  0  0  0  0  0  0  0  0  0
  -21.9850   -4.2780   23.7710 C   0  0  0  0  0  3  0  0  0  0  0  0
  -22.1910   -5.0300   22.6000 C   0  0  0  0  0  0  0  0  0  0  0  0
  -22.7540   -4.4420   21.5160 F   0  0  0  0  0  0  0  0  0  0  0  0
  -21.1800   -4.1490   26.0150 F   0  0  0  0  0  0  0  0  0  0  0  0
  -23.1770  -13.6840   21.2120 C   0  0  0  0  0  0  0  0  0  0  0  0
  -22.4850  -12.9770   22.0980 N   0  0  0  0  0  0  0  0  0  0  0  0
  -22.7350  -14.7340   20.7520 O   0  0  0  0  0  0  0  0  0  0  0  0
  -22.8610  -12.1210   22.4790 H   0  0  0  0  0  0  0  0  0  0  0  0
  -21.5730  -13.2950   22.3950 H   0  0  0  0  0  0  0  0  0  0  0  0
  -25.7680  -15.3170   20.3030 N   0  0  0  0  0  0  0  0  0  0  0  0
  -25.0270  -15.9610   20.5530 H   0  0  0  0  0  0  0  0  0  0  0  0
  -26.6350  -15.8000   20.0830 H   0  0  0  0  0  0  0  0  0  0  0  0
  2  8  1  0
  2  1  2  0
  3  2  1  0
  4  5  2  0
  5  1  1  0
  6  3  2  0
  6  4  1  0
  7  4  1  0
  7 11  1  0
  9  7  1  0
 11 10  1  0
 12 13  1  0
 12 11  1  0
 14 25  2  0
 15 13  1  0
 15 20  1  0
 16 24  1  0
 16 26  1  0
 17 23  1  0
 17 19  1  0
 18 24  1  0
 19 20  2  0
 19 18  1  0
 21 15  2  0
 22 21  1  0
 22 17  2  0
 23 16  1  0
 24 14  1  0
 26 28  2  0
 27 26  1  0
 29 27  1  0
 30 39  2  0
 30 35  1  0
 31 27  1  0
 31 35  1  0
 32 31  1  0
 33 34  1  0
 33 32  1  0
 34 30  1  0
 35 36  2  0
 36 37  1  0
 38 37  2  0
 39 38  1  0
 40 14  1  0
 40 45  1  0
 40 41  1  0
 41 44  1  1
 41 42  1  0
 43 41  1  0
 45 48  1  0
 46 50  1  0
 46 45  1  0
 47 46  2  0
 50 49  1  0
 52 50  1  0
 52 53  1  0
 52 51  1  0
 54  3  1  0
 54 63  1  0
 55 61  1  0
 55 63  1  0
 56 61  1  0
 57 58  1  0
 57 56  1  0
 59 58  1  0
 59 68  1  0
 59 60  1  0
 61 60  1  0
 62 55  2  0
 63 64  1  0
 65 66  2  0
 66 85  1  0
 67 66  1  0
 67 70  1  0
 68 69  1  0
 68 65  1  0
 69 67  2  0
 70 71  1  0
 71 72  2  0
 73 76  1  0
 73 72  1  0
 74 73  2  0
 75 74  1  0
 75 70  2  0
 76 77  1  0
 77 82  2  0
 77 78  1  0
 78 79  2  0
 79 80  1  0
 80 84  1  0
 81 80  2  0
 82 81  1  0
 83 82  1  0
 85 86  1  0
 86 89  1  0
 86 88  1  0
 87 85  2  0
 90 65  1  0
 90 91  1  0
 92 90  1  0
M  ISO  4  12 101  13 101  55 100  63 100
M  END
>  <TORSDO>  (24) 
F 19

>  <SCORE>  (24) 
-13.409

>  <name>  (24) 
23

>  <ligand_id>  (24) 
23

>  <original_smiles>  (24) 
[H]c1nc(N([H])C([H])(C([H])([H])[H])C([H])([H])Oc2c([H])c([H])c3c(c2[H])C([H])([H])N(C(=O)C([H])(N([H])C(=O)C([H])(N([H])C([H])([H])[H])C([H])([H])[H])C(C([H])([H])[H])(C([H])([H])[H])C([H])([H])[H])C([H])(C(=O)N([H])C2([H])c4c([H])c([H])c([H])c([H])c4C([H])([H])C([H])([H])C2([H])[H])C3([H])[H])nc(C([H])([H])N([H])C(=O)N2C([H])([H])C([H])([H])C([H])([H])C([H])(n3nc(-c4c([H])c([H])c(Oc5c([H])c([H])c(F)c([H])c5F)c([H])c4[H])c(C(=O)N([H])[H])c3N([H])[H])C2([H])[H])c1F

>  <smiles>  (24) 
[H]c1nc(N([H])C([H])(C([H])([H])[H])C([H])([H])Oc2c([H])c([H])c3c(c2[H])C([H])([H])N(C(=O)C([H])(N([H])C(=O)C([H])(N([H])C([H])([H])[H])C([H])([H])[H])C(C([H])([H])[H])(C([H])([H])[H])C([H])([H])[H])C([H])(C(=O)N([H])C2([H])c4c([H])c([H])c([H])c([H])c4C([H])([H])C([H])([H])C2([H])[H])C3([H])[H])nc(C([H])([H])N([H])C(=O)N2C([H])([H])C([H])([H])C([H])([H])C([H])(n3nc(-c4c([H])c([H])c(Oc5c([H])c([H])c(F)c([H])c5F)c([H])c4[H])c(C(=O)N([H])[H])c3N([H])[H])C2([H])[H])c1F

$$$$
24:0:0
     RDKit          3D

100106  0  0  1  0  0  0  0  0999 V2000
  -30.0780  -24.9700   17.7440 C   0  0  0  0  0  0  0  0  0  0  0  0
  -29.8330  -26.2080   17.3010 N   0  0  0  0  0  4  0  0  0  0  0  0
  -31.0090  -24.1830   17.2160 N   0  0  0  0  0  0  0  0  0  0  0  0
  -29.1200  -26.7610   17.7530 H   0  0  0  0  0  0  0  0  0  0  0  0
  -30.3270  -26.6230   16.5250 H   0  0  0  0  0  0  0  0  0  0  0  0
  -31.6140  -24.4980   16.4730 H   0  0  0  0  0  0  0  0  0  0  0  0
  -27.7360  -21.8160   19.2690 C   0  0  0  0  0  2  0  0  0  0  0  0
  -29.3500  -24.3550   18.8180 C   0  0  0  0  0  3  0  0  0  0  0  0
  -28.7880  -20.7610   20.2090 C   0  0  0  0  0  2  0  0  0  0  0  0
  -30.0720  -23.6060   20.3690 C   0  0  0  0  0  0  0  0  0  0  0  0
  -27.9700  -23.3040   18.3900 N   0  0  0  0  0  2  0  0  0  0  0  0
  -29.6000  -22.0510   20.9050 N   0  0  0  0  0  0  0  0  0  0  0  0
  -31.0830  -24.2080   21.1120 N   0  0  0  0  0  0  0  0  0  0  0  0
  -31.2610  -23.8360   22.0360 H   0  0  0  0  0  0  0  0  0  0  0  0
  -31.1310  -25.2210   21.0870 H   0  0  0  0  0  0  0  0  0  0  0  0
  -29.7850  -16.9290   20.2130 C   0  0  0  0  0  0  0  0  0  0  0  0
  -30.2460  -14.0830   19.4550 C   0  0  0  0  0  2  0  0  0  0  0  0
  -29.5600  -13.1130   18.3830 C   0  0  0  0  0  2  0  0  0  0  0  0
  -28.2610  -12.4790   18.8810 C   0  0  0  0  0  2  0  0  0  0  0  0
  -27.5550  -13.5130   19.7640 C   0  0  0  0  0  3  0  0  0  0  0  0
  -28.4640  -14.3240   20.7840 C   0  0  0  0  0  2  0  0  0  0  0  0
  -29.4050  -15.3390   20.0700 N   0  0  0  0  0  0  0  0  0  0  0  0
  -31.0370  -16.6530   20.2040 O   0  0  0  0  0  0  0  0  0  0  0  0
  -29.0280  -18.6330   20.1780 N   0  0  0  0  0  2  0  0  0  0  0  0
  -28.0780  -18.3300   19.9970 H   0  0  0  0  0  0  0  0  0  0  0  0
  -25.1770  -13.8790   20.4920 C   0  0  0  0  0  0  0  0  0  0  0  0
  -24.1390  -13.0660   20.8380 C   0  0  0  0  0  0  0  0  0  0  0  0
  -24.6520  -11.7310   20.8210 C   0  0  0  0  0  0  0  0  0  0  0  0
  -26.2660  -13.0600   20.2890 N   0  0  0  0  0  0  0  0  0  0  0  0
  -25.9590  -11.7470   20.5320 N   0  0  0  0  0  0  0  0  0  0  0  0
  -23.9350  -10.4530   21.0090 C   0  0  0  0  0  0  0  0  0  0  0  0
  -24.3620   -9.4920   21.9520 C   0  0  0  0  0  3  0  0  0  0  0  0
  -23.6360   -8.2930   22.1380 C   0  0  0  0  0  3  0  0  0  0  0  0
  -22.4670   -8.0440   21.3820 C   0  0  0  0  0  0  0  0  0  0  0  0
  -22.0550   -8.9930   20.4300 C   0  0  0  0  0  3  0  0  0  0  0  0
  -22.7810  -10.1830   20.2430 C   0  0  0  0  0  3  0  0  0  0  0  0
  -21.7150   -6.8950   21.4740 O   0  0  0  0  0  0  0  0  0  0  0  0
  -21.6800   -6.1440   22.6230 C   0  0  0  0  0  0  0  0  0  0  0  0
  -21.2690   -6.6920   23.8580 C   0  0  0  0  0  3  0  0  0  0  0  0
  -21.1820   -5.8700   25.0000 C   0  0  0  0  0  3  0  0  0  0  0  0
  -21.4940   -4.5010   24.9090 C   0  0  0  0  0  0  0  0  0  0  0  0
  -21.8960   -3.9510   23.6780 C   0  0  0  0  0  3  0  0  0  0  0  0
  -21.9860   -4.7710   22.5390 C   0  0  0  0  0  0  0  0  0  0  0  0
  -22.3540   -4.2310   21.3520 F   0  0  0  0  0  0  0  0  0  0  0  0
  -21.4040   -3.7090   26.0040 F   0  0  0  0  0  0  0  0  0  0  0  0
  -22.7250  -13.5120   21.0630 C   0  0  0  0  0  0  0  0  0  0  0  0
  -21.9930  -12.8220   21.9270 N   0  0  0  0  0  0  0  0  0  0  0  0
  -22.2800  -14.5200   20.5130 O   0  0  0  0  0  0  0  0  0  0  0  0
  -22.3650  -12.0100   22.4000 H   0  0  0  0  0  0  0  0  0  0  0  0
  -21.0440  -13.1070   22.1210 H   0  0  0  0  0  0  0  0  0  0  0  0
  -25.2840  -15.2530   20.2930 N   0  0  0  0  0  0  0  0  0  0  0  0
  -24.4860  -15.8720   20.3720 H   0  0  0  0  0  0  0  0  0  0  0  0
  -26.1200  -15.7170   19.9620 H   0  0  0  0  0  0  0  0  0  0  0  0
  -31.1460  -22.7890   17.6790 C   0  0  0  0  0  3  0  0  0  0  0  0
  -32.5550  -22.5250   18.3060 C   0  0  0  0  0  2  0  0  0  0  0  0
  -34.0360  -22.5440   16.1870 C   0  0  0  0  0  1  0  0  0  0  0  0
  -35.0440  -23.0050   18.4550 C   0  0  0  0  0  1  0  0  0  0  0  0
  -33.7840  -23.1380   17.5830 C   0  0  0  0  0  3  0  0  0  0  0  0
  -29.9020  -22.2520   18.5650 C   0  0  0  0  0  1  0  0  0  0  0  0
  -28.0010  -24.1460   20.3480 O   0  0  0  0  0  1  0  0  0  0  0  0
  -24.6870  -31.7050   23.0240 C   0  0  0  0  0  0  0  0  0  0  0  0
  -27.2790  -25.8420   20.2320 C   0  0  0  0  0  0  0  0  0  0  0  0
  -23.5550  -30.2230   21.4320 C   0  0  0  0  0  3  0  0  0  0  0  0
  -25.0450  -28.3880   20.1130 C   0  0  0  0  0  0  0  0  0  0  0  0
  -26.1600  -30.1360   21.4330 C   0  0  0  0  0  2  0  0  0  0  0  0
  -26.2410  -28.5970   20.8070 C   0  0  0  0  0  0  0  0  0  0  0  0
  -27.2810  -27.3800   20.8360 C   0  0  0  0  0  3  0  0  0  0  0  0
  -26.0520  -26.0830   19.4560 C   0  0  0  0  0  3  0  0  0  0  0  0
  -25.0430  -27.1580   19.4090 C   0  0  0  0  0  3  0  0  0  0  0  0
  -23.8560  -29.4240   20.1110 C   0  0  0  0  0  2  0  0  0  0  0  0
  -24.8350  -30.7440   22.0130 N   0  0  0  0  0  0  0  0  0  0  0  0
  -23.5710  -32.0420   23.4700 O   0  0  0  0  0  0  0  0  0  0  0  0
  -22.7580  -29.3510   22.4470 C   0  0  0  0  0  0  0  0  0  0  0  0
  -21.4150  -29.2490   22.3350 N   0  0  0  0  0  0  0  0  0  0  0  0
  -23.3790  -28.7490   23.3250 O   0  0  0  0  0  0  0  0  0  0  0  0
  -20.9520  -29.7830   21.6140 H   0  0  0  0  0  0  0  0  0  0  0  0
  -18.0040  -28.0810   22.9360 C   0  0  0  0  0  0  0  0  0  0  0  0
  -20.5740  -28.3400   23.1360 C   0  0  0  0  0  3  0  0  0  0  0  0
  -20.6470  -26.8970   22.5840 C   0  0  0  0  0  2  0  0  0  0  0  0
  -19.5260  -26.5730   21.5910 C   0  0  0  0  0  2  0  0  0  0  0  0
  -18.1580  -26.7300   22.2570 C   0  0  0  0  0  2  0  0  0  0  0  0
  -19.1350  -28.8450   23.3310 C   0  0  0  0  0  0  0  0  0  0  0  0
  -18.9270  -30.1020   23.9390 C   0  0  0  0  0  3  0  0  0  0  0  0
  -17.6250  -30.5970   24.1480 C   0  0  0  0  0  3  0  0  0  0  0  0
  -16.5120  -29.8330   23.7590 C   0  0  0  0  0  3  0  0  0  0  0  0
  -16.7010  -28.5760   23.1590 C   0  0  0  0  0  3  0  0  0  0  0  0
  -25.8970  -32.4360   23.6880 C   0  0  0  0  0  3  0  0  0  0  0  0
  -25.5100  -33.8310   24.0310 N   0  0  0  0  0  0  0  0  0  0  0  0
  -25.8320  -34.9350   23.3390 C   0  0  0  0  0  0  0  0  0  0  0  0
  -26.5190  -34.8900   22.3180 O   0  0  0  0  0  0  0  0  0  0  0  0
  -24.8880  -33.9330   24.8200 H   0  0  0  0  0  0  0  0  0  0  0  0
  -24.0730  -36.7300   23.0600 C   0  0  0  0  0  1  0  0  0  0  0  0
  -25.3210  -36.3050   23.8520 C   0  0  0  0  0  3  0  0  0  0  0  0
  -27.4340  -37.2150   24.7190 C   0  0  0  0  0  1  0  0  0  0  0  0
  -26.3320  -37.3850   23.7780 N   0  0  0  0  0  0  0  0  0  0  0  0
  -25.9050  -38.2920   23.9510 H   0  0  0  0  0  0  0  0  0  0  0  0
  -26.3990  -31.7170   25.0030 C   0  0  1  0  0  0  0  0  0  0  0  0
  -25.2860  -31.4860   26.0540 C   0  0  0  0  0  1  0  0  0  0  0  0
  -27.0230  -30.3410   24.6910 C   0  0  0  0  0  1  0  0  0  0  0  0
  -27.5210  -32.5530   25.6630 C   0  0  0  0  0  1  0  0  0  0  0  0
  2  1  2  0
  2  4  1  0
  3 54  1  0
  3  1  1  0
  5  2  1  0
  6  3  1  0
  7  9  1  0
  8  1  1  0
  8 10  1  0
  9 12  1  0
 10 12  2  0
 10 13  1  0
 11  8  1  0
 11  7  1  0
 13 14  1  0
 15 13  1  0
 17 22  1  0
 18 19  1  0
 18 17  1  0
 20 19  1  0
 20 29  1  0
 20 21  1  0
 22 16  1  0
 22 21  1  0
 23 16  2  0
 24 16  1  0
 25 24  1  0
 26 27  2  0
 27 46  1  0
 28 27  1  0
 28 31  1  0
 29 26  1  0
 29 30  1  0
 30 28  2  0
 31 32  1  0
 32 33  2  0
 34 37  1  0
 34 33  1  0
 35 34  2  0
 36 35  1  0
 36 31  2  0
 37 38  1  0
 38 39  1  0
 39 40  2  0
 41 40  1  0
 41 45  1  0
 42 41  2  0
 43 38  2  0
 43 42  1  0
 44 43  1  0
 46 47  1  0
 47 50  1  0
 47 49  1  0
 48 46  2  0
 51 52  1  0
 51 26  1  0
 53 51  1  0
 54 55  1  0
 54 59  1  0
 56 58  1  0
 58 55  1  0
 58 57  1  0
 61 72  2  0
 62 60  1  0
 62 67  1  0
 63 71  1  0
 63 73  1  0
 64 66  1  0
 65 71  1  0
 66 67  2  0
 66 65  1  0
 68 62  2  0
 69 68  1  0
 69 64  2  0
 70 64  1  0
 70 63  1  0
 71 61  1  0
 73 75  2  0
 74 73  1  0
 76 74  1  0
 77 86  2  0
 77 82  1  0
 78 74  1  0
 78 82  1  0
 79 78  1  0
 80 81  1  0
 80 79  1  0
 81 77  1  0
 82 83  2  0
 83 84  1  0
 85 84  2  0
 86 85  1  0
 87 61  1  0
 87 88  1  0
 87 97  1  0
 88 91  1  0
 89 93  1  0
 89 88  1  0
 90 89  2  0
 93 92  1  0
 95 93  1  0
 95 96  1  0
 95 94  1  0
 97100  1  1
 97 98  1  0
 99 97  1  0
M  ISO  4  16 100  24 100  59 101  60 101
M  END
>  <TORSDO>  (25) 
F 21

>  <SCORE>  (25) 
-14.675

>  <name>  (25) 
24

>  <ligand_id>  (25) 
24

>  <original_smiles>  (25) 
[H]c1nc(C(N([H])[H])=[N+]([H])C([H])(C([H])([H])Oc2c([H])c([H])c3c(c2[H])C([H])([H])N(C(=O)C([H])(N([H])C(=O)C([H])(N([H])C([H])([H])[H])C([H])([H])[H])C(C([H])([H])[H])(C([H])([H])[H])C([H])([H])[H])C([H])(C(=O)N([H])C2([H])c4c([H])c([H])c([H])c([H])c4C([H])([H])C([H])([H])C2([H])[H])C3([H])[H])C([H])([H])C([H])(C([H])([H])[H])C([H])([H])[H])c(N([H])[H])nc1N([H])C(=O)N1C([H])([H])C([H])([H])C([H])([H])C([H])(n2nc(-c3c([H])c([H])c(Oc4c([H])c([H])c(F)c([H])c4F)c([H])c3[H])c(C(=O)N([H])[H])c2N([H])[H])C1([H])[H]

>  <smiles>  (25) 
[H]c1nc(C(N([H])[H])=[N+]([H])C([H])(C([H])([H])Oc2c([H])c([H])c3c(c2[H])C([H])([H])N(C(=O)C([H])(N([H])C(=O)C([H])(N([H])C([H])([H])[H])C([H])([H])[H])C(C([H])([H])[H])(C([H])([H])[H])C([H])([H])[H])C([H])(C(=O)N([H])C2([H])c4c([H])c([H])c([H])c([H])c4C([H])([H])C([H])([H])C2([H])[H])C3([H])[H])C([H])([H])C([H])(C([H])([H])[H])C([H])([H])[H])c(N([H])[H])nc1N([H])C(=O)N1C([H])([H])C([H])([H])C([H])([H])C([H])(n2nc(-c3c([H])c([H])c(Oc4c([H])c([H])c(F)c([H])c4F)c([H])c3[H])c(C(=O)N([H])[H])c2N([H])[H])C1([H])[H]

$$$$
25:0:0
     RDKit          3D

 93101  0  0  1  0  0  0  0  0999 V2000
  -28.8260  -18.4470   19.6760 C   0  0  0  0  0  3  0  0  0  0  0  0
  -29.7530  -18.1130   20.6380 C   0  0  0  0  0  0  0  0  0  0  0  0
  -29.0920  -20.5270   20.5910 C   0  0  0  0  0  0  0  0  0  0  0  0
  -28.4830  -19.8150   19.6400 N   0  0  0  0  0  0  0  0  0  0  0  0
  -29.0100  -21.9220   20.7160 N   0  0  0  0  0  0  0  0  0  0  0  0
  -30.1710  -19.5390   21.5870 S   0  0  0  0  0  0  0  0  0  0  0  0
  -29.3130  -22.2030   21.6440 H   0  0  0  0  0  0  0  0  0  0  0  0
  -30.7310  -14.5550   20.1610 C   0  0  0  0  0  0  0  0  0  0  0  0
  -30.3330  -12.4210   18.9730 C   0  0  0  0  0  2  0  0  0  0  0  0
  -29.3370  -12.6410   17.8170 C   0  0  0  0  0  2  0  0  0  0  0  0
  -27.8870  -12.4980   18.3170 C   0  0  0  0  0  2  0  0  0  0  0  0
  -27.6130  -13.3130   19.6090 C   0  0  0  0  0  3  0  0  0  0  0  0
  -28.7250  -13.1000   20.6600 C   0  0  0  0  0  2  0  0  0  0  0  0
  -30.0080  -13.4070   20.0160 N   0  0  0  0  0  0  0  0  0  0  0  0
  -31.8900  -14.6290   19.7430 O   0  0  0  0  0  0  0  0  0  0  0  0
  -30.5660  -16.8730   20.8590 C   0  0  0  0  0  0  0  0  0  0  0  0
  -30.0390  -15.6610   20.5420 N   0  0  0  0  0  0  0  0  0  0  0  0
  -31.7040  -17.0010   21.3290 O   0  0  0  0  0  0  0  0  0  0  0  0
  -29.0370  -15.5960   20.5090 H   0  0  0  0  0  0  0  0  0  0  0  0
  -25.2560  -13.9120   20.4410 C   0  0  0  0  0  0  0  0  0  0  0  0
  -24.2040  -13.1360   20.8470 C   0  0  0  0  0  0  0  0  0  0  0  0
  -24.6590  -11.7830   20.7750 C   0  0  0  0  0  0  0  0  0  0  0  0
  -26.2870  -13.0310   20.1520 N   0  0  0  0  0  0  0  0  0  0  0  0
  -25.9350  -11.7460   20.4120 N   0  0  0  0  0  0  0  0  0  0  0  0
  -23.9370  -10.5190   20.9750 C   0  0  0  0  0  0  0  0  0  0  0  0
  -24.3880   -9.5500   21.8980 C   0  0  0  0  0  3  0  0  0  0  0  0
  -23.6670   -8.3520   22.0880 C   0  0  0  0  0  3  0  0  0  0  0  0
  -22.4790   -8.1150   21.3550 C   0  0  0  0  0  0  0  0  0  0  0  0
  -22.0470   -9.0730   20.4220 C   0  0  0  0  0  3  0  0  0  0  0  0
  -22.7680  -10.2630   20.2300 C   0  0  0  0  0  3  0  0  0  0  0  0
  -21.7280   -6.9690   21.4540 O   0  0  0  0  0  0  0  0  0  0  0  0
  -21.6810   -6.2370   22.6140 C   0  0  0  0  0  0  0  0  0  0  0  0
  -21.2270   -6.7960   23.8290 C   0  0  0  0  0  3  0  0  0  0  0  0
  -21.1300   -5.9900   24.9810 C   0  0  0  0  0  3  0  0  0  0  0  0
  -21.4740   -4.6270   24.9190 C   0  0  0  0  0  0  0  0  0  0  0  0
  -21.9210   -4.0680   23.7080 C   0  0  0  0  0  3  0  0  0  0  0  0
  -22.0210   -4.8700   22.5590 C   0  0  0  0  0  0  0  0  0  0  0  0
  -22.4310   -4.3230   21.3910 F   0  0  0  0  0  0  0  0  0  0  0  0
  -21.3720   -3.8500   26.0230 F   0  0  0  0  0  0  0  0  0  0  0  0
  -22.8210  -13.6120   21.1830 C   0  0  0  0  0  0  0  0  0  0  0  0
  -22.1280  -12.9040   22.0670 N   0  0  0  0  0  0  0  0  0  0  0  0
  -22.3650  -14.6470   20.6980 O   0  0  0  0  0  0  0  0  0  0  0  0
  -22.5110  -12.0670   22.4810 H   0  0  0  0  0  0  0  0  0  0  0  0
  -21.2010  -13.2050   22.3350 H   0  0  0  0  0  0  0  0  0  0  0  0
  -25.4170  -15.2840   20.2740 N   0  0  0  0  0  0  0  0  0  0  0  0
  -24.6520  -15.9350   20.4160 H   0  0  0  0  0  0  0  0  0  0  0  0
  -26.2360  -15.7210   19.8710 H   0  0  0  0  0  0  0  0  0  0  0  0
  -29.3370  -22.9660   19.7340 C   0  0  0  0  0  2  0  0  0  0  0  0
  -28.4020  -24.2250   19.6110 C   0  0  0  0  0  3  0  0  0  0  0  0
  -28.8360  -24.8550   18.4220 O   0  0  0  0  0  0  0  0  0  0  0  0
  -28.6850  -25.7880   18.5610 H   0  0  0  0  0  0  0  0  0  0  0  0
  -28.5210  -25.3410   20.6990 C   0  0  0  0  0  2  0  0  0  0  0  0
  -28.4860  -26.7050   20.1950 O   0  0  0  0  0  0  0  0  0  0  0  0
  -24.5950  -31.8760   23.2230 C   0  0  0  0  0  0  0  0  0  0  0  0
  -27.3000  -27.4130   20.2150 C   0  0  0  0  0  0  0  0  0  0  0  0
  -23.4200  -30.4700   21.5630 C   0  0  0  0  0  3  0  0  0  0  0  0
  -24.9010  -28.9250   20.1700 C   0  0  0  0  0  0  0  0  0  0  0  0
  -25.9470  -30.8330   21.4020 C   0  0  0  0  0  2  0  0  0  0  0  0
  -26.0490  -29.4570   20.7710 C   0  0  0  0  0  0  0  0  0  0  0  0
  -27.2530  -28.7130   20.7780 C   0  0  0  0  0  3  0  0  0  0  0  0
  -26.1320  -26.8940   19.6170 C   0  0  0  0  0  3  0  0  0  0  0  0
  -24.9390  -27.6450   19.5890 C   0  0  0  0  0  3  0  0  0  0  0  0
  -23.6530  -29.7840   20.1910 C   0  0  0  0  0  2  0  0  0  0  0  0
  -24.6720  -31.0750   22.1220 N   0  0  0  0  0  0  0  0  0  0  0  0
  -23.5050  -32.1450   23.7470 O   0  0  0  0  0  0  0  0  0  0  0  0
  -22.7550  -29.4490   22.5160 C   0  0  0  0  0  0  0  0  0  0  0  0
  -21.4280  -29.2840   22.3850 N   0  0  0  0  0  0  0  0  0  0  0  0
  -23.4290  -28.8100   23.3260 O   0  0  0  0  0  0  0  0  0  0  0  0
  -20.9460  -29.8500   21.6990 H   0  0  0  0  0  0  0  0  0  0  0  0
  -18.0370  -28.1450   22.8890 C   0  0  0  0  0  0  0  0  0  0  0  0
  -20.6010  -28.3480   23.1440 C   0  0  0  0  0  3  0  0  0  0  0  0
  -20.6710  -26.9270   22.5430 C   0  0  0  0  0  2  0  0  0  0  0  0
  -19.5570  -26.6440   21.5320 C   0  0  0  0  0  2  0  0  0  0  0  0
  -18.1820  -26.8050   22.1890 C   0  0  0  0  0  2  0  0  0  0  0  0
  -19.1730  -28.8780   23.3250 C   0  0  0  0  0  0  0  0  0  0  0  0
  -18.9850  -30.1350   23.9380 C   0  0  0  0  0  3  0  0  0  0  0  0
  -17.6910  -30.6590   24.1230 C   0  0  0  0  0  3  0  0  0  0  0  0
  -16.5700  -29.9230   23.7050 C   0  0  0  0  0  3  0  0  0  0  0  0
  -16.7430  -28.6680   23.0940 C   0  0  0  0  0  3  0  0  0  0  0  0
  -25.8690  -32.5130   23.8630 C   0  0  0  0  0  3  0  0  0  0  0  0
  -26.3700  -31.7460   25.1480 C   0  0  1  0  0  0  0  0  0  0  0  0
  -25.2620  -31.5050   26.2010 C   0  0  0  0  0  1  0  0  0  0  0  0
  -26.9640  -30.3700   24.7660 C   0  0  0  0  0  1  0  0  0  0  0  0
  -27.5060  -32.5470   25.8270 C   0  0  0  0  0  1  0  0  0  0  0  0
  -25.5520  -33.9110   24.1860 N   0  0  0  0  0  0  0  0  0  0  0  0
  -25.8890  -34.9620   23.4260 C   0  0  0  0  0  0  0  0  0  0  0  0
  -26.5700  -34.8560   22.4030 O   0  0  0  0  0  0  0  0  0  0  0  0
  -24.9480  -34.0670   24.9790 H   0  0  0  0  0  0  0  0  0  0  0  0
  -24.1600  -36.7480   23.0410 C   0  0  0  0  0  1  0  0  0  0  0  0
  -25.3910  -36.3500   23.8720 C   0  0  0  0  0  3  0  0  0  0  0  0
  -27.5060  -37.2470   24.7370 C   0  0  0  0  0  1  0  0  0  0  0  0
  -26.4220  -37.4050   23.7720 N   0  0  0  0  0  0  0  0  0  0  0  0
  -26.0090  -38.3250   23.9080 H   0  0  0  0  0  0  0  0  0  0  0  0
  1  2  2  0
  2 16  1  0
  2  6  1  0
  3  5  1  0
  3  6  1  0
  4  1  1  0
  4  3  2  0
  5  7  1  0
  8 17  1  0
  9 14  1  0
 10 11  1  0
 10  9  1  0
 12 11  1  0
 12 23  1  0
 12 13  1  0
 14  8  1  0
 14 13  1  0
 15  8  2  0
 16 18  2  0
 17 16  1  0
 19 17  1  0
 20 21  2  0
 21 40  1  0
 22 21  1  0
 22 25  1  0
 23 24  1  0
 23 20  1  0
 24 22  2  0
 25 26  1  0
 26 27  2  0
 28 31  1  0
 28 27  1  0
 29 28  2  0
 30 29  1  0
 30 25  2  0
 31 32  1  0
 32 33  1  0
 33 34  2  0
 35 34  1  0
 35 39  1  0
 36 35  2  0
 37 32  2  0
 37 36  1  0
 38 37  1  0
 40 41  1  0
 41 44  1  0
 41 43  1  0
 42 40  2  0
 45 46  1  0
 45 20  1  0
 47 45  1  0
 48  5  1  0
 49 48  1  0
 49 52  1  0
 50 51  1  0
 50 49  1  0
 53 55  1  0
 53 52  1  0
 54 65  2  0
 55 60  1  0
 56 64  1  0
 56 66  1  0
 57 63  1  0
 57 59  1  0
 58 64  1  0
 59 60  2  0
 59 58  1  0
 61 55  2  0
 62 61  1  0
 62 57  2  0
 63 56  1  0
 64 54  1  0
 66 68  2  0
 67 66  1  0
 69 67  1  0
 70 79  2  0
 70 75  1  0
 71 67  1  0
 71 75  1  0
 72 71  1  0
 73 74  1  0
 73 72  1  0
 74 70  1  0
 75 76  2  0
 76 77  1  0
 78 77  2  0
 79 78  1  0
 80 54  1  0
 80 85  1  0
 80 81  1  0
 81 84  1  1
 81 82  1  0
 83 81  1  0
 85 88  1  0
 86 90  1  0
 86 85  1  0
 87 86  2  0
 90 89  1  0
 92 90  1  0
 92 93  1  0
 92 91  1  0
M  ISO  4   8 100  17 100  52 101  53 101
M  END
>  <TORSDO>  (26) 
F 20

>  <SCORE>  (26) 
-13.986

>  <name>  (26) 
25

>  <ligand_id>  (26) 
25

>  <original_smiles>  (26) 
[H]OC([H])(C([H])([H])Oc1c([H])c([H])c2c(c1[H])C([H])([H])N(C(=O)C([H])(N([H])C(=O)C([H])(N([H])C([H])([H])[H])C([H])([H])[H])C(C([H])([H])[H])(C([H])([H])[H])C([H])([H])[H])C([H])(C(=O)N([H])C1([H])c3c([H])c([H])c([H])c([H])c3C([H])([H])C([H])([H])C1([H])[H])C2([H])[H])C([H])([H])N([H])c1nc([H])c(C(=O)N([H])C(=O)N2C([H])([H])C([H])([H])C([H])([H])C([H])(n3nc(-c4c([H])c([H])c(Oc5c([H])c([H])c(F)c([H])c5F)c([H])c4[H])c(C(=O)N([H])[H])c3N([H])[H])C2([H])[H])s1

>  <smiles>  (26) 
[H]OC([H])(C([H])([H])Oc1c([H])c([H])c2c(c1[H])C([H])([H])N(C(=O)C([H])(N([H])C(=O)C([H])(N([H])C([H])([H])[H])C([H])([H])[H])C(C([H])([H])[H])(C([H])([H])[H])C([H])([H])[H])C([H])(C(=O)N([H])C1([H])c3c([H])c([H])c([H])c([H])c3C([H])([H])C([H])([H])C1([H])[H])C2([H])[H])C([H])([H])N([H])c1nc([H])c(C(=O)N([H])C(=O)N2C([H])([H])C([H])([H])C([H])([H])C([H])(n3nc(-c4c([H])c([H])c(Oc5c([H])c([H])c(F)c([H])c5F)c([H])c4[H])c(C(=O)N([H])[H])c3N([H])[H])C2([H])[H])s1

$$$$
26:0:0
     RDKit          3D

 97105  0  0  1  0  0  0  0  0999 V2000
  -29.0360  -22.8330   19.6300 C   0  0  0  0  0  0  0  0  0  0  0  0
  -31.4450  -15.6970   20.3600 C   0  0  0  0  0  0  0  0  0  0  0  0
  -31.4080  -13.3030   19.5930 C   0  0  0  0  0  2  0  0  0  0  0  0
  -30.5720  -13.2500   18.2920 C   0  0  0  0  0  2  0  0  0  0  0  0
  -29.0740  -13.0790   18.6130 C   0  0  0  0  0  2  0  0  0  0  0  0
  -28.5930  -14.0460   19.7260 C   0  0  0  0  0  3  0  0  0  0  0  0
  -29.5600  -14.0870   20.9380 C   0  0  0  0  0  2  0  0  0  0  0  0
  -30.8930  -14.4320   20.4180 N   0  0  0  0  0  0  0  0  0  0  0  0
  -32.6110  -15.8290   19.9600 O   0  0  0  0  0  0  0  0  0  0  0  0
  -30.0910  -20.3770   19.6940 C   0  0  0  0  0  0  0  0  0  0  0  0
  -30.4830  -18.1120   20.0060 C   0  0  0  0  0  3  0  0  0  0  0  0
  -30.5500  -19.3800   20.5420 N   0  0  0  0  0  0  0  0  0  0  0  0
  -29.6150  -19.9400   18.5120 N   0  0  0  0  0  2  0  0  0  0  0  0
  -30.1410  -21.8140   19.9490 N   0  0  0  0  0  4  0  0  0  0  0  0
  -30.6570  -16.7980   20.6840 N   0  0  0  0  0  0  0  0  0  0  0  0
  -29.7850  -18.2360   18.4110 S   0  0  0  0  0  0  0  0  0  0  0  0
  -30.6410  -22.0310   20.8060 H   0  0  0  0  0  0  0  0  0  0  0  0
  -29.8170  -16.4990   21.1630 H   0  0  0  0  0  0  0  0  0  0  0  0
  -26.1810  -14.6720   20.3200 C   0  0  0  0  0  0  0  0  0  0  0  0
  -25.0770  -13.9190   20.6230 C   0  0  0  0  0  0  0  0  0  0  0  0
  -25.5120  -12.5580   20.5940 C   0  0  0  0  0  0  0  0  0  0  0  0
  -27.2160  -13.7750   20.1250 N   0  0  0  0  0  0  0  0  0  0  0  0
  -26.8150  -12.4970   20.3440 N   0  0  0  0  0  0  0  0  0  0  0  0
  -24.7470  -11.3080   20.7350 C   0  0  0  0  0  0  0  0  0  0  0  0
  -25.0610  -10.3620   21.7370 C   0  0  0  0  0  3  0  0  0  0  0  0
  -24.3050   -9.1800   21.8670 C   0  0  0  0  0  3  0  0  0  0  0  0
  -23.2210   -8.9270   20.9920 C   0  0  0  0  0  0  0  0  0  0  0  0
  -22.9290   -9.8570   19.9770 C   0  0  0  0  0  3  0  0  0  0  0  0
  -23.6860  -11.0370   19.8450 C   0  0  0  0  0  3  0  0  0  0  0  0
  -22.4550   -7.7890   21.0220 O   0  0  0  0  0  0  0  0  0  0  0  0
  -22.1490   -7.1560   22.1990 C   0  0  0  0  0  0  0  0  0  0  0  0
  -21.4380   -7.8040   23.2340 C   0  0  0  0  0  3  0  0  0  0  0  0
  -21.0860   -7.0940   24.3960 C   0  0  0  0  0  3  0  0  0  0  0  0
  -21.4350   -5.7350   24.5250 C   0  0  0  0  0  0  0  0  0  0  0  0
  -22.1430   -5.0880   23.4990 C   0  0  0  0  0  3  0  0  0  0  0  0
  -22.4950   -5.7980   22.3360 C   0  0  0  0  0  0  0  0  0  0  0  0
  -23.1560   -5.1610   21.3390 F   0  0  0  0  0  0  0  0  0  0  0  0
  -21.0880   -5.0540   25.6430 F   0  0  0  0  0  0  0  0  0  0  0  0
  -23.6800  -14.4190   20.8360 C   0  0  0  0  0  0  0  0  0  0  0  0
  -22.9100  -13.7450   21.6850 N   0  0  0  0  0  0  0  0  0  0  0  0
  -23.2760  -15.4460   20.2870 O   0  0  0  0  0  0  0  0  0  0  0  0
  -23.2540  -12.9270   22.1630 H   0  0  0  0  0  0  0  0  0  0  0  0
  -21.9670  -14.0630   21.8680 H   0  0  0  0  0  0  0  0  0  0  0  0
  -26.3810  -16.0410   20.1740 N   0  0  0  0  0  0  0  0  0  0  0  0
  -25.6160  -16.7000   20.2160 H   0  0  0  0  0  0  0  0  0  0  0  0
  -27.2430  -16.4470   19.8330 H   0  0  0  0  0  0  0  0  0  0  0  0
  -28.8140  -22.8670   22.1920 C   0  0  0  0  0  1  0  0  0  0  0  0
  -28.0590  -22.9690   20.8510 C   0  0  0  0  0  3  0  0  0  0  0  0
  -25.5130  -22.4780   21.2990 C   0  0  0  0  0  1  0  0  0  0  0  0
  -26.8830  -21.9440   20.8060 C   0  0  0  0  0  2  0  0  0  0  0  0
  -29.3260  -24.2310   18.7440 C   0  0  0  0  0  2  0  0  0  0  0  0
  -29.3420  -25.8450   19.1810 C   0  0  0  0  0  3  0  0  0  0  0  0
  -31.8920  -25.6730   19.7250 C   0  0  0  0  0  1  0  0  0  0  0  0
  -30.7800  -26.4440   18.9930 C   0  0  0  0  0  3  0  0  0  0  0  0
  -32.2460  -27.7230   17.2260 C   0  0  0  0  0  1  0  0  0  0  0  0
  -31.1750  -26.6430   17.4940 C   0  0  0  0  0  2  0  0  0  0  0  0
  -28.5900  -26.9590   18.4520 O   0  0  0  0  0  0  0  0  0  0  0  0
  -24.5290  -31.1520   22.9280 C   0  0  0  0  0  0  0  0  0  0  0  0
  -27.3750  -27.5770   18.8460 C   0  0  0  0  0  0  0  0  0  0  0  0
  -23.3460  -29.8510   21.1950 C   0  0  0  0  0  3  0  0  0  0  0  0
  -24.8170  -28.7960   19.3800 C   0  0  0  0  0  0  0  0  0  0  0  0
  -25.7700  -30.6060   20.8090 C   0  0  0  0  0  2  0  0  0  0  0  0
  -25.9740  -29.3710   19.9220 C   0  0  0  0  0  0  0  0  0  0  0  0
  -27.2550  -28.7810   19.6370 C   0  0  0  0  0  3  0  0  0  0  0  0
  -26.1800  -27.0740   18.3010 C   0  0  0  0  0  3  0  0  0  0  0  0
  -24.9230  -27.6590   18.5580 C   0  0  0  0  0  3  0  0  0  0  0  0
  -23.4840  -29.4430   19.7020 C   0  0  0  0  0  2  0  0  0  0  0  0
  -24.5710  -30.5530   21.6980 N   0  0  0  0  0  0  0  0  0  0  0  0
  -23.4960  -31.1430   23.6140 O   0  0  0  0  0  0  0  0  0  0  0  0
  -22.9690  -28.5990   22.0250 C   0  0  0  0  0  0  0  0  0  0  0  0
  -21.7090  -28.1470   21.9110 N   0  0  0  0  0  0  0  0  0  0  0  0
  -23.8150  -28.0400   22.7330 O   0  0  0  0  0  0  0  0  0  0  0  0
  -21.0700  -28.6650   21.3210 H   0  0  0  0  0  0  0  0  0  0  0  0
  -18.7620  -26.0610   22.2060 C   0  0  0  0  0  0  0  0  0  0  0  0
  -21.1620  -26.9540   22.5660 C   0  0  0  0  0  3  0  0  0  0  0  0
  -21.6370  -25.6650   21.8590 C   0  0  0  0  0  2  0  0  0  0  0  0
  -20.6580  -25.1700   20.7870 C   0  0  0  0  0  2  0  0  0  0  0  0
  -19.2860  -24.8800   21.4050 C   0  0  0  0  0  2  0  0  0  0  0  0
  -19.6400  -27.0410   22.7370 C   0  0  0  0  0  0  0  0  0  0  0  0
  -19.0990  -28.1330   23.4480 C   0  0  0  0  0  3  0  0  0  0  0  0
  -17.7080  -28.2540   23.6330 C   0  0  0  0  0  3  0  0  0  0  0  0
  -16.8440  -27.2720   23.1170 C   0  0  0  0  0  3  0  0  0  0  0  0
  -17.3720  -26.1770   22.4100 C   0  0  0  0  0  3  0  0  0  0  0  0
  -25.7670  -31.8870   23.5230 C   0  0  0  0  0  3  0  0  0  0  0  0
  -26.4740  -31.0790   24.6800 C   0  0  1  0  0  0  0  0  0  0  0  0
  -25.5130  -30.6210   25.8020 C   0  0  0  0  0  1  0  0  0  0  0  0
  -27.1730  -29.8230   24.1140 C   0  0  0  0  0  1  0  0  0  0  0  0
  -27.5840  -31.9490   25.3180 C   0  0  0  0  0  1  0  0  0  0  0  0
  -25.3190  -33.1990   24.0120 N   0  0  0  0  0  0  0  0  0  0  0  0
  -25.5310  -34.3580   23.3770 C   0  0  0  0  0  0  0  0  0  0  0  0
  -26.1830  -34.4400   22.3340 O   0  0  0  0  0  0  0  0  0  0  0  0
  -24.7340  -33.1990   24.8360 H   0  0  0  0  0  0  0  0  0  0  0  0
  -23.6240  -35.9890   23.2440 C   0  0  0  0  0  1  0  0  0  0  0  0
  -24.9150  -35.6300   23.9940 C   0  0  0  0  0  3  0  0  0  0  0  0
  -26.9620  -36.6380   24.9010 C   0  0  0  0  0  1  0  0  0  0  0  0
  -25.8350  -36.7890   23.9870 N   0  0  0  0  0  0  0  0  0  0  0  0
  -25.3390  -37.6450   24.2310 H   0  0  0  0  0  0  0  0  0  0  0  0
  1 14  2  3
  1 48  1  0
  2  8  1  0
  2 15  1  0
  3  8  1  0
  4  5  1  0
  4  3  1  0
  6  5  1  0
  6 22  1  0
  6  7  1  0
  8  7  1  0
  9  2  2  0
 10 14  1  0
 10 12  2  0
 11 12  1  0
 11 15  1  0
 13 10  1  0
 14 17  1  0
 15 18  1  0
 16 13  1  0
 16 11  1  0
 19 20  2  0
 20 39  1  0
 21 20  1  0
 21 24  1  0
 22 19  1  0
 22 23  1  0
 23 21  2  0
 24 25  1  0
 25 26  2  0
 27 30  1  0
 27 26  1  0
 28 27  2  0
 29 28  1  0
 29 24  2  0
 30 31  1  0
 31 36  2  0
 31 32  1  0
 32 33  2  0
 33 34  1  0
 34 38  1  0
 35 34  2  0
 36 35  1  0
 37 36  1  0
 39 40  1  0
 40 43  1  0
 40 42  1  0
 41 39  2  0
 44 45  1  0
 44 19  1  0
 46 44  1  0
 48 47  1  0
 50 48  1  0
 50 49  1  0
 51  1  1  0
 52 51  1  0
 54 52  1  0
 54 53  1  0
 55 56  1  0
 56 54  1  0
 57 59  1  0
 57 52  1  0
 58 69  2  0
 59 64  1  0
 60 68  1  0
 60 70  1  0
 61 67  1  0
 61 63  1  0
 62 68  1  0
 63 62  1  0
 64 63  2  0
 65 66  1  0
 65 59  2  0
 66 61  2  0
 67 60  1  0
 68 58  1  0
 70 72  2  0
 71 70  1  0
 73 71  1  0
 74 83  2  0
 74 79  1  0
 75 71  1  0
 75 79  1  0
 76 75  1  0
 77 78  1  0
 77 76  1  0
 78 74  1  0
 79 80  2  0
 80 81  1  0
 82 81  2  0
 83 82  1  0
 84 58  1  0
 84 89  1  0
 84 85  1  0
 85 88  1  1
 85 86  1  0
 87 85  1  0
 89 92  1  0
 90 94  1  0
 90 89  1  0
 91 90  2  0
 94 93  1  0
 96 94  1  0
 96 97  1  0
 96 95  1  0
M  ISO  4   2 100  15 100  52 101  57 101
M  END
>  <TORSDO>  (27) 
F 22

>  <SCORE>  (27) 
-7.752

>  <name>  (27) 
26

>  <ligand_id>  (27) 
26

>  <original_smiles>  (27) 
[H]c1c([H])c([H])c2c(c1[H])C([H])([H])C([H])([H])C([H])([H])C2([H])N([H])C(=O)C1([H])N(C(=O)C([H])(N([H])C(=O)C([H])(N([H])C([H])([H])[H])C([H])([H])[H])C(C([H])([H])[H])(C([H])([H])[H])C([H])([H])[H])C([H])([H])c2c([H])c(OC([H])(C([H])([H])C([H])(N([H])c3nsc(N([H])C(=O)N4C([H])([H])C([H])([H])C([H])([H])C([H])(n5nc(-c6c([H])c([H])c(Oc7c([H])c([H])c(F)c([H])c7F)c([H])c6[H])c(C(=O)N([H])[H])c5N([H])[H])C4([H])[H])n3)C([H])(C([H])([H])[H])C([H])([H])C([H])([H])[H])C([H])(C([H])([H])[H])C([H])([H])C([H])([H])[H])c([H])c([H])c2C1([H])[H]

>  <smiles>  (27) 
[H]c1c([H])c([H])c2c(c1[H])C([H])([H])C([H])([H])C([H])([H])C2([H])N([H])C(=O)C1([H])N(C(=O)C([H])(N([H])C(=O)C([H])(N([H])C([H])([H])[H])C([H])([H])[H])C(C([H])([H])[H])(C([H])([H])[H])C([H])([H])[H])C([H])([H])c2c([H])c(OC([H])(C([H])([H])C([H])(N([H])c3nsc(N([H])C(=O)N4C([H])([H])C([H])([H])C([H])([H])C([H])(n5nc(-c6c([H])c([H])c(Oc7c([H])c([H])c(F)c([H])c7F)c([H])c6[H])c(C(=O)N([H])[H])c5N([H])[H])C4([H])[H])n3)C([H])(C([H])([H])[H])C([H])([H])C([H])([H])[H])C([H])(C([H])([H])[H])C([H])([H])C([H])([H])[H])c([H])c([H])c2C1([H])[H]

$$$$
27:0:0
     RDKit          3D

 92100  0  0  1  0  0  0  0  0999 V2000
  -28.7190  -21.4780   18.7350 C   0  0  0  0  0  1  0  0  0  0  0  0
  -28.1960  -21.5100   20.1810 C   0  0  0  0  0  3  0  0  0  0  0  0
  -31.5110  -17.5450   20.6410 C   0  0  0  0  0  3  0  0  0  0  0  0
  -30.7740  -19.7390   20.6770 C   0  0  0  0  0  3  0  0  0  0  0  0
  -30.1800  -17.0480   20.7060 C   0  0  0  0  0  0  0  0  0  0  0  0
  -29.4320  -19.3000   20.7490 C   0  0  0  0  0  0  0  0  0  0  0  0
  -31.8120  -18.8690   20.6280 N   0  0  0  0  0  0  0  0  0  0  0  0
  -29.1510  -17.9590   20.7770 N   0  0  0  0  0  0  0  0  0  0  0  0
  -28.3300  -20.1870   20.8440 N   0  0  0  0  0  0  0  0  0  0  0  0
  -27.4500  -19.7130   21.0100 H   0  0  0  0  0  0  0  0  0  0  0  0
  -30.6570  -14.5660   20.3030 C   0  0  0  0  0  0  0  0  0  0  0  0
  -30.3710  -12.3710   19.1920 C   0  0  0  0  0  2  0  0  0  0  0  0
  -29.4060  -12.5310   17.9950 C   0  0  0  0  0  2  0  0  0  0  0  0
  -27.9410  -12.3870   18.4540 C   0  0  0  0  0  2  0  0  0  0  0  0
  -27.6140  -13.2410   19.7090 C   0  0  0  0  0  3  0  0  0  0  0  0
  -28.6900  -13.0530   20.8010 C   0  0  0  0  0  2  0  0  0  0  0  0
  -29.9950  -13.3760   20.2040 N   0  0  0  0  0  0  0  0  0  0  0  0
  -31.8050  -14.6960   19.8760 O   0  0  0  0  0  0  0  0  0  0  0  0
  -29.9030  -15.6250   20.7170 N   0  0  0  0  0  0  0  0  0  0  0  0
  -28.9520  -15.3810   20.9390 H   0  0  0  0  0  0  0  0  0  0  0  0
  -25.2340  -13.8450   20.4710 C   0  0  0  0  0  0  0  0  0  0  0  0
  -24.1730  -13.0720   20.8580 C   0  0  0  0  0  0  0  0  0  0  0  0
  -24.6330  -11.7210   20.8140 C   0  0  0  0  0  0  0  0  0  0  0  0
  -26.2740  -12.9630   20.2140 N   0  0  0  0  0  0  0  0  0  0  0  0
  -25.9180  -11.6810   20.4820 N   0  0  0  0  0  0  0  0  0  0  0  0
  -23.9120  -10.4580   21.0130 C   0  0  0  0  0  0  0  0  0  0  0  0
  -24.3550   -9.4940   21.9460 C   0  0  0  0  0  3  0  0  0  0  0  0
  -23.6360   -8.2920   22.1330 C   0  0  0  0  0  3  0  0  0  0  0  0
  -22.4580   -8.0480   21.3870 C   0  0  0  0  0  0  0  0  0  0  0  0
  -22.0320   -9.0020   20.4440 C   0  0  0  0  0  3  0  0  0  0  0  0
  -22.7510  -10.1940   20.2560 C   0  0  0  0  0  3  0  0  0  0  0  0
  -21.7080   -6.9010   21.4830 O   0  0  0  0  0  0  0  0  0  0  0  0
  -21.6660   -6.1660   22.6410 C   0  0  0  0  0  0  0  0  0  0  0  0
  -21.2230   -6.7220   23.8610 C   0  0  0  0  0  3  0  0  0  0  0  0
  -21.1290   -5.9110   25.0090 C   0  0  0  0  0  3  0  0  0  0  0  0
  -21.4620   -4.5460   24.9380 C   0  0  0  0  0  0  0  0  0  0  0  0
  -21.9000   -3.9910   23.7230 C   0  0  0  0  0  3  0  0  0  0  0  0
  -21.9970   -4.7990   22.5770 C   0  0  0  0  0  0  0  0  0  0  0  0
  -22.3970   -4.2540   21.4020 F   0  0  0  0  0  0  0  0  0  0  0  0
  -21.3660   -3.7650   26.0400 F   0  0  0  0  0  0  0  0  0  0  0  0
  -22.7800  -13.5490   21.1520 C   0  0  0  0  0  0  0  0  0  0  0  0
  -22.0620  -12.8560   22.0270 N   0  0  0  0  0  0  0  0  0  0  0  0
  -22.3340  -14.5760   20.6400 O   0  0  0  0  0  0  0  0  0  0  0  0
  -22.4350  -12.0330   22.4740 H   0  0  0  0  0  0  0  0  0  0  0  0
  -21.1260  -13.1590   22.2600 H   0  0  0  0  0  0  0  0  0  0  0  0
  -25.3970  -15.2140   20.2940 N   0  0  0  0  0  0  0  0  0  0  0  0
  -24.6370  -15.8720   20.4280 H   0  0  0  0  0  0  0  0  0  0  0  0
  -26.2310  -15.6500   19.9220 H   0  0  0  0  0  0  0  0  0  0  0  0
  -28.6980  -22.7380   21.0270 C   0  0  0  0  0  2  0  0  0  0  0  0
  -27.9700  -24.1430   20.9310 C   0  0  0  0  0  2  0  0  0  0  0  0
  -28.4280  -25.1750   19.8410 C   0  0  0  0  0  2  0  0  0  0  0  0
  -28.4040  -26.5930   20.2150 O   0  0  0  0  0  0  0  0  0  0  0  0
  -24.6090  -31.8760   23.2220 C   0  0  0  0  0  0  0  0  0  0  0  0
  -27.2430  -27.3590   20.1660 C   0  0  0  0  0  0  0  0  0  0  0  0
  -23.4140  -30.4720   21.5770 C   0  0  0  0  0  3  0  0  0  0  0  0
  -24.8710  -28.9300   20.1540 C   0  0  0  0  0  0  0  0  0  0  0  0
  -25.9490  -30.8070   21.4010 C   0  0  0  0  0  2  0  0  0  0  0  0
  -26.0310  -29.4330   20.7550 C   0  0  0  0  0  0  0  0  0  0  0  0
  -27.2210  -28.6580   20.7470 C   0  0  0  0  0  3  0  0  0  0  0  0
  -26.0640  -26.8920   19.5480 C   0  0  0  0  0  3  0  0  0  0  0  0
  -24.8880  -27.6660   19.5400 C   0  0  0  0  0  3  0  0  0  0  0  0
  -23.6280  -29.7910   20.2000 C   0  0  0  0  0  2  0  0  0  0  0  0
  -24.6750  -31.0690   22.1240 N   0  0  0  0  0  0  0  0  0  0  0  0
  -23.5230  -32.1500   23.7540 O   0  0  0  0  0  0  0  0  0  0  0  0
  -22.7550  -29.4520   22.5370 C   0  0  0  0  0  0  0  0  0  0  0  0
  -21.4300  -29.2800   22.4110 N   0  0  0  0  0  0  0  0  0  0  0  0
  -23.4370  -28.8170   23.3460 O   0  0  0  0  0  0  0  0  0  0  0  0
  -20.9420  -29.8390   21.7250 H   0  0  0  0  0  0  0  0  0  0  0  0
  -18.0440  -28.1230   22.9290 C   0  0  0  0  0  0  0  0  0  0  0  0
  -20.6070  -28.3440   23.1780 C   0  0  0  0  0  3  0  0  0  0  0  0
  -20.6850  -26.9190   22.5810 C   0  0  0  0  0  2  0  0  0  0  0  0
  -19.5680  -26.6250   21.5760 C   0  0  0  0  0  2  0  0  0  0  0  0
  -18.1940  -26.7810   22.2360 C   0  0  0  0  0  2  0  0  0  0  0  0
  -19.1770  -28.8640   23.3580 C   0  0  0  0  0  0  0  0  0  0  0  0
  -18.9820  -30.1240   23.9660 C   0  0  0  0  0  3  0  0  0  0  0  0
  -17.6850  -30.6420   24.1510 C   0  0  0  0  0  3  0  0  0  0  0  0
  -16.5670  -29.8950   23.7410 C   0  0  0  0  0  3  0  0  0  0  0  0
  -16.7470  -28.6390   23.1360 C   0  0  0  0  0  3  0  0  0  0  0  0
  -25.8880  -32.5110   23.8500 C   0  0  0  0  0  3  0  0  0  0  0  0
  -26.4020  -31.7400   25.1270 C   0  0  1  0  0  0  0  0  0  0  0  0
  -25.3040  -31.5010   26.1910 C   0  0  0  0  0  1  0  0  0  0  0  0
  -26.9930  -30.3640   24.7390 C   0  0  0  0  0  1  0  0  0  0  0  0
  -27.5450  -32.5400   25.7950 C   0  0  0  0  0  1  0  0  0  0  0  0
  -25.5740  -33.9070   24.1800 N   0  0  0  0  0  0  0  0  0  0  0  0
  -25.9020  -34.9620   23.4230 C   0  0  0  0  0  0  0  0  0  0  0  0
  -26.5720  -34.8620   22.3910 O   0  0  0  0  0  0  0  0  0  0  0  0
  -24.9820  -34.0590   24.9830 H   0  0  0  0  0  0  0  0  0  0  0  0
  -24.1690  -36.7490   23.0660 C   0  0  0  0  0  1  0  0  0  0  0  0
  -25.4070  -36.3460   23.8810 C   0  0  0  0  0  3  0  0  0  0  0  0
  -27.5350  -37.2380   24.7250 C   0  0  0  0  0  1  0  0  0  0  0  0
  -26.4370  -37.4030   23.7760 N   0  0  0  0  0  0  0  0  0  0  0  0
  -26.0270  -38.3220   23.9210 H   0  0  0  0  0  0  0  0  0  0  0  0
  2  1  1  0
  2  9  1  0
  2 49  1  0
  3  5  1  0
  4  6  2  0
  5 19  1  0
  5  8  2  0
  6  8  1  0
  6  9  1  0
  7  3  2  0
  7  4  1  0
  9 10  1  0
 11 19  1  0
 12 17  1  0
 13 14  1  0
 13 12  1  0
 15 14  1  0
 15 24  1  0
 15 16  1  0
 17 11  1  0
 17 16  1  0
 18 11  2  0
 19 20  1  0
 21 22  2  0
 22 41  1  0
 23 22  1  0
 23 26  1  0
 24 21  1  0
 24 25  1  0
 25 23  2  0
 26 27  1  0
 27 28  2  0
 29 32  1  0
 29 28  1  0
 30 29  2  0
 31 30  1  0
 31 26  2  0
 32 33  1  0
 33 34  1  0
 34 35  2  0
 36 35  1  0
 36 40  1  0
 37 36  2  0
 38 33  2  0
 38 37  1  0
 39 38  1  0
 41 42  1  0
 42 45  1  0
 42 44  1  0
 43 41  2  0
 46 47  1  0
 46 21  1  0
 48 46  1  0
 50 49  1  0
 51 52  1  0
 51 50  1  0
 53 64  2  0
 54 52  1  0
 54 59  1  0
 55 63  1  0
 55 65  1  0
 56 62  1  0
 56 58  1  0
 57 63  1  0
 58 57  1  0
 59 58  2  0
 60 54  2  0
 61 60  1  0
 61 56  2  0
 62 55  1  0
 63 53  1  0
 65 67  2  0
 66 65  1  0
 68 66  1  0
 69 78  2  0
 69 74  1  0
 70 66  1  0
 70 74  1  0
 71 70  1  0
 72 73  1  0
 72 71  1  0
 73 69  1  0
 74 75  2  0
 75 76  1  0
 77 76  2  0
 78 77  1  0
 79 53  1  0
 79 84  1  0
 79 80  1  0
 80 83  1  1
 80 81  1  0
 82 80  1  0
 84 87  1  0
 85 89  1  0
 85 84  1  0
 86 85  2  0
 89 88  1  0
 91 89  1  0
 91 92  1  0
 91 90  1  0
M  ISO  4  11 100  19 100  51 101  52 101
M  END
>  <TORSDO>  (28) 
F 20

>  <SCORE>  (28) 
-14.231

>  <name>  (28) 
27

>  <ligand_id>  (28) 
27

>  <original_smiles>  (28) 
[H]c1nc([H])c(N([H])C([H])(C([H])([H])[H])C([H])([H])C([H])([H])C([H])([H])Oc2c([H])c([H])c3c(c2[H])C([H])([H])N(C(=O)C([H])(N([H])C(=O)C([H])(N([H])C([H])([H])[H])C([H])([H])[H])C(C([H])([H])[H])(C([H])([H])[H])C([H])([H])[H])C([H])(C(=O)N([H])C2([H])c4c([H])c([H])c([H])c([H])c4C([H])([H])C([H])([H])C2([H])[H])C3([H])[H])nc1N([H])C(=O)N1C([H])([H])C([H])([H])C([H])([H])C([H])(n2nc(-c3c([H])c([H])c(Oc4c([H])c([H])c(F)c([H])c4F)c([H])c3[H])c(C(=O)N([H])[H])c2N([H])[H])C1([H])[H]

>  <smiles>  (28) 
[H]c1nc([H])c(N([H])C([H])(C([H])([H])[H])C([H])([H])C([H])([H])C([H])([H])Oc2c([H])c([H])c3c(c2[H])C([H])([H])N(C(=O)C([H])(N([H])C(=O)C([H])(N([H])C([H])([H])[H])C([H])([H])[H])C(C([H])([H])[H])(C([H])([H])[H])C([H])([H])[H])C([H])(C(=O)N([H])C2([H])c4c([H])c([H])c([H])c([H])c4C([H])([H])C([H])([H])C2([H])[H])C3([H])[H])nc1N([H])C(=O)N1C([H])([H])C([H])([H])C([H])([H])C([H])(n2nc(-c3c([H])c([H])c(Oc4c([H])c([H])c(F)c([H])c4F)c([H])c3[H])c(C(=O)N([H])[H])c2N([H])[H])C1([H])[H]

$$$$
28:0:0
     RDKit          3D

 93101  0  0  1  0  0  0  0  0999 V2000
  -29.5470  -20.7110   19.1840 C   0  0  0  0  0  3  0  0  0  0  0  0
  -28.6130  -20.1460   21.2940 C   0  0  0  0  0  3  0  0  0  0  0  0
  -30.0150  -19.3700   19.0890 C   0  0  0  0  0  0  0  0  0  0  0  0
  -28.8420  -21.1660   20.3240 C   0  0  0  0  0  0  0  0  0  0  0  0
  -29.7950  -18.4410   20.1550 C   0  0  0  0  0  0  0  0  0  0  0  0
  -30.8110  -18.9810   17.8480 C   0  0  0  0  0  1  0  0  0  0  0  0
  -29.0720  -18.8590   21.2290 N   0  0  0  0  0  0  0  0  0  0  0  0
  -30.7910  -14.7190   19.9520 C   0  0  0  0  0  0  0  0  0  0  0  0
  -30.4350  -12.4900   18.9130 C   0  0  0  0  0  2  0  0  0  0  0  0
  -29.4220  -12.5870   17.7540 C   0  0  0  0  0  2  0  0  0  0  0  0
  -27.9920  -12.4150   18.2960 C   0  0  0  0  0  2  0  0  0  0  0  0
  -27.7040  -13.3160   19.5260 C   0  0  0  0  0  3  0  0  0  0  0  0
  -28.8300  -13.2320   20.5780 C   0  0  0  0  0  2  0  0  0  0  0  0
  -30.0900  -13.5420   19.8940 N   0  0  0  0  0  0  0  0  0  0  0  0
  -31.9610  -14.7290   19.5630 O   0  0  0  0  0  0  0  0  0  0  0  0
  -30.6480  -17.1530   20.2720 C   0  0  0  0  0  0  0  0  0  0  0  0
  -30.1050  -15.8910   20.2080 N   0  0  0  0  0  0  0  0  0  0  0  0
  -31.8650  -17.3460   20.4020 O   0  0  0  0  0  0  0  0  0  0  0  0
  -29.1040  -15.8440   20.2950 H   0  0  0  0  0  0  0  0  0  0  0  0
  -25.3810  -13.9160   20.4300 C   0  0  0  0  0  0  0  0  0  0  0  0
  -24.3340  -13.1420   20.8500 C   0  0  0  0  0  0  0  0  0  0  0  0
  -24.7780  -11.7890   20.7540 C   0  0  0  0  0  0  0  0  0  0  0  0
  -26.3950  -13.0310   20.1010 N   0  0  0  0  0  0  0  0  0  0  0  0
  -26.0440  -11.7460   20.3590 N   0  0  0  0  0  0  0  0  0  0  0  0
  -24.0500  -10.5290   20.9580 C   0  0  0  0  0  0  0  0  0  0  0  0
  -24.5030   -9.5570   21.8750 C   0  0  0  0  0  3  0  0  0  0  0  0
  -23.7780   -8.3600   22.0660 C   0  0  0  0  0  3  0  0  0  0  0  0
  -22.5860   -8.1280   21.3380 C   0  0  0  0  0  0  0  0  0  0  0  0
  -22.1520   -9.0910   20.4080 C   0  0  0  0  0  3  0  0  0  0  0  0
  -22.8780  -10.2800   20.2170 C   0  0  0  0  0  3  0  0  0  0  0  0
  -21.8300   -6.9870   21.4420 O   0  0  0  0  0  0  0  0  0  0  0  0
  -21.7790   -6.2590   22.6040 C   0  0  0  0  0  0  0  0  0  0  0  0
  -21.3090   -6.8180   23.8120 C   0  0  0  0  0  3  0  0  0  0  0  0
  -21.2050   -6.0160   24.9660 C   0  0  0  0  0  3  0  0  0  0  0  0
  -21.5610   -4.6550   24.9130 C   0  0  0  0  0  0  0  0  0  0  0  0
  -22.0230   -4.0950   23.7080 C   0  0  0  0  0  3  0  0  0  0  0  0
  -22.1290   -4.8950   22.5570 C   0  0  0  0  0  0  0  0  0  0  0  0
  -22.5550   -4.3440   21.3950 F   0  0  0  0  0  0  0  0  0  0  0  0
  -21.4550   -3.8830   26.0180 F   0  0  0  0  0  0  0  0  0  0  0  0
  -22.9650  -13.6250   21.2280 C   0  0  0  0  0  0  0  0  0  0  0  0
  -22.2870  -12.9090   22.1200 N   0  0  0  0  0  0  0  0  0  0  0  0
  -22.5070  -14.6710   20.7730 O   0  0  0  0  0  0  0  0  0  0  0  0
  -22.6690  -12.0610   22.5110 H   0  0  0  0  0  0  0  0  0  0  0  0
  -21.3700  -13.2100   22.4140 H   0  0  0  0  0  0  0  0  0  0  0  0
  -25.5490  -15.2890   20.2780 N   0  0  0  0  0  0  0  0  0  0  0  0
  -24.7950  -15.9440   20.4510 H   0  0  0  0  0  0  0  0  0  0  0  0
  -26.3670  -15.7310   19.8830 H   0  0  0  0  0  0  0  0  0  0  0  0
  -28.3640  -22.5070   20.5490 N   0  0  0  0  0  0  0  0  0  0  0  0
  -27.8930  -22.6330   21.4440 H   0  0  0  0  0  0  0  0  0  0  0  0
  -28.1910  -23.7940   18.4020 C   0  0  0  0  0  1  0  0  0  0  0  0
  -28.6940  -23.8000   19.8540 C   0  0  0  0  0  3  0  0  0  0  0  0
  -28.1060  -25.0830   20.6130 C   0  0  0  0  0  2  0  0  0  0  0  0
  -28.4320  -26.4770   20.1990 O   0  0  0  0  0  0  0  0  0  0  0  0
  -24.6600  -31.8670   23.2200 C   0  0  0  0  0  0  0  0  0  0  0  0
  -27.3490  -27.3660   20.1490 C   0  0  0  0  0  0  0  0  0  0  0  0
  -23.5010  -30.4780   21.5440 C   0  0  0  0  0  3  0  0  0  0  0  0
  -24.9900  -28.9700   20.1160 C   0  0  0  0  0  0  0  0  0  0  0  0
  -26.0410  -30.8210   21.4100 C   0  0  0  0  0  2  0  0  0  0  0  0
  -26.1450  -29.4520   20.7480 C   0  0  0  0  0  0  0  0  0  0  0  0
  -27.3320  -28.6580   20.7600 C   0  0  0  0  0  3  0  0  0  0  0  0
  -26.1840  -26.9530   19.4720 C   0  0  0  0  0  3  0  0  0  0  0  0
  -25.0110  -27.7250   19.4720 C   0  0  0  0  0  3  0  0  0  0  0  0
  -23.7470  -29.8350   20.1560 C   0  0  0  0  0  2  0  0  0  0  0  0
  -24.7530  -31.0700   22.1150 N   0  0  0  0  0  0  0  0  0  0  0  0
  -23.5640  -32.1300   23.7360 O   0  0  0  0  0  0  0  0  0  0  0  0
  -22.8330  -29.4370   22.4720 C   0  0  0  0  0  0  0  0  0  0  0  0
  -21.5070  -29.2650   22.3340 N   0  0  0  0  0  0  0  0  0  0  0  0
  -23.5080  -28.7900   23.2770 O   0  0  0  0  0  0  0  0  0  0  0  0
  -21.0170  -29.8370   21.6600 H   0  0  0  0  0  0  0  0  0  0  0  0
  -18.1230  -28.0950   22.8220 C   0  0  0  0  0  0  0  0  0  0  0  0
  -20.6850  -28.3140   23.0850 C   0  0  0  0  0  3  0  0  0  0  0  0
  -20.7670  -26.9000   22.4680 C   0  0  0  0  0  2  0  0  0  0  0  0
  -19.6570  -26.6210   21.4490 C   0  0  0  0  0  2  0  0  0  0  0  0
  -18.2800  -26.7640   22.1040 C   0  0  0  0  0  2  0  0  0  0  0  0
  -19.2530  -28.8300   23.2680 C   0  0  0  0  0  0  0  0  0  0  0  0
  -19.0520  -30.0780   23.8950 C   0  0  0  0  0  3  0  0  0  0  0  0
  -17.7560  -30.5910   24.0840 C   0  0  0  0  0  3  0  0  0  0  0  0
  -16.6400  -29.8520   23.6540 C   0  0  0  0  0  3  0  0  0  0  0  0
  -16.8250  -28.6060   23.0290 C   0  0  0  0  0  3  0  0  0  0  0  0
  -25.9250  -32.5050   23.8710 C   0  0  0  0  0  3  0  0  0  0  0  0
  -26.4110  -31.7390   25.1630 C   0  0  1  0  0  0  0  0  0  0  0  0
  -25.2890  -31.4940   26.1990 C   0  0  0  0  0  1  0  0  0  0  0  0
  -27.0130  -30.3640   24.7910 C   0  0  0  0  0  1  0  0  0  0  0  0
  -27.5390  -32.5390   25.8560 C   0  0  0  0  0  1  0  0  0  0  0  0
  -25.6020  -33.9040   24.1900 N   0  0  0  0  0  0  0  0  0  0  0  0
  -25.9420  -34.9550   23.4300 C   0  0  0  0  0  0  0  0  0  0  0  0
  -26.6320  -34.8490   22.4120 O   0  0  0  0  0  0  0  0  0  0  0  0
  -24.9850  -34.0610   24.9730 H   0  0  0  0  0  0  0  0  0  0  0  0
  -24.2160  -36.7390   23.0280 C   0  0  0  0  0  1  0  0  0  0  0  0
  -25.4410  -36.3440   23.8680 C   0  0  0  0  0  3  0  0  0  0  0  0
  -27.5480  -37.2480   24.7470 C   0  0  0  0  0  1  0  0  0  0  0  0
  -26.4720  -37.3990   23.7700 N   0  0  0  0  0  0  0  0  0  0  0  0
  -26.0610  -38.3200   23.8910 H   0  0  0  0  0  0  0  0  0  0  0  0
  1  4  1  0
  3  1  2  0
  3  5  1  0
  4 48  1  0
  4  2  2  0
  5 16  1  0
  5  7  2  0
  6  3  1  0
  7  2  1  0
  8 17  1  0
  9 14  1  0
 10 11  1  0
 10  9  1  0
 12 11  1  0
 12 23  1  0
 12 13  1  0
 14  8  1  0
 14 13  1  0
 15  8  2  0
 16 18  2  0
 17 16  1  0
 17 19  1  0
 20 21  2  0
 21 40  1  0
 22 21  1  0
 22 25  1  0
 23 24  1  0
 23 20  1  0
 24 22  2  0
 25 26  1  0
 26 27  2  0
 28 31  1  0
 28 27  1  0
 29 28  2  0
 30 29  1  0
 30 25  2  0
 31 32  1  0
 32 33  1  0
 33 34  2  0
 35 34  1  0
 35 39  1  0
 36 35  2  0
 37 32  2  0
 37 36  1  0
 38 37  1  0
 40 41  1  0
 41 44  1  0
 41 43  1  0
 42 40  2  0
 45 20  1  0
 45 46  1  0
 47 45  1  0
 48 49  1  0
 51 50  1  0
 51 48  1  0
 51 52  1  0
 53 52  1  0
 54 65  2  0
 55 53  1  0
 55 60  1  0
 56 64  1  0
 56 66  1  0
 57 63  1  0
 57 59  1  0
 58 64  1  0
 59 60  2  0
 59 58  1  0
 61 62  1  0
 61 55  2  0
 62 57  2  0
 63 56  1  0
 64 54  1  0
 66 68  2  0
 67 66  1  0
 69 67  1  0
 70 79  2  0
 70 75  1  0
 71 67  1  0
 71 75  1  0
 72 71  1  0
 73 74  1  0
 73 72  1  0
 74 70  1  0
 75 76  2  0
 76 77  1  0
 78 77  2  0
 79 78  1  0
 80 54  1  0
 80 85  1  0
 80 81  1  0
 81 84  1  1
 81 82  1  0
 83 81  1  0
 85 88  1  0
 86 90  1  0
 86 85  1  0
 87 86  2  0
 90 89  1  0
 92 90  1  0
 92 93  1  0
 92 91  1  0
M  ISO  4   8 100  17 100  52 101  53 101
M  END
>  <TORSDO>  (29) 
F 19

>  <SCORE>  (29) 
-13.479

>  <name>  (29) 
28

>  <ligand_id>  (29) 
28

>  <original_smiles>  (29) 
[H]c1nc(C(=O)N([H])C(=O)N2C([H])([H])C([H])([H])C([H])([H])C([H])(n3nc(-c4c([H])c([H])c(Oc5c([H])c([H])c(F)c([H])c5F)c([H])c4[H])c(C(=O)N([H])[H])c3N([H])[H])C2([H])[H])c(C([H])([H])[H])c([H])c1N([H])C([H])(C([H])([H])[H])C([H])([H])Oc1c([H])c([H])c2c(c1[H])C([H])([H])N(C(=O)C([H])(N([H])C(=O)C([H])(N([H])C([H])([H])[H])C([H])([H])[H])C(C([H])([H])[H])(C([H])([H])[H])C([H])([H])[H])C([H])(C(=O)N([H])C1([H])c3c([H])c([H])c([H])c([H])c3C([H])([H])C([H])([H])C1([H])[H])C2([H])[H]

>  <smiles>  (29) 
[H]c1nc(C(=O)N([H])C(=O)N2C([H])([H])C([H])([H])C([H])([H])C([H])(n3nc(-c4c([H])c([H])c(Oc5c([H])c([H])c(F)c([H])c5F)c([H])c4[H])c(C(=O)N([H])[H])c3N([H])[H])C2([H])[H])c(C([H])([H])[H])c([H])c1N([H])C([H])(C([H])([H])[H])C([H])([H])Oc1c([H])c([H])c2c(c1[H])C([H])([H])N(C(=O)C([H])(N([H])C(=O)C([H])(N([H])C([H])([H])[H])C([H])([H])[H])C(C([H])([H])[H])(C([H])([H])[H])C([H])([H])[H])C([H])(C(=O)N([H])C1([H])c3c([H])c([H])c([H])c([H])c3C([H])([H])C([H])([H])C1([H])[H])C2([H])[H]

$$$$
29:0:0
     RDKit          3D

 97105  0  0  1  0  0  0  0  0999 V2000
  -29.8730  -21.6500   20.0760 C   0  0  0  0  0  3  0  0  0  0  0  0
  -28.7080  -18.0480   20.4270 C   0  0  0  0  0  3  0  0  0  0  0  0
  -29.8820  -20.0910   20.2750 C   0  0  0  0  0  0  0  0  0  0  0  0
  -29.8900  -17.2430   20.4860 C   0  0  0  0  0  0  0  0  0  0  0  0
  -31.0700  -19.2850   20.3720 C   0  0  0  0  0  0  0  0  0  0  0  0
  -28.6920  -19.4230   20.3210 N   0  0  0  0  0  0  0  0  0  0  0  0
  -31.0730  -17.9190   20.4560 N   0  0  0  0  0  0  0  0  0  0  0  0
  -32.3460  -19.8350   20.3700 N   0  0  0  0  0  0  0  0  0  0  0  0
  -32.4970  -20.7970   20.6510 H   0  0  0  0  0  0  0  0  0  0  0  0
  -33.1260  -19.2280   20.5990 H   0  0  0  0  0  0  0  0  0  0  0  0
  -30.5690  -14.7230   20.3100 C   0  0  0  0  0  0  0  0  0  0  0  0
  -30.3770  -12.4770   19.2510 C   0  0  0  0  0  2  0  0  0  0  0  0
  -29.4200  -12.5900   18.0420 C   0  0  0  0  0  2  0  0  0  0  0  0
  -27.9520  -12.4230   18.4840 C   0  0  0  0  0  2  0  0  0  0  0  0
  -27.5970  -13.2840   19.7270 C   0  0  0  0  0  3  0  0  0  0  0  0
  -28.6650  -13.1360   20.8330 C   0  0  0  0  0  2  0  0  0  0  0  0
  -29.9630  -13.4920   20.2420 N   0  0  0  0  0  0  0  0  0  0  0  0
  -31.7420  -14.8640   19.9520 O   0  0  0  0  0  0  0  0  0  0  0  0
  -29.7400  -15.7850   20.5950 N   0  0  0  0  0  0  0  0  0  0  0  0
  -28.8050  -15.4910   20.8280 H   0  0  0  0  0  0  0  0  0  0  0  0
  -25.2100  -13.8790   20.4660 C   0  0  0  0  0  0  0  0  0  0  0  0
  -24.1470  -13.1030   20.8440 C   0  0  0  0  0  0  0  0  0  0  0  0
  -24.6130  -11.7520   20.8090 C   0  0  0  0  0  0  0  0  0  0  0  0
  -26.2530  -12.9990   20.2200 N   0  0  0  0  0  0  0  0  0  0  0  0
  -25.9000  -11.7160   20.4890 N   0  0  0  0  0  0  0  0  0  0  0  0
  -23.8890  -10.4900   21.0010 C   0  0  0  0  0  0  0  0  0  0  0  0
  -24.3160   -9.5300   21.9450 C   0  0  0  0  0  3  0  0  0  0  0  0
  -23.5910   -8.3320   22.1260 C   0  0  0  0  0  3  0  0  0  0  0  0
  -22.4260   -8.0860   21.3620 C   0  0  0  0  0  0  0  0  0  0  0  0
  -22.0180   -9.0340   20.4070 C   0  0  0  0  0  3  0  0  0  0  0  0
  -22.7440  -10.2220   20.2250 C   0  0  0  0  0  3  0  0  0  0  0  0
  -21.6740   -6.9390   21.4510 O   0  0  0  0  0  0  0  0  0  0  0  0
  -21.6080   -6.2110   22.6110 C   0  0  0  0  0  0  0  0  0  0  0  0
  -21.1350   -6.7740   23.8170 C   0  0  0  0  0  3  0  0  0  0  0  0
  -21.0180   -5.9710   24.9700 C   0  0  0  0  0  3  0  0  0  0  0  0
  -21.3620   -4.6060   24.9170 C   0  0  0  0  0  0  0  0  0  0  0  0
  -21.8250   -4.0430   23.7150 C   0  0  0  0  0  3  0  0  0  0  0  0
  -21.9450   -4.8440   22.5640 C   0  0  0  0  0  0  0  0  0  0  0  0
  -22.3720   -4.2910   21.4040 F   0  0  0  0  0  0  0  0  0  0  0  0
  -21.2410   -3.8320   26.0210 F   0  0  0  0  0  0  0  0  0  0  0  0
  -22.7520  -13.5780   21.1250 C   0  0  0  0  0  0  0  0  0  0  0  0
  -22.0270  -12.8720   21.9860 N   0  0  0  0  0  0  0  0  0  0  0  0
  -22.3120  -14.6080   20.6160 O   0  0  0  0  0  0  0  0  0  0  0  0
  -22.3980  -12.0390   22.4180 H   0  0  0  0  0  0  0  0  0  0  0  0
  -21.0880  -13.1690   22.2150 H   0  0  0  0  0  0  0  0  0  0  0  0
  -25.3640  -15.2500   20.2860 N   0  0  0  0  0  0  0  0  0  0  0  0
  -24.5760  -15.8800   20.3890 H   0  0  0  0  0  0  0  0  0  0  0  0
  -26.1640  -15.6890   19.8500 H   0  0  0  0  0  0  0  0  0  0  0  0
  -28.6150  -22.4710   20.2760 N   0  0  0  0  0  4  0  0  0  0  0  0
  -28.0280  -21.9330   20.8910 H   0  0  0  0  0  0  0  0  0  0  0  0
  -28.1900  -22.4490   19.3580 H   0  0  0  0  0  0  0  0  0  0  0  0
  -27.6780  -24.0910   21.9380 C   0  0  0  0  0  1  0  0  0  0  0  0
  -28.6860  -23.9250   20.7820 C   0  0  0  0  0  3  0  0  0  0  0  0
  -28.4330  -25.0950   19.7150 C   0  0  0  0  0  2  0  0  0  0  0  0
  -28.3930  -26.5170   20.1810 O   0  0  0  0  0  0  0  0  0  0  0  0
  -24.6110  -31.8760   23.2190 C   0  0  0  0  0  0  0  0  0  0  0  0
  -27.2430  -27.3320   20.1330 C   0  0  0  0  0  0  0  0  0  0  0  0
  -23.4160  -30.4900   21.5640 C   0  0  0  0  0  3  0  0  0  0  0  0
  -24.8720  -28.9540   20.1330 C   0  0  0  0  0  0  0  0  0  0  0  0
  -25.9560  -30.8100   21.3900 C   0  0  0  0  0  2  0  0  0  0  0  0
  -26.0380  -29.4340   20.7370 C   0  0  0  0  0  0  0  0  0  0  0  0
  -27.2220  -28.6350   20.7290 C   0  0  0  0  0  3  0  0  0  0  0  0
  -26.0450  -26.9100   19.5070 C   0  0  0  0  0  3  0  0  0  0  0  0
  -24.8790  -27.6970   19.5110 C   0  0  0  0  0  3  0  0  0  0  0  0
  -23.6360  -29.8290   20.1780 C   0  0  0  0  0  2  0  0  0  0  0  0
  -24.6810  -31.0760   22.1150 N   0  0  0  0  0  0  0  0  0  0  0  0
  -23.5260  -32.1440   23.7530 O   0  0  0  0  0  0  0  0  0  0  0  0
  -22.7510  -29.4630   22.5120 C   0  0  0  0  0  0  0  0  0  0  0  0
  -21.4240  -29.2910   22.3840 N   0  0  0  0  0  0  0  0  0  0  0  0
  -23.4280  -28.8260   23.3230 O   0  0  0  0  0  0  0  0  0  0  0  0
  -20.9350  -29.8620   21.7090 H   0  0  0  0  0  0  0  0  0  0  0  0
  -18.0420  -28.1080   22.8800 C   0  0  0  0  0  0  0  0  0  0  0  0
  -20.6020  -28.3490   23.1460 C   0  0  0  0  0  3  0  0  0  0  0  0
  -20.6940  -26.9220   22.5540 C   0  0  0  0  0  2  0  0  0  0  0  0
  -19.5870  -26.6190   21.5390 C   0  0  0  0  0  2  0  0  0  0  0  0
  -18.2080  -26.7650   22.1900 C   0  0  0  0  0  2  0  0  0  0  0  0
  -19.1660  -28.8580   23.3170 C   0  0  0  0  0  0  0  0  0  0  0  0
  -18.9570  -30.1150   23.9240 C   0  0  0  0  0  3  0  0  0  0  0  0
  -17.6560  -30.6220   24.1020 C   0  0  0  0  0  3  0  0  0  0  0  0
  -16.5460  -29.8680   23.6830 C   0  0  0  0  0  3  0  0  0  0  0  0
  -16.7400  -28.6140   23.0760 C   0  0  0  0  0  3  0  0  0  0  0  0
  -25.8900  -32.5080   23.8490 C   0  0  0  0  0  3  0  0  0  0  0  0
  -25.5790  -33.9080   24.1710 N   0  0  0  0  0  0  0  0  0  0  0  0
  -25.9230  -34.9600   23.4180 C   0  0  0  0  0  0  0  0  0  0  0  0
  -26.6040  -34.8560   22.3940 O   0  0  0  0  0  0  0  0  0  0  0  0
  -24.9720  -34.0610   24.9640 H   0  0  0  0  0  0  0  0  0  0  0  0
  -24.2110  -36.7660   23.0390 C   0  0  0  0  0  1  0  0  0  0  0  0
  -25.4360  -36.3520   23.8700 C   0  0  0  0  0  3  0  0  0  0  0  0
  -27.5580  -37.2250   24.7430 C   0  0  0  0  0  1  0  0  0  0  0  0
  -26.4760  -37.3990   23.7770 N   0  0  0  0  0  0  0  0  0  0  0  0
  -26.0740  -38.3220   23.9170 H   0  0  0  0  0  0  0  0  0  0  0  0
  -26.3930  -31.7390   25.1310 C   0  0  1  0  0  0  0  0  0  0  0  0
  -25.2910  -31.5050   26.1900 C   0  0  0  0  0  1  0  0  0  0  0  0
  -26.9740  -30.3580   24.7470 C   0  0  0  0  0  1  0  0  0  0  0  0
  -27.5380  -32.5320   25.8010 C   0  0  0  0  0  1  0  0  0  0  0  0
  -30.1850  -21.7900   18.5770 C   0  0  0  0  0  3  0  0  0  0  0  0
  -29.4350  -22.3520   17.7690 O   0  0  0  0  0  0  0  0  0  0  0  0
  1 96  1  0
  1  3  1  0
  1 49  1  0
  2  4  1  0
  3  6  1  0
  3  5  2  0
  4 19  1  0
  5  7  1  0
  6  2  2  0
  7  4  2  0
  8  5  1  0
  8 10  1  0
  8  9  1  0
 11 19  1  0
 12 17  1  0
 13 14  1  0
 13 12  1  0
 15 14  1  0
 15 24  1  0
 15 16  1  0
 17 11  1  0
 17 16  1  0
 18 11  2  0
 19 20  1  0
 21 22  2  0
 22 41  1  0
 23 22  1  0
 23 26  1  0
 24 21  1  0
 24 25  1  0
 25 23  2  0
 26 27  1  0
 27 28  2  0
 29 32  1  0
 29 28  1  0
 30 29  2  0
 31 30  1  0
 31 26  2  0
 32 33  1  0
 33 34  1  0
 34 35  2  0
 36 35  1  0
 36 40  1  0
 37 36  2  0
 38 33  2  0
 38 37  1  0
 39 38  1  0
 41 42  1  0
 42 45  1  0
 42 44  1  0
 43 41  2  0
 46 47  1  0
 46 21  1  0
 48 46  1  0
 49 53  1  0
 49 50  1  0
 51 49  1  0
 53 52  1  0
 54 55  1  0
 54 53  1  0
 56 67  2  0
 57 55  1  0
 57 62  1  0
 58 66  1  0
 58 68  1  0
 59 65  1  0
 59 61  1  0
 60 66  1  0
 61 60  1  0
 62 61  2  0
 63 64  1  0
 63 57  2  0
 64 59  2  0
 65 58  1  0
 66 56  1  0
 68 70  2  0
 69 68  1  0
 71 69  1  0
 72 81  2  0
 72 77  1  0
 73 69  1  0
 73 77  1  0
 74 73  1  0
 75 76  1  0
 75 74  1  0
 76 72  1  0
 77 78  2  0
 78 79  1  0
 80 79  2  0
 81 80  1  0
 82 56  1  0
 82 83  1  0
 82 92  1  0
 83 86  1  0
 84 88  1  0
 84 83  1  0
 85 84  2  0
 88 87  1  0
 90 88  1  0
 90 91  1  0
 90 89  1  0
 92 95  1  1
 92 93  1  0
 94 92  1  0
 97 96  2  0
M  ISO  4  11 100  19 100  54 101  55 101
M  END
>  <TORSDO>  (30) 
F 21

>  <SCORE>  (30) 
-13.695

>  <name>  (30) 
29

>  <ligand_id>  (30) 
29

>  <original_smiles>  (30) 
[H]C(=O)C([H])(c1nc([H])c(N([H])C(=O)N2C([H])([H])C([H])([H])C([H])([H])C([H])(n3nc(-c4c([H])c([H])c(Oc5c([H])c([H])c(F)c([H])c5F)c([H])c4[H])c(C(=O)N([H])[H])c3N([H])[H])C2([H])[H])nc1N([H])[H])[N+]([H])([H])C([H])(C([H])([H])[H])C([H])([H])Oc1c([H])c([H])c2c(c1[H])C([H])([H])N(C(=O)C([H])(N([H])C(=O)C([H])(N([H])C([H])([H])[H])C([H])([H])[H])C(C([H])([H])[H])(C([H])([H])[H])C([H])([H])[H])C([H])(C(=O)N([H])C1([H])c3c([H])c([H])c([H])c([H])c3C([H])([H])C([H])([H])C1([H])[H])C2([H])[H]

>  <smiles>  (30) 
[H]C(=O)C([H])(c1nc([H])c(N([H])C(=O)N2C([H])([H])C([H])([H])C([H])([H])C([H])(n3nc(-c4c([H])c([H])c(Oc5c([H])c([H])c(F)c([H])c5F)c([H])c4[H])c(C(=O)N([H])[H])c3N([H])[H])C2([H])[H])nc1N([H])[H])[N+]([H])([H])C([H])(C([H])([H])[H])C([H])([H])Oc1c([H])c([H])c2c(c1[H])C([H])([H])N(C(=O)C([H])(N([H])C(=O)C([H])(N([H])C([H])([H])[H])C([H])([H])[H])C(C([H])([H])[H])(C([H])([H])[H])C([H])([H])[H])C([H])(C(=O)N([H])C1([H])c3c([H])c([H])c([H])c([H])c3C([H])([H])C([H])([H])C1([H])[H])C2([H])[H]

$$$$
30:0:0
     RDKit          3D

 92100  0  0  1  0  0  0  0  0999 V2000
  -28.7930  -22.4410   20.3950 C   0  0  0  0  0  2  0  0  0  0  0  0
  -29.7390  -21.4500   20.9990 N   0  0  0  0  0  0  0  0  0  0  0  0
  -30.5030  -21.8500   21.5330 H   0  0  0  0  0  0  0  0  0  0  0  0
  -30.7320  -14.8070   20.6610 C   0  0  0  0  0  0  0  0  0  0  0  0
  -30.5960  -12.4810   19.7910 C   0  0  0  0  0  2  0  0  0  0  0  0
  -29.7180  -12.4290   18.5190 C   0  0  0  0  0  2  0  0  0  0  0  0
  -28.2190  -12.3390   18.8710 C   0  0  0  0  0  2  0  0  0  0  0  0
  -27.7780  -13.2870   20.0210 C   0  0  0  0  0  3  0  0  0  0  0  0
  -28.7810  -13.2770   21.1930 C   0  0  0  0  0  2  0  0  0  0  0  0
  -30.1040  -13.5860   20.6370 N   0  0  0  0  0  0  0  0  0  0  0  0
  -31.9640  -14.8730   20.6220 O   0  0  0  0  0  0  0  0  0  0  0  0
  -28.6760  -19.2840   20.2140 C   0  0  0  0  0  3  0  0  0  0  0  0
  -30.7810  -17.9590   21.2680 C   0  0  0  0  0  3  0  0  0  0  0  0
  -29.6950  -20.0230   20.8740 C   0  0  0  0  0  0  0  0  0  0  0  0
  -29.8010  -17.2180   20.5420 C   0  0  0  0  0  0  0  0  0  0  0  0
  -30.0190  -15.8000   18.6040 C   0  0  0  0  0  1  0  0  0  0  0  0
  -30.7290  -19.3250   21.4270 N   0  0  0  0  0  0  0  0  0  0  0  0
  -28.7270  -17.9250   20.0640 N   0  0  0  0  0  0  0  0  0  0  0  0
  -30.0170  -15.8430   20.0810 N   0  0  0  0  0  0  0  0  0  0  0  0
  -25.3530  -13.8880   20.6150 C   0  0  0  0  0  0  0  0  0  0  0  0
  -24.2710  -13.1150   20.9340 C   0  0  0  0  0  0  0  0  0  0  0  0
  -24.7390  -11.7660   20.9540 C   0  0  0  0  0  0  0  0  0  0  0  0
  -26.4120  -13.0080   20.4540 N   0  0  0  0  0  0  0  0  0  0  0  0
  -26.0460  -11.7290   20.7240 N   0  0  0  0  0  0  0  0  0  0  0  0
  -24.0110  -10.5020   21.1190 C   0  0  0  0  0  0  0  0  0  0  0  0
  -24.4060   -9.5420   22.0770 C   0  0  0  0  0  3  0  0  0  0  0  0
  -23.6770   -8.3430   22.2320 C   0  0  0  0  0  3  0  0  0  0  0  0
  -22.5390   -8.0960   21.4270 C   0  0  0  0  0  0  0  0  0  0  0  0
  -22.1640   -9.0440   20.4590 C   0  0  0  0  0  3  0  0  0  0  0  0
  -22.8940  -10.2350   20.3030 C   0  0  0  0  0  3  0  0  0  0  0  0
  -21.7850   -6.9480   21.4910 O   0  0  0  0  0  0  0  0  0  0  0  0
  -21.6870   -6.2140   22.6450 C   0  0  0  0  0  0  0  0  0  0  0  0
  -21.1950   -6.7740   23.8440 C   0  0  0  0  0  3  0  0  0  0  0  0
  -21.0470   -5.9650   24.9890 C   0  0  0  0  0  3  0  0  0  0  0  0
  -21.3800   -4.5990   24.9350 C   0  0  0  0  0  0  0  0  0  0  0  0
  -21.8650   -4.0380   23.7400 C   0  0  0  0  0  3  0  0  0  0  0  0
  -22.0160   -4.8440   22.5970 C   0  0  0  0  0  0  0  0  0  0  0  0
  -22.4640   -4.2960   21.4420 F   0  0  0  0  0  0  0  0  0  0  0  0
  -21.2300   -3.8190   26.0310 F   0  0  0  0  0  0  0  0  0  0  0  0
  -22.8580  -13.5880   21.1140 C   0  0  0  0  0  0  0  0  0  0  0  0
  -22.0810  -12.8980   21.9440 N   0  0  0  0  0  0  0  0  0  0  0  0
  -22.4470  -14.6040   20.5550 O   0  0  0  0  0  0  0  0  0  0  0  0
  -22.4250  -12.0770   22.4190 H   0  0  0  0  0  0  0  0  0  0  0  0
  -21.1310  -13.1970   22.1070 H   0  0  0  0  0  0  0  0  0  0  0  0
  -25.5240  -15.2560   20.4240 N   0  0  0  0  0  0  0  0  0  0  0  0
  -24.7520  -15.9120   20.4890 H   0  0  0  0  0  0  0  0  0  0  0  0
  -26.3970  -15.6990   20.1650 H   0  0  0  0  0  0  0  0  0  0  0  0
  -29.1480  -23.9860   20.6350 C   0  0  0  0  0  3  0  0  0  0  0  0
  -29.3070  -24.1000   22.0410 O   0  0  0  0  0  0  0  0  0  0  0  0
  -28.5130  -23.7660   22.4440 H   0  0  0  0  0  0  0  0  0  0  0  0
  -28.0580  -25.0560   20.1620 C   0  0  0  0  0  2  0  0  0  0  0  0
  -28.3250  -26.5180   20.2010 O   0  0  0  0  0  0  0  0  0  0  0  0
  -24.5700  -31.9010   23.2010 C   0  0  0  0  0  0  0  0  0  0  0  0
  -27.2110  -27.3750   20.1300 C   0  0  0  0  0  0  0  0  0  0  0  0
  -23.3780  -30.5050   21.5520 C   0  0  0  0  0  3  0  0  0  0  0  0
  -24.8390  -28.9770   20.1180 C   0  0  0  0  0  0  0  0  0  0  0  0
  -25.9150  -30.8410   21.3750 C   0  0  0  0  0  2  0  0  0  0  0  0
  -26.0050  -29.4680   20.7190 C   0  0  0  0  0  0  0  0  0  0  0  0
  -27.1950  -28.6800   20.7150 C   0  0  0  0  0  3  0  0  0  0  0  0
  -26.0230  -26.9450   19.4940 C   0  0  0  0  0  3  0  0  0  0  0  0
  -24.8500  -27.7210   19.4940 C   0  0  0  0  0  3  0  0  0  0  0  0
  -23.5960  -29.8420   20.1680 C   0  0  0  0  0  2  0  0  0  0  0  0
  -24.6400  -31.0990   22.1000 N   0  0  0  0  0  0  0  0  0  0  0  0
  -23.4840  -32.1690   23.7360 O   0  0  0  0  0  0  0  0  0  0  0  0
  -22.7200  -29.4780   22.5040 C   0  0  0  0  0  0  0  0  0  0  0  0
  -21.3930  -29.3020   22.3810 N   0  0  0  0  0  0  0  0  0  0  0  0
  -23.4020  -28.8430   23.3130 O   0  0  0  0  0  0  0  0  0  0  0  0
  -20.9020  -29.8650   21.7020 H   0  0  0  0  0  0  0  0  0  0  0  0
  -18.0150  -28.1120   22.8920 C   0  0  0  0  0  0  0  0  0  0  0  0
  -20.5760  -28.3590   23.1480 C   0  0  0  0  0  3  0  0  0  0  0  0
  -20.6690  -26.9330   22.5560 C   0  0  0  0  0  2  0  0  0  0  0  0
  -19.5590  -26.6260   21.5450 C   0  0  0  0  0  2  0  0  0  0  0  0
  -18.1820  -26.7690   22.2010 C   0  0  0  0  0  2  0  0  0  0  0  0
  -19.1390  -28.8650   23.3230 C   0  0  0  0  0  0  0  0  0  0  0  0
  -18.9290  -30.1220   23.9310 C   0  0  0  0  0  3  0  0  0  0  0  0
  -17.6270  -30.6260   24.1110 C   0  0  0  0  0  3  0  0  0  0  0  0
  -16.5170  -29.8700   23.6960 C   0  0  0  0  0  3  0  0  0  0  0  0
  -16.7120  -28.6140   23.0920 C   0  0  0  0  0  3  0  0  0  0  0  0
  -25.8490  -32.5370   23.8290 C   0  0  0  0  0  3  0  0  0  0  0  0
  -26.3560  -31.7720   25.1130 C   0  0  1  0  0  0  0  0  0  0  0  0
  -25.2550  -31.5390   26.1740 C   0  0  0  0  0  1  0  0  0  0  0  0
  -26.9430  -30.3930   24.7340 C   0  0  0  0  0  1  0  0  0  0  0  0
  -27.5010  -32.5710   25.7800 C   0  0  0  0  0  1  0  0  0  0  0  0
  -25.5360  -33.9370   24.1510 N   0  0  0  0  0  0  0  0  0  0  0  0
  -25.8890  -34.9870   23.3990 C   0  0  0  0  0  0  0  0  0  0  0  0
  -26.5830  -34.8810   22.3840 O   0  0  0  0  0  0  0  0  0  0  0  0
  -24.9230  -34.0940   24.9380 H   0  0  0  0  0  0  0  0  0  0  0  0
  -24.1950  -36.8000   22.9840 C   0  0  0  0  0  1  0  0  0  0  0  0
  -25.3960  -36.3790   23.8440 C   0  0  0  0  0  3  0  0  0  0  0  0
  -27.4990  -37.2430   24.7740 C   0  0  0  0  0  1  0  0  0  0  0  0
  -26.4430  -37.4220   23.7810 N   0  0  0  0  0  0  0  0  0  0  0  0
  -26.0390  -38.3450   23.9100 H   0  0  0  0  0  0  0  0  0  0  0  0
  1 48  1  0
  1  2  1  0
  2  3  1  0
  5 10  1  0
  6  7  1  0
  6  5  1  0
  8  7  1  0
  8 23  1  0
  8  9  1  0
 10  4  1  0
 10  9  1  0
 11  4  2  0
 12 14  1  0
 13 17  1  0
 14  2  1  0
 14 17  2  0
 15 13  2  0
 16 19  1  0
 18 12  2  0
 18 15  1  0
 19 15  1  0
 19  4  1  0
 20 21  2  0
 21 22  1  0
 21 40  1  0
 22 25  1  0
 23 20  1  0
 23 24  1  0
 24 22  2  0
 25 26  1  0
 26 27  2  0
 28 31  1  0
 28 27  1  0
 29 28  2  0
 30 29  1  0
 30 25  2  0
 31 32  1  0
 32 33  1  0
 33 34  2  0
 35 34  1  0
 35 39  1  0
 36 35  2  0
 37 32  2  0
 37 36  1  0
 38 37  1  0
 40 41  1  0
 41 44  1  0
 41 43  1  0
 42 40  2  0
 45 46  1  0
 45 20  1  0
 47 45  1  0
 48 51  1  0
 48 49  1  0
 49 50  1  0
 51 52  1  0
 53 64  2  0
 54 52  1  0
 54 59  1  0
 55 63  1  0
 55 65  1  0
 56 62  1  0
 56 58  1  0
 57 63  1  0
 58 57  1  0
 59 58  2  0
 60 54  2  0
 61 60  1  0
 61 56  2  0
 62 55  1  0
 63 53  1  0
 65 67  2  0
 66 65  1  0
 68 66  1  0
 69 78  2  0
 69 74  1  0
 70 66  1  0
 70 74  1  0
 71 70  1  0
 72 73  1  0
 72 71  1  0
 73 69  1  0
 74 75  2  0
 75 76  1  0
 77 76  2  0
 78 77  1  0
 79 53  1  0
 79 84  1  0
 79 80  1  0
 80 83  1  1
 80 81  1  0
 82 80  1  0
 84 87  1  0
 85 89  1  0
 85 84  1  0
 86 85  2  0
 89 88  1  0
 91 89  1  0
 91 92  1  0
 91 90  1  0
M  ISO  4   4 100  19 100  51 101  52 101
M  END
>  <TORSDO>  (31) 
F 20

>  <SCORE>  (31) 
-13.877

>  <name>  (31) 
30

>  <ligand_id>  (31) 
30

>  <original_smiles>  (31) 
[H]OC([H])(C([H])([H])Oc1c([H])c([H])c2c(c1[H])C([H])([H])N(C(=O)C([H])(N([H])C(=O)C([H])(N([H])C([H])([H])[H])C([H])([H])[H])C(C([H])([H])[H])(C([H])([H])[H])C([H])([H])[H])C([H])(C(=O)N([H])C1([H])c3c([H])c([H])c([H])c([H])c3C([H])([H])C([H])([H])C1([H])[H])C2([H])[H])C([H])([H])N([H])c1nc([H])c(N(C(=O)N2C([H])([H])C([H])([H])C([H])([H])C([H])(n3nc(-c4c([H])c([H])c(Oc5c([H])c([H])c(F)c([H])c5F)c([H])c4[H])c(C(=O)N([H])[H])c3N([H])[H])C2([H])[H])C([H])([H])[H])nc1[H]

>  <smiles>  (31) 
[H]OC([H])(C([H])([H])Oc1c([H])c([H])c2c(c1[H])C([H])([H])N(C(=O)C([H])(N([H])C(=O)C([H])(N([H])C([H])([H])[H])C([H])([H])[H])C(C([H])([H])[H])(C([H])([H])[H])C([H])([H])[H])C([H])(C(=O)N([H])C1([H])c3c([H])c([H])c([H])c([H])c3C([H])([H])C([H])([H])C1([H])[H])C2([H])[H])C([H])([H])N([H])c1nc([H])c(N(C(=O)N2C([H])([H])C([H])([H])C([H])([H])C([H])(n3nc(-c4c([H])c([H])c(Oc5c([H])c([H])c(F)c([H])c5F)c([H])c4[H])c(C(=O)N([H])[H])c3N([H])[H])C2([H])[H])C([H])([H])[H])nc1[H]

$$$$
31:0:0
     RDKit          3D

 91 99  0  0  1  0  0  0  0  0999 V2000
  -28.7670  -19.5700   19.4120 C   0  0  0  0  0  3  0  0  0  0  0  0
  -29.2570  -21.3900   21.3500 C   0  0  0  0  0  3  0  0  0  0  0  0
  -29.5780  -19.2450   20.5240 C   0  0  0  0  0  0  0  0  0  0  0  0
  -28.4820  -21.7300   20.2030 C   0  0  0  0  0  0  0  0  0  0  0  0
  -29.8030  -20.1500   21.5120 N   0  0  0  0  0  0  0  0  0  0  0  0
  -28.2270  -20.8030   19.2510 N   0  0  0  0  0  0  0  0  0  0  0  0
  -27.9080  -22.9830   19.9100 N   0  0  0  0  0  0  0  0  0  0  0  0
  -27.3260  -23.0140   19.0790 H   0  0  0  0  0  0  0  0  0  0  0  0
  -30.3400  -17.9150   20.5520 C   0  0  0  0  0  2  0  0  0  0  0  0
  -29.5310  -16.6430   20.9280 C   0  0  0  0  0  2  0  0  0  0  0  0
  -30.6950  -14.4920   20.2840 C   0  0  0  0  0  0  0  0  0  0  0  0
  -30.3810  -12.3300   19.1630 C   0  0  0  0  0  2  0  0  0  0  0  0
  -29.4150  -12.5730   17.9850 C   0  0  0  0  0  2  0  0  0  0  0  0
  -27.9490  -12.4510   18.4480 C   0  0  0  0  0  2  0  0  0  0  0  0
  -27.6440  -13.2730   19.7300 C   0  0  0  0  0  3  0  0  0  0  0  0
  -28.7290  -13.0300   20.8070 C   0  0  0  0  0  2  0  0  0  0  0  0
  -30.0390  -13.3080   20.2040 N   0  0  0  0  0  0  0  0  0  0  0  0
  -31.8800  -14.6360   19.9920 O   0  0  0  0  0  0  0  0  0  0  0  0
  -29.8820  -15.5310   20.0360 N   0  0  0  0  0  0  0  0  0  0  0  0
  -30.0890  -15.8770   19.1100 H   0  0  0  0  0  0  0  0  0  0  0  0
  -25.2610  -13.8930   20.4720 C   0  0  0  0  0  0  0  0  0  0  0  0
  -24.1950  -13.1260   20.8560 C   0  0  0  0  0  0  0  0  0  0  0  0
  -24.6490  -11.7740   20.8170 C   0  0  0  0  0  0  0  0  0  0  0  0
  -26.2990  -13.0070   20.2310 N   0  0  0  0  0  0  0  0  0  0  0  0
  -25.9370  -11.7280   20.5000 N   0  0  0  0  0  0  0  0  0  0  0  0
  -23.9230  -10.5140   21.0150 C   0  0  0  0  0  0  0  0  0  0  0  0
  -24.3660   -9.5450   21.9430 C   0  0  0  0  0  3  0  0  0  0  0  0
  -23.6380   -8.3500   22.1320 C   0  0  0  0  0  3  0  0  0  0  0  0
  -22.4540   -8.1160   21.3920 C   0  0  0  0  0  0  0  0  0  0  0  0
  -22.0300   -9.0750   20.4560 C   0  0  0  0  0  3  0  0  0  0  0  0
  -22.7580  -10.2610   20.2660 C   0  0  0  0  0  3  0  0  0  0  0  0
  -21.6980   -6.9720   21.4890 O   0  0  0  0  0  0  0  0  0  0  0  0
  -21.6630   -6.2270   22.6410 C   0  0  0  0  0  0  0  0  0  0  0  0
  -21.2590   -6.7830   23.8740 C   0  0  0  0  0  3  0  0  0  0  0  0
  -21.1690   -5.9640   25.0180 C   0  0  0  0  0  3  0  0  0  0  0  0
  -21.4740   -4.5930   24.9300 C   0  0  0  0  0  0  0  0  0  0  0  0
  -21.8780   -4.0390   23.7010 C   0  0  0  0  0  3  0  0  0  0  0  0
  -21.9670   -4.8530   22.5600 C   0  0  0  0  0  0  0  0  0  0  0  0
  -22.3320   -4.3090   21.3730 F   0  0  0  0  0  0  0  0  0  0  0  0
  -21.3830   -3.8060   26.0260 F   0  0  0  0  0  0  0  0  0  0  0  0
  -22.8050  -13.6100   21.1470 C   0  0  0  0  0  0  0  0  0  0  0  0
  -22.0840  -12.9150   22.0230 N   0  0  0  0  0  0  0  0  0  0  0  0
  -22.3640  -14.6370   20.6320 O   0  0  0  0  0  0  0  0  0  0  0  0
  -22.4530  -12.0870   22.4640 H   0  0  0  0  0  0  0  0  0  0  0  0
  -21.1520  -13.2230   22.2580 H   0  0  0  0  0  0  0  0  0  0  0  0
  -25.4220  -15.2650   20.2850 N   0  0  0  0  0  0  0  0  0  0  0  0
  -24.6440  -15.9100   20.3580 H   0  0  0  0  0  0  0  0  0  0  0  0
  -26.2640  -15.6980   19.9280 H   0  0  0  0  0  0  0  0  0  0  0  0
  -28.1260  -24.2550   20.6160 C   0  0  0  0  0  2  0  0  0  0  0  0
  -28.5370  -25.4030   19.6460 C   0  0  0  0  0  2  0  0  0  0  0  0
  -28.4370  -26.7320   20.1890 O   0  0  0  0  0  0  0  0  0  0  0  0
  -24.5900  -31.8840   23.2380 C   0  0  0  0  0  0  0  0  0  0  0  0
  -27.2420  -27.4350   20.1550 C   0  0  0  0  0  0  0  0  0  0  0  0
  -23.3840  -30.4850   21.5890 C   0  0  0  0  0  3  0  0  0  0  0  0
  -24.8400  -28.9510   20.1630 C   0  0  0  0  0  0  0  0  0  0  0  0
  -25.9110  -30.8470   21.3930 C   0  0  0  0  0  2  0  0  0  0  0  0
  -25.9990  -29.4780   20.7460 C   0  0  0  0  0  0  0  0  0  0  0  0
  -27.2010  -28.7330   20.7270 C   0  0  0  0  0  3  0  0  0  0  0  0
  -26.0550  -26.9200   19.5800 C   0  0  0  0  0  3  0  0  0  0  0  0
  -24.8640  -27.6730   19.5800 C   0  0  0  0  0  3  0  0  0  0  0  0
  -23.5930  -29.8050   20.2080 C   0  0  0  0  0  2  0  0  0  0  0  0
  -24.6470  -31.0860   22.1320 N   0  0  0  0  0  0  0  0  0  0  0  0
  -23.5080  -32.1580   23.7770 O   0  0  0  0  0  0  0  0  0  0  0  0
  -22.7290  -29.4610   22.5510 C   0  0  0  0  0  0  0  0  0  0  0  0
  -21.4030  -29.2810   22.4280 N   0  0  0  0  0  0  0  0  0  0  0  0
  -23.4160  -28.8300   23.3590 O   0  0  0  0  0  0  0  0  0  0  0  0
  -20.9170  -29.8340   21.7310 H   0  0  0  0  0  0  0  0  0  0  0  0
  -18.0290  -28.0860   22.9330 C   0  0  0  0  0  0  0  0  0  0  0  0
  -20.5870  -28.3390   23.1970 C   0  0  0  0  0  3  0  0  0  0  0  0
  -20.6860  -26.9100   22.6130 C   0  0  0  0  0  2  0  0  0  0  0  0
  -19.5780  -26.5930   21.6050 C   0  0  0  0  0  2  0  0  0  0  0  0
  -18.1990  -26.7360   22.2600 C   0  0  0  0  0  2  0  0  0  0  0  0
  -19.1500  -28.8430   23.3630 C   0  0  0  0  0  0  0  0  0  0  0  0
  -18.9380  -30.1030   23.9590 C   0  0  0  0  0  3  0  0  0  0  0  0
  -17.6350  -30.6080   24.1240 C   0  0  0  0  0  3  0  0  0  0  0  0
  -16.5260  -29.8470   23.7130 C   0  0  0  0  0  3  0  0  0  0  0  0
  -16.7250  -28.5870   23.1230 C   0  0  0  0  0  3  0  0  0  0  0  0
  -25.8750  -32.5110   23.8600 C   0  0  0  0  0  3  0  0  0  0  0  0
  -26.3930  -31.7410   25.1370 C   0  0  1  0  0  0  0  0  0  0  0  0
  -25.2980  -31.5070   26.2040 C   0  0  0  0  0  1  0  0  0  0  0  0
  -26.9760  -30.3650   24.7450 C   0  0  0  0  0  1  0  0  0  0  0  0
  -27.5430  -32.5350   25.7990 C   0  0  0  0  0  1  0  0  0  0  0  0
  -25.5670  -33.9100   24.1860 N   0  0  0  0  0  0  0  0  0  0  0  0
  -25.9050  -34.9590   23.4260 C   0  0  0  0  0  0  0  0  0  0  0  0
  -26.5800  -34.8540   22.3970 O   0  0  0  0  0  0  0  0  0  0  0  0
  -24.9710  -34.0680   24.9850 H   0  0  0  0  0  0  0  0  0  0  0  0
  -24.1840  -36.7550   23.0570 C   0  0  0  0  0  1  0  0  0  0  0  0
  -25.4180  -36.3480   23.8780 C   0  0  0  0  0  3  0  0  0  0  0  0
  -27.5450  -37.2310   24.7290 C   0  0  0  0  0  1  0  0  0  0  0  0
  -26.4530  -37.3980   23.7730 N   0  0  0  0  0  0  0  0  0  0  0  0
  -26.0480  -38.3190   23.9160 H   0  0  0  0  0  0  0  0  0  0  0  0
  1  3  1  0
  2  5  1  0
  3  9  1  0
  3  5  2  0
  4  2  2  0
  6  1  2  0
  6  4  1  0
  7  4  1  0
  7 49  1  0
  8  7  1  0
  9 10  1  0
 12 17  1  0
 13 14  1  0
 13 12  1  0
 15 14  1  0
 15 24  1  0
 15 16  1  0
 17 11  1  0
 17 16  1  0
 18 11  2  0
 19 11  1  0
 19 10  1  0
 20 19  1  0
 21 22  2  0
 22 41  1  0
 23 22  1  0
 23 26  1  0
 24 21  1  0
 24 25  1  0
 25 23  2  0
 26 27  1  0
 27 28  2  0
 29 32  1  0
 29 28  1  0
 30 29  2  0
 31 30  1  0
 31 26  2  0
 32 33  1  0
 33 34  1  0
 34 35  2  0
 36 35  1  0
 36 40  1  0
 37 36  2  0
 38 33  2  0
 38 37  1  0
 39 38  1  0
 41 42  1  0
 42 45  1  0
 42 44  1  0
 43 41  2  0
 46 47  1  0
 46 21  1  0
 48 46  1  0
 50 51  1  0
 50 49  1  0
 52 63  2  0
 53 51  1  0
 53 58  1  0
 54 62  1  0
 54 64  1  0
 55 61  1  0
 55 57  1  0
 56 62  1  0
 57 56  1  0
 58 57  2  0
 59 60  1  0
 59 53  2  0
 60 55  2  0
 61 54  1  0
 62 52  1  0
 64 66  2  0
 65 64  1  0
 67 65  1  0
 68 77  2  0
 68 73  1  0
 69 65  1  0
 69 73  1  0
 70 69  1  0
 71 72  1  0
 71 70  1  0
 72 68  1  0
 73 74  2  0
 74 75  1  0
 76 75  2  0
 77 76  1  0
 78 52  1  0
 78 83  1  0
 78 79  1  0
 79 82  1  1
 79 80  1  0
 81 79  1  0
 83 86  1  0
 84 88  1  0
 84 83  1  0
 85 84  2  0
 88 87  1  0
 90 88  1  0
 90 91  1  0
 90 89  1  0
M  ISO  4  11 100  19 100  50 101  51 101
M  END
>  <TORSDO>  (32) 
F 20

>  <SCORE>  (32) 
-13.946

>  <name>  (32) 
31

>  <ligand_id>  (32) 
31

>  <original_smiles>  (32) 
[H]c1nc(C([H])([H])C([H])([H])N([H])C(=O)N2C([H])([H])C([H])([H])C([H])([H])C([H])(n3nc(-c4c([H])c([H])c(Oc5c([H])c([H])c(F)c([H])c5F)c([H])c4[H])c(C(=O)N([H])[H])c3N([H])[H])C2([H])[H])c([H])nc1N([H])C([H])([H])C([H])([H])Oc1c([H])c([H])c2c(c1[H])C([H])([H])N(C(=O)C([H])(N([H])C(=O)C([H])(N([H])C([H])([H])[H])C([H])([H])[H])C(C([H])([H])[H])(C([H])([H])[H])C([H])([H])[H])C([H])(C(=O)N([H])C1([H])c3c([H])c([H])c([H])c([H])c3C([H])([H])C([H])([H])C1([H])[H])C2([H])[H]

>  <smiles>  (32) 
[H]c1nc(C([H])([H])C([H])([H])N([H])C(=O)N2C([H])([H])C([H])([H])C([H])([H])C([H])(n3nc(-c4c([H])c([H])c(Oc5c([H])c([H])c(F)c([H])c5F)c([H])c4[H])c(C(=O)N([H])[H])c3N([H])[H])C2([H])[H])c([H])nc1N([H])C([H])([H])C([H])([H])Oc1c([H])c([H])c2c(c1[H])C([H])([H])N(C(=O)C([H])(N([H])C(=O)C([H])(N([H])C([H])([H])[H])C([H])([H])[H])C(C([H])([H])[H])(C([H])([H])[H])C([H])([H])[H])C([H])(C(=O)N([H])C1([H])c3c([H])c([H])c([H])c([H])c3C([H])([H])C([H])([H])C1([H])[H])C2([H])[H]

$$$$
32:0:0
     RDKit          3D

 90 98  0  0  1  0  0  0  0  0999 V2000
  -29.2990  -19.2380   21.4230 C   0  0  0  0  0  3  0  0  0  0  0  0
  -29.8290  -18.7310   20.2490 C   0  0  0  0  0  0  0  0  0  0  0  0
  -29.1750  -21.2410   20.2360 C   0  0  0  0  0  0  0  0  0  0  0  0
  -28.9470  -20.6230   21.4050 N   0  0  0  0  0  0  0  0  0  0  0  0
  -28.9600  -22.6320   19.9300 N   0  0  0  0  0  0  0  0  0  0  0  0
  -29.8260  -20.0590   19.0590 S   0  0  0  0  0  0  0  0  0  0  0  0
  -29.2200  -22.8050   18.9630 H   0  0  0  0  0  0  0  0  0  0  0  0
  -27.1880  -23.7580   21.2750 C   0  0  0  0  0  1  0  0  0  0  0  0
  -28.5550  -23.9230   20.6000 C   0  0  0  0  0  3  0  0  0  0  0  0
  -28.5540  -25.2390   19.6680 C   0  0  0  0  0  2  0  0  0  0  0  0
  -28.4490  -26.6150   20.2380 O   0  0  0  0  0  0  0  0  0  0  0  0
  -24.6370  -31.9340   23.2800 C   0  0  0  0  0  0  0  0  0  0  0  0
  -27.2970  -27.4220   20.1740 C   0  0  0  0  0  0  0  0  0  0  0  0
  -23.4490  -30.5440   21.6210 C   0  0  0  0  0  3  0  0  0  0  0  0
  -24.9150  -29.0230   20.1740 C   0  0  0  0  0  0  0  0  0  0  0  0
  -25.9840  -30.8870   21.4420 C   0  0  0  0  0  2  0  0  0  0  0  0
  -26.0760  -29.5150   20.7790 C   0  0  0  0  0  0  0  0  0  0  0  0
  -27.2660  -28.7260   20.7680 C   0  0  0  0  0  3  0  0  0  0  0  0
  -26.1040  -26.9800   19.5590 C   0  0  0  0  0  3  0  0  0  0  0  0
  -24.9330  -27.7620   19.5560 C   0  0  0  0  0  3  0  0  0  0  0  0
  -23.6710  -29.8870   20.2300 C   0  0  0  0  0  2  0  0  0  0  0  0
  -24.7090  -31.1400   22.1700 N   0  0  0  0  0  0  0  0  0  0  0  0
  -23.5520  -32.1920   23.8180 O   0  0  0  0  0  0  0  0  0  0  0  0
  -22.7970  -29.5080   22.5680 C   0  0  0  0  0  0  0  0  0  0  0  0
  -21.4730  -29.3190   22.4390 N   0  0  0  0  0  0  0  0  0  0  0  0
  -23.4820  -28.8760   23.3770 O   0  0  0  0  0  0  0  0  0  0  0  0
  -20.9770  -29.8830   21.7630 H   0  0  0  0  0  0  0  0  0  0  0  0
  -18.1060  -28.0870   22.9250 C   0  0  0  0  0  0  0  0  0  0  0  0
  -20.6620  -28.3640   23.1980 C   0  0  0  0  0  3  0  0  0  0  0  0
  -20.7760  -26.9400   22.6050 C   0  0  0  0  0  2  0  0  0  0  0  0
  -19.6780  -26.6220   21.5860 C   0  0  0  0  0  2  0  0  0  0  0  0
  -18.2940  -26.7480   22.2320 C   0  0  0  0  0  2  0  0  0  0  0  0
  -19.2180  -28.8520   23.3640 C   0  0  0  0  0  0  0  0  0  0  0  0
  -18.9890  -30.1050   23.9730 C   0  0  0  0  0  3  0  0  0  0  0  0
  -17.6810  -30.5910   24.1490 C   0  0  0  0  0  3  0  0  0  0  0  0
  -16.5820  -29.8240   23.7270 C   0  0  0  0  0  3  0  0  0  0  0  0
  -16.7960  -28.5740   23.1180 C   0  0  0  0  0  3  0  0  0  0  0  0
  -25.9130  -32.5720   23.9100 C   0  0  0  0  0  3  0  0  0  0  0  0
  -26.4120  -31.8140   25.2020 C   0  0  1  0  0  0  0  0  0  0  0  0
  -25.3050  -31.5880   26.2580 C   0  0  0  0  0  1  0  0  0  0  0  0
  -27.0020  -30.4330   24.8320 C   0  0  0  0  0  1  0  0  0  0  0  0
  -27.5530  -32.6160   25.8710 C   0  0  0  0  0  1  0  0  0  0  0  0
  -25.6000  -33.9740   24.2220 N   0  0  0  0  0  0  0  0  0  0  0  0
  -25.9350  -35.0190   23.4550 C   0  0  0  0  0  0  0  0  0  0  0  0
  -26.6100  -34.9050   22.4280 O   0  0  0  0  0  0  0  0  0  0  0  0
  -24.9990  -34.1350   25.0170 H   0  0  0  0  0  0  0  0  0  0  0  0
  -24.2110  -36.8110   23.0720 C   0  0  0  0  0  1  0  0  0  0  0  0
  -25.4450  -36.4110   23.8960 C   0  0  0  0  0  3  0  0  0  0  0  0
  -27.5680  -37.3090   24.7440 C   0  0  0  0  0  1  0  0  0  0  0  0
  -26.4780  -37.4640   23.7830 N   0  0  0  0  0  0  0  0  0  0  0  0
  -26.0700  -38.3850   23.9170 H   0  0  0  0  0  0  0  0  0  0  0  0
  -30.5430  -17.3710   19.9280 C   0  0  0  0  0  2  0  0  0  0  0  0
  -30.7210  -14.8300   20.0350 C   0  0  0  0  0  0  0  0  0  0  0  0
  -30.4040  -12.6050   18.9740 C   0  0  0  0  0  2  0  0  0  0  0  0
  -29.4100  -12.7400   17.8010 C   0  0  0  0  0  2  0  0  0  0  0  0
  -27.9620  -12.5810   18.3010 C   0  0  0  0  0  2  0  0  0  0  0  0
  -27.6650  -13.4310   19.5650 C   0  0  0  0  0  3  0  0  0  0  0  0
  -28.7780  -13.2980   20.6270 C   0  0  0  0  0  2  0  0  0  0  0  0
  -30.0490  -13.6340   19.9770 N   0  0  0  0  0  0  0  0  0  0  0  0
  -31.8860  -14.9010   19.6340 O   0  0  0  0  0  0  0  0  0  0  0  0
  -30.0240  -15.9930   20.3010 N   0  0  0  0  0  0  0  0  0  0  0  0
  -29.0600  -15.9080   20.5830 H   0  0  0  0  0  0  0  0  0  0  0  0
  -25.3120  -14.0090   20.4070 C   0  0  0  0  0  0  0  0  0  0  0  0
  -24.2660  -13.2280   20.8180 C   0  0  0  0  0  0  0  0  0  0  0  0
  -24.7310  -11.8790   20.7530 C   0  0  0  0  0  0  0  0  0  0  0  0
  -26.3460  -13.1350   20.1140 N   0  0  0  0  0  0  0  0  0  0  0  0
  -26.0070  -11.8490   20.3860 N   0  0  0  0  0  0  0  0  0  0  0  0
  -24.0160  -10.6130   20.9630 C   0  0  0  0  0  0  0  0  0  0  0  0
  -24.4680   -9.6550   21.8970 C   0  0  0  0  0  3  0  0  0  0  0  0
  -23.7530   -8.4540   22.0950 C   0  0  0  0  0  3  0  0  0  0  0  0
  -22.5710   -8.2020   21.3570 C   0  0  0  0  0  0  0  0  0  0  0  0
  -22.1390   -9.1480   20.4110 C   0  0  0  0  0  3  0  0  0  0  0  0
  -22.8540  -10.3410   20.2120 C   0  0  0  0  0  3  0  0  0  0  0  0
  -21.8270   -7.0520   21.4640 O   0  0  0  0  0  0  0  0  0  0  0  0
  -21.7730   -6.3350   22.6320 C   0  0  0  0  0  0  0  0  0  0  0  0
  -21.2900   -6.8990   23.8320 C   0  0  0  0  0  3  0  0  0  0  0  0
  -21.1880   -6.1070   24.9930 C   0  0  0  0  0  3  0  0  0  0  0  0
  -21.5580   -4.7490   24.9530 C   0  0  0  0  0  0  0  0  0  0  0  0
  -22.0350   -4.1830   23.7580 C   0  0  0  0  0  3  0  0  0  0  0  0
  -22.1390   -4.9740   22.6000 C   0  0  0  0  0  0  0  0  0  0  0  0
  -22.5790   -4.4180   21.4440 F   0  0  0  0  0  0  0  0  0  0  0  0
  -21.4540   -3.9840   26.0650 F   0  0  0  0  0  0  0  0  0  0  0  0
  -22.8820  -13.6980   21.1580 C   0  0  0  0  0  0  0  0  0  0  0  0
  -22.1930  -12.9870   22.0430 N   0  0  0  0  0  0  0  0  0  0  0  0
  -22.4220  -14.7330   20.6760 O   0  0  0  0  0  0  0  0  0  0  0  0
  -22.5790  -12.1490   22.4530 H   0  0  0  0  0  0  0  0  0  0  0  0
  -21.2670  -13.2840   22.3150 H   0  0  0  0  0  0  0  0  0  0  0  0
  -25.4630  -15.3820   20.2330 N   0  0  0  0  0  0  0  0  0  0  0  0
  -24.6950  -16.0300   20.3690 H   0  0  0  0  0  0  0  0  0  0  0  0
  -26.2810  -15.8210   19.8300 H   0  0  0  0  0  0  0  0  0  0  0  0
  2  1  2  0
  3  4  2  0
  4  1  1  0
  5  3  1  0
  5  9  1  0
  6  3  1  0
  6  2  1  0
  7  5  1  0
  9  8  1  0
 10 11  1  0
 10  9  1  0
 12 23  2  0
 13 11  1  0
 13 18  1  0
 14 22  1  0
 14 24  1  0
 15 21  1  0
 15 17  1  0
 16 22  1  0
 17 16  1  0
 18 17  2  0
 19 13  2  0
 20 19  1  0
 20 15  2  0
 21 14  1  0
 22 12  1  0
 24 26  2  0
 25 24  1  0
 27 25  1  0
 28 37  2  0
 28 33  1  0
 29 25  1  0
 29 33  1  0
 30 29  1  0
 31 32  1  0
 31 30  1  0
 32 28  1  0
 33 34  2  0
 34 35  1  0
 36 35  2  0
 37 36  1  0
 38 12  1  0
 38 43  1  0
 38 39  1  0
 39 42  1  1
 39 40  1  0
 41 39  1  0
 43 46  1  0
 44 48  1  0
 44 43  1  0
 45 44  2  0
 48 47  1  0
 50 48  1  0
 50 51  1  0
 50 49  1  0
 52  2  1  0
 52 61  1  0
 53 61  1  0
 54 59  1  0
 55 56  1  0
 55 54  1  0
 57 56  1  0
 57 66  1  0
 57 58  1  0
 59 53  1  0
 59 58  1  0
 60 53  2  0
 61 62  1  0
 63 64  2  0
 64 83  1  0
 65 64  1  0
 65 68  1  0
 66 67  1  0
 66 63  1  0
 67 65  2  0
 68 69  1  0
 69 70  2  0
 71 74  1  0
 71 70  1  0
 72 71  2  0
 73 72  1  0
 73 68  2  0
 74 75  1  0
 75 76  1  0
 76 77  2  0
 78 77  1  0
 78 82  1  0
 79 78  2  0
 80 75  2  0
 80 79  1  0
 81 80  1  0
 83 84  1  0
 84 87  1  0
 84 86  1  0
 85 83  2  0
 88 89  1  0
 88 63  1  0
 90 88  1  0
M  ISO  4  10 101  11 101  53 100  61 100
M  END
>  <TORSDO>  (33) 
F 19

>  <SCORE>  (33) 
-13.492

>  <name>  (33) 
32

>  <ligand_id>  (33) 
32

>  <original_smiles>  (33) 
[H]c1nc(N([H])C([H])(C([H])([H])[H])C([H])([H])Oc2c([H])c([H])c3c(c2[H])C([H])([H])N(C(=O)C([H])(N([H])C(=O)C([H])(N([H])C([H])([H])[H])C([H])([H])[H])C(C([H])([H])[H])(C([H])([H])[H])C([H])([H])[H])C([H])(C(=O)N([H])C2([H])c4c([H])c([H])c([H])c([H])c4C([H])([H])C([H])([H])C2([H])[H])C3([H])[H])sc1C([H])([H])N([H])C(=O)N1C([H])([H])C([H])([H])C([H])([H])C([H])(n2nc(-c3c([H])c([H])c(Oc4c([H])c([H])c(F)c([H])c4F)c([H])c3[H])c(C(=O)N([H])[H])c2N([H])[H])C1([H])[H]

>  <smiles>  (33) 
[H]c1nc(N([H])C([H])(C([H])([H])[H])C([H])([H])Oc2c([H])c([H])c3c(c2[H])C([H])([H])N(C(=O)C([H])(N([H])C(=O)C([H])(N([H])C([H])([H])[H])C([H])([H])[H])C(C([H])([H])[H])(C([H])([H])[H])C([H])([H])[H])C([H])(C(=O)N([H])C2([H])c4c([H])c([H])c([H])c([H])c4C([H])([H])C([H])([H])C2([H])[H])C3([H])[H])sc1C([H])([H])N([H])C(=O)N1C([H])([H])C([H])([H])C([H])([H])C([H])(n2nc(-c3c([H])c([H])c(Oc4c([H])c([H])c(F)c([H])c4F)c([H])c3[H])c(C(=O)N([H])[H])c2N([H])[H])C1([H])[H]

$$$$
33:0:0
     RDKit          3D

 94102  0  0  1  0  0  0  0  0999 V2000
  -28.5790  -18.1080   19.9010 C   0  0  0  0  0  3  0  0  0  0  0  0
  -29.8510  -18.4420   20.3850 C   0  0  0  0  0  0  0  0  0  0  0  0
  -27.7190  -19.1590   19.5760 C   0  0  0  0  0  0  0  0  0  0  0  0
  -29.2550  -20.7650   20.1710 C   0  0  0  0  0  0  0  0  0  0  0  0
  -30.1710  -19.7990   20.4970 N   0  0  0  0  0  0  0  0  0  0  0  0
  -28.0490  -20.4520   19.7150 N   0  0  0  0  0  0  0  0  0  0  0  0
  -26.4470  -18.9020   19.0950 N   0  0  0  0  0  0  0  0  0  0  0  0
  -29.5730  -22.1780   20.2370 N   0  0  0  0  0  0  0  0  0  0  0  0
  -26.2270  -17.9720   18.7600 H   0  0  0  0  0  0  0  0  0  0  0  0
  -25.9500  -19.6430   18.6180 H   0  0  0  0  0  0  0  0  0  0  0  0
  -30.5410  -22.3310   20.4930 H   0  0  0  0  0  0  0  0  0  0  0  0
  -27.2280  -23.2630   20.1040 C   0  0  0  0  0  1  0  0  0  0  0  0
  -28.7210  -23.4520   20.4250 C   0  0  0  0  0  3  0  0  0  0  0  0
  -29.2110  -24.8430   19.7200 C   0  0  0  0  0  2  0  0  0  0  0  0
  -29.0430  -26.2160   20.3400 O   0  0  0  0  0  0  0  0  0  0  0  0
  -24.9660  -31.4700   23.2480 C   0  0  0  0  0  0  0  0  0  0  0  0
  -27.9110  -27.0590   20.2060 C   0  0  0  0  0  0  0  0  0  0  0  0
  -23.9310  -30.1300   21.4510 C   0  0  0  0  0  3  0  0  0  0  0  0
  -25.5270  -28.6710   20.0730 C   0  0  0  0  0  0  0  0  0  0  0  0
  -26.4730  -30.4890   21.4960 C   0  0  0  0  0  2  0  0  0  0  0  0
  -26.6340  -29.1410   20.7900 C   0  0  0  0  0  0  0  0  0  0  0  0
  -27.8250  -28.3470   20.8450 C   0  0  0  0  0  3  0  0  0  0  0  0
  -26.7780  -26.6560   19.4680 C   0  0  0  0  0  3  0  0  0  0  0  0
  -25.6050  -27.4390   19.4040 C   0  0  0  0  0  3  0  0  0  0  0  0
  -24.2730  -29.5260   20.0630 C   0  0  0  0  0  2  0  0  0  0  0  0
  -25.1370  -30.7150   22.1230 N   0  0  0  0  0  0  0  0  0  0  0  0
  -23.8370  -31.7020   23.7040 O   0  0  0  0  0  0  0  0  0  0  0  0
  -23.2130  -29.0600   22.3070 C   0  0  0  0  0  0  0  0  0  0  0  0
  -21.8850  -28.9360   22.1380 N   0  0  0  0  0  0  0  0  0  0  0  0
  -23.8510  -28.3470   23.0850 O   0  0  0  0  0  0  0  0  0  0  0  0
  -21.4300  -29.5650   21.4900 H   0  0  0  0  0  0  0  0  0  0  0  0
  -18.4470  -27.8910   22.5720 C   0  0  0  0  0  0  0  0  0  0  0  0
  -21.0220  -27.9610   22.8070 C   0  0  0  0  0  3  0  0  0  0  0  0
  -21.0210  -26.6090   22.0560 C   0  0  0  0  0  2  0  0  0  0  0  0
  -19.8840  -26.4860   21.0360 C   0  0  0  0  0  2  0  0  0  0  0  0
  -18.5260  -26.6300   21.7290 C   0  0  0  0  0  2  0  0  0  0  0  0
  -19.6200  -28.5240   23.0670 C   0  0  0  0  0  0  0  0  0  0  0  0
  -19.4910  -29.7120   23.8170 C   0  0  0  0  0  3  0  0  0  0  0  0
  -18.2240  -30.2660   24.0770 C   0  0  0  0  0  3  0  0  0  0  0  0
  -17.0670  -29.6280   23.5990 C   0  0  0  0  0  3  0  0  0  0  0  0
  -17.1790  -28.4410   22.8540 C   0  0  0  0  0  3  0  0  0  0  0  0
  -26.1780  -32.0960   24.0020 C   0  0  0  0  0  3  0  0  0  0  0  0
  -26.5850  -31.2940   25.3000 C   0  0  1  0  0  0  0  0  0  0  0  0
  -25.4060  -31.0350   26.2650 C   0  0  0  0  0  1  0  0  0  0  0  0
  -27.1990  -29.9250   24.9290 C   0  0  0  0  0  1  0  0  0  0  0  0
  -27.6740  -32.0720   26.0760 C   0  0  0  0  0  1  0  0  0  0  0  0
  -25.8220  -33.4820   24.3460 N   0  0  0  0  0  0  0  0  0  0  0  0
  -26.2290  -34.5650   23.6700 C   0  0  0  0  0  0  0  0  0  0  0  0
  -27.0110  -34.5020   22.7180 O   0  0  0  0  0  0  0  0  0  0  0  0
  -25.1400  -33.6040   25.0780 H   0  0  0  0  0  0  0  0  0  0  0  0
  -24.5270  -36.3580   23.2030 C   0  0  0  0  0  1  0  0  0  0  0  0
  -25.6840  -35.9340   24.1220 C   0  0  0  0  0  3  0  0  0  0  0  0
  -27.7040  -36.8150   25.2070 C   0  0  0  0  0  1  0  0  0  0  0  0
  -26.7120  -36.9970   24.1500 N   0  0  0  0  0  0  0  0  0  0  0  0
  -26.2830  -37.9100   24.2730 H   0  0  0  0  0  0  0  0  0  0  0  0
  -30.8510  -17.2710   20.8150 C   0  0  0  0  0  2  0  0  0  0  0  0
  -31.1390  -14.6570   20.6820 C   0  0  0  0  0  0  0  0  0  0  0  0
  -30.9200  -12.4140   19.5890 C   0  0  0  0  0  2  0  0  0  0  0  0
  -30.0320  -12.5540   18.3330 C   0  0  0  0  0  2  0  0  0  0  0  0
  -28.5430  -12.4070   18.7020 C   0  0  0  0  0  2  0  0  0  0  0  0
  -28.1480  -13.2570   19.9400 C   0  0  0  0  0  3  0  0  0  0  0  0
  -29.1640  -13.1060   21.0950 C   0  0  0  0  0  2  0  0  0  0  0  0
  -30.4860  -13.4490   20.5580 N   0  0  0  0  0  0  0  0  0  0  0  0
  -32.3370  -14.7330   20.3970 O   0  0  0  0  0  0  0  0  0  0  0  0
  -30.3980  -15.8070   20.9120 N   0  0  0  0  0  0  0  0  0  0  0  0
  -29.4190  -15.6780   21.1100 H   0  0  0  0  0  0  0  0  0  0  0  0
  -25.7530  -13.8830   20.6030 C   0  0  0  0  0  0  0  0  0  0  0  0
  -24.6580  -13.1250   20.9140 C   0  0  0  0  0  0  0  0  0  0  0  0
  -25.0890  -11.7640   20.8580 C   0  0  0  0  0  0  0  0  0  0  0  0
  -26.7830  -12.9850   20.3750 N   0  0  0  0  0  0  0  0  0  0  0  0
  -26.3880  -11.7040   20.5930 N   0  0  0  0  0  0  0  0  0  0  0  0
  -24.3250  -10.5160   20.9840 C   0  0  0  0  0  0  0  0  0  0  0  0
  -24.6750   -9.5250   21.9280 C   0  0  0  0  0  3  0  0  0  0  0  0
  -23.9120   -8.3430   22.0410 C   0  0  0  0  0  3  0  0  0  0  0  0
  -22.7850   -8.1430   21.2090 C   0  0  0  0  0  0  0  0  0  0  0  0
  -22.4540   -9.1220   20.2540 C   0  0  0  0  0  3  0  0  0  0  0  0
  -23.2180  -10.2950   20.1410 C   0  0  0  0  0  3  0  0  0  0  0  0
  -21.9990   -7.0150   21.2320 O   0  0  0  0  0  0  0  0  0  0  0  0
  -21.8150   -6.2900   22.3820 C   0  0  0  0  0  0  0  0  0  0  0  0
  -21.2360   -6.8590   23.5370 C   0  0  0  0  0  3  0  0  0  0  0  0
  -21.0010   -6.0600   24.6730 C   0  0  0  0  0  3  0  0  0  0  0  0
  -21.3340   -4.6930   24.6550 C   0  0  0  0  0  0  0  0  0  0  0  0
  -21.9060   -4.1230   23.5040 C   0  0  0  0  0  3  0  0  0  0  0  0
  -22.1430   -4.9190   22.3690 C   0  0  0  0  0  0  0  0  0  0  0  0
  -22.6740   -4.3600   21.2550 F   0  0  0  0  0  0  0  0  0  0  0  0
  -21.1030   -3.9230   25.7430 F   0  0  0  0  0  0  0  0  0  0  0  0
  -23.2640  -13.6310   21.1470 C   0  0  0  0  0  0  0  0  0  0  0  0
  -22.4950  -12.9440   21.9840 N   0  0  0  0  0  0  0  0  0  0  0  0
  -22.8650  -14.6690   20.6220 O   0  0  0  0  0  0  0  0  0  0  0  0
  -22.8290  -12.1040   22.4320 H   0  0  0  0  0  0  0  0  0  0  0  0
  -21.5590  -13.2680   22.1840 H   0  0  0  0  0  0  0  0  0  0  0  0
  -25.9510  -15.2540   20.4670 N   0  0  0  0  0  0  0  0  0  0  0  0
  -25.1670  -15.8940   20.5100 H   0  0  0  0  0  0  0  0  0  0  0  0
  -26.7700  -15.6650   20.0370 H   0  0  0  0  0  0  0  0  0  0  0  0
  1  2  2  0
  2  5  1  0
  2 56  1  0
  3  6  2  0
  3  1  1  0
  4  8  1  0
  4  5  2  0
  6  4  1  0
  7  3  1  0
  8 13  1  0
  8 11  1  0
  9  7  1  0
 10  7  1  0
 13 12  1  0
 14 15  1  0
 14 13  1  0
 16 27  2  0
 17 15  1  0
 17 22  1  0
 18 26  1  0
 18 28  1  0
 19 21  1  0
 20 26  1  0
 21 22  2  0
 21 20  1  0
 23 17  2  0
 24 23  1  0
 24 19  2  0
 25 19  1  0
 25 18  1  0
 26 16  1  0
 28 30  2  0
 29 28  1  0
 31 29  1  0
 32 41  2  0
 32 37  1  0
 33 29  1  0
 33 37  1  0
 34 33  1  0
 35 36  1  0
 35 34  1  0
 36 32  1  0
 37 38  2  0
 38 39  1  0
 40 39  2  0
 41 40  1  0
 42 16  1  0
 42 47  1  0
 42 43  1  0
 43 46  1  1
 43 44  1  0
 45 43  1  0
 47 50  1  0
 48 52  1  0
 48 47  1  0
 49 48  2  0
 52 51  1  0
 52 54  1  0
 54 55  1  0
 54 53  1  0
 56 65  1  0
 57 65  1  0
 58 63  1  0
 59 60  1  0
 59 58  1  0
 61 60  1  0
 61 70  1  0
 61 62  1  0
 63 57  1  0
 63 62  1  0
 64 57  2  0
 65 66  1  0
 67 68  2  0
 68 87  1  0
 69 68  1  0
 69 72  1  0
 70 71  1  0
 70 67  1  0
 71 69  2  0
 72 73  1  0
 73 74  2  0
 75 78  1  0
 75 74  1  0
 76 75  2  0
 77 76  1  0
 77 72  2  0
 78 79  1  0
 79 80  1  0
 80 81  2  0
 82 81  1  0
 82 86  1  0
 83 82  2  0
 84 79  2  0
 84 83  1  0
 85 84  1  0
 87 88  1  0
 88 91  1  0
 88 90  1  0
 89 87  2  0
 92 93  1  0
 92 67  1  0
 94 92  1  0
M  ISO  4  14 101  15 101  57 100  65 100
M  END
>  <TORSDO>  (34) 
F 19

>  <SCORE>  (34) 
-12.963

>  <name>  (34) 
33

>  <ligand_id>  (34) 
33

>  <original_smiles>  (34) 
[H]c1c(N([H])[H])nc(N([H])C([H])(C([H])([H])[H])C([H])([H])Oc2c([H])c([H])c3c(c2[H])C([H])([H])N(C(=O)C([H])(N([H])C(=O)C([H])(N([H])C([H])([H])[H])C([H])([H])[H])C(C([H])([H])[H])(C([H])([H])[H])C([H])([H])[H])C([H])(C(=O)N([H])C2([H])c4c([H])c([H])c([H])c([H])c4C([H])([H])C([H])([H])C2([H])[H])C3([H])[H])nc1C([H])([H])N([H])C(=O)N1C([H])([H])C([H])([H])C([H])([H])C([H])(n2nc(-c3c([H])c([H])c(Oc4c([H])c([H])c(F)c([H])c4F)c([H])c3[H])c(C(=O)N([H])[H])c2N([H])[H])C1([H])[H]

>  <smiles>  (34) 
[H]c1c(N([H])[H])nc(N([H])C([H])(C([H])([H])[H])C([H])([H])Oc2c([H])c([H])c3c(c2[H])C([H])([H])N(C(=O)C([H])(N([H])C(=O)C([H])(N([H])C([H])([H])[H])C([H])([H])[H])C(C([H])([H])[H])(C([H])([H])[H])C([H])([H])[H])C([H])(C(=O)N([H])C2([H])c4c([H])c([H])c([H])c([H])c4C([H])([H])C([H])([H])C2([H])[H])C3([H])[H])nc1C([H])([H])N([H])C(=O)N1C([H])([H])C([H])([H])C([H])([H])C([H])(n2nc(-c3c([H])c([H])c(Oc4c([H])c([H])c(F)c([H])c4F)c([H])c3[H])c(C(=O)N([H])[H])c2N([H])[H])C1([H])[H]

$$$$
34:0:0
     RDKit          3D

 94102  0  0  1  0  0  0  0  0999 V2000
  -30.5880  -14.8390   20.4110 C   0  0  0  0  0  0  0  0  0  0  0  0
  -30.3770  -12.5450   19.4440 C   0  0  0  0  0  2  0  0  0  0  0  0
  -29.4670  -12.6090   18.2000 C   0  0  0  0  0  2  0  0  0  0  0  0
  -27.9830  -12.4570   18.5960 C   0  0  0  0  0  2  0  0  0  0  0  0
  -27.5960  -13.3240   19.8270 C   0  0  0  0  0  3  0  0  0  0  0  0
  -28.6460  -13.2500   20.9560 C   0  0  0  0  0  2  0  0  0  0  0  0
  -29.9340  -13.6190   20.3660 N   0  0  0  0  0  0  0  0  0  0  0  0
  -31.8020  -14.8330   20.1880 O   0  0  0  0  0  0  0  0  0  0  0  0
  -31.5760  -18.7660   18.8690 C   0  0  0  0  0  3  0  0  0  0  0  0
  -30.8110  -19.9190   19.1180 C   0  0  0  0  0  0  0  0  0  0  0  0
  -29.6770  -19.7820   19.9360 C   0  0  0  0  0  0  0  0  0  0  0  0
  -30.1590  -17.4090   20.0990 C   0  0  0  0  0  0  0  0  0  0  0  0
  -31.2440  -17.5550   19.3470 N   0  0  0  0  0  0  0  0  0  0  0  0
  -29.3490  -18.5010   20.3840 N   0  0  0  0  0  0  0  0  0  0  0  0
  -28.8170  -20.9510   20.0690 N   0  0  0  0  0  0  0  0  0  0  0  0
  -29.8570  -16.0420   20.5070 N   0  0  0  0  0  0  0  0  0  0  0  0
  -27.8310  -20.7130   19.9480 H   0  0  0  0  0  0  0  0  0  0  0  0
  -28.9130  -15.9230   20.8330 H   0  0  0  0  0  0  0  0  0  0  0  0
  -25.2060  -13.9070   20.5320 C   0  0  0  0  0  0  0  0  0  0  0  0
  -24.1370  -13.1370   20.8990 C   0  0  0  0  0  0  0  0  0  0  0  0
  -24.6020  -11.7870   20.8740 C   0  0  0  0  0  0  0  0  0  0  0  0
  -26.2520  -13.0290   20.3120 N   0  0  0  0  0  0  0  0  0  0  0  0
  -25.8960  -11.7450   20.5750 N   0  0  0  0  0  0  0  0  0  0  0  0
  -23.8720  -10.5260   21.0590 C   0  0  0  0  0  0  0  0  0  0  0  0
  -24.2930   -9.5600   21.9980 C   0  0  0  0  0  3  0  0  0  0  0  0
  -23.5640   -8.3610   22.1720 C   0  0  0  0  0  3  0  0  0  0  0  0
  -22.4000   -8.1200   21.4000 C   0  0  0  0  0  0  0  0  0  0  0  0
  -21.9970   -9.0780   20.4520 C   0  0  0  0  0  3  0  0  0  0  0  0
  -22.7270  -10.2660   20.2790 C   0  0  0  0  0  3  0  0  0  0  0  0
  -21.6430   -6.9760   21.4860 O   0  0  0  0  0  0  0  0  0  0  0  0
  -21.5830   -6.2370   22.6400 C   0  0  0  0  0  0  0  0  0  0  0  0
  -21.1470   -6.7970   23.8610 C   0  0  0  0  0  3  0  0  0  0  0  0
  -21.0260   -5.9830   25.0050 C   0  0  0  0  0  3  0  0  0  0  0  0
  -21.3360   -4.6130   24.9280 C   0  0  0  0  0  0  0  0  0  0  0  0
  -21.7560   -4.0500   23.7090 C   0  0  0  0  0  3  0  0  0  0  0  0
  -21.8740   -4.8600   22.5680 C   0  0  0  0  0  0  0  0  0  0  0  0
  -22.2640   -4.3120   21.3920 F   0  0  0  0  0  0  0  0  0  0  0  0
  -21.2120   -3.8290   26.0240 F   0  0  0  0  0  0  0  0  0  0  0  0
  -22.7370  -13.6180   21.1480 C   0  0  0  0  0  0  0  0  0  0  0  0
  -21.9930  -12.9260   22.0040 N   0  0  0  0  0  0  0  0  0  0  0  0
  -22.3080  -14.6400   20.6120 O   0  0  0  0  0  0  0  0  0  0  0  0
  -22.3510  -12.1020   22.4660 H   0  0  0  0  0  0  0  0  0  0  0  0
  -21.0500  -13.2290   22.2070 H   0  0  0  0  0  0  0  0  0  0  0  0
  -25.3860  -15.2760   20.3530 N   0  0  0  0  0  0  0  0  0  0  0  0
  -24.6350  -15.9480   20.4540 H   0  0  0  0  0  0  0  0  0  0  0  0
  -26.2300  -15.6790   19.9670 H   0  0  0  0  0  0  0  0  0  0  0  0
  -31.1160  -21.1370   18.4980 N   0  0  0  0  0  0  0  0  0  0  0  0
  -32.0740  -21.3790   18.2730 H   0  0  0  0  0  0  0  0  0  0  0  0
  -30.5340  -21.9220   18.7710 H   0  0  0  0  0  0  0  0  0  0  0  0
  -30.2930  -22.3470   21.6530 C   0  0  0  0  0  1  0  0  0  0  0  0
  -29.0080  -22.2830   20.7960 C   0  0  0  0  0  3  0  0  0  0  0  0
  -28.7740  -23.7070   20.0200 C   0  0  0  0  0  2  0  0  0  0  0  0
  -28.2820  -25.0320   20.8440 C   0  0  0  0  0  2  0  0  0  0  0  0
  -28.4510  -26.4560   20.3830 O   0  0  0  0  0  0  0  0  0  0  0  0
  -24.6350  -31.9470   23.2930 C   0  0  0  0  0  0  0  0  0  0  0  0
  -27.3370  -27.3240   20.3620 C   0  0  0  0  0  0  0  0  0  0  0  0
  -23.4760  -30.5190   21.6430 C   0  0  0  0  0  3  0  0  0  0  0  0
  -24.9730  -28.9550   20.2620 C   0  0  0  0  0  0  0  0  0  0  0  0
  -26.0200  -30.8370   21.5190 C   0  0  0  0  0  2  0  0  0  0  0  0
  -26.1210  -29.4410   20.9020 C   0  0  0  0  0  0  0  0  0  0  0  0
  -27.3060  -28.6380   20.9400 C   0  0  0  0  0  3  0  0  0  0  0  0
  -26.1710  -26.9060   19.6890 C   0  0  0  0  0  3  0  0  0  0  0  0
  -25.0020  -27.6950   19.6430 C   0  0  0  0  0  3  0  0  0  0  0  0
  -23.7340  -29.8330   20.2730 C   0  0  0  0  0  2  0  0  0  0  0  0
  -24.7270  -31.1210   22.2080 N   0  0  0  0  0  0  0  0  0  0  0  0
  -23.5390  -32.2290   23.7980 O   0  0  0  0  0  0  0  0  0  0  0  0
  -22.7940  -29.5100   22.5980 C   0  0  0  0  0  0  0  0  0  0  0  0
  -21.4650  -29.3500   22.4660 N   0  0  0  0  0  0  0  0  0  0  0  0
  -23.4600  -28.8880   23.4300 O   0  0  0  0  0  0  0  0  0  0  0  0
  -20.9870  -29.9160   21.7750 H   0  0  0  0  0  0  0  0  0  0  0  0
  -18.0710  -28.1940   22.9500 C   0  0  0  0  0  0  0  0  0  0  0  0
  -20.6320  -28.4240   23.2330 C   0  0  0  0  0  3  0  0  0  0  0  0
  -20.7210  -26.9920   22.6600 C   0  0  0  0  0  2  0  0  0  0  0  0
  -19.6190  -26.6780   21.6430 C   0  0  0  0  0  2  0  0  0  0  0  0
  -18.2330  -26.8430   22.2760 C   0  0  0  0  0  2  0  0  0  0  0  0
  -19.1990  -28.9420   23.3860 C   0  0  0  0  0  0  0  0  0  0  0  0
  -18.9910  -30.2080   23.9750 C   0  0  0  0  0  3  0  0  0  0  0  0
  -17.6910  -30.7250   24.1370 C   0  0  0  0  0  3  0  0  0  0  0  0
  -16.5790  -29.9760   23.7160 C   0  0  0  0  0  3  0  0  0  0  0  0
  -16.7710  -28.7120   23.1250 C   0  0  0  0  0  3  0  0  0  0  0  0
  -25.9040  -32.5890   23.9390 C   0  0  0  0  0  3  0  0  0  0  0  0
  -26.3920  -31.8350   25.2360 C   0  0  1  0  0  0  0  0  0  0  0  0
  -25.2750  -31.6120   26.2810 C   0  0  0  0  0  1  0  0  0  0  0  0
  -26.9820  -30.4530   24.8720 C   0  0  0  0  0  1  0  0  0  0  0  0
  -27.5200  -32.6460   25.9170 C   0  0  0  0  0  1  0  0  0  0  0  0
  -25.5870  -33.9930   24.2390 N   0  0  0  0  0  0  0  0  0  0  0  0
  -25.9200  -35.0360   23.4660 C   0  0  0  0  0  0  0  0  0  0  0  0
  -26.6040  -34.9180   22.4450 O   0  0  0  0  0  0  0  0  0  0  0  0
  -24.9960  -34.1630   25.0390 H   0  0  0  0  0  0  0  0  0  0  0  0
  -24.1870  -36.8150   23.0670 C   0  0  0  0  0  1  0  0  0  0  0  0
  -25.4230  -36.4290   23.8950 C   0  0  0  0  0  3  0  0  0  0  0  0
  -27.5420  -37.3430   24.7300 C   0  0  0  0  0  1  0  0  0  0  0  0
  -26.4490  -37.4880   23.7720 N   0  0  0  0  0  0  0  0  0  0  0  0
  -26.0320  -38.4060   23.9040 H   0  0  0  0  0  0  0  0  0  0  0  0
  1 16  1  0
  2  7  1  0
  3  4  1  0
  3  2  1  0
  5  4  1  0
  5 22  1  0
  5  6  1  0
  7  1  1  0
  7  6  1  0
  8  1  2  0
  9 10  2  0
  9 13  1  0
 10 11  1  0
 11 15  1  0
 11 14  2  0
 12 14  1  0
 12 16  1  0
 13 12  2  0
 15 51  1  0
 16 18  1  0
 17 15  1  0
 19 20  2  0
 20 39  1  0
 21 20  1  0
 21 24  1  0
 22 19  1  0
 22 23  1  0
 23 21  2  0
 24 25  1  0
 25 26  2  0
 27 30  1  0
 27 26  1  0
 28 27  2  0
 29 28  1  0
 29 24  2  0
 30 31  1  0
 31 32  1  0
 32 33  2  0
 34 33  1  0
 34 38  1  0
 35 34  2  0
 36 31  2  0
 36 35  1  0
 37 36  1  0
 39 40  1  0
 40 43  1  0
 40 42  1  0
 41 39  2  0
 44 45  1  0
 44 19  1  0
 46 44  1  0
 47 49  1  0
 47 10  1  0
 48 47  1  0
 51 50  1  0
 52 51  1  0
 52 53  1  0
 54 53  1  0
 55 66  2  0
 56 54  1  0
 56 61  1  0
 57 65  1  0
 57 67  1  0
 58 64  1  0
 58 60  1  0
 59 65  1  0
 60 61  2  0
 60 59  1  0
 62 56  2  0
 63 62  1  0
 63 58  2  0
 64 57  1  0
 65 55  1  0
 67 69  2  0
 68 67  1  0
 70 68  1  0
 71 80  2  0
 71 76  1  0
 72 68  1  0
 72 76  1  0
 73 72  1  0
 74 75  1  0
 74 73  1  0
 75 71  1  0
 76 77  2  0
 77 78  1  0
 79 78  2  0
 80 79  1  0
 81 55  1  0
 81 86  1  0
 81 82  1  0
 82 85  1  1
 82 83  1  0
 84 82  1  0
 86 89  1  0
 87 91  1  0
 87 86  1  0
 88 87  2  0
 91 90  1  0
 93 91  1  0
 93 94  1  0
 93 92  1  0
M  ISO  4   1 100  16 100  53 101  54 101
M  END
>  <TORSDO>  (35) 
F 19

>  <SCORE>  (35) 
-14.503

>  <name>  (35) 
34

>  <ligand_id>  (35) 
34

>  <original_smiles>  (35) 
[H]c1nc(N([H])C(=O)N2C([H])([H])C([H])([H])C([H])([H])C([H])(n3nc(-c4c([H])c([H])c(Oc5c([H])c([H])c(F)c([H])c5F)c([H])c4[H])c(C(=O)N([H])[H])c3N([H])[H])C2([H])[H])nc(N([H])C([H])(C([H])([H])[H])C([H])([H])C([H])([H])Oc2c([H])c([H])c3c(c2[H])C([H])([H])N(C(=O)C([H])(N([H])C(=O)C([H])(N([H])C([H])([H])[H])C([H])([H])[H])C(C([H])([H])[H])(C([H])([H])[H])C([H])([H])[H])C([H])(C(=O)N([H])C2([H])c4c([H])c([H])c([H])c([H])c4C([H])([H])C([H])([H])C2([H])[H])C3([H])[H])c1N([H])[H]

>  <smiles>  (35) 
[H]c1nc(N([H])C(=O)N2C([H])([H])C([H])([H])C([H])([H])C([H])(n3nc(-c4c([H])c([H])c(Oc5c([H])c([H])c(F)c([H])c5F)c([H])c4[H])c(C(=O)N([H])[H])c3N([H])[H])C2([H])[H])nc(N([H])C([H])(C([H])([H])[H])C([H])([H])C([H])([H])Oc2c([H])c([H])c3c(c2[H])C([H])([H])N(C(=O)C([H])(N([H])C(=O)C([H])(N([H])C([H])([H])[H])C([H])([H])[H])C(C([H])([H])[H])(C([H])([H])[H])C([H])([H])[H])C([H])(C(=O)N([H])C2([H])c4c([H])c([H])c([H])c([H])c4C([H])([H])C([H])([H])C2([H])[H])C3([H])[H])c1N([H])[H]

$$$$
35:0:0
     RDKit          3D

 98106  0  0  1  0  0  0  0  0999 V2000
  -30.0380  -16.9660   18.8990 C   0  0  0  0  0  3  0  0  0  0  0  0
  -29.8970  -16.8250   20.3080 C   0  0  0  0  0  0  0  0  0  0  0  0
  -29.7730  -19.2570   19.0290 C   0  0  0  0  0  0  0  0  0  0  0  0
  -29.6250  -19.1640   20.4440 C   0  0  0  0  0  0  0  0  0  0  0  0
  -29.9660  -18.1590   18.2650 N   0  0  0  0  0  0  0  0  0  0  0  0
  -29.6570  -17.9460   21.0680 N   0  0  0  0  0  0  0  0  0  0  0  0
  -29.5940  -20.3160   21.2610 N   0  0  0  0  0  0  0  0  0  0  0  0
  -29.7880  -20.5010   18.3850 N   0  0  0  0  0  0  0  0  0  0  0  0
  -30.3880  -20.9000   20.9900 H   0  0  0  0  0  0  0  0  0  0  0  0
  -29.7180  -21.2760   19.0460 H   0  0  0  0  0  0  0  0  0  0  0  0
  -30.6720  -14.4550   20.3920 C   0  0  0  0  0  0  0  0  0  0  0  0
  -30.3560  -12.3230   19.1950 C   0  0  0  0  0  2  0  0  0  0  0  0
  -29.3920  -12.6030   18.0220 C   0  0  0  0  0  2  0  0  0  0  0  0
  -27.9250  -12.4600   18.4750 C   0  0  0  0  0  2  0  0  0  0  0  0
  -27.6280  -13.2160   19.7980 C   0  0  0  0  0  3  0  0  0  0  0  0
  -28.7120  -12.9410   20.8660 C   0  0  0  0  0  2  0  0  0  0  0  0
  -30.0190  -13.2620   20.2790 N   0  0  0  0  0  0  0  0  0  0  0  0
  -31.8100  -14.6270   19.9420 O   0  0  0  0  0  0  0  0  0  0  0  0
  -29.9400  -15.4960   20.8650 N   0  0  0  0  0  0  0  0  0  0  0  0
  -29.1510  -15.2470   21.4390 H   0  0  0  0  0  0  0  0  0  0  0  0
  -25.2440  -13.7950   20.5640 C   0  0  0  0  0  0  0  0  0  0  0  0
  -24.1890  -13.0110   20.9440 C   0  0  0  0  0  0  0  0  0  0  0  0
  -24.6590  -11.6630   20.8910 C   0  0  0  0  0  0  0  0  0  0  0  0
  -26.2890  -12.9240   20.3020 N   0  0  0  0  0  0  0  0  0  0  0  0
  -25.9430  -11.6350   20.5570 N   0  0  0  0  0  0  0  0  0  0  0  0
  -23.9440  -10.3940   21.0790 C   0  0  0  0  0  0  0  0  0  0  0  0
  -24.3940   -9.4230   22.0000 C   0  0  0  0  0  3  0  0  0  0  0  0
  -23.6790   -8.2190   22.1760 C   0  0  0  0  0  3  0  0  0  0  0  0
  -22.5000   -7.9780   21.4320 C   0  0  0  0  0  0  0  0  0  0  0  0
  -22.0700   -8.9380   20.5010 C   0  0  0  0  0  3  0  0  0  0  0  0
  -22.7850  -10.1330   20.3210 C   0  0  0  0  0  3  0  0  0  0  0  0
  -21.7540   -6.8260   21.5190 O   0  0  0  0  0  0  0  0  0  0  0  0
  -21.7150   -6.0780   22.6700 C   0  0  0  0  0  0  0  0  0  0  0  0
  -21.2790   -6.6230   23.8970 C   0  0  0  0  0  3  0  0  0  0  0  0
  -21.1860   -5.8010   25.0380 C   0  0  0  0  0  3  0  0  0  0  0  0
  -21.5200   -4.4370   24.9530 C   0  0  0  0  0  0  0  0  0  0  0  0
  -21.9500   -3.8920   23.7300 C   0  0  0  0  0  3  0  0  0  0  0  0
  -22.0440   -4.7100   22.5910 C   0  0  0  0  0  0  0  0  0  0  0  0
  -22.4360   -4.1750   21.4100 F   0  0  0  0  0  0  0  0  0  0  0  0
  -21.4260   -3.6440   26.0460 F   0  0  0  0  0  0  0  0  0  0  0  0
  -22.7940  -13.4760   21.2480 C   0  0  0  0  0  0  0  0  0  0  0  0
  -22.0840  -12.7640   22.1160 N   0  0  0  0  0  0  0  0  0  0  0  0
  -22.3420  -14.5050   20.7490 O   0  0  0  0  0  0  0  0  0  0  0  0
  -22.4630  -11.9340   22.5470 H   0  0  0  0  0  0  0  0  0  0  0  0
  -21.1460  -13.0570   22.3540 H   0  0  0  0  0  0  0  0  0  0  0  0
  -25.3950  -15.1690   20.3990 N   0  0  0  0  0  0  0  0  0  0  0  0
  -24.6190  -15.8100   20.5200 H   0  0  0  0  0  0  0  0  0  0  0  0
  -26.2300  -15.6240   20.0530 H   0  0  0  0  0  0  0  0  0  0  0  0
  -29.9070  -21.2310   16.0380 C   0  0  0  0  0  1  0  0  0  0  0  0
  -27.7690  -21.4890   17.3730 C   0  0  0  0  0  1  0  0  0  0  0  0
  -29.0270  -20.6420   17.1460 C   0  0  0  0  0  3  0  0  0  0  0  0
  -28.5160  -21.3150   21.1390 C   0  0  0  0  0  2  0  0  0  0  0  0
  -29.1200  -22.7560   21.2500 C   0  0  0  0  0  3  0  0  0  0  0  0
  -30.3170  -22.7090   20.4830 O   0  0  0  0  0  0  0  0  0  0  0  0
  -30.8130  -23.5060   20.6610 H   0  0  0  0  0  0  0  0  0  0  0  0
  -28.2540  -23.9730   20.7610 C   0  0  0  0  0  2  0  0  0  0  0  0
  -28.6550  -25.3600   21.3760 C   0  0  0  0  0  2  0  0  0  0  0  0
  -28.5990  -26.5280   20.5190 O   0  0  0  0  0  0  0  0  0  0  0  0
  -24.5870  -31.8220   23.2260 C   0  0  0  0  0  0  0  0  0  0  0  0
  -27.4280  -27.2600   20.4890 C   0  0  0  0  0  0  0  0  0  0  0  0
  -23.4910  -30.3520   21.5650 C   0  0  0  0  0  3  0  0  0  0  0  0
  -25.0360  -28.7660   20.2940 C   0  0  0  0  0  0  0  0  0  0  0  0
  -26.0250  -30.7140   21.5130 C   0  0  0  0  0  2  0  0  0  0  0  0
  -26.1570  -29.3170   20.9300 C   0  0  0  0  0  0  0  0  0  0  0  0
  -27.3580  -28.5730   21.0180 C   0  0  0  0  0  3  0  0  0  0  0  0
  -26.2930  -26.7260   19.8500 C   0  0  0  0  0  3  0  0  0  0  0  0
  -25.1000  -27.4700   19.7520 C   0  0  0  0  0  3  0  0  0  0  0  0
  -23.7900  -29.6200   20.2290 C   0  0  0  0  0  2  0  0  0  0  0  0
  -24.7150  -30.9820   22.1590 N   0  0  0  0  0  0  0  0  0  0  0  0
  -23.4730  -32.1040   23.6910 O   0  0  0  0  0  0  0  0  0  0  0  0
  -22.7850  -29.3630   22.5210 C   0  0  0  0  0  0  0  0  0  0  0  0
  -21.4630  -29.1970   22.3460 N   0  0  0  0  0  0  0  0  0  0  0  0
  -23.4260  -28.7460   23.3750 O   0  0  0  0  0  0  0  0  0  0  0  0
  -21.0060  -29.7460   21.6310 H   0  0  0  0  0  0  0  0  0  0  0  0
  -18.0490  -28.0940   22.7720 C   0  0  0  0  0  0  0  0  0  0  0  0
  -20.6050  -28.2850   23.1020 C   0  0  0  0  0  3  0  0  0  0  0  0
  -20.6810  -26.8480   22.5350 C   0  0  0  0  0  2  0  0  0  0  0  0
  -19.5960  -26.5500   21.4970 C   0  0  0  0  0  2  0  0  0  0  0  0
  -18.2040  -26.7370   22.1070 C   0  0  0  0  0  2  0  0  0  0  0  0
  -19.1770  -28.8280   23.2250 C   0  0  0  0  0  0  0  0  0  0  0  0
  -18.9800  -30.1010   23.8030 C   0  0  0  0  0  3  0  0  0  0  0  0
  -17.6860  -30.6410   23.9310 C   0  0  0  0  0  3  0  0  0  0  0  0
  -16.5710  -29.9030   23.4970 C   0  0  0  0  0  3  0  0  0  0  0  0
  -16.7540  -28.6310   22.9260 C   0  0  0  0  0  3  0  0  0  0  0  0
  -25.8290  -32.4850   23.9010 C   0  0  0  0  0  3  0  0  0  0  0  0
  -25.4780  -33.8800   24.2010 N   0  0  0  0  0  0  0  0  0  0  0  0
  -25.8180  -34.9290   23.4410 C   0  0  0  0  0  0  0  0  0  0  0  0
  -26.5280  -34.8270   22.4370 O   0  0  0  0  0  0  0  0  0  0  0  0
  -24.8500  -34.0310   24.9760 H   0  0  0  0  0  0  0  0  0  0  0  0
  -24.0600  -36.6730   23.0070 C   0  0  0  0  0  1  0  0  0  0  0  0
  -25.2850  -36.3120   23.8630 C   0  0  0  0  0  3  0  0  0  0  0  0
  -27.3690  -37.2590   24.7490 C   0  0  0  0  0  1  0  0  0  0  0  0
  -26.2960  -37.3870   23.7650 N   0  0  0  0  0  0  0  0  0  0  0  0
  -25.8650  -38.2990   23.8860 H   0  0  0  0  0  0  0  0  0  0  0  0
  -26.3030  -31.7360   25.2060 C   0  0  1  0  0  0  0  0  0  0  0  0
  -25.1680  -31.4800   26.2250 C   0  0  0  0  0  1  0  0  0  0  0  0
  -26.9360  -30.3700   24.8530 C   0  0  0  0  0  1  0  0  0  0  0  0
  -27.4030  -32.5620   25.9130 C   0  0  0  0  0  1  0  0  0  0  0  0
  1  2  1  0
  2 19  1  0
  2  6  2  0
  3  4  2  0
  4  6  1  0
  4  7  1  0
  5  1  2  0
  5  3  1  0
  8  3  1  0
  8 10  1  0
  9  7  1  0
 11 19  1  0
 12 17  1  0
 13 14  1  0
 13 12  1  0
 15 14  1  0
 15 24  1  0
 15 16  1  0
 17 11  1  0
 17 16  1  0
 18 11  2  0
 19 20  1  0
 21 22  2  0
 22 41  1  0
 23 22  1  0
 23 26  1  0
 24 25  1  0
 24 21  1  0
 25 23  2  0
 26 27  1  0
 27 28  2  0
 29 32  1  0
 29 28  1  0
 30 29  2  0
 31 30  1  0
 31 26  2  0
 32 33  1  0
 33 34  1  0
 34 35  2  0
 36 35  1  0
 36 40  1  0
 37 36  2  0
 38 33  2  0
 38 37  1  0
 39 38  1  0
 41 42  1  0
 42 45  1  0
 42 44  1  0
 43 41  2  0
 46 47  1  0
 46 21  1  0
 48 46  1  0
 49 51  1  0
 51 50  1  0
 51  8  1  0
 52 53  1  0
 52  7  1  0
 53 56  1  0
 54 55  1  0
 54 53  1  0
 56 57  1  0
 58 57  1  0
 59 70  2  0
 60 58  1  0
 60 65  1  0
 61 69  1  0
 61 71  1  0
 62 64  1  0
 63 69  1  0
 64 65  2  0
 64 63  1  0
 66 60  2  0
 67 66  1  0
 67 62  2  0
 68 62  1  0
 68 61  1  0
 69 59  1  0
 71 73  2  0
 72 71  1  0
 74 72  1  0
 75 84  2  0
 75 80  1  0
 76 72  1  0
 76 80  1  0
 77 76  1  0
 78 79  1  0
 78 77  1  0
 79 75  1  0
 80 81  2  0
 81 82  1  0
 83 82  2  0
 84 83  1  0
 85 59  1  0
 85 86  1  0
 85 95  1  0
 86 89  1  0
 87 91  1  0
 87 86  1  0
 88 87  2  0
 91 90  1  0
 93 91  1  0
 93 94  1  0
 93 92  1  0
 95 98  1  1
 95 96  1  0
 97 95  1  0
M  ISO  4  11 100  19 100  57 101  58 101
M  END
>  <TORSDO>  (36) 
F 22

>  <SCORE>  (36) 
-13.606

>  <name>  (36) 
35

>  <ligand_id>  (36) 
35

>  <original_smiles>  (36) 
[H]OC([H])(C([H])([H])N([H])c1nc(N([H])C(=O)N2C([H])([H])C([H])([H])C([H])([H])C([H])(n3nc(-c4c([H])c([H])c(Oc5c([H])c([H])c(F)c([H])c5F)c([H])c4[H])c(C(=O)N([H])[H])c3N([H])[H])C2([H])[H])c([H])nc1N([H])C([H])(C([H])([H])[H])C([H])([H])[H])C([H])([H])C([H])([H])Oc1c([H])c([H])c2c(c1[H])C([H])([H])N(C(=O)C([H])(N([H])C(=O)C([H])(N([H])C([H])([H])[H])C([H])([H])[H])C(C([H])([H])[H])(C([H])([H])[H])C([H])([H])[H])C([H])(C(=O)N([H])C1([H])c3c([H])c([H])c([H])c([H])c3C([H])([H])C([H])([H])C1([H])[H])C2([H])[H]

>  <smiles>  (36) 
[H]OC([H])(C([H])([H])N([H])c1nc(N([H])C(=O)N2C([H])([H])C([H])([H])C([H])([H])C([H])(n3nc(-c4c([H])c([H])c(Oc5c([H])c([H])c(F)c([H])c5F)c([H])c4[H])c(C(=O)N([H])[H])c3N([H])[H])C2([H])[H])c([H])nc1N([H])C([H])(C([H])([H])[H])C([H])([H])[H])C([H])([H])C([H])([H])Oc1c([H])c([H])c2c(c1[H])C([H])([H])N(C(=O)C([H])(N([H])C(=O)C([H])(N([H])C([H])([H])[H])C([H])([H])[H])C(C([H])([H])[H])(C([H])([H])[H])C([H])([H])[H])C([H])(C(=O)N([H])C1([H])c3c([H])c([H])c([H])c([H])c3C([H])([H])C([H])([H])C1([H])[H])C2([H])[H]

$$$$
36:0:0
     RDKit          3D

 95103  0  0  1  0  0  0  0  0999 V2000
  -29.9420  -17.1500   18.6900 C   0  0  0  0  0  3  0  0  0  0  0  0
  -29.7680  -17.1960   20.0940 C   0  0  0  0  0  0  0  0  0  0  0  0
  -29.4810  -19.4050   18.4480 C   0  0  0  0  0  0  0  0  0  0  0  0
  -29.3350  -19.5940   19.8610 C   0  0  0  0  0  0  0  0  0  0  0  0
  -29.7890  -18.2210   17.8830 N   0  0  0  0  0  0  0  0  0  0  0  0
  -29.4630  -18.4500   20.6580 N   0  0  0  0  0  0  0  0  0  0  0  0
  -29.3020  -20.4080   17.5090 N   0  0  0  0  0  0  0  0  0  0  0  0
  -29.0820  -20.9000   20.4670 N   0  0  0  0  0  0  0  0  0  0  0  0
  -28.7680  -21.2010   17.8360 H   0  0  0  0  0  0  0  0  0  0  0  0
  -29.0690  -20.1140   16.5700 H   0  0  0  0  0  0  0  0  0  0  0  0
  -29.0400  -20.9000   21.4800 H   0  0  0  0  0  0  0  0  0  0  0  0
  -30.5390  -14.7530   20.4440 C   0  0  0  0  0  0  0  0  0  0  0  0
  -30.3530  -12.4710   19.4580 C   0  0  0  0  0  2  0  0  0  0  0  0
  -29.4330  -12.5480   18.2180 C   0  0  0  0  0  2  0  0  0  0  0  0
  -27.9570  -12.3800   18.6270 C   0  0  0  0  0  2  0  0  0  0  0  0
  -27.5700  -13.2660   19.8410 C   0  0  0  0  0  3  0  0  0  0  0  0
  -28.6130  -13.1730   20.9800 C   0  0  0  0  0  2  0  0  0  0  0  0
  -29.9220  -13.5220   20.4110 N   0  0  0  0  0  0  0  0  0  0  0  0
  -31.7050  -14.8610   20.0510 O   0  0  0  0  0  0  0  0  0  0  0  0
  -29.8000  -15.8790   20.7780 N   0  0  0  0  0  0  0  0  0  0  0  0
  -28.9970  -15.6950   21.3570 H   0  0  0  0  0  0  0  0  0  0  0  0
  -25.1710  -13.8510   20.5390 C   0  0  0  0  0  0  0  0  0  0  0  0
  -24.1040  -13.0750   20.8970 C   0  0  0  0  0  0  0  0  0  0  0  0
  -24.5700  -11.7240   20.8710 C   0  0  0  0  0  0  0  0  0  0  0  0
  -26.2200  -12.9740   20.3140 N   0  0  0  0  0  0  0  0  0  0  0  0
  -25.8640  -11.6910   20.5770 N   0  0  0  0  0  0  0  0  0  0  0  0
  -23.8440  -10.4610   21.0530 C   0  0  0  0  0  0  0  0  0  0  0  0
  -24.2670   -9.4950   21.9940 C   0  0  0  0  0  3  0  0  0  0  0  0
  -23.5400   -8.2960   22.1640 C   0  0  0  0  0  3  0  0  0  0  0  0
  -22.3780   -8.0550   21.3940 C   0  0  0  0  0  0  0  0  0  0  0  0
  -21.9750   -9.0090   20.4430 C   0  0  0  0  0  3  0  0  0  0  0  0
  -22.7020  -10.1990   20.2710 C   0  0  0  0  0  3  0  0  0  0  0  0
  -21.6250   -6.9080   21.4730 O   0  0  0  0  0  0  0  0  0  0  0  0
  -21.5560   -6.1710   22.6270 C   0  0  0  0  0  0  0  0  0  0  0  0
  -21.0980   -6.7290   23.8420 C   0  0  0  0  0  3  0  0  0  0  0  0
  -20.9770   -5.9170   24.9870 C   0  0  0  0  0  3  0  0  0  0  0  0
  -21.3050   -4.5490   24.9200 C   0  0  0  0  0  0  0  0  0  0  0  0
  -21.7550   -3.9910   23.7110 C   0  0  0  0  0  3  0  0  0  0  0  0
  -21.8770   -4.8000   22.5670 C   0  0  0  0  0  0  0  0  0  0  0  0
  -22.2920   -4.2540   21.4000 F   0  0  0  0  0  0  0  0  0  0  0  0
  -21.1810   -3.7680   26.0180 F   0  0  0  0  0  0  0  0  0  0  0  0
  -22.7020  -13.5490   21.1530 C   0  0  0  0  0  0  0  0  0  0  0  0
  -21.9660  -12.8490   22.0070 N   0  0  0  0  0  0  0  0  0  0  0  0
  -22.2700  -14.5760   20.6310 O   0  0  0  0  0  0  0  0  0  0  0  0
  -22.3280  -12.0180   22.4520 H   0  0  0  0  0  0  0  0  0  0  0  0
  -21.0240  -13.1480   22.2220 H   0  0  0  0  0  0  0  0  0  0  0  0
  -25.3340  -15.2220   20.3640 N   0  0  0  0  0  0  0  0  0  0  0  0
  -24.5630  -15.8710   20.4710 H   0  0  0  0  0  0  0  0  0  0  0  0
  -26.1770  -15.6640   20.0220 H   0  0  0  0  0  0  0  0  0  0  0  0
  -28.7130  -22.2240   19.7940 C   0  0  0  0  0  2  0  0  0  0  0  0
  -28.8490  -23.6710   20.5410 C   0  0  0  0  0  3  0  0  0  0  0  0
  -31.2320  -23.2260   21.4930 C   0  0  0  0  0  1  0  0  0  0  0  0
  -30.3280  -24.1100   20.6200 C   0  0  0  0  0  2  0  0  0  0  0  0
  -27.9880  -24.8970   19.8950 C   0  0  0  0  0  2  0  0  0  0  0  0
  -28.1760  -26.3570   20.2360 O   0  0  0  0  0  0  0  0  0  0  0  0
  -24.5620  -31.9030   23.2280 C   0  0  0  0  0  0  0  0  0  0  0  0
  -27.0890  -27.2670   20.1560 C   0  0  0  0  0  0  0  0  0  0  0  0
  -23.3290  -30.5140   21.6040 C   0  0  0  0  0  3  0  0  0  0  0  0
  -24.7500  -28.9480   20.1590 C   0  0  0  0  0  0  0  0  0  0  0  0
  -25.8740  -30.7930   21.3990 C   0  0  0  0  0  2  0  0  0  0  0  0
  -25.9320  -29.4090   20.7520 C   0  0  0  0  0  0  0  0  0  0  0  0
  -27.1010  -28.5800   20.7440 C   0  0  0  0  0  3  0  0  0  0  0  0
  -25.8880  -26.8900   19.5100 C   0  0  0  0  0  3  0  0  0  0  0  0
  -24.7350  -27.6970   19.5260 C   0  0  0  0  0  3  0  0  0  0  0  0
  -23.5250  -29.8380   20.2220 C   0  0  0  0  0  2  0  0  0  0  0  0
  -24.6090  -31.0880   22.1330 N   0  0  0  0  0  0  0  0  0  0  0  0
  -23.4860  -32.1920   23.7730 O   0  0  0  0  0  0  0  0  0  0  0  0
  -22.6650  -29.5050   22.5730 C   0  0  0  0  0  0  0  0  0  0  0  0
  -21.3380  -29.3340   22.4560 N   0  0  0  0  0  0  0  0  0  0  0  0
  -23.3450  -28.8800   23.3900 O   0  0  0  0  0  0  0  0  0  0  0  0
  -20.8480  -29.8920   21.7710 H   0  0  0  0  0  0  0  0  0  0  0  0
  -17.9590  -28.1430   22.9740 C   0  0  0  0  0  0  0  0  0  0  0  0
  -20.5190  -28.4040   23.2370 C   0  0  0  0  0  3  0  0  0  0  0  0
  -20.6180  -26.9670   22.6750 C   0  0  0  0  0  2  0  0  0  0  0  0
  -19.5140  -26.6360   21.6660 C   0  0  0  0  0  2  0  0  0  0  0  0
  -18.1330  -26.7880   22.3100 C   0  0  0  0  0  2  0  0  0  0  0  0
  -19.0790  -28.9080   23.3950 C   0  0  0  0  0  0  0  0  0  0  0  0
  -18.8620  -30.1760   23.9770 C   0  0  0  0  0  3  0  0  0  0  0  0
  -17.5570  -30.6790   24.1430 C   0  0  0  0  0  3  0  0  0  0  0  0
  -16.4520  -29.9110   23.7380 C   0  0  0  0  0  3  0  0  0  0  0  0
  -16.6540  -28.6450   23.1590 C   0  0  0  0  0  3  0  0  0  0  0  0
  -25.8550  -32.5280   23.8360 C   0  0  0  0  0  3  0  0  0  0  0  0
  -26.3770  -31.7560   25.1110 C   0  0  1  0  0  0  0  0  0  0  0  0
  -25.2920  -31.5320   26.1910 C   0  0  0  0  0  1  0  0  0  0  0  0
  -26.9420  -30.3710   24.7190 C   0  0  0  0  0  1  0  0  0  0  0  0
  -27.5410  -32.5420   25.7590 C   0  0  0  0  0  1  0  0  0  0  0  0
  -25.5600  -33.9290   24.1670 N   0  0  0  0  0  0  0  0  0  0  0  0
  -25.9010  -34.9800   23.4100 C   0  0  0  0  0  0  0  0  0  0  0  0
  -26.5650  -34.8700   22.3760 O   0  0  0  0  0  0  0  0  0  0  0  0
  -24.9710  -34.0890   24.9710 H   0  0  0  0  0  0  0  0  0  0  0  0
  -24.1970  -36.7990   23.0580 C   0  0  0  0  0  1  0  0  0  0  0  0
  -25.4300  -36.3730   23.8710 C   0  0  0  0  0  3  0  0  0  0  0  0
  -27.5740  -37.2290   24.7130 C   0  0  0  0  0  1  0  0  0  0  0  0
  -26.4770  -37.4140   23.7650 N   0  0  0  0  0  0  0  0  0  0  0  0
  -26.0820  -38.3390   23.9140 H   0  0  0  0  0  0  0  0  0  0  0  0
  1  2  1  0
  2  6  2  0
  2 20  1  0
  3  4  2  0
  4  8  1  0
  4  6  1  0
  5  3  1  0
  5  1  2  0
  7  9  1  0
  7  3  1  0
  8 11  1  0
 10  7  1  0
 12 20  1  0
 13 18  1  0
 14 15  1  0
 14 13  1  0
 16 15  1  0
 16 25  1  0
 16 17  1  0
 18 12  1  0
 18 17  1  0
 19 12  2  0
 20 21  1  0
 22 23  2  0
 23 42  1  0
 24 23  1  0
 24 27  1  0
 25 22  1  0
 25 26  1  0
 26 24  2  0
 27 28  1  0
 28 29  2  0
 30 33  1  0
 30 29  1  0
 31 30  2  0
 32 31  1  0
 32 27  2  0
 33 34  1  0
 34 35  1  0
 35 36  2  0
 37 36  1  0
 37 41  1  0
 38 37  2  0
 39 34  2  0
 39 38  1  0
 40 39  1  0
 42 43  1  0
 43 46  1  0
 43 45  1  0
 44 42  2  0
 47 48  1  0
 47 22  1  0
 49 47  1  0
 50  8  1  0
 51 50  1  0
 51 53  1  0
 53 52  1  0
 54 55  1  0
 54 51  1  0
 56 67  2  0
 57 55  1  0
 57 62  1  0
 58 66  1  0
 58 68  1  0
 59 65  1  0
 59 61  1  0
 60 66  1  0
 61 60  1  0
 62 61  2  0
 63 64  1  0
 63 57  2  0
 64 59  2  0
 65 58  1  0
 66 56  1  0
 68 70  2  0
 69 68  1  0
 71 69  1  0
 72 81  2  0
 72 77  1  0
 73 69  1  0
 73 77  1  0
 74 73  1  0
 75 76  1  0
 75 74  1  0
 76 72  1  0
 77 78  2  0
 78 79  1  0
 80 79  2  0
 81 80  1  0
 82 56  1  0
 82 87  1  0
 82 83  1  0
 83 86  1  1
 83 84  1  0
 85 83  1  0
 87 90  1  0
 88 92  1  0
 88 87  1  0
 89 88  2  0
 92 91  1  0
 94 92  1  0
 94 95  1  0
 94 93  1  0
M  ISO  4  12 100  20 100  54 101  55 101
M  END
>  <TORSDO>  (37) 
F 20

>  <SCORE>  (37) 
-13.667

>  <name>  (37) 
36

>  <ligand_id>  (37) 
36

>  <original_smiles>  (37) 
[H]c1nc(N([H])[H])c(N([H])C([H])([H])C([H])(C([H])([H])Oc2c([H])c([H])c3c(c2[H])C([H])([H])N(C(=O)C([H])(N([H])C(=O)C([H])(N([H])C([H])([H])[H])C([H])([H])[H])C(C([H])([H])[H])(C([H])([H])[H])C([H])([H])[H])C([H])(C(=O)N([H])C2([H])c4c([H])c([H])c([H])c([H])c4C([H])([H])C([H])([H])C2([H])[H])C3([H])[H])C([H])([H])C([H])([H])[H])nc1N([H])C(=O)N1C([H])([H])C([H])([H])C([H])([H])C([H])(n2nc(-c3c([H])c([H])c(Oc4c([H])c([H])c(F)c([H])c4F)c([H])c3[H])c(C(=O)N([H])[H])c2N([H])[H])C1([H])[H]

>  <smiles>  (37) 
[H]c1nc(N([H])[H])c(N([H])C([H])([H])C([H])(C([H])([H])Oc2c([H])c([H])c3c(c2[H])C([H])([H])N(C(=O)C([H])(N([H])C(=O)C([H])(N([H])C([H])([H])[H])C([H])([H])[H])C(C([H])([H])[H])(C([H])([H])[H])C([H])([H])[H])C([H])(C(=O)N([H])C2([H])c4c([H])c([H])c([H])c([H])c4C([H])([H])C([H])([H])C2([H])[H])C3([H])[H])C([H])([H])C([H])([H])[H])nc1N([H])C(=O)N1C([H])([H])C([H])([H])C([H])([H])C([H])(n2nc(-c3c([H])c([H])c(Oc4c([H])c([H])c(F)c([H])c4F)c([H])c3[H])c(C(=O)N([H])[H])c2N([H])[H])C1([H])[H]

$$$$
37:0:0
     RDKit          3D

100108  0  0  1  0  0  0  0  0999 V2000
  -29.3190  -21.4340   20.5220 C   0  0  0  0  0  3  0  0  0  0  0  0
  -30.5380  -14.5940   20.3310 C   0  0  0  0  0  0  0  0  0  0  0  0
  -30.2910  -12.3630   19.3070 C   0  0  0  0  0  2  0  0  0  0  0  0
  -29.3460  -12.5400   18.1000 C   0  0  0  0  0  2  0  0  0  0  0  0
  -27.8750  -12.3980   18.5410 C   0  0  0  0  0  2  0  0  0  0  0  0
  -27.5340  -13.2450   19.7970 C   0  0  0  0  0  3  0  0  0  0  0  0
  -28.6040  -13.0770   20.9010 C   0  0  0  0  0  2  0  0  0  0  0  0
  -29.9160  -13.3760   20.3100 N   0  0  0  0  0  0  0  0  0  0  0  0
  -31.7040  -14.7290   19.9390 O   0  0  0  0  0  0  0  0  0  0  0  0
  -29.1160  -17.7630   17.8660 C   0  0  0  0  0  3  0  0  0  0  0  0
  -28.7160  -18.9740   18.4610 C   0  0  0  0  0  0  0  0  0  0  0  0
  -28.8170  -19.0380   19.8610 C   0  0  0  0  0  0  0  0  0  0  0  0
  -29.5220  -16.8240   19.9240 C   0  0  0  0  0  0  0  0  0  0  0  0
  -29.5010  -16.7030   18.5960 N   0  0  0  0  0  0  0  0  0  0  0  0
  -29.1960  -17.9550   20.5850 N   0  0  0  0  0  0  0  0  0  0  0  0
  -28.4550  -20.2280   20.5340 N   0  0  0  0  0  0  0  0  0  0  0  0
  -29.7650  -15.6660   20.6600 N   0  0  0  0  0  0  0  0  0  0  0  0
  -27.6480  -20.6310   20.0520 H   0  0  0  0  0  0  0  0  0  0  0  0
  -29.0280  -15.4530   21.3140 H   0  0  0  0  0  0  0  0  0  0  0  0
  -25.1530  -13.8370   20.5660 C   0  0  0  0  0  0  0  0  0  0  0  0
  -24.0930  -13.0590   20.9440 C   0  0  0  0  0  0  0  0  0  0  0  0
  -24.5500  -11.7080   20.8850 C   0  0  0  0  0  0  0  0  0  0  0  0
  -26.1920  -12.9580   20.2980 N   0  0  0  0  0  0  0  0  0  0  0  0
  -25.8350  -11.6720   20.5490 N   0  0  0  0  0  0  0  0  0  0  0  0
  -23.8220  -10.4430   21.0620 C   0  0  0  0  0  0  0  0  0  0  0  0
  -24.2510   -9.4710   21.9940 C   0  0  0  0  0  3  0  0  0  0  0  0
  -23.5230   -8.2730   22.1640 C   0  0  0  0  0  3  0  0  0  0  0  0
  -22.3520   -8.0390   21.4020 C   0  0  0  0  0  0  0  0  0  0  0  0
  -21.9420   -9.0010   20.4630 C   0  0  0  0  0  3  0  0  0  0  0  0
  -22.6700  -10.1900   20.2900 C   0  0  0  0  0  3  0  0  0  0  0  0
  -21.5940   -6.8960   21.4830 O   0  0  0  0  0  0  0  0  0  0  0  0
  -21.5290   -6.1540   22.6370 C   0  0  0  0  0  0  0  0  0  0  0  0
  -21.0370   -6.6940   23.8440 C   0  0  0  0  0  3  0  0  0  0  0  0
  -20.9220   -5.8780   24.9880 C   0  0  0  0  0  3  0  0  0  0  0  0
  -21.2900   -4.5200   24.9230 C   0  0  0  0  0  0  0  0  0  0  0  0
  -21.7740   -3.9770   23.7190 C   0  0  0  0  0  3  0  0  0  0  0  0
  -21.8910   -4.7920   22.5800 C   0  0  0  0  0  0  0  0  0  0  0  0
  -22.3400   -4.2590   21.4170 F   0  0  0  0  0  0  0  0  0  0  0  0
  -21.1740   -3.7340   26.0200 F   0  0  0  0  0  0  0  0  0  0  0  0
  -22.7020  -13.5330   21.2500 C   0  0  0  0  0  0  0  0  0  0  0  0
  -21.9740  -12.8180   22.1010 N   0  0  0  0  0  0  0  0  0  0  0  0
  -22.2650  -14.5740   20.7630 O   0  0  0  0  0  0  0  0  0  0  0  0
  -22.3340  -11.9740   22.5240 H   0  0  0  0  0  0  0  0  0  0  0  0
  -21.0410  -13.1260   22.3390 H   0  0  0  0  0  0  0  0  0  0  0  0
  -25.3190  -15.2100   20.4100 N   0  0  0  0  0  0  0  0  0  0  0  0
  -24.5530  -15.8610   20.5380 H   0  0  0  0  0  0  0  0  0  0  0  0
  -26.1490  -15.6440   20.0310 H   0  0  0  0  0  0  0  0  0  0  0  0
  -28.2180  -20.0370   17.7010 N   0  0  0  0  0  0  0  0  0  0  0  0
  -27.8320  -19.8310   16.7850 H   0  0  0  0  0  0  0  0  0  0  0  0
  -27.7140  -20.7760   18.1960 H   0  0  0  0  0  0  0  0  0  0  0  0
  -30.7530  -21.1680   19.9740 C   0  0  0  0  0  2  0  0  0  0  0  0
  -32.1510  -22.5700   21.6050 C   0  0  0  0  0  1  0  0  0  0  0  0
  -33.0320  -22.0450   19.3100 C   0  0  0  0  0  1  0  0  0  0  0  0
  -31.7700  -22.3180   20.1390 C   0  0  0  0  0  3  0  0  0  0  0  0
  -28.5930  -22.6480   19.7990 C   0  0  0  0  0  3  0  0  0  0  0  0
  -27.2420  -22.2680   19.5350 O   0  0  0  0  0  0  0  0  0  0  0  0
  -26.8030  -22.9990   19.1110 H   0  0  0  0  0  0  0  0  0  0  0  0
  -28.5880  -24.0390   20.5420 C   0  0  0  0  0  3  0  0  0  0  0  0
  -28.4030  -25.2970   19.6160 C   0  0  0  0  0  3  0  0  0  0  0  0
  -28.2970  -26.6080   20.2630 O   0  0  0  0  0  0  0  0  0  0  0  0
  -24.5320  -31.9350   23.2500 C   0  0  0  0  0  0  0  0  0  0  0  0
  -27.1320  -27.3790   20.2130 C   0  0  0  0  0  0  0  0  0  0  0  0
  -23.3270  -30.5360   21.6150 C   0  0  0  0  0  3  0  0  0  0  0  0
  -24.7680  -28.9780   20.1980 C   0  0  0  0  0  0  0  0  0  0  0  0
  -25.8660  -30.8390   21.4480 C   0  0  0  0  0  2  0  0  0  0  0  0
  -25.9310  -29.4630   20.8060 C   0  0  0  0  0  0  0  0  0  0  0  0
  -27.1090  -28.6670   20.8180 C   0  0  0  0  0  3  0  0  0  0  0  0
  -25.9400  -26.9340   19.5920 C   0  0  0  0  0  3  0  0  0  0  0  0
  -24.7740  -27.7210   19.5800 C   0  0  0  0  0  3  0  0  0  0  0  0
  -23.5380  -29.8600   20.2340 C   0  0  0  0  0  2  0  0  0  0  0  0
  -24.5930  -31.1190   22.1610 N   0  0  0  0  0  0  0  0  0  0  0  0
  -23.4480  -32.2250   23.7780 O   0  0  0  0  0  0  0  0  0  0  0  0
  -22.6580  -29.5220   22.5730 C   0  0  0  0  0  0  0  0  0  0  0  0
  -21.3320  -29.3530   22.4350 N   0  0  0  0  0  0  0  0  0  0  0  0
  -23.3280  -28.8970   23.3990 O   0  0  0  0  0  0  0  0  0  0  0  0
  -20.8540  -29.9070   21.7390 H   0  0  0  0  0  0  0  0  0  0  0  0
  -17.9380  -28.2230   22.9510 C   0  0  0  0  0  0  0  0  0  0  0  0
  -20.5020  -28.4300   23.2090 C   0  0  0  0  0  3  0  0  0  0  0  0
  -20.5730  -27.0010   22.6240 C   0  0  0  0  0  2  0  0  0  0  0  0
  -19.4580  -26.7020   21.6180 C   0  0  0  0  0  2  0  0  0  0  0  0
  -18.0840  -26.8730   22.2710 C   0  0  0  0  0  2  0  0  0  0  0  0
  -19.0740  -28.9610   23.3780 C   0  0  0  0  0  0  0  0  0  0  0  0
  -18.8840  -30.2260   23.9760 C   0  0  0  0  0  3  0  0  0  0  0  0
  -17.5900  -30.7530   24.1500 C   0  0  0  0  0  3  0  0  0  0  0  0
  -16.4690  -30.0110   23.7410 C   0  0  0  0  0  3  0  0  0  0  0  0
  -16.6440  -28.7500   23.1460 C   0  0  0  0  0  3  0  0  0  0  0  0
  -25.8170  -32.5630   23.8730 C   0  0  0  0  0  3  0  0  0  0  0  0
  -25.5190  -33.9670   24.1800 N   0  0  0  0  0  0  0  0  0  0  0  0
  -25.8710  -35.0070   23.4130 C   0  0  0  0  0  0  0  0  0  0  0  0
  -26.5520  -34.8830   22.3900 O   0  0  0  0  0  0  0  0  0  0  0  0
  -24.9140  -34.1380   24.9700 H   0  0  0  0  0  0  0  0  0  0  0  0
  -24.1790  -36.8180   22.9990 C   0  0  0  0  0  1  0  0  0  0  0  0
  -25.3930  -36.4050   23.8480 C   0  0  0  0  0  3  0  0  0  0  0  0
  -27.5110  -37.2660   24.7390 C   0  0  0  0  0  1  0  0  0  0  0  0
  -26.4430  -37.4430   23.7590 N   0  0  0  0  0  0  0  0  0  0  0  0
  -26.0460  -38.3690   23.8870 H   0  0  0  0  0  0  0  0  0  0  0  0
  -26.3130  -31.8050   25.1670 C   0  0  1  0  0  0  0  0  0  0  0  0
  -25.2010  -31.5870   26.2210 C   0  0  0  0  0  1  0  0  0  0  0  0
  -26.8910  -30.4200   24.7990 C   0  0  0  0  0  1  0  0  0  0  0  0
  -27.4650  -32.5980   25.8270 C   0  0  0  0  0  1  0  0  0  0  0  0
  1 51  1  0
  1 16  1  0
  2 17  1  0
  3  8  1  0
  4  5  1  0
  4  3  1  0
  6  5  1  0
  6 23  1  0
  6  7  1  0
  8  2  1  0
  8  7  1  0
  9  2  2  0
 10 11  2  0
 10 14  1  0
 11 12  1  0
 12 16  1  0
 12 15  2  0
 13 15  1  0
 13 17  1  0
 14 13  2  0
 17 19  1  0
 18 16  1  0
 20 21  2  0
 21 40  1  0
 22 21  1  0
 22 25  1  0
 23 24  1  0
 23 20  1  0
 24 22  2  0
 25 26  1  0
 26 27  2  0
 28 31  1  0
 28 27  1  0
 29 28  2  0
 30 29  1  0
 30 25  2  0
 31 32  1  0
 32 33  1  0
 33 34  2  0
 35 34  1  0
 35 39  1  0
 36 35  2  0
 37 32  2  0
 37 36  1  0
 38 37  1  0
 40 41  1  0
 41 44  1  0
 41 43  1  0
 42 40  2  0
 45 46  1  0
 45 20  1  0
 47 45  1  0
 48 50  1  0
 48 11  1  0
 49 48  1  0
 51 54  1  0
 53 54  1  0
 54 52  1  0
 55  1  1  0
 55 58  1  0
 56 55  1  0
 57 56  1  0
 59 60  1  0
 59 58  2  0
 61 72  2  0
 62 60  1  0
 62 67  1  0
 63 71  1  0
 63 73  1  0
 64 70  1  0
 64 66  1  0
 65 71  1  0
 66 67  2  0
 66 65  1  0
 68 62  2  0
 69 68  1  0
 69 64  2  0
 70 63  1  0
 71 61  1  0
 73 75  2  0
 74 73  1  0
 76 74  1  0
 77 86  2  0
 77 82  1  0
 78 74  1  0
 78 82  1  0
 79 78  1  0
 80 81  1  0
 80 79  1  0
 81 77  1  0
 82 83  2  0
 83 84  1  0
 85 84  2  0
 86 85  1  0
 87 61  1  0
 87 88  1  0
 87 97  1  0
 88 91  1  0
 89 93  1  0
 89 88  1  0
 90 89  2  0
 93 92  1  0
 95 93  1  0
 95 96  1  0
 95 94  1  0
 97100  1  1
 97 98  1  0
 99 97  1  0
M  ISO  4   2 100  17 100  59 101  60 101
M  END
>  <TORSDO>  (38) 
F 23

>  <SCORE>  (38) 
-12.637

>  <name>  (38) 
37

>  <ligand_id>  (38) 
37

>  <original_smiles>  (38) 
[H]OC([H])(C([H])([H])C([H])([H])Oc1c([H])c([H])c2c(c1[H])C([H])([H])N(C(=O)C([H])(N([H])C(=O)C([H])(N([H])C([H])([H])[H])C([H])([H])[H])C(C([H])([H])[H])(C([H])([H])[H])C([H])([H])[H])C([H])(C(=O)N([H])C1([H])c3c([H])c([H])c([H])c([H])c3C([H])([H])C([H])([H])C1([H])[H])C2([H])[H])C([H])(N([H])c1nc(N([H])C(=O)N2C([H])([H])C([H])([H])C([H])([H])C([H])(n3nc(-c4c([H])c([H])c(Oc5c([H])c([H])c(F)c([H])c5F)c([H])c4[H])c(C(=O)N([H])[H])c3N([H])[H])C2([H])[H])nc([H])c1N([H])[H])C([H])([H])C([H])(C([H])([H])[H])C([H])([H])[H]

>  <smiles>  (38) 
[H]OC([H])(C([H])([H])C([H])([H])Oc1c([H])c([H])c2c(c1[H])C([H])([H])N(C(=O)C([H])(N([H])C(=O)C([H])(N([H])C([H])([H])[H])C([H])([H])[H])C(C([H])([H])[H])(C([H])([H])[H])C([H])([H])[H])C([H])(C(=O)N([H])C1([H])c3c([H])c([H])c([H])c([H])c3C([H])([H])C([H])([H])C1([H])[H])C2([H])[H])C([H])(N([H])c1nc(N([H])C(=O)N2C([H])([H])C([H])([H])C([H])([H])C([H])(n3nc(-c4c([H])c([H])c(Oc5c([H])c([H])c(F)c([H])c5F)c([H])c4[H])c(C(=O)N([H])[H])c3N([H])[H])C2([H])[H])nc([H])c1N([H])[H])C([H])([H])C([H])(C([H])([H])[H])C([H])([H])[H]

$$$$
38:0:0
     RDKit          3D

 98106  0  0  1  0  0  0  0  0999 V2000
  -29.0190  -21.3890   19.8720 C   0  0  0  0  0  0  0  0  0  0  0  0
  -28.0670  -21.1880   18.9430 N   0  0  0  0  0  4  0  0  0  0  0  0
  -29.3740  -22.6720   20.2510 N   0  0  0  0  0  0  0  0  0  0  0  0
  -27.5820  -21.9410   18.4850 H   0  0  0  0  0  0  0  0  0  0  0  0
  -27.7720  -20.2420   18.7460 H   0  0  0  0  0  0  0  0  0  0  0  0
  -30.0150  -22.7120   21.0340 H   0  0  0  0  0  0  0  0  0  0  0  0
  -28.8610  -17.9470   21.1200 C   0  0  0  0  0  3  0  0  0  0  0  0
  -30.5690  -19.2680   19.5000 C   0  0  0  0  0  3  0  0  0  0  0  0
  -30.1310  -17.1520   20.7450 C   0  0  0  0  0  3  0  0  0  0  0  0
  -29.6780  -20.0910   20.4530 C   0  0  0  0  0  3  0  0  0  0  0  0
  -28.6280  -19.2060   20.9700 N   0  0  0  0  0  0  0  0  0  0  0  0
  -30.7310  -17.9160   19.6310 N   0  0  0  0  0  0  0  0  0  0  0  0
  -31.2100  -19.9050   18.5030 N   0  0  0  0  0  0  0  0  0  0  0  0
  -31.3670  -17.4150   19.0320 H   0  0  0  0  0  0  0  0  0  0  0  0
  -31.1100  -20.9040   18.3860 H   0  0  0  0  0  0  0  0  0  0  0  0
  -31.8150  -19.4380   17.8460 H   0  0  0  0  0  0  0  0  0  0  0  0
  -30.6240  -14.6560   20.0540 C   0  0  0  0  0  0  0  0  0  0  0  0
  -30.3360  -12.4630   18.9140 C   0  0  0  0  0  2  0  0  0  0  0  0
  -29.3090  -12.6130   17.7670 C   0  0  0  0  0  2  0  0  0  0  0  0
  -27.8650  -12.4570   18.2860 C   0  0  0  0  0  2  0  0  0  0  0  0
  -27.5930  -13.2800   19.5720 C   0  0  0  0  0  3  0  0  0  0  0  0
  -28.7210  -13.0910   20.6120 C   0  0  0  0  0  2  0  0  0  0  0  0
  -29.9890  -13.4480   19.9570 N   0  0  0  0  0  0  0  0  0  0  0  0
  -31.7740  -14.8240   19.6410 O   0  0  0  0  0  0  0  0  0  0  0  0
  -29.8410  -15.7060   20.4350 N   0  0  0  0  0  0  0  0  0  0  0  0
  -28.9080  -15.4210   20.6870 H   0  0  0  0  0  0  0  0  0  0  0  0
  -25.2510  -13.8710   20.4530 C   0  0  0  0  0  0  0  0  0  0  0  0
  -24.2060  -13.0930   20.8680 C   0  0  0  0  0  0  0  0  0  0  0  0
  -24.6570  -11.7420   20.7690 C   0  0  0  0  0  0  0  0  0  0  0  0
  -26.2740  -12.9920   20.1290 N   0  0  0  0  0  0  0  0  0  0  0  0
  -25.9250  -11.7040   20.3800 N   0  0  0  0  0  0  0  0  0  0  0  0
  -23.9330  -10.4790   20.9670 C   0  0  0  0  0  0  0  0  0  0  0  0
  -24.3900   -9.5070   21.8850 C   0  0  0  0  0  3  0  0  0  0  0  0
  -23.6710   -8.3060   22.0710 C   0  0  0  0  0  3  0  0  0  0  0  0
  -22.4810   -8.0710   21.3410 C   0  0  0  0  0  0  0  0  0  0  0  0
  -22.0450   -9.0320   20.4120 C   0  0  0  0  0  3  0  0  0  0  0  0
  -22.7640  -10.2240   20.2230 C   0  0  0  0  0  3  0  0  0  0  0  0
  -21.7310   -6.9250   21.4400 O   0  0  0  0  0  0  0  0  0  0  0  0
  -21.6740   -6.1990   22.6030 C   0  0  0  0  0  0  0  0  0  0  0  0
  -21.2150   -6.7650   23.8150 C   0  0  0  0  0  3  0  0  0  0  0  0
  -21.1060   -5.9640   24.9690 C   0  0  0  0  0  3  0  0  0  0  0  0
  -21.4470   -4.5990   24.9140 C   0  0  0  0  0  0  0  0  0  0  0  0
  -21.9010   -4.0340   23.7100 C   0  0  0  0  0  3  0  0  0  0  0  0
  -22.0100   -4.8320   22.5570 C   0  0  0  0  0  0  0  0  0  0  0  0
  -22.4260   -4.2780   21.3940 F   0  0  0  0  0  0  0  0  0  0  0  0
  -21.3350   -3.8260   26.0200 F   0  0  0  0  0  0  0  0  0  0  0  0
  -22.8300  -13.5700   21.2360 C   0  0  0  0  0  0  0  0  0  0  0  0
  -22.1490  -12.8500   22.1220 N   0  0  0  0  0  0  0  0  0  0  0  0
  -22.3670  -14.6090   20.7700 O   0  0  0  0  0  0  0  0  0  0  0  0
  -22.5360  -12.0080   22.5190 H   0  0  0  0  0  0  0  0  0  0  0  0
  -21.2280  -13.1460   22.4060 H   0  0  0  0  0  0  0  0  0  0  0  0
  -25.4100  -15.2450   20.2990 N   0  0  0  0  0  0  0  0  0  0  0  0
  -24.6450  -15.8850   20.4910 H   0  0  0  0  0  0  0  0  0  0  0  0
  -26.1690  -15.6780   19.7900 H   0  0  0  0  0  0  0  0  0  0  0  0
  -28.5840  -24.0360   18.2230 C   0  0  0  0  0  1  0  0  0  0  0  0
  -29.0860  -24.0600   19.6740 C   0  0  0  0  0  3  0  0  0  0  0  0
  -28.2800  -25.1040   20.5540 C   0  0  0  0  0  2  0  0  0  0  0  0
  -28.4380  -26.5370   20.2120 O   0  0  0  0  0  0  0  0  0  0  0  0
  -24.5790  -31.8570   23.1650 C   0  0  0  0  0  0  0  0  0  0  0  0
  -27.2980  -27.3450   20.1700 C   0  0  0  0  0  0  0  0  0  0  0  0
  -23.4190  -30.4450   21.5040 C   0  0  0  0  0  3  0  0  0  0  0  0
  -24.9120  -28.9090   20.1080 C   0  0  0  0  0  0  0  0  0  0  0  0
  -25.9550  -30.8000   21.3600 C   0  0  0  0  0  2  0  0  0  0  0  0
  -26.0630  -29.4220   20.7220 C   0  0  0  0  0  0  0  0  0  0  0  0
  -27.2600  -28.6520   20.7400 C   0  0  0  0  0  3  0  0  0  0  0  0
  -26.1330  -26.8810   19.5240 C   0  0  0  0  0  3  0  0  0  0  0  0
  -24.9490  -27.6460   19.4970 C   0  0  0  0  0  3  0  0  0  0  0  0
  -23.6640  -29.7670   20.1310 C   0  0  0  0  0  2  0  0  0  0  0  0
  -24.6690  -31.0510   22.0680 N   0  0  0  0  0  0  0  0  0  0  0  0
  -23.4830  -32.1200   23.6820 O   0  0  0  0  0  0  0  0  0  0  0  0
  -22.7510  -29.4210   22.4530 C   0  0  0  0  0  0  0  0  0  0  0  0
  -21.4220  -29.2570   22.3280 N   0  0  0  0  0  0  0  0  0  0  0  0
  -23.4260  -28.7790   23.2610 O   0  0  0  0  0  0  0  0  0  0  0  0
  -20.9370  -29.8260   21.6490 H   0  0  0  0  0  0  0  0  0  0  0  0
  -18.0320  -28.1180   22.8430 C   0  0  0  0  0  0  0  0  0  0  0  0
  -20.5980  -28.3170   23.0870 C   0  0  0  0  0  3  0  0  0  0  0  0
  -20.6630  -26.8990   22.4770 C   0  0  0  0  0  2  0  0  0  0  0  0
  -19.5430  -26.6220   21.4720 C   0  0  0  0  0  2  0  0  0  0  0  0
  -18.1720  -26.7810   22.1360 C   0  0  0  0  0  2  0  0  0  0  0  0
  -19.1720  -28.8460   23.2770 C   0  0  0  0  0  0  0  0  0  0  0  0
  -18.9860  -30.1000   23.8990 C   0  0  0  0  0  3  0  0  0  0  0  0
  -17.6940  -30.6240   24.0940 C   0  0  0  0  0  3  0  0  0  0  0  0
  -16.5690  -29.8900   23.6780 C   0  0  0  0  0  3  0  0  0  0  0  0
  -16.7390  -28.6380   23.0590 C   0  0  0  0  0  3  0  0  0  0  0  0
  -25.8430  -32.5050   23.8090 C   0  0  0  0  0  3  0  0  0  0  0  0
  -26.3520  -31.7310   25.0880 C   0  0  1  0  0  0  0  0  0  0  0  0
  -25.2470  -31.4690   26.1360 C   0  0  0  0  0  1  0  0  0  0  0  0
  -26.9620  -30.3660   24.6920 C   0  0  0  0  0  1  0  0  0  0  0  0
  -27.4820  -32.5370   25.7720 C   0  0  0  0  0  1  0  0  0  0  0  0
  -25.5100  -33.8980   24.1450 N   0  0  0  0  0  0  0  0  0  0  0  0
  -25.8340  -34.9590   23.3940 C   0  0  0  0  0  0  0  0  0  0  0  0
  -26.5160  -34.8710   22.3690 O   0  0  0  0  0  0  0  0  0  0  0  0
  -24.9080  -34.0370   24.9420 H   0  0  0  0  0  0  0  0  0  0  0  0
  -24.0860  -36.7300   23.0280 C   0  0  0  0  0  1  0  0  0  0  0  0
  -25.3230  -36.3380   23.8530 C   0  0  0  0  0  3  0  0  0  0  0  0
  -27.4320  -37.2490   24.7210 C   0  0  0  0  0  1  0  0  0  0  0  0
  -26.3430  -37.4060   23.7610 N   0  0  0  0  0  0  0  0  0  0  0  0
  -25.9220  -38.3200   23.9060 H   0  0  0  0  0  0  0  0  0  0  0  0
  1  3  1  0
  2  1  2  0
  3  6  1  0
  4  2  1  0
  5  2  1  0
  8 13  1  0
  8 12  1  0
  8 10  1  0
  9 25  1  0
  9  7  1  0
 10  1  1  0
 10 11  1  0
 11  7  2  0
 12  9  1  0
 14 12  1  0
 15 13  1  0
 16 13  1  0
 17 25  1  0
 18 23  1  0
 19 20  1  0
 19 18  1  0
 21 20  1  0
 21 30  1  0
 21 22  1  0
 23 17  1  0
 23 22  1  0
 24 17  2  0
 25 26  1  0
 27 28  2  0
 28 47  1  0
 29 28  1  0
 29 32  1  0
 30 31  1  0
 30 27  1  0
 31 29  2  0
 32 33  1  0
 33 34  2  0
 35 38  1  0
 35 34  1  0
 36 35  2  0
 37 36  1  0
 37 32  2  0
 38 39  1  0
 39 40  1  0
 40 41  2  0
 42 41  1  0
 42 46  1  0
 43 42  2  0
 44 39  2  0
 44 43  1  0
 45 44  1  0
 47 48  1  0
 48 51  1  0
 48 50  1  0
 49 47  2  0
 52 27  1  0
 52 53  1  0
 54 52  1  0
 56 55  1  0
 56  3  1  0
 56 57  1  0
 58 57  1  0
 59 70  2  0
 60 58  1  0
 60 65  1  0
 61 69  1  0
 61 71  1  0
 62 68  1  0
 62 64  1  0
 63 69  1  0
 64 65  2  0
 64 63  1  0
 66 60  2  0
 67 66  1  0
 67 62  2  0
 68 61  1  0
 69 59  1  0
 71 73  2  0
 72 71  1  0
 74 72  1  0
 75 84  2  0
 75 80  1  0
 76 72  1  0
 76 80  1  0
 77 76  1  0
 78 79  1  0
 78 77  1  0
 79 75  1  0
 80 81  2  0
 81 82  1  0
 83 82  2  0
 84 83  1  0
 85 59  1  0
 85 90  1  0
 85 86  1  0
 86 89  1  1
 86 87  1  0
 88 86  1  0
 90 93  1  0
 91 95  1  0
 91 90  1  0
 92 91  2  0
 95 94  1  0
 97 95  1  0
 97 98  1  0
 97 96  1  0
M  ISO  4  17 100  25 100  57 101  58 101
M  END
>  <TORSDO>  (39) 
F 19

>  <SCORE>  (39) 
-13.770

>  <name>  (39) 
38

>  <ligand_id>  (39) 
38

>  <original_smiles>  (39) 
[H]C1=NC([H])(C(N([H])[H])=[N+]([H])C([H])(C([H])([H])[H])C([H])([H])Oc2c([H])c([H])c3c(c2[H])C([H])([H])N(C(=O)C([H])(N([H])C(=O)C([H])(N([H])C([H])([H])[H])C([H])([H])[H])C(C([H])([H])[H])(C([H])([H])[H])C([H])([H])[H])C([H])(C(=O)N([H])C2([H])c4c([H])c([H])c([H])c([H])c4C([H])([H])C([H])([H])C2([H])[H])C3([H])[H])C(N([H])[H])=[N+]([H])C1([H])N([H])C(=O)N1C([H])([H])C([H])([H])C([H])([H])C([H])(n2nc(-c3c([H])c([H])c(Oc4c([H])c([H])c(F)c([H])c4F)c([H])c3[H])c(C(=O)N([H])[H])c2N([H])[H])C1([H])[H]

>  <smiles>  (39) 
[H]C1=NC([H])(C(N([H])[H])=[N+]([H])C([H])(C([H])([H])[H])C([H])([H])Oc2c([H])c([H])c3c(c2[H])C([H])([H])N(C(=O)C([H])(N([H])C(=O)C([H])(N([H])C([H])([H])[H])C([H])([H])[H])C(C([H])([H])[H])(C([H])([H])[H])C([H])([H])[H])C([H])(C(=O)N([H])C2([H])c4c([H])c([H])c([H])c([H])c4C([H])([H])C([H])([H])C2([H])[H])C3([H])[H])C(N([H])[H])=[N+]([H])C1([H])N([H])C(=O)N1C([H])([H])C([H])([H])C([H])([H])C([H])(n2nc(-c3c([H])c([H])c(Oc4c([H])c([H])c(F)c([H])c4F)c([H])c3[H])c(C(=O)N([H])[H])c2N([H])[H])C1([H])[H]

$$$$
39:0:0
     RDKit          3D

 93101  0  0  1  0  0  0  0  0999 V2000
  -29.2040  -20.9470   20.6760 N   0  0  0  0  0  0  0  0  0  0  0  0
  -28.8960  -20.8790   21.6400 H   0  0  0  0  0  0  0  0  0  0  0  0
  -30.5920  -14.7610   20.3820 C   0  0  0  0  0  0  0  0  0  0  0  0
  -30.3870  -12.4740   19.4090 C   0  0  0  0  0  2  0  0  0  0  0  0
  -29.4600  -12.5490   18.1750 C   0  0  0  0  0  2  0  0  0  0  0  0
  -27.9870  -12.3790   18.5960 C   0  0  0  0  0  2  0  0  0  0  0  0
  -27.6060  -13.2680   19.8090 C   0  0  0  0  0  3  0  0  0  0  0  0
  -28.6590  -13.1910   20.9370 C   0  0  0  0  0  2  0  0  0  0  0  0
  -29.9610  -13.5350   20.3530 N   0  0  0  0  0  0  0  0  0  0  0  0
  -31.7790  -14.8280   20.0460 O   0  0  0  0  0  0  0  0  0  0  0  0
  -30.5690  -17.3910   18.7890 C   0  0  0  0  0  3  0  0  0  0  0  0
  -30.2080  -19.7960   18.7600 C   0  0  0  0  0  3  0  0  0  0  0  0
  -30.6830  -18.6310   18.1430 C   0  0  0  0  0  0  0  0  0  0  0  0
  -29.9900  -17.2870   20.0710 C   0  0  0  0  0  0  0  0  0  0  0  0
  -29.6250  -19.7200   20.0340 C   0  0  0  0  0  0  0  0  0  0  0  0
  -29.5230  -18.4750   20.6580 N   0  0  0  0  0  0  0  0  0  0  0  0
  -29.8450  -15.9110   20.6250 N   0  0  0  0  0  0  0  0  0  0  0  0
  -31.2540  -18.7030   16.9170 F   0  0  0  0  0  0  0  0  0  0  0  0
  -28.9760  -15.7490   21.1080 H   0  0  0  0  0  0  0  0  0  0  0  0
  -25.2120  -13.8490   20.5230 C   0  0  0  0  0  0  0  0  0  0  0  0
  -24.1480  -13.0710   20.8920 C   0  0  0  0  0  0  0  0  0  0  0  0
  -24.6180  -11.7220   20.8680 C   0  0  0  0  0  0  0  0  0  0  0  0
  -26.2600  -12.9740   20.2950 N   0  0  0  0  0  0  0  0  0  0  0  0
  -25.9100  -11.6900   20.5650 N   0  0  0  0  0  0  0  0  0  0  0  0
  -23.8940  -10.4580   21.0600 C   0  0  0  0  0  0  0  0  0  0  0  0
  -24.3360   -9.4880   21.9870 C   0  0  0  0  0  3  0  0  0  0  0  0
  -23.6130   -8.2890   22.1680 C   0  0  0  0  0  3  0  0  0  0  0  0
  -22.4340   -8.0510   21.4210 C   0  0  0  0  0  0  0  0  0  0  0  0
  -22.0110   -9.0110   20.4840 C   0  0  0  0  0  3  0  0  0  0  0  0
  -22.7350  -10.2010   20.3010 C   0  0  0  0  0  3  0  0  0  0  0  0
  -21.6810   -6.9050   21.5120 O   0  0  0  0  0  0  0  0  0  0  0  0
  -21.6540   -6.1510   22.6570 C   0  0  0  0  0  0  0  0  0  0  0  0
  -21.2560   -6.6950   23.8980 C   0  0  0  0  0  3  0  0  0  0  0  0
  -21.1740   -5.8670   25.0350 C   0  0  0  0  0  3  0  0  0  0  0  0
  -21.4810   -4.4960   24.9340 C   0  0  0  0  0  0  0  0  0  0  0  0
  -21.8720   -3.9530   23.6970 C   0  0  0  0  0  3  0  0  0  0  0  0
  -21.9550   -4.7770   22.5620 C   0  0  0  0  0  0  0  0  0  0  0  0
  -22.3120   -4.2440   21.3690 F   0  0  0  0  0  0  0  0  0  0  0  0
  -21.3960   -3.7000   26.0250 F   0  0  0  0  0  0  0  0  0  0  0  0
  -22.7470  -13.5440   21.1540 C   0  0  0  0  0  0  0  0  0  0  0  0
  -22.0170  -12.8500   22.0190 N   0  0  0  0  0  0  0  0  0  0  0  0
  -22.3080  -14.5660   20.6250 O   0  0  0  0  0  0  0  0  0  0  0  0
  -22.3850  -12.0260   22.4700 H   0  0  0  0  0  0  0  0  0  0  0  0
  -21.0770  -13.1500   22.2360 H   0  0  0  0  0  0  0  0  0  0  0  0
  -25.3690  -15.2200   20.3400 N   0  0  0  0  0  0  0  0  0  0  0  0
  -24.5960  -15.8670   20.4440 H   0  0  0  0  0  0  0  0  0  0  0  0
  -26.2110  -15.6610   19.9920 H   0  0  0  0  0  0  0  0  0  0  0  0
  -28.6880  -22.1910   19.9660 C   0  0  0  0  0  2  0  0  0  0  0  0
  -28.8730  -23.6590   20.6350 C   0  0  0  0  0  3  0  0  0  0  0  0
  -28.4950  -23.4900   21.9930 O   0  0  0  0  0  0  0  0  0  0  0  0
  -28.6530  -24.3220   22.4310 H   0  0  0  0  0  0  0  0  0  0  0  0
  -27.9890  -24.8890   20.0420 C   0  0  0  0  0  2  0  0  0  0  0  0
  -28.2440  -26.3530   20.3110 O   0  0  0  0  0  0  0  0  0  0  0  0
  -24.5880  -31.8980   23.2500 C   0  0  0  0  0  0  0  0  0  0  0  0
  -27.1650  -27.2700   20.2160 C   0  0  0  0  0  0  0  0  0  0  0  0
  -23.3800  -30.5030   21.6130 C   0  0  0  0  0  3  0  0  0  0  0  0
  -24.8240  -28.9430   20.1850 C   0  0  0  0  0  0  0  0  0  0  0  0
  -25.9260  -30.7920   21.4390 C   0  0  0  0  0  2  0  0  0  0  0  0
  -25.9970  -29.4080   20.7930 C   0  0  0  0  0  0  0  0  0  0  0  0
  -27.1690  -28.5830   20.8000 C   0  0  0  0  0  3  0  0  0  0  0  0
  -25.9750  -26.8910   19.5530 C   0  0  0  0  0  3  0  0  0  0  0  0
  -24.8190  -27.6930   19.5520 C   0  0  0  0  0  3  0  0  0  0  0  0
  -23.5930  -29.8280   20.2330 C   0  0  0  0  0  2  0  0  0  0  0  0
  -24.6500  -31.0830   22.1570 N   0  0  0  0  0  0  0  0  0  0  0  0
  -23.5040  -32.1840   23.7810 O   0  0  0  0  0  0  0  0  0  0  0  0
  -22.7080  -29.4920   22.5730 C   0  0  0  0  0  0  0  0  0  0  0  0
  -21.3810  -29.3200   22.4440 N   0  0  0  0  0  0  0  0  0  0  0  0
  -23.3810  -28.8650   23.3960 O   0  0  0  0  0  0  0  0  0  0  0  0
  -20.8970  -29.8780   21.7550 H   0  0  0  0  0  0  0  0  0  0  0  0
  -17.9980  -28.1350   22.9400 C   0  0  0  0  0  0  0  0  0  0  0  0
  -20.5570  -28.3900   23.2170 C   0  0  0  0  0  3  0  0  0  0  0  0
  -20.6560  -26.9540   22.6510 C   0  0  0  0  0  2  0  0  0  0  0  0
  -19.5580  -26.6280   21.6340 C   0  0  0  0  0  2  0  0  0  0  0  0
  -18.1740  -26.7810   22.2720 C   0  0  0  0  0  2  0  0  0  0  0  0
  -19.1160  -28.8960   23.3690 C   0  0  0  0  0  0  0  0  0  0  0  0
  -18.8990  -30.1620   23.9550 C   0  0  0  0  0  3  0  0  0  0  0  0
  -17.5950  -30.6670   24.1140 C   0  0  0  0  0  3  0  0  0  0  0  0
  -16.4900  -29.9040   23.7000 C   0  0  0  0  0  3  0  0  0  0  0  0
  -16.6930  -28.6380   23.1190 C   0  0  0  0  0  3  0  0  0  0  0  0
  -25.8720  -32.5270   23.8730 C   0  0  0  0  0  3  0  0  0  0  0  0
  -26.3800  -31.7580   25.1540 C   0  0  1  0  0  0  0  0  0  0  0  0
  -25.2830  -31.5320   26.2210 C   0  0  0  0  0  1  0  0  0  0  0  0
  -26.9560  -30.3760   24.7710 C   0  0  0  0  0  1  0  0  0  0  0  0
  -27.5350  -32.5480   25.8140 C   0  0  0  0  0  1  0  0  0  0  0  0
  -25.5660  -33.9280   24.1990 N   0  0  0  0  0  0  0  0  0  0  0  0
  -25.9020  -34.9780   23.4370 C   0  0  0  0  0  0  0  0  0  0  0  0
  -26.5710  -34.8700   22.4060 O   0  0  0  0  0  0  0  0  0  0  0  0
  -24.9730  -34.0860   24.9990 H   0  0  0  0  0  0  0  0  0  0  0  0
  -24.1810  -36.7800   23.0840 C   0  0  0  0  0  1  0  0  0  0  0  0
  -25.4210  -36.3700   23.8940 C   0  0  0  0  0  3  0  0  0  0  0  0
  -27.5630  -37.2470   24.7180 C   0  0  0  0  0  1  0  0  0  0  0  0
  -26.4590  -37.4190   23.7760 N   0  0  0  0  0  0  0  0  0  0  0  0
  -26.0580  -38.3410   23.9220 H   0  0  0  0  0  0  0  0  0  0  0  0
  1  2  1  0
  3 17  1  0
  4  9  1  0
  5  6  1  0
  5  4  1  0
  7  6  1  0
  7 23  1  0
  7  8  1  0
  9  3  1  0
  9  8  1  0
 10  3  2  0
 11 14  1  0
 12 15  2  0
 13 12  1  0
 13 11  2  0
 14 17  1  0
 14 16  2  0
 15 16  1  0
 15  1  1  0
 17 19  1  0
 18 13  1  0
 20 21  2  0
 21 40  1  0
 22 21  1  0
 22 25  1  0
 23 20  1  0
 23 24  1  0
 24 22  2  0
 25 26  1  0
 26 27  2  0
 28 31  1  0
 28 27  1  0
 29 28  2  0
 30 29  1  0
 30 25  2  0
 31 32  1  0
 32 33  1  0
 33 34  2  0
 35 34  1  0
 35 39  1  0
 36 35  2  0
 37 32  2  0
 37 36  1  0
 38 37  1  0
 40 41  1  0
 41 44  1  0
 41 43  1  0
 42 40  2  0
 45 46  1  0
 45 20  1  0
 47 45  1  0
 48  1  1  0
 49 48  1  0
 49 50  1  0
 50 51  1  0
 52 53  1  0
 52 49  1  0
 54 65  2  0
 55 53  1  0
 55 60  1  0
 56 64  1  0
 56 66  1  0
 57 63  1  0
 57 59  1  0
 58 64  1  0
 59 60  2  0
 59 58  1  0
 61 55  2  0
 62 61  1  0
 62 57  2  0
 63 56  1  0
 64 54  1  0
 66 68  2  0
 67 66  1  0
 69 67  1  0
 70 79  2  0
 70 75  1  0
 71 67  1  0
 71 75  1  0
 72 71  1  0
 73 74  1  0
 73 72  1  0
 74 70  1  0
 75 76  2  0
 76 77  1  0
 78 77  2  0
 79 78  1  0
 80 54  1  0
 80 85  1  0
 80 81  1  0
 81 84  1  1
 81 82  1  0
 83 81  1  0
 85 88  1  0
 86 90  1  0
 86 85  1  0
 87 86  2  0
 90 89  1  0
 92 90  1  0
 92 93  1  0
 92 91  1  0
M  ISO  4   3 100  17 100  52 101  53 101
M  END
>  <TORSDO>  (40) 
F 20

>  <SCORE>  (40) 
-14.224

>  <name>  (40) 
39

>  <ligand_id>  (40) 
39

>  <original_smiles>  (40) 
[H]OC([H])(C([H])([H])Oc1c([H])c([H])c2c(c1[H])C([H])([H])N(C(=O)C([H])(N([H])C(=O)C([H])(N([H])C([H])([H])[H])C([H])([H])[H])C(C([H])([H])[H])(C([H])([H])[H])C([H])([H])[H])C([H])(C(=O)N([H])C1([H])c3c([H])c([H])c([H])c([H])c3C([H])([H])C([H])([H])C1([H])[H])C2([H])[H])C([H])([H])N([H])c1nc(N([H])C(=O)N2C([H])([H])C([H])([H])C([H])([H])C([H])(n3nc(-c4c([H])c([H])c(Oc5c([H])c([H])c(F)c([H])c5F)c([H])c4[H])c(C(=O)N([H])[H])c3N([H])[H])C2([H])[H])c([H])c(F)c1[H]

>  <smiles>  (40) 
[H]OC([H])(C([H])([H])Oc1c([H])c([H])c2c(c1[H])C([H])([H])N(C(=O)C([H])(N([H])C(=O)C([H])(N([H])C([H])([H])[H])C([H])([H])[H])C(C([H])([H])[H])(C([H])([H])[H])C([H])([H])[H])C([H])(C(=O)N([H])C1([H])c3c([H])c([H])c([H])c([H])c3C([H])([H])C([H])([H])C1([H])[H])C2([H])[H])C([H])([H])N([H])c1nc(N([H])C(=O)N2C([H])([H])C([H])([H])C([H])([H])C([H])(n3nc(-c4c([H])c([H])c(Oc5c([H])c([H])c(F)c([H])c5F)c([H])c4[H])c(C(=O)N([H])[H])c3N([H])[H])C2([H])[H])c([H])c(F)c1[H]

$$$$
40:0:0
     RDKit          3D

 97104  0  0  1  0  0  0  0  0999 V2000
  -23.0870  -23.2840   20.6350 C   0  0  0  0  0  1  0  0  0  0  0  0
  -24.0170  -23.6040   19.2760 C   0  0  0  0  0  3  0  0  0  0  0  0
  -27.8480  -21.4280   19.3350 C   0  0  0  0  0  3  0  0  0  0  0  0
  -25.4040  -22.3890   19.0120 C   0  0  0  0  0  0  0  0  0  0  0  0
  -27.9080  -19.9400   19.0260 C   0  0  0  0  0  3  0  0  0  0  0  0
  -25.3300  -20.9760   18.6720 C   0  0  0  0  0  0  0  0  0  0  0  0
  -26.8100  -22.5150   19.3740 N   0  0  0  0  0  0  0  0  0  0  0  0
  -26.4760  -19.9290   18.7170 N   0  0  0  0  0  0  0  0  0  0  0  0
  -24.0700  -20.4580   18.3020 N   0  0  0  0  0  0  0  0  0  0  0  0
  -23.2400  -21.0760   18.1690 H   0  0  0  0  0  0  0  0  0  0  0  0
  -24.0680  -19.7050   17.6600 H   0  0  0  0  0  0  0  0  0  0  0  0
  -30.5470  -17.4930   18.8230 C   0  0  0  0  0  0  0  0  0  0  0  0
  -31.8260  -15.0130   18.3320 C   0  0  0  0  0  2  0  0  0  0  0  0
  -31.1860  -13.7830   17.5880 C   0  0  0  0  0  2  0  0  0  0  0  0
  -30.0250  -13.1880   18.3810 C   0  0  0  0  0  2  0  0  0  0  0  0
  -29.3120  -14.3600   19.0270 C   0  0  0  0  0  3  0  0  0  0  0  0
  -30.2380  -15.1370   19.9670 C   0  0  0  0  0  2  0  0  0  0  0  0
  -30.8450  -16.0390   19.0150 N   0  0  0  0  0  0  0  0  0  0  0  0
  -31.7230  -17.7830   18.3240 O   0  0  0  0  0  0  0  0  0  0  0  0
  -29.1370  -18.4470   19.0240 N   0  0  0  0  0  2  0  0  0  0  0  0
  -28.5190  -17.7640   19.4820 H   0  0  0  0  0  0  0  0  0  0  0  0
  -27.3750  -15.0030   20.4370 C   0  0  0  0  0  0  0  0  0  0  0  0
  -26.3530  -14.2760   20.9660 C   0  0  0  0  0  0  0  0  0  0  0  0
  -26.5800  -12.9250   20.5470 C   0  0  0  0  0  0  0  0  0  0  0  0
  -28.1370  -14.0800   19.7560 N   0  0  0  0  0  0  0  0  0  0  0  0
  -27.7160  -12.8120   19.8800 N   0  0  0  0  0  0  0  0  0  0  0  0
  -25.7400  -11.7410   20.6560 C   0  0  0  0  0  0  0  0  0  0  0  0
  -26.0610  -10.6940   21.5410 C   0  0  0  0  0  3  0  0  0  0  0  0
  -25.2210   -9.5660   21.6280 C   0  0  0  0  0  3  0  0  0  0  0  0
  -24.0540   -9.4920   20.8330 C   0  0  0  0  0  0  0  0  0  0  0  0
  -23.7670  -10.5260   19.9290 C   0  0  0  0  0  3  0  0  0  0  0  0
  -24.6060  -11.6430   19.8350 C   0  0  0  0  0  3  0  0  0  0  0  0
  -23.1850   -8.4260   20.8440 O   0  0  0  0  0  0  0  0  0  0  0  0
  -22.7100   -7.9090   22.0210 C   0  0  0  0  0  0  0  0  0  0  0  0
  -22.0560   -8.7130   22.9790 C   0  0  0  0  0  3  0  0  0  0  0  0
  -21.5140   -8.1240   24.1410 C   0  0  0  0  0  3  0  0  0  0  0  0
  -21.6230   -6.7320   24.3390 C   0  0  0  0  0  0  0  0  0  0  0  0
  -22.2760   -5.9320   23.3820 C   0  0  0  0  0  3  0  0  0  0  0  0
  -22.8140   -6.5210   22.2260 C   0  0  0  0  0  0  0  0  0  0  0  0
  -23.4210   -5.7430   21.2970 F   0  0  0  0  0  0  0  0  0  0  0  0
  -21.0980   -6.1640   25.4490 F   0  0  0  0  0  0  0  0  0  0  0  0
  -25.1770  -14.8360   21.6920 C   0  0  0  0  0  0  0  0  0  0  0  0
  -24.5650  -14.0510   22.5630 N   0  0  0  0  0  0  0  0  0  0  0  0
  -24.8260  -15.9950   21.5170 O   0  0  0  0  0  0  0  0  0  0  0  0
  -24.8650  -13.0940   22.7190 H   0  0  0  0  0  0  0  0  0  0  0  0
  -23.7900  -14.4070   23.1010 H   0  0  0  0  0  0  0  0  0  0  0  0
  -27.6920  -16.3560   20.4210 N   0  0  0  0  0  0  0  0  0  0  0  0
  -26.8440  -16.8770   20.6160 H   0  0  0  0  0  0  0  0  0  0  0  0
  -28.0230  -16.6000   19.5030 H   0  0  0  0  0  0  0  0  0  0  0  0
  -22.7900  -24.5330   18.3830 N   0  0  0  0  0  4  0  0  0  0  0  0
  -21.9640  -24.0680   18.0710 H   0  0  0  0  0  0  0  0  0  0  0  0
  -22.5510  -25.2430   18.9830 H   0  0  0  0  0  0  0  0  0  0  0  0
  -22.7380  -25.6990   17.2410 C   0  0  0  0  0  2  0  0  0  0  0  0
  -23.3010  -26.1230   14.6190 C   0  0  0  0  0  1  0  0  0  0  0  0
  -23.7030  -26.1380   16.2350 C   0  0  0  0  0  3  0  0  0  0  0  0
  -25.2610  -25.3330   16.5760 C   0  0  0  0  0  2  0  0  0  0  0  0
  -26.7840  -25.9550   16.6110 O   0  0  0  0  0  0  0  0  0  0  0  0
  -24.8350  -28.9640   22.3630 C   0  0  0  0  0  0  0  0  0  0  0  0
  -26.8930  -27.3030   16.9890 C   0  0  0  0  0  0  0  0  0  0  0  0
  -23.5070  -28.8970   20.2610 C   0  0  0  0  0  3  0  0  0  0  0  0
  -24.9310  -28.8190   18.1270 C   0  0  0  0  0  0  0  0  0  0  0  0
  -26.1170  -29.1320   20.2700 C   0  0  0  0  0  2  0  0  0  0  0  0
  -26.0750  -28.5440   18.8780 C   0  0  0  0  0  0  0  0  0  0  0  0
  -27.0600  -27.7170   18.3530 C   0  0  0  0  0  3  0  0  0  0  0  0
  -26.1360  -28.0990   16.1560 C   0  0  0  0  0  3  0  0  0  0  0  0
  -25.0150  -28.6760   16.7430 C   0  0  0  0  0  3  0  0  0  0  0  0
  -23.6170  -29.1540   18.7320 C   0  0  0  0  0  2  0  0  0  0  0  0
  -24.8480  -29.0530   21.0100 N   0  0  0  0  0  0  0  0  0  0  0  0
  -23.7640  -28.9070   22.9850 O   0  0  0  0  0  0  0  0  0  0  0  0
  -22.9690  -27.4560   20.3040 C   0  0  0  0  0  0  0  0  0  0  0  0
  -21.5700  -27.4250   20.4690 N   0  0  0  0  0  0  0  0  0  0  0  0
  -23.6670  -26.4990   20.2820 O   0  0  0  0  0  0  0  0  0  0  0  0
  -21.2510  -28.2990   20.7430 H   0  0  0  0  0  0  0  0  0  0  0  0
  -18.1970  -26.7330   20.7360 C   0  0  0  0  0  0  0  0  0  0  0  0
  -20.6930  -26.2990   20.6550 C   0  0  0  0  0  3  0  0  0  0  0  0
  -20.3020  -25.5430   19.3940 C   0  0  0  0  0  2  0  0  0  0  0  0
  -19.0610  -25.9790   18.5670 C   0  0  0  0  0  2  0  0  0  0  0  0
  -17.8840  -26.3580   19.2680 C   0  0  0  0  0  2  0  0  0  0  0  0
  -19.4830  -26.7770   21.3280 C   0  0  0  0  0  0  0  0  0  0  0  0
  -19.7330  -27.2740   22.6010 C   0  0  0  0  0  3  0  0  0  0  0  0
  -18.6050  -27.6220   23.3270 C   0  0  0  0  0  3  0  0  0  0  0  0
  -17.2840  -27.4330   22.7830 C   0  0  0  0  0  3  0  0  0  0  0  0
  -17.0720  -27.0250   21.4440 C   0  0  0  0  0  3  0  0  0  0  0  0
  -26.1430  -28.8880   23.1730 C   0  0  0  0  0  3  0  0  0  0  0  0
  -26.1500  -30.0780   24.0170 N   0  0  0  0  0  0  0  0  0  0  0  0
  -26.9160  -31.1500   23.8080 C   0  0  0  0  0  0  0  0  0  0  0  0
  -27.7520  -31.2260   22.9050 O   0  0  0  0  0  0  0  0  0  0  0  0
  -25.3840  -30.1640   24.6730 H   0  0  0  0  0  0  0  0  0  0  0  0
  -25.8730  -33.4530   24.0120 C   0  0  0  0  0  1  0  0  0  0  0  0
  -26.6870  -32.3590   24.7320 C   0  0  0  0  0  3  0  0  0  0  0  0
  -28.6470  -32.0350   26.1690 C   0  0  0  0  0  1  0  0  0  0  0  0
  -27.9400  -32.9310   25.2590 N   0  0  0  0  0  0  0  0  0  0  0  0
  -27.7590  -33.7970   25.7600 H   0  0  0  0  0  0  0  0  0  0  0  0
  -26.2910  -27.5870   24.0590 C   0  0  1  0  0  0  0  0  0  0  0  0
  -25.0710  -27.3380   24.9680 C   0  0  0  0  0  1  0  0  0  0  0  0
  -26.4950  -26.3010   23.2260 C   0  0  0  0  0  1  0  0  0  0  0  0
  -27.5530  -27.7010   24.9670 C   0  0  0  0  0  1  0  0  0  0  0  0
  2  1  1  0
  3  7  1  0
  4  2  1  0
  4  7  2  0
  5  3  2  0
  6  8  2  0
  6  4  1  0
  8  5  1  0
  9  6  1  0
 10  9  1  0
 11  9  1  0
 12 18  1  0
 12 20  1  0
 13 18  1  0
 14 13  1  0
 14 15  1  0
 16 15  1  0
 16 25  1  0
 16 17  1  0
 18 17  1  0
 19 12  2  0
 20 21  1  0
 22 23  2  0
 23 42  1  0
 24 27  1  0
 24 23  1  0
 25 26  1  0
 25 22  1  0
 26 24  2  0
 27 28  1  0
 28 29  2  0
 30 33  1  0
 30 29  1  0
 31 30  2  0
 32 31  1  0
 32 27  2  0
 33 34  1  0
 34 39  2  0
 34 35  1  0
 35 36  2  0
 36 37  1  0
 37 41  1  0
 38 37  2  0
 39 38  1  0
 40 39  1  0
 42 43  1  0
 43 45  1  0
 43 46  1  0
 44 42  2  0
 47 22  1  0
 47 48  1  0
 49 47  1  0
 50 52  1  0
 50  2  1  0
 51 50  1  0
 53 50  1  0
 55 54  1  0
 55 56  1  0
 55 53  1  0
 56 57  1  0
 57 59  1  0
 58 69  2  0
 59 64  1  0
 60 70  1  0
 60 68  1  0
 61 67  1  0
 61 63  1  0
 62 68  1  0
 63 62  1  0
 64 63  2  0
 65 66  1  0
 65 59  2  0
 66 61  2  0
 67 60  1  0
 68 58  1  0
 70 71  1  0
 71 73  1  0
 72 70  2  0
 74 79  2  0
 74 83  1  0
 75 71  1  0
 75 79  1  0
 76 75  1  0
 77 78  1  0
 77 76  1  0
 78 74  1  0
 79 80  1  0
 80 81  2  0
 82 81  1  0
 83 82  2  0
 84 58  1  0
 84 85  1  0
 84 94  1  0
 85 88  1  0
 86 85  1  0
 86 90  1  0
 87 86  2  0
 90 89  1  0
 90 92  1  0
 92 93  1  0
 92 91  1  0
 94 97  1  1
 94 95  1  0
 96 94  1  0
M  ISO  4  12 100  20 100  56 101  57 101
M  END
>  <TORSDO>  (41) 
F 21

>  <SCORE>  (41) 
-6.524

>  <name>  (41) 
40

>  <ligand_id>  (41) 
40

>  <original_smiles>  (41) 
[H]c1nc(C([H])(C([H])([H])[H])[N+]([H])([H])C([H])([H])C([H])(C([H])([H])[H])C([H])([H])Oc2c([H])c([H])c3c(c2[H])C([H])([H])N(C(=O)C([H])(N([H])C(=O)C([H])(N([H])C([H])([H])[H])C([H])([H])[H])C(C([H])([H])[H])(C([H])([H])[H])C([H])([H])[H])C([H])(C(=O)N([H])C2([H])c4c([H])c([H])c([H])c([H])c4C([H])([H])C([H])([H])C2([H])[H])C3([H])[H])c(N([H])[H])nc1N([H])C(=O)N1C([H])([H])C([H])([H])C([H])([H])C([H])(n2nc(-c3c([H])c([H])c(Oc4c([H])c([H])c(F)c([H])c4F)c([H])c3[H])c(C(=O)N([H])[H])c2N([H])[H])C1([H])[H]

>  <smiles>  (41) 
[H]c1nc(C([H])(C([H])([H])[H])[N+]([H])([H])C([H])([H])C([H])(C([H])([H])[H])C([H])([H])Oc2c([H])c([H])c3c(c2[H])C([H])([H])N(C(=O)C([H])(N([H])C(=O)C([H])(N([H])C([H])([H])[H])C([H])([H])[H])C(C([H])([H])[H])(C([H])([H])[H])C([H])([H])[H])C([H])(C(=O)N([H])C2([H])c4c([H])c([H])c([H])c([H])c4C([H])([H])C([H])([H])C2([H])[H])C3([H])[H])c(N([H])[H])nc1N([H])C(=O)N1C([H])([H])C([H])([H])C([H])([H])C([H])(n2nc(-c3c([H])c([H])c(Oc4c([H])c([H])c(F)c([H])c4F)c([H])c3[H])c(C(=O)N([H])[H])c2N([H])[H])C1([H])[H]

$$$$
41:0:0
     RDKit          3D

 91 99  0  0  1  0  0  0  0  0999 V2000
  -29.4070  -21.1730   19.5100 N   0  0  0  0  0  0  0  0  0  0  0  0
  -29.9440  -21.4400   18.6880 H   0  0  0  0  0  0  0  0  0  0  0  0
  -30.5990  -14.6580   19.9210 C   0  0  0  0  0  0  0  0  0  0  0  0
  -30.2340  -12.4730   18.7890 C   0  0  0  0  0  2  0  0  0  0  0  0
  -29.1840  -12.6960   17.6760 C   0  0  0  0  0  2  0  0  0  0  0  0
  -27.7540  -12.5430   18.2290 C   0  0  0  0  0  2  0  0  0  0  0  0
  -27.5420  -13.3250   19.5530 C   0  0  0  0  0  3  0  0  0  0  0  0
  -28.6980  -13.0950   20.5530 C   0  0  0  0  0  2  0  0  0  0  0  0
  -29.9560  -13.4430   19.8710 N   0  0  0  0  0  0  0  0  0  0  0  0
  -31.7040  -14.8020   19.3820 O   0  0  0  0  0  0  0  0  0  0  0  0
  -28.8200  -19.0940   20.8800 C   0  0  0  0  0  2  0  0  0  0  0  0
  -29.4900  -19.7720   19.8220 C   0  0  0  0  0  0  0  0  0  0  0  0
  -29.8200  -17.0770   20.2680 C   0  0  0  0  0  0  0  0  0  0  0  0
  -28.9930  -17.7490   21.0900 N   0  0  0  0  0  0  0  0  0  0  0  0
  -30.2880  -19.0080   19.0180 N   0  0  0  0  0  0  0  0  0  0  0  0
  -30.4550  -17.6760   19.2320 N   0  0  0  0  0  2  0  0  0  0  0  0
  -29.9130  -15.6910   20.5080 N   0  0  0  0  0  0  0  0  0  0  0  0
  -29.2140  -15.3780   21.1600 H   0  0  0  0  0  0  0  0  0  0  0  0
  -25.2360  -13.9370   20.5010 C   0  0  0  0  0  0  0  0  0  0  0  0
  -24.1940  -13.1680   20.9450 C   0  0  0  0  0  0  0  0  0  0  0  0
  -24.6240  -11.8110   20.8150 C   0  0  0  0  0  0  0  0  0  0  0  0
  -26.2370  -13.0460   20.1430 N   0  0  0  0  0  0  0  0  0  0  0  0
  -25.8770  -11.7610   20.3860 N   0  0  0  0  0  0  0  0  0  0  0  0
  -23.8910  -10.5550   21.0250 C   0  0  0  0  0  0  0  0  0  0  0  0
  -24.3590   -9.5650   21.9140 C   0  0  0  0  0  3  0  0  0  0  0  0
  -23.6240   -8.3770   22.1150 C   0  0  0  0  0  3  0  0  0  0  0  0
  -22.4070   -8.1690   21.4240 C   0  0  0  0  0  0  0  0  0  0  0  0
  -21.9570   -9.1490   20.5220 C   0  0  0  0  0  3  0  0  0  0  0  0
  -22.6920  -10.3290   20.3210 C   0  0  0  0  0  3  0  0  0  0  0  0
  -21.6410   -7.0320   21.5320 O   0  0  0  0  0  0  0  0  0  0  0  0
  -21.6160   -6.2890   22.6840 C   0  0  0  0  0  0  0  0  0  0  0  0
  -21.1860   -6.8340   23.9120 C   0  0  0  0  0  3  0  0  0  0  0  0
  -21.1100   -6.0180   25.0580 C   0  0  0  0  0  3  0  0  0  0  0  0
  -21.4520   -4.6560   24.9740 C   0  0  0  0  0  0  0  0  0  0  0  0
  -21.8770   -4.1070   23.7510 C   0  0  0  0  0  3  0  0  0  0  0  0
  -21.9550   -4.9230   22.6080 C   0  0  0  0  0  0  0  0  0  0  0  0
  -22.3430   -4.3860   21.4240 F   0  0  0  0  0  0  0  0  0  0  0  0
  -21.3740   -3.8680   26.0710 F   0  0  0  0  0  0  0  0  0  0  0  0
  -22.8410  -13.6610   21.3720 C   0  0  0  0  0  0  0  0  0  0  0  0
  -22.1850  -12.9350   22.2750 N   0  0  0  0  0  0  0  0  0  0  0  0
  -22.3760  -14.7140   20.9440 O   0  0  0  0  0  0  0  0  0  0  0  0
  -22.5740  -12.0770   22.6370 H   0  0  0  0  0  0  0  0  0  0  0  0
  -21.2850  -13.2450   22.6070 H   0  0  0  0  0  0  0  0  0  0  0  0
  -25.4090  -15.3090   20.3490 N   0  0  0  0  0  0  0  0  0  0  0  0
  -24.6500  -15.9620   20.5020 H   0  0  0  0  0  0  0  0  0  0  0  0
  -26.2120  -15.7430   19.9070 H   0  0  0  0  0  0  0  0  0  0  0  0
  -29.9140  -22.2910   21.6600 C   0  0  0  0  0  1  0  0  0  0  0  0
  -28.9820  -22.2870   20.4310 C   0  0  0  0  0  3  0  0  0  0  0  0
  -28.9170  -23.7780   19.7900 C   0  0  0  0  0  3  0  0  0  0  0  0
  -28.2630  -25.0080   20.6200 C   0  0  0  0  0  3  0  0  0  0  0  0
  -28.4510  -26.4490   20.2550 O   0  0  0  0  0  0  0  0  0  0  0  0
  -24.5930  -31.8360   23.2880 C   0  0  0  0  0  0  0  0  0  0  0  0
  -27.3310  -27.3050   20.2500 C   0  0  0  0  0  0  0  0  0  0  0  0
  -23.4520  -30.4370   21.6080 C   0  0  0  0  0  3  0  0  0  0  0  0
  -24.9570  -28.9130   20.2020 C   0  0  0  0  0  0  0  0  0  0  0  0
  -25.9940  -30.7760   21.4940 C   0  0  0  0  0  2  0  0  0  0  0  0
  -26.1070  -29.4030   20.8340 C   0  0  0  0  0  0  0  0  0  0  0  0
  -27.3030  -28.6170   20.8340 C   0  0  0  0  0  3  0  0  0  0  0  0
  -26.1590  -26.8780   19.5910 C   0  0  0  0  0  3  0  0  0  0  0  0
  -24.9900  -27.6620   19.5620 C   0  0  0  0  0  3  0  0  0  0  0  0
  -23.7110  -29.7760   20.2290 C   0  0  0  0  0  2  0  0  0  0  0  0
  -24.6990  -31.0330   22.1870 N   0  0  0  0  0  0  0  0  0  0  0  0
  -23.4930  -32.1000   23.7930 O   0  0  0  0  0  0  0  0  0  0  0  0
  -22.7650  -29.4100   22.5400 C   0  0  0  0  0  0  0  0  0  0  0  0
  -21.4350  -29.2600   22.4030 N   0  0  0  0  0  0  0  0  0  0  0  0
  -23.4260  -28.7530   23.3480 O   0  0  0  0  0  0  0  0  0  0  0  0
  -20.9620  -29.8460   21.7290 H   0  0  0  0  0  0  0  0  0  0  0  0
  -18.0280  -28.1480   22.9040 C   0  0  0  0  0  0  0  0  0  0  0  0
  -20.5980  -28.3190   23.1440 C   0  0  0  0  0  3  0  0  0  0  0  0
  -20.6440  -26.9090   22.5100 C   0  0  0  0  0  2  0  0  0  0  0  0
  -19.5200  -26.6630   21.4990 C   0  0  0  0  0  2  0  0  0  0  0  0
  -18.1530  -26.8230   22.1680 C   0  0  0  0  0  2  0  0  0  0  0  0
  -19.1760  -28.8580   23.3470 C   0  0  0  0  0  0  0  0  0  0  0  0
  -19.0040  -30.1010   23.9950 C   0  0  0  0  0  3  0  0  0  0  0  0
  -17.7170  -30.6340   24.2020 C   0  0  0  0  0  3  0  0  0  0  0  0
  -16.5860  -29.9200   23.7720 C   0  0  0  0  0  3  0  0  0  0  0  0
  -16.7410  -28.6770   23.1330 C   0  0  0  0  0  3  0  0  0  0  0  0
  -25.8510  -32.4770   23.9540 C   0  0  0  0  0  3  0  0  0  0  0  0
  -26.3410  -31.6920   25.2330 C   0  0  1  0  0  0  0  0  0  0  0  0
  -25.2220  -31.4160   26.2630 C   0  0  0  0  0  1  0  0  0  0  0  0
  -26.9530  -30.3300   24.8360 C   0  0  0  0  0  1  0  0  0  0  0  0
  -27.4610  -32.4910   25.9410 C   0  0  0  0  0  1  0  0  0  0  0  0
  -25.5160  -33.8690   24.2950 N   0  0  0  0  0  0  0  0  0  0  0  0
  -25.8570  -34.9360   23.5590 C   0  0  0  0  0  0  0  0  0  0  0  0
  -26.5540  -34.8520   22.5430 O   0  0  0  0  0  0  0  0  0  0  0  0
  -24.9010  -34.0070   25.0840 H   0  0  0  0  0  0  0  0  0  0  0  0
  -24.1290  -36.7250   23.1750 C   0  0  0  0  0  1  0  0  0  0  0  0
  -25.3450  -36.3140   24.0210 C   0  0  0  0  0  3  0  0  0  0  0  0
  -27.4380  -37.2010   24.9480 C   0  0  0  0  0  1  0  0  0  0  0  0
  -26.3730  -37.3740   23.9630 N   0  0  0  0  0  0  0  0  0  0  0  0
  -25.9580  -38.2900   24.1080 H   0  0  0  0  0  0  0  0  0  0  0  0
  1 12  1  0
  1 48  1  0
  2  1  1  0
  3 17  1  0
  4  9  1  0
  5  6  1  0
  5  4  1  0
  7  6  1  0
  7 22  1  0
  7  8  1  0
  9  3  1  0
  9  8  1  0
 10  3  2  0
 11 14  1  0
 12 11  1  0
 13 17  1  0
 13 14  2  0
 15 16  1  0
 15 12  2  0
 16 13  1  0
 17 18  1  0
 19 20  2  0
 20 39  1  0
 21 20  1  0
 21 24  1  0
 22 23  1  0
 22 19  1  0
 23 21  2  0
 24 25  1  0
 25 26  2  0
 27 30  1  0
 27 26  1  0
 28 27  2  0
 29 28  1  0
 29 24  2  0
 30 31  1  0
 31 32  1  0
 32 33  2  0
 34 33  1  0
 34 38  1  0
 35 34  2  0
 36 31  2  0
 36 35  1  0
 37 36  1  0
 39 40  1  0
 40 43  1  0
 40 42  1  0
 41 39  2  0
 44 19  1  0
 44 45  1  0
 46 44  1  0
 48 47  1  0
 49 48  1  0
 49 50  2  0
 51 50  1  0
 52 63  2  0
 53 51  1  0
 53 58  1  0
 54 62  1  0
 54 64  1  0
 55 61  1  0
 55 57  1  0
 56 62  1  0
 57 56  1  0
 58 57  2  0
 59 53  2  0
 60 59  1  0
 60 55  2  0
 61 54  1  0
 62 52  1  0
 64 66  2  0
 65 64  1  0
 67 65  1  0
 68 77  2  0
 68 73  1  0
 69 65  1  0
 69 73  1  0
 70 69  1  0
 71 72  1  0
 71 70  1  0
 72 68  1  0
 73 74  2  0
 74 75  1  0
 76 75  2  0
 77 76  1  0
 78 52  1  0
 78 83  1  0
 78 79  1  0
 79 82  1  1
 79 80  1  0
 81 79  1  0
 83 86  1  0
 84 88  1  0
 84 83  1  0
 85 84  2  0
 88 87  1  0
 90 88  1  0
 90 91  1  0
 90 89  1  0
M  ISO  4   3 100  17 100  50 101  51 101
M  END
>  <TORSDO>  (42) 
F 19

>  <SCORE>  (42) 
-13.543

>  <name>  (42) 
41

>  <ligand_id>  (42) 
41

>  <original_smiles>  (42) 
[H]c1nc(N([H])C(=O)N2C([H])([H])C([H])([H])C([H])([H])C([H])(n3nc(-c4c([H])c([H])c(Oc5c([H])c([H])c(F)c([H])c5F)c([H])c4[H])c(C(=O)N([H])[H])c3N([H])[H])C2([H])[H])nnc1N([H])C([H])(C([H])([H])[H])C([H])([H])C([H])([H])Oc1c([H])c([H])c2c(c1[H])C([H])([H])N(C(=O)C([H])(N([H])C(=O)C([H])(N([H])C([H])([H])[H])C([H])([H])[H])C(C([H])([H])[H])(C([H])([H])[H])C([H])([H])[H])C([H])(C(=O)N([H])C1([H])c3c([H])c([H])c([H])c([H])c3C([H])([H])C([H])([H])C1([H])[H])C2([H])[H]

>  <smiles>  (42) 
[H]c1nc(N([H])C(=O)N2C([H])([H])C([H])([H])C([H])([H])C([H])(n3nc(-c4c([H])c([H])c(Oc5c([H])c([H])c(F)c([H])c5F)c([H])c4[H])c(C(=O)N([H])[H])c3N([H])[H])C2([H])[H])nnc1N([H])C([H])(C([H])([H])[H])C([H])([H])C([H])([H])Oc1c([H])c([H])c2c(c1[H])C([H])([H])N(C(=O)C([H])(N([H])C(=O)C([H])(N([H])C([H])([H])[H])C([H])([H])[H])C(C([H])([H])[H])(C([H])([H])[H])C([H])([H])[H])C([H])(C(=O)N([H])C1([H])c3c([H])c([H])c([H])c([H])c3C([H])([H])C([H])([H])C1([H])[H])C2([H])[H]

$$$$
42:0:0
     RDKit          3D

 94102  0  0  1  0  0  0  0  0999 V2000
  -30.7140  -14.7270   20.5440 C   0  0  0  0  0  0  0  0  0  0  0  0
  -30.4350  -12.5510   19.4280 C   0  0  0  0  0  2  0  0  0  0  0  0
  -29.5410  -12.7900   18.1920 C   0  0  0  0  0  2  0  0  0  0  0  0
  -28.0500  -12.6740   18.5700 C   0  0  0  0  0  2  0  0  0  0  0  0
  -27.6850  -13.4890   19.8390 C   0  0  0  0  0  3  0  0  0  0  0  0
  -28.7050  -13.2510   20.9770 C   0  0  0  0  0  2  0  0  0  0  0  0
  -30.0430  -13.5400   20.4480 N   0  0  0  0  0  0  0  0  0  0  0  0
  -31.9170  -14.8080   20.2640 O   0  0  0  0  0  0  0  0  0  0  0  0
  -29.4380  -19.1160   19.3550 C   0  0  0  0  0  0  0  0  0  0  0  0
  -29.6870  -17.6030   17.7540 C   0  0  0  0  0  0  0  0  0  0  0  0
  -29.8370  -16.9320   19.8570 C   0  0  0  0  0  0  0  0  0  0  0  0
  -29.4930  -18.8570   18.0500 N   0  0  0  0  0  4  0  0  0  0  0  0
  -29.5980  -18.1870   20.3290 N   0  0  0  0  0  0  0  0  0  0  0  0
  -29.8520  -16.5950   18.5670 N   0  0  0  0  0  2  0  0  0  0  0  0
  -29.7240  -17.3180   16.4280 N   0  0  0  0  0  0  0  0  0  0  0  0
  -29.9580  -15.8510   20.7390 N   0  0  0  0  0  0  0  0  0  0  0  0
  -29.3080  -18.0060   15.8170 H   0  0  0  0  0  0  0  0  0  0  0  0
  -29.5520  -16.3560   16.1710 H   0  0  0  0  0  0  0  0  0  0  0  0
  -29.1300  -15.6990   21.2890 H   0  0  0  0  0  0  0  0  0  0  0  0
  -25.2730  -14.1230   20.4590 C   0  0  0  0  0  0  0  0  0  0  0  0
  -24.1850  -13.3660   20.8010 C   0  0  0  0  0  0  0  0  0  0  0  0
  -24.6340  -12.0100   20.8060 C   0  0  0  0  0  0  0  0  0  0  0  0
  -26.3150  -13.2290   20.2760 N   0  0  0  0  0  0  0  0  0  0  0  0
  -25.9350  -11.9540   20.5450 N   0  0  0  0  0  0  0  0  0  0  0  0
  -23.8890  -10.7560   20.9880 C   0  0  0  0  0  0  0  0  0  0  0  0
  -24.2930   -9.7860   21.9300 C   0  0  0  0  0  3  0  0  0  0  0  0
  -23.5500   -8.5980   22.0980 C   0  0  0  0  0  3  0  0  0  0  0  0
  -22.3890   -8.3720   21.3220 C   0  0  0  0  0  0  0  0  0  0  0  0
  -22.0030   -9.3320   20.3690 C   0  0  0  0  0  3  0  0  0  0  0  0
  -22.7470  -10.5110   20.1990 C   0  0  0  0  0  3  0  0  0  0  0  0
  -21.6190   -7.2370   21.3980 O   0  0  0  0  0  0  0  0  0  0  0  0
  -21.5600   -6.4830   22.5430 C   0  0  0  0  0  0  0  0  0  0  0  0
  -21.1690   -7.0370   23.7810 C   0  0  0  0  0  3  0  0  0  0  0  0
  -21.0550   -6.2100   24.9170 C   0  0  0  0  0  3  0  0  0  0  0  0
  -21.3220   -4.8320   24.8170 C   0  0  0  0  0  0  0  0  0  0  0  0
  -21.7050   -4.2770   23.5830 C   0  0  0  0  0  3  0  0  0  0  0  0
  -21.8210   -5.1000   22.4490 C   0  0  0  0  0  0  0  0  0  0  0  0
  -22.1700   -4.5570   21.2580 F   0  0  0  0  0  0  0  0  0  0  0  0
  -21.2050   -4.0370   25.9060 F   0  0  0  0  0  0  0  0  0  0  0  0
  -22.7830  -13.8610   21.0130 C   0  0  0  0  0  0  0  0  0  0  0  0
  -22.0210  -13.1950   21.8730 N   0  0  0  0  0  0  0  0  0  0  0  0
  -22.3710  -14.8750   20.4510 O   0  0  0  0  0  0  0  0  0  0  0  0
  -22.3630  -12.3760   22.3520 H   0  0  0  0  0  0  0  0  0  0  0  0
  -21.0790  -13.5110   22.0560 H   0  0  0  0  0  0  0  0  0  0  0  0
  -25.4590  -15.4900   20.2660 N   0  0  0  0  0  0  0  0  0  0  0  0
  -24.6970  -16.1540   20.3460 H   0  0  0  0  0  0  0  0  0  0  0  0
  -26.3150  -15.9110   19.9290 H   0  0  0  0  0  0  0  0  0  0  0  0
  -29.1340  -20.5830   19.5350 C   0  0  0  0  0  3  0  0  0  0  0  0
  -29.0430  -21.4950   20.5400 C   0  0  0  0  0  3  0  0  0  0  0  0
  -28.6010  -22.9550   20.2100 C   0  0  0  0  0  2  0  0  0  0  0  0
  -30.4960  -24.0410   21.6030 C   0  0  0  0  0  1  0  0  0  0  0  0
  -29.0800  -24.2120   21.0300 C   0  0  0  0  0  3  0  0  0  0  0  0
  -28.9860  -25.5290   20.1610 C   0  0  0  0  0  2  0  0  0  0  0  0
  -28.7580  -26.7990   20.8460 O   0  0  0  0  0  0  0  0  0  0  0  0
  -24.6630  -32.0490   23.4720 C   0  0  0  0  0  0  0  0  0  0  0  0
  -27.5680  -27.5160   20.7110 C   0  0  0  0  0  0  0  0  0  0  0  0
  -23.5860  -30.5620   21.8200 C   0  0  0  0  0  3  0  0  0  0  0  0
  -25.1490  -29.0170   20.5300 C   0  0  0  0  0  0  0  0  0  0  0  0
  -26.1130  -30.9690   21.7450 C   0  0  0  0  0  2  0  0  0  0  0  0
  -26.2670  -29.5740   21.1600 C   0  0  0  0  0  0  0  0  0  0  0  0
  -27.4770  -28.8340   21.2420 C   0  0  0  0  0  3  0  0  0  0  0  0
  -26.4110  -26.9860   20.0850 C   0  0  0  0  0  3  0  0  0  0  0  0
  -25.2200  -27.7260   19.9890 C   0  0  0  0  0  3  0  0  0  0  0  0
  -23.8920  -29.8560   20.4750 C   0  0  0  0  0  2  0  0  0  0  0  0
  -24.8030  -31.2110   22.4050 N   0  0  0  0  0  0  0  0  0  0  0  0
  -23.5460  -32.3100   23.9420 O   0  0  0  0  0  0  0  0  0  0  0  0
  -22.9060  -29.5540   22.7770 C   0  0  0  0  0  0  0  0  0  0  0  0
  -21.5950  -29.3310   22.5840 N   0  0  0  0  0  0  0  0  0  0  0  0
  -23.5580  -28.9760   23.6500 O   0  0  0  0  0  0  0  0  0  0  0  0
  -21.1280  -29.8530   21.8550 H   0  0  0  0  0  0  0  0  0  0  0  0
  -18.2310  -28.0520   22.9320 C   0  0  0  0  0  0  0  0  0  0  0  0
  -20.7610  -28.3970   23.3420 C   0  0  0  0  0  3  0  0  0  0  0  0
  -20.9370  -26.9500   22.8300 C   0  0  0  0  0  2  0  0  0  0  0  0
  -19.9080  -26.5550   21.7670 C   0  0  0  0  0  2  0  0  0  0  0  0
  -18.4860  -26.6830   22.3220 C   0  0  0  0  0  2  0  0  0  0  0  0
  -19.3000  -28.8620   23.3970 C   0  0  0  0  0  0  0  0  0  0  0  0
  -19.0130  -30.1390   23.9260 C   0  0  0  0  0  3  0  0  0  0  0  0
  -17.6880  -30.6070   23.9970 C   0  0  0  0  0  3  0  0  0  0  0  0
  -16.6310  -29.7940   23.5510 C   0  0  0  0  0  3  0  0  0  0  0  0
  -16.9030  -28.5200   23.0240 C   0  0  0  0  0  3  0  0  0  0  0  0
  -25.8950  -32.7390   24.1350 C   0  0  0  0  0  3  0  0  0  0  0  0
  -26.3500  -32.0410   25.4760 C   0  0  1  0  0  0  0  0  0  0  0  0
  -25.2000  -31.8170   26.4850 C   0  0  0  0  0  1  0  0  0  0  0  0
  -26.9930  -30.6650   25.1840 C   0  0  0  0  0  1  0  0  0  0  0  0
  -27.4310  -32.9010   26.1750 C   0  0  0  0  0  1  0  0  0  0  0  0
  -25.5400  -34.1450   24.3740 N   0  0  0  0  0  0  0  0  0  0  0  0
  -25.8860  -35.1640   23.5750 C   0  0  0  0  0  0  0  0  0  0  0  0
  -26.6080  -35.0220   22.5840 O   0  0  0  0  0  0  0  0  0  0  0  0
  -24.9060  -34.3290   25.1370 H   0  0  0  0  0  0  0  0  0  0  0  0
  -24.1380  -36.8930   23.0410 C   0  0  0  0  0  1  0  0  0  0  0  0
  -25.3460  -36.5610   23.9320 C   0  0  0  0  0  3  0  0  0  0  0  0
  -27.4180  -37.5410   24.8120 C   0  0  0  0  0  1  0  0  0  0  0  0
  -26.3580  -37.6320   23.8120 N   0  0  0  0  0  0  0  0  0  0  0  0
  -25.9230  -38.5460   23.8950 H   0  0  0  0  0  0  0  0  0  0  0  0
  1 16  1  0
  2  7  1  0
  3  4  1  0
  3  2  1  0
  5  4  1  0
  5 23  1  0
  5  6  1  0
  7  1  1  0
  7  6  1  0
  8  1  2  0
  9 48  1  0
  9 13  1  0
 10 12  2  0
 10 14  1  0
 11 13  2  0
 11 16  1  0
 12  9  2  0
 14 11  1  0
 15 10  1  0
 16 19  1  0
 17 15  1  0
 18 15  1  0
 20 21  2  0
 21 22  1  0
 21 40  1  0
 22 25  1  0
 23 20  1  0
 23 24  1  0
 24 22  2  0
 25 26  1  0
 26 27  2  0
 28 31  1  0
 28 27  1  0
 29 28  2  0
 30 29  1  0
 30 25  2  0
 31 32  1  0
 32 33  1  0
 33 34  2  0
 35 34  1  0
 35 39  1  0
 36 35  2  0
 37 32  2  0
 37 36  1  0
 38 37  1  0
 40 41  1  0
 41 44  1  0
 41 43  1  0
 42 40  2  0
 45 46  1  0
 45 20  1  0
 47 45  1  0
 48 49  2  0
 50 49  1  0
 50 52  1  0
 52 51  1  0
 53 54  1  0
 53 52  1  0
 55 66  2  0
 56 54  1  0
 56 61  1  0
 57 65  1  0
 57 67  1  0
 58 60  1  0
 59 65  1  0
 60 61  2  0
 60 59  1  0
 62 56  2  0
 63 62  1  0
 63 58  2  0
 64 58  1  0
 64 57  1  0
 65 55  1  0
 67 69  2  0
 68 67  1  0
 70 68  1  0
 71 80  2  0
 71 76  1  0
 72 68  1  0
 72 76  1  0
 73 72  1  0
 74 75  1  0
 74 73  1  0
 75 71  1  0
 76 77  2  0
 77 78  1  0
 79 78  2  0
 80 79  1  0
 81 55  1  0
 81 86  1  0
 81 82  1  0
 82 85  1  1
 82 83  1  0
 84 82  1  0
 86 89  1  0
 87 91  1  0
 87 86  1  0
 88 87  2  0
 91 90  1  0
 93 94  1  0
 93 91  1  0
 93 92  1  0
M  ISO  4   1 100  16 100  53 101  54 101
M  END
>  <TORSDO>  (43) 
F 19

>  <SCORE>  (43) 
-12.514

>  <name>  (43) 
42

>  <ligand_id>  (43) 
42

>  <original_smiles>  (43) 
[H]C(=C([H])C([H])([H])C([H])(C([H])([H])[H])C([H])([H])Oc1c([H])c([H])c2c(c1[H])C([H])([H])N(C(=O)C([H])(N([H])C(=O)C([H])(N([H])C([H])([H])[H])C([H])([H])[H])C(C([H])([H])[H])(C([H])([H])[H])C([H])([H])[H])C([H])(C(=O)N([H])C1([H])c3c([H])c([H])c([H])c([H])c3C([H])([H])C([H])([H])C1([H])[H])C2([H])[H])c1nc(N([H])[H])nc(N([H])C(=O)N2C([H])([H])C([H])([H])C([H])([H])C([H])(n3nc(-c4c([H])c([H])c(Oc5c([H])c([H])c(F)c([H])c5F)c([H])c4[H])c(C(=O)N([H])[H])c3N([H])[H])C2([H])[H])n1

>  <smiles>  (43) 
[H]C(=C([H])C([H])([H])C([H])(C([H])([H])[H])C([H])([H])Oc1c([H])c([H])c2c(c1[H])C([H])([H])N(C(=O)C([H])(N([H])C(=O)C([H])(N([H])C([H])([H])[H])C([H])([H])[H])C(C([H])([H])[H])(C([H])([H])[H])C([H])([H])[H])C([H])(C(=O)N([H])C1([H])c3c([H])c([H])c([H])c([H])c3C([H])([H])C([H])([H])C1([H])[H])C2([H])[H])c1nc(N([H])[H])nc(N([H])C(=O)N2C([H])([H])C([H])([H])C([H])([H])C([H])(n3nc(-c4c([H])c([H])c(Oc5c([H])c([H])c(F)c([H])c5F)c([H])c4[H])c(C(=O)N([H])[H])c3N([H])[H])C2([H])[H])n1

$$$$
43:0:0
     RDKit          3D

 97105  0  0  1  0  0  0  0  0999 V2000
  -30.6750  -14.6740   20.3970 C   0  0  0  0  0  0  0  0  0  0  0  0
  -30.4790  -12.3930   19.4150 C   0  0  0  0  0  2  0  0  0  0  0  0
  -29.5720  -12.4830   18.1670 C   0  0  0  0  0  2  0  0  0  0  0  0
  -28.0860  -12.3480   18.5560 C   0  0  0  0  0  2  0  0  0  0  0  0
  -27.6970  -13.2590   19.7510 C   0  0  0  0  0  3  0  0  0  0  0  0
  -28.7210  -13.1380   20.9040 C   0  0  0  0  0  2  0  0  0  0  0  0
  -30.0500  -13.4500   20.3550 N   0  0  0  0  0  0  0  0  0  0  0  0
  -31.8520  -14.7820   20.0320 O   0  0  0  0  0  0  0  0  0  0  0  0
  -29.7430  -19.9220   20.1110 C   0  0  0  0  0  0  0  0  0  0  0  0
  -30.8250  -19.1040   19.6880 C   0  0  0  0  0  0  0  0  0  0  0  0
  -28.7610  -19.1630   20.7990 C   0  0  0  0  0  0  0  0  0  0  0  0
  -29.9110  -17.1480   20.5320 C   0  0  0  0  0  0  0  0  0  0  0  0
  -30.9090  -17.7640   19.8830 N   0  0  0  0  0  0  0  0  0  0  0  0
  -28.8450  -17.8220   20.9970 N   0  0  0  0  0  0  0  0  0  0  0  0
  -27.6050  -19.7650   21.2680 N   0  0  0  0  0  0  0  0  0  0  0  0
  -29.8760  -15.7440   20.7230 N   0  0  0  0  0  0  0  0  0  0  0  0
  -27.4300  -20.6670   20.8480 H   0  0  0  0  0  0  0  0  0  0  0  0
  -26.7870  -19.1790   21.3480 H   0  0  0  0  0  0  0  0  0  0  0  0
  -28.9920  -15.4410   21.0910 H   0  0  0  0  0  0  0  0  0  0  0  0
  -25.2920  -13.9030   20.3850 C   0  0  0  0  0  0  0  0  0  0  0  0
  -24.2060  -13.1530   20.7450 C   0  0  0  0  0  0  0  0  0  0  0  0
  -24.6540  -11.7970   20.7670 C   0  0  0  0  0  0  0  0  0  0  0  0
  -26.3320  -13.0060   20.2050 N   0  0  0  0  0  0  0  0  0  0  0  0
  -25.9510  -11.7350   20.4960 N   0  0  0  0  0  0  0  0  0  0  0  0
  -23.9070  -10.5480   20.9740 C   0  0  0  0  0  0  0  0  0  0  0  0
  -24.3230   -9.5880   21.9240 C   0  0  0  0  0  3  0  0  0  0  0  0
  -23.5780   -8.4040   22.1160 C   0  0  0  0  0  3  0  0  0  0  0  0
  -22.4060   -8.1720   21.3590 C   0  0  0  0  0  0  0  0  0  0  0  0
  -22.0100   -9.1200   20.4000 C   0  0  0  0  0  3  0  0  0  0  0  0
  -22.7540  -10.2950   20.2050 C   0  0  0  0  0  3  0  0  0  0  0  0
  -21.6350   -7.0390   21.4610 O   0  0  0  0  0  0  0  0  0  0  0  0
  -21.5880   -6.3010   22.6160 C   0  0  0  0  0  0  0  0  0  0  0  0
  -21.2060   -6.8710   23.8500 C   0  0  0  0  0  3  0  0  0  0  0  0
  -21.1040   -6.0610   24.9980 C   0  0  0  0  0  3  0  0  0  0  0  0
  -21.3740   -4.6820   24.9150 C   0  0  0  0  0  0  0  0  0  0  0  0
  -21.7510   -4.1110   23.6860 C   0  0  0  0  0  3  0  0  0  0  0  0
  -21.8540   -4.9190   22.5390 C   0  0  0  0  0  0  0  0  0  0  0  0
  -22.1970   -4.3610   21.3530 F   0  0  0  0  0  0  0  0  0  0  0  0
  -21.2700   -3.9010   26.0160 F   0  0  0  0  0  0  0  0  0  0  0  0
  -22.8070  -13.6540   20.9640 C   0  0  0  0  0  0  0  0  0  0  0  0
  -22.0500  -12.9960   21.8360 N   0  0  0  0  0  0  0  0  0  0  0  0
  -22.3930  -14.6640   20.3950 O   0  0  0  0  0  0  0  0  0  0  0  0
  -22.3950  -12.1800   22.3190 H   0  0  0  0  0  0  0  0  0  0  0  0
  -21.1100  -13.3160   22.0250 H   0  0  0  0  0  0  0  0  0  0  0  0
  -25.4770  -15.2660   20.1730 N   0  0  0  0  0  0  0  0  0  0  0  0
  -24.7110  -15.9280   20.2470 H   0  0  0  0  0  0  0  0  0  0  0  0
  -26.3380  -15.6960   19.8610 H   0  0  0  0  0  0  0  0  0  0  0  0
  -31.8880  -19.6810   19.0040 N   0  0  0  0  0  0  0  0  0  0  0  0
  -32.0300  -20.6550   19.2300 H   0  0  0  0  0  0  0  0  0  0  0  0
  -32.7450  -19.1470   19.0170 H   0  0  0  0  0  0  0  0  0  0  0  0
  -29.7030  -21.3290   19.7670 N   0  0  0  0  0  0  0  0  0  0  0  0
  -30.3200  -21.5760   18.9980 H   0  0  0  0  0  0  0  0  0  0  0  0
  -29.7530  -22.6340   21.8640 C   0  0  0  0  0  1  0  0  0  0  0  0
  -29.0790  -22.4860   20.4900 C   0  0  0  0  0  3  0  0  0  0  0  0
  -29.1100  -23.8850   19.6980 C   0  0  0  0  0  3  0  0  0  0  0  0
  -28.2950  -25.1290   20.2910 C   0  0  0  0  0  3  0  0  0  0  0  0
  -28.3700  -26.4600   19.6380 O   0  0  0  0  0  0  0  0  0  0  0  0
  -24.5840  -31.6440   22.9580 C   0  0  0  0  0  0  0  0  0  0  0  0
  -27.2290  -27.2710   19.6850 C   0  0  0  0  0  0  0  0  0  0  0  0
  -23.3720  -30.2760   21.2950 C   0  0  0  0  0  3  0  0  0  0  0  0
  -24.8230  -28.8110   19.7820 C   0  0  0  0  0  0  0  0  0  0  0  0
  -25.8960  -30.6670   21.0610 C   0  0  0  0  0  2  0  0  0  0  0  0
  -25.9940  -29.3140   20.3670 C   0  0  0  0  0  0  0  0  0  0  0  0
  -27.2020  -28.5580   20.3040 C   0  0  0  0  0  3  0  0  0  0  0  0
  -26.0390  -26.8180   19.0780 C   0  0  0  0  0  3  0  0  0  0  0  0
  -24.8470  -27.5680   19.1290 C   0  0  0  0  0  3  0  0  0  0  0  0
  -23.5670  -29.6510   19.8880 C   0  0  0  0  0  2  0  0  0  0  0  0
  -24.6380  -30.8780   21.8280 N   0  0  0  0  0  0  0  0  0  0  0  0
  -23.5080  -31.8760   23.5280 O   0  0  0  0  0  0  0  0  0  0  0  0
  -22.7570  -29.2120   22.2340 C   0  0  0  0  0  0  0  0  0  0  0  0
  -21.4300  -29.0170   22.1400 N   0  0  0  0  0  0  0  0  0  0  0  0
  -23.4690  -28.5650   23.0060 O   0  0  0  0  0  0  0  0  0  0  0  0
  -20.9140  -29.5910   21.4880 H   0  0  0  0  0  0  0  0  0  0  0  0
  -18.0860  -27.7580   22.6990 C   0  0  0  0  0  0  0  0  0  0  0  0
  -20.6490  -28.0370   22.8960 C   0  0  0  0  0  3  0  0  0  0  0  0
  -20.7470  -26.6330   22.2540 C   0  0  0  0  0  2  0  0  0  0  0  0
  -19.6150  -26.3420   21.2640 C   0  0  0  0  0  2  0  0  0  0  0  0
  -18.2540  -26.4410   21.9600 C   0  0  0  0  0  2  0  0  0  0  0  0
  -19.2100  -28.5150   23.1250 C   0  0  0  0  0  0  0  0  0  0  0  0
  -18.9970  -29.7480   23.7770 C   0  0  0  0  0  3  0  0  0  0  0  0
  -17.6930  -30.2250   24.0080 C   0  0  0  0  0  3  0  0  0  0  0  0
  -16.5830  -29.4650   23.5980 C   0  0  0  0  0  3  0  0  0  0  0  0
  -16.7810  -28.2330   22.9490 C   0  0  0  0  0  3  0  0  0  0  0  0
  -25.8670  -32.2810   23.5730 C   0  0  0  0  0  3  0  0  0  0  0  0
  -26.4730  -31.4370   24.7600 C   0  0  1  0  0  0  0  0  0  0  0  0
  -25.4430  -31.0750   25.8550 C   0  0  0  0  0  1  0  0  0  0  0  0
  -27.0850  -30.1170   24.2350 C   0  0  0  0  0  1  0  0  0  0  0  0
  -27.6260  -32.2230   25.4270 C   0  0  0  0  0  1  0  0  0  0  0  0
  -25.5160  -33.6340   24.0290 N   0  0  0  0  0  0  0  0  0  0  0  0
  -25.7780  -34.7590   23.3490 C   0  0  0  0  0  0  0  0  0  0  0  0
  -26.4090  -34.7670   22.2890 O   0  0  0  0  0  0  0  0  0  0  0  0
  -24.9460  -33.6970   24.8590 H   0  0  0  0  0  0  0  0  0  0  0  0
  -23.9680  -36.5000   23.2070 C   0  0  0  0  0  1  0  0  0  0  0  0
  -25.2550  -36.0840   23.9370 C   0  0  0  0  0  3  0  0  0  0  0  0
  -27.3870  -36.9830   24.7610 C   0  0  0  0  0  1  0  0  0  0  0  0
  -26.2420  -37.1840   23.8760 N   0  0  0  0  0  0  0  0  0  0  0  0
  -25.8080  -38.0710   24.1140 H   0  0  0  0  0  0  0  0  0  0  0  0
  1 16  1  0
  2  7  1  0
  3  4  1  0
  3  2  1  0
  5  4  1  0
  5 23  1  0
  5  6  1  0
  7  1  1  0
  7  6  1  0
  8  1  2  0
  9 11  1  0
 10 13  1  0
 10  9  2  0
 11 14  2  0
 11 15  1  0
 12 16  1  0
 12 14  1  0
 13 12  2  0
 15 18  1  0
 16 19  1  0
 17 15  1  0
 20 21  2  0
 21 22  1  0
 21 40  1  0
 22 25  1  0
 23 20  1  0
 23 24  1  0
 24 22  2  0
 25 26  1  0
 26 27  2  0
 28 31  1  0
 28 27  1  0
 29 28  2  0
 30 29  1  0
 30 25  2  0
 31 32  1  0
 32 33  1  0
 33 34  2  0
 35 34  1  0
 35 39  1  0
 36 35  2  0
 37 32  2  0
 37 36  1  0
 38 37  1  0
 40 41  1  0
 41 44  1  0
 41 43  1  0
 42 40  2  0
 45 46  1  0
 45 20  1  0
 47 45  1  0
 48 50  1  0
 48 49  1  0
 48 10  1  0
 51  9  1  0
 51 54  1  0
 52 51  1  0
 54 53  1  0
 55 56  2  0
 55 54  1  0
 57 59  1  0
 57 56  1  0
 58 69  2  0
 59 64  1  0
 60 68  1  0
 60 70  1  0
 61 67  1  0
 61 63  1  0
 62 68  1  0
 63 62  1  0
 64 63  2  0
 65 66  1  0
 65 59  2  0
 66 61  2  0
 67 60  1  0
 68 58  1  0
 70 72  2  0
 71 70  1  0
 73 71  1  0
 74 83  2  0
 74 79  1  0
 75 71  1  0
 75 79  1  0
 76 75  1  0
 77 78  1  0
 77 76  1  0
 78 74  1  0
 79 80  2  0
 80 81  1  0
 82 81  2  0
 83 82  1  0
 84 58  1  0
 84 89  1  0
 84 85  1  0
 85 88  1  1
 85 86  1  0
 87 85  1  0
 89 92  1  0
 90 94  1  0
 90 89  1  0
 91 90  2  0
 94 93  1  0
 96 94  1  0
 96 97  1  0
 96 95  1  0
M  ISO  4   1 100  16 100  56 101  57 101
M  END
>  <TORSDO>  (44) 
F 20

>  <SCORE>  (44) 
-12.725

>  <name>  (44) 
43

>  <ligand_id>  (44) 
43

>  <original_smiles>  (44) 
[H]c1c([H])c([H])c2c(c1[H])C([H])([H])C([H])([H])C([H])([H])C2([H])N([H])C(=O)C1([H])N(C(=O)C([H])(N([H])C(=O)C([H])(N([H])C([H])([H])[H])C([H])([H])[H])C(C([H])([H])[H])(C([H])([H])[H])C([H])([H])[H])C([H])([H])c2c([H])c(OC([H])([H])C([H])([H])C([H])(N([H])c3c(N([H])[H])nc(N([H])C(=O)N4C([H])([H])C([H])([H])C([H])([H])C([H])(n5nc(-c6c([H])c([H])c(Oc7c([H])c([H])c(F)c([H])c7F)c([H])c6[H])c(C(=O)N([H])[H])c5N([H])[H])C4([H])[H])nc3N([H])[H])C([H])([H])[H])c([H])c([H])c2C1([H])[H]

>  <smiles>  (44) 
[H]c1c([H])c([H])c2c(c1[H])C([H])([H])C([H])([H])C([H])([H])C2([H])N([H])C(=O)C1([H])N(C(=O)C([H])(N([H])C(=O)C([H])(N([H])C([H])([H])[H])C([H])([H])[H])C(C([H])([H])[H])(C([H])([H])[H])C([H])([H])[H])C([H])([H])c2c([H])c(OC([H])([H])C([H])([H])C([H])(N([H])c3c(N([H])[H])nc(N([H])C(=O)N4C([H])([H])C([H])([H])C([H])([H])C([H])(n5nc(-c6c([H])c([H])c(Oc7c([H])c([H])c(F)c([H])c7F)c([H])c6[H])c(C(=O)N([H])[H])c5N([H])[H])C4([H])[H])nc3N([H])[H])C([H])([H])[H])c([H])c([H])c2C1([H])[H]

$$$$
44:0:0
     RDKit          3D

 96104  0  0  1  0  0  0  0  0999 V2000
  -30.8540  -14.4740   20.4110 C   0  0  0  0  0  0  0  0  0  0  0  0
  -30.7690  -12.0740   19.7810 C   0  0  0  0  0  2  0  0  0  0  0  0
  -29.9290  -11.9020   18.4950 C   0  0  0  0  0  2  0  0  0  0  0  0
  -28.4260  -11.7930   18.8180 C   0  0  0  0  0  2  0  0  0  0  0  0
  -27.9440  -12.9040   19.7860 C   0  0  0  0  0  3  0  0  0  0  0  0
  -28.8890  -12.9970   21.0060 C   0  0  0  0  0  2  0  0  0  0  0  0
  -30.2620  -13.2470   20.5140 N   0  0  0  0  0  0  0  0  0  0  0  0
  -31.9560  -14.6370   19.8630 O   0  0  0  0  0  0  0  0  0  0  0  0
  -28.5360  -17.3090   20.7250 C   0  0  0  0  0  3  0  0  0  0  0  0
  -30.3130  -18.7750   19.1710 C   0  0  0  0  0  2  0  0  0  0  0  0
  -28.1390  -18.5620   20.2160 C   0  0  0  0  0  0  0  0  0  0  0  0
  -29.0320  -19.3270   19.4270 C   0  0  0  0  0  0  0  0  0  0  0  0
  -29.8130  -16.7760   20.4250 C   0  0  0  0  0  0  0  0  0  0  0  0
  -30.6450  -17.5450   19.6620 N   0  0  0  0  0  0  0  0  0  0  0  0
  -30.1330  -15.4770   20.9520 N   0  0  0  0  0  0  0  0  0  0  0  0
  -31.5810  -17.1830   19.4420 H   0  0  0  0  0  0  0  0  0  0  0  0
  -29.4300  -15.1050   21.5660 H   0  0  0  0  0  0  0  0  0  0  0  0
  -25.5380  -13.6330   20.3490 C   0  0  0  0  0  0  0  0  0  0  0  0
  -24.4200  -12.9150   20.6810 C   0  0  0  0  0  0  0  0  0  0  0  0
  -24.8240  -11.5450   20.7030 C   0  0  0  0  0  0  0  0  0  0  0  0
  -26.5540  -12.7020   20.1920 N   0  0  0  0  0  0  0  0  0  0  0  0
  -26.1250  -11.4430   20.4620 N   0  0  0  0  0  0  0  0  0  0  0  0
  -24.0370  -10.3180   20.8840 C   0  0  0  0  0  0  0  0  0  0  0  0
  -24.4380   -9.3120   21.7910 C   0  0  0  0  0  3  0  0  0  0  0  0
  -23.6560   -8.1500   21.9600 C   0  0  0  0  0  3  0  0  0  0  0  0
  -22.4590   -7.9860   21.2230 C   0  0  0  0  0  0  0  0  0  0  0  0
  -22.0770   -8.9800   20.3050 C   0  0  0  0  0  3  0  0  0  0  0  0
  -22.8590  -10.1340   20.1330 C   0  0  0  0  0  3  0  0  0  0  0  0
  -21.6490   -6.8790   21.3030 O   0  0  0  0  0  0  0  0  0  0  0  0
  -21.6460   -6.0680   22.4100 C   0  0  0  0  0  0  0  0  0  0  0  0
  -21.3430   -6.5650   23.6960 C   0  0  0  0  0  3  0  0  0  0  0  0
  -21.2830   -5.6840   24.7940 C   0  0  0  0  0  3  0  0  0  0  0  0
  -21.5150   -4.3070   24.6080 C   0  0  0  0  0  0  0  0  0  0  0  0
  -21.8120   -3.8110   23.3260 C   0  0  0  0  0  3  0  0  0  0  0  0
  -21.8740   -4.6890   22.2300 C   0  0  0  0  0  0  0  0  0  0  0  0
  -22.1390   -4.2020   20.9940 F   0  0  0  0  0  0  0  0  0  0  0  0
  -21.4500   -3.4590   25.6610 F   0  0  0  0  0  0  0  0  0  0  0  0
  -23.0320  -13.4560   20.8690 C   0  0  0  0  0  0  0  0  0  0  0  0
  -22.2420  -12.8290   21.7340 N   0  0  0  0  0  0  0  0  0  0  0  0
  -22.6550  -14.4700   20.2820 O   0  0  0  0  0  0  0  0  0  0  0  0
  -22.5560  -12.0100   22.2320 H   0  0  0  0  0  0  0  0  0  0  0  0
  -21.3080  -13.1750   21.9020 H   0  0  0  0  0  0  0  0  0  0  0  0
  -25.7700  -14.9910   20.1500 N   0  0  0  0  0  0  0  0  0  0  0  0
  -25.0070  -15.6590   20.1650 H   0  0  0  0  0  0  0  0  0  0  0  0
  -26.6150  -15.3700   19.7410 H   0  0  0  0  0  0  0  0  0  0  0  0
  -26.8520  -19.0550   20.4690 N   0  0  0  0  0  0  0  0  0  0  0  0
  -26.1820  -18.3630   20.7760 H   0  0  0  0  0  0  0  0  0  0  0  0
  -26.4790  -19.5840   19.6920 H   0  0  0  0  0  0  0  0  0  0  0  0
  -28.5710  -20.5720   18.9420 N   0  0  0  0  0  0  0  0  0  0  0  0
  -27.6350  -20.8080   19.2580 H   0  0  0  0  0  0  0  0  0  0  0  0
  -29.4210  -21.7420   18.6740 C   0  0  0  0  0  2  0  0  0  0  0  0
  -28.6150  -23.0700   18.6880 C   0  0  0  0  0  0  0  0  0  0  0  0
  -27.3920  -23.0570   18.5070 O   0  0  0  0  0  0  0  0  0  0  0  0
  -29.3730  -24.3860   18.9620 C   0  0  0  0  0  2  0  0  0  0  0  0
  -28.5320  -25.5810   19.5040 C   0  0  0  0  0  2  0  0  0  0  0  0
  -28.1770  -26.5260   18.4850 O   0  0  0  0  0  0  0  0  0  0  0  0
  -24.7530  -31.0060   22.8950 C   0  0  0  0  0  0  0  0  0  0  0  0
  -27.0700  -27.2940   18.7660 C   0  0  0  0  0  0  0  0  0  0  0  0
  -23.4190  -30.0560   21.0410 C   0  0  0  0  0  3  0  0  0  0  0  0
  -24.7470  -28.8320   19.2350 C   0  0  0  0  0  0  0  0  0  0  0  0
  -25.9470  -30.3650   20.8030 C   0  0  0  0  0  2  0  0  0  0  0  0
  -25.9490  -29.1690   19.8730 C   0  0  0  0  0  0  0  0  0  0  0  0
  -27.1160  -28.4030   19.6420 C   0  0  0  0  0  3  0  0  0  0  0  0
  -25.8570  -26.9720   18.1270 C   0  0  0  0  0  3  0  0  0  0  0  0
  -24.6940  -27.7320   18.3620 C   0  0  0  0  0  3  0  0  0  0  0  0
  -23.5420  -29.6990   19.5350 C   0  0  0  0  0  2  0  0  0  0  0  0
  -24.7280  -30.4760   21.6390 N   0  0  0  0  0  0  0  0  0  0  0  0
  -23.7090  -31.1850   23.5370 O   0  0  0  0  0  0  0  0  0  0  0  0
  -22.7630  -28.8660   21.7780 C   0  0  0  0  0  0  0  0  0  0  0  0
  -21.4270  -28.7690   21.6890 N   0  0  0  0  0  0  0  0  0  0  0  0
  -23.4520  -28.0430   22.3870 O   0  0  0  0  0  0  0  0  0  0  0  0
  -20.9340  -29.4880   21.1770 H   0  0  0  0  0  0  0  0  0  0  0  0
  -18.0300  -27.5840   22.0290 C   0  0  0  0  0  0  0  0  0  0  0  0
  -20.6010  -27.7100   22.2680 C   0  0  0  0  0  3  0  0  0  0  0  0
  -20.6420  -26.4330   21.3960 C   0  0  0  0  0  2  0  0  0  0  0  0
  -19.5040  -26.3640   20.3730 C   0  0  0  0  0  2  0  0  0  0  0  0
  -18.1450  -26.4060   21.0780 C   0  0  0  0  0  2  0  0  0  0  0  0
  -19.1840  -28.2060   22.5750 C   0  0  0  0  0  0  0  0  0  0  0  0
  -19.0230  -29.3200   23.4270 C   0  0  0  0  0  3  0  0  0  0  0  0
  -17.7400  -29.8110   23.7370 C   0  0  0  0  0  3  0  0  0  0  0  0
  -16.6010  -29.1810   23.2060 C   0  0  0  0  0  3  0  0  0  0  0  0
  -16.7470  -28.0680   22.3590 C   0  0  0  0  0  3  0  0  0  0  0  0
  -26.0920  -31.4350   23.5750 C   0  0  0  0  0  3  0  0  0  0  0  0
  -25.8650  -32.7360   24.2170 N   0  0  0  0  0  0  0  0  0  0  0  0
  -26.2690  -33.9110   23.7160 C   0  0  0  0  0  0  0  0  0  0  0  0
  -26.9440  -34.0040   22.6860 O   0  0  0  0  0  0  0  0  0  0  0  0
  -25.2720  -32.7410   25.0340 H   0  0  0  0  0  0  0  0  0  0  0  0
  -24.6810  -35.8600   23.7600 C   0  0  0  0  0  1  0  0  0  0  0  0
  -25.8610  -35.1860   24.4780 C   0  0  0  0  0  3  0  0  0  0  0  0
  -28.0170  -35.6900   25.5370 C   0  0  0  0  0  1  0  0  0  0  0  0
  -26.9660  -36.1560   24.6370 N   0  0  0  0  0  0  0  0  0  0  0  0
  -26.6180  -37.0440   24.9890 H   0  0  0  0  0  0  0  0  0  0  0  0
  -26.6230  -30.3800   24.6220 C   0  0  1  0  0  0  0  0  0  0  0  0
  -25.5660  -29.9580   25.6690 C   0  0  0  0  0  1  0  0  0  0  0  0
  -27.1170  -29.1010   23.9070 C   0  0  0  0  0  1  0  0  0  0  0  0
  -27.8400  -30.9610   25.3800 C   0  0  0  0  0  1  0  0  0  0  0  0
  1  7  1  0
  1 15  1  0
  2  7  1  0
  3  4  1  0
  3  2  1  0
  5  4  1  0
  5 21  1  0
  5  6  1  0
  7  6  1  0
  8  1  2  0
 10 12  1  0
 10 14  1  0
 11 46  1  0
 11  9  1  0
 12 11  2  0
 13  9  2  0
 13 15  1  0
 14 13  1  0
 15 17  1  0
 16 14  1  0
 18 19  2  0
 19 20  1  0
 19 38  1  0
 20 23  1  0
 21 18  1  0
 21 22  1  0
 22 20  2  0
 23 24  1  0
 24 25  2  0
 26 29  1  0
 26 25  1  0
 27 26  2  0
 28 27  1  0
 28 23  2  0
 29 30  1  0
 30 31  1  0
 31 32  2  0
 33 32  1  0
 33 37  1  0
 34 33  2  0
 35 30  2  0
 35 34  1  0
 36 35  1  0
 38 39  1  0
 39 42  1  0
 39 41  1  0
 40 38  2  0
 43 44  1  0
 43 18  1  0
 45 43  1  0
 46 47  1  0
 48 46  1  0
 49 50  1  0
 49 12  1  0
 51 52  1  0
 51 49  1  0
 52 54  1  0
 53 52  2  0
 54 55  1  0
 56 58  1  0
 56 55  1  0
 57 68  2  0
 58 63  1  0
 59 67  1  0
 59 69  1  0
 60 66  1  0
 60 62  1  0
 61 67  1  0
 62 61  1  0
 63 62  2  0
 64 65  1  0
 64 58  2  0
 65 60  2  0
 66 59  1  0
 67 57  1  0
 69 71  2  0
 70 69  1  0
 72 70  1  0
 73 82  2  0
 73 78  1  0
 74 70  1  0
 74 78  1  0
 75 74  1  0
 76 77  1  0
 76 75  1  0
 77 73  1  0
 78 79  2  0
 79 80  1  0
 81 80  2  0
 82 81  1  0
 83 57  1  0
 83 84  1  0
 83 93  1  0
 84 87  1  0
 85 84  1  0
 85 89  1  0
 86 85  2  0
 89 88  1  0
 89 91  1  0
 91 92  1  0
 91 90  1  0
 93 96  1  1
 93 94  1  0
 95 93  1  0
M  ISO  4   1 100  15 100  55 101  56 101
M  END
>  <TORSDO>  (45) 
F 21

>  <SCORE>  (45) 
-10.924

>  <name>  (45) 
44

>  <ligand_id>  (45) 
44

>  <original_smiles>  (45) 
[H]c1c([H])c([H])c2c(c1[H])C([H])([H])C([H])([H])C([H])([H])C2([H])N([H])C(=O)C1([H])N(C(=O)C([H])(N([H])C(=O)C([H])(N([H])C([H])([H])[H])C([H])([H])[H])C(C([H])([H])[H])(C([H])([H])[H])C([H])([H])[H])C([H])([H])c2c([H])c(OC([H])([H])C([H])([H])C(=O)C([H])([H])N([H])c3c(N([H])[H])c([H])c(N([H])C(=O)N4C([H])([H])C([H])([H])C([H])([H])C([H])(n5nc(-c6c([H])c([H])c(Oc7c([H])c([H])c(F)c([H])c7F)c([H])c6[H])c(C(=O)N([H])[H])c5N([H])[H])C4([H])[H])[n+]([H])c3[H])c([H])c([H])c2C1([H])[H]

>  <smiles>  (45) 
[H]c1c([H])c([H])c2c(c1[H])C([H])([H])C([H])([H])C([H])([H])C2([H])N([H])C(=O)C1([H])N(C(=O)C([H])(N([H])C(=O)C([H])(N([H])C([H])([H])[H])C([H])([H])[H])C(C([H])([H])[H])(C([H])([H])[H])C([H])([H])[H])C([H])([H])c2c([H])c(OC([H])([H])C([H])([H])C(=O)C([H])([H])N([H])c3c(N([H])[H])c([H])c(N([H])C(=O)N4C([H])([H])C([H])([H])C([H])([H])C([H])(n5nc(-c6c([H])c([H])c(Oc7c([H])c([H])c(F)c([H])c7F)c([H])c6[H])c(C(=O)N([H])[H])c5N([H])[H])C4([H])[H])[n+]([H])c3[H])c([H])c([H])c2C1([H])[H]

$$$$
45:0:0
     RDKit          3D

 93101  0  0  1  0  0  0  0  0999 V2000
  -29.2850  -22.6100   20.2160 N   0  0  0  0  0  4  0  0  0  0  0  0
  -30.1960  -22.4600   19.8130 H   0  0  0  0  0  0  0  0  0  0  0  0
  -29.4410  -22.7070   21.2070 H   0  0  0  0  0  0  0  0  0  0  0  0
  -27.2630  -21.3250   20.9340 C   0  0  0  0  0  1  0  0  0  0  0  0
  -28.4920  -21.3150   20.0070 C   0  0  0  0  0  3  0  0  0  0  0  0
  -30.8080  -14.9650   20.2630 C   0  0  0  0  0  0  0  0  0  0  0  0
  -30.6580  -12.6680   19.2800 C   0  0  0  0  0  2  0  0  0  0  0  0
  -29.6990  -12.7160   18.0680 C   0  0  0  0  0  2  0  0  0  0  0  0
  -28.2320  -12.5430   18.5110 C   0  0  0  0  0  2  0  0  0  0  0  0
  -27.8670  -13.4460   19.7180 C   0  0  0  0  0  3  0  0  0  0  0  0
  -28.9340  -13.3530   20.8310 C   0  0  0  0  0  2  0  0  0  0  0  0
  -30.2300  -13.7150   20.2330 N   0  0  0  0  0  0  0  0  0  0  0  0
  -31.9820  -15.1150   19.9050 O   0  0  0  0  0  0  0  0  0  0  0  0
  -29.2970  -19.9540   20.1580 C   0  0  0  0  0  0  0  0  0  0  0  0
  -29.9420  -17.4820   20.3400 C   0  0  0  0  0  0  0  0  0  0  0  0
  -30.6080  -19.7320   20.4280 N   0  0  0  0  0  0  0  0  0  0  0  0
  -30.9760  -18.3380   20.5170 N   0  0  0  0  0  0  0  0  0  0  0  0
  -29.9440  -16.0140   20.5230 N   0  0  0  0  0  0  0  0  0  0  0  0
  -28.4350  -18.3800   20.0050 S   0  0  0  0  0  0  0  0  0  0  0  0
  -29.0300  -15.6600   20.7520 H   0  0  0  0  0  0  0  0  0  0  0  0
  -25.4970  -14.0660   20.4850 C   0  0  0  0  0  0  0  0  0  0  0  0
  -24.4230  -13.3040   20.8580 C   0  0  0  0  0  0  0  0  0  0  0  0
  -24.8660  -11.9470   20.8000 C   0  0  0  0  0  0  0  0  0  0  0  0
  -26.5240  -13.1740   20.2200 N   0  0  0  0  0  0  0  0  0  0  0  0
  -26.1510  -11.8940   20.4730 N   0  0  0  0  0  0  0  0  0  0  0  0
  -24.1240  -10.6920   20.9810 C   0  0  0  0  0  0  0  0  0  0  0  0
  -24.5300   -9.7240   21.9260 C   0  0  0  0  0  3  0  0  0  0  0  0
  -23.7900   -8.5350   22.0940 C   0  0  0  0  0  3  0  0  0  0  0  0
  -22.6290   -8.3040   21.3170 C   0  0  0  0  0  0  0  0  0  0  0  0
  -22.2430   -9.2610   20.3620 C   0  0  0  0  0  3  0  0  0  0  0  0
  -22.9830  -10.4430   20.1920 C   0  0  0  0  0  3  0  0  0  0  0  0
  -21.8630   -7.1670   21.3930 O   0  0  0  0  0  0  0  0  0  0  0  0
  -21.7590   -6.4460   22.5550 C   0  0  0  0  0  0  0  0  0  0  0  0
  -21.2280   -7.0100   23.7370 C   0  0  0  0  0  3  0  0  0  0  0  0
  -21.0740   -6.2130   24.8890 C   0  0  0  0  0  3  0  0  0  0  0  0
  -21.4410   -4.8550   24.8610 C   0  0  0  0  0  0  0  0  0  0  0  0
  -21.9640   -4.2910   23.6840 C   0  0  0  0  0  3  0  0  0  0  0  0
  -22.1200   -5.0830   22.5340 C   0  0  0  0  0  0  0  0  0  0  0  0
  -22.6040   -4.5300   21.3970 F   0  0  0  0  0  0  0  0  0  0  0  0
  -21.2870   -4.0870   25.9660 F   0  0  0  0  0  0  0  0  0  0  0  0
  -23.0370  -13.7980   21.1540 C   0  0  0  0  0  0  0  0  0  0  0  0
  -22.3100  -13.1000   22.0200 N   0  0  0  0  0  0  0  0  0  0  0  0
  -22.6080  -14.8370   20.6550 O   0  0  0  0  0  0  0  0  0  0  0  0
  -22.6700  -12.2570   22.4440 H   0  0  0  0  0  0  0  0  0  0  0  0
  -21.3800  -13.4120   22.2620 H   0  0  0  0  0  0  0  0  0  0  0  0
  -25.6780  -15.4380   20.3230 N   0  0  0  0  0  0  0  0  0  0  0  0
  -24.9080  -16.0890   20.4360 H   0  0  0  0  0  0  0  0  0  0  0  0
  -26.4960  -15.8650   19.9120 H   0  0  0  0  0  0  0  0  0  0  0  0
  -28.7150  -23.9360   19.6310 C   0  0  0  0  0  3  0  0  0  0  0  0
  -29.6210  -23.3480   17.2760 C   0  0  0  0  0  1  0  0  0  0  0  0
  -29.5610  -24.3790   18.4170 C   0  0  0  0  0  2  0  0  0  0  0  0
  -28.4760  -25.1990   20.6300 C   0  0  0  0  0  2  0  0  0  0  0  0
  -28.5230  -26.6360   20.1850 O   0  0  0  0  0  0  0  0  0  0  0  0
  -24.5690  -31.9510   23.1950 C   0  0  0  0  0  0  0  0  0  0  0  0
  -27.3710  -27.4470   20.1920 C   0  0  0  0  0  0  0  0  0  0  0  0
  -23.4420  -30.5270   21.5230 C   0  0  0  0  0  3  0  0  0  0  0  0
  -24.9660  -29.0100   20.1300 C   0  0  0  0  0  0  0  0  0  0  0  0
  -25.9770  -30.9100   21.3960 C   0  0  0  0  0  2  0  0  0  0  0  0
  -26.1100  -29.5310   20.7500 C   0  0  0  0  0  0  0  0  0  0  0  0
  -27.3180  -28.7640   20.7610 C   0  0  0  0  0  3  0  0  0  0  0  0
  -26.2030  -26.9800   19.5580 C   0  0  0  0  0  3  0  0  0  0  0  0
  -25.0170  -27.7430   19.5240 C   0  0  0  0  0  3  0  0  0  0  0  0
  -23.7060  -29.8560   20.1490 C   0  0  0  0  0  2  0  0  0  0  0  0
  -24.6820  -31.1480   22.0960 N   0  0  0  0  0  0  0  0  0  0  0  0
  -23.4660  -32.1970   23.7040 O   0  0  0  0  0  0  0  0  0  0  0  0
  -22.7830  -29.4930   22.4660 C   0  0  0  0  0  0  0  0  0  0  0  0
  -21.4570  -29.3150   22.3390 N   0  0  0  0  0  0  0  0  0  0  0  0
  -23.4650  -28.8540   23.2710 O   0  0  0  0  0  0  0  0  0  0  0  0
  -20.9660  -29.8830   21.6630 H   0  0  0  0  0  0  0  0  0  0  0  0
  -18.0760  -28.1440   22.8750 C   0  0  0  0  0  0  0  0  0  0  0  0
  -20.6430  -28.3580   23.0920 C   0  0  0  0  0  3  0  0  0  0  0  0
  -20.7110  -26.9490   22.4590 C   0  0  0  0  0  2  0  0  0  0  0  0
  -19.5800  -26.6810   21.4600 C   0  0  0  0  0  2  0  0  0  0  0  0
  -18.2160  -26.8200   22.1420 C   0  0  0  0  0  2  0  0  0  0  0  0
  -19.2140  -28.8740   23.3060 C   0  0  0  0  0  0  0  0  0  0  0  0
  -19.0290  -30.1150   23.9530 C   0  0  0  0  0  3  0  0  0  0  0  0
  -17.7350  -30.6260   24.1710 C   0  0  0  0  0  3  0  0  0  0  0  0
  -16.6100  -29.8930   23.7540 C   0  0  0  0  0  3  0  0  0  0  0  0
  -16.7820  -28.6530   23.1120 C   0  0  0  0  0  3  0  0  0  0  0  0
  -25.8170  -32.6180   23.8520 C   0  0  0  0  0  3  0  0  0  0  0  0
  -26.2940  -31.8840   25.1650 C   0  0  1  0  0  0  0  0  0  0  0  0
  -25.1630  -31.6460   26.1920 C   0  0  0  0  0  1  0  0  0  0  0  0
  -26.9200  -30.5110   24.8260 C   0  0  0  0  0  1  0  0  0  0  0  0
  -27.4040  -32.7120   25.8550 C   0  0  0  0  0  1  0  0  0  0  0  0
  -25.4760  -34.0180   24.1390 N   0  0  0  0  0  0  0  0  0  0  0  0
  -25.8230  -35.0600   23.3730 C   0  0  0  0  0  0  0  0  0  0  0  0
  -26.5320  -34.9470   22.3690 O   0  0  0  0  0  0  0  0  0  0  0  0
  -24.8480  -34.1810   24.9130 H   0  0  0  0  0  0  0  0  0  0  0  0
  -24.0970  -36.8300   22.9090 C   0  0  0  0  0  1  0  0  0  0  0  0
  -25.3020  -36.4520   23.7850 C   0  0  0  0  0  3  0  0  0  0  0  0
  -27.3770  -37.3770   24.7140 C   0  0  0  0  0  1  0  0  0  0  0  0
  -26.3290  -37.5120   23.7070 N   0  0  0  0  0  0  0  0  0  0  0  0
  -25.9060  -38.4320   23.8110 H   0  0  0  0  0  0  0  0  0  0  0  0
  1  3  1  0
  2  1  1  0
  5 14  1  0
  5  1  1  0
  5  4  1  0
  6 18  1  0
  7 12  1  0
  8  9  1  0
  8  7  1  0
 10  9  1  0
 10 24  1  0
 10 11  1  0
 12  6  1  0
 12 11  1  0
 13  6  2  0
 14 16  2  0
 15 17  2  0
 15 18  1  0
 16 17  1  0
 18 20  1  0
 19 14  1  0
 19 15  1  0
 21 22  2  0
 22 41  1  0
 23 22  1  0
 23 26  1  0
 24 25  1  0
 24 21  1  0
 25 23  2  0
 26 27  1  0
 27 28  2  0
 29 32  1  0
 29 28  1  0
 30 29  2  0
 31 30  1  0
 31 26  2  0
 32 33  1  0
 33 34  1  0
 34 35  2  0
 36 35  1  0
 36 40  1  0
 37 36  2  0
 38 33  2  0
 38 37  1  0
 39 38  1  0
 41 42  1  0
 42 45  1  0
 42 44  1  0
 43 41  2  0
 46 47  1  0
 46 21  1  0
 48 46  1  0
 49 51  1  0
 49  1  1  0
 49 52  1  0
 50 51  1  0
 53 55  1  0
 53 52  1  0
 54 65  2  0
 55 60  1  0
 56 64  1  0
 56 66  1  0
 57 63  1  0
 57 59  1  0
 58 64  1  0
 59 60  2  0
 59 58  1  0
 61 55  2  0
 62 61  1  0
 62 57  2  0
 63 56  1  0
 64 54  1  0
 66 68  2  0
 67 66  1  0
 69 67  1  0
 70 79  2  0
 70 75  1  0
 71 67  1  0
 71 75  1  0
 72 71  1  0
 73 74  1  0
 73 72  1  0
 74 70  1  0
 75 76  2  0
 76 77  1  0
 78 77  2  0
 79 78  1  0
 80 54  1  0
 80 85  1  0
 80 81  1  0
 81 84  1  1
 81 82  1  0
 83 81  1  0
 85 88  1  0
 86 90  1  0
 86 85  1  0
 87 86  2  0
 90 89  1  0
 92 90  1  0
 92 93  1  0
 92 91  1  0
M  ISO  4   6 100  18 100  52 101  53 101
M  END
>  <TORSDO>  (46) 
F 20

>  <SCORE>  (46) 
-13.222

>  <name>  (46) 
45

>  <ligand_id>  (46) 
45

>  <original_smiles>  (46) 
[H]c1c([H])c([H])c2c(c1[H])C([H])([H])C([H])([H])C([H])([H])C2([H])N([H])C(=O)C1([H])N(C(=O)C([H])(N([H])C(=O)C([H])(N([H])C([H])([H])[H])C([H])([H])[H])C(C([H])([H])[H])(C([H])([H])[H])C([H])([H])[H])C([H])([H])c2c([H])c(OC([H])([H])C([H])(C([H])([H])C([H])([H])[H])[N+]([H])([H])C([H])(c3nnc(N([H])C(=O)N4C([H])([H])C([H])([H])C([H])([H])C([H])(n5nc(-c6c([H])c([H])c(Oc7c([H])c([H])c(F)c([H])c7F)c([H])c6[H])c(C(=O)N([H])[H])c5N([H])[H])C4([H])[H])s3)C([H])([H])[H])c([H])c([H])c2C1([H])[H]

>  <smiles>  (46) 
[H]c1c([H])c([H])c2c(c1[H])C([H])([H])C([H])([H])C([H])([H])C2([H])N([H])C(=O)C1([H])N(C(=O)C([H])(N([H])C(=O)C([H])(N([H])C([H])([H])[H])C([H])([H])[H])C(C([H])([H])[H])(C([H])([H])[H])C([H])([H])[H])C([H])([H])c2c([H])c(OC([H])([H])C([H])(C([H])([H])C([H])([H])[H])[N+]([H])([H])C([H])(c3nnc(N([H])C(=O)N4C([H])([H])C([H])([H])C([H])([H])C([H])(n5nc(-c6c([H])c([H])c(Oc7c([H])c([H])c(F)c([H])c7F)c([H])c6[H])c(C(=O)N([H])[H])c5N([H])[H])C4([H])[H])s3)C([H])([H])[H])c([H])c([H])c2C1([H])[H]

$$$$
46:0:0
     RDKit          3D

 99107  0  0  1  0  0  0  0  0999 V2000
  -30.2980  -21.2870   20.3650 C   0  0  0  0  0  3  0  0  0  0  0  0
  -30.8170  -19.1020   21.8300 C   0  0  0  0  0  3  0  0  0  0  0  0
  -29.7030  -18.6030   20.0490 C   0  0  0  0  0  3  0  0  0  0  0  0
  -30.2000  -19.7320   20.7010 C   0  0  0  0  0  0  0  0  0  0  0  0
  -30.7470  -17.7670   21.8400 N   0  0  0  0  0  0  0  0  0  0  0  0
  -30.0810  -17.4120   20.7170 N   0  0  0  0  0  0  0  0  0  0  0  0
  -29.6160  -15.9800   20.5300 C   0  0  0  0  0  2  0  0  0  0  0  0
  -30.5650  -14.7000   20.3450 C   0  0  0  0  0  0  0  0  0  0  0  0
  -30.3820  -12.4630   19.2520 C   0  0  0  0  0  2  0  0  0  0  0  0
  -29.4140  -12.6190   18.0530 C   0  0  0  0  0  2  0  0  0  0  0  0
  -27.9420  -12.4580   18.4910 C   0  0  0  0  0  2  0  0  0  0  0  0
  -27.6080  -13.2920   19.7550 C   0  0  0  0  0  3  0  0  0  0  0  0
  -28.6810  -13.0910   20.8470 C   0  0  0  0  0  2  0  0  0  0  0  0
  -29.9850  -13.4530   20.2750 N   0  0  0  0  0  0  0  0  0  0  0  0
  -31.7500  -14.8470   20.0220 O   0  0  0  0  0  0  0  0  0  0  0  0
  -25.2290  -13.9130   20.5010 C   0  0  0  0  0  0  0  0  0  0  0  0
  -24.1580  -13.1480   20.8750 C   0  0  0  0  0  0  0  0  0  0  0  0
  -24.6080  -11.7920   20.8330 C   0  0  0  0  0  0  0  0  0  0  0  0
  -26.2620  -13.0220   20.2500 N   0  0  0  0  0  0  0  0  0  0  0  0
  -25.8950  -11.7430   20.5120 N   0  0  0  0  0  0  0  0  0  0  0  0
  -23.8720  -10.5360   21.0220 C   0  0  0  0  0  0  0  0  0  0  0  0
  -24.2950   -9.5660   21.9550 C   0  0  0  0  0  3  0  0  0  0  0  0
  -23.5600   -8.3750   22.1330 C   0  0  0  0  0  3  0  0  0  0  0  0
  -22.3870   -8.1450   21.3740 C   0  0  0  0  0  0  0  0  0  0  0  0
  -21.9830   -9.1040   20.4290 C   0  0  0  0  0  3  0  0  0  0  0  0
  -22.7190  -10.2880   20.2510 C   0  0  0  0  0  3  0  0  0  0  0  0
  -21.6250   -7.0060   21.4610 O   0  0  0  0  0  0  0  0  0  0  0  0
  -21.5550   -6.2720   22.6160 C   0  0  0  0  0  0  0  0  0  0  0  0
  -21.1020   -6.8340   23.8290 C   0  0  0  0  0  3  0  0  0  0  0  0
  -20.9800   -6.0270   24.9780 C   0  0  0  0  0  3  0  0  0  0  0  0
  -21.3020   -4.6580   24.9140 C   0  0  0  0  0  0  0  0  0  0  0  0
  -21.7500   -4.0950   23.7060 C   0  0  0  0  0  3  0  0  0  0  0  0
  -21.8730   -4.9000   22.5600 C   0  0  0  0  0  0  0  0  0  0  0  0
  -22.2840   -4.3490   21.3920 F   0  0  0  0  0  0  0  0  0  0  0  0
  -21.1790   -3.8800   26.0140 F   0  0  0  0  0  0  0  0  0  0  0  0
  -22.7680  -13.6360   21.1620 C   0  0  0  0  0  0  0  0  0  0  0  0
  -22.0440  -12.9410   22.0340 N   0  0  0  0  0  0  0  0  0  0  0  0
  -22.3340  -14.6680   20.6510 O   0  0  0  0  0  0  0  0  0  0  0  0
  -22.4100  -12.1050   22.4660 H   0  0  0  0  0  0  0  0  0  0  0  0
  -21.1130  -13.2480   22.2730 H   0  0  0  0  0  0  0  0  0  0  0  0
  -25.4030  -15.2830   20.3320 N   0  0  0  0  0  0  0  0  0  0  0  0
  -24.6400  -15.9410   20.4550 H   0  0  0  0  0  0  0  0  0  0  0  0
  -26.2530  -15.7240   20.0030 H   0  0  0  0  0  0  0  0  0  0  0  0
  -31.0520  -21.4730   19.0980 N   0  0  0  0  0  4  0  0  0  0  0  0
  -31.2500  -22.4590   18.9900 H   0  0  0  0  0  0  0  0  0  0  0  0
  -30.4890  -21.1750   18.3220 H   0  0  0  0  0  0  0  0  0  0  0  0
  -32.3950  -20.8440   19.0220 C   0  0  0  0  0  3  0  0  0  0  0  0
  -33.3890  -21.9350   19.4600 C   0  0  0  0  0  0  0  0  0  0  0  0
  -33.0920  -23.1340   19.4300 O   0  0  0  0  0  0  0  0  0  0  0  0
  -35.7040  -22.6430   20.3470 C   0  0  0  0  0  1  0  0  0  0  0  0
  -34.7810  -21.4840   19.9220 C   0  0  0  0  0  2  0  0  0  0  0  0
  -32.7160  -20.3640   17.5830 C   0  0  0  0  0  2  0  0  0  0  0  0
  -32.1590  -17.8620   17.7010 C   0  0  0  0  0  1  0  0  0  0  0  0
  -31.9420  -19.1000   15.5220 C   0  0  0  0  0  1  0  0  0  0  0  0
  -31.8250  -19.2150   17.0500 C   0  0  0  0  0  3  0  0  0  0  0  0
  -29.0290  -22.2800   20.3930 C   0  0  0  0  0  2  0  0  0  0  0  0
  -29.3060  -23.8800   20.4210 C   0  0  0  0  0  3  0  0  0  0  0  0
  -28.1160  -24.9290   20.1540 C   0  0  0  0  0  3  0  0  0  0  0  0
  -28.3330  -26.4030   20.2810 O   0  0  0  0  0  0  0  0  0  0  0  0
  -24.6250  -31.8830   23.2360 C   0  0  0  0  0  0  0  0  0  0  0  0
  -27.2180  -27.2690   20.2190 C   0  0  0  0  0  0  0  0  0  0  0  0
  -23.4130  -30.4740   21.6110 C   0  0  0  0  0  3  0  0  0  0  0  0
  -24.8580  -28.9070   20.1940 C   0  0  0  0  0  0  0  0  0  0  0  0
  -25.9570  -30.7770   21.4240 C   0  0  0  0  0  2  0  0  0  0  0  0
  -26.0310  -29.3920   20.7850 C   0  0  0  0  0  0  0  0  0  0  0  0
  -27.2120  -28.5860   20.7850 C   0  0  0  0  0  3  0  0  0  0  0  0
  -26.0160  -26.8430   19.6070 C   0  0  0  0  0  3  0  0  0  0  0  0
  -24.8550  -27.6380   19.5960 C   0  0  0  0  0  3  0  0  0  0  0  0
  -23.6230  -29.7870   20.2360 C   0  0  0  0  0  2  0  0  0  0  0  0
  -24.6840  -31.0610   22.1470 N   0  0  0  0  0  0  0  0  0  0  0  0
  -23.5430  -32.1720   23.7700 O   0  0  0  0  0  0  0  0  0  0  0  0
  -22.7500  -29.4670   22.5820 C   0  0  0  0  0  0  0  0  0  0  0  0
  -21.4260  -29.2760   22.4470 N   0  0  0  0  0  0  0  0  0  0  0  0
  -23.4240  -28.8610   23.4190 O   0  0  0  0  0  0  0  0  0  0  0  0
  -20.9410  -29.8200   21.7460 H   0  0  0  0  0  0  0  0  0  0  0  0
  -18.0540  -28.0510   22.9180 C   0  0  0  0  0  0  0  0  0  0  0  0
  -20.6060  -28.3460   23.2230 C   0  0  0  0  0  3  0  0  0  0  0  0
  -20.7330  -26.9040   22.6820 C   0  0  0  0  0  2  0  0  0  0  0  0
  -19.6520  -26.5440   21.6590 C   0  0  0  0  0  2  0  0  0  0  0  0
  -18.2580  -26.6880   22.2760 C   0  0  0  0  0  2  0  0  0  0  0  0
  -19.1580  -28.8340   23.3480 C   0  0  0  0  0  0  0  0  0  0  0  0
  -18.9170  -30.1070   23.9100 C   0  0  0  0  0  3  0  0  0  0  0  0
  -17.6040  -30.5970   24.0450 C   0  0  0  0  0  3  0  0  0  0  0  0
  -16.5150  -29.8100   23.6350 C   0  0  0  0  0  3  0  0  0  0  0  0
  -16.7410  -28.5390   23.0750 C   0  0  0  0  0  3  0  0  0  0  0  0
  -25.9090  -32.5200   23.8480 C   0  0  0  0  0  3  0  0  0  0  0  0
  -25.5960  -33.9160   24.1880 N   0  0  0  0  0  0  0  0  0  0  0  0
  -25.9020  -34.9730   23.4240 C   0  0  0  0  0  0  0  0  0  0  0  0
  -26.5460  -34.8760   22.3760 O   0  0  0  0  0  0  0  0  0  0  0  0
  -25.0180  -34.0640   25.0020 H   0  0  0  0  0  0  0  0  0  0  0  0
  -24.1420  -36.7470   23.1300 C   0  0  0  0  0  1  0  0  0  0  0  0
  -25.4160  -36.3570   23.8980 C   0  0  0  0  0  3  0  0  0  0  0  0
  -27.5650  -37.2650   24.6600 C   0  0  0  0  0  1  0  0  0  0  0  0
  -26.4330  -37.4200   23.7510 N   0  0  0  0  0  0  0  0  0  0  0  0
  -26.0220  -38.3360   23.9090 H   0  0  0  0  0  0  0  0  0  0  0  0
  -26.4410  -31.7480   25.1180 C   0  0  1  0  0  0  0  0  0  0  0  0
  -25.3550  -31.5000   26.1930 C   0  0  0  0  0  1  0  0  0  0  0  0
  -27.0300  -30.3750   24.7180 C   0  0  0  0  0  1  0  0  0  0  0  0
  -27.5920  -32.5440   25.7730 C   0  0  0  0  0  1  0  0  0  0  0  0
  1 56  1  0
  1  4  1  0
  2  5  2  0
  3  4  2  0
  3  6  1  0
  4  2  1  0
  6  5  1  0
  7  6  1  0
  8  7  1  0
  9 14  1  0
 10 11  1  0
 10  9  1  0
 12 11  1  0
 12 19  1  0
 12 13  1  0
 14  8  1  0
 14 13  1  0
 15  8  2  0
 16 17  2  0
 17 36  1  0
 18 17  1  0
 18 21  1  0
 19 16  1  0
 19 20  1  0
 20 18  2  0
 21 22  1  0
 22 23  2  0
 24 27  1  0
 24 23  1  0
 25 24  2  0
 26 25  1  0
 26 21  2  0
 27 28  1  0
 28 29  1  0
 29 30  2  0
 31 30  1  0
 31 35  1  0
 32 31  2  0
 33 28  2  0
 33 32  1  0
 34 33  1  0
 36 37  1  0
 37 40  1  0
 37 39  1  0
 38 36  2  0
 41 42  1  0
 41 16  1  0
 43 41  1  0
 44  1  1  0
 45 44  1  0
 46 44  1  0
 47 52  1  0
 47 44  1  0
 47 48  1  0
 48 51  1  0
 49 48  2  0
 51 50  1  0
 54 55  1  0
 55 52  1  0
 55 53  1  0
 56 57  1  0
 58 59  1  0
 58 57  2  0
 60 71  2  0
 61 59  1  0
 61 66  1  0
 62 70  1  0
 62 72  1  0
 63 69  1  0
 63 65  1  0
 64 70  1  0
 65 66  2  0
 65 64  1  0
 67 61  2  0
 68 67  1  0
 68 63  2  0
 69 62  1  0
 70 60  1  0
 72 74  2  0
 73 72  1  0
 75 73  1  0
 76 85  2  0
 76 81  1  0
 77 73  1  0
 77 81  1  0
 78 77  1  0
 79 80  1  0
 79 78  1  0
 80 76  1  0
 81 82  2  0
 82 83  1  0
 84 83  2  0
 85 84  1  0
 86 60  1  0
 86 87  1  0
 86 96  1  0
 87 90  1  0
 88 92  1  0
 88 87  1  0
 89 88  2  0
 92 91  1  0
 94 92  1  0
 94 95  1  0
 94 93  1  0
 96 99  1  1
 96 97  1  0
 98 96  1  0
M  ISO  4   7 100   8 100  58 101  59 101
M  END
>  <TORSDO>  (47) 
F 27

>  <SCORE>  (47) 
-11.876

>  <name>  (47) 
46

>  <ligand_id>  (47) 
46

>  <original_smiles>  (47) 
[H]c1nn(C([H])([H])C(=O)N2C([H])([H])C([H])([H])C([H])([H])C([H])(n3nc(-c4c([H])c([H])c(Oc5c([H])c([H])c(F)c([H])c5F)c([H])c4[H])c(C(=O)N([H])[H])c3N([H])[H])C2([H])[H])c([H])c1C([H])(C([H])([H])C([H])([H])C([H])([H])Oc1c([H])c([H])c2c(c1[H])C([H])([H])N(C(=O)C([H])(N([H])C(=O)C([H])(N([H])C([H])([H])[H])C([H])([H])[H])C(C([H])([H])[H])(C([H])([H])[H])C([H])([H])[H])C([H])(C(=O)N([H])C1([H])c3c([H])c([H])c([H])c([H])c3C([H])([H])C([H])([H])C1([H])[H])C2([H])[H])[N+]([H])([H])C([H])(C(=O)C([H])([H])C([H])([H])[H])C([H])([H])C([H])(C([H])([H])[H])C([H])([H])[H]

>  <smiles>  (47) 
[H]c1nn(C([H])([H])C(=O)N2C([H])([H])C([H])([H])C([H])([H])C([H])(n3nc(-c4c([H])c([H])c(Oc5c([H])c([H])c(F)c([H])c5F)c([H])c4[H])c(C(=O)N([H])[H])c3N([H])[H])C2([H])[H])c([H])c1C([H])(C([H])([H])C([H])([H])C([H])([H])Oc1c([H])c([H])c2c(c1[H])C([H])([H])N(C(=O)C([H])(N([H])C(=O)C([H])(N([H])C([H])([H])[H])C([H])([H])[H])C(C([H])([H])[H])(C([H])([H])[H])C([H])([H])[H])C([H])(C(=O)N([H])C1([H])c3c([H])c([H])c([H])c([H])c3C([H])([H])C([H])([H])C1([H])[H])C2([H])[H])[N+]([H])([H])C([H])(C(=O)C([H])([H])C([H])([H])[H])C([H])([H])C([H])(C([H])([H])[H])C([H])([H])[H]

$$$$
47:0:0
     RDKit          3D

104112  0  0  1  0  0  0  0  0999 V2000
  -30.2380  -19.4690   18.5720 C   0  0  0  0  0  3  0  0  0  0  0  0
  -30.8290  -17.3750   22.2550 C   0  0  0  0  0  3  0  0  0  0  0  0
  -30.4590  -18.7990   19.9560 C   0  0  0  0  0  0  0  0  0  0  0  0
  -30.3610  -16.7390   21.0840 C   0  0  0  0  0  0  0  0  0  0  0  0
  -30.9850  -19.3960   21.1460 C   0  0  0  0  0  0  0  0  0  0  0  0
  -31.1460  -18.6880   22.2850 N   0  0  0  0  0  0  0  0  0  0  0  0
  -30.1600  -17.4670   19.9500 N   0  0  0  0  0  0  0  0  0  0  0  0
  -31.4150  -20.7090   21.2760 N   0  0  0  0  0  0  0  0  0  0  0  0
  -31.6340  -21.2530   20.4530 H   0  0  0  0  0  0  0  0  0  0  0  0
  -31.9760  -20.9470   22.0840 H   0  0  0  0  0  0  0  0  0  0  0  0
  -30.6860  -14.4030   20.4310 C   0  0  0  0  0  0  0  0  0  0  0  0
  -30.3320  -12.2820   19.2250 C   0  0  0  0  0  2  0  0  0  0  0  0
  -29.3990  -12.5590   18.0310 C   0  0  0  0  0  2  0  0  0  0  0  0
  -27.9230  -12.4410   18.4600 C   0  0  0  0  0  2  0  0  0  0  0  0
  -27.6070  -13.2390   19.7550 C   0  0  0  0  0  3  0  0  0  0  0  0
  -28.6600  -12.9550   20.8480 C   0  0  0  0  0  2  0  0  0  0  0  0
  -29.9930  -13.2390   20.2910 N   0  0  0  0  0  0  0  0  0  0  0  0
  -31.7740  -14.6060   19.8800 O   0  0  0  0  0  0  0  0  0  0  0  0
  -30.0840  -15.3540   21.1600 N   0  0  0  0  0  0  0  0  0  0  0  0
  -29.3100  -15.0700   21.7410 H   0  0  0  0  0  0  0  0  0  0  0  0
  -25.2100  -13.8680   20.4510 C   0  0  0  0  0  0  0  0  0  0  0  0
  -24.1370  -13.1070   20.8290 C   0  0  0  0  0  0  0  0  0  0  0  0
  -24.5880  -11.7510   20.8050 C   0  0  0  0  0  0  0  0  0  0  0  0
  -26.2500  -12.9790   20.2310 N   0  0  0  0  0  0  0  0  0  0  0  0
  -25.8790  -11.7010   20.4970 N   0  0  0  0  0  0  0  0  0  0  0  0
  -23.8530  -10.4940   21.0030 C   0  0  0  0  0  0  0  0  0  0  0  0
  -24.2820   -9.5310   21.9420 C   0  0  0  0  0  3  0  0  0  0  0  0
  -23.5500   -8.3380   22.1300 C   0  0  0  0  0  3  0  0  0  0  0  0
  -22.3730   -8.1010   21.3810 C   0  0  0  0  0  0  0  0  0  0  0  0
  -21.9640   -9.0540   20.4320 C   0  0  0  0  0  3  0  0  0  0  0  0
  -22.6970  -10.2380   20.2400 C   0  0  0  0  0  3  0  0  0  0  0  0
  -21.6140   -6.9590   21.4760 O   0  0  0  0  0  0  0  0  0  0  0  0
  -21.5660   -6.2220   22.6310 C   0  0  0  0  0  0  0  0  0  0  0  0
  -21.1500   -6.7830   23.8580 C   0  0  0  0  0  3  0  0  0  0  0  0
  -21.0460   -5.9700   25.0040 C   0  0  0  0  0  3  0  0  0  0  0  0
  -21.3530   -4.5980   24.9240 C   0  0  0  0  0  0  0  0  0  0  0  0
  -21.7650   -4.0370   23.7020 C   0  0  0  0  0  3  0  0  0  0  0  0
  -21.8670   -4.8470   22.5570 C   0  0  0  0  0  0  0  0  0  0  0  0
  -22.2410   -4.2980   21.3780 F   0  0  0  0  0  0  0  0  0  0  0  0
  -21.2480   -3.8150   26.0230 F   0  0  0  0  0  0  0  0  0  0  0  0
  -22.7420  -13.5930   21.0980 C   0  0  0  0  0  0  0  0  0  0  0  0
  -22.0060  -12.9070   21.9670 N   0  0  0  0  0  0  0  0  0  0  0  0
  -22.3110  -14.6170   20.5690 O   0  0  0  0  0  0  0  0  0  0  0  0
  -22.3700  -12.0810   22.4180 H   0  0  0  0  0  0  0  0  0  0  0  0
  -21.0670  -13.2100   22.1780 H   0  0  0  0  0  0  0  0  0  0  0  0
  -25.3850  -15.2380   20.2630 N   0  0  0  0  0  0  0  0  0  0  0  0
  -24.6210  -15.8980   20.3630 H   0  0  0  0  0  0  0  0  0  0  0  0
  -26.2450  -15.6710   19.9520 H   0  0  0  0  0  0  0  0  0  0  0  0
  -29.0330  -18.9000   17.9410 N   0  0  0  0  0  4  0  0  0  0  0  0
  -28.1930  -19.2480   18.3670 H   0  0  0  0  0  0  0  0  0  0  0  0
  -29.0720  -17.9090   18.1040 H   0  0  0  0  0  0  0  0  0  0  0  0
  -29.0100  -19.0740   16.9530 H   0  0  0  0  0  0  0  0  0  0  0  0
  -30.2970  -21.0320   18.3820 C   0  0  0  0  0  3  0  0  0  0  0  0
  -30.6540  -21.3800   16.8960 C   0  0  0  0  0  2  0  0  0  0  0  0
  -32.4320  -23.2240   17.2820 C   0  0  0  0  0  1  0  0  0  0  0  0
  -32.4420  -21.8760   15.1640 C   0  0  0  0  0  1  0  0  0  0  0  0
  -32.1140  -21.8480   16.6650 C   0  0  0  0  0  3  0  0  0  0  0  0
  -29.0690  -21.8140   18.9670 C   0  0  0  0  0  2  0  0  0  0  0  0
  -28.9410  -23.3060   18.5370 C   0  0  0  0  0  3  0  0  0  0  0  0
  -28.0070  -23.3810   17.4720 O   0  0  0  0  0  0  0  0  0  0  0  0
  -28.3870  -22.9640   16.7060 H   0  0  0  0  0  0  0  0  0  0  0  0
  -28.4870  -24.3100   19.6220 C   0  0  0  0  0  2  0  0  0  0  0  0
  -28.6590  -25.7730   19.1410 C   0  0  0  0  0  2  0  0  0  0  0  0
  -28.3940  -26.7490   20.1510 O   0  0  0  0  0  0  0  0  0  0  0  0
  -24.5600  -31.8720   23.2240 C   0  0  0  0  0  0  0  0  0  0  0  0
  -27.1970  -27.4330   20.1380 C   0  0  0  0  0  0  0  0  0  0  0  0
  -23.3470  -30.4730   21.5780 C   0  0  0  0  0  3  0  0  0  0  0  0
  -24.7950  -28.9280   20.1580 C   0  0  0  0  0  0  0  0  0  0  0  0
  -25.8700  -30.8300   21.3760 C   0  0  0  0  0  2  0  0  0  0  0  0
  -25.9510  -29.4540   20.7470 C   0  0  0  0  0  0  0  0  0  0  0  0
  -27.1500  -28.7090   20.7410 C   0  0  0  0  0  3  0  0  0  0  0  0
  -26.0170  -26.9110   19.5580 C   0  0  0  0  0  3  0  0  0  0  0  0
  -24.8220  -27.6550   19.5630 C   0  0  0  0  0  3  0  0  0  0  0  0
  -23.5530  -29.7900   20.2000 C   0  0  0  0  0  2  0  0  0  0  0  0
  -24.6110  -31.0730   22.1190 N   0  0  0  0  0  0  0  0  0  0  0  0
  -23.4780  -32.1480   23.7640 O   0  0  0  0  0  0  0  0  0  0  0  0
  -22.6930  -29.4560   22.5410 C   0  0  0  0  0  0  0  0  0  0  0  0
  -21.3680  -29.2850   22.4160 N   0  0  0  0  0  0  0  0  0  0  0  0
  -23.3740  -28.8240   23.3520 O   0  0  0  0  0  0  0  0  0  0  0  0
  -20.8810  -29.8560   21.7400 H   0  0  0  0  0  0  0  0  0  0  0  0
  -17.9850  -28.1130   22.9160 C   0  0  0  0  0  0  0  0  0  0  0  0
  -20.5450  -28.3500   23.1850 C   0  0  0  0  0  3  0  0  0  0  0  0
  -20.6320  -26.9200   22.6060 C   0  0  0  0  0  2  0  0  0  0  0  0
  -19.5270  -26.6070   21.5910 C   0  0  0  0  0  2  0  0  0  0  0  0
  -18.1480  -26.7630   22.2400 C   0  0  0  0  0  2  0  0  0  0  0  0
  -19.1110  -28.8640   23.3470 C   0  0  0  0  0  0  0  0  0  0  0  0
  -18.9060  -30.1270   23.9430 C   0  0  0  0  0  3  0  0  0  0  0  0
  -17.6060  -30.6410   24.1100 C   0  0  0  0  0  3  0  0  0  0  0  0
  -16.4940  -29.8880   23.6960 C   0  0  0  0  0  3  0  0  0  0  0  0
  -16.6840  -28.6260   23.1050 C   0  0  0  0  0  3  0  0  0  0  0  0
  -25.8490  -32.4960   23.8460 C   0  0  0  0  0  3  0  0  0  0  0  0
  -26.3650  -31.7210   25.1200 C   0  0  1  0  0  0  0  0  0  0  0  0
  -25.2740  -31.4880   26.1920 C   0  0  0  0  0  1  0  0  0  0  0  0
  -26.9410  -30.3420   24.7220 C   0  0  0  0  0  1  0  0  0  0  0  0
  -27.5200  -32.5090   25.7820 C   0  0  0  0  0  1  0  0  0  0  0  0
  -25.5470  -33.8960   24.1740 N   0  0  0  0  0  0  0  0  0  0  0  0
  -25.8870  -34.9460   23.4150 C   0  0  0  0  0  0  0  0  0  0  0  0
  -26.5600  -34.8370   22.3850 O   0  0  0  0  0  0  0  0  0  0  0  0
  -24.9510  -34.0560   24.9730 H   0  0  0  0  0  0  0  0  0  0  0  0
  -24.1720  -36.7490   23.0480 C   0  0  0  0  0  1  0  0  0  0  0  0
  -25.4050  -36.3360   23.8670 C   0  0  0  0  0  3  0  0  0  0  0  0
  -27.5400  -37.2090   24.7100 C   0  0  0  0  0  1  0  0  0  0  0  0
  -26.4440  -37.3840   23.7610 N   0  0  0  0  0  0  0  0  0  0  0  0
  -26.0410  -38.3060   23.9040 H   0  0  0  0  0  0  0  0  0  0  0  0
  1 49  1  0
  1  3  1  0
  2  6  1  0
  3  5  1  0
  4 19  1  0
  4  2  2  0
  5  8  1  0
  5  6  2  0
  7  3  2  0
  7  4  1  0
  8 10  1  0
  9  8  1  0
 11 19  1  0
 12 17  1  0
 13 14  1  0
 13 12  1  0
 15 14  1  0
 15 24  1  0
 15 16  1  0
 17 11  1  0
 17 16  1  0
 18 11  2  0
 19 20  1  0
 21 22  2  0
 22 41  1  0
 23 22  1  0
 23 26  1  0
 24 21  1  0
 24 25  1  0
 25 23  2  0
 26 27  1  0
 27 28  2  0
 29 32  1  0
 29 28  1  0
 30 29  2  0
 31 30  1  0
 31 26  2  0
 32 33  1  0
 33 34  1  0
 34 35  2  0
 36 35  1  0
 36 40  1  0
 37 36  2  0
 38 33  2  0
 38 37  1  0
 39 38  1  0
 41 42  1  0
 42 45  1  0
 42 44  1  0
 43 41  2  0
 46 47  1  0
 46 21  1  0
 48 46  1  0
 49 51  1  0
 49 50  1  0
 52 49  1  0
 53 54  1  0
 53  1  1  0
 53 58  1  0
 56 57  1  0
 57 54  1  0
 57 55  1  0
 59 58  1  0
 59 62  1  0
 60 59  1  0
 61 60  1  0
 63 62  1  0
 63 64  1  0
 65 76  2  0
 66 64  1  0
 66 71  1  0
 67 75  1  0
 67 77  1  0
 68 74  1  0
 68 70  1  0
 69 75  1  0
 70 69  1  0
 71 70  2  0
 72 73  1  0
 72 66  2  0
 73 68  2  0
 74 67  1  0
 75 65  1  0
 77 79  2  0
 78 77  1  0
 80 78  1  0
 81 90  2  0
 81 86  1  0
 82 78  1  0
 82 86  1  0
 83 82  1  0
 84 85  1  0
 84 83  1  0
 85 81  1  0
 86 87  2  0
 87 88  1  0
 89 88  2  0
 90 89  1  0
 91 65  1  0
 91 96  1  0
 91 92  1  0
 92 95  1  1
 92 93  1  0
 94 92  1  0
 96 99  1  0
 97101  1  0
 97 96  1  0
 98 97  2  0
101100  1  0
103101  1  0
103104  1  0
103102  1  0
M  ISO  4  11 100  19 100  63 101  64 101
M  END
>  <TORSDO>  (48) 
F 26

>  <SCORE>  (48) 
-12.495

>  <name>  (48) 
47

>  <ligand_id>  (48) 
47

>  <original_smiles>  (48) 
[H]OC([H])(C([H])([H])C([H])([H])Oc1c([H])c([H])c2c(c1[H])C([H])([H])N(C(=O)C([H])(N([H])C(=O)C([H])(N([H])C([H])([H])[H])C([H])([H])[H])C(C([H])([H])[H])(C([H])([H])[H])C([H])([H])[H])C([H])(C(=O)N([H])C1([H])c3c([H])c([H])c([H])c([H])c3C([H])([H])C([H])([H])C1([H])[H])C2([H])[H])C([H])([H])C([H])(C([H])([H])C([H])(C([H])([H])[H])C([H])([H])[H])C([H])(c1nc(N([H])C(=O)N2C([H])([H])C([H])([H])C([H])([H])C([H])(n3nc(-c4c([H])c([H])c(Oc5c([H])c([H])c(F)c([H])c5F)c([H])c4[H])c(C(=O)N([H])[H])c3N([H])[H])C2([H])[H])c([H])nc1N([H])[H])[N+]([H])([H])[H]

>  <smiles>  (48) 
[H]OC([H])(C([H])([H])C([H])([H])Oc1c([H])c([H])c2c(c1[H])C([H])([H])N(C(=O)C([H])(N([H])C(=O)C([H])(N([H])C([H])([H])[H])C([H])([H])[H])C(C([H])([H])[H])(C([H])([H])[H])C([H])([H])[H])C([H])(C(=O)N([H])C1([H])c3c([H])c([H])c([H])c([H])c3C([H])([H])C([H])([H])C1([H])[H])C2([H])[H])C([H])([H])C([H])(C([H])([H])C([H])(C([H])([H])[H])C([H])([H])[H])C([H])(c1nc(N([H])C(=O)N2C([H])([H])C([H])([H])C([H])([H])C([H])(n3nc(-c4c([H])c([H])c(Oc5c([H])c([H])c(F)c([H])c5F)c([H])c4[H])c(C(=O)N([H])[H])c3N([H])[H])C2([H])[H])c([H])nc1N([H])[H])[N+]([H])([H])[H]

$$$$
48:0:0
     RDKit          3D

 97105  0  0  1  0  0  0  0  0999 V2000
  -30.6580  -14.7700   20.4260 C   0  0  0  0  0  0  0  0  0  0  0  0
  -30.4200  -12.4720   19.4730 C   0  0  0  0  0  2  0  0  0  0  0  0
  -29.5090  -12.4920   18.2300 C   0  0  0  0  0  2  0  0  0  0  0  0
  -28.0350  -12.3230   18.6510 C   0  0  0  0  0  2  0  0  0  0  0  0
  -27.6330  -13.2410   19.8370 C   0  0  0  0  0  3  0  0  0  0  0  0
  -28.6800  -13.2310   20.9650 C   0  0  0  0  0  2  0  0  0  0  0  0
  -29.9650  -13.5780   20.3510 N   0  0  0  0  0  0  0  0  0  0  0  0
  -31.8820  -14.7410   20.2750 O   0  0  0  0  0  0  0  0  0  0  0  0
  -27.6440  -18.9010   21.7360 C   0  0  0  0  0  3  0  0  0  0  0  0
  -27.6160  -17.5560   22.1220 C   0  0  0  0  0  0  0  0  0  0  0  0
  -28.6410  -19.3490   20.8480 C   0  0  0  0  0  0  0  0  0  0  0  0
  -29.3370  -17.0260   20.7350 C   0  0  0  0  0  0  0  0  0  0  0  0
  -28.4500  -16.6360   21.6400 N   0  0  0  0  0  0  0  0  0  0  0  0
  -29.4550  -18.3460   20.3290 N   0  0  0  0  0  0  0  0  0  0  0  0
  -28.7540  -20.7460   20.4050 N   0  0  0  0  0  0  0  0  0  0  0  0
  -30.0580  -15.9820   20.0880 N   0  0  0  0  0  0  0  0  0  0  0  0
  -29.3820  -20.8610   19.6160 H   0  0  0  0  0  0  0  0  0  0  0  0
  -30.7030  -16.4190   19.4530 H   0  0  0  0  0  0  0  0  0  0  0  0
  -25.2470  -13.8200   20.5680 C   0  0  0  0  0  0  0  0  0  0  0  0
  -24.1770  -13.0450   20.9190 C   0  0  0  0  0  0  0  0  0  0  0  0
  -24.6370  -11.6930   20.8730 C   0  0  0  0  0  0  0  0  0  0  0  0
  -26.2900  -12.9430   20.3250 N   0  0  0  0  0  0  0  0  0  0  0  0
  -25.9310  -11.6560   20.5730 N   0  0  0  0  0  0  0  0  0  0  0  0
  -23.9070  -10.4300   21.0400 C   0  0  0  0  0  0  0  0  0  0  0  0
  -24.3610   -9.4210   21.9190 C   0  0  0  0  0  3  0  0  0  0  0  0
  -23.6280   -8.2260   22.0770 C   0  0  0  0  0  3  0  0  0  0  0  0
  -22.4270   -8.0280   21.3560 C   0  0  0  0  0  0  0  0  0  0  0  0
  -21.9900   -9.0250   20.4660 C   0  0  0  0  0  3  0  0  0  0  0  0
  -22.7230  -10.2130   20.3060 C   0  0  0  0  0  3  0  0  0  0  0  0
  -21.6640   -6.8870   21.4250 O   0  0  0  0  0  0  0  0  0  0  0  0
  -21.6850   -6.0720   22.5280 C   0  0  0  0  0  0  0  0  0  0  0  0
  -21.4020   -6.5630   23.8220 C   0  0  0  0  0  3  0  0  0  0  0  0
  -21.3670   -5.6790   24.9180 C   0  0  0  0  0  3  0  0  0  0  0  0
  -21.6040   -4.3050   24.7230 C   0  0  0  0  0  0  0  0  0  0  0  0
  -21.8820   -3.8130   23.4360 C   0  0  0  0  0  3  0  0  0  0  0  0
  -21.9210   -4.6950   22.3410 C   0  0  0  0  0  0  0  0  0  0  0  0
  -22.1670   -4.2130   21.0980 F   0  0  0  0  0  0  0  0  0  0  0  0
  -21.5630   -3.4530   25.7750 F   0  0  0  0  0  0  0  0  0  0  0  0
  -22.7790  -13.5250   21.1860 C   0  0  0  0  0  0  0  0  0  0  0  0
  -22.0450  -12.8220   22.0410 N   0  0  0  0  0  0  0  0  0  0  0  0
  -22.3480  -14.5560   20.6730 O   0  0  0  0  0  0  0  0  0  0  0  0
  -22.4060  -11.9870   22.4790 H   0  0  0  0  0  0  0  0  0  0  0  0
  -21.1090  -13.1280   22.2680 H   0  0  0  0  0  0  0  0  0  0  0  0
  -25.4170  -15.1910   20.4120 N   0  0  0  0  0  0  0  0  0  0  0  0
  -24.6570  -15.8510   20.5430 H   0  0  0  0  0  0  0  0  0  0  0  0
  -26.2990  -15.6320   20.1870 H   0  0  0  0  0  0  0  0  0  0  0  0
  -26.6860  -17.0890   23.0360 N   0  0  0  0  0  0  0  0  0  0  0  0
  -25.8660  -17.6500   23.2210 H   0  0  0  0  0  0  0  0  0  0  0  0
  -26.5130  -16.0930   23.0520 H   0  0  0  0  0  0  0  0  0  0  0  0
  -28.4280  -22.0940   21.0960 C   0  0  0  0  0  3  0  0  0  0  0  0
  -26.7660  -23.1370   22.9560 C   0  0  0  0  0  1  0  0  0  0  0  0
  -27.2190  -21.9660   22.0720 C   0  0  0  0  0  2  0  0  0  0  0  0
  -28.4080  -23.4520   20.1500 C   0  0  0  0  0  3  0  0  0  0  0  0
  -27.5280  -23.1020   19.0960 O   0  0  0  0  0  0  0  0  0  0  0  0
  -26.8350  -22.5750   19.4800 H   0  0  0  0  0  0  0  0  0  0  0  0
  -27.9480  -24.9260   20.7210 C   0  0  0  0  0  2  0  0  0  0  0  0
  -28.2570  -26.2990   20.1590 O   0  0  0  0  0  0  0  0  0  0  0  0
  -24.6320  -31.8520   23.1980 C   0  0  0  0  0  0  0  0  0  0  0  0
  -27.2000  -27.2390   20.1270 C   0  0  0  0  0  0  0  0  0  0  0  0
  -23.4310  -30.4740   21.5440 C   0  0  0  0  0  3  0  0  0  0  0  0
  -24.8730  -28.9230   20.1100 C   0  0  0  0  0  0  0  0  0  0  0  0
  -25.9790  -30.7590   21.3810 C   0  0  0  0  0  2  0  0  0  0  0  0
  -26.0490  -29.3810   20.7190 C   0  0  0  0  0  0  0  0  0  0  0  0
  -27.2200  -28.5530   20.7130 C   0  0  0  0  0  3  0  0  0  0  0  0
  -26.0070  -26.8580   19.4790 C   0  0  0  0  0  3  0  0  0  0  0  0
  -24.8580  -27.6690   19.4800 C   0  0  0  0  0  3  0  0  0  0  0  0
  -23.6470  -29.8150   20.1580 C   0  0  0  0  0  2  0  0  0  0  0  0
  -24.7010  -31.0460   22.0980 N   0  0  0  0  0  0  0  0  0  0  0  0
  -23.5470  -32.1350   23.7260 O   0  0  0  0  0  0  0  0  0  0  0  0
  -22.7520  -29.4560   22.4930 C   0  0  0  0  0  0  0  0  0  0  0  0
  -21.4220  -29.3040   22.3720 N   0  0  0  0  0  0  0  0  0  0  0  0
  -23.4220  -28.8090   23.3010 O   0  0  0  0  0  0  0  0  0  0  0  0
  -20.9390  -29.8730   21.6910 H   0  0  0  0  0  0  0  0  0  0  0  0
  -18.0290  -28.1400   22.8480 C   0  0  0  0  0  0  0  0  0  0  0  0
  -20.5890  -28.3720   23.1340 C   0  0  0  0  0  3  0  0  0  0  0  0
  -20.6780  -26.9420   22.5500 C   0  0  0  0  0  2  0  0  0  0  0  0
  -19.5790  -26.6370   21.5290 C   0  0  0  0  0  2  0  0  0  0  0  0
  -18.1950  -26.7920   22.1690 C   0  0  0  0  0  2  0  0  0  0  0  0
  -19.1540  -28.8890   23.2840 C   0  0  0  0  0  0  0  0  0  0  0  0
  -18.9450  -30.1530   23.8790 C   0  0  0  0  0  3  0  0  0  0  0  0
  -17.6470  -30.6640   24.0480 C   0  0  0  0  0  3  0  0  0  0  0  0
  -16.5360  -29.9110   23.6310 C   0  0  0  0  0  3  0  0  0  0  0  0
  -16.7280  -28.6510   23.0360 C   0  0  0  0  0  3  0  0  0  0  0  0
  -25.9150  -32.4740   23.8320 C   0  0  0  0  0  3  0  0  0  0  0  0
  -25.5930  -33.8550   24.2230 N   0  0  0  0  0  0  0  0  0  0  0  0
  -25.9060  -34.9420   23.5060 C   0  0  0  0  0  0  0  0  0  0  0  0
  -26.5650  -34.8890   22.4650 O   0  0  0  0  0  0  0  0  0  0  0  0
  -25.0070  -33.9720   25.0360 H   0  0  0  0  0  0  0  0  0  0  0  0
  -24.1490  -36.7270   23.2640 C   0  0  0  0  0  1  0  0  0  0  0  0
  -25.4130  -36.3050   24.0310 C   0  0  0  0  0  3  0  0  0  0  0  0
  -27.5580  -37.1790   24.8470 C   0  0  0  0  0  1  0  0  0  0  0  0
  -26.4300  -37.3760   23.9400 N   0  0  0  0  0  0  0  0  0  0  0  0
  -26.0160  -38.2820   24.1400 H   0  0  0  0  0  0  0  0  0  0  0  0
  -26.4520  -31.6570   25.0710 C   0  0  1  0  0  0  0  0  0  0  0  0
  -25.3730  -31.3740   26.1420 C   0  0  0  0  0  1  0  0  0  0  0  0
  -27.0360  -30.2980   24.6220 C   0  0  0  0  0  1  0  0  0  0  0  0
  -27.6060  -32.4320   25.7500 C   0  0  0  0  0  1  0  0  0  0  0  0
  2  7  1  0
  3  4  1  0
  3  2  1  0
  5  4  1  0
  5 22  1  0
  5  6  1  0
  7  1  1  0
  7  6  1  0
  8  1  2  0
  9 10  2  0
 10 47  1  0
 11  9  1  0
 12 13  2  0
 13 10  1  0
 14 12  1  0
 14 11  2  0
 15 11  1  0
 15 50  1  0
 16  1  1  0
 16 12  1  0
 17 15  1  0
 18 16  1  0
 19 20  2  0
 20 39  1  0
 21 20  1  0
 21 24  1  0
 22 19  1  0
 22 23  1  0
 23 21  2  0
 24 25  1  0
 25 26  2  0
 27 30  1  0
 27 26  1  0
 28 27  2  0
 29 28  1  0
 29 24  2  0
 30 31  1  0
 31 32  1  0
 32 33  2  0
 34 33  1  0
 34 38  1  0
 35 34  2  0
 36 31  2  0
 36 35  1  0
 37 36  1  0
 39 40  1  0
 40 43  1  0
 40 42  1  0
 41 39  2  0
 44 45  1  0
 44 19  1  0
 46 44  1  0
 47 49  1  0
 47 48  1  0
 50 52  1  0
 52 51  1  0
 53 56  1  0
 53 50  1  0
 54 55  1  0
 54 53  1  0
 57 56  1  0
 58 69  2  0
 59 57  1  0
 59 64  1  0
 60 68  1  0
 60 70  1  0
 61 67  1  0
 61 63  1  0
 62 68  1  0
 63 62  1  0
 64 63  2  0
 65 66  1  0
 65 59  2  0
 66 61  2  0
 67 60  1  0
 68 58  1  0
 70 72  2  0
 71 70  1  0
 73 71  1  0
 74 83  2  0
 74 79  1  0
 75 71  1  0
 75 79  1  0
 76 75  1  0
 77 78  1  0
 77 76  1  0
 78 74  1  0
 79 80  2  0
 80 81  1  0
 82 81  2  0
 83 82  1  0
 84 58  1  0
 84 85  1  0
 84 94  1  0
 85 88  1  0
 86 90  1  0
 86 85  1  0
 87 86  2  0
 90 89  1  0
 92 90  1  0
 92 93  1  0
 92 91  1  0
 94 97  1  1
 94 95  1  0
 96 94  1  0
M  ISO  4   1 100  16 100  56 101  57 101
M  END
>  <TORSDO>  (49) 
F 21

>  <SCORE>  (49) 
5.358

>  <name>  (49) 
48

>  <ligand_id>  (49) 
48

>  <original_smiles>  (49) 
[H]OC([H])(C([H])([H])Oc1c([H])c([H])c2c(c1[H])C([H])([H])N(C(=O)C([H])(N([H])C(=O)C([H])(N([H])C([H])([H])[H])C([H])([H])[H])C(C([H])([H])[H])(C([H])([H])[H])C([H])([H])[H])C([H])(C(=O)N([H])C1([H])c3c([H])c([H])c([H])c([H])c3C([H])([H])C([H])([H])C1([H])[H])C2([H])[H])C([H])(N([H])c1nc(N([H])C(=O)N2C([H])([H])C([H])([H])C([H])([H])C([H])(n3nc(-c4c([H])c([H])c(Oc5c([H])c([H])c(F)c([H])c5F)c([H])c4[H])c(C(=O)N([H])[H])c3N([H])[H])C2([H])[H])nc(N([H])[H])c1[H])C([H])([H])C([H])([H])[H]

>  <smiles>  (49) 
[H]OC([H])(C([H])([H])Oc1c([H])c([H])c2c(c1[H])C([H])([H])N(C(=O)C([H])(N([H])C(=O)C([H])(N([H])C([H])([H])[H])C([H])([H])[H])C(C([H])([H])[H])(C([H])([H])[H])C([H])([H])[H])C([H])(C(=O)N([H])C1([H])c3c([H])c([H])c([H])c([H])c3C([H])([H])C([H])([H])C1([H])[H])C2([H])[H])C([H])(N([H])c1nc(N([H])C(=O)N2C([H])([H])C([H])([H])C([H])([H])C([H])(n3nc(-c4c([H])c([H])c(Oc5c([H])c([H])c(F)c([H])c5F)c([H])c4[H])c(C(=O)N([H])[H])c3N([H])[H])C2([H])[H])nc(N([H])[H])c1[H])C([H])([H])C([H])([H])[H]

$$$$
49:0:0
     RDKit          3D

 95103  0  0  1  0  0  0  0  0999 V2000
  -27.5470  -19.9030   20.1080 C   0  0  0  0  0  1  0  0  0  0  0  0
  -28.8390  -20.3180   20.8510 C   0  0  0  0  0  3  0  0  0  0  0  0
  -30.7510  -14.6370   20.0400 C   0  0  0  0  0  0  0  0  0  0  0  0
  -30.3880  -12.4720   18.9010 C   0  0  0  0  0  2  0  0  0  0  0  0
  -29.3780  -12.6650   17.7520 C   0  0  0  0  0  2  0  0  0  0  0  0
  -27.9360  -12.4990   18.2680 C   0  0  0  0  0  2  0  0  0  0  0  0
  -27.6570  -13.3310   19.5490 C   0  0  0  0  0  3  0  0  0  0  0  0
  -28.7810  -13.1460   20.5950 C   0  0  0  0  0  2  0  0  0  0  0  0
  -30.0630  -13.4620   19.9440 N   0  0  0  0  0  0  0  0  0  0  0  0
  -31.8550  -14.7750   19.5020 O   0  0  0  0  0  0  0  0  0  0  0  0
  -29.8970  -19.1880   20.8520 C   0  0  0  0  0  0  0  0  0  0  0  0
  -31.9240  -18.5260   21.4170 C   0  0  0  0  0  0  0  0  0  0  0  0
  -30.4520  -16.9990   20.7840 C   0  0  0  0  0  0  0  0  0  0  0  0
  -31.1050  -19.5430   21.2770 N   0  0  0  0  0  4  0  0  0  0  0  0
  -29.4970  -17.9230   20.6260 N   0  0  0  0  0  0  0  0  0  0  0  0
  -31.6930  -17.2480   21.2050 N   0  0  0  0  0  2  0  0  0  0  0  0
  -33.1750  -18.8390   21.8440 N   0  0  0  0  0  0  0  0  0  0  0  0
  -30.0740  -15.6800   20.5850 N   0  0  0  0  0  0  0  0  0  0  0  0
  -33.2880  -19.7310   22.3060 H   0  0  0  0  0  0  0  0  0  0  0  0
  -33.7310  -18.0800   22.2130 H   0  0  0  0  0  0  0  0  0  0  0  0
  -29.1160  -15.4820   20.8140 H   0  0  0  0  0  0  0  0  0  0  0  0
  -25.3070  -13.9000   20.4260 C   0  0  0  0  0  0  0  0  0  0  0  0
  -24.2710  -13.1110   20.8470 C   0  0  0  0  0  0  0  0  0  0  0  0
  -24.7370  -11.7640   20.7560 C   0  0  0  0  0  0  0  0  0  0  0  0
  -26.3410  -13.0320   20.1080 N   0  0  0  0  0  0  0  0  0  0  0  0
  -26.0050  -11.7410   20.3650 N   0  0  0  0  0  0  0  0  0  0  0  0
  -24.0310  -10.4920   20.9630 C   0  0  0  0  0  0  0  0  0  0  0  0
  -24.5080   -9.5230   21.8730 C   0  0  0  0  0  3  0  0  0  0  0  0
  -23.8030   -8.3170   22.0680 C   0  0  0  0  0  3  0  0  0  0  0  0
  -22.6090   -8.0670   21.3530 C   0  0  0  0  0  0  0  0  0  0  0  0
  -22.1500   -9.0250   20.4320 C   0  0  0  0  0  3  0  0  0  0  0  0
  -22.8550  -10.2240   20.2350 C   0  0  0  0  0  3  0  0  0  0  0  0
  -21.8700   -6.9130   21.4610 O   0  0  0  0  0  0  0  0  0  0  0  0
  -21.8380   -6.1860   22.6240 C   0  0  0  0  0  0  0  0  0  0  0  0
  -21.4180   -6.7530   23.8470 C   0  0  0  0  0  3  0  0  0  0  0  0
  -21.3330   -5.9510   25.0030 C   0  0  0  0  0  3  0  0  0  0  0  0
  -21.6570   -4.5820   24.9350 C   0  0  0  0  0  0  0  0  0  0  0  0
  -22.0700   -4.0150   23.7170 C   0  0  0  0  0  3  0  0  0  0  0  0
  -22.1580   -4.8150   22.5640 C   0  0  0  0  0  0  0  0  0  0  0  0
  -22.5370   -4.2590   21.3890 F   0  0  0  0  0  0  0  0  0  0  0  0
  -21.5680   -3.8090   26.0440 F   0  0  0  0  0  0  0  0  0  0  0  0
  -22.8890  -13.5710   21.2160 C   0  0  0  0  0  0  0  0  0  0  0  0
  -22.2230  -12.8580   22.1170 N   0  0  0  0  0  0  0  0  0  0  0  0
  -22.4110  -14.5980   20.7370 O   0  0  0  0  0  0  0  0  0  0  0  0
  -22.6230  -12.0260   22.5250 H   0  0  0  0  0  0  0  0  0  0  0  0
  -21.2970  -13.1440   22.4010 H   0  0  0  0  0  0  0  0  0  0  0  0
  -25.4490  -15.2750   20.2640 N   0  0  0  0  0  0  0  0  0  0  0  0
  -24.6770  -15.9110   20.4270 H   0  0  0  0  0  0  0  0  0  0  0  0
  -26.2510  -15.7270   19.8430 H   0  0  0  0  0  0  0  0  0  0  0  0
  -29.3620  -21.6830   20.2750 C   0  0  0  0  0  2  0  0  0  0  0  0
  -28.5360  -22.9260   20.6770 C   0  0  0  0  0  0  0  0  0  0  0  0
  -27.7560  -22.8720   21.6320 O   0  0  0  0  0  0  0  0  0  0  0  0
  -28.7090  -24.2430   19.8810 C   0  0  0  0  0  2  0  0  0  0  0  0
  -28.2460  -25.5100   20.6580 C   0  0  0  0  0  2  0  0  0  0  0  0
  -28.3330  -26.7500   19.9200 O   0  0  0  0  0  0  0  0  0  0  0  0
  -24.6210  -31.9070   23.1780 C   0  0  0  0  0  0  0  0  0  0  0  0
  -27.1870  -27.5170   19.9550 C   0  0  0  0  0  0  0  0  0  0  0  0
  -23.3750  -30.5340   21.5410 C   0  0  0  0  0  3  0  0  0  0  0  0
  -24.7950  -29.0220   20.0520 C   0  0  0  0  0  0  0  0  0  0  0  0
  -25.8960  -30.8990   21.2850 C   0  0  0  0  0  2  0  0  0  0  0  0
  -25.9690  -29.5380   20.6190 C   0  0  0  0  0  0  0  0  0  0  0  0
  -27.1710  -28.7930   20.5640 C   0  0  0  0  0  3  0  0  0  0  0  0
  -25.9990  -27.0210   19.3770 C   0  0  0  0  0  3  0  0  0  0  0  0
  -24.8050  -27.7640   19.4260 C   0  0  0  0  0  3  0  0  0  0  0  0
  -23.5520  -29.8800   20.1440 C   0  0  0  0  0  2  0  0  0  0  0  0
  -24.6500  -31.1280   22.0600 N   0  0  0  0  0  0  0  0  0  0  0  0
  -23.5530  -32.1680   23.7490 O   0  0  0  0  0  0  0  0  0  0  0  0
  -22.7480  -29.4940   22.4990 C   0  0  0  0  0  0  0  0  0  0  0  0
  -21.4230  -29.3090   22.3980 N   0  0  0  0  0  0  0  0  0  0  0  0
  -23.4520  -28.8580   23.2880 O   0  0  0  0  0  0  0  0  0  0  0  0
  -20.9150  -29.8780   21.7340 H   0  0  0  0  0  0  0  0  0  0  0  0
  -18.0680  -28.0760   22.9270 C   0  0  0  0  0  0  0  0  0  0  0  0
  -20.6250  -28.3560   23.1710 C   0  0  0  0  0  3  0  0  0  0  0  0
  -20.7360  -26.9310   22.5810 C   0  0  0  0  0  2  0  0  0  0  0  0
  -19.6250  -26.6080   21.5780 C   0  0  0  0  0  2  0  0  0  0  0  0
  -18.2490  -26.7340   22.2380 C   0  0  0  0  0  2  0  0  0  0  0  0
  -19.1830  -28.8450   23.3510 C   0  0  0  0  0  0  0  0  0  0  0  0
  -18.9600  -30.1030   23.9530 C   0  0  0  0  0  3  0  0  0  0  0  0
  -17.6530  -30.5890   24.1390 C   0  0  0  0  0  3  0  0  0  0  0  0
  -16.5510  -29.8160   23.7330 C   0  0  0  0  0  3  0  0  0  0  0  0
  -16.7600  -28.5630   23.1310 C   0  0  0  0  0  3  0  0  0  0  0  0
  -25.9220  -32.5290   23.7760 C   0  0  0  0  0  3  0  0  0  0  0  0
  -26.4780  -31.7290   25.0180 C   0  0  1  0  0  0  0  0  0  0  0  0
  -25.4190  -31.4650   26.1120 C   0  0  0  0  0  1  0  0  0  0  0  0
  -27.0500  -30.3610   24.5760 C   0  0  0  0  0  1  0  0  0  0  0  0
  -27.6480  -32.5100   25.6610 C   0  0  0  0  0  1  0  0  0  0  0  0
  -25.6200  -33.9180   24.1440 N   0  0  0  0  0  0  0  0  0  0  0  0
  -25.9310  -34.9880   23.3990 C   0  0  0  0  0  0  0  0  0  0  0  0
  -26.5740  -34.9100   22.3490 O   0  0  0  0  0  0  0  0  0  0  0  0
  -25.0460  -34.0540   24.9640 H   0  0  0  0  0  0  0  0  0  0  0  0
  -24.1870  -36.7810   23.1300 C   0  0  0  0  0  1  0  0  0  0  0  0
  -25.4520  -36.3650   23.8980 C   0  0  0  0  0  3  0  0  0  0  0  0
  -27.6080  -37.2390   24.6830 C   0  0  0  0  0  1  0  0  0  0  0  0
  -26.4780  -37.4240   23.7770 N   0  0  0  0  0  0  0  0  0  0  0  0
  -26.0730  -38.3380   23.9580 H   0  0  0  0  0  0  0  0  0  0  0  0
  2  1  1  0
  2 11  1  0
  3 18  1  0
  4  9  1  0
  5  6  1  0
  5  4  1  0
  7  6  1  0
  7 25  1  0
  7  8  1  0
  9  3  1  0
  9  8  1  0
 10  3  2  0
 11 14  2  0
 12 17  1  0
 13 16  1  0
 14 12  2  0
 15 13  2  0
 15 11  1  0
 16 12  1  0
 17 20  1  0
 17 19  1  0
 18 13  1  0
 18 21  1  0
 22 23  2  0
 23 42  1  0
 24 23  1  0
 24 27  1  0
 25 26  1  0
 25 22  1  0
 26 24  2  0
 27 28  1  0
 28 29  2  0
 30 33  1  0
 30 29  1  0
 31 30  2  0
 32 31  1  0
 32 27  2  0
 33 34  1  0
 34 35  1  0
 35 36  2  0
 37 36  1  0
 37 41  1  0
 38 37  2  0
 39 34  2  0
 39 38  1  0
 40 39  1  0
 42 43  1  0
 43 46  1  0
 43 45  1  0
 44 42  2  0
 47 22  1  0
 47 48  1  0
 49 47  1  0
 50 51  1  0
 50  2  1  0
 51 52  2  0
 53 54  1  0
 53 51  1  0
 55 57  1  0
 55 54  1  0
 56 67  2  0
 57 62  1  0
 58 66  1  0
 58 68  1  0
 59 65  1  0
 59 61  1  0
 60 66  1  0
 61 60  1  0
 62 61  2  0
 63 64  1  0
 63 57  2  0
 64 59  2  0
 65 58  1  0
 66 56  1  0
 68 70  2  0
 69 68  1  0
 71 69  1  0
 72 81  2  0
 72 77  1  0
 73 69  1  0
 73 77  1  0
 74 73  1  0
 75 76  1  0
 75 74  1  0
 76 72  1  0
 77 78  2  0
 78 79  1  0
 80 79  2  0
 81 80  1  0
 82 56  1  0
 82 87  1  0
 82 83  1  0
 83 86  1  1
 83 84  1  0
 85 83  1  0
 87 90  1  0
 88 92  1  0
 88 87  1  0
 89 88  2  0
 92 91  1  0
 94 92  1  0
 94 95  1  0
 94 93  1  0
M  ISO  4   3 100  18 100  54 101  55 101
M  END
>  <TORSDO>  (50) 
F 20

>  <SCORE>  (50) 
-13.365

>  <name>  (50) 
49

>  <ligand_id>  (50) 
49

>  <original_smiles>  (50) 
[H]c1c([H])c([H])c2c(c1[H])C([H])([H])C([H])([H])C([H])([H])C2([H])N([H])C(=O)C1([H])N(C(=O)C([H])(N([H])C(=O)C([H])(N([H])C([H])([H])[H])C([H])([H])[H])C(C([H])([H])[H])(C([H])([H])[H])C([H])([H])[H])C([H])([H])c2c([H])c(OC([H])([H])C([H])([H])C(=O)C([H])([H])C([H])(c3nc(N([H])[H])nc(N([H])C(=O)N4C([H])([H])C([H])([H])C([H])([H])C([H])(n5nc(-c6c([H])c([H])c(Oc7c([H])c([H])c(F)c([H])c7F)c([H])c6[H])c(C(=O)N([H])[H])c5N([H])[H])C4([H])[H])n3)C([H])([H])[H])c([H])c([H])c2C1([H])[H]

>  <smiles>  (50) 
[H]c1c([H])c([H])c2c(c1[H])C([H])([H])C([H])([H])C([H])([H])C2([H])N([H])C(=O)C1([H])N(C(=O)C([H])(N([H])C(=O)C([H])(N([H])C([H])([H])[H])C([H])([H])[H])C(C([H])([H])[H])(C([H])([H])[H])C([H])([H])[H])C([H])([H])c2c([H])c(OC([H])([H])C([H])([H])C(=O)C([H])([H])C([H])(c3nc(N([H])[H])nc(N([H])C(=O)N4C([H])([H])C([H])([H])C([H])([H])C([H])(n5nc(-c6c([H])c([H])c(Oc7c([H])c([H])c(F)c([H])c7F)c([H])c6[H])c(C(=O)N([H])[H])c5N([H])[H])C4([H])[H])n3)C([H])([H])[H])c([H])c([H])c2C1([H])[H]

$$$$
50:0:0
     RDKit          3D

 95103  0  0  1  0  0  0  0  0999 V2000
  -31.7470  -21.9290   20.9330 C   0  0  0  0  0  1  0  0  0  0  0  0
  -30.2400  -22.1480   20.6890 C   0  0  0  0  0  3  0  0  0  0  0  0
  -29.6730  -21.0530   19.8990 N   0  0  0  0  0  0  0  0  0  0  0  0
  -29.3710  -21.2850   18.9560 H   0  0  0  0  0  0  0  0  0  0  0  0
  -30.6480  -14.5390   20.5190 C   0  0  0  0  0  0  0  0  0  0  0  0
  -30.4010  -12.3730   19.3710 C   0  0  0  0  0  2  0  0  0  0  0  0
  -29.4420  -12.5680   18.1750 C   0  0  0  0  0  2  0  0  0  0  0  0
  -27.9670  -12.4410   18.6100 C   0  0  0  0  0  2  0  0  0  0  0  0
  -27.6370  -13.2570   19.8890 C   0  0  0  0  0  3  0  0  0  0  0  0
  -28.7000  -13.0070   20.9830 C   0  0  0  0  0  2  0  0  0  0  0  0
  -30.0190  -13.3360   20.4150 N   0  0  0  0  0  0  0  0  0  0  0  0
  -31.7780  -14.7440   20.0600 O   0  0  0  0  0  0  0  0  0  0  0  0
  -29.5230  -18.7660   19.1800 C   0  0  0  0  0  3  0  0  0  0  0  0
  -30.0460  -19.1370   21.4880 C   0  0  0  0  0  3  0  0  0  0  0  0
  -29.5960  -17.3820   19.4200 C   0  0  0  0  0  0  0  0  0  0  0  0
  -29.7590  -19.6820   20.2160 C   0  0  0  0  0  0  0  0  0  0  0  0
  -29.9200  -16.9180   20.7250 C   0  0  0  0  0  0  0  0  0  0  0  0
  -29.2930  -16.4580   18.2500 C   0  0  0  0  0  1  0  0  0  0  0  0
  -30.1160  -17.8030   21.7310 N   0  0  0  0  0  0  0  0  0  0  0  0
  -29.8810  -15.5260   21.0280 N   0  0  0  0  0  0  0  0  0  0  0  0
  -29.0510  -15.2180   21.5090 H   0  0  0  0  0  0  0  0  0  0  0  0
  -25.2450  -13.8790   20.6000 C   0  0  0  0  0  0  0  0  0  0  0  0
  -24.1730  -13.1090   20.9680 C   0  0  0  0  0  0  0  0  0  0  0  0
  -24.6290  -11.7550   20.9250 C   0  0  0  0  0  0  0  0  0  0  0  0
  -26.2860  -12.9910   20.3660 N   0  0  0  0  0  0  0  0  0  0  0  0
  -25.9180  -11.7110   20.6130 N   0  0  0  0  0  0  0  0  0  0  0  0
  -23.8990  -10.4950   21.1050 C   0  0  0  0  0  0  0  0  0  0  0  0
  -24.3320   -9.5190   22.0260 C   0  0  0  0  0  3  0  0  0  0  0  0
  -23.6060   -8.3200   22.1950 C   0  0  0  0  0  3  0  0  0  0  0  0
  -22.4310   -8.0900   21.4410 C   0  0  0  0  0  0  0  0  0  0  0  0
  -22.0180   -9.0550   20.5050 C   0  0  0  0  0  3  0  0  0  0  0  0
  -22.7450  -10.2460   20.3350 C   0  0  0  0  0  3  0  0  0  0  0  0
  -21.6730   -6.9480   21.5220 O   0  0  0  0  0  0  0  0  0  0  0  0
  -21.6200   -6.2000   22.6710 C   0  0  0  0  0  0  0  0  0  0  0  0
  -21.1790   -6.7460   23.8960 C   0  0  0  0  0  3  0  0  0  0  0  0
  -21.0720   -5.9220   25.0350 C   0  0  0  0  0  3  0  0  0  0  0  0
  -21.3980   -4.5550   24.9490 C   0  0  0  0  0  0  0  0  0  0  0  0
  -21.8330   -4.0100   23.7280 C   0  0  0  0  0  3  0  0  0  0  0  0
  -21.9400   -4.8300   22.5910 C   0  0  0  0  0  0  0  0  0  0  0  0
  -22.3390   -4.2950   21.4130 F   0  0  0  0  0  0  0  0  0  0  0  0
  -21.2880   -3.7620   26.0410 F   0  0  0  0  0  0  0  0  0  0  0  0
  -22.7780  -13.5890   21.2490 C   0  0  0  0  0  0  0  0  0  0  0  0
  -22.0480  -12.8830   22.1070 N   0  0  0  0  0  0  0  0  0  0  0  0
  -22.3440  -14.6210   20.7420 O   0  0  0  0  0  0  0  0  0  0  0  0
  -22.4130  -12.0500   22.5450 H   0  0  0  0  0  0  0  0  0  0  0  0
  -21.1110  -13.1850   22.3360 H   0  0  0  0  0  0  0  0  0  0  0  0
  -25.4140  -15.2490   20.4310 N   0  0  0  0  0  0  0  0  0  0  0  0
  -24.6450  -15.9040   20.5410 H   0  0  0  0  0  0  0  0  0  0  0  0
  -26.2590  -15.6910   20.0940 H   0  0  0  0  0  0  0  0  0  0  0  0
  -30.0230  -23.4990   19.9420 C   0  0  0  0  0  2  0  0  0  0  0  0
  -28.8250  -24.3930   20.3620 C   0  0  0  0  0  3  0  0  0  0  0  0
  -27.6000  -23.6820   20.2860 O   0  0  0  0  0  0  0  0  0  0  0  0
  -27.4930  -23.3730   19.3940 H   0  0  0  0  0  0  0  0  0  0  0  0
  -28.7250  -25.6590   19.4640 C   0  0  0  0  0  2  0  0  0  0  0  0
  -28.4790  -26.8420   20.2260 O   0  0  0  0  0  0  0  0  0  0  0  0
  -24.6090  -31.9290   23.2680 C   0  0  0  0  0  0  0  0  0  0  0  0
  -27.2630  -27.4930   20.1940 C   0  0  0  0  0  0  0  0  0  0  0  0
  -23.4030  -30.5310   21.6190 C   0  0  0  0  0  3  0  0  0  0  0  0
  -24.8560  -28.9850   20.2010 C   0  0  0  0  0  0  0  0  0  0  0  0
  -25.9280  -30.8860   21.4300 C   0  0  0  0  0  2  0  0  0  0  0  0
  -26.0100  -29.5140   20.7910 C   0  0  0  0  0  0  0  0  0  0  0  0
  -27.2080  -28.7730   20.7850 C   0  0  0  0  0  3  0  0  0  0  0  0
  -26.0830  -26.9590   19.6200 C   0  0  0  0  0  3  0  0  0  0  0  0
  -24.8870  -27.7050   19.6180 C   0  0  0  0  0  3  0  0  0  0  0  0
  -23.6130  -29.8460   20.2410 C   0  0  0  0  0  2  0  0  0  0  0  0
  -24.6650  -31.1320   22.1640 N   0  0  0  0  0  0  0  0  0  0  0  0
  -23.5290  -32.2030   23.8080 O   0  0  0  0  0  0  0  0  0  0  0  0
  -22.7460  -29.5140   22.5790 C   0  0  0  0  0  0  0  0  0  0  0  0
  -21.4200  -29.3400   22.4500 N   0  0  0  0  0  0  0  0  0  0  0  0
  -23.4260  -28.8840   23.3940 O   0  0  0  0  0  0  0  0  0  0  0  0
  -20.9350  -29.9000   21.7620 H   0  0  0  0  0  0  0  0  0  0  0  0
  -18.0360  -28.1780   22.9510 C   0  0  0  0  0  0  0  0  0  0  0  0
  -20.5970  -28.4050   23.2170 C   0  0  0  0  0  3  0  0  0  0  0  0
  -20.6840  -26.9770   22.6310 C   0  0  0  0  0  2  0  0  0  0  0  0
  -19.5760  -26.6730   21.6180 C   0  0  0  0  0  2  0  0  0  0  0  0
  -18.1970  -26.8300   22.2670 C   0  0  0  0  0  2  0  0  0  0  0  0
  -19.1640  -28.9230   23.3840 C   0  0  0  0  0  0  0  0  0  0  0  0
  -18.9620  -30.1860   23.9810 C   0  0  0  0  0  3  0  0  0  0  0  0
  -17.6640  -30.7030   24.1510 C   0  0  0  0  0  3  0  0  0  0  0  0
  -16.5500  -29.9520   23.7370 C   0  0  0  0  0  3  0  0  0  0  0  0
  -16.7380  -28.6910   23.1430 C   0  0  0  0  0  3  0  0  0  0  0  0
  -25.8970  -32.5540   23.8930 C   0  0  0  0  0  3  0  0  0  0  0  0
  -25.5990  -33.9570   24.2100 N   0  0  0  0  0  0  0  0  0  0  0  0
  -25.9500  -35.0010   23.4480 C   0  0  0  0  0  0  0  0  0  0  0  0
  -26.6310  -34.8850   22.4250 O   0  0  0  0  0  0  0  0  0  0  0  0
  -24.9990  -34.1230   25.0060 H   0  0  0  0  0  0  0  0  0  0  0  0
  -24.2490  -36.8090   23.0480 C   0  0  0  0  0  1  0  0  0  0  0  0
  -25.4680  -36.3970   23.8880 C   0  0  0  0  0  3  0  0  0  0  0  0
  -27.5950  -37.2610   24.7580 C   0  0  0  0  0  1  0  0  0  0  0  0
  -26.5150  -37.4380   23.7910 N   0  0  0  0  0  0  0  0  0  0  0  0
  -26.1170  -38.3640   23.9240 H   0  0  0  0  0  0  0  0  0  0  0  0
  -26.4020  -31.7890   25.1760 C   0  0  1  0  0  0  0  0  0  0  0  0
  -25.3030  -31.5650   26.2410 C   0  0  0  0  0  1  0  0  0  0  0  0
  -26.9790  -30.4070   24.7950 C   0  0  0  0  0  1  0  0  0  0  0  0
  -27.5540  -32.5810   25.8390 C   0  0  0  0  0  1  0  0  0  0  0  0
  2  1  1  0
  3 16  1  0
  3  2  1  0
  4  3  1  0
  5 20  1  0
  6 11  1  0
  7  8  1  0
  7  6  1  0
  9  8  1  0
  9 25  1  0
  9 10  1  0
 11  5  1  0
 11 10  1  0
 12  5  2  0
 13 15  2  0
 13 16  1  0
 14 19  1  0
 15 17  1  0
 16 14  2  0
 17 20  1  0
 17 19  2  0
 18 15  1  0
 20 21  1  0
 22 23  2  0
 23 42  1  0
 24 23  1  0
 24 27  1  0
 25 22  1  0
 25 26  1  0
 26 24  2  0
 27 28  1  0
 28 29  2  0
 30 33  1  0
 30 29  1  0
 31 30  2  0
 32 31  1  0
 32 27  2  0
 33 34  1  0
 34 35  1  0
 35 36  2  0
 37 36  1  0
 37 41  1  0
 38 37  2  0
 39 34  2  0
 39 38  1  0
 40 39  1  0
 42 43  1  0
 43 46  1  0
 43 45  1  0
 44 42  2  0
 47 48  1  0
 47 22  1  0
 49 47  1  0
 50 51  1  0
 50  2  1  0
 51 54  1  0
 52 51  1  0
 53 52  1  0
 54 55  1  0
 56 67  2  0
 57 55  1  0
 57 62  1  0
 58 66  1  0
 58 68  1  0
 59 65  1  0
 59 61  1  0
 60 66  1  0
 61 60  1  0
 62 61  2  0
 63 57  2  0
 64 63  1  0
 64 59  2  0
 65 58  1  0
 66 56  1  0
 68 70  2  0
 69 68  1  0
 71 69  1  0
 72 81  2  0
 72 77  1  0
 73 69  1  0
 73 77  1  0
 74 73  1  0
 75 76  1  0
 75 74  1  0
 76 72  1  0
 77 78  2  0
 78 79  1  0
 80 79  2  0
 81 80  1  0
 82 56  1  0
 82 83  1  0
 82 92  1  0
 83 86  1  0
 84 88  1  0
 84 83  1  0
 85 84  2  0
 88 87  1  0
 90 88  1  0
 90 91  1  0
 90 89  1  0
 92 95  1  1
 92 93  1  0
 94 92  1  0
M  ISO  4   5 100  20 100  54 101  55 101
M  END
>  <TORSDO>  (51) 
F 21

>  <SCORE>  (51) 
-13.015

>  <name>  (51) 
50

>  <ligand_id>  (51) 
50

>  <original_smiles>  (51) 
[H]OC([H])(C([H])([H])Oc1c([H])c([H])c2c(c1[H])C([H])([H])N(C(=O)C([H])(N([H])C(=O)C([H])(N([H])C([H])([H])[H])C([H])([H])[H])C(C([H])([H])[H])(C([H])([H])[H])C([H])([H])[H])C([H])(C(=O)N([H])C1([H])c3c([H])c([H])c([H])c([H])c3C([H])([H])C([H])([H])C1([H])[H])C2([H])[H])C([H])([H])C([H])(N([H])c1c([H])nc(N([H])C(=O)N2C([H])([H])C([H])([H])C([H])([H])C([H])(n3nc(-c4c([H])c([H])c(Oc5c([H])c([H])c(F)c([H])c5F)c([H])c4[H])c(C(=O)N([H])[H])c3N([H])[H])C2([H])[H])c(C([H])([H])[H])c1[H])C([H])([H])[H]

>  <smiles>  (51) 
[H]OC([H])(C([H])([H])Oc1c([H])c([H])c2c(c1[H])C([H])([H])N(C(=O)C([H])(N([H])C(=O)C([H])(N([H])C([H])([H])[H])C([H])([H])[H])C(C([H])([H])[H])(C([H])([H])[H])C([H])([H])[H])C([H])(C(=O)N([H])C1([H])c3c([H])c([H])c([H])c([H])c3C([H])([H])C([H])([H])C1([H])[H])C2([H])[H])C([H])([H])C([H])(N([H])c1c([H])nc(N([H])C(=O)N2C([H])([H])C([H])([H])C([H])([H])C([H])(n3nc(-c4c([H])c([H])c(Oc5c([H])c([H])c(F)c([H])c5F)c([H])c4[H])c(C(=O)N([H])[H])c3N([H])[H])C2([H])[H])c(C([H])([H])[H])c1[H])C([H])([H])[H]

$$$$
51:0:0
     RDKit          3D

 93101  0  0  1  0  0  0  0  0999 V2000
  -29.0990  -22.5780   20.9930 C   0  0  0  0  0  3  0  0  0  0  0  0
  -30.9370  -17.9830   21.8040 C   0  0  0  0  0  3  0  0  0  0  0  0
  -31.0250  -17.8690   20.4340 C   0  0  0  0  0  0  0  0  0  0  0  0
  -30.2410  -20.1120   20.6610 C   0  0  0  0  0  0  0  0  0  0  0  0
  -30.6530  -19.1210   19.8240 N   0  0  0  0  0  0  0  0  0  0  0  0
  -29.7640  -21.4170   20.3020 N   0  0  0  0  0  0  0  0  0  0  0  0
  -30.3760  -19.5710   22.3310 S   0  0  0  0  0  0  0  0  0  0  0  0
  -29.8480  -21.6130   19.3110 H   0  0  0  0  0  0  0  0  0  0  0  0
  -30.4790  -16.6430   18.2850 C   0  0  0  0  0  1  0  0  0  0  0  0
  -31.3670  -16.6250   19.5420 C   0  0  0  0  0  3  0  0  0  0  0  0
  -31.8640  -15.1610   20.0560 C   0  0  0  0  0  0  0  0  0  0  0  0
  -31.5010  -12.8450   19.2370 C   0  0  0  0  0  2  0  0  0  0  0  0
  -30.5930  -12.8550   17.9930 C   0  0  0  0  0  2  0  0  0  0  0  0
  -29.1040  -12.8240   18.3910 C   0  0  0  0  0  2  0  0  0  0  0  0
  -28.7500  -13.7550   19.5840 C   0  0  0  0  0  3  0  0  0  0  0  0
  -29.8130  -13.7440   20.7010 C   0  0  0  0  0  2  0  0  0  0  0  0
  -31.1170  -13.9990   20.0770 N   0  0  0  0  0  0  0  0  0  0  0  0
  -33.0900  -15.0400   20.0190 O   0  0  0  0  0  0  0  0  0  0  0  0
  -26.4010  -14.4470   20.3570 C   0  0  0  0  0  0  0  0  0  0  0  0
  -25.2990  -13.7150   20.7150 C   0  0  0  0  0  0  0  0  0  0  0  0
  -25.6970  -12.3470   20.6640 C   0  0  0  0  0  0  0  0  0  0  0  0
  -27.4020  -13.5210   20.0960 N   0  0  0  0  0  0  0  0  0  0  0  0
  -26.9860  -12.2530   20.3450 N   0  0  0  0  0  0  0  0  0  0  0  0
  -24.9100  -11.1210   20.8370 C   0  0  0  0  0  0  0  0  0  0  0  0
  -25.2200  -10.1810   21.8420 C   0  0  0  0  0  3  0  0  0  0  0  0
  -24.4360   -9.0180   22.0000 C   0  0  0  0  0  3  0  0  0  0  0  0
  -23.3280   -8.7880   21.1500 C   0  0  0  0  0  0  0  0  0  0  0  0
  -23.0420   -9.7130   20.1310 C   0  0  0  0  0  3  0  0  0  0  0  0
  -23.8250  -10.8680   19.9720 C   0  0  0  0  0  3  0  0  0  0  0  0
  -22.5230   -7.6740   21.2170 O   0  0  0  0  0  0  0  0  0  0  0  0
  -22.2290   -7.0680   22.4130 C   0  0  0  0  0  0  0  0  0  0  0  0
  -21.5840   -7.7610   23.4630 C   0  0  0  0  0  3  0  0  0  0  0  0
  -21.2430   -7.0830   24.6500 C   0  0  0  0  0  3  0  0  0  0  0  0
  -21.5230   -5.7110   24.7840 C   0  0  0  0  0  0  0  0  0  0  0  0
  -22.1530   -5.0160   23.7380 C   0  0  0  0  0  3  0  0  0  0  0  0
  -22.5040   -5.6920   22.5560 C   0  0  0  0  0  0  0  0  0  0  0  0
  -23.0950   -5.0140   21.5420 F   0  0  0  0  0  0  0  0  0  0  0  0
  -21.1840   -5.0560   25.9210 F   0  0  0  0  0  0  0  0  0  0  0  0
  -23.9280  -14.2630   20.9860 C   0  0  0  0  0  0  0  0  0  0  0  0
  -23.1670  -13.6110   21.8590 N   0  0  0  0  0  0  0  0  0  0  0  0
  -23.5390  -15.2980   20.4540 O   0  0  0  0  0  0  0  0  0  0  0  0
  -23.4800  -12.7600   22.3020 H   0  0  0  0  0  0  0  0  0  0  0  0
  -22.2380  -13.9570   22.0500 H   0  0  0  0  0  0  0  0  0  0  0  0
  -26.6130  -15.8140   20.2140 N   0  0  0  0  0  0  0  0  0  0  0  0
  -25.8520  -16.4760   20.3200 H   0  0  0  0  0  0  0  0  0  0  0  0
  -27.5220  -16.2550   20.1830 H   0  0  0  0  0  0  0  0  0  0  0  0
  -26.7760  -22.1300   19.8800 C   0  0  0  0  0  1  0  0  0  0  0  0
  -27.6000  -22.2680   21.1790 C   0  0  0  0  0  2  0  0  0  0  0  0
  -29.3440  -24.0430   20.3480 C   0  0  0  0  0  3  0  0  0  0  0  0
  -29.1980  -23.8070   18.9630 O   0  0  0  0  0  0  0  0  0  0  0  0
  -28.4280  -23.2540   18.8930 H   0  0  0  0  0  0  0  0  0  0  0  0
  -28.3750  -25.2740   20.7590 C   0  0  0  0  0  2  0  0  0  0  0  0
  -28.6070  -26.6510   20.2450 O   0  0  0  0  0  0  0  0  0  0  0  0
  -24.6650  -31.8940   23.1640 C   0  0  0  0  0  0  0  0  0  0  0  0
  -27.4780  -27.4750   20.1470 C   0  0  0  0  0  0  0  0  0  0  0  0
  -23.5320  -30.4770   21.4860 C   0  0  0  0  0  3  0  0  0  0  0  0
  -25.0600  -28.9980   20.0610 C   0  0  0  0  0  0  0  0  0  0  0  0
  -26.0570  -30.8970   21.3370 C   0  0  0  0  0  2  0  0  0  0  0  0
  -26.1980  -29.5290   20.6820 C   0  0  0  0  0  0  0  0  0  0  0  0
  -27.4120  -28.7810   20.7120 C   0  0  0  0  0  3  0  0  0  0  0  0
  -26.3300  -26.9990   19.4800 C   0  0  0  0  0  3  0  0  0  0  0  0
  -25.1300  -27.7350   19.4410 C   0  0  0  0  0  3  0  0  0  0  0  0
  -23.7890  -29.8190   20.1000 C   0  0  0  0  0  2  0  0  0  0  0  0
  -24.7700  -31.1060   22.0540 N   0  0  0  0  0  0  0  0  0  0  0  0
  -23.5670  -32.1210   23.6920 O   0  0  0  0  0  0  0  0  0  0  0  0
  -22.8950  -29.4280   22.4280 C   0  0  0  0  0  0  0  0  0  0  0  0
  -21.5790  -29.2000   22.2780 N   0  0  0  0  0  0  0  0  0  0  0  0
  -23.5860  -28.8170   23.2470 O   0  0  0  0  0  0  0  0  0  0  0  0
  -21.0780  -29.7490   21.5920 H   0  0  0  0  0  0  0  0  0  0  0  0
  -18.2450  -27.8700   22.7220 C   0  0  0  0  0  0  0  0  0  0  0  0
  -20.7890  -28.2230   23.0260 C   0  0  0  0  0  3  0  0  0  0  0  0
  -20.9500  -26.8010   22.4400 C   0  0  0  0  0  2  0  0  0  0  0  0
  -19.8770  -26.4500   21.4060 C   0  0  0  0  0  2  0  0  0  0  0  0
  -18.4820  -26.5360   22.0320 C   0  0  0  0  0  2  0  0  0  0  0  0
  -19.3290  -28.6680   23.1770 C   0  0  0  0  0  0  0  0  0  0  0  0
  -19.0560  -29.9140   23.7830 C   0  0  0  0  0  3  0  0  0  0  0  0
  -17.7310  -30.3640   23.9360 C   0  0  0  0  0  3  0  0  0  0  0  0
  -16.6620  -29.5650   23.4940 C   0  0  0  0  0  3  0  0  0  0  0  0
  -16.9210  -28.3210   22.8950 C   0  0  0  0  0  3  0  0  0  0  0  0
  -25.9170  -32.5640   23.8140 C   0  0  0  0  0  3  0  0  0  0  0  0
  -25.5500  -33.9470   24.1450 N   0  0  0  0  0  0  0  0  0  0  0  0
  -25.8630  -35.0160   23.4000 C   0  0  0  0  0  0  0  0  0  0  0  0
  -26.5570  -34.9430   22.3840 O   0  0  0  0  0  0  0  0  0  0  0  0
  -24.9350  -34.0730   24.9360 H   0  0  0  0  0  0  0  0  0  0  0  0
  -24.0810  -36.7610   23.0280 C   0  0  0  0  0  1  0  0  0  0  0  0
  -25.3200  -36.3850   23.8570 C   0  0  0  0  0  3  0  0  0  0  0  0
  -27.4100  -37.3420   24.7360 C   0  0  0  0  0  1  0  0  0  0  0  0
  -26.3200  -37.4740   23.7710 N   0  0  0  0  0  0  0  0  0  0  0  0
  -25.8770  -38.3790   23.9120 H   0  0  0  0  0  0  0  0  0  0  0  0
  -26.4290  -31.8020   25.0980 C   0  0  1  0  0  0  0  0  0  0  0  0
  -25.3210  -31.5110   26.1370 C   0  0  0  0  0  1  0  0  0  0  0  0
  -27.0760  -30.4500   24.7140 C   0  0  0  0  0  1  0  0  0  0  0  0
  -27.5250  -32.6410   25.7970 C   0  0  0  0  0  1  0  0  0  0  0  0
  1 48  1  0
  2  7  1  0
  3  2  2  0
  4  7  1  0
  5  3  1  0
  5  4  2  0
  6  4  1  0
  6  1  1  0
  8  6  1  0
 10  9  1  0
 10 11  1  0
 10  3  1  0
 11 17  1  0
 12 17  1  0
 13 14  1  0
 13 12  1  0
 15 14  1  0
 15 22  1  0
 15 16  1  0
 17 16  1  0
 18 11  2  0
 19 20  2  0
 20 39  1  0
 21 20  1  0
 21 24  1  0
 22 23  1  0
 22 19  1  0
 23 21  2  0
 24 25  1  0
 25 26  2  0
 27 30  1  0
 27 26  1  0
 28 27  2  0
 29 28  1  0
 29 24  2  0
 30 31  1  0
 31 36  2  0
 31 32  1  0
 32 33  2  0
 33 34  1  0
 34 38  1  0
 35 34  2  0
 36 35  1  0
 37 36  1  0
 39 40  1  0
 40 43  1  0
 40 42  1  0
 41 39  2  0
 44 45  1  0
 44 19  1  0
 46 44  1  0
 47 48  1  0
 49 52  1  0
 49  1  1  0
 50 49  1  0
 51 50  1  0
 53 52  1  0
 54 65  2  0
 55 53  1  0
 55 60  1  0
 56 64  1  0
 56 66  1  0
 57 63  1  0
 57 59  1  0
 58 64  1  0
 59 60  2  0
 59 58  1  0
 61 55  2  0
 62 61  1  0
 62 57  2  0
 63 56  1  0
 64 54  1  0
 66 68  2  0
 67 66  1  0
 69 67  1  0
 70 79  2  0
 70 75  1  0
 71 67  1  0
 71 75  1  0
 72 71  1  0
 73 74  1  0
 73 72  1  0
 74 70  1  0
 75 76  2  0
 76 77  1  0
 78 77  2  0
 79 78  1  0
 80 54  1  0
 80 81  1  0
 80 90  1  0
 81 84  1  0
 82 86  1  0
 82 81  1  0
 83 82  2  0
 86 85  1  0
 88 86  1  0
 88 89  1  0
 88 87  1  0
 90 93  1  1
 90 91  1  0
 92 90  1  0
M  ISO  4  10 100  11 100  52 101  53 101
M  END
>  <TORSDO>  (52) 
F 22

>  <SCORE>  (52) 
-11.178

>  <name>  (52) 
51

>  <ligand_id>  (52) 
51

>  <original_smiles>  (52) 
[H]OC([H])(C([H])([H])Oc1c([H])c([H])c2c(c1[H])C([H])([H])N(C(=O)C([H])(N([H])C(=O)C([H])(N([H])C([H])([H])[H])C([H])([H])[H])C(C([H])([H])[H])(C([H])([H])[H])C([H])([H])[H])C([H])(C(=O)N([H])C1([H])c3c([H])c([H])c([H])c([H])c3C([H])([H])C([H])([H])C1([H])[H])C2([H])[H])C([H])(N([H])c1nc(C([H])(C(=O)N2C([H])([H])C([H])([H])C([H])([H])C([H])(n3nc(-c4c([H])c([H])c(Oc5c([H])c([H])c(F)c([H])c5F)c([H])c4[H])c(C(=O)N([H])[H])c3N([H])[H])C2([H])[H])C([H])([H])[H])c([H])s1)C([H])([H])C([H])([H])[H]

>  <smiles>  (52) 
[H]OC([H])(C([H])([H])Oc1c([H])c([H])c2c(c1[H])C([H])([H])N(C(=O)C([H])(N([H])C(=O)C([H])(N([H])C([H])([H])[H])C([H])([H])[H])C(C([H])([H])[H])(C([H])([H])[H])C([H])([H])[H])C([H])(C(=O)N([H])C1([H])c3c([H])c([H])c([H])c([H])c3C([H])([H])C([H])([H])C1([H])[H])C2([H])[H])C([H])(N([H])c1nc(C([H])(C(=O)N2C([H])([H])C([H])([H])C([H])([H])C([H])(n3nc(-c4c([H])c([H])c(Oc5c([H])c([H])c(F)c([H])c5F)c([H])c4[H])c(C(=O)N([H])[H])c3N([H])[H])C2([H])[H])C([H])([H])[H])c([H])s1)C([H])([H])C([H])([H])[H]

$$$$
52:0:0
     RDKit          3D

 93101  0  0  1  0  0  0  0  0999 V2000
  -29.6450  -21.5610   20.1250 N   0  0  0  0  0  4  0  0  0  0  0  0
  -30.1760  -21.5550   20.9800 H   0  0  0  0  0  0  0  0  0  0  0  0
  -28.6910  -21.3570   20.3820 H   0  0  0  0  0  0  0  0  0  0  0  0
  -29.4890  -20.3310   17.9070 C   0  0  0  0  0  1  0  0  0  0  0  0
  -30.1120  -20.3760   19.3190 C   0  0  0  0  0  3  0  0  0  0  0  0
  -30.7170  -17.9460   20.1850 C   0  0  0  0  0  3  0  0  0  0  0  0
  -28.7370  -17.3830   20.8500 C   0  0  0  0  0  3  0  0  0  0  0  0
  -29.8590  -19.0220   19.9930 C   0  0  0  0  0  0  0  0  0  0  0  0
  -28.5920  -18.6470   20.4390 N   0  0  0  0  0  0  0  0  0  0  0  0
  -29.9800  -16.8850   20.7390 N   0  0  0  0  0  0  0  0  0  0  0  0
  -30.4320  -15.5610   21.2310 C   0  0  0  0  0  2  0  0  0  0  0  0
  -30.8080  -14.4700   20.1810 C   0  0  0  0  0  0  0  0  0  0  0  0
  -30.4040  -12.3570   18.9350 C   0  0  0  0  0  2  0  0  0  0  0  0
  -29.4230  -12.5830   17.7680 C   0  0  0  0  0  2  0  0  0  0  0  0
  -27.9650  -12.4460   18.2460 C   0  0  0  0  0  2  0  0  0  0  0  0
  -27.6860  -13.2660   19.5330 C   0  0  0  0  0  3  0  0  0  0  0  0
  -28.7720  -13.0090   20.6000 C   0  0  0  0  0  2  0  0  0  0  0  0
  -30.0810  -13.3250   20.0030 N   0  0  0  0  0  0  0  0  0  0  0  0
  -31.8380  -14.6690   19.5290 O   0  0  0  0  0  0  0  0  0  0  0  0
  -25.3170  -13.9020   20.3100 C   0  0  0  0  0  0  0  0  0  0  0  0
  -24.2510  -13.1440   20.7140 C   0  0  0  0  0  0  0  0  0  0  0  0
  -24.6940  -11.7870   20.6740 C   0  0  0  0  0  0  0  0  0  0  0  0
  -26.3440  -13.0070   20.0520 N   0  0  0  0  0  0  0  0  0  0  0  0
  -25.9750  -11.7300   20.3270 N   0  0  0  0  0  0  0  0  0  0  0  0
  -23.9570  -10.5340   20.8900 C   0  0  0  0  0  0  0  0  0  0  0  0
  -24.3890   -9.5780   21.8350 C   0  0  0  0  0  3  0  0  0  0  0  0
  -23.6530   -8.3890   22.0370 C   0  0  0  0  0  3  0  0  0  0  0  0
  -22.4730   -8.1500   21.2940 C   0  0  0  0  0  0  0  0  0  0  0  0
  -22.0600   -9.0960   20.3390 C   0  0  0  0  0  3  0  0  0  0  0  0
  -22.7960  -10.2750   20.1350 C   0  0  0  0  0  3  0  0  0  0  0  0
  -21.7090   -7.0140   21.4060 O   0  0  0  0  0  0  0  0  0  0  0  0
  -21.6400   -6.3040   22.5780 C   0  0  0  0  0  0  0  0  0  0  0  0
  -21.2010   -6.8950   23.7840 C   0  0  0  0  0  3  0  0  0  0  0  0
  -21.0810   -6.1120   24.9490 C   0  0  0  0  0  3  0  0  0  0  0  0
  -21.3890   -4.7390   24.9100 C   0  0  0  0  0  0  0  0  0  0  0  0
  -21.8210   -4.1480   23.7100 C   0  0  0  0  0  3  0  0  0  0  0  0
  -21.9440   -4.9280   22.5470 C   0  0  0  0  0  0  0  0  0  0  0  0
  -22.3410   -4.3480   21.3880 F   0  0  0  0  0  0  0  0  0  0  0  0
  -21.2660   -3.9850   26.0270 F   0  0  0  0  0  0  0  0  0  0  0  0
  -22.8680  -13.6400   21.0250 C   0  0  0  0  0  0  0  0  0  0  0  0
  -22.1570  -12.9560   21.9150 N   0  0  0  0  0  0  0  0  0  0  0  0
  -22.4270  -14.6690   20.5150 O   0  0  0  0  0  0  0  0  0  0  0  0
  -22.5260  -12.1230   22.3500 H   0  0  0  0  0  0  0  0  0  0  0  0
  -21.2300  -13.2700   22.1650 H   0  0  0  0  0  0  0  0  0  0  0  0
  -25.4930  -15.2690   20.1180 N   0  0  0  0  0  0  0  0  0  0  0  0
  -24.7300  -15.9290   20.2250 H   0  0  0  0  0  0  0  0  0  0  0  0
  -26.3190  -15.6840   19.7060 H   0  0  0  0  0  0  0  0  0  0  0  0
  -29.7100  -22.9390   19.4950 C   0  0  0  0  0  3  0  0  0  0  0  0
  -31.2600  -24.5580   18.1560 C   0  0  0  0  0  1  0  0  0  0  0  0
  -31.1380  -23.2560   18.9620 C   0  0  0  0  0  2  0  0  0  0  0  0
  -29.2110  -24.1230   20.4210 C   0  0  0  0  0  2  0  0  0  0  0  0
  -28.3060  -25.1930   19.7140 C   0  0  0  0  0  2  0  0  0  0  0  0
  -28.3230  -26.5480   20.2590 O   0  0  0  0  0  0  0  0  0  0  0  0
  -24.5800  -31.8690   23.2710 C   0  0  0  0  0  0  0  0  0  0  0  0
  -27.1730  -27.3380   20.1990 C   0  0  0  0  0  0  0  0  0  0  0  0
  -23.3600  -30.4660   21.6450 C   0  0  0  0  0  3  0  0  0  0  0  0
  -24.7970  -28.9160   20.2150 C   0  0  0  0  0  0  0  0  0  0  0  0
  -25.8950  -30.7890   21.4430 C   0  0  0  0  0  2  0  0  0  0  0  0
  -25.9660  -29.4120   20.8040 C   0  0  0  0  0  0  0  0  0  0  0  0
  -27.1510  -28.6280   20.7980 C   0  0  0  0  0  3  0  0  0  0  0  0
  -25.9810  -26.8950   19.5720 C   0  0  0  0  0  3  0  0  0  0  0  0
  -24.8040  -27.6590   19.5960 C   0  0  0  0  0  3  0  0  0  0  0  0
  -23.5610  -29.7860   20.2670 C   0  0  0  0  0  2  0  0  0  0  0  0
  -24.6310  -31.0580   22.1770 N   0  0  0  0  0  0  0  0  0  0  0  0
  -23.5020  -32.1520   23.8130 O   0  0  0  0  0  0  0  0  0  0  0  0
  -22.7070  -29.4520   22.6130 C   0  0  0  0  0  0  0  0  0  0  0  0
  -21.3830  -29.2640   22.4850 N   0  0  0  0  0  0  0  0  0  0  0  0
  -23.3890  -28.8370   23.4370 O   0  0  0  0  0  0  0  0  0  0  0  0
  -20.8930  -29.8130   21.7910 H   0  0  0  0  0  0  0  0  0  0  0  0
  -18.0120  -28.0550   22.9780 C   0  0  0  0  0  0  0  0  0  0  0  0
  -20.5660  -28.3330   23.2620 C   0  0  0  0  0  3  0  0  0  0  0  0
  -20.6810  -26.8940   22.7070 C   0  0  0  0  0  2  0  0  0  0  0  0
  -19.5880  -26.5510   21.6910 C   0  0  0  0  0  2  0  0  0  0  0  0
  -18.2000  -26.6970   22.3230 C   0  0  0  0  0  2  0  0  0  0  0  0
  -19.1230  -28.8300   23.4040 C   0  0  0  0  0  0  0  0  0  0  0  0
  -18.8930  -30.1000   23.9760 C   0  0  0  0  0  3  0  0  0  0  0  0
  -17.5840  -30.5970   24.1250 C   0  0  0  0  0  3  0  0  0  0  0  0
  -16.4880  -29.8190   23.7160 C   0  0  0  0  0  3  0  0  0  0  0  0
  -16.7020  -28.5500   23.1480 C   0  0  0  0  0  3  0  0  0  0  0  0
  -25.8710  -32.4990   23.8790 C   0  0  0  0  0  3  0  0  0  0  0  0
  -25.5660  -33.8970   24.2150 N   0  0  0  0  0  0  0  0  0  0  0  0
  -25.8950  -34.9510   23.4560 C   0  0  0  0  0  0  0  0  0  0  0  0
  -26.5600  -34.8490   22.4210 O   0  0  0  0  0  0  0  0  0  0  0  0
  -24.9760  -34.0500   25.0190 H   0  0  0  0  0  0  0  0  0  0  0  0
  -24.1720  -36.7490   23.1080 C   0  0  0  0  0  1  0  0  0  0  0  0
  -25.4110  -36.3380   23.9180 C   0  0  0  0  0  3  0  0  0  0  0  0
  -27.5460  -37.2140   24.7580 C   0  0  0  0  0  1  0  0  0  0  0  0
  -26.4480  -37.3890   23.8120 N   0  0  0  0  0  0  0  0  0  0  0  0
  -26.0430  -38.3100   23.9610 H   0  0  0  0  0  0  0  0  0  0  0  0
  -26.4020  -31.7250   25.1480 C   0  0  1  0  0  0  0  0  0  0  0  0
  -25.3200  -31.4830   26.2260 C   0  0  0  0  0  1  0  0  0  0  0  0
  -26.9830  -30.3500   24.7460 C   0  0  0  0  0  1  0  0  0  0  0  0
  -27.5570  -32.5200   25.8010 C   0  0  0  0  0  1  0  0  0  0  0  0
  1  3  1  0
  1  2  1  0
  5  4  1  0
  5  8  1  0
  5  1  1  0
  6 10  1  0
  8  6  2  0
  8  9  1  0
  9  7  2  0
 10  7  1  0
 10 11  1  0
 12 11  1  0
 13 18  1  0
 14 15  1  0
 14 13  1  0
 16 15  1  0
 16 23  1  0
 16 17  1  0
 18 12  1  0
 18 17  1  0
 19 12  2  0
 20 21  2  0
 21 40  1  0
 22 21  1  0
 22 25  1  0
 23 20  1  0
 23 24  1  0
 24 22  2  0
 25 26  1  0
 26 27  2  0
 28 31  1  0
 28 27  1  0
 29 28  2  0
 30 29  1  0
 30 25  2  0
 31 32  1  0
 32 33  1  0
 33 34  2  0
 35 34  1  0
 35 39  1  0
 36 35  2  0
 37 32  2  0
 37 36  1  0
 38 37  1  0
 40 41  1  0
 41 44  1  0
 41 43  1  0
 42 40  2  0
 45 46  1  0
 45 20  1  0
 47 45  1  0
 48 50  1  0
 48  1  1  0
 48 51  1  0
 49 50  1  0
 52 53  1  0
 52 51  1  0
 54 65  2  0
 55 53  1  0
 55 60  1  0
 56 64  1  0
 56 66  1  0
 57 63  1  0
 57 59  1  0
 58 64  1  0
 59 58  1  0
 60 59  2  0
 61 62  1  0
 61 55  2  0
 62 57  2  0
 63 56  1  0
 64 54  1  0
 66 68  2  0
 67 66  1  0
 69 67  1  0
 70 79  2  0
 70 75  1  0
 71 67  1  0
 71 75  1  0
 72 71  1  0
 73 74  1  0
 73 72  1  0
 74 70  1  0
 75 76  2  0
 76 77  1  0
 78 77  2  0
 79 78  1  0
 80 54  1  0
 80 81  1  0
 80 90  1  0
 81 84  1  0
 82 86  1  0
 82 81  1  0
 83 82  2  0
 86 85  1  0
 88 86  1  0
 88 89  1  0
 88 87  1  0
 90 93  1  1
 90 91  1  0
 92 90  1  0
M  ISO  4  11 100  12 100  52 101  53 101
M  END
>  <TORSDO>  (53) 
F 23

>  <SCORE>  (53) 
-12.682

>  <name>  (53) 
52

>  <ligand_id>  (53) 
52

>  <original_smiles>  (53) 
[H]c1c([H])c([H])c2c(c1[H])C([H])([H])C([H])([H])C([H])([H])C2([H])N([H])C(=O)C1([H])N(C(=O)C([H])(N([H])C(=O)C([H])(N([H])C([H])([H])[H])C([H])([H])[H])C(C([H])([H])[H])(C([H])([H])[H])C([H])([H])[H])C([H])([H])c2c([H])c(OC([H])([H])C([H])([H])C([H])(C([H])([H])C([H])([H])[H])[N+]([H])([H])C([H])(c3nc([H])n(C([H])([H])C(=O)N4C([H])([H])C([H])([H])C([H])([H])C([H])(n5nc(-c6c([H])c([H])c(Oc7c([H])c([H])c(F)c([H])c7F)c([H])c6[H])c(C(=O)N([H])[H])c5N([H])[H])C4([H])[H])c3[H])C([H])([H])[H])c([H])c([H])c2C1([H])[H]

>  <smiles>  (53) 
[H]c1c([H])c([H])c2c(c1[H])C([H])([H])C([H])([H])C([H])([H])C2([H])N([H])C(=O)C1([H])N(C(=O)C([H])(N([H])C(=O)C([H])(N([H])C([H])([H])[H])C([H])([H])[H])C(C([H])([H])[H])(C([H])([H])[H])C([H])([H])[H])C([H])([H])c2c([H])c(OC([H])([H])C([H])([H])C([H])(C([H])([H])C([H])([H])[H])[N+]([H])([H])C([H])(c3nc([H])n(C([H])([H])C(=O)N4C([H])([H])C([H])([H])C([H])([H])C([H])(n5nc(-c6c([H])c([H])c(Oc7c([H])c([H])c(F)c([H])c7F)c([H])c6[H])c(C(=O)N([H])[H])c5N([H])[H])C4([H])[H])c3[H])C([H])([H])[H])c([H])c([H])c2C1([H])[H]

$$$$
53:0:0
     RDKit          3D

 90 98  0  0  1  0  0  0  0  0999 V2000
  -29.7950  -19.0580   21.7100 C   0  0  0  0  0  3  0  0  0  0  0  0
  -29.7760  -18.7760   20.3650 C   0  0  0  0  0  0  0  0  0  0  0  0
  -29.2930  -21.1280   20.3690 C   0  0  0  0  0  0  0  0  0  0  0  0
  -29.4620  -19.9850   19.6340 N   0  0  0  0  0  0  0  0  0  0  0  0
  -29.0110  -22.4620   19.8950 N   0  0  0  0  0  0  0  0  0  0  0  0
  -29.4870  -20.7600   22.0830 S   0  0  0  0  0  0  0  0  0  0  0  0
  -28.8350  -22.4510   18.8930 H   0  0  0  0  0  0  0  0  0  0  0  0
  -30.6530  -24.2820   20.2060 C   0  0  0  0  0  1  0  0  0  0  0  0
  -29.1850  -23.8840   20.3980 C   0  0  0  0  0  3  0  0  0  0  0  0
  -28.2150  -25.0470   19.8130 C   0  0  0  0  0  2  0  0  0  0  0  0
  -28.3600  -26.4970   20.2070 O   0  0  0  0  0  0  0  0  0  0  0  0
  -24.6250  -31.9280   23.2630 C   0  0  0  0  0  0  0  0  0  0  0  0
  -27.2540  -27.3840   20.1430 C   0  0  0  0  0  0  0  0  0  0  0  0
  -23.4290  -30.5400   21.6080 C   0  0  0  0  0  3  0  0  0  0  0  0
  -24.8880  -29.0180   20.1550 C   0  0  0  0  0  0  0  0  0  0  0  0
  -25.9680  -30.8710   21.4250 C   0  0  0  0  0  2  0  0  0  0  0  0
  -26.0570  -29.4970   20.7610 C   0  0  0  0  0  0  0  0  0  0  0  0
  -27.2410  -28.6890   20.7470 C   0  0  0  0  0  3  0  0  0  0  0  0
  -26.0630  -26.9870   19.4940 C   0  0  0  0  0  3  0  0  0  0  0  0
  -24.8960  -27.7720   19.5110 C   0  0  0  0  0  3  0  0  0  0  0  0
  -23.6450  -29.8850   20.2190 C   0  0  0  0  0  2  0  0  0  0  0  0
  -24.6940  -31.1310   22.1570 N   0  0  0  0  0  0  0  0  0  0  0  0
  -23.5400  -32.1900   23.8040 O   0  0  0  0  0  0  0  0  0  0  0  0
  -22.7730  -29.5080   22.5570 C   0  0  0  0  0  0  0  0  0  0  0  0
  -21.4490  -29.3150   22.4240 N   0  0  0  0  0  0  0  0  0  0  0  0
  -23.4570  -28.8830   23.3710 O   0  0  0  0  0  0  0  0  0  0  0  0
  -20.9540  -29.8740   21.7430 H   0  0  0  0  0  0  0  0  0  0  0  0
  -18.0840  -28.0740   22.9070 C   0  0  0  0  0  0  0  0  0  0  0  0
  -20.6390  -28.3630   23.1870 C   0  0  0  0  0  3  0  0  0  0  0  0
  -20.7600  -26.9370   22.6000 C   0  0  0  0  0  2  0  0  0  0  0  0
  -19.6660  -26.6090   21.5800 C   0  0  0  0  0  2  0  0  0  0  0  0
  -18.2810  -26.7320   22.2200 C   0  0  0  0  0  2  0  0  0  0  0  0
  -19.1920  -28.8460   23.3470 C   0  0  0  0  0  0  0  0  0  0  0  0
  -18.9560  -30.1000   23.9510 C   0  0  0  0  0  3  0  0  0  0  0  0
  -17.6450  -30.5840   24.1170 C   0  0  0  0  0  3  0  0  0  0  0  0
  -16.5520  -29.8080   23.6970 C   0  0  0  0  0  3  0  0  0  0  0  0
  -16.7720  -28.5540   23.0970 C   0  0  0  0  0  3  0  0  0  0  0  0
  -25.9020  -32.5650   23.8910 C   0  0  0  0  0  3  0  0  0  0  0  0
  -26.4090  -31.8030   25.1770 C   0  0  1  0  0  0  0  0  0  0  0  0
  -25.3070  -31.5720   26.2370 C   0  0  0  0  0  1  0  0  0  0  0  0
  -26.9970  -30.4230   24.8030 C   0  0  0  0  0  1  0  0  0  0  0  0
  -27.5520  -32.6030   25.8450 C   0  0  0  0  0  1  0  0  0  0  0  0
  -25.5900  -33.9660   24.2100 N   0  0  0  0  0  0  0  0  0  0  0  0
  -25.9100  -35.0130   23.4380 C   0  0  0  0  0  0  0  0  0  0  0  0
  -26.5670  -34.9020   22.4000 O   0  0  0  0  0  0  0  0  0  0  0  0
  -25.0070  -34.1260   25.0190 H   0  0  0  0  0  0  0  0  0  0  0  0
  -24.1700  -36.7980   23.0910 C   0  0  0  0  0  1  0  0  0  0  0  0
  -25.4250  -36.4050   23.8880 C   0  0  0  0  0  3  0  0  0  0  0  0
  -27.5640  -37.3120   24.6830 C   0  0  0  0  0  1  0  0  0  0  0  0
  -26.4510  -37.4610   23.7480 N   0  0  0  0  0  0  0  0  0  0  0  0
  -26.0430  -38.3810   23.8860 H   0  0  0  0  0  0  0  0  0  0  0  0
  -30.1540  -17.4030   19.6760 C   0  0  0  0  0  2  0  0  0  0  0  0
  -30.7120  -14.9030   20.1720 C   0  0  0  0  0  0  0  0  0  0  0  0
  -30.5120  -12.6160   19.2100 C   0  0  0  0  0  2  0  0  0  0  0  0
  -29.5660  -12.6880   17.9900 C   0  0  0  0  0  2  0  0  0  0  0  0
  -28.1010  -12.5040   18.4340 C   0  0  0  0  0  2  0  0  0  0  0  0
  -27.7300  -13.3990   19.6440 C   0  0  0  0  0  3  0  0  0  0  0  0
  -28.7970  -13.3350   20.7590 C   0  0  0  0  0  2  0  0  0  0  0  0
  -30.0920  -13.6740   20.1570 N   0  0  0  0  0  0  0  0  0  0  0  0
  -31.8910  -14.9960   19.8160 O   0  0  0  0  0  0  0  0  0  0  0  0
  -29.9330  -16.0380   20.3240 N   0  0  0  0  0  0  0  0  0  0  0  0
  -28.9860  -15.8650   20.6250 H   0  0  0  0  0  0  0  0  0  0  0  0
  -25.3480  -13.9830   20.3950 C   0  0  0  0  0  0  0  0  0  0  0  0
  -24.2870  -13.2080   20.7780 C   0  0  0  0  0  0  0  0  0  0  0  0
  -24.7540  -11.8580   20.7460 C   0  0  0  0  0  0  0  0  0  0  0  0
  -26.3910  -13.1060   20.1480 N   0  0  0  0  0  0  0  0  0  0  0  0
  -26.0410  -11.8230   20.4230 N   0  0  0  0  0  0  0  0  0  0  0  0
  -24.0340  -10.5930   20.9490 C   0  0  0  0  0  0  0  0  0  0  0  0
  -24.4710   -9.6400   21.8950 C   0  0  0  0  0  3  0  0  0  0  0  0
  -23.7530   -8.4400   22.0840 C   0  0  0  0  0  3  0  0  0  0  0  0
  -22.5850   -8.1850   21.3290 C   0  0  0  0  0  0  0  0  0  0  0  0
  -22.1660   -9.1270   20.3730 C   0  0  0  0  0  3  0  0  0  0  0  0
  -22.8840  -10.3190   20.1810 C   0  0  0  0  0  3  0  0  0  0  0  0
  -21.8410   -7.0350   21.4240 O   0  0  0  0  0  0  0  0  0  0  0  0
  -21.7820   -6.3100   22.5870 C   0  0  0  0  0  0  0  0  0  0  0  0
  -21.3080   -6.8740   23.7920 C   0  0  0  0  0  3  0  0  0  0  0  0
  -21.2000   -6.0750   24.9480 C   0  0  0  0  0  3  0  0  0  0  0  0
  -21.5550   -4.7130   24.9000 C   0  0  0  0  0  0  0  0  0  0  0  0
  -22.0210   -4.1490   23.6990 C   0  0  0  0  0  3  0  0  0  0  0  0
  -22.1310   -4.9450   22.5460 C   0  0  0  0  0  0  0  0  0  0  0  0
  -22.5620   -4.3920   21.3860 F   0  0  0  0  0  0  0  0  0  0  0  0
  -21.4420   -3.9430   26.0060 F   0  0  0  0  0  0  0  0  0  0  0  0
  -22.8920  -13.6830   21.0600 C   0  0  0  0  0  0  0  0  0  0  0  0
  -22.1750  -12.9930   21.9400 N   0  0  0  0  0  0  0  0  0  0  0  0
  -22.4460  -14.7040   20.5380 O   0  0  0  0  0  0  0  0  0  0  0  0
  -22.5440  -12.1680   22.3880 H   0  0  0  0  0  0  0  0  0  0  0  0
  -21.2400  -13.3000   22.1730 H   0  0  0  0  0  0  0  0  0  0  0  0
  -25.5040  -15.3530   20.2090 N   0  0  0  0  0  0  0  0  0  0  0  0
  -24.7330  -16.0040   20.3160 H   0  0  0  0  0  0  0  0  0  0  0  0
  -26.3370  -15.7880   19.8340 H   0  0  0  0  0  0  0  0  0  0  0  0
  1  6  1  0
  2  1  2  0
  3  6  1  0
  4  2  1  0
  4  3  2  0
  5  3  1  0
  5  9  1  0
  7  5  1  0
  9  8  1  0
 10 11  1  0
 10  9  1  0
 12 23  2  0
 13 11  1  0
 13 18  1  0
 14 22  1  0
 14 24  1  0
 15 21  1  0
 15 17  1  0
 16 22  1  0
 17 16  1  0
 18 17  2  0
 19 20  1  0
 19 13  2  0
 20 15  2  0
 21 14  1  0
 22 12  1  0
 24 26  2  0
 25 24  1  0
 27 25  1  0
 28 37  2  0
 28 33  1  0
 29 25  1  0
 29 33  1  0
 30 29  1  0
 31 32  1  0
 31 30  1  0
 32 28  1  0
 33 34  2  0
 34 35  1  0
 36 35  2  0
 37 36  1  0
 38 12  1  0
 38 43  1  0
 38 39  1  0
 39 42  1  1
 39 40  1  0
 41 39  1  0
 43 46  1  0
 44 48  1  0
 44 43  1  0
 45 44  2  0
 48 47  1  0
 50 51  1  0
 50 48  1  0
 50 49  1  0
 52 61  1  0
 52  2  1  0
 53 61  1  0
 54 59  1  0
 55 56  1  0
 55 54  1  0
 57 56  1  0
 57 66  1  0
 57 58  1  0
 59 53  1  0
 59 58  1  0
 60 53  2  0
 61 62  1  0
 63 64  2  0
 64 83  1  0
 65 64  1  0
 65 68  1  0
 66 63  1  0
 66 67  1  0
 67 65  2  0
 68 69  1  0
 69 70  2  0
 71 74  1  0
 71 70  1  0
 72 71  2  0
 73 72  1  0
 73 68  2  0
 74 75  1  0
 75 76  1  0
 76 77  2  0
 78 77  1  0
 78 82  1  0
 79 78  2  0
 80 75  2  0
 80 79  1  0
 81 80  1  0
 83 84  1  0
 84 87  1  0
 84 86  1  0
 85 83  2  0
 88 89  1  0
 88 63  1  0
 90 88  1  0
M  ISO  4  10 101  11 101  53 100  61 100
M  END
>  <TORSDO>  (54) 
F 19

>  <SCORE>  (54) 
-13.294

>  <name>  (54) 
53

>  <ligand_id>  (54) 
53

>  <original_smiles>  (54) 
[H]c1sc(N([H])C([H])(C([H])([H])[H])C([H])([H])Oc2c([H])c([H])c3c(c2[H])C([H])([H])N(C(=O)C([H])(N([H])C(=O)C([H])(N([H])C([H])([H])[H])C([H])([H])[H])C(C([H])([H])[H])(C([H])([H])[H])C([H])([H])[H])C([H])(C(=O)N([H])C2([H])c4c([H])c([H])c([H])c([H])c4C([H])([H])C([H])([H])C2([H])[H])C3([H])[H])nc1C([H])([H])N([H])C(=O)N1C([H])([H])C([H])([H])C([H])([H])C([H])(n2nc(-c3c([H])c([H])c(Oc4c([H])c([H])c(F)c([H])c4F)c([H])c3[H])c(C(=O)N([H])[H])c2N([H])[H])C1([H])[H]

>  <smiles>  (54) 
[H]c1sc(N([H])C([H])(C([H])([H])[H])C([H])([H])Oc2c([H])c([H])c3c(c2[H])C([H])([H])N(C(=O)C([H])(N([H])C(=O)C([H])(N([H])C([H])([H])[H])C([H])([H])[H])C(C([H])([H])[H])(C([H])([H])[H])C([H])([H])[H])C([H])(C(=O)N([H])C2([H])c4c([H])c([H])c([H])c([H])c4C([H])([H])C([H])([H])C2([H])[H])C3([H])[H])nc1C([H])([H])N([H])C(=O)N1C([H])([H])C([H])([H])C([H])([H])C([H])(n2nc(-c3c([H])c([H])c(Oc4c([H])c([H])c(F)c([H])c4F)c([H])c3[H])c(C(=O)N([H])[H])c2N([H])[H])C1([H])[H]

$$$$
54:0:0
     RDKit          3D

 93101  0  0  1  0  0  0  0  0999 V2000
  -29.7140  -18.4660   20.8920 C   0  0  0  0  0  3  0  0  0  0  0  0
  -29.6450  -17.1840   20.2160 C   0  0  0  0  0  0  0  0  0  0  0  0
  -29.3200  -19.6790   20.2170 C   0  0  0  0  0  0  0  0  0  0  0  0
  -28.8030  -18.3690   18.4050 C   0  0  0  0  0  0  0  0  0  0  0  0
  -28.2050  -18.2990   17.0160 C   0  0  0  0  0  1  0  0  0  0  0  0
  -29.1680  -17.2100   18.9550 N   0  0  0  0  0  0  0  0  0  0  0  0
  -28.8600  -19.5760   18.9640 N   0  0  0  0  0  0  0  0  0  0  0  0
  -29.3690  -21.0240   20.7390 N   0  0  0  0  0  0  0  0  0  0  0  0
  -29.6460  -21.1480   21.7080 H   0  0  0  0  0  0  0  0  0  0  0  0
  -30.6020  -14.7800   20.4080 C   0  0  0  0  0  0  0  0  0  0  0  0
  -30.4040  -12.5120   19.3790 C   0  0  0  0  0  2  0  0  0  0  0  0
  -29.4850  -12.6240   18.1400 C   0  0  0  0  0  2  0  0  0  0  0  0
  -28.0070  -12.4650   18.5430 C   0  0  0  0  0  2  0  0  0  0  0  0
  -27.6280  -13.3360   19.7700 C   0  0  0  0  0  3  0  0  0  0  0  0
  -28.6660  -13.2020   20.9080 C   0  0  0  0  0  2  0  0  0  0  0  0
  -29.9830  -13.5480   20.3520 N   0  0  0  0  0  0  0  0  0  0  0  0
  -31.7630  -14.8920   19.9990 O   0  0  0  0  0  0  0  0  0  0  0  0
  -29.8830  -15.8750   20.8590 N   0  0  0  0  0  0  0  0  0  0  0  0
  -29.1040  -15.5920   21.4310 H   0  0  0  0  0  0  0  0  0  0  0  0
  -25.2290  -13.9440   20.4480 C   0  0  0  0  0  0  0  0  0  0  0  0
  -24.1530  -13.1780   20.8040 C   0  0  0  0  0  0  0  0  0  0  0  0
  -24.6100  -11.8230   20.7890 C   0  0  0  0  0  0  0  0  0  0  0  0
  -26.2730  -13.0570   20.2340 N   0  0  0  0  0  0  0  0  0  0  0  0
  -25.9050  -11.7780   20.5020 N   0  0  0  0  0  0  0  0  0  0  0  0
  -23.8730  -10.5660   20.9750 C   0  0  0  0  0  0  0  0  0  0  0  0
  -24.2880   -9.5990   21.9160 C   0  0  0  0  0  3  0  0  0  0  0  0
  -23.5530   -8.4060   22.0890 C   0  0  0  0  0  3  0  0  0  0  0  0
  -22.3880   -8.1730   21.3210 C   0  0  0  0  0  0  0  0  0  0  0  0
  -21.9920   -9.1280   20.3690 C   0  0  0  0  0  3  0  0  0  0  0  0
  -22.7270  -10.3120   20.1940 C   0  0  0  0  0  3  0  0  0  0  0  0
  -21.6250   -7.0330   21.4030 O   0  0  0  0  0  0  0  0  0  0  0  0
  -21.5590   -6.2920   22.5570 C   0  0  0  0  0  0  0  0  0  0  0  0
  -21.1200   -6.8530   23.7760 C   0  0  0  0  0  3  0  0  0  0  0  0
  -21.0000   -6.0390   24.9210 C   0  0  0  0  0  3  0  0  0  0  0  0
  -21.3070   -4.6670   24.8470 C   0  0  0  0  0  0  0  0  0  0  0  0
  -21.7380   -4.1070   23.6310 C   0  0  0  0  0  3  0  0  0  0  0  0
  -21.8610   -4.9180   22.4890 C   0  0  0  0  0  0  0  0  0  0  0  0
  -22.2560   -4.3690   21.3150 F   0  0  0  0  0  0  0  0  0  0  0  0
  -21.1850   -3.8840   25.9430 F   0  0  0  0  0  0  0  0  0  0  0  0
  -22.7550  -13.6630   21.0500 C   0  0  0  0  0  0  0  0  0  0  0  0
  -22.0070  -12.9760   21.9050 N   0  0  0  0  0  0  0  0  0  0  0  0
  -22.3330  -14.6900   20.5180 O   0  0  0  0  0  0  0  0  0  0  0  0
  -22.3610  -12.1470   22.3580 H   0  0  0  0  0  0  0  0  0  0  0  0
  -21.0660  -13.2830   22.1100 H   0  0  0  0  0  0  0  0  0  0  0  0
  -25.4050  -15.3120   20.2650 N   0  0  0  0  0  0  0  0  0  0  0  0
  -24.6370  -15.9680   20.3500 H   0  0  0  0  0  0  0  0  0  0  0  0
  -26.2540  -15.7370   19.9110 H   0  0  0  0  0  0  0  0  0  0  0  0
  -28.6880  -22.2250   20.1050 C   0  0  0  0  0  2  0  0  0  0  0  0
  -28.9650  -23.7140   20.6860 C   0  0  0  0  0  3  0  0  0  0  0  0
  -28.7860  -23.5800   22.0870 O   0  0  0  0  0  0  0  0  0  0  0  0
  -28.9560  -24.4350   22.4700 H   0  0  0  0  0  0  0  0  0  0  0  0
  -28.0090  -24.9280   20.1830 C   0  0  0  0  0  2  0  0  0  0  0  0
  -28.2920  -26.3960   20.3970 O   0  0  0  0  0  0  0  0  0  0  0  0
  -24.6280  -31.9720   23.2710 C   0  0  0  0  0  0  0  0  0  0  0  0
  -27.2150  -27.3140   20.2950 C   0  0  0  0  0  0  0  0  0  0  0  0
  -23.4300  -30.5680   21.6360 C   0  0  0  0  0  3  0  0  0  0  0  0
  -24.8790  -28.9930   20.2320 C   0  0  0  0  0  0  0  0  0  0  0  0
  -25.9780  -30.8490   21.4770 C   0  0  0  0  0  2  0  0  0  0  0  0
  -26.0510  -29.4610   20.8410 C   0  0  0  0  0  0  0  0  0  0  0  0
  -27.2220  -28.6360   20.8600 C   0  0  0  0  0  3  0  0  0  0  0  0
  -26.0220  -26.9240   19.6430 C   0  0  0  0  0  3  0  0  0  0  0  0
  -24.8720  -27.7330   19.6190 C   0  0  0  0  0  3  0  0  0  0  0  0
  -23.6510  -29.8820   20.2630 C   0  0  0  0  0  2  0  0  0  0  0  0
  -24.6980  -31.1480   22.1840 N   0  0  0  0  0  0  0  0  0  0  0  0
  -23.5420  -32.2660   23.7900 O   0  0  0  0  0  0  0  0  0  0  0  0
  -22.7460  -29.5680   22.5980 C   0  0  0  0  0  0  0  0  0  0  0  0
  -21.4180  -29.4040   22.4630 N   0  0  0  0  0  0  0  0  0  0  0  0
  -23.4110  -28.9400   23.4280 O   0  0  0  0  0  0  0  0  0  0  0  0
  -20.9400  -29.9610   21.7690 H   0  0  0  0  0  0  0  0  0  0  0  0
  -18.0230  -28.2620   22.9660 C   0  0  0  0  0  0  0  0  0  0  0  0
  -20.5830  -28.4820   23.2360 C   0  0  0  0  0  3  0  0  0  0  0  0
  -20.6630  -27.0470   22.6680 C   0  0  0  0  0  2  0  0  0  0  0  0
  -19.5560  -26.7360   21.6540 C   0  0  0  0  0  2  0  0  0  0  0  0
  -18.1780  -26.9060   22.2970 C   0  0  0  0  0  2  0  0  0  0  0  0
  -19.1530  -29.0080   23.3940 C   0  0  0  0  0  0  0  0  0  0  0  0
  -18.9530  -30.2760   23.9810 C   0  0  0  0  0  3  0  0  0  0  0  0
  -17.6550  -30.7970   24.1450 C   0  0  0  0  0  3  0  0  0  0  0  0
  -16.5400  -30.0480   23.7350 C   0  0  0  0  0  3  0  0  0  0  0  0
  -16.7250  -28.7820   23.1510 C   0  0  0  0  0  3  0  0  0  0  0  0
  -25.9110  -32.6020   23.8990 C   0  0  0  0  0  3  0  0  0  0  0  0
  -26.4150  -31.8320   25.1800 C   0  0  1  0  0  0  0  0  0  0  0  0
  -25.3110  -31.5850   26.2340 C   0  0  0  0  0  1  0  0  0  0  0  0
  -27.0120  -30.4580   24.7940 C   0  0  0  0  0  1  0  0  0  0  0  0
  -27.5520  -32.6320   25.8580 C   0  0  0  0  0  1  0  0  0  0  0  0
  -25.6020  -34.0020   24.2280 N   0  0  0  0  0  0  0  0  0  0  0  0
  -25.9200  -35.0530   23.4610 C   0  0  0  0  0  0  0  0  0  0  0  0
  -26.5750  -34.9480   22.4200 O   0  0  0  0  0  0  0  0  0  0  0  0
  -25.0180  -34.1570   25.0370 H   0  0  0  0  0  0  0  0  0  0  0  0
  -24.1730  -36.8360   23.1440 C   0  0  0  0  0  1  0  0  0  0  0  0
  -25.4390  -36.4430   23.9230 C   0  0  0  0  0  3  0  0  0  0  0  0
  -27.5890  -37.3470   24.6910 C   0  0  0  0  0  1  0  0  0  0  0  0
  -26.4620  -37.5000   23.7730 N   0  0  0  0  0  0  0  0  0  0  0  0
  -26.0550  -38.4190   23.9210 H   0  0  0  0  0  0  0  0  0  0  0  0
  2 18  1  0
  2  1  2  0
  3  8  1  0
  3  1  1  0
  4  6  2  0
  4  7  1  0
  5  4  1  0
  6  2  1  0
  7  3  2  0
  8  9  1  0
 10 18  1  0
 11 16  1  0
 12 13  1  0
 12 11  1  0
 14 13  1  0
 14 23  1  0
 14 15  1  0
 16 10  1  0
 16 15  1  0
 17 10  2  0
 18 19  1  0
 20 21  2  0
 21 40  1  0
 22 21  1  0
 22 25  1  0
 23 20  1  0
 23 24  1  0
 24 22  2  0
 25 26  1  0
 26 27  2  0
 28 31  1  0
 28 27  1  0
 29 28  2  0
 30 29  1  0
 30 25  2  0
 31 32  1  0
 32 33  1  0
 33 34  2  0
 35 34  1  0
 35 39  1  0
 36 35  2  0
 37 32  2  0
 37 36  1  0
 38 37  1  0
 40 41  1  0
 41 44  1  0
 41 43  1  0
 42 40  2  0
 45 46  1  0
 45 20  1  0
 47 45  1  0
 48  8  1  0
 49 48  1  0
 49 50  1  0
 50 51  1  0
 52 53  1  0
 52 49  1  0
 54 65  2  0
 55 53  1  0
 55 60  1  0
 56 64  1  0
 56 66  1  0
 57 63  1  0
 57 59  1  0
 58 64  1  0
 59 60  2  0
 59 58  1  0
 61 55  2  0
 62 61  1  0
 62 57  2  0
 63 56  1  0
 64 54  1  0
 66 68  2  0
 67 66  1  0
 69 67  1  0
 70 79  2  0
 70 75  1  0
 71 67  1  0
 71 75  1  0
 72 71  1  0
 73 74  1  0
 73 72  1  0
 74 70  1  0
 75 76  2  0
 76 77  1  0
 78 77  2  0
 79 78  1  0
 80 54  1  0
 80 85  1  0
 80 81  1  0
 81 84  1  1
 81 82  1  0
 83 81  1  0
 85 88  1  0
 86 90  1  0
 86 85  1  0
 87 86  2  0
 90 89  1  0
 92 93  1  0
 92 90  1  0
 92 91  1  0
M  ISO  4  10 100  18 100  52 101  53 101
M  END
>  <TORSDO>  (55) 
F 20

>  <SCORE>  (55) 
-14.112

>  <name>  (55) 
54

>  <ligand_id>  (55) 
54

>  <original_smiles>  (55) 
[H]OC([H])(C([H])([H])Oc1c([H])c([H])c2c(c1[H])C([H])([H])N(C(=O)C([H])(N([H])C(=O)C([H])(N([H])C([H])([H])[H])C([H])([H])[H])C(C([H])([H])[H])(C([H])([H])[H])C([H])([H])[H])C([H])(C(=O)N([H])C1([H])c3c([H])c([H])c([H])c([H])c3C([H])([H])C([H])([H])C1([H])[H])C2([H])[H])C([H])([H])N([H])c1nc(C([H])([H])[H])nc(N([H])C(=O)N2C([H])([H])C([H])([H])C([H])([H])C([H])(n3nc(-c4c([H])c([H])c(Oc5c([H])c([H])c(F)c([H])c5F)c([H])c4[H])c(C(=O)N([H])[H])c3N([H])[H])C2([H])[H])c1[H]

>  <smiles>  (55) 
[H]OC([H])(C([H])([H])Oc1c([H])c([H])c2c(c1[H])C([H])([H])N(C(=O)C([H])(N([H])C(=O)C([H])(N([H])C([H])([H])[H])C([H])([H])[H])C(C([H])([H])[H])(C([H])([H])[H])C([H])([H])[H])C([H])(C(=O)N([H])C1([H])c3c([H])c([H])c([H])c([H])c3C([H])([H])C([H])([H])C1([H])[H])C2([H])[H])C([H])([H])N([H])c1nc(C([H])([H])[H])nc(N([H])C(=O)N2C([H])([H])C([H])([H])C([H])([H])C([H])(n3nc(-c4c([H])c([H])c(Oc5c([H])c([H])c(F)c([H])c5F)c([H])c4[H])c(C(=O)N([H])[H])c3N([H])[H])C2([H])[H])c1[H]

$$$$
55:0:0
     RDKit          3D

 96104  0  0  1  0  0  0  0  0999 V2000
  -31.6170  -18.1450   20.1230 C   0  0  0  0  0  3  0  0  0  0  0  0
  -30.2880  -18.0760   20.5600 C   0  0  0  0  0  0  0  0  0  0  0  0
  -32.1530  -19.4250   19.9470 C   0  0  0  0  0  0  0  0  0  0  0  0
  -30.2220  -20.3950   20.6670 C   0  0  0  0  0  0  0  0  0  0  0  0
  -29.6100  -19.2230   20.8620 N   0  0  0  0  0  0  0  0  0  0  0  0
  -31.4570  -20.5430   20.2020 N   0  0  0  0  0  0  0  0  0  0  0  0
  -33.4410  -19.6020   19.4730 N   0  0  0  0  0  0  0  0  0  0  0  0
  -29.5260  -21.5550   20.9940 N   0  0  0  0  0  0  0  0  0  0  0  0
  -33.9170  -18.8210   19.0390 H   0  0  0  0  0  0  0  0  0  0  0  0
  -33.6720  -20.5030   19.0690 H   0  0  0  0  0  0  0  0  0  0  0  0
  -28.6710  -21.3890   21.5110 H   0  0  0  0  0  0  0  0  0  0  0  0
  -29.4840  -16.7590   20.5290 C   0  0  0  0  0  2  0  0  0  0  0  0
  -30.6510  -14.5350   20.4760 C   0  0  0  0  0  0  0  0  0  0  0  0
  -30.3710  -12.3570   19.3350 C   0  0  0  0  0  2  0  0  0  0  0  0
  -29.4360  -12.5760   18.1250 C   0  0  0  0  0  2  0  0  0  0  0  0
  -27.9550  -12.4480   18.5350 C   0  0  0  0  0  2  0  0  0  0  0  0
  -27.6190  -13.2560   19.8200 C   0  0  0  0  0  3  0  0  0  0  0  0
  -28.6730  -13.0220   20.9300 C   0  0  0  0  0  2  0  0  0  0  0  0
  -30.0070  -13.3320   20.3820 N   0  0  0  0  0  0  0  0  0  0  0  0
  -31.7160  -14.7600   19.8990 O   0  0  0  0  0  0  0  0  0  0  0  0
  -29.9920  -15.5070   21.1380 N   0  0  0  0  0  0  0  0  0  0  0  0
  -29.3390  -15.1420   21.8120 H   0  0  0  0  0  0  0  0  0  0  0  0
  -25.2160  -13.8630   20.5120 C   0  0  0  0  0  0  0  0  0  0  0  0
  -24.1460  -13.0940   20.8850 C   0  0  0  0  0  0  0  0  0  0  0  0
  -24.6060  -11.7410   20.8570 C   0  0  0  0  0  0  0  0  0  0  0  0
  -26.2630  -12.9800   20.2880 N   0  0  0  0  0  0  0  0  0  0  0  0
  -25.8960  -11.6980   20.5510 N   0  0  0  0  0  0  0  0  0  0  0  0
  -23.8740  -10.4820   21.0510 C   0  0  0  0  0  0  0  0  0  0  0  0
  -24.3140   -9.5090   21.9750 C   0  0  0  0  0  3  0  0  0  0  0  0
  -23.5870   -8.3130   22.1580 C   0  0  0  0  0  3  0  0  0  0  0  0
  -22.4040   -8.0820   21.4180 C   0  0  0  0  0  0  0  0  0  0  0  0
  -21.9830   -9.0440   20.4810 C   0  0  0  0  0  3  0  0  0  0  0  0
  -22.7100  -10.2310   20.2970 C   0  0  0  0  0  3  0  0  0  0  0  0
  -21.6480   -6.9380   21.5110 O   0  0  0  0  0  0  0  0  0  0  0  0
  -21.6190   -6.1840   22.6560 C   0  0  0  0  0  0  0  0  0  0  0  0
  -21.2320   -6.7300   23.8990 C   0  0  0  0  0  3  0  0  0  0  0  0
  -21.1510   -5.9020   25.0370 C   0  0  0  0  0  3  0  0  0  0  0  0
  -21.4460   -4.5290   24.9330 C   0  0  0  0  0  0  0  0  0  0  0  0
  -21.8220   -3.9820   23.6930 C   0  0  0  0  0  3  0  0  0  0  0  0
  -21.9060   -4.8070   22.5580 C   0  0  0  0  0  0  0  0  0  0  0  0
  -22.2530   -4.2710   21.3630 F   0  0  0  0  0  0  0  0  0  0  0  0
  -21.3600   -3.7320   26.0240 F   0  0  0  0  0  0  0  0  0  0  0  0
  -22.7500  -13.5760   21.1560 C   0  0  0  0  0  0  0  0  0  0  0  0
  -22.0180  -12.8820   22.0220 N   0  0  0  0  0  0  0  0  0  0  0  0
  -22.3120  -14.6000   20.6320 O   0  0  0  0  0  0  0  0  0  0  0  0
  -22.3810  -12.0530   22.4710 H   0  0  0  0  0  0  0  0  0  0  0  0
  -21.0790  -13.1830   22.2380 H   0  0  0  0  0  0  0  0  0  0  0  0
  -25.3800  -15.2320   20.3250 N   0  0  0  0  0  0  0  0  0  0  0  0
  -24.6110  -15.8870   20.4270 H   0  0  0  0  0  0  0  0  0  0  0  0
  -26.2270  -15.6700   19.9920 H   0  0  0  0  0  0  0  0  0  0  0  0
  -29.4030  -22.7320   20.1020 C   0  0  0  0  0  2  0  0  0  0  0  0
  -29.0820  -24.1080   20.8090 C   0  0  0  0  0  3  0  0  0  0  0  0
  -28.3050  -23.8140   21.9630 O   0  0  0  0  0  0  0  0  0  0  0  0
  -28.1520  -24.6370   22.4160 H   0  0  0  0  0  0  0  0  0  0  0  0
  -28.2490  -25.1200   19.9290 C   0  0  0  0  0  2  0  0  0  0  0  0
  -28.3480  -26.5500   20.2540 O   0  0  0  0  0  0  0  0  0  0  0  0
  -24.6030  -31.8930   23.2360 C   0  0  0  0  0  0  0  0  0  0  0  0
  -27.2070  -27.3550   20.1840 C   0  0  0  0  0  0  0  0  0  0  0  0
  -23.3940  -30.4930   21.5990 C   0  0  0  0  0  3  0  0  0  0  0  0
  -24.8390  -28.9490   20.1720 C   0  0  0  0  0  0  0  0  0  0  0  0
  -25.9280  -30.8180   21.4110 C   0  0  0  0  0  2  0  0  0  0  0  0
  -26.0030  -29.4400   20.7720 C   0  0  0  0  0  0  0  0  0  0  0  0
  -27.1860  -28.6500   20.7800 C   0  0  0  0  0  3  0  0  0  0  0  0
  -26.0220  -26.9210   19.5410 C   0  0  0  0  0  3  0  0  0  0  0  0
  -24.8470  -27.6930   19.5490 C   0  0  0  0  0  3  0  0  0  0  0  0
  -23.6020  -29.8190   20.2180 C   0  0  0  0  0  2  0  0  0  0  0  0
  -24.6610  -31.0840   22.1390 N   0  0  0  0  0  0  0  0  0  0  0  0
  -23.5220  -32.1740   23.7710 O   0  0  0  0  0  0  0  0  0  0  0  0
  -22.7300  -29.4780   22.5600 C   0  0  0  0  0  0  0  0  0  0  0  0
  -21.4030  -29.3090   22.4400 N   0  0  0  0  0  0  0  0  0  0  0  0
  -23.4100  -28.8450   23.3750 O   0  0  0  0  0  0  0  0  0  0  0  0
  -20.9130  -29.8720   21.7570 H   0  0  0  0  0  0  0  0  0  0  0  0
  -18.0200  -28.1440   22.9590 C   0  0  0  0  0  0  0  0  0  0  0  0
  -20.5820  -28.3800   23.2160 C   0  0  0  0  0  3  0  0  0  0  0  0
  -20.6690  -26.9470   22.6410 C   0  0  0  0  0  2  0  0  0  0  0  0
  -19.5580  -26.6340   21.6330 C   0  0  0  0  0  2  0  0  0  0  0  0
  -18.1800  -26.7930   22.2830 C   0  0  0  0  0  2  0  0  0  0  0  0
  -19.1470  -28.8960   23.3830 C   0  0  0  0  0  0  0  0  0  0  0  0
  -18.9420  -30.1620   23.9760 C   0  0  0  0  0  3  0  0  0  0  0  0
  -17.6420  -30.6740   24.1470 C   0  0  0  0  0  3  0  0  0  0  0  0
  -16.5290  -29.9190   23.7390 C   0  0  0  0  0  3  0  0  0  0  0  0
  -16.7190  -28.6560   23.1490 C   0  0  0  0  0  3  0  0  0  0  0  0
  -25.8900  -32.5220   23.8550 C   0  0  0  0  0  3  0  0  0  0  0  0
  -25.5840  -33.9210   24.1870 N   0  0  0  0  0  0  0  0  0  0  0  0
  -25.9160  -34.9740   23.4280 C   0  0  0  0  0  0  0  0  0  0  0  0
  -26.5830  -34.8700   22.3950 O   0  0  0  0  0  0  0  0  0  0  0  0
  -24.9930  -34.0750   24.9910 H   0  0  0  0  0  0  0  0  0  0  0  0
  -24.1930  -36.7720   23.0780 C   0  0  0  0  0  1  0  0  0  0  0  0
  -25.4330  -36.3620   23.8880 C   0  0  0  0  0  3  0  0  0  0  0  0
  -27.5720  -37.2380   24.7160 C   0  0  0  0  0  1  0  0  0  0  0  0
  -26.4670  -37.4130   23.7760 N   0  0  0  0  0  0  0  0  0  0  0  0
  -26.0620  -38.3320   23.9320 H   0  0  0  0  0  0  0  0  0  0  0  0
  -26.4080  -31.7480   25.1290 C   0  0  1  0  0  0  0  0  0  0  0  0
  -25.3190  -31.5140   26.2000 C   0  0  0  0  0  1  0  0  0  0  0  0
  -26.9860  -30.3690   24.7350 C   0  0  0  0  0  1  0  0  0  0  0  0
  -27.5640  -32.5380   25.7880 C   0  0  0  0  0  1  0  0  0  0  0  0
  1  2  2  0
  2  5  1  0
  3  1  1  0
  3  6  2  0
  4  5  2  0
  4  8  1  0
  6  4  1  0
  7  3  1  0
  8 11  1  0
  9  7  1  0
 10  7  1  0
 12  2  1  0
 12 21  1  0
 13 21  1  0
 14 19  1  0
 15 16  1  0
 15 14  1  0
 17 16  1  0
 17 26  1  0
 17 18  1  0
 19 13  1  0
 19 18  1  0
 20 13  2  0
 21 22  1  0
 23 24  2  0
 24 43  1  0
 25 24  1  0
 25 28  1  0
 26 23  1  0
 26 27  1  0
 27 25  2  0
 28 29  1  0
 29 30  2  0
 31 34  1  0
 31 30  1  0
 32 31  2  0
 33 32  1  0
 33 28  2  0
 34 35  1  0
 35 36  1  0
 36 37  2  0
 38 37  1  0
 38 42  1  0
 39 38  2  0
 40 35  2  0
 40 39  1  0
 41 40  1  0
 43 44  1  0
 44 47  1  0
 44 46  1  0
 45 43  2  0
 48 49  1  0
 48 23  1  0
 50 48  1  0
 51 52  1  0
 51  8  1  0
 52 55  1  0
 52 53  1  0
 53 54  1  0
 55 56  1  0
 57 68  2  0
 58 56  1  0
 58 63  1  0
 59 67  1  0
 59 69  1  0
 60 66  1  0
 60 62  1  0
 61 67  1  0
 62 63  2  0
 62 61  1  0
 64 65  1  0
 64 58  2  0
 65 60  2  0
 66 59  1  0
 67 57  1  0
 69 71  2  0
 70 69  1  0
 72 70  1  0
 73 82  2  0
 73 78  1  0
 74 70  1  0
 74 78  1  0
 75 74  1  0
 76 77  1  0
 76 75  1  0
 77 73  1  0
 78 79  2  0
 79 80  1  0
 81 80  2  0
 82 81  1  0
 83 57  1  0
 83 84  1  0
 83 93  1  0
 84 87  1  0
 85 89  1  0
 85 84  1  0
 86 85  2  0
 89 88  1  0
 91 89  1  0
 91 92  1  0
 91 90  1  0
 93 96  1  1
 93 94  1  0
 95 93  1  0
M  ISO  4  13 100  21 100  55 101  56 101
M  END
>  <TORSDO>  (56) 
F 21

>  <SCORE>  (56) 
-13.943

>  <name>  (56) 
55

>  <ligand_id>  (56) 
55

>  <original_smiles>  (56) 
[H]OC([H])(C([H])([H])Oc1c([H])c([H])c2c(c1[H])C([H])([H])N(C(=O)C([H])(N([H])C(=O)C([H])(N([H])C([H])([H])[H])C([H])([H])[H])C(C([H])([H])[H])(C([H])([H])[H])C([H])([H])[H])C([H])(C(=O)N([H])C1([H])c3c([H])c([H])c([H])c([H])c3C([H])([H])C([H])([H])C1([H])[H])C2([H])[H])C([H])([H])N([H])c1nc(N([H])[H])c([H])c(C([H])([H])N([H])C(=O)N2C([H])([H])C([H])([H])C([H])([H])C([H])(n3nc(-c4c([H])c([H])c(Oc5c([H])c([H])c(F)c([H])c5F)c([H])c4[H])c(C(=O)N([H])[H])c3N([H])[H])C2([H])[H])n1

>  <smiles>  (56) 
[H]OC([H])(C([H])([H])Oc1c([H])c([H])c2c(c1[H])C([H])([H])N(C(=O)C([H])(N([H])C(=O)C([H])(N([H])C([H])([H])[H])C([H])([H])[H])C(C([H])([H])[H])(C([H])([H])[H])C([H])([H])[H])C([H])(C(=O)N([H])C1([H])c3c([H])c([H])c([H])c([H])c3C([H])([H])C([H])([H])C1([H])[H])C2([H])[H])C([H])([H])N([H])c1nc(N([H])[H])c([H])c(C([H])([H])N([H])C(=O)N2C([H])([H])C([H])([H])C([H])([H])C([H])(n3nc(-c4c([H])c([H])c(Oc5c([H])c([H])c(F)c([H])c5F)c([H])c4[H])c(C(=O)N([H])[H])c3N([H])[H])C2([H])[H])n1

$$$$
56:0:0
     RDKit          3D

 92100  0  0  1  0  0  0  0  0999 V2000
  -29.1550  -22.5210   20.2270 N   0  0  0  0  0  0  0  0  0  0  0  0
  -28.9410  -22.3800   21.2150 H   0  0  0  0  0  0  0  0  0  0  0  0
  -31.5030  -21.4160   20.5760 O   0  0  0  0  0  0  0  0  0  0  0  0
  -30.4460  -21.3640   18.2750 O   0  0  0  0  0  0  0  0  0  0  0  0
  -30.3050  -21.2360   19.7370 S   0  0  2  0  0  0  0  0  0  0  0  0
  -28.2760  -17.5090   20.5480 C   0  0  0  0  0  3  0  0  0  0  0  0
  -29.5860  -17.1410   20.3350 C   0  0  0  0  0  0  0  0  0  0  0  0
  -29.6940  -19.4840   20.0470 C   0  0  0  0  0  0  0  0  0  0  0  0
  -30.3950  -18.2900   20.0450 N   0  0  0  0  0  0  0  0  0  0  0  0
  -27.9930  -19.2310   20.3950 S   0  0  0  0  0  0  0  0  0  0  0  0
  -30.6970  -14.7410   19.9360 C   0  0  0  0  0  0  0  0  0  0  0  0
  -30.5590  -12.4520   18.9370 C   0  0  0  0  0  2  0  0  0  0  0  0
  -29.5520  -12.5020   17.7640 C   0  0  0  0  0  2  0  0  0  0  0  0
  -28.1000  -12.3220   18.2540 C   0  0  0  0  0  2  0  0  0  0  0  0
  -27.7750  -13.2090   19.4830 C   0  0  0  0  0  3  0  0  0  0  0  0
  -28.8820  -13.0870   20.5550 C   0  0  0  0  0  2  0  0  0  0  0  0
  -30.1580  -13.4760   19.9230 N   0  0  0  0  0  0  0  0  0  0  0  0
  -31.8140  -14.9690   19.4530 O   0  0  0  0  0  0  0  0  0  0  0  0
  -29.8480  -15.6990   20.4350 N   0  0  0  0  0  0  0  0  0  0  0  0
  -29.0820  -15.2170   20.8780 H   0  0  0  0  0  0  0  0  0  0  0  0
  -25.4240  -13.8050   20.3370 C   0  0  0  0  0  0  0  0  0  0  0  0
  -24.3760  -13.0280   20.7500 C   0  0  0  0  0  0  0  0  0  0  0  0
  -24.8310  -11.6760   20.6710 C   0  0  0  0  0  0  0  0  0  0  0  0
  -26.4510  -12.9240   20.0310 N   0  0  0  0  0  0  0  0  0  0  0  0
  -26.1030  -11.6390   20.2930 N   0  0  0  0  0  0  0  0  0  0  0  0
  -24.1130  -10.4120   20.8770 C   0  0  0  0  0  0  0  0  0  0  0  0
  -24.5380   -9.4730   21.8410 C   0  0  0  0  0  3  0  0  0  0  0  0
  -23.8220   -8.2720   22.0360 C   0  0  0  0  0  3  0  0  0  0  0  0
  -22.6650   -8.0040   21.2650 C   0  0  0  0  0  0  0  0  0  0  0  0
  -22.2600   -8.9330   20.2910 C   0  0  0  0  0  3  0  0  0  0  0  0
  -22.9770  -10.1250   20.0960 C   0  0  0  0  0  3  0  0  0  0  0  0
  -21.9210   -6.8540   21.3670 O   0  0  0  0  0  0  0  0  0  0  0  0
  -21.7930   -6.1810   22.5560 C   0  0  0  0  0  0  0  0  0  0  0  0
  -21.2550   -6.7970   23.7060 C   0  0  0  0  0  3  0  0  0  0  0  0
  -21.0750   -6.0490   24.8870 C   0  0  0  0  0  3  0  0  0  0  0  0
  -21.4250   -4.6860   24.9170 C   0  0  0  0  0  0  0  0  0  0  0  0
  -21.9560   -4.0690   23.7710 C   0  0  0  0  0  3  0  0  0  0  0  0
  -22.1360   -4.8150   22.5930 C   0  0  0  0  0  0  0  0  0  0  0  0
  -22.6270   -4.2090   21.4830 F   0  0  0  0  0  0  0  0  0  0  0  0
  -21.2460   -3.9650   26.0490 F   0  0  0  0  0  0  0  0  0  0  0  0
  -22.9940  -13.5020   21.1010 C   0  0  0  0  0  0  0  0  0  0  0  0
  -22.3110  -12.7930   21.9910 N   0  0  0  0  0  0  0  0  0  0  0  0
  -22.5320  -14.5350   20.6180 O   0  0  0  0  0  0  0  0  0  0  0  0
  -22.7000  -11.9570   22.4040 H   0  0  0  0  0  0  0  0  0  0  0  0
  -21.3850  -13.0890   22.2650 H   0  0  0  0  0  0  0  0  0  0  0  0
  -25.5840  -15.1780   20.1720 N   0  0  0  0  0  0  0  0  0  0  0  0
  -24.8150  -15.8240   20.3140 H   0  0  0  0  0  0  0  0  0  0  0  0
  -26.3830  -15.6090   19.7240 H   0  0  0  0  0  0  0  0  0  0  0  0
  -29.4360  -24.0020   19.9460 C   0  0  0  0  0  2  0  0  0  0  0  0
  -28.0680  -24.9360   21.9150 C   0  0  0  0  0  1  0  0  0  0  0  0
  -28.3070  -25.0500   20.4000 C   0  0  0  0  0  3  0  0  0  0  0  0
  -28.5080  -26.5090   20.1330 O   0  0  0  0  0  0  0  0  0  0  0  0
  -24.7570  -31.8230   23.3380 C   0  0  0  0  0  0  0  0  0  0  0  0
  -27.3880  -27.3670   20.1340 C   0  0  0  0  0  0  0  0  0  0  0  0
  -23.5650  -30.4910   21.6360 C   0  0  0  0  0  3  0  0  0  0  0  0
  -25.0260  -28.9920   20.1650 C   0  0  0  0  0  0  0  0  0  0  0  0
  -26.1080  -30.8060   21.4890 C   0  0  0  0  0  2  0  0  0  0  0  0
  -26.1900  -29.4520   20.7910 C   0  0  0  0  0  0  0  0  0  0  0  0
  -27.3760  -28.6530   20.7660 C   0  0  0  0  0  3  0  0  0  0  0  0
  -26.2000  -26.9680   19.4810 C   0  0  0  0  0  3  0  0  0  0  0  0
  -25.0330  -27.7570   19.5010 C   0  0  0  0  0  3  0  0  0  0  0  0
  -23.7910  -29.8670   20.2340 C   0  0  0  0  0  2  0  0  0  0  0  0
  -24.8290  -31.0560   22.2120 N   0  0  0  0  0  0  0  0  0  0  0  0
  -23.6700  -32.0840   23.8730 O   0  0  0  0  0  0  0  0  0  0  0  0
  -22.8900  -29.4410   22.5520 C   0  0  0  0  0  0  0  0  0  0  0  0
  -21.5640  -29.2830   22.4150 N   0  0  0  0  0  0  0  0  0  0  0  0
  -23.5610  -28.7750   23.3450 O   0  0  0  0  0  0  0  0  0  0  0  0
  -21.0830  -29.8710   21.7470 H   0  0  0  0  0  0  0  0  0  0  0  0
  -18.1700  -28.1110   22.8680 C   0  0  0  0  0  0  0  0  0  0  0  0
  -20.7320  -28.3220   23.1430 C   0  0  0  0  0  3  0  0  0  0  0  0
  -20.8130  -26.9180   22.5010 C   0  0  0  0  0  2  0  0  0  0  0  0
  -19.7050  -26.6580   21.4770 C   0  0  0  0  0  2  0  0  0  0  0  0
  -18.3260  -26.7920   22.1300 C   0  0  0  0  0  2  0  0  0  0  0  0
  -19.3000  -28.8370   23.3290 C   0  0  0  0  0  0  0  0  0  0  0  0
  -19.1000  -30.0730   23.9820 C   0  0  0  0  0  3  0  0  0  0  0  0
  -17.8020  -30.5840   24.1740 C   0  0  0  0  0  3  0  0  0  0  0  0
  -16.6870  -29.8540   23.7290 C   0  0  0  0  0  3  0  0  0  0  0  0
  -16.8710  -28.6200   23.0810 C   0  0  0  0  0  3  0  0  0  0  0  0
  -26.0360  -32.4280   23.9960 C   0  0  0  0  0  3  0  0  0  0  0  0
  -26.5260  -31.6170   25.2580 C   0  0  1  0  0  0  0  0  0  0  0  0
  -25.4140  -31.3600   26.3010 C   0  0  0  0  0  1  0  0  0  0  0  0
  -27.1070  -30.2460   24.8390 C   0  0  0  0  0  1  0  0  0  0  0  0
  -27.6700  -32.3850   25.9620 C   0  0  0  0  0  1  0  0  0  0  0  0
  -25.7320  -33.8190   24.3600 N   0  0  0  0  0  0  0  0  0  0  0  0
  -26.0940  -34.8900   23.6430 C   0  0  0  0  0  0  0  0  0  0  0  0
  -26.7870  -34.8120   22.6260 O   0  0  0  0  0  0  0  0  0  0  0  0
  -25.1190  -33.9550   25.1520 H   0  0  0  0  0  0  0  0  0  0  0  0
  -24.4040  -36.7220   23.2960 C   0  0  0  0  0  1  0  0  0  0  0  0
  -25.6120  -36.2710   24.1320 C   0  0  0  0  0  3  0  0  0  0  0  0
  -27.7280  -37.0980   25.0660 C   0  0  0  0  0  1  0  0  0  0  0  0
  -26.6630  -37.3120   24.0890 N   0  0  0  0  0  0  0  0  0  0  0  0
  -26.2640  -38.2320   24.2520 H   0  0  0  0  0  0  0  0  0  0  0  0
  1  2  1  0
  4  5  2  0
  5  8  1  0
  5  1  1  1
  5  3  2  0
  7 19  1  0
  7  6  2  0
  8 10  1  0
  9  8  2  0
  9  7  1  0
 10  6  1  0
 11 19  1  0
 12 17  1  0
 13 14  1  0
 13 12  1  0
 15 14  1  0
 15 24  1  0
 15 16  1  0
 17 11  1  0
 17 16  1  0
 18 11  2  0
 19 20  1  0
 21 22  2  0
 22 41  1  0
 23 22  1  0
 23 26  1  0
 24 25  1  0
 24 21  1  0
 25 23  2  0
 26 27  1  0
 27 28  2  0
 29 32  1  0
 29 28  1  0
 30 29  2  0
 31 30  1  0
 31 26  2  0
 32 33  1  0
 33 38  2  0
 33 34  1  0
 34 35  2  0
 35 36  1  0
 36 40  1  0
 37 36  2  0
 38 37  1  0
 39 38  1  0
 41 42  1  0
 42 45  1  0
 42 44  1  0
 43 41  2  0
 46 47  1  0
 46 21  1  0
 48 46  1  0
 49  1  1  0
 49 51  1  0
 51 50  1  0
 52 54  1  0
 52 51  1  0
 53 64  2  0
 54 59  1  0
 55 63  1  0
 55 65  1  0
 56 62  1  0
 56 58  1  0
 57 63  1  0
 58 57  1  0
 59 58  2  0
 60 61  1  0
 60 54  2  0
 61 56  2  0
 62 55  1  0
 63 53  1  0
 65 67  2  0
 66 65  1  0
 68 66  1  0
 69 78  2  0
 69 74  1  0
 70 66  1  0
 70 74  1  0
 71 70  1  0
 72 73  1  0
 72 71  1  0
 73 69  1  0
 74 75  2  0
 75 76  1  0
 77 76  2  0
 78 77  1  0
 79 53  1  0
 79 84  1  0
 79 80  1  0
 80 83  1  1
 80 81  1  0
 82 80  1  0
 84 87  1  0
 85 89  1  0
 85 84  1  0
 86 85  2  0
 89 88  1  0
 91 89  1  0
 91 92  1  0
 91 90  1  0
M  ISO  4  11 100  19 100  51 101  52 101
M  END
>  <TORSDO>  (57) 
F 20

>  <SCORE>  (57) 
-13.350

>  <name>  (57) 
56

>  <ligand_id>  (57) 
56

>  <original_smiles>  (57) 
[H]c1sc(S(=O)(=O)N([H])C([H])([H])C([H])(Oc2c([H])c([H])c3c(c2[H])C([H])([H])N(C(=O)C([H])(N([H])C(=O)C([H])(N([H])C([H])([H])[H])C([H])([H])[H])C(C([H])([H])[H])(C([H])([H])[H])C([H])([H])[H])C([H])(C(=O)N([H])C2([H])c4c([H])c([H])c([H])c([H])c4C([H])([H])C([H])([H])C2([H])[H])C3([H])[H])C([H])([H])[H])nc1N([H])C(=O)N1C([H])([H])C([H])([H])C([H])([H])C([H])(n2nc(-c3c([H])c([H])c(Oc4c([H])c([H])c(F)c([H])c4F)c([H])c3[H])c(C(=O)N([H])[H])c2N([H])[H])C1([H])[H]

>  <smiles>  (57) 
[H]c1sc(S(=O)(=O)N([H])C([H])([H])C([H])(Oc2c([H])c([H])c3c(c2[H])C([H])([H])N(C(=O)C([H])(N([H])C(=O)C([H])(N([H])C([H])([H])[H])C([H])([H])[H])C(C([H])([H])[H])(C([H])([H])[H])C([H])([H])[H])C([H])(C(=O)N([H])C2([H])c4c([H])c([H])c([H])c([H])c4C([H])([H])C([H])([H])C2([H])[H])C3([H])[H])C([H])([H])[H])nc1N([H])C(=O)N1C([H])([H])C([H])([H])C([H])([H])C([H])(n2nc(-c3c([H])c([H])c(Oc4c([H])c([H])c(F)c([H])c4F)c([H])c3[H])c(C(=O)N([H])[H])c2N([H])[H])C1([H])[H]

$$$$
57:0:0
     RDKit          3D

 92100  0  0  1  0  0  0  0  0999 V2000
  -29.6730  -21.7810   20.7440 N   0  0  0  0  0  4  0  0  0  0  0  0
  -29.0320  -21.5350   20.0070 H   0  0  0  0  0  0  0  0  0  0  0  0
  -30.5950  -21.8110   20.3400 H   0  0  0  0  0  0  0  0  0  0  0  0
  -30.2840  -23.5530   22.4230 C   0  0  0  0  0  1  0  0  0  0  0  0
  -29.2910  -23.1240   21.3150 C   0  0  0  0  0  3  0  0  0  0  0  0
  -29.1170  -24.2720   20.2550 C   0  0  0  0  0  2  0  0  0  0  0  0
  -28.4410  -25.5710   20.8130 C   0  0  0  0  0  2  0  0  0  0  0  0
  -28.4540  -26.7080   19.9250 O   0  0  0  0  0  0  0  0  0  0  0  0
  -24.6030  -31.8240   23.1180 C   0  0  0  0  0  0  0  0  0  0  0  0
  -27.3000  -27.4650   19.9540 C   0  0  0  0  0  0  0  0  0  0  0  0
  -23.4140  -30.4400   21.4480 C   0  0  0  0  0  3  0  0  0  0  0  0
  -24.8870  -28.9470   19.9940 C   0  0  0  0  0  0  0  0  0  0  0  0
  -25.9350  -30.8330   21.2570 C   0  0  0  0  0  2  0  0  0  0  0  0
  -26.0410  -29.4740   20.5900 C   0  0  0  0  0  0  0  0  0  0  0  0
  -27.2530  -28.7430   20.5630 C   0  0  0  0  0  3  0  0  0  0  0  0
  -26.1300  -26.9540   19.3550 C   0  0  0  0  0  3  0  0  0  0  0  0
  -24.9270  -27.6850   19.3740 C   0  0  0  0  0  3  0  0  0  0  0  0
  -23.6310  -29.7870   20.0580 C   0  0  0  0  0  2  0  0  0  0  0  0
  -24.6690  -31.0470   21.9990 N   0  0  0  0  0  0  0  0  0  0  0  0
  -23.5200  -32.0710   23.6650 O   0  0  0  0  0  0  0  0  0  0  0  0
  -22.7760  -29.3940   22.3910 C   0  0  0  0  0  0  0  0  0  0  0  0
  -21.4510  -29.2020   22.2660 N   0  0  0  0  0  0  0  0  0  0  0  0
  -23.4680  -28.7570   23.1880 O   0  0  0  0  0  0  0  0  0  0  0  0
  -20.9540  -29.7670   21.5920 H   0  0  0  0  0  0  0  0  0  0  0  0
  -18.0870  -27.9870   22.7730 C   0  0  0  0  0  0  0  0  0  0  0  0
  -20.6480  -28.2410   23.0200 C   0  0  0  0  0  3  0  0  0  0  0  0
  -20.7450  -26.8290   22.4010 C   0  0  0  0  0  2  0  0  0  0  0  0
  -19.6300  -26.5340   21.3910 C   0  0  0  0  0  2  0  0  0  0  0  0
  -18.2570  -26.6580   22.0560 C   0  0  0  0  0  2  0  0  0  0  0  0
  -19.2100  -28.7380   23.2110 C   0  0  0  0  0  0  0  0  0  0  0  0
  -18.9980  -29.9830   23.8420 C   0  0  0  0  0  3  0  0  0  0  0  0
  -17.6950  -30.4780   24.0380 C   0  0  0  0  0  3  0  0  0  0  0  0
  -16.5860  -29.7250   23.6160 C   0  0  0  0  0  3  0  0  0  0  0  0
  -16.7840  -28.4800   22.9890 C   0  0  0  0  0  3  0  0  0  0  0  0
  -25.8820  -32.4610   23.7460 C   0  0  0  0  0  3  0  0  0  0  0  0
  -26.4160  -31.6730   25.0050 C   0  0  1  0  0  0  0  0  0  0  0  0
  -25.3290  -31.3890   26.0680 C   0  0  0  0  0  1  0  0  0  0  0  0
  -27.0300  -30.3170   24.5820 C   0  0  0  0  0  1  0  0  0  0  0  0
  -27.5490  -32.4750   25.6860 C   0  0  0  0  0  1  0  0  0  0  0  0
  -25.5550  -33.8480   24.1030 N   0  0  0  0  0  0  0  0  0  0  0  0
  -25.8810  -34.9190   23.3670 C   0  0  0  0  0  0  0  0  0  0  0  0
  -26.5580  -34.8450   22.3380 O   0  0  0  0  0  0  0  0  0  0  0  0
  -24.9480  -33.9800   24.8990 H   0  0  0  0  0  0  0  0  0  0  0  0
  -24.1390  -36.7040   23.0340 C   0  0  0  0  0  1  0  0  0  0  0  0
  -25.3750  -36.2930   23.8480 C   0  0  0  0  0  3  0  0  0  0  0  0
  -27.4850  -37.1850   24.7320 C   0  0  0  0  0  1  0  0  0  0  0  0
  -26.3980  -37.3570   23.7700 N   0  0  0  0  0  0  0  0  0  0  0  0
  -25.9800  -38.2720   23.9240 H   0  0  0  0  0  0  0  0  0  0  0  0
  -29.6330  -20.6680   21.7410 C   0  0  0  0  0  2  0  0  0  0  0  0
  -30.9560  -14.6170   19.9210 C   0  0  0  0  0  0  0  0  0  0  0  0
  -30.6040  -12.4730   18.7320 C   0  0  0  0  0  2  0  0  0  0  0  0
  -29.5410  -12.6880   17.6320 C   0  0  0  0  0  2  0  0  0  0  0  0
  -28.1150  -12.5280   18.1960 C   0  0  0  0  0  2  0  0  0  0  0  0
  -27.8960  -13.3250   19.5080 C   0  0  0  0  0  3  0  0  0  0  0  0
  -29.0520  -13.0620   20.5000 C   0  0  0  0  0  2  0  0  0  0  0  0
  -30.3180  -13.4150   19.8270 N   0  0  0  0  0  0  0  0  0  0  0  0
  -32.0080  -14.8580   19.3180 O   0  0  0  0  0  0  0  0  0  0  0  0
  -29.9590  -19.3350   21.0880 C   0  0  0  0  0  0  0  0  0  0  0  0
  -30.3140  -16.9570   20.6680 C   0  0  0  0  0  0  0  0  0  0  0  0
  -30.8990  -19.1080   20.1500 N   0  0  0  0  0  0  0  0  0  0  0  0
  -31.1030  -17.7360   19.9050 N   0  0  0  0  0  0  0  0  0  0  0  0
  -30.2980  -15.5280   20.6670 N   0  0  0  0  0  0  0  0  0  0  0  0
  -29.2090  -17.8560   21.7020 S   0  0  0  0  0  0  0  0  0  0  0  0
  -29.5410  -15.1290   21.1970 H   0  0  0  0  0  0  0  0  0  0  0  0
  -25.5910  -13.9110   20.5010 C   0  0  0  0  0  0  0  0  0  0  0  0
  -24.5520  -13.1270   20.9280 C   0  0  0  0  0  0  0  0  0  0  0  0
  -24.9840  -11.7770   20.7580 C   0  0  0  0  0  0  0  0  0  0  0  0
  -26.5910  -13.0360   20.1040 N   0  0  0  0  0  0  0  0  0  0  0  0
  -26.2340  -11.7430   20.3140 N   0  0  0  0  0  0  0  0  0  0  0  0
  -24.2590  -10.5120   20.9380 C   0  0  0  0  0  0  0  0  0  0  0  0
  -24.6800   -9.5460   21.8790 C   0  0  0  0  0  3  0  0  0  0  0  0
  -23.9550   -8.3470   22.0460 C   0  0  0  0  0  3  0  0  0  0  0  0
  -22.7970   -8.1040   21.2700 C   0  0  0  0  0  0  0  0  0  0  0  0
  -22.3960   -9.0590   20.3190 C   0  0  0  0  0  3  0  0  0  0  0  0
  -23.1220  -10.2490   20.1500 C   0  0  0  0  0  3  0  0  0  0  0  0
  -22.0460   -6.9550   21.3450 O   0  0  0  0  0  0  0  0  0  0  0  0
  -21.8480   -6.3020   22.5340 C   0  0  0  0  0  0  0  0  0  0  0  0
  -21.2230   -6.9300   23.6340 C   0  0  0  0  0  3  0  0  0  0  0  0
  -20.9750   -6.2010   24.8140 C   0  0  0  0  0  3  0  0  0  0  0  0
  -21.3400   -4.8440   24.8940 C   0  0  0  0  0  0  0  0  0  0  0  0
  -21.9590   -4.2150   23.7990 C   0  0  0  0  0  3  0  0  0  0  0  0
  -22.2090   -4.9410   22.6220 C   0  0  0  0  0  0  0  0  0  0  0  0
  -22.7840   -4.3260   21.5610 F   0  0  0  0  0  0  0  0  0  0  0  0
  -21.0960   -4.1400   26.0240 F   0  0  0  0  0  0  0  0  0  0  0  0
  -23.2000  -13.6010   21.3780 C   0  0  0  0  0  0  0  0  0  0  0  0
  -22.5520  -12.8540   22.2650 N   0  0  0  0  0  0  0  0  0  0  0  0
  -22.7300  -14.6660   20.9790 O   0  0  0  0  0  0  0  0  0  0  0  0
  -22.9470  -11.9920   22.6090 H   0  0  0  0  0  0  0  0  0  0  0  0
  -21.6490  -13.1520   22.6070 H   0  0  0  0  0  0  0  0  0  0  0  0
  -25.7590  -15.2900   20.4010 N   0  0  0  0  0  0  0  0  0  0  0  0
  -25.0120  -15.9370   20.6250 H   0  0  0  0  0  0  0  0  0  0  0  0
  -26.5630  -15.7450   19.9880 H   0  0  0  0  0  0  0  0  0  0  0  0
  1  5  1  0
  1 49  1  0
  2  1  1  0
  3  1  1  0
  5  4  1  0
  6  7  1  0
  6  5  1  0
  8 10  1  0
  8  7  1  0
  9 20  2  0
 10 15  1  0
 11 19  1  0
 11 21  1  0
 12 18  1  0
 12 14  1  0
 13 19  1  0
 14 13  1  0
 15 14  2  0
 16 17  1  0
 16 10  2  0
 17 12  2  0
 18 11  1  0
 19  9  1  0
 21 23  2  0
 22 21  1  0
 24 22  1  0
 25 34  2  0
 25 30  1  0
 26 22  1  0
 26 30  1  0
 27 26  1  0
 28 29  1  0
 28 27  1  0
 29 25  1  0
 30 31  2  0
 31 32  1  0
 33 32  2  0
 34 33  1  0
 35  9  1  0
 35 40  1  0
 35 36  1  0
 36 39  1  1
 36 37  1  0
 38 36  1  0
 40 43  1  0
 41 45  1  0
 41 40  1  0
 42 41  2  0
 45 44  1  0
 47 45  1  0
 47 48  1  0
 47 46  1  0
 50 62  1  0
 51 56  1  0
 52 53  1  0
 52 51  1  0
 54 53  1  0
 54 68  1  0
 54 55  1  0
 56 50  1  0
 56 55  1  0
 57 50  2  0
 58 63  1  0
 58 49  1  0
 59 63  1  0
 60 58  2  0
 61 60  1  0
 61 59  2  0
 62 59  1  0
 62 64  1  0
 65 66  2  0
 66 85  1  0
 67 66  1  0
 67 70  1  0
 68 69  1  0
 68 65  1  0
 69 67  2  0
 70 71  1  0
 71 72  2  0
 73 76  1  0
 73 72  1  0
 74 73  2  0
 75 74  1  0
 75 70  2  0
 76 77  1  0
 77 82  2  0
 77 78  1  0
 78 79  2  0
 79 80  1  0
 80 84  1  0
 81 80  2  0
 82 81  1  0
 83 82  1  0
 85 86  1  0
 86 89  1  0
 86 88  1  0
 87 85  2  0
 90 65  1  0
 90 91  1  0
 92 90  1  0
M  ISO  4   7 101   8 101  50 100  62 100
M  END
>  <TORSDO>  (58) 
F 20

>  <SCORE>  (58) 
-11.951

>  <name>  (58) 
57

>  <ligand_id>  (58) 
57

>  <original_smiles>  (58) 
[H]c1c([H])c([H])c2c(c1[H])C([H])([H])C([H])([H])C([H])([H])C2([H])N([H])C(=O)C1([H])N(C(=O)C([H])(N([H])C(=O)C([H])(N([H])C([H])([H])[H])C([H])([H])[H])C(C([H])([H])[H])(C([H])([H])[H])C([H])([H])[H])C([H])([H])c2c([H])c(OC([H])([H])C([H])([H])C([H])(C([H])([H])[H])[N+]([H])([H])C([H])([H])c3nnc(N([H])C(=O)N4C([H])([H])C([H])([H])C([H])([H])C([H])(n5nc(-c6c([H])c([H])c(Oc7c([H])c([H])c(F)c([H])c7F)c([H])c6[H])c(C(=O)N([H])[H])c5N([H])[H])C4([H])[H])s3)c([H])c([H])c2C1([H])[H]

>  <smiles>  (58) 
[H]c1c([H])c([H])c2c(c1[H])C([H])([H])C([H])([H])C([H])([H])C2([H])N([H])C(=O)C1([H])N(C(=O)C([H])(N([H])C(=O)C([H])(N([H])C([H])([H])[H])C([H])([H])[H])C(C([H])([H])[H])(C([H])([H])[H])C([H])([H])[H])C([H])([H])c2c([H])c(OC([H])([H])C([H])([H])C([H])(C([H])([H])[H])[N+]([H])([H])C([H])([H])c3nnc(N([H])C(=O)N4C([H])([H])C([H])([H])C([H])([H])C([H])(n5nc(-c6c([H])c([H])c(Oc7c([H])c([H])c(F)c([H])c7F)c([H])c6[H])c(C(=O)N([H])[H])c5N([H])[H])C4([H])[H])s3)c([H])c([H])c2C1([H])[H]

$$$$
58:0:0
     RDKit          3D

 94102  0  0  1  0  0  0  0  0999 V2000
  -28.4080  -21.4770   20.2350 C   0  0  0  0  0  2  0  0  0  0  0  0
  -30.6500  -14.5770   20.5670 C   0  0  0  0  0  0  0  0  0  0  0  0
  -30.4230  -12.3590   19.5250 C   0  0  0  0  0  2  0  0  0  0  0  0
  -29.5360  -12.5390   18.2730 C   0  0  0  0  0  2  0  0  0  0  0  0
  -28.0430  -12.4140   18.6400 C   0  0  0  0  0  2  0  0  0  0  0  0
  -27.6510  -13.2640   19.8800 C   0  0  0  0  0  3  0  0  0  0  0  0
  -28.6660  -13.0850   21.0330 C   0  0  0  0  0  2  0  0  0  0  0  0
  -30.0050  -13.3760   20.5050 N   0  0  0  0  0  0  0  0  0  0  0  0
  -31.8430  -14.6840   20.2590 O   0  0  0  0  0  0  0  0  0  0  0  0
  -30.2520  -18.0250   18.1820 C   0  0  0  0  0  3  0  0  0  0  0  0
  -29.9080  -19.2450   18.7780 C   0  0  0  0  0  0  0  0  0  0  0  0
  -29.4920  -19.1890   20.1250 C   0  0  0  0  0  0  0  0  0  0  0  0
  -29.8920  -16.8880   20.1410 C   0  0  0  0  0  0  0  0  0  0  0  0
  -30.2300  -16.8610   18.8550 N   0  0  0  0  0  0  0  0  0  0  0  0
  -29.4900  -17.9990   20.7920 N   0  0  0  0  0  0  0  0  0  0  0  0
  -29.0910  -20.3270   20.8670 N   0  0  0  0  0  0  0  0  0  0  0  0
  -29.8740  -15.6670   20.8090 N   0  0  0  0  0  0  0  0  0  0  0  0
  -30.0250  -20.3920   18.0650 F   0  0  0  0  0  0  0  0  0  0  0  0
  -29.8510  -20.6890   21.4380 H   0  0  0  0  0  0  0  0  0  0  0  0
  -29.0200  -15.4860   21.3080 H   0  0  0  0  0  0  0  0  0  0  0  0
  -25.2280  -13.8610   20.4960 C   0  0  0  0  0  0  0  0  0  0  0  0
  -24.1530  -13.0870   20.8390 C   0  0  0  0  0  0  0  0  0  0  0  0
  -24.6240  -11.7370   20.8490 C   0  0  0  0  0  0  0  0  0  0  0  0
  -26.2860  -12.9840   20.3160 N   0  0  0  0  0  0  0  0  0  0  0  0
  -25.9250  -11.7020   20.5890 N   0  0  0  0  0  0  0  0  0  0  0  0
  -23.8980  -10.4750   21.0340 C   0  0  0  0  0  0  0  0  0  0  0  0
  -24.3080   -9.5220   21.9930 C   0  0  0  0  0  3  0  0  0  0  0  0
  -23.5830   -8.3220   22.1670 C   0  0  0  0  0  3  0  0  0  0  0  0
  -22.4350   -8.0680   21.3780 C   0  0  0  0  0  0  0  0  0  0  0  0
  -22.0460   -9.0080   20.4090 C   0  0  0  0  0  3  0  0  0  0  0  0
  -22.7720  -10.2000   20.2340 C   0  0  0  0  0  3  0  0  0  0  0  0
  -21.6810   -6.9210   21.4610 O   0  0  0  0  0  0  0  0  0  0  0  0
  -21.6070   -6.1910   22.6200 C   0  0  0  0  0  0  0  0  0  0  0  0
  -21.1410   -6.7560   23.8280 C   0  0  0  0  0  3  0  0  0  0  0  0
  -21.0110   -5.9500   24.9760 C   0  0  0  0  0  3  0  0  0  0  0  0
  -21.3380   -4.5830   24.9200 C   0  0  0  0  0  0  0  0  0  0  0  0
  -21.7960   -4.0170   23.7160 C   0  0  0  0  0  3  0  0  0  0  0  0
  -21.9270   -4.8190   22.5690 C   0  0  0  0  0  0  0  0  0  0  0  0
  -22.3480   -4.2640   21.4070 F   0  0  0  0  0  0  0  0  0  0  0  0
  -21.2060   -3.8070   26.0210 F   0  0  0  0  0  0  0  0  0  0  0  0
  -22.7420  -13.5600   21.0490 C   0  0  0  0  0  0  0  0  0  0  0  0
  -21.9860  -12.8720   21.8990 N   0  0  0  0  0  0  0  0  0  0  0  0
  -22.3180  -14.5720   20.4930 O   0  0  0  0  0  0  0  0  0  0  0  0
  -22.3420  -12.0540   22.3700 H   0  0  0  0  0  0  0  0  0  0  0  0
  -21.0370  -13.1690   22.0800 H   0  0  0  0  0  0  0  0  0  0  0  0
  -25.3910  -15.2290   20.2980 N   0  0  0  0  0  0  0  0  0  0  0  0
  -24.6170  -15.8830   20.3680 H   0  0  0  0  0  0  0  0  0  0  0  0
  -26.2430  -15.6660   19.9700 H   0  0  0  0  0  0  0  0  0  0  0  0
  -28.6660  -22.8160   20.9910 C   0  0  0  0  0  3  0  0  0  0  0  0
  -30.0530  -22.8290   21.3040 O   0  0  0  0  0  0  0  0  0  0  0  0
  -30.2230  -23.5670   21.8820 H   0  0  0  0  0  0  0  0  0  0  0  0
  -28.2990  -24.1100   20.1810 C   0  0  0  0  0  3  0  0  0  0  0  0
  -28.2850  -25.4460   20.9910 C   0  0  0  0  0  3  0  0  0  0  0  0
  -28.3500  -26.6670   20.2080 O   0  0  0  0  0  0  0  0  0  0  0  0
  -24.5750  -31.9110   23.2470 C   0  0  0  0  0  0  0  0  0  0  0  0
  -27.2060  -27.4370   20.1960 C   0  0  0  0  0  0  0  0  0  0  0  0
  -23.3700  -30.5070   21.6070 C   0  0  0  0  0  3  0  0  0  0  0  0
  -24.8230  -28.9640   20.1850 C   0  0  0  0  0  0  0  0  0  0  0  0
  -25.8980  -30.8610   21.4110 C   0  0  0  0  0  2  0  0  0  0  0  0
  -25.9820  -29.4870   20.7710 C   0  0  0  0  0  0  0  0  0  0  0  0
  -27.1810  -28.7330   20.7670 C   0  0  0  0  0  3  0  0  0  0  0  0
  -26.0330  -26.9320   19.6040 C   0  0  0  0  0  3  0  0  0  0  0  0
  -24.8440  -27.6870   19.5930 C   0  0  0  0  0  3  0  0  0  0  0  0
  -23.5810  -29.8250   20.2270 C   0  0  0  0  0  2  0  0  0  0  0  0
  -24.6320  -31.1090   22.1450 N   0  0  0  0  0  0  0  0  0  0  0  0
  -23.4940  -32.1840   23.7850 O   0  0  0  0  0  0  0  0  0  0  0  0
  -22.7160  -29.4890   22.5700 C   0  0  0  0  0  0  0  0  0  0  0  0
  -21.3910  -29.3090   22.4430 N   0  0  0  0  0  0  0  0  0  0  0  0
  -23.3980  -28.8650   23.3860 O   0  0  0  0  0  0  0  0  0  0  0  0
  -20.9030  -29.8620   21.7530 H   0  0  0  0  0  0  0  0  0  0  0  0
  -18.0140  -28.1230   22.9470 C   0  0  0  0  0  0  0  0  0  0  0  0
  -20.5740  -28.3720   23.2140 C   0  0  0  0  0  3  0  0  0  0  0  0
  -20.6710  -26.9430   22.6350 C   0  0  0  0  0  2  0  0  0  0  0  0
  -19.5660  -26.6250   21.6240 C   0  0  0  0  0  2  0  0  0  0  0  0
  -18.1850  -26.7730   22.2710 C   0  0  0  0  0  2  0  0  0  0  0  0
  -19.1360  -28.8800   23.3760 C   0  0  0  0  0  0  0  0  0  0  0  0
  -18.9230  -30.1430   23.9690 C   0  0  0  0  0  3  0  0  0  0  0  0
  -17.6220  -30.6490   24.1410 C   0  0  0  0  0  3  0  0  0  0  0  0
  -16.5140  -29.8890   23.7290 C   0  0  0  0  0  3  0  0  0  0  0  0
  -16.7100  -28.6300   23.1360 C   0  0  0  0  0  3  0  0  0  0  0  0
  -25.8620  -32.5410   23.8670 C   0  0  0  0  0  3  0  0  0  0  0  0
  -26.3720  -31.7790   25.1510 C   0  0  1  0  0  0  0  0  0  0  0  0
  -25.2750  -31.5570   26.2170 C   0  0  0  0  0  1  0  0  0  0  0  0
  -26.9520  -30.3950   24.7730 C   0  0  0  0  0  1  0  0  0  0  0  0
  -27.5240  -32.5750   25.8080 C   0  0  0  0  0  1  0  0  0  0  0  0
  -25.5580  -33.9430   24.1810 N   0  0  0  0  0  0  0  0  0  0  0  0
  -25.9050  -34.9890   23.4190 C   0  0  0  0  0  0  0  0  0  0  0  0
  -26.5870  -34.8750   22.3960 O   0  0  0  0  0  0  0  0  0  0  0  0
  -24.9540  -34.1070   24.9740 H   0  0  0  0  0  0  0  0  0  0  0  0
  -24.1970  -36.7930   23.0270 C   0  0  0  0  0  1  0  0  0  0  0  0
  -25.4210  -36.3830   23.8630 C   0  0  0  0  0  3  0  0  0  0  0  0
  -27.5490  -37.2540   24.7260 C   0  0  0  0  0  1  0  0  0  0  0  0
  -26.4630  -37.4280   23.7630 N   0  0  0  0  0  0  0  0  0  0  0  0
  -26.0620  -38.3520   23.9000 H   0  0  0  0  0  0  0  0  0  0  0  0
  1 16  1  0
  1 49  1  0
  2 17  1  0
  3  8  1  0
  4  5  1  0
  4  3  1  0
  6  5  1  0
  6 24  1  0
  6  7  1  0
  8  2  1  0
  8  7  1  0
  9  2  2  0
 10 11  2  0
 10 14  1  0
 11 12  1  0
 12 15  2  0
 12 16  1  0
 13 15  1  0
 13 17  1  0
 14 13  2  0
 16 19  1  0
 17 20  1  0
 18 11  1  0
 21 22  2  0
 22 23  1  0
 22 41  1  0
 23 26  1  0
 24 21  1  0
 24 25  1  0
 25 23  2  0
 26 27  1  0
 27 28  2  0
 29 32  1  0
 29 28  1  0
 30 29  2  0
 31 30  1  0
 31 26  2  0
 32 33  1  0
 33 34  1  0
 34 35  2  0
 36 35  1  0
 36 40  1  0
 37 36  2  0
 38 33  2  0
 38 37  1  0
 39 38  1  0
 41 42  1  0
 42 45  1  0
 42 44  1  0
 43 41  2  0
 46 47  1  0
 46 21  1  0
 48 46  1  0
 49 52  1  0
 49 50  1  0
 50 51  1  0
 52 53  2  0
 54 53  1  0
 55 66  2  0
 56 54  1  0
 56 61  1  0
 57 65  1  0
 57 67  1  0
 58 64  1  0
 58 60  1  0
 59 65  1  0
 60 59  1  0
 61 60  2  0
 62 56  2  0
 63 62  1  0
 63 58  2  0
 64 57  1  0
 65 55  1  0
 67 69  2  0
 68 67  1  0
 70 68  1  0
 71 80  2  0
 71 76  1  0
 72 68  1  0
 72 76  1  0
 73 72  1  0
 74 75  1  0
 74 73  1  0
 75 71  1  0
 76 77  2  0
 77 78  1  0
 79 78  2  0
 80 79  1  0
 81 55  1  0
 81 86  1  0
 81 82  1  0
 82 85  1  1
 82 83  1  0
 84 82  1  0
 86 89  1  0
 87 91  1  0
 87 86  1  0
 88 87  2  0
 91 90  1  0
 93 91  1  0
 93 94  1  0
 93 92  1  0
M  ISO  4   2 100  17 100  53 101  54 101
M  END
>  <TORSDO>  (59) 
F 20

>  <SCORE>  (59) 
-14.244

>  <name>  (59) 
58

>  <ligand_id>  (59) 
58

>  <original_smiles>  (59) 
[H]OC([H])(C([H])([H])N([H])c1nc(N([H])C(=O)N2C([H])([H])C([H])([H])C([H])([H])C([H])(n3nc(-c4c([H])c([H])c(Oc5c([H])c([H])c(F)c([H])c5F)c([H])c4[H])c(C(=O)N([H])[H])c3N([H])[H])C2([H])[H])nc([H])c1F)C([H])([H])C([H])([H])Oc1c([H])c([H])c2c(c1[H])C([H])([H])N(C(=O)C([H])(N([H])C(=O)C([H])(N([H])C([H])([H])[H])C([H])([H])[H])C(C([H])([H])[H])(C([H])([H])[H])C([H])([H])[H])C([H])(C(=O)N([H])C1([H])c3c([H])c([H])c([H])c([H])c3C([H])([H])C([H])([H])C1([H])[H])C2([H])[H]

>  <smiles>  (59) 
[H]OC([H])(C([H])([H])N([H])c1nc(N([H])C(=O)N2C([H])([H])C([H])([H])C([H])([H])C([H])(n3nc(-c4c([H])c([H])c(Oc5c([H])c([H])c(F)c([H])c5F)c([H])c4[H])c(C(=O)N([H])[H])c3N([H])[H])C2([H])[H])nc([H])c1F)C([H])([H])C([H])([H])Oc1c([H])c([H])c2c(c1[H])C([H])([H])N(C(=O)C([H])(N([H])C(=O)C([H])(N([H])C([H])([H])[H])C([H])([H])[H])C(C([H])([H])[H])(C([H])([H])[H])C([H])([H])[H])C([H])(C(=O)N([H])C1([H])c3c([H])c([H])c([H])c([H])c3C([H])([H])C([H])([H])C1([H])[H])C2([H])[H]

$$$$
59:0:0
     RDKit          3D

 96104  0  0  1  0  0  0  0  0999 V2000
  -27.9670  -21.1470   19.0770 C   0  0  0  0  0  3  0  0  0  0  0  0
  -29.1800  -18.7510   19.9150 C   0  0  0  0  0  0  0  0  0  0  0  0
  -29.1150  -21.2080   19.8740 C   0  0  0  0  0  0  0  0  0  0  0  0
  -27.8780  -18.8160   19.2830 C   0  0  0  0  0  0  0  0  0  0  0  0
  -27.4040  -19.9730   18.7500 N   0  0  0  0  0  0  0  0  0  0  0  0
  -29.7520  -20.0060   20.2120 N   0  0  0  0  0  0  0  0  0  0  0  0
  -26.9080  -17.7910   19.2570 N   0  0  0  0  0  0  0  0  0  0  0  0
  -27.1480  -17.0140   19.8620 H   0  0  0  0  0  0  0  0  0  0  0  0
  -25.0090  -18.1990   20.8250 C   0  0  0  0  0  1  0  0  0  0  0  0
  -24.5290  -17.4640   18.4150 C   0  0  0  0  0  1  0  0  0  0  0  0
  -25.4800  -18.2080   19.3640 C   0  0  0  0  0  3  0  0  0  0  0  0
  -29.6130  -22.5070   20.2530 N   0  0  0  0  0  4  0  0  0  0  0  0
  -30.5360  -22.4650   20.6770 H   0  0  0  0  0  0  0  0  0  0  0  0
  -27.5440  -23.3640   21.4750 C   0  0  0  0  0  1  0  0  0  0  0  0
  -28.8200  -23.7340   20.7050 C   0  0  0  0  0  0  0  0  0  0  0  0
  -28.5540  -25.0020   19.7300 C   0  0  0  0  0  2  0  0  0  0  0  0
  -28.4020  -26.3810   20.3130 O   0  0  0  0  0  0  0  0  0  0  0  0
  -24.6240  -31.8280   23.2700 C   0  0  0  0  0  0  0  0  0  0  0  0
  -27.2440  -27.1960   20.2500 C   0  0  0  0  0  0  0  0  0  0  0  0
  -23.4200  -30.4230   21.6330 C   0  0  0  0  0  3  0  0  0  0  0  0
  -24.8730  -28.8330   20.2340 C   0  0  0  0  0  0  0  0  0  0  0  0
  -25.9630  -30.7090   21.4660 C   0  0  0  0  0  2  0  0  0  0  0  0
  -26.0400  -29.3190   20.8340 C   0  0  0  0  0  0  0  0  0  0  0  0
  -27.2200  -28.5110   20.8330 C   0  0  0  0  0  3  0  0  0  0  0  0
  -26.0400  -26.7620   19.6460 C   0  0  0  0  0  3  0  0  0  0  0  0
  -24.8770  -27.5640   19.6350 C   0  0  0  0  0  3  0  0  0  0  0  0
  -23.6400  -29.7200   20.2660 C   0  0  0  0  0  2  0  0  0  0  0  0
  -24.6880  -31.0040   22.1800 N   0  0  0  0  0  0  0  0  0  0  0  0
  -23.5380  -32.1210   23.7920 O   0  0  0  0  0  0  0  0  0  0  0  0
  -22.7410  -29.4250   22.6050 C   0  0  0  0  0  0  0  0  0  0  0  0
  -21.4170  -29.2480   22.4690 N   0  0  0  0  0  0  0  0  0  0  0  0
  -23.4090  -28.8060   23.4370 O   0  0  0  0  0  0  0  0  0  0  0  0
  -20.9390  -29.7790   21.7560 H   0  0  0  0  0  0  0  0  0  0  0  0
  -18.0260  -28.0790   22.9620 C   0  0  0  0  0  0  0  0  0  0  0  0
  -20.5860  -28.3250   23.2460 C   0  0  0  0  0  3  0  0  0  0  0  0
  -20.6860  -26.8890   22.6810 C   0  0  0  0  0  2  0  0  0  0  0  0
  -19.5840  -26.5520   21.6710 C   0  0  0  0  0  2  0  0  0  0  0  0
  -18.1980  -26.7180   22.3030 C   0  0  0  0  0  2  0  0  0  0  0  0
  -19.1460  -28.8380   23.3940 C   0  0  0  0  0  0  0  0  0  0  0  0
  -18.9310  -30.1040   23.9760 C   0  0  0  0  0  3  0  0  0  0  0  0
  -17.6280  -30.6130   24.1280 C   0  0  0  0  0  3  0  0  0  0  0  0
  -16.5230  -29.8560   23.7100 C   0  0  0  0  0  3  0  0  0  0  0  0
  -16.7240  -28.5890   23.1350 C   0  0  0  0  0  3  0  0  0  0  0  0
  -25.9050  -32.4600   23.8920 C   0  0  0  0  0  3  0  0  0  0  0  0
  -25.6010  -33.8630   24.2080 N   0  0  0  0  0  0  0  0  0  0  0  0
  -25.9430  -34.9080   23.4420 C   0  0  0  0  0  0  0  0  0  0  0  0
  -26.6180  -34.7940   22.4160 O   0  0  0  0  0  0  0  0  0  0  0  0
  -25.0040  -34.0300   25.0040 H   0  0  0  0  0  0  0  0  0  0  0  0
  -24.2310  -36.7130   23.0650 C   0  0  0  0  0  1  0  0  0  0  0  0
  -25.4650  -36.3060   23.8870 C   0  0  0  0  0  3  0  0  0  0  0  0
  -27.6000  -37.1850   24.7260 C   0  0  0  0  0  1  0  0  0  0  0  0
  -26.5060  -37.3500   23.7720 N   0  0  0  0  0  0  0  0  0  0  0  0
  -26.1030  -38.2750   23.9090 H   0  0  0  0  0  0  0  0  0  0  0  0
  -26.4080  -31.7010   25.1830 C   0  0  1  0  0  0  0  0  0  0  0  0
  -25.3050  -31.4840   26.2430 C   0  0  0  0  0  1  0  0  0  0  0  0
  -26.9840  -30.3160   24.8120 C   0  0  0  0  0  1  0  0  0  0  0  0
  -27.5570  -32.4960   25.8440 C   0  0  0  0  0  1  0  0  0  0  0  0
  -30.0230  -17.4300   20.3950 C   0  0  0  0  0  2  0  0  0  0  0  0
  -30.5740  -14.7990   20.0620 C   0  0  0  0  0  0  0  0  0  0  0  0
  -30.4510  -12.4860   19.0740 C   0  0  0  0  0  2  0  0  0  0  0  0
  -29.4480  -12.4810   17.8970 C   0  0  0  0  0  2  0  0  0  0  0  0
  -28.0090  -12.2710   18.4120 C   0  0  0  0  0  2  0  0  0  0  0  0
  -27.6750  -13.1740   19.6270 C   0  0  0  0  0  3  0  0  0  0  0  0
  -28.7840  -13.1270   20.6920 C   0  0  0  0  0  2  0  0  0  0  0  0
  -30.0210  -13.5370   20.0290 N   0  0  0  0  0  0  0  0  0  0  0  0
  -31.7650  -14.9280   19.7610 O   0  0  0  0  0  0  0  0  0  0  0  0
  -29.7220  -15.9080   20.2350 N   0  0  0  0  0  0  0  0  0  0  0  0
  -28.7630  -15.6560   20.4250 H   0  0  0  0  0  0  0  0  0  0  0  0
  -25.3640  -13.7580   20.5390 C   0  0  0  0  0  0  0  0  0  0  0  0
  -24.3020  -13.0000   20.9370 C   0  0  0  0  0  0  0  0  0  0  0  0
  -24.7420  -11.6440   20.8390 C   0  0  0  0  0  0  0  0  0  0  0  0
  -26.3680  -12.8750   20.1930 N   0  0  0  0  0  0  0  0  0  0  0  0
  -26.0100  -11.5950   20.4500 N   0  0  0  0  0  0  0  0  0  0  0  0
  -24.0140  -10.3900   21.0310 C   0  0  0  0  0  0  0  0  0  0  0  0
  -24.4730   -9.4040   21.9300 C   0  0  0  0  0  3  0  0  0  0  0  0
  -23.7420   -8.2110   22.1140 C   0  0  0  0  0  3  0  0  0  0  0  0
  -22.5440   -7.9970   21.3950 C   0  0  0  0  0  0  0  0  0  0  0  0
  -22.1060   -8.9710   20.4800 C   0  0  0  0  0  3  0  0  0  0  0  0
  -22.8350  -10.1550   20.2950 C   0  0  0  0  0  3  0  0  0  0  0  0
  -21.7840   -6.8540   21.4880 O   0  0  0  0  0  0  0  0  0  0  0  0
  -21.7440   -6.1120   22.6400 C   0  0  0  0  0  0  0  0  0  0  0  0
  -21.3290   -6.6660   23.8700 C   0  0  0  0  0  3  0  0  0  0  0  0
  -21.2380   -5.8490   25.0140 C   0  0  0  0  0  3  0  0  0  0  0  0
  -21.5520   -4.4790   24.9280 C   0  0  0  0  0  0  0  0  0  0  0  0
  -21.9600   -3.9240   23.7010 C   0  0  0  0  0  3  0  0  0  0  0  0
  -22.0530   -4.7400   22.5590 C   0  0  0  0  0  0  0  0  0  0  0  0
  -22.4280   -4.1970   21.3760 F   0  0  0  0  0  0  0  0  0  0  0  0
  -21.4560   -3.6910   26.0240 F   0  0  0  0  0  0  0  0  0  0  0  0
  -22.9280  -13.4920   21.2860 C   0  0  0  0  0  0  0  0  0  0  0  0
  -22.2320  -12.7860   22.1700 N   0  0  0  0  0  0  0  0  0  0  0  0
  -22.4830  -14.5340   20.8040 O   0  0  0  0  0  0  0  0  0  0  0  0
  -22.6130  -11.9440   22.5760 H   0  0  0  0  0  0  0  0  0  0  0  0
  -21.3080  -13.0880   22.4400 H   0  0  0  0  0  0  0  0  0  0  0  0
  -25.5700  -15.1160   20.4140 N   0  0  0  0  0  0  0  0  0  0  0  0
  -24.7470  -15.7010   20.5210 H   0  0  0  0  0  0  0  0  0  0  0  0
  -26.1330  -15.4340   19.6360 H   0  0  0  0  0  0  0  0  0  0  0  0
  1  3  1  0
  2  6  1  0
  2 58  1  0
  3  6  2  0
  3 12  1  0
  4  2  2  0
  5  1  2  0
  5  4  1  0
  7  4  1  0
  7 11  1  0
  7  8  1  0
 10 11  1  0
 11  9  1  0
 12 13  1  0
 12 15  2  3
 15 14  1  0
 16 17  1  0
 16 15  1  0
 18 29  2  0
 19 17  1  0
 19 24  1  0
 20 28  1  0
 20 30  1  0
 21 27  1  0
 21 23  1  0
 22 28  1  0
 23 22  1  0
 24 23  2  0
 25 19  2  0
 26 25  1  0
 26 21  2  0
 27 20  1  0
 28 18  1  0
 30 32  2  0
 31 30  1  0
 33 31  1  0
 34 43  2  0
 34 39  1  0
 35 31  1  0
 35 39  1  0
 36 35  1  0
 37 38  1  0
 37 36  1  0
 38 34  1  0
 39 40  2  0
 40 41  1  0
 42 41  2  0
 43 42  1  0
 44 18  1  0
 44 45  1  0
 44 54  1  0
 45 48  1  0
 46 50  1  0
 46 45  1  0
 47 46  2  0
 50 49  1  0
 52 50  1  0
 52 53  1  0
 52 51  1  0
 54 57  1  1
 54 55  1  0
 56 54  1  0
 59 67  1  0
 60 65  1  0
 61 62  1  0
 61 60  1  0
 63 62  1  0
 63 72  1  0
 63 64  1  0
 65 59  1  0
 65 64  1  0
 66 59  2  0
 67 58  1  0
 67 68  1  0
 69 70  2  0
 70 89  1  0
 71 70  1  0
 71 74  1  0
 72 73  1  0
 72 69  1  0
 73 71  2  0
 74 75  1  0
 75 76  2  0
 77 80  1  0
 77 76  1  0
 78 77  2  0
 79 78  1  0
 79 74  2  0
 80 81  1  0
 81 82  1  0
 82 83  2  0
 84 83  1  0
 84 88  1  0
 85 84  2  0
 86 81  2  0
 86 85  1  0
 87 86  1  0
 89 90  1  0
 90 93  1  0
 90 92  1  0
 91 89  2  0
 94 95  1  0
 94 69  1  0
 96 94  1  0
M  ISO  4  16 101  17 101  59 100  67 100
M  END
>  <TORSDO>  (60) 
F 21

>  <SCORE>  (60) 
-7.817

>  <name>  (60) 
59

>  <ligand_id>  (60) 
59

>  <original_smiles>  (60) 
[H]c1nc(N([H])C([H])(C([H])([H])[H])C([H])([H])[H])c(C([H])([H])N([H])C(=O)N2C([H])([H])C([H])([H])C([H])([H])C([H])(n3nc(-c4c([H])c([H])c(Oc5c([H])c([H])c(F)c([H])c5F)c([H])c4[H])c(C(=O)N([H])[H])c3N([H])[H])C2([H])[H])nc1N([H])C([H])(C([H])([H])[H])C([H])([H])Oc1c([H])c([H])c2c(c1[H])C([H])([H])N(C(=O)C([H])(N([H])C(=O)C([H])(N([H])C([H])([H])[H])C([H])([H])[H])C(C([H])([H])[H])(C([H])([H])[H])C([H])([H])[H])C([H])(C(=O)N([H])C1([H])c3c([H])c([H])c([H])c([H])c3C([H])([H])C([H])([H])C1([H])[H])C2([H])[H]

>  <smiles>  (60) 
[H]c1nc(N([H])C([H])(C([H])([H])[H])C([H])([H])[H])c(C([H])([H])N([H])C(=O)N2C([H])([H])C([H])([H])C([H])([H])C([H])(n3nc(-c4c([H])c([H])c(Oc5c([H])c([H])c(F)c([H])c5F)c([H])c4[H])c(C(=O)N([H])[H])c3N([H])[H])C2([H])[H])nc1N([H])C([H])(C([H])([H])[H])C([H])([H])Oc1c([H])c([H])c2c(c1[H])C([H])([H])N(C(=O)C([H])(N([H])C(=O)C([H])(N([H])C([H])([H])[H])C([H])([H])[H])C(C([H])([H])[H])(C([H])([H])[H])C([H])([H])[H])C([H])(C(=O)N([H])C1([H])c3c([H])c([H])c([H])c([H])c3C([H])([H])C([H])([H])C1([H])[H])C2([H])[H]

$$$$
60:0:0
     RDKit          3D

 98106  0  0  1  0  0  0  0  0999 V2000
  -29.5600  -21.7640   21.5230 C   0  0  0  0  0  3  0  0  0  0  0  0
  -29.5660  -18.0290   20.8170 C   0  0  0  0  0  3  0  0  0  0  0  0
  -30.5140  -17.0030   20.5860 C   0  0  0  0  0  0  0  0  0  0  0  0
  -30.0120  -19.3660   20.8190 C   0  0  0  0  0  0  0  0  0  0  0  0
  -32.1360  -18.6430   20.4330 C   0  0  0  0  0  0  0  0  0  0  0  0
  -33.5960  -18.9850   20.2330 C   0  0  0  0  0  1  0  0  0  0  0  0
  -31.8090  -17.3570   20.4290 N   0  0  0  0  0  0  0  0  0  0  0  0
  -31.2990  -19.6580   20.6020 N   0  0  0  0  0  0  0  0  0  0  0  0
  -29.1250  -20.4400   21.0260 N   0  0  0  0  0  0  0  0  0  0  0  0
  -28.1610  -20.1850   21.2100 H   0  0  0  0  0  0  0  0  0  0  0  0
  -30.7050  -14.5720   20.0050 C   0  0  0  0  0  0  0  0  0  0  0  0
  -30.3020  -12.3780   18.9450 C   0  0  0  0  0  2  0  0  0  0  0  0
  -29.3040  -12.5500   17.7830 C   0  0  0  0  0  2  0  0  0  0  0  0
  -27.8570  -12.4260   18.2960 C   0  0  0  0  0  2  0  0  0  0  0  0
  -27.5880  -13.3040   19.5480 C   0  0  0  0  0  3  0  0  0  0  0  0
  -28.7050  -13.1380   20.6060 C   0  0  0  0  0  2  0  0  0  0  0  0
  -29.9950  -13.4080   19.9520 N   0  0  0  0  0  0  0  0  0  0  0  0
  -31.8040  -14.6710   19.4510 O   0  0  0  0  0  0  0  0  0  0  0  0
  -30.0700  -15.6390   20.5450 N   0  0  0  0  0  0  0  0  0  0  0  0
  -29.1310  -15.4650   20.8650 H   0  0  0  0  0  0  0  0  0  0  0  0
  -25.2600  -13.9390   20.4370 C   0  0  0  0  0  0  0  0  0  0  0  0
  -24.2010  -13.1780   20.8530 C   0  0  0  0  0  0  0  0  0  0  0  0
  -24.6250  -11.8180   20.7480 C   0  0  0  0  0  0  0  0  0  0  0  0
  -26.2650  -13.0430   20.1090 N   0  0  0  0  0  0  0  0  0  0  0  0
  -25.8900  -11.7600   20.3530 N   0  0  0  0  0  0  0  0  0  0  0  0
  -23.8810  -10.5660   20.9450 C   0  0  0  0  0  0  0  0  0  0  0  0
  -24.3260   -9.5780   21.8490 C   0  0  0  0  0  3  0  0  0  0  0  0
  -23.5840   -8.3920   22.0370 C   0  0  0  0  0  3  0  0  0  0  0  0
  -22.3820   -8.1860   21.3170 C   0  0  0  0  0  0  0  0  0  0  0  0
  -21.9560   -9.1630   20.4020 C   0  0  0  0  0  3  0  0  0  0  0  0
  -22.6980  -10.3410   20.2130 C   0  0  0  0  0  3  0  0  0  0  0  0
  -21.6100   -7.0540   21.4150 O   0  0  0  0  0  0  0  0  0  0  0  0
  -21.5500   -6.3200   22.5730 C   0  0  0  0  0  0  0  0  0  0  0  0
  -21.1310   -6.8910   23.7950 C   0  0  0  0  0  3  0  0  0  0  0  0
  -21.0170   -6.0850   24.9450 C   0  0  0  0  0  3  0  0  0  0  0  0
  -21.3130   -4.7110   24.8740 C   0  0  0  0  0  0  0  0  0  0  0  0
  -21.7240   -4.1400   23.6560 C   0  0  0  0  0  3  0  0  0  0  0  0
  -21.8390   -4.9430   22.5090 C   0  0  0  0  0  0  0  0  0  0  0  0
  -22.2160   -4.3840   21.3340 F   0  0  0  0  0  0  0  0  0  0  0  0
  -21.1950   -3.9340   25.9770 F   0  0  0  0  0  0  0  0  0  0  0  0
  -22.8370  -13.6780   21.2340 C   0  0  0  0  0  0  0  0  0  0  0  0
  -22.1520  -12.9710   22.1270 N   0  0  0  0  0  0  0  0  0  0  0  0
  -22.3900  -14.7280   20.7760 O   0  0  0  0  0  0  0  0  0  0  0  0
  -22.5280  -12.1200   22.5160 H   0  0  0  0  0  0  0  0  0  0  0  0
  -21.2400  -13.2850   22.4240 H   0  0  0  0  0  0  0  0  0  0  0  0
  -25.4460  -15.3100   20.2900 N   0  0  0  0  0  0  0  0  0  0  0  0
  -24.6990  -15.9750   20.4540 H   0  0  0  0  0  0  0  0  0  0  0  0
  -26.2720  -15.7370   19.8890 H   0  0  0  0  0  0  0  0  0  0  0  0
  -29.5290  -21.7710   23.0790 C   0  0  0  0  0  2  0  0  0  0  0  0
  -30.3230  -20.8930   25.3200 C   0  0  0  0  0  1  0  0  0  0  0  0
  -32.0300  -21.5330   23.5800 C   0  0  0  0  0  1  0  0  0  0  0  0
  -30.6220  -20.9590   23.8140 C   0  0  0  0  0  3  0  0  0  0  0  0
  -28.6380  -22.8840   20.9230 C   0  0  0  0  0  2  0  0  0  0  0  0
  -29.0490  -24.4000   21.0020 C   0  0  0  0  0  3  0  0  0  0  0  0
  -28.8910  -24.9000   22.3180 O   0  0  0  0  0  0  0  0  0  0  0  0
  -28.9590  -25.8490   22.2580 H   0  0  0  0  0  0  0  0  0  0  0  0
  -28.0880  -25.2690   20.1470 C   0  0  0  0  0  2  0  0  0  0  0  0
  -28.2980  -26.7040   20.2370 O   0  0  0  0  0  0  0  0  0  0  0  0
  -24.5900  -31.9810   23.2880 C   0  0  0  0  0  0  0  0  0  0  0  0
  -27.1580  -27.4970   20.1810 C   0  0  0  0  0  0  0  0  0  0  0  0
  -23.3580  -30.5880   21.6620 C   0  0  0  0  0  3  0  0  0  0  0  0
  -24.7840  -29.0530   20.2110 C   0  0  0  0  0  0  0  0  0  0  0  0
  -25.8870  -30.9230   21.4390 C   0  0  0  0  0  2  0  0  0  0  0  0
  -25.9550  -29.5530   20.7930 C   0  0  0  0  0  0  0  0  0  0  0  0
  -27.1450  -28.7830   20.7770 C   0  0  0  0  0  3  0  0  0  0  0  0
  -25.9720  -27.0420   19.5540 C   0  0  0  0  0  3  0  0  0  0  0  0
  -24.7890  -27.7980   19.5860 C   0  0  0  0  0  3  0  0  0  0  0  0
  -23.5470  -29.9180   20.2770 C   0  0  0  0  0  2  0  0  0  0  0  0
  -24.6310  -31.1800   22.1860 N   0  0  0  0  0  0  0  0  0  0  0  0
  -23.5170  -32.2590   23.8400 O   0  0  0  0  0  0  0  0  0  0  0  0
  -22.7140  -29.5660   22.6270 C   0  0  0  0  0  0  0  0  0  0  0  0
  -21.3960  -29.3490   22.4820 N   0  0  0  0  0  0  0  0  0  0  0  0
  -23.3970  -28.9720   23.4660 O   0  0  0  0  0  0  0  0  0  0  0  0
  -20.9050  -29.8810   21.7770 H   0  0  0  0  0  0  0  0  0  0  0  0
  -18.0540  -28.0400   22.9040 C   0  0  0  0  0  0  0  0  0  0  0  0
  -20.5880  -28.4070   23.2570 C   0  0  0  0  0  3  0  0  0  0  0  0
  -20.7660  -26.9620   22.7370 C   0  0  0  0  0  2  0  0  0  0  0  0
  -19.7160  -26.5610   21.6970 C   0  0  0  0  0  2  0  0  0  0  0  0
  -18.3060  -26.6750   22.2860 C   0  0  0  0  0  2  0  0  0  0  0  0
  -19.1260  -28.8590   23.3450 C   0  0  0  0  0  0  0  0  0  0  0  0
  -18.8390  -30.1330   23.8820 C   0  0  0  0  0  3  0  0  0  0  0  0
  -17.5110  -30.5890   23.9820 C   0  0  0  0  0  3  0  0  0  0  0  0
  -16.4520  -29.7670   23.5570 C   0  0  0  0  0  3  0  0  0  0  0  0
  -16.7250  -28.4950   23.0240 C   0  0  0  0  0  3  0  0  0  0  0  0
  -25.8860  -32.6080   23.8900 C   0  0  0  0  0  3  0  0  0  0  0  0
  -25.5900  -34.0090   24.2140 N   0  0  0  0  0  0  0  0  0  0  0  0
  -25.9160  -35.0530   23.4420 C   0  0  0  0  0  0  0  0  0  0  0  0
  -26.5700  -34.9390   22.4010 O   0  0  0  0  0  0  0  0  0  0  0  0
  -25.0090  -34.1720   25.0240 H   0  0  0  0  0  0  0  0  0  0  0  0
  -24.1880  -36.8500   23.1030 C   0  0  0  0  0  1  0  0  0  0  0  0
  -25.4420  -36.4480   23.8960 C   0  0  0  0  0  3  0  0  0  0  0  0
  -27.5940  -37.3310   24.6800 C   0  0  0  0  0  1  0  0  0  0  0  0
  -26.4760  -37.4950   23.7550 N   0  0  0  0  0  0  0  0  0  0  0  0
  -26.0760  -38.4180   23.9020 H   0  0  0  0  0  0  0  0  0  0  0  0
  -26.4150  -31.8380   25.1620 C   0  0  1  0  0  0  0  0  0  0  0  0
  -25.3310  -31.5990   26.2380 C   0  0  0  0  0  1  0  0  0  0  0  0
  -26.9980  -30.4620   24.7660 C   0  0  0  0  0  1  0  0  0  0  0  0
  -27.5690  -32.6350   25.8140 C   0  0  0  0  0  1  0  0  0  0  0  0
  1 53  1  0
  1 49  1  0
  2  4  1  0
  3  2  2  0
  4  9  1  0
  5  8  1  0
  6  5  1  0
  7  5  2  0
  7  3  1  0
  8  4  2  0
  9 10  1  0
  9  1  1  0
 11 19  1  0
 12 17  1  0
 13 14  1  0
 13 12  1  0
 15 14  1  0
 15 24  1  0
 15 16  1  0
 17 11  1  0
 17 16  1  0
 18 11  2  0
 19  3  1  0
 19 20  1  0
 21 22  2  0
 22 41  1  0
 23 22  1  0
 23 26  1  0
 24 25  1  0
 24 21  1  0
 25 23  2  0
 26 27  1  0
 27 28  2  0
 29 32  1  0
 29 28  1  0
 30 29  2  0
 31 30  1  0
 31 26  2  0
 32 33  1  0
 33 34  1  0
 34 35  2  0
 36 35  1  0
 36 40  1  0
 37 36  2  0
 38 33  2  0
 38 37  1  0
 39 38  1  0
 41 42  1  0
 42 45  1  0
 42 44  1  0
 43 41  2  0
 46 21  1  0
 46 47  1  0
 48 46  1  0
 49 52  1  0
 51 52  1  0
 52 50  1  0
 53 54  1  0
 54 57  1  0
 54 55  1  0
 56 55  1  0
 57 58  1  0
 59 70  2  0
 60 58  1  0
 60 65  1  0
 61 69  1  0
 61 71  1  0
 62 68  1  0
 62 64  1  0
 63 69  1  0
 64 63  1  0
 65 64  2  0
 66 67  1  0
 66 60  2  0
 67 62  2  0
 68 61  1  0
 69 59  1  0
 71 73  2  0
 72 71  1  0
 74 72  1  0
 75 84  2  0
 75 80  1  0
 76 72  1  0
 76 80  1  0
 77 76  1  0
 78 79  1  0
 78 77  1  0
 79 75  1  0
 80 81  2  0
 81 82  1  0
 83 82  2  0
 84 83  1  0
 85 59  1  0
 85 86  1  0
 85 95  1  0
 86 89  1  0
 87 91  1  0
 87 86  1  0
 88 87  2  0
 91 90  1  0
 93 91  1  0
 93 94  1  0
 93 92  1  0
 95 98  1  1
 95 96  1  0
 97 95  1  0
M  ISO  4  11 100  19 100  57 101  58 101
M  END
>  <TORSDO>  (61) 
F 23

>  <SCORE>  (61) 
-12.715

>  <name>  (61) 
60

>  <ligand_id>  (61) 
60

>  <original_smiles>  (61) 
[H]OC([H])(C([H])([H])Oc1c([H])c([H])c2c(c1[H])C([H])([H])N(C(=O)C([H])(N([H])C(=O)C([H])(N([H])C([H])([H])[H])C([H])([H])[H])C(C([H])([H])[H])(C([H])([H])[H])C([H])([H])[H])C([H])(C(=O)N([H])C1([H])c3c([H])c([H])c([H])c([H])c3C([H])([H])C([H])([H])C1([H])[H])C2([H])[H])C([H])([H])C([H])(N([H])c1nc(C([H])([H])[H])nc(N([H])C(=O)N2C([H])([H])C([H])([H])C([H])([H])C([H])(n3nc(-c4c([H])c([H])c(Oc5c([H])c([H])c(F)c([H])c5F)c([H])c4[H])c(C(=O)N([H])[H])c3N([H])[H])C2([H])[H])c1[H])C([H])([H])C([H])(C([H])([H])[H])C([H])([H])[H]

>  <smiles>  (61) 
[H]OC([H])(C([H])([H])Oc1c([H])c([H])c2c(c1[H])C([H])([H])N(C(=O)C([H])(N([H])C(=O)C([H])(N([H])C([H])([H])[H])C([H])([H])[H])C(C([H])([H])[H])(C([H])([H])[H])C([H])([H])[H])C([H])(C(=O)N([H])C1([H])c3c([H])c([H])c([H])c([H])c3C([H])([H])C([H])([H])C1([H])[H])C2([H])[H])C([H])([H])C([H])(N([H])c1nc(C([H])([H])[H])nc(N([H])C(=O)N2C([H])([H])C([H])([H])C([H])([H])C([H])(n3nc(-c4c([H])c([H])c(Oc5c([H])c([H])c(F)c([H])c5F)c([H])c4[H])c(C(=O)N([H])[H])c3N([H])[H])C2([H])[H])c1[H])C([H])([H])C([H])(C([H])([H])[H])C([H])([H])[H]

$$$$
61:0:0
     RDKit          3D

 97105  0  0  1  0  0  0  0  0999 V2000
  -27.9940  -20.7990   20.4730 C   0  0  0  0  0  3  0  0  0  0  0  0
  -30.7630  -14.8740   19.7490 C   0  0  0  0  0  0  0  0  0  0  0  0
  -30.4080  -12.7070   18.6080 C   0  0  0  0  0  2  0  0  0  0  0  0
  -29.3190  -12.8730   17.5290 C   0  0  0  0  0  2  0  0  0  0  0  0
  -27.9160  -12.6700   18.1340 C   0  0  0  0  0  2  0  0  0  0  0  0
  -27.7040  -13.4810   19.4410 C   0  0  0  0  0  3  0  0  0  0  0  0
  -28.8950  -13.3070   20.4090 C   0  0  0  0  0  2  0  0  0  0  0  0
  -30.1180  -13.6750   19.6810 N   0  0  0  0  0  0  0  0  0  0  0  0
  -31.8260  -15.0610   19.1450 O   0  0  0  0  0  0  0  0  0  0  0  0
  -31.4050  -19.6780   21.0930 C   0  0  0  0  0  3  0  0  0  0  0  0
  -32.1730  -18.5510   21.3950 C   0  0  0  0  0  0  0  0  0  0  0  0
  -30.1350  -19.4660   20.5580 C   0  0  0  0  0  0  0  0  0  0  0  0
  -30.5020  -17.1780   20.6190 C   0  0  0  0  0  0  0  0  0  0  0  0
  -33.5790  -18.6750   21.9440 C   0  0  0  0  0  1  0  0  0  0  0  0
  -31.7120  -17.3120   21.1650 N   0  0  0  0  0  0  0  0  0  0  0  0
  -29.6700  -18.2060   20.3480 N   0  0  0  0  0  0  0  0  0  0  0  0
  -29.4110  -20.6080   20.1640 N   0  0  0  0  0  0  0  0  0  0  0  0
  -30.0820  -15.8870   20.3440 N   0  0  0  0  0  0  0  0  0  0  0  0
  -29.9500  -21.4610   20.2240 H   0  0  0  0  0  0  0  0  0  0  0  0
  -29.1360  -15.6780   20.6130 H   0  0  0  0  0  0  0  0  0  0  0  0
  -25.4350  -13.9890   20.5390 C   0  0  0  0  0  0  0  0  0  0  0  0
  -24.4310  -13.1720   20.9800 C   0  0  0  0  0  0  0  0  0  0  0  0
  -24.8790  -11.8350   20.7560 C   0  0  0  0  0  0  0  0  0  0  0  0
  -26.4340  -13.1450   20.0790 N   0  0  0  0  0  0  0  0  0  0  0  0
  -26.1120  -11.8390   20.2650 N   0  0  0  0  0  0  0  0  0  0  0  0
  -24.1850  -10.5520   20.9230 C   0  0  0  0  0  0  0  0  0  0  0  0
  -24.6370   -9.5810   21.8430 C   0  0  0  0  0  3  0  0  0  0  0  0
  -23.9410   -8.3630   21.9990 C   0  0  0  0  0  3  0  0  0  0  0  0
  -22.7770   -8.1090   21.2360 C   0  0  0  0  0  0  0  0  0  0  0  0
  -22.3440   -9.0690   20.3050 C   0  0  0  0  0  3  0  0  0  0  0  0
  -23.0410  -10.2780   20.1460 C   0  0  0  0  0  3  0  0  0  0  0  0
  -22.0490   -6.9450   21.3040 O   0  0  0  0  0  0  0  0  0  0  0  0
  -21.8620   -6.2820   22.4890 C   0  0  0  0  0  0  0  0  0  0  0  0
  -21.2380   -6.8950   23.5980 C   0  0  0  0  0  3  0  0  0  0  0  0
  -21.0050   -6.1530   24.7730 C   0  0  0  0  0  3  0  0  0  0  0  0
  -21.3840   -4.7990   24.8390 C   0  0  0  0  0  0  0  0  0  0  0  0
  -22.0010   -4.1850   23.7340 C   0  0  0  0  0  3  0  0  0  0  0  0
  -22.2360   -4.9240   22.5630 C   0  0  0  0  0  0  0  0  0  0  0  0
  -22.8120   -4.3220   21.4930 F   0  0  0  0  0  0  0  0  0  0  0  0
  -21.1540   -4.0840   25.9640 F   0  0  0  0  0  0  0  0  0  0  0  0
  -23.0860  -13.6040   21.4920 C   0  0  0  0  0  0  0  0  0  0  0  0
  -22.4930  -12.8260   22.3890 N   0  0  0  0  0  0  0  0  0  0  0  0
  -22.5790  -14.6660   21.1320 O   0  0  0  0  0  0  0  0  0  0  0  0
  -22.9200  -11.9650   22.6980 H   0  0  0  0  0  0  0  0  0  0  0  0
  -21.5980  -13.0940   22.7730 H   0  0  0  0  0  0  0  0  0  0  0  0
  -25.5770  -15.3710   20.4690 N   0  0  0  0  0  0  0  0  0  0  0  0
  -24.8280  -16.0010   20.7350 H   0  0  0  0  0  0  0  0  0  0  0  0
  -26.3570  -15.8510   20.0390 H   0  0  0  0  0  0  0  0  0  0  0  0
  -27.2310  -21.2800   18.0240 C   0  0  0  0  0  1  0  0  0  0  0  0
  -27.0800  -20.4190   19.2870 C   0  0  0  0  0  2  0  0  0  0  0  0
  -27.6780  -22.1980   21.1160 C   0  0  0  0  0  2  0  0  0  0  0  0
  -28.3160  -23.5140   20.5430 C   0  0  0  0  0  2  0  0  0  0  0  0
  -27.8130  -24.8270   21.2340 C   0  0  0  0  0  3  0  0  0  0  0  0
  -27.9230  -24.6430   22.6360 O   0  0  0  0  0  0  0  0  0  0  0  0
  -28.8470  -24.5330   22.8380 H   0  0  0  0  0  0  0  0  0  0  0  0
  -28.5850  -26.1520   20.9090 C   0  0  0  0  0  2  0  0  0  0  0  0
  -28.1720  -26.8850   19.7470 O   0  0  0  0  0  0  0  0  0  0  0  0
  -24.4420  -31.9540   23.1990 C   0  0  0  0  0  0  0  0  0  0  0  0
  -27.0300  -27.6470   19.8740 C   0  0  0  0  0  0  0  0  0  0  0  0
  -23.2060  -30.6070   21.5350 C   0  0  0  0  0  3  0  0  0  0  0  0
  -24.6360  -29.1440   20.0090 C   0  0  0  0  0  0  0  0  0  0  0  0
  -25.7230  -30.9930   21.2880 C   0  0  0  0  0  2  0  0  0  0  0  0
  -25.8050  -29.6460   20.5970 C   0  0  0  0  0  0  0  0  0  0  0  0
  -27.0110  -28.9020   20.5330 C   0  0  0  0  0  3  0  0  0  0  0  0
  -25.8520  -27.1700   19.2730 C   0  0  0  0  0  3  0  0  0  0  0  0
  -24.6530  -27.9050   19.3470 C   0  0  0  0  0  3  0  0  0  0  0  0
  -23.3870  -29.9900   20.1220 C   0  0  0  0  0  2  0  0  0  0  0  0
  -24.4760  -31.1990   22.0650 N   0  0  0  0  0  0  0  0  0  0  0  0
  -23.3720  -32.1910   23.7780 O   0  0  0  0  0  0  0  0  0  0  0  0
  -22.5910  -29.5370   22.4670 C   0  0  0  0  0  0  0  0  0  0  0  0
  -21.2680  -29.3370   22.3560 N   0  0  0  0  0  0  0  0  0  0  0  0
  -23.3010  -28.8950   23.2450 O   0  0  0  0  0  0  0  0  0  0  0  0
  -20.7590  -29.9080   21.6970 H   0  0  0  0  0  0  0  0  0  0  0  0
  -17.9240  -28.0560   22.8530 C   0  0  0  0  0  0  0  0  0  0  0  0
  -20.4800  -28.3590   23.1050 C   0  0  0  0  0  3  0  0  0  0  0  0
  -20.6090  -26.9500   22.4810 C   0  0  0  0  0  2  0  0  0  0  0  0
  -19.5010  -26.6370   21.4680 C   0  0  0  0  0  2  0  0  0  0  0  0
  -18.1230  -26.7330   22.1310 C   0  0  0  0  0  2  0  0  0  0  0  0
  -19.0330  -28.8270   23.2950 C   0  0  0  0  0  0  0  0  0  0  0  0
  -18.7960  -30.0670   23.9280 C   0  0  0  0  0  3  0  0  0  0  0  0
  -17.4830  -30.5380   24.1230 C   0  0  0  0  0  3  0  0  0  0  0  0
  -16.3900  -29.7610   23.7010 C   0  0  0  0  0  3  0  0  0  0  0  0
  -16.6110  -28.5230   23.0710 C   0  0  0  0  0  3  0  0  0  0  0  0
  -25.7370  -32.5750   23.8080 C   0  0  0  0  0  3  0  0  0  0  0  0
  -26.2760  -31.7790   25.0600 C   0  0  1  0  0  0  0  0  0  0  0  0
  -25.2000  -31.5210   26.1390 C   0  0  0  0  0  1  0  0  0  0  0  0
  -26.8540  -30.4120   24.6260 C   0  0  0  0  0  1  0  0  0  0  0  0
  -27.4390  -32.5610   25.7170 C   0  0  0  0  0  1  0  0  0  0  0  0
  -25.4340  -33.9670   24.1680 N   0  0  0  0  0  0  0  0  0  0  0  0
  -25.7580  -35.0330   23.4220 C   0  0  0  0  0  0  0  0  0  0  0  0
  -26.4100  -34.9450   22.3780 O   0  0  0  0  0  0  0  0  0  0  0  0
  -24.8520  -34.1060   24.9810 H   0  0  0  0  0  0  0  0  0  0  0  0
  -24.0190  -36.8240   23.1320 C   0  0  0  0  0  1  0  0  0  0  0  0
  -25.2780  -36.4120   23.9110 C   0  0  0  0  0  3  0  0  0  0  0  0
  -27.4260  -37.2850   24.7150 C   0  0  0  0  0  1  0  0  0  0  0  0
  -26.3070  -37.4680   23.7950 N   0  0  0  0  0  0  0  0  0  0  0  0
  -25.9030  -38.3840   23.9680 H   0  0  0  0  0  0  0  0  0  0  0  0
  1 50  1  0
  1 51  1  0
  2 18  1  0
  3  8  1  0
  4  5  1  0
  4  3  1  0
  6  5  1  0
  6 24  1  0
  6  7  1  0
  8  2  1  0
  8  7  1  0
  9  2  2  0
 10 11  2  0
 11 14  1  0
 12 10  1  0
 13 15  2  0
 15 11  1  0
 16 12  2  0
 16 13  1  0
 17 19  1  0
 17  1  1  0
 17 12  1  0
 18 20  1  0
 18 13  1  0
 21 22  2  0
 22 41  1  0
 23 26  1  0
 23 22  1  0
 24 25  1  0
 24 21  1  0
 25 23  2  0
 26 27  1  0
 27 28  2  0
 29 32  1  0
 29 28  1  0
 30 29  2  0
 31 30  1  0
 31 26  2  0
 32 33  1  0
 33 38  2  0
 33 34  1  0
 34 35  2  0
 35 36  1  0
 36 40  1  0
 37 36  2  0
 38 37  1  0
 39 38  1  0
 41 42  1  0
 42 44  1  0
 42 45  1  0
 43 41  2  0
 46 21  1  0
 46 47  1  0
 48 46  1  0
 49 50  1  0
 52 51  1  0
 53 52  1  0
 53 54  1  0
 54 55  1  0
 56 53  1  0
 57 59  1  0
 57 56  1  0
 58 69  2  0
 59 64  1  0
 60 68  1  0
 60 70  1  0
 61 67  1  0
 61 63  1  0
 62 68  1  0
 63 62  1  0
 64 63  2  0
 65 66  1  0
 65 59  2  0
 66 61  2  0
 67 60  1  0
 68 58  1  0
 70 72  2  0
 71 70  1  0
 73 71  1  0
 74 83  2  0
 74 79  1  0
 75 71  1  0
 75 79  1  0
 76 75  1  0
 77 78  1  0
 77 76  1  0
 78 74  1  0
 79 80  2  0
 80 81  1  0
 82 81  2  0
 83 82  1  0
 84 58  1  0
 84 89  1  0
 84 85  1  0
 85 88  1  1
 85 86  1  0
 87 85  1  0
 89 92  1  0
 90 94  1  0
 90 89  1  0
 91 90  2  0
 94 93  1  0
 96 94  1  0
 96 97  1  0
 96 95  1  0
M  ISO  4   2 100  18 100  56 101  57 101
M  END
>  <TORSDO>  (62) 
F 22

>  <SCORE>  (62) 
-11.648

>  <name>  (62) 
61

>  <ligand_id>  (62) 
61

>  <original_smiles>  (62) 
[H]OC([H])(C([H])([H])Oc1c([H])c([H])c2c(c1[H])C([H])([H])N(C(=O)C([H])(N([H])C(=O)C([H])(N([H])C([H])([H])[H])C([H])([H])[H])C(C([H])([H])[H])(C([H])([H])[H])C([H])([H])[H])C([H])(C(=O)N([H])C1([H])c3c([H])c([H])c([H])c([H])c3C([H])([H])C([H])([H])C1([H])[H])C2([H])[H])C([H])([H])C([H])([H])C([H])(N([H])c1nc(N([H])C(=O)N2C([H])([H])C([H])([H])C([H])([H])C([H])(n3nc(-c4c([H])c([H])c(Oc5c([H])c([H])c(F)c([H])c5F)c([H])c4[H])c(C(=O)N([H])[H])c3N([H])[H])C2([H])[H])nc(C([H])([H])[H])c1[H])C([H])([H])C([H])([H])[H]

>  <smiles>  (62) 
[H]OC([H])(C([H])([H])Oc1c([H])c([H])c2c(c1[H])C([H])([H])N(C(=O)C([H])(N([H])C(=O)C([H])(N([H])C([H])([H])[H])C([H])([H])[H])C(C([H])([H])[H])(C([H])([H])[H])C([H])([H])[H])C([H])(C(=O)N([H])C1([H])c3c([H])c([H])c([H])c([H])c3C([H])([H])C([H])([H])C1([H])[H])C2([H])[H])C([H])([H])C([H])([H])C([H])(N([H])c1nc(N([H])C(=O)N2C([H])([H])C([H])([H])C([H])([H])C([H])(n3nc(-c4c([H])c([H])c(Oc5c([H])c([H])c(F)c([H])c5F)c([H])c4[H])c(C(=O)N([H])[H])c3N([H])[H])C2([H])[H])nc(C([H])([H])[H])c1[H])C([H])([H])C([H])([H])[H]

$$$$
62:0:0
     RDKit          3D

 94102  0  0  1  0  0  0  0  0999 V2000
  -29.7880  -20.6990   19.5180 C   0  0  0  0  0  3  0  0  0  0  0  0
  -30.4650  -18.6960   20.5930 C   0  0  0  0  0  0  0  0  0  0  0  0
  -29.9030  -21.4650   20.7150 C   0  0  0  0  0  0  0  0  0  0  0  0
  -30.5500  -19.4580   21.8040 C   0  0  0  0  0  0  0  0  0  0  0  0
  -30.9310  -19.6020   24.2560 C   0  0  0  0  0  1  0  0  0  0  0  0
  -30.0620  -19.3520   19.4600 N   0  0  0  0  0  0  0  0  0  0  0  0
  -30.2640  -20.8010   21.8480 N   0  0  0  0  0  0  0  0  0  0  0  0
  -30.9870  -18.8640   22.9970 N   0  0  0  0  0  0  0  0  0  0  0  0
  -31.0650  -17.8520   23.0350 H   0  0  0  0  0  0  0  0  0  0  0  0
  -29.6560  -22.8710   20.8840 N   0  0  0  0  0  0  0  0  0  0  0  0
  -29.6350  -23.1930   21.8490 H   0  0  0  0  0  0  0  0  0  0  0  0
  -30.9490  -24.6920   19.7250 C   0  0  0  0  0  1  0  0  0  0  0  0
  -29.6090  -23.9640   19.8630 C   0  0  0  0  0  3  0  0  0  0  0  0
  -28.4250  -25.0130   20.0590 C   0  0  0  0  0  2  0  0  0  0  0  0
  -28.6270  -26.4840   20.1500 O   0  0  0  0  0  0  0  0  0  0  0  0
  -24.6540  -31.7480   23.1590 C   0  0  0  0  0  0  0  0  0  0  0  0
  -27.4760  -27.2980   20.1160 C   0  0  0  0  0  0  0  0  0  0  0  0
  -23.5290  -30.3170   21.4950 C   0  0  0  0  0  3  0  0  0  0  0  0
  -25.0560  -28.8310   20.0940 C   0  0  0  0  0  0  0  0  0  0  0  0
  -26.0630  -30.7270   21.3570 C   0  0  0  0  0  2  0  0  0  0  0  0
  -26.2040  -29.3600   20.6980 C   0  0  0  0  0  0  0  0  0  0  0  0
  -27.4200  -28.6070   20.6930 C   0  0  0  0  0  3  0  0  0  0  0  0
  -26.2870  -26.8240   19.5090 C   0  0  0  0  0  3  0  0  0  0  0  0
  -25.0980  -27.5670   19.4970 C   0  0  0  0  0  3  0  0  0  0  0  0
  -23.7910  -29.6590   20.1180 C   0  0  0  0  0  2  0  0  0  0  0  0
  -24.7660  -30.9480   22.0600 N   0  0  0  0  0  0  0  0  0  0  0  0
  -23.5510  -31.9850   23.6760 O   0  0  0  0  0  0  0  0  0  0  0  0
  -22.8890  -29.2690   22.4410 C   0  0  0  0  0  0  0  0  0  0  0  0
  -21.5730  -29.0390   22.2870 N   0  0  0  0  0  0  0  0  0  0  0  0
  -23.5760  -28.6680   23.2730 O   0  0  0  0  0  0  0  0  0  0  0  0
  -21.0760  -29.5790   21.5920 H   0  0  0  0  0  0  0  0  0  0  0  0
  -18.2400  -27.6930   22.7020 C   0  0  0  0  0  0  0  0  0  0  0  0
  -20.7770  -28.0680   23.0400 C   0  0  0  0  0  3  0  0  0  0  0  0
  -20.9590  -26.6410   22.4750 C   0  0  0  0  0  2  0  0  0  0  0  0
  -19.9000  -26.2640   21.4330 C   0  0  0  0  0  2  0  0  0  0  0  0
  -18.4970  -26.3490   22.0410 C   0  0  0  0  0  2  0  0  0  0  0  0
  -19.3120  -28.5080   23.1570 C   0  0  0  0  0  0  0  0  0  0  0  0
  -19.0210  -29.7620   23.7340 C   0  0  0  0  0  3  0  0  0  0  0  0
  -17.6910  -30.2050   23.8620 C   0  0  0  0  0  3  0  0  0  0  0  0
  -16.6340  -29.3890   23.4250 C   0  0  0  0  0  3  0  0  0  0  0  0
  -16.9090  -28.1340   22.8510 C   0  0  0  0  0  3  0  0  0  0  0  0
  -25.9030  -32.4250   23.8030 C   0  0  0  0  0  3  0  0  0  0  0  0
  -26.4340  -31.6630   25.0790 C   0  0  1  0  0  0  0  0  0  0  0  0
  -25.3400  -31.3730   26.1330 C   0  0  0  0  0  1  0  0  0  0  0  0
  -27.0750  -30.3120   24.6860 C   0  0  0  0  0  1  0  0  0  0  0  0
  -27.5440  -32.4970   25.7630 C   0  0  0  0  0  1  0  0  0  0  0  0
  -25.5310  -33.8060   24.1420 N   0  0  0  0  0  0  0  0  0  0  0  0
  -25.8240  -34.8790   23.3960 C   0  0  0  0  0  0  0  0  0  0  0  0
  -26.5060  -34.8150   22.3700 O   0  0  0  0  0  0  0  0  0  0  0  0
  -24.9220  -33.9260   24.9390 H   0  0  0  0  0  0  0  0  0  0  0  0
  -24.0190  -36.5980   23.0560 C   0  0  0  0  0  1  0  0  0  0  0  0
  -25.2760  -36.2420   23.8650 C   0  0  0  0  0  3  0  0  0  0  0  0
  -27.3700  -37.2110   24.7030 C   0  0  0  0  0  1  0  0  0  0  0  0
  -26.2610  -37.3400   23.7620 N   0  0  0  0  0  0  0  0  0  0  0  0
  -25.8140  -38.2390   23.9190 H   0  0  0  0  0  0  0  0  0  0  0  0
  -31.1300  -17.2710   20.3970 C   0  0  0  0  0  2  0  0  0  0  0  0
  -31.0670  -14.7420   20.2130 C   0  0  0  0  0  0  0  0  0  0  0  0
  -30.7470  -12.4820   19.2360 C   0  0  0  0  0  2  0  0  0  0  0  0
  -29.8080  -12.5590   18.0150 C   0  0  0  0  0  2  0  0  0  0  0  0
  -28.3330  -12.4440   18.4520 C   0  0  0  0  0  2  0  0  0  0  0  0
  -27.9870  -13.3720   19.6470 C   0  0  0  0  0  3  0  0  0  0  0  0
  -29.0500  -13.2940   20.7650 C   0  0  0  0  0  2  0  0  0  0  0  0
  -30.3560  -13.5720   20.1570 N   0  0  0  0  0  0  0  0  0  0  0  0
  -32.2510  -14.7640   19.8730 O   0  0  0  0  0  0  0  0  0  0  0  0
  -30.4190  -15.9330   20.4420 N   0  0  0  0  0  0  0  0  0  0  0  0
  -29.4240  -15.9230   20.6100 H   0  0  0  0  0  0  0  0  0  0  0  0
  -25.6150  -14.0300   20.3710 C   0  0  0  0  0  0  0  0  0  0  0  0
  -24.5320  -13.2860   20.7520 C   0  0  0  0  0  0  0  0  0  0  0  0
  -24.9620  -11.9240   20.7310 C   0  0  0  0  0  0  0  0  0  0  0  0
  -26.6360  -13.1220   20.1440 N   0  0  0  0  0  0  0  0  0  0  0  0
  -26.2510  -11.8500   20.4240 N   0  0  0  0  0  0  0  0  0  0  0  0
  -24.2030  -10.6820   20.9310 C   0  0  0  0  0  0  0  0  0  0  0  0
  -24.6030   -9.7220   21.8860 C   0  0  0  0  0  3  0  0  0  0  0  0
  -23.8460   -8.5450   22.0760 C   0  0  0  0  0  3  0  0  0  0  0  0
  -22.6780   -8.3200   21.3070 C   0  0  0  0  0  0  0  0  0  0  0  0
  -22.3000   -9.2700   20.3430 C   0  0  0  0  0  3  0  0  0  0  0  0
  -23.0560  -10.4390   20.1520 C   0  0  0  0  0  3  0  0  0  0  0  0
  -21.8930   -7.1970   21.4070 O   0  0  0  0  0  0  0  0  0  0  0  0
  -21.7940   -6.4900   22.5800 C   0  0  0  0  0  0  0  0  0  0  0  0
  -21.3630   -7.0930   23.7830 C   0  0  0  0  0  3  0  0  0  0  0  0
  -21.2080   -6.3120   24.9450 C   0  0  0  0  0  3  0  0  0  0  0  0
  -21.4740   -4.9310   24.9070 C   0  0  0  0  0  0  0  0  0  0  0  0
  -21.8970   -4.3270   23.7080 C   0  0  0  0  0  3  0  0  0  0  0  0
  -22.0540   -5.1050   22.5480 C   0  0  0  0  0  0  0  0  0  0  0  0
  -22.4410   -4.5140   21.3940 F   0  0  0  0  0  0  0  0  0  0  0  0
  -21.3180   -4.1810   26.0220 F   0  0  0  0  0  0  0  0  0  0  0  0
  -23.1470  -13.8010   21.0180 C   0  0  0  0  0  0  0  0  0  0  0  0
  -22.4090  -13.1430   21.9040 N   0  0  0  0  0  0  0  0  0  0  0  0
  -22.7280  -14.8200   20.4710 O   0  0  0  0  0  0  0  0  0  0  0  0
  -22.7540  -12.3150   22.3660 H   0  0  0  0  0  0  0  0  0  0  0  0
  -21.4850  -13.4780   22.1300 H   0  0  0  0  0  0  0  0  0  0  0  0
  -25.8150  -15.3940   20.1810 N   0  0  0  0  0  0  0  0  0  0  0  0
  -26.6860  -15.8120   19.8770 H   0  0  0  0  0  0  0  0  0  0  0  0
  -25.0680  -16.0720   20.2800 H   0  0  0  0  0  0  0  0  0  0  0  0
  1  3  1  0
  2  4  2  0
  3 10  1  0
  3  7  2  0
  4  7  1  0
  4  8  1  0
  6  1  2  0
  6  2  1  0
  8  9  1  0
  8  5  1  0
 10 11  1  0
 13 12  1  0
 13 14  1  0
 13 10  1  0
 14 15  1  0
 16 27  2  0
 17 15  1  0
 17 22  1  0
 18 26  1  0
 18 28  1  0
 19 25  1  0
 19 21  1  0
 20 26  1  0
 21 20  1  0
 22 21  2  0
 23 17  2  0
 24 23  1  0
 24 19  2  0
 25 18  1  0
 26 16  1  0
 28 30  2  0
 29 28  1  0
 31 29  1  0
 32 41  2  0
 32 37  1  0
 33 29  1  0
 33 37  1  0
 34 33  1  0
 35 36  1  0
 35 34  1  0
 36 32  1  0
 37 38  2  0
 38 39  1  0
 40 39  2  0
 41 40  1  0
 42 16  1  0
 42 47  1  0
 42 43  1  0
 43 46  1  1
 43 44  1  0
 45 43  1  0
 47 50  1  0
 48 52  1  0
 48 47  1  0
 49 48  2  0
 52 51  1  0
 54 52  1  0
 54 55  1  0
 54 53  1  0
 56 65  1  0
 56  2  1  0
 57 65  1  0
 58 63  1  0
 59 60  1  0
 59 58  1  0
 61 60  1  0
 61 70  1  0
 61 62  1  0
 63 57  1  0
 63 62  1  0
 64 57  2  0
 65 66  1  0
 67 68  2  0
 68 87  1  0
 69 68  1  0
 69 72  1  0
 70 67  1  0
 70 71  1  0
 71 69  2  0
 72 73  1  0
 73 74  2  0
 75 78  1  0
 75 74  1  0
 76 75  2  0
 77 76  1  0
 77 72  2  0
 78 79  1  0
 79 80  1  0
 80 81  2  0
 82 81  1  0
 82 86  1  0
 83 82  2  0
 84 79  2  0
 84 83  1  0
 85 84  1  0
 87 88  1  0
 88 91  1  0
 88 90  1  0
 89 87  2  0
 92 94  1  0
 92 67  1  0
 93 92  1  0
M  ISO  4  14 101  15 101  57 100  65 100
M  END
>  <TORSDO>  (63) 
F 20

>  <SCORE>  (63) 
-13.319

>  <name>  (63) 
62

>  <ligand_id>  (63) 
62

>  <original_smiles>  (63) 
[H]c1nc(C([H])([H])N([H])C(=O)N2C([H])([H])C([H])([H])C([H])([H])C([H])(n3nc(-c4c([H])c([H])c(Oc5c([H])c([H])c(F)c([H])c5F)c([H])c4[H])c(C(=O)N([H])[H])c3N([H])[H])C2([H])[H])c(N([H])C([H])([H])[H])nc1N([H])C([H])(C([H])([H])[H])C([H])([H])Oc1c([H])c([H])c2c(c1[H])C([H])([H])N(C(=O)C([H])(N([H])C(=O)C([H])(N([H])C([H])([H])[H])C([H])([H])[H])C(C([H])([H])[H])(C([H])([H])[H])C([H])([H])[H])C([H])(C(=O)N([H])C1([H])c3c([H])c([H])c([H])c([H])c3C([H])([H])C([H])([H])C1([H])[H])C2([H])[H]

>  <smiles>  (63) 
[H]c1nc(C([H])([H])N([H])C(=O)N2C([H])([H])C([H])([H])C([H])([H])C([H])(n3nc(-c4c([H])c([H])c(Oc5c([H])c([H])c(F)c([H])c5F)c([H])c4[H])c(C(=O)N([H])[H])c3N([H])[H])C2([H])[H])c(N([H])C([H])([H])[H])nc1N([H])C([H])(C([H])([H])[H])C([H])([H])Oc1c([H])c([H])c2c(c1[H])C([H])([H])N(C(=O)C([H])(N([H])C(=O)C([H])(N([H])C([H])([H])[H])C([H])([H])[H])C(C([H])([H])[H])(C([H])([H])[H])C([H])([H])[H])C([H])(C(=O)N([H])C1([H])c3c([H])c([H])c([H])c([H])c3C([H])([H])C([H])([H])C1([H])[H])C2([H])[H]

$$$$
63:0:0
     RDKit          3D

 95103  0  0  1  0  0  0  0  0999 V2000
  -29.4110  -22.4830   21.7860 C   0  0  0  0  0  1  0  0  0  0  0  0
  -29.4690  -22.0270   20.3190 C   0  0  0  0  0  3  0  0  0  0  0  0
  -30.6370  -21.1700   20.0580 N   0  0  0  0  0  0  0  0  0  0  0  0
  -31.3780  -21.5430   19.4720 H   0  0  0  0  0  0  0  0  0  0  0  0
  -30.9860  -14.5940   19.8780 C   0  0  0  0  0  0  0  0  0  0  0  0
  -30.5660  -12.4700   18.7050 C   0  0  0  0  0  2  0  0  0  0  0  0
  -29.5110  -12.7080   17.6060 C   0  0  0  0  0  2  0  0  0  0  0  0
  -28.0850  -12.5640   18.1700 C   0  0  0  0  0  2  0  0  0  0  0  0
  -27.8740  -13.3510   19.4920 C   0  0  0  0  0  3  0  0  0  0  0  0
  -29.0340  -13.1020   20.4840 C   0  0  0  0  0  2  0  0  0  0  0  0
  -30.3000  -13.4200   19.7980 N   0  0  0  0  0  0  0  0  0  0  0  0
  -32.0780  -14.7550   19.3230 O   0  0  0  0  0  0  0  0  0  0  0  0
  -31.4560  -18.9410   19.4330 C   0  0  0  0  0  3  0  0  0  0  0  0
  -29.6670  -17.8590   21.1270 C   0  0  0  0  0  0  0  0  0  0  0  0
  -30.5880  -19.7670   20.1880 C   0  0  0  0  0  0  0  0  0  0  0  0
  -30.5190  -17.0150   20.3580 C   0  0  0  0  0  0  0  0  0  0  0  0
  -28.6510  -17.2920   22.0990 C   0  0  0  0  0  1  0  0  0  0  0  0
  -31.4190  -17.5870   19.5130 N   0  0  0  0  0  0  0  0  0  0  0  0
  -29.6980  -19.2150   21.0430 N   0  0  0  0  0  0  0  0  0  0  0  0
  -30.3360  -15.6000   20.4940 N   0  0  0  0  0  0  0  0  0  0  0  0
  -29.5000  -15.3220   20.9830 H   0  0  0  0  0  0  0  0  0  0  0  0
  -25.5750  -13.9230   20.5000 C   0  0  0  0  0  0  0  0  0  0  0  0
  -24.5360  -13.1360   20.9160 C   0  0  0  0  0  0  0  0  0  0  0  0
  -24.9610  -11.7870   20.7240 C   0  0  0  0  0  0  0  0  0  0  0  0
  -26.5720  -13.0520   20.0880 N   0  0  0  0  0  0  0  0  0  0  0  0
  -26.2110  -11.7570   20.2790 N   0  0  0  0  0  0  0  0  0  0  0  0
  -24.2310  -10.5220   20.8830 C   0  0  0  0  0  0  0  0  0  0  0  0
  -24.6860   -9.5120   21.7590 C   0  0  0  0  0  3  0  0  0  0  0  0
  -23.9570   -8.3130   21.9090 C   0  0  0  0  0  3  0  0  0  0  0  0
  -22.7590   -8.1150   21.1830 C   0  0  0  0  0  0  0  0  0  0  0  0
  -22.3240   -9.1130   20.2920 C   0  0  0  0  0  3  0  0  0  0  0  0
  -23.0530  -10.3040   20.1410 C   0  0  0  0  0  3  0  0  0  0  0  0
  -21.9990   -6.9720   21.2460 O   0  0  0  0  0  0  0  0  0  0  0  0
  -21.8990   -6.2340   22.3980 C   0  0  0  0  0  0  0  0  0  0  0  0
  -21.4200   -6.7950   23.6030 C   0  0  0  0  0  3  0  0  0  0  0  0
  -21.2700   -5.9850   24.7460 C   0  0  0  0  0  3  0  0  0  0  0  0
  -21.5880   -4.6140   24.6840 C   0  0  0  0  0  0  0  0  0  0  0  0
  -22.0610   -4.0540   23.4840 C   0  0  0  0  0  3  0  0  0  0  0  0
  -22.2120   -4.8610   22.3440 C   0  0  0  0  0  0  0  0  0  0  0  0
  -22.6460   -4.3110   21.1830 F   0  0  0  0  0  0  0  0  0  0  0  0
  -21.4370   -3.8330   25.7780 F   0  0  0  0  0  0  0  0  0  0  0  0
  -23.1850  -13.6060   21.3730 C   0  0  0  0  0  0  0  0  0  0  0  0
  -22.5450  -12.8580   22.2650 N   0  0  0  0  0  0  0  0  0  0  0  0
  -22.7090  -14.6690   20.9740 O   0  0  0  0  0  0  0  0  0  0  0  0
  -22.9460  -11.9990   22.6100 H   0  0  0  0  0  0  0  0  0  0  0  0
  -21.6420  -13.1490   22.6100 H   0  0  0  0  0  0  0  0  0  0  0  0
  -25.7490  -15.3020   20.4160 N   0  0  0  0  0  0  0  0  0  0  0  0
  -25.0040  -15.9490   20.6500 H   0  0  0  0  0  0  0  0  0  0  0  0
  -26.5340  -15.7510   19.9640 H   0  0  0  0  0  0  0  0  0  0  0  0
  -29.3010  -23.1640   19.2570 C   0  0  0  0  0  2  0  0  0  0  0  0
  -29.6850  -24.6540   19.5360 C   0  0  0  0  0  3  0  0  0  0  0  0
  -31.0230  -24.7650   19.9990 O   0  0  0  0  0  0  0  0  0  0  0  0
  -31.5990  -24.6020   19.2590 H   0  0  0  0  0  0  0  0  0  0  0  0
  -28.7070  -25.4410   20.4540 C   0  0  0  0  0  2  0  0  0  0  0  0
  -28.6740  -26.8390   20.1110 O   0  0  0  0  0  0  0  0  0  0  0  0
  -24.6140  -31.7860   23.2650 C   0  0  0  0  0  0  0  0  0  0  0  0
  -27.4560  -27.4900   20.1430 C   0  0  0  0  0  0  0  0  0  0  0  0
  -23.4750  -30.3670   21.5880 C   0  0  0  0  0  3  0  0  0  0  0  0
  -24.9970  -28.9010   20.1580 C   0  0  0  0  0  0  0  0  0  0  0  0
  -25.9880  -30.8140   21.4250 C   0  0  0  0  0  2  0  0  0  0  0  0
  -26.1290  -29.4570   20.7670 C   0  0  0  0  0  0  0  0  0  0  0  0
  -27.3580  -28.7600   20.7550 C   0  0  0  0  0  3  0  0  0  0  0  0
  -26.3070  -26.9470   19.5250 C   0  0  0  0  0  3  0  0  0  0  0  0
  -25.0800  -27.6420   19.5370 C   0  0  0  0  0  3  0  0  0  0  0  0
  -23.7230  -29.7170   20.2010 C   0  0  0  0  0  2  0  0  0  0  0  0
  -24.7090  -31.0040   22.1510 N   0  0  0  0  0  0  0  0  0  0  0  0
  -23.5180  -32.0120   23.7960 O   0  0  0  0  0  0  0  0  0  0  0  0
  -22.8500  -29.3090   22.5260 C   0  0  0  0  0  0  0  0  0  0  0  0
  -21.5390  -29.0680   22.3660 N   0  0  0  0  0  0  0  0  0  0  0  0
  -23.5430  -28.7060   23.3510 O   0  0  0  0  0  0  0  0  0  0  0  0
  -21.0410  -29.6040   21.6680 H   0  0  0  0  0  0  0  0  0  0  0  0
  -18.2070  -27.7340   22.7860 C   0  0  0  0  0  0  0  0  0  0  0  0
  -20.7470  -28.0880   23.1070 C   0  0  0  0  0  3  0  0  0  0  0  0
  -20.9180  -26.6730   22.5080 C   0  0  0  0  0  2  0  0  0  0  0  0
  -19.8450  -26.3230   21.4720 C   0  0  0  0  0  2  0  0  0  0  0  0
  -18.4480  -26.4040   22.0920 C   0  0  0  0  0  2  0  0  0  0  0  0
  -19.2870  -28.5320   23.2460 C   0  0  0  0  0  0  0  0  0  0  0  0
  -19.0090  -29.7770   23.8510 C   0  0  0  0  0  3  0  0  0  0  0  0
  -17.6830  -30.2260   23.9980 C   0  0  0  0  0  3  0  0  0  0  0  0
  -16.6170  -29.4250   23.5550 C   0  0  0  0  0  3  0  0  0  0  0  0
  -16.8790  -28.1800   22.9560 C   0  0  0  0  0  3  0  0  0  0  0  0
  -25.8720  -32.4500   23.9080 C   0  0  0  0  0  3  0  0  0  0  0  0
  -25.5220  -33.8400   24.2280 N   0  0  0  0  0  0  0  0  0  0  0  0
  -25.8570  -34.9000   23.4790 C   0  0  0  0  0  0  0  0  0  0  0  0
  -26.5640  -34.8110   22.4730 O   0  0  0  0  0  0  0  0  0  0  0  0
  -24.8980  -33.9830   25.0090 H   0  0  0  0  0  0  0  0  0  0  0  0
  -24.1140  -36.6600   23.0470 C   0  0  0  0  0  1  0  0  0  0  0  0
  -25.3210  -36.2770   23.9170 C   0  0  0  0  0  3  0  0  0  0  0  0
  -27.3960  -37.1990   24.8530 C   0  0  0  0  0  1  0  0  0  0  0  0
  -26.3390  -37.3480   23.8550 N   0  0  0  0  0  0  0  0  0  0  0  0
  -25.9100  -38.2610   23.9800 H   0  0  0  0  0  0  0  0  0  0  0  0
  -26.3850  -31.6920   25.1950 C   0  0  1  0  0  0  0  0  0  0  0  0
  -25.2750  -31.4170   26.2360 C   0  0  0  0  0  1  0  0  0  0  0  0
  -27.0280  -30.3380   24.8150 C   0  0  0  0  0  1  0  0  0  0  0  0
  -27.4910  -32.5240   25.8850 C   0  0  0  0  0  1  0  0  0  0  0  0
  2  1  1  0
  3 15  1  0
  3  2  1  0
  4  3  1  0
  5 20  1  0
  6 11  1  0
  7  8  1  0
  7  6  1  0
  9  8  1  0
  9 25  1  0
  9 10  1  0
 11  5  1  0
 11 10  1  0
 12  5  2  0
 13 18  2  0
 13 15  1  0
 14 17  1  0
 15 19  2  0
 16 20  1  0
 16 14  2  0
 18 16  1  0
 19 14  1  0
 20 21  1  0
 22 23  2  0
 23 42  1  0
 24 27  1  0
 24 23  1  0
 25 26  1  0
 25 22  1  0
 26 24  2  0
 27 28  1  0
 28 29  2  0
 30 33  1  0
 30 29  1  0
 31 30  2  0
 32 31  1  0
 32 27  2  0
 33 34  1  0
 34 35  1  0
 35 36  2  0
 37 36  1  0
 37 41  1  0
 38 37  2  0
 39 34  2  0
 39 38  1  0
 40 39  1  0
 42 43  1  0
 43 46  1  0
 43 45  1  0
 44 42  2  0
 47 22  1  0
 47 48  1  0
 49 47  1  0
 50  2  1  0
 51 50  1  0
 51 52  1  0
 51 54  1  0
 53 52  1  0
 55 57  1  0
 55 54  1  0
 56 67  2  0
 57 62  1  0
 58 66  1  0
 58 68  1  0
 59 65  1  0
 59 61  1  0
 60 66  1  0
 61 60  1  0
 62 61  2  0
 63 64  1  0
 63 57  2  0
 64 59  2  0
 65 58  1  0
 66 56  1  0
 68 70  2  0
 69 68  1  0
 71 69  1  0
 72 81  2  0
 72 77  1  0
 73 69  1  0
 73 77  1  0
 74 73  1  0
 75 76  1  0
 75 74  1  0
 76 72  1  0
 77 78  2  0
 78 79  1  0
 80 79  2  0
 81 80  1  0
 82 56  1  0
 82 83  1  0
 82 92  1  0
 83 86  1  0
 84 88  1  0
 84 83  1  0
 85 84  2  0
 88 87  1  0
 90 88  1  0
 90 91  1  0
 90 89  1  0
 92 95  1  1
 92 93  1  0
 94 92  1  0
M  ISO  4   5 100  20 100  54 101  55 101
M  END
>  <TORSDO>  (64) 
F 21

>  <SCORE>  (64) 
-10.556

>  <name>  (64) 
63

>  <ligand_id>  (64) 
63

>  <original_smiles>  (64) 
[H]OC([H])(C([H])([H])Oc1c([H])c([H])c2c(c1[H])C([H])([H])N(C(=O)C([H])(N([H])C(=O)C([H])(N([H])C([H])([H])[H])C([H])([H])[H])C(C([H])([H])[H])(C([H])([H])[H])C([H])([H])[H])C([H])(C(=O)N([H])C1([H])c3c([H])c([H])c([H])c([H])c3C([H])([H])C([H])([H])C1([H])[H])C2([H])[H])C([H])([H])C([H])(N([H])c1nc(C([H])([H])[H])c(N([H])C(=O)N2C([H])([H])C([H])([H])C([H])([H])C([H])(n3nc(-c4c([H])c([H])c(Oc5c([H])c([H])c(F)c([H])c5F)c([H])c4[H])c(C(=O)N([H])[H])c3N([H])[H])C2([H])[H])nc1[H])C([H])([H])[H]

>  <smiles>  (64) 
[H]OC([H])(C([H])([H])Oc1c([H])c([H])c2c(c1[H])C([H])([H])N(C(=O)C([H])(N([H])C(=O)C([H])(N([H])C([H])([H])[H])C([H])([H])[H])C(C([H])([H])[H])(C([H])([H])[H])C([H])([H])[H])C([H])(C(=O)N([H])C1([H])c3c([H])c([H])c([H])c([H])c3C([H])([H])C([H])([H])C1([H])[H])C2([H])[H])C([H])([H])C([H])(N([H])c1nc(C([H])([H])[H])c(N([H])C(=O)N2C([H])([H])C([H])([H])C([H])([H])C([H])(n3nc(-c4c([H])c([H])c(Oc5c([H])c([H])c(F)c([H])c5F)c([H])c4[H])c(C(=O)N([H])[H])c3N([H])[H])C2([H])[H])nc1[H])C([H])([H])[H]

$$$$
64:0:0
     RDKit          3D

 90 98  0  0  1  0  0  0  0  0999 V2000
  -28.6900  -18.8440   20.2980 C   0  0  0  0  0  3  0  0  0  0  0  0
  -30.3240  -20.9070   20.9490 C   0  0  0  0  0  3  0  0  0  0  0  0
  -29.9990  -18.5690   20.7760 C   0  0  0  0  0  0  0  0  0  0  0  0
  -29.0110  -21.1820   20.4740 C   0  0  0  0  0  0  0  0  0  0  0  0
  -30.8010  -19.6300   21.0960 N   0  0  0  0  0  0  0  0  0  0  0  0
  -28.2090  -20.1260   20.1570 N   0  0  0  0  0  0  0  0  0  0  0  0
  -28.4310  -22.4780   20.2920 N   0  0  0  0  0  0  0  0  0  0  0  0
  -27.4670  -22.4720   19.9720 H   0  0  0  0  0  0  0  0  0  0  0  0
  -30.6700  -17.1530   20.9450 C   0  0  0  0  0  2  0  0  0  0  0  0
  -30.6520  -14.6650   20.4510 C   0  0  0  0  0  0  0  0  0  0  0  0
  -30.3620  -12.4440   19.3820 C   0  0  0  0  0  2  0  0  0  0  0  0
  -29.4260  -12.5630   18.1620 C   0  0  0  0  0  2  0  0  0  0  0  0
  -27.9580  -12.3990   18.5950 C   0  0  0  0  0  2  0  0  0  0  0  0
  -27.5970  -13.2720   19.8270 C   0  0  0  0  0  3  0  0  0  0  0  0
  -28.6580  -13.1640   20.9440 C   0  0  0  0  0  2  0  0  0  0  0  0
  -29.9620  -13.4860   20.3510 N   0  0  0  0  0  0  0  0  0  0  0  0
  -31.8270  -14.7300   20.0850 O   0  0  0  0  0  0  0  0  0  0  0  0
  -29.9850  -15.8170   20.7880 N   0  0  0  0  0  0  0  0  0  0  0  0
  -29.0110  -15.7470   21.0390 H   0  0  0  0  0  0  0  0  0  0  0  0
  -25.2050  -13.8560   20.5530 C   0  0  0  0  0  0  0  0  0  0  0  0
  -24.1420  -13.0770   20.9190 C   0  0  0  0  0  0  0  0  0  0  0  0
  -24.6080  -11.7270   20.8830 C   0  0  0  0  0  0  0  0  0  0  0  0
  -26.2530  -12.9800   20.3150 N   0  0  0  0  0  0  0  0  0  0  0  0
  -25.8990  -11.6950   20.5760 N   0  0  0  0  0  0  0  0  0  0  0  0
  -23.8870  -10.4620   21.0660 C   0  0  0  0  0  0  0  0  0  0  0  0
  -24.3230   -9.4890   21.9930 C   0  0  0  0  0  3  0  0  0  0  0  0
  -23.5990   -8.2880   22.1650 C   0  0  0  0  0  3  0  0  0  0  0  0
  -22.4260   -8.0520   21.4100 C   0  0  0  0  0  0  0  0  0  0  0  0
  -22.0100   -9.0130   20.4730 C   0  0  0  0  0  3  0  0  0  0  0  0
  -22.7330  -10.2050   20.2990 C   0  0  0  0  0  3  0  0  0  0  0  0
  -21.6750   -6.9050   21.4920 O   0  0  0  0  0  0  0  0  0  0  0  0
  -21.6240   -6.1580   22.6410 C   0  0  0  0  0  0  0  0  0  0  0  0
  -21.1750   -6.7030   23.8640 C   0  0  0  0  0  3  0  0  0  0  0  0
  -21.0730   -5.8820   25.0050 C   0  0  0  0  0  3  0  0  0  0  0  0
  -21.4110   -4.5180   24.9250 C   0  0  0  0  0  0  0  0  0  0  0  0
  -21.8530   -3.9720   23.7070 C   0  0  0  0  0  3  0  0  0  0  0  0
  -21.9560   -4.7910   22.5670 C   0  0  0  0  0  0  0  0  0  0  0  0
  -22.3630   -4.2550   21.3910 F   0  0  0  0  0  0  0  0  0  0  0  0
  -21.3050   -3.7270   26.0180 F   0  0  0  0  0  0  0  0  0  0  0  0
  -22.7430  -13.5490   21.1910 C   0  0  0  0  0  0  0  0  0  0  0  0
  -22.0200  -12.8500   22.0590 N   0  0  0  0  0  0  0  0  0  0  0  0
  -22.3000  -14.5710   20.6710 O   0  0  0  0  0  0  0  0  0  0  0  0
  -22.3910  -12.0220   22.5020 H   0  0  0  0  0  0  0  0  0  0  0  0
  -21.0810  -13.1470   22.2850 H   0  0  0  0  0  0  0  0  0  0  0  0
  -25.3650  -15.2270   20.3780 N   0  0  0  0  0  0  0  0  0  0  0  0
  -24.5920  -15.8770   20.4750 H   0  0  0  0  0  0  0  0  0  0  0  0
  -26.2070  -15.6650   20.0290 H   0  0  0  0  0  0  0  0  0  0  0  0
  -29.0240  -23.8390   20.5110 C   0  0  0  0  0  2  0  0  0  0  0  0
  -28.0280  -25.0250   20.1240 C   0  0  0  0  0  2  0  0  0  0  0  0
  -28.3100  -26.4640   20.3560 O   0  0  0  0  0  0  0  0  0  0  0  0
  -24.6190  -31.9330   23.3080 C   0  0  0  0  0  0  0  0  0  0  0  0
  -27.2130  -27.3460   20.2780 C   0  0  0  0  0  0  0  0  0  0  0  0
  -23.4160  -30.5430   21.6620 C   0  0  0  0  0  3  0  0  0  0  0  0
  -24.8640  -28.9860   20.2480 C   0  0  0  0  0  0  0  0  0  0  0  0
  -25.9600  -30.8390   21.4990 C   0  0  0  0  0  2  0  0  0  0  0  0
  -26.0340  -29.4600   20.8550 C   0  0  0  0  0  0  0  0  0  0  0  0
  -27.2110  -28.6520   20.8620 C   0  0  0  0  0  3  0  0  0  0  0  0
  -26.0180  -26.9380   19.6350 C   0  0  0  0  0  3  0  0  0  0  0  0
  -24.8590  -27.7300   19.6300 C   0  0  0  0  0  3  0  0  0  0  0  0
  -23.6350  -29.8690   20.2820 C   0  0  0  0  0  2  0  0  0  0  0  0
  -24.6840  -31.1210   22.2130 N   0  0  0  0  0  0  0  0  0  0  0  0
  -23.5330  -32.2210   23.8340 O   0  0  0  0  0  0  0  0  0  0  0  0
  -22.7380  -29.5290   22.6160 C   0  0  0  0  0  0  0  0  0  0  0  0
  -21.4120  -29.3620   22.4760 N   0  0  0  0  0  0  0  0  0  0  0  0
  -23.4040  -28.9000   23.4410 O   0  0  0  0  0  0  0  0  0  0  0  0
  -20.9350  -29.9250   21.7870 H   0  0  0  0  0  0  0  0  0  0  0  0
  -18.0180  -28.2040   22.9590 C   0  0  0  0  0  0  0  0  0  0  0  0
  -20.5780  -28.4340   23.2420 C   0  0  0  0  0  3  0  0  0  0  0  0
  -20.6660  -27.0000   22.6680 C   0  0  0  0  0  2  0  0  0  0  0  0
  -19.5650  -26.6910   21.6480 C   0  0  0  0  0  2  0  0  0  0  0  0
  -18.1810  -26.8530   22.2850 C   0  0  0  0  0  2  0  0  0  0  0  0
  -19.1430  -28.9540   23.3940 C   0  0  0  0  0  0  0  0  0  0  0  0
  -18.9370  -30.2190   23.9840 C   0  0  0  0  0  3  0  0  0  0  0  0
  -17.6370  -30.7350   24.1450 C   0  0  0  0  0  3  0  0  0  0  0  0
  -16.5260  -29.9830   23.7260 C   0  0  0  0  0  3  0  0  0  0  0  0
  -16.7180  -28.7210   23.1380 C   0  0  0  0  0  3  0  0  0  0  0  0
  -25.9020  -32.5550   23.9380 C   0  0  0  0  0  3  0  0  0  0  0  0
  -26.3920  -31.7920   25.2290 C   0  0  1  0  0  0  0  0  0  0  0  0
  -25.2820  -31.5770   26.2840 C   0  0  0  0  0  1  0  0  0  0  0  0
  -26.9660  -30.4040   24.8610 C   0  0  0  0  0  1  0  0  0  0  0  0
  -27.5430  -32.5810   25.8980 C   0  0  0  0  0  1  0  0  0  0  0  0
  -25.6040  -33.9600   24.2500 N   0  0  0  0  0  0  0  0  0  0  0  0
  -25.9350  -35.0000   23.4720 C   0  0  0  0  0  0  0  0  0  0  0  0
  -26.5930  -34.8780   22.4360 O   0  0  0  0  0  0  0  0  0  0  0  0
  -25.0160  -34.1280   25.0520 H   0  0  0  0  0  0  0  0  0  0  0  0
  -24.2060  -36.7950   23.1200 C   0  0  0  0  0  1  0  0  0  0  0  0
  -25.4610  -36.3990   23.9150 C   0  0  0  0  0  3  0  0  0  0  0  0
  -27.6130  -37.2900   24.6930 C   0  0  0  0  0  1  0  0  0  0  0  0
  -26.4950  -37.4450   23.7650 N   0  0  0  0  0  0  0  0  0  0  0  0
  -26.0950  -38.3700   23.9030 H   0  0  0  0  0  0  0  0  0  0  0  0
  1  3  1  0
  2  5  1  0
  3  9  1  0
  3  5  2  0
  4  2  2  0
  6  1  2  0
  6  4  1  0
  7  4  1  0
  7 48  1  0
  8  7  1  0
 10 18  1  0
 11 16  1  0
 12 13  1  0
 12 11  1  0
 14 13  1  0
 14 23  1  0
 14 15  1  0
 16 10  1  0
 16 15  1  0
 17 10  2  0
 18  9  1  0
 18 19  1  0
 20 21  2  0
 21 40  1  0
 22 21  1  0
 22 25  1  0
 23 20  1  0
 23 24  1  0
 24 22  2  0
 25 26  1  0
 26 27  2  0
 28 31  1  0
 28 27  1  0
 29 28  2  0
 30 29  1  0
 30 25  2  0
 31 32  1  0
 32 33  1  0
 33 34  2  0
 35 34  1  0
 35 39  1  0
 36 35  2  0
 37 32  2  0
 37 36  1  0
 38 37  1  0
 40 41  1  0
 41 44  1  0
 41 43  1  0
 42 40  2  0
 45 46  1  0
 45 20  1  0
 47 45  1  0
 49 50  1  0
 49 48  1  0
 51 62  2  0
 52 50  1  0
 52 57  1  0
 53 61  1  0
 53 63  1  0
 54 60  1  0
 54 56  1  0
 55 61  1  0
 56 57  2  0
 56 55  1  0
 58 52  2  0
 59 58  1  0
 59 54  2  0
 60 53  1  0
 61 51  1  0
 63 65  2  0
 64 63  1  0
 66 64  1  0
 67 76  2  0
 67 72  1  0
 68 64  1  0
 68 72  1  0
 69 68  1  0
 70 71  1  0
 70 69  1  0
 71 67  1  0
 72 73  2  0
 73 74  1  0
 75 74  2  0
 76 75  1  0
 77 51  1  0
 77 82  1  0
 77 78  1  0
 78 81  1  1
 78 79  1  0
 80 78  1  0
 82 85  1  0
 83 87  1  0
 83 82  1  0
 84 83  2  0
 87 86  1  0
 89 90  1  0
 89 87  1  0
 89 88  1  0
M  ISO  4  10 100  18 100  49 101  50 101
M  END
>  <TORSDO>  (65) 
F 19

>  <SCORE>  (65) 
-14.304

>  <name>  (65) 
64

>  <ligand_id>  (65) 
64

>  <original_smiles>  (65) 
[H]c1nc(C([H])([H])N([H])C(=O)N2C([H])([H])C([H])([H])C([H])([H])C([H])(n3nc(-c4c([H])c([H])c(Oc5c([H])c([H])c(F)c([H])c5F)c([H])c4[H])c(C(=O)N([H])[H])c3N([H])[H])C2([H])[H])c([H])nc1N([H])C([H])([H])C([H])([H])Oc1c([H])c([H])c2c(c1[H])C([H])([H])N(C(=O)C([H])(N([H])C(=O)C([H])(N([H])C([H])([H])[H])C([H])([H])[H])C(C([H])([H])[H])(C([H])([H])[H])C([H])([H])[H])C([H])(C(=O)N([H])C1([H])c3c([H])c([H])c([H])c([H])c3C([H])([H])C([H])([H])C1([H])[H])C2([H])[H]

>  <smiles>  (65) 
[H]c1nc(C([H])([H])N([H])C(=O)N2C([H])([H])C([H])([H])C([H])([H])C([H])(n3nc(-c4c([H])c([H])c(Oc5c([H])c([H])c(F)c([H])c5F)c([H])c4[H])c(C(=O)N([H])[H])c3N([H])[H])C2([H])[H])c([H])nc1N([H])C([H])([H])C([H])([H])Oc1c([H])c([H])c2c(c1[H])C([H])([H])N(C(=O)C([H])(N([H])C(=O)C([H])(N([H])C([H])([H])[H])C([H])([H])[H])C(C([H])([H])[H])(C([H])([H])[H])C([H])([H])[H])C([H])(C(=O)N([H])C1([H])c3c([H])c([H])c([H])c([H])c3C([H])([H])C([H])([H])C1([H])[H])C2([H])[H]

$$$$
65:0:0
     RDKit          3D

 92100  0  0  1  0  0  0  0  0999 V2000
  -30.5960  -14.8560   20.4670 C   0  0  0  0  0  0  0  0  0  0  0  0
  -30.4170  -12.5700   19.4770 C   0  0  0  0  0  2  0  0  0  0  0  0
  -29.5050  -12.6530   18.2320 C   0  0  0  0  0  2  0  0  0  0  0  0
  -28.0270  -12.4810   18.6330 C   0  0  0  0  0  2  0  0  0  0  0  0
  -27.6270  -13.3590   19.8480 C   0  0  0  0  0  3  0  0  0  0  0  0
  -28.6650  -13.2710   20.9880 C   0  0  0  0  0  2  0  0  0  0  0  0
  -29.9770  -13.6230   20.4290 N   0  0  0  0  0  0  0  0  0  0  0  0
  -31.7750  -14.9470   20.1050 O   0  0  0  0  0  0  0  0  0  0  0  0
  -29.5330  -17.1760   18.6880 C   0  0  0  0  0  3  0  0  0  0  0  0
  -29.2680  -18.3290   17.9390 C   0  0  0  0  0  0  0  0  0  0  0  0
  -29.7080  -17.2810   20.0730 C   0  0  0  0  0  0  0  0  0  0  0  0
  -29.3150  -19.6700   19.8240 C   0  0  0  0  0  0  0  0  0  0  0  0
  -28.6820  -22.2040   19.8700 C   0  0  0  0  0  0  0  0  0  0  0  0
  -29.0860  -18.2410   16.4380 C   0  0  0  0  0  1  0  0  0  0  0  0
  -29.1760  -19.5460   18.5040 N   0  0  0  0  0  0  0  0  0  0  0  0
  -29.5770  -18.5690   20.6140 N   0  0  0  0  0  0  0  0  0  0  0  0
  -29.8530  -15.9890   20.7950 N   0  0  0  0  0  0  0  0  0  0  0  0
  -29.2760  -21.0200   20.3370 N   0  0  0  0  0  0  0  0  0  0  0  0
  -27.8210  -22.1660   18.9870 O   0  0  0  0  0  0  0  0  0  0  0  0
  -29.0860  -15.8000   21.4160 H   0  0  0  0  0  0  0  0  0  0  0  0
  -29.8440  -21.1430   21.1600 H   0  0  0  0  0  0  0  0  0  0  0  0
  -25.2190  -13.9320   20.5210 C   0  0  0  0  0  0  0  0  0  0  0  0
  -24.1500  -13.1530   20.8700 C   0  0  0  0  0  0  0  0  0  0  0  0
  -24.6230  -11.8060   20.8570 C   0  0  0  0  0  0  0  0  0  0  0  0
  -26.2740  -13.0600   20.3090 N   0  0  0  0  0  0  0  0  0  0  0  0
  -25.9190  -11.7760   20.5750 N   0  0  0  0  0  0  0  0  0  0  0  0
  -23.9020  -10.5380   21.0420 C   0  0  0  0  0  0  0  0  0  0  0  0
  -24.3160   -9.5840   21.9980 C   0  0  0  0  0  3  0  0  0  0  0  0
  -23.5910   -8.3840   22.1720 C   0  0  0  0  0  3  0  0  0  0  0  0
  -22.4400   -8.1280   21.3890 C   0  0  0  0  0  0  0  0  0  0  0  0
  -22.0450   -9.0730   20.4270 C   0  0  0  0  0  3  0  0  0  0  0  0
  -22.7700  -10.2640   20.2520 C   0  0  0  0  0  3  0  0  0  0  0  0
  -21.6940   -6.9760   21.4630 O   0  0  0  0  0  0  0  0  0  0  0  0
  -21.6050   -6.2530   22.6240 C   0  0  0  0  0  0  0  0  0  0  0  0
  -21.1210   -6.8230   23.8200 C   0  0  0  0  0  3  0  0  0  0  0  0
  -20.9810   -6.0250   24.9740 C   0  0  0  0  0  3  0  0  0  0  0  0
  -21.3070   -4.6550   24.9300 C   0  0  0  0  0  0  0  0  0  0  0  0
  -21.7830   -4.0850   23.7360 C   0  0  0  0  0  3  0  0  0  0  0  0
  -21.9270   -4.8800   22.5860 C   0  0  0  0  0  0  0  0  0  0  0  0
  -22.3630   -4.3200   21.4330 F   0  0  0  0  0  0  0  0  0  0  0  0
  -21.1680   -3.8890   26.0350 F   0  0  0  0  0  0  0  0  0  0  0  0
  -22.7440  -13.6250   21.1070 C   0  0  0  0  0  0  0  0  0  0  0  0
  -22.0060  -12.9330   21.9670 N   0  0  0  0  0  0  0  0  0  0  0  0
  -22.3080  -14.6440   20.5720 O   0  0  0  0  0  0  0  0  0  0  0  0
  -22.3710  -12.1120   22.4270 H   0  0  0  0  0  0  0  0  0  0  0  0
  -21.0640  -13.2350   22.1730 H   0  0  0  0  0  0  0  0  0  0  0  0
  -25.3790  -15.3040   20.3480 N   0  0  0  0  0  0  0  0  0  0  0  0
  -24.6150  -15.9590   20.4790 H   0  0  0  0  0  0  0  0  0  0  0  0
  -26.2240  -15.7500   20.0200 H   0  0  0  0  0  0  0  0  0  0  0  0
  -29.0230  -23.6800   20.4370 C   0  0  0  0  0  3  0  0  0  0  0  0
  -27.9950  -24.9220   20.1570 C   0  0  0  0  0  3  0  0  0  0  0  0
  -28.2820  -26.3950   20.4160 O   0  0  0  0  0  0  0  0  0  0  0  0
  -24.6480  -31.9970   23.3710 C   0  0  0  0  0  0  0  0  0  0  0  0
  -27.2180  -27.3350   20.3440 C   0  0  0  0  0  0  0  0  0  0  0  0
  -23.4530  -30.6200   21.7130 C   0  0  0  0  0  3  0  0  0  0  0  0
  -24.8990  -29.0480   20.3040 C   0  0  0  0  0  0  0  0  0  0  0  0
  -26.0070  -30.8790   21.5770 C   0  0  0  0  0  2  0  0  0  0  0  0
  -26.0730  -29.4950   20.9240 C   0  0  0  0  0  0  0  0  0  0  0  0
  -27.2360  -28.6510   20.9330 C   0  0  0  0  0  3  0  0  0  0  0  0
  -26.0170  -26.9700   19.6930 C   0  0  0  0  0  3  0  0  0  0  0  0
  -24.8770  -27.7950   19.6790 C   0  0  0  0  0  3  0  0  0  0  0  0
  -23.6820  -29.9530   20.3330 C   0  0  0  0  0  2  0  0  0  0  0  0
  -24.7210  -31.1850   22.2770 N   0  0  0  0  0  0  0  0  0  0  0  0
  -23.5590  -32.2940   23.8840 O   0  0  0  0  0  0  0  0  0  0  0  0
  -22.7590  -29.6110   22.6610 C   0  0  0  0  0  0  0  0  0  0  0  0
  -21.4330  -29.4490   22.5100 N   0  0  0  0  0  0  0  0  0  0  0  0
  -23.4130  -28.9780   23.4950 O   0  0  0  0  0  0  0  0  0  0  0  0
  -20.9690  -30.0100   21.8100 H   0  0  0  0  0  0  0  0  0  0  0  0
  -18.0280  -28.3000   22.9520 C   0  0  0  0  0  0  0  0  0  0  0  0
  -20.5860  -28.5230   23.2640 C   0  0  0  0  0  3  0  0  0  0  0  0
  -20.6780  -27.0910   22.6860 C   0  0  0  0  0  2  0  0  0  0  0  0
  -19.5870  -26.7860   21.6550 C   0  0  0  0  0  2  0  0  0  0  0  0
  -18.1980  -26.9500   22.2750 C   0  0  0  0  0  2  0  0  0  0  0  0
  -19.1510  -29.0450   23.4000 C   0  0  0  0  0  0  0  0  0  0  0  0
  -18.9410  -30.3090   23.9930 C   0  0  0  0  0  3  0  0  0  0  0  0
  -17.6410  -30.8260   24.1450 C   0  0  0  0  0  3  0  0  0  0  0  0
  -16.5330  -30.0770   23.7120 C   0  0  0  0  0  3  0  0  0  0  0  0
  -16.7280  -28.8170   23.1200 C   0  0  0  0  0  3  0  0  0  0  0  0
  -25.9280  -32.6140   24.0170 C   0  0  0  0  0  3  0  0  0  0  0  0
  -25.6260  -34.0130   24.3510 N   0  0  0  0  0  0  0  0  0  0  0  0
  -25.9450  -35.0660   23.5850 C   0  0  0  0  0  0  0  0  0  0  0  0
  -26.5960  -34.9620   22.5420 O   0  0  0  0  0  0  0  0  0  0  0  0
  -25.0470  -34.1710   25.1630 H   0  0  0  0  0  0  0  0  0  0  0  0
  -24.1920  -36.8480   23.2950 C   0  0  0  0  0  1  0  0  0  0  0  0
  -25.4690  -36.4560   24.0530 C   0  0  0  0  0  3  0  0  0  0  0  0
  -27.6330  -37.3580   24.7860 C   0  0  0  0  0  1  0  0  0  0  0  0
  -26.4900  -37.5150   23.8900 N   0  0  0  0  0  0  0  0  0  0  0  0
  -26.0830  -38.4320   24.0500 H   0  0  0  0  0  0  0  0  0  0  0  0
  -26.4120  -31.8320   25.3000 C   0  0  1  0  0  0  0  0  0  0  0  0
  -25.2950  -31.5980   26.3440 C   0  0  0  0  0  1  0  0  0  0  0  0
  -26.9970  -30.4530   24.9160 C   0  0  0  0  0  1  0  0  0  0  0  0
  -27.5520  -32.6170   25.9920 C   0  0  0  0  0  1  0  0  0  0  0  0
  1 17  1  0
  2  7  1  0
  3  4  1  0
  3  2  1  0
  5  4  1  0
  5 25  1  0
  5  6  1  0
  7  1  1  0
  7  6  1  0
  8  1  2  0
  9 11  1  0
 10 15  1  0
 10  9  2  0
 11 16  2  0
 11 17  1  0
 12 18  1  0
 12 16  1  0
 13 18  1  0
 13 50  1  0
 14 10  1  0
 15 12  2  0
 17 20  1  0
 18 21  1  0
 19 13  2  0
 22 23  2  0
 23 42  1  0
 24 23  1  0
 24 27  1  0
 25 22  1  0
 25 26  1  0
 26 24  2  0
 27 28  1  0
 28 29  2  0
 30 33  1  0
 30 29  1  0
 31 30  2  0
 32 31  1  0
 32 27  2  0
 33 34  1  0
 34 35  1  0
 35 36  2  0
 37 36  1  0
 37 41  1  0
 38 37  2  0
 39 34  2  0
 39 38  1  0
 40 39  1  0
 42 43  1  0
 43 46  1  0
 43 45  1  0
 44 42  2  0
 47 48  1  0
 47 22  1  0
 49 47  1  0
 51 52  1  0
 51 50  2  0
 53 64  2  0
 54 52  1  0
 54 59  1  0
 55 63  1  0
 55 65  1  0
 56 62  1  0
 56 58  1  0
 57 63  1  0
 58 59  2  0
 58 57  1  0
 60 54  2  0
 61 60  1  0
 61 56  2  0
 62 55  1  0
 63 53  1  0
 65 67  2  0
 66 65  1  0
 68 66  1  0
 69 78  2  0
 69 74  1  0
 70 66  1  0
 70 74  1  0
 71 70  1  0
 72 73  1  0
 72 71  1  0
 73 69  1  0
 74 75  2  0
 75 76  1  0
 77 76  2  0
 78 77  1  0
 79 53  1  0
 79 80  1  0
 79 89  1  0
 80 83  1  0
 81 85  1  0
 81 80  1  0
 82 81  2  0
 85 84  1  0
 87 88  1  0
 87 85  1  0
 87 86  1  0
 89 92  1  1
 89 90  1  0
 91 89  1  0
M  ISO  4   1 100  17 100  51 101  52 101
M  END
>  <TORSDO>  (66) 
F 17

>  <SCORE>  (66) 
-14.679

>  <name>  (66) 
65

>  <ligand_id>  (66) 
65

>  <original_smiles>  (66) 
[H]c1c(N([H])C(=O)N2C([H])([H])C([H])([H])C([H])([H])C([H])(n3nc(-c4c([H])c([H])c(Oc5c([H])c([H])c(F)c([H])c5F)c([H])c4[H])c(C(=O)N([H])[H])c3N([H])[H])C2([H])[H])nc(N([H])C(=O)C([H])([H])C([H])([H])Oc2c([H])c([H])c3c(c2[H])C([H])([H])N(C(=O)C([H])(N([H])C(=O)C([H])(N([H])C([H])([H])[H])C([H])([H])[H])C(C([H])([H])[H])(C([H])([H])[H])C([H])([H])[H])C([H])(C(=O)N([H])C2([H])c4c([H])c([H])c([H])c([H])c4C([H])([H])C([H])([H])C2([H])[H])C3([H])[H])nc1C([H])([H])[H]

>  <smiles>  (66) 
[H]c1c(N([H])C(=O)N2C([H])([H])C([H])([H])C([H])([H])C([H])(n3nc(-c4c([H])c([H])c(Oc5c([H])c([H])c(F)c([H])c5F)c([H])c4[H])c(C(=O)N([H])[H])c3N([H])[H])C2([H])[H])nc(N([H])C(=O)C([H])([H])C([H])([H])Oc2c([H])c([H])c3c(c2[H])C([H])([H])N(C(=O)C([H])(N([H])C(=O)C([H])(N([H])C([H])([H])[H])C([H])([H])[H])C(C([H])([H])[H])(C([H])([H])[H])C([H])([H])[H])C([H])(C(=O)N([H])C2([H])c4c([H])c([H])c([H])c([H])c4C([H])([H])C([H])([H])C2([H])[H])C3([H])[H])nc1C([H])([H])[H]

$$$$
66:0:0
     RDKit          3D

 95103  0  0  1  0  0  0  0  0999 V2000
  -29.4710  -18.1710   20.5150 C   0  0  0  0  0  0  0  0  0  0  0  0
  -27.5820  -18.6000   19.4740 C   0  0  0  0  0  0  0  0  0  0  0  0
  -28.8510  -20.2980   20.0830 C   0  0  0  0  0  0  0  0  0  0  0  0
  -28.3670  -17.6680   19.9650 N   0  0  0  0  0  4  0  0  0  0  0  0
  -29.7730  -19.4860   20.6260 N   0  0  0  0  0  0  0  0  0  0  0  0
  -27.7380  -19.9090   19.4840 N   0  0  0  0  0  2  0  0  0  0  0  0
  -26.4550  -18.1490   18.8700 N   0  0  0  0  0  0  0  0  0  0  0  0
  -29.0060  -21.6960   19.9990 N   0  0  0  0  0  0  0  0  0  0  0  0
  -26.4540  -17.1870   18.5660 H   0  0  0  0  0  0  0  0  0  0  0  0
  -25.9880  -18.7950   18.2480 H   0  0  0  0  0  0  0  0  0  0  0  0
  -28.2340  -22.1080   19.4890 H   0  0  0  0  0  0  0  0  0  0  0  0
  -31.2350  -22.3390   20.9230 C   0  0  0  0  0  1  0  0  0  0  0  0
  -29.7430  -22.7090   20.7940 C   0  0  0  0  0  3  0  0  0  0  0  0
  -29.6150  -24.1920   20.2080 C   0  0  0  0  0  3  0  0  0  0  0  0
  -28.5780  -25.2030   20.8340 C   0  0  0  0  0  3  0  0  0  0  0  0
  -28.7000  -26.6070   20.4050 O   0  0  0  0  0  0  0  0  0  0  0  0
  -24.6750  -31.8830   23.1980 C   0  0  0  0  0  0  0  0  0  0  0  0
  -27.5390  -27.3780   20.3380 C   0  0  0  0  0  0  0  0  0  0  0  0
  -23.5740  -30.4150   21.5460 C   0  0  0  0  0  3  0  0  0  0  0  0
  -25.1200  -28.8820   20.2110 C   0  0  0  0  0  0  0  0  0  0  0  0
  -26.1020  -30.8200   21.4410 C   0  0  0  0  0  2  0  0  0  0  0  0
  -26.2490  -29.4310   20.8320 C   0  0  0  0  0  0  0  0  0  0  0  0
  -27.4630  -28.6920   20.8840 C   0  0  0  0  0  3  0  0  0  0  0  0
  -26.3920  -26.8700   19.6900 C   0  0  0  0  0  3  0  0  0  0  0  0
  -25.1910  -27.6040   19.6330 C   0  0  0  0  0  3  0  0  0  0  0  0
  -23.8570  -29.7150   20.1910 C   0  0  0  0  0  2  0  0  0  0  0  0
  -24.8000  -31.0580   22.1190 N   0  0  0  0  0  0  0  0  0  0  0  0
  -23.5660  -32.1370   23.6880 O   0  0  0  0  0  0  0  0  0  0  0  0
  -22.9110  -29.3970   22.5030 C   0  0  0  0  0  0  0  0  0  0  0  0
  -21.5950  -29.1840   22.3390 N   0  0  0  0  0  0  0  0  0  0  0  0
  -23.5810  -28.8010   23.3510 O   0  0  0  0  0  0  0  0  0  0  0  0
  -21.1140  -29.7180   21.6290 H   0  0  0  0  0  0  0  0  0  0  0  0
  -18.2130  -27.9990   22.8310 C   0  0  0  0  0  0  0  0  0  0  0  0
  -20.7740  -28.2410   23.0990 C   0  0  0  0  0  3  0  0  0  0  0  0
  -20.8660  -26.8170   22.5040 C   0  0  0  0  0  2  0  0  0  0  0  0
  -19.7600  -26.5130   21.4900 C   0  0  0  0  0  2  0  0  0  0  0  0
  -18.3800  -26.6570   22.1380 C   0  0  0  0  0  2  0  0  0  0  0  0
  -19.3360  -28.7500   23.2690 C   0  0  0  0  0  0  0  0  0  0  0  0
  -19.1260  -30.0060   23.8760 C   0  0  0  0  0  3  0  0  0  0  0  0
  -17.8250  -30.5130   24.0530 C   0  0  0  0  0  3  0  0  0  0  0  0
  -16.7150  -29.7590   23.6320 C   0  0  0  0  0  3  0  0  0  0  0  0
  -16.9100  -28.5050   23.0260 C   0  0  0  0  0  3  0  0  0  0  0  0
  -25.9150  -32.5670   23.8520 C   0  0  0  0  0  3  0  0  0  0  0  0
  -26.4310  -31.8120   25.1400 C   0  0  1  0  0  0  0  0  0  0  0  0
  -25.3160  -31.4930   26.1630 C   0  0  0  0  0  1  0  0  0  0  0  0
  -27.1170  -30.4810   24.7560 C   0  0  0  0  0  1  0  0  0  0  0  0
  -27.5020  -32.6710   25.8550 C   0  0  0  0  0  1  0  0  0  0  0  0
  -25.5380  -33.9490   24.1790 N   0  0  0  0  0  0  0  0  0  0  0  0
  -25.8590  -35.0200   23.4420 C   0  0  0  0  0  0  0  0  0  0  0  0
  -26.5720  -34.9500   22.4370 O   0  0  0  0  0  0  0  0  0  0  0  0
  -24.9070  -34.0730   24.9580 H   0  0  0  0  0  0  0  0  0  0  0  0
  -24.0990  -36.7650   23.0070 C   0  0  0  0  0  1  0  0  0  0  0  0
  -25.3010  -36.3850   23.8890 C   0  0  0  0  0  3  0  0  0  0  0  0
  -27.3430  -37.3280   24.8730 C   0  0  0  0  0  1  0  0  0  0  0  0
  -26.3050  -37.4710   23.8560 N   0  0  0  0  0  0  0  0  0  0  0  0
  -25.8610  -38.3770   23.9800 H   0  0  0  0  0  0  0  0  0  0  0  0
  -30.4730  -17.1040   21.0250 C   0  0  0  0  0  2  0  0  0  0  0  0
  -30.7540  -14.6330   20.4320 C   0  0  0  0  0  0  0  0  0  0  0  0
  -30.4500  -12.5050   19.2030 C   0  0  0  0  0  2  0  0  0  0  0  0
  -29.4960  -12.7560   18.0190 C   0  0  0  0  0  2  0  0  0  0  0  0
  -28.0230  -12.6100   18.4520 C   0  0  0  0  0  2  0  0  0  0  0  0
  -27.7030  -13.3760   19.7650 C   0  0  0  0  0  3  0  0  0  0  0  0
  -28.7750  -13.1140   20.8470 C   0  0  0  0  0  2  0  0  0  0  0  0
  -30.0820  -13.4570   20.2660 N   0  0  0  0  0  0  0  0  0  0  0  0
  -31.9110  -14.7860   20.0370 O   0  0  0  0  0  0  0  0  0  0  0  0
  -30.0330  -15.6830   20.8910 N   0  0  0  0  0  0  0  0  0  0  0  0
  -29.0480  -15.5370   21.0370 H   0  0  0  0  0  0  0  0  0  0  0  0
  -25.3070  -13.9500   20.4970 C   0  0  0  0  0  0  0  0  0  0  0  0
  -24.2450  -13.1640   20.8570 C   0  0  0  0  0  0  0  0  0  0  0  0
  -24.7180  -11.8150   20.8120 C   0  0  0  0  0  0  0  0  0  0  0  0
  -26.3580  -13.0800   20.2490 N   0  0  0  0  0  0  0  0  0  0  0  0
  -26.0090  -11.7900   20.4990 N   0  0  0  0  0  0  0  0  0  0  0  0
  -24.0010  -10.5450   20.9910 C   0  0  0  0  0  0  0  0  0  0  0  0
  -24.4070   -9.5960   21.9560 C   0  0  0  0  0  3  0  0  0  0  0  0
  -23.6890   -8.3920   22.1230 C   0  0  0  0  0  3  0  0  0  0  0  0
  -22.5490   -8.1310   21.3260 C   0  0  0  0  0  0  0  0  0  0  0  0
  -22.1610   -9.0680   20.3540 C   0  0  0  0  0  3  0  0  0  0  0  0
  -22.8800  -10.2630   20.1840 C   0  0  0  0  0  3  0  0  0  0  0  0
  -21.8070   -6.9750   21.3980 O   0  0  0  0  0  0  0  0  0  0  0  0
  -21.6780   -6.2740   22.5690 C   0  0  0  0  0  0  0  0  0  0  0  0
  -21.0860   -6.8420   23.7170 C   0  0  0  0  0  3  0  0  0  0  0  0
  -20.9110   -6.0640   24.8790 C   0  0  0  0  0  3  0  0  0  0  0  0
  -21.3210   -4.7170   24.8910 C   0  0  0  0  0  0  0  0  0  0  0  0
  -21.9060   -4.1460   23.7480 C   0  0  0  0  0  3  0  0  0  0  0  0
  -22.0800   -4.9230   22.5880 C   0  0  0  0  0  0  0  0  0  0  0  0
  -22.6260   -4.3630   21.4800 F   0  0  0  0  0  0  0  0  0  0  0  0
  -21.1500   -3.9660   26.0040 F   0  0  0  0  0  0  0  0  0  0  0  0
  -22.8450  -13.6280   21.1380 C   0  0  0  0  0  0  0  0  0  0  0  0
  -22.1200  -12.9060   21.9880 N   0  0  0  0  0  0  0  0  0  0  0  0
  -22.4010  -14.6610   20.6400 O   0  0  0  0  0  0  0  0  0  0  0  0
  -22.4860  -12.0650   22.4070 H   0  0  0  0  0  0  0  0  0  0  0  0
  -21.1820  -13.2010   22.2190 H   0  0  0  0  0  0  0  0  0  0  0  0
  -25.4650  -15.3240   20.3400 N   0  0  0  0  0  0  0  0  0  0  0  0
  -24.7000  -15.9760   20.4690 H   0  0  0  0  0  0  0  0  0  0  0  0
  -26.3240  -15.7840   20.0620 H   0  0  0  0  0  0  0  0  0  0  0  0
  1  5  1  0
  1 57  1  0
  2  6  1  0
  2  4  2  0
  3  5  2  0
  4  1  2  0
  6  3  1  0
  7  2  1  0
  8  3  1  0
  8 13  1  0
  9  7  1  0
 10  7  1  0
 11  8  1  0
 13 12  1  0
 14 13  1  0
 14 15  2  0
 16 15  1  0
 17 28  2  0
 18 16  1  0
 18 23  1  0
 19 27  1  0
 19 29  1  0
 20 22  1  0
 21 27  1  0
 22 23  2  0
 22 21  1  0
 24 18  2  0
 25 24  1  0
 25 20  2  0
 26 20  1  0
 26 19  1  0
 27 17  1  0
 29 31  2  0
 30 29  1  0
 32 30  1  0
 33 42  2  0
 33 38  1  0
 34 30  1  0
 34 38  1  0
 35 34  1  0
 36 37  1  0
 36 35  1  0
 37 33  1  0
 38 39  2  0
 39 40  1  0
 41 40  2  0
 42 41  1  0
 43 17  1  0
 43 48  1  0
 43 44  1  0
 44 47  1  1
 44 45  1  0
 46 44  1  0
 48 51  1  0
 49 53  1  0
 49 48  1  0
 50 49  2  0
 53 52  1  0
 55 53  1  0
 55 56  1  0
 55 54  1  0
 58 66  1  0
 59 64  1  0
 60 61  1  0
 60 59  1  0
 62 61  1  0
 62 71  1  0
 62 63  1  0
 64 58  1  0
 64 63  1  0
 65 58  2  0
 66 57  1  0
 66 67  1  0
 68 69  2  0
 69 88  1  0
 70 69  1  0
 70 73  1  0
 71 68  1  0
 71 72  1  0
 72 70  2  0
 73 74  1  0
 74 75  2  0
 76 79  1  0
 76 75  1  0
 77 76  2  0
 78 77  1  0
 78 73  2  0
 79 80  1  0
 80 85  2  0
 80 81  1  0
 81 82  2  0
 82 83  1  0
 83 87  1  0
 84 83  2  0
 85 84  1  0
 86 85  1  0
 88 89  1  0
 89 92  1  0
 89 91  1  0
 90 88  2  0
 93 94  1  0
 93 68  1  0
 95 93  1  0
M  ISO  4  15 101  16 101  58 100  66 100
M  END
>  <TORSDO>  (67) 
F 20

>  <SCORE>  (67) 
-13.875

>  <name>  (67) 
66

>  <ligand_id>  (67) 
66

>  <original_smiles>  (67) 
[H]c1c([H])c([H])c2c(c1[H])C([H])([H])C([H])([H])C([H])([H])C2([H])N([H])C(=O)C1([H])N(C(=O)C([H])(N([H])C(=O)C([H])(N([H])C([H])([H])[H])C([H])([H])[H])C(C([H])([H])[H])(C([H])([H])[H])C([H])([H])[H])C([H])([H])c2c([H])c(OC([H])([H])C([H])([H])C([H])(N([H])c3nc(N([H])[H])nc(C([H])([H])N([H])C(=O)N4C([H])([H])C([H])([H])C([H])([H])C([H])(n5nc(-c6c([H])c([H])c(Oc7c([H])c([H])c(F)c([H])c7F)c([H])c6[H])c(C(=O)N([H])[H])c5N([H])[H])C4([H])[H])n3)C([H])([H])[H])c([H])c([H])c2C1([H])[H]

>  <smiles>  (67) 
[H]c1c([H])c([H])c2c(c1[H])C([H])([H])C([H])([H])C([H])([H])C2([H])N([H])C(=O)C1([H])N(C(=O)C([H])(N([H])C(=O)C([H])(N([H])C([H])([H])[H])C([H])([H])[H])C(C([H])([H])[H])(C([H])([H])[H])C([H])([H])[H])C([H])([H])c2c([H])c(OC([H])([H])C([H])([H])C([H])(N([H])c3nc(N([H])[H])nc(C([H])([H])N([H])C(=O)N4C([H])([H])C([H])([H])C([H])([H])C([H])(n5nc(-c6c([H])c([H])c(Oc7c([H])c([H])c(F)c([H])c7F)c([H])c6[H])c(C(=O)N([H])[H])c5N([H])[H])C4([H])[H])n3)C([H])([H])[H])c([H])c([H])c2C1([H])[H]

$$$$
67:0:0
     RDKit          3D

 90 98  0  0  1  0  0  0  0  0999 V2000
  -29.0740  -23.0600   20.6540 C   0  0  0  0  0  0  0  0  0  0  0  0
  -28.3030  -21.9550   20.6210 N   0  0  0  0  0  0  0  0  0  0  0  0
  -30.3050  -23.0380   20.5760 O   0  0  0  0  0  0  0  0  0  0  0  0
  -27.3100  -22.1450   20.6250 H   0  0  0  0  0  0  0  0  0  0  0  0
  -28.3390  -18.3300   20.1400 C   0  0  0  0  0  3  0  0  0  0  0  0
  -27.7670  -19.6370   20.1900 C   0  0  0  0  0  3  0  0  0  0  0  0
  -29.6710  -18.2990   20.4670 C   0  0  0  0  0  0  0  0  0  0  0  0
  -28.6460  -20.6350   20.5350 C   0  0  0  0  0  0  0  0  0  0  0  0
  -30.2220  -19.9180   20.8690 S   0  0  0  0  0  0  0  0  0  0  0  0
  -30.6120  -17.1150   20.4290 C   0  0  0  0  0  2  0  0  0  0  0  0
  -30.0730  -15.7520   20.9620 C   0  0  0  0  0  2  0  0  0  0  0  0
  -30.7800  -14.5220   20.3280 C   0  0  0  0  0  0  0  0  0  0  0  0
  -30.4560  -12.3820   19.1320 C   0  0  0  0  0  2  0  0  0  0  0  0
  -29.5000  -12.6200   17.9440 C   0  0  0  0  0  2  0  0  0  0  0  0
  -28.0320  -12.4770   18.3940 C   0  0  0  0  0  2  0  0  0  0  0  0
  -27.7180  -13.2950   19.6760 C   0  0  0  0  0  3  0  0  0  0  0  0
  -28.7900  -13.0520   20.7640 C   0  0  0  0  0  2  0  0  0  0  0  0
  -30.1080  -13.3460   20.1850 N   0  0  0  0  0  0  0  0  0  0  0  0
  -31.9040  -14.6880   19.8410 O   0  0  0  0  0  0  0  0  0  0  0  0
  -25.3310  -13.9040   20.4220 C   0  0  0  0  0  0  0  0  0  0  0  0
  -24.2690  -13.1320   20.8070 C   0  0  0  0  0  0  0  0  0  0  0  0
  -24.7290  -11.7800   20.7710 C   0  0  0  0  0  0  0  0  0  0  0  0
  -26.3730  -13.0220   20.1760 N   0  0  0  0  0  0  0  0  0  0  0  0
  -26.0150  -11.7400   20.4430 N   0  0  0  0  0  0  0  0  0  0  0  0
  -24.0060  -10.5200   20.9740 C   0  0  0  0  0  0  0  0  0  0  0  0
  -24.4490   -9.5580   21.9090 C   0  0  0  0  0  3  0  0  0  0  0  0
  -23.7290   -8.3600   22.0990 C   0  0  0  0  0  3  0  0  0  0  0  0
  -22.5520   -8.1130   21.3550 C   0  0  0  0  0  0  0  0  0  0  0  0
  -22.1300   -9.0620   20.4080 C   0  0  0  0  0  3  0  0  0  0  0  0
  -22.8490  -10.2530   20.2150 C   0  0  0  0  0  3  0  0  0  0  0  0
  -21.8020   -6.9660   21.4530 O   0  0  0  0  0  0  0  0  0  0  0  0
  -21.7550   -6.2330   22.6110 C   0  0  0  0  0  0  0  0  0  0  0  0
  -21.3220   -6.7960   23.8320 C   0  0  0  0  0  3  0  0  0  0  0  0
  -21.2230   -5.9920   24.9840 C   0  0  0  0  0  3  0  0  0  0  0  0
  -21.5450   -4.6230   24.9170 C   0  0  0  0  0  0  0  0  0  0  0  0
  -21.9710   -4.0580   23.7020 C   0  0  0  0  0  3  0  0  0  0  0  0
  -22.0730   -4.8620   22.5520 C   0  0  0  0  0  0  0  0  0  0  0  0
  -22.4650   -4.3070   21.3790 F   0  0  0  0  0  0  0  0  0  0  0  0
  -21.4440   -3.8480   26.0220 F   0  0  0  0  0  0  0  0  0  0  0  0
  -22.8750  -13.6080   21.0980 C   0  0  0  0  0  0  0  0  0  0  0  0
  -22.1590  -12.9140   21.9750 N   0  0  0  0  0  0  0  0  0  0  0  0
  -22.4280  -14.6330   20.5820 O   0  0  0  0  0  0  0  0  0  0  0  0
  -22.5290  -12.0830   22.4140 H   0  0  0  0  0  0  0  0  0  0  0  0
  -21.2260  -13.2190   22.2130 H   0  0  0  0  0  0  0  0  0  0  0  0
  -25.4950  -15.2730   20.2380 N   0  0  0  0  0  0  0  0  0  0  0  0
  -24.7330  -15.9340   20.3500 H   0  0  0  0  0  0  0  0  0  0  0  0
  -26.3440  -15.7000   19.8930 H   0  0  0  0  0  0  0  0  0  0  0  0
  -28.3440  -24.4120   20.8240 C   0  0  0  0  0  2  0  0  0  0  0  0
  -28.5970  -25.4400   19.6920 C   0  0  0  0  0  2  0  0  0  0  0  0
  -28.4580  -26.7960   20.1540 O   0  0  0  0  0  0  0  0  0  0  0  0
  -24.5630  -31.8860   23.2300 C   0  0  0  0  0  0  0  0  0  0  0  0
  -27.2410  -27.4510   20.1560 C   0  0  0  0  0  0  0  0  0  0  0  0
  -23.3660  -30.4770   21.5880 C   0  0  0  0  0  3  0  0  0  0  0  0
  -24.8260  -28.9390   20.1720 C   0  0  0  0  0  0  0  0  0  0  0  0
  -25.8890  -30.8460   21.3930 C   0  0  0  0  0  2  0  0  0  0  0  0
  -25.9800  -29.4760   20.7540 C   0  0  0  0  0  0  0  0  0  0  0  0
  -27.1850  -28.7380   20.7410 C   0  0  0  0  0  3  0  0  0  0  0  0
  -26.0580  -26.9190   19.5900 C   0  0  0  0  0  3  0  0  0  0  0  0
  -24.8610  -27.6590   19.5920 C   0  0  0  0  0  3  0  0  0  0  0  0
  -23.5790  -29.7930   20.2110 C   0  0  0  0  0  2  0  0  0  0  0  0
  -24.6240  -31.0870   22.1270 N   0  0  0  0  0  0  0  0  0  0  0  0
  -23.4800  -32.1530   23.7700 O   0  0  0  0  0  0  0  0  0  0  0  0
  -22.7200  -29.4560   22.5510 C   0  0  0  0  0  0  0  0  0  0  0  0
  -21.3960  -29.2750   22.4280 N   0  0  0  0  0  0  0  0  0  0  0  0
  -23.4080  -28.8280   23.3620 O   0  0  0  0  0  0  0  0  0  0  0  0
  -20.9050  -29.8360   21.7460 H   0  0  0  0  0  0  0  0  0  0  0  0
  -18.0240  -28.0930   22.9410 C   0  0  0  0  0  0  0  0  0  0  0  0
  -20.5840  -28.3340   23.1970 C   0  0  0  0  0  3  0  0  0  0  0  0
  -20.6770  -26.9090   22.6060 C   0  0  0  0  0  2  0  0  0  0  0  0
  -19.5660  -26.6010   21.5960 C   0  0  0  0  0  2  0  0  0  0  0  0
  -18.1900  -26.7480   22.2520 C   0  0  0  0  0  2  0  0  0  0  0  0
  -19.1500  -28.8450   23.3680 C   0  0  0  0  0  0  0  0  0  0  0  0
  -18.9460  -30.1060   23.9680 C   0  0  0  0  0  3  0  0  0  0  0  0
  -17.6460  -30.6170   24.1450 C   0  0  0  0  0  3  0  0  0  0  0  0
  -16.5330  -29.8600   23.7400 C   0  0  0  0  0  3  0  0  0  0  0  0
  -16.7230  -28.6010   23.1420 C   0  0  0  0  0  3  0  0  0  0  0  0
  -25.8480  -32.5210   23.8500 C   0  0  0  0  0  3  0  0  0  0  0  0
  -25.5360  -33.9210   24.1670 N   0  0  0  0  0  0  0  0  0  0  0  0
  -25.8770  -34.9680   23.4030 C   0  0  0  0  0  0  0  0  0  0  0  0
  -26.5580  -34.8570   22.3790 O   0  0  0  0  0  0  0  0  0  0  0  0
  -24.9380  -34.0810   24.9630 H   0  0  0  0  0  0  0  0  0  0  0  0
  -24.1580  -36.7620   23.0080 C   0  0  0  0  0  1  0  0  0  0  0  0
  -25.3840  -36.3600   23.8440 C   0  0  0  0  0  3  0  0  0  0  0  0
  -27.5040  -37.2450   24.7100 C   0  0  0  0  0  1  0  0  0  0  0  0
  -26.4220  -37.4090   23.7440 N   0  0  0  0  0  0  0  0  0  0  0  0
  -26.0140  -38.3300   23.8790 H   0  0  0  0  0  0  0  0  0  0  0  0
  -26.3620  -31.7600   25.1350 C   0  0  1  0  0  0  0  0  0  0  0  0
  -25.2680  -31.5280   26.2010 C   0  0  0  0  0  1  0  0  0  0  0  0
  -26.9490  -30.3800   24.7560 C   0  0  0  0  0  1  0  0  0  0  0  0
  -27.5090  -32.5590   25.7960 C   0  0  0  0  0  1  0  0  0  0  0  0
  1 48  1  0
  2  4  1  0
  2  1  1  0
  3  1  2  0
  5  6  1  0
  5  7  2  0
  6  8  2  0
  7  9  1  0
  8  2  1  0
  8  9  1  0
 10  7  1  0
 10 11  1  0
 12 11  1  0
 13 18  1  0
 14 15  1  0
 14 13  1  0
 16 15  1  0
 16 23  1  0
 16 17  1  0
 18 12  1  0
 18 17  1  0
 19 12  2  0
 20 21  2  0
 21 40  1  0
 22 21  1  0
 22 25  1  0
 23 20  1  0
 23 24  1  0
 24 22  2  0
 25 26  1  0
 26 27  2  0
 28 31  1  0
 28 27  1  0
 29 28  2  0
 30 29  1  0
 30 25  2  0
 31 32  1  0
 32 33  1  0
 33 34  2  0
 35 34  1  0
 35 39  1  0
 36 35  2  0
 37 32  2  0
 37 36  1  0
 38 37  1  0
 40 41  1  0
 41 44  1  0
 41 43  1  0
 42 40  2  0
 45 46  1  0
 45 20  1  0
 47 45  1  0
 49 50  1  0
 49 48  1  0
 50 52  1  0
 51 62  2  0
 52 57  1  0
 53 61  1  0
 53 63  1  0
 54 60  1  0
 54 56  1  0
 55 61  1  0
 56 55  1  0
 57 56  2  0
 58 59  1  0
 58 52  2  0
 59 54  2  0
 60 53  1  0
 61 51  1  0
 63 65  2  0
 64 63  1  0
 66 64  1  0
 67 76  2  0
 67 72  1  0
 68 64  1  0
 68 72  1  0
 69 68  1  0
 70 71  1  0
 70 69  1  0
 71 67  1  0
 72 73  2  0
 73 74  1  0
 75 74  2  0
 76 75  1  0
 77 51  1  0
 77 78  1  0
 77 87  1  0
 78 81  1  0
 79 83  1  0
 79 78  1  0
 80 79  2  0
 83 82  1  0
 85 83  1  0
 85 86  1  0
 85 84  1  0
 87 90  1  1
 87 88  1  0
 89 87  1  0
M  ISO  4  11 100  12 100  49 101  50 101
M  END
>  <TORSDO>  (68) 
F 21

>  <SCORE>  (68) 
-13.573

>  <name>  (68) 
67

>  <ligand_id>  (68) 
67

>  <original_smiles>  (68) 
[H]c1c(N([H])C(=O)C([H])([H])C([H])([H])Oc2c([H])c([H])c3c(c2[H])C([H])([H])N(C(=O)C([H])(N([H])C(=O)C([H])(N([H])C([H])([H])[H])C([H])([H])[H])C(C([H])([H])[H])(C([H])([H])[H])C([H])([H])[H])C([H])(C(=O)N([H])C2([H])c4c([H])c([H])c([H])c([H])c4C([H])([H])C([H])([H])C2([H])[H])C3([H])[H])sc(C([H])([H])C([H])([H])C(=O)N2C([H])([H])C([H])([H])C([H])([H])C([H])(n3nc(-c4c([H])c([H])c(Oc5c([H])c([H])c(F)c([H])c5F)c([H])c4[H])c(C(=O)N([H])[H])c3N([H])[H])C2([H])[H])c1[H]

>  <smiles>  (68) 
[H]c1c(N([H])C(=O)C([H])([H])C([H])([H])Oc2c([H])c([H])c3c(c2[H])C([H])([H])N(C(=O)C([H])(N([H])C(=O)C([H])(N([H])C([H])([H])[H])C([H])([H])[H])C(C([H])([H])[H])(C([H])([H])[H])C([H])([H])[H])C([H])(C(=O)N([H])C2([H])c4c([H])c([H])c([H])c([H])c4C([H])([H])C([H])([H])C2([H])[H])C3([H])[H])sc(C([H])([H])C([H])([H])C(=O)N2C([H])([H])C([H])([H])C([H])([H])C([H])(n3nc(-c4c([H])c([H])c(Oc5c([H])c([H])c(F)c([H])c5F)c([H])c4[H])c(C(=O)N([H])[H])c3N([H])[H])C2([H])[H])c1[H]

$$$$
68:0:0
     RDKit          3D

 95103  0  0  1  0  0  0  0  0999 V2000
  -29.7070  -21.0310   20.1620 N   0  0  0  0  0  0  0  0  0  0  0  0
  -30.5800  -21.5470   20.2340 H   0  0  0  0  0  0  0  0  0  0  0  0
  -30.6390  -14.5310   20.3790 C   0  0  0  0  0  0  0  0  0  0  0  0
  -30.3660  -12.3570   19.2370 C   0  0  0  0  0  2  0  0  0  0  0  0
  -29.4110  -12.5730   18.0420 C   0  0  0  0  0  2  0  0  0  0  0  0
  -27.9380  -12.4330   18.4830 C   0  0  0  0  0  2  0  0  0  0  0  0
  -27.6130  -13.2530   19.7610 C   0  0  0  0  0  3  0  0  0  0  0  0
  -28.6810  -13.0060   20.8520 C   0  0  0  0  0  2  0  0  0  0  0  0
  -29.9980  -13.3300   20.2770 N   0  0  0  0  0  0  0  0  0  0  0  0
  -31.7800  -14.6970   19.9340 O   0  0  0  0  0  0  0  0  0  0  0  0
  -28.6210  -18.8150   20.5340 C   0  0  0  0  0  3  0  0  0  0  0  0
  -29.7680  -19.6230   20.3690 C   0  0  0  0  0  0  0  0  0  0  0  0
  -30.9920  -18.9050   20.4300 C   0  0  0  0  0  0  0  0  0  0  0  0
  -29.8810  -16.9000   20.6950 C   0  0  0  0  0  0  0  0  0  0  0  0
  -28.6830  -17.4740   20.6970 N   0  0  0  0  0  0  0  0  0  0  0  0
  -31.0280  -17.5620   20.5970 N   0  0  0  0  0  0  0  0  0  0  0  0
  -29.8590  -15.5290   20.8600 N   0  0  0  0  0  0  0  0  0  0  0  0
  -28.9660  -15.1940   21.1760 H   0  0  0  0  0  0  0  0  0  0  0  0
  -25.2190  -13.8630   20.4860 C   0  0  0  0  0  0  0  0  0  0  0  0
  -24.1530  -13.0920   20.8640 C   0  0  0  0  0  0  0  0  0  0  0  0
  -24.6160  -11.7400   20.8360 C   0  0  0  0  0  0  0  0  0  0  0  0
  -26.2620  -12.9810   20.2500 N   0  0  0  0  0  0  0  0  0  0  0  0
  -25.9030  -11.7000   20.5160 N   0  0  0  0  0  0  0  0  0  0  0  0
  -23.8920  -10.4780   21.0360 C   0  0  0  0  0  0  0  0  0  0  0  0
  -24.3350   -9.5130   21.9670 C   0  0  0  0  0  3  0  0  0  0  0  0
  -23.6120   -8.3140   22.1540 C   0  0  0  0  0  3  0  0  0  0  0  0
  -22.4340   -8.0730   21.4090 C   0  0  0  0  0  0  0  0  0  0  0  0
  -22.0110   -9.0260   20.4660 C   0  0  0  0  0  3  0  0  0  0  0  0
  -22.7340  -10.2160   20.2780 C   0  0  0  0  0  3  0  0  0  0  0  0
  -21.6820   -6.9270   21.5040 O   0  0  0  0  0  0  0  0  0  0  0  0
  -21.6450   -6.1860   22.6580 C   0  0  0  0  0  0  0  0  0  0  0  0
  -21.2230   -6.7390   23.8870 C   0  0  0  0  0  3  0  0  0  0  0  0
  -21.1340   -5.9230   25.0330 C   0  0  0  0  0  3  0  0  0  0  0  0
  -21.4570   -4.5540   24.9510 C   0  0  0  0  0  0  0  0  0  0  0  0
  -21.8720   -4.0010   23.7260 C   0  0  0  0  0  3  0  0  0  0  0  0
  -21.9640   -4.8150   22.5840 C   0  0  0  0  0  0  0  0  0  0  0  0
  -22.3450   -4.2720   21.4020 F   0  0  0  0  0  0  0  0  0  0  0  0
  -21.3630   -3.7680   26.0490 F   0  0  0  0  0  0  0  0  0  0  0  0
  -22.7580  -13.5690   21.1460 C   0  0  0  0  0  0  0  0  0  0  0  0
  -22.0340  -12.8760   22.0160 N   0  0  0  0  0  0  0  0  0  0  0  0
  -22.3170  -14.5940   20.6280 O   0  0  0  0  0  0  0  0  0  0  0  0
  -22.4050  -12.0490   22.4620 H   0  0  0  0  0  0  0  0  0  0  0  0
  -21.0970  -13.1760   22.2430 H   0  0  0  0  0  0  0  0  0  0  0  0
  -25.3830  -15.2350   20.3070 N   0  0  0  0  0  0  0  0  0  0  0  0
  -24.6130  -15.8840   20.4230 H   0  0  0  0  0  0  0  0  0  0  0  0
  -26.2390  -15.6870   20.0090 H   0  0  0  0  0  0  0  0  0  0  0  0
  -33.1750  -19.0160   19.1330 C   0  0  0  0  0  1  0  0  0  0  0  0
  -33.1430  -19.5030   21.6360 C   0  0  0  0  0  1  0  0  0  0  0  0
  -32.3630  -19.5750   20.3120 C   0  0  0  0  0  3  0  0  0  0  0  0
  -28.5710  -20.8580   17.9580 C   0  0  0  0  0  1  0  0  0  0  0  0
  -28.6910  -21.6390   19.2860 C   0  0  0  0  0  3  0  0  0  0  0  0
  -29.0210  -23.1270   18.9460 C   0  0  0  0  0  2  0  0  0  0  0  0
  -28.5320  -24.2450   19.9110 C   0  0  0  0  0  2  0  0  0  0  0  0
  -28.6810  -25.6630   19.2830 C   0  0  0  0  0  2  0  0  0  0  0  0
  -28.4280  -26.7570   20.1800 O   0  0  0  0  0  0  0  0  0  0  0  0
  -24.5800  -31.9120   23.2410 C   0  0  0  0  0  0  0  0  0  0  0  0
  -27.2300  -27.4520   20.1510 C   0  0  0  0  0  0  0  0  0  0  0  0
  -23.3760  -30.5090   21.5980 C   0  0  0  0  0  3  0  0  0  0  0  0
  -24.8290  -28.9680   20.1700 C   0  0  0  0  0  0  0  0  0  0  0  0
  -25.9040  -30.8540   21.4150 C   0  0  0  0  0  2  0  0  0  0  0  0
  -25.9850  -29.4850   20.7660 C   0  0  0  0  0  0  0  0  0  0  0  0
  -27.1820  -28.7310   20.7590 C   0  0  0  0  0  3  0  0  0  0  0  0
  -26.0490  -26.9440   19.5630 C   0  0  0  0  0  3  0  0  0  0  0  0
  -24.8560  -27.6970   19.5690 C   0  0  0  0  0  3  0  0  0  0  0  0
  -23.5850  -29.8290   20.2190 C   0  0  0  0  0  2  0  0  0  0  0  0
  -24.6380  -31.1080   22.1410 N   0  0  0  0  0  0  0  0  0  0  0  0
  -23.4990  -32.1900   23.7770 O   0  0  0  0  0  0  0  0  0  0  0  0
  -22.7210  -29.4910   22.5590 C   0  0  0  0  0  0  0  0  0  0  0  0
  -21.3950  -29.3160   22.4330 N   0  0  0  0  0  0  0  0  0  0  0  0
  -23.4020  -28.8610   23.3730 O   0  0  0  0  0  0  0  0  0  0  0  0
  -20.9070  -29.8740   21.7470 H   0  0  0  0  0  0  0  0  0  0  0  0
  -18.0130  -28.1510   22.9470 C   0  0  0  0  0  0  0  0  0  0  0  0
  -20.5750  -28.3810   23.2030 C   0  0  0  0  0  3  0  0  0  0  0  0
  -20.6600  -26.9530   22.6180 C   0  0  0  0  0  2  0  0  0  0  0  0
  -19.5490  -26.6480   21.6090 C   0  0  0  0  0  2  0  0  0  0  0  0
  -18.1730  -26.8030   22.2620 C   0  0  0  0  0  2  0  0  0  0  0  0
  -19.1420  -28.8990   23.3740 C   0  0  0  0  0  0  0  0  0  0  0  0
  -18.9400  -30.1620   23.9730 C   0  0  0  0  0  3  0  0  0  0  0  0
  -17.6410  -30.6760   24.1460 C   0  0  0  0  0  3  0  0  0  0  0  0
  -16.5260  -29.9230   23.7360 C   0  0  0  0  0  3  0  0  0  0  0  0
  -16.7140  -28.6620   23.1430 C   0  0  0  0  0  3  0  0  0  0  0  0
  -25.8670  -32.5400   23.8630 C   0  0  0  0  0  3  0  0  0  0  0  0
  -25.5630  -33.9400   24.1890 N   0  0  0  0  0  0  0  0  0  0  0  0
  -25.9030  -34.9890   23.4280 C   0  0  0  0  0  0  0  0  0  0  0  0
  -26.5770  -34.8800   22.4000 O   0  0  0  0  0  0  0  0  0  0  0  0
  -24.9660  -34.1010   24.9880 H   0  0  0  0  0  0  0  0  0  0  0  0
  -24.1860  -36.7840   23.0570 C   0  0  0  0  0  1  0  0  0  0  0  0
  -25.4190  -36.3800   23.8790 C   0  0  0  0  0  3  0  0  0  0  0  0
  -27.5520  -37.2540   24.7250 C   0  0  0  0  0  1  0  0  0  0  0  0
  -26.4580  -37.4270   23.7720 N   0  0  0  0  0  0  0  0  0  0  0  0
  -26.0580  -38.3500   23.9140 H   0  0  0  0  0  0  0  0  0  0  0  0
  -26.3830  -31.7700   25.1400 C   0  0  1  0  0  0  0  0  0  0  0  0
  -25.2890  -31.5370   26.2070 C   0  0  0  0  0  1  0  0  0  0  0  0
  -26.9670  -30.3930   24.7500 C   0  0  0  0  0  1  0  0  0  0  0  0
  -27.5380  -32.5630   25.7970 C   0  0  0  0  0  1  0  0  0  0  0  0
  1  2  1  0
  1 12  1  0
  3 17  1  0
  4  9  1  0
  5  6  1  0
  5  4  1  0
  7  6  1  0
  7 22  1  0
  7  8  1  0
  9  3  1  0
  9  8  1  0
 10  3  2  0
 11 15  1  0
 12 13  1  0
 12 11  2  0
 13 16  2  0
 14 15  2  0
 14 17  1  0
 16 14  1  0
 17 18  1  0
 19 20  2  0
 20 39  1  0
 21 20  1  0
 21 24  1  0
 22 19  1  0
 22 23  1  0
 23 21  2  0
 24 25  1  0
 25 26  2  0
 27 30  1  0
 27 26  1  0
 28 27  2  0
 29 28  1  0
 29 24  2  0
 30 31  1  0
 31 32  1  0
 32 33  2  0
 34 33  1  0
 34 38  1  0
 35 34  2  0
 36 31  2  0
 36 35  1  0
 37 36  1  0
 39 40  1  0
 40 43  1  0
 40 42  1  0
 41 39  2  0
 44 45  1  0
 44 19  1  0
 46 44  1  0
 47 49  1  0
 49 13  1  0
 49 48  1  0
 51 50  1  0
 51  1  1  0
 52 51  1  0
 52 53  1  0
 54 53  1  0
 54 55  1  0
 56 67  2  0
 57 55  1  0
 57 62  1  0
 58 66  1  0
 58 68  1  0
 59 65  1  0
 59 61  1  0
 60 66  1  0
 61 60  1  0
 62 61  2  0
 63 64  1  0
 63 57  2  0
 64 59  2  0
 65 58  1  0
 66 56  1  0
 68 70  2  0
 69 68  1  0
 71 69  1  0
 72 81  2  0
 72 77  1  0
 73 69  1  0
 73 77  1  0
 74 73  1  0
 75 76  1  0
 75 74  1  0
 76 72  1  0
 77 78  2  0
 78 79  1  0
 80 79  2  0
 81 80  1  0
 82 56  1  0
 82 83  1  0
 82 92  1  0
 83 86  1  0
 84 88  1  0
 84 83  1  0
 85 84  2  0
 88 87  1  0
 90 88  1  0
 90 91  1  0
 90 89  1  0
 92 95  1  1
 92 93  1  0
 94 92  1  0
M  ISO  4   3 100  17 100  54 101  55 101
M  END
>  <TORSDO>  (69) 
F 21

>  <SCORE>  (69) 
-13.837

>  <name>  (69) 
68

>  <ligand_id>  (69) 
68

>  <original_smiles>  (69) 
[H]c1nc(N([H])C(=O)N2C([H])([H])C([H])([H])C([H])([H])C([H])(n3nc(-c4c([H])c([H])c(Oc5c([H])c([H])c(F)c([H])c5F)c([H])c4[H])c(C(=O)N([H])[H])c3N([H])[H])C2([H])[H])nc(C([H])(C([H])([H])[H])C([H])([H])[H])c1N([H])C([H])(C([H])([H])[H])C([H])([H])C([H])([H])C([H])([H])Oc1c([H])c([H])c2c(c1[H])C([H])([H])N(C(=O)C([H])(N([H])C(=O)C([H])(N([H])C([H])([H])[H])C([H])([H])[H])C(C([H])([H])[H])(C([H])([H])[H])C([H])([H])[H])C([H])(C(=O)N([H])C1([H])c3c([H])c([H])c([H])c([H])c3C([H])([H])C([H])([H])C1([H])[H])C2([H])[H]

>  <smiles>  (69) 
[H]c1nc(N([H])C(=O)N2C([H])([H])C([H])([H])C([H])([H])C([H])(n3nc(-c4c([H])c([H])c(Oc5c([H])c([H])c(F)c([H])c5F)c([H])c4[H])c(C(=O)N([H])[H])c3N([H])[H])C2([H])[H])nc(C([H])(C([H])([H])[H])C([H])([H])[H])c1N([H])C([H])(C([H])([H])[H])C([H])([H])C([H])([H])C([H])([H])Oc1c([H])c([H])c2c(c1[H])C([H])([H])N(C(=O)C([H])(N([H])C(=O)C([H])(N([H])C([H])([H])[H])C([H])([H])[H])C(C([H])([H])[H])(C([H])([H])[H])C([H])([H])[H])C([H])(C(=O)N([H])C1([H])c3c([H])c([H])c([H])c([H])c3C([H])([H])C([H])([H])C1([H])[H])C2([H])[H]

$$$$
69:0:0
     RDKit          3D

 92100  0  0  1  0  0  0  0  0999 V2000
  -31.0120  -22.5090   22.3630 C   0  0  0  0  0  1  0  0  0  0  0  0
  -30.0140  -21.9930   21.3130 C   0  0  0  0  0  3  0  0  0  0  0  0
  -30.6730  -14.6370   20.1890 C   0  0  0  0  0  0  0  0  0  0  0  0
  -30.3970  -12.4000   19.2010 C   0  0  0  0  0  2  0  0  0  0  0  0
  -29.4530  -12.5050   17.9850 C   0  0  0  0  0  2  0  0  0  0  0  0
  -27.9750  -12.4150   18.4230 C   0  0  0  0  0  2  0  0  0  0  0  0
  -27.6270  -13.2860   19.6650 C   0  0  0  0  0  3  0  0  0  0  0  0
  -28.7030  -13.1690   20.7690 C   0  0  0  0  0  2  0  0  0  0  0  0
  -30.0060  -13.4480   20.1540 N   0  0  0  0  0  0  0  0  0  0  0  0
  -31.8850  -14.7130   19.9710 O   0  0  0  0  0  0  0  0  0  0  0  0
  -30.2260  -19.3550   20.9200 C   0  0  0  0  0  0  0  0  0  0  0  0
  -30.0600  -16.9580   20.6190 C   0  0  0  0  0  0  0  0  0  0  0  0
  -29.6660  -15.9830   18.4790 C   0  0  0  0  0  1  0  0  0  0  0  0
  -29.1940  -18.8280   21.6000 N   0  0  0  0  0  0  0  0  0  0  0  0
  -29.0790  -17.4420   21.4020 N   0  0  0  0  0  0  0  0  0  0  0  0
  -30.5060  -20.7190   20.7810 N   0  0  0  0  0  0  0  0  0  0  0  0
  -29.8990  -15.7260   19.9140 N   0  0  0  0  0  0  0  0  0  0  0  0
  -31.2550  -18.1660   20.1270 S   0  0  0  0  0  0  0  0  0  0  0  0
  -31.3150  -20.8580   20.1860 H   0  0  0  0  0  0  0  0  0  0  0  0
  -25.2360  -13.8920   20.3760 C   0  0  0  0  0  0  0  0  0  0  0  0
  -24.1700  -13.1180   20.7510 C   0  0  0  0  0  0  0  0  0  0  0  0
  -24.6410  -11.7700   20.7420 C   0  0  0  0  0  0  0  0  0  0  0  0
  -26.2840  -13.0110   20.1610 N   0  0  0  0  0  0  0  0  0  0  0  0
  -25.9320  -11.7320   20.4440 N   0  0  0  0  0  0  0  0  0  0  0  0
  -23.9250  -10.5060   20.9450 C   0  0  0  0  0  0  0  0  0  0  0  0
  -24.3660   -9.5530   21.8900 C   0  0  0  0  0  3  0  0  0  0  0  0
  -23.6490   -8.3520   22.0820 C   0  0  0  0  0  3  0  0  0  0  0  0
  -22.4780   -8.0960   21.3290 C   0  0  0  0  0  0  0  0  0  0  0  0
  -22.0580   -9.0380   20.3730 C   0  0  0  0  0  3  0  0  0  0  0  0
  -22.7750  -10.2310   20.1790 C   0  0  0  0  0  3  0  0  0  0  0  0
  -21.7330   -6.9460   21.4300 O   0  0  0  0  0  0  0  0  0  0  0  0
  -21.6820   -6.2210   22.5930 C   0  0  0  0  0  0  0  0  0  0  0  0
  -21.2400   -6.7900   23.8080 C   0  0  0  0  0  3  0  0  0  0  0  0
  -21.1380   -5.9900   24.9640 C   0  0  0  0  0  3  0  0  0  0  0  0
  -21.4690   -4.6240   24.9070 C   0  0  0  0  0  0  0  0  0  0  0  0
  -21.9050   -4.0540   23.6970 C   0  0  0  0  0  3  0  0  0  0  0  0
  -22.0090   -4.8510   22.5430 C   0  0  0  0  0  0  0  0  0  0  0  0
  -22.4080   -4.2930   21.3750 F   0  0  0  0  0  0  0  0  0  0  0  0
  -21.3640   -3.8530   26.0150 F   0  0  0  0  0  0  0  0  0  0  0  0
  -22.7690  -13.5910   21.0120 C   0  0  0  0  0  0  0  0  0  0  0  0
  -22.0460  -12.9060   21.8910 N   0  0  0  0  0  0  0  0  0  0  0  0
  -22.3250  -14.6030   20.4730 O   0  0  0  0  0  0  0  0  0  0  0  0
  -22.4190  -12.0890   22.3510 H   0  0  0  0  0  0  0  0  0  0  0  0
  -21.1060  -13.2050   22.1080 H   0  0  0  0  0  0  0  0  0  0  0  0
  -25.3960  -15.2600   20.1790 N   0  0  0  0  0  0  0  0  0  0  0  0
  -24.6350  -15.9220   20.2900 H   0  0  0  0  0  0  0  0  0  0  0  0
  -26.2660  -15.7010   19.9050 H   0  0  0  0  0  0  0  0  0  0  0  0
  -30.7990  -23.0990   19.1020 C   0  0  0  0  0  1  0  0  0  0  0  0
  -29.6980  -23.0440   20.1850 C   0  0  0  0  0  3  0  0  0  0  0  0
  -29.3850  -24.4860   20.7090 C   0  0  0  0  0  2  0  0  0  0  0  0
  -28.4740  -25.3560   19.7960 C   0  0  0  0  0  2  0  0  0  0  0  0
  -28.4570  -26.7510   20.1820 O   0  0  0  0  0  0  0  0  0  0  0  0
  -24.6100  -31.9020   23.2510 C   0  0  0  0  0  0  0  0  0  0  0  0
  -27.2740  -27.4770   20.1330 C   0  0  0  0  0  0  0  0  0  0  0  0
  -23.4090  -30.5100   21.5960 C   0  0  0  0  0  3  0  0  0  0  0  0
  -24.8700  -28.9950   20.1530 C   0  0  0  0  0  0  0  0  0  0  0  0
  -25.9370  -30.8750   21.4050 C   0  0  0  0  0  2  0  0  0  0  0  0
  -26.0270  -29.5100   20.7490 C   0  0  0  0  0  0  0  0  0  0  0  0
  -27.2270  -28.7590   20.7370 C   0  0  0  0  0  3  0  0  0  0  0  0
  -26.0980  -26.9950   19.5100 C   0  0  0  0  0  3  0  0  0  0  0  0
  -24.9030  -27.7370   19.5300 C   0  0  0  0  0  3  0  0  0  0  0  0
  -23.6230  -29.8490   20.2090 C   0  0  0  0  0  2  0  0  0  0  0  0
  -24.6700  -31.1120   22.1410 N   0  0  0  0  0  0  0  0  0  0  0  0
  -23.5270  -32.1640   23.7940 O   0  0  0  0  0  0  0  0  0  0  0  0
  -22.7650  -29.4760   22.5470 C   0  0  0  0  0  0  0  0  0  0  0  0
  -21.4400  -29.2880   22.4190 N   0  0  0  0  0  0  0  0  0  0  0  0
  -23.4510  -28.8460   23.3550 O   0  0  0  0  0  0  0  0  0  0  0  0
  -20.9450  -29.8510   21.7410 H   0  0  0  0  0  0  0  0  0  0  0  0
  -18.0720  -28.0710   22.9070 C   0  0  0  0  0  0  0  0  0  0  0  0
  -20.6290  -28.3380   23.1800 C   0  0  0  0  0  3  0  0  0  0  0  0
  -20.7370  -26.9130   22.5900 C   0  0  0  0  0  2  0  0  0  0  0  0
  -19.6360  -26.5950   21.5730 C   0  0  0  0  0  2  0  0  0  0  0  0
  -18.2550  -26.7290   22.2190 C   0  0  0  0  0  2  0  0  0  0  0  0
  -19.1870  -28.8340   23.3450 C   0  0  0  0  0  0  0  0  0  0  0  0
  -18.9630  -30.0900   23.9480 C   0  0  0  0  0  3  0  0  0  0  0  0
  -17.6570  -30.5850   24.1180 C   0  0  0  0  0  3  0  0  0  0  0  0
  -16.5560  -29.8190   23.6980 C   0  0  0  0  0  3  0  0  0  0  0  0
  -16.7640  -28.5640   23.0990 C   0  0  0  0  0  3  0  0  0  0  0  0
  -25.8910  -32.5350   23.8770 C   0  0  0  0  0  3  0  0  0  0  0  0
  -26.4090  -31.7630   25.1510 C   0  0  1  0  0  0  0  0  0  0  0  0
  -25.3160  -31.5190   26.2180 C   0  0  0  0  0  1  0  0  0  0  0  0
  -26.9960  -30.3870   24.7540 C   0  0  0  0  0  1  0  0  0  0  0  0
  -27.5570  -32.5580   25.8170 C   0  0  0  0  0  1  0  0  0  0  0  0
  -25.5790  -33.9320   24.2070 N   0  0  0  0  0  0  0  0  0  0  0  0
  -25.9080  -34.9850   23.4480 C   0  0  0  0  0  0  0  0  0  0  0  0
  -26.5770  -34.8840   22.4150 O   0  0  0  0  0  0  0  0  0  0  0  0
  -24.9830  -34.0840   25.0080 H   0  0  0  0  0  0  0  0  0  0  0  0
  -24.1730  -36.7710   23.0980 C   0  0  0  0  0  1  0  0  0  0  0  0
  -25.4170  -36.3720   23.9070 C   0  0  0  0  0  3  0  0  0  0  0  0
  -27.5500  -37.2620   24.7330 C   0  0  0  0  0  1  0  0  0  0  0  0
  -26.4460  -37.4270   23.7920 N   0  0  0  0  0  0  0  0  0  0  0  0
  -26.0380  -38.3460   23.9410 H   0  0  0  0  0  0  0  0  0  0  0  0
  2  1  1  0
  4  9  1  0
  5  6  1  0
  5  4  1  0
  7  6  1  0
  7 23  1  0
  7  8  1  0
  9  3  1  0
  9  8  1  0
 10  3  2  0
 11 14  2  0
 12 15  2  0
 13 17  1  0
 15 14  1  0
 16 11  1  0
 16  2  1  0
 17  3  1  0
 17 12  1  0
 18 12  1  0
 18 11  1  0
 19 16  1  0
 20 21  2  0
 21 40  1  0
 22 21  1  0
 22 25  1  0
 23 20  1  0
 23 24  1  0
 24 22  2  0
 25 26  1  0
 26 27  2  0
 28 31  1  0
 28 27  1  0
 29 28  2  0
 30 29  1  0
 30 25  2  0
 31 32  1  0
 32 33  1  0
 33 34  2  0
 35 34  1  0
 35 39  1  0
 36 35  2  0
 37 32  2  0
 37 36  1  0
 38 37  1  0
 40 41  1  0
 41 44  1  0
 41 43  1  0
 42 40  2  0
 45 46  1  0
 45 20  1  0
 47 45  1  0
 49 48  1  0
 49 50  1  0
 49  2  1  0
 51 52  1  0
 51 50  1  0
 53 64  2  0
 54 52  1  0
 54 59  1  0
 55 63  1  0
 55 65  1  0
 56 62  1  0
 56 58  1  0
 57 63  1  0
 58 57  1  0
 59 58  2  0
 60 61  1  0
 60 54  2  0
 61 56  2  0
 62 55  1  0
 63 53  1  0
 65 67  2  0
 66 65  1  0
 68 66  1  0
 69 78  2  0
 69 74  1  0
 70 66  1  0
 70 74  1  0
 71 70  1  0
 72 73  1  0
 72 71  1  0
 73 69  1  0
 74 75  2  0
 75 76  1  0
 77 76  2  0
 78 77  1  0
 79 53  1  0
 79 84  1  0
 79 80  1  0
 80 83  1  1
 80 81  1  0
 82 80  1  0
 84 87  1  0
 85 89  1  0
 85 84  1  0
 86 85  2  0
 89 88  1  0
 91 89  1  0
 91 92  1  0
 91 90  1  0
M  ISO  4   3 100  17 100  51 101  52 101
M  END
>  <TORSDO>  (70) 
F 19

>  <SCORE>  (70) 
-12.780

>  <name>  (70) 
69

>  <ligand_id>  (70) 
69

>  <original_smiles>  (70) 
[H]c1c([H])c([H])c2c(c1[H])C([H])([H])C([H])([H])C([H])([H])C2([H])N([H])C(=O)C1([H])N(C(=O)C([H])(N([H])C(=O)C([H])(N([H])C([H])([H])[H])C([H])([H])[H])C(C([H])([H])[H])(C([H])([H])[H])C([H])([H])[H])C([H])([H])c2c([H])c(OC([H])([H])C([H])([H])C([H])(C([H])([H])[H])C([H])(N([H])c3nnc(N(C(=O)N4C([H])([H])C([H])([H])C([H])([H])C([H])(n5nc(-c6c([H])c([H])c(Oc7c([H])c([H])c(F)c([H])c7F)c([H])c6[H])c(C(=O)N([H])[H])c5N([H])[H])C4([H])[H])C([H])([H])[H])s3)C([H])([H])[H])c([H])c([H])c2C1([H])[H]

>  <smiles>  (70) 
[H]c1c([H])c([H])c2c(c1[H])C([H])([H])C([H])([H])C([H])([H])C2([H])N([H])C(=O)C1([H])N(C(=O)C([H])(N([H])C(=O)C([H])(N([H])C([H])([H])[H])C([H])([H])[H])C(C([H])([H])[H])(C([H])([H])[H])C([H])([H])[H])C([H])([H])c2c([H])c(OC([H])([H])C([H])([H])C([H])(C([H])([H])[H])C([H])(N([H])c3nnc(N(C(=O)N4C([H])([H])C([H])([H])C([H])([H])C([H])(n5nc(-c6c([H])c([H])c(Oc7c([H])c([H])c(F)c([H])c7F)c([H])c6[H])c(C(=O)N([H])[H])c5N([H])[H])C4([H])[H])C([H])([H])[H])s3)C([H])([H])[H])c([H])c([H])c2C1([H])[H]

$$$$
70:0:0
     RDKit          3D

 96104  0  0  1  0  0  0  0  0999 V2000
  -30.2360  -21.8410   21.6370 C   0  0  0  0  0  2  0  0  0  0  0  0
  -29.7030  -17.6560   21.8030 C   0  0  0  0  0  3  0  0  0  0  0  0
  -31.9210  -18.6760   20.6580 C   0  0  0  0  0  0  0  0  0  0  0  0
  -30.5830  -16.8160   21.0690 C   0  0  0  0  0  0  0  0  0  0  0  0
  -31.0380  -19.5010   21.4030 C   0  0  0  0  0  0  0  0  0  0  0  0
  -29.9230  -18.9880   21.9720 N   0  0  0  0  0  0  0  0  0  0  0  0
  -31.6910  -17.3570   20.5010 N   0  0  0  0  0  0  0  0  0  0  0  0
  -31.3140  -20.8610   21.5870 N   0  0  0  0  0  0  0  0  0  0  0  0
  -32.1610  -21.1830   21.1300 H   0  0  0  0  0  0  0  0  0  0  0  0
  -30.8120  -14.4990   20.1790 C   0  0  0  0  0  0  0  0  0  0  0  0
  -30.4160  -12.4160   18.9250 C   0  0  0  0  0  2  0  0  0  0  0  0
  -29.4220  -12.6840   17.7810 C   0  0  0  0  0  2  0  0  0  0  0  0
  -27.9730  -12.5170   18.2760 C   0  0  0  0  0  2  0  0  0  0  0  0
  -27.6970  -13.2950   19.5920 C   0  0  0  0  0  3  0  0  0  0  0  0
  -28.8050  -13.0290   20.6370 C   0  0  0  0  0  2  0  0  0  0  0  0
  -30.1060  -13.3480   20.0220 N   0  0  0  0  0  0  0  0  0  0  0  0
  -31.8820  -14.6880   19.5900 O   0  0  0  0  0  0  0  0  0  0  0  0
  -30.2320  -15.4390   20.9520 N   0  0  0  0  0  0  0  0  0  0  0  0
  -29.3820  -15.1580   21.4100 H   0  0  0  0  0  0  0  0  0  0  0  0
  -25.3240  -13.8510   20.4170 C   0  0  0  0  0  0  0  0  0  0  0  0
  -24.2860  -13.0550   20.8240 C   0  0  0  0  0  0  0  0  0  0  0  0
  -24.7660  -11.7120   20.7480 C   0  0  0  0  0  0  0  0  0  0  0  0
  -26.3700  -12.9910   20.1230 N   0  0  0  0  0  0  0  0  0  0  0  0
  -26.0400  -11.6980   20.3790 N   0  0  0  0  0  0  0  0  0  0  0  0
  -24.0670  -10.4340   20.9520 C   0  0  0  0  0  0  0  0  0  0  0  0
  -24.5230   -9.4900   21.8980 C   0  0  0  0  0  3  0  0  0  0  0  0
  -23.8280   -8.2760   22.0890 C   0  0  0  0  0  3  0  0  0  0  0  0
  -22.6630   -7.9990   21.3350 C   0  0  0  0  0  0  0  0  0  0  0  0
  -22.2270   -8.9340   20.3790 C   0  0  0  0  0  3  0  0  0  0  0  0
  -22.9230  -10.1380   20.1860 C   0  0  0  0  0  3  0  0  0  0  0  0
  -21.9380   -6.8370   21.4350 O   0  0  0  0  0  0  0  0  0  0  0  0
  -21.8480   -6.1430   22.6150 C   0  0  0  0  0  0  0  0  0  0  0  0
  -21.3340   -6.7350   23.7890 C   0  0  0  0  0  3  0  0  0  0  0  0
  -21.1920   -5.9660   24.9620 C   0  0  0  0  0  3  0  0  0  0  0  0
  -21.5560   -4.6060   24.9610 C   0  0  0  0  0  0  0  0  0  0  0  0
  -22.0630   -4.0140   23.7890 C   0  0  0  0  0  3  0  0  0  0  0  0
  -22.2050   -4.7800   22.6200 C   0  0  0  0  0  0  0  0  0  0  0  0
  -22.6750   -4.1990   21.4900 F   0  0  0  0  0  0  0  0  0  0  0  0
  -21.4130   -3.8640   26.0840 F   0  0  0  0  0  0  0  0  0  0  0  0
  -22.8960  -13.5040   21.1690 C   0  0  0  0  0  0  0  0  0  0  0  0
  -22.2210  -12.7840   22.0580 N   0  0  0  0  0  0  0  0  0  0  0  0
  -22.4180  -14.5300   20.6860 O   0  0  0  0  0  0  0  0  0  0  0  0
  -22.6230  -11.9550   22.4730 H   0  0  0  0  0  0  0  0  0  0  0  0
  -21.2910  -13.0670   22.3290 H   0  0  0  0  0  0  0  0  0  0  0  0
  -25.4590  -15.2270   20.2540 N   0  0  0  0  0  0  0  0  0  0  0  0
  -24.6820  -15.8640   20.3910 H   0  0  0  0  0  0  0  0  0  0  0  0
  -26.2780  -15.6780   19.8680 H   0  0  0  0  0  0  0  0  0  0  0  0
  -32.8870  -19.4530   18.4490 C   0  0  0  0  0  1  0  0  0  0  0  0
  -33.1560  -19.2020   19.9400 C   0  0  0  0  0  2  0  0  0  0  0  0
  -30.8140  -23.2590   21.4650 C   0  0  0  0  0  2  0  0  0  0  0  0
  -29.7650  -24.3830   21.3710 C   0  0  0  0  0  2  0  0  0  0  0  0
  -30.4100  -25.7810   21.2290 C   0  0  0  0  0  3  0  0  0  0  0  0
  -31.2110  -25.8560   20.0640 O   0  0  0  0  0  0  0  0  0  0  0  0
  -30.6130  -25.8990   19.3220 H   0  0  0  0  0  0  0  0  0  0  0  0
  -29.4050  -26.9440   21.1830 C   0  0  0  0  0  2  0  0  0  0  0  0
  -28.4620  -26.7170   20.1370 O   0  0  0  0  0  0  0  0  0  0  0  0
  -24.6040  -31.8810   23.1910 C   0  0  0  0  0  0  0  0  0  0  0  0
  -27.3210  -27.4860   20.1530 C   0  0  0  0  0  0  0  0  0  0  0  0
  -23.4200  -30.4740   21.5320 C   0  0  0  0  0  3  0  0  0  0  0  0
  -24.9000  -28.9430   20.1260 C   0  0  0  0  0  0  0  0  0  0  0  0
  -25.9370  -30.8590   21.3550 C   0  0  0  0  0  2  0  0  0  0  0  0
  -26.0390  -29.4870   20.7290 C   0  0  0  0  0  0  0  0  0  0  0  0
  -27.2480  -28.7680   20.7470 C   0  0  0  0  0  3  0  0  0  0  0  0
  -26.1700  -26.9530   19.5380 C   0  0  0  0  0  3  0  0  0  0  0  0
  -24.9580  -27.6720   19.5260 C   0  0  0  0  0  3  0  0  0  0  0  0
  -23.6470  -29.7890   20.1560 C   0  0  0  0  0  2  0  0  0  0  0  0
  -24.6710  -31.0860   22.0860 N   0  0  0  0  0  0  0  0  0  0  0  0
  -23.5180  -32.1480   23.7220 O   0  0  0  0  0  0  0  0  0  0  0  0
  -22.7690  -29.4500   22.4880 C   0  0  0  0  0  0  0  0  0  0  0  0
  -21.4460  -29.2640   22.3510 N   0  0  0  0  0  0  0  0  0  0  0  0
  -23.4500  -28.8250   23.3050 O   0  0  0  0  0  0  0  0  0  0  0  0
  -20.9590  -29.8190   21.6610 H   0  0  0  0  0  0  0  0  0  0  0  0
  -18.0690  -28.0850   22.8330 C   0  0  0  0  0  0  0  0  0  0  0  0
  -20.6270  -28.3270   23.1180 C   0  0  0  0  0  3  0  0  0  0  0  0
  -20.7230  -26.8980   22.5360 C   0  0  0  0  0  2  0  0  0  0  0  0
  -19.6270  -26.5880   21.5120 C   0  0  0  0  0  2  0  0  0  0  0  0
  -18.2420  -26.7400   22.1480 C   0  0  0  0  0  2  0  0  0  0  0  0
  -19.1900  -28.8380   23.2730 C   0  0  0  0  0  0  0  0  0  0  0  0
  -18.9770  -30.1010   23.8680 C   0  0  0  0  0  3  0  0  0  0  0  0
  -17.6740  -30.6090   24.0300 C   0  0  0  0  0  3  0  0  0  0  0  0
  -16.5670  -29.8520   23.6080 C   0  0  0  0  0  3  0  0  0  0  0  0
  -16.7650  -28.5940   23.0140 C   0  0  0  0  0  3  0  0  0  0  0  0
  -25.8840  -32.5160   23.8220 C   0  0  0  0  0  3  0  0  0  0  0  0
  -25.5720  -33.9130   24.1460 N   0  0  0  0  0  0  0  0  0  0  0  0
  -25.9000  -34.9630   23.3820 C   0  0  0  0  0  0  0  0  0  0  0  0
  -26.5730  -34.8590   22.3530 O   0  0  0  0  0  0  0  0  0  0  0  0
  -24.9750  -34.0670   24.9470 H   0  0  0  0  0  0  0  0  0  0  0  0
  -24.1630  -36.7420   23.0130 C   0  0  0  0  0  1  0  0  0  0  0  0
  -25.4020  -36.3480   23.8320 C   0  0  0  0  0  3  0  0  0  0  0  0
  -27.5330  -37.2460   24.6630 C   0  0  0  0  0  1  0  0  0  0  0  0
  -26.4270  -37.4090   23.7220 N   0  0  0  0  0  0  0  0  0  0  0  0
  -26.0140  -38.3250   23.8750 H   0  0  0  0  0  0  0  0  0  0  0  0
  -26.3980  -31.7450   25.1000 C   0  0  1  0  0  0  0  0  0  0  0  0
  -25.3000  -31.5070   26.1640 C   0  0  0  0  0  1  0  0  0  0  0  0
  -26.9860  -30.3690   24.7050 C   0  0  0  0  0  1  0  0  0  0  0  0
  -27.5430  -32.5420   25.7680 C   0  0  0  0  0  1  0  0  0  0  0  0
  2  6  1  0
  3  5  1  0
  4  2  2  0
  5  8  1  0
  5  6  2  0
  7  3  2  0
  7  4  1  0
  8  1  1  0
  9  8  1  0
 10 18  1  0
 11 16  1  0
 12 13  1  0
 12 11  1  0
 14 13  1  0
 14 23  1  0
 14 15  1  0
 16 10  1  0
 16 15  1  0
 17 10  2  0
 18  4  1  0
 18 19  1  0
 20 21  2  0
 21 40  1  0
 22 21  1  0
 22 25  1  0
 23 24  1  0
 23 20  1  0
 24 22  2  0
 25 26  1  0
 26 27  2  0
 28 31  1  0
 28 27  1  0
 29 28  2  0
 30 29  1  0
 30 25  2  0
 31 32  1  0
 32 37  2  0
 32 33  1  0
 33 34  2  0
 35 34  1  0
 35 39  1  0
 36 35  2  0
 37 36  1  0
 38 37  1  0
 40 41  1  0
 41 44  1  0
 41 43  1  0
 42 40  2  0
 45 46  1  0
 45 20  1  0
 47 45  1  0
 48 49  1  0
 49  3  1  0
 50  1  1  0
 51 50  1  0
 52 55  1  0
 52 51  1  0
 53 52  1  0
 54 53  1  0
 56 58  1  0
 56 55  1  0
 57 68  2  0
 58 63  1  0
 59 67  1  0
 59 69  1  0
 60 66  1  0
 60 62  1  0
 61 67  1  0
 62 63  2  0
 62 61  1  0
 64 58  2  0
 65 64  1  0
 65 60  2  0
 66 59  1  0
 67 57  1  0
 69 71  2  0
 70 69  1  0
 72 70  1  0
 73 82  2  0
 73 78  1  0
 74 70  1  0
 74 78  1  0
 75 74  1  0
 76 77  1  0
 76 75  1  0
 77 73  1  0
 78 79  2  0
 79 80  1  0
 81 80  2  0
 82 81  1  0
 83 57  1  0
 83 84  1  0
 83 93  1  0
 84 87  1  0
 85 89  1  0
 85 84  1  0
 86 85  2  0
 89 88  1  0
 91 89  1  0
 91 92  1  0
 91 90  1  0
 93 96  1  1
 93 94  1  0
 95 93  1  0
M  ISO  4  10 100  18 100  55 101  56 101
M  END
>  <TORSDO>  (71) 
F 23

>  <SCORE>  (71) 
-12.380

>  <name>  (71) 
70

>  <ligand_id>  (71) 
70

>  <original_smiles>  (71) 
[H]OC([H])(C([H])([H])Oc1c([H])c([H])c2c(c1[H])C([H])([H])N(C(=O)C([H])(N([H])C(=O)C([H])(N([H])C([H])([H])[H])C([H])([H])[H])C(C([H])([H])[H])(C([H])([H])[H])C([H])([H])[H])C([H])(C(=O)N([H])C1([H])c3c([H])c([H])c([H])c([H])c3C([H])([H])C([H])([H])C1([H])[H])C2([H])[H])C([H])([H])C([H])([H])C([H])([H])N([H])c1nc([H])c(N([H])C(=O)N2C([H])([H])C([H])([H])C([H])([H])C([H])(n3nc(-c4c([H])c([H])c(Oc5c([H])c([H])c(F)c([H])c5F)c([H])c4[H])c(C(=O)N([H])[H])c3N([H])[H])C2([H])[H])nc1C([H])([H])C([H])([H])[H]

>  <smiles>  (71) 
[H]OC([H])(C([H])([H])Oc1c([H])c([H])c2c(c1[H])C([H])([H])N(C(=O)C([H])(N([H])C(=O)C([H])(N([H])C([H])([H])[H])C([H])([H])[H])C(C([H])([H])[H])(C([H])([H])[H])C([H])([H])[H])C([H])(C(=O)N([H])C1([H])c3c([H])c([H])c([H])c([H])c3C([H])([H])C([H])([H])C1([H])[H])C2([H])[H])C([H])([H])C([H])([H])C([H])([H])N([H])c1nc([H])c(N([H])C(=O)N2C([H])([H])C([H])([H])C([H])([H])C([H])(n3nc(-c4c([H])c([H])c(Oc5c([H])c([H])c(F)c([H])c5F)c([H])c4[H])c(C(=O)N([H])[H])c3N([H])[H])C2([H])[H])nc1C([H])([H])C([H])([H])[H]

$$$$
71:0:0
     RDKit          3D

 95103  0  0  1  0  0  0  0  0999 V2000
  -30.5680  -14.8220   20.5440 C   0  0  0  0  0  0  0  0  0  0  0  0
  -30.4250  -12.5330   19.5370 C   0  0  0  0  0  2  0  0  0  0  0  0
  -29.4980  -12.5740   18.2990 C   0  0  0  0  0  2  0  0  0  0  0  0
  -28.0240  -12.4050   18.7110 C   0  0  0  0  0  2  0  0  0  0  0  0
  -27.6310  -13.2860   19.9240 C   0  0  0  0  0  3  0  0  0  0  0  0
  -28.6750  -13.1990   21.0590 C   0  0  0  0  0  2  0  0  0  0  0  0
  -29.9760  -13.5760   20.4920 N   0  0  0  0  0  0  0  0  0  0  0  0
  -31.7380  -14.9390   20.1650 O   0  0  0  0  0  0  0  0  0  0  0  0
  -29.0650  -18.5550   18.2960 C   0  0  0  0  0  3  0  0  0  0  0  0
  -29.3300  -17.3010   18.8890 C   0  0  0  0  0  0  0  0  0  0  0  0
  -29.6320  -17.2670   20.2780 C   0  0  0  0  0  0  0  0  0  0  0  0
  -29.2710  -19.6570   20.2740 C   0  0  0  0  0  0  0  0  0  0  0  0
  -29.0320  -19.7060   18.9810 N   0  0  0  0  0  0  0  0  0  0  0  0
  -29.5600  -18.4970   20.9450 N   0  0  0  0  0  0  0  0  0  0  0  0
  -29.7940  -15.9220   20.9020 N   0  0  0  0  0  0  0  0  0  0  0  0
  -29.2140  -20.9400   20.9080 N   0  0  0  0  0  0  0  0  0  0  0  0
  -28.9970  -15.6680   21.4620 H   0  0  0  0  0  0  0  0  0  0  0  0
  -29.2970  -20.8970   21.9180 H   0  0  0  0  0  0  0  0  0  0  0  0
  -25.2340  -13.8650   20.6240 C   0  0  0  0  0  0  0  0  0  0  0  0
  -24.1650  -13.0880   20.9780 C   0  0  0  0  0  0  0  0  0  0  0  0
  -24.6310  -11.7370   20.9420 C   0  0  0  0  0  0  0  0  0  0  0  0
  -26.2820  -12.9900   20.3940 N   0  0  0  0  0  0  0  0  0  0  0  0
  -25.9250  -11.7050   20.6470 N   0  0  0  0  0  0  0  0  0  0  0  0
  -23.9060  -10.4720   21.1140 C   0  0  0  0  0  0  0  0  0  0  0  0
  -24.3350   -9.4920   22.0370 C   0  0  0  0  0  3  0  0  0  0  0  0
  -23.6100   -8.2910   22.1950 C   0  0  0  0  0  3  0  0  0  0  0  0
  -22.4440   -8.0590   21.4280 C   0  0  0  0  0  0  0  0  0  0  0  0
  -22.0370   -9.0250   20.4910 C   0  0  0  0  0  3  0  0  0  0  0  0
  -22.7620  -10.2180   20.3320 C   0  0  0  0  0  3  0  0  0  0  0  0
  -21.6910   -6.9120   21.4970 O   0  0  0  0  0  0  0  0  0  0  0  0
  -21.6310   -6.1600   22.6440 C   0  0  0  0  0  0  0  0  0  0  0  0
  -21.1850   -6.7010   23.8680 C   0  0  0  0  0  3  0  0  0  0  0  0
  -21.0730   -5.8740   25.0050 C   0  0  0  0  0  3  0  0  0  0  0  0
  -21.3980   -4.5080   24.9160 C   0  0  0  0  0  0  0  0  0  0  0  0
  -21.8360   -3.9660   23.6950 C   0  0  0  0  0  3  0  0  0  0  0  0
  -21.9510   -4.7900   22.5620 C   0  0  0  0  0  0  0  0  0  0  0  0
  -22.3550   -4.2580   21.3820 F   0  0  0  0  0  0  0  0  0  0  0  0
  -21.2830   -3.7120   26.0040 F   0  0  0  0  0  0  0  0  0  0  0  0
  -22.7640  -13.5590   21.2390 C   0  0  0  0  0  0  0  0  0  0  0  0
  -22.0280  -12.8560   22.0920 N   0  0  0  0  0  0  0  0  0  0  0  0
  -22.3270  -14.5860   20.7180 O   0  0  0  0  0  0  0  0  0  0  0  0
  -22.3940  -12.0250   22.5330 H   0  0  0  0  0  0  0  0  0  0  0  0
  -21.0860  -13.1530   22.3100 H   0  0  0  0  0  0  0  0  0  0  0  0
  -25.3960  -15.2360   20.4550 N   0  0  0  0  0  0  0  0  0  0  0  0
  -24.6180  -15.8790   20.5410 H   0  0  0  0  0  0  0  0  0  0  0  0
  -26.2260  -15.6640   20.0640 H   0  0  0  0  0  0  0  0  0  0  0  0
  -29.2370  -16.1540   18.0920 N   0  0  0  0  0  0  0  0  0  0  0  0
  -29.7730  -15.3290   18.3280 H   0  0  0  0  0  0  0  0  0  0  0  0
  -29.1190  -16.2720   17.0890 H   0  0  0  0  0  0  0  0  0  0  0  0
  -28.4880  -22.1720   20.3730 C   0  0  0  0  0  2  0  0  0  0  0  0
  -28.9240  -23.6790   20.8000 C   0  0  0  0  0  3  0  0  0  0  0  0
  -28.9150  -23.6570   22.2150 O   0  0  0  0  0  0  0  0  0  0  0  0
  -29.6510  -23.1180   22.4840 H   0  0  0  0  0  0  0  0  0  0  0  0
  -27.9780  -24.9100   20.3130 C   0  0  0  0  0  2  0  0  0  0  0  0
  -28.2770  -26.3820   20.4900 O   0  0  0  0  0  0  0  0  0  0  0  0
  -24.6150  -31.9950   23.3140 C   0  0  0  0  0  0  0  0  0  0  0  0
  -27.2050  -27.3060   20.3790 C   0  0  0  0  0  0  0  0  0  0  0  0
  -23.4190  -30.5830   21.6830 C   0  0  0  0  0  3  0  0  0  0  0  0
  -24.8700  -28.9920   20.2980 C   0  0  0  0  0  0  0  0  0  0  0  0
  -25.9680  -30.8570   21.5290 C   0  0  0  0  0  2  0  0  0  0  0  0
  -26.0390  -29.4610   20.9090 C   0  0  0  0  0  0  0  0  0  0  0  0
  -27.2100  -28.6310   20.9390 C   0  0  0  0  0  3  0  0  0  0  0  0
  -26.0140  -26.9170   19.7250 C   0  0  0  0  0  3  0  0  0  0  0  0
  -24.8630  -27.7270   19.6950 C   0  0  0  0  0  3  0  0  0  0  0  0
  -23.6450  -29.8840   20.3160 C   0  0  0  0  0  2  0  0  0  0  0  0
  -24.6870  -31.1650   22.2310 N   0  0  0  0  0  0  0  0  0  0  0  0
  -23.5290  -32.2950   23.8270 O   0  0  0  0  0  0  0  0  0  0  0  0
  -22.7280  -29.5940   22.6520 C   0  0  0  0  0  0  0  0  0  0  0  0
  -21.4020  -29.4230   22.5060 N   0  0  0  0  0  0  0  0  0  0  0  0
  -23.3850  -28.9800   23.4960 O   0  0  0  0  0  0  0  0  0  0  0  0
  -20.9280  -29.9670   21.7990 H   0  0  0  0  0  0  0  0  0  0  0  0
  -18.0080  -28.2610   22.9690 C   0  0  0  0  0  0  0  0  0  0  0  0
  -20.5630  -28.5090   23.2810 C   0  0  0  0  0  3  0  0  0  0  0  0
  -20.6640  -27.0660   22.7380 C   0  0  0  0  0  2  0  0  0  0  0  0
  -19.5800  -26.7290   21.7090 C   0  0  0  0  0  2  0  0  0  0  0  0
  -18.1850  -26.8990   22.3200 C   0  0  0  0  0  2  0  0  0  0  0  0
  -19.1240  -29.0240   23.4050 C   0  0  0  0  0  0  0  0  0  0  0  0
  -18.9020  -30.2990   23.9700 C   0  0  0  0  0  3  0  0  0  0  0  0
  -17.5980  -30.8120   24.1020 C   0  0  0  0  0  3  0  0  0  0  0  0
  -16.4960  -30.0460   23.6820 C   0  0  0  0  0  3  0  0  0  0  0  0
  -16.7010  -28.7730   23.1220 C   0  0  0  0  0  3  0  0  0  0  0  0
  -25.8960  -32.6260   23.9420 C   0  0  0  0  0  3  0  0  0  0  0  0
  -26.3930  -31.8640   25.2300 C   0  0  1  0  0  0  0  0  0  0  0  0
  -25.2870  -31.6360   26.2870 C   0  0  0  0  0  1  0  0  0  0  0  0
  -26.9790  -30.4830   24.8550 C   0  0  0  0  0  1  0  0  0  0  0  0
  -27.5380  -32.6600   25.9040 C   0  0  0  0  0  1  0  0  0  0  0  0
  -25.5920  -34.0300   24.2610 N   0  0  0  0  0  0  0  0  0  0  0  0
  -25.9120  -35.0740   23.4850 C   0  0  0  0  0  0  0  0  0  0  0  0
  -26.5670  -34.9570   22.4440 O   0  0  0  0  0  0  0  0  0  0  0  0
  -25.0150  -34.1970   25.0730 H   0  0  0  0  0  0  0  0  0  0  0  0
  -24.1670  -36.8560   23.1560 C   0  0  0  0  0  1  0  0  0  0  0  0
  -25.4360  -36.4700   23.9330 C   0  0  0  0  0  3  0  0  0  0  0  0
  -27.5930  -37.3800   24.6770 C   0  0  0  0  0  1  0  0  0  0  0  0
  -26.4600  -37.5250   23.7670 N   0  0  0  0  0  0  0  0  0  0  0  0
  -26.0550  -38.4470   23.9070 H   0  0  0  0  0  0  0  0  0  0  0  0
  1 15  1  0
  2  7  1  0
  3  4  1  0
  3  2  1  0
  5  4  1  0
  5 22  1  0
  5  6  1  0
  7  1  1  0
  7  6  1  0
  8  1  2  0
  9 10  2  0
  9 13  1  0
 10 11  1  0
 11 15  1  0
 11 14  2  0
 12 16  1  0
 12 14  1  0
 13 12  2  0
 15 17  1  0
 16 18  1  0
 19 20  2  0
 20 39  1  0
 21 20  1  0
 21 24  1  0
 22 19  1  0
 22 23  1  0
 23 21  2  0
 24 25  1  0
 25 26  2  0
 27 30  1  0
 27 26  1  0
 28 27  2  0
 29 28  1  0
 29 24  2  0
 30 31  1  0
 31 32  1  0
 32 33  2  0
 34 33  1  0
 34 38  1  0
 35 34  2  0
 36 31  2  0
 36 35  1  0
 37 36  1  0
 39 40  1  0
 40 43  1  0
 40 42  1  0
 41 39  2  0
 44 45  1  0
 44 19  1  0
 46 44  1  0
 47 48  1  0
 47 10  1  0
 49 47  1  0
 50 51  1  0
 50 16  1  0
 51 54  1  0
 51 52  1  0
 52 53  1  0
 54 55  1  0
 56 67  2  0
 57 55  1  0
 57 62  1  0
 58 66  1  0
 58 68  1  0
 59 65  1  0
 59 61  1  0
 60 66  1  0
 61 62  2  0
 61 60  1  0
 63 57  2  0
 64 63  1  0
 64 59  2  0
 65 58  1  0
 66 56  1  0
 68 70  2  0
 69 68  1  0
 71 69  1  0
 72 81  2  0
 72 77  1  0
 73 69  1  0
 73 77  1  0
 74 73  1  0
 75 76  1  0
 75 74  1  0
 76 72  1  0
 77 78  2  0
 78 79  1  0
 80 79  2  0
 81 80  1  0
 82 56  1  0
 82 87  1  0
 82 83  1  0
 83 86  1  1
 83 84  1  0
 85 83  1  0
 87 90  1  0
 88 92  1  0
 88 87  1  0
 89 88  2  0
 92 91  1  0
 94 95  1  0
 94 92  1  0
 94 93  1  0
M  ISO  4   1 100  15 100  54 101  55 101
M  END
>  <TORSDO>  (72) 
F 20

>  <SCORE>  (72) 
-13.743

>  <name>  (72) 
71

>  <ligand_id>  (72) 
71

>  <original_smiles>  (72) 
[H]OC([H])(C([H])([H])Oc1c([H])c([H])c2c(c1[H])C([H])([H])N(C(=O)C([H])(N([H])C(=O)C([H])(N([H])C([H])([H])[H])C([H])([H])[H])C(C([H])([H])[H])(C([H])([H])[H])C([H])([H])[H])C([H])(C(=O)N([H])C1([H])c3c([H])c([H])c([H])c([H])c3C([H])([H])C([H])([H])C1([H])[H])C2([H])[H])C([H])([H])N([H])c1nc([H])c(N([H])[H])c(N([H])C(=O)N2C([H])([H])C([H])([H])C([H])([H])C([H])(n3nc(-c4c([H])c([H])c(Oc5c([H])c([H])c(F)c([H])c5F)c([H])c4[H])c(C(=O)N([H])[H])c3N([H])[H])C2([H])[H])n1

>  <smiles>  (72) 
[H]OC([H])(C([H])([H])Oc1c([H])c([H])c2c(c1[H])C([H])([H])N(C(=O)C([H])(N([H])C(=O)C([H])(N([H])C([H])([H])[H])C([H])([H])[H])C(C([H])([H])[H])(C([H])([H])[H])C([H])([H])[H])C([H])(C(=O)N([H])C1([H])c3c([H])c([H])c([H])c([H])c3C([H])([H])C([H])([H])C1([H])[H])C2([H])[H])C([H])([H])N([H])c1nc([H])c(N([H])[H])c(N([H])C(=O)N2C([H])([H])C([H])([H])C([H])([H])C([H])(n3nc(-c4c([H])c([H])c(Oc5c([H])c([H])c(F)c([H])c5F)c([H])c4[H])c(C(=O)N([H])[H])c3N([H])[H])C2([H])[H])n1

$$$$
72:0:0
     RDKit          3D

 93101  0  0  1  0  0  0  0  0999 V2000
  -27.5690  -21.2290   20.2610 C   0  0  0  0  0  0  0  0  0  0  0  0
  -27.5340  -19.9160   20.9220 N   0  0  0  0  0  0  0  0  0  0  0  0
  -27.4880  -21.2380   19.0310 O   0  0  0  0  0  0  0  0  0  0  0  0
  -27.3600  -19.7830   21.9090 H   0  0  0  0  0  0  0  0  0  0  0  0
  -28.9910  -18.8300   19.2270 C   0  0  0  0  0  2  0  0  0  0  0  0
  -29.2190  -17.7080   18.5260 C   0  0  0  0  0  2  0  0  0  0  0  0
  -27.8540  -17.1290   20.2960 C   0  0  0  0  0  0  0  0  0  0  0  0
  -28.0330  -18.6100   20.2090 N   0  0  0  0  0  0  0  0  0  0  0  0
  -28.4890  -16.7670   19.1430 N   0  0  0  0  0  0  0  0  0  0  0  0
  -28.4300  -15.8290   18.7780 H   0  0  0  0  0  0  0  0  0  0  0  0
  -27.2240  -15.6980   21.1450 C   0  0  0  0  0  3  0  0  0  0  0  0
  -27.3280  -13.8130   20.9930 C   0  0  0  0  0  3  0  0  0  0  0  0
  -30.4130  -13.8730   20.2770 C   0  0  0  0  0  0  0  0  0  0  0  0
  -31.4330  -11.9010   18.9310 C   0  0  0  0  0  2  0  0  0  0  0  0
  -30.5330  -11.5010   17.6830 C   0  0  0  0  0  2  0  0  0  0  0  0
  -29.0090  -11.2790   17.9160 C   0  0  0  0  0  2  0  0  0  0  0  0
  -28.6960  -12.2950   18.9220 C   0  0  0  0  0  3  0  0  0  0  0  0
  -29.5650  -11.8070   20.1690 C   0  0  0  0  0  2  0  0  0  0  0  0
  -30.6620  -12.5850   19.9860 N   0  0  0  0  0  0  0  0  0  0  0  0
  -31.3610  -14.6130   19.8780 O   0  0  0  0  0  0  0  0  0  0  0  0
  -29.0920  -14.1010   21.0040 N   0  0  0  0  0  0  0  0  0  0  0  0
  -29.2440  -14.9350   21.5530 H   0  0  0  0  0  0  0  0  0  0  0  0
  -26.0200  -13.7120   19.5450 C   0  0  0  0  0  3  0  0  0  0  0  0
  -25.0700  -13.1120   20.8460 C   0  0  0  0  0  3  0  0  0  0  0  0
  -25.6430  -11.5240   21.3850 C   0  0  0  0  0  3  0  0  0  0  0  0
  -27.4200  -12.4010   19.3060 N   0  0  0  0  0  2  0  0  0  0  0  0
  -27.0610  -11.1550   20.5870 N   0  0  0  0  0  2  0  0  0  0  0  0
  -24.7240  -10.2310   21.2560 C   0  0  0  0  0  0  0  0  0  0  0  0
  -24.9750   -9.1120   22.0830 C   0  0  0  0  0  3  0  0  0  0  0  0
  -24.1590   -7.9470   22.1130 C   0  0  0  0  0  3  0  0  0  0  0  0
  -23.0310   -7.8010   21.2770 C   0  0  0  0  0  0  0  0  0  0  0  0
  -22.8310   -8.8210   20.3160 C   0  0  0  0  0  3  0  0  0  0  0  0
  -23.6690   -9.9860   20.2920 C   0  0  0  0  0  3  0  0  0  0  0  0
  -22.1720   -6.7080   21.3400 O   0  0  0  0  0  0  0  0  0  0  0  0
  -21.9140   -6.0450   22.5300 C   0  0  0  0  0  0  0  0  0  0  0  0
  -21.4110   -6.7230   23.6650 C   0  0  0  0  0  3  0  0  0  0  0  0
  -21.1330   -6.0200   24.8580 C   0  0  0  0  0  3  0  0  0  0  0  0
  -21.3410   -4.6300   24.9260 C   0  0  0  0  0  0  0  0  0  0  0  0
  -21.8180   -3.9430   23.7970 C   0  0  0  0  0  3  0  0  0  0  0  0
  -22.0970   -4.6430   22.6070 C   0  0  0  0  0  0  0  0  0  0  0  0
  -22.5380   -3.9560   21.5270 F   0  0  0  0  0  0  0  0  0  0  0  0
  -21.0800   -3.9560   26.0720 F   0  0  0  0  0  0  0  0  0  0  0  0
  -23.6140  -13.4170   20.9490 C   0  0  0  0  0  0  0  0  0  0  0  0
  -22.8760  -12.7050   21.7990 N   0  0  0  0  0  0  0  0  0  0  0  0
  -23.1180  -14.2880   20.2480 O   0  0  0  0  0  0  0  0  0  0  0  0
  -23.2790  -11.9790   22.3730 H   0  0  0  0  0  0  0  0  0  0  0  0
  -21.8860  -12.8920   21.8770 H   0  0  0  0  0  0  0  0  0  0  0  0
  -25.9940  -14.9130   18.9210 N   0  0  0  0  0  0  0  0  0  0  0  0
  -25.1290  -15.4370   19.0060 H   0  0  0  0  0  0  0  0  0  0  0  0
  -26.3520  -14.9570   17.9740 H   0  0  0  0  0  0  0  0  0  0  0  0
  -27.6710  -22.8170   20.8600 C   0  0  0  0  0  3  0  0  0  0  0  0
  -27.8740  -24.2650   19.9040 C   0  0  0  0  0  3  0  0  0  0  0  0
  -28.1310  -25.8330   20.1930 O   0  0  0  0  0  0  0  0  0  0  0  0
  -24.5650  -31.6160   22.9760 C   0  0  0  0  0  0  0  0  0  0  0  0
  -27.2070  -26.9300   19.9720 C   0  0  0  0  0  0  0  0  0  0  0  0
  -23.4400  -30.2240   21.2880 C   0  0  0  0  0  3  0  0  0  0  0  0
  -24.9470  -28.7430   19.8310 C   0  0  0  0  0  0  0  0  0  0  0  0
  -25.9930  -30.5440   21.1860 C   0  0  0  0  0  2  0  0  0  0  0  0
  -26.1010  -29.1650   20.5030 C   0  0  0  0  0  0  0  0  0  0  0  0
  -27.2430  -28.2720   20.5540 C   0  0  0  0  0  3  0  0  0  0  0  0
  -26.0700  -26.6710   19.1870 C   0  0  0  0  0  3  0  0  0  0  0  0
  -24.9570  -27.5270   19.1390 C   0  0  0  0  0  3  0  0  0  0  0  0
  -23.7030  -29.6120   19.8870 C   0  0  0  0  0  2  0  0  0  0  0  0
  -24.6850  -30.8200   21.8690 N   0  0  0  0  0  0  0  0  0  0  0  0
  -23.4600  -31.8500   23.4900 O   0  0  0  0  0  0  0  0  0  0  0  0
  -22.7890  -29.1600   22.2110 C   0  0  0  0  0  0  0  0  0  0  0  0
  -21.4690  -28.9450   22.0690 N   0  0  0  0  0  0  0  0  0  0  0  0
  -23.4750  -28.5360   23.0250 O   0  0  0  0  0  0  0  0  0  0  0  0
  -20.9690  -29.5030   21.3900 H   0  0  0  0  0  0  0  0  0  0  0  0
  -18.1250  -27.6250   22.5300 C   0  0  0  0  0  0  0  0  0  0  0  0
  -20.6750  -27.9620   22.8110 C   0  0  0  0  0  3  0  0  0  0  0  0
  -20.8230  -26.5500   22.1990 C   0  0  0  0  0  2  0  0  0  0  0  0
  -19.7330  -26.2200   21.1720 C   0  0  0  0  0  2  0  0  0  0  0  0
  -18.3470  -26.3030   21.8150 C   0  0  0  0  0  2  0  0  0  0  0  0
  -19.2180  -28.4110   22.9840 C   0  0  0  0  0  0  0  0  0  0  0  0
  -18.9560  -29.6460   23.6160 C   0  0  0  0  0  3  0  0  0  0  0  0
  -17.6350  -30.0990   23.7950 C   0  0  0  0  0  3  0  0  0  0  0  0
  -16.5570  -29.3110   23.3540 C   0  0  0  0  0  3  0  0  0  0  0  0
  -16.8030  -28.0760   22.7290 C   0  0  0  0  0  3  0  0  0  0  0  0
  -25.8080  -32.2880   23.6330 C   0  0  0  0  0  3  0  0  0  0  0  0
  -25.4270  -33.6590   24.0090 N   0  0  0  0  0  0  0  0  0  0  0  0
  -25.7210  -34.7580   23.3020 C   0  0  0  0  0  0  0  0  0  0  0  0
  -26.4100  -34.7280   22.2790 O   0  0  0  0  0  0  0  0  0  0  0  0
  -24.8120  -33.7530   24.8040 H   0  0  0  0  0  0  0  0  0  0  0  0
  -23.9180  -36.4900   23.0010 C   0  0  0  0  0  1  0  0  0  0  0  0
  -25.1680  -36.1050   23.8090 C   0  0  0  0  0  3  0  0  0  0  0  0
  -27.2480  -37.0560   24.7040 C   0  0  0  0  0  1  0  0  0  0  0  0
  -26.1530  -37.2080   23.7510 N   0  0  0  0  0  0  0  0  0  0  0  0
  -25.7020  -38.1030   23.9250 H   0  0  0  0  0  0  0  0  0  0  0  0
  -26.3400  -31.5040   24.8960 C   0  0  1  0  0  0  0  0  0  0  0  0
  -25.2440  -31.1860   25.9400 C   0  0  0  0  0  1  0  0  0  0  0  0
  -26.9950  -30.1650   24.4840 C   0  0  0  0  0  1  0  0  0  0  0  0
  -27.4420  -32.3320   25.5980 C   0  0  0  0  0  1  0  0  0  0  0  0
  1 51  1  0
  1  2  1  0
  2  4  1  0
  3  1  2  0
  5  8  1  0
  6  9  1  0
  6  5  1  0
  7 11  2  0
  8  7  1  0
  8  2  1  0
  9  7  1  0
 10  9  1  0
 12 21  1  0
 12 11  1  0
 13 21  1  0
 14 19  1  0
 15 16  1  0
 15 14  1  0
 17 16  1  0
 17 26  1  0
 17 18  1  0
 19 18  1  0
 19 13  1  0
 20 13  2  0
 21 22  1  0
 23 48  1  0
 23 24  1  0
 23 12  1  0
 24 43  1  0
 24 25  1  0
 25 28  1  0
 26 27  1  0
 27 25  1  0
 28 29  1  0
 29 30  2  0
 31 34  1  0
 31 30  1  0
 32 31  2  0
 33 32  1  0
 33 28  2  0
 34 35  1  0
 35 40  2  0
 35 36  1  0
 36 37  2  0
 37 38  1  0
 38 42  1  0
 39 38  2  0
 40 39  1  0
 41 40  1  0
 43 44  1  0
 44 47  1  0
 44 46  1  0
 45 43  2  0
 48 49  1  0
 50 48  1  0
 52 53  1  0
 52 51  2  0
 54 65  2  0
 55 53  1  0
 55 60  1  0
 56 64  1  0
 56 66  1  0
 57 63  1  0
 57 59  1  0
 58 64  1  0
 59 60  2  0
 59 58  1  0
 61 55  2  0
 62 61  1  0
 62 57  2  0
 63 56  1  0
 64 54  1  0
 66 68  2  0
 67 66  1  0
 69 67  1  0
 70 79  2  0
 70 75  1  0
 71 67  1  0
 71 75  1  0
 72 71  1  0
 73 74  1  0
 73 72  1  0
 74 70  1  0
 75 76  2  0
 76 77  1  0
 78 77  2  0
 79 78  1  0
 80 54  1  0
 80 81  1  0
 80 90  1  0
 81 84  1  0
 82 86  1  0
 82 81  1  0
 83 82  2  0
 86 85  1  0
 88 86  1  0
 88 89  1  0
 88 87  1  0
 90 93  1  1
 90 91  1  0
 92 90  1  0
M  ISO  4  13 100  21 100  52 101  53 101
M  END
>  <TORSDO>  (73) 
F 21

>  <SCORE>  (73) 
-11.750

>  <name>  (73) 
72

>  <ligand_id>  (73) 
72

>  <original_smiles>  (73) 
[H]c1c([H])c([H])c2c(c1[H])C([H])([H])C([H])([H])C([H])([H])C2([H])N([H])C(=O)C1([H])N(C(=O)C([H])(N([H])C(=O)C([H])(N([H])C([H])([H])[H])C([H])([H])[H])C(C([H])([H])[H])(C([H])([H])[H])C([H])([H])[H])C([H])([H])c2c([H])c(OC([H])([H])C([H])([H])C(=O)N([H])n3c([H])c([H])[n+]([H])c3C([H])([H])C([H])([H])N([H])C(=O)N3C([H])([H])C([H])([H])C([H])([H])C([H])(n4nc(-c5c([H])c([H])c(Oc6c([H])c([H])c(F)c([H])c6F)c([H])c5[H])c(C(=O)N([H])[H])c4N([H])[H])C3([H])[H])c([H])c([H])c2C1([H])[H]

>  <smiles>  (73) 
[H]c1c([H])c([H])c2c(c1[H])C([H])([H])C([H])([H])C([H])([H])C2([H])N([H])C(=O)C1([H])N(C(=O)C([H])(N([H])C(=O)C([H])(N([H])C([H])([H])[H])C([H])([H])[H])C(C([H])([H])[H])(C([H])([H])[H])C([H])([H])[H])C([H])([H])c2c([H])c(OC([H])([H])C([H])([H])C(=O)N([H])n3c([H])c([H])[n+]([H])c3C([H])([H])C([H])([H])N([H])C(=O)N3C([H])([H])C([H])([H])C([H])([H])C([H])(n4nc(-c5c([H])c([H])c(Oc6c([H])c([H])c(F)c([H])c6F)c([H])c5[H])c(C(=O)N([H])[H])c4N([H])[H])C3([H])[H])c([H])c([H])c2C1([H])[H]

$$$$
73:0:0
     RDKit          3D

 97105  0  0  1  0  0  0  0  0999 V2000
  -30.1170  -22.1640   21.1680 C   0  0  0  0  0  3  0  0  0  0  0  0
  -29.3770  -21.1850   20.3000 N   0  0  0  0  0  4  0  0  0  0  0  0
  -28.7050  -20.6910   20.8680 H   0  0  0  0  0  0  0  0  0  0  0  0
  -28.8360  -21.7370   19.6560 H   0  0  0  0  0  0  0  0  0  0  0  0
  -29.3080  -19.8650   18.1830 C   0  0  0  0  0  1  0  0  0  0  0  0
  -30.0980  -20.1900   19.4600 C   0  0  0  0  0  3  0  0  0  0  0  0
  -30.4810  -14.3520   20.0550 C   0  0  0  0  0  0  0  0  0  0  0  0
  -30.0910  -12.2160   18.8960 C   0  0  0  0  0  2  0  0  0  0  0  0
  -29.0810  -12.4470   17.7570 C   0  0  0  0  0  2  0  0  0  0  0  0
  -27.6430  -12.2570   18.2800 C   0  0  0  0  0  2  0  0  0  0  0  0
  -27.3690  -13.0640   19.5760 C   0  0  0  0  0  3  0  0  0  0  0  0
  -28.5020  -12.8690   20.6110 C   0  0  0  0  0  2  0  0  0  0  0  0
  -29.7780  -13.1900   19.9530 N   0  0  0  0  0  0  0  0  0  0  0  0
  -31.5810  -14.4860   19.5070 O   0  0  0  0  0  0  0  0  0  0  0  0
  -30.4670  -18.8750   20.1660 C   0  0  0  0  0  3  0  0  0  0  0  0
  -30.3950  -16.7160   20.6930 C   0  0  0  0  0  0  0  0  0  0  0  0
  -29.6760  -17.7960   20.3090 N   0  0  0  0  0  0  0  0  0  0  0  0
  -31.6670  -16.9140   21.0840 N   0  0  0  0  0  2  0  0  0  0  0  0
  -29.8540  -15.4020   20.6220 N   0  0  0  0  0  0  0  0  0  0  0  0
  -32.0870  -18.5010   20.7110 S   0  0  0  0  0  0  0  0  0  0  0  0
  -28.8840  -15.2920   20.8670 H   0  0  0  0  0  0  0  0  0  0  0  0
  -24.9950  -13.5860   20.4210 C   0  0  0  0  0  0  0  0  0  0  0  0
  -23.9830  -12.7770   20.8650 C   0  0  0  0  0  0  0  0  0  0  0  0
  -24.4930  -11.4440   20.8170 C   0  0  0  0  0  0  0  0  0  0  0  0
  -26.0570  -12.7430   20.1360 N   0  0  0  0  0  0  0  0  0  0  0  0
  -25.7620  -11.4510   20.4310 N   0  0  0  0  0  0  0  0  0  0  0  0
  -23.8300  -10.1560   21.0630 C   0  0  0  0  0  0  0  0  0  0  0  0
  -24.3000   -9.2580   22.0470 C   0  0  0  0  0  3  0  0  0  0  0  0
  -23.6320   -8.0340   22.2780 C   0  0  0  0  0  3  0  0  0  0  0  0
  -22.4830   -7.7010   21.5220 C   0  0  0  0  0  0  0  0  0  0  0  0
  -22.0340   -8.5890   20.5280 C   0  0  0  0  0  3  0  0  0  0  0  0
  -22.7030   -9.8020   20.2960 C   0  0  0  0  0  3  0  0  0  0  0  0
  -21.7870   -6.5240   21.6580 O   0  0  0  0  0  0  0  0  0  0  0  0
  -21.7060   -5.8700   22.8610 C   0  0  0  0  0  0  0  0  0  0  0  0
  -21.1560   -6.4840   24.0080 C   0  0  0  0  0  3  0  0  0  0  0  0
  -21.0270   -5.7520   25.2050 C   0  0  0  0  0  3  0  0  0  0  0  0
  -21.4390   -4.4060   25.2570 C   0  0  0  0  0  0  0  0  0  0  0  0
  -21.9820   -3.7940   24.1130 C   0  0  0  0  0  3  0  0  0  0  0  0
  -22.1120   -4.5220   22.9190 C   0  0  0  0  0  0  0  0  0  0  0  0
  -22.6160   -3.9210   21.8150 F   0  0  0  0  0  0  0  0  0  0  0  0
  -21.3100   -3.7000   26.4040 F   0  0  0  0  0  0  0  0  0  0  0  0
  -22.5880  -13.2020   21.2120 C   0  0  0  0  0  0  0  0  0  0  0  0
  -21.9380  -12.4990   22.1350 N   0  0  0  0  0  0  0  0  0  0  0  0
  -22.0780  -14.2010   20.7010 O   0  0  0  0  0  0  0  0  0  0  0  0
  -22.3600  -11.6950   22.5760 H   0  0  0  0  0  0  0  0  0  0  0  0
  -21.0020  -12.7710   22.4000 H   0  0  0  0  0  0  0  0  0  0  0  0
  -25.0940  -14.9600   20.2200 N   0  0  0  0  0  0  0  0  0  0  0  0
  -24.3020  -15.5820   20.3530 H   0  0  0  0  0  0  0  0  0  0  0  0
  -25.8930  -15.4280   19.8110 H   0  0  0  0  0  0  0  0  0  0  0  0
  -32.3500  -22.6640   22.4380 C   0  0  0  0  0  1  0  0  0  0  0  0
  -31.6580  -21.9550   21.2560 C   0  0  0  0  0  2  0  0  0  0  0  0
  -29.7940  -23.6570   20.8160 C   0  0  0  0  0  2  0  0  0  0  0  0
  -28.3350  -24.1840   20.9290 C   0  0  0  0  0  3  0  0  0  0  0  0
  -27.6320  -23.4340   21.9080 O   0  0  0  0  0  0  0  0  0  0  0  0
  -26.7480  -23.7910   21.9720 H   0  0  0  0  0  0  0  0  0  0  0  0
  -28.2560  -25.6910   21.3250 C   0  0  0  0  0  2  0  0  0  0  0  0
  -28.3810  -26.6180   20.2330 O   0  0  0  0  0  0  0  0  0  0  0  0
  -24.6290  -31.8490   23.2360 C   0  0  0  0  0  0  0  0  0  0  0  0
  -27.2780  -27.4280   20.1450 C   0  0  0  0  0  0  0  0  0  0  0  0
  -23.4360  -30.4640   21.5710 C   0  0  0  0  0  3  0  0  0  0  0  0
  -24.8980  -28.9380   20.1420 C   0  0  0  0  0  0  0  0  0  0  0  0
  -25.9640  -30.8200   21.3990 C   0  0  0  0  0  2  0  0  0  0  0  0
  -26.0510  -29.4550   20.7460 C   0  0  0  0  0  0  0  0  0  0  0  0
  -27.2500  -28.7070   20.7460 C   0  0  0  0  0  3  0  0  0  0  0  0
  -26.1170  -26.9260   19.5250 C   0  0  0  0  0  3  0  0  0  0  0  0
  -24.9240  -27.6720   19.5280 C   0  0  0  0  0  3  0  0  0  0  0  0
  -23.6550  -29.7950   20.1870 C   0  0  0  0  0  2  0  0  0  0  0  0
  -24.6950  -31.0570   22.1280 N   0  0  0  0  0  0  0  0  0  0  0  0
  -23.5430  -32.1220   23.7650 O   0  0  0  0  0  0  0  0  0  0  0  0
  -22.7710  -29.4370   22.5150 C   0  0  0  0  0  0  0  0  0  0  0  0
  -21.4470  -29.2610   22.3720 N   0  0  0  0  0  0  0  0  0  0  0  0
  -23.4440  -28.8030   23.3330 O   0  0  0  0  0  0  0  0  0  0  0  0
  -20.9660  -29.8270   21.6870 H   0  0  0  0  0  0  0  0  0  0  0  0
  -18.0600  -28.0830   22.8200 C   0  0  0  0  0  0  0  0  0  0  0  0
  -20.6170  -28.3200   23.1240 C   0  0  0  0  0  3  0  0  0  0  0  0
  -20.7160  -26.8950   22.5370 C   0  0  0  0  0  2  0  0  0  0  0  0
  -19.6240  -26.5880   21.5060 C   0  0  0  0  0  2  0  0  0  0  0  0
  -18.2370  -26.7390   22.1350 C   0  0  0  0  0  2  0  0  0  0  0  0
  -19.1800  -28.8330   23.2700 C   0  0  0  0  0  0  0  0  0  0  0  0
  -18.9640  -30.0930   23.8680 C   0  0  0  0  0  3  0  0  0  0  0  0
  -17.6620  -30.6050   24.0210 C   0  0  0  0  0  3  0  0  0  0  0  0
  -16.5550  -29.8510   23.5890 C   0  0  0  0  0  3  0  0  0  0  0  0
  -16.7570  -28.5920   22.9950 C   0  0  0  0  0  3  0  0  0  0  0  0
  -25.9120  -32.4690   23.8720 C   0  0  0  0  0  3  0  0  0  0  0  0
  -25.6130  -33.8700   24.1950 N   0  0  0  0  0  0  0  0  0  0  0  0
  -25.9620  -34.9150   23.4340 C   0  0  0  0  0  0  0  0  0  0  0  0
  -26.6420  -34.8020   22.4110 O   0  0  0  0  0  0  0  0  0  0  0  0
  -25.0110  -34.0330   24.9880 H   0  0  0  0  0  0  0  0  0  0  0  0
  -24.2500  -36.7170   23.0560 C   0  0  0  0  0  1  0  0  0  0  0  0
  -25.4810  -36.3080   23.8820 C   0  0  0  0  0  3  0  0  0  0  0  0
  -27.6090  -37.1820   24.7330 C   0  0  0  0  0  1  0  0  0  0  0  0
  -26.5210  -37.3540   23.7760 N   0  0  0  0  0  0  0  0  0  0  0  0
  -26.1190  -38.2770   23.9150 H   0  0  0  0  0  0  0  0  0  0  0  0
  -26.4040  -31.6940   25.1560 C   0  0  1  0  0  0  0  0  0  0  0  0
  -25.2930  -31.4650   26.2070 C   0  0  0  0  0  1  0  0  0  0  0  0
  -26.9830  -30.3130   24.7680 C   0  0  0  0  0  1  0  0  0  0  0  0
  -27.5500  -32.4800   25.8370 C   0  0  0  0  0  1  0  0  0  0  0  0
  1 52  1  0
  1 51  1  0
  2  3  1  0
  2  1  1  0
  4  2  1  0
  6  5  1  0
  6  2  1  0
  7 19  1  0
  8 13  1  0
  9 10  1  0
  9  8  1  0
 11 10  1  0
 11 25  1  0
 11 12  1  0
 13  7  1  0
 13 12  1  0
 14  7  2  0
 15  6  1  0
 15 17  1  0
 15 20  1  0
 16 18  1  0
 17 16  2  0
 19 16  1  0
 19 21  1  0
 20 18  1  0
 22 23  2  0
 23 42  1  0
 24 23  1  0
 24 27  1  0
 25 22  1  0
 25 26  1  0
 26 24  2  0
 27 28  1  0
 28 29  2  0
 30 33  1  0
 30 29  1  0
 31 30  2  0
 32 31  1  0
 32 27  2  0
 33 34  1  0
 34 39  2  0
 34 35  1  0
 35 36  2  0
 36 37  1  0
 37 41  1  0
 38 37  2  0
 39 38  1  0
 40 39  1  0
 42 43  1  0
 43 46  1  0
 43 45  1  0
 44 42  2  0
 47 48  1  0
 47 22  1  0
 49 47  1  0
 51 50  1  0
 53 52  1  0
 53 56  1  0
 53 54  1  0
 54 55  1  0
 57 56  1  0
 58 69  2  0
 59 57  1  0
 59 64  1  0
 60 68  1  0
 60 70  1  0
 61 67  1  0
 61 63  1  0
 62 68  1  0
 63 62  1  0
 64 63  2  0
 65 66  1  0
 65 59  2  0
 66 61  2  0
 67 60  1  0
 68 58  1  0
 70 72  2  0
 71 70  1  0
 73 71  1  0
 74 83  2  0
 74 79  1  0
 75 71  1  0
 75 79  1  0
 76 75  1  0
 77 78  1  0
 77 76  1  0
 78 74  1  0
 79 80  2  0
 80 81  1  0
 82 81  2  0
 83 82  1  0
 84 58  1  0
 84 85  1  0
 84 94  1  0
 85 88  1  0
 86 90  1  0
 86 85  1  0
 87 86  2  0
 90 89  1  0
 92 90  1  0
 92 93  1  0
 92 91  1  0
 94 97  1  1
 94 95  1  0
 96 94  1  0
M  ISO  4   7 100  19 100  56 101  57 101
M  END
>  <TORSDO>  (74) 
F 23

>  <SCORE>  (74) 
-11.033

>  <name>  (74) 
73

>  <ligand_id>  (74) 
73

>  <original_smiles>  (74) 
[H]OC([H])(C([H])([H])Oc1c([H])c([H])c2c(c1[H])C([H])([H])N(C(=O)C([H])(N([H])C(=O)C([H])(N([H])C([H])([H])[H])C([H])([H])[H])C(C([H])([H])[H])(C([H])([H])[H])C([H])([H])[H])C([H])(C(=O)N([H])C1([H])c3c([H])c([H])c([H])c([H])c3C([H])([H])C([H])([H])C1([H])[H])C2([H])[H])C([H])([H])C([H])(C([H])([H])C([H])([H])[H])[N+]([H])([H])C([H])(c1nc(N([H])C(=O)N2C([H])([H])C([H])([H])C([H])([H])C([H])(n3nc(-c4c([H])c([H])c(Oc5c([H])c([H])c(F)c([H])c5F)c([H])c4[H])c(C(=O)N([H])[H])c3N([H])[H])C2([H])[H])ns1)C([H])([H])[H]

>  <smiles>  (74) 
[H]OC([H])(C([H])([H])Oc1c([H])c([H])c2c(c1[H])C([H])([H])N(C(=O)C([H])(N([H])C(=O)C([H])(N([H])C([H])([H])[H])C([H])([H])[H])C(C([H])([H])[H])(C([H])([H])[H])C([H])([H])[H])C([H])(C(=O)N([H])C1([H])c3c([H])c([H])c([H])c([H])c3C([H])([H])C([H])([H])C1([H])[H])C2([H])[H])C([H])([H])C([H])(C([H])([H])C([H])([H])[H])[N+]([H])([H])C([H])(c1nc(N([H])C(=O)N2C([H])([H])C([H])([H])C([H])([H])C([H])(n3nc(-c4c([H])c([H])c(Oc5c([H])c([H])c(F)c([H])c5F)c([H])c4[H])c(C(=O)N([H])[H])c3N([H])[H])C2([H])[H])ns1)C([H])([H])[H]

$$$$
74:0:0
     RDKit          3D

 89 97  0  0  1  0  0  0  0  0999 V2000
  -28.9980  -22.5630   19.9200 N   0  0  0  0  0  0  0  0  0  0  0  0
  -28.7690  -22.5780   18.8980 H   0  0  0  0  0  0  0  0  0  0  0  0
  -29.1980  -20.8100   21.6910 C   0  0  0  0  0  3  0  0  0  0  0  0
  -29.3590  -21.2390   20.4000 C   0  0  0  0  0  0  0  0  0  0  0  0
  -30.0020  -18.9350   20.2630 C   0  0  0  0  0  0  0  0  0  0  0  0
  -29.7990  -20.1300   19.5960 N   0  0  0  0  0  0  0  0  0  0  0  0
  -29.5730  -19.1160   21.9570 S   0  0  0  0  0  0  0  0  0  0  0  0
  -30.6440  -17.6070   19.7290 C   0  0  0  0  0  3  0  0  0  0  0  0
  -30.1580  -16.1690   20.2690 C   0  0  0  0  0  3  0  0  0  0  0  0
  -30.9120  -14.8490   19.7860 C   0  0  0  0  0  0  0  0  0  0  0  0
  -30.6280  -12.6030   18.7290 C   0  0  0  0  0  2  0  0  0  0  0  0
  -29.6070  -12.7330   17.5750 C   0  0  0  0  0  2  0  0  0  0  0  0
  -28.1630  -12.5620   18.1010 C   0  0  0  0  0  2  0  0  0  0  0  0
  -27.8930  -13.4250   19.3600 C   0  0  0  0  0  3  0  0  0  0  0  0
  -29.0220  -13.2840   20.4030 C   0  0  0  0  0  2  0  0  0  0  0  0
  -30.2860  -13.6260   19.7430 N   0  0  0  0  0  0  0  0  0  0  0  0
  -32.0470  -14.9680   19.3160 O   0  0  0  0  0  0  0  0  0  0  0  0
  -25.5670  -14.0410   20.2660 C   0  0  0  0  0  0  0  0  0  0  0  0
  -24.5120  -13.2770   20.6850 C   0  0  0  0  0  0  0  0  0  0  0  0
  -24.9490  -11.9230   20.5910 C   0  0  0  0  0  0  0  0  0  0  0  0
  -26.5780  -13.1550   19.9370 N   0  0  0  0  0  0  0  0  0  0  0  0
  -26.2110  -11.8700   20.1820 N   0  0  0  0  0  0  0  0  0  0  0  0
  -24.2120  -10.6700   20.7940 C   0  0  0  0  0  0  0  0  0  0  0  0
  -24.6170   -9.7360   21.7730 C   0  0  0  0  0  3  0  0  0  0  0  0
  -23.8910   -8.5410   21.9670 C   0  0  0  0  0  3  0  0  0  0  0  0
  -22.7370   -8.2760   21.1880 C   0  0  0  0  0  0  0  0  0  0  0  0
  -22.3510   -9.1990   20.2000 C   0  0  0  0  0  3  0  0  0  0  0  0
  -23.0800  -10.3860   20.0050 C   0  0  0  0  0  3  0  0  0  0  0  0
  -21.9760   -7.1350   21.2880 O   0  0  0  0  0  0  0  0  0  0  0  0
  -21.7790   -6.5100   22.4920 C   0  0  0  0  0  0  0  0  0  0  0  0
  -21.1840   -7.1690   23.5890 C   0  0  0  0  0  3  0  0  0  0  0  0
  -20.9410   -6.4680   24.7860 C   0  0  0  0  0  3  0  0  0  0  0  0
  -21.2710   -5.1030   24.8800 C   0  0  0  0  0  0  0  0  0  0  0  0
  -21.8610   -4.4420   23.7890 C   0  0  0  0  0  3  0  0  0  0  0  0
  -22.1100   -5.1440   22.5960 C   0  0  0  0  0  0  0  0  0  0  0  0
  -22.6550   -4.4970   21.5390 F   0  0  0  0  0  0  0  0  0  0  0  0
  -21.0290   -4.4250   26.0280 F   0  0  0  0  0  0  0  0  0  0  0  0
  -23.1460  -13.7730   21.0670 C   0  0  0  0  0  0  0  0  0  0  0  0
  -22.4750  -13.0790   21.9790 N   0  0  0  0  0  0  0  0  0  0  0  0
  -22.6890  -14.8140   20.5970 O   0  0  0  0  0  0  0  0  0  0  0  0
  -22.8600  -12.2480   22.4000 H   0  0  0  0  0  0  0  0  0  0  0  0
  -21.5580  -13.3910   22.2620 H   0  0  0  0  0  0  0  0  0  0  0  0
  -25.7390  -15.4150   20.1070 N   0  0  0  0  0  0  0  0  0  0  0  0
  -24.9950  -16.0780   20.2900 H   0  0  0  0  0  0  0  0  0  0  0  0
  -26.5730  -15.8550   19.7360 H   0  0  0  0  0  0  0  0  0  0  0  0
  -28.1320  -23.8440   21.9740 C   0  0  0  0  0  1  0  0  0  0  0  0
  -28.9010  -23.9110   20.6220 C   0  0  0  0  0  3  0  0  0  0  0  0
  -28.2360  -25.0730   19.7420 C   0  0  0  0  0  2  0  0  0  0  0  0
  -28.3410  -26.5290   20.0740 O   0  0  0  0  0  0  0  0  0  0  0  0
  -24.4490  -31.7600   23.1190 C   0  0  0  0  0  0  0  0  0  0  0  0
  -27.2180  -27.3670   19.9660 C   0  0  0  0  0  0  0  0  0  0  0  0
  -23.2980  -30.3490   21.4550 C   0  0  0  0  0  3  0  0  0  0  0  0
  -24.8020  -28.9080   19.9690 C   0  0  0  0  0  0  0  0  0  0  0  0
  -25.8240  -30.7690   21.2730 C   0  0  0  0  0  2  0  0  0  0  0  0
  -25.9480  -29.4120   20.5900 C   0  0  0  0  0  0  0  0  0  0  0  0
  -27.1580  -28.6560   20.5890 C   0  0  0  0  0  3  0  0  0  0  0  0
  -26.0660  -26.9550   19.2580 C   0  0  0  0  0  3  0  0  0  0  0  0
  -24.8760  -27.6960   19.2650 C   0  0  0  0  0  3  0  0  0  0  0  0
  -23.5250  -29.7200   20.0530 C   0  0  0  0  0  2  0  0  0  0  0  0
  -24.5430  -30.9800   22.0030 N   0  0  0  0  0  0  0  0  0  0  0  0
  -23.3570  -31.9810   23.6660 O   0  0  0  0  0  0  0  0  0  0  0  0
  -22.6830  -29.2810   22.3890 C   0  0  0  0  0  0  0  0  0  0  0  0
  -21.3670  -29.0390   22.2540 N   0  0  0  0  0  0  0  0  0  0  0  0
  -23.3930  -28.6710   23.1940 O   0  0  0  0  0  0  0  0  0  0  0  0
  -20.8580  -29.5880   21.5730 H   0  0  0  0  0  0  0  0  0  0  0  0
  -18.0520  -27.6650   22.7100 C   0  0  0  0  0  0  0  0  0  0  0  0
  -20.5900  -28.0470   22.9990 C   0  0  0  0  0  3  0  0  0  0  0  0
  -20.7700  -26.6330   22.3980 C   0  0  0  0  0  2  0  0  0  0  0  0
  -19.6900  -26.2730   21.3750 C   0  0  0  0  0  2  0  0  0  0  0  0
  -18.3020  -26.3380   22.0130 C   0  0  0  0  0  2  0  0  0  0  0  0
  -19.1290  -28.4780   23.1580 C   0  0  0  0  0  0  0  0  0  0  0  0
  -18.8440  -29.7210   23.7680 C   0  0  0  0  0  3  0  0  0  0  0  0
  -17.5150  -30.1510   23.9340 C   0  0  0  0  0  3  0  0  0  0  0  0
  -16.4530  -29.3380   23.5030 C   0  0  0  0  0  3  0  0  0  0  0  0
  -16.7260  -28.0960   22.9000 C   0  0  0  0  0  3  0  0  0  0  0  0
  -25.7080  -32.4280   23.7520 C   0  0  0  0  0  3  0  0  0  0  0  0
  -25.3440  -33.8030   24.1270 N   0  0  0  0  0  0  0  0  0  0  0  0
  -25.6050  -34.8910   23.3840 C   0  0  0  0  0  0  0  0  0  0  0  0
  -26.2580  -34.8450   22.3380 O   0  0  0  0  0  0  0  0  0  0  0  0
  -24.7700  -33.9120   24.9500 H   0  0  0  0  0  0  0  0  0  0  0  0
  -23.7790  -36.5950   23.1190 C   0  0  0  0  0  1  0  0  0  0  0  0
  -25.0650  -36.2440   23.8890 C   0  0  0  0  0  3  0  0  0  0  0  0
  -27.1740  -37.2150   24.6840 C   0  0  0  0  0  1  0  0  0  0  0  0
  -26.0410  -37.3500   23.7710 N   0  0  0  0  0  0  0  0  0  0  0  0
  -25.5950  -38.2450   23.9500 H   0  0  0  0  0  0  0  0  0  0  0  0
  -26.2650  -31.6450   25.0030 C   0  0  1  0  0  0  0  0  0  0  0  0
  -25.1880  -31.3240   26.0660 C   0  0  0  0  0  1  0  0  0  0  0  0
  -26.9080  -30.3090   24.5680 C   0  0  0  0  0  1  0  0  0  0  0  0
  -27.3830  -32.4740   25.6820 C   0  0  0  0  0  1  0  0  0  0  0  0
  1  4  1  0
  1 47  1  0
  2  1  1  0
  3  7  1  0
  4  3  2  0
  5  7  1  0
  6  5  2  0
  6  4  1  0
  8  5  1  0
  8  9  2  0
 10  9  1  0
 11 16  1  0
 12 13  1  0
 12 11  1  0
 14 13  1  0
 14 21  1  0
 14 15  1  0
 16 10  1  0
 16 15  1  0
 17 10  2  0
 18 19  2  0
 19 38  1  0
 20 19  1  0
 20 23  1  0
 21 22  1  0
 21 18  1  0
 22 20  2  0
 23 24  1  0
 24 25  2  0
 26 29  1  0
 26 25  1  0
 27 26  2  0
 28 27  1  0
 28 23  2  0
 29 30  1  0
 30 35  2  0
 30 31  1  0
 31 32  2  0
 32 33  1  0
 33 37  1  0
 34 33  2  0
 35 34  1  0
 36 35  1  0
 38 39  1  0
 39 42  1  0
 39 41  1  0
 40 38  2  0
 43 18  1  0
 43 44  1  0
 45 43  1  0
 47 46  1  0
 48 49  1  0
 48 47  1  0
 50 61  2  0
 51 49  1  0
 51 56  1  0
 52 60  1  0
 52 62  1  0
 53 59  1  0
 53 55  1  0
 54 60  1  0
 55 54  1  0
 56 55  2  0
 57 58  1  0
 57 51  2  0
 58 53  2  0
 59 52  1  0
 60 50  1  0
 62 64  2  0
 63 62  1  0
 65 63  1  0
 66 75  2  0
 66 71  1  0
 67 63  1  0
 67 71  1  0
 68 67  1  0
 69 70  1  0
 69 68  1  0
 70 66  1  0
 71 72  2  0
 72 73  1  0
 74 73  2  0
 75 74  1  0
 76 50  1  0
 76 77  1  0
 76 86  1  0
 77 80  1  0
 78 82  1  0
 78 77  1  0
 79 78  2  0
 82 81  1  0
 84 82  1  0
 84 85  1  0
 84 83  1  0
 86 89  1  1
 86 87  1  0
 88 86  1  0
M  ISO  4   9 100  10 100  48 101  49 101
M  END
>  <TORSDO>  (75) 
F 21

>  <SCORE>  (75) 
-11.341

>  <name>  (75) 
74

>  <ligand_id>  (75) 
74

>  <original_smiles>  (75) 
[H]c1sc(C([H])([H])C([H])([H])C(=O)N2C([H])([H])C([H])([H])C([H])([H])C([H])(n3nc(-c4c([H])c([H])c(Oc5c([H])c([H])c(F)c([H])c5F)c([H])c4[H])c(C(=O)N([H])[H])c3N([H])[H])C2([H])[H])nc1N([H])C([H])(C([H])([H])[H])C([H])([H])Oc1c([H])c([H])c2c(c1[H])C([H])([H])N(C(=O)C([H])(N([H])C(=O)C([H])(N([H])C([H])([H])[H])C([H])([H])[H])C(C([H])([H])[H])(C([H])([H])[H])C([H])([H])[H])C([H])(C(=O)N([H])C1([H])c3c([H])c([H])c([H])c([H])c3C([H])([H])C([H])([H])C1([H])[H])C2([H])[H]

>  <smiles>  (75) 
[H]c1sc(C([H])([H])C([H])([H])C(=O)N2C([H])([H])C([H])([H])C([H])([H])C([H])(n3nc(-c4c([H])c([H])c(Oc5c([H])c([H])c(F)c([H])c5F)c([H])c4[H])c(C(=O)N([H])[H])c3N([H])[H])C2([H])[H])nc1N([H])C([H])(C([H])([H])[H])C([H])([H])Oc1c([H])c([H])c2c(c1[H])C([H])([H])N(C(=O)C([H])(N([H])C(=O)C([H])(N([H])C([H])([H])[H])C([H])([H])[H])C(C([H])([H])[H])(C([H])([H])[H])C([H])([H])[H])C([H])(C(=O)N([H])C1([H])c3c([H])c([H])c([H])c([H])c3C([H])([H])C([H])([H])C1([H])[H])C2([H])[H]

$$$$
75:0:0
     RDKit          3D

 91 99  0  0  1  0  0  0  0  0999 V2000
  -27.9960  -17.1890   20.3870 C   0  0  0  0  0  3  0  0  0  0  0  0
  -27.2040  -18.3450   20.3310 C   0  0  0  0  0  3  0  0  0  0  0  0
  -29.3840  -17.3160   20.4540 C   0  0  0  0  0  0  0  0  0  0  0  0
  -29.0450  -19.7010   20.3740 C   0  0  0  0  0  0  0  0  0  0  0  0
  -27.7290  -19.5850   20.3340 N   0  0  0  0  0  0  0  0  0  0  0  0
  -29.8880  -18.6240   20.4240 N   0  0  0  0  0  0  0  0  0  0  0  0
  -29.5230  -21.0500   20.3290 N   0  0  0  0  0  0  0  0  0  0  0  0
  -30.5320  -21.1180   20.2760 H   0  0  0  0  0  0  0  0  0  0  0  0
  -31.5000  -16.5520   21.6350 C   0  0  0  0  0  1  0  0  0  0  0  0
  -30.2350  -16.0330   20.9280 C   0  0  0  0  0  3  0  0  0  0  0  0
  -30.6090  -14.7310   20.0190 C   0  0  0  0  0  0  0  0  0  0  0  0
  -30.2800  -12.4650   18.9630 C   0  0  0  0  0  2  0  0  0  0  0  0
  -29.2760  -12.5270   17.7910 C   0  0  0  0  0  2  0  0  0  0  0  0
  -27.8400  -12.3430   18.3090 C   0  0  0  0  0  2  0  0  0  0  0  0
  -27.5410  -13.2330   19.5440 C   0  0  0  0  0  3  0  0  0  0  0  0
  -28.6640  -13.1580   20.6060 C   0  0  0  0  0  2  0  0  0  0  0  0
  -29.9260  -13.5230   19.9490 N   0  0  0  0  0  0  0  0  0  0  0  0
  -31.6690  -14.8060   19.3840 O   0  0  0  0  0  0  0  0  0  0  0  0
  -25.2050  -13.8180   20.4310 C   0  0  0  0  0  0  0  0  0  0  0  0
  -24.1680  -13.0440   20.8710 C   0  0  0  0  0  0  0  0  0  0  0  0
  -24.6150  -11.6940   20.7710 C   0  0  0  0  0  0  0  0  0  0  0  0
  -26.2290  -12.9400   20.1130 N   0  0  0  0  0  0  0  0  0  0  0  0
  -25.8830  -11.6530   20.3780 N   0  0  0  0  0  0  0  0  0  0  0  0
  -23.8850  -10.4360   20.9740 C   0  0  0  0  0  0  0  0  0  0  0  0
  -24.3530   -9.4430   21.8610 C   0  0  0  0  0  3  0  0  0  0  0  0
  -23.6200   -8.2510   22.0540 C   0  0  0  0  0  3  0  0  0  0  0  0
  -22.4070   -8.0460   21.3580 C   0  0  0  0  0  0  0  0  0  0  0  0
  -21.9550   -9.0270   20.4590 C   0  0  0  0  0  3  0  0  0  0  0  0
  -22.6890  -10.2100   20.2640 C   0  0  0  0  0  3  0  0  0  0  0  0
  -21.6440   -6.9090   21.4590 O   0  0  0  0  0  0  0  0  0  0  0  0
  -21.6320   -6.1520   22.6020 C   0  0  0  0  0  0  0  0  0  0  0  0
  -21.2390   -6.6910   23.8480 C   0  0  0  0  0  3  0  0  0  0  0  0
  -21.1750   -5.8590   24.9840 C   0  0  0  0  0  3  0  0  0  0  0  0
  -21.4980   -4.4940   24.8780 C   0  0  0  0  0  0  0  0  0  0  0  0
  -21.8870   -3.9570   23.6380 C   0  0  0  0  0  3  0  0  0  0  0  0
  -21.9500   -4.7830   22.5030 C   0  0  0  0  0  0  0  0  0  0  0  0
  -22.3040   -4.2570   21.3060 F   0  0  0  0  0  0  0  0  0  0  0  0
  -21.4300   -3.6940   25.9670 F   0  0  0  0  0  0  0  0  0  0  0  0
  -22.8020  -13.5320   21.2550 C   0  0  0  0  0  0  0  0  0  0  0  0
  -22.1320  -12.8210   22.1560 N   0  0  0  0  0  0  0  0  0  0  0  0
  -22.3460  -14.5800   20.8020 O   0  0  0  0  0  0  0  0  0  0  0  0
  -22.5190  -11.9760   22.5460 H   0  0  0  0  0  0  0  0  0  0  0  0
  -21.2250  -13.1370   22.4690 H   0  0  0  0  0  0  0  0  0  0  0  0
  -25.3370  -15.1860   20.2430 N   0  0  0  0  0  0  0  0  0  0  0  0
  -24.5190  -15.7830   20.3040 H   0  0  0  0  0  0  0  0  0  0  0  0
  -26.0660  -15.5780   19.6600 H   0  0  0  0  0  0  0  0  0  0  0  0
  -29.1660  -22.4630   22.3350 C   0  0  0  0  0  1  0  0  0  0  0  0
  -28.8280  -22.3060   20.8410 C   0  0  0  0  0  3  0  0  0  0  0  0
  -29.0690  -23.7150   20.0710 C   0  0  0  0  0  3  0  0  0  0  0  0
  -28.2730  -25.0460   20.5460 C   0  0  0  0  0  3  0  0  0  0  0  0
  -28.4170  -26.3780   19.8710 O   0  0  0  0  0  0  0  0  0  0  0  0
  -24.6150  -31.6510   23.0680 C   0  0  0  0  0  0  0  0  0  0  0  0
  -27.2980  -27.2370   19.8640 C   0  0  0  0  0  0  0  0  0  0  0  0
  -23.4280  -30.2910   21.3860 C   0  0  0  0  0  3  0  0  0  0  0  0
  -24.9020  -28.8190   19.8930 C   0  0  0  0  0  0  0  0  0  0  0  0
  -25.9590  -30.6590   21.1960 C   0  0  0  0  0  2  0  0  0  0  0  0
  -26.0660  -29.3060   20.5000 C   0  0  0  0  0  0  0  0  0  0  0  0
  -27.2680  -28.5330   20.4730 C   0  0  0  0  0  3  0  0  0  0  0  0
  -26.1150  -26.8080   19.2210 C   0  0  0  0  0  3  0  0  0  0  0  0
  -24.9320  -27.5770   19.2360 C   0  0  0  0  0  3  0  0  0  0  0  0
  -23.6450  -29.6720   19.9800 C   0  0  0  0  0  2  0  0  0  0  0  0
  -24.6870  -30.8850   21.9400 N   0  0  0  0  0  0  0  0  0  0  0  0
  -23.5310  -31.8910   23.6160 O   0  0  0  0  0  0  0  0  0  0  0  0
  -22.7950  -29.2250   22.3090 C   0  0  0  0  0  0  0  0  0  0  0  0
  -21.4700  -29.0360   22.1850 N   0  0  0  0  0  0  0  0  0  0  0  0
  -23.4900  -28.5690   23.0900 O   0  0  0  0  0  0  0  0  0  0  0  0
  -20.9730  -29.6180   21.5250 H   0  0  0  0  0  0  0  0  0  0  0  0
  -18.1010  -27.8220   22.6870 C   0  0  0  0  0  0  0  0  0  0  0  0
  -20.6650  -28.0600   22.9170 C   0  0  0  0  0  3  0  0  0  0  0  0
  -20.7520  -26.6620   22.2590 C   0  0  0  0  0  2  0  0  0  0  0  0
  -19.6270  -26.4020   21.2510 C   0  0  0  0  0  2  0  0  0  0  0  0
  -18.2590  -26.5140   21.9310 C   0  0  0  0  0  2  0  0  0  0  0  0
  -19.2300  -28.5590   23.1330 C   0  0  0  0  0  0  0  0  0  0  0  0
  -19.0260  -29.7900   23.7920 C   0  0  0  0  0  3  0  0  0  0  0  0
  -17.7270  -30.2820   24.0120 C   0  0  0  0  0  3  0  0  0  0  0  0
  -16.6120  -29.5400   23.5830 C   0  0  0  0  0  3  0  0  0  0  0  0
  -16.8010  -28.3110   22.9270 C   0  0  0  0  0  3  0  0  0  0  0  0
  -25.8880  -32.2800   23.7110 C   0  0  0  0  0  3  0  0  0  0  0  0
  -26.4130  -31.4710   24.9610 C   0  0  1  0  0  0  0  0  0  0  0  0
  -25.3210  -31.1860   26.0220 C   0  0  0  0  0  1  0  0  0  0  0  0
  -26.9980  -30.1140   24.5130 C   0  0  0  0  0  1  0  0  0  0  0  0
  -27.5590  -32.2550   25.6440 C   0  0  0  0  0  1  0  0  0  0  0  0
  -25.5590  -33.6610   24.0890 N   0  0  0  0  0  0  0  0  0  0  0  0
  -25.8720  -34.7450   23.3650 C   0  0  0  0  0  0  0  0  0  0  0  0
  -26.5390  -34.6820   22.3270 O   0  0  0  0  0  0  0  0  0  0  0  0
  -24.9730  -33.7840   24.9030 H   0  0  0  0  0  0  0  0  0  0  0  0
  -24.1150  -36.5160   23.0790 C   0  0  0  0  0  1  0  0  0  0  0  0
  -25.3690  -36.1070   23.8710 C   0  0  0  0  0  3  0  0  0  0  0  0
  -27.4910  -36.9960   24.7270 C   0  0  0  0  0  1  0  0  0  0  0  0
  -26.3830  -37.1810   23.7930 N   0  0  0  0  0  0  0  0  0  0  0  0
  -25.9630  -38.0880   23.9830 H   0  0  0  0  0  0  0  0  0  0  0  0
  1  3  1  0
  2  5  1  0
  2  1  2  0
  3 10  1  0
  4  6  1  0
  5  4  2  0
  6  3  2  0
  7  4  1  0
  7 48  1  0
  8  7  1  0
 10  9  1  0
 11 10  1  0
 12 17  1  0
 13 14  1  0
 13 12  1  0
 15 14  1  0
 15 22  1  0
 15 16  1  0
 17 11  1  0
 17 16  1  0
 18 11  2  0
 19 20  2  0
 20 39  1  0
 21 20  1  0
 21 24  1  0
 22 23  1  0
 22 19  1  0
 23 21  2  0
 24 25  1  0
 25 26  2  0
 27 30  1  0
 27 26  1  0
 28 27  2  0
 29 28  1  0
 29 24  2  0
 30 31  1  0
 31 32  1  0
 32 33  2  0
 34 33  1  0
 34 38  1  0
 35 34  2  0
 36 31  2  0
 36 35  1  0
 37 36  1  0
 39 40  1  0
 40 43  1  0
 40 42  1  0
 41 39  2  0
 44 45  1  0
 44 19  1  0
 46 44  1  0
 48 47  1  0
 49 50  2  0
 49 48  1  0
 51 50  1  0
 52 63  2  0
 53 51  1  0
 53 58  1  0
 54 62  1  0
 54 64  1  0
 55 61  1  0
 55 57  1  0
 56 62  1  0
 57 56  1  0
 58 57  2  0
 59 60  1  0
 59 53  2  0
 60 55  2  0
 61 54  1  0
 62 52  1  0
 64 66  2  0
 65 64  1  0
 67 65  1  0
 68 77  2  0
 68 73  1  0
 69 65  1  0
 69 73  1  0
 70 69  1  0
 71 72  1  0
 71 70  1  0
 72 68  1  0
 73 74  2  0
 74 75  1  0
 76 75  2  0
 77 76  1  0
 78 52  1  0
 78 83  1  0
 78 79  1  0
 79 82  1  1
 79 80  1  0
 81 79  1  0
 83 86  1  0
 84 88  1  0
 84 83  1  0
 85 84  2  0
 88 87  1  0
 90 88  1  0
 90 91  1  0
 90 89  1  0
M  ISO  4  10 100  11 100  50 101  51 101
M  END
>  <TORSDO>  (76) 
F 20

>  <SCORE>  (76) 
-13.294

>  <name>  (76) 
75

>  <ligand_id>  (76) 
75

>  <original_smiles>  (76) 
[H]c1nc(N([H])C([H])(C([H])([H])[H])C([H])([H])C([H])([H])Oc2c([H])c([H])c3c(c2[H])C([H])([H])N(C(=O)C([H])(N([H])C(=O)C([H])(N([H])C([H])([H])[H])C([H])([H])[H])C(C([H])([H])[H])(C([H])([H])[H])C([H])([H])[H])C([H])(C(=O)N([H])C2([H])c4c([H])c([H])c([H])c([H])c4C([H])([H])C([H])([H])C2([H])[H])C3([H])[H])nc(C([H])(C(=O)N2C([H])([H])C([H])([H])C([H])([H])C([H])(n3nc(-c4c([H])c([H])c(Oc5c([H])c([H])c(F)c([H])c5F)c([H])c4[H])c(C(=O)N([H])[H])c3N([H])[H])C2([H])[H])C([H])([H])[H])c1[H]

>  <smiles>  (76) 
[H]c1nc(N([H])C([H])(C([H])([H])[H])C([H])([H])C([H])([H])Oc2c([H])c([H])c3c(c2[H])C([H])([H])N(C(=O)C([H])(N([H])C(=O)C([H])(N([H])C([H])([H])[H])C([H])([H])[H])C(C([H])([H])[H])(C([H])([H])[H])C([H])([H])[H])C([H])(C(=O)N([H])C2([H])c4c([H])c([H])c([H])c([H])c4C([H])([H])C([H])([H])C2([H])[H])C3([H])[H])nc(C([H])(C(=O)N2C([H])([H])C([H])([H])C([H])([H])C([H])(n3nc(-c4c([H])c([H])c(Oc5c([H])c([H])c(F)c([H])c5F)c([H])c4[H])c(C(=O)N([H])[H])c3N([H])[H])C2([H])[H])C([H])([H])[H])c1[H]

$$$$
76:0:0
     RDKit          3D

 90 98  0  0  1  0  0  0  0  0999 V2000
  -28.6490  -22.2870   19.4980 C   0  0  0  0  0  3  0  0  0  0  0  0
  -28.8380  -23.7290   20.1750 C   0  0  0  0  0  0  0  0  0  0  0  0
  -29.6200  -23.8720   21.1210 O   0  0  0  0  0  0  0  0  0  0  0  0
  -27.9830  -24.9780   19.6450 C   0  0  0  0  0  2  0  0  0  0  0  0
  -28.2530  -26.3780   20.1530 O   0  0  0  0  0  0  0  0  0  0  0  0
  -24.6110  -31.8970   23.2640 C   0  0  0  0  0  0  0  0  0  0  0  0
  -27.1790  -27.3040   20.1280 C   0  0  0  0  0  0  0  0  0  0  0  0
  -23.3990  -30.5130   21.6250 C   0  0  0  0  0  3  0  0  0  0  0  0
  -24.8340  -28.9730   20.1760 C   0  0  0  0  0  0  0  0  0  0  0  0
  -25.9470  -30.8010   21.4420 C   0  0  0  0  0  2  0  0  0  0  0  0
  -26.0140  -29.4240   20.7810 C   0  0  0  0  0  0  0  0  0  0  0  0
  -27.1860  -28.5970   20.7600 C   0  0  0  0  0  3  0  0  0  0  0  0
  -25.9750  -26.9470   19.4730 C   0  0  0  0  0  3  0  0  0  0  0  0
  -24.8170  -27.7370   19.5240 C   0  0  0  0  0  3  0  0  0  0  0  0
  -23.6060  -29.8550   20.2400 C   0  0  0  0  0  2  0  0  0  0  0  0
  -24.6730  -31.0890   22.1650 N   0  0  0  0  0  0  0  0  0  0  0  0
  -23.5270  -32.1770   23.8000 O   0  0  0  0  0  0  0  0  0  0  0  0
  -22.7370  -29.4890   22.5800 C   0  0  0  0  0  0  0  0  0  0  0  0
  -21.4120  -29.3080   22.4510 N   0  0  0  0  0  0  0  0  0  0  0  0
  -23.4150  -28.8650   23.3970 O   0  0  0  0  0  0  0  0  0  0  0  0
  -20.9210  -29.8640   21.7650 H   0  0  0  0  0  0  0  0  0  0  0  0
  -18.0430  -28.0840   22.9350 C   0  0  0  0  0  0  0  0  0  0  0  0
  -20.5990  -28.3650   23.2220 C   0  0  0  0  0  3  0  0  0  0  0  0
  -20.7100  -26.9320   22.6510 C   0  0  0  0  0  2  0  0  0  0  0  0
  -19.6210  -26.6030   21.6250 C   0  0  0  0  0  2  0  0  0  0  0  0
  -18.2300  -26.7400   22.2530 C   0  0  0  0  0  2  0  0  0  0  0  0
  -19.1540  -28.8530   23.3740 C   0  0  0  0  0  0  0  0  0  0  0  0
  -18.9240  -30.1140   23.9660 C   0  0  0  0  0  3  0  0  0  0  0  0
  -17.6170  -30.6070   24.1230 C   0  0  0  0  0  3  0  0  0  0  0  0
  -16.5180  -29.8350   23.7030 C   0  0  0  0  0  3  0  0  0  0  0  0
  -16.7330  -28.5740   23.1190 C   0  0  0  0  0  3  0  0  0  0  0  0
  -25.8930  -32.5270   23.8830 C   0  0  0  0  0  3  0  0  0  0  0  0
  -25.5870  -33.9290   24.2080 N   0  0  0  0  0  0  0  0  0  0  0  0
  -25.9240  -34.9770   23.4460 C   0  0  0  0  0  0  0  0  0  0  0  0
  -26.5940  -34.8680   22.4150 O   0  0  0  0  0  0  0  0  0  0  0  0
  -24.9910  -34.0870   25.0070 H   0  0  0  0  0  0  0  0  0  0  0  0
  -24.2040  -36.7790   23.0850 C   0  0  0  0  0  1  0  0  0  0  0  0
  -25.4410  -36.3710   23.8990 C   0  0  0  0  0  3  0  0  0  0  0  0
  -27.5800  -37.2470   24.7340 C   0  0  0  0  0  1  0  0  0  0  0  0
  -26.4810  -37.4170   23.7870 N   0  0  0  0  0  0  0  0  0  0  0  0
  -26.0800  -38.3400   23.9290 H   0  0  0  0  0  0  0  0  0  0  0  0
  -26.4040  -31.7590   25.1640 C   0  0  1  0  0  0  0  0  0  0  0  0
  -25.3080  -31.5310   26.2310 C   0  0  0  0  0  1  0  0  0  0  0  0
  -26.9820  -30.3780   24.7810 C   0  0  0  0  0  1  0  0  0  0  0  0
  -27.5580  -32.5500   25.8230 C   0  0  0  0  0  1  0  0  0  0  0  0
  -29.1960  -20.8870   20.1450 C   0  0  0  0  0  3  0  0  0  0  0  0
  -28.1420  -18.3820   17.6410 C   0  0  0  0  0  3  0  0  0  0  0  0
  -28.2610  -19.6470   18.1490 C   0  0  0  0  0  3  0  0  0  0  0  0
  -29.2710  -18.2220   19.5130 C   0  0  0  0  0  0  0  0  0  0  0  0
  -28.7900  -17.5020   18.4940 N   0  0  0  0  0  0  0  0  0  0  0  0
  -28.9680  -19.5970   19.3560 N   0  0  0  0  0  0  0  0  0  0  0  0
  -30.0700  -17.4160   20.6020 C   0  0  0  0  0  2  0  0  0  0  0  0
  -30.5830  -14.8060   20.4710 C   0  0  0  0  0  0  0  0  0  0  0  0
  -30.4450  -12.5210   19.4830 C   0  0  0  0  0  2  0  0  0  0  0  0
  -29.5240  -12.5750   18.2420 C   0  0  0  0  0  2  0  0  0  0  0  0
  -28.0480  -12.3910   18.6500 C   0  0  0  0  0  2  0  0  0  0  0  0
  -27.6440  -13.2760   19.8560 C   0  0  0  0  0  3  0  0  0  0  0  0
  -28.6830  -13.1890   20.9970 C   0  0  0  0  0  2  0  0  0  0  0  0
  -29.9790  -13.5670   20.4200 N   0  0  0  0  0  0  0  0  0  0  0  0
  -31.7740  -14.9220   20.1730 O   0  0  0  0  0  0  0  0  0  0  0  0
  -29.7790  -15.9120   20.6660 N   0  0  0  0  0  0  0  0  0  0  0  0
  -28.8170  -15.6900   20.8590 H   0  0  0  0  0  0  0  0  0  0  0  0
  -25.2340  -13.8490   20.5310 C   0  0  0  0  0  0  0  0  0  0  0  0
  -24.1720  -13.0650   20.8860 C   0  0  0  0  0  0  0  0  0  0  0  0
  -24.6520  -11.7190   20.8800 C   0  0  0  0  0  0  0  0  0  0  0  0
  -26.2930  -12.9800   20.3220 N   0  0  0  0  0  0  0  0  0  0  0  0
  -25.9500  -11.6950   20.6010 N   0  0  0  0  0  0  0  0  0  0  0  0
  -23.9350  -10.4500   21.0670 C   0  0  0  0  0  0  0  0  0  0  0  0
  -24.3660   -9.4940   22.0110 C   0  0  0  0  0  3  0  0  0  0  0  0
  -23.6510   -8.2900   22.1850 C   0  0  0  0  0  3  0  0  0  0  0  0
  -22.4900   -8.0350   21.4160 C   0  0  0  0  0  0  0  0  0  0  0  0
  -22.0790   -8.9830   20.4630 C   0  0  0  0  0  3  0  0  0  0  0  0
  -22.7950  -10.1780   20.2870 C   0  0  0  0  0  3  0  0  0  0  0  0
  -21.7430   -6.8840   21.5030 O   0  0  0  0  0  0  0  0  0  0  0  0
  -21.6950   -6.1440   22.6570 C   0  0  0  0  0  0  0  0  0  0  0  0
  -21.2540   -6.6950   23.8800 C   0  0  0  0  0  3  0  0  0  0  0  0
  -21.1570   -5.8800   25.0250 C   0  0  0  0  0  3  0  0  0  0  0  0
  -21.4860   -4.5130   24.9480 C   0  0  0  0  0  0  0  0  0  0  0  0
  -21.9190   -3.9610   23.7300 C   0  0  0  0  0  3  0  0  0  0  0  0
  -22.0190   -4.7730   22.5870 C   0  0  0  0  0  0  0  0  0  0  0  0
  -22.4170   -4.2320   21.4100 F   0  0  0  0  0  0  0  0  0  0  0  0
  -21.3830   -3.7270   26.0450 F   0  0  0  0  0  0  0  0  0  0  0  0
  -22.7630  -13.5250   21.1180 C   0  0  0  0  0  0  0  0  0  0  0  0
  -22.0250  -12.8280   21.9730 N   0  0  0  0  0  0  0  0  0  0  0  0
  -22.3220  -14.5400   20.5770 O   0  0  0  0  0  0  0  0  0  0  0  0
  -22.3900  -12.0040   22.4320 H   0  0  0  0  0  0  0  0  0  0  0  0
  -21.0810  -13.1180   22.1760 H   0  0  0  0  0  0  0  0  0  0  0  0
  -25.3880  -15.2210   20.3450 N   0  0  0  0  0  0  0  0  0  0  0  0
  -24.6010  -15.8580   20.4320 H   0  0  0  0  0  0  0  0  0  0  0  0
  -26.2190  -15.6680   19.9780 H   0  0  0  0  0  0  0  0  0  0  0  0
  1 46  2  0
  1  2  1  0
  2  3  2  0
  4  5  1  0
  4  2  1  0
  6 17  2  0
  7  5  1  0
  7 12  1  0
  8 16  1  0
  8 18  1  0
  9 15  1  0
  9 11  1  0
 10 16  1  0
 11 10  1  0
 12 11  2  0
 13 14  1  0
 13  7  2  0
 14  9  2  0
 15  8  1  0
 16  6  1  0
 18 20  2  0
 19 18  1  0
 21 19  1  0
 22 31  2  0
 22 27  1  0
 23 19  1  0
 23 27  1  0
 24 23  1  0
 25 26  1  0
 25 24  1  0
 26 22  1  0
 27 28  2  0
 28 29  1  0
 30 29  2  0
 31 30  1  0
 32  6  1  0
 32 33  1  0
 32 42  1  0
 33 36  1  0
 34 38  1  0
 34 33  1  0
 35 34  2  0
 38 37  1  0
 40 38  1  0
 40 41  1  0
 40 39  1  0
 42 45  1  1
 42 43  1  0
 44 42  1  0
 47 48  2  0
 47 50  1  0
 48 51  1  0
 49 52  1  0
 50 49  2  0
 51 49  1  0
 51 46  1  0
 52 61  1  0
 53 61  1  0
 54 59  1  0
 55 56  1  0
 55 54  1  0
 57 56  1  0
 57 66  1  0
 57 58  1  0
 59 53  1  0
 59 58  1  0
 60 53  2  0
 61 62  1  0
 63 64  2  0
 64 83  1  0
 65 64  1  0
 65 68  1  0
 66 63  1  0
 66 67  1  0
 67 65  2  0
 68 69  1  0
 69 70  2  0
 71 74  1  0
 71 70  1  0
 72 71  2  0
 73 72  1  0
 73 68  2  0
 74 75  1  0
 75 76  1  0
 76 77  2  0
 78 77  1  0
 78 82  1  0
 79 78  2  0
 80 75  2  0
 80 79  1  0
 81 80  1  0
 83 84  1  0
 84 87  1  0
 84 86  1  0
 85 83  2  0
 88 89  1  0
 88 63  1  0
 90 88  1  0
M  ISO  4   4 101   5 101  53 100  61 100
M  END
>  <TORSDO>  (77) 
F 21

>  <SCORE>  (77) 
-13.438

>  <name>  (77) 
76

>  <ligand_id>  (77) 
76

>  <original_smiles>  (77) 
[H]c1nc(C([H])([H])N([H])C(=O)N2C([H])([H])C([H])([H])C([H])([H])C([H])(n3nc(-c4c([H])c([H])c(Oc5c([H])c([H])c(F)c([H])c5F)c([H])c4[H])c(C(=O)N([H])[H])c3N([H])[H])C2([H])[H])n(C([H])([H])C([H])([H])C(=O)C([H])([H])Oc2c([H])c([H])c3c(c2[H])C([H])([H])N(C(=O)C([H])(N([H])C(=O)C([H])(N([H])C([H])([H])[H])C([H])([H])[H])C(C([H])([H])[H])(C([H])([H])[H])C([H])([H])[H])C([H])(C(=O)N([H])C2([H])c4c([H])c([H])c([H])c([H])c4C([H])([H])C([H])([H])C2([H])[H])C3([H])[H])c1[H]

>  <smiles>  (77) 
[H]c1nc(C([H])([H])N([H])C(=O)N2C([H])([H])C([H])([H])C([H])([H])C([H])(n3nc(-c4c([H])c([H])c(Oc5c([H])c([H])c(F)c([H])c5F)c([H])c4[H])c(C(=O)N([H])[H])c3N([H])[H])C2([H])[H])n(C([H])([H])C([H])([H])C(=O)C([H])([H])Oc2c([H])c([H])c3c(c2[H])C([H])([H])N(C(=O)C([H])(N([H])C(=O)C([H])(N([H])C([H])([H])[H])C([H])([H])[H])C(C([H])([H])[H])(C([H])([H])[H])C([H])([H])[H])C([H])(C(=O)N([H])C2([H])c4c([H])c([H])c([H])c([H])c4C([H])([H])C([H])([H])C2([H])[H])C3([H])[H])c1[H]

$$$$
77:0:0
     RDKit          3D

 93101  0  0  1  0  0  0  0  0999 V2000
  -27.8380  -20.2180   18.3580 C   0  0  0  0  0  1  0  0  0  0  0  0
  -29.1400  -20.2590   19.1870 C   0  0  0  0  0  3  0  0  0  0  0  0
  -31.0460  -14.4870   19.2830 C   0  0  0  0  0  0  0  0  0  0  0  0
  -30.5750  -12.2970   18.2900 C   0  0  0  0  0  2  0  0  0  0  0  0
  -29.4770  -12.5080   17.2260 C   0  0  0  0  0  2  0  0  0  0  0  0
  -28.0750  -12.4180   17.8600 C   0  0  0  0  0  2  0  0  0  0  0  0
  -27.9320  -13.2780   19.1450 C   0  0  0  0  0  3  0  0  0  0  0  0
  -29.1350  -13.0790   20.0950 C   0  0  0  0  0  2  0  0  0  0  0  0
  -30.3610  -13.3170   19.3230 N   0  0  0  0  0  0  0  0  0  0  0  0
  -32.2210  -14.5560   18.9190 O   0  0  0  0  0  0  0  0  0  0  0  0
  -29.3430  -18.8930   19.8560 C   0  0  0  0  0  0  0  0  0  0  0  0
  -29.0670  -18.4520   21.1420 C   0  0  0  0  0  0  0  0  0  0  0  0
  -29.9360  -16.6740   19.6780 C   0  0  0  0  0  0  0  0  0  0  0  0
  -29.8260  -17.8480   19.0460 N   0  0  0  0  0  0  0  0  0  0  0  0
  -30.2620  -15.5170   18.9300 N   0  0  0  0  0  0  0  0  0  0  0  0
  -29.4710  -16.7550   21.3670 S   0  0  0  0  0  0  0  0  0  0  0  0
  -30.4010  -15.7440   17.9580 H   0  0  0  0  0  0  0  0  0  0  0  0
  -25.7230  -13.9500   20.2750 C   0  0  0  0  0  0  0  0  0  0  0  0
  -24.6760  -13.2070   20.7490 C   0  0  0  0  0  0  0  0  0  0  0  0
  -25.0390  -11.8400   20.5470 C   0  0  0  0  0  0  0  0  0  0  0  0
  -26.6600  -13.0350   19.8180 N   0  0  0  0  0  0  0  0  0  0  0  0
  -26.2620  -11.7570   20.0390 N   0  0  0  0  0  0  0  0  0  0  0  0
  -24.2680  -10.6080   20.7510 C   0  0  0  0  0  0  0  0  0  0  0  0
  -24.6640   -9.6390   21.7010 C   0  0  0  0  0  3  0  0  0  0  0  0
  -23.8970   -8.4700   21.8920 C   0  0  0  0  0  3  0  0  0  0  0  0
  -22.7190   -8.2630   21.1340 C   0  0  0  0  0  0  0  0  0  0  0  0
  -22.3440   -9.2190   20.1740 C   0  0  0  0  0  3  0  0  0  0  0  0
  -23.1110  -10.3790   19.9820 C   0  0  0  0  0  3  0  0  0  0  0  0
  -21.9250   -7.1460   21.2330 O   0  0  0  0  0  0  0  0  0  0  0  0
  -21.7220   -6.5140   22.4340 C   0  0  0  0  0  0  0  0  0  0  0  0
  -21.1520   -7.1810   23.5400 C   0  0  0  0  0  3  0  0  0  0  0  0
  -20.8990   -6.4760   24.7340 C   0  0  0  0  0  3  0  0  0  0  0  0
  -21.1990   -5.1040   24.8190 C   0  0  0  0  0  0  0  0  0  0  0  0
  -21.7580   -4.4360   23.7160 C   0  0  0  0  0  3  0  0  0  0  0  0
  -22.0170   -5.1380   22.5260 C   0  0  0  0  0  0  0  0  0  0  0  0
  -22.5370   -4.4850   21.4590 F   0  0  0  0  0  0  0  0  0  0  0  0
  -20.9480   -4.4240   25.9620 F   0  0  0  0  0  0  0  0  0  0  0  0
  -23.3700  -13.7360   21.2690 C   0  0  0  0  0  0  0  0  0  0  0  0
  -22.7660  -13.0400   22.2270 N   0  0  0  0  0  0  0  0  0  0  0  0
  -22.9010  -14.7970   20.8620 O   0  0  0  0  0  0  0  0  0  0  0  0
  -23.1610  -12.1790   22.5750 H   0  0  0  0  0  0  0  0  0  0  0  0
  -21.8970  -13.3730   22.6180 H   0  0  0  0  0  0  0  0  0  0  0  0
  -25.9500  -15.3180   20.1750 N   0  0  0  0  0  0  0  0  0  0  0  0
  -25.2610  -16.0060   20.4610 H   0  0  0  0  0  0  0  0  0  0  0  0
  -26.7720  -15.7320   19.7550 H   0  0  0  0  0  0  0  0  0  0  0  0
  -28.5120  -19.1460   22.2120 N   0  0  0  0  0  0  0  0  0  0  0  0
  -28.0830  -20.0580   22.0930 H   0  0  0  0  0  0  0  0  0  0  0  0
  -28.2220  -18.6970   23.0760 H   0  0  0  0  0  0  0  0  0  0  0  0
  -29.1680  -21.5120   20.1350 C   0  0  0  0  0  2  0  0  0  0  0  0
  -29.4280  -22.9240   19.4810 C   0  0  0  0  0  2  0  0  0  0  0  0
  -28.5150  -24.1880   19.2500 C   0  0  0  0  0  2  0  0  0  0  0  0
  -28.8750  -25.4520   20.0890 C   0  0  0  0  0  2  0  0  0  0  0  0
  -28.7500  -26.7030   19.3910 O   0  0  0  0  0  0  0  0  0  0  0  0
  -24.6600  -31.4760   22.7640 C   0  0  0  0  0  0  0  0  0  0  0  0
  -27.5370  -27.3530   19.4650 C   0  0  0  0  0  0  0  0  0  0  0  0
  -23.5360  -30.1310   21.0170 C   0  0  0  0  0  3  0  0  0  0  0  0
  -25.0740  -28.7410   19.5290 C   0  0  0  0  0  0  0  0  0  0  0  0
  -26.0450  -30.6090   20.8800 C   0  0  0  0  0  2  0  0  0  0  0  0
  -26.2010  -29.2840   20.1610 C   0  0  0  0  0  0  0  0  0  0  0  0
  -27.4360  -28.6010   20.1220 C   0  0  0  0  0  3  0  0  0  0  0  0
  -26.3970  -26.8180   18.8330 C   0  0  0  0  0  3  0  0  0  0  0  0
  -25.1670  -27.5040   18.8640 C   0  0  0  0  0  3  0  0  0  0  0  0
  -23.7930  -29.5410   19.6050 C   0  0  0  0  0  2  0  0  0  0  0  0
  -24.7640  -30.7500   21.6130 N   0  0  0  0  0  0  0  0  0  0  0  0
  -23.5640  -31.6630   23.3080 O   0  0  0  0  0  0  0  0  0  0  0  0
  -22.9190  -29.0250   21.9030 C   0  0  0  0  0  0  0  0  0  0  0  0
  -21.5890  -28.8640   21.8220 N   0  0  0  0  0  0  0  0  0  0  0  0
  -23.6340  -28.3160   22.6170 O   0  0  0  0  0  0  0  0  0  0  0  0
  -21.0690  -29.4890   21.2220 H   0  0  0  0  0  0  0  0  0  0  0  0
  -18.2240  -27.7090   22.4460 C   0  0  0  0  0  0  0  0  0  0  0  0
  -20.8030  -27.8580   22.5370 C   0  0  0  0  0  3  0  0  0  0  0  0
  -20.8050  -26.5090   21.7800 C   0  0  0  0  0  2  0  0  0  0  0  0
  -19.6170  -26.3490   20.8270 C   0  0  0  0  0  2  0  0  0  0  0  0
  -18.2960  -26.4510   21.5950 C   0  0  0  0  0  2  0  0  0  0  0  0
  -19.4000  -28.3770   22.8750 C   0  0  0  0  0  0  0  0  0  0  0  0
  -19.2790  -29.5630   23.6320 C   0  0  0  0  0  3  0  0  0  0  0  0
  -18.0110  -30.0770   23.9630 C   0  0  0  0  0  3  0  0  0  0  0  0
  -16.8490  -29.4030   23.5510 C   0  0  0  0  0  3  0  0  0  0  0  0
  -16.9570  -28.2200   22.7970 C   0  0  0  0  0  3  0  0  0  0  0  0
  -25.9120  -32.1210   23.4380 C   0  0  0  0  0  3  0  0  0  0  0  0
  -25.5110  -33.4390   23.9490 N   0  0  0  0  0  0  0  0  0  0  0  0
  -25.7540  -34.6010   23.3290 C   0  0  0  0  0  0  0  0  0  0  0  0
  -26.4130  -34.6810   22.2890 O   0  0  0  0  0  0  0  0  0  0  0  0
  -24.9230  -33.4460   24.7700 H   0  0  0  0  0  0  0  0  0  0  0  0
  -23.9080  -36.3020   23.2030 C   0  0  0  0  0  1  0  0  0  0  0  0
  -25.1740  -35.8800   23.9640 C   0  0  0  0  0  3  0  0  0  0  0  0
  -27.2390  -36.7930   24.9280 C   0  0  0  0  0  1  0  0  0  0  0  0
  -26.1330  -37.0060   23.9990 N   0  0  0  0  0  0  0  0  0  0  0  0
  -25.6640  -37.8710   24.2570 H   0  0  0  0  0  0  0  0  0  0  0  0
  -26.5200  -31.2370   24.5950 C   0  0  1  0  0  0  0  0  0  0  0  0
  -25.4830  -30.7920   25.6510 C   0  0  0  0  0  1  0  0  0  0  0  0
  -27.1800  -29.9620   24.0180 C   0  0  0  0  0  1  0  0  0  0  0  0
  -27.6370  -32.0190   25.3240 C   0  0  0  0  0  1  0  0  0  0  0  0
  2  1  1  0
  2 11  1  0
  2 49  1  0
  3  9  1  0
  4  9  1  0
  5  6  1  0
  5  4  1  0
  7  6  1  0
  7 21  1  0
  7  8  1  0
  9  8  1  0
 10  3  2  0
 11 12  2  0
 12 16  1  0
 12 46  1  0
 13 16  1  0
 14 13  2  0
 14 11  1  0
 15  3  1  0
 15 13  1  0
 17 15  1  0
 18 19  2  0
 19 38  1  0
 20 19  1  0
 20 23  1  0
 21 22  1  0
 21 18  1  0
 22 20  2  0
 23 24  1  0
 24 25  2  0
 26 29  1  0
 26 25  1  0
 27 26  2  0
 28 27  1  0
 28 23  2  0
 29 30  1  0
 30 35  2  0
 30 31  1  0
 31 32  2  0
 32 33  1  0
 33 37  1  0
 34 33  2  0
 35 34  1  0
 36 35  1  0
 38 39  1  0
 39 41  1  0
 39 42  1  0
 40 38  2  0
 43 18  1  0
 43 44  1  0
 45 43  1  0
 46 48  1  0
 47 46  1  0
 50 49  1  0
 51 50  1  0
 51 52  1  0
 53 55  1  0
 53 52  1  0
 54 65  2  0
 55 60  1  0
 56 64  1  0
 56 66  1  0
 57 63  1  0
 57 59  1  0
 58 64  1  0
 59 58  1  0
 60 59  2  0
 61 62  1  0
 61 55  2  0
 62 57  2  0
 63 56  1  0
 64 54  1  0
 66 68  2  0
 67 66  1  0
 69 67  1  0
 70 79  2  0
 70 75  1  0
 71 67  1  0
 71 75  1  0
 72 71  1  0
 73 74  1  0
 73 72  1  0
 74 70  1  0
 75 76  2  0
 76 77  1  0
 78 77  2  0
 79 78  1  0
 80 54  1  0
 80 81  1  0
 80 90  1  0
 81 84  1  0
 82 81  1  0
 82 86  1  0
 83 82  2  0
 86 85  1  0
 86 88  1  0
 88 89  1  0
 88 87  1  0
 90 93  1  1
 90 91  1  0
 92 90  1  0
M  ISO  4   3 100  15 100  52 101  53 101
M  END
>  <TORSDO>  (78) 
F 21

>  <SCORE>  (78) 
-8.474

>  <name>  (78) 
77

>  <ligand_id>  (78) 
77

>  <original_smiles>  (78) 
[H]c1c([H])c([H])c2c(c1[H])C([H])([H])C([H])([H])C([H])([H])C2([H])N([H])C(=O)C1([H])N(C(=O)C([H])(N([H])C(=O)C([H])(N([H])C([H])([H])[H])C([H])([H])[H])C(C([H])([H])[H])(C([H])([H])[H])C([H])([H])[H])C([H])([H])c2c([H])c(OC([H])([H])C([H])([H])C([H])([H])C([H])([H])C([H])(c3nc(N([H])C(=O)N4C([H])([H])C([H])([H])C([H])([H])C([H])(n5nc(-c6c([H])c([H])c(Oc7c([H])c([H])c(F)c([H])c7F)c([H])c6[H])c(C(=O)N([H])[H])c5N([H])[H])C4([H])[H])sc3N([H])[H])C([H])([H])[H])c([H])c([H])c2C1([H])[H]

>  <smiles>  (78) 
[H]c1c([H])c([H])c2c(c1[H])C([H])([H])C([H])([H])C([H])([H])C2([H])N([H])C(=O)C1([H])N(C(=O)C([H])(N([H])C(=O)C([H])(N([H])C([H])([H])[H])C([H])([H])[H])C(C([H])([H])[H])(C([H])([H])[H])C([H])([H])[H])C([H])([H])c2c([H])c(OC([H])([H])C([H])([H])C([H])([H])C([H])([H])C([H])(c3nc(N([H])C(=O)N4C([H])([H])C([H])([H])C([H])([H])C([H])(n5nc(-c6c([H])c([H])c(Oc7c([H])c([H])c(F)c([H])c7F)c([H])c6[H])c(C(=O)N([H])[H])c5N([H])[H])C4([H])[H])sc3N([H])[H])C([H])([H])[H])c([H])c([H])c2C1([H])[H]

$$$$
78:0:0
     RDKit          3D

 92100  0  0  1  0  0  0  0  0999 V2000
  -28.6110  -23.1630   20.7420 C   0  0  0  0  0  0  0  0  0  0  0  0
  -29.4040  -22.0740   20.8490 N   0  0  0  0  0  0  0  0  0  0  0  0
  -27.5700  -23.1630   20.0790 O   0  0  0  0  0  0  0  0  0  0  0  0
  -30.2400  -22.2280   21.3940 H   0  0  0  0  0  0  0  0  0  0  0  0
  -28.4110  -18.8270   19.3860 C   0  0  0  0  0  3  0  0  0  0  0  0
  -28.2060  -20.2150   19.6830 C   0  0  0  0  0  3  0  0  0  0  0  0
  -29.5880  -18.3190   19.8720 C   0  0  0  0  0  0  0  0  0  0  0  0
  -29.2250  -20.7880   20.4100 C   0  0  0  0  0  0  0  0  0  0  0  0
  -30.4320  -19.5600   20.7770 S   0  0  0  0  0  0  0  0  0  0  0  0
  -30.2070  -16.9620   19.5900 C   0  0  0  0  0  2  0  0  0  0  0  0
  -30.0260  -15.8020   20.6210 C   0  0  0  0  0  2  0  0  0  0  0  0
  -30.6970  -14.4870   20.1210 C   0  0  0  0  0  0  0  0  0  0  0  0
  -30.3380  -12.3260   18.9920 C   0  0  0  0  0  2  0  0  0  0  0  0
  -29.3570  -12.5650   17.8260 C   0  0  0  0  0  2  0  0  0  0  0  0
  -27.9020  -12.4220   18.3120 C   0  0  0  0  0  2  0  0  0  0  0  0
  -27.6190  -13.2490   19.5960 C   0  0  0  0  0  3  0  0  0  0  0  0
  -28.7160  -13.0220   20.6590 C   0  0  0  0  0  2  0  0  0  0  0  0
  -30.0170  -13.3090   20.0420 N   0  0  0  0  0  0  0  0  0  0  0  0
  -31.8320  -14.5980   19.6490 O   0  0  0  0  0  0  0  0  0  0  0  0
  -25.2560  -13.8570   20.4120 C   0  0  0  0  0  0  0  0  0  0  0  0
  -24.1980  -13.0860   20.8100 C   0  0  0  0  0  0  0  0  0  0  0  0
  -24.6480  -11.7320   20.7400 C   0  0  0  0  0  0  0  0  0  0  0  0
  -26.2860  -12.9730   20.1250 N   0  0  0  0  0  0  0  0  0  0  0  0
  -25.9250  -11.6900   20.3800 N   0  0  0  0  0  0  0  0  0  0  0  0
  -23.9200  -10.4720   20.9390 C   0  0  0  0  0  0  0  0  0  0  0  0
  -24.3500   -9.5120   21.8810 C   0  0  0  0  0  3  0  0  0  0  0  0
  -23.6220   -8.3160   22.0670 C   0  0  0  0  0  3  0  0  0  0  0  0
  -22.4500   -8.0730   21.3110 C   0  0  0  0  0  0  0  0  0  0  0  0
  -22.0400   -9.0230   20.3580 C   0  0  0  0  0  3  0  0  0  0  0  0
  -22.7680  -10.2100   20.1710 C   0  0  0  0  0  3  0  0  0  0  0  0
  -21.6950   -6.9290   21.4060 O   0  0  0  0  0  0  0  0  0  0  0  0
  -21.6150   -6.2140   22.5750 C   0  0  0  0  0  0  0  0  0  0  0  0
  -21.1250   -6.7890   23.7680 C   0  0  0  0  0  3  0  0  0  0  0  0
  -20.9930   -5.9990   24.9280 C   0  0  0  0  0  3  0  0  0  0  0  0
  -21.3410   -4.6350   24.8950 C   0  0  0  0  0  0  0  0  0  0  0  0
  -21.8260   -4.0600   23.7080 C   0  0  0  0  0  3  0  0  0  0  0  0
  -21.9590   -4.8470   22.5500 C   0  0  0  0  0  0  0  0  0  0  0  0
  -22.4050   -4.2820   21.4010 F   0  0  0  0  0  0  0  0  0  0  0  0
  -21.2090   -3.8740   26.0070 F   0  0  0  0  0  0  0  0  0  0  0  0
  -22.8160  -13.5680   21.1470 C   0  0  0  0  0  0  0  0  0  0  0  0
  -22.1180  -12.8590   22.0270 N   0  0  0  0  0  0  0  0  0  0  0  0
  -22.3670  -14.6080   20.6680 O   0  0  0  0  0  0  0  0  0  0  0  0
  -22.4940  -12.0160   22.4360 H   0  0  0  0  0  0  0  0  0  0  0  0
  -21.1940  -13.1660   22.2980 H   0  0  0  0  0  0  0  0  0  0  0  0
  -25.4230  -15.2300   20.2510 N   0  0  0  0  0  0  0  0  0  0  0  0
  -24.6650  -15.8860   20.3980 H   0  0  0  0  0  0  0  0  0  0  0  0
  -26.2710  -15.6750   19.9210 H   0  0  0  0  0  0  0  0  0  0  0  0
  -29.0770  -24.4620   21.4740 C   0  0  0  0  0  3  0  0  0  0  0  0
  -30.5620  -23.1900   23.2560 C   0  0  0  0  0  1  0  0  0  0  0  0
  -29.4290  -24.1930   22.9720 C   0  0  0  0  0  2  0  0  0  0  0  0
  -28.0430  -25.6410   21.4070 C   0  0  0  0  0  2  0  0  0  0  0  0
  -28.1290  -26.5090   20.2610 O   0  0  0  0  0  0  0  0  0  0  0  0
  -24.4530  -31.8800   23.1660 C   0  0  0  0  0  0  0  0  0  0  0  0
  -27.0340  -27.3400   20.1800 C   0  0  0  0  0  0  0  0  0  0  0  0
  -23.2380  -30.4880   21.5180 C   0  0  0  0  0  3  0  0  0  0  0  0
  -24.6820  -28.9060   20.1220 C   0  0  0  0  0  0  0  0  0  0  0  0
  -25.7730  -30.7840   21.3600 C   0  0  0  0  0  2  0  0  0  0  0  0
  -25.8400  -29.4060   20.7330 C   0  0  0  0  0  0  0  0  0  0  0  0
  -27.0240  -28.6310   20.7600 C   0  0  0  0  0  3  0  0  0  0  0  0
  -25.8670  -26.8570   19.5540 C   0  0  0  0  0  3  0  0  0  0  0  0
  -24.6900  -27.6330   19.5260 C   0  0  0  0  0  3  0  0  0  0  0  0
  -23.4550  -29.7940   20.1450 C   0  0  0  0  0  2  0  0  0  0  0  0
  -24.5060  -31.0630   22.0750 N   0  0  0  0  0  0  0  0  0  0  0  0
  -23.3700  -32.1860   23.6840 O   0  0  0  0  0  0  0  0  0  0  0  0
  -22.5490  -29.4910   22.4750 C   0  0  0  0  0  0  0  0  0  0  0  0
  -21.2200  -29.3500   22.3360 N   0  0  0  0  0  0  0  0  0  0  0  0
  -23.2060  -28.8500   23.3000 O   0  0  0  0  0  0  0  0  0  0  0  0
  -20.7570  -29.9210   21.6430 H   0  0  0  0  0  0  0  0  0  0  0  0
  -17.8000  -28.2880   22.8320 C   0  0  0  0  0  0  0  0  0  0  0  0
  -20.3660  -28.4420   23.1010 C   0  0  0  0  0  3  0  0  0  0  0  0
  -20.4100  -27.0110   22.5190 C   0  0  0  0  0  2  0  0  0  0  0  0
  -19.2960  -26.7370   21.5040 C   0  0  0  0  0  2  0  0  0  0  0  0
  -17.9220  -26.9360   22.1500 C   0  0  0  0  0  2  0  0  0  0  0  0
  -18.9500  -29.0030   23.2630 C   0  0  0  0  0  0  0  0  0  0  0  0
  -18.7840  -30.2730   23.8580 C   0  0  0  0  0  3  0  0  0  0  0  0
  -17.5010  -30.8270   24.0260 C   0  0  0  0  0  3  0  0  0  0  0  0
  -16.3670  -30.1080   23.6140 C   0  0  0  0  0  3  0  0  0  0  0  0
  -16.5160  -28.8410   23.0200 C   0  0  0  0  0  3  0  0  0  0  0  0
  -25.7450  -32.4840   23.8010 C   0  0  0  0  0  3  0  0  0  0  0  0
  -25.4630  -33.8900   24.1240 N   0  0  0  0  0  0  0  0  0  0  0  0
  -25.8250  -34.9310   23.3630 C   0  0  0  0  0  0  0  0  0  0  0  0
  -26.5030  -34.8100   22.3390 O   0  0  0  0  0  0  0  0  0  0  0  0
  -24.8690  -34.0590   24.9220 H   0  0  0  0  0  0  0  0  0  0  0  0
  -24.1470  -36.7600   22.9740 C   0  0  0  0  0  1  0  0  0  0  0  0
  -25.3620  -36.3310   23.8090 C   0  0  0  0  0  3  0  0  0  0  0  0
  -27.4990  -37.1720   24.6830 C   0  0  0  0  0  1  0  0  0  0  0  0
  -26.4210  -37.3590   23.7130 N   0  0  0  0  0  0  0  0  0  0  0  0
  -26.0320  -38.2880   23.8460 H   0  0  0  0  0  0  0  0  0  0  0  0
  -26.2330  -31.7030   25.0810 C   0  0  1  0  0  0  0  0  0  0  0  0
  -25.1220  -31.4830   26.1360 C   0  0  0  0  0  1  0  0  0  0  0  0
  -26.7960  -30.3160   24.6930 C   0  0  0  0  0  1  0  0  0  0  0  0
  -27.3880  -32.4770   25.7590 C   0  0  0  0  0  1  0  0  0  0  0  0
  1  2  1  0
  1 48  1  0
  2  4  1  0
  3  1  2  0
  5  6  1  0
  5  7  2  0
  6  8  2  0
  7  9  1  0
  8  9  1  0
  8  2  1  0
 10  7  1  0
 10 11  1  0
 12 11  1  0
 13 18  1  0
 14 15  1  0
 14 13  1  0
 16 15  1  0
 16 23  1  0
 16 17  1  0
 18 12  1  0
 18 17  1  0
 19 12  2  0
 20 21  2  0
 21 40  1  0
 22 21  1  0
 22 25  1  0
 23 24  1  0
 23 20  1  0
 24 22  2  0
 25 26  1  0
 26 27  2  0
 28 31  1  0
 28 27  1  0
 29 28  2  0
 30 29  1  0
 30 25  2  0
 31 32  1  0
 32 33  1  0
 33 34  2  0
 35 34  1  0
 35 39  1  0
 36 35  2  0
 37 32  2  0
 37 36  1  0
 38 37  1  0
 40 41  1  0
 41 44  1  0
 41 43  1  0
 42 40  2  0
 45 46  1  0
 45 20  1  0
 47 45  1  0
 48 51  1  0
 48 50  1  0
 50 49  1  0
 52 51  1  0
 53 64  2  0
 54 52  1  0
 54 59  1  0
 55 63  1  0
 55 65  1  0
 56 62  1  0
 56 58  1  0
 57 63  1  0
 58 59  2  0
 58 57  1  0
 60 54  2  0
 61 60  1  0
 61 56  2  0
 62 55  1  0
 63 53  1  0
 65 67  2  0
 66 65  1  0
 68 66  1  0
 69 78  2  0
 69 74  1  0
 70 66  1  0
 70 74  1  0
 71 70  1  0
 72 73  1  0
 72 71  1  0
 73 69  1  0
 74 75  2  0
 75 76  1  0
 77 76  2  0
 78 77  1  0
 79 53  1  0
 79 80  1  0
 79 89  1  0
 80 83  1  0
 81 85  1  0
 81 80  1  0
 82 81  2  0
 85 84  1  0
 87 85  1  0
 87 88  1  0
 87 86  1  0
 89 92  1  1
 89 90  1  0
 91 89  1  0
M  ISO  4  11 100  12 100  51 101  52 101
M  END
>  <TORSDO>  (79) 
F 22

>  <SCORE>  (79) 
-12.700

>  <name>  (79) 
78

>  <ligand_id>  (79) 
78

>  <original_smiles>  (79) 
[H]c1c(N([H])C(=O)C([H])(C([H])([H])Oc2c([H])c([H])c3c(c2[H])C([H])([H])N(C(=O)C([H])(N([H])C(=O)C([H])(N([H])C([H])([H])[H])C([H])([H])[H])C(C([H])([H])[H])(C([H])([H])[H])C([H])([H])[H])C([H])(C(=O)N([H])C2([H])c4c([H])c([H])c([H])c([H])c4C([H])([H])C([H])([H])C2([H])[H])C3([H])[H])C([H])([H])C([H])([H])[H])sc(C([H])([H])C([H])([H])C(=O)N2C([H])([H])C([H])([H])C([H])([H])C([H])(n3nc(-c4c([H])c([H])c(Oc5c([H])c([H])c(F)c([H])c5F)c([H])c4[H])c(C(=O)N([H])[H])c3N([H])[H])C2([H])[H])c1[H]

>  <smiles>  (79) 
[H]c1c(N([H])C(=O)C([H])(C([H])([H])Oc2c([H])c([H])c3c(c2[H])C([H])([H])N(C(=O)C([H])(N([H])C(=O)C([H])(N([H])C([H])([H])[H])C([H])([H])[H])C(C([H])([H])[H])(C([H])([H])[H])C([H])([H])[H])C([H])(C(=O)N([H])C2([H])c4c([H])c([H])c([H])c([H])c4C([H])([H])C([H])([H])C2([H])[H])C3([H])[H])C([H])([H])C([H])([H])[H])sc(C([H])([H])C([H])([H])C(=O)N2C([H])([H])C([H])([H])C([H])([H])C([H])(n3nc(-c4c([H])c([H])c(Oc5c([H])c([H])c(F)c([H])c5F)c([H])c4[H])c(C(=O)N([H])[H])c3N([H])[H])C2([H])[H])c1[H]

$$$$
79:0:0
     RDKit          3D

 91 99  0  0  1  0  0  0  0  0999 V2000
  -28.8490  -17.7300   19.4070 C   0  0  0  0  0  3  0  0  0  0  0  0
  -29.7020  -18.0020   20.4460 C   0  0  0  0  0  0  0  0  0  0  0  0
  -28.9990  -20.1450   19.9030 C   0  0  0  0  0  0  0  0  0  0  0  0
  -29.7580  -19.3980   20.7330 N   0  0  0  0  0  0  0  0  0  0  0  0
  -28.8120  -21.5420   19.8740 N   0  0  0  0  0  0  0  0  0  0  0  0
  -28.1440  -19.1680   18.7180 S   0  0  0  0  0  0  0  0  0  0  0  0
  -28.3040  -21.7760   19.0270 H   0  0  0  0  0  0  0  0  0  0  0  0
  -30.3220  -22.7760   21.3920 C   0  0  0  0  0  1  0  0  0  0  0  0
  -28.9280  -22.7260   20.7490 C   0  0  0  0  0  3  0  0  0  0  0  0
  -28.5440  -24.0670   20.0050 C   0  0  0  0  0  3  0  0  0  0  0  0
  -28.4900  -25.3730   20.8840 C   0  0  0  0  0  3  0  0  0  0  0  0
  -28.4550  -26.6530   20.2030 O   0  0  0  0  0  0  0  0  0  0  0  0
  -24.6090  -31.8920   23.2530 C   0  0  0  0  0  0  0  0  0  0  0  0
  -27.2870  -27.3910   20.2530 C   0  0  0  0  0  0  0  0  0  0  0  0
  -23.4220  -30.4680   21.6130 C   0  0  0  0  0  3  0  0  0  0  0  0
  -24.8940  -28.9090   20.2260 C   0  0  0  0  0  0  0  0  0  0  0  0
  -25.9490  -30.8290   21.4320 C   0  0  0  0  0  2  0  0  0  0  0  0
  -26.0480  -29.4440   20.8150 C   0  0  0  0  0  0  0  0  0  0  0  0
  -27.2500  -28.6900   20.8260 C   0  0  0  0  0  3  0  0  0  0  0  0
  -26.1170  -26.8780   19.6620 C   0  0  0  0  0  3  0  0  0  0  0  0
  -24.9250  -27.6270   19.6470 C   0  0  0  0  0  3  0  0  0  0  0  0
  -23.6480  -29.7680   20.2460 C   0  0  0  0  0  2  0  0  0  0  0  0
  -24.6770  -31.0800   22.1590 N   0  0  0  0  0  0  0  0  0  0  0  0
  -23.5230  -32.1640   23.7830 O   0  0  0  0  0  0  0  0  0  0  0  0
  -22.7620  -29.4610   22.5810 C   0  0  0  0  0  0  0  0  0  0  0  0
  -21.4360  -29.2830   22.4530 N   0  0  0  0  0  0  0  0  0  0  0  0
  -23.4410  -28.8400   23.4020 O   0  0  0  0  0  0  0  0  0  0  0  0
  -20.9480  -29.8340   21.7610 H   0  0  0  0  0  0  0  0  0  0  0  0
  -18.0590  -28.1020   22.9540 C   0  0  0  0  0  0  0  0  0  0  0  0
  -20.6170  -28.3520   23.2270 C   0  0  0  0  0  3  0  0  0  0  0  0
  -20.7180  -26.9180   22.6570 C   0  0  0  0  0  2  0  0  0  0  0  0
  -19.6140  -26.5960   21.6430 C   0  0  0  0  0  2  0  0  0  0  0  0
  -18.2330  -26.7500   22.2840 C   0  0  0  0  0  2  0  0  0  0  0  0
  -19.1800  -28.8610   23.3820 C   0  0  0  0  0  0  0  0  0  0  0  0
  -18.9670  -30.1290   23.9680 C   0  0  0  0  0  3  0  0  0  0  0  0
  -17.6630  -30.6340   24.1340 C   0  0  0  0  0  3  0  0  0  0  0  0
  -16.5560  -29.8730   23.7200 C   0  0  0  0  0  3  0  0  0  0  0  0
  -16.7550  -28.6090   23.1360 C   0  0  0  0  0  3  0  0  0  0  0  0
  -25.8880  -32.5360   23.8750 C   0  0  0  0  0  3  0  0  0  0  0  0
  -26.4050  -31.7730   25.1570 C   0  0  1  0  0  0  0  0  0  0  0  0
  -25.3090  -31.5390   26.2220 C   0  0  0  0  0  1  0  0  0  0  0  0
  -26.9950  -30.3970   24.7720 C   0  0  0  0  0  1  0  0  0  0  0  0
  -27.5500  -32.5740   25.8200 C   0  0  0  0  0  1  0  0  0  0  0  0
  -25.5740  -33.9330   24.1960 N   0  0  0  0  0  0  0  0  0  0  0  0
  -25.9070  -34.9830   23.4320 C   0  0  0  0  0  0  0  0  0  0  0  0
  -26.5820  -34.8760   22.4050 O   0  0  0  0  0  0  0  0  0  0  0  0
  -24.9820  -34.0910   24.9990 H   0  0  0  0  0  0  0  0  0  0  0  0
  -24.1750  -36.7660   23.0580 C   0  0  0  0  0  1  0  0  0  0  0  0
  -25.4130  -36.3720   23.8790 C   0  0  0  0  0  3  0  0  0  0  0  0
  -27.5390  -37.2670   24.7180 C   0  0  0  0  0  1  0  0  0  0  0  0
  -26.4410  -37.4290   23.7690 N   0  0  0  0  0  0  0  0  0  0  0  0
  -26.0290  -38.3460   23.9180 H   0  0  0  0  0  0  0  0  0  0  0  0
  -30.5170  -16.9610   21.2140 C   0  0  0  0  0  2  0  0  0  0  0  0
  -30.6730  -14.5230   20.5100 C   0  0  0  0  0  0  0  0  0  0  0  0
  -30.3450  -12.3650   19.3460 C   0  0  0  0  0  2  0  0  0  0  0  0
  -29.4120  -12.5730   18.1360 C   0  0  0  0  0  2  0  0  0  0  0  0
  -27.9370  -12.4330   18.5560 C   0  0  0  0  0  2  0  0  0  0  0  0
  -27.5980  -13.2560   19.8280 C   0  0  0  0  0  3  0  0  0  0  0  0
  -28.6530  -13.0550   20.9400 C   0  0  0  0  0  2  0  0  0  0  0  0
  -29.9770  -13.3550   20.3740 N   0  0  0  0  0  0  0  0  0  0  0  0
  -31.7950  -14.6740   20.0200 O   0  0  0  0  0  0  0  0  0  0  0  0
  -30.0290  -15.5610   21.0910 N   0  0  0  0  0  0  0  0  0  0  0  0
  -29.1200  -15.3750   21.4850 H   0  0  0  0  0  0  0  0  0  0  0  0
  -25.1970  -13.8470   20.5360 C   0  0  0  0  0  0  0  0  0  0  0  0
  -24.1300  -13.0710   20.8980 C   0  0  0  0  0  0  0  0  0  0  0  0
  -24.5950  -11.7210   20.8660 C   0  0  0  0  0  0  0  0  0  0  0  0
  -26.2460  -12.9710   20.3050 N   0  0  0  0  0  0  0  0  0  0  0  0
  -25.8880  -11.6860   20.5640 N   0  0  0  0  0  0  0  0  0  0  0  0
  -23.8700  -10.4580   21.0500 C   0  0  0  0  0  0  0  0  0  0  0  0
  -24.3090   -9.4820   21.9730 C   0  0  0  0  0  3  0  0  0  0  0  0
  -23.5840   -8.2840   22.1450 C   0  0  0  0  0  3  0  0  0  0  0  0
  -22.4050   -8.0530   21.3980 C   0  0  0  0  0  0  0  0  0  0  0  0
  -21.9870   -9.0180   20.4620 C   0  0  0  0  0  3  0  0  0  0  0  0
  -22.7130  -10.2070   20.2860 C   0  0  0  0  0  3  0  0  0  0  0  0
  -21.6470   -6.9090   21.4840 O   0  0  0  0  0  0  0  0  0  0  0  0
  -21.6130   -6.1520   22.6280 C   0  0  0  0  0  0  0  0  0  0  0  0
  -21.2070   -6.6920   23.8680 C   0  0  0  0  0  3  0  0  0  0  0  0
  -21.1180   -5.8610   25.0040 C   0  0  0  0  0  3  0  0  0  0  0  0
  -21.4270   -4.4920   24.8990 C   0  0  0  0  0  0  0  0  0  0  0  0
  -21.8270   -3.9500   23.6650 C   0  0  0  0  0  3  0  0  0  0  0  0
  -21.9150   -4.7790   22.5320 C   0  0  0  0  0  0  0  0  0  0  0  0
  -22.2790   -4.2470   21.3400 F   0  0  0  0  0  0  0  0  0  0  0  0
  -21.3350   -3.6920   25.9880 F   0  0  0  0  0  0  0  0  0  0  0  0
  -22.7320  -13.5450   21.1680 C   0  0  0  0  0  0  0  0  0  0  0  0
  -22.0000  -12.8460   22.0290 N   0  0  0  0  0  0  0  0  0  0  0  0
  -22.2940  -14.5730   20.6490 O   0  0  0  0  0  0  0  0  0  0  0  0
  -22.3670  -12.0170   22.4740 H   0  0  0  0  0  0  0  0  0  0  0  0
  -21.0610  -13.1440   22.2500 H   0  0  0  0  0  0  0  0  0  0  0  0
  -25.3610  -15.2190   20.3680 N   0  0  0  0  0  0  0  0  0  0  0  0
  -24.6010  -15.8760   20.5040 H   0  0  0  0  0  0  0  0  0  0  0  0
  -26.2290  -15.6690   20.1020 H   0  0  0  0  0  0  0  0  0  0  0  0
  1  2  2  0
  2  4  1  0
  2 53  1  0
  3  4  2  0
  5  3  1  0
  5  9  1  0
  6  1  1  0
  6  3  1  0
  7  5  1  0
  9  8  1  0
 10  9  1  0
 10 11  2  0
 12 14  1  0
 12 11  1  0
 13 24  2  0
 14 19  1  0
 15 23  1  0
 15 25  1  0
 16 22  1  0
 16 18  1  0
 17 23  1  0
 18 19  2  0
 18 17  1  0
 20 14  2  0
 21 20  1  0
 21 16  2  0
 22 15  1  0
 23 13  1  0
 25 27  2  0
 26 25  1  0
 28 26  1  0
 29 38  2  0
 29 34  1  0
 30 26  1  0
 30 34  1  0
 31 30  1  0
 32 33  1  0
 32 31  1  0
 33 29  1  0
 34 35  2  0
 35 36  1  0
 37 36  2  0
 38 37  1  0
 39 13  1  0
 39 44  1  0
 39 40  1  0
 40 43  1  1
 40 41  1  0
 42 40  1  0
 44 47  1  0
 45 49  1  0
 45 44  1  0
 46 45  2  0
 49 48  1  0
 51 49  1  0
 51 52  1  0
 51 50  1  0
 54 62  1  0
 55 60  1  0
 56 57  1  0
 56 55  1  0
 58 57  1  0
 58 67  1  0
 58 59  1  0
 60 54  1  0
 60 59  1  0
 61 54  2  0
 62 53  1  0
 62 63  1  0
 64 65  2  0
 65 84  1  0
 66 65  1  0
 66 69  1  0
 67 64  1  0
 67 68  1  0
 68 66  2  0
 69 70  1  0
 70 71  2  0
 72 75  1  0
 72 71  1  0
 73 72  2  0
 74 73  1  0
 74 69  2  0
 75 76  1  0
 76 77  1  0
 77 78  2  0
 79 78  1  0
 79 83  1  0
 80 79  2  0
 81 76  2  0
 81 80  1  0
 82 81  1  0
 84 85  1  0
 85 88  1  0
 85 87  1  0
 86 84  2  0
 89 90  1  0
 89 64  1  0
 91 89  1  0
M  ISO  4  11 101  12 101  54 100  62 100
M  END
>  <TORSDO>  (80) 
F 20

>  <SCORE>  (80) 
-14.038

>  <name>  (80) 
79

>  <ligand_id>  (80) 
79

>  <original_smiles>  (80) 
[H]c1sc(N([H])C([H])(C([H])([H])[H])C([H])([H])C([H])([H])Oc2c([H])c([H])c3c(c2[H])C([H])([H])N(C(=O)C([H])(N([H])C(=O)C([H])(N([H])C([H])([H])[H])C([H])([H])[H])C(C([H])([H])[H])(C([H])([H])[H])C([H])([H])[H])C([H])(C(=O)N([H])C2([H])c4c([H])c([H])c([H])c([H])c4C([H])([H])C([H])([H])C2([H])[H])C3([H])[H])nc1C([H])([H])N([H])C(=O)N1C([H])([H])C([H])([H])C([H])([H])C([H])(n2nc(-c3c([H])c([H])c(Oc4c([H])c([H])c(F)c([H])c4F)c([H])c3[H])c(C(=O)N([H])[H])c2N([H])[H])C1([H])[H]

>  <smiles>  (80) 
[H]c1sc(N([H])C([H])(C([H])([H])[H])C([H])([H])C([H])([H])Oc2c([H])c([H])c3c(c2[H])C([H])([H])N(C(=O)C([H])(N([H])C(=O)C([H])(N([H])C([H])([H])[H])C([H])([H])[H])C(C([H])([H])[H])(C([H])([H])[H])C([H])([H])[H])C([H])(C(=O)N([H])C2([H])c4c([H])c([H])c([H])c([H])c4C([H])([H])C([H])([H])C2([H])[H])C3([H])[H])nc1C([H])([H])N([H])C(=O)N1C([H])([H])C([H])([H])C([H])([H])C([H])(n2nc(-c3c([H])c([H])c(Oc4c([H])c([H])c(F)c([H])c4F)c([H])c3[H])c(C(=O)N([H])[H])c2N([H])[H])C1([H])[H]

$$$$
80:0:0
     RDKit          3D

 94102  0  0  1  0  0  0  0  0999 V2000
  -27.2320  -19.5640   19.3040 C   0  0  0  0  0  3  0  0  0  0  0  0
  -28.0360  -18.4280   19.5590 C   0  0  0  0  0  0  0  0  0  0  0  0
  -29.2620  -18.6550   20.2330 C   0  0  0  0  0  0  0  0  0  0  0  0
  -28.7500  -21.0120   20.2040 C   0  0  0  0  0  0  0  0  0  0  0  0
  -27.5850  -20.8260   19.6190 N   0  0  0  0  0  0  0  0  0  0  0  0
  -29.5940  -19.9810   20.5200 N   0  0  0  0  0  0  0  0  0  0  0  0
  -29.1280  -22.3850   20.4120 N   0  0  0  0  0  0  0  0  0  0  0  0
  -30.0940  -22.4500   20.7110 H   0  0  0  0  0  0  0  0  0  0  0  0
  -27.6220  -17.1730   19.0900 N   0  0  0  0  0  0  0  0  0  0  0  0
  -26.9030  -17.2040   18.3690 H   0  0  0  0  0  0  0  0  0  0  0  0
  -28.3720  -16.5580   18.7920 H   0  0  0  0  0  0  0  0  0  0  0  0
  -26.9150  -23.4010   21.2410 C   0  0  0  0  0  1  0  0  0  0  0  0
  -28.3550  -23.6660   20.7730 C   0  0  0  0  0  3  0  0  0  0  0  0
  -28.4040  -24.9800   19.8100 C   0  0  0  0  0  2  0  0  0  0  0  0
  -28.3220  -26.3990   20.3330 O   0  0  0  0  0  0  0  0  0  0  0  0
  -24.5910  -31.9040   23.2470 C   0  0  0  0  0  0  0  0  0  0  0  0
  -27.1990  -27.2620   20.2400 C   0  0  0  0  0  0  0  0  0  0  0  0
  -23.3950  -30.4990   21.6080 C   0  0  0  0  0  3  0  0  0  0  0  0
  -24.8480  -28.9290   20.1980 C   0  0  0  0  0  0  0  0  0  0  0  0
  -25.9420  -30.7910   21.4470 C   0  0  0  0  0  2  0  0  0  0  0  0
  -26.0170  -29.4060   20.8010 C   0  0  0  0  0  0  0  0  0  0  0  0
  -27.1910  -28.5860   20.8080 C   0  0  0  0  0  3  0  0  0  0  0  0
  -26.0010  -26.8500   19.6170 C   0  0  0  0  0  3  0  0  0  0  0  0
  -24.8460  -27.6610   19.5940 C   0  0  0  0  0  3  0  0  0  0  0  0
  -23.6180  -29.8150   20.2330 C   0  0  0  0  0  2  0  0  0  0  0  0
  -24.6610  -31.0850   22.1560 N   0  0  0  0  0  0  0  0  0  0  0  0
  -23.5030  -32.1900   23.7720 O   0  0  0  0  0  0  0  0  0  0  0  0
  -22.7180  -29.4940   22.5710 C   0  0  0  0  0  0  0  0  0  0  0  0
  -21.3900  -29.3280   22.4440 N   0  0  0  0  0  0  0  0  0  0  0  0
  -23.3900  -28.8660   23.3940 O   0  0  0  0  0  0  0  0  0  0  0  0
  -20.9080  -29.8840   21.7520 H   0  0  0  0  0  0  0  0  0  0  0  0
  -17.9990  -28.1720   22.9570 C   0  0  0  0  0  0  0  0  0  0  0  0
  -20.5620  -28.4000   23.2170 C   0  0  0  0  0  3  0  0  0  0  0  0
  -20.6440  -26.9680   22.6390 C   0  0  0  0  0  2  0  0  0  0  0  0
  -19.5340  -26.6610   21.6290 C   0  0  0  0  0  2  0  0  0  0  0  0
  -18.1560  -26.8220   22.2770 C   0  0  0  0  0  2  0  0  0  0  0  0
  -19.1290  -28.9200   23.3840 C   0  0  0  0  0  0  0  0  0  0  0  0
  -18.9280  -30.1830   23.9810 C   0  0  0  0  0  3  0  0  0  0  0  0
  -17.6290  -30.7000   24.1540 C   0  0  0  0  0  3  0  0  0  0  0  0
  -16.5150  -29.9490   23.7420 C   0  0  0  0  0  3  0  0  0  0  0  0
  -16.7000  -28.6870   23.1500 C   0  0  0  0  0  3  0  0  0  0  0  0
  -25.8690  -32.5380   23.8750 C   0  0  0  0  0  3  0  0  0  0  0  0
  -26.3700  -31.7790   25.1660 C   0  0  1  0  0  0  0  0  0  0  0  0
  -25.2660  -31.5610   26.2270 C   0  0  0  0  0  1  0  0  0  0  0  0
  -26.9510  -30.3930   24.8000 C   0  0  0  0  0  1  0  0  0  0  0  0
  -27.5180  -32.5770   25.8280 C   0  0  0  0  0  1  0  0  0  0  0  0
  -25.5620  -33.9410   24.1900 N   0  0  0  0  0  0  0  0  0  0  0  0
  -25.9070  -34.9870   23.4270 C   0  0  0  0  0  0  0  0  0  0  0  0
  -26.5860  -34.8730   22.4040 O   0  0  0  0  0  0  0  0  0  0  0  0
  -24.9570  -34.1040   24.9830 H   0  0  0  0  0  0  0  0  0  0  0  0
  -24.1980  -36.7920   23.0400 C   0  0  0  0  0  1  0  0  0  0  0  0
  -25.4240  -36.3820   23.8720 C   0  0  0  0  0  3  0  0  0  0  0  0
  -27.5510  -37.2610   24.7300 C   0  0  0  0  0  1  0  0  0  0  0  0
  -26.4660  -37.4270   23.7660 N   0  0  0  0  0  0  0  0  0  0  0  0
  -26.0630  -38.3510   23.8990 H   0  0  0  0  0  0  0  0  0  0  0  0
  -30.2690  -17.4520   20.5870 C   0  0  0  0  0  2  0  0  0  0  0  0
  -30.6100  -14.8240   20.4080 C   0  0  0  0  0  0  0  0  0  0  0  0
  -30.4250  -12.5450   19.3820 C   0  0  0  0  0  2  0  0  0  0  0  0
  -29.4780  -12.6020   18.1630 C   0  0  0  0  0  2  0  0  0  0  0  0
  -28.0150  -12.3970   18.6040 C   0  0  0  0  0  2  0  0  0  0  0  0
  -27.6320  -13.2840   19.8210 C   0  0  0  0  0  3  0  0  0  0  0  0
  -28.7000  -13.2160   20.9330 C   0  0  0  0  0  2  0  0  0  0  0  0
  -29.9830  -13.5970   20.3300 N   0  0  0  0  0  0  0  0  0  0  0  0
  -31.8040  -14.9130   20.1090 O   0  0  0  0  0  0  0  0  0  0  0  0
  -29.8530  -15.9700   20.6130 N   0  0  0  0  0  0  0  0  0  0  0  0
  -28.8590  -15.8390   20.7480 H   0  0  0  0  0  0  0  0  0  0  0  0
  -25.2460  -13.8440   20.5740 C   0  0  0  0  0  0  0  0  0  0  0  0
  -24.1900  -13.0570   20.9460 C   0  0  0  0  0  0  0  0  0  0  0  0
  -24.6660  -11.7100   20.8980 C   0  0  0  0  0  0  0  0  0  0  0  0
  -26.2970  -12.9770   20.3200 N   0  0  0  0  0  0  0  0  0  0  0  0
  -25.9550  -11.6880   20.5820 N   0  0  0  0  0  0  0  0  0  0  0  0
  -23.9480  -10.4400   21.0760 C   0  0  0  0  0  0  0  0  0  0  0  0
  -24.3870   -9.4660   21.9990 C   0  0  0  0  0  3  0  0  0  0  0  0
  -23.6680   -8.2610   22.1650 C   0  0  0  0  0  3  0  0  0  0  0  0
  -22.4960   -8.0250   21.4070 C   0  0  0  0  0  0  0  0  0  0  0  0
  -22.0750   -8.9900   20.4750 C   0  0  0  0  0  3  0  0  0  0  0  0
  -22.7950  -10.1850   20.3080 C   0  0  0  0  0  3  0  0  0  0  0  0
  -21.7490   -6.8760   21.4830 O   0  0  0  0  0  0  0  0  0  0  0  0
  -21.6990   -6.1240   22.6280 C   0  0  0  0  0  0  0  0  0  0  0  0
  -21.2470   -6.6610   23.8540 C   0  0  0  0  0  3  0  0  0  0  0  0
  -21.1480   -5.8350   24.9910 C   0  0  0  0  0  3  0  0  0  0  0  0
  -21.4900   -4.4720   24.9030 C   0  0  0  0  0  0  0  0  0  0  0  0
  -21.9360   -3.9340   23.6840 C   0  0  0  0  0  3  0  0  0  0  0  0
  -22.0370   -4.7580   22.5480 C   0  0  0  0  0  0  0  0  0  0  0  0
  -22.4470   -4.2290   21.3700 F   0  0  0  0  0  0  0  0  0  0  0  0
  -21.3880   -3.6770   25.9940 F   0  0  0  0  0  0  0  0  0  0  0  0
  -22.7900  -13.5200   21.2250 C   0  0  0  0  0  0  0  0  0  0  0  0
  -22.0650  -12.8090   22.0820 N   0  0  0  0  0  0  0  0  0  0  0  0
  -22.3440  -14.5500   20.7200 O   0  0  0  0  0  0  0  0  0  0  0  0
  -22.4350  -11.9770   22.5180 H   0  0  0  0  0  0  0  0  0  0  0  0
  -21.1280  -13.1070   22.3100 H   0  0  0  0  0  0  0  0  0  0  0  0
  -25.3870  -15.2190   20.4050 N   0  0  0  0  0  0  0  0  0  0  0  0
  -24.5960  -15.8420   20.5270 H   0  0  0  0  0  0  0  0  0  0  0  0
  -26.2040  -15.7020   20.0320 H   0  0  0  0  0  0  0  0  0  0  0  0
  1  2  2  0
  1  5  1  0
  2  3  1  0
  3  6  2  0
  3 56  1  0
  4  7  1  0
  4  6  1  0
  5  4  2  0
  7  8  1  0
  7 13  1  0
  9  2  1  0
 10  9  1  0
 11  9  1  0
 13 12  1  0
 14 15  1  0
 14 13  1  0
 16 27  2  0
 17 15  1  0
 17 22  1  0
 18 26  1  0
 18 28  1  0
 19 25  1  0
 19 21  1  0
 20 26  1  0
 21 22  2  0
 21 20  1  0
 23 17  2  0
 24 23  1  0
 24 19  2  0
 25 18  1  0
 26 16  1  0
 28 30  2  0
 29 28  1  0
 31 29  1  0
 32 41  2  0
 32 37  1  0
 33 29  1  0
 33 37  1  0
 34 33  1  0
 35 36  1  0
 35 34  1  0
 36 32  1  0
 37 38  2  0
 38 39  1  0
 40 39  2  0
 41 40  1  0
 42 16  1  0
 42 47  1  0
 42 43  1  0
 43 46  1  1
 43 44  1  0
 45 43  1  0
 47 50  1  0
 48 52  1  0
 48 47  1  0
 49 48  2  0
 52 51  1  0
 54 52  1  0
 54 55  1  0
 54 53  1  0
 56 65  1  0
 57 65  1  0
 58 63  1  0
 59 60  1  0
 59 58  1  0
 61 60  1  0
 61 70  1  0
 61 62  1  0
 63 57  1  0
 63 62  1  0
 64 57  2  0
 65 66  1  0
 67 68  2  0
 68 87  1  0
 69 68  1  0
 69 72  1  0
 70 67  1  0
 70 71  1  0
 71 69  2  0
 72 73  1  0
 73 74  2  0
 75 78  1  0
 75 74  1  0
 76 75  2  0
 77 76  1  0
 77 72  2  0
 78 79  1  0
 79 80  1  0
 80 81  2  0
 82 81  1  0
 82 86  1  0
 83 82  2  0
 84 79  2  0
 84 83  1  0
 85 84  1  0
 87 88  1  0
 88 91  1  0
 88 90  1  0
 89 87  2  0
 92 93  1  0
 92 67  1  0
 94 92  1  0
M  ISO  4  14 101  15 101  57 100  65 100
M  END
>  <TORSDO>  (81) 
F 20

>  <SCORE>  (81) 
-14.189

>  <name>  (81) 
80

>  <ligand_id>  (81) 
80

>  <original_smiles>  (81) 
[H]c1nc(N([H])C([H])(C([H])([H])[H])C([H])([H])Oc2c([H])c([H])c3c(c2[H])C([H])([H])N(C(=O)C([H])(N([H])C(=O)C([H])(N([H])C([H])([H])[H])C([H])([H])[H])C(C([H])([H])[H])(C([H])([H])[H])C([H])([H])[H])C([H])(C(=O)N([H])C2([H])c4c([H])c([H])c([H])c([H])c4C([H])([H])C([H])([H])C2([H])[H])C3([H])[H])nc(C([H])([H])N([H])C(=O)N2C([H])([H])C([H])([H])C([H])([H])C([H])(n3nc(-c4c([H])c([H])c(Oc5c([H])c([H])c(F)c([H])c5F)c([H])c4[H])c(C(=O)N([H])[H])c3N([H])[H])C2([H])[H])c1N([H])[H]

>  <smiles>  (81) 
[H]c1nc(N([H])C([H])(C([H])([H])[H])C([H])([H])Oc2c([H])c([H])c3c(c2[H])C([H])([H])N(C(=O)C([H])(N([H])C(=O)C([H])(N([H])C([H])([H])[H])C([H])([H])[H])C(C([H])([H])[H])(C([H])([H])[H])C([H])([H])[H])C([H])(C(=O)N([H])C2([H])c4c([H])c([H])c([H])c([H])c4C([H])([H])C([H])([H])C2([H])[H])C3([H])[H])nc(C([H])([H])N([H])C(=O)N2C([H])([H])C([H])([H])C([H])([H])C([H])(n3nc(-c4c([H])c([H])c(Oc5c([H])c([H])c(F)c([H])c5F)c([H])c4[H])c(C(=O)N([H])[H])c3N([H])[H])C2([H])[H])c1N([H])[H]

$$$$
81:0:0
     RDKit          3D

 93101  0  0  1  0  0  0  0  0999 V2000
  -29.4590  -18.5920   20.2680 C   0  0  0  0  0  0  0  0  0  0  0  0
  -27.5480  -19.3680   19.4450 C   0  0  0  0  0  0  0  0  0  0  0  0
  -28.9740  -20.8660   20.2250 C   0  0  0  0  0  0  0  0  0  0  0  0
  -28.2840  -18.3030   19.7040 N   0  0  0  0  0  4  0  0  0  0  0  0
  -29.8470  -19.8760   20.5710 N   0  0  0  0  0  0  0  0  0  0  0  0
  -27.8060  -20.6510   19.6420 N   0  0  0  0  0  2  0  0  0  0  0  0
  -26.3390  -19.0900   18.8950 N   0  0  0  0  0  0  0  0  0  0  0  0
  -29.2480  -22.2420   20.5550 N   0  0  0  0  0  0  0  0  0  0  0  0
  -26.0050  -18.1450   19.0360 H   0  0  0  0  0  0  0  0  0  0  0  0
  -25.6340  -19.8070   18.9950 H   0  0  0  0  0  0  0  0  0  0  0  0
  -30.1090  -22.3390   21.0820 H   0  0  0  0  0  0  0  0  0  0  0  0
  -30.3850  -17.3170   20.5760 C   0  0  0  0  0  2  0  0  0  0  0  0
  -30.7360  -14.6970   20.3970 C   0  0  0  0  0  0  0  0  0  0  0  0
  -30.5150  -12.4270   19.3590 C   0  0  0  0  0  2  0  0  0  0  0  0
  -29.5720  -12.5040   18.1380 C   0  0  0  0  0  2  0  0  0  0  0  0
  -28.1060  -12.3370   18.5760 C   0  0  0  0  0  2  0  0  0  0  0  0
  -27.7430  -13.2340   19.7890 C   0  0  0  0  0  3  0  0  0  0  0  0
  -28.8000  -13.1300   20.9100 C   0  0  0  0  0  2  0  0  0  0  0  0
  -30.0970  -13.4780   20.3170 N   0  0  0  0  0  0  0  0  0  0  0  0
  -31.9230  -14.7850   20.0710 O   0  0  0  0  0  0  0  0  0  0  0  0
  -29.9840  -15.8360   20.6340 N   0  0  0  0  0  0  0  0  0  0  0  0
  -29.0020  -15.6980   20.8220 H   0  0  0  0  0  0  0  0  0  0  0  0
  -25.3640  -13.8540   20.5170 C   0  0  0  0  0  0  0  0  0  0  0  0
  -24.2890  -13.0930   20.8810 C   0  0  0  0  0  0  0  0  0  0  0  0
  -24.7350  -11.7350   20.8500 C   0  0  0  0  0  0  0  0  0  0  0  0
  -26.3970  -12.9620   20.2820 N   0  0  0  0  0  0  0  0  0  0  0  0
  -26.0260  -11.6830   20.5460 N   0  0  0  0  0  0  0  0  0  0  0  0
  -23.9920  -10.4820   21.0340 C   0  0  0  0  0  0  0  0  0  0  0  0
  -24.3990   -9.5150   21.9800 C   0  0  0  0  0  3  0  0  0  0  0  0
  -23.6570   -8.3260   22.1510 C   0  0  0  0  0  3  0  0  0  0  0  0
  -22.4950   -8.0960   21.3760 C   0  0  0  0  0  0  0  0  0  0  0  0
  -22.1110   -9.0510   20.4190 C   0  0  0  0  0  3  0  0  0  0  0  0
  -22.8520  -10.2320   20.2460 C   0  0  0  0  0  3  0  0  0  0  0  0
  -21.7280   -6.9600   21.4560 O   0  0  0  0  0  0  0  0  0  0  0  0
  -21.6350   -6.2350   22.6180 C   0  0  0  0  0  0  0  0  0  0  0  0
  -21.1350   -6.8000   23.8110 C   0  0  0  0  0  3  0  0  0  0  0  0
  -20.9920   -6.0000   24.9630 C   0  0  0  0  0  3  0  0  0  0  0  0
  -21.3370   -4.6370   24.9210 C   0  0  0  0  0  0  0  0  0  0  0  0
  -21.8290   -4.0710   23.7320 C   0  0  0  0  0  3  0  0  0  0  0  0
  -21.9740   -4.8680   22.5820 C   0  0  0  0  0  0  0  0  0  0  0  0
  -22.4280   -4.3120   21.4330 F   0  0  0  0  0  0  0  0  0  0  0  0
  -21.1910   -3.8660   26.0240 F   0  0  0  0  0  0  0  0  0  0  0  0
  -22.8980  -13.5860   21.1490 C   0  0  0  0  0  0  0  0  0  0  0  0
  -22.1660  -12.9080   22.0260 N   0  0  0  0  0  0  0  0  0  0  0  0
  -22.4680  -14.6080   20.6150 O   0  0  0  0  0  0  0  0  0  0  0  0
  -22.5280  -12.0810   22.4780 H   0  0  0  0  0  0  0  0  0  0  0  0
  -21.2310  -13.2180   22.2490 H   0  0  0  0  0  0  0  0  0  0  0  0
  -25.5440  -15.2240   20.3390 N   0  0  0  0  0  0  0  0  0  0  0  0
  -24.7630  -15.8670   20.4090 H   0  0  0  0  0  0  0  0  0  0  0  0
  -26.3870  -15.6610   19.9890 H   0  0  0  0  0  0  0  0  0  0  0  0
  -28.8370  -23.5420   19.8540 C   0  0  0  0  0  2  0  0  0  0  0  0
  -28.3480  -24.8560   20.6970 C   0  0  0  0  0  2  0  0  0  0  0  0
  -28.4700  -26.2920   20.2290 O   0  0  0  0  0  0  0  0  0  0  0  0
  -24.5970  -31.7160   23.1980 C   0  0  0  0  0  0  0  0  0  0  0  0
  -27.3530  -27.1590   20.2120 C   0  0  0  0  0  0  0  0  0  0  0  0
  -23.4710  -30.3200   21.5030 C   0  0  0  0  0  3  0  0  0  0  0  0
  -24.9870  -28.7870   20.1160 C   0  0  0  0  0  0  0  0  0  0  0  0
  -26.0150  -30.6530   21.4150 C   0  0  0  0  0  2  0  0  0  0  0  0
  -26.1320  -29.2750   20.7590 C   0  0  0  0  0  0  0  0  0  0  0  0
  -27.3230  -28.4760   20.7870 C   0  0  0  0  0  3  0  0  0  0  0  0
  -26.1860  -26.7330   19.5490 C   0  0  0  0  0  3  0  0  0  0  0  0
  -25.0180  -27.5250   19.4980 C   0  0  0  0  0  3  0  0  0  0  0  0
  -23.7440  -29.6600   20.1250 C   0  0  0  0  0  2  0  0  0  0  0  0
  -24.7120  -30.9150   22.0970 N   0  0  0  0  0  0  0  0  0  0  0  0
  -23.4910  -31.9770   23.6950 O   0  0  0  0  0  0  0  0  0  0  0  0
  -22.7810  -29.2910   22.4310 C   0  0  0  0  0  0  0  0  0  0  0  0
  -21.4540  -29.1310   22.2820 N   0  0  0  0  0  0  0  0  0  0  0  0
  -23.4390  -28.6410   23.2470 O   0  0  0  0  0  0  0  0  0  0  0  0
  -20.9820  -29.7020   21.5960 H   0  0  0  0  0  0  0  0  0  0  0  0
  -18.0480  -28.0050   22.7700 C   0  0  0  0  0  0  0  0  0  0  0  0
  -20.6160  -28.1860   23.0230 C   0  0  0  0  0  3  0  0  0  0  0  0
  -20.6710  -26.7790   22.3850 C   0  0  0  0  0  2  0  0  0  0  0  0
  -19.5520  -26.5360   21.3650 C   0  0  0  0  0  2  0  0  0  0  0  0
  -18.1830  -26.6830   22.0350 C   0  0  0  0  0  2  0  0  0  0  0  0
  -19.1910  -28.7180   23.2210 C   0  0  0  0  0  0  0  0  0  0  0  0
  -19.0110  -29.9580   23.8740 C   0  0  0  0  0  3  0  0  0  0  0  0
  -17.7220  -30.4850   24.0750 C   0  0  0  0  0  3  0  0  0  0  0  0
  -16.5940  -29.7680   23.6370 C   0  0  0  0  0  3  0  0  0  0  0  0
  -16.7580  -28.5310   22.9890 C   0  0  0  0  0  3  0  0  0  0  0  0
  -25.8480  -32.3580   23.8720 C   0  0  0  0  0  3  0  0  0  0  0  0
  -26.3050  -31.6000   25.1790 C   0  0  1  0  0  0  0  0  0  0  0  0
  -25.1640  -31.3720   26.2000 C   0  0  0  0  0  1  0  0  0  0  0  0
  -26.9050  -30.2190   24.8310 C   0  0  0  0  0  1  0  0  0  0  0  0
  -27.4260  -32.4000   25.8840 C   0  0  0  0  0  1  0  0  0  0  0  0
  -25.5200  -33.7590   24.1790 N   0  0  0  0  0  0  0  0  0  0  0  0
  -25.8870  -34.8080   23.4300 C   0  0  0  0  0  0  0  0  0  0  0  0
  -26.6030  -34.6990   22.4320 O   0  0  0  0  0  0  0  0  0  0  0  0
  -24.8880  -33.9160   24.9500 H   0  0  0  0  0  0  0  0  0  0  0  0
  -24.1710  -36.5950   22.9940 C   0  0  0  0  0  1  0  0  0  0  0  0
  -25.3800  -36.2010   23.8560 C   0  0  0  0  0  3  0  0  0  0  0  0
  -27.4730  -37.1040   24.7700 C   0  0  0  0  0  1  0  0  0  0  0  0
  -26.4150  -37.2550   23.7750 N   0  0  0  0  0  0  0  0  0  0  0  0
  -26.0010  -38.1760   23.8880 H   0  0  0  0  0  0  0  0  0  0  0  0
  1  5  1  0
  1 12  1  0
  2  6  1  0
  2  4  2  0
  3  8  1  0
  3  5  2  0
  4  1  2  0
  6  3  1  0
  7 10  1  0
  7  9  1  0
  7  2  1  0
  8 11  1  0
 12 21  1  0
 13 21  1  0
 14 19  1  0
 15 16  1  0
 15 14  1  0
 17 16  1  0
 17 26  1  0
 17 18  1  0
 19 13  1  0
 19 18  1  0
 20 13  2  0
 21 22  1  0
 23 24  2  0
 24 43  1  0
 25 24  1  0
 25 28  1  0
 26 23  1  0
 26 27  1  0
 27 25  2  0
 28 29  1  0
 29 30  2  0
 31 34  1  0
 31 30  1  0
 32 31  2  0
 33 32  1  0
 33 28  2  0
 34 35  1  0
 35 36  1  0
 36 37  2  0
 38 37  1  0
 38 42  1  0
 39 38  2  0
 40 35  2  0
 40 39  1  0
 41 40  1  0
 43 44  1  0
 44 47  1  0
 44 46  1  0
 45 43  2  0
 48 49  1  0
 48 23  1  0
 50 48  1  0
 51  8  1  0
 51 52  1  0
 53 52  1  0
 54 65  2  0
 55 53  1  0
 55 60  1  0
 56 64  1  0
 56 66  1  0
 57 63  1  0
 57 59  1  0
 58 64  1  0
 59 60  2  0
 59 58  1  0
 61 55  2  0
 62 61  1  0
 62 57  2  0
 63 56  1  0
 64 54  1  0
 66 68  2  0
 67 66  1  0
 69 67  1  0
 70 79  2  0
 70 75  1  0
 71 67  1  0
 71 75  1  0
 72 71  1  0
 73 74  1  0
 73 72  1  0
 74 70  1  0
 75 76  2  0
 76 77  1  0
 78 77  2  0
 79 78  1  0
 80 54  1  0
 80 85  1  0
 80 81  1  0
 81 84  1  1
 81 82  1  0
 83 81  1  0
 85 88  1  0
 86 90  1  0
 86 85  1  0
 87 86  2  0
 90 89  1  0
 92 90  1  0
 92 93  1  0
 92 91  1  0
M  ISO  4  13 100  21 100  52 101  53 101
M  END
>  <TORSDO>  (82) 
F 19

>  <SCORE>  (82) 
-14.116

>  <name>  (82) 
81

>  <ligand_id>  (82) 
81

>  <original_smiles>  (82) 
[H]c1c([H])c([H])c2c(c1[H])C([H])([H])C([H])([H])C([H])([H])C2([H])N([H])C(=O)C1([H])N(C(=O)C([H])(N([H])C(=O)C([H])(N([H])C([H])([H])[H])C([H])([H])[H])C(C([H])([H])[H])(C([H])([H])[H])C([H])([H])[H])C([H])([H])c2c([H])c(OC([H])([H])C([H])([H])N([H])c3nc(N([H])[H])nc(C([H])([H])N([H])C(=O)N4C([H])([H])C([H])([H])C([H])([H])C([H])(n5nc(-c6c([H])c([H])c(Oc7c([H])c([H])c(F)c([H])c7F)c([H])c6[H])c(C(=O)N([H])[H])c5N([H])[H])C4([H])[H])n3)c([H])c([H])c2C1([H])[H]

>  <smiles>  (82) 
[H]c1c([H])c([H])c2c(c1[H])C([H])([H])C([H])([H])C([H])([H])C2([H])N([H])C(=O)C1([H])N(C(=O)C([H])(N([H])C(=O)C([H])(N([H])C([H])([H])[H])C([H])([H])[H])C(C([H])([H])[H])(C([H])([H])[H])C([H])([H])[H])C([H])([H])c2c([H])c(OC([H])([H])C([H])([H])N([H])c3nc(N([H])[H])nc(C([H])([H])N([H])C(=O)N4C([H])([H])C([H])([H])C([H])([H])C([H])(n5nc(-c6c([H])c([H])c(Oc7c([H])c([H])c(F)c([H])c7F)c([H])c6[H])c(C(=O)N([H])[H])c5N([H])[H])C4([H])[H])n3)c([H])c([H])c2C1([H])[H]

$$$$
82:0:0
     RDKit          3D

 98106  0  0  1  0  0  0  0  0999 V2000
  -30.4400  -20.6370   18.0280 C   0  0  0  0  0  1  0  0  0  0  0  0
  -30.2540  -20.8820   19.5450 C   0  0  0  0  0  3  0  0  0  0  0  0
  -28.9420  -17.5520   20.4680 C   0  0  0  0  0  3  0  0  0  0  0  0
  -30.1660  -19.5030   20.2250 C   0  0  0  0  0  0  0  0  0  0  0  0
  -30.0890  -16.8450   20.9130 C   0  0  0  0  0  0  0  0  0  0  0  0
  -31.3000  -18.8270   20.7670 C   0  0  0  0  0  0  0  0  0  0  0  0
  -28.9740  -18.8640   20.1130 N   0  0  0  0  0  0  0  0  0  0  0  0
  -31.2560  -17.5170   21.1050 N   0  0  0  0  0  0  0  0  0  0  0  0
  -32.5440  -19.4220   20.9430 N   0  0  0  0  0  0  0  0  0  0  0  0
  -32.6520  -20.4290   20.9390 H   0  0  0  0  0  0  0  0  0  0  0  0
  -33.2480  -18.9350   21.4860 H   0  0  0  0  0  0  0  0  0  0  0  0
  -30.6490  -14.4660   20.5490 C   0  0  0  0  0  0  0  0  0  0  0  0
  -30.3650  -12.3190   19.3620 C   0  0  0  0  0  2  0  0  0  0  0  0
  -29.4350  -12.5350   18.1500 C   0  0  0  0  0  2  0  0  0  0  0  0
  -27.9560  -12.3970   18.5590 C   0  0  0  0  0  2  0  0  0  0  0  0
  -27.6080  -13.2280   19.8230 C   0  0  0  0  0  3  0  0  0  0  0  0
  -28.6450  -12.9820   20.9420 C   0  0  0  0  0  2  0  0  0  0  0  0
  -29.9810  -13.2890   20.4010 N   0  0  0  0  0  0  0  0  0  0  0  0
  -31.7750  -14.6540   20.0760 O   0  0  0  0  0  0  0  0  0  0  0  0
  -29.9370  -15.4470   21.1380 N   0  0  0  0  0  0  0  0  0  0  0  0
  -29.0250  -15.1520   21.4510 H   0  0  0  0  0  0  0  0  0  0  0  0
  -25.2010  -13.8480   20.4950 C   0  0  0  0  0  0  0  0  0  0  0  0
  -24.1270  -13.0810   20.8560 C   0  0  0  0  0  0  0  0  0  0  0  0
  -24.5850  -11.7280   20.8410 C   0  0  0  0  0  0  0  0  0  0  0  0
  -26.2470  -12.9620   20.2830 N   0  0  0  0  0  0  0  0  0  0  0  0
  -25.8790  -11.6830   20.5500 N   0  0  0  0  0  0  0  0  0  0  0  0
  -23.8550  -10.4680   21.0300 C   0  0  0  0  0  0  0  0  0  0  0  0
  -24.2730   -9.5090   21.9800 C   0  0  0  0  0  3  0  0  0  0  0  0
  -23.5440   -8.3130   22.1550 C   0  0  0  0  0  3  0  0  0  0  0  0
  -22.3850   -8.0680   21.3820 C   0  0  0  0  0  0  0  0  0  0  0  0
  -21.9860   -9.0170   20.4240 C   0  0  0  0  0  3  0  0  0  0  0  0
  -22.7150  -10.2040   20.2460 C   0  0  0  0  0  3  0  0  0  0  0  0
  -21.6280   -6.9240   21.4670 O   0  0  0  0  0  0  0  0  0  0  0  0
  -21.5610   -6.1890   22.6230 C   0  0  0  0  0  0  0  0  0  0  0  0
  -21.1050   -6.7520   23.8370 C   0  0  0  0  0  3  0  0  0  0  0  0
  -20.9850   -5.9440   24.9850 C   0  0  0  0  0  3  0  0  0  0  0  0
  -21.3100   -4.5750   24.9220 C   0  0  0  0  0  0  0  0  0  0  0  0
  -21.7580   -4.0130   23.7140 C   0  0  0  0  0  3  0  0  0  0  0  0
  -21.8800   -4.8180   22.5680 C   0  0  0  0  0  0  0  0  0  0  0  0
  -22.2920   -4.2670   21.4010 F   0  0  0  0  0  0  0  0  0  0  0  0
  -21.1860   -3.7970   26.0220 F   0  0  0  0  0  0  0  0  0  0  0  0
  -22.7270  -13.5620   21.1050 C   0  0  0  0  0  0  0  0  0  0  0  0
  -21.9840  -12.8730   21.9640 N   0  0  0  0  0  0  0  0  0  0  0  0
  -22.2990  -14.5870   20.5740 O   0  0  0  0  0  0  0  0  0  0  0  0
  -22.3430  -12.0460   22.4170 H   0  0  0  0  0  0  0  0  0  0  0  0
  -21.0450  -13.1790   22.1730 H   0  0  0  0  0  0  0  0  0  0  0  0
  -25.3690  -15.2160   20.3060 N   0  0  0  0  0  0  0  0  0  0  0  0
  -24.5880  -15.8600   20.3780 H   0  0  0  0  0  0  0  0  0  0  0  0
  -26.1960  -15.6420   19.9090 H   0  0  0  0  0  0  0  0  0  0  0  0
  -29.0910  -21.7650   19.8710 N   0  0  0  0  0  4  0  0  0  0  0  0
  -29.1500  -21.9640   20.8570 H   0  0  0  0  0  0  0  0  0  0  0  0
  -28.2530  -21.2200   19.7410 H   0  0  0  0  0  0  0  0  0  0  0  0
  -27.9610  -22.9220   17.9730 C   0  0  0  0  0  1  0  0  0  0  0  0
  -28.9850  -23.0570   19.1180 C   0  0  0  0  0  3  0  0  0  0  0  0
  -28.6600  -24.2920   20.0200 C   0  0  0  0  0  2  0  0  0  0  0  0
  -30.1930  -25.9950   18.8250 C   0  0  0  0  0  1  0  0  0  0  0  0
  -28.7730  -25.6870   19.3220 C   0  0  0  0  0  3  0  0  0  0  0  0
  -28.4850  -26.7570   20.2360 O   0  0  0  0  0  0  0  0  0  0  0  0
  -24.6040  -31.8990   23.2410 C   0  0  0  0  0  0  0  0  0  0  0  0
  -27.2840  -27.4410   20.1940 C   0  0  0  0  0  0  0  0  0  0  0  0
  -23.4110  -30.4860   21.5970 C   0  0  0  0  0  3  0  0  0  0  0  0
  -24.8760  -28.9390   20.1910 C   0  0  0  0  0  0  0  0  0  0  0  0
  -25.9380  -30.8450   21.4160 C   0  0  0  0  0  2  0  0  0  0  0  0
  -26.0280  -29.4690   20.7850 C   0  0  0  0  0  0  0  0  0  0  0  0
  -27.2280  -28.7240   20.7890 C   0  0  0  0  0  3  0  0  0  0  0  0
  -26.1060  -26.9170   19.6120 C   0  0  0  0  0  3  0  0  0  0  0  0
  -24.9100  -27.6610   19.6060 C   0  0  0  0  0  3  0  0  0  0  0  0
  -23.6310  -29.7970   20.2230 C   0  0  0  0  0  2  0  0  0  0  0  0
  -24.6700  -31.0920   22.1430 N   0  0  0  0  0  0  0  0  0  0  0  0
  -23.5190  -32.1720   23.7720 O   0  0  0  0  0  0  0  0  0  0  0  0
  -22.7560  -29.4690   22.5600 C   0  0  0  0  0  0  0  0  0  0  0  0
  -21.4320  -29.2880   22.4270 N   0  0  0  0  0  0  0  0  0  0  0  0
  -23.4360  -28.8440   23.3790 O   0  0  0  0  0  0  0  0  0  0  0  0
  -20.9460  -29.8440   21.7360 H   0  0  0  0  0  0  0  0  0  0  0  0
  -18.0520  -28.1190   22.9280 C   0  0  0  0  0  0  0  0  0  0  0  0
  -20.6110  -28.3550   23.1970 C   0  0  0  0  0  3  0  0  0  0  0  0
  -20.7010  -26.9240   22.6170 C   0  0  0  0  0  2  0  0  0  0  0  0
  -19.5960  -26.6140   21.6030 C   0  0  0  0  0  2  0  0  0  0  0  0
  -18.2160  -26.7690   22.2490 C   0  0  0  0  0  2  0  0  0  0  0  0
  -19.1760  -28.8710   23.3590 C   0  0  0  0  0  0  0  0  0  0  0  0
  -18.9690  -30.1340   23.9540 C   0  0  0  0  0  3  0  0  0  0  0  0
  -17.6680  -30.6450   24.1220 C   0  0  0  0  0  3  0  0  0  0  0  0
  -16.5570  -29.8900   23.7070 C   0  0  0  0  0  3  0  0  0  0  0  0
  -16.7500  -28.6290   23.1160 C   0  0  0  0  0  3  0  0  0  0  0  0
  -25.8860  -32.5340   23.8650 C   0  0  0  0  0  3  0  0  0  0  0  0
  -25.5710  -33.9320   24.1910 N   0  0  0  0  0  0  0  0  0  0  0  0
  -25.9070  -34.9830   23.4310 C   0  0  0  0  0  0  0  0  0  0  0  0
  -26.5840  -34.8780   22.4040 O   0  0  0  0  0  0  0  0  0  0  0  0
  -24.9720  -34.0870   24.9880 H   0  0  0  0  0  0  0  0  0  0  0  0
  -24.1800  -36.7730   23.0530 C   0  0  0  0  0  1  0  0  0  0  0  0
  -25.4120  -36.3720   23.8810 C   0  0  0  0  0  3  0  0  0  0  0  0
  -27.5360  -37.2590   24.7340 C   0  0  0  0  0  1  0  0  0  0  0  0
  -26.4440  -37.4270   23.7790 N   0  0  0  0  0  0  0  0  0  0  0  0
  -26.0340  -38.3460   23.9230 H   0  0  0  0  0  0  0  0  0  0  0  0
  -26.4010  -31.7670   25.1450 C   0  0  1  0  0  0  0  0  0  0  0  0
  -25.3050  -31.5280   26.2090 C   0  0  0  0  0  1  0  0  0  0  0  0
  -26.9900  -30.3910   24.7540 C   0  0  0  0  0  1  0  0  0  0  0  0
  -27.5460  -32.5660   25.8090 C   0  0  0  0  0  1  0  0  0  0  0  0
  2  1  1  0
  2 50  1  0
  2  4  1  0
  3  5  1  0
  4  6  2  0
  5  8  2  0
  5 20  1  0
  6  9  1  0
  6  8  1  0
  7  4  1  0
  7  3  2  0
  9 11  1  0
 10  9  1  0
 12 20  1  0
 13 18  1  0
 14 15  1  0
 14 13  1  0
 16 15  1  0
 16 25  1  0
 16 17  1  0
 18 12  1  0
 18 17  1  0
 19 12  2  0
 20 21  1  0
 22 23  2  0
 23 42  1  0
 24 23  1  0
 24 27  1  0
 25 22  1  0
 25 26  1  0
 26 24  2  0
 27 28  1  0
 28 29  2  0
 30 33  1  0
 30 29  1  0
 31 30  2  0
 32 31  1  0
 32 27  2  0
 33 34  1  0
 34 35  1  0
 35 36  2  0
 37 36  1  0
 37 41  1  0
 38 37  2  0
 39 34  2  0
 39 38  1  0
 40 39  1  0
 42 43  1  0
 43 46  1  0
 43 45  1  0
 44 42  2  0
 47 48  1  0
 47 22  1  0
 49 47  1  0
 50 51  1  0
 52 50  1  0
 54 53  1  0
 54 50  1  0
 54 55  1  0
 57 56  1  0
 57 55  1  0
 57 58  1  0
 59 70  2  0
 60 58  1  0
 60 65  1  0
 61 69  1  0
 61 71  1  0
 62 68  1  0
 62 64  1  0
 63 69  1  0
 64 65  2  0
 64 63  1  0
 66 60  2  0
 67 66  1  0
 67 62  2  0
 68 61  1  0
 69 59  1  0
 71 73  2  0
 72 71  1  0
 74 72  1  0
 75 84  2  0
 75 80  1  0
 76 72  1  0
 76 80  1  0
 77 76  1  0
 78 79  1  0
 78 77  1  0
 79 75  1  0
 80 81  2  0
 81 82  1  0
 83 82  2  0
 84 83  1  0
 85 59  1  0
 85 86  1  0
 85 95  1  0
 86 89  1  0
 87 91  1  0
 87 86  1  0
 88 87  2  0
 91 90  1  0
 93 91  1  0
 93 94  1  0
 93 92  1  0
 95 98  1  1
 95 96  1  0
 97 95  1  0
M  ISO  4  12 100  20 100  57 101  58 101
M  END
>  <TORSDO>  (83) 
F 21

>  <SCORE>  (83) 
-13.791

>  <name>  (83) 
82

>  <ligand_id>  (83) 
82

>  <original_smiles>  (83) 
[H]c1nc(C([H])(C([H])([H])[H])[N+]([H])([H])C([H])(C([H])([H])[H])C([H])([H])C([H])(Oc2c([H])c([H])c3c(c2[H])C([H])([H])N(C(=O)C([H])(N([H])C(=O)C([H])(N([H])C([H])([H])[H])C([H])([H])[H])C(C([H])([H])[H])(C([H])([H])[H])C([H])([H])[H])C([H])(C(=O)N([H])C2([H])c4c([H])c([H])c([H])c([H])c4C([H])([H])C([H])([H])C2([H])[H])C3([H])[H])C([H])([H])[H])c(N([H])[H])nc1N([H])C(=O)N1C([H])([H])C([H])([H])C([H])([H])C([H])(n2nc(-c3c([H])c([H])c(Oc4c([H])c([H])c(F)c([H])c4F)c([H])c3[H])c(C(=O)N([H])[H])c2N([H])[H])C1([H])[H]

>  <smiles>  (83) 
[H]c1nc(C([H])(C([H])([H])[H])[N+]([H])([H])C([H])(C([H])([H])[H])C([H])([H])C([H])(Oc2c([H])c([H])c3c(c2[H])C([H])([H])N(C(=O)C([H])(N([H])C(=O)C([H])(N([H])C([H])([H])[H])C([H])([H])[H])C(C([H])([H])[H])(C([H])([H])[H])C([H])([H])[H])C([H])(C(=O)N([H])C2([H])c4c([H])c([H])c([H])c([H])c4C([H])([H])C([H])([H])C2([H])[H])C3([H])[H])C([H])([H])[H])c(N([H])[H])nc1N([H])C(=O)N1C([H])([H])C([H])([H])C([H])([H])C([H])(n2nc(-c3c([H])c([H])c(Oc4c([H])c([H])c(F)c([H])c4F)c([H])c3[H])c(C(=O)N([H])[H])c2N([H])[H])C1([H])[H]

$$$$
83:0:0
     RDKit          3D

 97105  0  0  1  0  0  0  0  0999 V2000
  -30.0630  -21.6910   20.9370 C   0  0  0  0  0  0  0  0  0  0  0  0
  -29.6700  -20.4070   21.1200 N   0  0  0  0  0  0  0  0  0  0  0  0
  -31.2420  -21.9940   20.7410 O   0  0  0  0  0  0  0  0  0  0  0  0
  -28.6750  -20.2350   21.1690 H   0  0  0  0  0  0  0  0  0  0  0  0
  -30.4260  -18.6080   22.6360 C   0  0  0  0  0  1  0  0  0  0  0  0
  -30.5130  -19.1810   21.2130 C   0  0  0  0  0  3  0  0  0  0  0  0
  -29.8290  -17.8140   17.8950 C   0  0  0  0  0  3  0  0  0  0  0  0
  -30.2050  -18.1490   20.1260 C   0  0  0  0  0  0  0  0  0  0  0  0
  -30.1060  -16.7460   20.1190 C   0  0  0  0  0  0  0  0  0  0  0  0
  -30.0530  -18.7110   18.8480 N   0  0  0  0  0  0  0  0  0  0  0  0
  -29.7830  -16.1790   18.4830 S   0  0  0  0  0  0  0  0  0  0  0  0
  -30.9230  -14.6930   21.0460 C   0  0  0  0  0  0  0  0  0  0  0  0
  -30.7770  -12.4000   20.1640 C   0  0  0  0  0  2  0  0  0  0  0  0
  -29.9840  -12.4500   18.8430 C   0  0  0  0  0  2  0  0  0  0  0  0
  -28.4670  -12.3580   19.1060 C   0  0  0  0  0  2  0  0  0  0  0  0
  -27.9750  -13.2840   20.2520 C   0  0  0  0  0  3  0  0  0  0  0  0
  -28.9110  -13.2150   21.4800 C   0  0  0  0  0  2  0  0  0  0  0  0
  -30.2820  -13.4890   21.0230 N   0  0  0  0  0  0  0  0  0  0  0  0
  -32.1250  -14.8060   20.7900 O   0  0  0  0  0  0  0  0  0  0  0  0
  -30.1460  -15.8020   21.1230 N   0  0  0  0  0  0  0  0  0  0  0  0
  -29.2480  -15.6160   21.5430 H   0  0  0  0  0  0  0  0  0  0  0  0
  -25.5180  -13.8850   20.7210 C   0  0  0  0  0  0  0  0  0  0  0  0
  -24.4210  -13.1140   21.0000 C   0  0  0  0  0  0  0  0  0  0  0  0
  -24.8860  -11.7630   21.0430 C   0  0  0  0  0  0  0  0  0  0  0  0
  -26.5820  -13.0050   20.6120 N   0  0  0  0  0  0  0  0  0  0  0  0
  -26.2010  -11.7240   20.8620 N   0  0  0  0  0  0  0  0  0  0  0  0
  -24.1480  -10.5020   21.1930 C   0  0  0  0  0  0  0  0  0  0  0  0
  -24.4980   -9.5510   22.1760 C   0  0  0  0  0  3  0  0  0  0  0  0
  -23.7600   -8.3530   22.3100 C   0  0  0  0  0  3  0  0  0  0  0  0
  -22.6570   -8.1000   21.4590 C   0  0  0  0  0  0  0  0  0  0  0  0
  -22.3270   -9.0430   20.4710 C   0  0  0  0  0  3  0  0  0  0  0  0
  -23.0640  -10.2300   20.3350 C   0  0  0  0  0  3  0  0  0  0  0  0
  -21.9000   -6.9550   21.5000 O   0  0  0  0  0  0  0  0  0  0  0  0
  -21.7600   -6.2240   22.6520 C   0  0  0  0  0  0  0  0  0  0  0  0
  -21.1880   -6.7760   23.8200 C   0  0  0  0  0  3  0  0  0  0  0  0
  -20.9980   -5.9690   24.9590 C   0  0  0  0  0  3  0  0  0  0  0  0
  -21.3700   -4.6120   24.9330 C   0  0  0  0  0  0  0  0  0  0  0  0
  -21.9330   -4.0580   23.7690 C   0  0  0  0  0  3  0  0  0  0  0  0
  -22.1240   -4.8620   22.6310 C   0  0  0  0  0  0  0  0  0  0  0  0
  -22.6480   -4.3180   21.5060 F   0  0  0  0  0  0  0  0  0  0  0  0
  -21.1810   -3.8340   26.0250 F   0  0  0  0  0  0  0  0  0  0  0  0
  -23.0030  -13.5910   21.1230 C   0  0  0  0  0  0  0  0  0  0  0  0
  -22.1950  -12.9170   21.9330 N   0  0  0  0  0  0  0  0  0  0  0  0
  -22.6160  -14.6010   20.5350 O   0  0  0  0  0  0  0  0  0  0  0  0
  -22.5150  -12.1050   22.4400 H   0  0  0  0  0  0  0  0  0  0  0  0
  -21.2390  -13.2210   22.0480 H   0  0  0  0  0  0  0  0  0  0  0  0
  -25.6950  -15.2530   20.5350 N   0  0  0  0  0  0  0  0  0  0  0  0
  -24.9190  -15.9060   20.5760 H   0  0  0  0  0  0  0  0  0  0  0  0
  -26.5670  -15.6970   20.2770 H   0  0  0  0  0  0  0  0  0  0  0  0
  -28.9980  -22.8130   21.1180 C   0  0  0  0  0  3  0  0  0  0  0  0
  -28.7780  -22.9450   22.5710 N   0  0  0  0  0  4  0  0  0  0  0  0
  -29.6310  -23.2400   23.0130 H   0  0  0  0  0  0  0  0  0  0  0  0
  -28.5290  -22.0530   22.9600 H   0  0  0  0  0  0  0  0  0  0  0  0
  -28.0460  -23.5970   22.7840 H   0  0  0  0  0  0  0  0  0  0  0  0
  -29.3340  -24.2210   20.4770 C   0  0  0  0  0  2  0  0  0  0  0  0
  -28.1940  -25.2820   20.6680 C   0  0  0  0  0  2  0  0  0  0  0  0
  -28.4130  -26.6550   20.2280 O   0  0  0  0  0  0  0  0  0  0  0  0
  -24.5780  -31.8830   23.3010 C   0  0  0  0  0  0  0  0  0  0  0  0
  -27.2690  -27.4470   20.2060 C   0  0  0  0  0  0  0  0  0  0  0  0
  -23.3950  -30.4910   21.6370 C   0  0  0  0  0  3  0  0  0  0  0  0
  -24.8730  -28.9780   20.2080 C   0  0  0  0  0  0  0  0  0  0  0  0
  -25.9270  -30.8550   21.4690 C   0  0  0  0  0  2  0  0  0  0  0  0
  -26.0280  -29.4890   20.8150 C   0  0  0  0  0  0  0  0  0  0  0  0
  -27.2300  -28.7320   20.8120 C   0  0  0  0  0  3  0  0  0  0  0  0
  -26.0950  -26.9780   19.5720 C   0  0  0  0  0  3  0  0  0  0  0  0
  -24.9040  -27.7250   19.5800 C   0  0  0  0  0  3  0  0  0  0  0  0
  -23.6250  -29.8320   20.2520 C   0  0  0  0  0  2  0  0  0  0  0  0
  -24.6510  -31.0890   22.1940 N   0  0  0  0  0  0  0  0  0  0  0  0
  -23.4900  -32.1450   23.8320 O   0  0  0  0  0  0  0  0  0  0  0  0
  -22.7400  -29.4550   22.5810 C   0  0  0  0  0  0  0  0  0  0  0  0
  -21.4160  -29.2680   22.4440 N   0  0  0  0  0  0  0  0  0  0  0  0
  -23.4200  -28.8240   23.3940 O   0  0  0  0  0  0  0  0  0  0  0  0
  -20.9270  -29.8310   21.7610 H   0  0  0  0  0  0  0  0  0  0  0  0
  -18.0450  -28.0500   22.9030 C   0  0  0  0  0  0  0  0  0  0  0  0
  -20.5980  -28.3190   23.1990 C   0  0  0  0  0  3  0  0  0  0  0  0
  -20.7150  -26.8940   22.6120 C   0  0  0  0  0  2  0  0  0  0  0  0
  -19.6240  -26.5740   21.5860 C   0  0  0  0  0  2  0  0  0  0  0  0
  -18.2350  -26.7080   22.2180 C   0  0  0  0  0  2  0  0  0  0  0  0
  -19.1550  -28.8130   23.3500 C   0  0  0  0  0  0  0  0  0  0  0  0
  -18.9250  -30.0710   23.9500 C   0  0  0  0  0  3  0  0  0  0  0  0
  -17.6170  -30.5640   24.1080 C   0  0  0  0  0  3  0  0  0  0  0  0
  -16.5200  -29.7980   23.6780 C   0  0  0  0  0  3  0  0  0  0  0  0
  -16.7350  -28.5430   23.0810 C   0  0  0  0  0  3  0  0  0  0  0  0
  -25.8540  -32.5180   23.9360 C   0  0  0  0  0  3  0  0  0  0  0  0
  -25.5480  -33.9230   24.2350 N   0  0  0  0  0  0  0  0  0  0  0  0
  -25.9180  -34.9610   23.4730 C   0  0  0  0  0  0  0  0  0  0  0  0
  -26.6250  -34.8360   22.4690 O   0  0  0  0  0  0  0  0  0  0  0  0
  -24.9260  -34.0940   25.0110 H   0  0  0  0  0  0  0  0  0  0  0  0
  -24.2410  -36.7770   23.0100 C   0  0  0  0  0  1  0  0  0  0  0  0
  -25.4280  -36.3600   23.8920 C   0  0  0  0  0  3  0  0  0  0  0  0
  -27.5200  -37.2230   24.8430 C   0  0  0  0  0  1  0  0  0  0  0  0
  -26.4810  -37.3960   23.8310 N   0  0  0  0  0  0  0  0  0  0  0  0
  -26.0800  -38.3240   23.9430 H   0  0  0  0  0  0  0  0  0  0  0  0
  -26.3430  -31.7640   25.2330 C   0  0  1  0  0  0  0  0  0  0  0  0
  -25.2280  -31.5490   26.2820 C   0  0  0  0  0  1  0  0  0  0  0  0
  -26.9290  -30.3780   24.8740 C   0  0  0  0  0  1  0  0  0  0  0  0
  -27.4830  -32.5640   25.9050 C   0  0  0  0  0  1  0  0  0  0  0  0
  1 50  1  0
  1  2  1  0
  2  4  1  0
  2  6  1  0
  3  1  2  0
  6  5  1  0
  7 11  1  0
  7 10  2  0
  8  6  1  0
  9  8  2  0
  9 20  1  0
 10  8  1  0
 11  9  1  0
 12 20  1  0
 13 18  1  0
 14 15  1  0
 14 13  1  0
 16 15  1  0
 16 25  1  0
 16 17  1  0
 18 12  1  0
 18 17  1  0
 19 12  2  0
 20 21  1  0
 22 23  2  0
 23 24  1  0
 23 42  1  0
 24 27  1  0
 25 22  1  0
 25 26  1  0
 26 24  2  0
 27 28  1  0
 28 29  2  0
 30 33  1  0
 30 29  1  0
 31 30  2  0
 32 31  1  0
 32 27  2  0
 33 34  1  0
 34 35  1  0
 35 36  2  0
 37 36  1  0
 37 41  1  0
 38 37  2  0
 39 34  2  0
 39 38  1  0
 40 39  1  0
 42 43  1  0
 43 46  1  0
 43 45  1  0
 44 42  2  0
 47 48  1  0
 47 22  1  0
 49 47  1  0
 50 55  1  0
 50 51  1  0
 51 54  1  0
 51 53  1  0
 51 52  1  0
 55 56  1  0
 57 56  1  0
 58 69  2  0
 59 57  1  0
 59 64  1  0
 60 68  1  0
 60 70  1  0
 61 67  1  0
 61 63  1  0
 62 68  1  0
 63 62  1  0
 64 63  2  0
 65 66  1  0
 65 59  2  0
 66 61  2  0
 67 60  1  0
 68 58  1  0
 70 72  2  0
 71 70  1  0
 73 71  1  0
 74 83  2  0
 74 79  1  0
 75 71  1  0
 75 79  1  0
 76 75  1  0
 77 78  1  0
 77 76  1  0
 78 74  1  0
 79 80  2  0
 80 81  1  0
 82 81  2  0
 83 82  1  0
 84 58  1  0
 84 85  1  0
 84 94  1  0
 85 88  1  0
 86 90  1  0
 86 85  1  0
 87 86  2  0
 90 89  1  0
 92 90  1  0
 92 93  1  0
 92 91  1  0
 94 97  1  1
 94 95  1  0
 96 94  1  0
M  ISO  4  12 100  20 100  56 101  57 101
M  END
>  <TORSDO>  (84) 
F 22

>  <SCORE>  (84) 
-12.301

>  <name>  (84) 
83

>  <ligand_id>  (84) 
83

>  <original_smiles>  (84) 
[H]c1nc(C([H])(N([H])C(=O)C([H])(C([H])([H])C([H])([H])Oc2c([H])c([H])c3c(c2[H])C([H])([H])N(C(=O)C([H])(N([H])C(=O)C([H])(N([H])C([H])([H])[H])C([H])([H])[H])C(C([H])([H])[H])(C([H])([H])[H])C([H])([H])[H])C([H])(C(=O)N([H])C2([H])c4c([H])c([H])c([H])c([H])c4C([H])([H])C([H])([H])C2([H])[H])C3([H])[H])[N+]([H])([H])[H])C([H])([H])[H])c(N([H])C(=O)N2C([H])([H])C([H])([H])C([H])([H])C([H])(n3nc(-c4c([H])c([H])c(Oc5c([H])c([H])c(F)c([H])c5F)c([H])c4[H])c(C(=O)N([H])[H])c3N([H])[H])C2([H])[H])s1

>  <smiles>  (84) 
[H]c1nc(C([H])(N([H])C(=O)C([H])(C([H])([H])C([H])([H])Oc2c([H])c([H])c3c(c2[H])C([H])([H])N(C(=O)C([H])(N([H])C(=O)C([H])(N([H])C([H])([H])[H])C([H])([H])[H])C(C([H])([H])[H])(C([H])([H])[H])C([H])([H])[H])C([H])(C(=O)N([H])C2([H])c4c([H])c([H])c([H])c([H])c4C([H])([H])C([H])([H])C2([H])[H])C3([H])[H])[N+]([H])([H])[H])C([H])([H])[H])c(N([H])C(=O)N2C([H])([H])C([H])([H])C([H])([H])C([H])(n3nc(-c4c([H])c([H])c(Oc5c([H])c([H])c(F)c([H])c5F)c([H])c4[H])c(C(=O)N([H])[H])c3N([H])[H])C2([H])[H])s1

$$$$
84:0:0
     RDKit          3D

 94102  0  0  1  0  0  0  0  0999 V2000
  -28.8630  -22.3370   20.7430 C   0  0  0  0  0  0  0  0  0  0  0  0
  -29.2080  -21.4550   21.7010 N   0  0  0  0  0  0  0  0  0  0  0  0
  -29.4040  -22.4100   19.6370 O   0  0  0  0  0  0  0  0  0  0  0  0
  -28.7390  -21.6060   22.5830 H   0  0  0  0  0  0  0  0  0  0  0  0
  -30.2350  -19.4150   20.5500 C   0  0  0  0  0  3  0  0  0  0  0  0
  -30.7340  -19.9260   22.7820 C   0  0  0  0  0  3  0  0  0  0  0  0
  -30.0510  -20.3060   21.6580 C   0  0  0  0  0  0  0  0  0  0  0  0
  -31.0670  -18.3570   20.8570 C   0  0  0  0  0  0  0  0  0  0  0  0
  -31.6430  -18.4650   22.5050 S   0  0  0  0  0  0  0  0  0  0  0  0
  -31.5420  -17.2590   19.9440 C   0  0  0  0  0  2  0  0  0  0  0  0
  -31.6400  -14.7960   19.8470 C   0  0  0  0  0  0  0  0  0  0  0  0
  -31.2810  -12.4660   19.1330 C   0  0  0  0  0  2  0  0  0  0  0  0
  -30.3290  -12.4470   17.9210 C   0  0  0  0  0  2  0  0  0  0  0  0
  -28.8600  -12.4130   18.3820 C   0  0  0  0  0  2  0  0  0  0  0  0
  -28.5460  -13.4810   19.4650 C   0  0  0  0  0  3  0  0  0  0  0  0
  -29.6140  -13.4750   20.5830 C   0  0  0  0  0  2  0  0  0  0  0  0
  -30.9350  -13.6380   19.9540 N   0  0  0  0  0  0  0  0  0  0  0  0
  -32.7390  -14.8580   19.2900 O   0  0  0  0  0  0  0  0  0  0  0  0
  -31.0230  -15.9200   20.2540 N   0  0  0  0  0  0  0  0  0  0  0  0
  -30.1180  -15.8410   20.6910 H   0  0  0  0  0  0  0  0  0  0  0  0
  -26.2450  -14.2760   20.2980 C   0  0  0  0  0  0  0  0  0  0  0  0
  -25.1300  -13.5900   20.7010 C   0  0  0  0  0  0  0  0  0  0  0  0
  -25.4660  -12.2060   20.6150 C   0  0  0  0  0  0  0  0  0  0  0  0
  -27.1960  -13.3140   20.0000 N   0  0  0  0  0  0  0  0  0  0  0  0
  -26.7320  -12.0610   20.2460 N   0  0  0  0  0  0  0  0  0  0  0  0
  -24.6390  -11.0060   20.8110 C   0  0  0  0  0  0  0  0  0  0  0  0
  -24.9630  -10.0360   21.7840 C   0  0  0  0  0  3  0  0  0  0  0  0
  -24.1410   -8.9030   21.9670 C   0  0  0  0  0  3  0  0  0  0  0  0
  -22.9810   -8.7330   21.1740 C   0  0  0  0  0  0  0  0  0  0  0  0
  -22.6760   -9.6910   20.1920 C   0  0  0  0  0  3  0  0  0  0  0  0
  -23.4970  -10.8150   20.0080 C   0  0  0  0  0  3  0  0  0  0  0  0
  -22.1390   -7.6510   21.2640 O   0  0  0  0  0  0  0  0  0  0  0  0
  -21.8920   -7.0260   22.4590 C   0  0  0  0  0  0  0  0  0  0  0  0
  -21.3550   -7.7210   23.5660 C   0  0  0  0  0  3  0  0  0  0  0  0
  -21.0520   -7.0250   24.7530 C   0  0  0  0  0  3  0  0  0  0  0  0
  -21.2780   -5.6380   24.8350 C   0  0  0  0  0  0  0  0  0  0  0  0
  -21.8080   -4.9440   23.7320 C   0  0  0  0  0  3  0  0  0  0  0  0
  -22.1110   -5.6370   22.5480 C   0  0  0  0  0  0  0  0  0  0  0  0
  -22.6030   -4.9610   21.4810 F   0  0  0  0  0  0  0  0  0  0  0  0
  -20.9800   -4.9670   25.9720 F   0  0  0  0  0  0  0  0  0  0  0  0
  -23.7960  -14.1810   21.0550 C   0  0  0  0  0  0  0  0  0  0  0  0
  -23.0670  -13.5460   21.9650 N   0  0  0  0  0  0  0  0  0  0  0  0
  -23.4130  -15.2410   20.5590 O   0  0  0  0  0  0  0  0  0  0  0  0
  -23.3930  -12.6890   22.3880 H   0  0  0  0  0  0  0  0  0  0  0  0
  -22.1710  -13.9210   22.2450 H   0  0  0  0  0  0  0  0  0  0  0  0
  -26.5200  -15.6320   20.1450 N   0  0  0  0  0  0  0  0  0  0  0  0
  -25.8170  -16.3450   20.3090 H   0  0  0  0  0  0  0  0  0  0  0  0
  -27.3890  -16.0080   19.7890 H   0  0  0  0  0  0  0  0  0  0  0  0
  -27.7020  -23.2890   21.1200 C   0  0  0  0  0  3  0  0  0  0  0  0
  -25.8280  -21.7180   20.2630 C   0  0  0  0  0  1  0  0  0  0  0  0
  -26.4830  -23.1070   20.1840 C   0  0  0  0  0  2  0  0  0  0  0  0
  -28.0870  -24.7870   21.3090 C   0  0  0  0  0  2  0  0  0  0  0  0
  -28.6490  -25.5680   20.0900 C   0  0  0  0  0  2  0  0  0  0  0  0
  -28.6650  -26.9910   20.3230 O   0  0  0  0  0  0  0  0  0  0  0  0
  -24.6610  -31.9970   23.4130 C   0  0  0  0  0  0  0  0  0  0  0  0
  -27.4700  -27.6890   20.2820 C   0  0  0  0  0  0  0  0  0  0  0  0
  -23.5240  -30.6120   21.7100 C   0  0  0  0  0  3  0  0  0  0  0  0
  -25.0410  -29.1480   20.2780 C   0  0  0  0  0  0  0  0  0  0  0  0
  -26.0450  -31.0320   21.5770 C   0  0  0  0  0  2  0  0  0  0  0  0
  -26.1750  -29.6800   20.9030 C   0  0  0  0  0  0  0  0  0  0  0  0
  -27.3920  -28.9590   20.8990 C   0  0  0  0  0  3  0  0  0  0  0  0
  -26.3150  -27.1780   19.6440 C   0  0  0  0  0  3  0  0  0  0  0  0
  -25.1070  -27.8970   19.6450 C   0  0  0  0  0  3  0  0  0  0  0  0
  -23.7760  -29.9740   20.3190 C   0  0  0  0  0  2  0  0  0  0  0  0
  -24.7600  -31.2270   22.2920 N   0  0  0  0  0  0  0  0  0  0  0  0
  -23.5610  -32.2310   23.9340 O   0  0  0  0  0  0  0  0  0  0  0  0
  -22.8750  -29.5520   22.6290 C   0  0  0  0  0  0  0  0  0  0  0  0
  -21.5680  -29.3150   22.4370 N   0  0  0  0  0  0  0  0  0  0  0  0
  -23.5470  -28.9460   23.4670 O   0  0  0  0  0  0  0  0  0  0  0  0
  -21.0860  -29.8580   21.7350 H   0  0  0  0  0  0  0  0  0  0  0  0
  -18.2400  -27.9320   22.7250 C   0  0  0  0  0  0  0  0  0  0  0  0
  -20.7570  -28.3320   23.1570 C   0  0  0  0  0  3  0  0  0  0  0  0
  -20.9740  -26.9080   22.5910 C   0  0  0  0  0  2  0  0  0  0  0  0
  -19.9580  -26.5250   21.5120 C   0  0  0  0  0  2  0  0  0  0  0  0
  -18.5330  -26.5940   22.0670 C   0  0  0  0  0  2  0  0  0  0  0  0
  -19.2850  -28.7540   23.2220 C   0  0  0  0  0  0  0  0  0  0  0  0
  -18.9610  -30.0050   23.7930 C   0  0  0  0  0  3  0  0  0  0  0  0
  -17.6230  -30.4340   23.8730 C   0  0  0  0  0  3  0  0  0  0  0  0
  -16.5910  -29.6090   23.3940 C   0  0  0  0  0  3  0  0  0  0  0  0
  -16.8980  -28.3600   22.8270 C   0  0  0  0  0  3  0  0  0  0  0  0
  -25.9170  -32.6410   24.0790 C   0  0  0  0  0  3  0  0  0  0  0  0
  -25.5900  -34.0400   24.3810 N   0  0  0  0  0  0  0  0  0  0  0  0
  -25.9570  -35.0860   23.6290 C   0  0  0  0  0  0  0  0  0  0  0  0
  -26.6770  -34.9760   22.6330 O   0  0  0  0  0  0  0  0  0  0  0  0
  -24.9610  -34.1990   25.1530 H   0  0  0  0  0  0  0  0  0  0  0  0
  -24.2390  -36.8670   23.1760 C   0  0  0  0  0  1  0  0  0  0  0  0
  -25.4430  -36.4770   24.0480 C   0  0  0  0  0  3  0  0  0  0  0  0
  -27.5360  -37.3780   24.9620 C   0  0  0  0  0  1  0  0  0  0  0  0
  -26.4760  -37.5340   23.9710 N   0  0  0  0  0  0  0  0  0  0  0  0
  -26.0600  -38.4530   24.0940 H   0  0  0  0  0  0  0  0  0  0  0  0
  -26.3850  -31.8840   25.3810 C   0  0  1  0  0  0  0  0  0  0  0  0
  -25.2450  -31.6210   26.3930 C   0  0  0  0  0  1  0  0  0  0  0  0
  -27.0180  -30.5200   25.0180 C   0  0  0  0  0  1  0  0  0  0  0  0
  -27.4850  -32.7040   26.0970 C   0  0  0  0  0  1  0  0  0  0  0  0
  1 49  1  0
  1  2  1  0
  2  4  1  0
  3  1  2  0
  5  8  2  0
  5  7  1  0
  7  2  1  0
  7  6  2  0
  8  9  1  0
  9  6  1  0
 10 19  1  0
 10  8  1  0
 11 17  1  0
 11 19  1  0
 12 17  1  0
 13 14  1  0
 13 12  1  0
 15 14  1  0
 15 24  1  0
 15 16  1  0
 17 16  1  0
 18 11  2  0
 19 20  1  0
 21 22  2  0
 22 41  1  0
 23 22  1  0
 23 26  1  0
 24 25  1  0
 24 21  1  0
 25 23  2  0
 26 27  1  0
 27 28  2  0
 29 32  1  0
 29 28  1  0
 30 29  2  0
 31 30  1  0
 31 26  2  0
 32 33  1  0
 33 38  2  0
 33 34  1  0
 34 35  2  0
 35 36  1  0
 36 40  1  0
 37 36  2  0
 38 37  1  0
 39 38  1  0
 41 42  1  0
 42 45  1  0
 42 44  1  0
 43 41  2  0
 46 21  1  0
 46 47  1  0
 48 46  1  0
 49 51  1  0
 49 52  1  0
 51 50  1  0
 53 54  1  0
 53 52  1  0
 55 66  2  0
 56 54  1  0
 56 61  1  0
 57 65  1  0
 57 67  1  0
 58 64  1  0
 58 60  1  0
 59 65  1  0
 60 59  1  0
 61 60  2  0
 62 63  1  0
 62 56  2  0
 63 58  2  0
 64 57  1  0
 65 55  1  0
 67 69  2  0
 68 67  1  0
 70 68  1  0
 71 80  2  0
 71 76  1  0
 72 68  1  0
 72 76  1  0
 73 72  1  0
 74 75  1  0
 74 73  1  0
 75 71  1  0
 76 77  2  0
 77 78  1  0
 79 78  2  0
 80 79  1  0
 81 55  1  0
 81 82  1  0
 81 91  1  0
 82 85  1  0
 83 87  1  0
 83 82  1  0
 84 83  2  0
 87 86  1  0
 89 87  1  0
 89 90  1  0
 89 88  1  0
 91 94  1  1
 91 92  1  0
 93 91  1  0
M  ISO  4  11 100  19 100  53 101  54 101
M  END
>  <TORSDO>  (85) 
F 22

>  <SCORE>  (85) 
-10.447

>  <name>  (85) 
84

>  <ligand_id>  (85) 
84

>  <original_smiles>  (85) 
[H]c1sc(C([H])([H])N([H])C(=O)N2C([H])([H])C([H])([H])C([H])([H])C([H])(n3nc(-c4c([H])c([H])c(Oc5c([H])c([H])c(F)c([H])c5F)c([H])c4[H])c(C(=O)N([H])[H])c3N([H])[H])C2([H])[H])c([H])c1N([H])C(=O)C([H])(C([H])([H])C([H])([H])[H])C([H])([H])C([H])([H])Oc1c([H])c([H])c2c(c1[H])C([H])([H])N(C(=O)C([H])(N([H])C(=O)C([H])(N([H])C([H])([H])[H])C([H])([H])[H])C(C([H])([H])[H])(C([H])([H])[H])C([H])([H])[H])C([H])(C(=O)N([H])C1([H])c3c([H])c([H])c([H])c([H])c3C([H])([H])C([H])([H])C1([H])[H])C2([H])[H]

>  <smiles>  (85) 
[H]c1sc(C([H])([H])N([H])C(=O)N2C([H])([H])C([H])([H])C([H])([H])C([H])(n3nc(-c4c([H])c([H])c(Oc5c([H])c([H])c(F)c([H])c5F)c([H])c4[H])c(C(=O)N([H])[H])c3N([H])[H])C2([H])[H])c([H])c1N([H])C(=O)C([H])(C([H])([H])C([H])([H])[H])C([H])([H])C([H])([H])Oc1c([H])c([H])c2c(c1[H])C([H])([H])N(C(=O)C([H])(N([H])C(=O)C([H])(N([H])C([H])([H])[H])C([H])([H])[H])C(C([H])([H])[H])(C([H])([H])[H])C([H])([H])[H])C([H])(C(=O)N([H])C1([H])c3c([H])c([H])c([H])c([H])c3C([H])([H])C([H])([H])C1([H])[H])C2([H])[H]

$$$$
85:0:0
     RDKit          3D

 97105  0  0  1  0  0  0  0  0999 V2000
  -30.1310  -21.2970   20.9360 C   0  0  0  0  0  0  0  0  0  0  0  0
  -29.0830  -21.9880   20.4370 N   0  0  0  0  0  0  0  0  0  0  0  0
  -31.0520  -21.8630   21.5320 O   0  0  0  0  0  0  0  0  0  0  0  0
  -28.3790  -21.4250   19.9770 H   0  0  0  0  0  0  0  0  0  0  0  0
  -28.9530  -17.7670   20.8990 C   0  0  0  0  0  3  0  0  0  0  0  0
  -30.1300  -19.7750   20.7560 C   0  0  0  0  0  0  0  0  0  0  0  0
  -30.1230  -16.9890   20.6920 C   0  0  0  0  0  0  0  0  0  0  0  0
  -31.3170  -18.9980   20.5370 C   0  0  0  0  0  0  0  0  0  0  0  0
  -28.9450  -19.1270   20.9250 N   0  0  0  0  0  0  0  0  0  0  0  0
  -31.3040  -17.6390   20.4980 N   0  0  0  0  0  0  0  0  0  0  0  0
  -32.5850  -19.5390   20.3350 N   0  0  0  0  0  0  0  0  0  0  0  0
  -32.7470  -20.5010   20.6190 H   0  0  0  0  0  0  0  0  0  0  0  0
  -33.3920  -18.9340   20.4270 H   0  0  0  0  0  0  0  0  0  0  0  0
  -30.6890  -14.5710   20.1440 C   0  0  0  0  0  0  0  0  0  0  0  0
  -30.3610  -12.4360   18.9390 C   0  0  0  0  0  2  0  0  0  0  0  0
  -29.3550  -12.6760   17.7920 C   0  0  0  0  0  2  0  0  0  0  0  0
  -27.9040  -12.5190   18.2910 C   0  0  0  0  0  2  0  0  0  0  0  0
  -27.6320  -13.3050   19.6000 C   0  0  0  0  0  3  0  0  0  0  0  0
  -28.7420  -13.0410   20.6430 C   0  0  0  0  0  2  0  0  0  0  0  0
  -30.0350  -13.3800   20.0220 N   0  0  0  0  0  0  0  0  0  0  0  0
  -31.8040  -14.7580   19.6490 O   0  0  0  0  0  0  0  0  0  0  0  0
  -29.9570  -15.5600   20.7130 N   0  0  0  0  0  0  0  0  0  0  0  0
  -29.0750  -15.2440   21.0850 H   0  0  0  0  0  0  0  0  0  0  0  0
  -25.2690  -13.8930   20.4330 C   0  0  0  0  0  0  0  0  0  0  0  0
  -24.2210  -13.1100   20.8390 C   0  0  0  0  0  0  0  0  0  0  0  0
  -24.6820  -11.7610   20.7590 C   0  0  0  0  0  0  0  0  0  0  0  0
  -26.3030  -13.0180   20.1350 N   0  0  0  0  0  0  0  0  0  0  0  0
  -25.9560  -11.7300   20.3890 N   0  0  0  0  0  0  0  0  0  0  0  0
  -23.9670  -10.4930   20.9580 C   0  0  0  0  0  0  0  0  0  0  0  0
  -24.4060   -9.5410   21.9040 C   0  0  0  0  0  3  0  0  0  0  0  0
  -23.6930   -8.3370   22.0910 C   0  0  0  0  0  3  0  0  0  0  0  0
  -22.5280   -8.0770   21.3310 C   0  0  0  0  0  0  0  0  0  0  0  0
  -22.1080   -9.0190   20.3750 C   0  0  0  0  0  3  0  0  0  0  0  0
  -22.8220  -10.2140   20.1860 C   0  0  0  0  0  3  0  0  0  0  0  0
  -21.7870   -6.9240   21.4260 O   0  0  0  0  0  0  0  0  0  0  0  0
  -21.6900   -6.2260   22.6030 C   0  0  0  0  0  0  0  0  0  0  0  0
  -21.1680   -6.8110   23.7770 C   0  0  0  0  0  3  0  0  0  0  0  0
  -21.0220   -6.0380   24.9460 C   0  0  0  0  0  3  0  0  0  0  0  0
  -21.3870   -4.6780   24.9400 C   0  0  0  0  0  0  0  0  0  0  0  0
  -21.9020   -4.0910   23.7710 C   0  0  0  0  0  3  0  0  0  0  0  0
  -22.0500   -4.8630   22.6040 C   0  0  0  0  0  0  0  0  0  0  0  0
  -22.5270   -4.2880   21.4740 F   0  0  0  0  0  0  0  0  0  0  0  0
  -21.2400   -3.9320   26.0590 F   0  0  0  0  0  0  0  0  0  0  0  0
  -22.8370  -13.5790   21.1850 C   0  0  0  0  0  0  0  0  0  0  0  0
  -22.1480  -12.8590   22.0630 N   0  0  0  0  0  0  0  0  0  0  0  0
  -22.3760  -14.6170   20.7120 O   0  0  0  0  0  0  0  0  0  0  0  0
  -22.5330  -12.0190   22.4670 H   0  0  0  0  0  0  0  0  0  0  0  0
  -21.2210  -13.1530   22.3360 H   0  0  0  0  0  0  0  0  0  0  0  0
  -25.4230  -15.2670   20.2720 N   0  0  0  0  0  0  0  0  0  0  0  0
  -24.6490  -15.9080   20.4090 H   0  0  0  0  0  0  0  0  0  0  0  0
  -26.2280  -15.7040   19.8440 H   0  0  0  0  0  0  0  0  0  0  0  0
  -28.7830  -23.4290   20.6180 C   0  0  0  0  0  2  0  0  0  0  0  0
  -29.5480  -24.3840   19.6500 C   0  0  0  0  0  3  0  0  0  0  0  0
  -30.7760  -24.8010   20.2200 O   0  0  0  0  0  0  0  0  0  0  0  0
  -30.5650  -25.4390   20.8960 H   0  0  0  0  0  0  0  0  0  0  0  0
  -28.8000  -25.6670   19.1540 C   0  0  0  0  0  2  0  0  0  0  0  0
  -28.5090  -26.6770   20.1530 O   0  0  0  0  0  0  0  0  0  0  0  0
  -24.6180  -31.8750   23.1620 C   0  0  0  0  0  0  0  0  0  0  0  0
  -27.3330  -27.4230   20.0930 C   0  0  0  0  0  0  0  0  0  0  0  0
  -23.4470  -30.4710   21.5010 C   0  0  0  0  0  3  0  0  0  0  0  0
  -24.9300  -28.9500   20.0890 C   0  0  0  0  0  0  0  0  0  0  0  0
  -25.9790  -30.8330   21.3450 C   0  0  0  0  0  2  0  0  0  0  0  0
  -26.0810  -29.4640   20.6980 C   0  0  0  0  0  0  0  0  0  0  0  0
  -27.2800  -28.7060   20.7010 C   0  0  0  0  0  3  0  0  0  0  0  0
  -26.1460  -26.9300   19.4980 C   0  0  0  0  0  3  0  0  0  0  0  0
  -24.9590  -27.6830   19.4910 C   0  0  0  0  0  3  0  0  0  0  0  0
  -23.6810  -29.8020   20.1210 C   0  0  0  0  0  2  0  0  0  0  0  0
  -24.6980  -31.0760   22.0600 N   0  0  0  0  0  0  0  0  0  0  0  0
  -23.5270  -32.1390   23.6850 O   0  0  0  0  0  0  0  0  0  0  0  0
  -22.7890  -29.4400   22.4480 C   0  0  0  0  0  0  0  0  0  0  0  0
  -21.4640  -29.2600   22.3120 N   0  0  0  0  0  0  0  0  0  0  0  0
  -23.4670  -28.8070   23.2600 O   0  0  0  0  0  0  0  0  0  0  0  0
  -20.9790  -29.8240   21.6270 H   0  0  0  0  0  0  0  0  0  0  0  0
  -18.0800  -28.0870   22.8040 C   0  0  0  0  0  0  0  0  0  0  0  0
  -20.6410  -28.3170   23.0690 C   0  0  0  0  0  3  0  0  0  0  0  0
  -20.7270  -26.8950   22.4660 C   0  0  0  0  0  2  0  0  0  0  0  0
  -19.6180  -26.6010   21.4520 C   0  0  0  0  0  2  0  0  0  0  0  0
  -18.2410  -26.7480   22.1040 C   0  0  0  0  0  2  0  0  0  0  0  0
  -19.2070  -28.8310   23.2420 C   0  0  0  0  0  0  0  0  0  0  0  0
  -19.0030  -30.0860   23.8550 C   0  0  0  0  0  3  0  0  0  0  0  0
  -17.7040  -30.5970   24.0350 C   0  0  0  0  0  3  0  0  0  0  0  0
  -16.5910  -29.8500   23.6130 C   0  0  0  0  0  3  0  0  0  0  0  0
  -16.7800  -28.5970   23.0030 C   0  0  0  0  0  3  0  0  0  0  0  0
  -25.8890  -32.5140   23.8030 C   0  0  0  0  0  3  0  0  0  0  0  0
  -25.5640  -33.9090   24.1310 N   0  0  0  0  0  0  0  0  0  0  0  0
  -25.8980  -34.9660   23.3780 C   0  0  0  0  0  0  0  0  0  0  0  0
  -26.5830  -34.8690   22.3560 O   0  0  0  0  0  0  0  0  0  0  0  0
  -24.9570  -34.0580   24.9230 H   0  0  0  0  0  0  0  0  0  0  0  0
  -24.1680  -36.7500   22.9940 C   0  0  0  0  0  1  0  0  0  0  0  0
  -25.3930  -36.3490   23.8320 C   0  0  0  0  0  3  0  0  0  0  0  0
  -27.4990  -37.2460   24.7200 C   0  0  0  0  0  1  0  0  0  0  0  0
  -26.4220  -37.4080   23.7460 N   0  0  0  0  0  0  0  0  0  0  0  0
  -26.0060  -38.3260   23.8810 H   0  0  0  0  0  0  0  0  0  0  0  0
  -26.3950  -31.7430   25.0820 C   0  0  1  0  0  0  0  0  0  0  0  0
  -25.2900  -31.4890   26.1340 C   0  0  0  0  0  1  0  0  0  0  0  0
  -26.9990  -30.3730   24.6930 C   0  0  0  0  0  1  0  0  0  0  0  0
  -27.5280  -32.5470   25.7640 C   0  0  0  0  0  1  0  0  0  0  0  0
  1  3  2  0
  2 52  1  0
  2  1  1  0
  4  2  1  0
  5  9  1  0
  6  9  2  0
  6  1  1  0
  7 22  1  0
  7  5  2  0
  8  6  1  0
 10  8  2  0
 10  7  1  0
 11 13  1  0
 11  8  1  0
 11 12  1  0
 14 22  1  0
 15 20  1  0
 16 17  1  0
 16 15  1  0
 18 17  1  0
 18 27  1  0
 18 19  1  0
 20 14  1  0
 20 19  1  0
 21 14  2  0
 22 23  1  0
 24 25  2  0
 25 44  1  0
 26 25  1  0
 26 29  1  0
 27 28  1  0
 27 24  1  0
 28 26  2  0
 29 30  1  0
 30 31  2  0
 32 35  1  0
 32 31  1  0
 33 32  2  0
 34 33  1  0
 34 29  2  0
 35 36  1  0
 36 41  2  0
 36 37  1  0
 37 38  2  0
 39 38  1  0
 39 43  1  0
 40 39  2  0
 41 40  1  0
 42 41  1  0
 44 45  1  0
 45 48  1  0
 45 47  1  0
 46 44  2  0
 49 50  1  0
 49 24  1  0
 51 49  1  0
 53 56  1  0
 53 54  1  0
 53 52  1  0
 54 55  1  0
 56 57  1  0
 58 69  2  0
 59 57  1  0
 59 64  1  0
 60 68  1  0
 60 70  1  0
 61 67  1  0
 61 63  1  0
 62 68  1  0
 63 64  2  0
 63 62  1  0
 65 59  2  0
 66 65  1  0
 66 61  2  0
 67 60  1  0
 68 58  1  0
 70 72  2  0
 71 70  1  0
 73 71  1  0
 74 83  2  0
 74 79  1  0
 75 71  1  0
 75 79  1  0
 76 75  1  0
 77 78  1  0
 77 76  1  0
 78 74  1  0
 79 80  2  0
 80 81  1  0
 82 81  2  0
 83 82  1  0
 84 58  1  0
 84 85  1  0
 84 94  1  0
 85 88  1  0
 86 90  1  0
 86 85  1  0
 87 86  2  0
 90 89  1  0
 92 90  1  0
 92 93  1  0
 92 91  1  0
 94 97  1  1
 94 95  1  0
 96 94  1  0
M  ISO  4  14 100  22 100  56 101  57 101
M  END
>  <TORSDO>  (86) 
F 21

>  <SCORE>  (86) 
-13.611

>  <name>  (86) 
85

>  <ligand_id>  (86) 
85

>  <original_smiles>  (86) 
[H]OC([H])(C([H])([H])Oc1c([H])c([H])c2c(c1[H])C([H])([H])N(C(=O)C([H])(N([H])C(=O)C([H])(N([H])C([H])([H])[H])C([H])([H])[H])C(C([H])([H])[H])(C([H])([H])[H])C([H])([H])[H])C([H])(C(=O)N([H])C1([H])c3c([H])c([H])c([H])c([H])c3C([H])([H])C([H])([H])C1([H])[H])C2([H])[H])C([H])([H])N([H])C(=O)c1nc([H])c(N([H])C(=O)N2C([H])([H])C([H])([H])C([H])([H])C([H])(n3nc(-c4c([H])c([H])c(Oc5c([H])c([H])c(F)c([H])c5F)c([H])c4[H])c(C(=O)N([H])[H])c3N([H])[H])C2([H])[H])nc1N([H])[H]

>  <smiles>  (86) 
[H]OC([H])(C([H])([H])Oc1c([H])c([H])c2c(c1[H])C([H])([H])N(C(=O)C([H])(N([H])C(=O)C([H])(N([H])C([H])([H])[H])C([H])([H])[H])C(C([H])([H])[H])(C([H])([H])[H])C([H])([H])[H])C([H])(C(=O)N([H])C1([H])c3c([H])c([H])c([H])c([H])c3C([H])([H])C([H])([H])C1([H])[H])C2([H])[H])C([H])([H])N([H])C(=O)c1nc([H])c(N([H])C(=O)N2C([H])([H])C([H])([H])C([H])([H])C([H])(n3nc(-c4c([H])c([H])c(Oc5c([H])c([H])c(F)c([H])c5F)c([H])c4[H])c(C(=O)N([H])[H])c3N([H])[H])C2([H])[H])nc1N([H])[H]

$$$$
86:0:0
     RDKit          3D

 97105  0  0  1  0  0  0  0  0999 V2000
  -30.7400  -14.5500   20.4480 C   0  0  0  0  0  0  0  0  0  0  0  0
  -30.4430  -12.3040   19.4780 C   0  0  0  0  0  2  0  0  0  0  0  0
  -29.5570  -12.4360   18.2220 C   0  0  0  0  0  2  0  0  0  0  0  0
  -28.0670  -12.3410   18.6030 C   0  0  0  0  0  2  0  0  0  0  0  0
  -27.6920  -13.2620   19.7960 C   0  0  0  0  0  3  0  0  0  0  0  0
  -28.7060  -13.1330   20.9550 C   0  0  0  0  0  2  0  0  0  0  0  0
  -30.0470  -13.3760   20.4080 N   0  0  0  0  0  0  0  0  0  0  0  0
  -31.9280  -14.5850   20.1190 O   0  0  0  0  0  0  0  0  0  0  0  0
  -31.5110  -17.5000   19.8580 C   0  0  0  0  0  3  0  0  0  0  0  0
  -31.6950  -18.8580   19.6010 C   0  0  0  0  0  0  0  0  0  0  0  0
  -30.2840  -17.0710   20.4190 C   0  0  0  0  0  0  0  0  0  0  0  0
  -29.6290  -19.3180   20.3960 C   0  0  0  0  0  0  0  0  0  0  0  0
  -30.7610  -19.7680   19.8800 N   0  0  0  0  0  0  0  0  0  0  0  0
  -29.3460  -18.0360   20.6680 N   0  0  0  0  0  0  0  0  0  0  0  0
  -30.0080  -15.6730   20.6950 N   0  0  0  0  0  0  0  0  0  0  0  0
  -28.6410  -20.2650   20.6410 N   0  0  0  0  0  0  0  0  0  0  0  0
  -29.0690  -15.4860   21.0010 H   0  0  0  0  0  0  0  0  0  0  0  0
  -27.7800  -19.8560   20.9810 H   0  0  0  0  0  0  0  0  0  0  0  0
  -25.2910  -13.9370   20.4150 C   0  0  0  0  0  0  0  0  0  0  0  0
  -24.1970  -13.1990   20.7740 C   0  0  0  0  0  0  0  0  0  0  0  0
  -24.6310  -11.8380   20.8040 C   0  0  0  0  0  0  0  0  0  0  0  0
  -26.3230  -13.0290   20.2460 N   0  0  0  0  0  0  0  0  0  0  0  0
  -25.9300  -11.7630   20.5390 N   0  0  0  0  0  0  0  0  0  0  0  0
  -23.8710  -10.5980   21.0110 C   0  0  0  0  0  0  0  0  0  0  0  0
  -24.2730   -9.6370   21.9640 C   0  0  0  0  0  3  0  0  0  0  0  0
  -23.5150   -8.4610   22.1590 C   0  0  0  0  0  3  0  0  0  0  0  0
  -22.3420   -8.2390   21.3990 C   0  0  0  0  0  0  0  0  0  0  0  0
  -21.9600   -9.1890   20.4340 C   0  0  0  0  0  3  0  0  0  0  0  0
  -22.7180  -10.3550   20.2380 C   0  0  0  0  0  3  0  0  0  0  0  0
  -21.5580   -7.1140   21.5010 O   0  0  0  0  0  0  0  0  0  0  0  0
  -21.5070   -6.3770   22.6550 C   0  0  0  0  0  0  0  0  0  0  0  0
  -21.1390   -6.9500   23.8910 C   0  0  0  0  0  3  0  0  0  0  0  0
  -21.0310   -6.1410   25.0400 C   0  0  0  0  0  3  0  0  0  0  0  0
  -21.2810   -4.7580   24.9530 C   0  0  0  0  0  0  0  0  0  0  0  0
  -21.6430   -4.1840   23.7220 C   0  0  0  0  0  3  0  0  0  0  0  0
  -21.7520   -4.9900   22.5750 C   0  0  0  0  0  0  0  0  0  0  0  0
  -22.0800   -4.4290   21.3870 F   0  0  0  0  0  0  0  0  0  0  0  0
  -21.1690   -3.9780   26.0530 F   0  0  0  0  0  0  0  0  0  0  0  0
  -22.8020  -13.7150   20.9830 C   0  0  0  0  0  0  0  0  0  0  0  0
  -22.0350  -13.0690   21.8540 N   0  0  0  0  0  0  0  0  0  0  0  0
  -22.4010  -14.7260   20.4070 O   0  0  0  0  0  0  0  0  0  0  0  0
  -22.3720  -12.2520   22.3420 H   0  0  0  0  0  0  0  0  0  0  0  0
  -21.0990  -13.3990   22.0380 H   0  0  0  0  0  0  0  0  0  0  0  0
  -25.4910  -15.2980   20.1970 N   0  0  0  0  0  0  0  0  0  0  0  0
  -24.7310  -15.9670   20.2610 H   0  0  0  0  0  0  0  0  0  0  0  0
  -26.3560  -15.7140   19.8770 H   0  0  0  0  0  0  0  0  0  0  0  0
  -32.8690  -19.3360   19.0420 N   0  0  0  0  0  0  0  0  0  0  0  0
  -32.8700  -20.2670   18.6450 H   0  0  0  0  0  0  0  0  0  0  0  0
  -33.5030  -18.6920   18.5870 H   0  0  0  0  0  0  0  0  0  0  0  0
  -28.2430  -21.8950   22.4290 C   0  0  0  0  0  1  0  0  0  0  0  0
  -28.8740  -21.6720   21.0450 C   0  0  0  0  0  3  0  0  0  0  0  0
  -28.4030  -22.7310   19.9760 C   0  0  0  0  0  2  0  0  0  0  0  0
  -28.3110  -24.2440   20.4140 C   0  0  0  0  0  3  0  0  0  0  0  0
  -27.0540  -24.4310   21.0430 O   0  0  0  0  0  0  0  0  0  0  0  0
  -26.9590  -25.3660   21.2010 H   0  0  0  0  0  0  0  0  0  0  0  0
  -28.3880  -25.2830   19.2460 C   0  0  0  0  0  2  0  0  0  0  0  0
  -28.3620  -26.6800   19.6610 O   0  0  0  0  0  0  0  0  0  0  0  0
  -24.5460  -31.7240   23.0010 C   0  0  0  0  0  0  0  0  0  0  0  0
  -27.1740  -27.4040   19.6860 C   0  0  0  0  0  0  0  0  0  0  0  0
  -23.3270  -30.3780   21.3260 C   0  0  0  0  0  3  0  0  0  0  0  0
  -24.7680  -28.9190   19.8100 C   0  0  0  0  0  0  0  0  0  0  0  0
  -25.8510  -30.7600   21.1000 C   0  0  0  0  0  2  0  0  0  0  0  0
  -25.9360  -29.4180   20.3970 C   0  0  0  0  0  0  0  0  0  0  0  0
  -27.1410  -28.6710   20.3280 C   0  0  0  0  0  3  0  0  0  0  0  0
  -25.9740  -26.9290   19.1020 C   0  0  0  0  0  3  0  0  0  0  0  0
  -24.7850  -27.6770   19.1600 C   0  0  0  0  0  3  0  0  0  0  0  0
  -23.5190  -29.7640   19.9160 C   0  0  0  0  0  2  0  0  0  0  0  0
  -24.5950  -30.9680   21.8670 N   0  0  0  0  0  0  0  0  0  0  0  0
  -23.4720  -31.9610   23.5690 O   0  0  0  0  0  0  0  0  0  0  0  0
  -22.7060  -29.3070   22.2520 C   0  0  0  0  0  0  0  0  0  0  0  0
  -21.3790  -29.1270   22.1570 N   0  0  0  0  0  0  0  0  0  0  0  0
  -23.4140  -28.6450   23.0150 O   0  0  0  0  0  0  0  0  0  0  0  0
  -20.8670  -29.7140   21.5120 H   0  0  0  0  0  0  0  0  0  0  0  0
  -18.0230  -27.8950   22.6940 C   0  0  0  0  0  0  0  0  0  0  0  0
  -20.5870  -28.1490   22.9030 C   0  0  0  0  0  3  0  0  0  0  0  0
  -20.6760  -26.7480   22.2550 C   0  0  0  0  0  2  0  0  0  0  0  0
  -19.5460  -26.4710   21.2590 C   0  0  0  0  0  2  0  0  0  0  0  0
  -18.1840  -26.5810   21.9490 C   0  0  0  0  0  2  0  0  0  0  0  0
  -19.1520  -28.6400   23.1280 C   0  0  0  0  0  0  0  0  0  0  0  0
  -18.9480  -29.8720   23.7860 C   0  0  0  0  0  3  0  0  0  0  0  0
  -17.6480  -30.3600   24.0130 C   0  0  0  0  0  3  0  0  0  0  0  0
  -16.5340  -29.6110   23.5960 C   0  0  0  0  0  3  0  0  0  0  0  0
  -16.7230  -28.3810   22.9420 C   0  0  0  0  0  3  0  0  0  0  0  0
  -25.8350  -32.3460   23.6220 C   0  0  0  0  0  3  0  0  0  0  0  0
  -25.5080  -33.7160   24.0390 N   0  0  0  0  0  0  0  0  0  0  0  0
  -25.8040  -34.8160   23.3340 C   0  0  0  0  0  0  0  0  0  0  0  0
  -26.4540  -34.7850   22.2860 O   0  0  0  0  0  0  0  0  0  0  0  0
  -24.9270  -33.8160   24.8580 H   0  0  0  0  0  0  0  0  0  0  0  0
  -24.0340  -36.5900   23.1200 C   0  0  0  0  0  1  0  0  0  0  0  0
  -25.3010  -36.1670   23.8790 C   0  0  0  0  0  3  0  0  0  0  0  0
  -27.4380  -37.0470   24.7060 C   0  0  0  0  0  1  0  0  0  0  0  0
  -26.3100  -37.2470   23.8010 N   0  0  0  0  0  0  0  0  0  0  0  0
  -25.8900  -38.1480   24.0110 H   0  0  0  0  0  0  0  0  0  0  0  0
  -26.4010  -31.5160   24.8390 C   0  0  1  0  0  0  0  0  0  0  0  0
  -25.3450  -31.2020   25.9230 C   0  0  0  0  0  1  0  0  0  0  0  0
  -26.9920  -30.1710   24.3540 C   0  0  0  0  0  1  0  0  0  0  0  0
  -27.5600  -32.2910   25.5080 C   0  0  0  0  0  1  0  0  0  0  0  0
  1 15  1  0
  2  7  1  0
  3  4  1  0
  3  2  1  0
  5  4  1  0
  5 22  1  0
  5  6  1  0
  7  1  1  0
  7  6  1  0
  8  1  2  0
  9 11  1  0
 10  9  2  0
 10 13  1  0
 11 14  2  0
 11 15  1  0
 12 16  1  0
 12 14  1  0
 13 12  2  0
 15 17  1  0
 16 18  1  0
 16 51  1  0
 19 20  2  0
 20 21  1  0
 20 39  1  0
 21 24  1  0
 22 19  1  0
 22 23  1  0
 23 21  2  0
 24 25  1  0
 25 26  2  0
 27 30  1  0
 27 26  1  0
 28 27  2  0
 29 28  1  0
 29 24  2  0
 30 31  1  0
 31 32  1  0
 32 33  2  0
 34 33  1  0
 34 38  1  0
 35 34  2  0
 36 31  2  0
 36 35  1  0
 37 36  1  0
 39 40  1  0
 40 43  1  0
 40 42  1  0
 41 39  2  0
 44 45  1  0
 44 19  1  0
 46 44  1  0
 47 10  1  0
 48 47  1  0
 49 47  1  0
 51 50  1  0
 52 53  1  0
 52 51  1  0
 53 56  1  0
 53 54  1  0
 54 55  1  0
 56 57  1  0
 57 59  1  0
 58 69  2  0
 59 64  1  0
 60 68  1  0
 60 70  1  0
 61 67  1  0
 61 63  1  0
 62 68  1  0
 63 62  1  0
 64 63  2  0
 65 66  1  0
 65 59  2  0
 66 61  2  0
 67 60  1  0
 68 58  1  0
 70 72  2  0
 71 70  1  0
 73 71  1  0
 74 83  2  0
 74 79  1  0
 75 71  1  0
 75 79  1  0
 76 75  1  0
 77 78  1  0
 77 76  1  0
 78 74  1  0
 79 80  2  0
 80 81  1  0
 82 81  2  0
 83 82  1  0
 84 58  1  0
 84 85  1  0
 84 94  1  0
 85 88  1  0
 86 90  1  0
 86 85  1  0
 87 86  2  0
 90 89  1  0
 92 90  1  0
 92 93  1  0
 92 91  1  0
 94 97  1  1
 94 95  1  0
 96 94  1  0
M  ISO  4   1 100  15 100  56 101  57 101
M  END
>  <TORSDO>  (87) 
F 21

>  <SCORE>  (87) 
-13.249

>  <name>  (87) 
86

>  <ligand_id>  (87) 
86

>  <original_smiles>  (87) 
[H]OC([H])(C([H])([H])Oc1c([H])c([H])c2c(c1[H])C([H])([H])N(C(=O)C([H])(N([H])C(=O)C([H])(N([H])C([H])([H])[H])C([H])([H])[H])C(C([H])([H])[H])(C([H])([H])[H])C([H])([H])[H])C([H])(C(=O)N([H])C1([H])c3c([H])c([H])c([H])c([H])c3C([H])([H])C([H])([H])C1([H])[H])C2([H])[H])C([H])([H])C([H])(N([H])c1nc(N([H])[H])c([H])c(N([H])C(=O)N2C([H])([H])C([H])([H])C([H])([H])C([H])(n3nc(-c4c([H])c([H])c(Oc5c([H])c([H])c(F)c([H])c5F)c([H])c4[H])c(C(=O)N([H])[H])c3N([H])[H])C2([H])[H])n1)C([H])([H])[H]

>  <smiles>  (87) 
[H]OC([H])(C([H])([H])Oc1c([H])c([H])c2c(c1[H])C([H])([H])N(C(=O)C([H])(N([H])C(=O)C([H])(N([H])C([H])([H])[H])C([H])([H])[H])C(C([H])([H])[H])(C([H])([H])[H])C([H])([H])[H])C([H])(C(=O)N([H])C1([H])c3c([H])c([H])c([H])c([H])c3C([H])([H])C([H])([H])C1([H])[H])C2([H])[H])C([H])([H])C([H])(N([H])c1nc(N([H])[H])c([H])c(N([H])C(=O)N2C([H])([H])C([H])([H])C([H])([H])C([H])(n3nc(-c4c([H])c([H])c(Oc5c([H])c([H])c(F)c([H])c5F)c([H])c4[H])c(C(=O)N([H])[H])c3N([H])[H])C2([H])[H])n1)C([H])([H])[H]

$$$$
87:0:0
     RDKit          3D

 93101  0  0  1  0  0  0  0  0999 V2000
  -27.8810  -19.7560   21.0060 C   0  0  0  0  0  3  0  0  0  0  0  0
  -28.5330  -18.5770   20.5770 C   0  0  0  0  0  0  0  0  0  0  0  0
  -29.6860  -18.7440   19.7680 C   0  0  0  0  0  0  0  0  0  0  0  0
  -29.3220  -21.1230   19.8850 C   0  0  0  0  0  0  0  0  0  0  0  0
  -28.2720  -21.0000   20.6700 N   0  0  0  0  0  0  0  0  0  0  0  0
  -30.0400  -20.0520   19.4290 N   0  0  0  0  0  0  0  0  0  0  0  0
  -29.6420  -22.4760   19.5210 N   0  0  0  0  0  0  0  0  0  0  0  0
  -30.4460  -22.5590   18.9110 H   0  0  0  0  0  0  0  0  0  0  0  0
  -28.0150  -17.3310   20.9650 N   0  0  0  0  0  0  0  0  0  0  0  0
  -27.4550  -17.3830   21.8120 H   0  0  0  0  0  0  0  0  0  0  0  0
  -27.3860  -16.9240   20.2750 H   0  0  0  0  0  0  0  0  0  0  0  0
  -30.5890  -17.4990   19.3030 C   0  0  0  0  0  2  0  0  0  0  0  0
  -31.0640  -14.9080   19.4520 C   0  0  0  0  0  0  0  0  0  0  0  0
  -30.8170  -12.5740   18.5870 C   0  0  0  0  0  2  0  0  0  0  0  0
  -29.7650  -12.5750   17.4560 C   0  0  0  0  0  2  0  0  0  0  0  0
  -28.3480  -12.4030   18.0320 C   0  0  0  0  0  2  0  0  0  0  0  0
  -28.0780  -13.3390   19.2410 C   0  0  0  0  0  3  0  0  0  0  0  0
  -29.2410  -13.3240   20.2570 C   0  0  0  0  0  2  0  0  0  0  0  0
  -30.4660  -13.6670   19.5270 N   0  0  0  0  0  0  0  0  0  0  0  0
  -32.1950  -15.0070   18.9680 O   0  0  0  0  0  0  0  0  0  0  0  0
  -30.3120  -16.0450   19.7090 N   0  0  0  0  0  0  0  0  0  0  0  0
  -29.4350  -15.9360   20.2010 H   0  0  0  0  0  0  0  0  0  0  0  0
  -25.8190  -13.9410   20.2910 C   0  0  0  0  0  0  0  0  0  0  0  0
  -24.7850  -13.1720   20.7510 C   0  0  0  0  0  0  0  0  0  0  0  0
  -25.1960  -11.8140   20.5840 C   0  0  0  0  0  0  0  0  0  0  0  0
  -26.7960  -13.0510   19.8760 N   0  0  0  0  0  0  0  0  0  0  0  0
  -26.4370  -11.7640   20.1130 N   0  0  0  0  0  0  0  0  0  0  0  0
  -24.4570  -10.5600   20.7870 C   0  0  0  0  0  0  0  0  0  0  0  0
  -24.8650   -9.6100   21.7490 C   0  0  0  0  0  3  0  0  0  0  0  0
  -24.1260   -8.4210   21.9400 C   0  0  0  0  0  3  0  0  0  0  0  0
  -22.9670   -8.1740   21.1670 C   0  0  0  0  0  0  0  0  0  0  0  0
  -22.5780   -9.1130   20.1950 C   0  0  0  0  0  3  0  0  0  0  0  0
  -23.3180  -10.2920   20.0020 C   0  0  0  0  0  3  0  0  0  0  0  0
  -22.2020   -7.0370   21.2650 O   0  0  0  0  0  0  0  0  0  0  0  0
  -21.9740   -6.4260   22.4720 C   0  0  0  0  0  0  0  0  0  0  0  0
  -21.3440   -7.1000   23.5410 C   0  0  0  0  0  3  0  0  0  0  0  0
  -21.0650   -6.4130   24.7390 C   0  0  0  0  0  3  0  0  0  0  0  0
  -21.4050   -5.0530   24.8690 C   0  0  0  0  0  0  0  0  0  0  0  0
  -22.0280   -4.3780   23.8020 C   0  0  0  0  0  3  0  0  0  0  0  0
  -22.3080   -5.0630   22.6070 C   0  0  0  0  0  0  0  0  0  0  0  0
  -22.8880   -4.4040   21.5760 F   0  0  0  0  0  0  0  0  0  0  0  0
  -21.1310   -4.3900   26.0170 F   0  0  0  0  0  0  0  0  0  0  0  0
  -23.4460  -13.6670   21.2160 C   0  0  0  0  0  0  0  0  0  0  0  0
  -22.8130  -12.9500   22.1390 N   0  0  0  0  0  0  0  0  0  0  0  0
  -22.9740  -14.7230   20.7970 O   0  0  0  0  0  0  0  0  0  0  0  0
  -23.2110  -12.0960   22.5000 H   0  0  0  0  0  0  0  0  0  0  0  0
  -21.9210  -13.2630   22.4940 H   0  0  0  0  0  0  0  0  0  0  0  0
  -26.0030  -15.3150   20.1620 N   0  0  0  0  0  0  0  0  0  0  0  0
  -25.2200  -15.9430   20.3050 H   0  0  0  0  0  0  0  0  0  0  0  0
  -26.7020  -15.6940   19.5370 H   0  0  0  0  0  0  0  0  0  0  0  0
  -29.1660  -23.7850   20.1570 C   0  0  0  0  0  3  0  0  0  0  0  0
  -29.1120  -25.1630   19.2840 C   0  0  0  0  0  3  0  0  0  0  0  0
  -28.8930  -26.5390   19.8780 O   0  0  0  0  0  0  0  0  0  0  0  0
  -24.6590  -31.5430   22.9930 C   0  0  0  0  0  0  0  0  0  0  0  0
  -27.7010  -27.3050   19.8050 C   0  0  0  0  0  0  0  0  0  0  0  0
  -23.6110  -30.1300   21.2620 C   0  0  0  0  0  3  0  0  0  0  0  0
  -25.2150  -28.7610   19.8020 C   0  0  0  0  0  0  0  0  0  0  0  0
  -26.1230  -30.6460   21.1590 C   0  0  0  0  0  2  0  0  0  0  0  0
  -26.3290  -29.3060   20.4510 C   0  0  0  0  0  0  0  0  0  0  0  0
  -27.5700  -28.5900   20.4390 C   0  0  0  0  0  3  0  0  0  0  0  0
  -26.5520  -26.8230   19.1380 C   0  0  0  0  0  3  0  0  0  0  0  0
  -25.3330  -27.5300   19.1360 C   0  0  0  0  0  3  0  0  0  0  0  0
  -23.9100  -29.5350   19.8600 C   0  0  0  0  0  2  0  0  0  0  0  0
  -24.8140  -30.7920   21.8620 N   0  0  0  0  0  0  0  0  0  0  0  0
  -23.5450  -31.7090   23.5100 O   0  0  0  0  0  0  0  0  0  0  0  0
  -23.0090  -29.0230   22.1610 C   0  0  0  0  0  0  0  0  0  0  0  0
  -21.7030  -28.7500   21.9980 N   0  0  0  0  0  0  0  0  0  0  0  0
  -23.7180  -28.4140   22.9660 O   0  0  0  0  0  0  0  0  0  0  0  0
  -21.1850  -29.2970   21.3240 H   0  0  0  0  0  0  0  0  0  0  0  0
  -18.4170  -27.2860   22.3900 C   0  0  0  0  0  0  0  0  0  0  0  0
  -20.9480  -27.7150   22.7060 C   0  0  0  0  0  3  0  0  0  0  0  0
  -21.1590  -26.3280   22.0550 C   0  0  0  0  0  2  0  0  0  0  0  0
  -20.0920  -25.9840   21.0110 C   0  0  0  0  0  2  0  0  0  0  0  0
  -18.6970  -25.9930   21.6440 C   0  0  0  0  0  2  0  0  0  0  0  0
  -19.4730  -28.1020   22.8750 C   0  0  0  0  0  0  0  0  0  0  0  0
  -19.1560  -29.3110   23.5330 C   0  0  0  0  0  3  0  0  0  0  0  0
  -17.8170  -29.7060   23.7110 C   0  0  0  0  0  3  0  0  0  0  0  0
  -16.7750  -28.8860   23.2400 C   0  0  0  0  0  3  0  0  0  0  0  0
  -17.0770  -27.6780   22.5870 C   0  0  0  0  0  3  0  0  0  0  0  0
  -25.8700  -32.2510   23.6770 C   0  0  0  0  0  3  0  0  0  0  0  0
  -26.4010  -31.4800   24.9470 C   0  0  1  0  0  0  0  0  0  0  0  0
  -25.2940  -31.1250   25.9670 C   0  0  0  0  0  1  0  0  0  0  0  0
  -27.1010  -30.1630   24.5370 C   0  0  0  0  0  1  0  0  0  0  0  0
  -27.4640  -32.3370   25.6730 C   0  0  0  0  0  1  0  0  0  0  0  0
  -25.4450  -33.6110   24.0390 N   0  0  0  0  0  0  0  0  0  0  0  0
  -25.7110  -34.7100   23.3220 C   0  0  0  0  0  0  0  0  0  0  0  0
  -26.4080  -34.6910   22.3030 O   0  0  0  0  0  0  0  0  0  0  0  0
  -24.8250  -33.6940   24.8310 H   0  0  0  0  0  0  0  0  0  0  0  0
  -23.8540  -36.3740   22.9890 C   0  0  0  0  0  1  0  0  0  0  0  0
  -25.1110  -36.0430   23.8090 C   0  0  0  0  0  3  0  0  0  0  0  0
  -27.1520  -37.0720   24.7080 C   0  0  0  0  0  1  0  0  0  0  0  0
  -26.0600  -37.1760   23.7430 N   0  0  0  0  0  0  0  0  0  0  0  0
  -25.5810  -38.0580   23.9000 H   0  0  0  0  0  0  0  0  0  0  0  0
  2  9  1  0
  2  1  2  0
  3  2  1  0
  4  5  2  0
  5  1  1  0
  6  3  2  0
  6  4  1  0
  7  4  1  0
  7 51  1  0
  8  7  1  0
  9 10  1  0
 11  9  1  0
 12 21  1  0
 12  3  1  0
 13 19  1  0
 13 21  1  0
 14 19  1  0
 15 16  1  0
 15 14  1  0
 17 16  1  0
 17 26  1  0
 17 18  1  0
 19 18  1  0
 20 13  2  0
 21 22  1  0
 23 24  2  0
 24 43  1  0
 25 24  1  0
 25 28  1  0
 26 27  1  0
 26 23  1  0
 27 25  2  0
 28 29  1  0
 29 30  2  0
 31 34  1  0
 31 30  1  0
 32 31  2  0
 33 32  1  0
 33 28  2  0
 34 35  1  0
 35 40  2  0
 35 36  1  0
 36 37  2  0
 37 38  1  0
 38 42  1  0
 39 38  2  0
 40 39  1  0
 41 40  1  0
 43 44  1  0
 44 47  1  0
 44 46  1  0
 45 43  2  0
 48 23  1  0
 48 49  1  0
 50 48  1  0
 52 53  1  0
 52 51  2  0
 54 65  2  0
 55 53  1  0
 55 60  1  0
 56 64  1  0
 56 66  1  0
 57 63  1  0
 57 59  1  0
 58 64  1  0
 59 58  1  0
 60 59  2  0
 61 55  2  0
 62 61  1  0
 62 57  2  0
 63 56  1  0
 64 54  1  0
 66 68  2  0
 67 66  1  0
 69 67  1  0
 70 79  2  0
 70 75  1  0
 71 67  1  0
 71 75  1  0
 72 71  1  0
 73 74  1  0
 73 72  1  0
 74 70  1  0
 75 76  2  0
 76 77  1  0
 78 77  2  0
 79 78  1  0
 80 54  1  0
 80 85  1  0
 80 81  1  0
 81 84  1  1
 81 82  1  0
 83 81  1  0
 85 88  1  0
 86 90  1  0
 86 85  1  0
 87 86  2  0
 90 89  1  0
 92 90  1  0
 92 93  1  0
 92 91  1  0
M  ISO  4  13 100  21 100  52 101  53 101
M  END
>  <TORSDO>  (88) 
F 20

>  <SCORE>  (88) 
-11.170

>  <name>  (88) 
87

>  <ligand_id>  (88) 
87

>  <original_smiles>  (88) 
[H]c1nc(N([H])C([H])([H])C([H])([H])Oc2c([H])c([H])c3c(c2[H])C([H])([H])N(C(=O)C([H])(N([H])C(=O)C([H])(N([H])C([H])([H])[H])C([H])([H])[H])C(C([H])([H])[H])(C([H])([H])[H])C([H])([H])[H])C([H])(C(=O)N([H])C2([H])c4c([H])c([H])c([H])c([H])c4C([H])([H])C([H])([H])C2([H])[H])C3([H])[H])nc(C([H])([H])N([H])C(=O)N2C([H])([H])C([H])([H])C([H])([H])C([H])(n3nc(-c4c([H])c([H])c(Oc5c([H])c([H])c(F)c([H])c5F)c([H])c4[H])c(C(=O)N([H])[H])c3N([H])[H])C2([H])[H])c1N([H])[H]

>  <smiles>  (88) 
[H]c1nc(N([H])C([H])([H])C([H])([H])Oc2c([H])c([H])c3c(c2[H])C([H])([H])N(C(=O)C([H])(N([H])C(=O)C([H])(N([H])C([H])([H])[H])C([H])([H])[H])C(C([H])([H])[H])(C([H])([H])[H])C([H])([H])[H])C([H])(C(=O)N([H])C2([H])c4c([H])c([H])c([H])c([H])c4C([H])([H])C([H])([H])C2([H])[H])C3([H])[H])nc(C([H])([H])N([H])C(=O)N2C([H])([H])C([H])([H])C([H])([H])C([H])(n3nc(-c4c([H])c([H])c(Oc5c([H])c([H])c(F)c([H])c5F)c([H])c4[H])c(C(=O)N([H])[H])c3N([H])[H])C2([H])[H])c1N([H])[H]

$$$$
88:0:0
     RDKit          3D

 94102  0  0  1  0  0  0  0  0999 V2000
  -29.5280  -21.2030   20.1280 N   0  0  0  0  0  0  0  0  0  0  0  0
  -30.0540  -21.5680   19.3370 H   0  0  0  0  0  0  0  0  0  0  0  0
  -30.6090  -14.7240   20.4230 C   0  0  0  0  0  0  0  0  0  0  0  0
  -30.4160  -12.4750   19.3450 C   0  0  0  0  0  2  0  0  0  0  0  0
  -29.4750  -12.5730   18.1220 C   0  0  0  0  0  2  0  0  0  0  0  0
  -28.0050  -12.3900   18.5480 C   0  0  0  0  0  2  0  0  0  0  0  0
  -27.6310  -13.2680   19.7720 C   0  0  0  0  0  3  0  0  0  0  0  0
  -28.6820  -13.1400   20.8970 C   0  0  0  0  0  2  0  0  0  0  0  0
  -29.9890  -13.4990   20.3270 N   0  0  0  0  0  0  0  0  0  0  0  0
  -31.7780  -14.8550   20.0450 O   0  0  0  0  0  0  0  0  0  0  0  0
  -31.1310  -19.2930   20.6150 C   0  0  0  0  0  0  0  0  0  0  0  0
  -29.8570  -19.8370   20.4850 C   0  0  0  0  0  0  0  0  0  0  0  0
  -30.0050  -17.2570   20.7010 C   0  0  0  0  0  0  0  0  0  0  0  0
  -31.1940  -17.8770   20.7580 N   0  0  0  0  0  0  0  0  0  0  0  0
  -29.8130  -15.7960   20.7730 N   0  0  0  0  0  0  0  0  0  0  0  0
  -28.6920  -18.4900   20.5740 S   0  0  0  0  0  0  0  0  0  0  0  0
  -28.8740  -15.5180   21.0110 H   0  0  0  0  0  0  0  0  0  0  0  0
  -25.2350  -13.8590   20.4730 C   0  0  0  0  0  0  0  0  0  0  0  0
  -24.1680  -13.0840   20.8440 C   0  0  0  0  0  0  0  0  0  0  0  0
  -24.6360  -11.7340   20.8250 C   0  0  0  0  0  0  0  0  0  0  0  0
  -26.2830  -12.9800   20.2500 N   0  0  0  0  0  0  0  0  0  0  0  0
  -25.9290  -11.6990   20.5240 N   0  0  0  0  0  0  0  0  0  0  0  0
  -23.9150  -10.4690   21.0220 C   0  0  0  0  0  0  0  0  0  0  0  0
  -24.3520   -9.5090   21.9600 C   0  0  0  0  0  3  0  0  0  0  0  0
  -23.6320   -8.3080   22.1430 C   0  0  0  0  0  3  0  0  0  0  0  0
  -22.4600   -8.0610   21.3890 C   0  0  0  0  0  0  0  0  0  0  0  0
  -22.0430   -9.0120   20.4400 C   0  0  0  0  0  3  0  0  0  0  0  0
  -22.7630  -10.2040   20.2550 C   0  0  0  0  0  3  0  0  0  0  0  0
  -21.7120   -6.9130   21.4810 O   0  0  0  0  0  0  0  0  0  0  0  0
  -21.6740   -6.1700   22.6330 C   0  0  0  0  0  0  0  0  0  0  0  0
  -21.2560   -6.7230   23.8630 C   0  0  0  0  0  3  0  0  0  0  0  0
  -21.1640   -5.9070   25.0070 C   0  0  0  0  0  3  0  0  0  0  0  0
  -21.4820   -4.5390   24.9250 C   0  0  0  0  0  0  0  0  0  0  0  0
  -21.8940   -3.9850   23.7000 C   0  0  0  0  0  3  0  0  0  0  0  0
  -21.9870   -4.7970   22.5570 C   0  0  0  0  0  0  0  0  0  0  0  0
  -22.3640   -4.2550   21.3750 F   0  0  0  0  0  0  0  0  0  0  0  0
  -21.3870   -3.7520   26.0230 F   0  0  0  0  0  0  0  0  0  0  0  0
  -22.7670  -13.5570   21.1040 C   0  0  0  0  0  0  0  0  0  0  0  0
  -22.0370  -12.8620   21.9700 N   0  0  0  0  0  0  0  0  0  0  0  0
  -22.3280  -14.5770   20.5750 O   0  0  0  0  0  0  0  0  0  0  0  0
  -22.4050  -12.0360   22.4180 H   0  0  0  0  0  0  0  0  0  0  0  0
  -21.0970  -13.1600   22.1890 H   0  0  0  0  0  0  0  0  0  0  0  0
  -25.3940  -15.2280   20.2790 N   0  0  0  0  0  0  0  0  0  0  0  0
  -24.6190  -15.8770   20.3550 H   0  0  0  0  0  0  0  0  0  0  0  0
  -26.2240  -15.6530   19.8900 H   0  0  0  0  0  0  0  0  0  0  0  0
  -33.4100  -19.5690   19.5490 C   0  0  0  0  0  1  0  0  0  0  0  0
  -33.0530  -20.1360   22.0130 C   0  0  0  0  0  1  0  0  0  0  0  0
  -32.4210  -20.0750   20.6130 C   0  0  0  0  0  3  0  0  0  0  0  0
  -29.4380  -22.2630   22.4140 C   0  0  0  0  0  1  0  0  0  0  0  0
  -28.8970  -22.2870   20.9670 C   0  0  0  0  0  3  0  0  0  0  0  0
  -28.9770  -23.7780   20.3140 C   0  0  0  0  0  2  0  0  0  0  0  0
  -26.7840  -24.6220   21.3260 C   0  0  0  0  0  1  0  0  0  0  0  0
  -28.2210  -25.0570   20.9630 C   0  0  0  0  0  3  0  0  0  0  0  0
  -28.3390  -26.4030   20.2760 O   0  0  0  0  0  0  0  0  0  0  0  0
  -24.6170  -31.8730   23.2330 C   0  0  0  0  0  0  0  0  0  0  0  0
  -27.2510  -27.3030   20.2160 C   0  0  0  0  0  0  0  0  0  0  0  0
  -23.4300  -30.4720   21.5820 C   0  0  0  0  0  3  0  0  0  0  0  0
  -24.8990  -28.9350   20.1560 C   0  0  0  0  0  0  0  0  0  0  0  0
  -25.9700  -30.7980   21.4180 C   0  0  0  0  0  2  0  0  0  0  0  0
  -26.0610  -29.4180   20.7710 C   0  0  0  0  0  0  0  0  0  0  0  0
  -27.2420  -28.6120   20.7960 C   0  0  0  0  0  3  0  0  0  0  0  0
  -26.0880  -26.9070   19.5230 C   0  0  0  0  0  3  0  0  0  0  0  0
  -24.9160  -27.6880   19.5160 C   0  0  0  0  0  3  0  0  0  0  0  0
  -23.6580  -29.8030   20.2010 C   0  0  0  0  0  2  0  0  0  0  0  0
  -24.6910  -31.0650   22.1350 N   0  0  0  0  0  0  0  0  0  0  0  0
  -23.5290  -32.1450   23.7610 O   0  0  0  0  0  0  0  0  0  0  0  0
  -22.7660  -29.4510   22.5380 C   0  0  0  0  0  0  0  0  0  0  0  0
  -21.4380  -29.2810   22.4140 N   0  0  0  0  0  0  0  0  0  0  0  0
  -23.4440  -28.8180   23.3500 O   0  0  0  0  0  0  0  0  0  0  0  0
  -20.9480  -29.8410   21.7310 H   0  0  0  0  0  0  0  0  0  0  0  0
  -18.0560  -28.0930   22.9160 C   0  0  0  0  0  0  0  0  0  0  0  0
  -20.6170  -28.3410   23.1810 C   0  0  0  0  0  3  0  0  0  0  0  0
  -20.7130  -26.9120   22.5970 C   0  0  0  0  0  2  0  0  0  0  0  0
  -19.6070  -26.6000   21.5840 C   0  0  0  0  0  2  0  0  0  0  0  0
  -18.2260  -26.7470   22.2310 C   0  0  0  0  0  2  0  0  0  0  0  0
  -19.1800  -28.8480   23.3470 C   0  0  0  0  0  0  0  0  0  0  0  0
  -18.9670  -30.1060   23.9510 C   0  0  0  0  0  3  0  0  0  0  0  0
  -17.6650  -30.6110   24.1270 C   0  0  0  0  0  3  0  0  0  0  0  0
  -16.5570  -29.8530   23.7120 C   0  0  0  0  0  3  0  0  0  0  0  0
  -16.7540  -28.5960   23.1130 C   0  0  0  0  0  3  0  0  0  0  0  0
  -25.8930  -32.5120   23.8620 C   0  0  0  0  0  3  0  0  0  0  0  0
  -26.4060  -31.7450   25.1430 C   0  0  1  0  0  0  0  0  0  0  0  0
  -25.3080  -31.5050   26.2060 C   0  0  0  0  0  1  0  0  0  0  0  0
  -26.9960  -30.3690   24.7560 C   0  0  0  0  0  1  0  0  0  0  0  0
  -27.5550  -32.5410   25.8060 C   0  0  0  0  0  1  0  0  0  0  0  0
  -25.5780  -33.9130   24.1890 N   0  0  0  0  0  0  0  0  0  0  0  0
  -25.9120  -34.9660   23.4310 C   0  0  0  0  0  0  0  0  0  0  0  0
  -26.5840  -34.8600   22.4020 O   0  0  0  0  0  0  0  0  0  0  0  0
  -24.9870  -34.0680   24.9920 H   0  0  0  0  0  0  0  0  0  0  0  0
  -24.1800  -36.7540   23.0700 C   0  0  0  0  0  1  0  0  0  0  0  0
  -25.4220  -36.3560   23.8850 C   0  0  0  0  0  3  0  0  0  0  0  0
  -27.5550  -37.2440   24.7140 C   0  0  0  0  0  1  0  0  0  0  0  0
  -26.4530  -37.4110   23.7700 N   0  0  0  0  0  0  0  0  0  0  0  0
  -26.0460  -38.3310   23.9190 H   0  0  0  0  0  0  0  0  0  0  0  0
  1 12  1  0
  1 50  1  0
  2  1  1  0
  3 15  1  0
  4  9  1  0
  5  6  1  0
  5  4  1  0
  7  6  1  0
  7 21  1  0
  7  8  1  0
  9  3  1  0
  9  8  1  0
 10  3  2  0
 11 14  1  0
 12 16  1  0
 12 11  2  0
 13 14  2  0
 13 15  1  0
 15 17  1  0
 16 13  1  0
 18 19  2  0
 19 38  1  0
 20 19  1  0
 20 23  1  0
 21 18  1  0
 21 22  1  0
 22 20  2  0
 23 24  1  0
 24 25  2  0
 26 29  1  0
 26 25  1  0
 27 26  2  0
 28 27  1  0
 28 23  2  0
 29 30  1  0
 30 31  1  0
 31 32  2  0
 33 32  1  0
 33 37  1  0
 34 33  2  0
 35 30  2  0
 35 34  1  0
 36 35  1  0
 38 39  1  0
 39 42  1  0
 39 41  1  0
 40 38  2  0
 43 44  1  0
 43 18  1  0
 45 43  1  0
 46 48  1  0
 48 11  1  0
 48 47  1  0
 50 49  1  0
 51 53  1  0
 51 50  1  0
 53 52  1  0
 54 53  1  0
 55 66  2  0
 56 54  1  0
 56 61  1  0
 57 65  1  0
 57 67  1  0
 58 64  1  0
 58 60  1  0
 59 65  1  0
 60 61  2  0
 60 59  1  0
 62 56  2  0
 63 62  1  0
 63 58  2  0
 64 57  1  0
 65 55  1  0
 67 69  2  0
 68 67  1  0
 70 68  1  0
 71 80  2  0
 71 76  1  0
 72 68  1  0
 72 76  1  0
 73 72  1  0
 74 75  1  0
 74 73  1  0
 75 71  1  0
 76 77  2  0
 77 78  1  0
 79 78  2  0
 80 79  1  0
 81 55  1  0
 81 86  1  0
 81 82  1  0
 82 85  1  1
 82 83  1  0
 84 82  1  0
 86 89  1  0
 87 91  1  0
 87 86  1  0
 88 87  2  0
 91 90  1  0
 93 91  1  0
 93 94  1  0
 93 92  1  0
M  ISO  4   3 100  15 100  53 101  54 101
M  END
>  <TORSDO>  (89) 
F 20

>  <SCORE>  (89) 
-14.218

>  <name>  (89) 
88

>  <ligand_id>  (89) 
88

>  <original_smiles>  (89) 
[H]c1c([H])c([H])c2c(c1[H])C([H])([H])C([H])([H])C([H])([H])C2([H])N([H])C(=O)C1([H])N(C(=O)C([H])(N([H])C(=O)C([H])(N([H])C([H])([H])[H])C([H])([H])[H])C(C([H])([H])[H])(C([H])([H])[H])C([H])([H])[H])C([H])([H])c2c([H])c(OC([H])(C([H])([H])[H])C([H])([H])C([H])(N([H])c3sc(N([H])C(=O)N4C([H])([H])C([H])([H])C([H])([H])C([H])(n5nc(-c6c([H])c([H])c(Oc7c([H])c([H])c(F)c([H])c7F)c([H])c6[H])c(C(=O)N([H])[H])c5N([H])[H])C4([H])[H])nc3C([H])(C([H])([H])[H])C([H])([H])[H])C([H])([H])[H])c([H])c([H])c2C1([H])[H]

>  <smiles>  (89) 
[H]c1c([H])c([H])c2c(c1[H])C([H])([H])C([H])([H])C([H])([H])C2([H])N([H])C(=O)C1([H])N(C(=O)C([H])(N([H])C(=O)C([H])(N([H])C([H])([H])[H])C([H])([H])[H])C(C([H])([H])[H])(C([H])([H])[H])C([H])([H])[H])C([H])([H])c2c([H])c(OC([H])(C([H])([H])[H])C([H])([H])C([H])(N([H])c3sc(N([H])C(=O)N4C([H])([H])C([H])([H])C([H])([H])C([H])(n5nc(-c6c([H])c([H])c(Oc7c([H])c([H])c(F)c([H])c7F)c([H])c6[H])c(C(=O)N([H])[H])c5N([H])[H])C4([H])[H])nc3C([H])(C([H])([H])[H])C([H])([H])[H])C([H])([H])[H])c([H])c([H])c2C1([H])[H]

$$$$
89:0:0
     RDKit          3D

 93101  0  0  1  0  0  0  0  0999 V2000
  -29.7240  -21.9570   21.9530 C   0  0  0  0  0  1  0  0  0  0  0  0
  -29.0840  -22.2360   20.5840 C   0  0  0  0  0  3  0  0  0  0  0  0
  -29.9070  -17.2640   18.2520 C   0  0  0  0  0  3  0  0  0  0  0  0
  -29.7190  -19.5450   17.9310 C   0  0  0  0  0  3  0  0  0  0  0  0
  -29.8590  -17.3820   19.6660 C   0  0  0  0  0  0  0  0  0  0  0  0
  -29.6700  -19.8120   19.3240 C   0  0  0  0  0  0  0  0  0  0  0  0
  -29.8230  -18.3080   17.3990 N   0  0  0  0  0  0  0  0  0  0  0  0
  -29.7120  -18.7020   20.1910 N   0  0  0  0  0  0  0  0  0  0  0  0
  -29.6990  -21.2520   19.6070 N   0  0  0  0  0  0  0  0  0  0  0  0
  -29.8930  -21.7630   18.7510 H   0  0  0  0  0  0  0  0  0  0  0  0
  -30.6070  -14.9090   20.2480 C   0  0  0  0  0  0  0  0  0  0  0  0
  -30.4480  -12.5920   19.3200 C   0  0  0  0  0  2  0  0  0  0  0  0
  -29.5230  -12.6630   18.0830 C   0  0  0  0  0  2  0  0  0  0  0  0
  -28.0370  -12.5240   18.4830 C   0  0  0  0  0  2  0  0  0  0  0  0
  -27.6720  -13.3580   19.7390 C   0  0  0  0  0  3  0  0  0  0  0  0
  -28.7320  -13.2660   20.8560 C   0  0  0  0  0  2  0  0  0  0  0  0
  -30.0130  -13.6590   20.2490 N   0  0  0  0  0  0  0  0  0  0  0  0
  -31.8070  -14.9990   19.9770 O   0  0  0  0  0  0  0  0  0  0  0  0
  -29.8060  -16.0550   20.3690 N   0  0  0  0  0  0  0  0  0  0  0  0
  -28.8670  -15.8040   20.6320 H   0  0  0  0  0  0  0  0  0  0  0  0
  -25.2660  -13.9310   20.4350 C   0  0  0  0  0  0  0  0  0  0  0  0
  -24.1970  -13.1560   20.7950 C   0  0  0  0  0  0  0  0  0  0  0  0
  -24.6730  -11.8120   20.7840 C   0  0  0  0  0  0  0  0  0  0  0  0
  -26.3200  -13.0620   20.2200 N   0  0  0  0  0  0  0  0  0  0  0  0
  -25.9720  -11.7790   20.4970 N   0  0  0  0  0  0  0  0  0  0  0  0
  -23.9470  -10.5490   20.9800 C   0  0  0  0  0  0  0  0  0  0  0  0
  -24.3740   -9.5990   21.9350 C   0  0  0  0  0  3  0  0  0  0  0  0
  -23.6550   -8.3960   22.1140 C   0  0  0  0  0  3  0  0  0  0  0  0
  -22.4960   -8.1430   21.3440 C   0  0  0  0  0  0  0  0  0  0  0  0
  -22.0880   -9.0830   20.3840 C   0  0  0  0  0  3  0  0  0  0  0  0
  -22.8050  -10.2760   20.2010 C   0  0  0  0  0  3  0  0  0  0  0  0
  -21.7490   -6.9950   21.4350 O   0  0  0  0  0  0  0  0  0  0  0  0
  -21.6940   -6.2660   22.5960 C   0  0  0  0  0  0  0  0  0  0  0  0
  -21.2500   -6.8280   23.8120 C   0  0  0  0  0  3  0  0  0  0  0  0
  -21.1370   -6.0210   24.9620 C   0  0  0  0  0  3  0  0  0  0  0  0
  -21.4600   -4.6500   24.8950 C   0  0  0  0  0  0  0  0  0  0  0  0
  -21.9000   -4.0890   23.6820 C   0  0  0  0  0  3  0  0  0  0  0  0
  -22.0140   -4.8960   22.5390 C   0  0  0  0  0  0  0  0  0  0  0  0
  -22.4170   -4.3460   21.3670 F   0  0  0  0  0  0  0  0  0  0  0  0
  -21.3490   -3.8720   25.9950 F   0  0  0  0  0  0  0  0  0  0  0  0
  -22.7940  -13.6350   21.0270 C   0  0  0  0  0  0  0  0  0  0  0  0
  -22.0450  -12.9550   21.8870 N   0  0  0  0  0  0  0  0  0  0  0  0
  -22.3670  -14.6520   20.4860 O   0  0  0  0  0  0  0  0  0  0  0  0
  -22.4080  -12.1430   22.3550 H   0  0  0  0  0  0  0  0  0  0  0  0
  -21.1080  -13.2650   22.0870 H   0  0  0  0  0  0  0  0  0  0  0  0
  -25.3920  -15.3020   20.2650 N   0  0  0  0  0  0  0  0  0  0  0  0
  -24.5710  -15.8850   20.3960 H   0  0  0  0  0  0  0  0  0  0  0  0
  -26.2220  -15.8170   19.9990 H   0  0  0  0  0  0  0  0  0  0  0  0
  -29.1830  -23.8330   20.1370 C   0  0  0  0  0  2  0  0  0  0  0  0
  -28.2540  -25.0520   20.7330 C   0  0  0  0  0  3  0  0  0  0  0  0
  -29.7490  -25.9850   22.5920 C   0  0  0  0  0  1  0  0  0  0  0  0
  -28.4470  -25.2380   22.2510 C   0  0  0  0  0  2  0  0  0  0  0  0
  -28.3690  -26.4700   20.2020 O   0  0  0  0  0  0  0  0  0  0  0  0
  -24.6280  -31.9500   23.2480 C   0  0  0  0  0  0  0  0  0  0  0  0
  -27.2500  -27.3430   20.2280 C   0  0  0  0  0  0  0  0  0  0  0  0
  -23.4250  -30.5430   21.6150 C   0  0  0  0  0  3  0  0  0  0  0  0
  -24.8800  -28.9730   20.2090 C   0  0  0  0  0  0  0  0  0  0  0  0
  -25.9660  -30.8610   21.4260 C   0  0  0  0  0  2  0  0  0  0  0  0
  -26.0520  -29.4730   20.7930 C   0  0  0  0  0  0  0  0  0  0  0  0
  -27.2410  -28.6690   20.7920 C   0  0  0  0  0  3  0  0  0  0  0  0
  -26.0530  -26.9140   19.6190 C   0  0  0  0  0  3  0  0  0  0  0  0
  -24.8860  -27.7010   19.6150 C   0  0  0  0  0  3  0  0  0  0  0  0
  -23.6450  -29.8500   20.2420 C   0  0  0  0  0  2  0  0  0  0  0  0
  -24.6920  -31.1370   22.1540 N   0  0  0  0  0  0  0  0  0  0  0  0
  -23.5470  -32.2300   23.7860 O   0  0  0  0  0  0  0  0  0  0  0  0
  -22.7610  -29.5340   22.5830 C   0  0  0  0  0  0  0  0  0  0  0  0
  -21.4370  -29.3420   22.4490 N   0  0  0  0  0  0  0  0  0  0  0  0
  -23.4340  -28.9290   23.4180 O   0  0  0  0  0  0  0  0  0  0  0  0
  -20.9490  -29.8770   21.7460 H   0  0  0  0  0  0  0  0  0  0  0  0
  -18.0750  -28.1030   22.9310 C   0  0  0  0  0  0  0  0  0  0  0  0
  -20.6270  -28.4060   23.2280 C   0  0  0  0  0  3  0  0  0  0  0  0
  -20.7570  -26.9670   22.6790 C   0  0  0  0  0  2  0  0  0  0  0  0
  -19.6740  -26.6130   21.6540 C   0  0  0  0  0  2  0  0  0  0  0  0
  -18.2810  -26.7470   22.2780 C   0  0  0  0  0  2  0  0  0  0  0  0
  -19.1760  -28.8870   23.3640 C   0  0  0  0  0  0  0  0  0  0  0  0
  -18.9310  -30.1560   23.9330 C   0  0  0  0  0  3  0  0  0  0  0  0
  -17.6160  -30.6380   24.0750 C   0  0  0  0  0  3  0  0  0  0  0  0
  -16.5300  -29.8510   23.6620 C   0  0  0  0  0  3  0  0  0  0  0  0
  -16.7590  -28.5850   23.0950 C   0  0  0  0  0  3  0  0  0  0  0  0
  -25.9080  -32.5920   23.8670 C   0  0  0  0  0  3  0  0  0  0  0  0
  -26.4240  -31.8330   25.1510 C   0  0  1  0  0  0  0  0  0  0  0  0
  -25.3270  -31.5950   26.2150 C   0  0  0  0  0  1  0  0  0  0  0  0
  -27.0240  -30.4620   24.7710 C   0  0  0  0  0  1  0  0  0  0  0  0
  -27.5680  -32.6370   25.8130 C   0  0  0  0  0  1  0  0  0  0  0  0
  -25.5970  -33.9910   24.1940 N   0  0  0  0  0  0  0  0  0  0  0  0
  -25.9290  -35.0440   23.4350 C   0  0  0  0  0  0  0  0  0  0  0  0
  -26.6010  -34.9360   22.4060 O   0  0  0  0  0  0  0  0  0  0  0  0
  -24.9940  -34.1450   24.9920 H   0  0  0  0  0  0  0  0  0  0  0  0
  -24.2030  -36.8340   23.0690 C   0  0  0  0  0  1  0  0  0  0  0  0
  -25.4390  -36.4340   23.8900 C   0  0  0  0  0  3  0  0  0  0  0  0
  -27.5730  -37.3150   24.7270 C   0  0  0  0  0  1  0  0  0  0  0  0
  -26.4720  -37.4880   23.7780 N   0  0  0  0  0  0  0  0  0  0  0  0
  -26.0680  -38.4080   23.9330 H   0  0  0  0  0  0  0  0  0  0  0  0
  2  1  1  0
  3  5  1  0
  4  6  2  0
  5  8  2  0
  5 19  1  0
  6  9  1  0
  6  8  1  0
  7  4  1  0
  7  3  2  0
  9  2  1  0
 10  9  1  0
 11 17  1  0
 11 19  1  0
 12 17  1  0
 13 14  1  0
 13 12  1  0
 15 14  1  0
 15 24  1  0
 15 16  1  0
 17 16  1  0
 18 11  2  0
 19 20  1  0
 21 22  2  0
 22 41  1  0
 23 22  1  0
 23 26  1  0
 24 21  1  0
 24 25  1  0
 25 23  2  0
 26 27  1  0
 27 28  2  0
 29 32  1  0
 29 28  1  0
 30 29  2  0
 31 30  1  0
 31 26  2  0
 32 33  1  0
 33 34  1  0
 34 35  2  0
 36 35  1  0
 36 40  1  0
 37 36  2  0
 38 33  2  0
 38 37  1  0
 39 38  1  0
 41 42  1  0
 42 45  1  0
 42 44  1  0
 43 41  2  0
 46 47  1  0
 46 21  1  0
 48 46  1  0
 49  2  1  0
 50 49  1  0
 50 52  1  0
 52 51  1  0
 53 55  1  0
 53 50  1  0
 54 65  2  0
 55 60  1  0
 56 64  1  0
 56 66  1  0
 57 63  1  0
 57 59  1  0
 58 64  1  0
 59 58  1  0
 60 59  2  0
 61 55  2  0
 62 61  1  0
 62 57  2  0
 63 56  1  0
 64 54  1  0
 66 68  2  0
 67 66  1  0
 69 67  1  0
 70 79  2  0
 70 75  1  0
 71 67  1  0
 71 75  1  0
 72 71  1  0
 73 74  1  0
 73 72  1  0
 74 70  1  0
 75 76  2  0
 76 77  1  0
 78 77  2  0
 79 78  1  0
 80 54  1  0
 80 85  1  0
 80 81  1  0
 81 84  1  1
 81 82  1  0
 83 81  1  0
 85 88  1  0
 86 90  1  0
 86 85  1  0
 87 86  2  0
 90 89  1  0
 92 90  1  0
 92 93  1  0
 92 91  1  0
M  ISO  4  11 100  19 100  50 101  53 101
M  END
>  <TORSDO>  (90) 
F 20

>  <SCORE>  (90) 
-13.767

>  <name>  (90) 
89

>  <ligand_id>  (90) 
89

>  <original_smiles>  (90) 
[H]c1nc([H])c(N([H])C([H])(C([H])([H])[H])C([H])([H])C([H])(Oc2c([H])c([H])c3c(c2[H])C([H])([H])N(C(=O)C([H])(N([H])C(=O)C([H])(N([H])C([H])([H])[H])C([H])([H])[H])C(C([H])([H])[H])(C([H])([H])[H])C([H])([H])[H])C([H])(C(=O)N([H])C2([H])c4c([H])c([H])c([H])c([H])c4C([H])([H])C([H])([H])C2([H])[H])C3([H])[H])C([H])([H])C([H])([H])[H])nc1N([H])C(=O)N1C([H])([H])C([H])([H])C([H])([H])C([H])(n2nc(-c3c([H])c([H])c(Oc4c([H])c([H])c(F)c([H])c4F)c([H])c3[H])c(C(=O)N([H])[H])c2N([H])[H])C1([H])[H]

>  <smiles>  (90) 
[H]c1nc([H])c(N([H])C([H])(C([H])([H])[H])C([H])([H])C([H])(Oc2c([H])c([H])c3c(c2[H])C([H])([H])N(C(=O)C([H])(N([H])C(=O)C([H])(N([H])C([H])([H])[H])C([H])([H])[H])C(C([H])([H])[H])(C([H])([H])[H])C([H])([H])[H])C([H])(C(=O)N([H])C2([H])c4c([H])c([H])c([H])c([H])c4C([H])([H])C([H])([H])C2([H])[H])C3([H])[H])C([H])([H])C([H])([H])[H])nc1N([H])C(=O)N1C([H])([H])C([H])([H])C([H])([H])C([H])(n2nc(-c3c([H])c([H])c(Oc4c([H])c([H])c(F)c([H])c4F)c([H])c3[H])c(C(=O)N([H])[H])c2N([H])[H])C1([H])[H]

$$$$
90:0:0
     RDKit          3D

 91 99  0  0  1  0  0  0  0  0999 V2000
  -29.1690  -22.4070   19.7570 C   0  0  0  0  0  2  0  0  0  0  0  0
  -30.6180  -18.7070   18.3480 C   0  0  0  0  0  2  0  0  0  0  0  0
  -29.9590  -17.5210   20.1290 C   0  0  0  0  0  0  0  0  0  0  0  0
  -29.5890  -19.8090   19.9710 C   0  0  0  0  0  0  0  0  0  0  0  0
  -30.5340  -17.5140   18.9320 N   0  0  0  0  0  0  0  0  0  0  0  0
  -30.1780  -19.8790   18.7950 N   0  0  0  0  0  0  0  0  0  0  0  0
  -29.4490  -18.6670   20.6920 N   0  0  0  0  0  2  0  0  0  0  0  0
  -29.0890  -21.0590   20.4500 N   0  0  0  0  0  0  0  0  0  0  0  0
  -28.6010  -21.0310   21.3360 H   0  0  0  0  0  0  0  0  0  0  0  0
  -29.8080  -16.1030   20.8660 C   0  0  0  0  0  2  0  0  0  0  0  0
  -30.5740  -14.7550   20.3980 C   0  0  0  0  0  0  0  0  0  0  0  0
  -30.3710  -12.4810   19.3620 C   0  0  0  0  0  2  0  0  0  0  0  0
  -29.4380  -12.5800   18.1330 C   0  0  0  0  0  2  0  0  0  0  0  0
  -27.9620  -12.4150   18.5510 C   0  0  0  0  0  2  0  0  0  0  0  0
  -27.5920  -13.2910   19.7770 C   0  0  0  0  0  3  0  0  0  0  0  0
  -28.6460  -13.1780   20.9000 C   0  0  0  0  0  2  0  0  0  0  0  0
  -29.9510  -13.5250   20.3250 N   0  0  0  0  0  0  0  0  0  0  0  0
  -31.7530  -14.8270   20.0300 O   0  0  0  0  0  0  0  0  0  0  0  0
  -25.2000  -13.8920   20.4890 C   0  0  0  0  0  0  0  0  0  0  0  0
  -24.1310  -13.1250   20.8610 C   0  0  0  0  0  0  0  0  0  0  0  0
  -24.5910  -11.7730   20.8410 C   0  0  0  0  0  0  0  0  0  0  0  0
  -26.2430  -13.0100   20.2640 N   0  0  0  0  0  0  0  0  0  0  0  0
  -25.8830  -11.7300   20.5390 N   0  0  0  0  0  0  0  0  0  0  0  0
  -23.8610  -10.5140   21.0380 C   0  0  0  0  0  0  0  0  0  0  0  0
  -24.2920   -9.5460   21.9730 C   0  0  0  0  0  3  0  0  0  0  0  0
  -23.5610   -8.3530   22.1550 C   0  0  0  0  0  3  0  0  0  0  0  0
  -22.3850   -8.1170   21.4040 C   0  0  0  0  0  0  0  0  0  0  0  0
  -21.9750   -9.0720   20.4580 C   0  0  0  0  0  3  0  0  0  0  0  0
  -22.7050  -10.2570   20.2730 C   0  0  0  0  0  3  0  0  0  0  0  0
  -21.6270   -6.9750   21.4960 O   0  0  0  0  0  0  0  0  0  0  0  0
  -21.5850   -6.2290   22.6470 C   0  0  0  0  0  0  0  0  0  0  0  0
  -21.1750   -6.7830   23.8790 C   0  0  0  0  0  3  0  0  0  0  0  0
  -21.0800   -5.9640   25.0220 C   0  0  0  0  0  3  0  0  0  0  0  0
  -21.3850   -4.5930   24.9330 C   0  0  0  0  0  0  0  0  0  0  0  0
  -21.7870   -4.0380   23.7050 C   0  0  0  0  0  3  0  0  0  0  0  0
  -21.8840   -4.8540   22.5650 C   0  0  0  0  0  0  0  0  0  0  0  0
  -22.2510   -4.3110   21.3790 F   0  0  0  0  0  0  0  0  0  0  0  0
  -21.2870   -3.8030   26.0290 F   0  0  0  0  0  0  0  0  0  0  0  0
  -22.7330  -13.6090   21.1200 C   0  0  0  0  0  0  0  0  0  0  0  0
  -21.9960  -12.9200   21.9840 N   0  0  0  0  0  0  0  0  0  0  0  0
  -22.3020  -14.6320   20.5870 O   0  0  0  0  0  0  0  0  0  0  0  0
  -22.3570  -12.0960   22.4380 H   0  0  0  0  0  0  0  0  0  0  0  0
  -21.0560  -13.2260   22.1960 H   0  0  0  0  0  0  0  0  0  0  0  0
  -25.3670  -15.2610   20.3000 N   0  0  0  0  0  0  0  0  0  0  0  0
  -24.5960  -15.9130   20.3960 H   0  0  0  0  0  0  0  0  0  0  0  0
  -26.2120  -15.6970   19.9520 H   0  0  0  0  0  0  0  0  0  0  0  0
  -28.5000  -23.7130   20.4440 C   0  0  0  0  0  3  0  0  0  0  0  0
  -27.1630  -23.3240   20.7000 O   0  0  0  0  0  0  0  0  0  0  0  0
  -26.7770  -23.0580   19.8700 H   0  0  0  0  0  0  0  0  0  0  0  0
  -28.4730  -25.1070   19.6060 C   0  0  0  0  0  2  0  0  0  0  0  0
  -28.3560  -26.4630   20.2340 O   0  0  0  0  0  0  0  0  0  0  0  0
  -24.5980  -31.8730   23.2250 C   0  0  0  0  0  0  0  0  0  0  0  0
  -27.2150  -27.2920   20.1630 C   0  0  0  0  0  0  0  0  0  0  0  0
  -23.3940  -30.4740   21.5850 C   0  0  0  0  0  3  0  0  0  0  0  0
  -24.8430  -28.9170   20.1590 C   0  0  0  0  0  0  0  0  0  0  0  0
  -25.9330  -30.7890   21.3990 C   0  0  0  0  0  2  0  0  0  0  0  0
  -26.0120  -29.4060   20.7540 C   0  0  0  0  0  0  0  0  0  0  0  0
  -27.1950  -28.6020   20.7490 C   0  0  0  0  0  3  0  0  0  0  0  0
  -26.0150  -26.8580   19.5550 C   0  0  0  0  0  3  0  0  0  0  0  0
  -24.8480  -27.6500   19.5540 C   0  0  0  0  0  3  0  0  0  0  0  0
  -23.6070  -29.7930   20.2070 C   0  0  0  0  0  2  0  0  0  0  0  0
  -24.6600  -31.0660   22.1260 N   0  0  0  0  0  0  0  0  0  0  0  0
  -23.5140  -32.1510   23.7610 O   0  0  0  0  0  0  0  0  0  0  0  0
  -22.7310  -29.4600   22.5490 C   0  0  0  0  0  0  0  0  0  0  0  0
  -21.4040  -29.2850   22.4250 N   0  0  0  0  0  0  0  0  0  0  0  0
  -23.4100  -28.8340   23.3660 O   0  0  0  0  0  0  0  0  0  0  0  0
  -20.9130  -29.8450   21.7410 H   0  0  0  0  0  0  0  0  0  0  0  0
  -18.0260  -28.0870   22.9290 C   0  0  0  0  0  0  0  0  0  0  0  0
  -20.5850  -28.3470   23.1960 C   0  0  0  0  0  3  0  0  0  0  0  0
  -20.6850  -26.9150   22.6230 C   0  0  0  0  0  2  0  0  0  0  0  0
  -19.5820  -26.5910   21.6100 C   0  0  0  0  0  2  0  0  0  0  0  0
  -18.2010  -26.7380   22.2540 C   0  0  0  0  0  2  0  0  0  0  0  0
  -19.1450  -28.8490   23.3580 C   0  0  0  0  0  0  0  0  0  0  0  0
  -18.9260  -30.1130   23.9490 C   0  0  0  0  0  3  0  0  0  0  0  0
  -17.6210  -30.6130   24.1160 C   0  0  0  0  0  3  0  0  0  0  0  0
  -16.5170  -29.8480   23.7030 C   0  0  0  0  0  3  0  0  0  0  0  0
  -16.7200  -28.5870   23.1140 C   0  0  0  0  0  3  0  0  0  0  0  0
  -25.8800  -32.5080   23.8490 C   0  0  0  0  0  3  0  0  0  0  0  0
  -25.5690  -33.9060   24.1810 N   0  0  0  0  0  0  0  0  0  0  0  0
  -25.9000  -34.9610   23.4230 C   0  0  0  0  0  0  0  0  0  0  0  0
  -26.5660  -34.8590   22.3900 O   0  0  0  0  0  0  0  0  0  0  0  0
  -24.9770  -34.0590   24.9840 H   0  0  0  0  0  0  0  0  0  0  0  0
  -24.1720  -36.7580   23.0760 C   0  0  0  0  0  1  0  0  0  0  0  0
  -25.4130  -36.3490   23.8850 C   0  0  0  0  0  3  0  0  0  0  0  0
  -27.5510  -37.2310   24.7130 C   0  0  0  0  0  1  0  0  0  0  0  0
  -26.4470  -37.4010   23.7720 N   0  0  0  0  0  0  0  0  0  0  0  0
  -26.0430  -38.3200   23.9200 H   0  0  0  0  0  0  0  0  0  0  0  0
  -26.3940  -31.7390   25.1260 C   0  0  1  0  0  0  0  0  0  0  0  0
  -25.3010  -31.5080   26.1960 C   0  0  0  0  0  1  0  0  0  0  0  0
  -26.9760  -30.3590   24.7360 C   0  0  0  0  0  1  0  0  0  0  0  0
  -27.5460  -32.5320   25.7870 C   0  0  0  0  0  1  0  0  0  0  0  0
  1 47  1  0
  1  8  1  0
  2  6  1  0
  2  5  1  0
  3  7  1  0
  3 10  1  0
  4  8  1  0
  4  7  1  0
  5  3  2  0
  6  4  2  0
  8  9  1  0
 11 10  1  0
 12 17  1  0
 13 14  1  0
 13 12  1  0
 15 14  1  0
 15 22  1  0
 15 16  1  0
 17 11  1  0
 17 16  1  0
 18 11  2  0
 19 20  2  0
 20 39  1  0
 21 20  1  0
 21 24  1  0
 22 19  1  0
 22 23  1  0
 23 21  2  0
 24 25  1  0
 25 26  2  0
 27 30  1  0
 27 26  1  0
 28 27  2  0
 29 28  1  0
 29 24  2  0
 30 31  1  0
 31 32  1  0
 32 33  2  0
 34 33  1  0
 34 38  1  0
 35 34  2  0
 36 31  2  0
 36 35  1  0
 37 36  1  0
 39 40  1  0
 40 43  1  0
 40 42  1  0
 41 39  2  0
 44 45  1  0
 44 19  1  0
 46 44  1  0
 47 50  1  0
 47 48  1  0
 49 48  1  0
 50 51  1  0
 52 63  2  0
 53 51  1  0
 53 58  1  0
 54 62  1  0
 54 64  1  0
 55 61  1  0
 55 57  1  0
 56 62  1  0
 57 56  1  0
 58 57  2  0
 59 53  2  0
 60 59  1  0
 60 55  2  0
 61 54  1  0
 62 52  1  0
 64 66  2  0
 65 64  1  0
 67 65  1  0
 68 77  2  0
 68 73  1  0
 69 65  1  0
 69 73  1  0
 70 69  1  0
 71 72  1  0
 71 70  1  0
 72 68  1  0
 73 74  2  0
 74 75  1  0
 76 75  2  0
 77 76  1  0
 78 52  1  0
 78 79  1  0
 78 88  1  0
 79 82  1  0
 80 84  1  0
 80 79  1  0
 81 80  2  0
 84 83  1  0
 86 84  1  0
 86 87  1  0
 86 85  1  0
 88 91  1  1
 88 89  1  0
 90 88  1  0
M  ISO  4  10 100  11 100  50 101  51 101
M  END
>  <TORSDO>  (91) 
F 21

>  <SCORE>  (91) 
-13.680

>  <name>  (91) 
90

>  <ligand_id>  (91) 
90

>  <original_smiles>  (91) 
[H]OC([H])(C([H])([H])Oc1c([H])c([H])c2c(c1[H])C([H])([H])N(C(=O)C([H])(N([H])C(=O)C([H])(N([H])C([H])([H])[H])C([H])([H])[H])C(C([H])([H])[H])(C([H])([H])[H])C([H])([H])[H])C([H])(C(=O)N([H])C1([H])c3c([H])c([H])c([H])c([H])c3C([H])([H])C([H])([H])C1([H])[H])C2([H])[H])C([H])([H])N([H])c1nc([H])nc(C([H])([H])C(=O)N2C([H])([H])C([H])([H])C([H])([H])C([H])(n3nc(-c4c([H])c([H])c(Oc5c([H])c([H])c(F)c([H])c5F)c([H])c4[H])c(C(=O)N([H])[H])c3N([H])[H])C2([H])[H])n1

>  <smiles>  (91) 
[H]OC([H])(C([H])([H])Oc1c([H])c([H])c2c(c1[H])C([H])([H])N(C(=O)C([H])(N([H])C(=O)C([H])(N([H])C([H])([H])[H])C([H])([H])[H])C(C([H])([H])[H])(C([H])([H])[H])C([H])([H])[H])C([H])(C(=O)N([H])C1([H])c3c([H])c([H])c([H])c([H])c3C([H])([H])C([H])([H])C1([H])[H])C2([H])[H])C([H])([H])N([H])c1nc([H])nc(C([H])([H])C(=O)N2C([H])([H])C([H])([H])C([H])([H])C([H])(n3nc(-c4c([H])c([H])c(Oc5c([H])c([H])c(F)c([H])c5F)c([H])c4[H])c(C(=O)N([H])[H])c3N([H])[H])C2([H])[H])n1

$$$$
91:0:0
     RDKit          3D

100108  0  0  1  0  0  0  0  0999 V2000
  -29.4740  -21.8240   19.8880 N   0  0  0  0  0  4  0  0  0  0  0  0
  -30.4080  -21.5140   19.6680 H   0  0  0  0  0  0  0  0  0  0  0  0
  -29.4620  -22.0550   20.8660 H   0  0  0  0  0  0  0  0  0  0  0  0
  -28.5230  -20.7120   19.6350 C   0  0  0  0  0  2  0  0  0  0  0  0
  -29.8010  -17.7080   21.3890 C   0  0  0  0  0  3  0  0  0  0  0  0
  -29.1080  -19.3070   19.8640 C   0  0  0  0  0  0  0  0  0  0  0  0
  -29.8450  -16.7130   20.3820 C   0  0  0  0  0  0  0  0  0  0  0  0
  -29.1870  -18.3240   18.8360 C   0  0  0  0  0  0  0  0  0  0  0  0
  -29.4550  -18.9990   21.1400 N   0  0  0  0  0  0  0  0  0  0  0  0
  -29.5670  -17.0490   19.0920 N   0  0  0  0  0  0  0  0  0  0  0  0
  -28.8460  -18.5660   17.5100 N   0  0  0  0  0  0  0  0  0  0  0  0
  -28.3590  -19.4070   17.2260 H   0  0  0  0  0  0  0  0  0  0  0  0
  -28.6910  -17.7750   16.8960 H   0  0  0  0  0  0  0  0  0  0  0  0
  -30.7100  -14.4250   20.1030 C   0  0  0  0  0  0  0  0  0  0  0  0
  -30.3590  -12.2840   18.9450 C   0  0  0  0  0  2  0  0  0  0  0  0
  -29.3670  -12.5640   17.7990 C   0  0  0  0  0  2  0  0  0  0  0  0
  -27.9070  -12.4490   18.2880 C   0  0  0  0  0  2  0  0  0  0  0  0
  -27.6480  -13.2270   19.6070 C   0  0  0  0  0  3  0  0  0  0  0  0
  -28.7540  -12.9320   20.6480 C   0  0  0  0  0  2  0  0  0  0  0  0
  -30.0590  -13.2320   20.0280 N   0  0  0  0  0  0  0  0  0  0  0  0
  -31.7820  -14.6490   19.5290 O   0  0  0  0  0  0  0  0  0  0  0  0
  -30.0780  -15.3740   20.8030 N   0  0  0  0  0  0  0  0  0  0  0  0
  -29.4160  -15.0180   21.4740 H   0  0  0  0  0  0  0  0  0  0  0  0
  -25.2800  -13.8320   20.4280 C   0  0  0  0  0  0  0  0  0  0  0  0
  -24.2250  -13.0590   20.8310 C   0  0  0  0  0  0  0  0  0  0  0  0
  -24.6760  -11.7070   20.7520 C   0  0  0  0  0  0  0  0  0  0  0  0
  -26.3100  -12.9500   20.1360 N   0  0  0  0  0  0  0  0  0  0  0  0
  -25.9510  -11.6660   20.3850 N   0  0  0  0  0  0  0  0  0  0  0  0
  -23.9510  -10.4430   20.9490 C   0  0  0  0  0  0  0  0  0  0  0  0
  -24.3900   -9.4790   21.8810 C   0  0  0  0  0  3  0  0  0  0  0  0
  -23.6650   -8.2820   22.0700 C   0  0  0  0  0  3  0  0  0  0  0  0
  -22.4870   -8.0390   21.3240 C   0  0  0  0  0  0  0  0  0  0  0  0
  -22.0650   -8.9940   20.3820 C   0  0  0  0  0  3  0  0  0  0  0  0
  -22.7920  -10.1830   20.1930 C   0  0  0  0  0  3  0  0  0  0  0  0
  -21.7330   -6.8930   21.4200 O   0  0  0  0  0  0  0  0  0  0  0  0
  -21.6540   -6.1790   22.5890 C   0  0  0  0  0  0  0  0  0  0  0  0
  -21.1800   -6.7590   23.7870 C   0  0  0  0  0  3  0  0  0  0  0  0
  -21.0490   -5.9700   24.9470 C   0  0  0  0  0  3  0  0  0  0  0  0
  -21.3820   -4.6030   24.9100 C   0  0  0  0  0  0  0  0  0  0  0  0
  -21.8480   -4.0210   23.7180 C   0  0  0  0  0  3  0  0  0  0  0  0
  -21.9810   -4.8070   22.5590 C   0  0  0  0  0  0  0  0  0  0  0  0
  -22.4080   -4.2370   21.4070 F   0  0  0  0  0  0  0  0  0  0  0  0
  -21.2490   -3.8430   26.0220 F   0  0  0  0  0  0  0  0  0  0  0  0
  -22.8440  -13.5370   21.1790 C   0  0  0  0  0  0  0  0  0  0  0  0
  -22.1530  -12.8270   22.0630 N   0  0  0  0  0  0  0  0  0  0  0  0
  -22.3890  -14.5750   20.7000 O   0  0  0  0  0  0  0  0  0  0  0  0
  -22.5380  -11.9900   22.4750 H   0  0  0  0  0  0  0  0  0  0  0  0
  -21.2280  -13.1290   22.3320 H   0  0  0  0  0  0  0  0  0  0  0  0
  -25.4460  -15.2050   20.2680 N   0  0  0  0  0  0  0  0  0  0  0  0
  -24.6860  -15.8610   20.4170 H   0  0  0  0  0  0  0  0  0  0  0  0
  -26.2780  -15.6430   19.8920 H   0  0  0  0  0  0  0  0  0  0  0  0
  -29.2650  -23.0350   19.0490 C   0  0  0  0  0  3  0  0  0  0  0  0
  -30.4220  -22.9520   18.0390 C   0  0  0  0  0  0  0  0  0  0  0  0
  -31.6060  -22.9410   18.3960 O   0  0  0  0  0  0  0  0  0  0  0  0
  -31.1990  -22.3100   15.6490 C   0  0  0  0  0  1  0  0  0  0  0  0
  -30.0440  -22.7590   16.5630 C   0  0  0  0  0  2  0  0  0  0  0  0
  -29.2370  -24.3650   19.8840 C   0  0  0  0  0  2  0  0  0  0  0  0
  -29.8060  -26.3260   18.2460 C   0  0  0  0  0  1  0  0  0  0  0  0
  -28.7640  -25.6720   19.1610 C   0  0  0  0  0  3  0  0  0  0  0  0
  -28.4630  -26.6880   20.1450 O   0  0  0  0  0  0  0  0  0  0  0  0
  -24.6040  -31.8500   23.2300 C   0  0  0  0  0  0  0  0  0  0  0  0
  -27.2720  -27.4020   20.1240 C   0  0  0  0  0  0  0  0  0  0  0  0
  -23.4090  -30.4520   21.5810 C   0  0  0  0  0  3  0  0  0  0  0  0
  -24.8690  -28.9120   20.1640 C   0  0  0  0  0  0  0  0  0  0  0  0
  -25.9380  -30.8060   21.3990 C   0  0  0  0  0  2  0  0  0  0  0  0
  -26.0270  -29.4350   20.7480 C   0  0  0  0  0  0  0  0  0  0  0  0
  -27.2290  -28.6830   20.7290 C   0  0  0  0  0  3  0  0  0  0  0  0
  -26.0790  -26.8890   19.5650 C   0  0  0  0  0  3  0  0  0  0  0  0
  -24.8870  -27.6380   19.5770 C   0  0  0  0  0  3  0  0  0  0  0  0
  -23.6240  -29.7690   20.2040 C   0  0  0  0  0  2  0  0  0  0  0  0
  -24.6680  -31.0500   22.1280 N   0  0  0  0  0  0  0  0  0  0  0  0
  -23.5200  -32.1220   23.7660 O   0  0  0  0  0  0  0  0  0  0  0  0
  -22.7550  -29.4290   22.5420 C   0  0  0  0  0  0  0  0  0  0  0  0
  -21.4290  -29.2540   22.4200 N   0  0  0  0  0  0  0  0  0  0  0  0
  -23.4380  -28.7950   23.3470 O   0  0  0  0  0  0  0  0  0  0  0  0
  -20.9370  -29.8180   21.7420 H   0  0  0  0  0  0  0  0  0  0  0  0
  -18.0530  -28.0860   22.9400 C   0  0  0  0  0  0  0  0  0  0  0  0
  -20.6130  -28.3150   23.1900 C   0  0  0  0  0  3  0  0  0  0  0  0
  -20.6950  -26.8880   22.5990 C   0  0  0  0  0  2  0  0  0  0  0  0
  -19.5820  -26.5860   21.5910 C   0  0  0  0  0  2  0  0  0  0  0  0
  -18.2100  -26.7420   22.2510 C   0  0  0  0  0  2  0  0  0  0  0  0
  -19.1820  -28.8320   23.3680 C   0  0  0  0  0  0  0  0  0  0  0  0
  -18.9820  -30.0930   23.9710 C   0  0  0  0  0  3  0  0  0  0  0  0
  -17.6840  -30.6070   24.1480 C   0  0  0  0  0  3  0  0  0  0  0  0
  -16.5680  -29.8590   23.7340 C   0  0  0  0  0  3  0  0  0  0  0  0
  -16.7540  -28.5980   23.1380 C   0  0  0  0  0  3  0  0  0  0  0  0
  -25.8860  -32.4860   23.8530 C   0  0  0  0  0  3  0  0  0  0  0  0
  -25.5690  -33.8820   24.1780 N   0  0  0  0  0  0  0  0  0  0  0  0
  -25.9040  -34.9350   23.4190 C   0  0  0  0  0  0  0  0  0  0  0  0
  -26.5790  -34.8320   22.3920 O   0  0  0  0  0  0  0  0  0  0  0  0
  -24.9550  -34.0320   24.9660 H   0  0  0  0  0  0  0  0  0  0  0  0
  -24.1730  -36.7260   23.0560 C   0  0  0  0  0  1  0  0  0  0  0  0
  -25.4100  -36.3220   23.8750 C   0  0  0  0  0  3  0  0  0  0  0  0
  -27.5370  -37.2160   24.7180 C   0  0  0  0  0  1  0  0  0  0  0  0
  -26.4400  -37.3770   23.7680 N   0  0  0  0  0  0  0  0  0  0  0  0
  -26.0300  -38.2970   23.9110 H   0  0  0  0  0  0  0  0  0  0  0  0
  -26.4000  -31.7200   25.1310 C   0  0  1  0  0  0  0  0  0  0  0  0
  -25.3020  -31.4840   26.1940 C   0  0  0  0  0  1  0  0  0  0  0  0
  -26.9910  -30.3440   24.7420 C   0  0  0  0  0  1  0  0  0  0  0  0
  -27.5450  -32.5190   25.7980 C   0  0  0  0  0  1  0  0  0  0  0  0
  1  3  1  0
  2  1  1  0
  4  6  1  0
  4  1  1  0
  6  9  2  0
  7 22  1  0
  7  5  2  0
  8 10  2  0
  8  6  1  0
  9  5  1  0
 10  7  1  0
 11  8  1  0
 12 11  1  0
 13 11  1  0
 14 22  1  0
 15 20  1  0
 16 17  1  0
 16 15  1  0
 18 17  1  0
 18 27  1  0
 18 19  1  0
 20 14  1  0
 20 19  1  0
 21 14  2  0
 22 23  1  0
 24 25  2  0
 25 44  1  0
 26 25  1  0
 26 29  1  0
 27 28  1  0
 27 24  1  0
 28 26  2  0
 29 30  1  0
 30 31  2  0
 32 35  1  0
 32 31  1  0
 33 32  2  0
 34 33  1  0
 34 29  2  0
 35 36  1  0
 36 37  1  0
 37 38  2  0
 39 38  1  0
 39 43  1  0
 40 39  2  0
 41 36  2  0
 41 40  1  0
 42 41  1  0
 44 45  1  0
 45 48  1  0
 45 47  1  0
 46 44  2  0
 49 50  1  0
 49 24  1  0
 51 49  1  0
 52 57  1  0
 52  1  1  0
 53 54  2  0
 53 52  1  0
 55 56  1  0
 56 53  1  0
 59 58  1  0
 59 57  1  0
 59 60  1  0
 61 72  2  0
 62 60  1  0
 62 67  1  0
 63 71  1  0
 63 73  1  0
 64 70  1  0
 64 66  1  0
 65 71  1  0
 66 65  1  0
 67 66  2  0
 68 69  1  0
 68 62  2  0
 69 64  2  0
 70 63  1  0
 71 61  1  0
 73 75  2  0
 74 73  1  0
 76 74  1  0
 77 86  2  0
 77 82  1  0
 78 74  1  0
 78 82  1  0
 79 78  1  0
 80 81  1  0
 80 79  1  0
 81 77  1  0
 82 83  2  0
 83 84  1  0
 85 84  2  0
 86 85  1  0
 87 61  1  0
 87 88  1  0
 87 97  1  0
 88 91  1  0
 89 93  1  0
 89 88  1  0
 90 89  2  0
 93 92  1  0
 95 93  1  0
 95 96  1  0
 95 94  1  0
 97100  1  1
 97 98  1  0
 99 97  1  0
M  ISO  4  14 100  22 100  59 101  60 101
M  END
>  <TORSDO>  (92) 
F 23

>  <SCORE>  (92) 
-12.744

>  <name>  (92) 
91

>  <ligand_id>  (92) 
91

>  <original_smiles>  (92) 
[H]c1nc(C([H])([H])[N+]([H])([H])C([H])(C(=O)C([H])([H])C([H])([H])[H])C([H])([H])C([H])(Oc2c([H])c([H])c3c(c2[H])C([H])([H])N(C(=O)C([H])(N([H])C(=O)C([H])(N([H])C([H])([H])[H])C([H])([H])[H])C(C([H])([H])[H])(C([H])([H])[H])C([H])([H])[H])C([H])(C(=O)N([H])C2([H])c4c([H])c([H])c([H])c([H])c4C([H])([H])C([H])([H])C2([H])[H])C3([H])[H])C([H])([H])[H])c(N([H])[H])nc1N([H])C(=O)N1C([H])([H])C([H])([H])C([H])([H])C([H])(n2nc(-c3c([H])c([H])c(Oc4c([H])c([H])c(F)c([H])c4F)c([H])c3[H])c(C(=O)N([H])[H])c2N([H])[H])C1([H])[H]

>  <smiles>  (92) 
[H]c1nc(C([H])([H])[N+]([H])([H])C([H])(C(=O)C([H])([H])C([H])([H])[H])C([H])([H])C([H])(Oc2c([H])c([H])c3c(c2[H])C([H])([H])N(C(=O)C([H])(N([H])C(=O)C([H])(N([H])C([H])([H])[H])C([H])([H])[H])C(C([H])([H])[H])(C([H])([H])[H])C([H])([H])[H])C([H])(C(=O)N([H])C2([H])c4c([H])c([H])c([H])c([H])c4C([H])([H])C([H])([H])C2([H])[H])C3([H])[H])C([H])([H])[H])c(N([H])[H])nc1N([H])C(=O)N1C([H])([H])C([H])([H])C([H])([H])C([H])(n2nc(-c3c([H])c([H])c(Oc4c([H])c([H])c(F)c([H])c4F)c([H])c3[H])c(C(=O)N([H])[H])c2N([H])[H])C1([H])[H]

$$$$
92:0:0
     RDKit          3D

 90 98  0  0  1  0  0  0  0  0999 V2000
  -29.0440  -21.8580   19.7790 C   0  0  0  0  0  2  0  0  0  0  0  0
  -29.0070  -20.3800   20.3260 N   0  0  0  0  0  0  0  0  0  0  0  0
  -28.0750  -19.9760   20.3670 H   0  0  0  0  0  0  0  0  0  0  0  0
  -32.4090  -19.4270   20.7240 C   0  0  0  0  0  3  0  0  0  0  0  0
  -30.4010  -17.9370   20.5030 C   0  0  0  0  0  0  0  0  0  0  0  0
  -30.1240  -19.3910   20.4250 C   0  0  0  0  0  0  0  0  0  0  0  0
  -31.3120  -20.1260   20.4930 N   0  0  0  0  0  0  0  0  0  0  0  0
  -32.1140  -17.7340   20.8890 S   0  0  0  0  0  0  0  0  0  0  0  0
  -29.6870  -16.4540   20.4450 C   0  0  0  0  0  2  0  0  0  0  0  0
  -30.4770  -14.9880   20.1840 C   0  0  0  0  0  0  0  0  0  0  0  0
  -30.3280  -12.6370   19.2340 C   0  0  0  0  0  2  0  0  0  0  0  0
  -29.3740  -12.6290   18.0160 C   0  0  0  0  0  2  0  0  0  0  0  0
  -27.9190  -12.4150   18.4710 C   0  0  0  0  0  2  0  0  0  0  0  0
  -27.5390  -13.3190   19.6720 C   0  0  0  0  0  3  0  0  0  0  0  0
  -28.6170  -13.3170   20.7760 C   0  0  0  0  0  2  0  0  0  0  0  0
  -29.8850  -13.7220   20.1600 N   0  0  0  0  0  0  0  0  0  0  0  0
  -31.6610  -15.0030   19.8260 O   0  0  0  0  0  0  0  0  0  0  0  0
  -25.1700  -13.8750   20.4650 C   0  0  0  0  0  0  0  0  0  0  0  0
  -24.1200  -13.0910   20.8530 C   0  0  0  0  0  0  0  0  0  0  0  0
  -24.5930  -11.7440   20.8100 C   0  0  0  0  0  0  0  0  0  0  0  0
  -26.2150  -13.0060   20.1980 N   0  0  0  0  0  0  0  0  0  0  0  0
  -25.8790  -11.7180   20.4720 N   0  0  0  0  0  0  0  0  0  0  0  0
  -23.8790  -10.4760   21.0090 C   0  0  0  0  0  0  0  0  0  0  0  0
  -24.3300   -9.5110   21.9370 C   0  0  0  0  0  3  0  0  0  0  0  0
  -23.6130   -8.3100   22.1260 C   0  0  0  0  0  3  0  0  0  0  0  0
  -22.4310   -8.0640   21.3880 C   0  0  0  0  0  0  0  0  0  0  0  0
  -21.9990   -9.0170   20.4490 C   0  0  0  0  0  3  0  0  0  0  0  0
  -22.7170  -10.2100   20.2580 C   0  0  0  0  0  3  0  0  0  0  0  0
  -21.6850   -6.9150   21.4870 O   0  0  0  0  0  0  0  0  0  0  0  0
  -21.6560   -6.1720   22.6400 C   0  0  0  0  0  0  0  0  0  0  0  0
  -21.2400   -6.7220   23.8720 C   0  0  0  0  0  3  0  0  0  0  0  0
  -21.1590   -5.9060   25.0170 C   0  0  0  0  0  3  0  0  0  0  0  0
  -21.4840   -4.5390   24.9320 C   0  0  0  0  0  0  0  0  0  0  0  0
  -21.8930   -3.9870   23.7050 C   0  0  0  0  0  3  0  0  0  0  0  0
  -21.9750   -4.8010   22.5610 C   0  0  0  0  0  0  0  0  0  0  0  0
  -22.3500   -4.2610   21.3770 F   0  0  0  0  0  0  0  0  0  0  0  0
  -21.4000   -3.7510   26.0300 F   0  0  0  0  0  0  0  0  0  0  0  0
  -22.7250  -13.5580   21.1520 C   0  0  0  0  0  0  0  0  0  0  0  0
  -22.0180  -12.8540   22.0280 N   0  0  0  0  0  0  0  0  0  0  0  0
  -22.2720  -14.5820   20.6440 O   0  0  0  0  0  0  0  0  0  0  0  0
  -22.3980  -12.0240   22.4610 H   0  0  0  0  0  0  0  0  0  0  0  0
  -21.0820  -13.1470   22.2700 H   0  0  0  0  0  0  0  0  0  0  0  0
  -25.3210  -15.2480   20.2900 N   0  0  0  0  0  0  0  0  0  0  0  0
  -24.5520  -15.8960   20.4230 H   0  0  0  0  0  0  0  0  0  0  0  0
  -26.1610  -15.6960   19.9470 H   0  0  0  0  0  0  0  0  0  0  0  0
  -28.4810  -23.2520   20.5470 C   0  0  0  0  0  3  0  0  0  0  0  0
  -27.2070  -22.8640   21.0330 O   0  0  0  0  0  0  0  0  0  0  0  0
  -26.6710  -22.6400   20.2790 H   0  0  0  0  0  0  0  0  0  0  0  0
  -28.2630  -24.7430   19.7590 C   0  0  0  0  0  2  0  0  0  0  0  0
  -28.2380  -26.2040   20.3120 O   0  0  0  0  0  0  0  0  0  0  0  0
  -24.6190  -31.8980   23.2450 C   0  0  0  0  0  0  0  0  0  0  0  0
  -27.1670  -27.1670   20.2070 C   0  0  0  0  0  0  0  0  0  0  0  0
  -23.4070  -30.5060   21.6120 C   0  0  0  0  0  3  0  0  0  0  0  0
  -24.8420  -28.9230   20.1820 C   0  0  0  0  0  0  0  0  0  0  0  0
  -25.9610  -30.7580   21.4380 C   0  0  0  0  0  2  0  0  0  0  0  0
  -26.0240  -29.3660   20.7870 C   0  0  0  0  0  0  0  0  0  0  0  0
  -27.1830  -28.5020   20.7850 C   0  0  0  0  0  3  0  0  0  0  0  0
  -25.9560  -26.8270   19.5630 C   0  0  0  0  0  3  0  0  0  0  0  0
  -24.8210  -27.6680   19.5550 C   0  0  0  0  0  3  0  0  0  0  0  0
  -23.6190  -29.8250   20.2330 C   0  0  0  0  0  2  0  0  0  0  0  0
  -24.6820  -31.0750   22.1540 N   0  0  0  0  0  0  0  0  0  0  0  0
  -23.5360  -32.1880   23.7770 O   0  0  0  0  0  0  0  0  0  0  0  0
  -22.7280  -29.5030   22.5790 C   0  0  0  0  0  0  0  0  0  0  0  0
  -21.3980  -29.3380   22.4560 N   0  0  0  0  0  0  0  0  0  0  0  0
  -23.3990  -28.8750   23.4020 O   0  0  0  0  0  0  0  0  0  0  0  0
  -20.9130  -29.8950   21.7670 H   0  0  0  0  0  0  0  0  0  0  0  0
  -18.0140  -28.1480   22.9650 C   0  0  0  0  0  0  0  0  0  0  0  0
  -20.5750  -28.4070   23.2320 C   0  0  0  0  0  3  0  0  0  0  0  0
  -20.6730  -26.9710   22.6650 C   0  0  0  0  0  2  0  0  0  0  0  0
  -19.5700  -26.6460   21.6520 C   0  0  0  0  0  2  0  0  0  0  0  0
  -18.1880  -26.7960   22.2960 C   0  0  0  0  0  2  0  0  0  0  0  0
  -19.1350  -28.9110   23.3910 C   0  0  0  0  0  0  0  0  0  0  0  0
  -18.9170  -30.1760   23.9800 C   0  0  0  0  0  3  0  0  0  0  0  0
  -17.6130  -30.6790   24.1460 C   0  0  0  0  0  3  0  0  0  0  0  0
  -16.5070  -29.9130   23.7350 C   0  0  0  0  0  3  0  0  0  0  0  0
  -16.7090  -28.6500   23.1510 C   0  0  0  0  0  3  0  0  0  0  0  0
  -25.9020  -32.5290   23.8660 C   0  0  0  0  0  3  0  0  0  0  0  0
  -25.5980  -33.9300   24.1970 N   0  0  0  0  0  0  0  0  0  0  0  0
  -25.9300  -34.9840   23.4400 C   0  0  0  0  0  0  0  0  0  0  0  0
  -26.5910  -34.8780   22.4030 O   0  0  0  0  0  0  0  0  0  0  0  0
  -25.0100  -34.0850   25.0040 H   0  0  0  0  0  0  0  0  0  0  0  0
  -24.2070  -36.7890   23.1080 C   0  0  0  0  0  1  0  0  0  0  0  0
  -25.4560  -36.3760   23.9040 C   0  0  0  0  0  3  0  0  0  0  0  0
  -27.6020  -37.2530   24.7140 C   0  0  0  0  0  1  0  0  0  0  0  0
  -26.4920  -37.4230   23.7800 N   0  0  0  0  0  0  0  0  0  0  0  0
  -26.0920  -38.3470   23.9280 H   0  0  0  0  0  0  0  0  0  0  0  0
  -26.4130  -31.7610   25.1480 C   0  0  1  0  0  0  0  0  0  0  0  0
  -25.3180  -31.5360   26.2180 C   0  0  0  0  0  1  0  0  0  0  0  0
  -26.9870  -30.3760   24.7690 C   0  0  0  0  0  1  0  0  0  0  0  0
  -27.5690  -32.5510   25.8060 C   0  0  0  0  0  1  0  0  0  0  0  0
  1  2  1  0
  1 46  1  0
  2  3  1  0
  2  6  1  0
  4  8  1  0
  5  8  1  0
  6  7  1  0
  6  5  2  0
  7  4  2  0
  9  5  1  0
 10  9  1  0
 11 16  1  0
 12 13  1  0
 12 11  1  0
 14 13  1  0
 14 21  1  0
 14 15  1  0
 16 10  1  0
 16 15  1  0
 17 10  2  0
 18 19  2  0
 19 38  1  0
 20 19  1  0
 20 23  1  0
 21 18  1  0
 21 22  1  0
 22 20  2  0
 23 24  1  0
 24 25  2  0
 26 29  1  0
 26 25  1  0
 27 26  2  0
 28 27  1  0
 28 23  2  0
 29 30  1  0
 30 31  1  0
 31 32  2  0
 33 32  1  0
 33 37  1  0
 34 33  2  0
 35 30  2  0
 35 34  1  0
 36 35  1  0
 38 39  1  0
 39 42  1  0
 39 41  1  0
 40 38  2  0
 43 44  1  0
 43 18  1  0
 45 43  1  0
 46 49  1  0
 46 47  1  0
 48 47  1  0
 49 50  1  0
 51 62  2  0
 52 50  1  0
 52 57  1  0
 53 61  1  0
 53 63  1  0
 54 60  1  0
 54 56  1  0
 55 61  1  0
 56 55  1  0
 57 56  2  0
 58 52  2  0
 59 58  1  0
 59 54  2  0
 60 53  1  0
 61 51  1  0
 63 65  2  0
 64 63  1  0
 66 64  1  0
 67 76  2  0
 67 72  1  0
 68 64  1  0
 68 72  1  0
 69 68  1  0
 70 71  1  0
 70 69  1  0
 71 67  1  0
 72 73  2  0
 73 74  1  0
 75 74  2  0
 76 75  1  0
 77 51  1  0
 77 78  1  0
 77 87  1  0
 78 81  1  0
 79 83  1  0
 79 78  1  0
 80 79  2  0
 83 82  1  0
 85 83  1  0
 85 86  1  0
 85 84  1  0
 87 90  1  1
 87 88  1  0
 89 87  1  0
M  ISO  4   9 100  10 100  49 101  50 101
M  END
>  <TORSDO>  (93) 
F 22

>  <SCORE>  (93) 
-13.798

>  <name>  (93) 
92

>  <ligand_id>  (93) 
92

>  <original_smiles>  (93) 
[H]OC([H])(C([H])([H])Oc1c([H])c([H])c2c(c1[H])C([H])([H])N(C(=O)C([H])(N([H])C(=O)C([H])(N([H])C([H])([H])[H])C([H])([H])[H])C(C([H])([H])[H])(C([H])([H])[H])C([H])([H])[H])C([H])(C(=O)N([H])C1([H])c3c([H])c([H])c([H])c([H])c3C([H])([H])C([H])([H])C1([H])[H])C2([H])[H])C([H])([H])N([H])c1nc([H])sc1C([H])([H])C(=O)N1C([H])([H])C([H])([H])C([H])([H])C([H])(n2nc(-c3c([H])c([H])c(Oc4c([H])c([H])c(F)c([H])c4F)c([H])c3[H])c(C(=O)N([H])[H])c2N([H])[H])C1([H])[H]

>  <smiles>  (93) 
[H]OC([H])(C([H])([H])Oc1c([H])c([H])c2c(c1[H])C([H])([H])N(C(=O)C([H])(N([H])C(=O)C([H])(N([H])C([H])([H])[H])C([H])([H])[H])C(C([H])([H])[H])(C([H])([H])[H])C([H])([H])[H])C([H])(C(=O)N([H])C1([H])c3c([H])c([H])c([H])c([H])c3C([H])([H])C([H])([H])C1([H])[H])C2([H])[H])C([H])([H])N([H])c1nc([H])sc1C([H])([H])C(=O)N1C([H])([H])C([H])([H])C([H])([H])C([H])(n2nc(-c3c([H])c([H])c(Oc4c([H])c([H])c(F)c([H])c4F)c([H])c3[H])c(C(=O)N([H])[H])c2N([H])[H])C1([H])[H]

$$$$
93:0:0
     RDKit          3D

 92100  0  0  1  0  0  0  0  0999 V2000
  -28.8860  -23.1220   20.8290 C   0  0  0  0  0  2  0  0  0  0  0  0
  -28.2350  -18.2670   20.4850 C   0  0  0  0  0  3  0  0  0  0  0  0
  -29.5430  -18.2720   20.0580 C   0  0  0  0  0  0  0  0  0  0  0  0
  -29.1300  -20.5560   20.1580 C   0  0  0  0  0  0  0  0  0  0  0  0
  -30.0140  -19.5930   19.8500 N   0  0  0  0  0  0  0  0  0  0  0  0
  -29.3950  -21.9380   20.0850 N   0  0  0  0  0  0  0  0  0  0  0  0
  -27.5980  -19.8880   20.7100 S   0  0  0  0  0  0  0  0  0  0  0  0
  -30.3380  -22.0980   19.7420 H   0  0  0  0  0  0  0  0  0  0  0  0
  -30.4910  -17.0900   19.8450 C   0  0  0  0  0  2  0  0  0  0  0  0
  -30.7280  -14.6150   19.8160 C   0  0  0  0  0  0  0  0  0  0  0  0
  -30.3650  -12.3940   18.8010 C   0  0  0  0  0  2  0  0  0  0  0  0
  -29.3490  -12.5520   17.6500 C   0  0  0  0  0  2  0  0  0  0  0  0
  -27.9080  -12.4280   18.1820 C   0  0  0  0  0  2  0  0  0  0  0  0
  -27.6520  -13.3160   19.4310 C   0  0  0  0  0  3  0  0  0  0  0  0
  -28.7800  -13.1510   20.4750 C   0  0  0  0  0  2  0  0  0  0  0  0
  -30.0550  -13.4310   19.8020 N   0  0  0  0  0  0  0  0  0  0  0  0
  -31.8570  -14.7280   19.3310 O   0  0  0  0  0  0  0  0  0  0  0  0
  -30.0260  -15.7180   20.1680 N   0  0  0  0  0  0  0  0  0  0  0  0
  -29.0860  -15.6010   20.5150 H   0  0  0  0  0  0  0  0  0  0  0  0
  -25.3390  -13.9630   20.3460 C   0  0  0  0  0  0  0  0  0  0  0  0
  -24.2820  -13.2070   20.7780 C   0  0  0  0  0  0  0  0  0  0  0  0
  -24.7010  -11.8470   20.6750 C   0  0  0  0  0  0  0  0  0  0  0  0
  -26.3350  -13.0610   20.0100 N   0  0  0  0  0  0  0  0  0  0  0  0
  -25.9610  -11.7810   20.2670 N   0  0  0  0  0  0  0  0  0  0  0  0
  -23.9570  -10.5970   20.8860 C   0  0  0  0  0  0  0  0  0  0  0  0
  -24.4010   -9.6180   21.8040 C   0  0  0  0  0  3  0  0  0  0  0  0
  -23.6580   -8.4360   22.0030 C   0  0  0  0  0  3  0  0  0  0  0  0
  -22.4570   -8.2220   21.2870 C   0  0  0  0  0  0  0  0  0  0  0  0
  -22.0310   -9.1880   20.3580 C   0  0  0  0  0  3  0  0  0  0  0  0
  -22.7750  -10.3630   20.1560 C   0  0  0  0  0  3  0  0  0  0  0  0
  -21.6840   -7.0910   21.3970 O   0  0  0  0  0  0  0  0  0  0  0  0
  -21.6140   -6.3780   22.5670 C   0  0  0  0  0  0  0  0  0  0  0  0
  -21.1900   -6.9710   23.7760 C   0  0  0  0  0  3  0  0  0  0  0  0
  -21.0650   -6.1860   24.9400 C   0  0  0  0  0  3  0  0  0  0  0  0
  -21.3550   -4.8090   24.8950 C   0  0  0  0  0  0  0  0  0  0  0  0
  -21.7740   -4.2160   23.6920 C   0  0  0  0  0  3  0  0  0  0  0  0
  -21.9000   -4.9990   22.5300 C   0  0  0  0  0  0  0  0  0  0  0  0
  -22.2810   -4.4180   21.3670 F   0  0  0  0  0  0  0  0  0  0  0  0
  -21.2290   -4.0530   26.0110 F   0  0  0  0  0  0  0  0  0  0  0  0
  -22.9240  -13.7120   21.1710 C   0  0  0  0  0  0  0  0  0  0  0  0
  -22.2530  -13.0160   22.0840 N   0  0  0  0  0  0  0  0  0  0  0  0
  -22.4690  -14.7570   20.7060 O   0  0  0  0  0  0  0  0  0  0  0  0
  -22.6330  -12.1690   22.4790 H   0  0  0  0  0  0  0  0  0  0  0  0
  -21.3460  -13.3340   22.3940 H   0  0  0  0  0  0  0  0  0  0  0  0
  -25.5280  -15.3340   20.1910 N   0  0  0  0  0  0  0  0  0  0  0  0
  -24.7810  -16.0010   20.3570 H   0  0  0  0  0  0  0  0  0  0  0  0
  -26.3490  -15.7570   19.7800 H   0  0  0  0  0  0  0  0  0  0  0  0
  -28.0450  -24.1640   20.0040 C   0  0  0  0  0  3  0  0  0  0  0  0
  -27.5610  -23.3890   18.9290 O   0  0  0  0  0  0  0  0  0  0  0  0
  -28.1170  -22.6050   18.9820 H   0  0  0  0  0  0  0  0  0  0  0  0
  -28.7540  -25.4650   19.4640 C   0  0  0  0  0  2  0  0  0  0  0  0
  -28.5530  -26.7180   20.1720 O   0  0  0  0  0  0  0  0  0  0  0  0
  -24.5250  -31.7520   23.2430 C   0  0  0  0  0  0  0  0  0  0  0  0
  -27.3500  -27.4140   20.1150 C   0  0  0  0  0  0  0  0  0  0  0  0
  -23.3820  -30.3300   21.5730 C   0  0  0  0  0  3  0  0  0  0  0  0
  -24.9020  -28.8660   20.1270 C   0  0  0  0  0  0  0  0  0  0  0  0
  -25.8990  -30.7720   21.4020 C   0  0  0  0  0  2  0  0  0  0  0  0
  -26.0380  -29.4130   20.7370 C   0  0  0  0  0  0  0  0  0  0  0  0
  -27.2600  -28.6920   20.7270 C   0  0  0  0  0  3  0  0  0  0  0  0
  -26.1900  -26.8930   19.4950 C   0  0  0  0  0  3  0  0  0  0  0  0
  -24.9770  -27.6110   19.5000 C   0  0  0  0  0  3  0  0  0  0  0  0
  -23.6250  -29.6790   20.1840 C   0  0  0  0  0  2  0  0  0  0  0  0
  -24.6190  -30.9680   22.1300 N   0  0  0  0  0  0  0  0  0  0  0  0
  -23.4310  -31.9760   23.7810 O   0  0  0  0  0  0  0  0  0  0  0  0
  -22.7640  -29.2720   22.5150 C   0  0  0  0  0  0  0  0  0  0  0  0
  -21.4450  -29.0490   22.3840 N   0  0  0  0  0  0  0  0  0  0  0  0
  -23.4670  -28.6580   23.3210 O   0  0  0  0  0  0  0  0  0  0  0  0
  -20.9370  -29.5970   21.7050 H   0  0  0  0  0  0  0  0  0  0  0  0
  -18.1130  -27.7450   22.8820 C   0  0  0  0  0  0  0  0  0  0  0  0
  -20.6640  -28.0720   23.1410 C   0  0  0  0  0  3  0  0  0  0  0  0
  -20.8030  -26.6570   22.5340 C   0  0  0  0  0  2  0  0  0  0  0  0
  -19.7030  -26.3230   21.5220 C   0  0  0  0  0  2  0  0  0  0  0  0
  -18.3220  -26.4160   22.1760 C   0  0  0  0  0  2  0  0  0  0  0  0
  -19.2110  -28.5300   23.3200 C   0  0  0  0  0  0  0  0  0  0  0  0
  -18.9610  -29.7720   23.9420 C   0  0  0  0  0  3  0  0  0  0  0  0
  -17.6440  -30.2310   24.1290 C   0  0  0  0  0  3  0  0  0  0  0  0
  -16.5600  -29.4440   23.7060 C   0  0  0  0  0  3  0  0  0  0  0  0
  -16.7950  -28.2020   23.0890 C   0  0  0  0  0  3  0  0  0  0  0  0
  -25.7830  -32.4220   23.8790 C   0  0  0  0  0  3  0  0  0  0  0  0
  -25.4260  -33.8090   24.2090 N   0  0  0  0  0  0  0  0  0  0  0  0
  -25.7330  -34.8740   23.4560 C   0  0  0  0  0  0  0  0  0  0  0  0
  -26.4160  -34.7950   22.4310 O   0  0  0  0  0  0  0  0  0  0  0  0
  -24.8160  -33.9420   25.0030 H   0  0  0  0  0  0  0  0  0  0  0  0
  -23.9480  -36.6090   23.0900 C   0  0  0  0  0  1  0  0  0  0  0  0
  -25.1950  -36.2450   23.9100 C   0  0  0  0  0  3  0  0  0  0  0  0
  -27.2910  -37.2010   24.7600 C   0  0  0  0  0  1  0  0  0  0  0  0
  -26.1940  -37.3320   23.8060 N   0  0  0  0  0  0  0  0  0  0  0  0
  -25.7570  -38.2380   23.9490 H   0  0  0  0  0  0  0  0  0  0  0  0
  -26.3140  -31.6660   25.1580 C   0  0  1  0  0  0  0  0  0  0  0  0
  -25.2190  -31.3850   26.2130 C   0  0  0  0  0  1  0  0  0  0  0  0
  -26.9500  -30.3120   24.7690 C   0  0  0  0  0  1  0  0  0  0  0  0
  -27.4290  -32.4980   25.8340 C   0  0  0  0  0  1  0  0  0  0  0  0
  2  7  1  0
  3  2  2  0
  4  7  1  0
  5  3  1  0
  5  4  2  0
  6  4  1  0
  6  1  1  0
  8  6  1  0
  9  3  1  0
  9 18  1  0
 10 18  1  0
 11 16  1  0
 12 13  1  0
 12 11  1  0
 14 13  1  0
 14 23  1  0
 14 15  1  0
 16 10  1  0
 16 15  1  0
 17 10  2  0
 18 19  1  0
 20 21  2  0
 21 40  1  0
 22 21  1  0
 22 25  1  0
 23 24  1  0
 23 20  1  0
 24 22  2  0
 25 26  1  0
 26 27  2  0
 28 31  1  0
 28 27  1  0
 29 28  2  0
 30 29  1  0
 30 25  2  0
 31 32  1  0
 32 33  1  0
 33 34  2  0
 35 34  1  0
 35 39  1  0
 36 35  2  0
 37 32  2  0
 37 36  1  0
 38 37  1  0
 40 41  1  0
 41 44  1  0
 41 43  1  0
 42 40  2  0
 45 20  1  0
 45 46  1  0
 47 45  1  0
 48 51  1  0
 48  1  1  0
 49 50  1  0
 49 48  1  0
 51 52  1  0
 53 64  2  0
 54 52  1  0
 54 59  1  0
 55 63  1  0
 55 65  1  0
 56 62  1  0
 56 58  1  0
 57 63  1  0
 58 57  1  0
 59 58  2  0
 60 61  1  0
 60 54  2  0
 61 56  2  0
 62 55  1  0
 63 53  1  0
 65 67  2  0
 66 65  1  0
 68 66  1  0
 69 78  2  0
 69 74  1  0
 70 66  1  0
 70 74  1  0
 71 70  1  0
 72 73  1  0
 72 71  1  0
 73 69  1  0
 74 75  2  0
 75 76  1  0
 77 76  2  0
 78 77  1  0
 79 53  1  0
 79 80  1  0
 79 89  1  0
 80 83  1  0
 81 85  1  0
 81 80  1  0
 82 81  2  0
 85 84  1  0
 87 85  1  0
 87 88  1  0
 87 86  1  0
 89 92  1  1
 89 90  1  0
 91 89  1  0
M  ISO  4  10 100  18 100  51 101  52 101
M  END
>  <TORSDO>  (94) 
F 21

>  <SCORE>  (94) 
-12.364

>  <name>  (94) 
93

>  <ligand_id>  (94) 
93

>  <original_smiles>  (94) 
[H]OC([H])(C([H])([H])Oc1c([H])c([H])c2c(c1[H])C([H])([H])N(C(=O)C([H])(N([H])C(=O)C([H])(N([H])C([H])([H])[H])C([H])([H])[H])C(C([H])([H])[H])(C([H])([H])[H])C([H])([H])[H])C([H])(C(=O)N([H])C1([H])c3c([H])c([H])c([H])c([H])c3C([H])([H])C([H])([H])C1([H])[H])C2([H])[H])C([H])([H])N([H])c1nc(C([H])([H])N([H])C(=O)N2C([H])([H])C([H])([H])C([H])([H])C([H])(n3nc(-c4c([H])c([H])c(Oc5c([H])c([H])c(F)c([H])c5F)c([H])c4[H])c(C(=O)N([H])[H])c3N([H])[H])C2([H])[H])c([H])s1

>  <smiles>  (94) 
[H]OC([H])(C([H])([H])Oc1c([H])c([H])c2c(c1[H])C([H])([H])N(C(=O)C([H])(N([H])C(=O)C([H])(N([H])C([H])([H])[H])C([H])([H])[H])C(C([H])([H])[H])(C([H])([H])[H])C([H])([H])[H])C([H])(C(=O)N([H])C1([H])c3c([H])c([H])c([H])c([H])c3C([H])([H])C([H])([H])C1([H])[H])C2([H])[H])C([H])([H])N([H])c1nc(C([H])([H])N([H])C(=O)N2C([H])([H])C([H])([H])C([H])([H])C([H])(n3nc(-c4c([H])c([H])c(Oc5c([H])c([H])c(F)c([H])c5F)c([H])c4[H])c(C(=O)N([H])[H])c3N([H])[H])C2([H])[H])c([H])s1

$$$$
94:0:0
     RDKit          3D

 97105  0  0  1  0  0  0  0  0999 V2000
  -30.1780  -21.1940   19.4890 C   0  0  0  0  0  3  0  0  0  0  0  0
  -31.0940  -14.3990   19.8280 C   0  0  0  0  0  0  0  0  0  0  0  0
  -30.7790  -12.1750   18.7560 C   0  0  0  0  0  2  0  0  0  0  0  0
  -29.7610  -12.3000   17.6010 C   0  0  0  0  0  2  0  0  0  0  0  0
  -28.3130  -12.1670   18.1160 C   0  0  0  0  0  2  0  0  0  0  0  0
  -28.0400  -13.0560   19.3580 C   0  0  0  0  0  3  0  0  0  0  0  0
  -29.1550  -12.8780   20.4140 C   0  0  0  0  0  2  0  0  0  0  0  0
  -30.4520  -13.1880   19.7780 N   0  0  0  0  0  0  0  0  0  0  0  0
  -32.1100  -14.6320   19.1660 O   0  0  0  0  0  0  0  0  0  0  0  0
  -29.9850  -16.5700   20.5000 C   0  0  0  0  0  0  0  0  0  0  0  0
  -29.5800  -18.6210   20.2740 C   0  0  0  0  0  3  0  0  0  0  0  0
  -27.2790  -18.5960   21.3520 C   0  0  0  0  0  1  0  0  0  0  0  0
  -30.5640  -17.7340   20.0070 N   0  0  0  0  0  0  0  0  0  0  0  0
  -28.7710  -16.7140   21.0170 N   0  0  0  0  0  2  0  0  0  0  0  0
  -28.5250  -18.0350   20.8640 N   0  0  0  0  0  0  0  0  0  0  0  0
  -30.5790  -15.2820   20.7090 N   0  0  0  0  0  0  0  0  0  0  0  0
  -29.4920  -20.0200   20.0740 N   0  0  0  0  0  0  0  0  0  0  0  0
  -30.0320  -14.7670   21.3810 H   0  0  0  0  0  0  0  0  0  0  0  0
  -28.5970  -20.3190   20.4460 H   0  0  0  0  0  0  0  0  0  0  0  0
  -25.7060  -13.7040   20.2380 C   0  0  0  0  0  0  0  0  0  0  0  0
  -24.6440  -12.9510   20.6590 C   0  0  0  0  0  0  0  0  0  0  0  0
  -25.0650  -11.5890   20.5690 C   0  0  0  0  0  0  0  0  0  0  0  0
  -26.7120  -12.8030   19.9200 N   0  0  0  0  0  0  0  0  0  0  0  0
  -26.3310  -11.5230   20.1710 N   0  0  0  0  0  0  0  0  0  0  0  0
  -24.3180  -10.3430   20.7840 C   0  0  0  0  0  0  0  0  0  0  0  0
  -24.7200   -9.4000   21.7550 C   0  0  0  0  0  3  0  0  0  0  0  0
  -23.9760   -8.2160   21.9560 C   0  0  0  0  0  3  0  0  0  0  0  0
  -22.8160   -7.9680   21.1860 C   0  0  0  0  0  0  0  0  0  0  0  0
  -22.4320   -8.8990   20.2050 C   0  0  0  0  0  3  0  0  0  0  0  0
  -23.1770  -10.0740   20.0020 C   0  0  0  0  0  3  0  0  0  0  0  0
  -22.0460   -6.8340   21.2930 O   0  0  0  0  0  0  0  0  0  0  0  0
  -21.8450   -6.2130   22.4990 C   0  0  0  0  0  0  0  0  0  0  0  0
  -21.2360   -6.8770   23.5860 C   0  0  0  0  0  3  0  0  0  0  0  0
  -20.9830   -6.1800   24.7850 C   0  0  0  0  0  3  0  0  0  0  0  0
  -21.3280   -4.8190   24.8960 C   0  0  0  0  0  0  0  0  0  0  0  0
  -21.9300   -4.1560   23.8130 C   0  0  0  0  0  3  0  0  0  0  0  0
  -22.1850   -4.8500   22.6170 C   0  0  0  0  0  0  0  0  0  0  0  0
  -22.7450   -4.2000   21.5690 F   0  0  0  0  0  0  0  0  0  0  0  0
  -21.0790   -4.1470   26.0440 F   0  0  0  0  0  0  0  0  0  0  0  0
  -23.2820  -13.4590   21.0380 C   0  0  0  0  0  0  0  0  0  0  0  0
  -22.6200  -12.7990   21.9820 N   0  0  0  0  0  0  0  0  0  0  0  0
  -22.8170  -14.4800   20.5330 O   0  0  0  0  0  0  0  0  0  0  0  0
  -23.0070  -11.9760   22.4190 H   0  0  0  0  0  0  0  0  0  0  0  0
  -21.7110  -13.1280   22.2750 H   0  0  0  0  0  0  0  0  0  0  0  0
  -25.8950  -15.0740   20.0860 N   0  0  0  0  0  0  0  0  0  0  0  0
  -25.1640  -15.7450   20.2950 H   0  0  0  0  0  0  0  0  0  0  0  0
  -26.7790  -15.5100   19.8500 H   0  0  0  0  0  0  0  0  0  0  0  0
  -31.6960  -21.1330   19.7930 C   0  0  0  0  0  2  0  0  0  0  0  0
  -32.3600  -20.9610   17.3120 C   0  0  0  0  0  1  0  0  0  0  0  0
  -34.1070  -21.4080   19.0700 C   0  0  0  0  0  1  0  0  0  0  0  0
  -32.6390  -21.6290   18.6720 C   0  0  0  0  0  3  0  0  0  0  0  0
  -29.4470  -22.5240   19.9720 C   0  0  0  0  0  2  0  0  0  0  0  0
  -29.9250  -23.9970   19.6170 C   0  0  0  0  0  3  0  0  0  0  0  0
  -30.8460  -24.4210   20.6060 O   0  0  0  0  0  0  0  0  0  0  0  0
  -30.9430  -25.3650   20.4960 H   0  0  0  0  0  0  0  0  0  0  0  0
  -28.7600  -25.0500   19.6680 C   0  0  0  0  0  2  0  0  0  0  0  0
  -29.1020  -26.4750   19.7420 O   0  0  0  0  0  0  0  0  0  0  0  0
  -25.5270  -31.3390   23.6570 C   0  0  0  0  0  0  0  0  0  0  0  0
  -28.0190  -27.3530   19.8370 C   0  0  0  0  0  0  0  0  0  0  0  0
  -24.3180  -30.3730   21.7340 C   0  0  0  0  0  3  0  0  0  0  0  0
  -25.7400  -29.0510   20.0790 C   0  0  0  0  0  0  0  0  0  0  0  0
  -26.8760  -30.5670   21.6990 C   0  0  0  0  0  2  0  0  0  0  0  0
  -26.9070  -29.3450   20.7950 C   0  0  0  0  0  0  0  0  0  0  0  0
  -28.0510  -28.5090   20.6680 C   0  0  0  0  0  3  0  0  0  0  0  0
  -26.8280  -27.1090   19.1100 C   0  0  0  0  0  3  0  0  0  0  0  0
  -25.7010  -27.9370   19.2310 C   0  0  0  0  0  3  0  0  0  0  0  0
  -24.5520  -29.9710   20.2560 C   0  0  0  0  0  2  0  0  0  0  0  0
  -25.5920  -30.7640   22.4220 N   0  0  0  0  0  0  0  0  0  0  0  0
  -24.4390  -31.5740   24.2020 O   0  0  0  0  0  0  0  0  0  0  0  0
  -23.5620  -29.2280   22.4480 C   0  0  0  0  0  0  0  0  0  0  0  0
  -22.2370  -29.1590   22.2370 N   0  0  0  0  0  0  0  0  0  0  0  0
  -24.1670  -28.4140   23.1500 O   0  0  0  0  0  0  0  0  0  0  0  0
  -21.8130  -29.8660   21.6530 H   0  0  0  0  0  0  0  0  0  0  0  0
  -18.7730  -28.1380   22.4080 C   0  0  0  0  0  0  0  0  0  0  0  0
  -21.3320  -28.1450   22.7780 C   0  0  0  0  0  3  0  0  0  0  0  0
  -21.3550  -26.8600   21.9160 C   0  0  0  0  0  2  0  0  0  0  0  0
  -20.2700  -26.8380   20.8360 C   0  0  0  0  0  2  0  0  0  0  0  0
  -18.8790  -26.9490   21.4690 C   0  0  0  0  0  2  0  0  0  0  0  0
  -19.9250  -28.7100   23.0110 C   0  0  0  0  0  0  0  0  0  0  0  0
  -19.7740  -29.8350   23.8480 C   0  0  0  0  0  3  0  0  0  0  0  0
  -18.5020  -30.3870   24.0900 C   0  0  0  0  0  3  0  0  0  0  0  0
  -17.3620  -29.8070   23.5050 C   0  0  0  0  0  3  0  0  0  0  0  0
  -17.4990  -28.6840   22.6700 C   0  0  0  0  0  3  0  0  0  0  0  0
  -26.8170  -31.7530   24.4310 C   0  0  0  0  0  3  0  0  0  0  0  0
  -26.5750  -33.0780   25.0170 N   0  0  0  0  0  0  0  0  0  0  0  0
  -26.9950  -34.2340   24.4850 C   0  0  0  0  0  0  0  0  0  0  0  0
  -27.6980  -34.2870   23.4720 O   0  0  0  0  0  0  0  0  0  0  0  0
  -25.9610  -33.1120   25.8170 H   0  0  0  0  0  0  0  0  0  0  0  0
  -25.4050  -36.1820   24.4190 C   0  0  0  0  0  1  0  0  0  0  0  0
  -26.5690  -35.5370   25.1890 C   0  0  0  0  0  3  0  0  0  0  0  0
  -28.6940  -36.0910   26.2880 C   0  0  0  0  0  1  0  0  0  0  0  0
  -27.6690  -36.5140   25.3370 N   0  0  0  0  0  0  0  0  0  0  0  0
  -27.3110  -37.4160   25.6390 H   0  0  0  0  0  0  0  0  0  0  0  0
  -27.2270  -30.7180   25.5490 C   0  0  1  0  0  0  0  0  0  0  0  0
  -26.0730  -30.3510   26.5110 C   0  0  0  0  0  1  0  0  0  0  0  0
  -27.7500  -29.4070   24.9180 C   0  0  0  0  0  1  0  0  0  0  0  0
  -28.3860  -31.2940   26.3970 C   0  0  0  0  0  1  0  0  0  0  0  0
  1 48  1  0
  1 52  1  0
  1 17  1  0
  2 16  1  0
  3  8  1  0
  4  5  1  0
  4  3  1  0
  6  5  1  0
  6 23  1  0
  6  7  1  0
  8  2  1  0
  8  7  1  0
  9  2  2  0
 10 16  1  0
 10 14  1  0
 11 17  1  0
 11 15  1  0
 13 11  1  0
 13 10  2  0
 15 14  1  0
 15 12  1  0
 16 18  1  0
 17 19  1  0
 20 21  2  0
 21 40  1  0
 22 21  1  0
 22 25  1  0
 23 24  1  0
 23 20  1  0
 24 22  2  0
 25 26  1  0
 26 27  2  0
 28 31  1  0
 28 27  1  0
 29 28  2  0
 30 29  1  0
 30 25  2  0
 31 32  1  0
 32 37  2  0
 32 33  1  0
 33 34  2  0
 34 35  1  0
 35 39  1  0
 36 35  2  0
 37 36  1  0
 38 37  1  0
 40 41  1  0
 41 44  1  0
 41 43  1  0
 42 40  2  0
 45 20  1  0
 45 46  1  0
 47 45  1  0
 49 51  1  0
 51 50  1  0
 51 48  1  0
 53 56  1  0
 53 52  1  0
 53 54  1  0
 55 54  1  0
 56 57  1  0
 57 59  1  0
 58 69  2  0
 59 64  1  0
 60 68  1  0
 60 70  1  0
 61 67  1  0
 61 63  1  0
 62 68  1  0
 63 62  1  0
 64 63  2  0
 65 66  1  0
 65 59  2  0
 66 61  2  0
 67 60  1  0
 68 58  1  0
 70 72  2  0
 71 70  1  0
 73 71  1  0
 74 83  2  0
 74 79  1  0
 75 71  1  0
 75 79  1  0
 76 75  1  0
 77 78  1  0
 77 76  1  0
 78 74  1  0
 79 80  2  0
 80 81  1  0
 82 81  2  0
 83 82  1  0
 84 58  1  0
 84 85  1  0
 84 94  1  0
 85 88  1  0
 86 85  1  0
 86 90  1  0
 87 86  2  0
 90 89  1  0
 90 92  1  0
 92 93  1  0
 92 91  1  0
 94 97  1  1
 94 95  1  0
 96 94  1  0
M  ISO  4   2 100  16 100  56 101  57 101
M  END
>  <TORSDO>  (95) 
F 22

>  <SCORE>  (95) 
-8.445

>  <name>  (95) 
94

>  <ligand_id>  (95) 
94

>  <original_smiles>  (95) 
[H]OC([H])(C([H])([H])Oc1c([H])c([H])c2c(c1[H])C([H])([H])N(C(=O)C([H])(N([H])C(=O)C([H])(N([H])C([H])([H])[H])C([H])([H])[H])C(C([H])([H])[H])(C([H])([H])[H])C([H])([H])[H])C([H])(C(=O)N([H])C1([H])c3c([H])c([H])c([H])c([H])c3C([H])([H])C([H])([H])C1([H])[H])C2([H])[H])C([H])([H])C([H])(N([H])c1nc(N([H])C(=O)N2C([H])([H])C([H])([H])C([H])([H])C([H])(n3nc(-c4c([H])c([H])c(Oc5c([H])c([H])c(F)c([H])c5F)c([H])c4[H])c(C(=O)N([H])[H])c3N([H])[H])C2([H])[H])nn1C([H])([H])[H])C([H])([H])C([H])(C([H])([H])[H])C([H])([H])[H]

>  <smiles>  (95) 
[H]OC([H])(C([H])([H])Oc1c([H])c([H])c2c(c1[H])C([H])([H])N(C(=O)C([H])(N([H])C(=O)C([H])(N([H])C([H])([H])[H])C([H])([H])[H])C(C([H])([H])[H])(C([H])([H])[H])C([H])([H])[H])C([H])(C(=O)N([H])C1([H])c3c([H])c([H])c([H])c([H])c3C([H])([H])C([H])([H])C1([H])[H])C2([H])[H])C([H])([H])C([H])(N([H])c1nc(N([H])C(=O)N2C([H])([H])C([H])([H])C([H])([H])C([H])(n3nc(-c4c([H])c([H])c(Oc5c([H])c([H])c(F)c([H])c5F)c([H])c4[H])c(C(=O)N([H])[H])c3N([H])[H])C2([H])[H])nn1C([H])([H])[H])C([H])([H])C([H])(C([H])([H])[H])C([H])([H])[H]

$$$$
95:0:0
     RDKit          3D

 96105  0  0  1  0  0  0  0  0999 V2000
  -29.3170  -19.9370   18.3300 C   0  0  0  0  0  0  0  0  0  0  0  0
  -29.5880  -18.5200   18.0780 C   0  0  0  0  0  0  0  0  0  0  0  0
  -29.5360  -17.7800   19.2540 C   0  0  0  0  0  0  0  0  0  0  0  0
  -29.2840  -21.0920   17.5030 C   0  0  0  0  0  3  0  0  0  0  0  0
  -29.0380  -20.2100   19.7060 C   0  0  0  0  0  0  0  0  0  0  0  0
  -28.7260  -22.4000   19.3180 C   0  0  0  0  0  0  0  0  0  0  0  0
  -29.9080  -17.9820   16.7000 C   0  0  0  0  0  1  0  0  0  0  0  0
  -28.9660  -22.2940   18.0180 N   0  0  0  0  0  0  0  0  0  0  0  0
  -28.7480  -21.4410   20.2430 N   0  0  0  0  0  2  0  0  0  0  0  0
  -28.3900  -23.6750   19.7160 N   0  0  0  0  0  0  0  0  0  0  0  0
  -29.1050  -18.7290   20.6600 S   0  0  0  0  0  0  0  0  0  0  0  0
  -28.2610  -24.2920   18.9230 H   0  0  0  0  0  0  0  0  0  0  0  0
  -29.5630  -21.0900   16.1390 N   0  0  0  0  0  0  0  0  0  0  0  0
  -30.0790  -20.3040   15.7620 H   0  0  0  0  0  0  0  0  0  0  0  0
  -29.7680  -21.9690   15.6810 H   0  0  0  0  0  0  0  0  0  0  0  0
  -29.8740  -16.3580   19.4220 C   0  0  0  0  0  2  0  0  0  0  0  0
  -30.0070  -15.6810   20.5100 N   0  0  0  0  0  2  0  0  0  0  0  0
  -30.7530  -14.5190   20.3170 C   0  0  0  0  0  0  0  0  0  0  0  0
  -30.3880  -12.3450   19.2390 C   0  0  0  0  0  2  0  0  0  0  0  0
  -29.4490  -12.5980   18.0400 C   0  0  0  0  0  2  0  0  0  0  0  0
  -27.9780  -12.4740   18.4850 C   0  0  0  0  0  2  0  0  0  0  0  0
  -27.6640  -13.3050   19.7550 C   0  0  0  0  0  3  0  0  0  0  0  0
  -28.7370  -13.0990   20.8470 C   0  0  0  0  0  2  0  0  0  0  0  0
  -30.0570  -13.3510   20.2570 N   0  0  0  0  0  0  0  0  0  0  0  0
  -31.9310  -14.5820   19.9620 O   0  0  0  0  0  0  0  0  0  0  0  0
  -25.2870  -13.9130   20.5180 C   0  0  0  0  0  0  0  0  0  0  0  0
  -24.2190  -13.1410   20.8940 C   0  0  0  0  0  0  0  0  0  0  0  0
  -24.6740  -11.7880   20.8420 C   0  0  0  0  0  0  0  0  0  0  0  0
  -26.3220  -13.0300   20.2590 N   0  0  0  0  0  0  0  0  0  0  0  0
  -25.9590  -11.7460   20.5130 N   0  0  0  0  0  0  0  0  0  0  0  0
  -23.9450  -10.5250   21.0270 C   0  0  0  0  0  0  0  0  0  0  0  0
  -24.3770   -9.5550   21.9560 C   0  0  0  0  0  3  0  0  0  0  0  0
  -23.6500   -8.3570   22.1320 C   0  0  0  0  0  3  0  0  0  0  0  0
  -22.4760   -8.1230   21.3760 C   0  0  0  0  0  0  0  0  0  0  0  0
  -22.0630   -9.0840   20.4370 C   0  0  0  0  0  3  0  0  0  0  0  0
  -22.7900  -10.2730   20.2610 C   0  0  0  0  0  3  0  0  0  0  0  0
  -21.7240   -6.9760   21.4590 O   0  0  0  0  0  0  0  0  0  0  0  0
  -21.6620   -6.2380   22.6140 C   0  0  0  0  0  0  0  0  0  0  0  0
  -21.1880   -6.7870   23.8260 C   0  0  0  0  0  3  0  0  0  0  0  0
  -21.0770   -5.9740   24.9710 C   0  0  0  0  0  3  0  0  0  0  0  0
  -21.4300   -4.6130   24.9060 C   0  0  0  0  0  0  0  0  0  0  0  0
  -21.8960   -4.0630   23.7000 C   0  0  0  0  0  3  0  0  0  0  0  0
  -22.0080   -4.8730   22.5550 C   0  0  0  0  0  0  0  0  0  0  0  0
  -22.4380   -4.3330   21.3900 F   0  0  0  0  0  0  0  0  0  0  0  0
  -21.3150   -3.8300   26.0040 F   0  0  0  0  0  0  0  0  0  0  0  0
  -22.8300  -13.6210   21.1960 C   0  0  0  0  0  0  0  0  0  0  0  0
  -22.1120  -12.9060   22.0570 N   0  0  0  0  0  0  0  0  0  0  0  0
  -22.3910  -14.6590   20.7030 O   0  0  0  0  0  0  0  0  0  0  0  0
  -22.4820  -12.0630   22.4710 H   0  0  0  0  0  0  0  0  0  0  0  0
  -21.1800  -13.2040   22.3050 H   0  0  0  0  0  0  0  0  0  0  0  0
  -25.4630  -15.2820   20.3550 N   0  0  0  0  0  0  0  0  0  0  0  0
  -24.7190  -15.9580   20.4930 H   0  0  0  0  0  0  0  0  0  0  0  0
  -26.3360  -15.7030   20.0650 H   0  0  0  0  0  0  0  0  0  0  0  0
  -29.1130  -24.3510   20.7920 C   0  0  0  0  0  2  0  0  0  0  0  0
  -28.3970  -25.6300   21.2920 C   0  0  0  0  0  2  0  0  0  0  0  0
  -28.4320  -26.7120   20.3440 O   0  0  0  0  0  0  0  0  0  0  0  0
  -24.6120  -31.9700   23.2810 C   0  0  0  0  0  0  0  0  0  0  0  0
  -27.2840  -27.4700   20.3240 C   0  0  0  0  0  0  0  0  0  0  0  0
  -23.4230  -30.5400   21.6500 C   0  0  0  0  0  3  0  0  0  0  0  0
  -24.8930  -28.9730   20.2720 C   0  0  0  0  0  0  0  0  0  0  0  0
  -25.9490  -30.8920   21.4750 C   0  0  0  0  0  2  0  0  0  0  0  0
  -26.0430  -29.5100   20.8650 C   0  0  0  0  0  0  0  0  0  0  0  0
  -27.2460  -28.7660   20.8870 C   0  0  0  0  0  3  0  0  0  0  0  0
  -26.1180  -26.9440   19.7290 C   0  0  0  0  0  3  0  0  0  0  0  0
  -24.9220  -27.6880   19.7030 C   0  0  0  0  0  3  0  0  0  0  0  0
  -23.6470  -29.8310   20.2870 C   0  0  0  0  0  2  0  0  0  0  0  0
  -24.6790  -31.1500   22.1930 N   0  0  0  0  0  0  0  0  0  0  0  0
  -23.5230  -32.2520   23.8020 O   0  0  0  0  0  0  0  0  0  0  0  0
  -22.7590  -29.5410   22.6260 C   0  0  0  0  0  0  0  0  0  0  0  0
  -21.4370  -29.3540   22.4840 N   0  0  0  0  0  0  0  0  0  0  0  0
  -23.4330  -28.9360   23.4650 O   0  0  0  0  0  0  0  0  0  0  0  0
  -20.9600  -29.8830   21.7680 H   0  0  0  0  0  0  0  0  0  0  0  0
  -18.0540  -28.1800   22.9870 C   0  0  0  0  0  0  0  0  0  0  0  0
  -20.6120  -28.4340   23.2660 C   0  0  0  0  0  3  0  0  0  0  0  0
  -20.7140  -26.9940   22.7150 C   0  0  0  0  0  2  0  0  0  0  0  0
  -19.6160  -26.6580   21.7010 C   0  0  0  0  0  2  0  0  0  0  0  0
  -18.2290  -26.8190   22.3310 C   0  0  0  0  0  2  0  0  0  0  0  0
  -19.1730  -28.9440   23.4100 C   0  0  0  0  0  0  0  0  0  0  0  0
  -18.9590  -30.2150   23.9860 C   0  0  0  0  0  3  0  0  0  0  0  0
  -17.6570  -30.7270   24.1370 C   0  0  0  0  0  3  0  0  0  0  0  0
  -16.5520  -29.9620   23.7280 C   0  0  0  0  0  3  0  0  0  0  0  0
  -16.7500  -28.6900   23.1620 C   0  0  0  0  0  3  0  0  0  0  0  0
  -25.8900  -32.6150   23.9020 C   0  0  0  0  0  3  0  0  0  0  0  0
  -26.4100  -31.8610   25.1880 C   0  0  1  0  0  0  0  0  0  0  0  0
  -25.3110  -31.6070   26.2480 C   0  0  0  0  0  1  0  0  0  0  0  0
  -27.0170  -30.4920   24.8050 C   0  0  0  0  0  1  0  0  0  0  0  0
  -27.5470  -32.6740   25.8510 C   0  0  0  0  0  1  0  0  0  0  0  0
  -25.5700  -34.0150   24.2140 N   0  0  0  0  0  0  0  0  0  0  0  0
  -25.9040  -35.0620   23.4450 C   0  0  0  0  0  0  0  0  0  0  0  0
  -26.5850  -34.9530   22.4220 O   0  0  0  0  0  0  0  0  0  0  0  0
  -24.9720  -34.1740   25.0110 H   0  0  0  0  0  0  0  0  0  0  0  0
  -24.1800  -36.8500   23.0470 C   0  0  0  0  0  1  0  0  0  0  0  0
  -25.4070  -36.4540   23.8830 C   0  0  0  0  0  3  0  0  0  0  0  0
  -27.5220  -37.3490   24.7500 C   0  0  0  0  0  1  0  0  0  0  0  0
  -26.4400  -37.5070   23.7800 N   0  0  0  0  0  0  0  0  0  0  0  0
  -26.0310  -38.4270   23.9190 H   0  0  0  0  0  0  0  0  0  0  0  0
  1  5  2  0
  2  1  1  0
  2  3  2  0
  3 16  1  0
  3 11  1  0
  4 13  1  0
  4  8  1  0
  4  1  1  0
  5  9  1  0
  5 11  1  0
  6 10  1  0
  6  9  1  0
  7  2  1  0
  8  6  2  0
 10 54  1  0
 12 10  1  0
 14 13  1  0
 15 13  1  0
 16 17  1  0
 18 17  1  0
 19 24  1  0
 20 21  1  0
 20 19  1  0
 22 21  1  0
 22 29  1  0
 22 23  1  0
 24 18  1  0
 24 23  1  0
 25 18  2  0
 26 27  2  0
 27 46  1  0
 28 27  1  0
 28 31  1  0
 29 30  1  0
 29 26  1  0
 30 28  2  0
 31 32  1  0
 32 33  2  0
 34 37  1  0
 34 33  1  0
 35 34  2  0
 36 35  1  0
 36 31  2  0
 37 38  1  0
 38 39  1  0
 39 40  2  0
 41 40  1  0
 41 45  1  0
 42 41  2  0
 43 38  2  0
 43 42  1  0
 44 43  1  0
 46 47  1  0
 47 50  1  0
 47 49  1  0
 48 46  2  0
 51 52  1  0
 51 26  1  0
 53 51  1  0
 54 55  1  0
 56 55  1  0
 57 68  2  0
 58 56  1  0
 58 63  1  0
 59 67  1  0
 59 69  1  0
 60 66  1  0
 60 62  1  0
 61 67  1  0
 62 63  2  0
 62 61  1  0
 64 58  2  0
 65 64  1  0
 65 60  2  0
 66 59  1  0
 67 57  1  0
 69 71  2  0
 70 69  1  0
 72 70  1  0
 73 82  2  0
 73 78  1  0
 74 70  1  0
 74 78  1  0
 75 74  1  0
 76 77  1  0
 76 75  1  0
 77 73  1  0
 78 79  2  0
 79 80  1  0
 81 80  2  0
 82 81  1  0
 83 57  1  0
 83 88  1  0
 83 84  1  0
 84 87  1  1
 84 85  1  0
 86 84  1  0
 88 91  1  0
 89 93  1  0
 89 88  1  0
 90 89  2  0
 93 92  1  0
 95 93  1  0
 95 96  1  0
 95 94  1  0
M  ISO  4  17 100  18 100  55 101  56 101
M  END
>  <TORSDO>  (96) 
F 20

>  <SCORE>  (96) 
-13.877

>  <name>  (96) 
95

>  <ligand_id>  (96) 
95

>  <original_smiles>  (96) 
[H]C(=NC(=O)N1C([H])([H])C([H])([H])C([H])([H])C([H])(n2nc(-c3c([H])c([H])c(Oc4c([H])c([H])c(F)c([H])c4F)c([H])c3[H])c(C(=O)N([H])[H])c2N([H])[H])C1([H])[H])c1sc2nc(N([H])C([H])([H])C([H])([H])Oc3c([H])c([H])c4c(c3[H])C([H])([H])N(C(=O)C([H])(N([H])C(=O)C([H])(N([H])C([H])([H])[H])C([H])([H])[H])C(C([H])([H])[H])(C([H])([H])[H])C([H])([H])[H])C([H])(C(=O)N([H])C3([H])c5c([H])c([H])c([H])c([H])c5C([H])([H])C([H])([H])C3([H])[H])C4([H])[H])nc(N([H])[H])c2c1C([H])([H])[H]

>  <smiles>  (96) 
[H]C(=NC(=O)N1C([H])([H])C([H])([H])C([H])([H])C([H])(n2nc(-c3c([H])c([H])c(Oc4c([H])c([H])c(F)c([H])c4F)c([H])c3[H])c(C(=O)N([H])[H])c2N([H])[H])C1([H])[H])c1sc2nc(N([H])C([H])([H])C([H])([H])Oc3c([H])c([H])c4c(c3[H])C([H])([H])N(C(=O)C([H])(N([H])C(=O)C([H])(N([H])C([H])([H])[H])C([H])([H])[H])C(C([H])([H])[H])(C([H])([H])[H])C([H])([H])[H])C([H])(C(=O)N([H])C3([H])c5c([H])c([H])c([H])c([H])c5C([H])([H])C([H])([H])C3([H])[H])C4([H])[H])nc(N([H])[H])c2c1C([H])([H])[H]

$$$$
96:0:0
     RDKit          3D

 92100  0  0  1  0  0  0  0  0999 V2000
  -29.3960  -21.8080   20.5830 C   0  0  0  0  0  2  0  0  0  0  0  0
  -30.2630  -20.7020   20.1390 N   0  0  0  0  0  0  0  0  0  0  0  0
  -30.8470  -20.9430   19.3430 H   0  0  0  0  0  0  0  0  0  0  0  0
  -30.5930  -14.5240   20.4210 C   0  0  0  0  0  0  0  0  0  0  0  0
  -30.3780  -12.3430   19.2860 C   0  0  0  0  0  2  0  0  0  0  0  0
  -29.4230  -12.5330   18.0860 C   0  0  0  0  0  2  0  0  0  0  0  0
  -27.9450  -12.4030   18.5210 C   0  0  0  0  0  2  0  0  0  0  0  0
  -27.6080  -13.2270   19.7920 C   0  0  0  0  0  3  0  0  0  0  0  0
  -28.6670  -12.9690   20.8880 C   0  0  0  0  0  2  0  0  0  0  0  0
  -29.9860  -13.3070   20.3220 N   0  0  0  0  0  0  0  0  0  0  0  0
  -31.7260  -14.7470   19.9870 O   0  0  0  0  0  0  0  0  0  0  0  0
  -28.5760  -18.8440   20.3490 C   0  0  0  0  0  3  0  0  0  0  0  0
  -29.8590  -19.3570   20.2930 C   0  0  0  0  0  0  0  0  0  0  0  0
  -29.7230  -16.8860   20.6160 C   0  0  0  0  0  0  0  0  0  0  0  0
  -28.5100  -17.4540   20.5440 N   0  0  0  0  0  0  0  0  0  0  0  0
  -29.7700  -15.4870   20.8890 N   0  0  0  0  0  0  0  0  0  0  0  0
  -31.0450  -18.0530   20.4120 S   0  0  0  0  0  0  0  0  0  0  0  0
  -28.8950  -15.1080   21.2050 H   0  0  0  0  0  0  0  0  0  0  0  0
  -25.2120  -13.8460   20.5020 C   0  0  0  0  0  0  0  0  0  0  0  0
  -24.1390  -13.0800   20.8790 C   0  0  0  0  0  0  0  0  0  0  0  0
  -24.5990  -11.7270   20.8500 C   0  0  0  0  0  0  0  0  0  0  0  0
  -26.2550  -12.9630   20.2750 N   0  0  0  0  0  0  0  0  0  0  0  0
  -25.8880  -11.6830   20.5400 N   0  0  0  0  0  0  0  0  0  0  0  0
  -23.8750  -10.4670   21.0510 C   0  0  0  0  0  0  0  0  0  0  0  0
  -24.3200   -9.4960   21.9760 C   0  0  0  0  0  3  0  0  0  0  0  0
  -23.5950   -8.2990   22.1620 C   0  0  0  0  0  3  0  0  0  0  0  0
  -22.4100   -8.0630   21.4210 C   0  0  0  0  0  0  0  0  0  0  0  0
  -21.9860   -9.0230   20.4850 C   0  0  0  0  0  3  0  0  0  0  0  0
  -22.7110  -10.2110   20.2970 C   0  0  0  0  0  3  0  0  0  0  0  0
  -21.6570   -6.9160   21.5150 O   0  0  0  0  0  0  0  0  0  0  0  0
  -21.6340   -6.1630   22.6610 C   0  0  0  0  0  0  0  0  0  0  0  0
  -21.2410   -6.7080   23.9020 C   0  0  0  0  0  3  0  0  0  0  0  0
  -21.1640   -5.8830   25.0410 C   0  0  0  0  0  3  0  0  0  0  0  0
  -21.4700   -4.5110   24.9410 C   0  0  0  0  0  0  0  0  0  0  0  0
  -21.8560   -3.9660   23.7020 C   0  0  0  0  0  3  0  0  0  0  0  0
  -21.9350   -4.7890   22.5640 C   0  0  0  0  0  0  0  0  0  0  0  0
  -22.2880   -4.2580   21.3680 F   0  0  0  0  0  0  0  0  0  0  0  0
  -21.3900   -3.7110   26.0290 F   0  0  0  0  0  0  0  0  0  0  0  0
  -22.7430  -13.5610   21.1540 C   0  0  0  0  0  0  0  0  0  0  0  0
  -22.0210  -12.8710   22.0280 N   0  0  0  0  0  0  0  0  0  0  0  0
  -22.3040  -14.5840   20.6330 O   0  0  0  0  0  0  0  0  0  0  0  0
  -22.3770  -12.0360   22.4660 H   0  0  0  0  0  0  0  0  0  0  0  0
  -21.0870  -13.1790   22.2520 H   0  0  0  0  0  0  0  0  0  0  0  0
  -25.3780  -15.2170   20.3160 N   0  0  0  0  0  0  0  0  0  0  0  0
  -24.6180  -15.8740   20.4610 H   0  0  0  0  0  0  0  0  0  0  0  0
  -26.2270  -15.6600   19.9780 H   0  0  0  0  0  0  0  0  0  0  0  0
  -29.6050  -23.1140   19.7660 C   0  0  0  0  0  3  0  0  0  0  0  0
  -29.5780  -22.7610   18.3910 O   0  0  0  0  0  0  0  0  0  0  0  0
  -28.9970  -22.0110   18.2950 H   0  0  0  0  0  0  0  0  0  0  0  0
  -28.5400  -24.2120   20.0870 C   0  0  0  0  0  2  0  0  0  0  0  0
  -28.7040  -25.5770   19.3510 C   0  0  0  0  0  2  0  0  0  0  0  0
  -28.4440  -26.7340   20.1750 O   0  0  0  0  0  0  0  0  0  0  0  0
  -24.5840  -31.8890   23.2360 C   0  0  0  0  0  0  0  0  0  0  0  0
  -27.2420  -27.4250   20.1520 C   0  0  0  0  0  0  0  0  0  0  0  0
  -23.3730  -30.4860   21.5920 C   0  0  0  0  0  3  0  0  0  0  0  0
  -24.8320  -28.9390   20.1690 C   0  0  0  0  0  0  0  0  0  0  0  0
  -25.8990  -30.8370   21.3900 C   0  0  0  0  0  2  0  0  0  0  0  0
  -25.9850  -29.4580   20.7650 C   0  0  0  0  0  0  0  0  0  0  0  0
  -27.1860  -28.7040   20.7630 C   0  0  0  0  0  3  0  0  0  0  0  0
  -26.0650  -26.9200   19.5570 C   0  0  0  0  0  3  0  0  0  0  0  0
  -24.8690  -27.6710   19.5640 C   0  0  0  0  0  3  0  0  0  0  0  0
  -23.5840  -29.8000   20.2130 C   0  0  0  0  0  2  0  0  0  0  0  0
  -24.6370  -31.0860   22.1330 N   0  0  0  0  0  0  0  0  0  0  0  0
  -23.5030  -32.1590   23.7790 O   0  0  0  0  0  0  0  0  0  0  0  0
  -22.7230  -29.4680   22.5560 C   0  0  0  0  0  0  0  0  0  0  0  0
  -21.3990  -29.2940   22.4400 N   0  0  0  0  0  0  0  0  0  0  0  0
  -23.4070  -28.8390   23.3680 O   0  0  0  0  0  0  0  0  0  0  0  0
  -20.9050  -29.8540   21.7600 H   0  0  0  0  0  0  0  0  0  0  0  0
  -18.0220  -28.1110   22.9460 C   0  0  0  0  0  0  0  0  0  0  0  0
  -20.5830  -28.3580   23.2120 C   0  0  0  0  0  3  0  0  0  0  0  0
  -20.6800  -26.9260   22.6350 C   0  0  0  0  0  2  0  0  0  0  0  0
  -19.5720  -26.6080   21.6260 C   0  0  0  0  0  2  0  0  0  0  0  0
  -18.1920  -26.7610   22.2730 C   0  0  0  0  0  2  0  0  0  0  0  0
  -19.1440  -28.8670   23.3750 C   0  0  0  0  0  0  0  0  0  0  0  0
  -18.9320  -30.1330   23.9630 C   0  0  0  0  0  3  0  0  0  0  0  0
  -17.6280  -30.6380   24.1330 C   0  0  0  0  0  3  0  0  0  0  0  0
  -16.5200  -29.8750   23.7220 C   0  0  0  0  0  3  0  0  0  0  0  0
  -16.7180  -28.6160   23.1280 C   0  0  0  0  0  3  0  0  0  0  0  0
  -25.8730  -32.5210   23.8530 C   0  0  0  0  0  3  0  0  0  0  0  0
  -25.5670  -33.9220   24.1840 N   0  0  0  0  0  0  0  0  0  0  0  0
  -25.9000  -34.9700   23.4200 C   0  0  0  0  0  0  0  0  0  0  0  0
  -26.5700  -34.8620   22.3890 O   0  0  0  0  0  0  0  0  0  0  0  0
  -24.9890  -34.0840   24.9950 H   0  0  0  0  0  0  0  0  0  0  0  0
  -24.1770  -36.7680   23.0610 C   0  0  0  0  0  1  0  0  0  0  0  0
  -25.4150  -36.3600   23.8750 C   0  0  0  0  0  3  0  0  0  0  0  0
  -27.5510  -37.2410   24.7100 C   0  0  0  0  0  1  0  0  0  0  0  0
  -26.4490  -37.4110   23.7670 N   0  0  0  0  0  0  0  0  0  0  0  0
  -26.0430  -38.3300   23.9230 H   0  0  0  0  0  0  0  0  0  0  0  0
  -26.3930  -31.7500   25.1290 C   0  0  1  0  0  0  0  0  0  0  0  0
  -25.3010  -31.5200   26.2010 C   0  0  0  0  0  1  0  0  0  0  0  0
  -26.9650  -30.3680   24.7330 C   0  0  0  0  0  1  0  0  0  0  0  0
  -27.5440  -32.5430   25.7910 C   0  0  0  0  0  1  0  0  0  0  0  0
  2 13  1  0
  2  1  1  0
  3  2  1  0
  4 16  1  0
  5 10  1  0
  6  7  1  0
  6  5  1  0
  8  7  1  0
  8 22  1  0
  8  9  1  0
 10  4  1  0
 10  9  1  0
 11  4  2  0
 12 15  1  0
 13 12  2  0
 13 17  1  0
 14 16  1  0
 15 14  2  0
 16 18  1  0
 17 14  1  0
 19 20  2  0
 20 39  1  0
 21 20  1  0
 21 24  1  0
 22 19  1  0
 22 23  1  0
 23 21  2  0
 24 25  1  0
 25 26  2  0
 27 30  1  0
 27 26  1  0
 28 27  2  0
 29 28  1  0
 29 24  2  0
 30 31  1  0
 31 32  1  0
 32 33  2  0
 34 33  1  0
 34 38  1  0
 35 34  2  0
 36 31  2  0
 36 35  1  0
 37 36  1  0
 39 40  1  0
 40 43  1  0
 40 42  1  0
 41 39  2  0
 44 45  1  0
 44 19  1  0
 46 44  1  0
 47 50  1  0
 47  1  1  0
 48 47  1  0
 49 48  1  0
 51 50  1  0
 51 52  1  0
 53 64  2  0
 54 52  1  0
 54 59  1  0
 55 63  1  0
 55 65  1  0
 56 62  1  0
 56 58  1  0
 57 63  1  0
 58 57  1  0
 59 58  2  0
 60 61  1  0
 60 54  2  0
 61 56  2  0
 62 55  1  0
 63 53  1  0
 65 67  2  0
 66 65  1  0
 68 66  1  0
 69 78  2  0
 69 74  1  0
 70 66  1  0
 70 74  1  0
 71 70  1  0
 72 73  1  0
 72 71  1  0
 73 69  1  0
 74 75  2  0
 75 76  1  0
 77 76  2  0
 78 77  1  0
 79 53  1  0
 79 80  1  0
 79 89  1  0
 80 83  1  0
 81 85  1  0
 81 80  1  0
 82 81  2  0
 85 84  1  0
 87 85  1  0
 87 88  1  0
 87 86  1  0
 89 92  1  1
 89 90  1  0
 91 89  1  0
M  ISO  4   4 100  16 100  51 101  52 101
M  END
>  <TORSDO>  (97) 
F 21

>  <SCORE>  (97) 
-13.762

>  <name>  (97) 
96

>  <ligand_id>  (97) 
96

>  <original_smiles>  (97) 
[H]OC([H])(C([H])([H])N([H])c1sc(N([H])C(=O)N2C([H])([H])C([H])([H])C([H])([H])C([H])(n3nc(-c4c([H])c([H])c(Oc5c([H])c([H])c(F)c([H])c5F)c([H])c4[H])c(C(=O)N([H])[H])c3N([H])[H])C2([H])[H])nc1[H])C([H])([H])C([H])([H])Oc1c([H])c([H])c2c(c1[H])C([H])([H])N(C(=O)C([H])(N([H])C(=O)C([H])(N([H])C([H])([H])[H])C([H])([H])[H])C(C([H])([H])[H])(C([H])([H])[H])C([H])([H])[H])C([H])(C(=O)N([H])C1([H])c3c([H])c([H])c([H])c([H])c3C([H])([H])C([H])([H])C1([H])[H])C2([H])[H]

>  <smiles>  (97) 
[H]OC([H])(C([H])([H])N([H])c1sc(N([H])C(=O)N2C([H])([H])C([H])([H])C([H])([H])C([H])(n3nc(-c4c([H])c([H])c(Oc5c([H])c([H])c(F)c([H])c5F)c([H])c4[H])c(C(=O)N([H])[H])c3N([H])[H])C2([H])[H])nc1[H])C([H])([H])C([H])([H])Oc1c([H])c([H])c2c(c1[H])C([H])([H])N(C(=O)C([H])(N([H])C(=O)C([H])(N([H])C([H])([H])[H])C([H])([H])[H])C(C([H])([H])[H])(C([H])([H])[H])C([H])([H])[H])C([H])(C(=O)N([H])C1([H])c3c([H])c([H])c([H])c([H])c3C([H])([H])C([H])([H])C1([H])[H])C2([H])[H]

$$$$
97:0:0
     RDKit          3D

100108  0  0  1  0  0  0  0  0999 V2000
  -30.1650  -21.7700   20.7030 C   0  0  0  0  0  3  0  0  0  0  0  0
  -32.6590  -21.8590   20.0550 C   0  0  0  0  0  1  0  0  0  0  0  0
  -31.6360  -21.9590   21.2060 C   0  0  0  0  0  3  0  0  0  0  0  0
  -31.3640  -21.3970   23.7120 C   0  0  0  0  0  1  0  0  0  0  0  0
  -32.0660  -21.0630   22.3880 C   0  0  0  0  0  2  0  0  0  0  0  0
  -30.0300  -20.4820   19.9480 N   0  0  0  0  0  0  0  0  0  0  0  0
  -30.3800  -20.5080   18.9950 H   0  0  0  0  0  0  0  0  0  0  0  0
  -30.7220  -14.5790   20.0750 C   0  0  0  0  0  0  0  0  0  0  0  0
  -30.4360  -12.4140   18.8800 C   0  0  0  0  0  2  0  0  0  0  0  0
  -29.4000  -12.6120   17.7490 C   0  0  0  0  0  2  0  0  0  0  0  0
  -27.9570  -12.4550   18.2720 C   0  0  0  0  0  2  0  0  0  0  0  0
  -27.7030  -13.2540   19.5790 C   0  0  0  0  0  3  0  0  0  0  0  0
  -28.8320  -12.9860   20.6020 C   0  0  0  0  0  2  0  0  0  0  0  0
  -30.1090  -13.3590   19.9650 N   0  0  0  0  0  0  0  0  0  0  0  0
  -31.8100  -14.8220   19.5440 O   0  0  0  0  0  0  0  0  0  0  0  0
  -29.6460  -18.9210   21.8770 C   0  0  0  0  0  3  0  0  0  0  0  0
  -29.9870  -19.1900   20.5730 C   0  0  0  0  0  0  0  0  0  0  0  0
  -30.0470  -16.9640   20.8710 C   0  0  0  0  0  3  0  0  0  0  0  0
  -30.2300  -17.9550   19.9600 N   0  0  0  0  0  0  0  0  0  0  0  0
  -29.6940  -17.5540   22.0220 N   0  0  0  0  0  0  0  0  0  0  0  0
  -29.9780  -15.5190   20.7210 N   0  0  0  0  0  0  0  0  0  0  0  0
  -30.4580  -17.8060   18.9850 H   0  0  0  0  0  0  0  0  0  0  0  0
  -29.4770  -17.0710   22.8830 H   0  0  0  0  0  0  0  0  0  0  0  0
  -29.1950  -15.0950   21.1920 H   0  0  0  0  0  0  0  0  0  0  0  0
  -25.3610  -13.8600   20.4550 C   0  0  0  0  0  0  0  0  0  0  0  0
  -24.3100  -13.0860   20.8710 C   0  0  0  0  0  0  0  0  0  0  0  0
  -24.7570  -11.7320   20.7750 C   0  0  0  0  0  0  0  0  0  0  0  0
  -26.3800  -12.9770   20.1350 N   0  0  0  0  0  0  0  0  0  0  0  0
  -26.0250  -11.6910   20.3850 N   0  0  0  0  0  0  0  0  0  0  0  0
  -24.0330  -10.4700   20.9750 C   0  0  0  0  0  0  0  0  0  0  0  0
  -24.4780   -9.5020   21.9020 C   0  0  0  0  0  3  0  0  0  0  0  0
  -23.7540   -8.3050   22.0900 C   0  0  0  0  0  3  0  0  0  0  0  0
  -22.5710   -8.0680   21.3500 C   0  0  0  0  0  0  0  0  0  0  0  0
  -22.1450   -9.0250   20.4120 C   0  0  0  0  0  3  0  0  0  0  0  0
  -22.8700  -10.2130   20.2220 C   0  0  0  0  0  3  0  0  0  0  0  0
  -21.8170   -6.9230   21.4480 O   0  0  0  0  0  0  0  0  0  0  0  0
  -21.7330   -6.2160   22.6210 C   0  0  0  0  0  0  0  0  0  0  0  0
  -21.2630   -6.8050   23.8140 C   0  0  0  0  0  3  0  0  0  0  0  0
  -21.1250   -6.0230   24.9790 C   0  0  0  0  0  3  0  0  0  0  0  0
  -21.4480   -4.6540   24.9500 C   0  0  0  0  0  0  0  0  0  0  0  0
  -21.9120   -4.0640   23.7590 C   0  0  0  0  0  3  0  0  0  0  0  0
  -22.0500   -4.8430   22.5980 C   0  0  0  0  0  0  0  0  0  0  0  0
  -22.4760   -4.2650   21.4490 F   0  0  0  0  0  0  0  0  0  0  0  0
  -21.3100   -3.9000   26.0650 F   0  0  0  0  0  0  0  0  0  0  0  0
  -22.9380  -13.5670   21.2440 C   0  0  0  0  0  0  0  0  0  0  0  0
  -22.2640  -12.8570   22.1440 N   0  0  0  0  0  0  0  0  0  0  0  0
  -22.4730  -14.6040   20.7750 O   0  0  0  0  0  0  0  0  0  0  0  0
  -22.6530  -12.0170   22.5440 H   0  0  0  0  0  0  0  0  0  0  0  0
  -21.3460  -13.1600   22.4360 H   0  0  0  0  0  0  0  0  0  0  0  0
  -25.5250  -15.2340   20.3000 N   0  0  0  0  0  0  0  0  0  0  0  0
  -24.7640  -15.8840   20.4600 H   0  0  0  0  0  0  0  0  0  0  0  0
  -26.3340  -15.6710   19.8770 H   0  0  0  0  0  0  0  0  0  0  0  0
  -29.7610  -23.0820   19.8820 C   0  0  0  0  0  2  0  0  0  0  0  0
  -28.3580  -23.7790   20.1090 C   0  0  0  0  0  3  0  0  0  0  0  0
  -27.5730  -23.7690   18.8540 N   0  0  0  0  0  4  0  0  0  0  0  0
  -27.9320  -24.4420   18.1970 H   0  0  0  0  0  0  0  0  0  0  0  0
  -26.6030  -23.9720   19.0270 H   0  0  0  0  0  0  0  0  0  0  0  0
  -27.6150  -22.8590   18.4260 H   0  0  0  0  0  0  0  0  0  0  0  0
  -28.2920  -25.2020   20.8360 C   0  0  0  0  0  2  0  0  0  0  0  0
  -28.3910  -26.4780   20.1090 O   0  0  0  0  0  0  0  0  0  0  0  0
  -24.6060  -31.8080   23.1850 C   0  0  0  0  0  0  0  0  0  0  0  0
  -27.2630  -27.3020   20.1210 C   0  0  0  0  0  0  0  0  0  0  0  0
  -23.4170  -30.4130   21.5290 C   0  0  0  0  0  3  0  0  0  0  0  0
  -24.8850  -28.8750   20.1130 C   0  0  0  0  0  0  0  0  0  0  0  0
  -25.9540  -30.7520   21.3630 C   0  0  0  0  0  2  0  0  0  0  0  0
  -26.0470  -29.3770   20.7140 C   0  0  0  0  0  0  0  0  0  0  0  0
  -27.2420  -28.6020   20.7080 C   0  0  0  0  0  3  0  0  0  0  0  0
  -26.0770  -26.8410   19.5130 C   0  0  0  0  0  3  0  0  0  0  0  0
  -24.9000  -27.6100   19.5080 C   0  0  0  0  0  3  0  0  0  0  0  0
  -23.6430  -29.7420   20.1490 C   0  0  0  0  0  2  0  0  0  0  0  0
  -24.6770  -31.0070   22.0840 N   0  0  0  0  0  0  0  0  0  0  0  0
  -23.5180  -32.0790   23.7140 O   0  0  0  0  0  0  0  0  0  0  0  0
  -22.7540  -29.3890   22.4790 C   0  0  0  0  0  0  0  0  0  0  0  0
  -21.4270  -29.2170   22.3520 N   0  0  0  0  0  0  0  0  0  0  0  0
  -23.4300  -28.7510   23.2920 O   0  0  0  0  0  0  0  0  0  0  0  0
  -20.9410  -29.7830   21.6710 H   0  0  0  0  0  0  0  0  0  0  0  0
  -18.0430  -28.0380   22.8420 C   0  0  0  0  0  0  0  0  0  0  0  0
  -20.6030  -28.2760   23.1130 C   0  0  0  0  0  3  0  0  0  0  0  0
  -20.6960  -26.8510   22.5220 C   0  0  0  0  0  2  0  0  0  0  0  0
  -19.5910  -26.5460   21.5060 C   0  0  0  0  0  2  0  0  0  0  0  0
  -18.2100  -26.6950   22.1520 C   0  0  0  0  0  2  0  0  0  0  0  0
  -19.1670  -28.7880   23.2800 C   0  0  0  0  0  0  0  0  0  0  0  0
  -18.9600  -30.0470   23.8840 C   0  0  0  0  0  3  0  0  0  0  0  0
  -17.6590  -30.5570   24.0540 C   0  0  0  0  0  3  0  0  0  0  0  0
  -16.5490  -29.8040   23.6340 C   0  0  0  0  0  3  0  0  0  0  0  0
  -16.7410  -28.5470   23.0340 C   0  0  0  0  0  3  0  0  0  0  0  0
  -25.8830  -32.4420   23.8180 C   0  0  0  0  0  3  0  0  0  0  0  0
  -26.3960  -31.6620   25.0900 C   0  0  1  0  0  0  0  0  0  0  0  0
  -25.2990  -31.4100   26.1500 C   0  0  0  0  0  1  0  0  0  0  0  0
  -26.9870  -30.2910   24.6880 C   0  0  0  0  0  1  0  0  0  0  0  0
  -27.5400  -32.4540   25.7640 C   0  0  0  0  0  1  0  0  0  0  0  0
  -25.5650  -33.8350   24.1600 N   0  0  0  0  0  0  0  0  0  0  0  0
  -25.8990  -34.8950   23.4120 C   0  0  0  0  0  0  0  0  0  0  0  0
  -26.5740  -34.8050   22.3840 O   0  0  0  0  0  0  0  0  0  0  0  0
  -24.9660  -33.9820   24.9580 H   0  0  0  0  0  0  0  0  0  0  0  0
  -24.1670  -36.6850   23.0630 C   0  0  0  0  0  1  0  0  0  0  0  0
  -25.4030  -36.2770   23.8800 C   0  0  0  0  0  3  0  0  0  0  0  0
  -27.5260  -37.1600   24.7380 C   0  0  0  0  0  1  0  0  0  0  0  0
  -26.4320  -37.3360   23.7870 N   0  0  0  0  0  0  0  0  0  0  0  0
  -26.0210  -38.2510   23.9450 H   0  0  0  0  0  0  0  0  0  0  0  0
  1 53  1  0
  1  3  1  0
  3  2  1  0
  3  5  1  0
  5  4  1  0
  6 17  1  0
  6  1  1  0
  7  6  1  0
  8 21  1  0
  9 14  1  0
 10 11  1  0
 10  9  1  0
 12 11  1  0
 12 28  1  0
 12 13  1  0
 14  8  1  0
 14 13  1  0
 15  8  2  0
 16 20  1  0
 17 16  2  0
 18 21  1  0
 18 20  1  0
 19 17  1  0
 19 18  1  0
 20 23  1  0
 21 24  1  0
 22 19  1  0
 25 26  2  0
 26 45  1  0
 27 26  1  0
 27 30  1  0
 28 29  1  0
 28 25  1  0
 29 27  2  0
 30 31  1  0
 31 32  2  0
 33 36  1  0
 33 32  1  0
 34 33  2  0
 35 34  1  0
 35 30  2  0
 36 37  1  0
 37 38  1  0
 38 39  2  0
 40 39  1  0
 40 44  1  0
 41 40  2  0
 42 37  2  0
 42 41  1  0
 43 42  1  0
 45 46  1  0
 46 49  1  0
 46 48  1  0
 47 45  2  0
 50 25  1  0
 50 51  1  0
 52 50  1  0
 54 53  1  0
 54 59  1  0
 55 57  1  0
 55 54  1  0
 56 55  1  0
 58 55  1  0
 60 62  1  0
 60 59  1  0
 61 72  2  0
 62 67  1  0
 63 71  1  0
 63 73  1  0
 64 70  1  0
 64 66  1  0
 65 71  1  0
 66 65  1  0
 67 66  2  0
 68 62  2  0
 69 68  1  0
 69 64  2  0
 70 63  1  0
 71 61  1  0
 73 75  2  0
 74 73  1  0
 76 74  1  0
 77 86  2  0
 77 82  1  0
 78 74  1  0
 78 82  1  0
 79 78  1  0
 80 81  1  0
 80 79  1  0
 81 77  1  0
 82 83  2  0
 83 84  1  0
 85 84  2  0
 86 85  1  0
 87 61  1  0
 87 92  1  0
 87 88  1  0
 88 91  1  1
 88 89  1  0
 90 88  1  0
 92 95  1  0
 93 97  1  0
 93 92  1  0
 94 93  2  0
 97 96  1  0
 99 97  1  0
 99100  1  0
 99 98  1  0
M  ISO  4   8 100  21 100  59 101  60 101
M  END
>  <TORSDO>  (98) 
F 23

>  <SCORE>  (98) 
-12.495

>  <name>  (98) 
97

>  <ligand_id>  (98) 
97

>  <original_smiles>  (98) 
[H]c1c([H])c([H])c2c(c1[H])C([H])([H])C([H])([H])C([H])([H])C2([H])N([H])C(=O)C1([H])N(C(=O)C([H])(N([H])C(=O)C([H])(N([H])C([H])([H])[H])C([H])([H])[H])C(C([H])([H])[H])(C([H])([H])[H])C([H])([H])[H])C([H])([H])c2c([H])c(OC([H])([H])C([H])(C([H])([H])C([H])(N([H])c3c([H])[n+]([H])c(N([H])C(=O)N4C([H])([H])C([H])([H])C([H])([H])C([H])(n5nc(-c6c([H])c([H])c(Oc7c([H])c([H])c(F)c([H])c7F)c([H])c6[H])c(C(=O)N([H])[H])c5N([H])[H])C4([H])[H])n3[H])C([H])(C([H])([H])[H])C([H])([H])C([H])([H])[H])[N+]([H])([H])[H])c([H])c([H])c2C1([H])[H]

>  <smiles>  (98) 
[H]c1c([H])c([H])c2c(c1[H])C([H])([H])C([H])([H])C([H])([H])C2([H])N([H])C(=O)C1([H])N(C(=O)C([H])(N([H])C(=O)C([H])(N([H])C([H])([H])[H])C([H])([H])[H])C(C([H])([H])[H])(C([H])([H])[H])C([H])([H])[H])C([H])([H])c2c([H])c(OC([H])([H])C([H])(C([H])([H])C([H])(N([H])c3c([H])[n+]([H])c(N([H])C(=O)N4C([H])([H])C([H])([H])C([H])([H])C([H])(n5nc(-c6c([H])c([H])c(Oc7c([H])c([H])c(F)c([H])c7F)c([H])c6[H])c(C(=O)N([H])[H])c5N([H])[H])C4([H])[H])n3[H])C([H])(C([H])([H])[H])C([H])([H])C([H])([H])[H])[N+]([H])([H])[H])c([H])c([H])c2C1([H])[H]

$$$$
98:0:0
     RDKit          3D

 92100  0  0  1  0  0  0  0  0999 V2000
  -28.3430  -21.5830   18.8480 C   0  0  0  0  0  1  0  0  0  0  0  0
  -28.9420  -21.7340   20.2570 C   0  0  0  0  0  3  0  0  0  0  0  0
  -28.9210  -17.5110   20.7760 C   0  0  0  0  0  3  0  0  0  0  0  0
  -31.2940  -18.7730   20.6700 C   0  0  0  0  0  3  0  0  0  0  0  0
  -30.1330  -16.7790   20.8500 C   0  0  0  0  0  0  0  0  0  0  0  0
  -30.0780  -19.4910   20.5800 C   0  0  0  0  0  0  0  0  0  0  0  0
  -31.3270  -17.4250   20.8090 N   0  0  0  0  0  0  0  0  0  0  0  0
  -28.8840  -18.8610   20.6410 N   0  0  0  0  0  0  0  0  0  0  0  0
  -30.1160  -20.8830   20.4210 N   0  0  0  0  0  0  0  0  0  0  0  0
  -31.0330  -21.3200   20.3810 H   0  0  0  0  0  0  0  0  0  0  0  0
  -30.6790  -14.4220   20.3350 C   0  0  0  0  0  0  0  0  0  0  0  0
  -30.3260  -12.3080   19.1200 C   0  0  0  0  0  2  0  0  0  0  0  0
  -29.3560  -12.5780   17.9530 C   0  0  0  0  0  2  0  0  0  0  0  0
  -27.8900  -12.4410   18.4160 C   0  0  0  0  0  2  0  0  0  0  0  0
  -27.5960  -13.2360   19.7140 C   0  0  0  0  0  3  0  0  0  0  0  0
  -28.6770  -12.9570   20.7850 C   0  0  0  0  0  2  0  0  0  0  0  0
  -29.9970  -13.2550   20.1960 N   0  0  0  0  0  0  0  0  0  0  0  0
  -31.7810  -14.6210   19.8120 O   0  0  0  0  0  0  0  0  0  0  0  0
  -29.9980  -15.3760   20.9850 N   0  0  0  0  0  0  0  0  0  0  0  0
  -29.1160  -15.0620   21.3550 H   0  0  0  0  0  0  0  0  0  0  0  0
  -25.2080  -13.8430   20.4770 C   0  0  0  0  0  0  0  0  0  0  0  0
  -24.1480  -13.0710   20.8680 C   0  0  0  0  0  0  0  0  0  0  0  0
  -24.6100  -11.7190   20.8240 C   0  0  0  0  0  0  0  0  0  0  0  0
  -26.2500  -12.9630   20.2190 N   0  0  0  0  0  0  0  0  0  0  0  0
  -25.8920  -11.6810   20.4840 N   0  0  0  0  0  0  0  0  0  0  0  0
  -23.8890  -10.4560   21.0290 C   0  0  0  0  0  0  0  0  0  0  0  0
  -24.3490   -9.4830   21.9430 C   0  0  0  0  0  3  0  0  0  0  0  0
  -23.6290   -8.2840   22.1360 C   0  0  0  0  0  3  0  0  0  0  0  0
  -22.4340   -8.0510   21.4160 C   0  0  0  0  0  0  0  0  0  0  0  0
  -21.9920   -9.0110   20.4890 C   0  0  0  0  0  3  0  0  0  0  0  0
  -22.7130  -10.2020   20.2940 C   0  0  0  0  0  3  0  0  0  0  0  0
  -21.6840   -6.9040   21.5160 O   0  0  0  0  0  0  0  0  0  0  0  0
  -21.6750   -6.1480   22.6620 C   0  0  0  0  0  0  0  0  0  0  0  0
  -21.2970   -6.6900   23.9090 C   0  0  0  0  0  3  0  0  0  0  0  0
  -21.2340   -5.8610   25.0480 C   0  0  0  0  0  3  0  0  0  0  0  0
  -21.5400   -4.4910   24.9380 C   0  0  0  0  0  0  0  0  0  0  0  0
  -21.9120   -3.9490   23.6960 C   0  0  0  0  0  3  0  0  0  0  0  0
  -21.9760   -4.7760   22.5610 C   0  0  0  0  0  0  0  0  0  0  0  0
  -22.3160   -4.2440   21.3620 F   0  0  0  0  0  0  0  0  0  0  0  0
  -21.4730   -3.6930   26.0300 F   0  0  0  0  0  0  0  0  0  0  0  0
  -22.7560  -13.5480   21.1700 C   0  0  0  0  0  0  0  0  0  0  0  0
  -22.0470  -12.8530   22.0530 N   0  0  0  0  0  0  0  0  0  0  0  0
  -22.3050  -14.5700   20.6540 O   0  0  0  0  0  0  0  0  0  0  0  0
  -22.4270  -12.0300   22.4960 H   0  0  0  0  0  0  0  0  0  0  0  0
  -21.1120  -13.1520   22.2930 H   0  0  0  0  0  0  0  0  0  0  0  0
  -25.3650  -15.2140   20.3010 N   0  0  0  0  0  0  0  0  0  0  0  0
  -24.5860  -15.8510   20.4160 H   0  0  0  0  0  0  0  0  0  0  0  0
  -26.1790  -15.6530   19.8920 H   0  0  0  0  0  0  0  0  0  0  0  0
  -29.3420  -23.1910   20.6020 C   0  0  0  0  0  2  0  0  0  0  0  0
  -28.3600  -24.3030   20.1700 C   0  0  0  0  0  2  0  0  0  0  0  0
  -28.5990  -25.6350   20.9170 C   0  0  0  0  0  2  0  0  0  0  0  0
  -28.4760  -26.7780   20.0750 O   0  0  0  0  0  0  0  0  0  0  0  0
  -24.6310  -31.8720   23.2340 C   0  0  0  0  0  0  0  0  0  0  0  0
  -27.2880  -27.4600   20.1480 C   0  0  0  0  0  0  0  0  0  0  0  0
  -23.4220  -30.4670   21.5910 C   0  0  0  0  0  3  0  0  0  0  0  0
  -24.8790  -28.9260   20.1740 C   0  0  0  0  0  0  0  0  0  0  0  0
  -25.9430  -30.8380   21.3870 C   0  0  0  0  0  2  0  0  0  0  0  0
  -26.0330  -29.4650   20.7540 C   0  0  0  0  0  0  0  0  0  0  0  0
  -27.2420  -28.7370   20.7430 C   0  0  0  0  0  3  0  0  0  0  0  0
  -26.1210  -26.9180   19.5750 C   0  0  0  0  0  3  0  0  0  0  0  0
  -24.9150  -27.6450   19.5880 C   0  0  0  0  0  3  0  0  0  0  0  0
  -23.6310  -29.7790   20.2160 C   0  0  0  0  0  2  0  0  0  0  0  0
  -24.6840  -31.0740   22.1300 N   0  0  0  0  0  0  0  0  0  0  0  0
  -23.5500  -32.1430   23.7750 O   0  0  0  0  0  0  0  0  0  0  0  0
  -22.7750  -29.4470   22.5550 C   0  0  0  0  0  0  0  0  0  0  0  0
  -21.4500  -29.2680   22.4320 N   0  0  0  0  0  0  0  0  0  0  0  0
  -23.4610  -28.8200   23.3670 O   0  0  0  0  0  0  0  0  0  0  0  0
  -20.9570  -29.8180   21.7430 H   0  0  0  0  0  0  0  0  0  0  0  0
  -18.0770  -28.0840   22.9440 C   0  0  0  0  0  0  0  0  0  0  0  0
  -20.6370  -28.3330   23.2070 C   0  0  0  0  0  3  0  0  0  0  0  0
  -20.7340  -26.9030   22.6260 C   0  0  0  0  0  2  0  0  0  0  0  0
  -19.6270  -26.5870   21.6170 C   0  0  0  0  0  2  0  0  0  0  0  0
  -18.2470  -26.7360   22.2650 C   0  0  0  0  0  2  0  0  0  0  0  0
  -19.2000  -28.8410   23.3730 C   0  0  0  0  0  0  0  0  0  0  0  0
  -18.9890  -30.1040   23.9680 C   0  0  0  0  0  3  0  0  0  0  0  0
  -17.6870  -30.6090   24.1400 C   0  0  0  0  0  3  0  0  0  0  0  0
  -16.5780  -29.8490   23.7270 C   0  0  0  0  0  3  0  0  0  0  0  0
  -16.7740  -28.5880   23.1350 C   0  0  0  0  0  3  0  0  0  0  0  0
  -25.9180  -32.5010   23.8530 C   0  0  0  0  0  3  0  0  0  0  0  0
  -26.4490  -31.7240   25.1190 C   0  0  1  0  0  0  0  0  0  0  0  0
  -25.3660  -31.4800   26.1960 C   0  0  0  0  0  1  0  0  0  0  0  0
  -27.0340  -30.3500   24.7150 C   0  0  0  0  0  1  0  0  0  0  0  0
  -27.6010  -32.5200   25.7790 C   0  0  0  0  0  1  0  0  0  0  0  0
  -25.6090  -33.8980   24.1900 N   0  0  0  0  0  0  0  0  0  0  0  0
  -25.9300  -34.9530   23.4290 C   0  0  0  0  0  0  0  0  0  0  0  0
  -26.5910  -34.8540   22.3910 O   0  0  0  0  0  0  0  0  0  0  0  0
  -25.0220  -34.0490   24.9960 H   0  0  0  0  0  0  0  0  0  0  0  0
  -24.1910  -36.7380   23.0970 C   0  0  0  0  0  1  0  0  0  0  0  0
  -25.4410  -36.3380   23.8940 C   0  0  0  0  0  3  0  0  0  0  0  0
  -27.5810  -37.2320   24.7030 C   0  0  0  0  0  1  0  0  0  0  0  0
  -26.4680  -37.3950   23.7710 N   0  0  0  0  0  0  0  0  0  0  0  0
  -26.0580  -38.3120   23.9220 H   0  0  0  0  0  0  0  0  0  0  0  0
  2  1  1  0
  2  9  1  0
  2 49  1  0
  3  5  1  0
  4  7  1  0
  5 19  1  0
  6  8  1  0
  6  4  2  0
  7  5  2  0
  8  3  2  0
  9  6  1  0
 10  9  1  0
 11 19  1  0
 12 17  1  0
 13 14  1  0
 13 12  1  0
 15 14  1  0
 15 24  1  0
 15 16  1  0
 17 11  1  0
 17 16  1  0
 18 11  2  0
 19 20  1  0
 21 22  2  0
 22 41  1  0
 23 22  1  0
 23 26  1  0
 24 21  1  0
 24 25  1  0
 25 23  2  0
 26 27  1  0
 27 28  2  0
 29 32  1  0
 29 28  1  0
 30 29  2  0
 31 30  1  0
 31 26  2  0
 32 33  1  0
 33 34  1  0
 34 35  2  0
 36 35  1  0
 36 40  1  0
 37 36  2  0
 38 33  2  0
 38 37  1  0
 39 38  1  0
 41 42  1  0
 42 45  1  0
 42 44  1  0
 43 41  2  0
 46 47  1  0
 46 21  1  0
 48 46  1  0
 50 49  1  0
 50 51  1  0
 52 54  1  0
 52 51  1  0
 53 64  2  0
 54 59  1  0
 55 63  1  0
 55 65  1  0
 56 62  1  0
 56 58  1  0
 57 63  1  0
 58 57  1  0
 59 58  2  0
 60 61  1  0
 60 54  2  0
 61 56  2  0
 62 55  1  0
 63 53  1  0
 65 67  2  0
 66 65  1  0
 68 66  1  0
 69 78  2  0
 69 74  1  0
 70 66  1  0
 70 74  1  0
 71 70  1  0
 72 73  1  0
 72 71  1  0
 73 69  1  0
 74 75  2  0
 75 76  1  0
 77 76  2  0
 78 77  1  0
 79 53  1  0
 79 84  1  0
 79 80  1  0
 80 83  1  1
 80 81  1  0
 82 80  1  0
 84 87  1  0
 85 89  1  0
 85 84  1  0
 86 85  2  0
 89 88  1  0
 91 89  1  0
 91 92  1  0
 91 90  1  0
M  ISO  4  11 100  19 100  51 101  52 101
M  END
>  <TORSDO>  (99) 
F 20

>  <SCORE>  (99) 
-13.954

>  <name>  (99) 
98

>  <ligand_id>  (99) 
98

>  <original_smiles>  (99) 
[H]c1nc(N([H])C([H])(C([H])([H])[H])C([H])([H])C([H])([H])C([H])([H])Oc2c([H])c([H])c3c(c2[H])C([H])([H])N(C(=O)C([H])(N([H])C(=O)C([H])(N([H])C([H])([H])[H])C([H])([H])[H])C(C([H])([H])[H])(C([H])([H])[H])C([H])([H])[H])C([H])(C(=O)N([H])C2([H])c4c([H])c([H])c([H])c([H])c4C([H])([H])C([H])([H])C2([H])[H])C3([H])[H])c([H])nc1N([H])C(=O)N1C([H])([H])C([H])([H])C([H])([H])C([H])(n2nc(-c3c([H])c([H])c(Oc4c([H])c([H])c(F)c([H])c4F)c([H])c3[H])c(C(=O)N([H])[H])c2N([H])[H])C1([H])[H]

>  <smiles>  (99) 
[H]c1nc(N([H])C([H])(C([H])([H])[H])C([H])([H])C([H])([H])C([H])([H])Oc2c([H])c([H])c3c(c2[H])C([H])([H])N(C(=O)C([H])(N([H])C(=O)C([H])(N([H])C([H])([H])[H])C([H])([H])[H])C(C([H])([H])[H])(C([H])([H])[H])C([H])([H])[H])C([H])(C(=O)N([H])C2([H])c4c([H])c([H])c([H])c([H])c4C([H])([H])C([H])([H])C2([H])[H])C3([H])[H])c([H])nc1N([H])C(=O)N1C([H])([H])C([H])([H])C([H])([H])C([H])(n2nc(-c3c([H])c([H])c(Oc4c([H])c([H])c(F)c([H])c4F)c([H])c3[H])c(C(=O)N([H])[H])c2N([H])[H])C1([H])[H]

$$$$
