=
 OpenBabel04082316253D

 73 80  0  0  1  0  0  0  0  0999 V2000
  -22.0790   -5.7880  -20.6300 C   0  0  0  0  0  3  0  0  0  0  0  0
  -23.3340   -6.2250  -21.0530 C   0  0  0  0  0  3  0  0  0  0  0  0
  -21.0840   -7.8130  -21.4940 C   0  0  0  0  0  3  0  0  0  0  0  0
  -20.9530   -6.5830  -20.8500 C   0  0  0  0  0  0  0  0  0  0  0  0
  -23.4640   -7.4560  -21.6960 C   0  0  0  0  0  0  0  0  0  0  0  0
  -22.3400   -8.2500  -21.9160 C   0  0  0  0  0  0  0  0  0  0  0  0
  -17.7380   -5.4640  -19.1160 C   0  0  0  0  0  3  0  0  0  0  0  0
  -19.6550   -6.1310  -20.4130 C   0  0  0  0  0  0  0  0  0  0  0  0
  -18.5450   -5.7440  -21.1360 C   0  0  0  0  0  0  0  0  0  0  0  0
  -18.4340   -5.7030  -22.6090 C   0  0  0  0  0  1  0  0  0  0  0  0
  -17.4450   -5.3620  -20.3940 N   0  0  0  0  0  0  0  0  0  0  0  0
  -19.3180   -6.0160  -18.7360 S   0  0  0  0  0  0  0  0  0  0  0  0
  -24.8240   -7.9100  -22.1440 C   0  0  0  0  0  2  0  0  0  0  0  0
  -26.8250   -7.6460  -20.6920 C   0  0  0  0  0  0  0  0  0  0  0  0
  -25.8790   -7.1200  -21.5520 N   0  0  0  0  0  0  0  0  0  0  0  0
  -26.9030   -8.8120  -20.3210 O   0  0  0  0  0  0  0  0  0  0  0  0
  -25.9280   -6.1610  -21.7720 H   0  0  0  0  0  0  0  0  0  0  0  0
  -30.0070   -7.8470  -20.2810 C   0  0  0  0  0  0  0  0  0  0  0  0
  -27.1930   -5.8090  -19.0840 C   0  0  0  0  0  2  0  0  0  0  0  0
  -28.9260   -7.1300  -18.1000 C   0  0  0  0  0  2  0  0  0  0  0  0
  -27.8360   -6.6320  -20.1910 C   0  0  2  0  0  3  0  0  0  0  0  0
  -27.5330   -6.5880  -17.8140 C   0  0  2  0  0  3  0  0  0  0  0  0
  -28.9850   -7.2640  -19.5520 N   0  0  0  0  0  0  0  0  0  0  0  0
  -30.0140   -7.9370  -21.5100 O   0  0  0  0  0  0  0  0  0  0  0  0
  -27.5390   -5.7450  -16.6780 O   0  0  0  0  0  0  0  0  0  0  0  0
  -28.1140   -6.1270  -15.9970 H   0  0  0  0  0  0  0  0  0  0  0  0
  -31.1530   -8.3950  -19.4700 C   0  0  2  0  0  3  0  0  0  0  0  0
  -29.5650  -10.3350  -18.8550 C   0  0  0  0  0  1  0  0  0  0  0  0
  -31.4770  -10.7230  -20.4240 C   0  0  0  0  0  1  0  0  0  0  0  0
  -31.9150  -10.3090  -18.0030 C   0  0  0  0  0  1  0  0  0  0  0  0
  -31.0100   -9.9190  -19.1910 C   0  0  0  0  0  0  0  0  0  0  0  0
  -33.3690   -7.2760  -19.6200 C   0  0  0  0  0  0  0  0  0  0  0  0
  -32.3730   -8.0350  -20.1860 N   0  0  0  0  0  0  0  0  0  0  0  0
  -33.3850   -6.8100  -18.4860 O   0  0  0  0  0  0  0  0  0  0  0  0
  -32.4860   -8.3480  -21.1120 H   0  0  0  0  0  0  0  0  0  0  0  0
  -35.4030   -5.8520  -20.2820 C   0  0  0  0  0  2  0  0  0  0  0  0
  -35.9060   -7.2420  -20.0250 C   0  0  0  0  0  2  0  0  0  0  0  0
  -34.5220   -7.0270  -20.5340 C   0  0  0  0  0  0  0  0  0  0  0  0
  -34.2810   -7.3590  -21.8530 F   0  0  0  0  0  0  0  0  0  0  0  0
  -22.4500   -9.4550  -22.5430 O   0  0  0  0  0  0  0  0  0  0  0  0
  -21.7030  -10.5400  -21.9970 C   0  0  0  0  0  2  0  0  0  0  0  0
  -22.3170  -10.9700  -20.6690 C   0  0  0  0  0  2  0  0  0  0  0  0
  -23.2560  -13.1470  -21.5140 C   0  0  0  0  0  3  0  0  0  0  0  0
  -24.7270  -11.6190  -20.3570 C   0  0  0  0  0  3  0  0  0  0  0  0
  -24.3150  -14.0390  -21.6830 C   0  0  0  0  0  3  0  0  0  0  0  0
  -25.7860  -12.5120  -20.5240 C   0  0  0  0  0  3  0  0  0  0  0  0
  -23.4620  -11.9360  -20.8510 C   0  0  0  0  0  0  0  0  0  0  0  0
  -25.5790  -13.7210  -21.1880 C   0  0  0  0  0  0  0  0  0  0  0  0
  -26.7110  -14.6760  -21.3690 C   0  0  0  0  0  2  0  0  0  0  0  0
  -28.6930  -13.1970  -24.2860 C   0  0  0  0  0  2  0  0  0  0  0  0
  -30.2850  -14.2020  -22.6460 C   0  0  0  0  0  2  0  0  0  0  0  0
  -27.5380  -13.9040  -23.5900 C   0  0  0  0  0  2  0  0  0  0  0  0
  -29.1230  -14.9040  -21.9570 C   0  0  0  0  0  2  0  0  0  0  0  0
  -29.9620  -13.8940  -24.0420 N   0  0  0  0  0  0  0  0  0  0  0  0
  -27.8670  -14.0920  -22.1330 N   0  0  0  0  0  4  0  0  0  0  0  0
  -28.0430  -13.1690  -21.7380 H   0  0  0  0  0  0  0  0  0  0  0  0
  -31.2050  -14.5980  -25.9820 C   0  0  0  0  0  3  0  0  0  0  0  0
  -31.0000  -13.6900  -24.9590 C   0  0  0  0  0  0  0  0  0  0  0  0
  -32.2400  -14.3550  -26.8630 C   0  0  0  0  0  0  0  0  0  0  0  0
  -31.8440  -12.6000  -24.8840 C   0  0  0  0  0  0  0  0  0  0  0  0
  -33.0500  -13.2800  -26.7660 N   0  0  0  0  0  0  0  0  0  0  0  0
  -32.8490  -12.3880  -25.7600 N   0  0  0  0  0  0  0  0  0  0  0  0
  -32.1730  -17.3790  -29.0430 C   0  0  0  0  0  3  0  0  0  0  0  0
  -33.0510  -17.0060  -30.0610 C   0  0  0  0  0  3  0  0  0  0  0  0
  -31.9100  -16.5000  -27.9920 C   0  0  0  0  0  3  0  0  0  0  0  0
  -33.6670  -15.7550  -30.0270 C   0  0  0  0  0  3  0  0  0  0  0  0
  -32.5260  -15.2490  -27.9590 C   0  0  0  0  0  0  0  0  0  0  0  0
  -33.4050  -14.8760  -28.9760 C   0  0  0  0  0  0  0  0  0  0  0  0
  -34.0200  -13.6590  -28.9690 O   0  0  0  0  0  0  0  0  0  0  0  0
  -33.9030  -13.0800  -28.2420 H   0  0  0  0  0  0  0  0  0  0  0  0
  -31.6530  -11.6560  -23.8460 N   0  0  0  0  0  0  0  0  0  0  0  0
  -32.2560  -10.8810  -23.7690 H   0  0  0  0  0  0  0  0  0  0  0  0
  -30.9190  -11.7750  -23.2010 H   0  0  0  0  0  0  0  0  0  0  0  0
  2  1  2  0  0  0  0
  3  4  2  0  0  0  0
  4  1  1  0  0  0  0
  4  8  1  0  0  0  0
  5  2  1  0  0  0  0
  6  5  2  0  0  0  0
  6  3  1  0  0  0  0
  7 12  1  0  0  0  0
  8 12  1  0  0  0  0
  9  8  2  0  0  0  0
  9 11  1  0  0  0  0
 10  9  1  0  0  0  0
 11  7  2  0  0  0  0
 13  5  1  0  0  0  0
 13 15  1  0  0  0  0
 14 16  2  0  0  0  0
 15 14  1  0  0  0  0
 17 15  1  0  0  0  0
 18 23  1  0  0  0  0
 19 22  1  0  0  0  0
 20 22  1  0  0  0  0
 21 14  1  1  0  0  0
 21 23  1  0  0  0  0
 21 19  1  0  0  0  0
 22 25  1  1  0  0  0
 23 20  1  0  0  0  0
 24 18  2  0  0  0  0
 25 26  1  0  0  0  0
 27 18  1  6  0  0  0
 27 31  1  0  0  0  0
 29 31  1  0  0  0  0
 31 28  1  0  0  0  0
 31 30  1  0  0  0  0
 32 34  2  0  0  0  0
 33 32  1  0  0  0  0
 33 27  1  0  0  0  0
 35 33  1  0  0  0  0
 36 37  1  0  0  0  0
 38 36  1  0  0  0  0
 38 37  1  0  0  0  0
 38 32  1  0  0  0  0
 39 38  1  0  0  0  0
 40 41  1  0  0  0  0
 40  6  1  0  0  0  0
 41 42  1  0  0  0  0
 43 47  1  0  0  0  0
 45 43  2  0  0  0  0
 45 48  1  0  0  0  0
 46 44  1  0  0  0  0
 47 42  1  0  0  0  0
 47 44  2  0  0  0  0
 48 46  2  0  0  0  0
 49 48  1  0  0  0  0
 50 54  1  0  0  0  0
 50 52  1  0  0  0  0
 51 53  1  0  0  0  0
 52 55  1  0  0  0  0
 54 51  1  0  0  0  0
 55 53  1  0  0  0  0
 55 56  1  0  0  0  0
 55 49  1  0  0  0  0
 57 58  1  0  0  0  0
 58 60  2  0  0  0  0
 58 54  1  0  0  0  0
 59 61  1  0  0  0  0
 59 57  2  0  0  0  0
 60 71  1  0  0  0  0
 61 62  2  0  0  0  0
 62 60  1  0  0  0  0
 63 65  1  0  0  0  0
 64 66  1  0  0  0  0
 64 63  2  0  0  0  0
 65 67  2  0  0  0  0
 66 68  2  0  0  0  0
 67 59  1  0  0  0  0
 68 69  1  0  0  0  0
 68 67  1  0  0  0  0
 69 70  1  0  0  0  0
 71 72  1  0  0  0  0
 71 73  1  0  0  0  0
M  END
>  <MODEL>
1

>  <REMARK>
 VINA RESULT:   -11.803      0.000      0.000
 INTER + INTRA:         -29.916
 INTER:                 -27.106
 INTRA:                  -2.810
 UNBOUND:                -6.037
  Name = 
  23 active torsions:
  status: ('A' for Active; 'I' for Inactive)
    1  A    between atoms: C_14  and  C_23
    2  A    between atoms: C_15  and  C_22
    3  A    between atoms: C_16  and  C_44
    4  A    between atoms: C_17  and  C_46
    5  A    between atoms: C_18  and  C_45
    6  A    between atoms: C_19  and  N_53
    7  A    between atoms: C_20  and  O_62
    8  A    between atoms: C_21  and  O_64
    9  A    between atoms: C_24  and  C_40
   10  A    between atoms: C_25  and  N_55
   11  A    between atoms: C_26  and  C_37
   12  A    between atoms: C_27  and  C_39
   13  A    between atoms: C_28  and  C_48
   14  A    between atoms: C_38  and  O_63
   15  A    between atoms: C_41  and  C_49
   16  A    between atoms: C_42  and  C_49
   17  A    between atoms: C_43  and  C_49
   18  A    between atoms: C_44  and  C_47
   19  A    between atoms: C_45  and  N_56
   20  A    between atoms: C_46  and  N_58
   21  A    between atoms: C_47  and  O_64
   22  A    between atoms: C_48  and  C_49
   23  A    between atoms: C_48  and  N_57
                            x       y       z     vdW  Elec       q    Type
                         _______ _______ _______ _____ _____    ______ ____

>  <TORSDO>
F 19

$$$$
=
 OpenBabel04082316253D

 73 80  0  0  1  0  0  0  0  0999 V2000
  -27.4820  -12.7190  -21.8840 C   0  0  0  0  0  3  0  0  0  0  0  0
  -26.8770  -11.6360  -21.2460 C   0  0  0  0  0  3  0  0  0  0  0  0
  -27.8280  -11.3630  -23.8540 C   0  0  0  0  0  3  0  0  0  0  0  0
  -27.9580  -12.5820  -23.1890 C   0  0  0  0  0  0  0  0  0  0  0  0
  -26.7470  -10.4180  -21.9120 C   0  0  0  0  0  0  0  0  0  0  0  0
  -27.2230  -10.2810  -23.2160 C   0  0  0  0  0  0  0  0  0  0  0  0
  -29.0810  -15.8470  -24.8240 C   0  0  0  0  0  3  0  0  0  0  0  0
  -28.5840  -13.7020  -23.8490 C   0  0  0  0  0  0  0  0  0  0  0  0
  -29.8370  -13.8310  -24.4120 C   0  0  0  0  0  0  0  0  0  0  0  0
  -30.8800  -12.7850  -24.4690 C   0  0  0  0  0  1  0  0  0  0  0  0
  -30.1240  -15.0600  -24.9720 N   0  0  0  0  0  0  0  0  0  0  0  0
  -27.7220  -15.1750  -24.0210 S   0  0  0  0  0  0  0  0  0  0  0  0
  -26.0930   -9.2630  -21.2090 C   0  0  0  0  0  2  0  0  0  0  0  0
  -26.7240   -6.9940  -20.4120 C   0  0  0  0  0  0  0  0  0  0  0  0
  -27.0590   -8.2910  -20.7530 N   0  0  0  0  0  0  0  0  0  0  0  0
  -25.6020   -6.5000  -20.4460 O   0  0  0  0  0  0  0  0  0  0  0  0
  -28.0030   -8.5650  -20.6810 H   0  0  0  0  0  0  0  0  0  0  0  0
  -29.8720   -7.6380  -20.2790 C   0  0  0  0  0  0  0  0  0  0  0  0
  -27.4650   -5.2990  -18.7780 C   0  0  0  0  0  2  0  0  0  0  0  0
  -29.0730   -6.8840  -17.9900 C   0  0  0  0  0  2  0  0  0  0  0  0
  -27.9010   -6.1490  -19.9630 C   0  0  2  0  0  3  0  0  0  0  0  0
  -27.7950   -6.1740  -17.5690 C   0  0  2  0  0  3  0  0  0  0  0  0
  -28.9990   -6.9570  -19.4460 N   0  0  0  0  0  0  0  0  0  0  0  0
  -29.7690   -7.6710  -21.5060 O   0  0  0  0  0  0  0  0  0  0  0  0
  -28.0060   -5.3930  -16.4090 O   0  0  0  0  0  0  0  0  0  0  0  0
  -27.8150   -5.9260  -15.6220 H   0  0  0  0  0  0  0  0  0  0  0  0
  -30.9920   -8.3710  -19.5860 C   0  0  2  0  0  3  0  0  0  0  0  0
  -29.4270  -10.2960  -18.8720 C   0  0  0  0  0  1  0  0  0  0  0  0
  -30.7710  -10.4810  -20.9760 C   0  0  0  0  0  1  0  0  0  0  0  0
  -31.9090  -10.5770  -18.7580 C   0  0  0  0  0  1  0  0  0  0  0  0
  -30.7600   -9.9080  -19.5420 C   0  0  0  0  0  0  0  0  0  0  0  0
  -33.2120   -7.2510  -19.6440 C   0  0  0  0  0  0  0  0  0  0  0  0
  -32.2220   -7.9750  -20.2650 N   0  0  0  0  0  0  0  0  0  0  0  0
  -33.2130   -6.8480  -18.4870 O   0  0  0  0  0  0  0  0  0  0  0  0
  -32.3480   -8.2380  -21.2050 H   0  0  0  0  0  0  0  0  0  0  0  0
  -35.2720   -5.8150  -20.1860 C   0  0  0  0  0  2  0  0  0  0  0  0
  -35.7530   -7.2260  -20.0210 C   0  0  0  0  0  2  0  0  0  0  0  0
  -34.3780   -6.9570  -20.5280 C   0  0  0  0  0  0  0  0  0  0  0  0
  -34.1470   -7.1930  -21.8680 F   0  0  0  0  0  0  0  0  0  0  0  0
  -27.1030   -9.0970  -23.8800 O   0  0  0  0  0  0  0  0  0  0  0  0
  -26.6890   -9.1580  -25.2430 C   0  0  0  0  0  2  0  0  0  0  0  0
  -25.3000   -8.5460  -25.3860 C   0  0  0  0  0  2  0  0  0  0  0  0
  -23.4240   -8.7310  -23.7190 C   0  0  0  0  0  3  0  0  0  0  0  0
  -24.0820  -10.7020  -24.9500 C   0  0  0  0  0  3  0  0  0  0  0  0
  -22.4460   -9.4710  -23.0550 C   0  0  0  0  0  3  0  0  0  0  0  0
  -23.1040  -11.4440  -24.2850 C   0  0  0  0  0  3  0  0  0  0  0  0
  -24.2420   -9.3460  -24.6670 C   0  0  0  0  0  0  0  0  0  0  0  0
  -22.2870  -10.8270  -23.3380 C   0  0  0  0  0  0  0  0  0  0  0  0
  -21.2400  -11.6180  -22.6280 C   0  0  0  0  0  2  0  0  0  0  0  0
  -22.8740  -12.2340  -19.2260 C   0  0  0  0  0  2  0  0  0  0  0  0
  -23.0380  -14.3150  -20.5960 C   0  0  0  0  0  2  0  0  0  0  0  0
  -22.4770  -11.4520  -20.4700 C   0  0  0  0  0  2  0  0  0  0  0  0
  -22.6380  -13.5230  -21.8340 C   0  0  0  0  0  2  0  0  0  0  0  0
  -23.6320  -13.4400  -19.5810 N   0  0  0  0  0  0  0  0  0  0  0  0
  -21.7650  -12.3650  -21.4320 N   0  0  0  0  0  4  0  0  0  0  0  0
  -20.9540  -12.7480  -20.9470 H   0  0  0  0  0  0  0  0  0  0  0  0
  -25.8360  -13.8070  -18.6800 C   0  0  0  0  0  3  0  0  0  0  0  0
  -24.4670  -13.9920  -18.6030 C   0  0  0  0  0  0  0  0  0  0  0  0
  -26.6210  -14.3690  -17.6920 C   0  0  0  0  0  0  0  0  0  0  0  0
  -23.9740  -14.7280  -17.5430 C   0  0  0  0  0  0  0  0  0  0  0  0
  -26.1110  -15.0840  -16.6680 N   0  0  0  0  0  0  0  0  0  0  0  0
  -24.7650  -15.2670  -16.5920 N   0  0  0  0  0  0  0  0  0  0  0  0
  -30.1520  -14.3660  -18.8880 C   0  0  0  0  0  3  0  0  0  0  0  0
  -30.8330  -13.9600  -17.7400 C   0  0  0  0  0  3  0  0  0  0  0  0
  -28.7640  -14.4980  -18.8660 C   0  0  0  0  0  3  0  0  0  0  0  0
  -30.1250  -13.6880  -16.5690 C   0  0  0  0  0  3  0  0  0  0  0  0
  -28.0570  -14.2260  -17.6940 C   0  0  0  0  0  0  0  0  0  0  0  0
  -28.7370  -13.8220  -16.5450 C   0  0  0  0  0  0  0  0  0  0  0  0
  -28.0700  -13.5480  -15.3880 O   0  0  0  0  0  0  0  0  0  0  0  0
  -28.5260  -13.1630  -14.6650 H   0  0  0  0  0  0  0  0  0  0  0  0
  -22.5770  -14.9310  -17.4430 N   0  0  0  0  0  0  0  0  0  0  0  0
  -22.0760  -15.2940  -18.2090 H   0  0  0  0  0  0  0  0  0  0  0  0
  -22.1060  -14.7100  -16.6070 H   0  0  0  0  0  0  0  0  0  0  0  0
  1  2  1  0  0  0  0
  3  6  2  0  0  0  0
  3  4  1  0  0  0  0
  4  1  2  0  0  0  0
  5  2  2  0  0  0  0
  5 13  1  0  0  0  0
  6  5  1  0  0  0  0
  7 12  1  0  0  0  0
  8  4  1  0  0  0  0
  9  8  2  0  0  0  0
 10  9  1  0  0  0  0
 11  7  2  0  0  0  0
 11  9  1  0  0  0  0
 12  8  1  0  0  0  0
 13 15  1  0  0  0  0
 15 17  1  0  0  0  0
 15 14  1  0  0  0  0
 16 14  2  0  0  0  0
 18 23  1  0  0  0  0
 19 22  1  0  0  0  0
 20 22  1  0  0  0  0
 21 14  1  1  0  0  0
 21 23  1  0  0  0  0
 21 19  1  0  0  0  0
 22 25  1  1  0  0  0
 23 20  1  0  0  0  0
 24 18  2  0  0  0  0
 25 26  1  0  0  0  0
 27 18  1  6  0  0  0
 27 31  1  0  0  0  0
 29 31  1  0  0  0  0
 31 28  1  0  0  0  0
 31 30  1  0  0  0  0
 32 34  2  0  0  0  0
 33 32  1  0  0  0  0
 33 27  1  0  0  0  0
 35 33  1  0  0  0  0
 36 37  1  0  0  0  0
 38 36  1  0  0  0  0
 38 37  1  0  0  0  0
 38 32  1  0  0  0  0
 39 38  1  0  0  0  0
 40  6  1  0  0  0  0
 41 40  1  0  0  0  0
 42 41  1  0  0  0  0
 42 47  1  0  0  0  0
 43 45  1  0  0  0  0
 44 47  1  0  0  0  0
 44 46  2  0  0  0  0
 46 48  1  0  0  0  0
 47 43  2  0  0  0  0
 48 45  2  0  0  0  0
 48 49  1  0  0  0  0
 49 55  1  0  0  0  0
 51 54  1  0  0  0  0
 52 50  1  0  0  0  0
 53 55  1  0  0  0  0
 53 51  1  0  0  0  0
 54 50  1  0  0  0  0
 54 58  1  0  0  0  0
 55 56  1  0  0  0  0
 55 52  1  0  0  0  0
 57 58  2  0  0  0  0
 57 59  1  0  0  0  0
 58 60  1  0  0  0  0
 59 61  2  0  0  0  0
 60 71  1  0  0  0  0
 60 62  2  0  0  0  0
 61 62  1  0  0  0  0
 63 65  2  0  0  0  0
 63 64  1  0  0  0  0
 64 66  2  0  0  0  0
 65 67  1  0  0  0  0
 66 68  1  0  0  0  0
 67 59  1  0  0  0  0
 67 68  2  0  0  0  0
 68 69  1  0  0  0  0
 69 70  1  0  0  0  0
 71 73  1  0  0  0  0
 72 71  1  0  0  0  0
M  END
>  <MODEL>
2

>  <REMARK>
 VINA RESULT:   -10.315      3.692      7.942
 INTER + INTRA:         -26.905
 INTER:                 -20.868
 INTRA:                  -6.037
 UNBOUND:                -6.037
  Name = 
  23 active torsions:
  status: ('A' for Active; 'I' for Inactive)
    1  A    between atoms: C_14  and  C_23
    2  A    between atoms: C_15  and  C_22
    3  A    between atoms: C_16  and  C_44
    4  A    between atoms: C_17  and  C_46
    5  A    between atoms: C_18  and  C_45
    6  A    between atoms: C_19  and  N_53
    7  A    between atoms: C_20  and  O_62
    8  A    between atoms: C_21  and  O_64
    9  A    between atoms: C_24  and  C_40
   10  A    between atoms: C_25  and  N_55
   11  A    between atoms: C_26  and  C_37
   12  A    between atoms: C_27  and  C_39
   13  A    between atoms: C_28  and  C_48
   14  A    between atoms: C_38  and  O_63
   15  A    between atoms: C_41  and  C_49
   16  A    between atoms: C_42  and  C_49
   17  A    between atoms: C_43  and  C_49
   18  A    between atoms: C_44  and  C_47
   19  A    between atoms: C_45  and  N_56
   20  A    between atoms: C_46  and  N_58
   21  A    between atoms: C_47  and  O_64
   22  A    between atoms: C_48  and  C_49
   23  A    between atoms: C_48  and  N_57
                            x       y       z     vdW  Elec       q    Type
                         _______ _______ _______ _____ _____    ______ ____

>  <TORSDO>
F 19

$$$$
