MODEL 1
REMARK VINA RESULT:   -11.803      0.000      0.000
REMARK INTER + INTRA:         -29.916
REMARK INTER:                 -27.106
REMARK INTRA:                  -2.810
REMARK UNBOUND:                -6.037
REMARK  Name = 
REMARK  23 active torsions:
REMARK  status: ('A' for Active; 'I' for Inactive)
REMARK    1  A    between atoms: C_14  and  C_23
REMARK    2  A    between atoms: C_15  and  C_22
REMARK    3  A    between atoms: C_16  and  C_44
REMARK    4  A    between atoms: C_17  and  C_46
REMARK    5  A    between atoms: C_18  and  C_45
REMARK    6  A    between atoms: C_19  and  N_53
REMARK    7  A    between atoms: C_20  and  O_62
REMARK    8  A    between atoms: C_21  and  O_64
REMARK    9  A    between atoms: C_24  and  C_40
REMARK   10  A    between atoms: C_25  and  N_55
REMARK   11  A    between atoms: C_26  and  C_37
REMARK   12  A    between atoms: C_27  and  C_39
REMARK   13  A    between atoms: C_28  and  C_48
REMARK   14  A    between atoms: C_38  and  O_63
REMARK   15  A    between atoms: C_41  and  C_49
REMARK   16  A    between atoms: C_42  and  C_49
REMARK   17  A    between atoms: C_43  and  C_49
REMARK   18  A    between atoms: C_44  and  C_47
REMARK   19  A    between atoms: C_45  and  N_56
REMARK   20  A    between atoms: C_46  and  N_58
REMARK   21  A    between atoms: C_47  and  O_64
REMARK   22  A    between atoms: C_48  and  C_49
REMARK   23  A    between atoms: C_48  and  N_57
REMARK                            x       y       z     vdW  Elec       q    Type
REMARK                         _______ _______ _______ _____ _____    ______ ____
ROOT
ATOM      1  C   UNL     1     -22.079  -5.788 -20.630  0.00  0.00    +0.000 A 
ATOM      2  C   UNL     1     -23.334  -6.225 -21.053  0.00  0.00    +0.000 A 
ATOM      3  C   UNL     1     -21.084  -7.813 -21.494  0.00  0.00    +0.000 A 
ATOM      4  C   UNL     1     -20.953  -6.583 -20.850  0.00  0.00    +0.000 A 
ATOM      5  C   UNL     1     -23.464  -7.456 -21.696  0.00  0.00    +0.000 A 
ATOM      6  C   UNL     1     -22.340  -8.250 -21.916  0.00  0.00    +0.000 A 
ENDROOT
BRANCH   4   8
ATOM      7  C   UNL     1     -17.738  -5.464 -19.116  0.00  0.00    +0.000 A 
ATOM      8  C   UNL     1     -19.655  -6.131 -20.413  0.00  0.00    +0.000 A 
ATOM      9  C   UNL     1     -18.545  -5.744 -21.136  0.00  0.00    +0.000 A 
ATOM     10  C   UNL     1     -18.434  -5.703 -22.609  0.00  0.00    +0.000 C 
ATOM     11  N   UNL     1     -17.445  -5.362 -20.394  0.00  0.00    +0.000 NA
ATOM     12  S   UNL     1     -19.318  -6.016 -18.736  0.00  0.00    +0.000 S 
ENDBRANCH   4   8
BRANCH   5  13
ATOM     13  C   UNL     1     -24.824  -7.910 -22.144  0.00  0.00    +0.000 C 
BRANCH  13  15
ATOM     14  C   UNL     1     -26.825  -7.646 -20.692  0.00  0.00    +0.000 C 
ATOM     15  N   UNL     1     -25.879  -7.120 -21.552  0.00  0.00    +0.000 N 
ATOM     16  O   UNL     1     -26.903  -8.812 -20.321  0.00  0.00    +0.000 OA
ATOM     17  H   UNL     1     -25.928  -6.161 -21.772  0.00  0.00    +0.000 HD
BRANCH  14  21
ATOM     18  C   UNL     1     -30.007  -7.847 -20.281  0.00  0.00    +0.000 C 
ATOM     19  C   UNL     1     -27.193  -5.809 -19.084  0.00  0.00    +0.000 C 
ATOM     20  C   UNL     1     -28.926  -7.130 -18.100  0.00  0.00    +0.000 C 
ATOM     21  C   UNL     1     -27.836  -6.632 -20.191  0.00  0.00    +0.000 C 
ATOM     22  C   UNL     1     -27.533  -6.588 -17.814  0.00  0.00    +0.000 C 
ATOM     23  N   UNL     1     -28.985  -7.264 -19.552  0.00  0.00    +0.000 N 
ATOM     24  O   UNL     1     -30.014  -7.937 -21.510  0.00  0.00    +0.000 OA
BRANCH  22  25
ATOM     25  O   UNL     1     -27.539  -5.745 -16.678  0.00  0.00    +0.000 OA
ATOM     26  H   UNL     1     -28.114  -6.127 -15.997  0.00  0.00    +0.000 HD
ENDBRANCH  22  25
BRANCH  18  27
ATOM     27  C   UNL     1     -31.153  -8.395 -19.470  0.00  0.00    +0.000 C 
BRANCH  27  31
ATOM     28  C   UNL     1     -29.565 -10.335 -18.855  0.00  0.00    +0.000 C 
ATOM     29  C   UNL     1     -31.477 -10.723 -20.424  0.00  0.00    +0.000 C 
ATOM     30  C   UNL     1     -31.915 -10.309 -18.003  0.00  0.00    +0.000 C 
ATOM     31  C   UNL     1     -31.010  -9.919 -19.191  0.00  0.00    +0.000 C 
ENDBRANCH  27  31
BRANCH  27  33
ATOM     32  C   UNL     1     -33.369  -7.276 -19.620  0.00  0.00    +0.000 C 
ATOM     33  N   UNL     1     -32.373  -8.035 -20.186  0.00  0.00    +0.000 N 
ATOM     34  O   UNL     1     -33.385  -6.810 -18.486  0.00  0.00    +0.000 OA
ATOM     35  H   UNL     1     -32.486  -8.348 -21.112  0.00  0.00    +0.000 HD
BRANCH  32  38
ATOM     36  C   UNL     1     -35.403  -5.852 -20.282  0.00  0.00    +0.000 C 
ATOM     37  C   UNL     1     -35.906  -7.242 -20.025  0.00  0.00    +0.000 C 
ATOM     38  C   UNL     1     -34.522  -7.027 -20.534  0.00  0.00    +0.000 C 
ATOM     39  F   UNL     1     -34.281  -7.359 -21.853  0.00  0.00    +0.000 F 
ENDBRANCH  32  38
ENDBRANCH  27  33
ENDBRANCH  18  27
ENDBRANCH  14  21
ENDBRANCH  13  15
ENDBRANCH   5  13
BRANCH   6  40
ATOM     40  O   UNL     1     -22.450  -9.455 -22.543  0.00  0.00    +0.000 OA
BRANCH  40  41
ATOM     41  C   UNL     1     -21.703 -10.540 -21.997  0.00  0.00    +0.000 C 
BRANCH  41  42
ATOM     42  C   UNL     1     -22.317 -10.970 -20.669  0.00  0.00    +0.000 C 
BRANCH  42  47
ATOM     43  C   UNL     1     -23.256 -13.147 -21.514  0.00  0.00    +0.000 A 
ATOM     44  C   UNL     1     -24.727 -11.619 -20.357  0.00  0.00    +0.000 A 
ATOM     45  C   UNL     1     -24.315 -14.039 -21.683  0.00  0.00    +0.000 A 
ATOM     46  C   UNL     1     -25.786 -12.512 -20.524  0.00  0.00    +0.000 A 
ATOM     47  C   UNL     1     -23.462 -11.936 -20.851  0.00  0.00    +0.000 A 
ATOM     48  C   UNL     1     -25.579 -13.721 -21.188  0.00  0.00    +0.000 A 
BRANCH  48  49
ATOM     49  C   UNL     1     -26.711 -14.676 -21.369  0.00  0.00    +0.000 C 
BRANCH  49  55
ATOM     50  C   UNL     1     -28.693 -13.197 -24.286  0.00  0.00    +0.000 C 
ATOM     51  C   UNL     1     -30.285 -14.202 -22.646  0.00  0.00    +0.000 C 
ATOM     52  C   UNL     1     -27.538 -13.904 -23.590  0.00  0.00    +0.000 C 
ATOM     53  C   UNL     1     -29.123 -14.904 -21.957  0.00  0.00    +0.000 C 
ATOM     54  N   UNL     1     -29.962 -13.894 -24.042  0.00  0.00    +0.000 N 
ATOM     55  N   UNL     1     -27.867 -14.092 -22.133  0.00  0.00    +0.000 N 
ATOM     56  H   UNL     1     -28.043 -13.169 -21.738  0.00  0.00    +0.000 HD
BRANCH  54  58
ATOM     57  C   UNL     1     -31.205 -14.598 -25.982  0.00  0.00    +0.000 A 
ATOM     58  C   UNL     1     -31.000 -13.690 -24.959  0.00  0.00    +0.000 A 
ATOM     59  C   UNL     1     -32.240 -14.355 -26.863  0.00  0.00    +0.000 A 
ATOM     60  C   UNL     1     -31.844 -12.600 -24.884  0.00  0.00    +0.000 A 
ATOM     61  N   UNL     1     -33.050 -13.280 -26.766  0.00  0.00    +0.000 NA
ATOM     62  N   UNL     1     -32.849 -12.388 -25.760  0.00  0.00    +0.000 NA
BRANCH  59  67
ATOM     63  C   UNL     1     -32.173 -17.379 -29.043  0.00  0.00    +0.000 A 
ATOM     64  C   UNL     1     -33.051 -17.006 -30.061  0.00  0.00    +0.000 A 
ATOM     65  C   UNL     1     -31.910 -16.500 -27.992  0.00  0.00    +0.000 A 
ATOM     66  C   UNL     1     -33.667 -15.755 -30.027  0.00  0.00    +0.000 A 
ATOM     67  C   UNL     1     -32.526 -15.249 -27.959  0.00  0.00    +0.000 A 
ATOM     68  C   UNL     1     -33.405 -14.876 -28.976  0.00  0.00    +0.000 A 
BRANCH  68  69
ATOM     69  O   UNL     1     -34.020 -13.659 -28.969  0.00  0.00    +0.000 OA
ATOM     70  H   UNL     1     -33.903 -13.080 -28.242  0.00  0.00    +0.000 HD
ENDBRANCH  68  69
ENDBRANCH  59  67
BRANCH  60  71
ATOM     71  N   UNL     1     -31.653 -11.656 -23.846  0.00  0.00    +0.000 N 
ATOM     72  H   UNL     1     -32.256 -10.881 -23.769  0.00  0.00    +0.000 HD
ATOM     73  H   UNL     1     -30.919 -11.775 -23.201  0.00  0.00    +0.000 HD
ENDBRANCH  60  71
ENDBRANCH  54  58
ENDBRANCH  49  55
ENDBRANCH  48  49
ENDBRANCH  42  47
ENDBRANCH  41  42
ENDBRANCH  40  41
ENDBRANCH   6  40
TORSDOF 19
ENDMDL
MODEL 2
REMARK VINA RESULT:   -10.315      3.692      7.942
REMARK INTER + INTRA:         -26.905
REMARK INTER:                 -20.868
REMARK INTRA:                  -6.037
REMARK UNBOUND:                -6.037
REMARK  Name = 
REMARK  23 active torsions:
REMARK  status: ('A' for Active; 'I' for Inactive)
REMARK    1  A    between atoms: C_14  and  C_23
REMARK    2  A    between atoms: C_15  and  C_22
REMARK    3  A    between atoms: C_16  and  C_44
REMARK    4  A    between atoms: C_17  and  C_46
REMARK    5  A    between atoms: C_18  and  C_45
REMARK    6  A    between atoms: C_19  and  N_53
REMARK    7  A    between atoms: C_20  and  O_62
REMARK    8  A    between atoms: C_21  and  O_64
REMARK    9  A    between atoms: C_24  and  C_40
REMARK   10  A    between atoms: C_25  and  N_55
REMARK   11  A    between atoms: C_26  and  C_37
REMARK   12  A    between atoms: C_27  and  C_39
REMARK   13  A    between atoms: C_28  and  C_48
REMARK   14  A    between atoms: C_38  and  O_63
REMARK   15  A    between atoms: C_41  and  C_49
REMARK   16  A    between atoms: C_42  and  C_49
REMARK   17  A    between atoms: C_43  and  C_49
REMARK   18  A    between atoms: C_44  and  C_47
REMARK   19  A    between atoms: C_45  and  N_56
REMARK   20  A    between atoms: C_46  and  N_58
REMARK   21  A    between atoms: C_47  and  O_64
REMARK   22  A    between atoms: C_48  and  C_49
REMARK   23  A    between atoms: C_48  and  N_57
REMARK                            x       y       z     vdW  Elec       q    Type
REMARK                         _______ _______ _______ _____ _____    ______ ____
ROOT
ATOM      1  C   UNL     1     -27.482 -12.719 -21.884  0.00  0.00    +0.000 A 
ATOM      2  C   UNL     1     -26.877 -11.636 -21.246  0.00  0.00    +0.000 A 
ATOM      3  C   UNL     1     -27.828 -11.363 -23.854  0.00  0.00    +0.000 A 
ATOM      4  C   UNL     1     -27.958 -12.582 -23.189  0.00  0.00    +0.000 A 
ATOM      5  C   UNL     1     -26.747 -10.418 -21.912  0.00  0.00    +0.000 A 
ATOM      6  C   UNL     1     -27.223 -10.281 -23.216  0.00  0.00    +0.000 A 
ENDROOT
BRANCH   4   8
ATOM      7  C   UNL     1     -29.081 -15.847 -24.824  0.00  0.00    +0.000 A 
ATOM      8  C   UNL     1     -28.584 -13.702 -23.849  0.00  0.00    +0.000 A 
ATOM      9  C   UNL     1     -29.837 -13.831 -24.412  0.00  0.00    +0.000 A 
ATOM     10  C   UNL     1     -30.880 -12.785 -24.469  0.00  0.00    +0.000 C 
ATOM     11  N   UNL     1     -30.124 -15.060 -24.972  0.00  0.00    +0.000 NA
ATOM     12  S   UNL     1     -27.722 -15.175 -24.021  0.00  0.00    +0.000 S 
ENDBRANCH   4   8
BRANCH   5  13
ATOM     13  C   UNL     1     -26.093  -9.263 -21.209  0.00  0.00    +0.000 C 
BRANCH  13  15
ATOM     14  C   UNL     1     -26.724  -6.994 -20.412  0.00  0.00    +0.000 C 
ATOM     15  N   UNL     1     -27.059  -8.291 -20.753  0.00  0.00    +0.000 N 
ATOM     16  O   UNL     1     -25.602  -6.500 -20.446  0.00  0.00    +0.000 OA
ATOM     17  H   UNL     1     -28.003  -8.565 -20.681  0.00  0.00    +0.000 HD
BRANCH  14  21
ATOM     18  C   UNL     1     -29.872  -7.638 -20.279  0.00  0.00    +0.000 C 
ATOM     19  C   UNL     1     -27.465  -5.299 -18.778  0.00  0.00    +0.000 C 
ATOM     20  C   UNL     1     -29.073  -6.884 -17.990  0.00  0.00    +0.000 C 
ATOM     21  C   UNL     1     -27.901  -6.149 -19.963  0.00  0.00    +0.000 C 
ATOM     22  C   UNL     1     -27.795  -6.174 -17.569  0.00  0.00    +0.000 C 
ATOM     23  N   UNL     1     -28.999  -6.957 -19.446  0.00  0.00    +0.000 N 
ATOM     24  O   UNL     1     -29.769  -7.671 -21.506  0.00  0.00    +0.000 OA
BRANCH  22  25
ATOM     25  O   UNL     1     -28.006  -5.393 -16.409  0.00  0.00    +0.000 OA
ATOM     26  H   UNL     1     -27.815  -5.926 -15.622  0.00  0.00    +0.000 HD
ENDBRANCH  22  25
BRANCH  18  27
ATOM     27  C   UNL     1     -30.992  -8.371 -19.586  0.00  0.00    +0.000 C 
BRANCH  27  31
ATOM     28  C   UNL     1     -29.427 -10.296 -18.872  0.00  0.00    +0.000 C 
ATOM     29  C   UNL     1     -30.771 -10.481 -20.976  0.00  0.00    +0.000 C 
ATOM     30  C   UNL     1     -31.909 -10.577 -18.758  0.00  0.00    +0.000 C 
ATOM     31  C   UNL     1     -30.760  -9.908 -19.542  0.00  0.00    +0.000 C 
ENDBRANCH  27  31
BRANCH  27  33
ATOM     32  C   UNL     1     -33.212  -7.251 -19.644  0.00  0.00    +0.000 C 
ATOM     33  N   UNL     1     -32.222  -7.975 -20.265  0.00  0.00    +0.000 N 
ATOM     34  O   UNL     1     -33.213  -6.848 -18.487  0.00  0.00    +0.000 OA
ATOM     35  H   UNL     1     -32.348  -8.238 -21.205  0.00  0.00    +0.000 HD
BRANCH  32  38
ATOM     36  C   UNL     1     -35.272  -5.815 -20.186  0.00  0.00    +0.000 C 
ATOM     37  C   UNL     1     -35.753  -7.226 -20.021  0.00  0.00    +0.000 C 
ATOM     38  C   UNL     1     -34.378  -6.957 -20.528  0.00  0.00    +0.000 C 
ATOM     39  F   UNL     1     -34.147  -7.193 -21.868  0.00  0.00    +0.000 F 
ENDBRANCH  32  38
ENDBRANCH  27  33
ENDBRANCH  18  27
ENDBRANCH  14  21
ENDBRANCH  13  15
ENDBRANCH   5  13
BRANCH   6  40
ATOM     40  O   UNL     1     -27.103  -9.097 -23.880  0.00  0.00    +0.000 OA
BRANCH  40  41
ATOM     41  C   UNL     1     -26.689  -9.158 -25.243  0.00  0.00    +0.000 C 
BRANCH  41  42
ATOM     42  C   UNL     1     -25.300  -8.546 -25.386  0.00  0.00    +0.000 C 
BRANCH  42  47
ATOM     43  C   UNL     1     -23.424  -8.731 -23.719  0.00  0.00    +0.000 A 
ATOM     44  C   UNL     1     -24.082 -10.702 -24.950  0.00  0.00    +0.000 A 
ATOM     45  C   UNL     1     -22.446  -9.471 -23.055  0.00  0.00    +0.000 A 
ATOM     46  C   UNL     1     -23.104 -11.444 -24.285  0.00  0.00    +0.000 A 
ATOM     47  C   UNL     1     -24.242  -9.346 -24.667  0.00  0.00    +0.000 A 
ATOM     48  C   UNL     1     -22.287 -10.827 -23.338  0.00  0.00    +0.000 A 
BRANCH  48  49
ATOM     49  C   UNL     1     -21.240 -11.618 -22.628  0.00  0.00    +0.000 C 
BRANCH  49  55
ATOM     50  C   UNL     1     -22.874 -12.234 -19.226  0.00  0.00    +0.000 C 
ATOM     51  C   UNL     1     -23.038 -14.315 -20.596  0.00  0.00    +0.000 C 
ATOM     52  C   UNL     1     -22.477 -11.452 -20.470  0.00  0.00    +0.000 C 
ATOM     53  C   UNL     1     -22.638 -13.523 -21.834  0.00  0.00    +0.000 C 
ATOM     54  N   UNL     1     -23.632 -13.440 -19.581  0.00  0.00    +0.000 N 
ATOM     55  N   UNL     1     -21.765 -12.365 -21.432  0.00  0.00    +0.000 N 
ATOM     56  H   UNL     1     -20.954 -12.748 -20.947  0.00  0.00    +0.000 HD
BRANCH  54  58
ATOM     57  C   UNL     1     -25.836 -13.807 -18.680  0.00  0.00    +0.000 A 
ATOM     58  C   UNL     1     -24.467 -13.992 -18.603  0.00  0.00    +0.000 A 
ATOM     59  C   UNL     1     -26.621 -14.369 -17.692  0.00  0.00    +0.000 A 
ATOM     60  C   UNL     1     -23.974 -14.728 -17.543  0.00  0.00    +0.000 A 
ATOM     61  N   UNL     1     -26.111 -15.084 -16.668  0.00  0.00    +0.000 NA
ATOM     62  N   UNL     1     -24.765 -15.267 -16.592  0.00  0.00    +0.000 NA
BRANCH  59  67
ATOM     63  C   UNL     1     -30.152 -14.366 -18.888  0.00  0.00    +0.000 A 
ATOM     64  C   UNL     1     -30.833 -13.960 -17.740  0.00  0.00    +0.000 A 
ATOM     65  C   UNL     1     -28.764 -14.498 -18.866  0.00  0.00    +0.000 A 
ATOM     66  C   UNL     1     -30.125 -13.688 -16.569  0.00  0.00    +0.000 A 
ATOM     67  C   UNL     1     -28.057 -14.226 -17.694  0.00  0.00    +0.000 A 
ATOM     68  C   UNL     1     -28.737 -13.822 -16.545  0.00  0.00    +0.000 A 
BRANCH  68  69
ATOM     69  O   UNL     1     -28.070 -13.548 -15.388  0.00  0.00    +0.000 OA
ATOM     70  H   UNL     1     -28.526 -13.163 -14.665  0.00  0.00    +0.000 HD
ENDBRANCH  68  69
ENDBRANCH  59  67
BRANCH  60  71
ATOM     71  N   UNL     1     -22.577 -14.931 -17.443  0.00  0.00    +0.000 N 
ATOM     72  H   UNL     1     -22.076 -15.294 -18.209  0.00  0.00    +0.000 HD
ATOM     73  H   UNL     1     -22.106 -14.710 -16.607  0.00  0.00    +0.000 HD
ENDBRANCH  60  71
ENDBRANCH  54  58
ENDBRANCH  49  55
ENDBRANCH  48  49
ENDBRANCH  42  47
ENDBRANCH  41  42
ENDBRANCH  40  41
ENDBRANCH   6  40
TORSDOF 19
ENDMDL
