MODEL 1
REMARK VINA RESULT:   -13.534      0.000      0.000
REMARK INTER + INTRA:         -29.406
REMARK INTER:                 -27.233
REMARK INTRA:                  -2.173
REMARK UNBOUND:                -2.025
REMARK  Name = ligand
REMARK  23 active torsions:
REMARK  status: ('A' for Active; 'I' for Inactive)
REMARK    1  A    between atoms: N_1  and  C_15
REMARK    2  A    between atoms: C_2  and  C_15
REMARK    3  A    between atoms: C_3  and  C_16
REMARK    4  A    between atoms: C_4  and  C_16
REMARK    5  A    between atoms: C_5  and  C_16
REMARK    6  A    between atoms: C_6  and  C_8
REMARK    7  A    between atoms: C_9  and  O_37
REMARK    8  A    between atoms: C_11  and  C_27
REMARK    9  A    between atoms: C_13  and  C_30
REMARK   10  A    between atoms: C_15  and  C_16
REMARK   11  A    between atoms: C_20  and  O_21
REMARK   12  A    between atoms: N_23  and  C_24
REMARK   13  A    between atoms: C_24  and  C_25
REMARK   14  A    between atoms: C_31  and  C_32
REMARK   15  A    between atoms: O_37  and  C_38
REMARK   16  A    between atoms: C_38  and  C_39
REMARK   17  A    between atoms: C_39  and  C_61
REMARK   18  A    between atoms: C_40  and  N_41
REMARK   19  A    between atoms: C_40  and  C_64
REMARK   20  A    between atoms: N_44  and  C_47
REMARK   21  A    between atoms: C_49  and  C_54
REMARK   22  A    between atoms: C_52  and  N_53
REMARK   23  A    between atoms: C_55  and  O_60
REMARK                            x       y       z     vdW  Elec       q    Type
REMARK                         _______ _______ _______ _____ _____    ______ ____
ROOT
ATOM      1  C   UNL     1     -22.345  -7.439 -22.315  0.00  0.00    +0.000 A 
ATOM      2  C   UNL     1     -21.016  -7.175 -21.938  0.00  0.00    +0.000 A 
ATOM      3  C   UNL     1     -20.720  -6.294 -20.894  0.00  0.00    +0.000 A 
ATOM      4  C   UNL     1     -23.089  -5.921 -20.574  0.00  0.00    +0.000 A 
ATOM      5  C   UNL     1     -23.385  -6.791 -21.628  0.00  0.00    +0.000 A 
ATOM      6  C   UNL     1     -21.768  -5.670 -20.213  0.00  0.00    +0.000 A 
ENDROOT
BRANCH   3   9
ATOM      7  C   UNL     1     -18.128  -6.030 -21.301  0.00  0.00    +0.000 A 
ATOM      8  C   UNL     1     -17.220  -5.570 -19.373  0.00  0.00    +0.000 A 
ATOM      9  C   UNL     1     -19.300  -6.027 -20.527  0.00  0.00    +0.000 A 
ATOM     10  N   UNL     1     -17.008  -5.783 -20.644  0.00  0.00    +0.000 NA
ATOM     11  S   UNL     1     -18.871  -5.667 -18.873  0.00  0.00    +0.000 S 
ATOM     12  C   UNL     1     -17.978  -6.271 -22.788  0.00  0.00    +0.000 C 
ENDBRANCH   3   9
BRANCH   5  13
ATOM     13  C   UNL     1     -24.849  -7.043 -21.983  0.00  0.00    +0.000 C 
BRANCH  13  16
ATOM     14  C   UNL     1     -26.689  -7.206 -20.325  0.00  0.00    +0.000 C 
ATOM     15  O   UNL     1     -26.789  -8.433 -20.368  0.00  0.00    +0.000 OA
ATOM     16  N   UNL     1     -25.763  -6.493 -20.985  0.00  0.00    +0.000 N 
ATOM     17  H   UNL     1     -25.780  -5.487 -20.899  0.00  0.00    +0.000 HD
BRANCH  14  19
ATOM     18  C   UNL     1     -29.713  -7.826 -19.942  0.00  0.00    +0.000 C 
ATOM     19  C   UNL     1     -27.661  -6.394 -19.445  0.00  0.00    +0.000 C 
ATOM     20  C   UNL     1     -29.223  -6.848 -17.683  0.00  0.00    +0.000 C 
ATOM     21  N   UNL     1     -28.908  -7.122 -19.095  0.00  0.00    +0.000 N 
ATOM     22  O   UNL     1     -29.518  -7.880 -21.159  0.00  0.00    +0.000 OA
ATOM     23  C   UNL     1     -27.023  -6.015 -18.103  0.00  0.00    +0.000 C 
ATOM     24  C   UNL     1     -28.251  -5.749 -17.247  0.00  0.00    +0.000 C 
BRANCH  24  25
ATOM     25  O   UNL     1     -28.778  -4.453 -17.466  0.00  0.00    +0.000 OA
ATOM     26  H   UNL     1     -28.094  -3.807 -17.274  0.00  0.00    +0.000 HD
ENDBRANCH  24  25
BRANCH  18  27
ATOM     27  C   UNL     1     -30.914  -8.638 -19.379  0.00  0.00    +0.000 C 
BRANCH  27  31
ATOM     28  C   UNL     1     -29.192 -10.511 -19.123  0.00  0.00    +0.000 C 
ATOM     29  C   UNL     1     -31.061 -10.826 -20.750  0.00  0.00    +0.000 C 
ATOM     30  C   UNL     1     -31.514 -10.918 -18.276  0.00  0.00    +0.000 C 
ATOM     31  C   UNL     1     -30.690 -10.201 -19.380  0.00  0.00    +0.000 C 
ENDBRANCH  27  31
BRANCH  27  32
ATOM     32  N   UNL     1     -32.107  -8.235 -20.135  0.00  0.00    +0.000 N 
ATOM     33  C   UNL     1     -33.123  -7.485 -19.675  0.00  0.00    +0.000 C 
ATOM     34  O   UNL     1     -33.169  -7.057 -18.519  0.00  0.00    +0.000 OA
ATOM     35  H   UNL     1     -32.131  -8.548 -21.095  0.00  0.00    +0.000 HD
BRANCH  33  36
ATOM     36  C   UNL     1     -34.258  -7.181 -20.674  0.00  0.00    +0.000 C 
ATOM     37  F   UNL     1     -34.007  -7.476 -21.953  0.00  0.00    +0.000 F 
ATOM     38  C   UNL     1     -35.122  -5.967 -20.402  0.00  0.00    +0.000 C 
ATOM     39  C   UNL     1     -35.683  -7.357 -20.192  0.00  0.00    +0.000 C 
ENDBRANCH  33  36
ENDBRANCH  27  32
ENDBRANCH  18  27
ENDBRANCH  14  19
ENDBRANCH  13  16
ENDBRANCH   5  13
BRANCH   1  40
ATOM     40  O   UNL     1     -22.690  -8.305 -23.335  0.00  0.00    +0.000 OA
BRANCH  40  41
ATOM     41  C   UNL     1     -22.074  -9.588 -23.419  0.00  0.00    +0.000 C 
BRANCH  41  42
ATOM     42  C   UNL     1     -22.136 -10.280 -22.048  0.00  0.00    +0.000 C 
BRANCH  42  43
ATOM     43  C   UNL     1     -23.290 -11.269 -21.941  0.00  0.00    +0.000 A 
ATOM     44  C   UNL     1     -23.287 -12.424 -22.725  0.00  0.00    +0.000 A 
ATOM     45  C   UNL     1     -24.317 -13.353 -22.600  0.00  0.00    +0.000 A 
ATOM     46  C   UNL     1     -25.352 -13.127 -21.690  0.00  0.00    +0.000 A 
ATOM     47  C   UNL     1     -25.364 -11.963 -20.916  0.00  0.00    +0.000 A 
ATOM     48  C   UNL     1     -24.333 -11.036 -21.041  0.00  0.00    +0.000 A 
BRANCH  46  49
ATOM     49  C   UNL     1     -26.466 -14.154 -21.537  0.00  0.00    +0.000 C 
BRANCH  49  50
ATOM     50  N   UNL     1     -27.316 -14.242 -22.728  0.00  0.00    +0.000 NA
ATOM     51  C   UNL     1     -28.490 -15.099 -22.507  0.00  0.00    +0.000 C 
ATOM     52  C   UNL     1     -29.362 -15.152 -23.784  0.00  0.00    +0.000 C 
ATOM     53  N   UNL     1     -29.864 -13.811 -24.133  0.00  0.00    +0.000 N 
ATOM     54  C   UNL     1     -28.665 -12.991 -24.383  0.00  0.00    +0.000 C 
ATOM     55  C   UNL     1     -27.783 -12.904 -23.113  0.00  0.00    +0.000 C 
BRANCH  53  56
ATOM     56  C   UNL     1     -30.942 -13.644 -25.003  0.00  0.00    +0.000 A 
ATOM     57  C   UNL     1     -31.177 -14.536 -26.059  0.00  0.00    +0.000 A 
ATOM     58  C   UNL     1     -32.263 -14.321 -26.914  0.00  0.00    +0.000 A 
ATOM     59  N   UNL     1     -33.103 -13.268 -26.727  0.00  0.00    +0.000 NA
ATOM     60  N   UNL     1     -32.899 -12.407 -25.718  0.00  0.00    +0.000 NA
ATOM     61  C   UNL     1     -31.852 -12.576 -24.869  0.00  0.00    +0.000 A 
BRANCH  58  62
ATOM     62  C   UNL     1     -32.580 -15.229 -28.058  0.00  0.00    +0.000 A 
ATOM     63  C   UNL     1     -33.463 -14.857 -29.090  0.00  0.00    +0.000 A 
ATOM     64  C   UNL     1     -33.721 -15.729 -30.152  0.00  0.00    +0.000 A 
ATOM     65  C   UNL     1     -33.110 -16.980 -30.199  0.00  0.00    +0.000 A 
ATOM     66  C   UNL     1     -32.242 -17.365 -29.182  0.00  0.00    +0.000 A 
ATOM     67  C   UNL     1     -31.981 -16.497 -28.122  0.00  0.00    +0.000 A 
BRANCH  63  68
ATOM     68  O   UNL     1     -34.117 -13.650 -29.080  0.00  0.00    +0.000 OA
ATOM     69  H   UNL     1     -33.712 -13.013 -28.488  0.00  0.00    +0.000 HD
ENDBRANCH  63  68
ENDBRANCH  58  62
BRANCH  61  70
ATOM     70  N   UNL     1     -31.754 -11.634 -23.841  0.00  0.00    +0.000 N 
ATOM     71  H   UNL     1     -31.835 -11.939 -22.882  0.00  0.00    +0.000 HD
ATOM     72  H   UNL     1     -31.620 -10.660 -24.073  0.00  0.00    +0.000 HD
ENDBRANCH  61  70
ENDBRANCH  53  56
ENDBRANCH  49  50
ENDBRANCH  46  49
ENDBRANCH  42  43
ENDBRANCH  41  42
ENDBRANCH  40  41
ENDBRANCH   1  40
TORSDOF 19
ENDMDL
MODEL 2
REMARK VINA RESULT:   -12.239      3.460     10.651
REMARK INTER + INTRA:         -26.786
REMARK INTER:                 -24.761
REMARK INTRA:                  -2.025
REMARK UNBOUND:                -2.025
REMARK  Name = ligand
REMARK  23 active torsions:
REMARK  status: ('A' for Active; 'I' for Inactive)
REMARK    1  A    between atoms: N_1  and  C_15
REMARK    2  A    between atoms: C_2  and  C_15
REMARK    3  A    between atoms: C_3  and  C_16
REMARK    4  A    between atoms: C_4  and  C_16
REMARK    5  A    between atoms: C_5  and  C_16
REMARK    6  A    between atoms: C_6  and  C_8
REMARK    7  A    between atoms: C_9  and  O_37
REMARK    8  A    between atoms: C_11  and  C_27
REMARK    9  A    between atoms: C_13  and  C_30
REMARK   10  A    between atoms: C_15  and  C_16
REMARK   11  A    between atoms: C_20  and  O_21
REMARK   12  A    between atoms: N_23  and  C_24
REMARK   13  A    between atoms: C_24  and  C_25
REMARK   14  A    between atoms: C_31  and  C_32
REMARK   15  A    between atoms: O_37  and  C_38
REMARK   16  A    between atoms: C_38  and  C_39
REMARK   17  A    between atoms: C_39  and  C_61
REMARK   18  A    between atoms: C_40  and  N_41
REMARK   19  A    between atoms: C_40  and  C_64
REMARK   20  A    between atoms: N_44  and  C_47
REMARK   21  A    between atoms: C_49  and  C_54
REMARK   22  A    between atoms: C_52  and  N_53
REMARK   23  A    between atoms: C_55  and  O_60
REMARK                            x       y       z     vdW  Elec       q    Type
REMARK                         _______ _______ _______ _____ _____    ______ ____
ROOT
ATOM      1  C   UNL     1     -28.150 -10.275 -23.428  0.00  0.00    +0.000 A 
ATOM      2  C   UNL     1     -29.049 -11.102 -24.124  0.00  0.00    +0.000 A 
ATOM      3  C   UNL     1     -29.392 -12.368 -23.642  0.00  0.00    +0.000 A 
ATOM      4  C   UNL     1     -27.938 -12.007 -21.741  0.00  0.00    +0.000 A 
ATOM      5  C   UNL     1     -27.584 -10.746 -22.231  0.00  0.00    +0.000 A 
ATOM      6  C   UNL     1     -28.831 -12.814 -22.443  0.00  0.00    +0.000 A 
ENDROOT
BRANCH   3   9
ATOM      7  C   UNL     1     -30.193 -14.511 -24.951  0.00  0.00    +0.000 A 
ATOM      8  C   UNL     1     -32.227 -14.122 -25.634  0.00  0.00    +0.000 A 
ATOM      9  C   UNL     1     -30.339 -13.224 -24.410  0.00  0.00    +0.000 A 
ATOM     10  N   UNL     1     -31.236 -14.974 -25.618  0.00  0.00    +0.000 NA
ATOM     11  S   UNL     1     -31.935 -12.635 -24.805  0.00  0.00    +0.000 S 
ATOM     12  C   UNL     1     -29.003 -15.443 -24.866  0.00  0.00    +0.000 C 
ENDBRANCH   3   9
BRANCH   5  13
ATOM     13  C   UNL     1     -26.608  -9.892 -21.424  0.00  0.00    +0.000 C 
BRANCH  13  16
ATOM     14  C   UNL     1     -26.945  -7.543 -20.697  0.00  0.00    +0.000 C 
ATOM     15  O   UNL     1     -26.118  -7.052 -21.467  0.00  0.00    +0.000 OA
ATOM     16  N   UNL     1     -27.286  -8.841 -20.669  0.00  0.00    +0.000 N 
ATOM     17  H   UNL     1     -27.960  -9.146 -19.984  0.00  0.00    +0.000 HD
BRANCH  14  19
ATOM     18  C   UNL     1     -29.951  -7.777 -19.928  0.00  0.00    +0.000 C 
ATOM     19  C   UNL     1     -27.681  -6.634 -19.693  0.00  0.00    +0.000 C 
ATOM     20  C   UNL     1     -29.051  -6.925 -17.745  0.00  0.00    +0.000 C 
ATOM     21  N   UNL     1     -28.958  -7.203 -19.188  0.00  0.00    +0.000 N 
ATOM     22  O   UNL     1     -29.922  -7.827 -21.160  0.00  0.00    +0.000 OA
ATOM     23  C   UNL     1     -26.833  -6.372 -18.442  0.00  0.00    +0.000 C 
ATOM     24  C   UNL     1     -27.895  -5.971 -17.431  0.00  0.00    +0.000 C 
BRANCH  24  25
ATOM     25  O   UNL     1     -28.272  -4.613 -17.571  0.00  0.00    +0.000 OA
ATOM     26  H   UNL     1     -27.787  -4.235 -18.308  0.00  0.00    +0.000 HD
ENDBRANCH  24  25
BRANCH  18  27
ATOM     27  C   UNL     1     -31.165  -8.441 -19.218  0.00  0.00    +0.000 C 
BRANCH  27  31
ATOM     28  C   UNL     1     -31.250 -10.718 -20.378  0.00  0.00    +0.000 C 
ATOM     29  C   UNL     1     -32.077 -10.547 -18.027  0.00  0.00    +0.000 C 
ATOM     30  C   UNL     1     -29.611 -10.406 -18.511  0.00  0.00    +0.000 C 
ATOM     31  C   UNL     1     -31.020 -10.001 -19.022  0.00  0.00    +0.000 C 
ENDBRANCH  27  31
BRANCH  27  32
ATOM     32  N   UNL     1     -32.368  -8.073 -19.976  0.00  0.00    +0.000 N 
ATOM     33  C   UNL     1     -33.347  -7.251 -19.562  0.00  0.00    +0.000 C 
ATOM     34  O   UNL     1     -33.345  -6.714 -18.451  0.00  0.00    +0.000 OA
ATOM     35  H   UNL     1     -32.431  -8.474 -20.901  0.00  0.00    +0.000 HD
BRANCH  33  36
ATOM     36  C   UNL     1     -34.502  -7.005 -20.554  0.00  0.00    +0.000 C 
ATOM     37  F   UNL     1     -34.251  -7.307 -21.830  0.00  0.00    +0.000 F 
ATOM     38  C   UNL     1     -35.413  -5.824 -20.288  0.00  0.00    +0.000 C 
ATOM     39  C   UNL     1     -35.915  -7.233 -20.055  0.00  0.00    +0.000 C 
ENDBRANCH  33  36
ENDBRANCH  27  32
ENDBRANCH  18  27
ENDBRANCH  14  19
ENDBRANCH  13  16
ENDBRANCH   5  13
BRANCH   1  40
ATOM     40  O   UNL     1     -27.784  -9.014 -23.859  0.00  0.00    +0.000 OA
BRANCH  40  41
ATOM     41  C   UNL     1     -26.826  -8.868 -24.905  0.00  0.00    +0.000 C 
BRANCH  41  42
ATOM     42  C   UNL     1     -26.753 -10.169 -25.720  0.00  0.00    +0.000 C 
BRANCH  42  43
ATOM     43  C   UNL     1     -25.373 -10.409 -26.320  0.00  0.00    +0.000 A 
ATOM     44  C   UNL     1     -24.497 -11.307 -25.706  0.00  0.00    +0.000 A 
ATOM     45  C   UNL     1     -23.252 -11.563 -26.272  0.00  0.00    +0.000 A 
ATOM     46  C   UNL     1     -22.880 -10.920 -27.456  0.00  0.00    +0.000 A 
ATOM     47  C   UNL     1     -23.749 -10.009 -28.062  0.00  0.00    +0.000 A 
ATOM     48  C   UNL     1     -24.994  -9.755 -27.495  0.00  0.00    +0.000 A 
BRANCH  46  49
ATOM     49  C   UNL     1     -21.526 -11.218 -28.088  0.00  0.00    +0.000 C 
BRANCH  49  50
ATOM     50  N   UNL     1     -20.428 -10.510 -27.423  0.00  0.00    +0.000 NA
ATOM     51  C   UNL     1     -20.605  -9.052 -27.468  0.00  0.00    +0.000 C 
ATOM     52  C   UNL     1     -19.432  -8.348 -26.744  0.00  0.00    +0.000 C 
ATOM     53  N   UNL     1     -19.384  -8.735 -25.323  0.00  0.00    +0.000 N 
ATOM     54  C   UNL     1     -19.170 -10.193 -25.316  0.00  0.00    +0.000 C 
ATOM     55  C   UNL     1     -20.341 -10.925 -26.017  0.00  0.00    +0.000 C 
BRANCH  53  56
ATOM     56  C   UNL     1     -18.670  -7.982 -24.391  0.00  0.00    +0.000 A 
ATOM     57  C   UNL     1     -19.226  -7.629 -23.153  0.00  0.00    +0.000 A 
ATOM     58  C   UNL     1     -18.478  -6.861 -22.255  0.00  0.00    +0.000 A 
ATOM     59  N   UNL     1     -17.212  -6.464 -22.559  0.00  0.00    +0.000 NA
ATOM     60  N   UNL     1     -16.660  -6.797 -23.736  0.00  0.00    +0.000 NA
ATOM     61  C   UNL     1     -17.356  -7.536 -24.638  0.00  0.00    +0.000 A 
BRANCH  58  62
ATOM     62  C   UNL     1     -18.999  -6.448 -20.917  0.00  0.00    +0.000 A 
ATOM     63  C   UNL     1     -18.147  -6.065 -19.863  0.00  0.00    +0.000 A 
ATOM     64  C   UNL     1     -18.675  -5.670 -18.631  0.00  0.00    +0.000 A 
ATOM     65  C   UNL     1     -20.054  -5.656 -18.428  0.00  0.00    +0.000 A 
ATOM     66  C   UNL     1     -20.908  -6.041 -19.457  0.00  0.00    +0.000 A 
ATOM     67  C   UNL     1     -20.384  -6.433 -20.688  0.00  0.00    +0.000 A 
BRANCH  63  68
ATOM     68  O   UNL     1     -16.781  -6.089 -19.995  0.00  0.00    +0.000 OA
ATOM     69  H   UNL     1     -16.377  -5.231 -19.848  0.00  0.00    +0.000 HD
ENDBRANCH  63  68
ENDBRANCH  58  62
BRANCH  61  70
ATOM     70  N   UNL     1     -16.671  -7.845 -25.818  0.00  0.00    +0.000 N 
ATOM     71  H   UNL     1     -16.721  -8.784 -26.186  0.00  0.00    +0.000 HD
ATOM     72  H   UNL     1     -16.124  -7.130 -26.275  0.00  0.00    +0.000 HD
ENDBRANCH  61  70
ENDBRANCH  53  56
ENDBRANCH  49  50
ENDBRANCH  46  49
ENDBRANCH  42  43
ENDBRANCH  41  42
ENDBRANCH  40  41
ENDBRANCH   1  40
TORSDOF 19
ENDMDL
