ligand
 OpenBabel01032309583D

 72 79  0  0  1  0  0  0  0  0999 V2000
  -22.3450   -7.4390  -22.3150 C   0  0  0  0  0  0  0  0  0  0  0  0
  -21.0160   -7.1750  -21.9380 C   0  0  0  0  0  3  0  0  0  0  0  0
  -20.7200   -6.2940  -20.8940 C   0  0  0  0  0  0  0  0  0  0  0  0
  -23.0890   -5.9210  -20.5740 C   0  0  0  0  0  3  0  0  0  0  0  0
  -23.3850   -6.7910  -21.6280 C   0  0  0  0  0  0  0  0  0  0  0  0
  -21.7680   -5.6700  -20.2130 C   0  0  0  0  0  3  0  0  0  0  0  0
  -18.1280   -6.0300  -21.3010 C   0  0  0  0  0  0  0  0  0  0  0  0
  -17.2200   -5.5700  -19.3730 C   0  0  0  0  0  3  0  0  0  0  0  0
  -19.3000   -6.0270  -20.5270 C   0  0  0  0  0  0  0  0  0  0  0  0
  -17.0080   -5.7830  -20.6440 N   0  0  0  0  0  0  0  0  0  0  0  0
  -18.8710   -5.6670  -18.8730 S   0  0  0  0  0  0  0  0  0  0  0  0
  -17.9780   -6.2710  -22.7880 C   0  0  0  0  0  1  0  0  0  0  0  0
  -24.8490   -7.0430  -21.9830 C   0  0  0  0  0  2  0  0  0  0  0  0
  -26.6890   -7.2060  -20.3250 C   0  0  0  0  0  0  0  0  0  0  0  0
  -26.7890   -8.4330  -20.3680 O   0  0  0  0  0  0  0  0  0  0  0  0
  -25.7630   -6.4930  -20.9850 N   0  0  0  0  0  0  0  0  0  0  0  0
  -25.7800   -5.4870  -20.8990 H   0  0  0  0  0  0  0  0  0  0  0  0
  -29.7130   -7.8260  -19.9420 C   0  0  0  0  0  0  0  0  0  0  0  0
  -27.6610   -6.3940  -19.4450 C   0  0  1  0  0  3  0  0  0  0  0  0
  -29.2230   -6.8480  -17.6830 C   0  0  0  0  0  2  0  0  0  0  0  0
  -28.9080   -7.1220  -19.0950 N   0  0  0  0  0  0  0  0  0  0  0  0
  -29.5180   -7.8800  -21.1590 O   0  0  0  0  0  0  0  0  0  0  0  0
  -27.0230   -6.0150  -18.1030 C   0  0  0  0  0  2  0  0  0  0  0  0
  -28.2510   -5.7490  -17.2470 C   0  0  1  0  0  3  0  0  0  0  0  0
  -28.7780   -4.4530  -17.4660 O   0  0  0  0  0  0  0  0  0  0  0  0
  -28.0940   -3.8070  -17.2740 H   0  0  0  0  0  0  0  0  0  0  0  0
  -30.9140   -8.6380  -19.3790 C   0  0  2  0  0  3  0  0  0  0  0  0
  -29.1920  -10.5110  -19.1230 C   0  0  0  0  0  1  0  0  0  0  0  0
  -31.0610  -10.8260  -20.7500 C   0  0  0  0  0  1  0  0  0  0  0  0
  -31.5140  -10.9180  -18.2760 C   0  0  0  0  0  1  0  0  0  0  0  0
  -30.6900  -10.2010  -19.3800 C   0  0  0  0  0  0  0  0  0  0  0  0
  -32.1070   -8.2350  -20.1350 N   0  0  0  0  0  0  0  0  0  0  0  0
  -33.1230   -7.4850  -19.6750 C   0  0  0  0  0  0  0  0  0  0  0  0
  -33.1690   -7.0570  -18.5190 O   0  0  0  0  0  0  0  0  0  0  0  0
  -32.1310   -8.5480  -21.0950 H   0  0  0  0  0  0  0  0  0  0  0  0
  -34.2580   -7.1810  -20.6740 C   0  0  0  0  0  0  0  0  0  0  0  0
  -34.0070   -7.4760  -21.9530 F   0  0  0  0  0  0  0  0  0  0  0  0
  -35.1220   -5.9670  -20.4020 C   0  0  0  0  0  2  0  0  0  0  0  0
  -35.6830   -7.3570  -20.1920 C   0  0  0  0  0  2  0  0  0  0  0  0
  -22.6900   -8.3050  -23.3350 O   0  0  0  0  0  0  0  0  0  0  0  0
  -22.0740   -9.5880  -23.4190 C   0  0  0  0  0  2  0  0  0  0  0  0
  -22.1360  -10.2800  -22.0480 C   0  0  0  0  0  2  0  0  0  0  0  0
  -23.2900  -11.2690  -21.9410 C   0  0  0  0  0  0  0  0  0  0  0  0
  -23.2870  -12.4240  -22.7250 C   0  0  0  0  0  3  0  0  0  0  0  0
  -24.3170  -13.3530  -22.6000 C   0  0  0  0  0  3  0  0  0  0  0  0
  -25.3520  -13.1270  -21.6900 C   0  0  0  0  0  0  0  0  0  0  0  0
  -25.3640  -11.9630  -20.9160 C   0  0  0  0  0  3  0  0  0  0  0  0
  -24.3330  -11.0360  -21.0410 C   0  0  0  0  0  3  0  0  0  0  0  0
  -26.4660  -14.1540  -21.5370 C   0  0  0  0  0  2  0  0  0  0  0  0
  -27.3160  -14.2420  -22.7280 N   0  0  0  0  0  0  0  0  0  0  0  0
  -28.4900  -15.0990  -22.5070 C   0  0  0  0  0  2  0  0  0  0  0  0
  -29.3620  -15.1520  -23.7840 C   0  0  0  0  0  2  0  0  0  0  0  0
  -29.8640  -13.8110  -24.1330 N   0  0  0  0  0  0  0  0  0  0  0  0
  -28.6650  -12.9910  -24.3830 C   0  0  0  0  0  2  0  0  0  0  0  0
  -27.7830  -12.9040  -23.1130 C   0  0  0  0  0  2  0  0  0  0  0  0
  -30.9420  -13.6440  -25.0030 C   0  0  0  0  0  0  0  0  0  0  0  0
  -31.1770  -14.5360  -26.0590 C   0  0  0  0  0  3  0  0  0  0  0  0
  -32.2630  -14.3210  -26.9140 C   0  0  0  0  0  0  0  0  0  0  0  0
  -33.1030  -13.2680  -26.7270 N   0  0  0  0  0  0  0  0  0  0  0  0
  -32.8990  -12.4070  -25.7180 N   0  0  0  0  0  0  0  0  0  0  0  0
  -31.8520  -12.5760  -24.8690 C   0  0  0  0  0  0  0  0  0  0  0  0
  -32.5800  -15.2290  -28.0580 C   0  0  0  0  0  0  0  0  0  0  0  0
  -33.4630  -14.8570  -29.0900 C   0  0  0  0  0  0  0  0  0  0  0  0
  -33.7210  -15.7290  -30.1520 C   0  0  0  0  0  3  0  0  0  0  0  0
  -33.1100  -16.9800  -30.1990 C   0  0  0  0  0  3  0  0  0  0  0  0
  -32.2420  -17.3650  -29.1820 C   0  0  0  0  0  3  0  0  0  0  0  0
  -31.9810  -16.4970  -28.1220 C   0  0  0  0  0  3  0  0  0  0  0  0
  -34.1170  -13.6500  -29.0800 O   0  0  0  0  0  0  0  0  0  0  0  0
  -33.7120  -13.0130  -28.4880 H   0  0  0  0  0  0  0  0  0  0  0  0
  -31.7540  -11.6340  -23.8410 N   0  0  0  0  0  0  0  0  0  0  0  0
  -31.8350  -11.9390  -22.8820 H   0  0  0  0  0  0  0  0  0  0  0  0
  -31.6200  -10.6600  -24.0730 H   0  0  0  0  0  0  0  0  0  0  0  0
  1  2  2  0  0  0  0
  1  5  1  0  0  0  0
  2  3  1  0  0  0  0
  3  9  1  0  0  0  0
  3  6  2  0  0  0  0
  4  6  1  0  0  0  0
  5  4  2  0  0  0  0
  7 10  1  0  0  0  0
  7  9  2  0  0  0  0
  8 11  1  0  0  0  0
  9 11  1  0  0  0  0
 10  8  2  0  0  0  0
 12  7  1  0  0  0  0
 13  5  1  0  0  0  0
 13 16  1  0  0  0  0
 15 14  2  0  0  0  0
 16 17  1  0  0  0  0
 16 14  1  0  0  0  0
 18 21  1  0  0  0  0
 19 14  1  1  0  0  0
 19 21  1  0  0  0  0
 19 23  1  0  0  0  0
 20 24  1  0  0  0  0
 21 20  1  0  0  0  0
 22 18  2  0  0  0  0
 23 24  1  0  0  0  0
 24 25  1  6  0  0  0
 25 26  1  0  0  0  0
 27 18  1  6  0  0  0
 29 31  1  0  0  0  0
 31 27  1  0  0  0  0
 31 28  1  0  0  0  0
 31 30  1  0  0  0  0
 32 33  1  0  0  0  0
 32 27  1  0  0  0  0
 33 34  2  0  0  0  0
 35 32  1  0  0  0  0
 36 38  1  0  0  0  0
 36 39  1  0  0  0  0
 36 33  1  0  0  0  0
 37 36  1  0  0  0  0
 38 39  1  0  0  0  0
 40  1  1  0  0  0  0
 41 40  1  0  0  0  0
 41 42  1  0  0  0  0
 42 43  1  0  0  0  0
 43 48  1  0  0  0  0
 44 45  1  0  0  0  0
 44 43  2  0  0  0  0
 45 46  2  0  0  0  0
 46 49  1  0  0  0  0
 46 47  1  0  0  0  0
 48 47  2  0  0  0  0
 50 51  1  0  0  0  0
 50 49  1  0  0  0  0
 52 51  1  0  0  0  0
 53 52  1  0  0  0  0
 54 53  1  0  0  0  0
 54 55  1  0  0  0  0
 55 50  1  0  0  0  0
 56 61  1  0  0  0  0
 56 53  1  0  0  0  0
 57 56  2  0  0  0  0
 58 59  2  0  0  0  0
 58 57  1  0  0  0  0
 59 60  1  0  0  0  0
 60 61  2  0  0  0  0
 61 70  1  0  0  0  0
 62 58  1  0  0  0  0
 63 68  1  0  0  0  0
 63 62  2  0  0  0  0
 64 63  1  0  0  0  0
 65 64  2  0  0  0  0
 65 66  1  0  0  0  0
 66 67  2  0  0  0  0
 67 62  1  0  0  0  0
 68 69  1  0  0  0  0
 70 71  1  0  0  0  0
 72 70  1  0  0  0  0
M  END
>  <MODEL>
1

>  <REMARK>
 VINA RESULT:   -13.534      0.000      0.000
 INTER + INTRA:         -29.406
 INTER:                 -27.233
 INTRA:                  -2.173
 UNBOUND:                -2.025
  Name = ligand
  23 active torsions:
  status: ('A' for Active; 'I' for Inactive)
    1  A    between atoms: N_1  and  C_15
    2  A    between atoms: C_2  and  C_15
    3  A    between atoms: C_3  and  C_16
    4  A    between atoms: C_4  and  C_16
    5  A    between atoms: C_5  and  C_16
    6  A    between atoms: C_6  and  C_8
    7  A    between atoms: C_9  and  O_37
    8  A    between atoms: C_11  and  C_27
    9  A    between atoms: C_13  and  C_30
   10  A    between atoms: C_15  and  C_16
   11  A    between atoms: C_20  and  O_21
   12  A    between atoms: N_23  and  C_24
   13  A    between atoms: C_24  and  C_25
   14  A    between atoms: C_31  and  C_32
   15  A    between atoms: O_37  and  C_38
   16  A    between atoms: C_38  and  C_39
   17  A    between atoms: C_39  and  C_61
   18  A    between atoms: C_40  and  N_41
   19  A    between atoms: C_40  and  C_64
   20  A    between atoms: N_44  and  C_47
   21  A    between atoms: C_49  and  C_54
   22  A    between atoms: C_52  and  N_53
   23  A    between atoms: C_55  and  O_60
                            x       y       z     vdW  Elec       q    Type
                         _______ _______ _______ _____ _____    ______ ____

>  <TORSDO>
F 19

$$$$
ligand
 OpenBabel01032309583D

 72 79  0  0  1  0  0  0  0  0999 V2000
  -28.1500  -10.2750  -23.4280 C   0  0  0  0  0  0  0  0  0  0  0  0
  -29.0490  -11.1020  -24.1240 C   0  0  0  0  0  3  0  0  0  0  0  0
  -29.3920  -12.3680  -23.6420 C   0  0  0  0  0  0  0  0  0  0  0  0
  -27.9380  -12.0070  -21.7410 C   0  0  0  0  0  3  0  0  0  0  0  0
  -27.5840  -10.7460  -22.2310 C   0  0  0  0  0  0  0  0  0  0  0  0
  -28.8310  -12.8140  -22.4430 C   0  0  0  0  0  3  0  0  0  0  0  0
  -30.1930  -14.5110  -24.9510 C   0  0  0  0  0  0  0  0  0  0  0  0
  -32.2270  -14.1220  -25.6340 C   0  0  0  0  0  3  0  0  0  0  0  0
  -30.3390  -13.2240  -24.4100 C   0  0  0  0  0  0  0  0  0  0  0  0
  -31.2360  -14.9740  -25.6180 N   0  0  0  0  0  0  0  0  0  0  0  0
  -31.9350  -12.6350  -24.8050 S   0  0  0  0  0  0  0  0  0  0  0  0
  -29.0030  -15.4430  -24.8660 C   0  0  0  0  0  1  0  0  0  0  0  0
  -26.6080   -9.8920  -21.4240 C   0  0  0  0  0  2  0  0  0  0  0  0
  -26.9450   -7.5430  -20.6970 C   0  0  0  0  0  0  0  0  0  0  0  0
  -26.1180   -7.0520  -21.4670 O   0  0  0  0  0  0  0  0  0  0  0  0
  -27.2860   -8.8410  -20.6690 N   0  0  0  0  0  0  0  0  0  0  0  0
  -27.9600   -9.1460  -19.9840 H   0  0  0  0  0  0  0  0  0  0  0  0
  -29.9510   -7.7770  -19.9280 C   0  0  0  0  0  0  0  0  0  0  0  0
  -27.6810   -6.6340  -19.6930 C   0  0  1  0  0  3  0  0  0  0  0  0
  -29.0510   -6.9250  -17.7450 C   0  0  0  0  0  2  0  0  0  0  0  0
  -28.9580   -7.2030  -19.1880 N   0  0  0  0  0  0  0  0  0  0  0  0
  -29.9220   -7.8270  -21.1600 O   0  0  0  0  0  0  0  0  0  0  0  0
  -26.8330   -6.3720  -18.4420 C   0  0  0  0  0  2  0  0  0  0  0  0
  -27.8950   -5.9710  -17.4310 C   0  0  1  0  0  3  0  0  0  0  0  0
  -28.2720   -4.6130  -17.5710 O   0  0  0  0  0  0  0  0  0  0  0  0
  -27.7870   -4.2350  -18.3080 H   0  0  0  0  0  0  0  0  0  0  0  0
  -31.1650   -8.4410  -19.2180 C   0  0  2  0  0  3  0  0  0  0  0  0
  -31.2500  -10.7180  -20.3780 C   0  0  0  0  0  1  0  0  0  0  0  0
  -32.0770  -10.5470  -18.0270 C   0  0  0  0  0  1  0  0  0  0  0  0
  -29.6110  -10.4060  -18.5110 C   0  0  0  0  0  1  0  0  0  0  0  0
  -31.0200  -10.0010  -19.0220 C   0  0  0  0  0  0  0  0  0  0  0  0
  -32.3680   -8.0730  -19.9760 N   0  0  0  0  0  0  0  0  0  0  0  0
  -33.3470   -7.2510  -19.5620 C   0  0  0  0  0  0  0  0  0  0  0  0
  -33.3450   -6.7140  -18.4510 O   0  0  0  0  0  0  0  0  0  0  0  0
  -32.4310   -8.4740  -20.9010 H   0  0  0  0  0  0  0  0  0  0  0  0
  -34.5020   -7.0050  -20.5540 C   0  0  0  0  0  0  0  0  0  0  0  0
  -34.2510   -7.3070  -21.8300 F   0  0  0  0  0  0  0  0  0  0  0  0
  -35.4130   -5.8240  -20.2880 C   0  0  0  0  0  2  0  0  0  0  0  0
  -35.9150   -7.2330  -20.0550 C   0  0  0  0  0  2  0  0  0  0  0  0
  -27.7840   -9.0140  -23.8590 O   0  0  0  0  0  0  0  0  0  0  0  0
  -26.8260   -8.8680  -24.9050 C   0  0  0  0  0  2  0  0  0  0  0  0
  -26.7530  -10.1690  -25.7200 C   0  0  0  0  0  2  0  0  0  0  0  0
  -25.3730  -10.4090  -26.3200 C   0  0  0  0  0  0  0  0  0  0  0  0
  -24.4970  -11.3070  -25.7060 C   0  0  0  0  0  3  0  0  0  0  0  0
  -23.2520  -11.5630  -26.2720 C   0  0  0  0  0  3  0  0  0  0  0  0
  -22.8800  -10.9200  -27.4560 C   0  0  0  0  0  0  0  0  0  0  0  0
  -23.7490  -10.0090  -28.0620 C   0  0  0  0  0  3  0  0  0  0  0  0
  -24.9940   -9.7550  -27.4950 C   0  0  0  0  0  3  0  0  0  0  0  0
  -21.5260  -11.2180  -28.0880 C   0  0  0  0  0  2  0  0  0  0  0  0
  -20.4280  -10.5100  -27.4230 N   0  0  0  0  0  0  0  0  0  0  0  0
  -20.6050   -9.0520  -27.4680 C   0  0  0  0  0  2  0  0  0  0  0  0
  -19.4320   -8.3480  -26.7440 C   0  0  0  0  0  2  0  0  0  0  0  0
  -19.3840   -8.7350  -25.3230 N   0  0  0  0  0  0  0  0  0  0  0  0
  -19.1700  -10.1930  -25.3160 C   0  0  0  0  0  2  0  0  0  0  0  0
  -20.3410  -10.9250  -26.0170 C   0  0  0  0  0  2  0  0  0  0  0  0
  -18.6700   -7.9820  -24.3910 C   0  0  0  0  0  0  0  0  0  0  0  0
  -19.2260   -7.6290  -23.1530 C   0  0  0  0  0  3  0  0  0  0  0  0
  -18.4780   -6.8610  -22.2550 C   0  0  0  0  0  0  0  0  0  0  0  0
  -17.2120   -6.4640  -22.5590 N   0  0  0  0  0  0  0  0  0  0  0  0
  -16.6600   -6.7970  -23.7360 N   0  0  0  0  0  0  0  0  0  0  0  0
  -17.3560   -7.5360  -24.6380 C   0  0  0  0  0  0  0  0  0  0  0  0
  -18.9990   -6.4480  -20.9170 C   0  0  0  0  0  0  0  0  0  0  0  0
  -18.1470   -6.0650  -19.8630 C   0  0  0  0  0  0  0  0  0  0  0  0
  -18.6750   -5.6700  -18.6310 C   0  0  0  0  0  3  0  0  0  0  0  0
  -20.0540   -5.6560  -18.4280 C   0  0  0  0  0  3  0  0  0  0  0  0
  -20.9080   -6.0410  -19.4570 C   0  0  0  0  0  3  0  0  0  0  0  0
  -20.3840   -6.4330  -20.6880 C   0  0  0  0  0  3  0  0  0  0  0  0
  -16.7810   -6.0890  -19.9950 O   0  0  0  0  0  0  0  0  0  0  0  0
  -16.3770   -5.2310  -19.8480 H   0  0  0  0  0  0  0  0  0  0  0  0
  -16.6710   -7.8450  -25.8180 N   0  0  0  0  0  0  0  0  0  0  0  0
  -16.7210   -8.7840  -26.1860 H   0  0  0  0  0  0  0  0  0  0  0  0
  -16.1240   -7.1300  -26.2750 H   0  0  0  0  0  0  0  0  0  0  0  0
  1  5  1  0  0  0  0
  2  3  1  0  0  0  0
  2  1  2  0  0  0  0
  3  6  2  0  0  0  0
  5  4  2  0  0  0  0
  5 13  1  0  0  0  0
  6  4  1  0  0  0  0
  7 12  1  0  0  0  0
  7  9  2  0  0  0  0
  8 10  2  0  0  0  0
  8 11  1  0  0  0  0
  9  3  1  0  0  0  0
 10  7  1  0  0  0  0
 11  9  1  0  0  0  0
 13 16  1  0  0  0  0
 14 16  1  0  0  0  0
 15 14  2  0  0  0  0
 16 17  1  0  0  0  0
 18 21  1  0  0  0  0
 19 14  1  6  0  0  0
 19 21  1  0  0  0  0
 19 23  1  0  0  0  0
 20 24  1  0  0  0  0
 21 20  1  0  0  0  0
 22 18  2  0  0  0  0
 23 24  1  0  0  0  0
 24 25  1  6  0  0  0
 26 25  1  0  0  0  0
 27 18  1  6  0  0  0
 27 31  1  0  0  0  0
 28 31  1  0  0  0  0
 31 30  1  0  0  0  0
 31 29  1  0  0  0  0
 32 33  1  0  0  0  0
 32 27  1  0  0  0  0
 33 34  2  0  0  0  0
 35 32  1  0  0  0  0
 36 38  1  0  0  0  0
 36 39  1  0  0  0  0
 36 33  1  0  0  0  0
 37 36  1  0  0  0  0
 38 39  1  0  0  0  0
 40  1  1  0  0  0  0
 41 40  1  0  0  0  0
 42 41  1  0  0  0  0
 43 42  1  0  0  0  0
 43 44  1  0  0  0  0
 45 44  2  0  0  0  0
 46 45  1  0  0  0  0
 47 48  1  0  0  0  0
 47 46  2  0  0  0  0
 48 43  2  0  0  0  0
 49 46  1  0  0  0  0
 49 50  1  0  0  0  0
 50 55  1  0  0  0  0
 51 50  1  0  0  0  0
 51 52  1  0  0  0  0
 52 53  1  0  0  0  0
 53 54  1  0  0  0  0
 53 56  1  0  0  0  0
 55 54  1  0  0  0  0
 56 57  1  0  0  0  0
 57 58  2  0  0  0  0
 58 62  1  0  0  0  0
 59 58  1  0  0  0  0
 60 59  2  0  0  0  0
 61 56  2  0  0  0  0
 61 60  1  0  0  0  0
 62 67  2  0  0  0  0
 62 63  1  0  0  0  0
 63 64  2  0  0  0  0
 64 65  1  0  0  0  0
 66 65  2  0  0  0  0
 67 66  1  0  0  0  0
 68 63  1  0  0  0  0
 68 69  1  0  0  0  0
 70 61  1  0  0  0  0
 71 70  1  0  0  0  0
 72 70  1  0  0  0  0
M  END
>  <MODEL>
2

>  <REMARK>
 VINA RESULT:   -12.239      3.460     10.651
 INTER + INTRA:         -26.786
 INTER:                 -24.761
 INTRA:                  -2.025
 UNBOUND:                -2.025
  Name = ligand
  23 active torsions:
  status: ('A' for Active; 'I' for Inactive)
    1  A    between atoms: N_1  and  C_15
    2  A    between atoms: C_2  and  C_15
    3  A    between atoms: C_3  and  C_16
    4  A    between atoms: C_4  and  C_16
    5  A    between atoms: C_5  and  C_16
    6  A    between atoms: C_6  and  C_8
    7  A    between atoms: C_9  and  O_37
    8  A    between atoms: C_11  and  C_27
    9  A    between atoms: C_13  and  C_30
   10  A    between atoms: C_15  and  C_16
   11  A    between atoms: C_20  and  O_21
   12  A    between atoms: N_23  and  C_24
   13  A    between atoms: C_24  and  C_25
   14  A    between atoms: C_31  and  C_32
   15  A    between atoms: O_37  and  C_38
   16  A    between atoms: C_38  and  C_39
   17  A    between atoms: C_39  and  C_61
   18  A    between atoms: C_40  and  N_41
   19  A    between atoms: C_40  and  C_64
   20  A    between atoms: N_44  and  C_47
   21  A    between atoms: C_49  and  C_54
   22  A    between atoms: C_52  and  N_53
   23  A    between atoms: C_55  and  O_60
                            x       y       z     vdW  Elec       q    Type
                         _______ _______ _______ _____ _____    ______ ____

>  <TORSDO>
F 19

$$$$
