REMARK  Name = ligand
REMARK  23 active torsions:
REMARK  status: ('A' for Active; 'I' for Inactive)
REMARK    1  A    between atoms: N_1  and  C_15
REMARK    2  A    between atoms: C_2  and  C_15
REMARK    3  A    between atoms: C_3  and  C_16
REMARK    4  A    between atoms: C_4  and  C_16
REMARK    5  A    between atoms: C_5  and  C_16
REMARK    6  A    between atoms: C_6  and  C_8
REMARK    7  A    between atoms: C_9  and  O_37
REMARK    8  A    between atoms: C_11  and  C_27
REMARK    9  A    between atoms: C_13  and  C_30
REMARK   10  A    between atoms: C_15  and  C_16
REMARK   11  A    between atoms: C_20  and  O_21
REMARK   12  A    between atoms: N_23  and  C_24
REMARK   13  A    between atoms: C_24  and  C_25
REMARK   14  A    between atoms: C_31  and  C_32
REMARK   15  A    between atoms: O_37  and  C_38
REMARK   16  A    between atoms: C_38  and  C_39
REMARK   17  A    between atoms: C_39  and  C_61
REMARK   18  A    between atoms: C_40  and  N_41
REMARK   19  A    between atoms: C_40  and  C_64
REMARK   20  A    between atoms: N_44  and  C_47
REMARK   21  A    between atoms: C_49  and  C_54
REMARK   22  A    between atoms: C_52  and  N_53
REMARK   23  A    between atoms: C_55  and  O_60
REMARK                            x       y       z     vdW  Elec       q    Type
REMARK                         _______ _______ _______ _____ _____    ______ ____
ROOT
ATOM      1  C   UNL     1       0.194  -0.165   0.179  0.00  0.00    +0.000 A 
ATOM      2  C   UNL     1      -0.568  -1.342   0.283  0.00  0.00    +0.000 A 
ATOM      3  C   UNL     1      -1.965  -1.303   0.291  0.00  0.00    +0.000 A 
ATOM      4  C   UNL     1      -1.871   1.106   0.084  0.00  0.00    +0.000 A 
ATOM      5  C   UNL     1      -0.473   1.068   0.091  0.00  0.00    +0.000 A 
ATOM      6  C   UNL     1      -2.611  -0.069   0.188  0.00  0.00    +0.000 A 
ENDROOT
BRANCH   3   9
ATOM      7  C   UNL     1      -2.547  -3.700   1.221  0.00  0.00    +0.000 A 
ATOM      8  C   UNL     1      -4.318  -4.390   0.153  0.00  0.00    +0.000 A 
ATOM      9  C   UNL     1      -2.743  -2.568   0.414  0.00  0.00    +0.000 A 
ATOM     10  N   UNL     1      -3.418  -4.680   1.054  0.00  0.00    +0.000 NA
ATOM     11  S   UNL     1      -4.150  -2.837  -0.585  0.00  0.00    +0.000 S 
ATOM     12  C   UNL     1      -1.476  -3.944   2.263  0.00  0.00    +0.000 C 
ENDBRANCH   3   9
BRANCH   5  13
ATOM     13  C   UNL     1       0.298   2.381  -0.033  0.00  0.00    +0.000 C 
BRANCH  13  16
ATOM     14  C   UNL     1       1.655   2.788   2.005  0.00  0.00    +0.000 C 
ATOM     15  O   UNL     1       2.649   2.170   1.621  0.00  0.00    +0.000 OA
ATOM     16  N   UNL     1       0.554   2.997   1.267  0.00  0.00    +0.000 N 
ATOM     17  H   UNL     1      -0.216   3.499   1.684  0.00  0.00    +0.000 HD
BRANCH  14  19
ATOM     18  C   UNL     1       1.959   1.193   4.659  0.00  0.00    +0.000 C 
ATOM     19  C   UNL     1       1.641   3.401   3.420  0.00  0.00    +0.000 C 
ATOM     20  C   UNL     1       3.041   3.345   5.367  0.00  0.00    +0.000 C 
ATOM     21  N   UNL     1       2.221   2.518   4.465  0.00  0.00    +0.000 N 
ATOM     22  O   UNL     1       1.122   0.574   3.997  0.00  0.00    +0.000 OA
ATOM     23  C   UNL     1       2.462   4.695   3.482  0.00  0.00    +0.000 C 
ATOM     24  C   UNL     1       2.760   4.796   4.969  0.00  0.00    +0.000 C 
BRANCH  24  25
ATOM     25  O   UNL     1       1.671   5.345   5.690  0.00  0.00    +0.000 OA
ATOM     26  H   UNL     1       1.887   5.336   6.625  0.00  0.00    +0.000 HD
ENDBRANCH  24  25
BRANCH  18  27
ATOM     27  C   UNL     1       2.758   0.390   5.724  0.00  0.00    +0.000 C 
BRANCH  27  31
ATOM     28  C   UNL     1       4.718  -1.154   6.282  0.00  0.00    +0.000 C 
ATOM     29  C   UNL     1       4.959   0.431   4.366  0.00  0.00    +0.000 C 
ATOM     30  C   UNL     1       3.451  -1.574   4.163  0.00  0.00    +0.000 C 
ATOM     31  C   UNL     1       3.946  -0.463   5.128  0.00  0.00    +0.000 C 
ENDBRANCH  27  31
BRANCH  27  32
ATOM     32  N   UNL     1       1.792  -0.426   6.471  0.00  0.00    +0.000 N 
ATOM     33  C   UNL     1       1.588  -0.399   7.799  0.00  0.00    +0.000 C 
ATOM     34  O   UNL     1       2.229   0.330   8.560  0.00  0.00    +0.000 OA
ATOM     35  H   UNL     1       1.226  -1.044   5.906  0.00  0.00    +0.000 HD
BRANCH  33  36
ATOM     36  C   UNL     1       0.497  -1.343   8.345  0.00  0.00    +0.000 C 
ATOM     37  F   UNL     1      -0.135  -2.093   7.438  0.00  0.00    +0.000 F 
ATOM     38  C   UNL     1      -0.313  -0.863   9.532  0.00  0.00    +0.000 C 
ATOM     39  C   UNL     1       0.720  -1.955   9.713  0.00  0.00    +0.000 C 
ENDBRANCH  33  36
ENDBRANCH  27  32
ENDBRANCH  18  27
ENDBRANCH  14  19
ENDBRANCH  13  16
ENDBRANCH   5  13
BRANCH   1  40
ATOM     40  O   UNL     1       1.576  -0.151   0.161  0.00  0.00    +0.000 OA
BRANCH  40  41
ATOM     41  C   UNL     1       2.303  -1.372   0.276  0.00  0.00    +0.000 C 
BRANCH  41  42
ATOM     42  C   UNL     1       3.810  -1.084   0.181  0.00  0.00    +0.000 C 
BRANCH  42  43
ATOM     43  C   UNL     1       4.196  -0.403  -1.126  0.00  0.00    +0.000 A 
ATOM     44  C   UNL     1       4.293  -1.156  -2.298  0.00  0.00    +0.000 A 
ATOM     45  C   UNL     1       4.603  -0.532  -3.503  0.00  0.00    +0.000 A 
ATOM     46  C   UNL     1       4.817   0.848  -3.538  0.00  0.00    +0.000 A 
ATOM     47  C   UNL     1       4.736   1.600  -2.363  0.00  0.00    +0.000 A 
ATOM     48  C   UNL     1       4.425   0.975  -1.159  0.00  0.00    +0.000 A 
BRANCH  46  49
ATOM     49  C   UNL     1       5.133   1.534  -4.861  0.00  0.00    +0.000 C 
BRANCH  49  50
ATOM     50  N   UNL     1       3.950   1.675  -5.716  0.00  0.00    +0.000 NA
ATOM     51  C   UNL     1       3.002   2.666  -5.186  0.00  0.00    +0.000 C 
ATOM     52  C   UNL     1       1.778   2.790  -6.125  0.00  0.00    +0.000 C 
ATOM     53  N   UNL     1       2.187   3.254  -7.463  0.00  0.00    +0.000 N 
ATOM     54  C   UNL     1       3.105   2.222  -7.976  0.00  0.00    +0.000 C 
ATOM     55  C   UNL     1       4.351   2.091  -7.066  0.00  0.00    +0.000 C 
BRANCH  53  56
ATOM     56  C   UNL     1       1.261   3.786  -8.360  0.00  0.00    +0.000 A 
ATOM     57  C   UNL     1      -0.102   3.464  -8.284  0.00  0.00    +0.000 A 
ATOM     58  C   UNL     1      -0.992   4.011  -9.214  0.00  0.00    +0.000 A 
ATOM     59  N   UNL     1      -0.557   4.863 -10.182  0.00  0.00    +0.000 NA
ATOM     60  N   UNL     1       0.742   5.188 -10.267  0.00  0.00    +0.000 NA
ATOM     61  C   UNL     1       1.640   4.673  -9.388  0.00  0.00    +0.000 A 
BRANCH  58  62
ATOM     62  C   UNL     1      -2.457   3.719  -9.196  0.00  0.00    +0.000 A 
ATOM     63  C   UNL     1      -2.962   2.410  -9.066  0.00  0.00    +0.000 A 
ATOM     64  C   UNL     1      -4.340   2.181  -9.037  0.00  0.00    +0.000 A 
ATOM     65  C   UNL     1      -5.233   3.245  -9.142  0.00  0.00    +0.000 A 
ATOM     66  C   UNL     1      -4.750   4.543  -9.280  0.00  0.00    +0.000 A 
ATOM     67  C   UNL     1      -3.375   4.775  -9.307  0.00  0.00    +0.000 A 
BRANCH  63  68
ATOM     68  O   UNL     1      -2.130   1.321  -8.990  0.00  0.00    +0.000 OA
ATOM     69  H   UNL     1      -1.202   1.556  -9.057  0.00  0.00    +0.000 HD
ENDBRANCH  63  68
ENDBRANCH  58  62
BRANCH  61  70
ATOM     70  N   UNL     1       2.960   5.102  -9.556  0.00  0.00    +0.000 N 
ATOM     71  H   UNL     1       3.672   4.770  -8.921  0.00  0.00    +0.000 HD
ATOM     72  H   UNL     1       3.179   5.751 -10.298  0.00  0.00    +0.000 HD
ENDBRANCH  61  70
ENDBRANCH  53  56
ENDBRANCH  49  50
ENDBRANCH  46  49
ENDBRANCH  42  43
ENDBRANCH  41  42
ENDBRANCH  40  41
ENDBRANCH   1  40
TORSDOF 19
