ligand
                    3D
 Structure written by MMmdl.
124131  0  0  1  0            999 V2000
    1.7915   -0.4264    6.4705 N   0  0  0  0  0  0
    1.9587    1.1931    4.6590 C   0  0  0  0  0  0
    4.7178   -1.1537    6.2817 C   0  0  0  0  0  0
    4.9593    0.4311    4.3660 C   0  0  0  0  0  0
    3.4510   -1.5737    4.1631 C   0  0  0  0  0  0
    1.6412    3.4014    3.4198 C   0  0  1  0  0  0
    3.0412    3.3445    5.3672 C   0  0  0  0  0  0
    1.6555    2.7876    2.0048 C   0  0  0  0  0  0
    0.1939   -0.1650    0.1787 C   0  0  0  0  0  0
   -0.5679   -1.3417    0.2835 C   0  0  0  0  0  0
   -1.9648   -1.3026    0.2913 C   0  0  0  0  0  0
   -1.8709    1.1058    0.0843 C   0  0  0  0  0  0
   -2.5475   -3.6995    1.2206 C   0  0  0  0  0  0
   -4.3179   -4.3902    0.1528 C   0  0  0  0  0  0
    2.7582    0.3903    5.7239 C   0  0  2  0  0  0
    3.9456   -0.4630    5.1275 C   0  0  0  0  0  0
    2.2211    2.5176    4.4650 N   0  0  0  0  0  0
    1.1216    0.5743    3.9968 O   0  0  0  0  0  0
    2.4617    4.6950    3.4823 C   0  0  0  0  0  0
    2.7598    4.7964    4.9691 C   0  0  1  0  0  0
    1.6706    5.3452    5.6896 O   0  0  0  0  0  0
    2.6490    2.1700    1.6213 O   0  0  0  0  0  0
    0.5541    2.9969    1.2673 N   0  0  0  0  0  0
    0.2984    2.3808   -0.0332 C   0  0  0  0  0  0
   -0.4732    1.0684    0.0908 C   0  0  0  0  0  0
   -2.6111   -0.0690    0.1877 C   0  0  0  0  0  0
   -2.7428   -2.5683    0.4137 C   0  0  0  0  0  0
   -3.4182   -4.6797    1.0545 N   0  0  0  0  0  0
   -4.1502   -2.8375   -0.5846 S   0  0  0  0  0  0
   -1.4761   -3.9440    2.2633 C   0  0  0  0  0  0
    1.5883   -0.3989    7.7993 C   0  0  0  0  0  0
    0.4968   -1.3430    8.3448 C   0  0  0  0  0  0
    2.2290    0.3302    8.5599 O   0  0  0  0  0  0
   -0.1353   -2.0932    7.4384 F   0  0  0  0  0  0
   -0.3132   -0.8634    9.5318 C   0  0  0  0  0  0
    0.7199   -1.9547    9.7127 C   0  0  0  0  0  0
    1.5762   -0.1513    0.1605 O   0  0  0  0  0  0
    2.3027   -1.3719    0.2755 C   0  0  0  0  0  0
    3.8103   -1.0838    0.1806 C   0  0  0  0  0  0
    5.1328    1.5345   -4.8609 C   0  0  0  0  0  0
    3.9501    1.6753   -5.7163 N   0  0  0  0  0  0
    3.0019    2.6662   -5.1859 C   0  0  0  0  0  0
    1.7782    2.7896   -6.1255 C   0  0  0  0  0  0
    2.1868    3.2536   -7.4634 N   0  0  0  0  0  0
    3.1053    2.2223   -7.9759 C   0  0  0  0  0  0
    4.3507    2.0906   -7.0659 C   0  0  0  0  0  0
    1.2611    3.7858   -8.3597 C   0  0  0  0  0  0
   -0.1022    3.4641   -8.2838 C   0  0  0  0  0  0
   -0.9917    4.0106   -9.2143 C   0  0  0  0  0  0
   -0.5570    4.8630  -10.1816 N   0  0  0  0  0  0
    0.7416    5.1879  -10.2671 N   0  0  0  0  0  0
    1.6397    4.6735   -9.3879 C   0  0  0  0  0  0
    2.9596    5.1018   -9.5562 N   0  0  0  0  0  0
   -2.4565    3.7191   -9.1963 C   0  0  0  0  0  0
   -2.9624    2.4097   -9.0661 C   0  0  0  0  0  0
   -4.3402    2.1814   -9.0368 C   0  0  0  0  0  0
   -5.2328    3.2452   -9.1421 C   0  0  0  0  0  0
   -4.7498    4.5432   -9.2797 C   0  0  0  0  0  0
   -3.3754    4.7751   -9.3067 C   0  0  0  0  0  0
   -2.1301    1.3212   -8.9896 O   0  0  0  0  0  0
    4.1961   -0.4027   -1.1258 C   0  0  0  0  0  0
    4.2932   -1.1561   -2.2979 C   0  0  0  0  0  0
    4.6033   -0.5316   -3.5026 C   0  0  0  0  0  0
    4.8170    0.8483   -3.5378 C   0  0  0  0  0  0
    4.7359    1.5996   -2.3633 C   0  0  0  0  0  0
    4.4254    0.9747   -1.1590 C   0  0  0  0  0  0
    1.2257   -1.0436    5.9057 H   0  0  0  0  0  0
    5.5888   -1.6994    5.9156 H   0  0  0  0  0  0
    4.0970   -1.8742    6.8155 H   0  0  0  0  0  0
    5.0763   -0.4288    7.0140 H   0  0  0  0  0  0
    5.3673    1.2111    5.0093 H   0  0  0  0  0  0
    4.5099    0.9184    3.5000 H   0  0  0  0  0  0
    5.8042   -0.1493    3.9926 H   0  0  0  0  0  0
    4.2768   -2.1902    3.8053 H   0  0  0  0  0  0
    2.9691   -1.1559    3.2803 H   0  0  0  0  0  0
    2.7359   -2.2430    4.6425 H   0  0  0  0  0  0
    0.6096    3.6429    3.6810 H   0  0  0  0  0  0
    4.0936    3.1073    5.2111 H   0  0  0  0  0  0
    2.8147    3.1790    6.4215 H   0  0  0  0  0  0
   -0.0829   -2.3032    0.3534 H   0  0  0  0  0  0
   -2.3896    2.0504    0.0070 H   0  0  0  0  0  0
   -5.1172   -5.0607   -0.1264 H   0  0  0  0  0  0
    3.2092    1.0886    6.4252 H   0  0  0  0  0  0
    1.9064    5.5446    3.0822 H   0  0  0  0  0  0
    3.3861    4.5810    2.9120 H   0  0  0  0  0  0
    3.6399    5.4168    5.1427 H   0  0  0  0  0  0
    1.8866    5.3359    6.6251 H   0  0  0  0  0  0
   -0.2161    3.4992    1.6842 H   0  0  0  0  0  0
    1.2242    2.2170   -0.5898 H   0  0  0  0  0  0
   -0.2803    3.0854   -0.6321 H   0  0  0  0  0  0
   -3.6899   -0.0142    0.1929 H   0  0  0  0  0  0
   -0.9621   -3.0262    2.5495 H   0  0  0  0  0  0
   -0.7153   -4.6362    1.9020 H   0  0  0  0  0  0
   -1.8848   -4.3658    3.1826 H   0  0  0  0  0  0
   -1.3706   -1.1256    9.5772 H   0  0  0  0  0  0
   -0.1141    0.1169    9.9673 H   0  0  0  0  0  0
    1.6282   -1.7236   10.2710 H   0  0  0  0  0  0
    0.3810   -2.9764    9.8851 H   0  0  0  0  0  0
    2.0781   -1.8525    1.2285 H   0  0  0  0  0  0
    2.0161   -2.0705   -0.5128 H   0  0  0  0  0  0
    4.3690   -2.0162    0.2734 H   0  0  0  0  0  0
    4.1245   -0.4715    1.0276 H   0  0  0  0  0  0
    5.6010    2.5051   -4.6854 H   0  0  0  0  0  0
    5.8815    0.9277   -5.3735 H   0  0  0  0  0  0
    3.4990    3.6338   -5.0898 H   0  0  0  0  0  0
    2.6628    2.3729   -4.1919 H   0  0  0  0  0  0
    1.0706    3.4976   -5.6922 H   0  0  0  0  0  0
    1.2669    1.8282   -6.2085 H   0  0  0  0  0  0
    3.4320    2.4672   -8.9869 H   0  0  0  0  0  0
    2.5779    1.2681   -8.0394 H   0  0  0  0  0  0
    5.0396    1.3610   -7.4941 H   0  0  0  0  0  0
    4.8776    3.0460   -7.0128 H   0  0  0  0  0  0
   -0.4721    2.7995   -7.5167 H   0  0  0  0  0  0
    3.6716    4.7703   -8.9213 H   0  0  0  0  0  0
    3.1788    5.7511  -10.2977 H   0  0  0  0  0  0
   -4.7223    1.1753   -8.9390 H   0  0  0  0  0  0
   -6.2973    3.0630   -9.1209 H   0  0  0  0  0  0
   -5.4392    5.3705   -9.3635 H   0  0  0  0  0  0
   -3.0233    5.7919   -9.4065 H   0  0  0  0  0  0
   -1.2018    1.5565   -9.0567 H   0  0  0  0  0  0
    4.1145   -2.2214   -2.2788 H   0  0  0  0  0  0
    4.6648   -1.1169   -4.4086 H   0  0  0  0  0  0
    4.9016    2.6669   -2.3829 H   0  0  0  0  0  0
    4.3546    1.5647   -0.2578 H   0  0  0  0  0  0
  1 15  1  0  0  0
  1 31  1  0  0  0
  1 67  1  0  0  0
  2 15  1  0  0  0
  2 17  1  0  0  0
  2 18  2  0  0  0
  3 16  1  0  0  0
  3 68  1  0  0  0
  3 69  1  0  0  0
  3 70  1  0  0  0
  4 16  1  0  0  0
  4 71  1  0  0  0
  4 72  1  0  0  0
  4 73  1  0  0  0
  5 16  1  0  0  0
  5 74  1  0  0  0
  5 75  1  0  0  0
  5 76  1  0  0  0
  6  8  1  0  0  0
  6 17  1  0  0  0
  6 19  1  0  0  0
  6 77  1  0  0  0
  7 17  1  0  0  0
  7 20  1  0  0  0
  7 78  1  0  0  0
  7 79  1  0  0  0
  8 22  2  0  0  0
  8 23  1  0  0  0
  9 10  1  0  0  0
  9 25  2  0  0  0
  9 37  1  0  0  0
 10 11  2  0  0  0
 10 80  1  0  0  0
 11 26  1  0  0  0
 11 27  1  0  0  0
 12 25  1  0  0  0
 12 26  2  0  0  0
 12 81  1  0  0  0
 13 27  2  0  0  0
 13 28  1  0  0  0
 13 30  1  0  0  0
 14 28  2  0  0  0
 14 29  1  0  0  0
 14 82  1  0  0  0
 15 16  1  0  0  0
 15 83  1  0  0  0
 19 20  1  0  0  0
 19 84  1  0  0  0
 19 85  1  0  0  0
 20 21  1  0  0  0
 20 86  1  0  0  0
 21 87  1  0  0  0
 23 24  1  0  0  0
 23 88  1  0  0  0
 24 25  1  0  0  0
 24 89  1  0  0  0
 24 90  1  0  0  0
 26 91  1  0  0  0
 27 29  1  0  0  0
 30 92  1  0  0  0
 30 93  1  0  0  0
 30 94  1  0  0  0
 31 32  1  0  0  0
 31 33  2  0  0  0
 32 34  1  0  0  0
 32 35  1  0  0  0
 32 36  1  0  0  0
 35 36  1  0  0  0
 35 95  1  0  0  0
 35 96  1  0  0  0
 36 97  1  0  0  0
 36 98  1  0  0  0
 37 38  1  0  0  0
 38 39  1  0  0  0
 38 99  1  0  0  0
 38100  1  0  0  0
 39 61  1  0  0  0
 39101  1  0  0  0
 39102  1  0  0  0
 40 41  1  0  0  0
 40 64  1  0  0  0
 40103  1  0  0  0
 40104  1  0  0  0
 41 42  1  0  0  0
 41 46  1  0  0  0
 42 43  1  0  0  0
 42105  1  0  0  0
 42106  1  0  0  0
 43 44  1  0  0  0
 43107  1  0  0  0
 43108  1  0  0  0
 44 45  1  0  0  0
 44 47  1  0  0  0
 45 46  1  0  0  0
 45109  1  0  0  0
 45110  1  0  0  0
 46111  1  0  0  0
 46112  1  0  0  0
 47 48  1  0  0  0
 47 52  2  0  0  0
 48 49  2  0  0  0
 48113  1  0  0  0
 49 50  1  0  0  0
 49 54  1  0  0  0
 50 51  2  0  0  0
 51 52  1  0  0  0
 52 53  1  0  0  0
 53114  1  0  0  0
 53115  1  0  0  0
 54 55  1  0  0  0
 54 59  2  0  0  0
 55 56  2  0  0  0
 55 60  1  0  0  0
 56 57  1  0  0  0
 56116  1  0  0  0
 57 58  2  0  0  0
 57117  1  0  0  0
 58 59  1  0  0  0
 58118  1  0  0  0
 59119  1  0  0  0
 60120  1  0  0  0
 61 62  1  0  0  0
 61 66  2  0  0  0
 62 63  2  0  0  0
 62121  1  0  0  0
 63 64  1  0  0  0
 63122  1  0  0  0
 64 65  2  0  0  0
 65 66  1  0  0  0
 65123  1  0  0  0
 66124  1  0  0  0
M  END
> <s_m_entry_id>
13

> <s_m_entry_name>
6hr2.1_ligand

> <s_m_source_file>
ligprep_1.maegz

> <i_m_source_file_index>
1

> <i_lp_mmshare_version>
38013

> <i_f3d_flags>
0

> <s_lp_Force_Field>
OPLS3

> <r_lp_Energy>
105.188621881688

> <b_lp_Chiralities_Consistent>
1

> <s_lp_Variant>
ligand-1

> <s_m_job_name>
ligprep_1

> <s_m_subgroup_title>
ligprep_1-out1

> <s_m_subgroupid>
ligprep_1-out1

> <b_m_subgroup_collapsed>
0

$$$$
