0:0:0
                    3D
 Structure written by MMmdl.
 62 68  0  0  1  0            999 V2000
   74.3150   35.3370   47.3580 C   0  0  0  0  0  0
   73.8420   34.2040   48.2960 C   0  0  0  0  0  0
   74.9480   33.3900   48.9970 C   0  0  0  0  0  0
   74.3790   32.1940   49.8450 C   0  0  0  0  0  0
   74.9570   31.0430   52.0930 C   0  0  0  0  0  0
   74.4930   29.9240   51.8780 O   0  0  0  0  0  0
   74.6010   32.1560   51.3030 N   0  0  0  0  0  0
   74.9010   33.0300   51.7220 H   0  0  0  0  0  0
   75.8320   31.1750   53.4010 C   0  0  0  0  0  0
   76.7110   32.7310   57.6050 N   0  0  0  0  0  0
   75.3570   34.5680   58.6520 C   0  0  0  0  0  0
   75.6800   33.5850   57.5600 C   0  0  0  0  0  0
   75.6630   32.5450   55.7150 C   0  0  0  0  0  0
   74.7900   34.5390   53.6500 C   0  0  0  0  0  0
   75.2530   32.2980   54.2710 C   0  0  1  0  0  0
   73.6820   34.6030   54.6480 C   0  0  0  0  0  0
   73.8380   34.1870   55.9560 C   0  0  0  0  0  0
   71.5750   35.1050   55.4880 C   0  0  0  0  0  0
   70.1630   35.5590   55.6390 C   0  0  0  0  0  0
   72.3550   35.0660   54.3520 C   0  0  0  0  0  0
   71.8410   35.4570   52.9890 C   0  0  0  0  0  0
   76.7120   32.0600   56.3880 N   0  0  0  0  0  0
   75.5310   33.5170   53.5380 N   0  0  0  0  0  0
   74.9850   33.4920   56.4060 N   0  0  0  0  0  0
   72.4150   34.5030   56.8910 S   0  0  0  0  0  0
   75.1260   35.6850   52.7750 C   0  0  0  0  0  0
   74.7510   36.9890   53.1430 C   0  0  0  0  0  0
   75.1110   38.0810   52.3390 C   0  0  0  0  0  0
   75.8510   37.8850   51.1600 C   0  0  0  0  0  0
   76.2380   36.5890   50.7880 C   0  0  0  0  0  0
   75.8850   35.5000   51.6000 C   0  0  0  0  0  0
   76.2910   39.2310   50.1810 Cl  0  0  0  0  0  0
   73.1840   35.8810   46.4620 C   0  0  0  0  0  0
   71.9800   36.4050   47.2610 C   0  0  0  0  0  0
   70.8330   36.8980   46.3680 C   0  0  0  0  0  0
   69.5810   37.2740   47.1770 C   0  0  0  0  0  0
   69.8810   39.6380   47.7470 C   0  0  0  0  0  0
   69.8750   38.3550   48.1010 N   0  0  0  0  0  0
   69.4360   40.0610   46.6770 O   0  0  0  0  0  0
   70.2410   38.1090   49.0110 H   0  0  0  0  0  0
   70.5520   40.5930   48.6890 C   0  0  0  0  0  0
   69.9510   41.8490   48.4480 O   0  0  0  0  0  0
   69.1300   42.3590   49.3910 C   0  0  0  0  0  0
   69.1900   41.8590   50.7150 C   0  0  0  0  0  0
   69.2210   42.7630   51.7860 C   0  0  0  0  0  0
   69.0330   44.1390   51.5570 C   0  0  0  0  0  0
   68.7110   44.5400   50.2520 C   0  0  0  0  0  0
   68.3710   45.8800   49.7400 C   0  0  0  0  0  0
   68.6980   43.6800   49.1940 C   0  0  0  0  0  0
   68.3190   44.4710   47.9830 C   0  0  0  0  0  0
   68.1250   45.7480   48.4100 N   0  0  0  0  0  0
   68.3000   46.8900   50.4450 O   0  0  0  0  0  0
   68.1320   44.0250   46.8430 O   0  0  0  0  0  0
   67.5970   46.8200   47.5360 C   0  0  2  0  0  0
   68.3330   48.1750   47.6860 C   0  0  0  0  0  0
   66.3650   49.4430   47.1410 C   0  0  0  0  0  0
   65.5410   48.1770   46.8790 C   0  0  0  0  0  0
   66.0700   46.9930   47.7070 C   0  0  0  0  0  0
   67.6500   49.3170   47.5090 N   0  0  0  0  0  0
   65.8480   50.5530   46.9940 O   0  0  0  0  0  0
   69.5360   48.2000   47.9550 O   0  0  0  0  0  0
   68.1640   50.1720   47.6440 H   0  0  0  0  0  0
  1  2  1  0  0  0
  1 33  1  0  0  0
  2  3  1  0  0  0
  3  4  1  0  0  0
  4  7  1  0  0  0
  5  9  1  0  0  0
  5  6  2  0  0  0
  5  7  1  0  0  0
  7  8  1  0  0  0
  9 15  1  0  0  0
 10 12  2  0  0  0
 10 22  1  0  0  0
 11 12  1  0  0  0
 12 24  1  0  0  0
 13 22  2  0  0  0
 13 24  1  0  0  0
 13 15  1  0  0  0
 14 16  1  0  0  0
 14 23  2  0  0  0
 14 26  1  0  0  0
 15 23  1  0  0  0
 16 17  2  0  0  0
 16 20  1  0  0  0
 17 24  1  0  0  0
 17 25  1  0  0  0
 18 19  1  0  0  0
 18 25  1  0  0  0
 18 20  2  0  0  0
 20 21  1  0  0  0
 26 27  1  0  0  0
 26 31  2  0  0  0
 27 28  2  0  0  0
 28 29  1  0  0  0
 29 30  2  0  0  0
 29 32  1  0  0  0
 30 31  1  0  0  0
 33 34  1  0  0  0
 34 35  1  0  0  0
 35 36  1  0  0  0
 36 38  1  0  0  0
 37 38  1  0  0  0
 37 41  1  0  0  0
 37 39  2  0  0  0
 38 40  1  0  0  0
 41 42  1  0  0  0
 42 43  1  0  0  0
 43 44  1  0  0  0
 43 49  2  0  0  0
 44 45  2  0  0  0
 45 46  1  0  0  0
 46 47  2  0  0  0
 47 48  1  0  0  0
 47 49  1  0  0  0
 48 52  2  0  0  0
 48 51  1  0  0  0
 49 50  1  0  0  0
 50 51  1  0  0  0
 50 53  2  0  0  0
 51 54  1  0  0  0
 54 55  1  0  0  0
 54 58  1  0  0  0
 55 61  2  0  0  0
 55 59  1  0  0  0
 56 59  1  0  0  0
 56 57  1  0  0  0
 56 60  2  0  0  0
 57 58  1  0  0  0
 59 62  1  0  0  0
M  END
> <TORSDO>
F 16

> <SCORE>
-12.021

> <name>
0

> <ligand_id>
0

> <original_smiles>
[H]c1c([H])c(OC([H])([H])C(=O)N([H])C([H])([H])C([H])([H])C([H])([H])C([H])([H])C([H])([H])C([H])([H])C([H])([H])C([H])([H])N([H])C(=O)C([H])([H])C2([H])N=C(c3c([H])c([H])c(Cl)c([H])c3[H])c3c(sc(C([H])([H])[H])c3C([H])([H])[H])-n3c(C([H])([H])[H])nnc32)c2c(c1[H])C(=O)N(C1([H])C(=O)N([H])C(=O)C([H])([H])C1([H])[H])C2=O

> <smiles>
[H]c1c([H])c(OC([H])([H])C(=O)N([H])C([H])([H])C([H])([H])C([H])([H])C([H])([H])C([H])([H])C([H])([H])C([H])([H])C([H])([H])N([H])C(=O)C([H])([H])C2([H])N=C(c3c([H])c([H])c(Cl)c([H])c3[H])c3c(sc(C([H])([H])[H])c3C([H])([H])[H])-n3c(C([H])([H])[H])nnc32)c2c(c1[H])C(=O)N(C1([H])C(=O)N([H])C(=O)C([H])([H])C1([H])[H])C2=O

> <chiral flag>
1

> <version>
0

$$$$
