MODEL 1
REMARK VINA RESULT:   -10.074      0.000      0.000
REMARK INTER + INTRA:         -25.379
REMARK INTER:                 -21.328
REMARK INTRA:                  -4.051
REMARK UNBOUND:                -2.643
REMARK  Name = 
REMARK  29 active torsions:
REMARK  status: ('A' for Active; 'I' for Inactive)
REMARK    1  A    between atoms: C_9  and  C_19
REMARK    2  A    between atoms: C_11  and  C_28
REMARK    3  A    between atoms: C_12  and  C_39
REMARK    4  A    between atoms: C_13  and  C_32
REMARK    5  A    between atoms: C_15  and  C_33
REMARK    6  A    between atoms: C_18  and  C_34
REMARK    7  A    between atoms: C_20  and  C_35
REMARK    8  A    between atoms: C_21  and  C_30
REMARK    9  A    between atoms: C_22  and  C_48
REMARK   10  A    between atoms: C_23  and  C_40
REMARK   11  A    between atoms: C_24  and  C_41
REMARK   12  A    between atoms: C_29  and  C_40
REMARK   13  A    between atoms: C_31  and  O_63
REMARK   14  A    between atoms: C_36  and  C_49
REMARK   15  A    between atoms: C_37  and  C_49
REMARK   16  A    between atoms: C_38  and  C_49
REMARK   17  A    between atoms: C_39  and  N_56
REMARK   18  A    between atoms: C_41  and  O_64
REMARK   19  A    between atoms: C_42  and  C_43
REMARK   20  A    between atoms: C_42  and  N_57
REMARK   21  A    between atoms: C_43  and  O_65
REMARK   22  A    between atoms: C_44  and  C_45
REMARK   23  A    between atoms: C_44  and  O_64
REMARK   24  A    between atoms: C_45  and  O_66
REMARK   25  A    between atoms: C_46  and  C_47
REMARK   26  A    between atoms: C_46  and  O_65
REMARK   27  A    between atoms: C_47  and  O_66
REMARK   28  A    between atoms: C_48  and  C_49
REMARK   29  A    between atoms: C_48  and  N_58
REMARK                            x       y       z     vdW  Elec       q    Type
REMARK                         _______ _______ _______ _____ _____    ______ ____
ROOT
ATOM      1  O   UNL     1      22.163 -27.995 -14.394  0.00  0.00    +0.000 OA
ENDROOT
BRANCH   1   2
ATOM      2  C   UNL     1      21.884 -26.694 -13.893  0.00  0.00    +0.000 C 
BRANCH   2   3
ATOM      3  C   UNL     1      21.786 -25.726 -15.057  0.00  0.00    +0.000 C 
BRANCH   3   4
ATOM      4  O   UNL     1      20.937 -24.647 -14.690  0.00  0.00    +0.000 OA
BRANCH   4   5
ATOM      5  C   UNL     1      19.918 -25.067 -13.791  0.00  0.00    +0.000 C 
BRANCH   5   6
ATOM      6  C   UNL     1      19.685 -23.977 -12.763  0.00  0.00    +0.000 C 
BRANCH   6   7
ATOM      7  O   UNL     1      20.715 -23.005 -12.875  0.00  0.00    +0.000 OA
BRANCH   7   8
ATOM      8  C   UNL     1      21.336 -22.755 -11.621  0.00  0.00    +0.000 C 
BRANCH   8   9
ATOM      9  C   UNL     1      22.709 -22.146 -11.849  0.00  0.00    +0.000 C 
BRANCH   9  11
ATOM     10  C   UNL     1      23.942 -22.909 -13.870  0.00  0.00    +0.000 C 
ATOM     11  N   UNL     1      23.593 -23.059 -12.536  0.00  0.00    +0.000 N 
ATOM     12  O   UNL     1      23.552 -22.008 -14.607  0.00  0.00    +0.000 OA
ATOM     13  H   UNL     1      23.964 -23.821 -12.035  0.00  0.00    +0.000 HD
BRANCH  10  14
ATOM     14  C   UNL     1      24.880 -24.009 -14.318  0.00  0.00    +0.000 C 
BRANCH  14  22
ATOM     15  C   UNL     1      26.749 -24.974 -17.007  0.00  0.00    +0.000 A 
ATOM     16  C   UNL     1      26.331 -25.651 -18.212  0.00  0.00    +0.000 A 
ATOM     17  C   UNL     1      26.548 -27.010 -18.179  0.00  0.00    +0.000 A 
ATOM     18  C   UNL     1      27.207 -25.910 -16.101  0.00  0.00    +0.000 A 
ATOM     19  C   UNL     1      27.308 -24.581 -14.021  0.00  0.00    +0.000 A 
ATOM     20  C   UNL     1      28.376 -26.471 -13.962  0.00  0.00    +0.000 A 
ATOM     21  C   UNL     1      26.741 -23.521 -16.820  0.00  0.00    +0.000 C 
ATOM     22  C   UNL     1      26.327 -23.532 -14.410  0.00  0.00    +0.000 C 
ATOM     23  C   UNL     1      25.721 -24.977 -19.392  0.00  0.00    +0.000 C 
ATOM     24  C   UNL     1      26.240 -28.030 -19.205  0.00  0.00    +0.000 C 
ATOM     25  C   UNL     1      28.828 -27.852 -14.235  0.00  0.00    +0.000 C 
ATOM     26  N   UNL     1      27.908 -24.677 -12.852  0.00  0.00    +0.000 NA
ATOM     27  N   UNL     1      28.580 -25.870 -12.814  0.00  0.00    +0.000 NA
ATOM     28  N   UNL     1      26.586 -22.914 -15.700  0.00  0.00    +0.000 NA
ATOM     29  N   UNL     1      27.619 -25.681 -14.795  0.00  0.00    +0.000 N 
ATOM     30  S   UNL     1      27.257 -27.495 -16.707  0.00  0.00    +0.000 S 
BRANCH  21  35
ATOM     31  C   UNL     1      28.142 -22.738 -18.732  0.00  0.00    +0.000 A 
ATOM     32  C   UNL     1      25.933 -21.803 -18.440  0.00  0.00    +0.000 A 
ATOM     33  C   UNL     1      28.332 -21.939 -19.859  0.00  0.00    +0.000 A 
ATOM     34  C   UNL     1      26.123 -21.005 -19.568  0.00  0.00    +0.000 A 
ATOM     35  C   UNL     1      26.943 -22.670 -18.023  0.00  0.00    +0.000 A 
ATOM     36  C   UNL     1      27.322 -21.073 -20.278  0.00  0.00    +0.000 A 
ATOM     37 CL   UNL     1      27.556 -20.087 -21.669  0.00  0.00    +0.000 Cl
ENDBRANCH  21  35
ENDBRANCH  14  22
ENDBRANCH  10  14
ENDBRANCH   9  11
ENDBRANCH   8   9
ENDBRANCH   7   8
ENDBRANCH   6   7
ENDBRANCH   5   6
ENDBRANCH   4   5
ENDBRANCH   3   4
ENDBRANCH   2   3
ENDBRANCH   1   2
BRANCH   1  38
ATOM     38  C   UNL     1      23.332 -28.003 -15.201  0.00  0.00    +0.000 C 
BRANCH  38  39
ATOM     39  C   UNL     1      23.612 -29.395 -15.726  0.00  0.00    +0.000 C 
ATOM     40  N   UNL     1      24.153 -30.212 -14.748  0.00  0.00    +0.000 N 
ATOM     41  O   UNL     1      23.377 -29.727 -16.885  0.00  0.00    +0.000 OA
ATOM     42  H   UNL     1      24.299 -29.838 -13.849  0.00  0.00    +0.000 HD
BRANCH  40  43
ATOM     43  C   UNL     1      24.514 -31.590 -14.987  0.00  0.00    +0.000 C 
BRANCH  43  44
ATOM     44  C   UNL     1      23.365 -32.429 -14.484  0.00  0.00    +0.000 C 
ATOM     45  C   UNL     1      20.933 -34.383 -16.488  0.00  0.00    +0.000 C 
ATOM     46  C   UNL     1      22.864 -33.034 -16.901  0.00  0.00    +0.000 C 
ATOM     47  C   UNL     1      21.410 -33.826 -15.146  0.00  0.00    +0.000 C 
ATOM     48  C   UNL     1      21.523 -33.416 -17.510  0.00  0.00    +0.000 C 
ATOM     49  N   UNL     1      22.628 -33.084 -15.458  0.00  0.00    +0.000 N 
ATOM     50  O   UNL     1      23.131 -32.499 -13.277  0.00  0.00    +0.000 OA
BRANCH  47  51
ATOM     51  C   UNL     1      21.649 -35.009 -14.230  0.00  0.00    +0.000 C 
ATOM     52  N   UNL     1      21.160 -34.837 -12.949  0.00  0.00    +0.000 N 
ATOM     53  O   UNL     1      22.232 -35.998 -14.660  0.00  0.00    +0.000 OA
ATOM     54  H   UNL     1      20.709 -33.990 -12.730  0.00  0.00    +0.000 HD
BRANCH  52  55
ATOM     55  C   UNL     1      21.278 -35.841 -11.917  0.00  0.00    +0.000 C 
BRANCH  55  61
ATOM     56  C   UNL     1      19.690 -35.386  -8.505  0.00  0.00    +0.000 A 
ATOM     57  C   UNL     1      21.351 -33.660  -8.816  0.00  0.00    +0.000 A 
ATOM     58  C   UNL     1      19.984 -35.896  -9.769  0.00  0.00    +0.000 A 
ATOM     59  C   UNL     1      21.646 -34.171 -10.080  0.00  0.00    +0.000 A 
ATOM     60  C   UNL     1      20.374 -34.268  -8.028  0.00  0.00    +0.000 A 
ATOM     61  C   UNL     1      20.961 -35.289 -10.557  0.00  0.00    +0.000 A 
BRANCH  60  64
ATOM     62  C   UNL     1      20.259 -34.767  -5.592  0.00  0.00    +0.000 C 
ATOM     63  C   UNL     1      18.019 -34.577  -5.346  0.00  0.00    +0.000 C 
ATOM     64  C   UNL     1      20.061 -33.721  -6.677  0.00  0.00    +0.000 C 
ATOM     65  C   UNL     1      21.649 -35.270  -5.309  0.00  0.00    +0.000 C 
ATOM     66  N   UNL     1      19.257 -35.236  -4.913  0.00  0.00    +0.000 NA
ATOM     67  S   UNL     1      18.314 -33.280  -6.561  0.00  0.00    +0.000 S 
ENDBRANCH  60  64
ENDBRANCH  55  61
ENDBRANCH  52  55
ENDBRANCH  47  51
BRANCH  48  68
ATOM     68  O   UNL     1      20.712 -32.252 -17.611  0.00  0.00    +0.000 OA
ATOM     69  H   UNL     1      21.074 -31.554 -17.044  0.00  0.00    +0.000 HD
ENDBRANCH  48  68
ENDBRANCH  43  44
BRANCH  43  73
ATOM     70  C   UNL     1      25.805 -33.331 -13.584  0.00  0.00    +0.000 C 
ATOM     71  C   UNL     1      26.357 -30.898 -13.388  0.00  0.00    +0.000 C 
ATOM     72  C   UNL     1      26.940 -32.143 -15.469  0.00  0.00    +0.000 C 
ATOM     73  C   UNL     1      25.878 -32.000 -14.357  0.00  0.00    +0.000 C 
ENDBRANCH  43  73
ENDBRANCH  40  43
ENDBRANCH  38  39
ENDBRANCH   1  38
TORSDOF 22
ENDMDL
MODEL 2
REMARK VINA RESULT:    -9.912      6.910     13.040
REMARK INTER + INTRA:         -25.013
REMARK INTER:                 -22.370
REMARK INTRA:                  -2.643
REMARK UNBOUND:                -2.643
REMARK  Name = 
REMARK  29 active torsions:
REMARK  status: ('A' for Active; 'I' for Inactive)
REMARK    1  A    between atoms: C_9  and  C_19
REMARK    2  A    between atoms: C_11  and  C_28
REMARK    3  A    between atoms: C_12  and  C_39
REMARK    4  A    between atoms: C_13  and  C_32
REMARK    5  A    between atoms: C_15  and  C_33
REMARK    6  A    between atoms: C_18  and  C_34
REMARK    7  A    between atoms: C_20  and  C_35
REMARK    8  A    between atoms: C_21  and  C_30
REMARK    9  A    between atoms: C_22  and  C_48
REMARK   10  A    between atoms: C_23  and  C_40
REMARK   11  A    between atoms: C_24  and  C_41
REMARK   12  A    between atoms: C_29  and  C_40
REMARK   13  A    between atoms: C_31  and  O_63
REMARK   14  A    between atoms: C_36  and  C_49
REMARK   15  A    between atoms: C_37  and  C_49
REMARK   16  A    between atoms: C_38  and  C_49
REMARK   17  A    between atoms: C_39  and  N_56
REMARK   18  A    between atoms: C_41  and  O_64
REMARK   19  A    between atoms: C_42  and  C_43
REMARK   20  A    between atoms: C_42  and  N_57
REMARK   21  A    between atoms: C_43  and  O_65
REMARK   22  A    between atoms: C_44  and  C_45
REMARK   23  A    between atoms: C_44  and  O_64
REMARK   24  A    between atoms: C_45  and  O_66
REMARK   25  A    between atoms: C_46  and  C_47
REMARK   26  A    between atoms: C_46  and  O_65
REMARK   27  A    between atoms: C_47  and  O_66
REMARK   28  A    between atoms: C_48  and  C_49
REMARK   29  A    between atoms: C_48  and  N_58
REMARK                            x       y       z     vdW  Elec       q    Type
REMARK                         _______ _______ _______ _____ _____    ______ ____
ROOT
ATOM      1  O   UNL     1      23.201 -36.082  -4.995  0.00  0.00    +0.000 OA
ENDROOT
BRANCH   1   2
ATOM      2  C   UNL     1      23.333 -34.749  -5.473  0.00  0.00    +0.000 C 
BRANCH   2   3
ATOM      3  C   UNL     1      22.887 -34.696  -6.921  0.00  0.00    +0.000 C 
BRANCH   3   4
ATOM      4  O   UNL     1      21.961 -33.630  -7.081  0.00  0.00    +0.000 OA
BRANCH   4   5
ATOM      5  C   UNL     1      20.618 -34.085  -6.963  0.00  0.00    +0.000 C 
BRANCH   5   6
ATOM      6  C   UNL     1      19.789 -33.468  -8.073  0.00  0.00    +0.000 C 
BRANCH   6   7
ATOM      7  O   UNL     1      19.400 -34.486  -8.983  0.00  0.00    +0.000 OA
BRANCH   7   8
ATOM      8  C   UNL     1      19.720 -35.780  -8.487  0.00  0.00    +0.000 C 
BRANCH   8   9
ATOM      9  C   UNL     1      20.230 -36.646  -9.626  0.00  0.00    +0.000 C 
BRANCH   9  11
ATOM     10  C   UNL     1      21.725 -35.095 -10.870  0.00  0.00    +0.000 C 
ATOM     11  N   UNL     1      20.570 -35.857 -10.788  0.00  0.00    +0.000 N 
ATOM     12  O   UNL     1      22.575 -35.000  -9.989  0.00  0.00    +0.000 OA
ATOM     13  H   UNL     1      19.953 -35.862 -11.557  0.00  0.00    +0.000 HD
BRANCH  10  14
ATOM     14  C   UNL     1      21.817 -34.380 -12.201  0.00  0.00    +0.000 C 
BRANCH  14  22
ATOM     15  C   UNL     1      22.721 -32.695 -15.029  0.00  0.00    +0.000 A 
ATOM     16  C   UNL     1      22.392 -31.348 -15.433  0.00  0.00    +0.000 A 
ATOM     17  C   UNL     1      21.332 -31.283 -16.309  0.00  0.00    +0.000 A 
ATOM     18  C   UNL     1      21.817 -33.569 -15.600  0.00  0.00    +0.000 A 
ATOM     19  C   UNL     1      22.259 -35.641 -14.328  0.00  0.00    +0.000 A 
ATOM     20  C   UNL     1      21.104 -35.903 -16.148  0.00  0.00    +0.000 A 
ATOM     21  C   UNL     1      23.873 -33.060 -14.200  0.00  0.00    +0.000 C 
ATOM     22  C   UNL     1      22.859 -35.008 -13.123  0.00  0.00    +0.000 C 
ATOM     23  C   UNL     1      23.106 -30.128 -14.966  0.00  0.00    +0.000 C 
ATOM     24  C   UNL     1      20.699 -30.096 -16.923  0.00  0.00    +0.000 C 
ATOM     25  C   UNL     1      20.229 -35.669 -17.318  0.00  0.00    +0.000 C 
ATOM     26  N   UNL     1      22.030 -36.929 -14.486  0.00  0.00    +0.000 NA
ATOM     27  N   UNL     1      21.299 -37.093 -15.634  0.00  0.00    +0.000 NA
ATOM     28  N   UNL     1      23.931 -34.067 -13.407  0.00  0.00    +0.000 NA
ATOM     29  N   UNL     1      21.734 -34.940 -15.395  0.00  0.00    +0.000 N 
ATOM     30  S   UNL     1      20.717 -32.833 -16.663  0.00  0.00    +0.000 S 
BRANCH  21  35
ATOM     31  C   UNL     1      25.698 -31.989 -15.524  0.00  0.00    +0.000 A 
ATOM     32  C   UNL     1      25.611 -31.619 -13.138  0.00  0.00    +0.000 A 
ATOM     33  C   UNL     1      26.836 -31.187 -15.607  0.00  0.00    +0.000 A 
ATOM     34  C   UNL     1      26.749 -30.816 -13.222  0.00  0.00    +0.000 A 
ATOM     35  C   UNL     1      25.086 -32.204 -14.289  0.00  0.00    +0.000 A 
ATOM     36  C   UNL     1      27.361 -30.601 -14.457  0.00  0.00    +0.000 A 
ATOM     37 CL   UNL     1      28.766 -29.612 -14.559  0.00  0.00    +0.000 Cl
ENDBRANCH  21  35
ENDBRANCH  14  22
ENDBRANCH  10  14
ENDBRANCH   9  11
ENDBRANCH   8   9
ENDBRANCH   7   8
ENDBRANCH   6   7
ENDBRANCH   5   6
ENDBRANCH   4   5
ENDBRANCH   3   4
ENDBRANCH   2   3
ENDBRANCH   1   2
BRANCH   1  38
ATOM     38  C   UNL     1      22.343 -36.147  -3.864  0.00  0.00    +0.000 C 
BRANCH  38  39
ATOM     39  C   UNL     1      22.988 -35.486  -2.664  0.00  0.00    +0.000 C 
ATOM     40  N   UNL     1      24.329 -35.814  -2.557  0.00  0.00    +0.000 N 
ATOM     41  O   UNL     1      22.369 -34.754  -1.897  0.00  0.00    +0.000 OA
ATOM     42  H   UNL     1      24.722 -36.414  -3.232  0.00  0.00    +0.000 HD
BRANCH  40  43
ATOM     43  C   UNL     1      25.178 -35.318  -1.499  0.00  0.00    +0.000 C 
BRANCH  43  44
ATOM     44  C   UNL     1      26.440 -34.819  -2.158  0.00  0.00    +0.000 C 
ATOM     45  C   UNL     1      28.127 -31.556  -1.652  0.00  0.00    +0.000 C 
ATOM     46  C   UNL     1      26.221 -32.701  -0.772  0.00  0.00    +0.000 C 
ATOM     47  C   UNL     1      27.996 -32.886  -2.394  0.00  0.00    +0.000 C 
ATOM     48  C   UNL     1      26.722 -31.305  -1.112  0.00  0.00    +0.000 C 
ATOM     49  N   UNL     1      26.869 -33.564  -1.758  0.00  0.00    +0.000 N 
ATOM     50  O   UNL     1      27.019 -35.514  -2.994  0.00  0.00    +0.000 OA
BRANCH  47  51
ATOM     51  C   UNL     1      29.309 -33.623  -2.227  0.00  0.00    +0.000 C 
ATOM     52  N   UNL     1      29.788 -34.192  -3.392  0.00  0.00    +0.000 N 
ATOM     53  O   UNL     1      29.840 -33.668  -1.123  0.00  0.00    +0.000 OA
ATOM     54  H   UNL     1      29.262 -34.083  -4.217  0.00  0.00    +0.000 HD
BRANCH  52  55
ATOM     55  C   UNL     1      31.024 -34.937  -3.457  0.00  0.00    +0.000 C 
BRANCH  55  61
ATOM     56  C   UNL     1      32.558 -32.736  -6.134  0.00  0.00    +0.000 A 
ATOM     57  C   UNL     1      34.330 -33.950  -5.029  0.00  0.00    +0.000 A 
ATOM     58  C   UNL     1      31.620 -33.356  -5.310  0.00  0.00    +0.000 A 
ATOM     59  C   UNL     1      33.391 -34.569  -4.204  0.00  0.00    +0.000 A 
ATOM     60  C   UNL     1      33.914 -33.033  -5.994  0.00  0.00    +0.000 A 
ATOM     61  C   UNL     1      32.035 -34.273  -4.346  0.00  0.00    +0.000 A 
BRANCH  60  64
ATOM     62  C   UNL     1      35.157 -30.928  -6.463  0.00  0.00    +0.000 C 
ATOM     63  C   UNL     1      34.224 -30.462  -8.470  0.00  0.00    +0.000 C 
ATOM     64  C   UNL     1      34.919 -32.372  -6.874  0.00  0.00    +0.000 C 
ATOM     65  C   UNL     1      35.808 -30.645  -5.136  0.00  0.00    +0.000 C 
ATOM     66  N   UNL     1      34.806 -29.940  -7.228  0.00  0.00    +0.000 NA
ATOM     67  S   UNL     1      34.302 -32.260  -8.568  0.00  0.00    +0.000 S 
ENDBRANCH  60  64
ENDBRANCH  55  61
ENDBRANCH  52  55
ENDBRANCH  47  51
BRANCH  48  68
ATOM     68  O   UNL     1      25.896 -30.750  -2.129  0.00  0.00    +0.000 OA
ATOM     69  H   UNL     1      25.403 -31.460  -2.568  0.00  0.00    +0.000 HD
ENDBRANCH  48  68
ENDBRANCH  43  44
BRANCH  43  73
ATOM     70  C   UNL     1      26.921 -36.342   0.108  0.00  0.00    +0.000 C 
ATOM     71  C   UNL     1      25.133 -37.781  -0.892  0.00  0.00    +0.000 C 
ATOM     72  C   UNL     1      24.542 -36.080   0.834  0.00  0.00    +0.000 C 
ATOM     73  C   UNL     1      25.458 -36.363  -0.377  0.00  0.00    +0.000 C 
ENDBRANCH  43  73
ENDBRANCH  40  43
ENDBRANCH  38  39
ENDBRANCH   1  38
TORSDOF 22
ENDMDL
