0000
                    3D
 Structure written by MMmdl.
131137  0  0  1  0            999 V2000
   18.6510  -25.3914  -13.8499 C   0  0  0  0  0  0
   17.5623  -24.5940  -15.8667 C   0  0  0  0  0  0
   26.9577  -27.1936  -17.0499 C   0  0  0  0  0  0
   28.7282  -25.6058  -16.5961 C   0  0  0  0  0  0
   27.3776  -27.2811  -18.3735 C   0  0  0  0  0  0
   29.1474  -25.6939  -17.9191 C   0  0  0  0  0  0
   17.4263  -25.3852  -13.1933 C   0  0  0  0  0  0
   16.3406  -24.5904  -15.1984 C   0  0  0  0  0  0
   18.7302  -25.0051  -15.1976 C   0  0  0  0  0  0
   20.0301  -25.0174  -17.4030 C   0  0  0  0  0  0
   27.6286  -26.3548  -16.1576 C   0  0  0  0  0  0
   28.4762  -26.5303  -18.8109 C   0  0  0  0  0  0
   19.1085  -25.8287  -18.2288 C   0  0  0  0  0  0
   16.2734  -24.9883  -13.8652 C   0  0  0  0  0  0
   19.3154  -25.5675  -19.6177 C   0  0  0  0  0  0
   20.9141  -24.2494  -18.2261 C   0  0  0  0  0  0
   22.6734  -23.6794  -16.5963 C   0  0  0  0  0  0
   22.4665  -22.2943  -18.2469 C   0  0  0  0  0  0
   20.0707  -24.9920  -15.8818 C   0  0  0  0  0  0
   27.1210  -24.8579  -14.1249 C   0  0  0  0  0  0
   27.8121  -27.6468  -22.1752 C   0  0  0  0  0  0
   24.9715  -28.3493  -23.2998 C   0  0  0  0  0  0
   23.2003  -27.4423  -15.5340 C   0  0  0  0  0  0
   22.0654  -29.5464  -23.5573 C   0  0  0  0  0  0
   28.5050  -29.4383  -23.8658 C   0  0  0  0  0  0
   26.5260  -29.1232  -25.1323 C   0  0  0  0  0  0
   28.6136  -25.6938  -12.6149 C   0  0  0  0  0  0
   27.1679  -26.2692  -14.6994 C   0  0  2  0  0  0
   22.4750  -24.9116  -15.7395 C   0  0  2  0  0  0
   27.4033  -28.9529  -22.9031 C   0  0  2  0  0  0
   28.0287  -28.8621  -25.1907 C   0  0  2  0  0  0
   18.0971  -26.8315  -17.6978 C   0  0  0  0  0  0
   18.6103  -26.1765  -20.8103 C   0  0  0  0  0  0
   21.9745  -21.6352  -19.5213 C   0  0  0  0  0  0
   26.2415  -23.7534  -14.6739 C   0  0  0  0  0  0
   23.7210  -25.4825  -23.5317 C   0  0  0  0  0  0
   25.2120  -26.0443  -25.4732 C   0  0  0  0  0  0
   22.7436  -26.1331  -25.7463 C   0  0  0  0  0  0
   28.9548  -26.6261  -20.2593 C   0  0  0  0  0  0
   22.9040  -26.2397  -16.4453 C   0  0  0  0  0  0
   20.6634  -29.6405  -22.9324 C   0  0  0  0  0  0
   23.9288  -29.7894  -15.3965 C   0  0  0  0  0  0
   22.7320  -30.5485  -14.7846 C   0  0  0  0  0  0
   21.3036  -30.4912  -20.7664 C   0  0  0  0  0  0
   20.9510  -31.6194  -19.8001 C   0  0  0  0  0  0
   22.2103  -32.2663  -16.3744 C   0  0  0  0  0  0
   21.3832  -32.4947  -17.6433 C   0  0  0  0  0  0
   23.8583  -27.9545  -24.3194 C   0  0  2  0  0  0
   23.8964  -26.4301  -24.7499 C   0  0  0  0  0  0
   23.5680  -22.7275  -16.4115 N   0  0  0  0  0  0
   23.4407  -21.8244  -17.4975 N   0  0  0  0  0  0
   21.1482  -24.9499  -15.1877 N   0  0  0  0  0  0
   27.8558  -24.5857  -13.1230 N   0  0  0  0  0  0
   21.9462  -23.4433  -17.7194 N   0  0  0  0  0  0
   26.1923  -28.7540  -23.7469 N   0  0  0  0  0  0
   28.4798  -27.7853  -21.0199 N   0  0  0  0  0  0
   23.5728  -28.5797  -16.1489 N   0  0  0  0  0  0
   22.5342  -28.3111  -23.7896 N   0  0  0  0  0  0
   27.5482  -26.5600  -22.6900 O   0  0  0  0  0  0
   24.7163  -28.2212  -22.0980 O   0  0  0  0  0  0
   23.1039  -27.3418  -14.3078 O   0  0  0  0  0  0
   22.7037  -30.5662  -23.8157 O   0  0  0  0  0  0
   28.6738  -29.3856  -26.3298 O   0  0  0  0  0  0
   20.5840  -30.6992  -21.9794 O   0  0  0  0  0  0
   21.8457  -31.0185  -15.7938 O   0  0  0  0  0  0
   21.7280  -31.5145  -18.6171 O   0  0  0  0  0  0
   20.5335  -24.4102  -19.8457 S   0  0  0  0  0  0
   28.3041  -27.1468  -13.6253 S   0  0  0  0  0  0
   14.7571  -24.9855  -13.0383 Cl  0  0  0  0  0  0
   19.5401  -25.6985  -13.3171 H   0  0  0  0  0  0
   17.6054  -24.2700  -16.8959 H   0  0  0  0  0  0
   26.1141  -27.7767  -16.7141 H   0  0  0  0  0  0
   29.2524  -24.9588  -15.9097 H   0  0  0  0  0  0
   26.8551  -27.9342  -19.0592 H   0  0  0  0  0  0
   29.9958  -25.1170  -18.2535 H   0  0  0  0  0  0
   17.3698  -25.6881  -12.1592 H   0  0  0  0  0  0
   15.4447  -24.2757  -15.7133 H   0  0  0  0  0  0
   28.5058  -30.5299  -23.8835 H   0  0  0  0  0  0
   29.5024  -29.0986  -23.5776 H   0  0  0  0  0  0
   26.3113  -30.1813  -25.2919 H   0  0  0  0  0  0
   25.9976  -28.5567  -25.8940 H   0  0  0  0  0  0
   28.3039  -25.8961  -11.5894 H   0  0  0  0  0  0
   29.6765  -25.4551  -12.6259 H   0  0  0  0  0  0
   26.1958  -26.7508  -14.5884 H   0  0  0  0  0  0
   23.1344  -24.7848  -14.8802 H   0  0  0  0  0  0
   27.2504  -29.7178  -22.1407 H   0  0  0  0  0  0
   28.1959  -27.7825  -25.1937 H   0  0  0  0  0  0
   18.1133  -27.7499  -18.2832 H   0  0  0  0  0  0
   17.0712  -26.4645  -17.7413 H   0  0  0  0  0  0
   18.3056  -27.1472  -16.6766 H   0  0  0  0  0  0
   17.8459  -26.8975  -20.5223 H   0  0  0  0  0  0
   19.3097  -26.6976  -21.4634 H   0  0  0  0  0  0
   18.1154  -25.4161  -21.4139 H   0  0  0  0  0  0
   22.2852  -22.1848  -20.4096 H   0  0  0  0  0  0
   22.3717  -20.6262  -19.6303 H   0  0  0  0  0  0
   20.8889  -21.5384  -19.5428 H   0  0  0  0  0  0
   25.1949  -23.9788  -14.4853 H   0  0  0  0  0  0
   26.3758  -23.6471  -15.7496 H   0  0  0  0  0  0
   26.4470  -22.7843  -14.2202 H   0  0  0  0  0  0
   23.6698  -24.4370  -23.8400 H   0  0  0  0  0  0
   24.5559  -25.5598  -22.8338 H   0  0  0  0  0  0
   22.8107  -25.6945  -22.9708 H   0  0  0  0  0  0
   25.2210  -24.9877  -25.7454 H   0  0  0  0  0  0
   25.3469  -26.6035  -26.3984 H   0  0  0  0  0  0
   26.0915  -26.2095  -24.8538 H   0  0  0  0  0  0
   22.7863  -25.1085  -26.1198 H   0  0  0  0  0  0
   21.7593  -26.2560  -25.2939 H   0  0  0  0  0  0
   22.7859  -26.7911  -26.6152 H   0  0  0  0  0  0
   30.0439  -26.6959  -20.2471 H   0  0  0  0  0  0
   28.7332  -25.6682  -20.7363 H   0  0  0  0  0  0
   23.8238  -26.0500  -17.0020 H   0  0  0  0  0  0
   22.1766  -26.5538  -17.1931 H   0  0  0  0  0  0
   20.3635  -28.6939  -22.4799 H   0  0  0  0  0  0
   19.9508  -29.8475  -23.7311 H   0  0  0  0  0  0
   24.6554  -29.5503  -14.6196 H   0  0  0  0  0  0
   24.4636  -30.4480  -16.0794 H   0  0  0  0  0  0
   22.1677  -29.8797  -14.1345 H   0  0  0  0  0  0
   23.0750  -31.3656  -14.1495 H   0  0  0  0  0  0
   22.3759  -30.4920  -20.9578 H   0  0  0  0  0  0
   21.0532  -29.5287  -20.3172 H   0  0  0  0  0  0
   19.8939  -31.5508  -19.5608 H   0  0  0  0  0  0
   21.1042  -32.5854  -20.2827 H   0  0  0  0  0  0
   22.0280  -33.0694  -15.6582 H   0  0  0  0  0  0
   23.2706  -32.2959  -16.6288 H   0  0  0  0  0  0
   20.3205  -32.4345  -17.4004 H   0  0  0  0  0  0
   21.5753  -33.4953  -18.0358 H   0  0  0  0  0  0
   23.9761  -28.5649  -25.2148 H   0  0  0  0  0  0
   28.7029  -28.7122  -20.6527 H   0  0  0  0  0  0
   23.6185  -28.6217  -17.1567 H   0  0  0  0  0  0
   21.9588  -27.5213  -23.5394 H   0  0  0  0  0  0
   28.7022  -30.3606  -26.3012 H   0  0  0  0  0  0
  1  7  2  0  0  0
  1  9  1  0  0  0
  1 70  1  0  0  0
  2  8  1  0  0  0
  2  9  2  0  0  0
  2 71  1  0  0  0
  3  5  2  0  0  0
  3 11  1  0  0  0
  3 72  1  0  0  0
  4  6  1  0  0  0
  4 11  2  0  0  0
  4 73  1  0  0  0
  5 12  1  0  0  0
  5 74  1  0  0  0
  6 12  2  0  0  0
  6 75  1  0  0  0
  7 14  1  0  0  0
  7 76  1  0  0  0
  8 14  2  0  0  0
  8 77  1  0  0  0
  9 19  1  0  0  0
 10 13  1  0  0  0
 10 16  2  0  0  0
 10 19  1  0  0  0
 11 28  1  0  0  0
 12 39  1  0  0  0
 13 15  2  0  0  0
 13 32  1  0  0  0
 14 69  1  0  0  0
 15 33  1  0  0  0
 15 67  1  0  0  0
 16 54  1  0  0  0
 16 67  1  0  0  0
 17 29  1  0  0  0
 17 50  2  0  0  0
 17 54  1  0  0  0
 18 34  1  0  0  0
 18 51  2  0  0  0
 18 54  1  0  0  0
 19 52  2  0  0  0
 20 28  1  0  0  0
 20 35  1  0  0  0
 20 53  2  0  0  0
 21 30  1  0  0  0
 21 56  1  0  0  0
 21 59  2  0  0  0
 22 48  1  0  0  0
 22 55  1  0  0  0
 22 60  2  0  0  0
 23 40  1  0  0  0
 23 57  1  0  0  0
 23 61  2  0  0  0
 24 41  1  0  0  0
 24 58  1  0  0  0
 24 62  2  0  0  0
 25 30  1  0  0  0
 25 31  1  0  0  0
 25 78  1  0  0  0
 25 79  1  0  0  0
 26 31  1  0  0  0
 26 55  1  0  0  0
 26 80  1  0  0  0
 26 81  1  0  0  0
 27 53  1  0  0  0
 27 68  1  0  0  0
 27 82  1  0  0  0
 27 83  1  0  0  0
 28 68  1  0  0  0
 28 84  1  0  0  0
 29 40  1  0  0  0
 29 52  1  0  0  0
 29 85  1  0  0  0
 30 55  1  0  0  0
 30 86  1  0  0  0
 31 63  1  0  0  0
 31 87  1  0  0  0
 32 88  1  0  0  0
 32 89  1  0  0  0
 32 90  1  0  0  0
 33 91  1  0  0  0
 33 92  1  0  0  0
 33 93  1  0  0  0
 34 94  1  0  0  0
 34 95  1  0  0  0
 34 96  1  0  0  0
 35 97  1  0  0  0
 35 98  1  0  0  0
 35 99  1  0  0  0
 36 49  1  0  0  0
 36100  1  0  0  0
 36101  1  0  0  0
 36102  1  0  0  0
 37 49  1  0  0  0
 37103  1  0  0  0
 37104  1  0  0  0
 37105  1  0  0  0
 38 49  1  0  0  0
 38106  1  0  0  0
 38107  1  0  0  0
 38108  1  0  0  0
 39 56  1  0  0  0
 39109  1  0  0  0
 39110  1  0  0  0
 40111  1  0  0  0
 40112  1  0  0  0
 41 64  1  0  0  0
 41113  1  0  0  0
 41114  1  0  0  0
 42 43  1  0  0  0
 42 57  1  0  0  0
 42115  1  0  0  0
 42116  1  0  0  0
 43 65  1  0  0  0
 43117  1  0  0  0
 43118  1  0  0  0
 44 45  1  0  0  0
 44 64  1  0  0  0
 44119  1  0  0  0
 44120  1  0  0  0
 45 66  1  0  0  0
 45121  1  0  0  0
 45122  1  0  0  0
 46 47  1  0  0  0
 46 65  1  0  0  0
 46123  1  0  0  0
 46124  1  0  0  0
 47 66  1  0  0  0
 47125  1  0  0  0
 47126  1  0  0  0
 48 49  1  0  0  0
 48 58  1  0  0  0
 48127  1  0  0  0
 50 51  1  0  0  0
 56128  1  0  0  0
 57129  1  0  0  0
 58130  1  0  0  0
 63131  1  0  0  0
M  END
> <s_m_entry_id>
23

> <s_m_entry_name>
0000.1

> <s_m_Source_Path>
/mnt/home/boqing/Schrodinger_Projects/5T35

> <s_m_Source_File>
0000.sdf

> <i_m_Source_File_Index>
1

> <s_m_job_name>
glide-dock_SP_rocs_0000_h

> <s_i_glide_gridfile>
glide-grid_crystal_ligand

> <i_i_glide_lignum>
1

> <i_i_glide_rotatable_bonds>
26

> <r_i_docking_score>
-7.73097076460276

> <r_i_glide_ligand_efficiency>
-0.11204305455946

> <r_i_glide_ligand_efficiency_sa>
-0.459551974592266

> <r_i_glide_ligand_efficiency_ln>
-1.47703734301402

> <r_i_glide_gscore>
-7.73097076460276

> <r_i_glide_evdw>
-56.5107574462891

> <r_i_glide_ecoul>
-14.332181930542

> <r_i_glide_energy>
-70.8429393768311

> <r_i_glide_einternal>
8.94262027740479

> <r_i_glide_emodel>
-102.267049320177

> <r_i_glide_intrahb_reward>
0

> <i_i_glide_confnum>
332

> <i_i_glide_posenum>
257

> <r_i_glide_eff_state_penalty>
0

> <Batch ID>
0

> <Smiles>
CC1=C(c2ccc(CNC(=O)[C@@H]3C[C@@H](O)CN3C(=O)[C@@H](N[101C](=O)[100CH2]OCCOCCOCC[101NH][100C](=O)C[C@@H]3N=C(c4ccc(Cl)cc4)c4c(sc(C)c4C)-n4c(C)nnc43)C(C)(C)C)cc2)SCN1

> <Shape>
0.315

> <Color>
0.245

> <Negative vol penalty>
0

> <chiral flag>
1

> <version>
0

> <r_i_glide_lipo>
-2.0577117231932

> <r_i_glide_hbond>
-0.576

> <r_i_glide_metal>
0

> <r_i_glide_rewards>
-0.285181724047533

> <r_i_glide_erotb>
0.307008374704519

> <r_i_glide_esite>
-0.143720530170791

> <s_m_subgroup_title>
glide-dock_SP_rocs_0000_h_pv1

> <s_m_subgroupid>
glide-dock_SP_rocs_0000_h_pv1

> <b_m_subgroup_collapsed>
0

$$$$
