REMARK  Name = 
REMARK  29 active torsions:
REMARK  status: ('A' for Active; 'I' for Inactive)
REMARK    1  A    between atoms: C_9  and  C_19
REMARK    2  A    between atoms: C_11  and  C_28
REMARK    3  A    between atoms: C_12  and  C_39
REMARK    4  A    between atoms: C_13  and  C_32
REMARK    5  A    between atoms: C_15  and  C_33
REMARK    6  A    between atoms: C_18  and  C_34
REMARK    7  A    between atoms: C_20  and  C_35
REMARK    8  A    between atoms: C_21  and  C_30
REMARK    9  A    between atoms: C_22  and  C_48
REMARK   10  A    between atoms: C_23  and  C_40
REMARK   11  A    between atoms: C_24  and  C_41
REMARK   12  A    between atoms: C_29  and  C_40
REMARK   13  A    between atoms: C_31  and  O_63
REMARK   14  A    between atoms: C_36  and  C_49
REMARK   15  A    between atoms: C_37  and  C_49
REMARK   16  A    between atoms: C_38  and  C_49
REMARK   17  A    between atoms: C_39  and  N_56
REMARK   18  A    between atoms: C_41  and  O_64
REMARK   19  A    between atoms: C_42  and  C_43
REMARK   20  A    between atoms: C_42  and  N_57
REMARK   21  A    between atoms: C_43  and  O_65
REMARK   22  A    between atoms: C_44  and  C_45
REMARK   23  A    between atoms: C_44  and  O_64
REMARK   24  A    between atoms: C_45  and  O_66
REMARK   25  A    between atoms: C_46  and  C_47
REMARK   26  A    between atoms: C_46  and  O_65
REMARK   27  A    between atoms: C_47  and  O_66
REMARK   28  A    between atoms: C_48  and  C_49
REMARK   29  A    between atoms: C_48  and  N_58
REMARK                            x       y       z     vdW  Elec       q    Type
REMARK                         _______ _______ _______ _____ _____    ______ ____
ROOT
ATOM      1  O   UNL     1      28.475 -26.577 -13.937  0.00  0.00    +0.000 OA
ENDROOT
BRANCH   1   2
ATOM      2  C   UNL     1      29.325 -27.622 -14.392  0.00  0.00    +0.000 C 
BRANCH   2   3
ATOM      3  C   UNL     1      30.287 -27.997 -13.281  0.00  0.00    +0.000 C 
BRANCH   3   4
ATOM      4  O   UNL     1      29.542 -28.416 -12.146  0.00  0.00    +0.000 OA
BRANCH   4   5
ATOM      5  C   UNL     1      30.396 -28.781 -11.068  0.00  0.00    +0.000 C 
BRANCH   5   6
ATOM      6  C   UNL     1      29.618 -29.641 -10.091  0.00  0.00    +0.000 C 
BRANCH   6   7
ATOM      7  O   UNL     1      29.143 -30.797 -10.766  0.00  0.00    +0.000 OA
BRANCH   7   8
ATOM      8  C   UNL     1      28.422 -31.654  -9.890  0.00  0.00    +0.000 C 
BRANCH   8   9
ATOM      9  C   UNL     1      27.938 -32.871 -10.659  0.00  0.00    +0.000 C 
BRANCH   9  11
ATOM     10  C   UNL     1      27.522 -32.228 -13.025  0.00  0.00    +0.000 C 
ATOM     11  N   UNL     1      27.061 -32.504 -11.747  0.00  0.00    +0.000 N 
ATOM     12  O   UNL     1      28.698 -32.261 -13.377  0.00  0.00    +0.000 OA
ATOM     13  H   UNL     1      26.093 -32.447 -11.573  0.00  0.00    +0.000 HD
BRANCH  10  14
ATOM     14  C   UNL     1      26.381 -31.875 -13.955  0.00  0.00    +0.000 C 
BRANCH  14  22
ATOM     15  C   UNL     1      23.872 -29.633 -13.375  0.00  0.00    +0.000 A 
ATOM     16  C   UNL     1      22.730 -29.749 -12.499  0.00  0.00    +0.000 A 
ATOM     17  C   UNL     1      21.581 -30.141 -13.148  0.00  0.00    +0.000 A 
ATOM     18  C   UNL     1      23.503 -30.018 -14.649  0.00  0.00    +0.000 A 
ATOM     19  C   UNL     1      25.701 -30.257 -15.752  0.00  0.00    +0.000 A 
ATOM     20  C   UNL     1      23.996 -30.184 -17.096  0.00  0.00    +0.000 A 
ATOM     21  C   UNL     1      25.186 -29.124 -12.972  0.00  0.00    +0.000 C 
ATOM     22  C   UNL     1      26.516 -30.465 -14.525  0.00  0.00    +0.000 C 
ATOM     23  C   UNL     1      22.758 -29.480 -11.035  0.00  0.00    +0.000 C 
ATOM     24  C   UNL     1      20.231 -30.382 -12.593  0.00  0.00    +0.000 C 
ATOM     25  C   UNL     1      22.631 -30.267 -17.659  0.00  0.00    +0.000 C 
ATOM     26  N   UNL     1      26.152 -30.293 -16.990  0.00  0.00    +0.000 NA
ATOM     27  N   UNL     1      25.076 -30.249 -17.837  0.00  0.00    +0.000 NA
ATOM     28  N   UNL     1      26.309 -29.467 -13.488  0.00  0.00    +0.000 NA
ATOM     29  N   UNL     1      24.326 -30.132 -15.762  0.00  0.00    +0.000 N 
ATOM     30  S   UNL     1      21.851 -30.373 -14.815  0.00  0.00    +0.000 S 
BRANCH  21  35
ATOM     31  C   UNL     1      24.566 -26.895 -12.034  0.00  0.00    +0.000 A 
ATOM     32  C   UNL     1      25.931 -28.384 -10.708  0.00  0.00    +0.000 A 
ATOM     33  C   UNL     1      24.607 -25.947 -11.012  0.00  0.00    +0.000 A 
ATOM     34  C   UNL     1      25.971 -27.436  -9.686  0.00  0.00    +0.000 A 
ATOM     35  C   UNL     1      25.228 -28.113 -11.882  0.00  0.00    +0.000 A 
ATOM     36  C   UNL     1      25.309 -26.217  -9.838  0.00  0.00    +0.000 A 
ATOM     37 CL   UNL     1      25.360 -25.047  -8.577  0.00  0.00    +0.000 Cl
ENDBRANCH  21  35
ENDBRANCH  14  22
ENDBRANCH  10  14
ENDBRANCH   9  11
ENDBRANCH   8   9
ENDBRANCH   7   8
ENDBRANCH   6   7
ENDBRANCH   5   6
ENDBRANCH   4   5
ENDBRANCH   3   4
ENDBRANCH   2   3
ENDBRANCH   1   2
BRANCH   1  38
ATOM     38  C   UNL     1      27.565 -26.168 -14.949  0.00  0.00    +0.000 C 
BRANCH  38  39
ATOM     39  C   UNL     1      26.669 -25.056 -14.446  0.00  0.00    +0.000 C 
ATOM     40  N   UNL     1      25.785 -24.629 -15.423  0.00  0.00    +0.000 N 
ATOM     41  O   UNL     1      26.744 -24.608 -13.305  0.00  0.00    +0.000 OA
ATOM     42  H   UNL     1      25.815 -25.062 -16.307  0.00  0.00    +0.000 HD
BRANCH  40  43
ATOM     43  C   UNL     1      24.821 -23.576 -15.204  0.00  0.00    +0.000 C 
BRANCH  43  44
ATOM     44  C   UNL     1      23.620 -24.220 -14.557  0.00  0.00    +0.000 C 
ATOM     45  C   UNL     1      21.419 -22.800 -11.933  0.00  0.00    +0.000 C 
ATOM     46  C   UNL     1      23.308 -22.086 -13.214  0.00  0.00    +0.000 C 
ATOM     47  C   UNL     1      21.857 -23.971 -12.813  0.00  0.00    +0.000 C 
ATOM     48  C   UNL     1      22.669 -21.930 -11.842  0.00  0.00    +0.000 C 
ATOM     49  N   UNL     1      22.955 -23.446 -13.620  0.00  0.00    +0.000 N 
ATOM     50  O   UNL     1      23.287 -25.364 -14.870  0.00  0.00    +0.000 OA
BRANCH  47  51
ATOM     51  C   UNL     1      20.655 -24.386 -13.636  0.00  0.00    +0.000 C 
ATOM     52  N   UNL     1      19.882 -25.369 -13.048  0.00  0.00    +0.000 N 
ATOM     53  O   UNL     1      20.451 -23.851 -14.720  0.00  0.00    +0.000 OA
ATOM     54  H   UNL     1      20.157 -25.718 -12.169  0.00  0.00    +0.000 HD
BRANCH  52  55
ATOM     55  C   UNL     1      18.690 -25.909 -13.660  0.00  0.00    +0.000 C 
BRANCH  55  61
ATOM     56  C   UNL     1      15.768 -24.593 -11.636  0.00  0.00    +0.000 A 
ATOM     57  C   UNL     1      15.729 -23.545 -13.812  0.00  0.00    +0.000 A 
ATOM     58  C   UNL     1      16.909 -25.307 -12.000  0.00  0.00    +0.000 A 
ATOM     59  C   UNL     1      16.871 -24.259 -14.176  0.00  0.00    +0.000 A 
ATOM     60  C   UNL     1      15.178 -23.711 -12.542  0.00  0.00    +0.000 A 
ATOM     61  C   UNL     1      17.460 -25.141 -13.270  0.00  0.00    +0.000 A 
BRANCH  60  64
ATOM     62  C   UNL     1      12.802 -23.224 -13.101  0.00  0.00    +0.000 C 
ATOM     63  C   UNL     1      13.057 -21.046 -13.653  0.00  0.00    +0.000 C 
ATOM     64  C   UNL     1      13.958 -22.947 -12.154  0.00  0.00    +0.000 C 
ATOM     65  C   UNL     1      12.198 -24.602 -13.131  0.00  0.00    +0.000 C 
ATOM     66  N   UNL     1      12.332 -22.301 -13.883  0.00  0.00    +0.000 NA
ATOM     67  S   UNL     1      14.247 -21.171 -12.306  0.00  0.00    +0.000 S 
ENDBRANCH  60  64
ENDBRANCH  55  61
ENDBRANCH  52  55
ENDBRANCH  47  51
BRANCH  48  68
ATOM     68  O   UNL     1      23.556 -22.446 -10.856  0.00  0.00    +0.000 OA
ATOM     69  H   UNL     1      23.774 -23.367 -11.067  0.00  0.00    +0.000 HD
ENDBRANCH  48  68
ENDBRANCH  43  44
BRANCH  43  73
ATOM     70  C   UNL     1      25.674 -22.085 -17.132  0.00  0.00    +0.000 C 
ATOM     71  C   UNL     1      23.398 -21.707 -16.161  0.00  0.00    +0.000 C 
ATOM     72  C   UNL     1      23.843 -23.740 -17.537  0.00  0.00    +0.000 C 
ATOM     73  C   UNL     1      24.456 -22.781 -16.493  0.00  0.00    +0.000 C 
ENDBRANCH  43  73
ENDBRANCH  40  43
ENDBRANCH  38  39
ENDBRANCH   1  38
TORSDOF 22
