
 OpenBabel04082316253D

 73 79  0  0  1  0  0  0  0  0999 V2000
   22.1630  -27.9950  -14.3940 O   0  0  0  0  0  0  0  0  0  0  0  0
   21.8840  -26.6940  -13.8930 C   0  0  0  0  0  2  0  0  0  0  0  0
   21.7860  -25.7260  -15.0570 C   0  0  0  0  0  2  0  0  0  0  0  0
   20.9370  -24.6470  -14.6900 O   0  0  0  0  0  0  0  0  0  0  0  0
   19.9180  -25.0670  -13.7910 C   0  0  0  0  0  2  0  0  0  0  0  0
   19.6850  -23.9770  -12.7630 C   0  0  0  0  0  2  0  0  0  0  0  0
   20.7150  -23.0050  -12.8750 O   0  0  0  0  0  0  0  0  0  0  0  0
   21.3360  -22.7550  -11.6210 C   0  0  0  0  0  2  0  0  0  0  0  0
   22.7090  -22.1460  -11.8490 C   0  0  0  0  0  2  0  0  0  0  0  0
   23.9420  -22.9090  -13.8700 C   0  0  0  0  0  0  0  0  0  0  0  0
   23.5930  -23.0590  -12.5360 N   0  0  0  0  0  0  0  0  0  0  0  0
   23.5520  -22.0080  -14.6070 O   0  0  0  0  0  0  0  0  0  0  0  0
   23.9640  -23.8210  -12.0350 H   0  0  0  0  0  0  0  0  0  0  0  0
   24.8800  -24.0090  -14.3180 C   0  0  0  0  0  2  0  0  0  0  0  0
   26.7490  -24.9740  -17.0070 C   0  0  0  0  0  0  0  0  0  0  0  0
   26.3310  -25.6510  -18.2120 C   0  0  0  0  0  0  0  0  0  0  0  0
   26.5480  -27.0100  -18.1790 C   0  0  0  0  0  0  0  0  0  0  0  0
   27.2070  -25.9100  -16.1010 C   0  0  0  0  0  0  0  0  0  0  0  0
   27.3080  -24.5810  -14.0210 C   0  0  0  0  0  0  0  0  0  0  0  0
   28.3760  -26.4710  -13.9620 C   0  0  0  0  0  0  0  0  0  0  0  0
   26.7410  -23.5210  -16.8200 C   0  0  0  0  0  0  0  0  0  0  0  0
   26.3270  -23.5320  -14.4100 C   0  0  1  0  0  3  0  0  0  0  0  0
   25.7210  -24.9770  -19.3920 C   0  0  0  0  0  1  0  0  0  0  0  0
   26.2400  -28.0300  -19.2050 C   0  0  0  0  0  1  0  0  0  0  0  0
   28.8280  -27.8520  -14.2350 C   0  0  0  0  0  1  0  0  0  0  0  0
   27.9080  -24.6770  -12.8520 N   0  0  0  0  0  0  0  0  0  0  0  0
   28.5800  -25.8700  -12.8140 N   0  0  0  0  0  0  0  0  0  0  0  0
   26.5860  -22.9140  -15.7000 N   0  0  0  0  0  0  0  0  0  0  0  0
   27.6190  -25.6810  -14.7950 N   0  0  0  0  0  0  0  0  0  0  0  0
   27.2570  -27.4950  -16.7070 S   0  0  0  0  0  0  0  0  0  0  0  0
   28.1420  -22.7380  -18.7320 C   0  0  0  0  0  3  0  0  0  0  0  0
   25.9330  -21.8030  -18.4400 C   0  0  0  0  0  3  0  0  0  0  0  0
   28.3320  -21.9390  -19.8590 C   0  0  0  0  0  3  0  0  0  0  0  0
   26.1230  -21.0050  -19.5680 C   0  0  0  0  0  3  0  0  0  0  0  0
   26.9430  -22.6700  -18.0230 C   0  0  0  0  0  0  0  0  0  0  0  0
   27.3220  -21.0730  -20.2780 C   0  0  0  0  0  0  0  0  0  0  0  0
   27.5560  -20.0870  -21.6690 Cl  0  0  0  0  0  0  0  0  0  0  0  0
   23.3320  -28.0030  -15.2010 C   0  0  0  0  0  2  0  0  0  0  0  0
   23.6120  -29.3950  -15.7260 C   0  0  0  0  0  0  0  0  0  0  0  0
   24.1530  -30.2120  -14.7480 N   0  0  0  0  0  0  0  0  0  0  0  0
   23.3770  -29.7270  -16.8850 O   0  0  0  0  0  0  0  0  0  0  0  0
   24.2990  -29.8380  -13.8490 H   0  0  0  0  0  0  0  0  0  0  0  0
   24.5140  -31.5900  -14.9870 C   0  0  2  0  0  3  0  0  0  0  0  0
   23.3650  -32.4290  -14.4840 C   0  0  0  0  0  0  0  0  0  0  0  0
   20.9330  -34.3830  -16.4880 C   0  0  0  0  0  2  0  0  0  0  0  0
   22.8640  -33.0340  -16.9010 C   0  0  0  0  0  2  0  0  0  0  0  0
   21.4100  -33.8260  -15.1460 C   0  0  2  0  0  3  0  0  0  0  0  0
   21.5230  -33.4160  -17.5100 C   0  0  2  0  0  3  0  0  0  0  0  0
   22.6280  -33.0840  -15.4580 N   0  0  0  0  0  0  0  0  0  0  0  0
   23.1310  -32.4990  -13.2770 O   0  0  0  0  0  0  0  0  0  0  0  0
   21.6490  -35.0090  -14.2300 C   0  0  0  0  0  0  0  0  0  0  0  0
   21.1600  -34.8370  -12.9490 N   0  0  0  0  0  0  0  0  0  0  0  0
   22.2320  -35.9980  -14.6600 O   0  0  0  0  0  0  0  0  0  0  0  0
   20.7090  -33.9900  -12.7300 H   0  0  0  0  0  0  0  0  0  0  0  0
   21.2780  -35.8410  -11.9170 C   0  0  0  0  0  2  0  0  0  0  0  0
   19.6900  -35.3860   -8.5050 C   0  0  0  0  0  3  0  0  0  0  0  0
   21.3510  -33.6600   -8.8160 C   0  0  0  0  0  3  0  0  0  0  0  0
   19.9840  -35.8960   -9.7690 C   0  0  0  0  0  3  0  0  0  0  0  0
   21.6460  -34.1710  -10.0800 C   0  0  0  0  0  3  0  0  0  0  0  0
   20.3740  -34.2680   -8.0280 C   0  0  0  0  0  0  0  0  0  0  0  0
   20.9610  -35.2890  -10.5570 C   0  0  0  0  0  0  0  0  0  0  0  0
   20.2590  -34.7670   -5.5920 C   0  0  0  0  0  0  0  0  0  0  0  0
   18.0190  -34.5770   -5.3460 C   0  0  0  0  0  2  0  0  0  0  0  0
   20.0610  -33.7210   -6.6770 C   0  0  2  0  0  3  0  0  0  0  0  0
   21.6490  -35.2700   -5.3090 C   0  0  0  0  0  1  0  0  0  0  0  0
   19.2570  -35.2360   -4.9130 N   0  0  0  0  0  0  0  0  0  0  0  0
   18.3140  -33.2800   -6.5610 S   0  0  0  0  0  0  0  0  0  0  0  0
   20.7120  -32.2520  -17.6110 O   0  0  0  0  0  0  0  0  0  0  0  0
   21.0740  -31.5540  -17.0440 H   0  0  0  0  0  0  0  0  0  0  0  0
   25.8050  -33.3310  -13.5840 C   0  0  0  0  0  1  0  0  0  0  0  0
   26.3570  -30.8980  -13.3880 C   0  0  0  0  0  1  0  0  0  0  0  0
   26.9400  -32.1430  -15.4690 C   0  0  0  0  0  1  0  0  0  0  0  0
   25.8780  -32.0000  -14.3570 C   0  0  0  0  0  0  0  0  0  0  0  0
  1  2  1  0  0  0  0
  3  4  1  0  0  0  0
  3  2  1  0  0  0  0
  4  5  1  0  0  0  0
  5  6  1  0  0  0  0
  7  6  1  0  0  0  0
  7  8  1  0  0  0  0
  9  8  1  0  0  0  0
 10 11  1  0  0  0  0
 11 13  1  0  0  0  0
 11  9  1  0  0  0  0
 12 10  2  0  0  0  0
 14 10  1  0  0  0  0
 15 21  1  0  0  0  0
 15 18  2  0  0  0  0
 16 17  2  0  0  0  0
 16 15  1  0  0  0  0
 17 30  1  0  0  0  0
 18 29  1  0  0  0  0
 19 26  2  0  0  0  0
 20 27  2  0  0  0  0
 21 28  2  0  0  0  0
 22 14  1  6  0  0  0
 22 19  1  0  0  0  0
 23 16  1  0  0  0  0
 24 17  1  0  0  0  0
 25 20  1  0  0  0  0
 26 27  1  0  0  0  0
 28 22  1  0  0  0  0
 29 19  1  0  0  0  0
 29 20  1  0  0  0  0
 30 18  1  0  0  0  0
 31 35  1  0  0  0  0
 32 35  2  0  0  0  0
 33 31  2  0  0  0  0
 34 32  1  0  0  0  0
 35 21  1  0  0  0  0
 36 33  1  0  0  0  0
 36 34  2  0  0  0  0
 37 36  1  0  0  0  0
 38  1  1  0  0  0  0
 39 38  1  0  0  0  0
 39 40  1  0  0  0  0
 40 42  1  0  0  0  0
 41 39  2  0  0  0  0
 43 40  1  0  0  0  0
 43 44  1  1  0  0  0
 43 73  1  0  0  0  0
 44 50  2  0  0  0  0
 45 47  1  0  0  0  0
 46 49  1  0  0  0  0
 47 51  1  1  0  0  0
 48 68  1  1  0  0  0
 48 46  1  0  0  0  0
 48 45  1  0  0  0  0
 49 47  1  0  0  0  0
 49 44  1  0  0  0  0
 51 52  1  0  0  0  0
 52 54  1  0  0  0  0
 52 55  1  0  0  0  0
 53 51  2  0  0  0  0
 55 61  1  0  0  0  0
 56 60  1  0  0  0  0
 57 60  2  0  0  0  0
 58 56  2  0  0  0  0
 59 57  1  0  0  0  0
 61 59  2  0  0  0  0
 61 58  1  0  0  0  0
 62 65  1  0  0  0  0
 62 66  2  0  0  0  0
 63 66  1  0  0  0  0
 64 60  1  6  0  0  0
 64 67  1  0  0  0  0
 64 62  1  0  0  0  0
 67 63  1  0  0  0  0
 68 69  1  0  0  0  0
 72 73  1  0  0  0  0
 73 70  1  0  0  0  0
 73 71  1  0  0  0  0
M  END
>  <MODEL>
$$$$