ligand
 OpenBabel01032309583D

 74 80  0  0  1  0  0  0  0  0999 V2000
   26.5520  -22.7650  -16.5490 C   0  0  0  0  0  2  0  0  0  0  0  0
   24.4610  -23.9700  -16.8520 N   0  0  0  0  0  0  0  0  0  0  0  0
   25.0870  -22.7890  -16.9860 C   0  0  0  0  0  0  0  0  0  0  0  0
   24.5460  -21.7710  -17.4150 O   0  0  0  0  0  0  0  0  0  0  0  0
   24.9950  -24.7520  -16.5000 H   0  0  0  0  0  0  0  0  0  0  0  0
   23.0300  -24.2450  -17.0170 C   0  0  2  0  0  3  0  0  0  0  0  0
   21.7490  -24.7100  -13.3090 C   0  0  2  0  0  3  0  0  0  0  0  0
   21.5090  -23.4620  -12.4460 C   0  0  0  0  0  2  0  0  0  0  0  0
   22.6500  -22.5580  -12.8860 C   0  0  2  0  0  3  0  0  0  0  0  0
   22.7100  -22.7950  -14.3980 C   0  0  0  0  0  2  0  0  0  0  0  0
   22.3370  -24.2070  -14.5790 N   0  0  0  0  0  0  0  0  0  0  0  0
   22.5820  -24.9380  -15.7000 C   0  0  0  0  0  0  0  0  0  0  0  0
   22.4310  -26.1620  -15.7320 O   0  0  0  0  0  0  0  0  0  0  0  0
   19.5810  -25.0330  -14.4040 N   0  0  0  0  0  0  0  0  0  0  0  0
   20.4650  -25.5410  -13.5320 C   0  0  0  0  0  0  0  0  0  0  0  0
   20.3040  -26.5870  -12.9010 O   0  0  0  0  0  0  0  0  0  0  0  0
   19.7970  -24.1600  -14.8640 H   0  0  0  0  0  0  0  0  0  0  0  0
   18.2750  -25.6200  -14.7040 C   0  0  0  0  0  2  0  0  0  0  0  0
   14.9830  -23.3340  -13.0970 C   0  0  0  0  0  0  0  0  0  0  0  0
   15.9260  -23.9120  -12.2400 C   0  0  0  0  0  3  0  0  0  0  0  0
   16.9910  -24.6460  -12.7550 C   0  0  0  0  0  3  0  0  0  0  0  0
   15.1190  -23.5070  -14.4780 C   0  0  0  0  0  3  0  0  0  0  0  0
   16.1830  -24.2410  -14.9960 C   0  0  0  0  0  3  0  0  0  0  0  0
   17.1270  -24.8020  -14.1350 C   0  0  0  0  0  0  0  0  0  0  0  0
   15.1450  -20.7280  -11.2660 C   0  0  0  0  0  1  0  0  0  0  0  0
   13.9140  -21.4800  -11.7400 C   0  0  0  0  0  0  0  0  0  0  0  0
   12.6800  -21.0090  -11.3600 N   0  0  0  0  0  0  0  0  0  0  0  0
   11.5320  -21.7290  -11.8750 C   0  0  0  0  0  2  0  0  0  0  0  0
   12.1910  -23.0980  -12.8450 S   0  0  0  0  0  0  0  0  0  0  0  0
   13.8510  -22.5470  -12.5610 C   0  0  0  0  0  0  0  0  0  0  0  0
   12.5140  -20.2000  -10.7780 H   0  0  0  0  0  0  0  0  0  0  0  0
   23.8670  -22.8940  -12.2430 O   0  0  0  0  0  0  0  0  0  0  0  0
   24.2400  -23.6630  -12.6810 H   0  0  0  0  0  0  0  0  0  0  0  0
   22.6780  -25.0690  -18.3210 C   0  0  0  0  0  0  0  0  0  0  0  0
   23.7280  -26.1850  -18.5610 C   0  0  0  0  0  1  0  0  0  0  0  0
   22.6890  -24.1560  -19.5750 C   0  0  0  0  0  1  0  0  0  0  0  0
   21.2860  -25.7500  -18.2320 C   0  0  0  0  0  1  0  0  0  0  0  0
   26.8020  -23.9660  -15.8280 O   0  0  0  0  0  0  0  0  0  0  0  0
   26.6200  -23.8780  -14.4240 C   0  0  0  0  0  2  0  0  0  0  0  0
   27.7550  -24.6570  -13.7460 C   0  0  0  0  0  2  0  0  0  0  0  0
   28.8120  -24.8180  -14.6800 O   0  0  0  0  0  0  0  0  0  0  0  0
   29.2610  -26.1580  -14.8410 C   0  0  0  0  0  2  0  0  0  0  0  0
   28.5860  -27.0180  -13.7640 C   0  0  0  0  0  2  0  0  0  0  0  0
   29.0970  -28.3380  -13.8870 O   0  0  0  0  0  0  0  0  0  0  0  0
   28.1840  -29.3040  -14.3920 C   0  0  0  0  0  2  0  0  0  0  0  0
   28.1330  -30.4740  -13.3910 C   0  0  0  0  0  2  0  0  0  0  0  0
   26.8640  -31.2010  -13.4650 N   0  0  0  0  0  0  0  0  0  0  0  0
   26.6770  -32.3620  -14.1130 C   0  0  0  0  0  0  0  0  0  0  0  0
   27.5130  -32.8700  -14.8620 O   0  0  0  0  0  0  0  0  0  0  0  0
   26.1110  -30.8390  -12.9000 H   0  0  0  0  0  0  0  0  0  0  0  0
   25.3540  -33.0890  -13.8360 C   0  0  0  0  0  2  0  0  0  0  0  0
   24.2590  -32.2030  -13.1700 C   0  0  2  0  0  3  0  0  0  0  0  0
   23.5260  -32.9020  -12.1150 N   0  0  0  0  0  0  0  0  0  0  0  0
   23.3200  -31.5530  -14.1880 C   0  0  0  0  0  0  0  0  0  0  0  0
   23.2660  -30.2760  -14.4820 N   0  0  0  0  0  0  0  0  0  0  0  0
   22.2490  -30.1030  -15.4120 N   0  0  0  0  0  0  0  0  0  0  0  0
   21.7260  -31.2810  -15.6350 C   0  0  0  0  0  0  0  0  0  0  0  0
   20.5650  -31.5140  -16.5810 C   0  0  0  0  0  1  0  0  0  0  0  0
   22.3720  -32.2580  -14.9010 N   0  0  0  0  0  0  0  0  0  0  0  0
   22.1730  -33.6260  -14.8490 C   0  0  0  0  0  0  0  0  0  0  0  0
   21.7060  -34.5840  -16.2080 S   0  0  0  0  0  0  0  0  0  0  0  0
   21.8200  -36.0550  -15.3090 C   0  0  0  0  0  0  0  0  0  0  0  0
   21.5350  -37.3650  -16.0100 C   0  0  0  0  0  1  0  0  0  0  0  0
   22.2110  -35.8140  -13.9850 C   0  0  0  0  0  0  0  0  0  0  0  0
   22.4800  -36.9470  -13.0040 C   0  0  0  0  0  1  0  0  0  0  0  0
   22.3560  -34.4230  -13.6990 C   0  0  0  0  0  0  0  0  0  0  0  0
   22.6940  -33.8520  -12.3610 C   0  0  0  0  0  0  0  0  0  0  0  0
   21.9680  -34.4570  -11.2210 C   0  0  0  0  0  0  0  0  0  0  0  0
   20.6140  -34.8010  -11.3410 C   0  0  0  0  0  3  0  0  0  0  0  0
   19.9350  -35.3680  -10.2660 C   0  0  0  0  0  3  0  0  0  0  0  0
   20.6030  -35.5870   -9.0640 C   0  0  0  0  0  0  0  0  0  0  0  0
   19.7600  -36.2890   -7.7320 Cl  0  0  0  0  0  0  0  0  0  0  0  0
   21.9450  -35.2410   -8.9270 C   0  0  0  0  0  3  0  0  0  0  0  0
   22.6260  -34.6750  -10.0010 C   0  0  0  0  0  3  0  0  0  0  0  0
  1 38  1  0  0  0  0
  2  5  1  0  0  0  0
  3  2  1  0  0  0  0
  3  1  1  0  0  0  0
  4  3  2  0  0  0  0
  6  2  1  0  0  0  0
  6 12  1  1  0  0  0
  7 15  1  6  0  0  0
  7  8  1  0  0  0  0
  9  8  1  0  0  0  0
  9 32  1  1  0  0  0
 10  9  1  0  0  0  0
 11 10  1  0  0  0  0
 11  7  1  0  0  0  0
 12 11  1  0  0  0  0
 13 12  2  0  0  0  0
 14 15  1  0  0  0  0
 15 16  2  0  0  0  0
 17 14  1  0  0  0  0
 18 14  1  0  0  0  0
 18 24  1  0  0  0  0
 19 30  1  0  0  0  0
 19 20  1  0  0  0  0
 21 20  2  0  0  0  0
 22 19  2  0  0  0  0
 23 22  1  0  0  0  0
 23 24  2  0  0  0  0
 24 21  1  0  0  0  0
 26 27  1  0  0  0  0
 26 25  1  0  0  0  0
 27 31  1  0  0  0  0
 28 27  1  0  0  0  0
 29 30  1  0  0  0  0
 29 28  1  0  0  0  0
 30 26  2  0  0  0  0
 33 32  1  0  0  0  0
 34 37  1  0  0  0  0
 34  6  1  0  0  0  0
 35 34  1  0  0  0  0
 36 34  1  0  0  0  0
 38 39  1  0  0  0  0
 39 40  1  0  0  0  0
 41 40  1  0  0  0  0
 42 41  1  0  0  0  0
 42 43  1  0  0  0  0
 44 43  1  0  0  0  0
 45 44  1  0  0  0  0
 45 46  1  0  0  0  0
 47 46  1  0  0  0  0
 47 50  1  0  0  0  0
 48 51  1  0  0  0  0
 48 47  1  0  0  0  0
 49 48  2  0  0  0  0
 52 51  1  6  0  0  0
 52 53  1  0  0  0  0
 54 52  1  0  0  0  0
 55 54  2  0  0  0  0
 56 55  1  0  0  0  0
 57 56  2  0  0  0  0
 57 59  1  0  0  0  0
 58 57  1  0  0  0  0
 59 60  1  0  0  0  0
 59 54  1  0  0  0  0
 60 66  2  0  0  0  0
 61 62  1  0  0  0  0
 61 60  1  0  0  0  0
 62 64  2  0  0  0  0
 63 62  1  0  0  0  0
 64 66  1  0  0  0  0
 64 65  1  0  0  0  0
 66 67  1  0  0  0  0
 67 53  2  0  0  0  0
 67 68  1  0  0  0  0
 68 74  1  0  0  0  0
 69 68  2  0  0  0  0
 69 70  1  0  0  0  0
 70 71  2  0  0  0  0
 71 73  1  0  0  0  0
 71 72  1  0  0  0  0
 74 73  2  0  0  0  0
M  END
>  <MODEL>
1

>  <REMARK>
 VINA RESULT:    -9.982      0.000      0.000
 INTER + INTRA:         -25.557
 INTER:                 -23.246
 INTRA:                  -2.311
 UNBOUND:                -3.029
  Name = ligand
  29 active torsions:
  status: ('A' for Active; 'I' for Inactive)
    1  A    between atoms: C_1  and  C_2
    2  A    between atoms: C_6  and  C_7
    3  A    between atoms: C_12  and  C_13
    4  A    between atoms: C_13  and  N_14
    5  A    between atoms: C_15  and  C_17
    6  A    between atoms: C_19  and  O_20
    7  A    between atoms: C_23  and  C_25
    8  A    between atoms: C_25  and  C_26
    9  A    between atoms: C_25  and  N_30
   10  A    between atoms: C_26  and  C_27
   11  A    between atoms: C_26  and  C_28
   12  A    between atoms: C_26  and  C_29
   13  A    between atoms: C_31  and  C_33
   14  A    between atoms: C_33  and  O_34
   15  A    between atoms: O_34  and  C_35
   16  A    between atoms: C_35  and  C_36
   17  A    between atoms: C_36  and  O_37
   18  A    between atoms: O_37  and  C_38
   19  A    between atoms: C_38  and  C_39
   20  A    between atoms: C_39  and  O_40
   21  A    between atoms: O_40  and  C_41
   22  A    between atoms: C_41  and  C_42
   23  A    between atoms: C_42  and  N_43
   24  A    between atoms: C_44  and  C_46
   25  A    between atoms: C_46  and  C_47
   26  A    between atoms: C_52  and  C_53
   27  A    between atoms: C_57  and  C_58
   28  A    between atoms: C_59  and  C_60
   29  A    between atoms: C_62  and  C_63
                            x       y       z     vdW  Elec       q    Type
                         _______ _______ _______ _____ _____    ______ ____

>  <TORSDO>
F 22

$$$$
ligand
 OpenBabel01032309583D

 74 80  0  0  1  0  0  0  0  0999 V2000
   23.0480  -28.3180  -18.1430 C   0  0  0  0  0  2  0  0  0  0  0  0
   21.2600  -26.7160  -17.7550 N   0  0  0  0  0  0  0  0  0  0  0  0
   22.2750  -27.0670  -18.5620 C   0  0  0  0  0  0  0  0  0  0  0  0
   22.5980  -26.4410  -19.5710 O   0  0  0  0  0  0  0  0  0  0  0  0
   21.0650  -27.3020  -16.9560 H   0  0  0  0  0  0  0  0  0  0  0  0
   20.4690  -25.4820  -17.8030 C   0  0  2  0  0  3  0  0  0  0  0  0
   21.1560  -25.0730  -13.9340 C   0  0  2  0  0  3  0  0  0  0  0  0
   21.3910  -26.3330  -13.0860 C   0  0  0  0  0  2  0  0  0  0  0  0
   20.4180  -27.3160  -13.7180 C   0  0  2  0  0  3  0  0  0  0  0  0
   20.5510  -27.0160  -15.2140 C   0  0  0  0  0  2  0  0  0  0  0  0
   20.8070  -25.5690  -15.2920 N   0  0  0  0  0  0  0  0  0  0  0  0
   20.6540  -24.8120  -16.4120 C   0  0  0  0  0  0  0  0  0  0  0  0
   20.6880  -23.5790  -16.3820 O   0  0  0  0  0  0  0  0  0  0  0  0
   23.4890  -24.5950  -14.5060 N   0  0  0  0  0  0  0  0  0  0  0  0
   22.3710  -24.1180  -13.9390 C   0  0  0  0  0  0  0  0  0  0  0  0
   22.2700  -23.0070  -13.4180 O   0  0  0  0  0  0  0  0  0  0  0  0
   23.4790  -25.5270  -14.8970 H   0  0  0  0  0  0  0  0  0  0  0  0
   24.7680  -23.8870  -14.5510 C   0  0  0  0  0  2  0  0  0  0  0  0
   25.1850  -21.4840  -18.1160 C   0  0  0  0  0  0  0  0  0  0  0  0
   23.9260  -21.6740  -17.5350 C   0  0  0  0  0  3  0  0  0  0  0  0
   23.7890  -22.4450  -16.3830 C   0  0  0  0  0  3  0  0  0  0  0  0
   26.3040  -22.0830  -17.5280 C   0  0  0  0  0  3  0  0  0  0  0  0
   26.1700  -22.8540  -16.3770 C   0  0  0  0  0  3  0  0  0  0  0  0
   24.9120  -23.0270  -15.7970 C   0  0  0  0  0  0  0  0  0  0  0  0
   25.1580  -22.5000  -21.1380 C   0  0  0  0  0  1  0  0  0  0  0  0
   25.3910  -21.0950  -20.6110 C   0  0  0  0  0  0  0  0  0  0  0  0
   25.6190  -20.0900  -21.5200 N   0  0  0  0  0  0  0  0  0  0  0  0
   25.7880  -18.7570  -20.9750 C   0  0  0  0  0  2  0  0  0  0  0  0
   25.6820  -18.9300  -19.1830 S   0  0  0  0  0  0  0  0  0  0  0  0
   25.3430  -20.6620  -19.3350 C   0  0  0  0  0  0  0  0  0  0  0  0
   25.6550  -20.2030  -22.5230 H   0  0  0  0  0  0  0  0  0  0  0  0
   19.0940  -27.1230  -13.2500 O   0  0  0  0  0  0  0  0  0  0  0  0
   18.9940  -27.5960  -12.4200 H   0  0  0  0  0  0  0  0  0  0  0  0
   18.9550  -25.7020  -18.2070 C   0  0  0  0  0  0  0  0  0  0  0  0
   18.0120  -25.1840  -17.0900 C   0  0  0  0  0  1  0  0  0  0  0  0
   18.6450  -27.2090  -18.4020 C   0  0  0  0  0  1  0  0  0  0  0  0
   18.5790  -24.9590  -19.5170 C   0  0  0  0  0  1  0  0  0  0  0  0
   24.4290  -28.0640  -18.3770 O   0  0  0  0  0  0  0  0  0  0  0  0
   25.2840  -28.3030  -17.2710 C   0  0  0  0  0  2  0  0  0  0  0  0
   24.9060  -27.3210  -16.1540 C   0  0  0  0  0  2  0  0  0  0  0  0
   25.8180  -27.4900  -15.0780 O   0  0  0  0  0  0  0  0  0  0  0  0
   27.1490  -27.0770  -15.3610 C   0  0  0  0  0  2  0  0  0  0  0  0
   27.9580  -27.1540  -14.0600 C   0  0  0  0  0  2  0  0  0  0  0  0
   28.9440  -28.1620  -14.2270 O   0  0  0  0  0  0  0  0  0  0  0  0
   28.4580  -29.4330  -14.6410 C   0  0  0  0  0  2  0  0  0  0  0  0
   28.0780  -30.2290  -13.3780 C   0  0  0  0  0  2  0  0  0  0  0  0
   26.8400  -30.9890  -13.5620 N   0  0  0  0  0  0  0  0  0  0  0  0
   26.7580  -32.2070  -14.1200 C   0  0  0  0  0  0  0  0  0  0  0  0
   27.6970  -32.7620  -14.6940 O   0  0  0  0  0  0  0  0  0  0  0  0
   26.0110  -30.5930  -13.1460 H   0  0  0  0  0  0  0  0  0  0  0  0
   25.4150  -32.9350  -13.9660 C   0  0  0  0  0  2  0  0  0  0  0  0
   24.3050  -32.0990  -13.2640 C   0  0  2  0  0  3  0  0  0  0  0  0
   23.6030  -32.8470  -12.2210 N   0  0  0  0  0  0  0  0  0  0  0  0
   23.3380  -31.4450  -14.2520 C   0  0  0  0  0  0  0  0  0  0  0  0
   23.2470  -30.1620  -14.5080 N   0  0  0  0  0  0  0  0  0  0  0  0
   22.2160  -29.9900  -15.4220 N   0  0  0  0  0  0  0  0  0  0  0  0
   21.7210  -31.1750  -15.6740 C   0  0  0  0  0  0  0  0  0  0  0  0
   20.5570  -31.4110  -16.6140 C   0  0  0  0  0  1  0  0  0  0  0  0
   22.4020  -32.1540  -14.9760 N   0  0  0  0  0  0  0  0  0  0  0  0
   22.2390  -33.5280  -14.9610 C   0  0  0  0  0  0  0  0  0  0  0  0
   21.7820  -34.4590  -16.3420 S   0  0  0  0  0  0  0  0  0  0  0  0
   21.9450  -35.9520  -15.4880 C   0  0  0  0  0  0  0  0  0  0  0  0
   21.6870  -37.2480  -16.2230 C   0  0  0  0  0  1  0  0  0  0  0  0
   22.3440  -35.7380  -14.1610 C   0  0  0  0  0  0  0  0  0  0  0  0
   22.6540  -36.8910  -13.2170 C   0  0  0  0  0  1  0  0  0  0  0  0
   22.4560  -34.3530  -13.8370 C   0  0  0  0  0  0  0  0  0  0  0  0
   22.7930  -33.8120  -12.4860 C   0  0  0  0  0  0  0  0  0  0  0  0
   22.0970  -34.4680  -11.3580 C   0  0  0  0  0  0  0  0  0  0  0  0
   20.8010  -34.9780  -11.5200 C   0  0  0  0  0  3  0  0  0  0  0  0
   20.1490  -35.5930  -10.4550 C   0  0  0  0  0  3  0  0  0  0  0  0
   20.7850  -35.6960   -9.2200 C   0  0  0  0  0  0  0  0  0  0  0  0
   19.9760  -36.4580   -7.9000 Cl  0  0  0  0  0  0  0  0  0  0  0  0
   22.0690  -35.1860   -9.0410 C   0  0  0  0  0  3  0  0  0  0  0  0
   22.7230  -34.5710  -10.1050 C   0  0  0  0  0  3  0  0  0  0  0  0
  2  5  1  0  0  0  0
  3  1  1  0  0  0  0
  3  2  1  0  0  0  0
  4  3  2  0  0  0  0
  6  2  1  0  0  0  0
  6 12  1  1  0  0  0
  7 15  1  6  0  0  0
  7  8  1  0  0  0  0
  9 32  1  1  0  0  0
  9  8  1  0  0  0  0
 10  9  1  0  0  0  0
 11 10  1  0  0  0  0
 11  7  1  0  0  0  0
 12 13  2  0  0  0  0
 12 11  1  0  0  0  0
 14 15  1  0  0  0  0
 15 16  2  0  0  0  0
 17 14  1  0  0  0  0
 18 14  1  0  0  0  0
 19 20  2  0  0  0  0
 19 22  1  0  0  0  0
 20 21  1  0  0  0  0
 21 24  2  0  0  0  0
 22 23  2  0  0  0  0
 23 24  1  0  0  0  0
 24 18  1  0  0  0  0
 25 26  1  0  0  0  0
 26 30  2  0  0  0  0
 27 28  1  0  0  0  0
 27 26  1  0  0  0  0
 28 29  1  0  0  0  0
 30 29  1  0  0  0  0
 30 19  1  0  0  0  0
 31 27  1  0  0  0  0
 32 33  1  0  0  0  0
 34  6  1  0  0  0  0
 34 35  1  0  0  0  0
 36 34  1  0  0  0  0
 37 34  1  0  0  0  0
 38  1  1  0  0  0  0
 38 39  1  0  0  0  0
 39 40  1  0  0  0  0
 40 41  1  0  0  0  0
 42 41  1  0  0  0  0
 42 43  1  0  0  0  0
 44 43  1  0  0  0  0
 45 44  1  0  0  0  0
 45 46  1  0  0  0  0
 47 46  1  0  0  0  0
 47 50  1  0  0  0  0
 48 51  1  0  0  0  0
 48 47  1  0  0  0  0
 49 48  2  0  0  0  0
 52 51  1  6  0  0  0
 52 53  1  0  0  0  0
 54 52  1  0  0  0  0
 55 54  2  0  0  0  0
 56 55  1  0  0  0  0
 57 56  2  0  0  0  0
 57 59  1  0  0  0  0
 58 57  1  0  0  0  0
 59 60  1  0  0  0  0
 59 54  1  0  0  0  0
 60 66  2  0  0  0  0
 61 62  1  0  0  0  0
 61 60  1  0  0  0  0
 62 64  2  0  0  0  0
 63 62  1  0  0  0  0
 64 66  1  0  0  0  0
 64 65  1  0  0  0  0
 66 67  1  0  0  0  0
 67 53  2  0  0  0  0
 67 68  1  0  0  0  0
 68 74  1  0  0  0  0
 69 68  2  0  0  0  0
 69 70  1  0  0  0  0
 70 71  2  0  0  0  0
 71 73  1  0  0  0  0
 71 72  1  0  0  0  0
 74 73  2  0  0  0  0
M  END
>  <MODEL>
2

>  <REMARK>
 VINA RESULT:    -9.511      3.461      6.051
 INTER + INTRA:         -24.493
 INTER:                 -21.464
 INTRA:                  -3.029
 UNBOUND:                -3.029
  Name = ligand
  29 active torsions:
  status: ('A' for Active; 'I' for Inactive)
    1  A    between atoms: C_1  and  C_2
    2  A    between atoms: C_6  and  C_7
    3  A    between atoms: C_12  and  C_13
    4  A    between atoms: C_13  and  N_14
    5  A    between atoms: C_15  and  C_17
    6  A    between atoms: C_19  and  O_20
    7  A    between atoms: C_23  and  C_25
    8  A    between atoms: C_25  and  C_26
    9  A    between atoms: C_25  and  N_30
   10  A    between atoms: C_26  and  C_27
   11  A    between atoms: C_26  and  C_28
   12  A    between atoms: C_26  and  C_29
   13  A    between atoms: C_31  and  C_33
   14  A    between atoms: C_33  and  O_34
   15  A    between atoms: O_34  and  C_35
   16  A    between atoms: C_35  and  C_36
   17  A    between atoms: C_36  and  O_37
   18  A    between atoms: O_37  and  C_38
   19  A    between atoms: C_38  and  C_39
   20  A    between atoms: C_39  and  O_40
   21  A    between atoms: O_40  and  C_41
   22  A    between atoms: C_41  and  C_42
   23  A    between atoms: C_42  and  N_43
   24  A    between atoms: C_44  and  C_46
   25  A    between atoms: C_46  and  C_47
   26  A    between atoms: C_52  and  C_53
   27  A    between atoms: C_57  and  C_58
   28  A    between atoms: C_59  and  C_60
   29  A    between atoms: C_62  and  C_63
                            x       y       z     vdW  Elec       q    Type
                         _______ _______ _______ _____ _____    ______ ____

>  <TORSDO>
F 22

$$$$
