MODEL 1
REMARK VINA RESULT:    -9.982      0.000      0.000
REMARK INTER + INTRA:         -25.557
REMARK INTER:                 -23.246
REMARK INTRA:                  -2.311
REMARK UNBOUND:                -3.029
REMARK  Name = ligand
REMARK  29 active torsions:
REMARK  status: ('A' for Active; 'I' for Inactive)
REMARK    1  A    between atoms: C_1  and  C_2
REMARK    2  A    between atoms: C_6  and  C_7
REMARK    3  A    between atoms: C_12  and  C_13
REMARK    4  A    between atoms: C_13  and  N_14
REMARK    5  A    between atoms: C_15  and  C_17
REMARK    6  A    between atoms: C_19  and  O_20
REMARK    7  A    between atoms: C_23  and  C_25
REMARK    8  A    between atoms: C_25  and  C_26
REMARK    9  A    between atoms: C_25  and  N_30
REMARK   10  A    between atoms: C_26  and  C_27
REMARK   11  A    between atoms: C_26  and  C_28
REMARK   12  A    between atoms: C_26  and  C_29
REMARK   13  A    between atoms: C_31  and  C_33
REMARK   14  A    between atoms: C_33  and  O_34
REMARK   15  A    between atoms: O_34  and  C_35
REMARK   16  A    between atoms: C_35  and  C_36
REMARK   17  A    between atoms: C_36  and  O_37
REMARK   18  A    between atoms: O_37  and  C_38
REMARK   19  A    between atoms: C_38  and  C_39
REMARK   20  A    between atoms: C_39  and  O_40
REMARK   21  A    between atoms: O_40  and  C_41
REMARK   22  A    between atoms: C_41  and  C_42
REMARK   23  A    between atoms: C_42  and  N_43
REMARK   24  A    between atoms: C_44  and  C_46
REMARK   25  A    between atoms: C_46  and  C_47
REMARK   26  A    between atoms: C_52  and  C_53
REMARK   27  A    between atoms: C_57  and  C_58
REMARK   28  A    between atoms: C_59  and  C_60
REMARK   29  A    between atoms: C_62  and  C_63
REMARK                            x       y       z     vdW  Elec       q    Type
REMARK                         _______ _______ _______ _____ _____    ______ ____
ROOT
ATOM      1  C   UNL     1      26.552 -22.765 -16.549  0.00  0.00    +0.000 C 
ENDROOT
BRANCH   1   3
ATOM      2  N   UNL     1      24.461 -23.970 -16.852  0.00  0.00    +0.000 N 
ATOM      3  C   UNL     1      25.087 -22.789 -16.986  0.00  0.00    +0.000 C 
ATOM      4  O   UNL     1      24.546 -21.771 -17.415  0.00  0.00    +0.000 OA
ATOM      5  H   UNL     1      24.995 -24.752 -16.500  0.00  0.00    +0.000 HD
BRANCH   2   6
ATOM      6  C   UNL     1      23.030 -24.245 -17.017  0.00  0.00    +0.000 C 
BRANCH   6  12
ATOM      7  C   UNL     1      21.749 -24.710 -13.309  0.00  0.00    +0.000 C 
ATOM      8  C   UNL     1      21.509 -23.462 -12.446  0.00  0.00    +0.000 C 
ATOM      9  C   UNL     1      22.650 -22.558 -12.886  0.00  0.00    +0.000 C 
ATOM     10  C   UNL     1      22.710 -22.795 -14.398  0.00  0.00    +0.000 C 
ATOM     11  N   UNL     1      22.337 -24.207 -14.579  0.00  0.00    +0.000 N 
ATOM     12  C   UNL     1      22.582 -24.938 -15.700  0.00  0.00    +0.000 C 
ATOM     13  O   UNL     1      22.431 -26.162 -15.732  0.00  0.00    +0.000 OA
BRANCH   7  15
ATOM     14  N   UNL     1      19.581 -25.033 -14.404  0.00  0.00    +0.000 N 
ATOM     15  C   UNL     1      20.465 -25.541 -13.532  0.00  0.00    +0.000 C 
ATOM     16  O   UNL     1      20.304 -26.587 -12.901  0.00  0.00    +0.000 OA
ATOM     17  H   UNL     1      19.797 -24.160 -14.864  0.00  0.00    +0.000 HD
BRANCH  14  18
ATOM     18  C   UNL     1      18.275 -25.620 -14.704  0.00  0.00    +0.000 C 
BRANCH  18  24
ATOM     19  C   UNL     1      14.983 -23.334 -13.097  0.00  0.00    +0.000 A 
ATOM     20  C   UNL     1      15.926 -23.912 -12.240  0.00  0.00    +0.000 A 
ATOM     21  C   UNL     1      16.991 -24.646 -12.755  0.00  0.00    +0.000 A 
ATOM     22  C   UNL     1      15.119 -23.507 -14.478  0.00  0.00    +0.000 A 
ATOM     23  C   UNL     1      16.183 -24.241 -14.996  0.00  0.00    +0.000 A 
ATOM     24  C   UNL     1      17.127 -24.802 -14.135  0.00  0.00    +0.000 A 
BRANCH  19  30
ATOM     25  C   UNL     1      15.145 -20.728 -11.266  0.00  0.00    +0.000 C 
ATOM     26  C   UNL     1      13.914 -21.480 -11.740  0.00  0.00    +0.000 C 
ATOM     27  N   UNL     1      12.680 -21.009 -11.360  0.00  0.00    +0.000 N 
ATOM     28  C   UNL     1      11.532 -21.729 -11.875  0.00  0.00    +0.000 C 
ATOM     29  S   UNL     1      12.191 -23.098 -12.845  0.00  0.00    +0.000 S 
ATOM     30  C   UNL     1      13.851 -22.547 -12.561  0.00  0.00    +0.000 C 
ATOM     31  H   UNL     1      12.514 -20.200 -10.778  0.00  0.00    +0.000 HD
ENDBRANCH  19  30
ENDBRANCH  18  24
ENDBRANCH  14  18
ENDBRANCH   7  15
BRANCH   9  32
ATOM     32  O   UNL     1      23.867 -22.894 -12.243  0.00  0.00    +0.000 OA
ATOM     33  H   UNL     1      24.240 -23.663 -12.681  0.00  0.00    +0.000 HD
ENDBRANCH   9  32
ENDBRANCH   6  12
BRANCH   6  34
ATOM     34  C   UNL     1      22.678 -25.069 -18.321  0.00  0.00    +0.000 C 
ATOM     35  C   UNL     1      23.728 -26.185 -18.561  0.00  0.00    +0.000 C 
ATOM     36  C   UNL     1      22.689 -24.156 -19.575  0.00  0.00    +0.000 C 
ATOM     37  C   UNL     1      21.286 -25.750 -18.232  0.00  0.00    +0.000 C 
ENDBRANCH   6  34
ENDBRANCH   2   6
ENDBRANCH   1   3
BRANCH   1  38
ATOM     38  O   UNL     1      26.802 -23.966 -15.828  0.00  0.00    +0.000 OA
BRANCH  38  39
ATOM     39  C   UNL     1      26.620 -23.878 -14.424  0.00  0.00    +0.000 C 
BRANCH  39  40
ATOM     40  C   UNL     1      27.755 -24.657 -13.746  0.00  0.00    +0.000 C 
BRANCH  40  41
ATOM     41  O   UNL     1      28.812 -24.818 -14.680  0.00  0.00    +0.000 OA
BRANCH  41  42
ATOM     42  C   UNL     1      29.261 -26.158 -14.841  0.00  0.00    +0.000 C 
BRANCH  42  43
ATOM     43  C   UNL     1      28.586 -27.018 -13.764  0.00  0.00    +0.000 C 
BRANCH  43  44
ATOM     44  O   UNL     1      29.097 -28.338 -13.887  0.00  0.00    +0.000 OA
BRANCH  44  45
ATOM     45  C   UNL     1      28.184 -29.304 -14.392  0.00  0.00    +0.000 C 
BRANCH  45  46
ATOM     46  C   UNL     1      28.133 -30.474 -13.391  0.00  0.00    +0.000 C 
BRANCH  46  47
ATOM     47  N   UNL     1      26.864 -31.201 -13.465  0.00  0.00    +0.000 N 
ATOM     48  C   UNL     1      26.677 -32.362 -14.113  0.00  0.00    +0.000 C 
ATOM     49  O   UNL     1      27.513 -32.870 -14.862  0.00  0.00    +0.000 OA
ATOM     50  H   UNL     1      26.111 -30.839 -12.900  0.00  0.00    +0.000 HD
BRANCH  48  51
ATOM     51  C   UNL     1      25.354 -33.089 -13.836  0.00  0.00    +0.000 C 
BRANCH  51  52
ATOM     52  C   UNL     1      24.259 -32.203 -13.170  0.00  0.00    +0.000 C 
ATOM     53  N   UNL     1      23.526 -32.902 -12.115  0.00  0.00    +0.000 NA
ATOM     54  C   UNL     1      23.320 -31.553 -14.188  0.00  0.00    +0.000 A 
ATOM     55  N   UNL     1      23.266 -30.276 -14.482  0.00  0.00    +0.000 NA
ATOM     56  N   UNL     1      22.249 -30.103 -15.412  0.00  0.00    +0.000 NA
ATOM     57  C   UNL     1      21.726 -31.281 -15.635  0.00  0.00    +0.000 A 
ATOM     58  C   UNL     1      20.565 -31.514 -16.581  0.00  0.00    +0.000 C 
ATOM     59  N   UNL     1      22.372 -32.258 -14.901  0.00  0.00    +0.000 N 
ATOM     60  C   UNL     1      22.173 -33.626 -14.849  0.00  0.00    +0.000 A 
ATOM     61  S   UNL     1      21.706 -34.584 -16.208  0.00  0.00    +0.000 S 
ATOM     62  C   UNL     1      21.820 -36.055 -15.309  0.00  0.00    +0.000 A 
ATOM     63  C   UNL     1      21.535 -37.365 -16.010  0.00  0.00    +0.000 C 
ATOM     64  C   UNL     1      22.211 -35.814 -13.985  0.00  0.00    +0.000 A 
ATOM     65  C   UNL     1      22.480 -36.947 -13.004  0.00  0.00    +0.000 C 
ATOM     66  C   UNL     1      22.356 -34.423 -13.699  0.00  0.00    +0.000 A 
ATOM     67  C   UNL     1      22.694 -33.852 -12.361  0.00  0.00    +0.000 C 
BRANCH  67  68
ATOM     68  C   UNL     1      21.968 -34.457 -11.221  0.00  0.00    +0.000 A 
ATOM     69  C   UNL     1      20.614 -34.801 -11.341  0.00  0.00    +0.000 A 
ATOM     70  C   UNL     1      19.935 -35.368 -10.266  0.00  0.00    +0.000 A 
ATOM     71  C   UNL     1      20.603 -35.587  -9.064  0.00  0.00    +0.000 A 
ATOM     72 CL   UNL     1      19.760 -36.289  -7.732  0.00  0.00    +0.000 Cl
ATOM     73  C   UNL     1      21.945 -35.241  -8.927  0.00  0.00    +0.000 A 
ATOM     74  C   UNL     1      22.626 -34.675 -10.001  0.00  0.00    +0.000 A 
ENDBRANCH  67  68
ENDBRANCH  51  52
ENDBRANCH  48  51
ENDBRANCH  46  47
ENDBRANCH  45  46
ENDBRANCH  44  45
ENDBRANCH  43  44
ENDBRANCH  42  43
ENDBRANCH  41  42
ENDBRANCH  40  41
ENDBRANCH  39  40
ENDBRANCH  38  39
ENDBRANCH   1  38
TORSDOF 22
ENDMDL
MODEL 2
REMARK VINA RESULT:    -9.511      3.461      6.051
REMARK INTER + INTRA:         -24.493
REMARK INTER:                 -21.464
REMARK INTRA:                  -3.029
REMARK UNBOUND:                -3.029
REMARK  Name = ligand
REMARK  29 active torsions:
REMARK  status: ('A' for Active; 'I' for Inactive)
REMARK    1  A    between atoms: C_1  and  C_2
REMARK    2  A    between atoms: C_6  and  C_7
REMARK    3  A    between atoms: C_12  and  C_13
REMARK    4  A    between atoms: C_13  and  N_14
REMARK    5  A    between atoms: C_15  and  C_17
REMARK    6  A    between atoms: C_19  and  O_20
REMARK    7  A    between atoms: C_23  and  C_25
REMARK    8  A    between atoms: C_25  and  C_26
REMARK    9  A    between atoms: C_25  and  N_30
REMARK   10  A    between atoms: C_26  and  C_27
REMARK   11  A    between atoms: C_26  and  C_28
REMARK   12  A    between atoms: C_26  and  C_29
REMARK   13  A    between atoms: C_31  and  C_33
REMARK   14  A    between atoms: C_33  and  O_34
REMARK   15  A    between atoms: O_34  and  C_35
REMARK   16  A    between atoms: C_35  and  C_36
REMARK   17  A    between atoms: C_36  and  O_37
REMARK   18  A    between atoms: O_37  and  C_38
REMARK   19  A    between atoms: C_38  and  C_39
REMARK   20  A    between atoms: C_39  and  O_40
REMARK   21  A    between atoms: O_40  and  C_41
REMARK   22  A    between atoms: C_41  and  C_42
REMARK   23  A    between atoms: C_42  and  N_43
REMARK   24  A    between atoms: C_44  and  C_46
REMARK   25  A    between atoms: C_46  and  C_47
REMARK   26  A    between atoms: C_52  and  C_53
REMARK   27  A    between atoms: C_57  and  C_58
REMARK   28  A    between atoms: C_59  and  C_60
REMARK   29  A    between atoms: C_62  and  C_63
REMARK                            x       y       z     vdW  Elec       q    Type
REMARK                         _______ _______ _______ _____ _____    ______ ____
ROOT
ATOM      1  C   UNL     1      23.048 -28.318 -18.143  0.00  0.00    +0.000 C 
ENDROOT
BRANCH   1   3
ATOM      2  N   UNL     1      21.260 -26.716 -17.755  0.00  0.00    +0.000 N 
ATOM      3  C   UNL     1      22.275 -27.067 -18.562  0.00  0.00    +0.000 C 
ATOM      4  O   UNL     1      22.598 -26.441 -19.571  0.00  0.00    +0.000 OA
ATOM      5  H   UNL     1      21.065 -27.302 -16.956  0.00  0.00    +0.000 HD
BRANCH   2   6
ATOM      6  C   UNL     1      20.469 -25.482 -17.803  0.00  0.00    +0.000 C 
BRANCH   6  12
ATOM      7  C   UNL     1      21.156 -25.073 -13.934  0.00  0.00    +0.000 C 
ATOM      8  C   UNL     1      21.391 -26.333 -13.086  0.00  0.00    +0.000 C 
ATOM      9  C   UNL     1      20.418 -27.316 -13.718  0.00  0.00    +0.000 C 
ATOM     10  C   UNL     1      20.551 -27.016 -15.214  0.00  0.00    +0.000 C 
ATOM     11  N   UNL     1      20.807 -25.569 -15.292  0.00  0.00    +0.000 N 
ATOM     12  C   UNL     1      20.654 -24.812 -16.412  0.00  0.00    +0.000 C 
ATOM     13  O   UNL     1      20.688 -23.579 -16.382  0.00  0.00    +0.000 OA
BRANCH   7  15
ATOM     14  N   UNL     1      23.489 -24.595 -14.506  0.00  0.00    +0.000 N 
ATOM     15  C   UNL     1      22.371 -24.118 -13.939  0.00  0.00    +0.000 C 
ATOM     16  O   UNL     1      22.270 -23.007 -13.418  0.00  0.00    +0.000 OA
ATOM     17  H   UNL     1      23.479 -25.527 -14.897  0.00  0.00    +0.000 HD
BRANCH  14  18
ATOM     18  C   UNL     1      24.768 -23.887 -14.551  0.00  0.00    +0.000 C 
BRANCH  18  24
ATOM     19  C   UNL     1      25.185 -21.484 -18.116  0.00  0.00    +0.000 A 
ATOM     20  C   UNL     1      23.926 -21.674 -17.535  0.00  0.00    +0.000 A 
ATOM     21  C   UNL     1      23.789 -22.445 -16.383  0.00  0.00    +0.000 A 
ATOM     22  C   UNL     1      26.304 -22.083 -17.528  0.00  0.00    +0.000 A 
ATOM     23  C   UNL     1      26.170 -22.854 -16.377  0.00  0.00    +0.000 A 
ATOM     24  C   UNL     1      24.912 -23.027 -15.797  0.00  0.00    +0.000 A 
BRANCH  19  30
ATOM     25  C   UNL     1      25.158 -22.500 -21.138  0.00  0.00    +0.000 C 
ATOM     26  C   UNL     1      25.391 -21.095 -20.611  0.00  0.00    +0.000 C 
ATOM     27  N   UNL     1      25.619 -20.090 -21.520  0.00  0.00    +0.000 N 
ATOM     28  C   UNL     1      25.788 -18.757 -20.975  0.00  0.00    +0.000 C 
ATOM     29  S   UNL     1      25.682 -18.930 -19.183  0.00  0.00    +0.000 S 
ATOM     30  C   UNL     1      25.343 -20.662 -19.335  0.00  0.00    +0.000 C 
ATOM     31  H   UNL     1      25.655 -20.203 -22.523  0.00  0.00    +0.000 HD
ENDBRANCH  19  30
ENDBRANCH  18  24
ENDBRANCH  14  18
ENDBRANCH   7  15
BRANCH   9  32
ATOM     32  O   UNL     1      19.094 -27.123 -13.250  0.00  0.00    +0.000 OA
ATOM     33  H   UNL     1      18.994 -27.596 -12.420  0.00  0.00    +0.000 HD
ENDBRANCH   9  32
ENDBRANCH   6  12
BRANCH   6  34
ATOM     34  C   UNL     1      18.955 -25.702 -18.207  0.00  0.00    +0.000 C 
ATOM     35  C   UNL     1      18.012 -25.184 -17.090  0.00  0.00    +0.000 C 
ATOM     36  C   UNL     1      18.645 -27.209 -18.402  0.00  0.00    +0.000 C 
ATOM     37  C   UNL     1      18.579 -24.959 -19.517  0.00  0.00    +0.000 C 
ENDBRANCH   6  34
ENDBRANCH   2   6
ENDBRANCH   1   3
BRANCH   1  38
ATOM     38  O   UNL     1      24.429 -28.064 -18.377  0.00  0.00    +0.000 OA
BRANCH  38  39
ATOM     39  C   UNL     1      25.284 -28.303 -17.271  0.00  0.00    +0.000 C 
BRANCH  39  40
ATOM     40  C   UNL     1      24.906 -27.321 -16.154  0.00  0.00    +0.000 C 
BRANCH  40  41
ATOM     41  O   UNL     1      25.818 -27.490 -15.078  0.00  0.00    +0.000 OA
BRANCH  41  42
ATOM     42  C   UNL     1      27.149 -27.077 -15.361  0.00  0.00    +0.000 C 
BRANCH  42  43
ATOM     43  C   UNL     1      27.958 -27.154 -14.060  0.00  0.00    +0.000 C 
BRANCH  43  44
ATOM     44  O   UNL     1      28.944 -28.162 -14.227  0.00  0.00    +0.000 OA
BRANCH  44  45
ATOM     45  C   UNL     1      28.458 -29.433 -14.641  0.00  0.00    +0.000 C 
BRANCH  45  46
ATOM     46  C   UNL     1      28.078 -30.229 -13.378  0.00  0.00    +0.000 C 
BRANCH  46  47
ATOM     47  N   UNL     1      26.840 -30.989 -13.562  0.00  0.00    +0.000 N 
ATOM     48  C   UNL     1      26.758 -32.207 -14.120  0.00  0.00    +0.000 C 
ATOM     49  O   UNL     1      27.697 -32.762 -14.694  0.00  0.00    +0.000 OA
ATOM     50  H   UNL     1      26.011 -30.593 -13.146  0.00  0.00    +0.000 HD
BRANCH  48  51
ATOM     51  C   UNL     1      25.415 -32.935 -13.966  0.00  0.00    +0.000 C 
BRANCH  51  52
ATOM     52  C   UNL     1      24.305 -32.099 -13.264  0.00  0.00    +0.000 C 
ATOM     53  N   UNL     1      23.603 -32.847 -12.221  0.00  0.00    +0.000 NA
ATOM     54  C   UNL     1      23.338 -31.445 -14.252  0.00  0.00    +0.000 A 
ATOM     55  N   UNL     1      23.247 -30.162 -14.508  0.00  0.00    +0.000 NA
ATOM     56  N   UNL     1      22.216 -29.990 -15.422  0.00  0.00    +0.000 NA
ATOM     57  C   UNL     1      21.721 -31.175 -15.674  0.00  0.00    +0.000 A 
ATOM     58  C   UNL     1      20.557 -31.411 -16.614  0.00  0.00    +0.000 C 
ATOM     59  N   UNL     1      22.402 -32.154 -14.976  0.00  0.00    +0.000 N 
ATOM     60  C   UNL     1      22.239 -33.528 -14.961  0.00  0.00    +0.000 A 
ATOM     61  S   UNL     1      21.782 -34.459 -16.342  0.00  0.00    +0.000 S 
ATOM     62  C   UNL     1      21.945 -35.952 -15.488  0.00  0.00    +0.000 A 
ATOM     63  C   UNL     1      21.687 -37.248 -16.223  0.00  0.00    +0.000 C 
ATOM     64  C   UNL     1      22.344 -35.738 -14.161  0.00  0.00    +0.000 A 
ATOM     65  C   UNL     1      22.654 -36.891 -13.217  0.00  0.00    +0.000 C 
ATOM     66  C   UNL     1      22.456 -34.353 -13.837  0.00  0.00    +0.000 A 
ATOM     67  C   UNL     1      22.793 -33.812 -12.486  0.00  0.00    +0.000 C 
BRANCH  67  68
ATOM     68  C   UNL     1      22.097 -34.468 -11.358  0.00  0.00    +0.000 A 
ATOM     69  C   UNL     1      20.801 -34.978 -11.520  0.00  0.00    +0.000 A 
ATOM     70  C   UNL     1      20.149 -35.593 -10.455  0.00  0.00    +0.000 A 
ATOM     71  C   UNL     1      20.785 -35.696  -9.220  0.00  0.00    +0.000 A 
ATOM     72 CL   UNL     1      19.976 -36.458  -7.900  0.00  0.00    +0.000 Cl
ATOM     73  C   UNL     1      22.069 -35.186  -9.041  0.00  0.00    +0.000 A 
ATOM     74  C   UNL     1      22.723 -34.571 -10.105  0.00  0.00    +0.000 A 
ENDBRANCH  67  68
ENDBRANCH  51  52
ENDBRANCH  48  51
ENDBRANCH  46  47
ENDBRANCH  45  46
ENDBRANCH  44  45
ENDBRANCH  43  44
ENDBRANCH  42  43
ENDBRANCH  41  42
ENDBRANCH  40  41
ENDBRANCH  39  40
ENDBRANCH  38  39
ENDBRANCH   1  38
TORSDOF 22
ENDMDL
