ligand
                    3D
 Structure written by MMmdl.
131137  0  0  1  0            999 V2000
   26.2030  -21.7766  -17.5148 C   0  0  0  0  0  0
   26.2226  -22.8585  -16.4453 C   0  0  0  0  0  0
   25.6517  -22.5864  -15.2176 N   0  0  0  0  0  0
   25.7286  -23.6684  -14.2527 C   0  0  0  0  0  0
   26.5255  -25.0563  -15.0404 S   0  0  0  0  0  0
   26.7337  -24.1220  -16.5284 C   0  0  0  0  0  0
   27.4468  -24.7579  -17.7121 C   0  0  0  0  0  0
   27.7773  -26.1226  -17.6595 C   0  0  0  0  0  0
   28.4375  -26.7334  -18.7109 C   0  0  0  0  0  0
   27.7987  -24.0255  -18.8669 C   0  0  0  0  0  0
   28.4692  -24.6495  -19.9168 C   0  0  0  0  0  0
   28.7919  -26.0015  -19.8382 C   0  0  0  0  0  0
   29.5389  -26.6769  -20.9841 C   0  0  0  0  0  0
   28.8357  -27.8511  -21.4969 N   0  0  0  0  0  0
   28.1952  -27.8283  -22.6729 C   0  0  0  0  0  0
   28.2394  -26.8951  -23.4699 O   0  0  0  0  0  0
   27.3144  -29.0563  -22.9986 C   0  0  2  0  0  0
   27.8195  -29.9180  -24.1655 C   0  0  0  0  0  0
   27.0887  -29.3135  -25.3569 C   0  0  1  0  0  0
   26.9542  -30.1859  -26.4644 O   0  0  0  0  0  0
   25.7183  -28.9321  -24.7912 C   0  0  0  0  0  0
   25.9605  -28.6042  -23.3810 N   0  0  0  0  0  0
   25.0800  -28.0103  -22.5313 C   0  0  0  0  0  0
   25.2972  -27.8829  -21.3216 O   0  0  0  0  0  0
   23.7402  -27.4332  -23.0778 C   0  0  2  0  0  0
   23.7390  -25.8630  -23.2562 C   0  0  0  0  0  0
   23.9268  -25.1105  -21.9123 C   0  0  0  0  0  0
   24.8570  -25.4075  -24.2295 C   0  0  0  0  0  0
   22.3811  -25.4095  -23.8560 C   0  0  0  0  0  0
   22.6282  -27.8900  -22.2417 N   0  0  0  0  0  0
   22.2107  -29.1650  -22.1363 C   0  0  0  0  0  0
   22.7046  -30.0900  -22.7850 O   0  0  0  0  0  0
   21.0683  -29.4299  -21.1575 C   0  0  0  0  0  0
   21.3972  -30.5531  -20.3529 O   0  0  0  0  0  0
   20.3009  -31.0079  -19.5790 C   0  0  0  0  0  0
   20.7600  -32.1087  -18.6194 C   0  0  0  0  0  0
   21.4909  -31.5046  -17.5666 O   0  0  0  0  0  0
   22.1586  -32.4219  -16.7196 C   0  0  0  0  0  0
   22.7444  -31.6352  -15.5422 C   0  0  0  0  0  0
   23.6305  -30.6404  -16.0365 O   0  0  0  0  0  0
   24.2565  -29.8783  -15.0187 C   0  0  0  0  0  0
   25.1509  -28.7982  -15.6511 C   0  0  0  0  0  0
   24.4379  -27.7919  -16.4448 N   0  0  0  0  0  0
   23.6673  -26.8454  -15.8785 C   0  0  0  0  0  0
   23.4822  -26.7667  -14.6576 O   0  0  0  0  0  0
   23.0219  -25.8347  -16.8417 C   0  0  0  0  0  0
   22.4528  -24.5136  -16.2275 C   0  0  2  0  0  0
   21.1954  -24.6876  -15.5536 N   0  0  0  0  0  0
   22.3776  -23.3550  -17.2059 C   0  0  0  0  0  0
   23.0976  -22.2529  -17.1778 N   0  0  0  0  0  0
   22.7512  -21.5003  -18.3291 N   0  0  0  0  0  0
   21.8267  -22.1927  -18.9487 C   0  0  0  0  0  0
   21.1367  -21.7559  -20.2289 C   0  0  0  0  0  0
   21.5476  -23.3545  -18.2786 N   0  0  0  0  0  0
   20.6306  -24.3567  -18.6168 C   0  0  0  0  0  0
   20.1650  -24.7447  -20.1720 S   0  0  0  0  0  0
   19.1569  -26.0335  -19.7275 C   0  0  0  0  0  0
   18.4592  -26.8567  -20.7861 C   0  0  0  0  0  0
   19.1011  -26.1722  -18.3064 C   0  0  0  0  0  0
   18.3043  -27.2473  -17.5952 C   0  0  0  0  0  0
   19.9428  -25.1523  -17.6477 C   0  0  0  0  0  0
   20.0894  -24.9562  -16.1416 C   0  0  0  0  0  0
   18.8179  -25.0730  -15.3505 C   0  0  0  0  0  0
   18.8863  -25.3041  -13.9649 C   0  0  0  0  0  0
   17.7181  -25.3863  -13.2128 C   0  0  0  0  0  0
   16.4794  -25.2312  -13.8271 C   0  0  0  0  0  0
   15.0307  -25.3433  -12.8891 Cl  0  0  0  0  0  0
   16.4008  -24.9833  -15.1957 C   0  0  0  0  0  0
   17.5607  -24.9022  -15.9577 C   0  0  0  0  0  0
   27.1870  -21.3514  -17.6978 H   0  0  0  0  0  0
   25.5670  -20.9538  -17.1996 H   0  0  0  0  0  0
   25.7557  -22.1450  -18.4343 H   0  0  0  0  0  0
   25.2027  -21.7180  -14.9478 H   0  0  0  0  0  0
   26.3642  -23.3998  -13.4199 H   0  0  0  0  0  0
   24.7497  -23.9608  -13.8742 H   0  0  0  0  0  0
   27.5179  -26.7077  -16.7916 H   0  0  0  0  0  0
   28.6878  -27.7853  -18.6510 H   0  0  0  0  0  0
   27.5761  -22.9892  -18.9446 H   0  0  0  0  0  0
   28.7382  -24.0764  -20.7940 H   0  0  0  0  0  0
   30.5031  -27.0113  -20.6145 H   0  0  0  0  0  0
   29.7718  -25.9426  -21.7587 H   0  0  0  0  0  0
   28.7882  -28.6718  -20.8961 H   0  0  0  0  0  0
   27.2972  -29.6807  -22.1039 H   0  0  0  0  0  0
   27.5102  -30.9498  -23.9955 H   0  0  0  0  0  0
   28.9063  -29.8920  -24.2663 H   0  0  0  0  0  0
   27.6109  -28.4069  -25.6771 H   0  0  0  0  0  0
   27.7541  -30.7357  -26.5661 H   0  0  0  0  0  0
   25.0378  -29.7856  -24.8350 H   0  0  0  0  0  0
   25.2748  -28.1198  -25.3603 H   0  0  0  0  0  0
   23.5411  -27.8652  -24.0582 H   0  0  0  0  0  0
   23.8576  -24.0296  -22.0471 H   0  0  0  0  0  0
   24.9031  -25.3048  -21.4665 H   0  0  0  0  0  0
   23.1702  -25.3889  -21.1768 H   0  0  0  0  0  0
   24.8333  -24.3301  -24.3958 H   0  0  0  0  0  0
   24.7648  -25.8823  -25.2072 H   0  0  0  0  0  0
   25.8525  -25.6376  -23.8461 H   0  0  0  0  0  0
   22.3763  -24.3417  -24.0818 H   0  0  0  0  0  0
   21.5529  -25.5872  -23.1672 H   0  0  0  0  0  0
   22.1521  -25.9365  -24.7816 H   0  0  0  0  0  0
   22.1982  -27.1846  -21.6681 H   0  0  0  0  0  0
   20.8814  -28.5577  -20.5233 H   0  0  0  0  0  0
   20.1665  -29.6145  -21.7464 H   0  0  0  0  0  0
   19.8719  -30.1824  -19.0059 H   0  0  0  0  0  0
   19.5193  -31.3859  -20.2378 H   0  0  0  0  0  0
   19.9055  -32.6394  -18.2009 H   0  0  0  0  0  0
   21.3679  -32.8380  -19.1489 H   0  0  0  0  0  0
   21.4736  -33.1857  -16.3492 H   0  0  0  0  0  0
   22.9559  -32.9258  -17.2695 H   0  0  0  0  0  0
   21.9324  -31.1601  -14.9894 H   0  0  0  0  0  0
   23.2628  -32.3163  -14.8626 H   0  0  0  0  0  0
   23.5002  -29.4214  -14.3783 H   0  0  0  0  0  0
   24.8617  -30.5318  -14.3834 H   0  0  0  0  0  0
   25.7613  -28.3078  -14.8905 H   0  0  0  0  0  0
   25.8607  -29.2933  -16.3160 H   0  0  0  0  0  0
   24.5508  -27.8215  -17.4465 H   0  0  0  0  0  0
   23.7914  -25.5601  -17.5629 H   0  0  0  0  0  0
   22.2678  -26.3695  -17.4204 H   0  0  0  0  0  0
   23.1565  -24.2021  -15.4597 H   0  0  0  0  0  0
   21.4678  -22.3401  -21.0876 H   0  0  0  0  0  0
   21.3551  -20.7148  -20.4645 H   0  0  0  0  0  0
   20.0529  -21.8271  -20.1608 H   0  0  0  0  0  0
   18.1001  -27.8129  -20.4095 H   0  0  0  0  0  0
   19.1115  -27.0820  -21.6311 H   0  0  0  0  0  0
   17.5938  -26.3311  -21.1879 H   0  0  0  0  0  0
   18.3533  -28.1856  -18.1442 H   0  0  0  0  0  0
   17.2401  -27.0182  -17.5038 H   0  0  0  0  0  0
   18.7043  -27.4818  -16.6125 H   0  0  0  0  0  0
   19.8440  -25.4231  -13.4803 H   0  0  0  0  0  0
   17.7740  -25.5709  -12.1497 H   0  0  0  0  0  0
   15.4371  -24.8537  -15.6665 H   0  0  0  0  0  0
   17.4868  -24.6937  -17.0120 H   0  0  0  0  0  0
  1  2  1  0  0  0
  1 70  1  0  0  0
  1 71  1  0  0  0
  1 72  1  0  0  0
  2  3  1  0  0  0
  2  6  2  0  0  0
  3  4  1  0  0  0
  3 73  1  0  0  0
  4  5  1  0  0  0
  4 74  1  0  0  0
  4 75  1  0  0  0
  5  6  1  0  0  0
  6  7  1  0  0  0
  7  8  2  0  0  0
  7 10  1  0  0  0
  8  9  1  0  0  0
  8 76  1  0  0  0
  9 12  2  0  0  0
  9 77  1  0  0  0
 10 11  2  0  0  0
 10 78  1  0  0  0
 11 12  1  0  0  0
 11 79  1  0  0  0
 12 13  1  0  0  0
 13 14  1  0  0  0
 13 80  1  0  0  0
 13 81  1  0  0  0
 14 15  1  0  0  0
 14 82  1  0  0  0
 15 16  2  0  0  0
 15 17  1  0  0  0
 17 18  1  0  0  0
 17 22  1  0  0  0
 17 83  1  0  0  0
 18 19  1  0  0  0
 18 84  1  0  0  0
 18 85  1  0  0  0
 19 20  1  0  0  0
 19 21  1  0  0  0
 19 86  1  0  0  0
 20 87  1  0  0  0
 21 22  1  0  0  0
 21 88  1  0  0  0
 21 89  1  0  0  0
 22 23  1  0  0  0
 23 24  2  0  0  0
 23 25  1  0  0  0
 25 26  1  0  0  0
 25 30  1  0  0  0
 25 90  1  0  0  0
 26 27  1  0  0  0
 26 28  1  0  0  0
 26 29  1  0  0  0
 27 91  1  0  0  0
 27 92  1  0  0  0
 27 93  1  0  0  0
 28 94  1  0  0  0
 28 95  1  0  0  0
 28 96  1  0  0  0
 29 97  1  0  0  0
 29 98  1  0  0  0
 29 99  1  0  0  0
 30 31  1  0  0  0
 30100  1  0  0  0
 31 32  2  0  0  0
 31 33  1  0  0  0
 33 34  1  0  0  0
 33101  1  0  0  0
 33102  1  0  0  0
 34 35  1  0  0  0
 35 36  1  0  0  0
 35103  1  0  0  0
 35104  1  0  0  0
 36 37  1  0  0  0
 36105  1  0  0  0
 36106  1  0  0  0
 37 38  1  0  0  0
 38 39  1  0  0  0
 38107  1  0  0  0
 38108  1  0  0  0
 39 40  1  0  0  0
 39109  1  0  0  0
 39110  1  0  0  0
 40 41  1  0  0  0
 41 42  1  0  0  0
 41111  1  0  0  0
 41112  1  0  0  0
 42 43  1  0  0  0
 42113  1  0  0  0
 42114  1  0  0  0
 43 44  1  0  0  0
 43115  1  0  0  0
 44 45  2  0  0  0
 44 46  1  0  0  0
 46 47  1  0  0  0
 46116  1  0  0  0
 46117  1  0  0  0
 47 48  1  0  0  0
 47 49  1  0  0  0
 47118  1  0  0  0
 48 62  2  0  0  0
 49 50  2  0  0  0
 49 54  1  0  0  0
 50 51  1  0  0  0
 51 52  2  0  0  0
 52 53  1  0  0  0
 52 54  1  0  0  0
 53119  1  0  0  0
 53120  1  0  0  0
 53121  1  0  0  0
 54 55  1  0  0  0
 55 56  1  0  0  0
 55 61  2  0  0  0
 56 57  1  0  0  0
 57 58  1  0  0  0
 57 59  2  0  0  0
 58122  1  0  0  0
 58123  1  0  0  0
 58124  1  0  0  0
 59 60  1  0  0  0
 59 61  1  0  0  0
 60125  1  0  0  0
 60126  1  0  0  0
 60127  1  0  0  0
 61 62  1  0  0  0
 62 63  1  0  0  0
 63 64  2  0  0  0
 63 69  1  0  0  0
 64 65  1  0  0  0
 64128  1  0  0  0
 65 66  2  0  0  0
 65129  1  0  0  0
 66 67  1  0  0  0
 66 68  1  0  0  0
 68 69  2  0  0  0
 68130  1  0  0  0
 69131  1  0  0  0
M  END
> <s_m_entry_id>
28

> <s_m_entry_name>
5t35.1_mol3

> <s_m_source_file>
ligprep_1.maegz

> <i_m_source_file_index>
1

> <i_lp_mmshare_version>
38013

> <i_f3d_flags>
0

> <s_lp_Force_Field>
OPLS3

> <r_lp_Energy>
67.487723911233

> <b_lp_Chiralities_Consistent>
1

> <s_lp_Variant>
ligand-1

> <s_m_job_name>
glide-dock_SP_ligprep_ligand

> <s_i_glide_gridfile>
glide-grid_crystal_ligand

> <i_i_glide_lignum>
1

> <i_i_glide_rotatable_bonds>
26

> <r_i_docking_score>
-6.64018862651839

> <r_i_glide_ligand_efficiency>
-0.0962346177756289

> <r_i_glide_ligand_efficiency_sa>
-0.394712628969362

> <r_i_glide_ligand_efficiency_ln>
-1.26863842390027

> <r_i_glide_gscore>
-6.64018862651839

> <r_i_glide_evdw>
-50.5793762207031

> <r_i_glide_ecoul>
-14.8100242614746

> <r_i_glide_energy>
-65.3894004821777

> <r_i_glide_einternal>
8.35618305206299

> <r_i_glide_emodel>
-91.4755289685627

> <r_i_glide_intrahb_reward>
0

> <i_i_glide_confnum>
121

> <i_i_glide_posenum>
98

> <r_i_glide_eff_state_penalty>
0

> <r_i_glide_lipo>
-1.50468754340532

> <r_i_glide_hbond>
-0.559639287477253

> <r_i_glide_metal>
0

> <r_i_glide_rewards>
-0.0211351433495784

> <r_i_glide_erotb>
0.307008374704519

> <r_i_glide_esite>
-0.111262576734414

> <s_m_subgroup_title>
glide-dock_SP_ligprep_ligand_pv1

> <s_m_subgroupid>
glide-dock_SP_ligprep_ligand_pv1

> <b_m_subgroup_collapsed>
0

$$$$
