=
 OpenBabel04082316253D

 62 68  0  0  1  0  0  0  0  0999 V2000
   66.4650   42.3850   55.4660 C   0  0  0  0  0  2  0  0  0  0  0  0
   65.7900   42.5780   54.1060 C   0  0  0  0  0  2  0  0  0  0  0  0
   66.3770   41.6900   53.0040 C   0  0  0  0  0  2  0  0  0  0  0  0
   65.9090   42.1030   51.6120 C   0  0  0  0  0  2  0  0  0  0  0  0
   66.2200   40.0200   50.2870 C   0  0  0  0  0  0  0  0  0  0  0  0
   66.5430   41.3440   50.5690 N   0  0  0  0  0  0  0  0  0  0  0  0
   65.3760   39.3600   50.8860 O   0  0  0  0  0  0  0  0  0  0  0  0
   67.2380   41.7820   50.0260 H   0  0  0  0  0  0  0  0  0  0  0  0
   67.0420   39.4710   49.1360 C   0  0  0  0  0  2  0  0  0  0  0  0
   69.2920   38.1190   46.9530 C   0  0  0  0  0  0  0  0  0  0  0  0
   69.9810   38.7450   45.8500 C   0  0  0  0  0  0  0  0  0  0  0  0
   69.3830   38.5170   44.6310 C   0  0  0  0  0  0  0  0  0  0  0  0
   68.1540   37.4960   46.4760 C   0  0  0  0  0  0  0  0  0  0  0  0
   66.9300   37.0260   48.5700 C   0  0  0  0  0  0  0  0  0  0  0  0
   66.2170   35.9520   46.8230 C   0  0  0  0  0  0  0  0  0  0  0  0
   69.7710   38.1020   48.3370 C   0  0  0  0  0  0  0  0  0  0  0  0
   67.5760   38.0670   49.4150 C   0  0  1  0  0  3  0  0  0  0  0  0
   71.2170   39.5640   45.9830 C   0  0  0  0  0  1  0  0  0  0  0  0
   69.7820   39.0000   43.2900 C   0  0  0  0  0  1  0  0  0  0  0  0
   65.9180   35.5490   45.4310 C   0  0  0  0  0  1  0  0  0  0  0  0
   65.9580   36.2210   48.9530 N   0  0  0  0  0  0  0  0  0  0  0  0
   65.5080   35.5460   47.8500 N   0  0  0  0  0  0  0  0  0  0  0  0
   69.0290   38.0530   49.3830 N   0  0  0  0  0  0  0  0  0  0  0  0
   67.1740   36.8530   47.2230 N   0  0  0  0  0  0  0  0  0  0  0  0
   67.9910   37.5470   44.7870 S   0  0  0  0  0  0  0  0  0  0  0  0
   72.0210   37.0300   48.1930 C   0  0  0  0  0  3  0  0  0  0  0  0
   71.8400   39.2510   49.1270 C   0  0  0  0  0  3  0  0  0  0  0  0
   73.4000   37.0550   48.4000 C   0  0  0  0  0  3  0  0  0  0  0  0
   73.2200   39.2760   49.3340 C   0  0  0  0  0  3  0  0  0  0  0  0
   71.2410   38.1280   48.5570 C   0  0  0  0  0  0  0  0  0  0  0  0
   74.0000   38.1780   48.9700 C   0  0  0  0  0  0  0  0  0  0  0  0
   75.7010   38.2080   49.2260 Cl  0  0  0  0  0  0  0  0  0  0  0  0
   66.3800   43.6190   56.3670 C   0  0  0  0  0  2  0  0  0  0  0  0
   66.4950   44.9100   55.5520 C   0  0  0  0  0  2  0  0  0  0  0  0
   67.1780   46.0180   56.3590 C   0  0  0  0  0  2  0  0  0  0  0  0
   68.4080   46.5830   55.6560 C   0  0  0  0  0  2  0  0  0  0  0  0
   70.0920   45.9130   53.9530 C   0  0  0  0  0  0  0  0  0  0  0  0
   68.8690   45.7360   54.5920 N   0  0  0  0  0  0  0  0  0  0  0  0
   70.9070   46.7940   54.2150 O   0  0  0  0  0  0  0  0  0  0  0  0
   68.2910   44.9940   54.3000 H   0  0  0  0  0  0  0  0  0  0  0  0
   70.3200   44.8800   52.8700 C   0  0  0  0  0  2  0  0  0  0  0  0
   69.1220   44.6210   52.1700 O   0  0  0  0  0  0  0  0  0  0  0  0
   69.8240   41.8430   49.8270 C   0  0  0  0  0  3  0  0  0  0  0  0
   69.4330   42.3860   48.6000 C   0  0  0  0  0  3  0  0  0  0  0  0
   69.7190   42.5910   51.0180 C   0  0  0  0  0  3  0  0  0  0  0  0
   68.9450   43.6770   48.6110 C   0  0  0  0  0  0  0  0  0  0  0  0
   68.8410   44.4120   49.7820 C   0  0  0  0  0  0  0  0  0  0  0  0
   69.2210   43.8970   51.0040 C   0  0  0  0  0  0  0  0  0  0  0  0
   68.4640   44.5090   47.5080 C   0  0  0  0  0  0  0  0  0  0  0  0
   68.2930   45.7260   49.4450 C   0  0  0  0  0  0  0  0  0  0  0  0
   68.0920   45.7060   48.0800 N   0  0  0  0  0  0  0  0  0  0  0  0
   68.4270   44.1500   46.3450 O   0  0  0  0  0  0  0  0  0  0  0  0
   68.0810   46.6090   50.2540 O   0  0  0  0  0  0  0  0  0  0  0  0
   66.3290   49.4410   47.1260 C   0  0  0  0  0  0  0  0  0  0  0  0
   68.3440   48.0570   47.6880 C   0  0  0  0  0  0  0  0  0  0  0  0
   65.5620   48.1820   46.7990 C   0  0  0  0  0  2  0  0  0  0  0  0
   66.0750   46.9960   47.5980 C   0  0  0  0  0  2  0  0  0  0  0  0
   67.5590   46.8090   47.3230 C   0  0  2  0  0  3  0  0  0  0  0  0
   67.6480   49.2550   47.5290 N   0  0  0  0  0  0  0  0  0  0  0  0
   65.8230   50.5550   46.9880 O   0  0  0  0  0  0  0  0  0  0  0  0
   69.5270   48.0250   48.0260 O   0  0  0  0  0  0  0  0  0  0  0  0
   68.1550   50.0750   47.7270 H   0  0  0  0  0  0  0  0  0  0  0  0
  1 33  1  0  0  0  0
  2  1  1  0  0  0  0
  3  2  1  0  0  0  0
  4  3  1  0  0  0  0
  5  6  1  0  0  0  0
  5  7  2  0  0  0  0
  6  4  1  0  0  0  0
  8  6  1  0  0  0  0
  9  5  1  0  0  0  0
 10 16  1  0  0  0  0
 11 18  1  0  0  0  0
 11 10  1  0  0  0  0
 12 25  1  0  0  0  0
 12 11  2  0  0  0  0
 13 10  2  0  0  0  0
 13 24  1  0  0  0  0
 14 21  2  0  0  0  0
 14 17  1  0  0  0  0
 15 24  1  0  0  0  0
 15 22  2  0  0  0  0
 16 30  1  0  0  0  0
 16 23  2  0  0  0  0
 17  9  1  6  0  0  0
 19 12  1  0  0  0  0
 20 15  1  0  0  0  0
 22 21  1  0  0  0  0
 23 17  1  0  0  0  0
 24 14  1  0  0  0  0
 25 13  1  0  0  0  0
 26 28  2  0  0  0  0
 26 30  1  0  0  0  0
 27 29  1  0  0  0  0
 28 31  1  0  0  0  0
 30 27  2  0  0  0  0
 31 32  1  0  0  0  0
 31 29  2  0  0  0  0
 34 35  1  0  0  0  0
 34 33  1  0  0  0  0
 36 35  1  0  0  0  0
 37 39  2  0  0  0  0
 37 38  1  0  0  0  0
 38 36  1  0  0  0  0
 40 38  1  0  0  0  0
 41 37  1  0  0  0  0
 42 41  1  0  0  0  0
 43 45  1  0  0  0  0
 44 46  1  0  0  0  0
 44 43  2  0  0  0  0
 46 47  2  0  0  0  0
 47 48  1  0  0  0  0
 48 45  2  0  0  0  0
 48 42  1  0  0  0  0
 49 51  1  0  0  0  0
 49 46  1  0  0  0  0
 50 47  1  0  0  0  0
 50 53  2  0  0  0  0
 51 50  1  0  0  0  0
 52 49  2  0  0  0  0
 54 59  1  0  0  0  0
 55 61  2  0  0  0  0
 56 54  1  0  0  0  0
 56 57  1  0  0  0  0
 58 57  1  1  0  0  0
 58 55  1  0  0  0  0
 58 51  1  0  0  0  0
 59 55  1  0  0  0  0
 59 62  1  0  0  0  0
 60 54  2  0  0  0  0
M  END
>  <MODEL>
1

>  <REMARK>
 VINA RESULT:   -11.154      0.000      0.000
 INTER + INTRA:         -24.340
 INTER:                 -21.095
 INTRA:                  -3.245
 UNBOUND:                -2.753
  Name = 
  19 active torsions:
  status: ('A' for Active; 'I' for Inactive)
    1  A    between atoms: C_8  and  C_19
    2  A    between atoms: C_12  and  C_30
    3  A    between atoms: C_13  and  O_57
    4  A    between atoms: C_15  and  C_31
    5  A    between atoms: C_18  and  C_32
    6  A    between atoms: C_24  and  C_33
    7  A    between atoms: C_25  and  C_34
    8  A    between atoms: C_28  and  C_33
    9  A    between atoms: C_29  and  N_48
   10  A    between atoms: C_34  and  O_57
   11  A    between atoms: C_35  and  C_36
   12  A    between atoms: C_35  and  C_37
   13  A    between atoms: C_36  and  C_38
   14  A    between atoms: C_37  and  C_39
   15  A    between atoms: C_38  and  C_40
   16  A    between atoms: C_39  and  C_41
   17  A    between atoms: C_40  and  C_42
   18  A    between atoms: C_41  and  N_49
   19  A    between atoms: C_42  and  N_50
                            x       y       z     vdW  Elec       q    Type
                         _______ _______ _______ _____ _____    ______ ____

>  <TORSDO>
F 16

$$$$
=
 OpenBabel04082316253D

 62 68  0  0  1  0  0  0  0  0999 V2000
   65.7370   43.7750   55.4330 C   0  0  0  0  0  2  0  0  0  0  0  0
   65.1590   42.6060   56.2340 C   0  0  0  0  0  2  0  0  0  0  0  0
   63.6710   42.3600   55.9620 C   0  0  0  0  0  2  0  0  0  0  0  0
   63.1000   41.2380   56.8230 C   0  0  0  0  0  2  0  0  0  0  0  0
   63.2150   38.7660   57.0780 C   0  0  0  0  0  0  0  0  0  0  0  0
   63.5470   39.9380   56.4050 N   0  0  0  0  0  0  0  0  0  0  0  0
   62.5180   38.7080   58.0870 O   0  0  0  0  0  0  0  0  0  0  0  0
   64.1140   39.8720   55.6020 H   0  0  0  0  0  0  0  0  0  0  0  0
   63.8210   37.5430   56.4150 C   0  0  0  0  0  2  0  0  0  0  0  0
   64.8330   37.1310   53.1800 C   0  0  0  0  0  0  0  0  0  0  0  0
   64.0350   36.9680   51.9900 C   0  0  0  0  0  0  0  0  0  0  0  0
   63.8860   35.6530   51.6080 C   0  0  0  0  0  0  0  0  0  0  0  0
   65.1880   35.8850   53.6590 C   0  0  0  0  0  0  0  0  0  0  0  0
   66.0210   36.4380   55.9180 C   0  0  0  0  0  0  0  0  0  0  0  0
   66.5420   34.4540   55.2020 C   0  0  0  0  0  0  0  0  0  0  0  0
   65.2460   38.4210   53.7390 C   0  0  0  0  0  0  0  0  0  0  0  0
   65.3000   37.7290   56.0850 C   0  0  1  0  0  3  0  0  0  0  0  0
   63.4180   38.0870   51.2260 C   0  0  0  0  0  1  0  0  0  0  0  0
   63.1340   35.0930   50.4630 C   0  0  0  0  0  1  0  0  0  0  0  0
   66.5520   33.1700   54.4680 C   0  0  0  0  0  1  0  0  0  0  0  0
   66.7810   35.8600   56.8280 N   0  0  0  0  0  0  0  0  0  0  0  0
   67.1080   34.6090   56.3760 N   0  0  0  0  0  0  0  0  0  0  0  0
   65.4690   38.6590   54.9800 N   0  0  0  0  0  0  0  0  0  0  0  0
   65.8810   35.6010   54.8300 N   0  0  0  0  0  0  0  0  0  0  0  0
   64.7020   34.5960   52.6660 S   0  0  0  0  0  0  0  0  0  0  0  0
   64.7350   40.7420   52.9730 C   0  0  0  0  0  3  0  0  0  0  0  0
   66.3270   39.4200   51.7240 C   0  0  0  0  0  3  0  0  0  0  0  0
   64.9170   41.8010   52.0850 C   0  0  0  0  0  3  0  0  0  0  0  0
   66.5080   40.4800   50.8350 C   0  0  0  0  0  3  0  0  0  0  0  0
   65.4400   39.5500   52.7930 C   0  0  0  0  0  0  0  0  0  0  0  0
   65.8040   41.6710   51.0160 C   0  0  0  0  0  0  0  0  0  0  0  0
   66.0270   42.9780   49.9200 Cl  0  0  0  0  0  0  0  0  0  0  0  0
   66.0230   45.0130   56.2860 C   0  0  0  0  0  2  0  0  0  0  0  0
   67.0410   45.9320   55.6060 C   0  0  0  0  0  2  0  0  0  0  0  0
   67.8650   46.7090   56.6370 C   0  0  0  0  0  2  0  0  0  0  0  0
   69.3610   46.6640   56.3460 C   0  0  0  0  0  2  0  0  0  0  0  0
   70.0500   46.3310   53.9800 C   0  0  0  0  0  0  0  0  0  0  0  0
   69.6770   45.8280   55.2220 N   0  0  0  0  0  0  0  0  0  0  0  0
   70.1520   47.5220   53.6980 O   0  0  0  0  0  0  0  0  0  0  0  0
   69.6270   44.8510   55.3370 H   0  0  0  0  0  0  0  0  0  0  0  0
   70.3220   45.2260   52.9810 C   0  0  0  0  0  2  0  0  0  0  0  0
   69.1280   44.8250   52.3450 O   0  0  0  0  0  0  0  0  0  0  0  0
   69.8890   41.9730   50.1110 C   0  0  0  0  0  3  0  0  0  0  0  0
   69.5080   42.4690   48.8600 C   0  0  0  0  0  3  0  0  0  0  0  0
   69.7610   42.7620   51.2730 C   0  0  0  0  0  3  0  0  0  0  0  0
   69.0060   43.7540   48.8200 C   0  0  0  0  0  0  0  0  0  0  0  0
   68.8800   44.5290   49.9620 C   0  0  0  0  0  0  0  0  0  0  0  0
   69.2490   44.0610   51.2070 C   0  0  0  0  0  0  0  0  0  0  0  0
   68.5310   44.5420   47.6820 C   0  0  0  0  0  0  0  0  0  0  0  0
   68.3230   45.8240   49.5720 C   0  0  0  0  0  0  0  0  0  0  0  0
   68.1400   45.7540   48.2060 N   0  0  0  0  0  0  0  0  0  0  0  0
   68.5130   44.1410   46.5320 O   0  0  0  0  0  0  0  0  0  0  0  0
   68.0910   46.7330   50.3470 O   0  0  0  0  0  0  0  0  0  0  0  0
   66.3580   49.4370   47.0980 C   0  0  0  0  0  0  0  0  0  0  0  0
   68.3770   48.0910   47.7290 C   0  0  0  0  0  0  0  0  0  0  0  0
   65.6030   48.1610   46.8130 C   0  0  0  0  0  2  0  0  0  0  0  0
   66.1180   47.0090   47.6590 C   0  0  0  0  0  2  0  0  0  0  0  0
   67.6050   46.8240   47.4040 C   0  0  2  0  0  3  0  0  0  0  0  0
   67.6740   49.2760   47.5190 N   0  0  0  0  0  0  0  0  0  0  0  0
   65.8450   50.5410   46.9150 O   0  0  0  0  0  0  0  0  0  0  0  0
   69.5580   48.0800   48.0770 O   0  0  0  0  0  0  0  0  0  0  0  0
   68.1740   50.1070   47.6900 H   0  0  0  0  0  0  0  0  0  0  0  0
  1  2  1  0  0  0  0
  1 33  1  0  0  0  0
  3  2  1  0  0  0  0
  3  4  1  0  0  0  0
  5  7  2  0  0  0  0
  6  4  1  0  0  0  0
  6  5  1  0  0  0  0
  8  6  1  0  0  0  0
  9  5  1  0  0  0  0
 10 13  2  0  0  0  0
 10 16  1  0  0  0  0
 11 10  1  0  0  0  0
 12 11  2  0  0  0  0
 12 25  1  0  0  0  0
 13 24  1  0  0  0  0
 14 17  1  0  0  0  0
 14 21  2  0  0  0  0
 15 22  2  0  0  0  0
 16 23  2  0  0  0  0
 17  9  1  6  0  0  0
 18 11  1  0  0  0  0
 19 12  1  0  0  0  0
 20 15  1  0  0  0  0
 22 21  1  0  0  0  0
 23 17  1  0  0  0  0
 24 15  1  0  0  0  0
 24 14  1  0  0  0  0
 25 13  1  0  0  0  0
 27 30  2  0  0  0  0
 28 26  2  0  0  0  0
 29 31  2  0  0  0  0
 29 27  1  0  0  0  0
 30 26  1  0  0  0  0
 30 16  1  0  0  0  0
 31 28  1  0  0  0  0
 32 31  1  0  0  0  0
 34 33  1  0  0  0  0
 34 35  1  0  0  0  0
 36 35  1  0  0  0  0
 37 38  1  0  0  0  0
 38 40  1  0  0  0  0
 38 36  1  0  0  0  0
 39 37  2  0  0  0  0
 41 37  1  0  0  0  0
 42 41  1  0  0  0  0
 43 45  1  0  0  0  0
 44 43  2  0  0  0  0
 46 44  1  0  0  0  0
 46 47  2  0  0  0  0
 47 48  1  0  0  0  0
 48 45  2  0  0  0  0
 48 42  1  0  0  0  0
 49 51  1  0  0  0  0
 49 46  1  0  0  0  0
 50 47  1  0  0  0  0
 50 53  2  0  0  0  0
 51 50  1  0  0  0  0
 52 49  2  0  0  0  0
 54 59  1  0  0  0  0
 55 61  2  0  0  0  0
 56 54  1  0  0  0  0
 56 57  1  0  0  0  0
 58 57  1  1  0  0  0
 58 55  1  0  0  0  0
 58 51  1  0  0  0  0
 59 62  1  0  0  0  0
 59 55  1  0  0  0  0
 60 54  2  0  0  0  0
M  END
>  <MODEL>
2

>  <REMARK>
 VINA RESULT:   -10.984      3.927      5.770
 INTER + INTRA:         -24.011
 INTER:                 -21.258
 INTRA:                  -2.753
 UNBOUND:                -2.753
  Name = 
  19 active torsions:
  status: ('A' for Active; 'I' for Inactive)
    1  A    between atoms: C_8  and  C_19
    2  A    between atoms: C_12  and  C_30
    3  A    between atoms: C_13  and  O_57
    4  A    between atoms: C_15  and  C_31
    5  A    between atoms: C_18  and  C_32
    6  A    between atoms: C_24  and  C_33
    7  A    between atoms: C_25  and  C_34
    8  A    between atoms: C_28  and  C_33
    9  A    between atoms: C_29  and  N_48
   10  A    between atoms: C_34  and  O_57
   11  A    between atoms: C_35  and  C_36
   12  A    between atoms: C_35  and  C_37
   13  A    between atoms: C_36  and  C_38
   14  A    between atoms: C_37  and  C_39
   15  A    between atoms: C_38  and  C_40
   16  A    between atoms: C_39  and  C_41
   17  A    between atoms: C_40  and  C_42
   18  A    between atoms: C_41  and  N_49
   19  A    between atoms: C_42  and  N_50
                            x       y       z     vdW  Elec       q    Type
                         _______ _______ _______ _____ _____    ______ ____

>  <TORSDO>
F 16

$$$$
