REMARK  Name = 
REMARK  19 active torsions:
REMARK  status: ('A' for Active; 'I' for Inactive)
REMARK    1  A    between atoms: C_8  and  C_19
REMARK    2  A    between atoms: C_12  and  C_30
REMARK    3  A    between atoms: C_13  and  O_57
REMARK    4  A    between atoms: C_15  and  C_31
REMARK    5  A    between atoms: C_18  and  C_32
REMARK    6  A    between atoms: C_24  and  C_33
REMARK    7  A    between atoms: C_25  and  C_34
REMARK    8  A    between atoms: C_28  and  C_33
REMARK    9  A    between atoms: C_29  and  N_48
REMARK   10  A    between atoms: C_34  and  O_57
REMARK   11  A    between atoms: C_35  and  C_36
REMARK   12  A    between atoms: C_35  and  C_37
REMARK   13  A    between atoms: C_36  and  C_38
REMARK   14  A    between atoms: C_37  and  C_39
REMARK   15  A    between atoms: C_38  and  C_40
REMARK   16  A    between atoms: C_39  and  C_41
REMARK   17  A    between atoms: C_40  and  C_42
REMARK   18  A    between atoms: C_41  and  N_49
REMARK   19  A    between atoms: C_42  and  N_50
REMARK                            x       y       z     vdW  Elec       q    Type
REMARK                         _______ _______ _______ _____ _____    ______ ____
ROOT
ATOM      1  C   UNL     1      74.301  35.402  47.299  0.00  0.00    +0.000 C 
ENDROOT
BRANCH   1   2
ATOM      2  C   UNL     1      73.885  34.254  48.223  0.00  0.00    +0.000 C 
BRANCH   2   3
ATOM      3  C   UNL     1      75.049  33.675  49.034  0.00  0.00    +0.000 C 
BRANCH   3   4
ATOM      4  C   UNL     1      74.621  32.502  49.910  0.00  0.00    +0.000 C 
BRANCH   4   6
ATOM      5  C   UNL     1      73.936  33.330  52.154  0.00  0.00    +0.000 C 
ATOM      6  N   UNL     1      73.624  32.870  50.878  0.00  0.00    +0.000 N 
ATOM      7  O   UNL     1      75.074  33.470  52.592  0.00  0.00    +0.000 OA
ATOM      8  H   UNL     1      72.675  32.795  50.626  0.00  0.00    +0.000 HD
BRANCH   5   9
ATOM      9  C   UNL     1      72.690  33.646  52.960  0.00  0.00    +0.000 C 
BRANCH   9  17
ATOM     10  C   UNL     1      70.282  36.026  53.402  0.00  0.00    +0.000 A 
ATOM     11  C   UNL     1      68.944  36.079  52.864  0.00  0.00    +0.000 A 
ATOM     12  C   UNL     1      68.838  36.864  51.738  0.00  0.00    +0.000 A 
ATOM     13  C   UNL     1      71.126  36.748  52.580  0.00  0.00    +0.000 A 
ATOM     14  C   UNL     1      73.346  36.032  53.394  0.00  0.00    +0.000 A 
ATOM     15  C   UNL     1      73.350  37.807  52.142  0.00  0.00    +0.000 A 
ATOM     16  C   UNL     1      70.654  35.363  54.654  0.00  0.00    +0.000 C 
ATOM     17  C   UNL     1      72.927  34.739  54.000  0.00  0.00    +0.000 C 
ATOM     18  C   UNL     1      67.772  35.368  53.444  0.00  0.00    +0.000 C 
ATOM     19  C   UNL     1      67.648  37.147  50.905  0.00  0.00    +0.000 C 
ATOM     20  C   UNL     1      72.985  38.844  51.153  0.00  0.00    +0.000 C 
ATOM     21  N   UNL     1      74.583  36.483  53.327  0.00  0.00    +0.000 NA
ATOM     22  N   UNL     1      74.585  37.601  52.536  0.00  0.00    +0.000 NA
ATOM     23  N   UNL     1      71.797  34.839  54.910  0.00  0.00    +0.000 NA
ATOM     24  N   UNL     1      72.505  36.875  52.696  0.00  0.00    +0.000 N 
ATOM     25  S   UNL     1      70.337  37.552  51.309  0.00  0.00    +0.000 S 
BRANCH  16  30
ATOM     26  C   UNL     1      69.104  36.479  56.262  0.00  0.00    +0.000 A 
ATOM     27  C   UNL     1      69.197  34.065  56.209  0.00  0.00    +0.000 A 
ATOM     28  C   UNL     1      68.144  36.420  57.272  0.00  0.00    +0.000 A 
ATOM     29  C   UNL     1      68.237  34.006  57.220  0.00  0.00    +0.000 A 
ATOM     30  C   UNL     1      69.631  35.301  55.730  0.00  0.00    +0.000 A 
ATOM     31  C   UNL     1      67.710  35.184  57.751  0.00  0.00    +0.000 A 
ATOM     32 CL   UNL     1      66.527  35.112  58.998  0.00  0.00    +0.000 Cl
ENDBRANCH  16  30
ENDBRANCH   9  17
ENDBRANCH   5   9
ENDBRANCH   4   6
ENDBRANCH   3   4
ENDBRANCH   2   3
ENDBRANCH   1   2
BRANCH   1  33
ATOM     33  C   UNL     1      73.156  35.928  46.431  0.00  0.00    +0.000 C 
BRANCH  33  34
ATOM     34  C   UNL     1      71.993  36.429  47.291  0.00  0.00    +0.000 C 
BRANCH  34  35
ATOM     35  C   UNL     1      70.859  36.984  46.424  0.00  0.00    +0.000 C 
BRANCH  35  36
ATOM     36  C   UNL     1      69.659  37.438  47.249  0.00  0.00    +0.000 C 
BRANCH  36  38
ATOM     37  C   UNL     1      69.904  39.842  47.836  0.00  0.00    +0.000 C 
ATOM     38  N   UNL     1      69.990  38.493  48.165  0.00  0.00    +0.000 N 
ATOM     39  O   UNL     1      69.543  40.285  46.749  0.00  0.00    +0.000 OA
ATOM     40  H   UNL     1      70.293  38.250  49.070  0.00  0.00    +0.000 HD
BRANCH  37  41
ATOM     41  C   UNL     1      70.315  40.733  48.989  0.00  0.00    +0.000 C 
BRANCH  41  42
ATOM     42  O   UNL     1      70.236  42.093  48.620  0.00  0.00    +0.000 OA
BRANCH  42  48
ATOM     43  C   UNL     1      70.141  43.680  51.962  0.00  0.00    +0.000 A 
ATOM     44  C   UNL     1      69.453  44.870  51.704  0.00  0.00    +0.000 A 
ATOM     45  C   UNL     1      70.401  42.755  50.930  0.00  0.00    +0.000 A 
ATOM     46  C   UNL     1      69.046  45.091  50.404  0.00  0.00    +0.000 A 
ATOM     47  C   UNL     1      69.302  44.181  49.390  0.00  0.00    +0.000 A 
ATOM     48  C   UNL     1      69.979  43.001  49.621  0.00  0.00    +0.000 A 
ATOM     49  C   UNL     1      68.317  46.221  49.827  0.00  0.00    +0.000 C 
ATOM     50  C   UNL     1      68.741  44.715  48.149  0.00  0.00    +0.000 C 
ATOM     51  N   UNL     1      68.177  45.928  48.488  0.00  0.00    +0.000 N 
ATOM     52  O   UNL     1      67.943  47.190  50.462  0.00  0.00    +0.000 OA
ATOM     53  O   UNL     1      68.797  44.152  47.072  0.00  0.00    +0.000 OA
BRANCH  51  58
ATOM     54  C   UNL     1      66.170  49.292  46.868  0.00  0.00    +0.000 C 
ATOM     55  C   UNL     1      68.290  48.099  47.478  0.00  0.00    +0.000 C 
ATOM     56  C   UNL     1      65.411  47.992  46.984  0.00  0.00    +0.000 C 
ATOM     57  C   UNL     1      66.069  47.051  47.979  0.00  0.00    +0.000 C 
ATOM     58  C   UNL     1      67.508  46.799  47.557  0.00  0.00    +0.000 C 
ATOM     59  N   UNL     1      67.537  49.215  47.117  0.00  0.00    +0.000 N 
ATOM     60  O   UNL     1      65.611  50.333  46.523  0.00  0.00    +0.000 OA
ATOM     61  O   UNL     1      69.508  48.154  47.644  0.00  0.00    +0.000 OA
ATOM     62  H   UNL     1      68.037  50.058  47.026  0.00  0.00    +0.000 HD
ENDBRANCH  51  58
ENDBRANCH  42  48
ENDBRANCH  41  42
ENDBRANCH  37  41
ENDBRANCH  36  38
ENDBRANCH  35  36
ENDBRANCH  34  35
ENDBRANCH  33  34
ENDBRANCH   1  33
TORSDOF 16
