ligand
                    3D
 Structure written by MMmdl.
104110  0  0  1  0            999 V2000
   -6.0981    8.4658   -0.3956 N   0  0  0  0  0  0
   -8.5915    8.4309   -0.3196 C   0  0  0  0  0  0
    9.6470   -0.5255   -1.8202 O   0  0  0  0  0  0
   -7.2242    7.8049   -0.5013 C   0  0  0  0  0  0
    2.8926   -0.5822   -1.5525 C   0  0  0  0  0  0
    4.2407   -0.7078   -0.8218 C   0  0  0  0  0  0
    4.8943   -2.0921   -1.0035 C   0  0  0  0  0  0
    6.2386   -2.2692   -0.2686 C   0  0  0  0  0  0
    7.7103   -0.2455   -0.3888 C   0  0  0  0  0  0
    8.8557    0.4495   -1.1392 C   0  0  0  0  0  0
   10.4044   -0.1414   -2.9084 C   0  0  0  0  0  0
   10.7258    1.1885   -3.2371 C   0  0  0  0  0  0
   11.5085    1.4707   -4.3630 C   0  0  0  0  0  0
   11.9842    0.4338   -5.1706 C   0  0  0  0  0  0
   -5.6136    6.3993   -0.8891 C   0  0  0  0  0  0
   11.6652   -0.8801   -4.8280 C   0  0  0  0  0  0
   12.0223   -2.1641   -5.4807 C   0  0  0  0  0  0
   11.5430   -4.5906   -4.9855 C   0  0  2  0  0  0
   12.9823   -5.1400   -4.7452 C   0  0  0  0  0  0
   12.4949   -7.1393   -6.1256 C   0  0  0  0  0  0
   11.0851   -6.6123   -6.4791 C   0  0  0  0  0  0
   10.9932   -5.0800   -6.3449 C   0  0  0  0  0  0
   10.8998   -1.1618   -3.7279 C   0  0  0  0  0  0
   10.7474   -2.6397   -3.6503 C   0  0  0  0  0  0
   -6.5264    4.4189   -2.9343 C   0  0  0  0  0  0
   -4.9282    5.0887   -1.2874 C   0  0  2  0  0  0
   -6.8614    4.0732   -4.3327 C   0  0  0  0  0  0
   -7.9965    4.6209   -4.9487 C   0  0  0  0  0  0
   -8.3070    4.2937   -6.2658 C   0  0  0  0  0  0
   -7.4829    3.4231   -6.9756 C   0  0  0  0  0  0
   -6.3470    2.8805   -6.3793 C   0  0  0  0  0  0
   -6.0338    3.2071   -5.0628 C   0  0  0  0  0  0
   -7.6772    4.4138   -1.9791 C   0  0  0  0  0  0
   -7.8625    5.4254   -1.0112 C   0  0  0  0  0  0
   -9.6766    3.7115   -0.9585 C   0  0  0  0  0  0
  -10.9289    2.9445   -0.5915 C   0  0  0  0  0  0
   -3.3789    5.1583   -1.1840 C   0  0  0  0  0  0
   -8.6961    3.4184   -1.9168 C   0  0  0  0  0  0
   -8.7371    2.1462   -2.7518 C   0  0  0  0  0  0
   -2.6852    3.7935   -1.3233 C   0  0  0  0  0  0
   -1.1105    2.4196   -2.6759 C   0  0  0  0  0  0
    0.1645    2.2479   -1.8275 C   0  0  0  0  0  0
    0.8989    0.9271   -2.1182 C   0  0  0  0  0  0
    2.2099    0.7785   -1.3260 C   0  0  0  0  0  0
   -5.0672    7.5694   -0.6539 N   0  0  0  0  0  0
   -1.8518    3.6417   -2.3680 N   0  0  0  0  0  0
    7.3223   -1.4593   -0.8261 N   0  0  0  0  0  0
   11.4470   -3.1322   -4.7100 N   0  0  0  0  0  0
   13.2242   -6.3503   -5.3011 N   0  0  0  0  0  0
   -5.3055    4.7093   -2.6493 N   0  0  0  0  0  0
   -6.9879    6.4786   -0.8044 N   0  0  0  0  0  0
   12.9343   -8.2065   -6.5480 O   0  0  0  0  0  0
   13.8479   -4.5575   -4.0923 O   0  0  0  0  0  0
   12.6979   -2.3221   -6.4981 O   0  0  0  0  0  0
   10.1207   -3.2835   -2.8070 O   0  0  0  0  0  0
    7.1810    0.3294    0.5630 O   0  0  0  0  0  0
   -2.9110    2.9063   -0.4991 O   0  0  0  0  0  0
   -9.3026    5.1639   -0.0957 S   0  0  0  0  0  0
   -7.8709    3.0154   -8.6069 Cl  0  0  0  0  0  0
   -8.5447    9.5200   -0.2872 H   0  0  0  0  0  0
   -9.2669    8.1688   -1.1344 H   0  0  0  0  0  0
   -9.0610    8.1073    0.6094 H   0  0  0  0  0  0
    2.2236   -1.3783   -1.2221 H   0  0  0  0  0  0
    3.0483   -0.7375   -2.6213 H   0  0  0  0  0  0
    4.0990   -0.5137    0.2424 H   0  0  0  0  0  0
    4.9123    0.0691   -1.1880 H   0  0  0  0  0  0
    5.0346   -2.2946   -2.0666 H   0  0  0  0  0  0
    4.2030   -2.8558   -0.6443 H   0  0  0  0  0  0
    6.5469   -3.3125   -0.3436 H   0  0  0  0  0  0
    6.1111   -2.0720    0.7979 H   0  0  0  0  0  0
    8.4004    1.1602   -1.8314 H   0  0  0  0  0  0
    9.4821    1.0071   -0.4412 H   0  0  0  0  0  0
   10.3834    2.0106   -2.6267 H   0  0  0  0  0  0
   11.7491    2.4950   -4.6072 H   0  0  0  0  0  0
   12.5879    0.6601   -6.0377 H   0  0  0  0  0  0
   10.9493   -5.0951   -4.2213 H   0  0  0  0  0  0
   10.3743   -7.0996   -5.8104 H   0  0  0  0  0  0
   10.8330   -6.9209   -7.4944 H   0  0  0  0  0  0
   11.5296   -4.6097   -7.1709 H   0  0  0  0  0  0
    9.9527   -4.7712   -6.4524 H   0  0  0  0  0  0
   -5.2568    4.3112   -0.5913 H   0  0  0  0  0  0
   -8.6446    5.3019   -4.4148 H   0  0  0  0  0  0
   -9.1846    4.7161   -6.7329 H   0  0  0  0  0  0
   -5.7092    2.2075   -6.9334 H   0  0  0  0  0  0
   -5.1501    2.7750   -4.6140 H   0  0  0  0  0  0
  -11.1600    2.1462   -1.2960 H   0  0  0  0  0  0
  -10.8403    2.4862    0.3937 H   0  0  0  0  0  0
  -11.8026    3.5960   -0.5643 H   0  0  0  0  0  0
   -3.0966    5.5533   -0.2069 H   0  0  0  0  0  0
   -2.9833    5.8677   -1.9143 H   0  0  0  0  0  0
   -9.2118    1.3188   -2.2247 H   0  0  0  0  0  0
   -9.2887    2.2913   -3.6809 H   0  0  0  0  0  0
   -7.7426    1.7868   -3.0154 H   0  0  0  0  0  0
   -1.7608    1.5494   -2.5610 H   0  0  0  0  0  0
   -0.8409    2.4500   -3.7323 H   0  0  0  0  0  0
   -0.0906    2.2871   -0.7672 H   0  0  0  0  0  0
    0.8350    3.0891   -2.0111 H   0  0  0  0  0  0
    1.1145    0.8563   -3.1857 H   0  0  0  0  0  0
    0.2370    0.0916   -1.8841 H   0  0  0  0  0  0
    2.8930    1.5818   -1.6067 H   0  0  0  0  0  0
    2.0094    0.9065   -0.2611 H   0  0  0  0  0  0
   -1.7177    4.4199   -2.9973 H   0  0  0  0  0  0
    7.8290   -1.8698   -1.5973 H   0  0  0  0  0  0
   14.1454   -6.7120   -5.1019 H   0  0  0  0  0  0
  1  4  2  0  0  0
  1 45  1  0  0  0
  2  4  1  0  0  0
  2 60  1  0  0  0
  2 61  1  0  0  0
  2 62  1  0  0  0
  3 10  1  0  0  0
  3 11  1  0  0  0
  4 51  1  0  0  0
  5  6  1  0  0  0
  5 44  1  0  0  0
  5 63  1  0  0  0
  5 64  1  0  0  0
  6  7  1  0  0  0
  6 65  1  0  0  0
  6 66  1  0  0  0
  7  8  1  0  0  0
  7 67  1  0  0  0
  7 68  1  0  0  0
  8 47  1  0  0  0
  8 69  1  0  0  0
  8 70  1  0  0  0
  9 10  1  0  0  0
  9 47  1  0  0  0
  9 56  2  0  0  0
 10 71  1  0  0  0
 10 72  1  0  0  0
 11 12  2  0  0  0
 11 23  1  0  0  0
 12 13  1  0  0  0
 12 73  1  0  0  0
 13 14  2  0  0  0
 13 74  1  0  0  0
 14 16  1  0  0  0
 14 75  1  0  0  0
 15 26  1  0  0  0
 15 45  2  0  0  0
 15 51  1  0  0  0
 16 17  1  0  0  0
 16 23  2  0  0  0
 17 48  1  0  0  0
 17 54  2  0  0  0
 18 19  1  0  0  0
 18 22  1  0  0  0
 18 48  1  0  0  0
 18 76  1  0  0  0
 19 49  1  0  0  0
 19 53  2  0  0  0
 20 21  1  0  0  0
 20 49  1  0  0  0
 20 52  2  0  0  0
 21 22  1  0  0  0
 21 77  1  0  0  0
 21 78  1  0  0  0
 22 79  1  0  0  0
 22 80  1  0  0  0
 23 24  1  0  0  0
 24 48  1  0  0  0
 24 55  2  0  0  0
 25 27  1  0  0  0
 25 33  1  0  0  0
 25 50  2  0  0  0
 26 37  1  0  0  0
 26 50  1  0  0  0
 26 81  1  0  0  0
 27 28  1  0  0  0
 27 32  2  0  0  0
 28 29  2  0  0  0
 28 82  1  0  0  0
 29 30  1  0  0  0
 29 83  1  0  0  0
 30 31  2  0  0  0
 30 59  1  0  0  0
 31 32  1  0  0  0
 31 84  1  0  0  0
 32 85  1  0  0  0
 33 34  2  0  0  0
 33 38  1  0  0  0
 34 51  1  0  0  0
 34 58  1  0  0  0
 35 36  1  0  0  0
 35 38  2  0  0  0
 35 58  1  0  0  0
 36 86  1  0  0  0
 36 87  1  0  0  0
 36 88  1  0  0  0
 37 40  1  0  0  0
 37 89  1  0  0  0
 37 90  1  0  0  0
 38 39  1  0  0  0
 39 91  1  0  0  0
 39 92  1  0  0  0
 39 93  1  0  0  0
 40 46  1  0  0  0
 40 57  2  0  0  0
 41 42  1  0  0  0
 41 46  1  0  0  0
 41 94  1  0  0  0
 41 95  1  0  0  0
 42 43  1  0  0  0
 42 96  1  0  0  0
 42 97  1  0  0  0
 43 44  1  0  0  0
 43 98  1  0  0  0
 43 99  1  0  0  0
 44100  1  0  0  0
 44101  1  0  0  0
 46102  1  0  0  0
 47103  1  0  0  0
 49104  1  0  0  0
M  END
> <s_m_entry_id>
11

> <s_m_entry_name>
6boy.1_ligand

> <s_m_source_file>
ligprep_1.maegz

> <i_m_source_file_index>
1

> <i_lp_mmshare_version>
38013

> <i_f3d_flags>
0

> <s_lp_Force_Field>
OPLS3

> <r_lp_Energy>
61.4442804358626

> <b_lp_Chiralities_Consistent>
1

> <s_lp_Variant>
ligand-1

> <s_m_job_name>
ligprep_1

> <s_m_subgroup_title>
ligprep_1-out1

> <s_m_subgroupid>
ligprep_1-out1

> <b_m_subgroup_collapsed>
0

$$$$
