MODEL 1
REMARK VINA RESULT:   -11.515      0.000      0.000
REMARK INTER + INTRA:         -24.797
REMARK INTER:                 -22.417
REMARK INTRA:                  -2.380
REMARK UNBOUND:                -2.511
REMARK  Name = ligand
REMARK  19 active torsions:
REMARK  status: ('A' for Active; 'I' for Inactive)
REMARK    1  A    between atoms: C_2  and  C_4
REMARK    2  A    between atoms: O_3  and  C_10
REMARK    3  A    between atoms: O_3  and  C_11
REMARK    4  A    between atoms: C_5  and  C_6
REMARK    5  A    between atoms: C_5  and  C_44
REMARK    6  A    between atoms: C_6  and  C_7
REMARK    7  A    between atoms: C_7  and  C_8
REMARK    8  A    between atoms: C_8  and  N_47
REMARK    9  A    between atoms: C_9  and  C_10
REMARK   10  A    between atoms: C_18  and  N_48
REMARK   11  A    between atoms: C_25  and  C_27
REMARK   12  A    between atoms: C_26  and  C_37
REMARK   13  A    between atoms: C_35  and  C_36
REMARK   14  A    between atoms: C_37  and  C_40
REMARK   15  A    between atoms: C_38  and  C_39
REMARK   16  A    between atoms: C_41  and  C_42
REMARK   17  A    between atoms: C_41  and  N_46
REMARK   18  A    between atoms: C_42  and  C_43
REMARK   19  A    between atoms: C_43  and  C_44
REMARK                            x       y       z     vdW  Elec       q    Type
REMARK                         _______ _______ _______ _____ _____    ______ ____
ROOT
ATOM      1  C   UNL     1      71.987  31.870  49.359  0.00  0.00    +0.000 C 
ENDROOT
BRANCH   1   2
ATOM      2  C   UNL     1      72.067  33.381  49.640  0.00  0.00    +0.000 C 
BRANCH   2   3
ATOM      3  C   UNL     1      70.746  34.113  49.349  0.00  0.00    +0.000 C 
BRANCH   3   4
ATOM      4  C   UNL     1      70.933  35.621  49.108  0.00  0.00    +0.000 C 
BRANCH   4   5
ATOM      5  C   UNL     1      69.672  36.298  48.536  0.00  0.00    +0.000 C 
BRANCH   5   6
ATOM      6  C   UNL     1      69.033  37.354  49.462  0.00  0.00    +0.000 C 
BRANCH   6   8
ATOM      7  C   UNL     1      69.381  39.359  48.002  0.00  0.00    +0.000 C 
ATOM      8  N   UNL     1      68.603  38.564  48.762  0.00  0.00    +0.000 N 
ATOM      9  O   UNL     1      70.576  39.141  47.803  0.00  0.00    +0.000 OA
ATOM     10  H   UNL     1      67.625  38.801  48.850  0.00  0.00    +0.000 HD
BRANCH   7  11
ATOM     11  C   UNL     1      68.733  40.604  47.378  0.00  0.00    +0.000 C 
BRANCH  11  12
ATOM     12  O   UNL     1      69.569  41.742  47.595  0.00  0.00    +0.000 OA
BRANCH  12  13
ATOM     13  C   UNL     1      69.536  42.381  48.818  0.00  0.00    +0.000 A 
ATOM     14  C   UNL     1      69.995  41.829  50.028  0.00  0.00    +0.000 A 
ATOM     15  C   UNL     1      69.922  42.566  51.216  0.00  0.00    +0.000 A 
ATOM     16  C   UNL     1      69.397  43.861  51.213  0.00  0.00    +0.000 A 
ATOM     17  C   UNL     1      68.954  44.399  50.004  0.00  0.00    +0.000 A 
ATOM     18  C   UNL     1      68.362  45.725  49.695  0.00  0.00    +0.000 C 
ATOM     19  C   UNL     1      69.023  43.683  48.839  0.00  0.00    +0.000 A 
ATOM     20  C   UNL     1      68.473  44.536  47.751  0.00  0.00    +0.000 C 
ATOM     21  N   UNL     1      68.126  45.709  48.351  0.00  0.00    +0.000 N 
ATOM     22  O   UNL     1      68.137  46.644  50.482  0.00  0.00    +0.000 OA
ATOM     23  O   UNL     1      68.356  44.245  46.560  0.00  0.00    +0.000 OA
BRANCH  21  24
ATOM     24  C   UNL     1      67.533  46.841  47.590  0.00  0.00    +0.000 C 
ATOM     25  C   UNL     1      68.271  48.186  47.867  0.00  0.00    +0.000 C 
ATOM     26  C   UNL     1      66.328  49.474  47.030  0.00  0.00    +0.000 C 
ATOM     27  C   UNL     1      65.504  48.184  46.812  0.00  0.00    +0.000 C 
ATOM     28  C   UNL     1      66.002  47.027  47.699  0.00  0.00    +0.000 C 
ATOM     29  N   UNL     1      67.586  49.292  47.497  0.00  0.00    +0.000 N 
ATOM     30  O   UNL     1      65.888  50.596  46.786  0.00  0.00    +0.000 OA
ATOM     31  O   UNL     1      69.394  48.272  48.364  0.00  0.00    +0.000 OA
ATOM     32  H   UNL     1      68.093  50.153  47.644  0.00  0.00    +0.000 HD
ENDBRANCH  21  24
ENDBRANCH  12  13
ENDBRANCH  11  12
ENDBRANCH   7  11
ENDBRANCH   6   8
ENDBRANCH   5   6
ENDBRANCH   4   5
ENDBRANCH   3   4
ENDBRANCH   2   3
ENDBRANCH   1   2
BRANCH   1  33
ATOM     33  C   UNL     1      73.315  31.137  49.618  0.00  0.00    +0.000 C 
BRANCH  33  34
ATOM     34  C   UNL     1      73.273  30.257  50.884  0.00  0.00    +0.000 C 
BRANCH  34  36
ATOM     35  C   UNL     1      75.318  30.329  52.299  0.00  0.00    +0.000 C 
ATOM     36  N   UNL     1      74.091  30.776  51.979  0.00  0.00    +0.000 N 
ATOM     37  O   UNL     1      75.894  29.426  51.691  0.00  0.00    +0.000 OA
ATOM     38  H   UNL     1      73.689  31.523  52.526  0.00  0.00    +0.000 HD
BRANCH  35  39
ATOM     39  C   UNL     1      76.007  31.002  53.498  0.00  0.00    +0.000 C 
BRANCH  39  45
ATOM     40  N   UNL     1      76.724  32.728  57.430  0.00  0.00    +0.000 NA
ATOM     41  C   UNL     1      75.347  34.411  58.652  0.00  0.00    +0.000 C 
ATOM     42  C   UNL     1      75.675  33.512  57.479  0.00  0.00    +0.000 A 
ATOM     43  C   UNL     1      75.633  32.498  55.558  0.00  0.00    +0.000 A 
ATOM     44  C   UNL     1      74.488  34.349  53.509  0.00  0.00    +0.000 C 
ATOM     45  C   UNL     1      75.176  32.148  54.139  0.00  0.00    +0.000 C 
ATOM     46  C   UNL     1      73.492  34.477  54.618  0.00  0.00    +0.000 A 
ATOM     47  C   UNL     1      73.762  34.040  55.933  0.00  0.00    +0.000 A 
ATOM     48  C   UNL     1      71.499  35.071  55.717  0.00  0.00    +0.000 A 
ATOM     49  C   UNL     1      70.115  35.596  56.033  0.00  0.00    +0.000 C 
ATOM     50  C   UNL     1      72.182  35.029  54.493  0.00  0.00    +0.000 A 
ATOM     51  C   UNL     1      71.544  35.499  53.194  0.00  0.00    +0.000 C 
ATOM     52  N   UNL     1      76.703  32.087  56.196  0.00  0.00    +0.000 NA
ATOM     53  N   UNL     1      75.237  33.330  53.277  0.00  0.00    +0.000 NA
ATOM     54  N   UNL     1      74.930  33.407  56.321  0.00  0.00    +0.000 N 
ATOM     55  S   UNL     1      72.437  34.369  56.990  0.00  0.00    +0.000 S 
BRANCH  44  56
ATOM     56  C   UNL     1      74.612  35.531  52.628  0.00  0.00    +0.000 A 
ATOM     57  C   UNL     1      74.446  35.404  51.240  0.00  0.00    +0.000 A 
ATOM     58  C   UNL     1      74.562  36.520  50.415  0.00  0.00    +0.000 A 
ATOM     59  C   UNL     1      74.838  37.767  50.971  0.00  0.00    +0.000 A 
ATOM     60  C   UNL     1      74.994  37.908  52.348  0.00  0.00    +0.000 A 
ATOM     61  C   UNL     1      74.877  36.795  53.175  0.00  0.00    +0.000 A 
ATOM     62 CL   UNL     1      74.985  39.148  49.947  0.00  0.00    +0.000 Cl
ENDBRANCH  44  56
ENDBRANCH  39  45
ENDBRANCH  35  39
ENDBRANCH  34  36
ENDBRANCH  33  34
ENDBRANCH   1  33
TORSDOF 16
ENDMDL
MODEL 2
REMARK VINA RESULT:   -10.826      6.715      9.950
REMARK INTER + INTRA:         -23.464
REMARK INTER:                 -20.953
REMARK INTRA:                  -2.511
REMARK UNBOUND:                -2.511
REMARK  Name = ligand
REMARK  19 active torsions:
REMARK  status: ('A' for Active; 'I' for Inactive)
REMARK    1  A    between atoms: C_2  and  C_4
REMARK    2  A    between atoms: O_3  and  C_10
REMARK    3  A    between atoms: O_3  and  C_11
REMARK    4  A    between atoms: C_5  and  C_6
REMARK    5  A    between atoms: C_5  and  C_44
REMARK    6  A    between atoms: C_6  and  C_7
REMARK    7  A    between atoms: C_7  and  C_8
REMARK    8  A    between atoms: C_8  and  N_47
REMARK    9  A    between atoms: C_9  and  C_10
REMARK   10  A    between atoms: C_18  and  N_48
REMARK   11  A    between atoms: C_25  and  C_27
REMARK   12  A    between atoms: C_26  and  C_37
REMARK   13  A    between atoms: C_35  and  C_36
REMARK   14  A    between atoms: C_37  and  C_40
REMARK   15  A    between atoms: C_38  and  C_39
REMARK   16  A    between atoms: C_41  and  C_42
REMARK   17  A    between atoms: C_41  and  N_46
REMARK   18  A    between atoms: C_42  and  C_43
REMARK   19  A    between atoms: C_43  and  C_44
REMARK                            x       y       z     vdW  Elec       q    Type
REMARK                         _______ _______ _______ _____ _____    ______ ____
ROOT
ATOM      1  C   UNL     1      65.839  44.778  56.067  0.00  0.00    +0.000 C 
ENDROOT
BRANCH   1   2
ATOM      2  C   UNL     1      66.432  45.823  57.028  0.00  0.00    +0.000 C 
BRANCH   2   3
ATOM      3  C   UNL     1      67.480  46.726  56.355  0.00  0.00    +0.000 C 
BRANCH   3   4
ATOM      4  C   UNL     1      68.861  46.652  57.029  0.00  0.00    +0.000 C 
BRANCH   4   5
ATOM      5  C   UNL     1      70.019  46.569  56.015  0.00  0.00    +0.000 C 
BRANCH   5   6
ATOM      6  C   UNL     1      69.672  47.080  54.601  0.00  0.00    +0.000 C 
BRANCH   6   8
ATOM      7  C   UNL     1      69.342  45.008  53.234  0.00  0.00    +0.000 C 
ATOM      8  N   UNL     1      70.012  46.137  53.537  0.00  0.00    +0.000 N 
ATOM      9  O   UNL     1      68.333  44.640  53.836  0.00  0.00    +0.000 OA
ATOM     10  H   UNL     1      70.815  46.378  52.973  0.00  0.00    +0.000 HD
BRANCH   7  11
ATOM     11  C   UNL     1      69.890  44.139  52.091  0.00  0.00    +0.000 C 
BRANCH  11  12
ATOM     12  O   UNL     1      68.810  43.476  51.431  0.00  0.00    +0.000 OA
BRANCH  12  13
ATOM     13  C   UNL     1      69.017  42.928  50.182  0.00  0.00    +0.000 A 
ATOM     14  C   UNL     1      69.519  41.636  49.941  0.00  0.00    +0.000 A 
ATOM     15  C   UNL     1      69.685  41.173  48.631  0.00  0.00    +0.000 A 
ATOM     16  C   UNL     1      69.349  41.987  47.545  0.00  0.00    +0.000 A 
ATOM     17  C   UNL     1      68.843  43.262  47.798  0.00  0.00    +0.000 A 
ATOM     18  C   UNL     1      68.404  44.331  46.867  0.00  0.00    +0.000 C 
ATOM     19  C   UNL     1      68.679  43.721  49.078  0.00  0.00    +0.000 A 
ATOM     20  C   UNL     1      68.129  45.101  48.997  0.00  0.00    +0.000 C 
ATOM     21  N   UNL     1      67.995  45.359  47.666  0.00  0.00    +0.000 N 
ATOM     22  O   UNL     1      68.404  44.296  45.636  0.00  0.00    +0.000 OA
ATOM     23  O   UNL     1      67.853  45.852  49.933  0.00  0.00    +0.000 OA
BRANCH  21  24
ATOM     24  C   UNL     1      67.467  46.655  47.161  0.00  0.00    +0.000 C 
ATOM     25  C   UNL     1      68.317  47.866  47.651  0.00  0.00    +0.000 C 
ATOM     26  C   UNL     1      66.453  49.424  47.164  0.00  0.00    +0.000 C 
ATOM     27  C   UNL     1      65.524  48.260  46.747  0.00  0.00    +0.000 C 
ATOM     28  C   UNL     1      65.960  46.923  47.376  0.00  0.00    +0.000 C 
ATOM     29  N   UNL     1      67.708  49.069  47.529  0.00  0.00    +0.000 N 
ATOM     30  O   UNL     1      66.094  50.600  47.157  0.00  0.00    +0.000 OA
ATOM     31  O   UNL     1      69.459  47.777  48.101  0.00  0.00    +0.000 OA
ATOM     32  H   UNL     1      68.285  49.847  47.810  0.00  0.00    +0.000 HD
ENDBRANCH  21  24
ENDBRANCH  12  13
ENDBRANCH  11  12
ENDBRANCH   7  11
ENDBRANCH   6   8
ENDBRANCH   5   6
ENDBRANCH   4   5
ENDBRANCH   3   4
ENDBRANCH   2   3
ENDBRANCH   1   2
BRANCH   1  33
ATOM     33  C   UNL     1      66.309  43.344  56.371  0.00  0.00    +0.000 C 
BRANCH  33  34
ATOM     34  C   UNL     1      65.263  42.280  55.982  0.00  0.00    +0.000 C 
BRANCH  34  36
ATOM     35  C   UNL     1      64.367  41.164  53.946  0.00  0.00    +0.000 C 
ATOM     36  N   UNL     1      65.264  41.959  54.556  0.00  0.00    +0.000 N 
ATOM     37  O   UNL     1      63.431  40.618  54.533  0.00  0.00    +0.000 OA
ATOM     38  H   UNL     1      66.001  42.371  54.003  0.00  0.00    +0.000 HD
BRANCH  35  39
ATOM     39  C   UNL     1      64.553  40.943  52.436  0.00  0.00    +0.000 C 
BRANCH  39  45
ATOM     40  N   UNL     1      66.403  39.349  48.832  0.00  0.00    +0.000 NA
ATOM     41  C   UNL     1      66.294  37.021  47.940  0.00  0.00    +0.000 C 
ATOM     42  C   UNL     1      65.977  38.115  48.939  0.00  0.00    +0.000 A 
ATOM     43  C   UNL     1      65.232  39.205  50.664  0.00  0.00    +0.000 A 
ATOM     44  C   UNL     1      65.165  37.365  53.019  0.00  0.00    +0.000 C 
ATOM     45  C   UNL     1      64.553  39.447  52.015  0.00  0.00    +0.000 C 
ATOM     46  C   UNL     1      64.497  36.534  51.972  0.00  0.00    +0.000 A 
ATOM     47  C   UNL     1      64.575  36.842  50.596  0.00  0.00    +0.000 A 
ATOM     48  C   UNL     1      63.263  34.764  51.034  0.00  0.00    +0.000 A 
ATOM     49  C   UNL     1      62.436  33.511  50.843  0.00  0.00    +0.000 C 
ATOM     50  C   UNL     1      63.713  35.368  52.217  0.00  0.00    +0.000 A 
ATOM     51  C   UNL     1      63.351  34.822  53.591  0.00  0.00    +0.000 C 
ATOM     52  N   UNL     1      65.935  40.045  49.941  0.00  0.00    +0.000 NA
ATOM     53  N   UNL     1      65.199  38.650  53.060  0.00  0.00    +0.000 NA
ATOM     54  N   UNL     1      65.216  37.956  50.080  0.00  0.00    +0.000 N 
ATOM     55  S   UNL     1      63.742  35.670  49.640  0.00  0.00    +0.000 S 
BRANCH  44  56
ATOM     56  C   UNL     1      65.861  36.607  54.083  0.00  0.00    +0.000 A 
ATOM     57  C   UNL     1      66.828  35.644  53.753  0.00  0.00    +0.000 A 
ATOM     58  C   UNL     1      67.481  34.935  54.757  0.00  0.00    +0.000 A 
ATOM     59  C   UNL     1      67.178  35.186  56.093  0.00  0.00    +0.000 A 
ATOM     60  C   UNL     1      66.228  36.147  56.433  0.00  0.00    +0.000 A 
ATOM     61  C   UNL     1      65.574  36.859  55.432  0.00  0.00    +0.000 A 
ATOM     62 CL   UNL     1      67.985  34.303  57.336  0.00  0.00    +0.000 Cl
ENDBRANCH  44  56
ENDBRANCH  39  45
ENDBRANCH  35  39
ENDBRANCH  34  36
ENDBRANCH  33  34
ENDBRANCH   1  33
TORSDOF 16
ENDMDL
