ligand
 OpenBabel01032309583D

 62 68  0  0  1  0  0  0  0  0999 V2000
   71.9870   31.8700   49.3590 C   0  0  0  0  0  2  0  0  0  0  0  0
   72.0670   33.3810   49.6400 C   0  0  0  0  0  2  0  0  0  0  0  0
   70.7460   34.1130   49.3490 C   0  0  0  0  0  2  0  0  0  0  0  0
   70.9330   35.6210   49.1080 C   0  0  0  0  0  2  0  0  0  0  0  0
   69.6720   36.2980   48.5360 C   0  0  0  0  0  2  0  0  0  0  0  0
   69.0330   37.3540   49.4620 C   0  0  0  0  0  2  0  0  0  0  0  0
   69.3810   39.3590   48.0020 C   0  0  0  0  0  0  0  0  0  0  0  0
   68.6030   38.5640   48.7620 N   0  0  0  0  0  0  0  0  0  0  0  0
   70.5760   39.1410   47.8030 O   0  0  0  0  0  0  0  0  0  0  0  0
   67.6250   38.8010   48.8500 H   0  0  0  0  0  0  0  0  0  0  0  0
   68.7330   40.6040   47.3780 C   0  0  0  0  0  2  0  0  0  0  0  0
   69.5690   41.7420   47.5950 O   0  0  0  0  0  0  0  0  0  0  0  0
   69.5360   42.3810   48.8180 C   0  0  0  0  0  0  0  0  0  0  0  0
   69.9950   41.8290   50.0280 C   0  0  0  0  0  3  0  0  0  0  0  0
   69.9220   42.5660   51.2160 C   0  0  0  0  0  3  0  0  0  0  0  0
   69.3970   43.8610   51.2130 C   0  0  0  0  0  3  0  0  0  0  0  0
   68.9540   44.3990   50.0040 C   0  0  0  0  0  0  0  0  0  0  0  0
   68.3620   45.7250   49.6950 C   0  0  0  0  0  0  0  0  0  0  0  0
   69.0230   43.6830   48.8390 C   0  0  0  0  0  0  0  0  0  0  0  0
   68.4730   44.5360   47.7510 C   0  0  0  0  0  0  0  0  0  0  0  0
   68.1260   45.7090   48.3510 N   0  0  0  0  0  0  0  0  0  0  0  0
   68.1370   46.6440   50.4820 O   0  0  0  0  0  0  0  0  0  0  0  0
   68.3560   44.2450   46.5600 O   0  0  0  0  0  0  0  0  0  0  0  0
   67.5330   46.8410   47.5900 C   0  0  2  0  0  3  0  0  0  0  0  0
   68.2710   48.1860   47.8670 C   0  0  0  0  0  0  0  0  0  0  0  0
   66.3280   49.4740   47.0300 C   0  0  0  0  0  0  0  0  0  0  0  0
   65.5040   48.1840   46.8120 C   0  0  0  0  0  2  0  0  0  0  0  0
   66.0020   47.0270   47.6990 C   0  0  0  0  0  2  0  0  0  0  0  0
   67.5860   49.2920   47.4970 N   0  0  0  0  0  0  0  0  0  0  0  0
   65.8880   50.5960   46.7860 O   0  0  0  0  0  0  0  0  0  0  0  0
   69.3940   48.2720   48.3640 O   0  0  0  0  0  0  0  0  0  0  0  0
   68.0930   50.1530   47.6440 H   0  0  0  0  0  0  0  0  0  0  0  0
   73.3150   31.1370   49.6180 C   0  0  0  0  0  2  0  0  0  0  0  0
   73.2730   30.2570   50.8840 C   0  0  0  0  0  2  0  0  0  0  0  0
   75.3180   30.3290   52.2990 C   0  0  0  0  0  0  0  0  0  0  0  0
   74.0910   30.7760   51.9790 N   0  0  0  0  0  0  0  0  0  0  0  0
   75.8940   29.4260   51.6910 O   0  0  0  0  0  0  0  0  0  0  0  0
   73.6890   31.5230   52.5260 H   0  0  0  0  0  0  0  0  0  0  0  0
   76.0070   31.0020   53.4980 C   0  0  0  0  0  2  0  0  0  0  0  0
   76.7240   32.7280   57.4300 N   0  0  0  0  0  0  0  0  0  0  0  0
   75.3470   34.4110   58.6520 C   0  0  0  0  0  1  0  0  0  0  0  0
   75.6750   33.5120   57.4790 C   0  0  0  0  0  0  0  0  0  0  0  0
   75.6330   32.4980   55.5580 C   0  0  0  0  0  0  0  0  0  0  0  0
   74.4880   34.3490   53.5090 C   0  0  0  0  0  0  0  0  0  0  0  0
   75.1760   32.1480   54.1390 C   0  0  1  0  0  3  0  0  0  0  0  0
   73.4920   34.4770   54.6180 C   0  0  0  0  0  0  0  0  0  0  0  0
   73.7620   34.0400   55.9330 C   0  0  0  0  0  0  0  0  0  0  0  0
   71.4990   35.0710   55.7170 C   0  0  0  0  0  0  0  0  0  0  0  0
   70.1150   35.5960   56.0330 C   0  0  0  0  0  1  0  0  0  0  0  0
   72.1820   35.0290   54.4930 C   0  0  0  0  0  0  0  0  0  0  0  0
   71.5440   35.4990   53.1940 C   0  0  0  0  0  1  0  0  0  0  0  0
   76.7030   32.0870   56.1960 N   0  0  0  0  0  0  0  0  0  0  0  0
   75.2370   33.3300   53.2770 N   0  0  0  0  0  0  0  0  0  0  0  0
   74.9300   33.4070   56.3210 N   0  0  0  0  0  0  0  0  0  0  0  0
   72.4370   34.3690   56.9900 S   0  0  0  0  0  0  0  0  0  0  0  0
   74.6120   35.5310   52.6280 C   0  0  0  0  0  0  0  0  0  0  0  0
   74.4460   35.4040   51.2400 C   0  0  0  0  0  3  0  0  0  0  0  0
   74.5620   36.5200   50.4150 C   0  0  0  0  0  3  0  0  0  0  0  0
   74.8380   37.7670   50.9710 C   0  0  0  0  0  0  0  0  0  0  0  0
   74.9940   37.9080   52.3480 C   0  0  0  0  0  3  0  0  0  0  0  0
   74.8770   36.7950   53.1750 C   0  0  0  0  0  3  0  0  0  0  0  0
   74.9850   39.1480   49.9470 Cl  0  0  0  0  0  0  0  0  0  0  0  0
  1 33  1  0  0  0  0
  1  2  1  0  0  0  0
  3  2  1  0  0  0  0
  4  3  1  0  0  0  0
  5  4  1  0  0  0  0
  5  6  1  0  0  0  0
  7  8  1  0  0  0  0
  8 10  1  0  0  0  0
  8  6  1  0  0  0  0
  9  7  2  0  0  0  0
 11 12  1  0  0  0  0
 11  7  1  0  0  0  0
 12 13  1  0  0  0  0
 13 19  2  0  0  0  0
 13 14  1  0  0  0  0
 14 15  2  0  0  0  0
 16 15  1  0  0  0  0
 17 16  2  0  0  0  0
 18 17  1  0  0  0  0
 18 22  2  0  0  0  0
 19 17  1  0  0  0  0
 20 21  1  0  0  0  0
 20 19  1  0  0  0  0
 21 18  1  0  0  0  0
 23 20  2  0  0  0  0
 24 28  1  1  0  0  0
 24 25  1  0  0  0  0
 24 21  1  0  0  0  0
 25 31  2  0  0  0  0
 26 29  1  0  0  0  0
 27 26  1  0  0  0  0
 27 28  1  0  0  0  0
 29 32  1  0  0  0  0
 29 25  1  0  0  0  0
 30 26  2  0  0  0  0
 33 34  1  0  0  0  0
 34 36  1  0  0  0  0
 35 39  1  0  0  0  0
 36 35  1  0  0  0  0
 36 38  1  0  0  0  0
 37 35  2  0  0  0  0
 40 42  2  0  0  0  0
 42 41  1  0  0  0  0
 43 52  2  0  0  0  0
 43 54  1  0  0  0  0
 44 46  1  0  0  0  0
 45 39  1  6  0  0  0
 45 43  1  0  0  0  0
 46 47  2  0  0  0  0
 47 54  1  0  0  0  0
 47 55  1  0  0  0  0
 48 49  1  0  0  0  0
 48 55  1  0  0  0  0
 50 46  1  0  0  0  0
 50 48  2  0  0  0  0
 51 50  1  0  0  0  0
 52 40  1  0  0  0  0
 53 44  2  0  0  0  0
 53 45  1  0  0  0  0
 54 42  1  0  0  0  0
 56 61  1  0  0  0  0
 56 44  1  0  0  0  0
 57 56  2  0  0  0  0
 58 59  2  0  0  0  0
 58 57  1  0  0  0  0
 59 60  1  0  0  0  0
 60 61  2  0  0  0  0
 62 59  1  0  0  0  0
M  END
>  <MODEL>
1

>  <REMARK>
 VINA RESULT:   -11.515      0.000      0.000
 INTER + INTRA:         -24.797
 INTER:                 -22.417
 INTRA:                  -2.380
 UNBOUND:                -2.511
  Name = ligand
  19 active torsions:
  status: ('A' for Active; 'I' for Inactive)
    1  A    between atoms: C_2  and  C_4
    2  A    between atoms: O_3  and  C_10
    3  A    between atoms: O_3  and  C_11
    4  A    between atoms: C_5  and  C_6
    5  A    between atoms: C_5  and  C_44
    6  A    between atoms: C_6  and  C_7
    7  A    between atoms: C_7  and  C_8
    8  A    between atoms: C_8  and  N_47
    9  A    between atoms: C_9  and  C_10
   10  A    between atoms: C_18  and  N_48
   11  A    between atoms: C_25  and  C_27
   12  A    between atoms: C_26  and  C_37
   13  A    between atoms: C_35  and  C_36
   14  A    between atoms: C_37  and  C_40
   15  A    between atoms: C_38  and  C_39
   16  A    between atoms: C_41  and  C_42
   17  A    between atoms: C_41  and  N_46
   18  A    between atoms: C_42  and  C_43
   19  A    between atoms: C_43  and  C_44
                            x       y       z     vdW  Elec       q    Type
                         _______ _______ _______ _____ _____    ______ ____

>  <TORSDO>
F 16

$$$$
ligand
 OpenBabel01032309583D

 62 68  0  0  1  0  0  0  0  0999 V2000
   65.8390   44.7780   56.0670 C   0  0  0  0  0  2  0  0  0  0  0  0
   66.4320   45.8230   57.0280 C   0  0  0  0  0  2  0  0  0  0  0  0
   67.4800   46.7260   56.3550 C   0  0  0  0  0  2  0  0  0  0  0  0
   68.8610   46.6520   57.0290 C   0  0  0  0  0  2  0  0  0  0  0  0
   70.0190   46.5690   56.0150 C   0  0  0  0  0  2  0  0  0  0  0  0
   69.6720   47.0800   54.6010 C   0  0  0  0  0  2  0  0  0  0  0  0
   69.3420   45.0080   53.2340 C   0  0  0  0  0  0  0  0  0  0  0  0
   70.0120   46.1370   53.5370 N   0  0  0  0  0  0  0  0  0  0  0  0
   68.3330   44.6400   53.8360 O   0  0  0  0  0  0  0  0  0  0  0  0
   70.8150   46.3780   52.9730 H   0  0  0  0  0  0  0  0  0  0  0  0
   69.8900   44.1390   52.0910 C   0  0  0  0  0  2  0  0  0  0  0  0
   68.8100   43.4760   51.4310 O   0  0  0  0  0  0  0  0  0  0  0  0
   69.0170   42.9280   50.1820 C   0  0  0  0  0  0  0  0  0  0  0  0
   69.5190   41.6360   49.9410 C   0  0  0  0  0  3  0  0  0  0  0  0
   69.6850   41.1730   48.6310 C   0  0  0  0  0  3  0  0  0  0  0  0
   69.3490   41.9870   47.5450 C   0  0  0  0  0  3  0  0  0  0  0  0
   68.8430   43.2620   47.7980 C   0  0  0  0  0  0  0  0  0  0  0  0
   68.4040   44.3310   46.8670 C   0  0  0  0  0  0  0  0  0  0  0  0
   68.6790   43.7210   49.0780 C   0  0  0  0  0  0  0  0  0  0  0  0
   68.1290   45.1010   48.9970 C   0  0  0  0  0  0  0  0  0  0  0  0
   67.9950   45.3590   47.6660 N   0  0  0  0  0  0  0  0  0  0  0  0
   68.4040   44.2960   45.6360 O   0  0  0  0  0  0  0  0  0  0  0  0
   67.8530   45.8520   49.9330 O   0  0  0  0  0  0  0  0  0  0  0  0
   67.4670   46.6550   47.1610 C   0  0  2  0  0  3  0  0  0  0  0  0
   68.3170   47.8660   47.6510 C   0  0  0  0  0  0  0  0  0  0  0  0
   66.4530   49.4240   47.1640 C   0  0  0  0  0  0  0  0  0  0  0  0
   65.5240   48.2600   46.7470 C   0  0  0  0  0  2  0  0  0  0  0  0
   65.9600   46.9230   47.3760 C   0  0  0  0  0  2  0  0  0  0  0  0
   67.7080   49.0690   47.5290 N   0  0  0  0  0  0  0  0  0  0  0  0
   66.0940   50.6000   47.1570 O   0  0  0  0  0  0  0  0  0  0  0  0
   69.4590   47.7770   48.1010 O   0  0  0  0  0  0  0  0  0  0  0  0
   68.2850   49.8470   47.8100 H   0  0  0  0  0  0  0  0  0  0  0  0
   66.3090   43.3440   56.3710 C   0  0  0  0  0  2  0  0  0  0  0  0
   65.2630   42.2800   55.9820 C   0  0  0  0  0  2  0  0  0  0  0  0
   64.3670   41.1640   53.9460 C   0  0  0  0  0  0  0  0  0  0  0  0
   65.2640   41.9590   54.5560 N   0  0  0  0  0  0  0  0  0  0  0  0
   63.4310   40.6180   54.5330 O   0  0  0  0  0  0  0  0  0  0  0  0
   66.0010   42.3710   54.0030 H   0  0  0  0  0  0  0  0  0  0  0  0
   64.5530   40.9430   52.4360 C   0  0  0  0  0  2  0  0  0  0  0  0
   66.4030   39.3490   48.8320 N   0  0  0  0  0  0  0  0  0  0  0  0
   66.2940   37.0210   47.9400 C   0  0  0  0  0  1  0  0  0  0  0  0
   65.9770   38.1150   48.9390 C   0  0  0  0  0  0  0  0  0  0  0  0
   65.2320   39.2050   50.6640 C   0  0  0  0  0  0  0  0  0  0  0  0
   65.1650   37.3650   53.0190 C   0  0  0  0  0  0  0  0  0  0  0  0
   64.5530   39.4470   52.0150 C   0  0  1  0  0  3  0  0  0  0  0  0
   64.4970   36.5340   51.9720 C   0  0  0  0  0  0  0  0  0  0  0  0
   64.5750   36.8420   50.5960 C   0  0  0  0  0  0  0  0  0  0  0  0
   63.2630   34.7640   51.0340 C   0  0  0  0  0  0  0  0  0  0  0  0
   62.4360   33.5110   50.8430 C   0  0  0  0  0  1  0  0  0  0  0  0
   63.7130   35.3680   52.2170 C   0  0  0  0  0  0  0  0  0  0  0  0
   63.3510   34.8220   53.5910 C   0  0  0  0  0  1  0  0  0  0  0  0
   65.9350   40.0450   49.9410 N   0  0  0  0  0  0  0  0  0  0  0  0
   65.1990   38.6500   53.0600 N   0  0  0  0  0  0  0  0  0  0  0  0
   65.2160   37.9560   50.0800 N   0  0  0  0  0  0  0  0  0  0  0  0
   63.7420   35.6700   49.6400 S   0  0  0  0  0  0  0  0  0  0  0  0
   65.8610   36.6070   54.0830 C   0  0  0  0  0  0  0  0  0  0  0  0
   66.8280   35.6440   53.7530 C   0  0  0  0  0  3  0  0  0  0  0  0
   67.4810   34.9350   54.7570 C   0  0  0  0  0  3  0  0  0  0  0  0
   67.1780   35.1860   56.0930 C   0  0  0  0  0  0  0  0  0  0  0  0
   66.2280   36.1470   56.4330 C   0  0  0  0  0  3  0  0  0  0  0  0
   65.5740   36.8590   55.4320 C   0  0  0  0  0  3  0  0  0  0  0  0
   67.9850   34.3030   57.3360 Cl  0  0  0  0  0  0  0  0  0  0  0  0
  1 33  1  0  0  0  0
  1  2  1  0  0  0  0
  3  2  1  0  0  0  0
  3  4  1  0  0  0  0
  5  4  1  0  0  0  0
  6  5  1  0  0  0  0
  7  8  1  0  0  0  0
  7  9  2  0  0  0  0
  8  6  1  0  0  0  0
 10  8  1  0  0  0  0
 11  7  1  0  0  0  0
 12 11  1  0  0  0  0
 13 12  1  0  0  0  0
 14 13  1  0  0  0  0
 15 14  2  0  0  0  0
 16 17  2  0  0  0  0
 16 15  1  0  0  0  0
 17 19  1  0  0  0  0
 18 21  1  0  0  0  0
 18 17  1  0  0  0  0
 19 13  2  0  0  0  0
 20 19  1  0  0  0  0
 20 23  2  0  0  0  0
 21 20  1  0  0  0  0
 22 18  2  0  0  0  0
 24 28  1  1  0  0  0
 24 25  1  0  0  0  0
 24 21  1  0  0  0  0
 25 31  2  0  0  0  0
 26 29  1  0  0  0  0
 27 26  1  0  0  0  0
 27 28  1  0  0  0  0
 29 25  1  0  0  0  0
 29 32  1  0  0  0  0
 30 26  2  0  0  0  0
 34 33  1  0  0  0  0
 35 37  2  0  0  0  0
 35 36  1  0  0  0  0
 36 34  1  0  0  0  0
 38 36  1  0  0  0  0
 39 35  1  0  0  0  0
 40 42  2  0  0  0  0
 40 52  1  0  0  0  0
 41 42  1  0  0  0  0
 42 54  1  0  0  0  0
 43 45  1  0  0  0  0
 44 53  2  0  0  0  0
 44 56  1  0  0  0  0
 45 39  1  1  0  0  0
 45 53  1  0  0  0  0
 46 50  1  0  0  0  0
 46 44  1  0  0  0  0
 47 46  2  0  0  0  0
 48 50  2  0  0  0  0
 49 48  1  0  0  0  0
 50 51  1  0  0  0  0
 52 43  2  0  0  0  0
 54 47  1  0  0  0  0
 54 43  1  0  0  0  0
 55 47  1  0  0  0  0
 55 48  1  0  0  0  0
 56 61  1  0  0  0  0
 57 56  2  0  0  0  0
 57 58  1  0  0  0  0
 58 59  2  0  0  0  0
 59 60  1  0  0  0  0
 59 62  1  0  0  0  0
 61 60  2  0  0  0  0
M  END
>  <MODEL>
2

>  <REMARK>
 VINA RESULT:   -10.826      6.715      9.950
 INTER + INTRA:         -23.464
 INTER:                 -20.953
 INTRA:                  -2.511
 UNBOUND:                -2.511
  Name = ligand
  19 active torsions:
  status: ('A' for Active; 'I' for Inactive)
    1  A    between atoms: C_2  and  C_4
    2  A    between atoms: O_3  and  C_10
    3  A    between atoms: O_3  and  C_11
    4  A    between atoms: C_5  and  C_6
    5  A    between atoms: C_5  and  C_44
    6  A    between atoms: C_6  and  C_7
    7  A    between atoms: C_7  and  C_8
    8  A    between atoms: C_8  and  N_47
    9  A    between atoms: C_9  and  C_10
   10  A    between atoms: C_18  and  N_48
   11  A    between atoms: C_25  and  C_27
   12  A    between atoms: C_26  and  C_37
   13  A    between atoms: C_35  and  C_36
   14  A    between atoms: C_37  and  C_40
   15  A    between atoms: C_38  and  C_39
   16  A    between atoms: C_41  and  C_42
   17  A    between atoms: C_41  and  N_46
   18  A    between atoms: C_42  and  C_43
   19  A    between atoms: C_43  and  C_44
                            x       y       z     vdW  Elec       q    Type
                         _______ _______ _______ _____ _____    ______ ____

>  <TORSDO>
F 16

$$$$
