REMARK  Name = ligand
REMARK  19 active torsions:
REMARK  status: ('A' for Active; 'I' for Inactive)
REMARK    1  A    between atoms: C_2  and  C_4
REMARK    2  A    between atoms: O_3  and  C_10
REMARK    3  A    between atoms: O_3  and  C_11
REMARK    4  A    between atoms: C_5  and  C_6
REMARK    5  A    between atoms: C_5  and  C_44
REMARK    6  A    between atoms: C_6  and  C_7
REMARK    7  A    between atoms: C_7  and  C_8
REMARK    8  A    between atoms: C_8  and  N_47
REMARK    9  A    between atoms: C_9  and  C_10
REMARK   10  A    between atoms: C_18  and  N_48
REMARK   11  A    between atoms: C_25  and  C_27
REMARK   12  A    between atoms: C_26  and  C_37
REMARK   13  A    between atoms: C_35  and  C_36
REMARK   14  A    between atoms: C_37  and  C_40
REMARK   15  A    between atoms: C_38  and  C_39
REMARK   16  A    between atoms: C_41  and  C_42
REMARK   17  A    between atoms: C_41  and  N_46
REMARK   18  A    between atoms: C_42  and  C_43
REMARK   19  A    between atoms: C_43  and  C_44
REMARK                            x       y       z     vdW  Elec       q    Type
REMARK                         _______ _______ _______ _____ _____    ______ ____
ROOT
ATOM      1  C   UNL     1       0.899   0.927  -2.118  0.00  0.00    +0.000 C 
ENDROOT
BRANCH   1   2
ATOM      2  C   UNL     1       2.210   0.778  -1.326  0.00  0.00    +0.000 C 
BRANCH   2   3
ATOM      3  C   UNL     1       2.893  -0.582  -1.552  0.00  0.00    +0.000 C 
BRANCH   3   4
ATOM      4  C   UNL     1       4.241  -0.708  -0.822  0.00  0.00    +0.000 C 
BRANCH   4   5
ATOM      5  C   UNL     1       4.894  -2.092  -1.004  0.00  0.00    +0.000 C 
BRANCH   5   6
ATOM      6  C   UNL     1       6.239  -2.269  -0.269  0.00  0.00    +0.000 C 
BRANCH   6   8
ATOM      7  C   UNL     1       7.710  -0.245  -0.389  0.00  0.00    +0.000 C 
ATOM      8  N   UNL     1       7.322  -1.459  -0.826  0.00  0.00    +0.000 N 
ATOM      9  O   UNL     1       7.181   0.329   0.563  0.00  0.00    +0.000 OA
ATOM     10  H   UNL     1       7.829  -1.870  -1.597  0.00  0.00    +0.000 HD
BRANCH   7  11
ATOM     11  C   UNL     1       8.856   0.450  -1.139  0.00  0.00    +0.000 C 
BRANCH  11  12
ATOM     12  O   UNL     1       9.647  -0.525  -1.820  0.00  0.00    +0.000 OA
BRANCH  12  13
ATOM     13  C   UNL     1      10.404  -0.141  -2.908  0.00  0.00    +0.000 A 
ATOM     14  C   UNL     1      10.726   1.188  -3.237  0.00  0.00    +0.000 A 
ATOM     15  C   UNL     1      11.508   1.471  -4.363  0.00  0.00    +0.000 A 
ATOM     16  C   UNL     1      11.984   0.434  -5.171  0.00  0.00    +0.000 A 
ATOM     17  C   UNL     1      11.665  -0.880  -4.828  0.00  0.00    +0.000 A 
ATOM     18  C   UNL     1      12.022  -2.164  -5.481  0.00  0.00    +0.000 C 
ATOM     19  C   UNL     1      10.900  -1.162  -3.728  0.00  0.00    +0.000 A 
ATOM     20  C   UNL     1      10.747  -2.640  -3.650  0.00  0.00    +0.000 C 
ATOM     21  N   UNL     1      11.447  -3.132  -4.710  0.00  0.00    +0.000 N 
ATOM     22  O   UNL     1      12.698  -2.322  -6.498  0.00  0.00    +0.000 OA
ATOM     23  O   UNL     1      10.121  -3.284  -2.807  0.00  0.00    +0.000 OA
BRANCH  21  24
ATOM     24  C   UNL     1      11.543  -4.591  -4.986  0.00  0.00    +0.000 C 
ATOM     25  C   UNL     1      12.982  -5.140  -4.745  0.00  0.00    +0.000 C 
ATOM     26  C   UNL     1      12.495  -7.139  -6.126  0.00  0.00    +0.000 C 
ATOM     27  C   UNL     1      11.085  -6.612  -6.479  0.00  0.00    +0.000 C 
ATOM     28  C   UNL     1      10.993  -5.080  -6.345  0.00  0.00    +0.000 C 
ATOM     29  N   UNL     1      13.224  -6.350  -5.301  0.00  0.00    +0.000 N 
ATOM     30  O   UNL     1      12.934  -8.207  -6.548  0.00  0.00    +0.000 OA
ATOM     31  O   UNL     1      13.848  -4.558  -4.092  0.00  0.00    +0.000 OA
ATOM     32  H   UNL     1      14.145  -6.712  -5.102  0.00  0.00    +0.000 HD
ENDBRANCH  21  24
ENDBRANCH  12  13
ENDBRANCH  11  12
ENDBRANCH   7  11
ENDBRANCH   6   8
ENDBRANCH   5   6
ENDBRANCH   4   5
ENDBRANCH   3   4
ENDBRANCH   2   3
ENDBRANCH   1   2
BRANCH   1  33
ATOM     33  C   UNL     1       0.165   2.248  -1.827  0.00  0.00    +0.000 C 
BRANCH  33  34
ATOM     34  C   UNL     1      -1.111   2.420  -2.676  0.00  0.00    +0.000 C 
BRANCH  34  36
ATOM     35  C   UNL     1      -2.685   3.793  -1.323  0.00  0.00    +0.000 C 
ATOM     36  N   UNL     1      -1.852   3.642  -2.368  0.00  0.00    +0.000 N 
ATOM     37  O   UNL     1      -2.911   2.906  -0.499  0.00  0.00    +0.000 OA
ATOM     38  H   UNL     1      -1.718   4.420  -2.997  0.00  0.00    +0.000 HD
BRANCH  35  39
ATOM     39  C   UNL     1      -3.379   5.158  -1.184  0.00  0.00    +0.000 C 
BRANCH  39  45
ATOM     40  N   UNL     1      -6.098   8.466  -0.396  0.00  0.00    +0.000 NA
ATOM     41  C   UNL     1      -8.591   8.431  -0.320  0.00  0.00    +0.000 C 
ATOM     42  C   UNL     1      -7.224   7.805  -0.501  0.00  0.00    +0.000 A 
ATOM     43  C   UNL     1      -5.614   6.399  -0.889  0.00  0.00    +0.000 A 
ATOM     44  C   UNL     1      -6.526   4.419  -2.934  0.00  0.00    +0.000 C 
ATOM     45  C   UNL     1      -4.928   5.089  -1.287  0.00  0.00    +0.000 C 
ATOM     46  C   UNL     1      -7.677   4.414  -1.979  0.00  0.00    +0.000 A 
ATOM     47  C   UNL     1      -7.862   5.425  -1.011  0.00  0.00    +0.000 A 
ATOM     48  C   UNL     1      -9.677   3.712  -0.959  0.00  0.00    +0.000 A 
ATOM     49  C   UNL     1     -10.929   2.945  -0.592  0.00  0.00    +0.000 C 
ATOM     50  C   UNL     1      -8.696   3.418  -1.917  0.00  0.00    +0.000 A 
ATOM     51  C   UNL     1      -8.737   2.146  -2.752  0.00  0.00    +0.000 C 
ATOM     52  N   UNL     1      -5.067   7.569  -0.654  0.00  0.00    +0.000 NA
ATOM     53  N   UNL     1      -5.306   4.709  -2.649  0.00  0.00    +0.000 NA
ATOM     54  N   UNL     1      -6.988   6.479  -0.804  0.00  0.00    +0.000 N 
ATOM     55  S   UNL     1      -9.303   5.164  -0.096  0.00  0.00    +0.000 S 
BRANCH  44  56
ATOM     56  C   UNL     1      -6.861   4.073  -4.333  0.00  0.00    +0.000 A 
ATOM     57  C   UNL     1      -7.997   4.621  -4.949  0.00  0.00    +0.000 A 
ATOM     58  C   UNL     1      -8.307   4.294  -6.266  0.00  0.00    +0.000 A 
ATOM     59  C   UNL     1      -7.483   3.423  -6.976  0.00  0.00    +0.000 A 
ATOM     60  C   UNL     1      -6.347   2.881  -6.379  0.00  0.00    +0.000 A 
ATOM     61  C   UNL     1      -6.034   3.207  -5.063  0.00  0.00    +0.000 A 
ATOM     62 CL   UNL     1      -7.871   3.015  -8.607  0.00  0.00    +0.000 Cl
ENDBRANCH  44  56
ENDBRANCH  39  45
ENDBRANCH  35  39
ENDBRANCH  34  36
ENDBRANCH  33  34
ENDBRANCH   1  33
TORSDOF 16
