0:0:0
     RDKit          3D

 79 85  0  0  1  0  0  0  0  0999 V2000
    5.5840    8.3300  -11.4770 C   0  0  0  0  0  0  0  0  0  0  0  0
    4.4190    8.2770  -10.8250 N   0  0  0  0  0  0  0  0  0  0  0  0
    5.6890    8.1350  -12.6890 O   0  0  0  0  0  0  0  0  0  0  0  0
    4.4260    8.4960   -9.8380 H   0  0  0  0  0  0  0  0  0  0  0  0
    8.9710    9.8350  -10.4740 C   0  0  0  0  0  0  0  0  0  0  0  0
    7.7940    9.5080  -11.1930 C   0  0  0  0  0  3  0  0  0  0  0  0
    6.7760    8.7020  -10.6440 C   0  0  0  0  0  0  0  0  0  0  0  0
    6.9220    8.2190   -9.3260 C   0  0  0  0  0  3  0  0  0  0  0  0
    8.0680    8.5510   -8.5830 C   0  0  0  0  0  3  0  0  0  0  0  0
    9.0860    9.3430   -9.1480 C   0  0  0  0  0  0  0  0  0  0  0  0
   10.1860    9.5990   -8.4010 F   0  0  0  0  0  0  0  0  0  0  0  0
   10.1710   10.6070  -12.5320 C   0  0  0  0  0  3  0  0  0  0  0  0
   10.0220   10.6560  -11.1310 C   0  0  0  0  0  0  0  0  0  0  0  0
   10.8810   11.5270  -10.4250 C   0  0  0  0  0  3  0  0  0  0  0  0
   11.8100   12.3480  -11.0980 C   0  0  0  0  0  3  0  0  0  0  0  0
   11.8960   12.3540  -12.5110 C   0  0  0  0  0  0  0  0  0  0  0  0
   11.0630   11.4540  -13.2240 C   0  0  0  0  0  0  0  0  0  0  0  0
   14.0340   15.7420  -14.0880 N   0  0  0  0  0  0  0  0  0  0  0  0
   14.8810   16.4230  -15.0780 C   0  0  0  0  0  1  0  0  0  0  0  0
   12.8120   15.2260  -14.7510 C   0  0  0  0  0  3  0  0  0  0  0  0
   11.9210   16.3660  -15.2820 C   0  0  0  0  0  1  0  0  0  0  0  0
   11.9590   14.3780  -13.7760 C   0  0  0  0  0  2  0  0  0  0  0  0
   14.7870   14.6270  -13.4680 C   0  0  0  0  0  3  0  0  0  0  0  0
   16.0200   15.1270  -12.6870 C   0  0  0  0  0  1  0  0  0  0  0  0
   13.8820   13.8210  -12.5020 C   0  0  0  0  0  2  0  0  0  0  0  0
   12.7200   13.2730  -13.2000 N   0  0  0  0  0  0  0  0  0  0  0  0
   10.0420   11.5370  -15.4400 C   0  0  0  0  0  0  0  0  0  0  0  0
   11.1050   11.3450  -14.6370 N   0  0  0  0  0  0  0  0  0  0  0  0
    9.0320   12.1320  -15.0560 O   0  0  0  0  0  0  0  0  0  0  0  0
   11.9800   11.0580  -15.0500 H   0  0  0  0  0  0  0  0  0  0  0  0
   10.4320    9.0280  -20.3570 O   0  0  0  0  0  0  0  0  0  0  0  0
   10.2050   10.9670  -16.7740 C   0  0  0  0  0  0  0  0  0  0  0  0
   10.6010    9.6810  -16.8870 C   0  0  0  0  0  3  0  0  0  0  0  0
   10.3550    9.6400  -19.2920 C   0  0  0  0  0  0  0  0  0  0  0  0
    9.9180   11.0300  -19.1810 C   0  0  0  0  0  3  0  0  0  0  0  0
    9.8220   11.6890  -17.9960 C   0  0  0  0  0  0  0  0  0  0  0  0
   10.6760    9.0470  -18.1280 N   0  0  0  0  0  0  0  0  0  0  0  0
   10.9830    8.0830  -18.1470 H   0  0  0  0  0  0  0  0  0  0  0  0
    9.3660   13.1490  -17.9800 C   0  0  1  0  0  0  0  0  0  0  0  0
    9.3080   13.6660  -19.2100 F   0  0  0  0  0  0  0  0  0  0  0  0
    8.1450   13.2520  -17.4570 F   0  0  0  0  0  0  0  0  0  0  0  0
   10.2040   13.9090  -17.2730 F   0  0  0  0  0  0  0  0  0  0  0  0
    3.1220    7.9600  -11.4260 C   0  0  0  0  0  2  0  0  0  0  0  0
    2.7110    6.4910  -11.2580 C   0  0  0  0  0  0  0  0  0  0  0  0
    3.6290    5.6330  -10.7920 N   0  0  0  0  0  0  0  0  0  0  0  0
    1.5520    6.1550  -11.5020 O   0  0  0  0  0  0  0  0  0  0  0  0
    4.5350    6.0150  -10.5620 H   0  0  0  0  0  0  0  0  0  0  0  0
    3.4180    4.2400  -10.3830 C   0  0  0  0  0  3  0  0  0  0  0  0
    3.7960    4.1640   -8.8810 C   0  0  0  0  0  0  0  0  0  0  0  0
    3.3350    3.3120   -6.5790 C   0  0  0  0  0  3  0  0  0  0  0  0
    2.2360    2.3970   -6.0100 C   0  0  0  0  0  2  0  0  0  0  0  0
    1.0930    2.4980   -6.9990 C   0  0  0  0  0  3  0  0  0  0  0  0
    1.7410    2.8320   -8.3380 C   0  0  0  0  0  2  0  0  0  0  0  0
    3.0330    3.4480   -8.0170 N   0  0  0  0  0  0  0  0  0  0  0  0
    4.7840    4.8030   -8.4980 O   0  0  0  0  0  0  0  0  0  0  0  0
    4.7080    2.6690   -6.3150 C   0  0  0  0  0  0  0  0  0  0  0  0
    5.3500    3.0650   -5.2110 N   0  0  0  0  0  0  0  0  0  0  0  0
    5.1450    1.8000   -7.0740 O   0  0  0  0  0  0  0  0  0  0  0  0
    4.9170    3.7880   -4.6530 H   0  0  0  0  0  0  0  0  0  0  0  0
    6.5790    2.4760   -4.6870 C   0  0  0  0  0  3  0  0  0  0  0  0
    7.4800    3.5900   -4.1350 C   0  0  0  0  0  1  0  0  0  0  0  0
    6.3250    1.3980   -3.6320 C   0  0  0  0  0  0  0  0  0  0  0  0
    5.0660    1.2290   -3.0120 C   0  0  0  0  0  3  0  0  0  0  0  0
    4.8900    0.2580   -2.0090 C   0  0  0  0  0  3  0  0  0  0  0  0
    5.9650   -0.5600   -1.5930 C   0  0  0  0  0  0  0  0  0  0  0  0
    7.2100   -0.4120   -2.2420 C   0  0  0  0  0  3  0  0  0  0  0  0
    7.3880    0.5560   -3.2490 C   0  0  0  0  0  3  0  0  0  0  0  0
    5.8000   -1.4980   -0.4780 C   0  0  0  0  0  0  0  0  0  0  0  0
    6.6710   -1.8140    0.5480 C   0  0  0  0  0  0  0  0  0  0  0  0
    8.0580   -1.3030    0.7900 C   0  0  0  0  0  1  0  0  0  0  0  0
    4.8960   -3.0820    1.1580 C   0  0  0  0  0  3  0  0  0  0  0  0
    6.1360   -2.7100    1.4770 N   0  0  0  0  0  0  0  0  0  0  0  0
    4.2930   -2.3730   -0.3260 S   0  0  0  0  0  0  0  0  0  0  0  0
    0.2360    3.5770   -6.6570 O   0  0  0  0  0  0  0  0  0  0  0  0
    0.7540    4.3750   -6.6280 H   0  0  0  0  0  0  0  0  0  0  0  0
    4.2180    3.2580  -11.3130 C   0  0  2  0  0  0  0  0  0  0  0  0
    5.7190    3.6170  -11.4040 C   0  0  0  0  0  1  0  0  0  0  0  0
    3.6180    3.2990  -12.7340 C   0  0  0  0  0  1  0  0  0  0  0  0
    4.1060    1.7950  -10.8220 C   0  0  0  0  0  1  0  0  0  0  0  0
  1  2  1  0
  1  7  1  0
  2  4  1  0
  3  1  2  0
  5 10  1  0
  6  7  1  0
  6  5  2  0
  7  8  2  0
  8  9  1  0
 10  9  2  0
 10 11  1  0
 12 13  1  0
 13  5  1  0
 13 14  2  0
 15 14  1  0
 16 15  2  0
 17 12  2  0
 17 16  1  0
 18 23  1  0
 19 18  1  0
 20 21  1  0
 20 18  1  0
 20 22  1  0
 22 26  1  0
 23 24  1  0
 23 25  1  0
 26 16  1  0
 26 25  1  0
 27 29  2  0
 27 28  1  0
 28 17  1  0
 30 28  1  0
 31 34  2  0
 32 27  1  0
 33 32  2  0
 34 35  1  0
 34 37  1  0
 35 36  2  0
 36 39  1  0
 36 32  1  0
 37 33  1  0
 38 37  1  0
 39 41  1  1
 39 42  1  0
 40 39  1  0
 43 44  1  0
 43  2  1  0
 44 45  1  0
 45 47  1  0
 45 48  1  0
 46 44  2  0
 48 49  1  0
 49 55  2  0
 49 54  1  0
 50 56  1  0
 50 51  1  0
 52 74  1  0
 52 51  1  0
 53 54  1  0
 53 52  1  0
 54 50  1  0
 56 57  1  0
 57 60  1  0
 57 59  1  0
 58 56  2  0
 60 61  1  0
 60 62  1  0
 62 67  2  0
 62 63  1  0
 63 64  2  0
 64 65  1  0
 65 68  1  0
 66 65  2  0
 67 66  1  0
 68 73  1  0
 68 69  2  0
 69 70  1  0
 69 72  1  0
 71 72  2  0
 73 71  1  0
 74 75  1  0
 76 79  1  1
 76 48  1  0
 77 76  1  0
 78 76  1  0
M  END
>  <TORSDO>  (1) 
F 16

>  <SCORE>  (1) 
-16.881

>  <name>  (1) 
0

>  <ligand_id>  (1) 
0

>  <original_smiles>  (1) 
[H]OC1([H])C([H])([H])N(C(=O)C([H])(N([H])C(=O)C([H])([H])N([H])C(=O)c2c([H])c([H])c(F)c(-c3c([H])c([H])c(N4C([H])([H])C([H])(C([H])([H])[H])N(C([H])([H])[H])C([H])(C([H])([H])[H])C4([H])[H])c(N([H])C(=O)c4c(C(F)(F)F)c([H])c(=O)n([H])c4[H])c3[H])c2[H])C(C([H])([H])[H])(C([H])([H])[H])C([H])([H])[H])C([H])(C(=O)N([H])C([H])(c2c([H])c([H])c(-c3sc([H])nc3C([H])([H])[H])c([H])c2[H])C([H])([H])[H])C1([H])[H]

>  <smiles>  (1) 
[H]OC1([H])C([H])([H])N(C(=O)C([H])(N([H])C(=O)C([H])([H])N([H])C(=O)c2c([H])c([H])c(F)c(-c3c([H])c([H])c(N4C([H])([H])C([H])(C([H])([H])[H])N(C([H])([H])[H])C([H])(C([H])([H])[H])C4([H])[H])c(N([H])C(=O)c4c(C(F)(F)F)c([H])c(=O)n([H])c4[H])c3[H])c2[H])C(C([H])([H])[H])(C([H])([H])[H])C([H])([H])[H])C([H])(C(=O)N([H])C([H])(c2c([H])c([H])c(-c3sc([H])nc3C([H])([H])[H])c([H])c2[H])C([H])([H])[H])C1([H])[H]

$$$$
