REMARK  Name = 
REMARK  40 active torsions:
REMARK  status: ('A' for Active; 'I' for Inactive)
REMARK    1  A    between atoms: C_1  and  C_19
REMARK    2  A    between atoms: C_2  and  C_50
REMARK    3  A    between atoms: C_20  and  C_28
REMARK    4  A    between atoms: C_21  and  C_34
REMARK    5  A    between atoms: C_24  and  C_51
REMARK    6  A    between atoms: C_26  and  O_84
REMARK    7  A    between atoms: CA_29  and  C_35
REMARK    8  A    between atoms: C_30  and  C_46
REMARK    9  A    between atoms: C_31  and  C_52
REMARK   10  A    between atoms: C_36  and  C_44
REMARK   11  A    between atoms: C_37  and  C_67
REMARK   12  A    between atoms: C_38  and  C_53
REMARK   13  A    between atoms: C_45  and  O_83
REMARK   14  A    between atoms: C_47  and  C_68
REMARK   15  A    between atoms: C_48  and  C_68
REMARK   16  A    between atoms: C_49  and  C_68
REMARK   17  A    between atoms: C_50  and  O_85
REMARK   18  A    between atoms: C_51  and  N_75
REMARK   19  A    between atoms: C_52  and  C_54
REMARK   20  A    between atoms: C_53  and  C_55
REMARK   21  A    between atoms: C_54  and  C_56
REMARK   22  A    between atoms: C_55  and  O_86
REMARK   23  A    between atoms: C_56  and  O_84
REMARK   24  A    between atoms: C_57  and  C_58
REMARK   25  A    between atoms: C_57  and  O_85
REMARK   26  A    between atoms: C_58  and  O_87
REMARK   27  A    between atoms: C_59  and  C_60
REMARK   28  A    between atoms: C_59  and  O_86
REMARK   29  A    between atoms: C_60  and  O_88
REMARK   30  A    between atoms: C_61  and  C_62
REMARK   31  A    between atoms: C_61  and  O_87
REMARK   32  A    between atoms: C_62  and  O_89
REMARK   33  A    between atoms: C_63  and  C_64
REMARK   34  A    between atoms: C_63  and  O_88
REMARK   35  A    between atoms: C_64  and  O_90
REMARK   36  A    between atoms: C_65  and  C_66
REMARK   37  A    between atoms: C_65  and  O_89
REMARK   38  A    between atoms: C_66  and  O_90
REMARK   39  A    between atoms: C_67  and  C_68
REMARK   40  A    between atoms: C_67  and  N_76
REMARK                            x       y       z     vdW  Elec       q    Type
REMARK                         _______ _______ _______ _____ _____    ______ ____
ROOT
ATOM      1  C   UNL     1      20.242  47.218  18.097  0.00  0.00    +0.000 C 
ENDROOT
BRANCH   1   2
ATOM      2  O   UNL     1      20.651  48.094  19.141  0.00  0.00    +0.000 OA
BRANCH   2   3
ATOM      3  C   UNL     1      19.591  48.347  20.052  0.00  0.00    +0.000 C 
BRANCH   3   4
ATOM      4  C   UNL     1      20.086  49.284  21.138  0.00  0.00    +0.000 C 
BRANCH   4   5
ATOM      5  O   UNL     1      20.531  50.495  20.539  0.00  0.00    +0.000 OA
BRANCH   5   6
ATOM      6  C   UNL     1      20.987  51.421  21.515  0.00  0.00    +0.000 C 
BRANCH   6   8
ATOM      7  C   UNL     1      21.803  53.657  20.320  0.00  0.00    +0.000 C 
ATOM      8  C   UNL     1      21.435  52.649  20.858  0.00  0.00    +0.000 C 
BRANCH   7  13
ATOM      9  C   UNL     1      21.645  55.272  18.488  0.00  0.00    +0.000 A 
ATOM     10  C   UNL     1      23.266  55.617  20.246  0.00  0.00    +0.000 A 
ATOM     11  C   UNL     1      22.073  56.444  17.863  0.00  0.00    +0.000 A 
ATOM     12  C   UNL     1      23.694  56.789  19.621  0.00  0.00    +0.000 A 
ATOM     13  C   UNL     1      22.241  54.859  19.679  0.00  0.00    +0.000 A 
ATOM     14  C   UNL     1      23.097  57.202  18.430  0.00  0.00    +0.000 A 
BRANCH  14  15
ATOM     15  O   UNL     1      23.514  58.346  17.821  0.00  0.00    +0.000 OA
BRANCH  15  16
ATOM     16  C   UNL     1      24.880  58.716  18.000  0.00  0.00    +0.000 C 
BRANCH  16  17
ATOM     17  C   UNL     1      25.344  59.495  16.777  0.00  0.00    +0.000 C 
BRANCH  17  18
ATOM     18  C   UNL     1      26.810  59.910  16.897  0.00  0.00    +0.000 C 
BRANCH  18  26
ATOM     19  C   UNL     1      33.084  53.904  21.914  0.00  0.00    +0.000 A 
ATOM     20  C   UNL     1      32.310  54.808  22.635  0.00  0.00    +0.000 A 
ATOM     21  C   UNL     1      32.895  53.766  20.540  0.00  0.00    +0.000 A 
ATOM     22  C   UNL     1      31.349  55.579  21.981  0.00  0.00    +0.000 A 
ATOM     23  C   UNL     1      31.922  54.526  19.878  0.00  0.00    +0.000 A 
ATOM     24  C   UNL     1      31.150  55.451  20.598  0.00  0.00    +0.000 A 
ATOM     25  CA  UNL     1      28.154  57.845  16.009  0.00  0.00    +0.000 A 
ATOM     26  C   UNL     1      27.719  58.711  16.990  0.00  0.00    +0.000 A 
ATOM     27  C   UNL     1      29.183  56.944  17.723  0.00  0.00    +0.000 A 
ATOM     28  C   UNL     1      31.738  54.394  18.394  0.00  0.00    +0.000 C 
ATOM     29  C   UNL     1      30.111  56.318  19.923  0.00  0.00    +0.000 C 
ATOM     30  C   UNL     1      30.313  54.752  17.982  0.00  0.00    +0.000 C 
ATOM     31  N   UNL     1      28.994  56.831  16.427  0.00  0.00    +0.000 NA
ATOM     32  N   UNL     1      29.973  56.092  18.471  0.00  0.00    +0.000 N 
ATOM     33  S   UNL     1      28.381  58.246  18.502  0.00  0.00    +0.000 S 
BRANCH  22  41
ATOM     34  C   UNL     1      26.293  59.330  27.302  0.00  0.00    +0.000 A 
ATOM     35  C   UNL     1      25.931  58.171  27.979  0.00  0.00    +0.000 A 
ATOM     36  C   UNL     1      27.195  59.277  26.235  0.00  0.00    +0.000 A 
ATOM     37  C   UNL     1      26.458  56.931  27.611  0.00  0.00    +0.000 A 
ATOM     38  C   UNL     1      27.744  58.037  25.843  0.00  0.00    +0.000 A 
ATOM     39  C   UNL     1      27.364  56.885  26.539  0.00  0.00    +0.000 A 
ATOM     40  C   UNL     1      28.939  56.555  24.729  0.00  0.00    +0.000 A 
ATOM     41  C   UNL     1      30.569  56.513  22.785  0.00  0.00    +0.000 C 
ATOM     42  N   UNL     1      28.646  57.831  24.809  0.00  0.00    +0.000 NA
ATOM     43  N   UNL     1      29.817  55.925  23.811  0.00  0.00    +0.000 N 
ATOM     44  O   UNL     1      30.559  57.726  22.540  0.00  0.00    +0.000 OA
ATOM     45  S   UNL     1      28.175  55.523  25.859  0.00  0.00    +0.000 S 
ATOM     46  H   UNL     1      29.910  54.949  23.906  0.00  0.00    +0.000 HD
ENDBRANCH  22  41
BRANCH  25  47
ATOM     47  C   UNL     1      27.741  57.982  14.538  0.00  0.00    +0.000 C 
ATOM     48  O   UNL     1      28.210  57.124  13.744  0.00  0.00    +0.000 OA
ATOM     49  OXT UNL     1      26.972  58.940  14.261  0.00  0.00    +0.000 OA
ENDBRANCH  25  47
ENDBRANCH  18  26
ENDBRANCH  17  18
ENDBRANCH  16  17
ENDBRANCH  15  16
ENDBRANCH  14  15
ENDBRANCH   7  13
ENDBRANCH   6   8
ENDBRANCH   5   6
ENDBRANCH   4   5
ENDBRANCH   3   4
ENDBRANCH   2   3
ENDBRANCH   1   2
BRANCH   1  50
ATOM     50  C   UNL     1      21.405  47.005  17.146  0.00  0.00    +0.000 C 
BRANCH  50  51
ATOM     51  O   UNL     1      21.780  48.255  16.586  0.00  0.00    +0.000 OA
BRANCH  51  52
ATOM     52  C   UNL     1      22.870  48.115  15.683  0.00  0.00    +0.000 C 
BRANCH  52  53
ATOM     53  C   UNL     1      23.209  49.474  15.101  0.00  0.00    +0.000 C 
BRANCH  53  54
ATOM     54  O   UNL     1      23.546  50.361  16.159  0.00  0.00    +0.000 OA
BRANCH  54  55
ATOM     55  C   UNL     1      23.895  51.649  15.668  0.00  0.00    +0.000 C 
BRANCH  55  56
ATOM     56  C   UNL     1      24.244  52.547  16.840  0.00  0.00    +0.000 C 
BRANCH  56  57
ATOM     57  O   UNL     1      25.329  51.974  17.556  0.00  0.00    +0.000 OA
BRANCH  57  58
ATOM     58  C   UNL     1      25.715  52.788  18.657  0.00  0.00    +0.000 C 
BRANCH  58  59
ATOM     59  C   UNL     1      26.872  52.126  19.380  0.00  0.00    +0.000 C 
BRANCH  59  60
ATOM     60  O   UNL     1      26.453  50.857  19.862  0.00  0.00    +0.000 OA
BRANCH  60  61
ATOM     61  C   UNL     1      27.508  50.179  20.532  0.00  0.00    +0.000 C 
BRANCH  61  62
ATOM     62  C   UNL     1      27.008  48.831  21.027  0.00  0.00    +0.000 C 
BRANCH  62  63
ATOM     63  C   UNL     1      26.556  47.915  19.900  0.00  0.00    +0.000 C 
ATOM     64  N   UNL     1      27.592  47.661  19.024  0.00  0.00    +0.000 N 
ATOM     65  O   UNL     1      25.414  47.475  19.807  0.00  0.00    +0.000 OA
ATOM     66  H   UNL     1      28.470  48.071  19.200  0.00  0.00    +0.000 HD
BRANCH  64  67
ATOM     67  C   UNL     1      27.439  46.811  17.848  0.00  0.00    +0.000 C 
BRANCH  67  68
ATOM     68  C   UNL     1      28.304  45.599  18.086  0.00  0.00    +0.000 C 
ATOM     69  C   UNL     1      27.609  42.087  17.121  0.00  0.00    +0.000 C 
ATOM     70  C   UNL     1      26.556  44.218  16.866  0.00  0.00    +0.000 C 
ATOM     71  C   UNL     1      28.467  43.123  17.850  0.00  0.00    +0.000 C 
ATOM     72  C   UNL     1      26.235  42.743  17.049  0.00  0.00    +0.000 C 
ATOM     73  N   UNL     1      27.814  44.403  17.589  0.00  0.00    +0.000 N 
ATOM     74  O   UNL     1      29.372  45.709  18.691  0.00  0.00    +0.000 OA
BRANCH  71  75
ATOM     75  C   UNL     1      29.864  43.035  17.272  0.00  0.00    +0.000 C 
ATOM     76  N   UNL     1      30.696  42.159  17.942  0.00  0.00    +0.000 N 
ATOM     77  O   UNL     1      30.156  43.711  16.292  0.00  0.00    +0.000 OA
ATOM     78  H   UNL     1      30.337  41.674  18.720  0.00  0.00    +0.000 HD
BRANCH  76  79
ATOM     79  C   UNL     1      32.069  41.922  17.557  0.00  0.00    +0.000 C 
BRANCH  79  85
ATOM     80  C   UNL     1      32.172  38.430  16.085  0.00  0.00    +0.000 A 
ATOM     81  C   UNL     1      32.542  40.025  14.309  0.00  0.00    +0.000 A 
ATOM     82  C   UNL     1      32.060  39.476  17.001  0.00  0.00    +0.000 A 
ATOM     83  C   UNL     1      32.430  41.071  15.225  0.00  0.00    +0.000 A 
ATOM     84  C   UNL     1      32.413  38.705  14.739  0.00  0.00    +0.000 A 
ATOM     85  C   UNL     1      32.189  40.796  16.571  0.00  0.00    +0.000 A 
BRANCH  84  87
ATOM     86  C   UNL     1      32.235  36.106  11.944  0.00  0.00    +0.000 A 
ATOM     87  C   UNL     1      32.529  37.623  13.791  0.00  0.00    +0.000 A 
ATOM     88  C   UNL     1      33.413  36.566  13.736  0.00  0.00    +0.000 A 
ATOM     89  C   UNL     1      34.502  36.286  14.694  0.00  0.00    +0.000 C 
ATOM     90  N   UNL     1      33.245  35.694  12.677  0.00  0.00    +0.000 NA
ATOM     91  S   UNL     1      31.442  37.535  12.468  0.00  0.00    +0.000 S 
ENDBRANCH  84  87
ENDBRANCH  79  85
ENDBRANCH  76  79
ENDBRANCH  71  75
BRANCH  72  92
ATOM     92  O   UNL     1      25.542  42.569  18.280  0.00  0.00    +0.000 OA
ATOM     93  H   UNL     1      26.075  42.931  19.005  0.00  0.00    +0.000 HD
ENDBRANCH  72  92
ENDBRANCH  67  68
BRANCH  67  97
ATOM     94  C   UNL     1      26.855  48.733  16.226  0.00  0.00    +0.000 C 
ATOM     95  C   UNL     1      27.632  46.526  15.336  0.00  0.00    +0.000 C 
ATOM     96  C   UNL     1      29.232  48.018  16.534  0.00  0.00    +0.000 C 
ATOM     97  C   UNL     1      27.770  47.523  16.506  0.00  0.00    +0.000 C 
ENDBRANCH  67  97
ENDBRANCH  64  67
ENDBRANCH  62  63
ENDBRANCH  61  62
ENDBRANCH  60  61
ENDBRANCH  59  60
ENDBRANCH  58  59
ENDBRANCH  57  58
ENDBRANCH  56  57
ENDBRANCH  55  56
ENDBRANCH  54  55
ENDBRANCH  53  54
ENDBRANCH  52  53
ENDBRANCH  51  52
ENDBRANCH  50  51
ENDBRANCH   1  50
TORSDOF 36
