=
                    3D
 Structure written by MMmdl.
 97105  0  0  1  0            999 V2000
   20.1700   56.8920   17.7000 C   0  0  0  0  0  0
   19.4190   56.6670   16.5130 O   0  0  0  0  0  0
   19.4200   57.8110   15.6730 C   0  0  0  0  0  0
   19.0280   57.3930   14.2680 C   0  0  0  0  0  0
   19.9310   57.9800   13.3390 O   0  0  0  0  0  0
   20.9690   58.6900   14.0010 C   0  0  0  0  0  0
   22.8630   59.3490   12.2490 C   0  0  0  0  0  0
   22.0100   59.0520   13.0390 C   0  0  0  0  0  0
   23.6360   59.5850    9.9390 C   0  0  0  0  0  0
   25.1180   60.1630   11.7580 C   0  0  0  0  0  0
   24.6290   59.9290    9.0200 C   0  0  0  0  0  0
   26.1100   60.5080   10.8390 C   0  0  0  0  0  0
   23.8800   59.7020   11.3070 C   0  0  0  0  0  0
   25.8650   60.3900    9.4710 C   0  0  0  0  0  0
   26.8330   60.7270    8.5750 O   0  0  0  0  0  0
   28.1860   60.6510    9.0210 C   0  0  0  0  0  0
   28.9240   59.6170    8.1820 C   0  0  0  0  0  0
   28.7540   59.8820    6.6860 C   0  0  0  0  0  0
   36.9510   65.6590    6.4740 C   0  0  0  0  0  0
   36.2220   65.5820    7.6570 C   0  0  0  0  0  0
   36.6050   64.8550    5.3900 C   0  0  0  0  0  0
   35.1430   64.7040    7.7550 C   0  0  0  0  0  0
   35.5320   63.9590    5.4840 C   0  0  0  0  0  0
   34.7830   63.8900    6.6700 C   0  0  0  0  0  0
   30.6000   60.0300    4.8340 C   0  0  0  0  0  0
   30.0430   60.3440    6.0560 C   0  0  0  0  0  0
   32.1550   61.3930    5.5640 C   0  0  0  0  0  0
   35.1460   63.1130    4.3060 C   0  0  0  0  0  0
   33.5950   62.9650    6.8090 C   0  0  0  0  0  0
   34.4590   61.8260    4.7550 C   0  0  0  0  0  0
   31.8110   60.6310    4.5500 N   0  0  0  0  0  0
   33.3140   62.1440    5.6150 N   0  0  0  0  0  0
   31.0690   61.4350    6.8920 S   0  0  0  0  0  0
   32.4480   65.4480   15.5090 C   0  0  0  0  0  0
   33.4700   66.2960   15.9230 C   0  0  0  0  0  0
   32.4030   64.9810   14.1920 C   0  0  0  0  0  0
   34.4700   66.6990   15.0360 C   0  0  0  0  0  0
   33.4000   65.3740   13.2740 C   0  0  0  0  0  0
   34.4180   66.2270   13.7140 C   0  0  0  0  0  0
   34.5390   65.5460   11.3930 C   0  0  0  0  0  0
   34.4120   64.6670    9.0160 C   0  0  0  0  0  0
   33.4850   64.9930   11.9430 N   0  0  0  0  0  0
   34.9860   65.4130   10.0540 N   0  0  0  0  0  0
   33.3820   63.9940    9.1480 O   0  0  0  0  0  0
   35.4930   66.5430   12.4030 S   0  0  0  0  0  0
   35.8060   65.9080    9.8240 H   0  0  0  0  0  0
   29.9320   59.0730    3.8390 C   0  0  0  0  0  0
   29.3640   59.6050    2.8480 O   0  0  0  0  0  0
   30.0130   57.8450    4.1050 O   0  0  0  0  0  0
   19.8740   55.7820   18.6920 C   0  0  0  0  0  0
   20.8660   55.7920   19.7080 O   0  0  0  0  0  0
   22.1380   56.1590   19.1900 C   0  0  0  0  0  0
   23.2210   55.6060   20.0970 C   0  0  0  0  0  0
   24.4130   56.3560   19.9080 O   0  0  0  0  0  0
   25.5420   55.6870   20.4550 C   0  0  0  0  0  0
   25.8710   54.4850   19.5900 C   0  0  0  0  0  0
   26.6330   53.5590   20.3530 O   0  0  0  0  0  0
   25.8470   52.4430   20.7550 C   0  0  0  0  0  0
   25.4450   51.6530   19.5240 C   0  0  0  0  0  0
   25.6900   50.2740   19.7580 O   0  0  0  0  0  0
   26.3650   50.0650   20.9920 C   0  0  0  0  0  0
   26.5540   48.5740   21.2190 C   0  0  0  0  0  0
   26.2340   47.7410   19.9870 C   0  0  0  0  0  0
   27.2820   47.7640   19.0890 N   0  0  0  0  0  0
   25.1750   47.1380   19.8380 O   0  0  0  0  0  0
   28.0860   48.2850   19.3160 H   0  0  0  0  0  0
   27.2460   47.0500   17.8170 C   0  0  2  0  0  0
   28.2110   45.8980   17.9510 C   0  0  0  0  0  0
   27.6120   42.3280   17.1500 C   0  0  0  0  0  0
   26.4010   44.3840   17.0110 C   0  0  0  0  0  0
   28.4950   43.4320   17.7350 C   0  0  2  0  0  0
   26.2020   42.8980   17.2610 C   0  0  2  0  0  0
   27.7330   44.6630   17.5470 N   0  0  0  0  0  0
   29.3430   46.0880   18.3980 O   0  0  0  0  0  0
   29.8010   43.4140   16.9680 C   0  0  0  0  0  0
   30.7710   42.6030   17.5260 N   0  0  0  0  0  0
   29.9120   44.0840   15.9470 O   0  0  0  0  0  0
   30.5540   42.1150   18.3530 H   0  0  0  0  0  0
   32.0890   42.4400   16.9560 C   0  0  0  0  0  0
   31.5270   38.8710   15.8060 C   0  0  0  0  0  0
   33.2410   39.8640   14.4240 C   0  0  0  0  0  0
   31.4120   40.0640   16.5200 C   0  0  0  0  0  0
   33.1260   41.0570   15.1380 C   0  0  0  0  0  0
   32.4420   38.7720   14.7570 C   0  0  0  0  0  0
   32.2120   41.1560   16.1860 C   0  0  0  0  0  0
   32.1490   35.5750   12.6850 C   0  0  0  0  0  0
   32.5600   37.5380   14.0180 C   0  0  0  0  0  0
   33.6520   36.7260   13.7930 C   0  0  0  0  0  0
   35.0250   36.9480   14.2910 C   0  0  0  0  0  0
   33.4170   35.5980   13.0290 N   0  0  0  0  0  0
   31.1810   36.8770   13.2450 S   0  0  0  0  0  0
   25.7000   42.7130   18.5800 O   0  0  0  0  0  0
   24.7660   42.4560   18.5370 H   0  0  0  0  0  0
   27.4050   47.1880   15.2440 C   0  0  0  0  0  0
   28.9940   48.4890   16.6760 C   0  0  0  0  0  0
   26.5910   49.1490   16.5670 C   0  0  0  0  0  0
   27.5540   47.9420   16.5820 C   0  0  0  0  0  0
  1 50  1  0  0  0
  1  2  1  0  0  0
  2  3  1  0  0  0
  3  4  1  0  0  0
  4  5  1  0  0  0
  5  6  1  0  0  0
  6  8  1  0  0  0
  7  8  3  0  0  0
  7 13  1  0  0  0
  9 13  1  0  0  0
  9 11  2  0  0  0
 10 12  1  0  0  0
 10 13  2  0  0  0
 11 14  1  0  0  0
 12 14  2  0  0  0
 14 15  1  0  0  0
 15 16  1  0  0  0
 16 17  1  0  0  0
 17 18  1  0  0  0
 18 26  1  0  0  0
 19 20  1  0  0  0
 19 21  2  0  0  0
 20 22  2  0  0  0
 21 23  1  0  0  0
 22 41  1  0  0  0
 22 24  1  0  0  0
 23 24  2  0  0  0
 23 28  1  0  0  0
 24 29  1  0  0  0
 25 26  2  0  0  0
 25 31  1  0  0  0
 25 47  1  0  0  0
 26 33  1  0  0  0
 27 32  1  0  0  0
 27 33  1  0  0  0
 27 31  2  0  0  0
 28 30  1  0  0  0
 29 32  1  0  0  0
 30 32  1  0  0  0
 34 35  1  0  0  0
 34 36  2  0  0  0
 35 37  2  0  0  0
 36 38  1  0  0  0
 37 39  1  0  0  0
 38 39  2  0  0  0
 38 42  1  0  0  0
 39 45  1  0  0  0
 40 42  2  0  0  0
 40 45  1  0  0  0
 40 43  1  0  0  0
 41 44  2  0  0  0
 41 43  1  0  0  0
 43 46  1  0  0  0
 47 49  1  0  0  0
 47 48  2  0  0  0
 50 51  1  0  0  0
 51 52  1  0  0  0
 52 53  1  0  0  0
 53 54  1  0  0  0
 54 55  1  0  0  0
 55 56  1  0  0  0
 56 57  1  0  0  0
 57 58  1  0  0  0
 58 59  1  0  0  0
 59 60  1  0  0  0
 60 61  1  0  0  0
 61 62  1  0  0  0
 62 63  1  0  0  0
 63 64  1  0  0  0
 63 65  2  0  0  0
 64 66  1  0  0  0
 64 67  1  0  0  0
 67 68  1  0  0  0
 67 97  1  0  0  0
 68 74  2  0  0  0
 68 73  1  0  0  0
 69 72  1  0  0  0
 69 71  1  0  0  0
 70 72  1  0  0  0
 70 73  1  0  0  0
 71 75  1  0  0  0
 71 73  1  0  0  0
 72 92  1  0  0  0
 75 76  1  0  0  0
 75 77  2  0  0  0
 76 78  1  0  0  0
 76 79  1  0  0  0
 79 85  1  0  0  0
 80 82  1  0  0  0
 80 84  2  0  0  0
 81 84  1  0  0  0
 81 83  2  0  0  0
 82 85  2  0  0  0
 83 85  1  0  0  0
 84 87  1  0  0  0
 86 90  2  0  0  0
 86 91  1  0  0  0
 87 88  2  0  0  0
 87 91  1  0  0  0
 88 89  1  0  0  0
 88 90  1  0  0  0
 92 93  1  0  0  0
 94 97  1  0  0  0
 95 97  1  0  0  0
 96 97  1  0  0  0
M  END
> <MODEL>
1

> <REMARK>
 VINA RESULT:   -10.900      0.000      0.000
 INTER + INTRA:         -37.799
 INTER:                 -35.749
 INTRA:                  -2.051
 UNBOUND:                -4.278
  Name = 
  40 active torsions:
  status: ('A' for Active; 'I' for Inactive)
    1  A    between atoms: C_1  and  C_19
    2  A    between atoms: C_2  and  C_50
    3  A    between atoms: C_20  and  C_28
    4  A    between atoms: C_21  and  C_34
    5  A    between atoms: C_24  and  C_51
    6  A    between atoms: C_26  and  O_84
    7  A    between atoms: CA_29  and  C_35
    8  A    between atoms: C_30  and  C_46
    9  A    between atoms: C_31  and  C_52
   10  A    between atoms: C_36  and  C_44
   11  A    between atoms: C_37  and  C_67
   12  A    between atoms: C_38  and  C_53
   13  A    between atoms: C_45  and  O_83
   14  A    between atoms: C_47  and  C_68
   15  A    between atoms: C_48  and  C_68
   16  A    between atoms: C_49  and  C_68
   17  A    between atoms: C_50  and  O_85
   18  A    between atoms: C_51  and  N_75
   19  A    between atoms: C_52  and  C_54
   20  A    between atoms: C_53  and  C_55
   21  A    between atoms: C_54  and  C_56
   22  A    between atoms: C_55  and  O_86
   23  A    between atoms: C_56  and  O_84
   24  A    between atoms: C_57  and  C_58
   25  A    between atoms: C_57  and  O_85
   26  A    between atoms: C_58  and  O_87
   27  A    between atoms: C_59  and  C_60
   28  A    between atoms: C_59  and  O_86
   29  A    between atoms: C_60  and  O_88
   30  A    between atoms: C_61  and  C_62
   31  A    between atoms: C_61  and  O_87
   32  A    between atoms: C_62  and  O_89
   33  A    between atoms: C_63  and  C_64
   34  A    between atoms: C_63  and  O_88
   35  A    between atoms: C_64  and  O_90
   36  A    between atoms: C_65  and  C_66
   37  A    between atoms: C_65  and  O_89
   38  A    between atoms: C_66  and  O_90
   39  A    between atoms: C_67  and  C_68
   40  A    between atoms: C_67  and  N_76
                            x       y       z     vdW  Elec       q    Type
                         _______ _______ _______ _____ _____    ______ ____

> <TORSDO>
F 36

> <chiral flag>
1

> <version>
0

$$$$
=
                    3D
 Structure written by MMmdl.
 97105  0  0  1  0            999 V2000
   30.6030   46.2780   16.1160 C   0  0  0  0  0  0
   29.7300   47.3930   16.2580 O   0  0  0  0  0  0
   28.8190   47.4820   15.1720 C   0  0  0  0  0  0
   27.4300   47.1150   15.6610 C   0  0  0  0  0  0
   27.1690   45.7550   15.3400 O   0  0  0  0  0  0
   26.6600   45.0440   16.4600 C   0  0  0  0  0  0
   26.6870   46.6180   18.6090 C   0  0  0  0  0  0
   26.6750   45.9090   17.6400 C   0  0  0  0  0  0
   27.8990   48.0160   20.2100 C   0  0  0  0  0  0
   25.5110   47.7320   20.4430 C   0  0  0  0  0  0
   27.9110   48.8390   21.3370 C   0  0  0  0  0  0
   25.5230   48.5560   21.5690 C   0  0  0  0  0  0
   26.6990   47.4630   19.7630 C   0  0  0  0  0  0
   26.7230   49.1090   22.0150 C   0  0  0  0  0  0
   26.7340   49.9140   23.1130 O   0  0  0  0  0  0
   27.3880   51.1750   22.9880 C   0  0  0  0  0  0
   26.5880   52.0530   22.0350 C   0  0  0  0  0  0
   26.3670   53.4520   22.6100 C   0  0  0  0  0  0
   19.7570   57.3090   16.1270 C   0  0  0  0  0  0
   19.2920   56.4540   17.1210 C   0  0  0  0  0  0
   21.0940   57.7040   16.1180 C   0  0  0  0  0  0
   20.1650   55.9880   18.1040 C   0  0  0  0  0  0
   21.9730   57.2530   17.1100 C   0  0  0  0  0  0
   21.5130   56.3770   18.1050 C   0  0  0  0  0  0
   26.7270   55.3570   20.8500 C   0  0  0  0  0  0
   25.9690   54.4340   21.5380 C   0  0  0  0  0  0
   24.7870   55.7610   19.9120 C   0  0  0  0  0  0
   23.4180   57.6600   17.0830 C   0  0  0  0  0  0
   22.4310   55.8360   19.1780 C   0  0  0  0  0  0
   24.0220   57.6390   18.4840 C   0  0  0  0  0  0
   26.0520   56.1190   19.9160 N   0  0  0  0  0  0
   23.8230   56.3200   19.0940 N   0  0  0  0  0  0
   24.3410   54.5150   21.0040 S   0  0  0  0  0  0
   15.7660   50.6760   22.6190 C   0  0  0  0  0  0
   14.8410   50.3910   21.6210 C   0  0  0  0  0  0
   16.8120   51.5730   22.3810 C   0  0  0  0  0  0
   14.9340   50.9910   20.3640 C   0  0  0  0  0  0
   16.9300   52.1930   21.1190 C   0  0  0  0  0  0
   15.9870   51.8900   20.1320 C   0  0  0  0  0  0
   17.7100   53.4690   19.4970 C   0  0  0  0  0  0
   19.6240   55.0910   19.1190 C   0  0  0  0  0  0
   17.9100   53.0990   20.7400 N   0  0  0  0  0  0
   18.4810   54.3800   18.7310 N   0  0  0  0  0  0
   20.1330   55.0060   20.2440 O   0  0  0  0  0  0
   16.3630   52.7780   18.7010 S   0  0  0  0  0  0
   18.1730   54.5330   17.8080 H   0  0  0  0  0  0
   28.2310   55.5420   21.0920 C   0  0  0  0  0  0
   29.0020   54.9500   20.2920 O   0  0  0  0  0  0
   28.5530   56.2680   22.0690 O   0  0  0  0  0  0
   30.3090   45.2770   17.2180 C   0  0  0  0  0  0
   31.3480   45.3330   18.1830 O   0  0  0  0  0  0
   31.1710   44.3510   19.1970 C   0  0  0  0  0  0
   32.1580   44.6120   20.3180 C   0  0  0  0  0  0
   31.9220   45.9090   20.8510 O   0  0  0  0  0  0
   33.1410   46.5880   21.1270 C   0  0  0  0  0  0
   32.8320   47.8740   21.8710 C   0  0  0  0  0  0
   33.3780   48.9690   21.1500 O   0  0  0  0  0  0
   34.1790   49.7960   21.9850 C   0  0  0  0  0  0
   33.3810   50.1750   23.2180 C   0  0  0  0  0  0
   32.4590   51.2000   22.8760 O   0  0  0  0  0  0
   31.3950   51.2790   23.8160 C   0  0  0  0  0  0
   31.9670   51.3420   25.2230 C   0  0  0  0  0  0
   31.0080   51.9620   26.2270 C   0  0  0  0  0  0
   31.1390   53.3360   26.2530 N   0  0  0  0  0  0
   30.2300   51.3030   26.9110 O   0  0  0  0  0  0
   31.8000   53.7580   25.6580 H   0  0  0  0  0  0
   30.3400   54.1880   27.1280 C   0  0  2  0  0  0
   29.0840   54.5200   26.3630 C   0  0  0  0  0  0
   25.5770   53.8190   27.3410 C   0  0  0  0  0  0
   27.7540   53.5220   28.2830 C   0  0  0  0  0  0
   26.6010   54.3060   26.3140 C   0  0  2  0  0  0
   26.3780   52.8760   28.2310 C   0  0  2  0  0  0
   27.8940   54.1700   26.9800 N   0  0  0  0  0  0
   29.1560   55.0670   25.2610 O   0  0  0  0  0  0
   26.2500   55.7390   25.9750 C   0  0  0  0  0  0
   26.2180   56.5840   27.0670 N   0  0  0  0  0  0
   26.0290   56.0470   24.8090 O   0  0  0  0  0  0
   26.4150   56.2090   27.9560 H   0  0  0  0  0  0
   25.9060   57.9920   26.9680 C   0  0  0  0  0  0
   24.4380   60.0800   29.7710 C   0  0  0  0  0  0
   26.3620   58.8930   30.6220 C   0  0  0  0  0  0
   24.6340   59.5000   28.5180 C   0  0  0  0  0  0
   26.5580   58.3120   29.3690 C   0  0  0  0  0  0
   25.3020   59.7760   30.8230 C   0  0  0  0  0  0
   25.6940   58.6170   28.3170 C   0  0  0  0  0  0
   25.1690   61.7980   34.0630 C   0  0  0  0  0  0
   25.0990   60.3760   32.1200 C   0  0  0  0  0  0
   24.3040   59.9870   33.1770 C   0  0  0  0  0  0
   23.4310   58.7960   33.2220 C   0  0  0  0  0  0
   24.3430   60.8010   34.2930 N   0  0  0  0  0  0
   25.9320   61.8190   32.5250 S   0  0  0  0  0  0
   26.4900   51.5970   27.6170 O   0  0  0  0  0  0
   26.3550   50.9050   28.2840 H   0  0  0  0  0  0
   30.1270   56.5740   28.0890 C   0  0  0  0  0  0
   31.9790   56.0170   26.5000 C   0  0  0  0  0  0
   32.0010   55.0840   28.8130 C   0  0  0  0  0  0
   31.0860   55.4580   27.6270 C   0  0  0  0  0  0
  1  2  1  0  0  0
  1 50  1  0  0  0
  2  3  1  0  0  0
  3  4  1  0  0  0
  4  5  1  0  0  0
  5  6  1  0  0  0
  6  8  1  0  0  0
  7 13  1  0  0  0
  7  8  3  0  0  0
  9 11  1  0  0  0
  9 13  2  0  0  0
 10 12  2  0  0  0
 10 13  1  0  0  0
 11 14  2  0  0  0
 12 14  1  0  0  0
 14 15  1  0  0  0
 15 16  1  0  0  0
 16 17  1  0  0  0
 17 18  1  0  0  0
 18 26  1  0  0  0
 19 20  1  0  0  0
 19 21  2  0  0  0
 20 22  2  0  0  0
 21 23  1  0  0  0
 22 24  1  0  0  0
 22 41  1  0  0  0
 23 24  2  0  0  0
 23 28  1  0  0  0
 24 29  1  0  0  0
 25 47  1  0  0  0
 25 26  2  0  0  0
 25 31  1  0  0  0
 26 33  1  0  0  0
 27 31  2  0  0  0
 27 33  1  0  0  0
 27 32  1  0  0  0
 28 30  1  0  0  0
 29 32  1  0  0  0
 30 32  1  0  0  0
 34 35  2  0  0  0
 34 36  1  0  0  0
 35 37  1  0  0  0
 36 38  2  0  0  0
 37 39  2  0  0  0
 38 39  1  0  0  0
 38 42  1  0  0  0
 39 45  1  0  0  0
 40 42  2  0  0  0
 40 43  1  0  0  0
 40 45  1  0  0  0
 41 44  2  0  0  0
 41 43  1  0  0  0
 43 46  1  0  0  0
 47 49  1  0  0  0
 47 48  2  0  0  0
 50 51  1  0  0  0
 51 52  1  0  0  0
 52 53  1  0  0  0
 53 54  1  0  0  0
 54 55  1  0  0  0
 55 56  1  0  0  0
 56 57  1  0  0  0
 57 58  1  0  0  0
 58 59  1  0  0  0
 59 60  1  0  0  0
 60 61  1  0  0  0
 61 62  1  0  0  0
 62 63  1  0  0  0
 63 64  1  0  0  0
 63 65  2  0  0  0
 64 67  1  0  0  0
 64 66  1  0  0  0
 67 68  1  0  0  0
 67 97  1  0  0  0
 68 73  1  0  0  0
 68 74  2  0  0  0
 69 72  1  0  0  0
 69 71  1  0  0  0
 70 72  1  0  0  0
 70 73  1  0  0  0
 71 75  1  0  0  0
 71 73  1  0  0  0
 72 92  1  0  0  0
 75 76  1  0  0  0
 75 77  2  0  0  0
 76 78  1  0  0  0
 76 79  1  0  0  0
 79 85  1  0  0  0
 80 84  1  0  0  0
 80 82  2  0  0  0
 81 84  2  0  0  0
 81 83  1  0  0  0
 82 85  1  0  0  0
 83 85  2  0  0  0
 84 87  1  0  0  0
 86 90  2  0  0  0
 86 91  1  0  0  0
 87 91  1  0  0  0
 87 88  2  0  0  0
 88 89  1  0  0  0
 88 90  1  0  0  0
 92 93  1  0  0  0
 94 97  1  0  0  0
 95 97  1  0  0  0
 96 97  1  0  0  0
M  END
> <MODEL>
2

> <REMARK>
 VINA RESULT:   -10.219     10.677     18.632
 INTER + INTRA:         -35.704
 INTER:                 -31.426
 INTRA:                  -4.278
 UNBOUND:                -4.278
  Name = 
  40 active torsions:
  status: ('A' for Active; 'I' for Inactive)
    1  A    between atoms: C_1  and  C_19
    2  A    between atoms: C_2  and  C_50
    3  A    between atoms: C_20  and  C_28
    4  A    between atoms: C_21  and  C_34
    5  A    between atoms: C_24  and  C_51
    6  A    between atoms: C_26  and  O_84
    7  A    between atoms: CA_29  and  C_35
    8  A    between atoms: C_30  and  C_46
    9  A    between atoms: C_31  and  C_52
   10  A    between atoms: C_36  and  C_44
   11  A    between atoms: C_37  and  C_67
   12  A    between atoms: C_38  and  C_53
   13  A    between atoms: C_45  and  O_83
   14  A    between atoms: C_47  and  C_68
   15  A    between atoms: C_48  and  C_68
   16  A    between atoms: C_49  and  C_68
   17  A    between atoms: C_50  and  O_85
   18  A    between atoms: C_51  and  N_75
   19  A    between atoms: C_52  and  C_54
   20  A    between atoms: C_53  and  C_55
   21  A    between atoms: C_54  and  C_56
   22  A    between atoms: C_55  and  O_86
   23  A    between atoms: C_56  and  O_84
   24  A    between atoms: C_57  and  C_58
   25  A    between atoms: C_57  and  O_85
   26  A    between atoms: C_58  and  O_87
   27  A    between atoms: C_59  and  C_60
   28  A    between atoms: C_59  and  O_86
   29  A    between atoms: C_60  and  O_88
   30  A    between atoms: C_61  and  C_62
   31  A    between atoms: C_61  and  O_87
   32  A    between atoms: C_62  and  O_89
   33  A    between atoms: C_63  and  C_64
   34  A    between atoms: C_63  and  O_88
   35  A    between atoms: C_64  and  O_90
   36  A    between atoms: C_65  and  C_66
   37  A    between atoms: C_65  and  O_89
   38  A    between atoms: C_66  and  O_90
   39  A    between atoms: C_67  and  C_68
   40  A    between atoms: C_67  and  N_76
                            x       y       z     vdW  Elec       q    Type
                         _______ _______ _______ _____ _____    ______ ____

> <TORSDO>
F 36

> <chiral flag>
1

> <version>
0

$$$$
