MODEL 1
REMARK VINA RESULT:    -9.162      0.000      0.000
REMARK INTER + INTRA:         -35.377
REMARK INTER:                 -30.846
REMARK INTRA:                  -4.531
REMARK UNBOUND:                -6.933
REMARK  Name = ligand
REMARK  41 active torsions:
REMARK  status: ('A' for Active; 'I' for Inactive)
REMARK    1  A    between atoms: C_2  and  C_17
REMARK    2  A    between atoms: C_6  and  C_12
REMARK    3  A    between atoms: C_8  and  C_9
REMARK    4  A    between atoms: C_9  and  C_27
REMARK    5  A    between atoms: C_9  and  N_30
REMARK    6  A    between atoms: C_10  and  C_27
REMARK    7  A    between atoms: N_13  and  C_14
REMARK    8  A    between atoms: C_14  and  C_15
REMARK    9  A    between atoms: C_18  and  C_19
REMARK   10  A    between atoms: C_22  and  O_23
REMARK   11  A    between atoms: C_27  and  C_28
REMARK   12  A    between atoms: C_27  and  C_29
REMARK   13  A    between atoms: C_31  and  C_33
REMARK   14  A    between atoms: C_33  and  C_34
REMARK   15  A    between atoms: C_34  and  O_35
REMARK   16  A    between atoms: O_35  and  C_36
REMARK   17  A    between atoms: C_36  and  C_37
REMARK   18  A    between atoms: C_37  and  O_38
REMARK   19  A    between atoms: O_38  and  C_39
REMARK   20  A    between atoms: C_39  and  C_40
REMARK   21  A    between atoms: C_40  and  O_41
REMARK   22  A    between atoms: O_41  and  C_42
REMARK   23  A    between atoms: C_42  and  C_43
REMARK   24  A    between atoms: C_43  and  O_44
REMARK   25  A    between atoms: O_44  and  C_45
REMARK   26  A    between atoms: C_45  and  C_46
REMARK   27  A    between atoms: C_46  and  O_47
REMARK   28  A    between atoms: O_47  and  C_48
REMARK   29  A    between atoms: C_48  and  C_49
REMARK   30  A    between atoms: C_49  and  O_50
REMARK   31  A    between atoms: O_50  and  C_51
REMARK   32  A    between atoms: C_51  and  C_52
REMARK   33  A    between atoms: C_53  and  C_54
REMARK   34  A    between atoms: C_59  and  O_60
REMARK   35  A    between atoms: O_60  and  C_61
REMARK   36  A    between atoms: C_61  and  C_62
REMARK   37  A    between atoms: C_62  and  C_63
REMARK   38  A    between atoms: C_63  and  C_64
REMARK   39  A    between atoms: CA_65  and  C_66
REMARK   40  A    between atoms: C_66  and  OXT_68
REMARK   41  A    between atoms: C_81  and  C_82
REMARK                            x       y       z     vdW  Elec       q    Type
REMARK                         _______ _______ _______ _____ _____    ______ ____
ROOT
ATOM      1  C   UNL     1      39.551  53.856  25.255  0.00  0.00    +0.000 C 
ENDROOT
BRANCH   1   2
ATOM      2  C   UNL     1      38.807  52.526  25.094  0.00  0.00    +0.000 C 
BRANCH   2   3
ATOM      3  O   UNL     1      38.809  52.151  23.724  0.00  0.00    +0.000 OA
BRANCH   3   4
ATOM      4  C   UNL     1      37.630  51.471  23.315  0.00  0.00    +0.000 C 
BRANCH   4   5
ATOM      5  C   UNL     1      36.719  52.443  22.555  0.00  0.00    +0.000 C 
BRANCH   5   6
ATOM      6  O   UNL     1      35.603  52.778  23.367  0.00  0.00    +0.000 OA
BRANCH   6   7
ATOM      7  C   UNL     1      34.366  52.785  22.665  0.00  0.00    +0.000 C 
BRANCH   7   8
ATOM      8  C   UNL     1      34.514  51.982  21.367  0.00  0.00    +0.000 C 
BRANCH   8   9
ATOM      9  O   UNL     1      33.773  50.773  21.469  0.00  0.00    +0.000 OA
BRANCH   9  10
ATOM     10  C   UNL     1      34.562  49.604  21.282  0.00  0.00    +0.000 C 
BRANCH  10  11
ATOM     11  C   UNL     1      33.763  48.366  21.710  0.00  0.00    +0.000 C 
BRANCH  11  12
ATOM     12  O   UNL     1      34.083  47.279  20.851  0.00  0.00    +0.000 OA
BRANCH  12  13
ATOM     13  C   UNL     1      34.082  47.618  19.471  0.00  0.00    +0.000 C 
BRANCH  13  14
ATOM     14  C   UNL     1      34.381  46.347  18.653  0.00  0.00    +0.000 C 
BRANCH  14  16
ATOM     15  N   UNL     1      31.992  46.012  18.220  0.00  0.00    +0.000 N 
ATOM     16  C   UNL     1      33.238  45.946  17.715  0.00  0.00    +0.000 C 
ATOM     17  O   UNL     1      33.478  45.604  16.557  0.00  0.00    +0.000 OA
ATOM     18  H   UNL     1      31.864  46.306  19.177  0.00  0.00    +0.000 HD
BRANCH  15  19
ATOM     19  C   UNL     1      30.756  45.748  17.468  0.00  0.00    +0.000 C 
BRANCH  19  22
ATOM     20  C   UNL     1      28.009  48.464  16.708  0.00  0.00    +0.000 C 
ATOM     21  C   UNL     1      27.453  48.645  15.289  0.00  0.00    +0.000 C 
ATOM     22  C   UNL     1      29.777  46.942  17.666  0.00  0.00    +0.000 C 
ATOM     23  C   UNL     1      27.701  47.286  14.652  0.00  0.00    +0.000 C 
ATOM     24  C   UNL     1      29.024  46.834  15.268  0.00  0.00    +0.000 C 
ATOM     25  N   UNL     1      28.967  47.336  16.646  0.00  0.00    +0.000 N 
ATOM     26  O   UNL     1      29.769  47.492  18.771  0.00  0.00    +0.000 OA
BRANCH  20  28
ATOM     27  O   UNL     1      26.048  47.368  17.568  0.00  0.00    +0.000 OA
ATOM     28  C   UNL     1      26.902  48.236  17.758  0.00  0.00    +0.000 C 
ATOM     29  N   UNL     1      26.941  49.046  18.829  0.00  0.00    +0.000 N 
ATOM     30  H   UNL     1      27.705  49.702  18.911  0.00  0.00    +0.000 HD
BRANCH  29  31
ATOM     31  C   UNL     1      25.980  49.027  19.932  0.00  0.00    +0.000 C 
BRANCH  31  36
ATOM     32  C   UNL     1      27.396  50.765  23.620  0.00  0.00    +0.000 A 
ATOM     33  C   UNL     1      27.676  49.429  23.321  0.00  0.00    +0.000 A 
ATOM     34  C   UNL     1      27.221  48.870  22.130  0.00  0.00    +0.000 A 
ATOM     35  C   UNL     1      26.198  50.979  21.533  0.00  0.00    +0.000 A 
ATOM     36  C   UNL     1      26.491  49.647  21.228  0.00  0.00    +0.000 A 
ATOM     37  C   UNL     1      26.656  51.537  22.723  0.00  0.00    +0.000 A 
BRANCH  32  39
ATOM     38  C   UNL     1      28.458  51.863  27.191  0.00  0.00    +0.000 A 
ATOM     39  C   UNL     1      27.888  51.375  24.888  0.00  0.00    +0.000 A 
ATOM     40  C   UNL     1      28.473  52.623  25.148  0.00  0.00    +0.000 A 
ATOM     41  C   UNL     1      28.819  53.728  24.172  0.00  0.00    +0.000 C 
ATOM     42  N   UNL     1      28.773  52.864  26.413  0.00  0.00    +0.000 NA
ATOM     43  S   UNL     1      27.748  50.505  26.396  0.00  0.00    +0.000 S 
ENDBRANCH  32  39
ENDBRANCH  31  36
ENDBRANCH  29  31
ENDBRANCH  20  28
BRANCH  23  44
ATOM     44  O   UNL     1      27.741  47.344  13.241  0.00  0.00    +0.000 OA
ATOM     45  H   UNL     1      27.338  46.544  12.892  0.00  0.00    +0.000 HD
ENDBRANCH  23  44
ENDBRANCH  19  22
BRANCH  19  47
ATOM     46  C   UNL     1      28.589  44.472  17.920  0.00  0.00    +0.000 C 
ATOM     47  C   UNL     1      30.131  44.340  17.812  0.00  0.00    +0.000 C 
ATOM     48  C   UNL     1      30.641  43.806  19.177  0.00  0.00    +0.000 C 
ATOM     49  C   UNL     1      30.439  43.276  16.724  0.00  0.00    +0.000 C 
ENDBRANCH  19  47
ENDBRANCH  15  19
ENDBRANCH  14  16
ENDBRANCH  13  14
ENDBRANCH  12  13
ENDBRANCH  11  12
ENDBRANCH  10  11
ENDBRANCH   9  10
ENDBRANCH   8   9
ENDBRANCH   7   8
ENDBRANCH   6   7
ENDBRANCH   5   6
ENDBRANCH   4   5
ENDBRANCH   3   4
ENDBRANCH   2   3
ENDBRANCH   1   2
BRANCH   1  50
ATOM     50  O   UNL     1      39.327  54.651  24.101  0.00  0.00    +0.000 OA
BRANCH  50  51
ATOM     51  C   UNL     1      38.209  55.524  24.207  0.00  0.00    +0.000 C 
BRANCH  51  52
ATOM     52  C   UNL     1      37.805  55.972  22.798  0.00  0.00    +0.000 C 
BRANCH  52  53
ATOM     53  O   UNL     1      37.269  57.293  22.869  0.00  0.00    +0.000 OA
BRANCH  53  54
ATOM     54  C   UNL     1      36.744  57.826  21.656  0.00  0.00    +0.000 C 
BRANCH  54  55
ATOM     55  C   UNL     1      35.323  57.493  21.439  0.00  0.00    +0.000 C 
ATOM     56  C   UNL     1      34.161  57.187  21.218  0.00  0.00    +0.000 C 
BRANCH  56  57
ATOM     57  C   UNL     1      32.791  56.793  20.927  0.00  0.00    +0.000 A 
ATOM     58  C   UNL     1      31.957  57.648  20.206  0.00  0.00    +0.000 A 
ATOM     59  C   UNL     1      30.645  57.268  19.935  0.00  0.00    +0.000 A 
ATOM     60  C   UNL     1      32.316  55.558  21.372  0.00  0.00    +0.000 A 
ATOM     61  C   UNL     1      31.003  55.181  21.100  0.00  0.00    +0.000 A 
ATOM     62  C   UNL     1      30.156  56.039  20.380  0.00  0.00    +0.000 A 
BRANCH  62  63
ATOM     63  O   UNL     1      28.840  55.753  20.071  0.00  0.00    +0.000 OA
BRANCH  63  64
ATOM     64  C   UNL     1      28.176  54.691  20.752  0.00  0.00    +0.000 C 
BRANCH  64  65
ATOM     65  C   UNL     1      26.691  54.675  20.353  0.00  0.00    +0.000 C 
BRANCH  65  66
ATOM     66  C   UNL     1      25.921  55.926  20.815  0.00  0.00    +0.000 C 
BRANCH  66  67
ATOM     67  C   UNL     1      24.642  56.130  20.025  0.00  0.00    +0.000 A 
ATOM     68  CA  UNL     1      23.281  55.972  20.369  0.00  0.00    +0.000 A 
ATOM     69  S   UNL     1      24.702  56.644  18.356  0.00  0.00    +0.000 S 
ATOM     70  C   UNL     1      22.969  56.615  18.283  0.00  0.00    +0.000 A 
ATOM     71  N   UNL     1      22.410  56.249  19.408  0.00  0.00    +0.000 NA
ATOM     72  N   UNL     1      22.288  56.968  17.141  0.00  0.00    +0.000 N 
ATOM     73  C   UNL     1      22.931  57.203  15.843  0.00  0.00    +0.000 C 
ATOM     74  C   UNL     1      22.230  58.332  15.065  0.00  0.00    +0.000 C 
ATOM     75  C   UNL     1      20.720  58.157  14.996  0.00  0.00    +0.000 A 
ATOM     76  C   UNL     1      20.058  57.299  15.903  0.00  0.00    +0.000 A 
ATOM     77  C   UNL     1      20.900  56.519  16.932  0.00  0.00    +0.000 C 
ATOM     78  C   UNL     1      19.984  58.858  14.038  0.00  0.00    +0.000 A 
ATOM     79  C   UNL     1      18.608  58.714  13.944  0.00  0.00    +0.000 A 
ATOM     80  C   UNL     1      17.947  57.859  14.815  0.00  0.00    +0.000 A 
ATOM     81  C   UNL     1      18.652  57.147  15.794  0.00  0.00    +0.000 A 
BRANCH  81  82
ATOM     82  C   UNL     1      17.873  56.236  16.714  0.00  0.00    +0.000 C 
ATOM     83  O   UNL     1      17.060  56.701  17.516  0.00  0.00    +0.000 OA
ATOM     84  N   UNL     1      18.141  54.919  16.559  0.00  0.00    +0.000 N 
ATOM     85  C   UNL     1      17.576  53.867  17.265  0.00  0.00    +0.000 A 
ATOM     86  N   UNL     1      16.716  53.948  18.250  0.00  0.00    +0.000 NA
ATOM     87  C   UNL     1      16.368  52.715  18.704  0.00  0.00    +0.000 A 
ATOM     88  C   UNL     1      16.993  51.627  18.035  0.00  0.00    +0.000 A 
ATOM     89  S   UNL     1      18.060  52.259  16.787  0.00  0.00    +0.000 S 
ATOM     90  C   UNL     1      15.465  52.469  19.750  0.00  0.00    +0.000 A 
ATOM     91  C   UNL     1      15.205  51.144  20.103  0.00  0.00    +0.000 A 
ATOM     92  C   UNL     1      15.822  50.081  19.441  0.00  0.00    +0.000 A 
ATOM     93  C   UNL     1      16.724  50.301  18.400  0.00  0.00    +0.000 A 
ATOM     94  H   UNL     1      18.814  54.662  15.851  0.00  0.00    +0.000 HD
ENDBRANCH  81  82
BRANCH  68  95
ATOM     95  C   UNL     1      22.781  55.500  21.650  0.00  0.00    +0.000 C 
ATOM     96  O   UNL     1      23.517  55.207  22.592  0.00  0.00    +0.000 OA
BRANCH  95  97
ATOM     97  OXT UNL     1      21.415  55.428  21.721  0.00  0.00    +0.000 OA
ATOM     98  HXT UNL     1      20.991  55.674  20.897  0.00  0.00    +0.000 HD
ENDBRANCH  95  97
ENDBRANCH  68  95
ENDBRANCH  66  67
ENDBRANCH  65  66
ENDBRANCH  64  65
ENDBRANCH  63  64
ENDBRANCH  62  63
ENDBRANCH  56  57
ENDBRANCH  54  55
ENDBRANCH  53  54
ENDBRANCH  52  53
ENDBRANCH  51  52
ENDBRANCH  50  51
ENDBRANCH   1  50
TORSDOF 37
ENDMDL
MODEL 2
REMARK VINA RESULT:    -8.964      5.321     14.920
REMARK INTER + INTRA:         -34.761
REMARK INTER:                 -27.828
REMARK INTRA:                  -6.933
REMARK UNBOUND:                -6.933
REMARK  Name = ligand
REMARK  41 active torsions:
REMARK  status: ('A' for Active; 'I' for Inactive)
REMARK    1  A    between atoms: C_2  and  C_17
REMARK    2  A    between atoms: C_6  and  C_12
REMARK    3  A    between atoms: C_8  and  C_9
REMARK    4  A    between atoms: C_9  and  C_27
REMARK    5  A    between atoms: C_9  and  N_30
REMARK    6  A    between atoms: C_10  and  C_27
REMARK    7  A    between atoms: N_13  and  C_14
REMARK    8  A    between atoms: C_14  and  C_15
REMARK    9  A    between atoms: C_18  and  C_19
REMARK   10  A    between atoms: C_22  and  O_23
REMARK   11  A    between atoms: C_27  and  C_28
REMARK   12  A    between atoms: C_27  and  C_29
REMARK   13  A    between atoms: C_31  and  C_33
REMARK   14  A    between atoms: C_33  and  C_34
REMARK   15  A    between atoms: C_34  and  O_35
REMARK   16  A    between atoms: O_35  and  C_36
REMARK   17  A    between atoms: C_36  and  C_37
REMARK   18  A    between atoms: C_37  and  O_38
REMARK   19  A    between atoms: O_38  and  C_39
REMARK   20  A    between atoms: C_39  and  C_40
REMARK   21  A    between atoms: C_40  and  O_41
REMARK   22  A    between atoms: O_41  and  C_42
REMARK   23  A    between atoms: C_42  and  C_43
REMARK   24  A    between atoms: C_43  and  O_44
REMARK   25  A    between atoms: O_44  and  C_45
REMARK   26  A    between atoms: C_45  and  C_46
REMARK   27  A    between atoms: C_46  and  O_47
REMARK   28  A    between atoms: O_47  and  C_48
REMARK   29  A    between atoms: C_48  and  C_49
REMARK   30  A    between atoms: C_49  and  O_50
REMARK   31  A    between atoms: O_50  and  C_51
REMARK   32  A    between atoms: C_51  and  C_52
REMARK   33  A    between atoms: C_53  and  C_54
REMARK   34  A    between atoms: C_59  and  O_60
REMARK   35  A    between atoms: O_60  and  C_61
REMARK   36  A    between atoms: C_61  and  C_62
REMARK   37  A    between atoms: C_62  and  C_63
REMARK   38  A    between atoms: C_63  and  C_64
REMARK   39  A    between atoms: CA_65  and  C_66
REMARK   40  A    between atoms: C_66  and  OXT_68
REMARK   41  A    between atoms: C_81  and  C_82
REMARK                            x       y       z     vdW  Elec       q    Type
REMARK                         _______ _______ _______ _____ _____    ______ ____
ROOT
ATOM      1  C   UNL     1      18.310  55.189  17.187  0.00  0.00    +0.000 C 
ENDROOT
BRANCH   1   2
ATOM      2  C   UNL     1      17.336  54.435  18.099  0.00  0.00    +0.000 C 
BRANCH   2   3
ATOM      3  O   UNL     1      16.904  53.250  17.446  0.00  0.00    +0.000 OA
BRANCH   3   4
ATOM      4  C   UNL     1      16.318  52.294  18.320  0.00  0.00    +0.000 C 
BRANCH   4   5
ATOM      5  C   UNL     1      16.997  52.379  19.693  0.00  0.00    +0.000 C 
BRANCH   5   6
ATOM      6  O   UNL     1      16.790  51.163  20.399  0.00  0.00    +0.000 OA
BRANCH   6   7
ATOM      7  C   UNL     1      16.937  51.288  21.808  0.00  0.00    +0.000 C 
BRANCH   7   8
ATOM      8  C   UNL     1      16.542  52.706  22.237  0.00  0.00    +0.000 C 
BRANCH   8   9
ATOM      9  O   UNL     1      16.990  52.943  23.565  0.00  0.00    +0.000 OA
BRANCH   9  10
ATOM     10  C   UNL     1      16.367  54.061  24.185  0.00  0.00    +0.000 C 
BRANCH  10  11
ATOM     11  C   UNL     1      17.251  54.579  25.327  0.00  0.00    +0.000 C 
BRANCH  11  12
ATOM     12  O   UNL     1      17.517  55.961  25.127  0.00  0.00    +0.000 OA
BRANCH  12  13
ATOM     13  C   UNL     1      18.576  56.465  25.929  0.00  0.00    +0.000 C 
BRANCH  13  14
ATOM     14  C   UNL     1      18.923  55.413  26.999  0.00  0.00    +0.000 C 
BRANCH  14  16
ATOM     15  N   UNL     1      21.085  55.017  28.084  0.00  0.00    +0.000 N 
ATOM     16  C   UNL     1      20.044  55.857  27.946  0.00  0.00    +0.000 C 
ATOM     17  O   UNL     1      19.975  56.944  28.521  0.00  0.00    +0.000 OA
ATOM     18  H   UNL     1      21.083  54.143  27.579  0.00  0.00    +0.000 HD
BRANCH  15  19
ATOM     19  C   UNL     1      22.295  55.285  28.877  0.00  0.00    +0.000 C 
BRANCH  19  22
ATOM     20  C   UNL     1      25.171  57.444  27.274  0.00  0.00    +0.000 C 
ATOM     21  C   UNL     1      25.457  58.867  27.772  0.00  0.00    +0.000 C 
ATOM     22  C   UNL     1      23.441  55.727  27.921  0.00  0.00    +0.000 C 
ATOM     23  C   UNL     1      24.913  58.845  29.192  0.00  0.00    +0.000 C 
ATOM     24  C   UNL     1      23.688  57.937  29.097  0.00  0.00    +0.000 C 
ATOM     25  N   UNL     1      24.080  56.911  28.122  0.00  0.00    +0.000 N 
ATOM     26  O   UNL     1      23.737  54.961  26.999  0.00  0.00    +0.000 OA
BRANCH  20  28
ATOM     27  O   UNL     1      27.321  56.761  28.108  0.00  0.00    +0.000 OA
ATOM     28  C   UNL     1      26.423  56.542  27.293  0.00  0.00    +0.000 C 
ATOM     29  N   UNL     1      26.449  55.566  26.371  0.00  0.00    +0.000 N 
ATOM     30  H   UNL     1      25.645  55.445  25.772  0.00  0.00    +0.000 HD
BRANCH  29  31
ATOM     31  C   UNL     1      27.544  54.614  26.189  0.00  0.00    +0.000 C 
BRANCH  31  36
ATOM     32  C   UNL     1      27.128  50.965  28.458  0.00  0.00    +0.000 A 
ATOM     33  C   UNL     1      27.762  50.949  27.212  0.00  0.00    +0.000 A 
ATOM     34  C   UNL     1      27.898  52.127  26.482  0.00  0.00    +0.000 A 
ATOM     35  C   UNL     1      26.761  53.343  28.237  0.00  0.00    +0.000 A 
ATOM     36  C   UNL     1      27.407  53.328  26.999  0.00  0.00    +0.000 A 
ATOM     37  C   UNL     1      26.628  52.165  28.967  0.00  0.00    +0.000 A 
BRANCH  32  39
ATOM     38  C   UNL     1      27.361  47.652  30.472  0.00  0.00    +0.000 A 
ATOM     39  C   UNL     1      26.988  49.712  29.251  0.00  0.00    +0.000 A 
ATOM     40  C   UNL     1      25.852  49.032  29.716  0.00  0.00    +0.000 A 
ATOM     41  C   UNL     1      24.395  49.418  29.573  0.00  0.00    +0.000 C 
ATOM     42  N   UNL     1      26.084  47.912  30.378  0.00  0.00    +0.000 NA
ATOM     43  S   UNL     1      28.406  48.810  29.729  0.00  0.00    +0.000 S 
ENDBRANCH  32  39
ENDBRANCH  31  36
ENDBRANCH  29  31
ENDBRANCH  20  28
BRANCH  23  44
ATOM     44  O   UNL     1      24.606  60.135  29.680  0.00  0.00    +0.000 OA
ATOM     45  H   UNL     1      24.854  60.780  29.013  0.00  0.00    +0.000 HD
ENDBRANCH  23  44
ENDBRANCH  19  22
BRANCH  19  47
ATOM     46  C   UNL     1      22.822  52.788  28.979  0.00  0.00    +0.000 C 
ATOM     47  C   UNL     1      22.674  54.081  29.824  0.00  0.00    +0.000 C 
ATOM     48  C   UNL     1      21.568  53.814  30.880  0.00  0.00    +0.000 C 
ATOM     49  C   UNL     1      24.016  54.315  30.567  0.00  0.00    +0.000 C 
ENDBRANCH  19  47
ENDBRANCH  15  19
ENDBRANCH  14  16
ENDBRANCH  13  14
ENDBRANCH  12  13
ENDBRANCH  11  12
ENDBRANCH  10  11
ENDBRANCH   9  10
ENDBRANCH   8   9
ENDBRANCH   7   8
ENDBRANCH   6   7
ENDBRANCH   5   6
ENDBRANCH   4   5
ENDBRANCH   3   4
ENDBRANCH   2   3
ENDBRANCH   1   2
BRANCH   1  50
ATOM     50  O   UNL     1      17.589  55.730  16.091  0.00  0.00    +0.000 OA
BRANCH  50  51
ATOM     51  C   UNL     1      18.021  55.253  14.823  0.00  0.00    +0.000 C 
BRANCH  51  52
ATOM     52  C   UNL     1      17.707  56.321  13.768  0.00  0.00    +0.000 C 
BRANCH  52  53
ATOM     53  O   UNL     1      18.910  56.653  13.075  0.00  0.00    +0.000 OA
BRANCH  53  54
ATOM     54  C   UNL     1      19.558  57.856  13.481  0.00  0.00    +0.000 C 
BRANCH  54  55
ATOM     55  C   UNL     1      20.383  57.695  14.694  0.00  0.00    +0.000 C 
ATOM     56  C   UNL     1      21.080  57.513  15.680  0.00  0.00    +0.000 C 
BRANCH  56  57
ATOM     57  C   UNL     1      21.927  57.260  16.836  0.00  0.00    +0.000 A 
ATOM     58  C   UNL     1      23.297  57.514  16.766  0.00  0.00    +0.000 A 
ATOM     59  C   UNL     1      24.103  57.265  17.874  0.00  0.00    +0.000 A 
ATOM     60  C   UNL     1      21.363  56.761  18.012  0.00  0.00    +0.000 A 
ATOM     61  C   UNL     1      22.173  56.512  19.117  0.00  0.00    +0.000 A 
ATOM     62  C   UNL     1      23.553  56.760  19.053  0.00  0.00    +0.000 A 
BRANCH  62  63
ATOM     63  O   UNL     1      24.433  56.537  20.095  0.00  0.00    +0.000 OA
BRANCH  63  64
ATOM     64  C   UNL     1      24.140  55.522  21.053  0.00  0.00    +0.000 C 
BRANCH  64  65
ATOM     65  C   UNL     1      24.348  54.139  20.415  0.00  0.00    +0.000 C 
BRANCH  65  66
ATOM     66  C   UNL     1      25.538  54.089  19.439  0.00  0.00    +0.000 C 
BRANCH  66  67
ATOM     67  C   UNL     1      26.868  54.229  20.156  0.00  0.00    +0.000 A 
ATOM     68  CA  UNL     1      27.471  53.478  21.188  0.00  0.00    +0.000 A 
ATOM     69  S   UNL     1      27.965  55.525  19.745  0.00  0.00    +0.000 S 
ATOM     70  C   UNL     1      29.089  54.954  20.936  0.00  0.00    +0.000 A 
ATOM     71  N   UNL     1      28.669  53.893  21.577  0.00  0.00    +0.000 NA
ATOM     72  N   UNL     1      30.302  55.571  21.142  0.00  0.00    +0.000 N 
ATOM     73  C   UNL     1      30.678  56.856  20.541  0.00  0.00    +0.000 C 
ATOM     74  C   UNL     1      32.175  56.893  20.185  0.00  0.00    +0.000 C 
ATOM     75  C   UNL     1      33.070  56.449  21.334  0.00  0.00    +0.000 A 
ATOM     76  C   UNL     1      32.535  55.703  22.408  0.00  0.00    +0.000 A 
ATOM     77  C   UNL     1      31.027  55.386  22.410  0.00  0.00    +0.000 C 
ATOM     78  C   UNL     1      34.429  56.771  21.318  0.00  0.00    +0.000 A 
ATOM     79  C   UNL     1      35.268  56.388  22.354  0.00  0.00    +0.000 A 
ATOM     80  C   UNL     1      34.753  55.673  23.425  0.00  0.00    +0.000 A 
ATOM     81  C   UNL     1      33.397  55.325  23.470  0.00  0.00    +0.000 A 
BRANCH  81  82
ATOM     82  C   UNL     1      32.899  54.542  24.663  0.00  0.00    +0.000 C 
ATOM     83  O   UNL     1      33.172  53.347  24.786  0.00  0.00    +0.000 OA
ATOM     84  N   UNL     1      32.170  55.265  25.544  0.00  0.00    +0.000 N 
ATOM     85  C   UNL     1      31.594  54.806  26.719  0.00  0.00    +0.000 A 
ATOM     86  N   UNL     1      31.599  53.578  27.175  0.00  0.00    +0.000 NA
ATOM     87  C   UNL     1      30.943  53.489  28.363  0.00  0.00    +0.000 A 
ATOM     88  C   UNL     1      30.404  54.712  28.847  0.00  0.00    +0.000 A 
ATOM     89  S   UNL     1      30.775  55.995  27.702  0.00  0.00    +0.000 S 
ATOM     90  C   UNL     1      30.778  52.308  29.103  0.00  0.00    +0.000 A 
ATOM     91  C   UNL     1      30.081  52.375  30.311  0.00  0.00    +0.000 A 
ATOM     92  C   UNL     1      29.556  53.580  30.780  0.00  0.00    +0.000 A 
ATOM     93  C   UNL     1      29.706  54.765  30.061  0.00  0.00    +0.000 A 
ATOM     94  H   UNL     1      32.034  56.245  25.342  0.00  0.00    +0.000 HD
ENDBRANCH  81  82
BRANCH  68  95
ATOM     95  C   UNL     1      26.873  52.339  21.867  0.00  0.00    +0.000 C 
ATOM     96  O   UNL     1      26.878  52.208  23.090  0.00  0.00    +0.000 OA
BRANCH  95  97
ATOM     97  OXT UNL     1      26.286  51.433  21.023  0.00  0.00    +0.000 OA
ATOM     98  HXT UNL     1      25.386  51.222  21.279  0.00  0.00    +0.000 HD
ENDBRANCH  95  97
ENDBRANCH  68  95
ENDBRANCH  66  67
ENDBRANCH  65  66
ENDBRANCH  64  65
ENDBRANCH  63  64
ENDBRANCH  62  63
ENDBRANCH  56  57
ENDBRANCH  54  55
ENDBRANCH  53  54
ENDBRANCH  52  53
ENDBRANCH  51  52
ENDBRANCH  50  51
ENDBRANCH   1  50
TORSDOF 37
ENDMDL
